# Generated by pormake.
# Topology cag, (4)-cn, num edge types: 1
# Building blocks:
#     Node 0, Type 0, BuildingBlock: NAHDIM_clean_sbu_0, # of connection points: 4
#     Node 1, Type 0, BuildingBlock: NAHDIM_clean_sbu_0, # of connection points: 4
#     Node 2, Type 0, BuildingBlock: NAHDIM_clean_sbu_0, # of connection points: 4
#     Node 3, Type 0, BuildingBlock: NAHDIM_clean_sbu_0, # of connection points: 4
#     Node 4, Type 0, BuildingBlock: NAHDIM_clean_sbu_0, # of connection points: 4
#     Node 5, Type 0, BuildingBlock: NAHDIM_clean_sbu_0, # of connection points: 4
#     Node 6, Type 0, BuildingBlock: NAHDIM_clean_sbu_0, # of connection points: 4
#     Node 7, Type 0, BuildingBlock: NAHDIM_clean_sbu_0, # of connection points: 4
#     Node 8, Type 0, BuildingBlock: NAHDIM_clean_sbu_0, # of connection points: 4
#     Node 9, Type 0, BuildingBlock: NAHDIM_clean_sbu_0, # of connection points: 4
#     Node 10, Type 0, BuildingBlock: NAHDIM_clean_sbu_0, # of connection points: 4
#     Node 11, Type 0, BuildingBlock: NAHDIM_clean_sbu_0, # of connection points: 4
#     Node 12, Type 0, BuildingBlock: NAHDIM_clean_sbu_0, # of connection points: 4
#     Node 13, Type 0, BuildingBlock: NAHDIM_clean_sbu_0, # of connection points: 4
#     Node 14, Type 0, BuildingBlock: NAHDIM_clean_sbu_0, # of connection points: 4
#     Node 15, Type 0, BuildingBlock: NAHDIM_clean_sbu_0, # of connection points: 4
#     Edge 16, Type (0, 0), BuildingBlock: ZUJKAS_clean_linker_0, # of connection points: 2
#     Edge 17, Type (0, 0), BuildingBlock: ZUJKAS_clean_linker_0, # of connection points: 2
#     Edge 18, Type (0, 0), BuildingBlock: ZUJKAS_clean_linker_0, # of connection points: 2
#     Edge 19, Type (0, 0), BuildingBlock: ZUJKAS_clean_linker_0, # of connection points: 2
#     Edge 20, Type (0, 0), BuildingBlock: ZUJKAS_clean_linker_0, # of connection points: 2
#     Edge 21, Type (0, 0), BuildingBlock: ZUJKAS_clean_linker_0, # of connection points: 2
#     Edge 22, Type (0, 0), BuildingBlock: ZUJKAS_clean_linker_0, # of connection points: 2
#     Edge 23, Type (0, 0), BuildingBlock: ZUJKAS_clean_linker_0, # of connection points: 2
#     Edge 24, Type (0, 0), BuildingBlock: ZUJKAS_clean_linker_0, # of connection points: 2
#     Edge 25, Type (0, 0), BuildingBlock: ZUJKAS_clean_linker_0, # of connection points: 2
#     Edge 26, Type (0, 0), BuildingBlock: ZUJKAS_clean_linker_0, # of connection points: 2
#     Edge 27, Type (0, 0), BuildingBlock: ZUJKAS_clean_linker_0, # of connection points: 2
#     Edge 28, Type (0, 0), BuildingBlock: ZUJKAS_clean_linker_0, # of connection points: 2
#     Edge 29, Type (0, 0), BuildingBlock: ZUJKAS_clean_linker_0, # of connection points: 2
#     Edge 30, Type (0, 0), BuildingBlock: ZUJKAS_clean_linker_0, # of connection points: 2
#     Edge 31, Type (0, 0), BuildingBlock: ZUJKAS_clean_linker_0, # of connection points: 2
#     Edge 32, Type (0, 0), BuildingBlock: ZUJKAS_clean_linker_0, # of connection points: 2
#     Edge 33, Type (0, 0), BuildingBlock: ZUJKAS_clean_linker_0, # of connection points: 2
#     Edge 34, Type (0, 0), BuildingBlock: ZUJKAS_clean_linker_0, # of connection points: 2
#     Edge 35, Type (0, 0), BuildingBlock: ZUJKAS_clean_linker_0, # of connection points: 2
#     Edge 36, Type (0, 0), BuildingBlock: ZUJKAS_clean_linker_0, # of connection points: 2
#     Edge 37, Type (0, 0), BuildingBlock: ZUJKAS_clean_linker_0, # of connection points: 2
#     Edge 38, Type (0, 0), BuildingBlock: ZUJKAS_clean_linker_0, # of connection points: 2
#     Edge 39, Type (0, 0), BuildingBlock: ZUJKAS_clean_linker_0, # of connection points: 2
#     Edge 40, Type (0, 0), BuildingBlock: ZUJKAS_clean_linker_0, # of connection points: 2
#     Edge 41, Type (0, 0), BuildingBlock: ZUJKAS_clean_linker_0, # of connection points: 2
#     Edge 42, Type (0, 0), BuildingBlock: ZUJKAS_clean_linker_0, # of connection points: 2
#     Edge 43, Type (0, 0), BuildingBlock: ZUJKAS_clean_linker_0, # of connection points: 2
#     Edge 44, Type (0, 0), BuildingBlock: ZUJKAS_clean_linker_0, # of connection points: 2
#     Edge 45, Type (0, 0), BuildingBlock: ZUJKAS_clean_linker_0, # of connection points: 2
#     Edge 46, Type (0, 0), BuildingBlock: ZUJKAS_clean_linker_0, # of connection points: 2
#     Edge 47, Type (0, 0), BuildingBlock: ZUJKAS_clean_linker_0, # of connection points: 2
# Relax obj value: 0.038
# Max RMSD: 0.071
# Mean RMSD: 0.070
data_MOF--net-cag--node1-NAHDIM_clean_sbu_0--edge1-ZUJKAS_clean_linker_0
_symmetry_space_group_name_H-M    P1
_symmetry_Int_Tables_number       1
_symmetry_cell_setting            triclinic
loop_
_symmetry_equiv_pos_as_xyz
'x, y, z'
_cell_length_a     54.341851
_cell_length_b     65.161541
_cell_length_c     55.587689
_cell_angle_alpha  89.989213
_cell_angle_beta   90.006016
_cell_angle_gamma 89.977345
loop_
_atom_site_label
_atom_site_type_symbol
_atom_site_fract_x
_atom_site_fract_y
_atom_site_fract_z
_atom_type_partial_charge
C0 C 0.30392 0.17617 0.06916 0.0
O1 O 0.32066 0.17917 0.08583 0.0
O2 O 0.34933 0.13769 0.08409 0.0
Zn3 Zn 0.3126 0.13394 0.0816 0.0
O4 O 0.2984 0.13157 0.11485 0.0
C5 C 0.30918 0.09065 0.07364 0.0
O6 O 0.31542 0.09033 0.09647 0.0
O7 O 0.29735 0.15793 0.06421 0.0
C8 C 0.27662 0.12531 0.11868 0.0
O9 O 0.26255 0.12049 0.1003 0.0
C10 C 0.35961 0.14504 0.10275 0.0
O11 O 0.34592 0.15082 0.12101 0.0
O12 O 0.30641 0.10785 0.06319 0.0
C13 C 0.19932 0.83381 0.54771 0.0
O14 O 0.17957 0.84175 0.53773 0.0
O15 O 0.15303 0.85803 0.58348 0.0
Zn16 Zn 0.18928 0.86459 0.58331 0.0
O17 O 0.20146 0.86715 0.61741 0.0
C18 C 0.18327 0.90706 0.57246 0.0
O19 O 0.16936 0.90586 0.59174 0.0
O20 O 0.2073 0.84142 0.56725 0.0
C21 C 0.21719 0.88042 0.62404 0.0
O22 O 0.22642 0.89315 0.60809 0.0
C23 C 0.13938 0.86181 0.60152 0.0
O24 O 0.14913 0.87003 0.62087 0.0
O25 O 0.19431 0.89104 0.56513 0.0
C26 C 0.29672 0.82261 0.92833 0.0
O27 O 0.31351 0.82009 0.91158 0.0
O28 O 0.34258 0.85858 0.91478 0.0
Zn29 Zn 0.30613 0.86448 0.91692 0.0
O30 O 0.29131 0.86734 0.88378 0.0
C31 C 0.31765 0.90432 0.93587 0.0
O32 O 0.33761 0.90139 0.92299 0.0
O33 O 0.29005 0.84071 0.93385 0.0
C34 C 0.29381 0.88355 0.87129 0.0
O35 O 0.30615 0.8991 0.88025 0.0
C36 C 0.3545 0.85689 0.8952 0.0
O37 O 0.34287 0.85885 0.87462 0.0
O38 O 0.30112 0.89051 0.93611 0.0
C39 C 0.20442 0.17035 0.41807 0.0
O40 O 0.19541 0.17245 0.39626 0.0
O41 O 0.15001 0.13493 0.41011 0.0
Zn42 Zn 0.18648 0.12965 0.41111 0.0
O43 O 0.19903 0.12828 0.37712 0.0
C44 C 0.18395 0.10061 0.44942 0.0
O45 O 0.17113 0.11558 0.45911 0.0
O46 O 0.20289 0.153 0.4284 0.0
C47 C 0.19872 0.11181 0.36489 0.0
O48 O 0.19062 0.09484 0.37489 0.0
C49 C 0.13513 0.12035 0.40584 0.0
O50 O 0.14386 0.1018 0.40226 0.0
O51 O 0.193 0.10312 0.42855 0.0
C52 C 0.6869 0.85067 0.86492 0.0
O53 O 0.67931 0.83353 0.87493 0.0
O54 O 0.62948 0.8638 0.90181 0.0
Zn55 Zn 0.66577 0.86762 0.90757 0.0
O56 O 0.67908 0.8446 0.92792 0.0
C57 C 0.65402 0.90301 0.9362 0.0
O58 O 0.63284 0.89342 0.93796 0.0
O59 O 0.68315 0.86757 0.87572 0.0
C60 C 0.67804 0.84468 0.95076 0.0
O61 O 0.668 0.86041 0.96182 0.0
C62 C 0.61806 0.8471 0.9056 0.0
O63 O 0.63032 0.83096 0.91314 0.0
O64 O 0.67129 0.89482 0.9241 0.0
C65 C 0.81086 0.13496 0.35871 0.0
O66 O 0.82641 0.15016 0.36186 0.0
O67 O 0.86004 0.12886 0.40295 0.0
Zn68 Zn 0.82339 0.1269 0.40789 0.0
O69 O 0.80975 0.15247 0.4232 0.0
C70 C 0.83257 0.09674 0.44442 0.0
O71 O 0.8529 0.10744 0.4468 0.0
O72 O 0.80669 0.12274 0.37605 0.0
C73 C 0.8169 0.15909 0.44354 0.0
O74 O 0.83415 0.14907 0.45521 0.0
C75 C 0.87265 0.14528 0.40311 0.0
O76 O 0.8615 0.16301 0.40587 0.0
O77 O 0.81667 0.10235 0.42897 0.0
C78 C 0.68145 0.1193 0.13409 0.0
O79 O 0.66383 0.10585 0.13039 0.0
O80 O 0.63384 0.13416 0.08918 0.0
Zn81 Zn 0.67039 0.13106 0.08523 0.0
O82 O 0.68333 0.1542 0.06501 0.0
C83 C 0.66479 0.10055 0.04942 0.0
O84 O 0.64994 0.11473 0.04093 0.0
O85 O 0.6873 0.13159 0.1173 0.0
C86 C 0.70229 0.15184 0.05191 0.0
O87 O 0.71336 0.13391 0.05153 0.0
C88 C 0.62357 0.14532 0.105 0.0
O89 O 0.63726 0.1558 0.12011 0.0
O90 O 0.67648 0.10408 0.06878 0.0
C91 C 0.80889 0.85038 0.63557 0.0
O92 O 0.81642 0.83319 0.62564 0.0
O93 O 0.86447 0.86207 0.59635 0.0
Zn94 Zn 0.82812 0.86701 0.59188 0.0
O95 O 0.81315 0.84429 0.57203 0.0
C96 C 0.83837 0.90151 0.56104 0.0
O97 O 0.8578 0.89044 0.55567 0.0
O98 O 0.81198 0.86717 0.62434 0.0
C99 C 0.80698 0.84634 0.5501 0.0
O100 O 0.81021 0.86412 0.53942 0.0
C101 C 0.87686 0.85081 0.58214 0.0
O102 O 0.86568 0.84178 0.56406 0.0
O103 O 0.82286 0.89456 0.5761 0.0
C104 C 0.78559 0.67459 0.07713 0.0
O105 O 0.79059 0.67527 0.10024 0.0
O106 O 0.84469 0.63922 0.08079 0.0
Zn107 Zn 0.8081 0.63481 0.0812 0.0
O108 O 0.79642 0.63211 0.11541 0.0
C109 C 0.81489 0.59345 0.06649 0.0
O110 O 0.83313 0.59509 0.0819 0.0
O111 O 0.79135 0.65867 0.06519 0.0
C112 C 0.77926 0.61986 0.1213 0.0
O113 O 0.76879 0.60854 0.10464 0.0
C114 C 0.85611 0.64897 0.09714 0.0
O115 O 0.84363 0.6571 0.11499 0.0
O116 O 0.80093 0.60881 0.06301 0.0
C117 C 0.70069 0.33609 0.54778 0.0
O118 O 0.68249 0.34526 0.53652 0.0
O119 O 0.65189 0.35973 0.58205 0.0
Zn120 Zn 0.68826 0.36532 0.58425 0.0
O121 O 0.69896 0.36769 0.6188 0.0
C122 C 0.67971 0.40617 0.56789 0.0
O123 O 0.65948 0.40339 0.58041 0.0
O124 O 0.7067 0.34219 0.56867 0.0
C125 C 0.68638 0.3772 0.63452 0.0
O126 O 0.66551 0.38583 0.62822 0.0
C127 C 0.64006 0.34846 0.59667 0.0
O128 O 0.65188 0.33937 0.61433 0.0
O129 O 0.69544 0.39176 0.56684 0.0
C130 C 0.8014 0.32488 0.92461 0.0
O131 O 0.81754 0.32251 0.90724 0.0
O132 O 0.84785 0.36384 0.91452 0.0
Zn133 Zn 0.81099 0.36715 0.91476 0.0
O134 O 0.79809 0.36933 0.88103 0.0
C135 C 0.81461 0.4092 0.92724 0.0
O136 O 0.83109 0.40838 0.90997 0.0
O137 O 0.79548 0.34291 0.93111 0.0
C138 C 0.77682 0.37671 0.87714 0.0
O139 O 0.76345 0.3829 0.89544 0.0
C140 C 0.85981 0.35774 0.89622 0.0
O141 O 0.84784 0.35302 0.87645 0.0
O142 O 0.8029 0.393 0.93277 0.0
C143 C 0.70895 0.67366 0.42115 0.0
O144 O 0.70101 0.67559 0.39894 0.0
O145 O 0.65375 0.63826 0.41371 0.0
Zn146 Zn 0.69026 0.63306 0.41458 0.0
O147 O 0.70374 0.63084 0.38096 0.0
C148 C 0.6799 0.5929 0.43297 0.0
O149 O 0.65912 0.59619 0.42154 0.0
O150 O 0.70656 0.6565 0.43175 0.0
C151 C 0.69554 0.61752 0.36633 0.0
O152 O 0.67807 0.60497 0.37341 0.0
C153 C 0.64245 0.64683 0.3964 0.0
O154 O 0.65496 0.65335 0.37768 0.0
O155 O 0.6965 0.60665 0.43257 0.0
C156 C 0.18929 0.35416 0.86054 0.0
O157 O 0.17674 0.33802 0.86761 0.0
O158 O 0.13651 0.36513 0.90022 0.0
Zn159 Zn 0.17273 0.36924 0.90593 0.0
O160 O 0.1863 0.34599 0.92577 0.0
C161 C 0.17342 0.39839 0.94506 0.0
O162 O 0.16672 0.38231 0.95771 0.0
O163 O 0.19026 0.3698 0.87416 0.0
C164 C 0.20677 0.34753 0.93666 0.0
O165 O 0.21924 0.36475 0.93509 0.0
C166 C 0.1231 0.35555 0.9152 0.0
O167 O 0.13321 0.3478 0.93465 0.0
O168 O 0.17738 0.39635 0.92266 0.0
C169 C 0.31294 0.64155 0.3635 0.0
O170 O 0.32315 0.65849 0.37155 0.0
O171 O 0.3667 0.63237 0.40254 0.0
Zn172 Zn 0.33057 0.62767 0.40852 0.0
O173 O 0.31611 0.65194 0.42609 0.0
C174 C 0.34022 0.59734 0.44486 0.0
O175 O 0.35712 0.61076 0.45103 0.0
O176 O 0.31368 0.62551 0.37649 0.0
C177 C 0.30627 0.65126 0.44682 0.0
O178 O 0.30507 0.63368 0.4583 0.0
C179 C 0.37936 0.64494 0.41488 0.0
O180 O 0.36867 0.65537 0.43219 0.0
O181 O 0.32619 0.60132 0.42716 0.0
C182 C 0.19297 0.64432 0.13309 0.0
O183 O 0.1888 0.66194 0.12235 0.0
O184 O 0.13229 0.63375 0.09687 0.0
Zn185 Zn 0.16832 0.62858 0.09125 0.0
O186 O 0.18237 0.65133 0.07096 0.0
C187 C 0.16975 0.59884 0.05244 0.0
O188 O 0.16482 0.61489 0.03896 0.0
O189 O 0.18579 0.62784 0.1231 0.0
C190 C 0.20306 0.64986 0.06046 0.0
O191 O 0.21581 0.63282 0.06258 0.0
C192 C 0.11917 0.64241 0.08089 0.0
O193 O 0.12949 0.64818 0.06062 0.0
O194 O 0.17222 0.60117 0.07501 0.0
C195 C 0.31403 0.35175 0.63255 0.0
O196 O 0.3285 0.33633 0.62689 0.0
O197 O 0.36331 0.35884 0.58976 0.0
Zn198 Zn 0.32725 0.36452 0.58509 0.0
O199 O 0.3123 0.34145 0.566 0.0
C200 C 0.3349 0.40711 0.57527 0.0
O201 O 0.34914 0.40527 0.59426 0.0
O202 O 0.31064 0.366 0.61731 0.0
C203 C 0.30824 0.3427 0.54354 0.0
O204 O 0.31379 0.35973 0.53211 0.0
C205 C 0.37815 0.36137 0.57236 0.0
O206 O 0.36954 0.36761 0.55151 0.0
O207 O 0.32312 0.3915 0.56785 0.0
H208 H 0.31738 0.21648 0.07218 0.0
H209 H 0.30006 0.24558 0.0501 0.0
H210 H 0.2491 0.20504 0.01442 0.0
H211 H 0.26628 0.17579 0.03641 0.0
H212 H 0.29695 0.24909 0.99757 0.0
H213 H 0.20591 0.25244 0.04318 0.0
H214 H 0.23222 0.23967 0.05628 0.0
H215 H 0.21542 0.22767 0.03231 0.0
C216 C 0.30241 0.21373 0.05973 0.0
C217 C 0.29317 0.19381 0.05608 0.0
C218 C 0.29258 0.23038 0.04712 0.0
C219 C 0.27318 0.22744 0.03086 0.0
C220 C 0.26387 0.20762 0.02717 0.0
H221 H 0.18832 0.30856 0.93925 0.0
H222 H 0.20496 0.2795 0.96181 0.0
C223 C 0.27378 0.19093 0.03966 0.0
C224 C 0.26319 0.24506 0.01723 0.0
H225 H 0.21187 0.27461 0.01005 0.0
C226 C 0.27838 0.25475 0.0003 0.0
C227 C 0.23894 0.25225 0.02083 0.0
C228 C 0.22214 0.24262 0.03925 0.0
C229 C 0.26981 0.27133 0.98653 0.0
C230 C 0.24561 0.27871 0.99028 0.0
C231 C 0.23042 0.26896 0.00723 0.0
C232 C 0.23562 0.29644 0.97672 0.0
C233 C 0.28656 0.28043 0.96767 0.0
C234 C 0.24714 0.3157 0.97789 0.0
C235 C 0.23778 0.33231 0.96486 0.0
C236 C 0.21653 0.33003 0.95069 0.0
C237 C 0.20475 0.31083 0.94995 0.0
C238 C 0.21422 0.2942 0.96285 0.0
H239 H 0.30136 0.26955 0.9624 0.0
H240 H 0.27609 0.28483 0.95131 0.0
H241 H 0.29546 0.2944 0.97505 0.0
H242 H 0.26331 0.31791 0.98897 0.0
H243 H 0.24715 0.34695 0.966 0.0
H244 H 0.30285 0.68935 0.42649 0.0
H245 H 0.28566 0.72045 0.44433 0.0
H246 H 0.26983 0.6873 0.50968 0.0
H247 H 0.28661 0.65595 0.49181 0.0
H248 H 0.23088 0.71081 0.4943 0.0
H249 H 0.31664 0.75691 0.49548 0.0
H250 H 0.30921 0.74679 0.46633 0.0
H251 H 0.31662 0.72953 0.49053 0.0
C252 C 0.29582 0.68867 0.4447 0.0
C253 C 0.29617 0.67017 0.45777 0.0
C254 C 0.28614 0.7065 0.45492 0.0
C255 C 0.27686 0.70626 0.47847 0.0
C256 C 0.27704 0.68782 0.49152 0.0
H257 H 0.23927 0.81284 0.56484 0.0
H258 H 0.25789 0.78176 0.54821 0.0
C259 C 0.28664 0.66993 0.48128 0.0
C260 C 0.26622 0.72509 0.48919 0.0
H261 H 0.27933 0.77485 0.50355 0.0
C262 C 0.24149 0.72479 0.49644 0.0
C263 C 0.2802 0.74322 0.49221 0.0
C264 C 0.3072 0.74415 0.48595 0.0
C265 C 0.2302 0.74226 0.50622 0.0
C266 C 0.24392 0.76061 0.50839 0.0
C267 C 0.26879 0.76081 0.50159 0.0
C268 C 0.23288 0.7797 0.51802 0.0
C269 C 0.2038 0.74083 0.51448 0.0
C270 C 0.21295 0.78904 0.50628 0.0
C271 C 0.20222 0.80679 0.51575 0.0
C272 C 0.21136 0.81558 0.53706 0.0
C273 C 0.23173 0.80643 0.54844 0.0
C274 C 0.24241 0.78868 0.53897 0.0
H275 H 0.19807 0.72466 0.51743 0.0
H276 H 0.20096 0.74953 0.53143 0.0
H277 H 0.19164 0.74751 0.50049 0.0
H278 H 0.20566 0.78259 0.48981 0.0
H279 H 0.18667 0.81351 0.50646 0.0
H280 H 0.31106 0.78256 0.92451 0.0
H281 H 0.29452 0.75293 0.94615 0.0
H282 H 0.24254 0.79216 0.98245 0.0
H283 H 0.25896 0.82197 0.96094 0.0
H284 H 0.29153 0.74913 -0.00105 0.0
H285 H 0.20086 0.74396 0.95286 0.0
H286 H 0.22687 0.7572 0.93987 0.0
H287 H 0.20964 0.76891 0.96374 0.0
C288 C 0.29602 0.78491 0.93699 0.0
C289 C 0.28629 0.80463 0.94098 0.0
C290 C 0.28664 0.76796 0.94934 0.0
C291 C 0.26721 0.77038 0.96568 0.0
C292 C 0.25736 0.78999 0.96966 0.0
H293 H 0.184 0.68855 0.05713 0.0
H294 H 0.20026 0.71753 0.03424 0.0
C295 C 0.26683 0.80699 0.95744 0.0
C296 C 0.25776 0.75247 0.97912 0.0
H297 H 0.20729 0.72192 0.98605 0.0
C298 C 0.27316 0.74308 0.99612 0.0
C299 C 0.23377 0.74477 0.97536 0.0
C300 C 0.21679 0.75408 0.95686 0.0
C301 C 0.265 0.72636 0.00988 0.0
C302 C 0.24102 0.71853 0.00603 0.0
C303 C 0.22567 0.72792 0.98894 0.0
C304 C 0.23134 0.7008 0.01981 0.0
C305 C 0.28189 0.71763 0.02886 0.0
C306 C 0.24325 0.68169 0.01906 0.0
C307 C 0.23411 0.66511 0.0323 0.0
C308 C 0.21269 0.66729 0.04625 0.0
C309 C 0.20056 0.68636 0.04659 0.0
C310 C 0.20981 0.70294 0.0335 0.0
H311 H 0.29646 0.72874 0.03405 0.0
H312 H 0.27147 0.71321 0.04524 0.0
H313 H 0.29108 0.70372 0.02166 0.0
H314 H 0.25954 0.67955 0.00814 0.0
H315 H 0.24375 0.65058 0.03147 0.0
H316 H 0.29439 0.34098 0.49624 0.0
H317 H 0.27635 0.31184 0.47481 0.0
H318 H 0.28028 0.27539 0.53947 0.0
H319 H 0.29787 0.3045 0.56115 0.0
H320 H 0.29572 0.27317 0.46709 0.0
H321 H 0.20888 0.26813 0.51924 0.0
H322 H 0.22899 0.29013 0.52078 0.0
H323 H 0.23605 0.26728 0.53759 0.0
C324 C 0.29131 0.3268 0.50594 0.0
C325 C 0.29742 0.32511 0.53045 0.0
C326 C 0.28102 0.31017 0.49366 0.0
C327 C 0.2766 0.29158 0.50566 0.0
C328 C 0.283 0.28975 0.53002 0.0
H329 H 0.2222 0.17183 0.46409 0.0
H330 H 0.24037 0.20131 0.48478 0.0
C331 C 0.29318 0.30638 0.54234 0.0
C332 C 0.26586 0.27393 0.49255 0.0
H333 H 0.21752 0.24047 0.49264 0.0
C334 C 0.27854 0.26609 0.47256 0.0
C335 C 0.24346 0.26474 0.49977 0.0
C336 C 0.22841 0.2731 0.52037 0.0
C337 C 0.26966 0.24902 0.45987 0.0
C338 C 0.24739 0.23974 0.46722 0.0
C339 C 0.23466 0.2476 0.48714 0.0
C340 C 0.23689 0.22187 0.45442 0.0
C341 C 0.28441 0.24076 0.439 0.0
C342 C 0.22876 0.22378 0.43058 0.0
C343 C 0.21833 0.207 0.41872 0.0
C344 C 0.2158 0.18802 0.43053 0.0
C345 C 0.22395 0.1862 0.45445 0.0
C346 C 0.23431 0.20302 0.46632 0.0
H347 H 0.30362 0.24659 0.43911 0.0
H348 H 0.28484 0.22373 0.43932 0.0
H349 H 0.27564 0.24564 0.4219 0.0
H350 H 0.23023 0.23832 0.42124 0.0
H351 H 0.21216 0.20894 0.40033 0.0
H352 H 0.77506 0.67891 0.0293 0.0
H353 H 0.75603 0.70834 0.00934 0.0
H354 H 0.74966 0.73937 0.07757 0.0
H355 H 0.76906 0.71016 0.09768 0.0
H356 H 0.70999 0.72564 0.01685 0.0
H357 H 0.78427 0.78196 0.03567 0.0
H358 H 0.78843 0.75468 0.03954 0.0
H359 H 0.77222 0.76935 0.06187 0.0
C360 C 0.76968 0.69201 0.04008 0.0
C361 C 0.77371 0.69225 0.06507 0.0
C362 C 0.75879 0.7088 0.02863 0.0
C363 C 0.75179 0.72614 0.04193 0.0
C364 C 0.75541 0.72631 0.06691 0.0
H365 H 0.68246 0.84125 -0.00036 0.0
H366 H 0.69933 0.8123 0.02242 0.0
C367 C 0.76638 0.70955 0.07838 0.0
C368 C 0.74035 0.74388 0.02959 0.0
H369 H 0.74799 0.79487 0.01752 0.0
C370 C 0.7183 0.74078 0.01696 0.0
C371 C 0.75125 0.7636 0.02983 0.0
C372 C 0.77546 0.76764 0.04226 0.0
C373 C 0.70676 0.75691 0.00463 0.0
C374 C 0.71776 0.77656 0.00472 0.0
C375 C 0.73963 0.77976 0.01757 0.0
C376 C 0.70721 0.79389 0.99098 0.0
C377 C 0.6828 0.75288 0.99177 0.0
C378 C 0.70633 0.79314 0.96579 0.0
C379 C 0.69682 0.80963 0.95273 0.0
C380 C 0.68803 0.82721 0.96465 0.0
C381 C 0.68901 0.82792 0.98992 0.0
C382 C 0.69864 0.81143 0.00297 0.0
H383 H 0.67386 0.73855 -0.00181 0.0
H384 H 0.66981 0.76587 0.99427 0.0
H385 H 0.6864 0.75122 0.97221 0.0
H386 H 0.71323 0.77985 0.95621 0.0
H387 H 0.69638 0.8086 0.93328 0.0
H388 H 0.82775 0.17746 0.48653 0.0
H389 H 0.8084 0.20794 0.50401 0.0
H390 H 0.76176 0.2136 0.4416 0.0
H391 H 0.78076 0.18309 0.42407 0.0
H392 H 0.80527 0.24831 0.48487 0.0
H393 H 0.713 0.21349 0.4983 0.0
H394 H 0.74018 0.19832 0.49255 0.0
H395 H 0.72486 0.21128 0.46825 0.0
C396 C 0.81335 0.18516 0.47653 0.0
C397 C 0.80568 0.17776 0.45398 0.0
C398 C 0.80236 0.20258 0.48654 0.0
C399 C 0.78342 0.2128 0.47425 0.0
C400 C 0.77602 0.20568 0.45157 0.0
H401 H 0.69166 0.31856 0.50396 0.0
H402 H 0.71269 0.28918 0.48583 0.0
C403 C 0.78699 0.18829 0.44154 0.0
C404 C 0.77152 0.23102 0.48504 0.0
H405 H 0.71631 0.24932 0.50498 0.0
C406 C 0.78585 0.24854 0.48939 0.0
C407 C 0.74618 0.23121 0.49085 0.0
C408 C 0.73015 0.21253 0.48747 0.0
C409 C 0.77538 0.26644 0.499 0.0
C410 C 0.75003 0.26664 0.50476 0.0
C411 C 0.73572 0.24911 0.50045 0.0
C412 C 0.73796 0.28483 0.51547 0.0
C413 C 0.7914 0.28512 0.50246 0.0
C414 C 0.74512 0.29199 0.53821 0.0
C415 C 0.73316 0.30877 0.54863 0.0
C416 C 0.71371 0.31861 0.53652 0.0
C417 C 0.70659 0.31137 0.51373 0.0
C418 C 0.71856 0.29458 0.50335 0.0
H419 H 0.80856 0.28418 0.49164 0.0
H420 H 0.78137 0.29934 0.49742 0.0
H421 H 0.79667 0.28632 0.52169 0.0
H422 H 0.75973 0.28442 0.54807 0.0
H423 H 0.73902 0.31389 0.56625 0.0
H424 H 0.81346 0.28454 0.91814 0.0
H425 H 0.79585 0.25468 0.93854 0.0
H426 H 0.74738 0.29432 0.97869 0.0
H427 H 0.76482 0.3243 0.95841 0.0
H428 H 0.79446 0.24824 0.99037 0.0
H429 H 0.70158 0.24975 0.94845 0.0
H430 H 0.72775 0.26275 0.93543 0.0
H431 H 0.71212 0.27368 0.96084 0.0
C432 C 0.79896 0.28692 0.93121 0.0
C433 C 0.7905 0.30679 0.93663 0.0
C434 C 0.78896 0.26985 0.94285 0.0
C435 C 0.77017 0.27233 0.95987 0.0
C436 C 0.76164 0.2921 0.96532 0.0
H437 H 0.68639 0.19165 0.05201 0.0
H438 H 0.70342 0.22054 0.02943 0.0
C439 C 0.77171 0.3092 0.9538 0.0
C440 C 0.76005 0.25429 0.97257 0.0
H441 H 0.7076 0.22634 0.98051 0.0
C442 C 0.77552 0.24334 0.98816 0.0
C443 C 0.73533 0.24808 0.96964 0.0
C444 C 0.7182 0.25904 0.95255 0.0
C445 C 0.76674 0.22652 0.00137 0.0
C446 C 0.74199 0.22026 -0.00158 0.0
C447 C 0.72657 0.23118 0.98271 0.0
C448 C 0.73163 0.20259 0.01176 0.0
C449 C 0.78385 0.21601 0.01887 0.0
C450 C 0.74162 0.18287 0.009 0.0
C451 C 0.73204 0.16634 0.02199 0.0
C452 C 0.7121 0.16922 0.03775 0.0
C453 C 0.70179 0.18892 0.04006 0.0
C454 C 0.71147 0.20545 0.02716 0.0
H455 H 0.79975 0.22591 0.02369 0.0
H456 H 0.77402 0.21168 0.03563 0.0
H457 H 0.79117 0.20181 0.0105 0.0
H458 H 0.75681 0.18025 0.99677 0.0
H459 H 0.74025 0.15133 0.01964 0.0
H460 H 0.7921 0.84536 0.5031 0.0
H461 H 0.77513 0.81614 0.48099 0.0
H462 H 0.78198 0.77832 0.54431 0.0
H463 H 0.79867 0.80745 0.56666 0.0
H464 H 0.79708 0.77773 0.47246 0.0
H465 H 0.71011 0.76988 0.52406 0.0
H466 H 0.72913 0.79256 0.5256 0.0
H467 H 0.73739 0.76995 0.54231 0.0
C468 C 0.78989 0.83086 0.51237 0.0
C469 C 0.79662 0.82876 0.53668 0.0
C470 C 0.78022 0.81419 0.4997 0.0
C471 C 0.77699 0.79519 0.51113 0.0
C472 C 0.78388 0.79298 0.53531 0.0
H473 H 0.72558 0.67519 0.46756 0.0
H474 H 0.74285 0.70476 0.48874 0.0
C475 C 0.79353 0.80962 0.548 0.0
C476 C 0.76695 0.77752 0.49761 0.0
H477 H 0.71962 0.74311 0.49661 0.0
C478 C 0.78008 0.77021 0.47763 0.0
C479 C 0.74478 0.76777 0.50445 0.0
C480 C 0.72938 0.77552 0.52514 0.0
C481 C 0.77187 0.75311 0.46457 0.0
C482 C 0.74978 0.74329 0.47151 0.0
C483 C 0.7366 0.75065 0.49142 0.0
C484 C 0.73996 0.72535 0.45834 0.0
C485 C 0.78717 0.74538 0.4438 0.0
C486 C 0.73249 0.72722 0.43429 0.0
C487 C 0.72262 0.71037 0.42212 0.0
C488 C 0.71994 0.69138 0.43385 0.0
C489 C 0.72745 0.68958 0.45798 0.0
C490 C 0.73729 0.70645 0.47012 0.0
H491 H 0.80628 0.75141 0.44446 0.0
H492 H 0.78788 0.72835 0.44369 0.0
H493 H 0.77871 0.7505 0.42665 0.0
H494 H 0.734 0.74179 0.42502 0.0
H495 H 0.71691 0.71229 0.40359 0.0
H496 H 0.31077 0.0515 0.0912 0.0
H497 H 0.30946 0.01947 0.06833 0.0
H498 H 0.30152 0.05377 0.00242 0.0
H499 H 0.3023 0.08589 0.02518 0.0
H500 H 0.271 0.01984 0.0043 0.0
H501 H 0.36701 -0.00108 0.02806 0.0
H502 H 0.34746 0.00321 0.0536 0.0
H503 H 0.35447 0.02412 0.03361 0.0
C504 C 0.30864 0.05224 0.07184 0.0
C505 C 0.30688 0.07125 0.05998 0.0
C506 C 0.30801 0.03392 0.0588 0.0
C507 C 0.30589 0.03427 0.03365 0.0
C508 C 0.3033 0.05318 0.02182 0.0
H509 H 0.34711 0.93816 0.93498 0.0
H510 H 0.34276 0.96963 0.95838 0.0
C511 C 0.30379 0.07151 0.03486 0.0
C512 C 0.30694 0.01498 0.01957 0.0
H513 H 0.34391 0.97405 0.00681 0.0
C514 C 0.28692 0.0098 0.00482 0.0
C515 C 0.32789 0.00209 0.02005 0.0
C516 C 0.35054 0.00741 0.03449 0.0
C517 C 0.28722 0.99197 0.99061 0.0
C518 C 0.30793 0.97883 0.99156 0.0
C519 C 0.32797 0.98407 0.00626 0.0
C520 C 0.30971 0.95991 0.97685 0.0
C521 C 0.26567 0.98768 0.97425 0.0
C522 C 0.29259 0.94393 0.97951 0.0
C523 C 0.29493 0.92592 0.966 0.0
C524 C 0.31463 0.92349 0.94983 0.0
C525 C 0.33175 0.93951 0.94729 0.0
C526 C 0.3293 0.95752 0.96066 0.0
H527 H 0.25451 0.0017 0.97095 0.0
H528 H 0.27194 0.9815 0.95668 0.0
H529 H 0.25356 0.97608 0.98281 0.0
H530 H 0.27763 0.94526 0.99229 0.0
H531 H 0.28153 0.91381 0.96849 0.0
H532 H 0.16271 0.94395 0.58418 0.0
H533 H 0.16606 0.97638 0.56235 0.0
H534 H 0.21305 0.94749 0.50981 0.0
H535 H 0.20964 0.91485 0.53142 0.0
H536 H 0.2092 -0.00095 0.55061 0.0
H537 H 0.15783 0.97395 0.46919 0.0
H538 H 0.15679 0.95994 0.49719 0.0
H539 H 0.18323 0.95794 0.47797 0.0
C540 C 0.17375 0.94445 0.56797 0.0
C541 C 0.1858 0.92678 0.55946 0.0
C542 C 0.17567 0.96301 0.55555 0.0
C543 C 0.18954 0.96424 0.53434 0.0
C544 C 0.20192 0.94674 0.52595 0.0
H545 H 0.2087 0.06634 0.43424 0.0
H546 H 0.21228 0.03335 0.45504 0.0
C547 C 0.20003 0.92814 0.53838 0.0
C548 C 0.19102 0.98393 0.52113 0.0
H549 H 0.17438 0.0074 0.46868 0.0
C550 C 0.20165 0.0009 0.53267 0.0
C551 C 0.18123 0.98622 0.4977 0.0
C552 C 0.16894 0.96862 0.48477 0.0
C553 C 0.20272 0.02016 0.52142 0.0
C554 C 0.19244 0.02256 0.49821 0.0
C555 C 0.18224 0.0055 0.48648 0.0
C556 C 0.1912 0.04281 0.48613 0.0
C557 C 0.21503 0.03771 0.53441 0.0
C558 C 0.17802 0.059 0.49666 0.0
C559 C 0.17597 0.07786 0.48488 0.0
C560 C 0.18691 0.08084 0.46222 0.0
C561 C 0.20012 0.06458 0.45171 0.0
C562 C 0.20217 0.04571 0.46354 0.0
H563 H 0.22805 0.03211 0.54836 0.0
H564 H 0.22519 0.04773 0.52167 0.0
H565 H 0.20079 0.04711 0.54353 0.0
H566 H 0.16893 0.05695 0.51383 0.0
H567 H 0.16554 0.09001 0.49342 0.0
H568 H 0.6197 0.92566 0.9602 0.0
H569 H 0.6251 0.95914 0.97914 0.0
H570 H 0.70162 0.95926 0.95855 0.0
H571 H 0.69628 0.92584 0.93908 0.0
H572 H 0.65578 0.97049 0.01612 0.0
H573 H 0.67721 0.01432 0.93296 0.0
H574 H 0.66469 0.98868 0.93228 0.0
H575 H 0.69682 0.99262 0.93838 0.0
C576 C 0.63769 0.93279 0.95962 0.0
C577 C 0.65753 0.92313 0.948 0.0
C578 C 0.64073 0.95192 0.97049 0.0
C579 C 0.66366 0.9618 0.96996 0.0
C580 C 0.68364 0.95208 0.95873 0.0
H581 H 0.69499 0.06838 0.06112 0.0
H582 H 0.69689 0.03466 0.04181 0.0
C583 C 0.68059 0.93295 0.94773 0.0
C584 C 0.66648 0.98217 0.98144 0.0
H585 H 0.67949 0.03244 0.96972 0.0
C586 C 0.66106 0.98404 0.00602 0.0
C587 C 0.67314 -0.00018 0.96812 0.0
C588 C 0.6781 -0.00111 0.94143 0.0
C589 C 0.66186 0.00313 0.01765 0.0
C590 C 0.66877 0.02075 0.00439 0.0
C591 C 0.67441 0.01886 0.97985 0.0
C592 C 0.66884 0.04147 0.01534 0.0
C593 C 0.65447 0.00437 0.04378 0.0
C594 C 0.65306 0.05668 0.00633 0.0
C595 C 0.65208 0.07599 0.01716 0.0
C596 C 0.6669 0.08046 0.03722 0.0
C597 C 0.68318 0.06536 0.04582 0.0
C598 C 0.68422 0.04606 0.0349 0.0
H599 H 0.6442 0.99051 0.04966 0.0
H600 H 0.67124 0.00566 0.05506 0.0
H601 H 0.64284 0.01809 0.04716 0.0
H602 H 0.64111 0.05346 0.99119 0.0
H603 H 0.6394 0.08728 0.01003 0.0
H604 H 0.79375 0.06994 0.4426 0.0
H605 H 0.78941 0.03744 0.46431 0.0
H606 H 0.85917 0.0478 0.49924 0.0
H607 H 0.86354 0.08034 0.47795 0.0
H608 H 0.8207 0.00429 0.46127 0.0
H609 H 0.81496 0.03173 0.55538 0.0
H610 H 0.81049 0.04851 0.52989 0.0
H611 H 0.84107 0.0419 0.53963 0.0
C612 C 0.80802 0.06542 0.45513 0.0
C613 C 0.829 0.07773 0.45855 0.0
C614 C 0.8055 0.04686 0.4675 0.0
C615 C 0.8238 0.04037 0.48363 0.0
C616 C 0.84457 0.05274 0.48729 0.0
H617 H 0.86793 0.92042 0.52813 0.0
H618 H 0.86184 0.95384 0.5092 0.0
C619 C 0.84711 0.07128 0.47496 0.0
C620 C 0.82214 0.02001 0.49534 0.0
H621 H 0.82491 0.99613 0.54993 0.0
C622 C 0.8213 0.0025 0.48067 0.0
C623 C 0.8226 0.01772 0.52064 0.0
C624 C 0.82208 0.03597 0.53732 0.0
C625 C 0.82199 0.98272 0.4906 0.0
C626 C 0.82397 0.98045 0.51583 0.0
C627 C 0.82369 0.99793 0.53056 0.0
C628 C 0.82733 0.9601 0.52719 0.0
C629 C 0.82073 0.96444 0.47399 0.0
C630 C 0.81023 0.95278 0.54403 0.0
C631 C 0.81373 0.93369 0.55501 0.0
C632 C 0.83449 0.92169 0.54945 0.0
C633 C 0.85167 0.9292 0.53272 0.0
C634 C 0.84816 0.94825 0.52176 0.0
H635 H 0.81215 0.9685 0.45648 0.0
H636 H 0.83967 0.95886 0.47034 0.0
H637 H 0.81011 0.9517 0.48225 0.0
H638 H 0.79413 0.96179 0.54857 0.0
H639 H 0.80018 0.92837 0.56787 0.0
H640 H 0.77914 0.41727 0.96093 0.0
H641 H 0.77347 0.44893 0.98398 0.0
H642 H 0.8356 0.47599 0.94757 0.0
H643 H 0.841 0.4447 0.92408 0.0
H644 H 0.80449 0.46645 0.01517 0.0
H645 H 0.78539 0.52113 0.94145 0.0
H646 H 0.78473 0.49368 0.93711 0.0
H647 H 0.81352 0.50738 0.93646 0.0
C648 C 0.79143 0.43005 0.95766 0.0
C649 C 0.81048 0.42851 0.94063 0.0
C650 C 0.78816 0.44812 0.97084 0.0
C651 C 0.80384 0.46495 0.9672 0.0
C652 C 0.82285 0.46342 0.95021 0.0
H653 H 0.84537 0.56023 0.06476 0.0
H654 H 0.84001 0.52884 0.04144 0.0
C655 C 0.82603 0.44544 0.93692 0.0
C656 C 0.80139 0.48365 0.98219 0.0
H657 H 0.79828 0.53589 0.97908 0.0
C658 C 0.8028 0.48162 0.0073 0.0
C659 C 0.79871 0.50341 0.97196 0.0
C660 C 0.79523 0.50653 0.94528 0.0
C661 C 0.80274 0.49888 0.02238 0.0
C662 C 0.80188 0.5187 0.01202 0.0
C663 C 0.79931 0.5207 0.987 0.0
C664 C 0.80464 0.53756 0.02668 0.0
C665 C 0.8036 0.49566 0.04925 0.0
C666 C 0.78688 0.55318 0.0256 0.0
C667 C 0.79008 0.57133 0.03865 0.0
C668 C 0.81112 0.57415 0.05301 0.0
C669 C 0.82884 0.55846 0.05406 0.0
C670 C 0.82572 0.54043 0.04087 0.0
H671 H 0.79595 0.48045 0.05432 0.0
H672 H 0.82302 0.49613 0.05537 0.0
H673 H 0.79317 0.50777 0.05893 0.0
H674 H 0.77056 0.55135 0.01461 0.0
H675 H 0.7761 0.58314 0.03746 0.0
H676 H 0.64953 0.43959 0.56683 0.0
H677 H 0.6549 0.47116 0.54383 0.0
H678 H 0.72398 0.44864 0.51624 0.0
H679 H 0.71866 0.41676 0.53906 0.0
H680 H 0.69356 0.50021 0.54511 0.0
H681 H 0.68401 0.46319 0.45536 0.0
H682 H 0.67527 0.45044 0.4829 0.0
H683 H 0.70717 0.45264 0.47488 0.0
C684 C 0.6659 0.44131 0.55592 0.0
C685 C 0.68359 0.42559 0.55464 0.0
C686 C 0.66896 0.4594 0.54283 0.0
C687 C 0.68968 0.46211 0.52816 0.0
C688 C 0.70767 0.44668 0.5272 0.0
H689 H 0.72005 0.58121 0.45961 0.0
H690 H 0.72525 0.54935 0.48251 0.0
C691 C 0.70464 0.42853 0.54031 0.0
C692 C 0.69201 0.48103 0.51363 0.0
H693 H 0.69046 0.49891 0.45593 0.0
C694 C 0.69313 0.49997 0.52561 0.0
C695 C 0.69122 0.48058 0.48821 0.0
C696 C 0.68916 0.46067 0.47448 0.0
C697 C 0.69298 0.51854 0.51282 0.0
C698 C 0.69199 0.51808 0.48741 0.0
C699 C 0.69139 0.49914 0.47542 0.0
C700 C 0.68956 0.53707 0.47302 0.0
C701 C 0.69284 0.53849 0.52661 0.0
C702 C 0.66803 0.54045 0.4597 0.0
C703 C 0.66503 0.55853 0.44658 0.0
C704 C 0.68358 0.57356 0.44644 0.0
C705 C 0.70536 0.56998 0.45946 0.0
C706 C 0.70834 0.55184 0.47263 0.0
H707 H 0.68896 0.53613 0.54604 0.0
H708 H 0.71112 0.54593 0.52494 0.0
H709 H 0.67885 0.54916 0.51913 0.0
H710 H 0.65335 0.5292 0.45976 0.0
H711 H 0.64806 0.56075 0.43669 0.0
H712 H 0.1695 0.58875 0.00465 0.0
H713 H 0.17178 0.55437 0.98697 0.0
H714 H 0.17687 0.52787 0.05785 0.0
H715 H 0.17466 0.56211 0.07574 0.0
H716 H 0.21097 0.52268 0.9954 0.0
H717 H 0.11683 0.49898 0.02338 0.0
H718 H 0.126 0.52557 0.02143 0.0
H719 H 0.13609 0.51011 0.04625 0.0
C720 C 0.17113 0.57562 0.01649 0.0
C721 C 0.17178 0.57816 0.04161 0.0
C722 C 0.17248 0.55602 0.00635 0.0
C723 C 0.17425 0.53865 0.02115 0.0
C724 C 0.17524 0.54111 0.04618 0.0
H725 H 0.17007 0.40763 0.99294 0.0
H726 H 0.17203 0.44157 0.01164 0.0
C727 C 0.17405 0.5607 0.05634 0.0
C728 C 0.17494 0.51791 0.01043 0.0
H729 H 0.14149 0.47391 0.00456 0.0
C730 C 0.19581 0.51198 0.99732 0.0
C731 C 0.15515 0.50405 0.01316 0.0
C732 C 0.13212 0.50994 0.02667 0.0
C733 C 0.19755 0.49234 0.98707 0.0
C734 C 0.1776 0.47853 0.98951 0.0
C735 C 0.15677 0.4845 0.00273 0.0
C736 C 0.17769 0.45792 0.97821 0.0
C737 C 0.22094 0.48645 0.97417 0.0
C738 C 0.18012 0.45585 0.95319 0.0
C739 C 0.17919 0.43648 0.94247 0.0
C740 C 0.17545 0.41881 0.95654 0.0
C741 C 0.17299 0.42093 0.98159 0.0
C742 C 0.17409 0.44031 0.99231 0.0
H743 H 0.23674 0.49603 0.98007 0.0
H744 H 0.22558 0.47006 0.97725 0.0
H745 H 0.21846 0.48885 0.95456 0.0
H746 H 0.18228 0.46926 0.94188 0.0
H747 H 0.18095 0.43541 0.9231 0.0
H748 H 0.36618 0.58502 0.48439 0.0
H749 H 0.36267 0.55255 0.50615 0.0
H750 H 0.30507 0.53315 0.45791 0.0
H751 H 0.30852 0.56556 0.43587 0.0
H752 H 0.32 0.53548 0.52909 0.0
H753 H 0.35606 0.48583 0.4557 0.0
H754 H 0.36032 0.51331 0.45594 0.0
H755 H 0.33109 0.50259 0.44765 0.0
C756 C 0.35276 0.57387 0.47836 0.0
C757 C 0.33771 0.57784 0.45831 0.0
C758 C 0.35077 0.55534 0.49085 0.0
C759 C 0.33383 0.54039 0.48344 0.0
C760 C 0.31853 0.54438 0.46366 0.0
H761 H 0.30663 0.41632 0.53593 0.0
H762 H 0.30464 0.44894 0.51417 0.0
C763 C 0.32046 0.56294 0.45117 0.0
C764 C 0.33219 0.52068 0.49659 0.0
H765 H 0.34229 0.46921 0.49092 0.0
C766 C 0.32484 0.52097 0.52078 0.0
C767 C 0.33842 0.50181 0.4856 0.0
C768 C 0.34711 0.50075 0.45985 0.0
C769 C 0.32349 0.50282 0.53432 0.0
C770 C 0.33018 0.48398 0.52348 0.0
C771 C 0.33718 0.48367 0.49917 0.0
C772 C 0.33076 0.46448 0.5372 0.0
C773 C 0.31462 0.50397 0.56001 0.0
C774 C 0.34626 0.46237 0.55724 0.0
C775 C 0.34739 0.4438 0.56976 0.0
C776 C 0.33319 0.42691 0.56233 0.0
C777 C 0.31775 0.42905 0.54217 0.0
C778 C 0.31659 0.44766 0.52969 0.0
H779 H 0.30355 0.51804 0.56326 0.0
H780 H 0.30331 0.49036 0.56474 0.0
H781 H 0.33075 0.50441 0.57223 0.0
H782 H 0.35779 0.475 0.563 0.0
H783 H 0.3596 0.44264 0.58509 0.0
H784 H 0.59505 0.16606 0.13767 0.0
H785 H 0.55 0.1668 0.13992 0.0
H786 H 0.54575 0.12778 0.07741 0.0
H787 H 0.59054 0.12668 0.07521 0.0
H788 H 0.51574 0.18012 0.10582 0.0
H789 H 0.50299 0.09755 0.12618 0.0
H790 H 0.53244 0.11018 0.12873 0.0
H791 H 0.52132 0.10192 0.09982 0.0
C792 C 0.58452 0.15759 0.12446 0.0
C793 C 0.59639 0.14619 0.10637 0.0
C794 C 0.5588 0.15804 0.12577 0.0
C795 C 0.54459 0.14703 0.1091 0.0
C796 C 0.55639 0.13598 0.09079 0.0
H797 H 0.39327 0.13068 0.07034 0.0
H798 H 0.43813 0.1323 0.07316 0.0
C799 C 0.58202 0.13548 0.08949 0.0
C800 C 0.51738 0.14733 0.11042 0.0
H801 H 0.46716 0.116 0.11374 0.0
C802 C 0.50508 0.16616 0.10784 0.0
C803 C 0.50357 0.12907 0.11315 0.0
C804 C 0.51574 0.10856 0.11737 0.0
C805 C 0.47927 0.16709 0.10697 0.0
C806 C 0.46556 0.14874 0.10892 0.0
C807 C 0.47782 0.13 0.11207 0.0
C808 C 0.43843 0.14854 0.10708 0.0
C809 C 0.46684 0.18753 0.10318 0.0
C810 C 0.42384 0.15709 0.1253 0.0
C811 C 0.39818 0.15612 0.12383 0.0
C812 C 0.38673 0.14659 0.10407 0.0
C813 C 0.40148 0.13818 0.08577 0.0
C814 C 0.42711 0.13906 0.08734 0.0
H815 H 0.48013 0.19973 0.09808 0.0
H816 H 0.45257 0.18632 0.08894 0.0
H817 H 0.45754 0.19224 0.12008 0.0
H818 H 0.43231 0.16426 0.14082 0.0
H819 H 0.38735 0.16273 0.13823 0.0
H820 H 0.90546 0.86672 0.61806 0.0
H821 H 0.95033 0.86556 0.62134 0.0
H822 H 0.95423 0.82988 0.55615 0.0
H823 H 0.90936 0.83099 0.5526 0.0
H824 H 0.98322 0.82999 0.62252 0.0
H825 H 0.99839 0.88125 0.5438 0.0
H826 H 0.96906 0.87938 0.55889 0.0
H827 H 0.97883 0.85941 0.5388 0.0
C828 C 0.91583 0.85855 0.60446 0.0
C829 C 0.90385 0.84908 0.58496 0.0
C830 C 0.94144 0.85787 0.60641 0.0
C831 C 0.95552 0.84785 0.58883 0.0
C832 C 0.94364 0.83792 0.56971 0.0
H833 H 0.11367 0.84345 0.56509 0.0
H834 H 0.0692 0.83813 0.56255 0.0
C835 C 0.91801 0.83852 0.56778 0.0
C836 C 0.98267 0.84826 0.59026 0.0
H837 H 0.03366 0.86778 0.56274 0.0
C838 C 0.99431 0.83821 0.60946 0.0
C839 C 0.99698 0.85896 0.57313 0.0
C840 C 0.98527 0.87052 0.55256 0.0
C841 C 0.02002 0.83847 0.61191 0.0
C842 C 0.03432 0.84948 0.595 0.0
C843 C 0.02265 0.85933 0.57565 0.0
C844 C 0.06136 0.85153 0.59733 0.0
C845 C 0.03163 0.82675 0.63239 0.0
C846 C 0.07168 0.86088 0.6177 0.0
C847 C 0.09709 0.86388 0.61926 0.0
C848 C 0.11261 0.85778 0.60034 0.0
C849 C 0.10223 0.84832 0.57999 0.0
C850 C 0.07683 0.84526 0.57849 0.0
H851 H 0.01926 0.81445 0.63915 0.0
H852 H 0.04935 0.81971 0.62683 0.0
H853 H 0.03531 0.83744 0.6475 0.0
H854 H 0.06004 0.86629 0.63219 0.0
H855 H 0.10447 0.87132 0.63511 0.0
H856 H 0.38671 0.85818 0.85742 0.0
H857 H 0.43141 0.8541 0.85877 0.0
H858 H 0.42777 0.84341 0.93527 0.0
H859 H 0.38316 0.84794 0.93419 0.0
H860 H 0.46235 0.87136 0.92385 0.0
H861 H 0.47303 0.80287 0.86567 0.0
H862 H 0.45627 0.82328 0.85146 0.0
H863 H 0.44362 0.81082 0.87756 0.0
C864 C 0.39539 0.85477 0.8745 0.0
C865 C 0.38138 0.85339 0.8957 0.0
C866 C 0.42093 0.8523 0.8752 0.0
C867 C 0.43288 0.84812 0.89705 0.0
C868 C 0.4189 0.84653 0.91819 0.0
H869 H 0.58718 0.81501 0.91565 0.0
H870 H 0.54215 0.81477 0.91356 0.0
C871 C 0.39341 0.84913 0.91754 0.0
C872 C 0.46007 0.84668 0.89818 0.0
H873 H 0.50976 0.82134 0.87506 0.0
C874 C 0.4727 0.86034 0.91329 0.0
C875 C 0.47352 0.83212 0.88461 0.0
C876 C 0.46092 0.8163 0.86909 0.0
C877 C 0.49844 0.86013 0.91485 0.0
C878 C 0.51194 0.84618 0.9005 0.0
C879 C 0.49934 0.83219 0.8858 0.0
C880 C 0.53918 0.84597 0.90058 0.0
C881 C 0.51093 0.87471 0.93207 0.0
C882 C 0.55237 0.86342 0.89341 0.0
C883 C 0.57802 0.86365 0.89466 0.0
C884 C 0.59099 0.84634 0.90291 0.0
C885 C 0.57774 0.82861 0.90931 0.0
C886 C 0.55204 0.82843 0.90811 0.0
H887 H 0.49808 0.88022 0.94621 0.0
H888 H 0.52696 0.8673 0.94092 0.0
H889 H 0.51764 0.88829 0.92197 0.0
H890 H 0.5428 0.87696 0.88706 0.0
H891 H 0.58765 0.87749 0.88941 0.0
H892 H 0.0985 0.09233 0.39866 0.0
H893 H 0.05416 0.0986 0.39742 0.0
H894 H 0.0666 0.16305 0.41003 0.0
H895 H 0.11105 0.157 0.41113 0.0
H896 H 0.02504 0.11613 0.43469 0.0
H897 H 0.02106 0.16198 0.35036 0.0
H898 H 0.04728 0.14629 0.3582 0.0
H899 H 0.04271 0.17066 0.37259 0.0
C900 C 0.09185 0.10787 0.40106 0.0
C901 C 0.10831 0.12418 0.40494 0.0
C902 C 0.06651 0.11141 0.40035 0.0
C903 C 0.05718 0.13131 0.40333 0.0
C904 C 0.0735 0.14763 0.40727 0.0
H905 H 0.90594 0.17677 0.40661 0.0
H906 H 0.95094 0.17414 0.40694 0.0
C907 C 0.09887 0.14411 0.40803 0.0
C908 C 0.03027 0.13477 0.40313 0.0
H909 H 0.9839 0.15821 0.37206 0.0
C910 C 0.01602 0.12532 0.421 0.0
C911 C 0.01866 0.1469 0.38534 0.0
C912 C 0.03312 0.15695 0.36539 0.0
C913 C 0.99038 0.12765 0.42157 0.0
C914 C 0.97868 0.13941 0.40349 0.0
C915 C 0.99296 0.14917 0.38585 0.0
C916 C 0.95156 0.14119 0.40225 0.0
C917 C 0.97606 0.11767 0.44169 0.0
C918 C 0.93711 0.1236 0.3989 0.0
C919 C 0.9115 0.12502 0.39874 0.0
C920 C 0.89981 0.14411 0.40176 0.0
C921 C 0.91436 0.16183 0.40433 0.0
C922 C 0.94005 0.16037 0.40452 0.0
H923 H 0.98799 0.11419 0.4574 0.0
H924 H 0.96068 0.12764 0.44772 0.0
H925 H 0.96817 0.10298 0.43516 0.0
H926 H 0.94567 0.10871 0.39658 0.0
H927 H 0.90087 0.11109 0.39653 0.0
H928 H 0.08582 0.65951 0.05 0.0
H929 H 0.04139 0.66278 0.05561 0.0
H930 H 0.04756 0.63525 0.1259 0.0
H931 H 0.092 0.63168 0.12037 0.0
H932 H 0.01146 0.61759 0.09768 0.0
H933 H 0.00217 0.70233 0.09807 0.0
H934 H 0.01869 0.6926 0.07253 0.0
H935 H 0.03135 0.68953 0.10221 0.0
C936 C 0.07778 0.65431 0.06675 0.0
C937 C 0.09246 0.64532 0.08473 0.0
C938 C 0.0524 0.65633 0.06998 0.0
C939 C 0.04125 0.64953 0.09131 0.0
C940 C 0.05585 0.64071 0.10938 0.0
H941 H 0.88669 0.66783 0.1295 0.0
H942 H 0.93179 0.66824 0.12924 0.0
C943 C 0.08124 0.63868 0.10617 0.0
C944 C 0.01418 0.65042 0.0941 0.0
H945 H 0.96502 0.68307 0.09351 0.0
C946 C 0.00132 0.63191 0.09697 0.0
C947 C 0.00104 0.66915 0.09345 0.0
C948 C 0.01401 0.68956 0.09163 0.0
C949 C 0.97557 0.63158 0.09847 0.0
C950 C 0.96236 0.65022 0.09668 0.0
C951 C 0.97523 0.6688 0.0946 0.0
C952 C 0.93515 0.65061 0.09644 0.0
C953 C 0.96271 0.61127 0.10199 0.0
C954 C 0.9222 0.64093 0.07781 0.0
C955 C 0.89652 0.64066 0.07788 0.0
C956 C 0.88329 0.65017 0.09656 0.0
C957 C 0.89633 0.66031 0.11491 0.0
C958 C 0.92207 0.66058 0.11479 0.0
H959 H 0.97538 0.59943 0.10932 0.0
H960 H 0.94678 0.61288 0.11436 0.0
H961 H 0.95576 0.60573 0.08438 0.0
H962 H 0.93199 0.63349 0.06325 0.0
H963 H 0.88708 0.63282 0.0634 0.0
H964 H 0.60777 0.33123 0.62869 0.0
H965 H 0.56279 0.32995 0.62558 0.0
H966 H 0.56636 0.36033 0.55677 0.0
H967 H 0.61117 0.36172 0.55966 0.0
H968 H 0.53132 0.36578 0.61959 0.0
H969 H 0.52133 0.3095 0.54524 0.0
H970 H 0.54901 0.31159 0.56308 0.0
H971 H 0.5429 0.32985 0.5396 0.0
C972 C 0.599 0.33744 0.61278 0.0
C973 C 0.61304 0.34657 0.59441 0.0
C974 C 0.57333 0.33672 0.61107 0.0
C975 C 0.56135 0.34483 0.59083 0.0
C976 C 0.57532 0.3537 0.57235 0.0
H977 H 0.41509 0.36892 0.54024 0.0
H978 H 0.45926 0.36391 0.5461 0.0
C979 C 0.60091 0.35457 0.57411 0.0
C980 C 0.53418 0.34516 0.58949 0.0
H981 H 0.48563 0.32868 0.55572 0.0
C982 C 0.52123 0.35749 0.60583 0.0
C983 C 0.52122 0.33439 0.57143 0.0
C984 C 0.53425 0.32043 0.55393 0.0
C985 C 0.49564 0.35998 0.60403 0.0
C986 C 0.48267 0.34945 0.58572 0.0
C987 C 0.49562 0.33675 0.56971 0.0
C988 C 0.45581 0.35201 0.58229 0.0
C989 C 0.4829 0.37452 0.62112 0.0
C990 C 0.43919 0.3467 0.60058 0.0
C991 C 0.41393 0.34968 0.59736 0.0
C992 C 0.40482 0.3578 0.57566 0.0
C993 C 0.42149 0.36267 0.55719 0.0
C994 C 0.44674 0.3598 0.56048 0.0
H995 H 0.4961 0.38513 0.62995 0.0
H996 H 0.46876 0.38377 0.61161 0.0
H997 H 0.47357 0.36553 0.63541 0.0
H998 H 0.44576 0.34024 0.61734 0.0
H999 H 0.40156 0.3456 0.61186 0.0
H1000 H 0.08916 0.33631 0.94368 0.0
H1001 H 0.04454 0.3352 0.93815 0.0
H1002 H 0.05156 0.37 0.87253 0.0
H1003 H 0.09618 0.37137 0.87797 0.0
H1004 H 0.01633 0.38553 0.90456 0.0
H1005 H 0.00364 0.302 0.8894 0.0
H1006 H 0.02096 0.30826 0.91593 0.0
H1007 H 0.0332 0.31446 0.88679 0.0
C1008 C 0.08126 0.34358 0.92795 0.0
C1009 C 0.09623 0.35393 0.91127 0.0
C1010 C 0.05576 0.34282 0.92475 0.0
C1011 C 0.04482 0.3523 0.90478 0.0
C1012 C 0.0597 0.3625 0.888 0.0
H1013 H 0.89104 0.34393 0.86113 0.0
H1014 H 0.93607 0.34264 0.86247 0.0
C1015 C 0.08519 0.36325 0.89114 0.0
C1016 C 0.01772 0.35257 0.9021 0.0
H1017 H 0.96734 0.32167 0.89627 0.0
C1018 C 0.00561 0.37159 0.9026 0.0
C1019 C 0.00386 0.33436 0.89931 0.0
C1020 C 0.01605 0.31361 0.89759 0.0
C1021 C 0.97991 0.37286 0.90098 0.0
C1022 C 0.96599 0.35461 0.89909 0.0
C1023 C 0.97811 0.33561 0.89796 0.0
C1024 C 0.93879 0.35497 0.89849 0.0
C1025 C 0.96784 0.39372 0.90118 0.0
C1026 C 0.92548 0.36203 0.91846 0.0
C1027 C 0.89981 0.36277 0.91778 0.0
C1028 C 0.88697 0.35641 0.89711 0.0
C1029 C 0.90037 0.34902 0.87727 0.0
C1030 C 0.92608 0.34823 0.87801 0.0
H1031 H 0.98114 0.40612 0.89681 0.0
H1032 H 0.9524 0.39436 0.88811 0.0
H1033 H 0.96029 0.39677 0.91937 0.0
H1034 H 0.93498 0.36699 0.93458 0.0
H1035 H 0.89007 0.36846 0.93341 0.0
H1036 H 0.61159 0.63552 0.4328 0.0
H1037 H 0.56671 0.63676 0.4332 0.0
H1038 H 0.56675 0.66271 0.36184 0.0
H1039 H 0.61183 0.66182 0.36135 0.0
H1040 H 0.53389 0.68211 0.39363 0.0
H1041 H 0.52257 0.59755 0.39501 0.0
H1042 H 0.54206 0.60703 0.41859 0.0
H1043 H 0.55142 0.60978 0.38772 0.0
C1044 C 0.60211 0.64155 0.41718 0.0
C1045 C 0.6153 0.64844 0.39696 0.0
C1046 C 0.57645 0.64214 0.41741 0.0
C1047 C 0.56344 0.64946 0.39738 0.0
C1048 C 0.57649 0.65687 0.37741 0.0
H1049 H 0.40656 0.62732 0.37903 0.0
H1050 H 0.45097 0.62983 0.37272 0.0
C1051 C 0.60223 0.65633 0.37717 0.0
C1052 C 0.53621 0.64927 0.39737 0.0
H1053 H 0.48679 0.61742 0.40342 0.0
C1054 C 0.52353 0.66797 0.39559 0.0
C1055 C 0.52279 0.63077 0.39952 0.0
C1056 C 0.53537 0.61011 0.40008 0.0
C1057 C 0.49773 0.66872 0.3967 0.0
C1058 C 0.48439 0.6503 0.40006 0.0
C1059 C 0.49707 0.63155 0.40108 0.0
C1060 C 0.45729 0.65003 0.40298 0.0
C1061 C 0.48502 0.68919 0.39409 0.0
C1062 C 0.44611 0.66054 0.42212 0.0
C1063 C 0.42071 0.6592 0.42573 0.0
C1064 C 0.40607 0.64713 0.41042 0.0
C1065 C 0.41731 0.63673 0.39117 0.0
C1066 C 0.44269 0.63815 0.38752 0.0
H1067 H 0.49687 0.70052 0.38467 0.0
H1068 H 0.46746 0.68764 0.38403 0.0
H1069 H 0.48081 0.69537 0.41223 0.0
H1070 H 0.4571 0.6694 0.43462 0.0
H1071 H 0.41266 0.66731 0.44081 0.0
H1072 H 0.30138 0.1337 0.16028 0.0
H1073 H 0.28676 0.12944 0.2015 0.0
H1074 H 0.21712 0.10718 0.17503 0.0
H1075 H 0.23148 0.11161 0.13358 0.0
H1076 H 0.21272 0.13674 0.21122 0.0
H1077 H 0.27774 0.07516 0.23778 0.0
H1078 H 0.29256 0.09735 0.22528 0.0
H1079 H 0.27241 0.08217 0.20679 0.0
C1080 C 0.28296 0.12785 0.16317 0.0
C1081 C 0.26761 0.12292 0.14363 0.0
C1082 C 0.27471 0.1253 0.18676 0.0
C1083 C 0.25104 0.11765 0.19129 0.0
C1084 C 0.23553 0.11296 0.17187 0.0
H1085 H 0.1992 0.07969 0.33316 0.0
H1086 H 0.21071 0.08049 0.29059 0.0
C1087 C 0.24377 0.1155 0.14822 0.0
C1088 C 0.24229 0.11517 0.21633 0.0
H1089 H 0.25562 0.0915 0.26956 0.0
C1090 C 0.22196 0.12673 0.22394 0.0
C1091 C 0.25419 0.10189 0.23277 0.0
C1092 C 0.27529 0.08827 0.22523 0.0
C1093 C 0.21368 0.12588 0.24783 0.0
C1094 C 0.22633 0.11336 0.26454 0.0
C1095 C 0.24615 0.10127 0.25674 0.0
C1096 C 0.21952 0.11286 0.29031 0.0
C1097 C 0.19141 0.13832 0.25493 0.0
C1098 C 0.22111 0.13072 0.30431 0.0
C1099 C 0.21457 0.13033 0.32859 0.0
C1100 C 0.20645 0.11201 0.33937 0.0
C1101 C 0.20532 0.09405 0.3254 0.0
C1102 C 0.21187 0.09447 0.30108 0.0
H1103 H 0.18004 0.14248 0.23905 0.0
H1104 H 0.17975 0.1298 0.26793 0.0
H1105 H 0.19756 0.15276 0.26364 0.0
H1106 H 0.22749 0.14497 0.29644 0.0
H1107 H 0.2158 0.14441 0.33886 0.0
H1108 H 0.30009 0.91423 0.83831 0.0
H1109 H 0.28581 0.91493 0.79657 0.0
H1110 H 0.25205 0.85561 0.80605 0.0
H1111 H 0.26618 0.85474 0.84782 0.0
H1112 H 0.29759 0.88445 0.7605 0.0
H1113 H 0.19698 0.89204 0.77615 0.0
H1114 H 0.21956 0.89823 0.79887 0.0
H1115 H 0.212 0.87192 0.79274 0.0
C1116 C 0.28945 0.9014 0.8316 0.0
C1117 C 0.28424 0.88443 0.8464 0.0
C1118 C 0.28134 0.90183 0.80775 0.0
C1119 C 0.26769 0.88543 0.79837 0.0
C1120 C 0.26226 0.86856 0.81311 0.0
H1121 H 0.20532 0.854 0.6604 0.0
H1122 H 0.21822 0.85571 0.70246 0.0
C1123 C 0.27044 0.86806 0.83693 0.0
C1124 C 0.26008 0.88552 0.77284 0.0
H1125 H 0.20977 0.88546 0.73613 0.0
C1126 C 0.27841 0.88481 0.7551 0.0
C1127 C 0.23505 0.88588 0.76599 0.0
C1128 C 0.2147 0.88722 0.78438 0.0
C1129 C 0.27235 0.88395 0.73058 0.0
C1130 C 0.24729 0.88432 0.72368 0.0
C1131 C 0.22897 0.88519 0.74147 0.0
C1132 C 0.23964 0.88345 0.69812 0.0
C1133 C 0.29283 0.88202 0.71238 0.0
C1134 C 0.24718 0.89862 0.68178 0.0
C1135 C 0.24001 0.8976 0.65766 0.0
C1136 C 0.22488 0.88153 0.64953 0.0
C1137 C 0.21703 0.86655 0.66605 0.0
C1138 C 0.22434 0.86751 0.69011 0.0
H1139 H 0.31012 0.87636 0.72075 0.0
H1140 H 0.28762 0.87142 0.69759 0.0
H1141 H 0.29664 0.89732 0.70446 0.0
H1142 H 0.2585 0.91133 0.6877 0.0
H1143 H 0.24617 0.90949 0.64544 0.0
H1144 H 0.70238 0.88343 0.83816 0.0
H1145 H 0.72303 0.88274 0.79909 0.0
H1146 H 0.72132 0.81657 0.79963 0.0
H1147 H 0.70027 0.81709 0.83849 0.0
H1148 H 0.76769 0.86513 0.78689 0.0
H1149 H 0.69152 0.83033 0.73429 0.0
H1150 H 0.6871 0.84076 0.76406 0.0
H1151 H 0.70048 0.81573 0.76024 0.0
C1152 C 0.7063 0.86872 0.82993 0.0
C1153 C 0.69955 0.85031 0.84137 0.0
C1154 C 0.71812 0.86837 0.80763 0.0
C1155 C 0.72335 0.84962 0.79632 0.0
C1156 C 0.71695 0.83121 0.80781 0.0
H1157 H 0.79722 0.81703 0.66317 0.0
H1158 H 0.77714 0.81684 0.70259 0.0
C1159 C 0.70505 0.83154 0.83009 0.0
C1160 C 0.736 0.84938 0.77273 0.0
H1161 H 0.72991 0.83385 0.71437 0.0
C1162 C 0.75941 0.85836 0.771 0.0
C1163 C 0.72513 0.84051 0.75207 0.0
C1164 C 0.69958 0.83145 0.75261 0.0
C1165 C 0.77239 0.8585 0.74919 0.0
C1166 C 0.76152 0.84964 0.72856 0.0
C1167 C 0.73818 0.84058 0.73029 0.0
C1168 C 0.77394 0.84986 0.7049 0.0
C1169 C 0.79779 0.86783 0.74845 0.0
C1170 C 0.77851 0.8685 0.69312 0.0
C1171 C 0.78992 0.86869 0.6706 0.0
C1172 C 0.79689 0.8502 0.65945 0.0
C1173 C 0.79215 0.83154 0.6713 0.0
C1174 C 0.78067 0.83138 0.69379 0.0
H1175 H 0.80577 0.86952 0.76675 0.0
H1176 H 0.81042 0.85833 0.73737 0.0
H1177 H 0.7967 0.8833 0.74018 0.0
H1178 H 0.77306 0.88291 0.70125 0.0
H1179 H 0.79321 0.88332 0.66193 0.0
H1180 H 0.77564 0.10661 0.34723 0.0
H1181 H 0.75394 0.10274 0.30893 0.0
H1182 H 0.79486 0.15355 0.27949 0.0
H1183 H 0.81678 0.1575 0.31763 0.0
H1184 H 0.72483 0.13286 0.2851 0.0
H1185 H 0.80395 0.10741 0.22932 0.0
H1186 H 0.80447 0.10675 0.2618 0.0
H1187 H 0.80919 0.13055 0.24613 0.0
C1188 C 0.78014 0.1169 0.33258 0.0
C1189 C 0.798 0.13233 0.33545 0.0
C1190 C 0.7677 0.11467 0.31074 0.0
C1191 C 0.77304 0.12769 0.29135 0.0
C1192 C 0.7908 0.14312 0.29414 0.0
H1193 H 0.71852 0.14529 0.14722 0.0
H1194 H 0.73993 0.14684 0.18581 0.0
C1195 C 0.80321 0.14541 0.31599 0.0
C1196 C 0.75948 0.12556 0.26841 0.0
H1197 H 0.76709 0.11578 0.20856 0.0
C1198 C 0.73399 0.12899 0.26837 0.0
C1199 C 0.77157 0.12053 0.24668 0.0
C1200 C 0.79877 0.11591 0.2459 0.0
C1201 C 0.7203 0.12803 0.24699 0.0
C1202 C 0.73242 0.12316 0.22521 0.0
C1203 C 0.75789 0.11954 0.2253 0.0
C1204 C 0.71913 0.12214 0.202 0.0
C1205 C 0.69315 0.13284 0.24776 0.0
C1206 C 0.70048 0.10759 0.19827 0.0
C1207 C 0.68815 0.10667 0.17622 0.0
C1208 C 0.69438 0.12021 0.15749 0.0
C1209 C 0.71322 0.13465 0.16127 0.0
C1210 C 0.72551 0.13556 0.1833 0.0
H1211 H 0.68794 0.141 0.26455 0.0
H1212 H 0.68765 0.1424 0.23212 0.0
H1213 H 0.68256 0.11829 0.247 0.0
H1214 H 0.6956 0.09685 0.21235 0.0
H1215 H 0.67381 0.09531 0.17385 0.0
H1216 H 0.68189 0.59102 0.33062 0.0
H1217 H 0.69711 0.58992 0.28922 0.0
H1218 H 0.74543 0.64083 0.30416 0.0
H1219 H 0.73056 0.64193 0.34563 0.0
H1220 H 0.69489 0.62165 0.25505 0.0
H1221 H 0.7914 0.59836 0.2732 0.0
H1222 H 0.76725 0.59587 0.29532 0.0
H1223 H 0.78132 0.6204 0.28991 0.0
C1224 C 0.69588 0.6019 0.32516 0.0
C1225 C 0.70507 0.61653 0.34144 0.0
C1226 C 0.70453 0.60125 0.30151 0.0
C1227 C 0.72262 0.6151 0.29377 0.0
C1228 C 0.73182 0.62973 0.30994 0.0
H1229 H 0.79445 0.6433 0.15928 0.0
H1230 H 0.78017 0.64159 0.20093 0.0
C1231 C 0.72319 0.63041 0.33359 0.0
C1232 C 0.73113 0.61482 0.26849 0.0
H1233 H 0.78216 0.60909 0.23333 0.0
C1234 C 0.71392 0.61876 0.25024 0.0
C1235 C 0.75599 0.61109 0.26237 0.0
C1236 C 0.77505 0.60601 0.28119 0.0
C1237 C 0.72103 0.61958 0.226 0.0
C1238 C 0.74592 0.61597 0.21988 0.0
C1239 C 0.76309 0.61187 0.23812 0.0
C1240 C 0.75461 0.61671 0.19465 0.0
C1241 C 0.70196 0.62489 0.20726 0.0
C1242 C 0.7452 0.60308 0.17742 0.0
C1243 C 0.75322 0.60408 0.15356 0.0
C1244 C 0.77099 0.61859 0.1466 0.0
C1245 C 0.78071 0.63196 0.16403 0.0
C1246 C 0.7726 0.63101 0.18785 0.0
H1247 H 0.6855 0.63227 0.21536 0.0
H1248 H 0.7097 0.63536 0.19343 0.0
H1249 H 0.69586 0.61063 0.19813 0.0
H1250 H 0.73169 0.59163 0.18243 0.0
H1251 H 0.74553 0.59344 0.14062 0.0
H1252 H 0.72927 0.36202 0.65305 0.0
H1253 H 0.74338 0.3635 0.69476 0.0
H1254 H 0.67761 0.39641 0.71466 0.0
H1255 H 0.66319 0.3949 0.67298 0.0
H1256 H 0.75127 0.39934 0.72368 0.0
H1257 H 0.6802 0.34735 0.76207 0.0
H1258 H 0.6866 0.3486 0.73023 0.0
H1259 H 0.66882 0.36843 0.74441 0.0
C1260 C 0.71775 0.36954 0.66628 0.0
C1261 C 0.69504 0.37827 0.65971 0.0
C1262 C 0.72587 0.37039 0.69008 0.0
C1263 C 0.71139 0.37984 0.70777 0.0
C1264 C 0.68885 0.38876 0.70129 0.0
H1265 H 0.73274 0.39264 0.8624 0.0
H1266 H 0.71687 0.39475 0.82126 0.0
C1267 C 0.68071 0.38796 0.67746 0.0
C1268 C 0.72012 0.38053 0.73295 0.0
H1269 H 0.70776 0.36281 0.78944 0.0
C1270 C 0.74178 0.39137 0.73809 0.0
C1271 C 0.70758 0.37019 0.75164 0.0
C1272 C 0.68461 0.35783 0.74691 0.0
C1273 C 0.75126 0.39221 0.76154 0.0
C1274 C 0.73898 0.38155 0.78018 0.0
C1275 C 0.71712 0.37095 0.77509 0.0
C1276 C 0.74888 0.38072 0.80497 0.0
C1277 C 0.77415 0.40469 0.7662 0.0
C1278 C 0.77201 0.37193 0.80941 0.0
C1279 C 0.78115 0.37074 0.83284 0.0
C1280 C 0.76721 0.37816 0.8523 0.0
C1281 C 0.74395 0.38682 0.8478 0.0
C1282 C 0.73485 0.38804 0.82433 0.0
H1283 H 0.77712 0.41641 0.75197 0.0
H1284 H 0.77316 0.41255 0.7839 0.0
H1285 H 0.79037 0.39435 0.76633 0.0
H1286 H 0.78288 0.36576 0.79477 0.0
H1287 H 0.79906 0.36386 0.8357 0.0
H1288 H 0.28189 0.38076 0.64925 0.0
H1289 H 0.26123 0.38162 0.68833 0.0
H1290 H 0.29707 0.32509 0.70836 0.0
H1291 H 0.31797 0.32415 0.66942 0.0
H1292 H 0.22938 0.35178 0.7081 0.0
H1293 H 0.31212 0.36407 0.76499 0.0
H1294 H 0.31219 0.36827 0.73288 0.0
H1295 H 0.31418 0.34266 0.74472 0.0
C1296 C 0.28548 0.36855 0.66199 0.0
C1297 C 0.30165 0.35241 0.65625 0.0
C1298 C 0.27364 0.36906 0.68429 0.0
C1299 C 0.27788 0.35356 0.7013 0.0
C1300 C 0.29389 0.33739 0.69562 0.0
H1301 H 0.19011 0.32359 0.82685 0.0
H1302 H 0.21136 0.32365 0.78806 0.0
C1303 C 0.30572 0.33683 0.67331 0.0
C1304 C 0.26504 0.35407 0.72477 0.0
H1305 H 0.27471 0.35685 0.78536 0.0
C1306 C 0.23926 0.35293 0.725 0.0
C1307 C 0.27801 0.3558 0.74673 0.0
C1308 C 0.30564 0.35796 0.74744 0.0
C1309 C 0.22607 0.35317 0.7467 0.0
C1310 C 0.23908 0.35432 0.76869 0.0
C1311 C 0.26484 0.35579 0.76844 0.0
C1312 C 0.22626 0.35424 0.79218 0.0
C1313 C 0.19832 0.35248 0.74591 0.0
C1314 C 0.22804 0.37125 0.80752 0.0
C1315 C 0.216 0.37126 0.82973 0.0
C1316 C 0.20209 0.35416 0.83705 0.0
C1317 C 0.20057 0.33704 0.82171 0.0
C1318 C 0.21259 0.33708 0.79949 0.0
H1319 H 0.1911 0.35662 0.72785 0.0
H1320 H 0.19205 0.33668 0.75017 0.0
H1321 H 0.19024 0.36306 0.75943 0.0
H1322 H 0.23862 0.3846 0.80222 0.0
H1323 H 0.21762 0.38466 0.84114 0.0
H1324 H 0.30637 0.67368 0.33261 0.0
H1325 H 0.28583 0.67333 0.29351 0.0
H1326 H 0.27176 0.60853 0.30117 0.0
H1327 H 0.29192 0.60877 0.34052 0.0
H1328 H 0.29757 0.65091 0.25271 0.0
H1329 H 0.20378 0.6315 0.28522 0.0
H1330 H 0.22796 0.63995 0.30516 0.0
H1331 H 0.22729 0.61387 0.29464 0.0
C1332 C 0.29883 0.65935 0.32605 0.0
C1333 C 0.30066 0.64127 0.33975 0.0
C1334 C 0.28712 0.65919 0.30369 0.0
C1335 C 0.27696 0.64098 0.29463 0.0
C1336 C 0.27901 0.62284 0.30808 0.0
H1337 H 0.20198 0.61073 0.16129 0.0
H1338 H 0.22307 0.60977 0.20017 0.0
C1339 C 0.29067 0.62299 0.3305 0.0
C1340 C 0.26465 0.64097 0.27086 0.0
H1341 H 0.20977 0.63175 0.24297 0.0
C1342 C 0.27836 0.64679 0.25057 0.0
C1343 C 0.23959 0.63556 0.26816 0.0
C1344 C 0.22369 0.63004 0.28946 0.0
C1345 C 0.26773 0.64712 0.22757 0.0
C1346 C 0.24268 0.64175 0.2249 0.0
C1347 C 0.229 0.63582 0.24514 0.0
C1348 C 0.23022 0.64241 0.20126 0.0
C1349 C 0.28345 0.65292 0.20625 0.0
C1350 C 0.22708 0.66112 0.18917 0.0
C1351 C 0.215 0.66175 0.167 0.0
C1352 C 0.2058 0.64366 0.15655 0.0
C1353 C 0.2089 0.62493 0.1688 0.0
C1354 C 0.22092 0.62434 0.19102 0.0
H1355 H 0.3034 0.65188 0.21046 0.0
H1356 H 0.27941 0.64289 0.1906 0.0
H1357 H 0.27932 0.66899 0.20099 0.0
H1358 H 0.23379 0.67527 0.19701 0.0
H1359 H 0.21285 0.67642 0.15808 0.0
loop_
_geom_bond_atom_site_label_1
_geom_bond_atom_site_label_2
_geom_bond_distance
_geom_bond_site_symmetry_2
_ccdc_geom_bond_type
C0 O1 1.160 . S
C0 O7 1.185 . S
O1 C0 1.160 . S
O2 Zn3 1.899 . S
O2 C10 1.284 . S
Zn3 O2 1.899 . S
Zn3 O4 2.032 . S
Zn3 O7 2.086 . S
Zn3 O12 1.977 . S
O4 Zn3 2.032 . S
O4 C8 1.278 . S
C5 O6 1.203 . S
C5 O12 1.267 . S
O6 C5 1.203 . S
O7 C0 1.185 . S
O7 Zn3 2.086 . S
C8 O4 1.278 . S
C8 O9 1.211 . S
O9 C8 1.211 . S
C10 O2 1.284 . S
C10 O11 1.273 . S
O11 C10 1.273 . S
O12 Zn3 1.977 . S
O12 C5 1.267 . S
C13 O14 1.160 . S
C13 O20 1.185 . S
O14 C13 1.160 . S
O15 Zn16 1.899 . S
O15 C23 1.284 . S
Zn16 O15 1.899 . S
Zn16 O17 2.032 . S
Zn16 O20 2.086 . S
Zn16 O25 1.977 . S
O17 Zn16 2.032 . S
O17 C21 1.278 . S
C18 O19 1.203 . S
C18 O25 1.267 . S
O19 C18 1.203 . S
O20 C13 1.185 . S
O20 Zn16 2.086 . S
C21 O17 1.278 . S
C21 O22 1.211 . S
O22 C21 1.211 . S
C23 O15 1.284 . S
C23 O24 1.273 . S
O24 C23 1.273 . S
O25 Zn16 1.977 . S
O25 C18 1.267 . S
C26 O27 1.160 . S
C26 O33 1.185 . S
O27 C26 1.160 . S
O28 Zn29 1.899 . S
O28 C36 1.284 . S
Zn29 O28 1.899 . S
Zn29 O30 2.032 . S
Zn29 O33 2.086 . S
Zn29 O38 1.977 . S
O30 Zn29 2.032 . S
O30 C34 1.278 . S
C31 O32 1.203 . S
C31 O38 1.267 . S
O32 C31 1.203 . S
O33 C26 1.185 . S
O33 Zn29 2.086 . S
C34 O30 1.278 . S
C34 O35 1.211 . S
O35 C34 1.211 . S
C36 O28 1.284 . S
C36 O37 1.273 . S
O37 C36 1.273 . S
O38 Zn29 1.977 . S
O38 C31 1.267 . S
C39 O40 1.160 . S
C39 O46 1.185 . S
O40 C39 1.160 . S
O41 Zn42 1.899 . S
O41 C49 1.284 . S
Zn42 O41 1.899 . S
Zn42 O43 2.032 . S
Zn42 O46 2.086 . S
Zn42 O51 1.977 . S
O43 Zn42 2.032 . S
O43 C47 1.278 . S
C44 O45 1.203 . S
C44 O51 1.267 . S
O45 C44 1.203 . S
O46 C39 1.185 . S
O46 Zn42 2.086 . S
C47 O43 1.278 . S
C47 O48 1.211 . S
O48 C47 1.211 . S
C49 O41 1.284 . S
C49 O50 1.273 . S
O50 C49 1.273 . S
O51 Zn42 1.977 . S
O51 C44 1.267 . S
C52 O53 1.160 . S
C52 O59 1.185 . S
O53 C52 1.160 . S
O54 Zn55 1.899 . S
O54 C62 1.284 . S
Zn55 O54 1.899 . S
Zn55 O56 2.032 . S
Zn55 O59 2.086 . S
Zn55 O64 1.977 . S
O56 Zn55 2.032 . S
O56 C60 1.278 . S
C57 O58 1.203 . S
C57 O64 1.267 . S
O58 C57 1.203 . S
O59 C52 1.185 . S
O59 Zn55 2.086 . S
C60 O56 1.278 . S
C60 O61 1.211 . S
O61 C60 1.211 . S
C62 O54 1.284 . S
C62 O63 1.273 . S
O63 C62 1.273 . S
O64 Zn55 1.977 . S
O64 C57 1.267 . S
C65 O66 1.160 . S
C65 O72 1.185 . S
O66 C65 1.160 . S
O67 Zn68 1.899 . S
O67 C75 1.284 . S
Zn68 O67 1.899 . S
Zn68 O69 2.032 . S
Zn68 O72 2.086 . S
Zn68 O77 1.977 . S
O69 Zn68 2.032 . S
O69 C73 1.278 . S
C70 O71 1.203 . S
C70 O77 1.267 . S
O71 C70 1.203 . S
O72 C65 1.185 . S
O72 Zn68 2.086 . S
C73 O69 1.278 . S
C73 O74 1.211 . S
O74 C73 1.211 . S
C75 O67 1.284 . S
C75 O76 1.273 . S
O76 C75 1.273 . S
O77 Zn68 1.977 . S
O77 C70 1.267 . S
C78 O79 1.160 . S
C78 O85 1.185 . S
O79 C78 1.160 . S
O80 Zn81 1.899 . S
O80 C88 1.284 . S
Zn81 O80 1.899 . S
Zn81 O82 2.032 . S
Zn81 O85 2.086 . S
Zn81 O90 1.977 . S
O82 Zn81 2.032 . S
O82 C86 1.278 . S
C83 O84 1.203 . S
C83 O90 1.267 . S
O84 C83 1.203 . S
O85 C78 1.185 . S
O85 Zn81 2.086 . S
C86 O82 1.278 . S
C86 O87 1.211 . S
O87 C86 1.211 . S
C88 O80 1.284 . S
C88 O89 1.273 . S
O89 C88 1.273 . S
O90 Zn81 1.977 . S
O90 C83 1.267 . S
C91 O92 1.160 . S
C91 O98 1.185 . S
O92 C91 1.160 . S
O93 Zn94 1.899 . S
O93 C101 1.284 . S
Zn94 O93 1.899 . S
Zn94 O95 2.032 . S
Zn94 O98 2.086 . S
Zn94 O103 1.977 . S
O95 Zn94 2.032 . S
O95 C99 1.278 . S
C96 O97 1.203 . S
C96 O103 1.267 . S
O97 C96 1.203 . S
O98 C91 1.185 . S
O98 Zn94 2.086 . S
C99 O95 1.278 . S
C99 O100 1.211 . S
O100 C99 1.211 . S
C101 O93 1.284 . S
C101 O102 1.273 . S
O102 C101 1.273 . S
O103 Zn94 1.977 . S
O103 C96 1.267 . S
C104 O105 1.160 . S
C104 O111 1.185 . S
O105 C104 1.160 . S
O106 Zn107 1.899 . S
O106 C114 1.284 . S
Zn107 O106 1.899 . S
Zn107 O108 2.032 . S
Zn107 O111 2.086 . S
Zn107 O116 1.977 . S
O108 Zn107 2.032 . S
O108 C112 1.278 . S
C109 O110 1.203 . S
C109 O116 1.267 . S
O110 C109 1.203 . S
O111 C104 1.185 . S
O111 Zn107 2.086 . S
C112 O108 1.278 . S
C112 O113 1.211 . S
O113 C112 1.211 . S
C114 O106 1.284 . S
C114 O115 1.273 . S
O115 C114 1.273 . S
O116 Zn107 1.977 . S
O116 C109 1.267 . S
C117 O118 1.160 . S
C117 O124 1.185 . S
O118 C117 1.160 . S
O119 Zn120 1.899 . S
O119 C127 1.284 . S
Zn120 O119 1.899 . S
Zn120 O121 2.032 . S
Zn120 O124 2.086 . S
Zn120 O129 1.977 . S
O121 Zn120 2.032 . S
O121 C125 1.278 . S
C122 O123 1.203 . S
C122 O129 1.267 . S
O123 C122 1.203 . S
O124 C117 1.185 . S
O124 Zn120 2.086 . S
C125 O121 1.278 . S
C125 O126 1.211 . S
O126 C125 1.211 . S
C127 O119 1.284 . S
C127 O128 1.273 . S
O128 C127 1.273 . S
O129 Zn120 1.977 . S
O129 C122 1.267 . S
C130 O131 1.160 . S
C130 O137 1.185 . S
O131 C130 1.160 . S
O132 Zn133 1.899 . S
O132 C140 1.284 . S
Zn133 O132 1.899 . S
Zn133 O134 2.032 . S
Zn133 O137 2.086 . S
Zn133 O142 1.977 . S
O134 Zn133 2.032 . S
O134 C138 1.278 . S
C135 O136 1.203 . S
C135 O142 1.267 . S
O136 C135 1.203 . S
O137 C130 1.185 . S
O137 Zn133 2.086 . S
C138 O134 1.278 . S
C138 O139 1.211 . S
O139 C138 1.211 . S
C140 O132 1.284 . S
C140 O141 1.273 . S
O141 C140 1.273 . S
O142 Zn133 1.977 . S
O142 C135 1.267 . S
C143 O144 1.160 . S
C143 O150 1.185 . S
O144 C143 1.160 . S
O145 Zn146 1.899 . S
O145 C153 1.284 . S
Zn146 O145 1.899 . S
Zn146 O147 2.032 . S
Zn146 O150 2.086 . S
Zn146 O155 1.977 . S
O147 Zn146 2.032 . S
O147 C151 1.278 . S
C148 O149 1.203 . S
C148 O155 1.267 . S
O149 C148 1.203 . S
O150 C143 1.185 . S
O150 Zn146 2.086 . S
C151 O147 1.278 . S
C151 O152 1.211 . S
O152 C151 1.211 . S
C153 O145 1.284 . S
C153 O154 1.273 . S
O154 C153 1.273 . S
O155 Zn146 1.977 . S
O155 C148 1.267 . S
C156 O157 1.160 . S
C156 O163 1.185 . S
O157 C156 1.160 . S
O158 Zn159 1.899 . S
O158 C166 1.284 . S
Zn159 O158 1.899 . S
Zn159 O160 2.032 . S
Zn159 O163 2.086 . S
Zn159 O168 1.977 . S
O160 Zn159 2.032 . S
O160 C164 1.278 . S
C161 O162 1.203 . S
C161 O168 1.267 . S
O162 C161 1.203 . S
O163 C156 1.185 . S
O163 Zn159 2.086 . S
C164 O160 1.278 . S
C164 O165 1.211 . S
O165 C164 1.211 . S
C166 O158 1.284 . S
C166 O167 1.273 . S
O167 C166 1.273 . S
O168 Zn159 1.977 . S
O168 C161 1.267 . S
C169 O170 1.160 . S
C169 O176 1.185 . S
O170 C169 1.160 . S
O171 Zn172 1.899 . S
O171 C179 1.284 . S
Zn172 O171 1.899 . S
Zn172 O173 2.032 . S
Zn172 O176 2.086 . S
Zn172 O181 1.977 . S
O173 Zn172 2.032 . S
O173 C177 1.278 . S
C174 O175 1.203 . S
C174 O181 1.267 . S
O175 C174 1.203 . S
O176 C169 1.185 . S
O176 Zn172 2.086 . S
C177 O173 1.278 . S
C177 O178 1.211 . S
O178 C177 1.211 . S
C179 O171 1.284 . S
C179 O180 1.273 . S
O180 C179 1.273 . S
O181 Zn172 1.977 . S
O181 C174 1.267 . S
C182 O183 1.160 . S
C182 O189 1.185 . S
O183 C182 1.160 . S
O184 Zn185 1.899 . S
O184 C192 1.284 . S
Zn185 O184 1.899 . S
Zn185 O186 2.032 . S
Zn185 O189 2.086 . S
Zn185 O194 1.977 . S
O186 Zn185 2.032 . S
O186 C190 1.278 . S
C187 O188 1.203 . S
C187 O194 1.267 . S
O188 C187 1.203 . S
O189 C182 1.185 . S
O189 Zn185 2.086 . S
C190 O186 1.278 . S
C190 O191 1.211 . S
O191 C190 1.211 . S
C192 O184 1.284 . S
C192 O193 1.273 . S
O193 C192 1.273 . S
O194 Zn185 1.977 . S
O194 C187 1.267 . S
C195 O196 1.160 . S
C195 O202 1.185 . S
O196 C195 1.160 . S
O197 Zn198 1.899 . S
O197 C205 1.284 . S
Zn198 O197 1.899 . S
Zn198 O199 2.032 . S
Zn198 O202 2.086 . S
Zn198 O207 1.977 . S
O199 Zn198 2.032 . S
O199 C203 1.278 . S
C200 O201 1.203 . S
C200 O207 1.267 . S
O201 C200 1.203 . S
O202 C195 1.185 . S
O202 Zn198 2.086 . S
C203 O199 1.278 . S
C203 O204 1.211 . S
O204 C203 1.211 . S
C205 O197 1.284 . S
C205 O206 1.273 . S
O206 C205 1.273 . S
O207 Zn198 1.977 . S
O207 C200 1.267 . S
H208 C216 0.929 . S
H209 C218 0.930 . S
H210 C220 0.930 . S
H211 C223 0.929 . S
H212 C226 0.930 . S
H213 C228 0.960 . S
H214 C228 0.960 . S
H215 C228 0.960 . S
C216 H208 0.929 . S
C216 C217 1.377 . S
C216 C218 1.384 . S
C217 C216 1.377 . S
C217 C223 1.390 . S
C218 H209 0.930 . S
C218 C216 1.384 . S
C218 C219 1.372 . S
C219 C218 1.372 . S
C219 C220 1.400 . S
C219 C224 1.490 . S
C220 H210 0.930 . S
C220 C219 1.400 . S
C220 C223 1.386 . S
H221 C237 0.930 . S
H222 C238 0.931 . S
C223 H211 0.929 . S
C223 C217 1.390 . S
C223 C220 1.386 . S
C224 C219 1.490 . S
C224 C226 1.395 . S
C224 C227 1.403 . S
H225 C231 0.930 . S
C226 H212 0.930 . S
C226 C224 1.395 . S
C226 C229 1.403 1_554 S
C227 C224 1.403 . S
C227 C228 1.524 . S
C227 C231 1.400 1_554 S
C228 H213 0.960 . S
C228 H214 0.960 . S
C228 H215 0.960 . S
C228 C227 1.524 . S
C229 C226 1.403 1_556 S
C229 C230 1.392 . S
C229 C233 1.495 . S
C230 C229 1.392 . S
C230 C231 1.385 . S
C230 C232 1.478 . S
C231 H225 0.930 . S
C231 C227 1.400 1_556 S
C231 C230 1.385 . S
C232 C230 1.478 . S
C232 C234 1.381 . S
C232 C238 1.383 . S
C233 C229 1.495 . S
C233 H239 0.959 . S
C233 H240 0.961 . S
C233 H241 0.960 . S
C234 C232 1.381 . S
C234 C235 1.394 . S
C234 H242 0.930 . S
C235 C234 1.394 . S
C235 C236 1.383 . S
C235 H243 0.929 . S
C236 C235 1.383 . S
C236 C237 1.377 . S
C237 H221 0.930 . S
C237 C236 1.377 . S
C237 C238 1.379 . S
C238 H222 0.931 . S
C238 C232 1.383 . S
C238 C237 1.379 . S
H239 C233 0.959 . S
H240 C233 0.961 . S
H241 C233 0.960 . S
H242 C234 0.930 . S
H243 C235 0.929 . S
H244 C252 0.929 . S
H245 C254 0.930 . S
H246 C256 0.930 . S
H247 C259 0.929 . S
H248 C262 0.930 . S
H249 C264 0.960 . S
H250 C264 0.960 . S
H251 C264 0.960 . S
C252 H244 0.929 . S
C252 C253 1.377 . S
C252 C254 1.384 . S
C253 C252 1.377 . S
C253 C259 1.390 . S
C254 H245 0.930 . S
C254 C252 1.384 . S
C254 C255 1.372 . S
C255 C254 1.372 . S
C255 C256 1.400 . S
C255 C260 1.490 . S
C256 H246 0.930 . S
C256 C255 1.400 . S
C256 C259 1.386 . S
H257 C273 0.930 . S
H258 C274 0.931 . S
C259 H247 0.929 . S
C259 C253 1.390 . S
C259 C256 1.386 . S
C260 C255 1.490 . S
C260 C262 1.395 . S
C260 C263 1.403 . S
H261 C267 0.930 . S
C262 H248 0.930 . S
C262 C260 1.395 . S
C262 C265 1.403 . S
C263 C260 1.403 . S
C263 C264 1.524 . S
C263 C267 1.400 . S
C264 H249 0.960 . S
C264 H250 0.960 . S
C264 H251 0.960 . S
C264 C263 1.524 . S
C265 C262 1.403 . S
C265 C266 1.392 . S
C265 C269 1.495 . S
C266 C265 1.392 . S
C266 C267 1.385 . S
C266 C268 1.478 . S
C267 H261 0.930 . S
C267 C263 1.400 . S
C267 C266 1.385 . S
C268 C266 1.478 . S
C268 C270 1.381 . S
C268 C274 1.383 . S
C269 C265 1.495 . S
C269 H275 0.959 . S
C269 H276 0.961 . S
C269 H277 0.960 . S
C270 C268 1.381 . S
C270 C271 1.394 . S
C270 H278 0.930 . S
C271 C270 1.394 . S
C271 C272 1.383 . S
C271 H279 0.929 . S
C272 C271 1.383 . S
C272 C273 1.377 . S
C273 H257 0.930 . S
C273 C272 1.377 . S
C273 C274 1.379 . S
C274 H258 0.931 . S
C274 C268 1.383 . S
C274 C273 1.379 . S
H275 C269 0.959 . S
H276 C269 0.961 . S
H277 C269 0.960 . S
H278 C270 0.930 . S
H279 C271 0.929 . S
H280 C288 0.929 . S
H281 C290 0.930 . S
H282 C292 0.930 . S
H283 C295 0.929 . S
H284 C298 0.930 . S
H285 C300 0.960 . S
H286 C300 0.960 . S
H287 C300 0.960 . S
C288 H280 0.929 . S
C288 C289 1.377 . S
C288 C290 1.384 . S
C289 C288 1.377 . S
C289 C295 1.390 . S
C290 H281 0.930 . S
C290 C288 1.384 . S
C290 C291 1.372 . S
C291 C290 1.372 . S
C291 C292 1.400 . S
C291 C296 1.490 . S
C292 H282 0.930 . S
C292 C291 1.400 . S
C292 C295 1.386 . S
H293 C309 0.930 . S
H294 C310 0.931 . S
C295 H283 0.929 . S
C295 C289 1.390 . S
C295 C292 1.386 . S
C296 C291 1.490 . S
C296 C298 1.395 . S
C296 C299 1.403 . S
H297 C303 0.930 . S
C298 H284 0.930 . S
C298 C296 1.395 . S
C298 C301 1.403 1_556 S
C299 C296 1.403 . S
C299 C300 1.524 . S
C299 C303 1.400 1_556 S
C300 H285 0.960 . S
C300 H286 0.960 . S
C300 H287 0.960 . S
C300 C299 1.524 . S
C301 C298 1.403 1_554 S
C301 C302 1.392 . S
C301 C305 1.495 . S
C302 C301 1.392 . S
C302 C303 1.385 . S
C302 C304 1.478 . S
C303 H297 0.930 . S
C303 C299 1.400 1_554 S
C303 C302 1.385 . S
C304 C302 1.478 . S
C304 C306 1.381 . S
C304 C310 1.383 . S
C305 C301 1.495 . S
C305 H311 0.959 . S
C305 H312 0.961 . S
C305 H313 0.960 . S
C306 C304 1.381 . S
C306 C307 1.394 . S
C306 H314 0.930 . S
C307 C306 1.394 . S
C307 C308 1.383 . S
C307 H315 0.929 . S
C308 C307 1.383 . S
C308 C309 1.377 . S
C309 H293 0.930 . S
C309 C308 1.377 . S
C309 C310 1.379 . S
C310 H294 0.931 . S
C310 C304 1.383 . S
C310 C309 1.379 . S
H311 C305 0.959 . S
H312 C305 0.961 . S
H313 C305 0.960 . S
H314 C306 0.930 . S
H315 C307 0.929 . S
H316 C324 0.929 . S
H317 C326 0.930 . S
H318 C328 0.930 . S
H319 C331 0.929 . S
H320 C334 0.930 . S
H321 C336 0.960 . S
H322 C336 0.960 . S
H323 C336 0.960 . S
C324 H316 0.929 . S
C324 C325 1.377 . S
C324 C326 1.384 . S
C325 C324 1.377 . S
C325 C331 1.390 . S
C326 H317 0.930 . S
C326 C324 1.384 . S
C326 C327 1.372 . S
C327 C326 1.372 . S
C327 C328 1.400 . S
C327 C332 1.490 . S
C328 H318 0.930 . S
C328 C327 1.400 . S
C328 C331 1.386 . S
H329 C345 0.930 . S
H330 C346 0.931 . S
C331 H319 0.929 . S
C331 C325 1.390 . S
C331 C328 1.386 . S
C332 C327 1.490 . S
C332 C334 1.395 . S
C332 C335 1.403 . S
H333 C339 0.930 . S
C334 H320 0.930 . S
C334 C332 1.395 . S
C334 C337 1.403 . S
C335 C332 1.403 . S
C335 C336 1.524 . S
C335 C339 1.400 . S
C336 H321 0.960 . S
C336 H322 0.960 . S
C336 H323 0.960 . S
C336 C335 1.524 . S
C337 C334 1.403 . S
C337 C338 1.392 . S
C337 C341 1.495 . S
C338 C337 1.392 . S
C338 C339 1.385 . S
C338 C340 1.478 . S
C339 H333 0.930 . S
C339 C335 1.400 . S
C339 C338 1.385 . S
C340 C338 1.478 . S
C340 C342 1.381 . S
C340 C346 1.383 . S
C341 C337 1.495 . S
C341 H347 0.959 . S
C341 H348 0.961 . S
C341 H349 0.960 . S
C342 C340 1.381 . S
C342 C343 1.394 . S
C342 H350 0.930 . S
C343 C342 1.394 . S
C343 C344 1.383 . S
C343 H351 0.929 . S
C344 C343 1.383 . S
C344 C345 1.377 . S
C345 H329 0.930 . S
C345 C344 1.377 . S
C345 C346 1.379 . S
C346 H330 0.931 . S
C346 C340 1.383 . S
C346 C345 1.379 . S
H347 C341 0.959 . S
H348 C341 0.961 . S
H349 C341 0.960 . S
H350 C342 0.930 . S
H351 C343 0.929 . S
H352 C360 0.929 . S
H353 C362 0.930 1_556 S
H354 C364 0.930 . S
H355 C367 0.929 . S
H356 C370 0.930 . S
H357 C372 0.960 . S
H358 C372 0.960 . S
H359 C372 0.960 . S
C360 H352 0.929 . S
C360 C361 1.377 . S
C360 C362 1.384 . S
C361 C360 1.377 . S
C361 C367 1.390 . S
C362 H353 0.930 1_554 S
C362 C360 1.384 . S
C362 C363 1.372 . S
C363 C362 1.372 . S
C363 C364 1.400 . S
C363 C368 1.490 . S
C364 H354 0.930 . S
C364 C363 1.400 . S
C364 C367 1.386 . S
H365 C381 0.930 . S
H366 C382 0.888 1_554 S
C367 H355 0.929 . S
C367 C361 1.390 . S
C367 C364 1.386 . S
C368 C363 1.490 . S
C368 C370 1.395 1_554 S
C368 C371 1.403 . S
H369 C375 0.930 . S
C370 H356 0.930 . S
C370 C368 1.395 1_556 S
C370 C373 1.403 . S
C371 C368 1.403 . S
C371 C372 1.524 . S
C371 C375 1.400 1_554 S
C372 H357 0.960 . S
C372 H358 0.960 . S
C372 H359 0.960 . S
C372 C371 1.524 . S
C373 C370 1.403 . S
C373 C374 1.392 . S
C373 C377 1.495 . S
C374 C373 1.392 . S
C374 C375 1.385 . S
C374 C376 1.478 . S
C375 H369 0.930 . S
C375 C371 1.400 1_556 S
C375 C374 1.385 . S
C376 C374 1.478 . S
C376 C378 1.381 . S
C376 C382 1.383 . S
C377 C373 1.495 . S
C377 H383 0.959 . S
C377 H384 0.961 . S
C377 H385 0.960 . S
C378 C376 1.381 . S
C378 C379 1.394 . S
C378 H386 0.930 . S
C379 C378 1.394 . S
C379 C380 1.383 . S
C379 H387 0.929 . S
C380 C379 1.383 . S
C380 C381 1.377 . S
C381 H365 0.930 . S
C381 C380 1.377 . S
C381 C382 1.379 . S
C382 H366 0.888 1_556 S
C382 C376 1.383 . S
C382 C381 1.379 . S
H383 C377 0.959 . S
H384 C377 0.961 . S
H385 C377 0.960 . S
H386 C378 0.930 . S
H387 C379 0.929 . S
H388 C396 0.929 . S
H389 C398 0.930 . S
H390 C400 0.930 . S
H391 C403 0.929 . S
H392 C406 0.930 . S
H393 C408 0.960 . S
H394 C408 0.960 . S
H395 C408 0.960 . S
C396 H388 0.929 . S
C396 C397 1.377 . S
C396 C398 1.384 . S
C397 C396 1.377 . S
C397 C403 1.390 . S
C398 H389 0.930 . S
C398 C396 1.384 . S
C398 C399 1.372 . S
C399 C398 1.372 . S
C399 C400 1.400 . S
C399 C404 1.490 . S
C400 H390 0.930 . S
C400 C399 1.400 . S
C400 C403 1.386 . S
H401 C417 0.930 . S
H402 C418 0.931 . S
C403 H391 0.929 . S
C403 C397 1.390 . S
C403 C400 1.386 . S
C404 C399 1.490 . S
C404 C406 1.395 . S
C404 C407 1.403 . S
H405 C411 0.930 . S
C406 H392 0.930 . S
C406 C404 1.395 . S
C406 C409 1.403 . S
C407 C404 1.403 . S
C407 C408 1.524 . S
C407 C411 1.400 . S
C408 H393 0.960 . S
C408 H394 0.960 . S
C408 H395 0.960 . S
C408 C407 1.524 . S
C409 C406 1.403 . S
C409 C410 1.392 . S
C409 C413 1.495 . S
C410 C409 1.392 . S
C410 C411 1.385 . S
C410 C412 1.478 . S
C411 H405 0.930 . S
C411 C407 1.400 . S
C411 C410 1.385 . S
C412 C410 1.478 . S
C412 C414 1.381 . S
C412 C418 1.383 . S
C413 C409 1.495 . S
C413 H419 0.959 . S
C413 H420 0.961 . S
C413 H421 0.960 . S
C414 C412 1.381 . S
C414 C415 1.394 . S
C414 H422 0.930 . S
C415 C414 1.394 . S
C415 C416 1.383 . S
C415 H423 0.929 . S
C416 C415 1.383 . S
C416 C417 1.377 . S
C417 H401 0.930 . S
C417 C416 1.377 . S
C417 C418 1.379 . S
C418 H402 0.931 . S
C418 C412 1.383 . S
C418 C417 1.379 . S
H419 C413 0.959 . S
H420 C413 0.961 . S
H421 C413 0.960 . S
H422 C414 0.930 . S
H423 C415 0.929 . S
H424 C432 0.929 . S
H425 C434 0.930 . S
H426 C436 0.930 . S
H427 C439 0.929 . S
H428 C442 0.930 . S
H429 C444 0.960 . S
H430 C444 0.960 . S
H431 C444 0.960 . S
C432 H424 0.929 . S
C432 C433 1.377 . S
C432 C434 1.384 . S
C433 C432 1.377 . S
C433 C439 1.390 . S
C434 H425 0.930 . S
C434 C432 1.384 . S
C434 C435 1.372 . S
C435 C434 1.372 . S
C435 C436 1.400 . S
C435 C440 1.490 . S
C436 H426 0.930 . S
C436 C435 1.400 . S
C436 C439 1.386 . S
H437 C453 0.930 . S
H438 C454 0.931 . S
C439 H427 0.929 . S
C439 C433 1.390 . S
C439 C436 1.386 . S
C440 C435 1.490 . S
C440 C442 1.395 1_556 S
C440 C443 1.403 . S
H441 C447 0.930 . S
C442 H428 0.930 . S
C442 C440 1.395 1_554 S
C442 C445 1.403 . S
C443 C440 1.403 . S
C443 C444 1.524 . S
C443 C447 1.375 1_556 S
C444 H429 0.960 . S
C444 H430 0.960 . S
C444 H431 0.960 . S
C444 C443 1.524 . S
C445 C442 1.403 . S
C445 C446 1.392 . S
C445 C449 1.495 . S
C446 C445 1.392 . S
C446 C447 1.412 . S
C446 C448 1.478 . S
C447 H441 0.930 . S
C447 C443 1.375 1_554 S
C447 C446 1.412 . S
C448 C446 1.478 . S
C448 C450 1.381 . S
C448 C454 1.383 . S
C449 C445 1.495 . S
C449 H455 0.959 . S
C449 H456 0.961 . S
C449 H457 0.960 . S
C450 C448 1.381 . S
C450 C451 1.394 . S
C450 H458 0.930 . S
C451 C450 1.394 . S
C451 C452 1.383 . S
C451 H459 0.929 . S
C452 C451 1.383 . S
C452 C453 1.377 . S
C453 H437 0.930 . S
C453 C452 1.377 . S
C453 C454 1.379 . S
C454 H438 0.931 . S
C454 C448 1.383 . S
C454 C453 1.379 . S
H455 C449 0.959 . S
H456 C449 0.961 . S
H457 C449 0.960 . S
H458 C450 0.930 . S
H459 C451 0.929 . S
H460 C468 0.929 . S
H461 C470 0.930 . S
H462 C472 0.930 . S
H463 C475 0.929 . S
H464 C478 0.930 . S
H465 C480 0.960 . S
H466 C480 0.960 . S
H467 C480 0.960 . S
C468 H460 0.929 . S
C468 C469 1.377 . S
C468 C470 1.384 . S
C469 C468 1.377 . S
C469 C475 1.390 . S
C470 H461 0.930 . S
C470 C468 1.384 . S
C470 C471 1.372 . S
C471 C470 1.372 . S
C471 C472 1.400 . S
C471 C476 1.490 . S
C472 H462 0.930 . S
C472 C471 1.400 . S
C472 C475 1.386 . S
H473 C489 0.930 . S
H474 C490 0.931 . S
C475 H463 0.929 . S
C475 C469 1.390 . S
C475 C472 1.386 . S
C476 C471 1.490 . S
C476 C478 1.395 . S
C476 C479 1.403 . S
H477 C483 0.930 . S
C478 H464 0.930 . S
C478 C476 1.395 . S
C478 C481 1.403 . S
C479 C476 1.403 . S
C479 C480 1.524 . S
C479 C483 1.400 . S
C480 H465 0.960 . S
C480 H466 0.960 . S
C480 H467 0.960 . S
C480 C479 1.524 . S
C481 C478 1.403 . S
C481 C482 1.392 . S
C481 C485 1.495 . S
C482 C481 1.392 . S
C482 C483 1.385 . S
C482 C484 1.478 . S
C483 H477 0.930 . S
C483 C479 1.400 . S
C483 C482 1.385 . S
C484 C482 1.478 . S
C484 C486 1.381 . S
C484 C490 1.383 . S
C485 C481 1.495 . S
C485 H491 0.959 . S
C485 H492 0.961 . S
C485 H493 0.960 . S
C486 C484 1.381 . S
C486 C487 1.394 . S
C486 H494 0.930 . S
C487 C486 1.394 . S
C487 C488 1.383 . S
C487 H495 0.929 . S
C488 C487 1.383 . S
C488 C489 1.377 . S
C489 H473 0.930 . S
C489 C488 1.377 . S
C489 C490 1.379 . S
C490 H474 0.931 . S
C490 C484 1.383 . S
C490 C489 1.379 . S
H491 C485 0.959 . S
H492 C485 0.961 . S
H493 C485 0.960 . S
H494 C486 0.930 . S
H495 C487 0.929 . S
H496 C504 0.929 . S
H497 C506 0.930 . S
H498 C508 0.930 . S
H499 C511 0.929 . S
H500 C514 0.930 . S
H501 C516 0.960 . S
H502 C516 0.960 . S
H503 C516 0.960 . S
C504 H496 0.929 . S
C504 C505 1.377 . S
C504 C506 1.384 . S
C505 C504 1.377 . S
C505 C511 1.390 . S
C506 H497 0.930 . S
C506 C504 1.384 . S
C506 C507 1.372 . S
C507 C506 1.372 . S
C507 C508 1.400 . S
C507 C512 1.490 . S
C508 H498 0.930 . S
C508 C507 1.400 . S
C508 C511 1.386 . S
H509 C525 0.930 . S
H510 C526 0.931 . S
C511 H499 0.929 . S
C511 C505 1.390 . S
C511 C508 1.386 . S
C512 C507 1.490 . S
C512 C514 1.395 . S
C512 C515 1.403 . S
H513 C519 0.930 . S
C514 H500 0.930 . S
C514 C512 1.395 . S
C514 C517 1.403 1_544 S
C515 C512 1.403 . S
C515 C516 1.524 . S
C515 C519 1.400 1_544 S
C516 H501 0.960 . S
C516 H502 0.960 . S
C516 H503 0.960 . S
C516 C515 1.524 . S
C517 C514 1.403 1_566 S
C517 C518 1.392 . S
C517 C521 1.495 . S
C518 C517 1.392 . S
C518 C519 1.385 . S
C518 C520 1.478 . S
C519 H513 0.930 . S
C519 C515 1.400 1_566 S
C519 C518 1.385 . S
C520 C518 1.478 . S
C520 C522 1.381 . S
C520 C526 1.383 . S
C521 C517 1.495 . S
C521 H527 0.965 . S
C521 H528 0.961 . S
C521 H529 0.960 . S
C522 C520 1.381 . S
C522 C523 1.394 . S
C522 H530 0.928 1_556 S
C523 C522 1.394 . S
C523 C524 1.383 . S
C523 H531 0.929 . S
C524 C523 1.383 . S
C524 C525 1.377 . S
C525 H509 0.930 . S
C525 C524 1.377 . S
C525 C526 1.379 . S
C526 H510 0.931 . S
C526 C520 1.383 . S
C526 C525 1.379 . S
H527 C521 0.965 . S
H528 C521 0.961 . S
H529 C521 0.960 . S
H530 C522 0.928 1_554 S
H531 C523 0.929 . S
H532 C540 0.929 . S
H533 C542 0.930 . S
H534 C544 0.930 . S
H535 C547 0.929 . S
H536 C550 0.928 1_565 S
H537 C552 0.960 . S
H538 C552 0.960 . S
H539 C552 0.960 . S
C540 H532 0.929 . S
C540 C541 1.377 . S
C540 C542 1.384 . S
C541 C540 1.377 . S
C541 C547 1.390 . S
C542 H533 0.930 . S
C542 C540 1.384 . S
C542 C543 1.372 . S
C543 C542 1.372 . S
C543 C544 1.400 . S
C543 C548 1.490 . S
C544 H534 0.930 . S
C544 C543 1.400 . S
C544 C547 1.386 . S
H545 C561 0.930 . S
H546 C562 0.931 . S
C547 H535 0.929 . S
C547 C541 1.390 . S
C547 C544 1.386 . S
C548 C543 1.490 . S
C548 C550 1.374 1_565 S
C548 C551 1.403 . S
H549 C555 0.930 . S
C550 H536 0.928 1_545 S
C550 C548 1.374 1_545 S
C550 C553 1.425 . S
C551 C548 1.403 . S
C551 C552 1.524 . S
C551 C555 1.400 1_565 S
C552 H537 0.960 . S
C552 H538 0.960 . S
C552 H539 0.960 . S
C552 C551 1.524 . S
C553 C550 1.425 . S
C553 C554 1.392 . S
C553 C557 1.495 . S
C554 C553 1.392 . S
C554 C555 1.385 . S
C554 C556 1.478 . S
C555 H549 0.930 . S
C555 C551 1.400 1_545 S
C555 C554 1.385 . S
C556 C554 1.478 . S
C556 C558 1.381 . S
C556 C562 1.383 . S
C557 C553 1.495 . S
C557 H563 0.959 . S
C557 H564 0.961 . S
C557 H565 0.960 . S
C558 C556 1.381 . S
C558 C559 1.394 . S
C558 H566 0.930 . S
C559 C558 1.394 . S
C559 C560 1.383 . S
C559 H567 0.929 . S
C560 C559 1.383 . S
C560 C561 1.377 . S
C561 H545 0.930 . S
C561 C560 1.377 . S
C561 C562 1.379 . S
C562 H546 0.931 . S
C562 C556 1.383 . S
C562 C561 1.379 . S
H563 C557 0.959 . S
H564 C557 0.961 . S
H565 C557 0.960 . S
H566 C558 0.930 . S
H567 C559 0.929 . S
H568 C576 0.929 . S
H569 C578 0.930 . S
H570 C580 0.930 . S
H571 C583 0.929 . S
H572 C586 0.930 . S
H573 C588 0.960 1_545 S
H574 C588 0.960 . S
H575 C588 0.960 . S
C576 H568 0.929 . S
C576 C577 1.377 . S
C576 C578 1.384 . S
C577 C576 1.377 . S
C577 C583 1.390 . S
C578 H569 0.930 . S
C578 C576 1.384 . S
C578 C579 1.372 . S
C579 C578 1.372 . S
C579 C580 1.400 . S
C579 C584 1.490 . S
C580 H570 0.930 . S
C580 C579 1.400 . S
C580 C583 1.386 . S
H581 C597 0.930 . S
H582 C598 0.931 . S
C583 H571 0.929 . S
C583 C577 1.390 . S
C583 C580 1.386 . S
C584 C579 1.490 . S
C584 C586 1.395 1_556 S
C584 C587 1.403 . S
H585 C591 0.930 . S
C586 H572 0.930 . S
C586 C584 1.395 1_554 S
C586 C589 1.403 1_565 S
C587 C584 1.403 . S
C587 C588 1.524 . S
C587 C591 1.400 1_565 S
C588 H573 0.960 1_565 S
C588 H574 0.960 . S
C588 H575 0.960 . S
C588 C587 1.524 . S
C589 C586 1.403 1_545 S
C589 C590 1.392 . S
C589 C593 1.495 . S
C590 C589 1.392 . S
C590 C591 1.385 1_554 S
C590 C592 1.478 . S
C591 H585 0.930 . S
C591 C587 1.400 1_545 S
C591 C590 1.385 1_556 S
C592 C590 1.478 . S
C592 C594 1.381 . S
C592 C598 1.383 . S
C593 C589 1.495 . S
C593 H599 0.959 1_545 S
C593 H600 0.961 . S
C593 H601 0.960 . S
C594 C592 1.381 . S
C594 C595 1.394 . S
C594 H602 0.930 . S
C595 C594 1.394 . S
C595 C596 1.383 . S
C595 H603 0.929 . S
C596 C595 1.383 . S
C596 C597 1.377 . S
C597 H581 0.930 . S
C597 C596 1.377 . S
C597 C598 1.379 . S
C598 H582 0.931 . S
C598 C592 1.383 . S
C598 C597 1.379 . S
H599 C593 0.959 1_565 S
H600 C593 0.961 . S
H601 C593 0.960 . S
H602 C594 0.930 . S
H603 C595 0.929 . S
H604 C612 0.929 . S
H605 C614 0.930 . S
H606 C616 0.930 . S
H607 C619 0.929 . S
H608 C622 0.930 . S
H609 C624 0.960 . S
H610 C624 0.960 . S
H611 C624 0.960 . S
C612 H604 0.929 . S
C612 C613 1.377 . S
C612 C614 1.384 . S
C613 C612 1.377 . S
C613 C619 1.390 . S
C614 H605 0.930 . S
C614 C612 1.384 . S
C614 C615 1.372 . S
C615 C614 1.372 . S
C615 C616 1.400 . S
C615 C620 1.490 . S
C616 H606 0.930 . S
C616 C615 1.400 . S
C616 C619 1.386 . S
H617 C633 0.930 . S
H618 C634 0.931 . S
C619 H607 0.929 . S
C619 C613 1.390 . S
C619 C616 1.386 . S
C620 C615 1.490 . S
C620 C622 1.395 . S
C620 C623 1.403 . S
H621 C627 0.930 . S
C622 H608 0.930 . S
C622 C620 1.395 . S
C622 C625 1.403 1_545 S
C623 C620 1.403 . S
C623 C624 1.524 . S
C623 C627 1.400 1_545 S
C624 H609 0.960 . S
C624 H610 0.960 . S
C624 H611 0.960 . S
C624 C623 1.524 . S
C625 C622 1.403 1_565 S
C625 C626 1.392 . S
C625 C629 1.495 . S
C626 C625 1.392 . S
C626 C627 1.385 . S
C626 C628 1.478 . S
C627 H621 0.930 . S
C627 C623 1.400 1_565 S
C627 C626 1.385 . S
C628 C626 1.478 . S
C628 C630 1.381 . S
C628 C634 1.383 . S
C629 C625 1.495 . S
C629 H635 0.959 . S
C629 H636 0.961 . S
C629 H637 0.960 . S
C630 C628 1.381 . S
C630 C631 1.394 . S
C630 H638 0.930 . S
C631 C630 1.394 . S
C631 C632 1.383 . S
C631 H639 0.929 . S
C632 C631 1.383 . S
C632 C633 1.377 . S
C633 H617 0.930 . S
C633 C632 1.377 . S
C633 C634 1.379 . S
C634 H618 0.931 . S
C634 C628 1.383 . S
C634 C633 1.379 . S
H635 C629 0.959 . S
H636 C629 0.961 . S
H637 C629 0.960 . S
H638 C630 0.930 . S
H639 C631 0.929 . S
H640 C648 0.929 . S
H641 C650 0.930 . S
H642 C652 0.930 . S
H643 C655 0.929 . S
H644 C658 0.930 . S
H645 C660 0.960 . S
H646 C660 0.960 . S
H647 C660 0.960 . S
C648 H640 0.929 . S
C648 C649 1.377 . S
C648 C650 1.384 . S
C649 C648 1.377 . S
C649 C655 1.390 . S
C650 H641 0.930 . S
C650 C648 1.384 . S
C650 C651 1.372 . S
C651 C650 1.372 . S
C651 C652 1.400 . S
C651 C656 1.490 . S
C652 H642 0.930 . S
C652 C651 1.400 . S
C652 C655 1.386 . S
H653 C669 0.930 . S
H654 C670 0.931 . S
C655 H643 0.929 . S
C655 C649 1.390 . S
C655 C652 1.386 . S
C656 C651 1.490 . S
C656 C658 1.395 1_556 S
C656 C659 1.403 . S
H657 C663 0.930 . S
C658 H644 0.930 . S
C658 C656 1.395 1_554 S
C658 C661 1.403 . S
C659 C656 1.403 . S
C659 C660 1.524 . S
C659 C663 1.400 . S
C660 H645 0.960 . S
C660 H646 0.960 . S
C660 H647 0.960 . S
C660 C659 1.524 . S
C661 C658 1.403 . S
C661 C662 1.392 . S
C661 C665 1.495 . S
C662 C661 1.392 . S
C662 C663 1.385 1_554 S
C662 C664 1.478 . S
C663 H657 0.930 . S
C663 C659 1.400 . S
C663 C662 1.385 1_556 S
C664 C662 1.478 . S
C664 C666 1.381 . S
C664 C670 1.383 . S
C665 C661 1.495 . S
C665 H671 0.959 . S
C665 H672 0.961 . S
C665 H673 0.960 . S
C666 C664 1.381 . S
C666 C667 1.394 . S
C666 H674 0.930 . S
C667 C666 1.394 . S
C667 C668 1.383 . S
C667 H675 0.929 . S
C668 C667 1.383 . S
C668 C669 1.377 . S
C669 H653 0.930 . S
C669 C668 1.377 . S
C669 C670 1.379 . S
C670 H654 0.931 . S
C670 C664 1.383 . S
C670 C669 1.379 . S
H671 C665 0.959 . S
H672 C665 0.961 . S
H673 C665 0.960 . S
H674 C666 0.930 . S
H675 C667 0.929 . S
H676 C684 0.929 . S
H677 C686 0.930 . S
H678 C688 0.930 . S
H679 C691 0.929 . S
H680 C694 0.930 . S
H681 C696 0.960 . S
H682 C696 0.960 . S
H683 C696 0.960 . S
C684 H676 0.929 . S
C684 C685 1.377 . S
C684 C686 1.384 . S
C685 C684 1.377 . S
C685 C691 1.390 . S
C686 H677 0.930 . S
C686 C684 1.384 . S
C686 C687 1.372 . S
C687 C686 1.372 . S
C687 C688 1.400 . S
C687 C692 1.490 . S
C688 H678 0.930 . S
C688 C687 1.400 . S
C688 C691 1.386 . S
H689 C705 0.930 . S
H690 C706 0.931 . S
C691 H679 0.929 . S
C691 C685 1.390 . S
C691 C688 1.386 . S
C692 C687 1.490 . S
C692 C694 1.395 . S
C692 C695 1.403 . S
H693 C699 0.930 . S
C694 H680 0.930 . S
C694 C692 1.395 . S
C694 C697 1.403 . S
C695 C692 1.403 . S
C695 C696 1.524 . S
C695 C699 1.400 . S
C696 H681 0.960 . S
C696 H682 0.960 . S
C696 H683 0.960 . S
C696 C695 1.524 . S
C697 C694 1.403 . S
C697 C698 1.392 . S
C697 C701 1.495 . S
C698 C697 1.392 . S
C698 C699 1.385 . S
C698 C700 1.478 . S
C699 H693 0.930 . S
C699 C695 1.400 . S
C699 C698 1.385 . S
C700 C698 1.478 . S
C700 C702 1.381 . S
C700 C706 1.383 . S
C701 C697 1.495 . S
C701 H707 0.959 . S
C701 H708 0.961 . S
C701 H709 0.960 . S
C702 C700 1.381 . S
C702 C703 1.394 . S
C702 H710 0.930 . S
C703 C702 1.394 . S
C703 C704 1.383 . S
C703 H711 0.929 . S
C704 C703 1.383 . S
C704 C705 1.377 . S
C705 H689 0.930 . S
C705 C704 1.377 . S
C705 C706 1.379 . S
C706 H690 0.931 . S
C706 C700 1.383 . S
C706 C705 1.379 . S
H707 C701 0.959 . S
H708 C701 0.961 . S
H709 C701 0.960 . S
H710 C702 0.930 . S
H711 C703 0.929 . S
H712 C720 0.929 . S
H713 C722 0.930 1_556 S
H714 C724 0.930 . S
H715 C727 0.929 . S
H716 C730 0.930 . S
H717 C732 0.960 . S
H718 C732 0.960 . S
H719 C732 0.960 . S
C720 H712 0.929 . S
C720 C721 1.377 . S
C720 C722 1.384 . S
C721 C720 1.377 . S
C721 C727 1.390 . S
C722 H713 0.930 1_554 S
C722 C720 1.384 . S
C722 C723 1.372 . S
C723 C722 1.372 . S
C723 C724 1.400 . S
C723 C728 1.490 . S
C724 H714 0.930 . S
C724 C723 1.400 . S
C724 C727 1.386 . S
H725 C741 0.930 . S
H726 C742 0.931 1_554 S
C727 H715 0.929 . S
C727 C721 1.390 . S
C727 C724 1.386 . S
C728 C723 1.490 . S
C728 C730 1.395 1_554 S
C728 C731 1.403 . S
H729 C735 0.933 . S
C730 H716 0.930 . S
C730 C728 1.395 1_556 S
C730 C733 1.403 . S
C731 C728 1.403 . S
C731 C732 1.524 . S
C731 C735 1.400 1_554 S
C732 H717 0.960 . S
C732 H718 0.960 . S
C732 H719 0.960 . S
C732 C731 1.524 . S
C733 C730 1.403 . S
C733 C734 1.392 . S
C733 C737 1.495 . S
C734 C733 1.392 . S
C734 C735 1.385 . S
C734 C736 1.478 . S
C735 H729 0.933 . S
C735 C731 1.400 1_556 S
C735 C734 1.385 . S
C736 C734 1.478 . S
C736 C738 1.381 . S
C736 C742 1.383 . S
C737 C733 1.495 . S
C737 H743 0.959 . S
C737 H744 0.961 . S
C737 H745 0.960 . S
C738 C736 1.381 . S
C738 C739 1.394 . S
C738 H746 0.930 . S
C739 C738 1.394 . S
C739 C740 1.383 . S
C739 H747 0.929 . S
C740 C739 1.383 . S
C740 C741 1.377 . S
C741 H725 0.930 . S
C741 C740 1.377 . S
C741 C742 1.379 . S
C742 H726 0.931 1_556 S
C742 C736 1.383 . S
C742 C741 1.379 . S
H743 C737 0.959 . S
H744 C737 0.961 . S
H745 C737 0.960 . S
H746 C738 0.930 . S
H747 C739 0.929 . S
H748 C756 0.929 . S
H749 C758 0.930 . S
H750 C760 0.930 . S
H751 C763 0.929 . S
H752 C766 0.930 . S
H753 C768 0.960 . S
H754 C768 0.960 . S
H755 C768 0.960 . S
C756 H748 0.929 . S
C756 C757 1.377 . S
C756 C758 1.384 . S
C757 C756 1.377 . S
C757 C763 1.390 . S
C758 H749 0.930 . S
C758 C756 1.384 . S
C758 C759 1.372 . S
C759 C758 1.372 . S
C759 C760 1.400 . S
C759 C764 1.490 . S
C760 H750 0.930 . S
C760 C759 1.400 . S
C760 C763 1.386 . S
H761 C777 0.930 . S
H762 C778 0.931 . S
C763 H751 0.929 . S
C763 C757 1.390 . S
C763 C760 1.386 . S
C764 C759 1.490 . S
C764 C766 1.395 . S
C764 C767 1.403 . S
H765 C771 0.930 . S
C766 H752 0.930 . S
C766 C764 1.395 . S
C766 C769 1.403 . S
C767 C764 1.403 . S
C767 C768 1.524 . S
C767 C771 1.400 . S
C768 H753 0.960 . S
C768 H754 0.960 . S
C768 H755 0.960 . S
C768 C767 1.524 . S
C769 C766 1.403 . S
C769 C770 1.392 . S
C769 C773 1.495 . S
C770 C769 1.392 . S
C770 C771 1.385 . S
C770 C772 1.478 . S
C771 H765 0.930 . S
C771 C767 1.400 . S
C771 C770 1.385 . S
C772 C770 1.478 . S
C772 C774 1.381 . S
C772 C778 1.383 . S
C773 C769 1.495 . S
C773 H779 0.959 . S
C773 H780 0.961 . S
C773 H781 0.960 . S
C774 C772 1.381 . S
C774 C775 1.394 . S
C774 H782 0.930 . S
C775 C774 1.394 . S
C775 C776 1.383 . S
C775 H783 0.929 . S
C776 C775 1.383 . S
C776 C777 1.377 . S
C777 H761 0.930 . S
C777 C776 1.377 . S
C777 C778 1.379 . S
C778 H762 0.931 . S
C778 C772 1.383 . S
C778 C777 1.379 . S
H779 C773 0.959 . S
H780 C773 0.961 . S
H781 C773 0.960 . S
H782 C774 0.930 . S
H783 C775 0.929 . S
H784 C792 0.929 . S
H785 C794 0.930 . S
H786 C796 0.930 . S
H787 C799 0.929 . S
H788 C802 0.930 . S
H789 C804 0.960 . S
H790 C804 0.960 . S
H791 C804 0.960 . S
C792 H784 0.929 . S
C792 C793 1.377 . S
C792 C794 1.384 . S
C793 C792 1.377 . S
C793 C799 1.390 . S
C794 H785 0.930 . S
C794 C792 1.384 . S
C794 C795 1.372 . S
C795 C794 1.372 . S
C795 C796 1.400 . S
C795 C800 1.490 . S
C796 H786 0.930 . S
C796 C795 1.400 . S
C796 C799 1.386 . S
H797 C813 0.930 . S
H798 C814 0.931 . S
C799 H787 0.929 . S
C799 C793 1.390 . S
C799 C796 1.386 . S
C800 C795 1.490 . S
C800 C802 1.395 . S
C800 C803 1.403 . S
H801 C807 0.930 . S
C802 H788 0.930 . S
C802 C800 1.395 . S
C802 C805 1.403 . S
C803 C800 1.403 . S
C803 C804 1.524 . S
C803 C807 1.400 . S
C804 H789 0.960 . S
C804 H790 0.960 . S
C804 H791 0.960 . S
C804 C803 1.524 . S
C805 C802 1.403 . S
C805 C806 1.392 . S
C805 C809 1.495 . S
C806 C805 1.392 . S
C806 C807 1.385 . S
C806 C808 1.478 . S
C807 H801 0.930 . S
C807 C803 1.400 . S
C807 C806 1.385 . S
C808 C806 1.478 . S
C808 C810 1.381 . S
C808 C814 1.383 . S
C809 C805 1.495 . S
C809 H815 0.959 . S
C809 H816 0.961 . S
C809 H817 0.960 . S
C810 C808 1.381 . S
C810 C811 1.394 . S
C810 H818 0.930 . S
C811 C810 1.394 . S
C811 C812 1.383 . S
C811 H819 0.929 . S
C812 C811 1.383 . S
C812 C813 1.377 . S
C813 H797 0.930 . S
C813 C812 1.377 . S
C813 C814 1.379 . S
C814 H798 0.931 . S
C814 C808 1.383 . S
C814 C813 1.379 . S
H815 C809 0.959 . S
H816 C809 0.961 . S
H817 C809 0.960 . S
H818 C810 0.930 . S
H819 C811 0.929 . S
H820 C828 0.929 . S
H821 C830 0.930 . S
H822 C832 0.930 . S
H823 C835 0.929 . S
H824 C838 0.930 . S
H825 C840 0.960 . S
H826 C840 0.960 . S
H827 C840 0.960 . S
C828 H820 0.929 . S
C828 C829 1.377 . S
C828 C830 1.384 . S
C829 C828 1.377 . S
C829 C835 1.390 . S
C830 H821 0.930 . S
C830 C828 1.384 . S
C830 C831 1.372 . S
C831 C830 1.372 . S
C831 C832 1.400 . S
C831 C836 1.490 . S
C832 H822 0.930 . S
C832 C831 1.400 . S
C832 C835 1.386 . S
H833 C849 0.930 . S
H834 C850 0.931 . S
C835 H823 0.929 . S
C835 C829 1.390 . S
C835 C832 1.386 . S
C836 C831 1.490 . S
C836 C838 1.395 . S
C836 C839 1.403 . S
H837 C843 0.930 . S
C838 H824 0.930 . S
C838 C836 1.395 . S
C838 C841 1.403 1_655 S
C839 C836 1.403 . S
C839 C840 1.524 . S
C839 C843 1.400 1_655 S
C840 H825 0.960 . S
C840 H826 0.960 . S
C840 H827 0.960 . S
C840 C839 1.524 . S
C841 C838 1.403 1_455 S
C841 C842 1.392 . S
C841 C845 1.495 . S
C842 C841 1.392 . S
C842 C843 1.385 . S
C842 C844 1.478 . S
C843 H837 0.930 . S
C843 C839 1.400 1_455 S
C843 C842 1.385 . S
C844 C842 1.478 . S
C844 C846 1.381 . S
C844 C850 1.383 . S
C845 C841 1.495 . S
C845 H851 0.959 . S
C845 H852 0.961 . S
C845 H853 0.960 . S
C846 C844 1.381 . S
C846 C847 1.394 . S
C846 H854 0.930 . S
C847 C846 1.394 . S
C847 C848 1.383 . S
C847 H855 0.929 . S
C848 C847 1.383 . S
C848 C849 1.377 . S
C849 H833 0.930 . S
C849 C848 1.377 . S
C849 C850 1.379 . S
C850 H834 0.931 . S
C850 C844 1.383 . S
C850 C849 1.379 . S
H851 C845 0.959 . S
H852 C845 0.961 . S
H853 C845 0.960 . S
H854 C846 0.930 . S
H855 C847 0.929 . S
H856 C864 0.929 . S
H857 C866 0.930 . S
H858 C868 0.930 . S
H859 C871 0.929 . S
H860 C874 0.930 . S
H861 C876 0.960 . S
H862 C876 0.960 . S
H863 C876 0.960 . S
C864 H856 0.929 . S
C864 C865 1.377 . S
C864 C866 1.384 . S
C865 C864 1.377 . S
C865 C871 1.390 . S
C866 H857 0.930 . S
C866 C864 1.384 . S
C866 C867 1.372 . S
C867 C866 1.372 . S
C867 C868 1.400 . S
C867 C872 1.490 . S
C868 H858 0.930 . S
C868 C867 1.400 . S
C868 C871 1.386 . S
H869 C885 0.930 . S
H870 C886 0.931 . S
C871 H859 0.929 . S
C871 C865 1.390 . S
C871 C868 1.386 . S
C872 C867 1.490 . S
C872 C874 1.395 . S
C872 C875 1.403 . S
H873 C879 0.930 . S
C874 H860 0.930 . S
C874 C872 1.395 . S
C874 C877 1.403 . S
C875 C872 1.403 . S
C875 C876 1.524 . S
C875 C879 1.400 . S
C876 H861 0.960 . S
C876 H862 0.960 . S
C876 H863 0.960 . S
C876 C875 1.524 . S
C877 C874 1.403 . S
C877 C878 1.392 . S
C877 C881 1.495 . S
C878 C877 1.392 . S
C878 C879 1.385 . S
C878 C880 1.478 . S
C879 H873 0.930 . S
C879 C875 1.400 . S
C879 C878 1.385 . S
C880 C878 1.478 . S
C880 C882 1.381 . S
C880 C886 1.383 . S
C881 C877 1.495 . S
C881 H887 0.959 . S
C881 H888 0.961 . S
C881 H889 0.960 . S
C882 C880 1.381 . S
C882 C883 1.394 . S
C882 H890 0.930 . S
C883 C882 1.394 . S
C883 C884 1.383 . S
C883 H891 0.929 . S
C884 C883 1.383 . S
C884 C885 1.377 . S
C885 H869 0.930 . S
C885 C884 1.377 . S
C885 C886 1.379 . S
C886 H870 0.931 . S
C886 C880 1.383 . S
C886 C885 1.379 . S
H887 C881 0.959 . S
H888 C881 0.961 . S
H889 C881 0.960 . S
H890 C882 0.930 . S
H891 C883 0.929 . S
H892 C900 0.929 . S
H893 C902 0.930 . S
H894 C904 0.930 . S
H895 C907 0.929 . S
H896 C910 0.930 . S
H897 C912 0.960 . S
H898 C912 0.960 . S
H899 C912 0.960 . S
C900 H892 0.929 . S
C900 C901 1.377 . S
C900 C902 1.384 . S
C901 C900 1.377 . S
C901 C907 1.390 . S
C902 H893 0.930 . S
C902 C900 1.384 . S
C902 C903 1.372 . S
C903 C902 1.372 . S
C903 C904 1.400 . S
C903 C908 1.490 . S
C904 H894 0.930 . S
C904 C903 1.400 . S
C904 C907 1.386 . S
H905 C921 0.930 . S
H906 C922 0.931 . S
C907 H895 0.929 . S
C907 C901 1.390 . S
C907 C904 1.386 . S
C908 C903 1.490 . S
C908 C910 1.395 . S
C908 C911 1.403 . S
H909 C915 0.930 . S
C910 H896 0.930 . S
C910 C908 1.395 . S
C910 C913 1.403 1_455 S
C911 C908 1.403 . S
C911 C912 1.524 . S
C911 C915 1.400 1_455 S
C912 H897 0.960 . S
C912 H898 0.960 . S
C912 H899 0.960 . S
C912 C911 1.524 . S
C913 C910 1.403 1_655 S
C913 C914 1.392 . S
C913 C917 1.495 . S
C914 C913 1.392 . S
C914 C915 1.385 . S
C914 C916 1.478 . S
C915 H909 0.930 . S
C915 C911 1.400 1_655 S
C915 C914 1.385 . S
C916 C914 1.478 . S
C916 C918 1.381 . S
C916 C922 1.383 . S
C917 C913 1.495 . S
C917 H923 0.959 . S
C917 H924 0.961 . S
C917 H925 0.960 . S
C918 C916 1.381 . S
C918 C919 1.394 . S
C918 H926 0.930 . S
C919 C918 1.394 . S
C919 C920 1.383 . S
C919 H927 0.929 . S
C920 C919 1.383 . S
C920 C921 1.377 . S
C921 H905 0.930 . S
C921 C920 1.377 . S
C921 C922 1.379 . S
C922 H906 0.931 . S
C922 C916 1.383 . S
C922 C921 1.379 . S
H923 C917 0.959 . S
H924 C917 0.961 . S
H925 C917 0.960 . S
H926 C918 0.930 . S
H927 C919 0.929 . S
H928 C936 0.929 . S
H929 C938 0.930 . S
H930 C940 0.930 . S
H931 C943 0.929 . S
H932 C946 0.930 . S
H933 C948 0.960 . S
H934 C948 0.960 . S
H935 C948 0.960 . S
C936 H928 0.929 . S
C936 C937 1.377 . S
C936 C938 1.384 . S
C937 C936 1.377 . S
C937 C943 1.390 . S
C938 H929 0.930 . S
C938 C936 1.384 . S
C938 C939 1.372 . S
C939 C938 1.372 . S
C939 C940 1.400 . S
C939 C944 1.490 . S
C940 H930 0.930 . S
C940 C939 1.400 . S
C940 C943 1.386 . S
H941 C957 0.930 . S
H942 C958 0.931 . S
C943 H931 0.929 . S
C943 C937 1.390 . S
C943 C940 1.386 . S
C944 C939 1.490 . S
C944 C946 1.395 . S
C944 C947 1.403 . S
H945 C951 0.930 . S
C946 H932 0.930 . S
C946 C944 1.395 . S
C946 C949 1.403 1_455 S
C947 C944 1.403 . S
C947 C948 1.524 . S
C947 C951 1.400 1_455 S
C948 H933 0.960 . S
C948 H934 0.960 . S
C948 H935 0.960 . S
C948 C947 1.524 . S
C949 C946 1.403 1_655 S
C949 C950 1.392 . S
C949 C953 1.495 . S
C950 C949 1.392 . S
C950 C951 1.385 . S
C950 C952 1.478 . S
C951 H945 0.930 . S
C951 C947 1.400 1_655 S
C951 C950 1.385 . S
C952 C950 1.478 . S
C952 C954 1.381 . S
C952 C958 1.383 . S
C953 C949 1.495 . S
C953 H959 0.959 . S
C953 H960 0.961 . S
C953 H961 0.960 . S
C954 C952 1.381 . S
C954 C955 1.394 . S
C954 H962 0.930 . S
C955 C954 1.394 . S
C955 C956 1.383 . S
C955 H963 0.929 . S
C956 C955 1.383 . S
C956 C957 1.377 . S
C957 H941 0.930 . S
C957 C956 1.377 . S
C957 C958 1.379 . S
C958 H942 0.931 . S
C958 C952 1.383 . S
C958 C957 1.379 . S
H959 C953 0.959 . S
H960 C953 0.961 . S
H961 C953 0.960 . S
H962 C954 0.930 . S
H963 C955 0.929 . S
H964 C972 0.929 . S
H965 C974 0.930 . S
H966 C976 0.930 . S
H967 C979 0.929 . S
H968 C982 0.930 . S
H969 C984 0.960 . S
H970 C984 0.960 . S
H971 C984 0.960 . S
C972 H964 0.929 . S
C972 C973 1.377 . S
C972 C974 1.384 . S
C973 C972 1.377 . S
C973 C979 1.390 . S
C974 H965 0.930 . S
C974 C972 1.384 . S
C974 C975 1.372 . S
C975 C974 1.372 . S
C975 C976 1.400 . S
C975 C980 1.490 . S
C976 H966 0.930 . S
C976 C975 1.400 . S
C976 C979 1.386 . S
H977 C993 0.930 . S
H978 C994 0.931 . S
C979 H967 0.929 . S
C979 C973 1.390 . S
C979 C976 1.386 . S
C980 C975 1.490 . S
C980 C982 1.395 . S
C980 C983 1.403 . S
H981 C987 0.930 . S
C982 H968 0.930 . S
C982 C980 1.395 . S
C982 C985 1.403 . S
C983 C980 1.403 . S
C983 C984 1.524 . S
C983 C987 1.400 . S
C984 H969 0.960 . S
C984 H970 0.960 . S
C984 H971 0.960 . S
C984 C983 1.524 . S
C985 C982 1.403 . S
C985 C986 1.392 . S
C985 C989 1.495 . S
C986 C985 1.392 . S
C986 C987 1.385 . S
C986 C988 1.478 . S
C987 H981 0.930 . S
C987 C983 1.400 . S
C987 C986 1.385 . S
C988 C986 1.478 . S
C988 C990 1.381 . S
C988 C994 1.383 . S
C989 C985 1.495 . S
C989 H995 0.959 . S
C989 H996 0.961 . S
C989 H997 0.960 . S
C990 C988 1.381 . S
C990 C991 1.394 . S
C990 H998 0.930 . S
C991 C990 1.394 . S
C991 C992 1.383 . S
C991 H999 0.929 . S
C992 C991 1.383 . S
C992 C993 1.377 . S
C993 H977 0.930 . S
C993 C992 1.377 . S
C993 C994 1.379 . S
C994 H978 0.931 . S
C994 C988 1.383 . S
C994 C993 1.379 . S
H995 C989 0.959 . S
H996 C989 0.961 . S
H997 C989 0.960 . S
H998 C990 0.930 . S
H999 C991 0.929 . S
H1000 C1008 0.929 . S
H1001 C1010 0.930 . S
H1002 C1012 0.930 . S
H1003 C1015 0.929 . S
H1004 C1018 0.930 . S
H1005 C1020 0.960 . S
H1006 C1020 0.960 . S
H1007 C1020 0.960 . S
C1008 H1000 0.929 . S
C1008 C1009 1.377 . S
C1008 C1010 1.384 . S
C1009 C1008 1.377 . S
C1009 C1015 1.390 . S
C1010 H1001 0.930 . S
C1010 C1008 1.384 . S
C1010 C1011 1.372 . S
C1011 C1010 1.372 . S
C1011 C1012 1.400 . S
C1011 C1016 1.490 . S
C1012 H1002 0.930 . S
C1012 C1011 1.400 . S
C1012 C1015 1.386 . S
H1013 C1029 0.930 . S
H1014 C1030 0.931 . S
C1015 H1003 0.929 . S
C1015 C1009 1.390 . S
C1015 C1012 1.386 . S
C1016 C1011 1.490 . S
C1016 C1018 1.395 . S
C1016 C1019 1.403 . S
H1017 C1023 0.930 . S
C1018 H1004 0.930 . S
C1018 C1016 1.395 . S
C1018 C1021 1.403 1_455 S
C1019 C1016 1.403 . S
C1019 C1020 1.524 . S
C1019 C1023 1.400 1_455 S
C1020 H1005 0.960 . S
C1020 H1006 0.960 . S
C1020 H1007 0.960 . S
C1020 C1019 1.524 . S
C1021 C1018 1.403 1_655 S
C1021 C1022 1.392 . S
C1021 C1025 1.495 . S
C1022 C1021 1.392 . S
C1022 C1023 1.385 . S
C1022 C1024 1.478 . S
C1023 H1017 0.930 . S
C1023 C1019 1.400 1_655 S
C1023 C1022 1.385 . S
C1024 C1022 1.478 . S
C1024 C1026 1.381 . S
C1024 C1030 1.383 . S
C1025 C1021 1.495 . S
C1025 H1031 0.959 . S
C1025 H1032 0.961 . S
C1025 H1033 0.960 . S
C1026 C1024 1.381 . S
C1026 C1027 1.394 . S
C1026 H1034 0.930 . S
C1027 C1026 1.394 . S
C1027 C1028 1.383 . S
C1027 H1035 0.929 . S
C1028 C1027 1.383 . S
C1028 C1029 1.377 . S
C1029 H1013 0.930 . S
C1029 C1028 1.377 . S
C1029 C1030 1.379 . S
C1030 H1014 0.931 . S
C1030 C1024 1.383 . S
C1030 C1029 1.379 . S
H1031 C1025 0.959 . S
H1032 C1025 0.961 . S
H1033 C1025 0.960 . S
H1034 C1026 0.930 . S
H1035 C1027 0.929 . S
H1036 C1044 0.929 . S
H1037 C1046 0.930 . S
H1038 C1048 0.930 . S
H1039 C1051 0.929 . S
H1040 C1054 0.930 . S
H1041 C1056 0.960 . S
H1042 C1056 0.960 . S
H1043 C1056 0.960 . S
C1044 H1036 0.929 . S
C1044 C1045 1.377 . S
C1044 C1046 1.384 . S
C1045 C1044 1.377 . S
C1045 C1051 1.390 . S
C1046 H1037 0.930 . S
C1046 C1044 1.384 . S
C1046 C1047 1.372 . S
C1047 C1046 1.372 . S
C1047 C1048 1.400 . S
C1047 C1052 1.490 . S
C1048 H1038 0.930 . S
C1048 C1047 1.400 . S
C1048 C1051 1.386 . S
H1049 C1065 0.930 . S
H1050 C1066 0.931 . S
C1051 H1039 0.929 . S
C1051 C1045 1.390 . S
C1051 C1048 1.386 . S
C1052 C1047 1.490 . S
C1052 C1054 1.395 . S
C1052 C1055 1.403 . S
H1053 C1059 0.930 . S
C1054 H1040 0.930 . S
C1054 C1052 1.395 . S
C1054 C1057 1.403 . S
C1055 C1052 1.403 . S
C1055 C1056 1.524 . S
C1055 C1059 1.400 . S
C1056 H1041 0.960 . S
C1056 H1042 0.960 . S
C1056 H1043 0.960 . S
C1056 C1055 1.524 . S
C1057 C1054 1.403 . S
C1057 C1058 1.392 . S
C1057 C1061 1.495 . S
C1058 C1057 1.392 . S
C1058 C1059 1.385 . S
C1058 C1060 1.478 . S
C1059 H1053 0.930 . S
C1059 C1055 1.400 . S
C1059 C1058 1.385 . S
C1060 C1058 1.478 . S
C1060 C1062 1.381 . S
C1060 C1066 1.383 . S
C1061 C1057 1.495 . S
C1061 H1067 0.959 . S
C1061 H1068 0.961 . S
C1061 H1069 0.960 . S
C1062 C1060 1.381 . S
C1062 C1063 1.394 . S
C1062 H1070 0.930 . S
C1063 C1062 1.394 . S
C1063 C1064 1.383 . S
C1063 H1071 0.929 . S
C1064 C1063 1.383 . S
C1064 C1065 1.377 . S
C1065 H1049 0.930 . S
C1065 C1064 1.377 . S
C1065 C1066 1.379 . S
C1066 H1050 0.931 . S
C1066 C1060 1.383 . S
C1066 C1065 1.379 . S
H1067 C1061 0.959 . S
H1068 C1061 0.961 . S
H1069 C1061 0.960 . S
H1070 C1062 0.930 . S
H1071 C1063 0.929 . S
H1072 C1080 0.929 . S
H1073 C1082 0.930 . S
H1074 C1084 0.930 . S
H1075 C1087 0.929 . S
H1076 C1090 0.930 . S
H1077 C1092 0.960 . S
H1078 C1092 0.960 . S
H1079 C1092 0.960 . S
C1080 H1072 0.929 . S
C1080 C1081 1.377 . S
C1080 C1082 1.384 . S
C1081 C1080 1.377 . S
C1081 C1087 1.390 . S
C1082 H1073 0.930 . S
C1082 C1080 1.384 . S
C1082 C1083 1.372 . S
C1083 C1082 1.372 . S
C1083 C1084 1.400 . S
C1083 C1088 1.490 . S
C1084 H1074 0.930 . S
C1084 C1083 1.400 . S
C1084 C1087 1.386 . S
H1085 C1101 0.930 . S
H1086 C1102 0.931 . S
C1087 H1075 0.929 . S
C1087 C1081 1.390 . S
C1087 C1084 1.386 . S
C1088 C1083 1.490 . S
C1088 C1090 1.395 . S
C1088 C1091 1.403 . S
H1089 C1095 0.930 . S
C1090 H1076 0.930 . S
C1090 C1088 1.395 . S
C1090 C1093 1.403 . S
C1091 C1088 1.403 . S
C1091 C1092 1.524 . S
C1091 C1095 1.400 . S
C1092 H1077 0.960 . S
C1092 H1078 0.960 . S
C1092 H1079 0.960 . S
C1092 C1091 1.524 . S
C1093 C1090 1.403 . S
C1093 C1094 1.392 . S
C1093 C1097 1.495 . S
C1094 C1093 1.392 . S
C1094 C1095 1.385 . S
C1094 C1096 1.478 . S
C1095 H1089 0.930 . S
C1095 C1091 1.400 . S
C1095 C1094 1.385 . S
C1096 C1094 1.478 . S
C1096 C1098 1.381 . S
C1096 C1102 1.383 . S
C1097 C1093 1.495 . S
C1097 H1103 0.959 . S
C1097 H1104 0.961 . S
C1097 H1105 0.960 . S
C1098 C1096 1.381 . S
C1098 C1099 1.394 . S
C1098 H1106 0.930 . S
C1099 C1098 1.394 . S
C1099 C1100 1.383 . S
C1099 H1107 0.929 . S
C1100 C1099 1.383 . S
C1100 C1101 1.377 . S
C1101 H1085 0.930 . S
C1101 C1100 1.377 . S
C1101 C1102 1.379 . S
C1102 H1086 0.931 . S
C1102 C1096 1.383 . S
C1102 C1101 1.379 . S
H1103 C1097 0.959 . S
H1104 C1097 0.961 . S
H1105 C1097 0.960 . S
H1106 C1098 0.930 . S
H1107 C1099 0.929 . S
H1108 C1116 0.929 . S
H1109 C1118 0.930 . S
H1110 C1120 0.930 . S
H1111 C1123 0.929 . S
H1112 C1126 0.930 . S
H1113 C1128 0.960 . S
H1114 C1128 0.960 . S
H1115 C1128 0.960 . S
C1116 H1108 0.929 . S
C1116 C1117 1.377 . S
C1116 C1118 1.384 . S
C1117 C1116 1.377 . S
C1117 C1123 1.390 . S
C1118 H1109 0.930 . S
C1118 C1116 1.384 . S
C1118 C1119 1.372 . S
C1119 C1118 1.372 . S
C1119 C1120 1.400 . S
C1119 C1124 1.490 . S
C1120 H1110 0.930 . S
C1120 C1119 1.400 . S
C1120 C1123 1.386 . S
H1121 C1137 0.930 . S
H1122 C1138 0.931 . S
C1123 H1111 0.929 . S
C1123 C1117 1.390 . S
C1123 C1120 1.386 . S
C1124 C1119 1.490 . S
C1124 C1126 1.395 . S
C1124 C1127 1.403 . S
H1125 C1131 0.930 . S
C1126 H1112 0.930 . S
C1126 C1124 1.395 . S
C1126 C1129 1.403 . S
C1127 C1124 1.403 . S
C1127 C1128 1.524 . S
C1127 C1131 1.400 . S
C1128 H1113 0.960 . S
C1128 H1114 0.960 . S
C1128 H1115 0.960 . S
C1128 C1127 1.524 . S
C1129 C1126 1.403 . S
C1129 C1130 1.392 . S
C1129 C1133 1.495 . S
C1130 C1129 1.392 . S
C1130 C1131 1.385 . S
C1130 C1132 1.478 . S
C1131 H1125 0.930 . S
C1131 C1127 1.400 . S
C1131 C1130 1.385 . S
C1132 C1130 1.478 . S
C1132 C1134 1.381 . S
C1132 C1138 1.383 . S
C1133 C1129 1.495 . S
C1133 H1139 0.959 . S
C1133 H1140 0.961 . S
C1133 H1141 0.960 . S
C1134 C1132 1.381 . S
C1134 C1135 1.394 . S
C1134 H1142 0.930 . S
C1135 C1134 1.394 . S
C1135 C1136 1.383 . S
C1135 H1143 0.929 . S
C1136 C1135 1.383 . S
C1136 C1137 1.377 . S
C1137 H1121 0.930 . S
C1137 C1136 1.377 . S
C1137 C1138 1.379 . S
C1138 H1122 0.931 . S
C1138 C1132 1.383 . S
C1138 C1137 1.379 . S
H1139 C1133 0.959 . S
H1140 C1133 0.961 . S
H1141 C1133 0.960 . S
H1142 C1134 0.930 . S
H1143 C1135 0.929 . S
H1144 C1152 0.929 . S
H1145 C1154 0.930 . S
H1146 C1156 0.930 . S
H1147 C1159 0.929 . S
H1148 C1162 0.930 . S
H1149 C1164 0.960 . S
H1150 C1164 0.960 . S
H1151 C1164 0.960 . S
C1152 H1144 0.929 . S
C1152 C1153 1.377 . S
C1152 C1154 1.384 . S
C1153 C1152 1.377 . S
C1153 C1159 1.390 . S
C1154 H1145 0.930 . S
C1154 C1152 1.384 . S
C1154 C1155 1.372 . S
C1155 C1154 1.372 . S
C1155 C1156 1.400 . S
C1155 C1160 1.490 . S
C1156 H1146 0.930 . S
C1156 C1155 1.400 . S
C1156 C1159 1.386 . S
H1157 C1173 0.930 . S
H1158 C1174 0.931 . S
C1159 H1147 0.929 . S
C1159 C1153 1.390 . S
C1159 C1156 1.386 . S
C1160 C1155 1.490 . S
C1160 C1162 1.395 . S
C1160 C1163 1.403 . S
H1161 C1167 0.930 . S
C1162 H1148 0.930 . S
C1162 C1160 1.395 . S
C1162 C1165 1.403 . S
C1163 C1160 1.403 . S
C1163 C1164 1.524 . S
C1163 C1167 1.400 . S
C1164 H1149 0.960 . S
C1164 H1150 0.960 . S
C1164 H1151 0.960 . S
C1164 C1163 1.524 . S
C1165 C1162 1.403 . S
C1165 C1166 1.392 . S
C1165 C1169 1.495 . S
C1166 C1165 1.392 . S
C1166 C1167 1.385 . S
C1166 C1168 1.478 . S
C1167 H1161 0.930 . S
C1167 C1163 1.400 . S
C1167 C1166 1.385 . S
C1168 C1166 1.478 . S
C1168 C1170 1.381 . S
C1168 C1174 1.383 . S
C1169 C1165 1.495 . S
C1169 H1175 0.959 . S
C1169 H1176 0.961 . S
C1169 H1177 0.960 . S
C1170 C1168 1.381 . S
C1170 C1171 1.394 . S
C1170 H1178 0.930 . S
C1171 C1170 1.394 . S
C1171 C1172 1.383 . S
C1171 H1179 0.929 . S
C1172 C1171 1.383 . S
C1172 C1173 1.377 . S
C1173 H1157 0.930 . S
C1173 C1172 1.377 . S
C1173 C1174 1.379 . S
C1174 H1158 0.931 . S
C1174 C1168 1.383 . S
C1174 C1173 1.379 . S
H1175 C1169 0.959 . S
H1176 C1169 0.961 . S
H1177 C1169 0.960 . S
H1178 C1170 0.930 . S
H1179 C1171 0.929 . S
H1180 C1188 0.929 . S
H1181 C1190 0.930 . S
H1182 C1192 0.930 . S
H1183 C1195 0.929 . S
H1184 C1198 0.930 . S
H1185 C1200 0.960 . S
H1186 C1200 0.960 . S
H1187 C1200 0.960 . S
C1188 H1180 0.929 . S
C1188 C1189 1.377 . S
C1188 C1190 1.384 . S
C1189 C1188 1.377 . S
C1189 C1195 1.390 . S
C1190 H1181 0.930 . S
C1190 C1188 1.384 . S
C1190 C1191 1.372 . S
C1191 C1190 1.372 . S
C1191 C1192 1.400 . S
C1191 C1196 1.490 . S
C1192 H1182 0.930 . S
C1192 C1191 1.400 . S
C1192 C1195 1.386 . S
H1193 C1209 0.930 . S
H1194 C1210 0.931 . S
C1195 H1183 0.929 . S
C1195 C1189 1.390 . S
C1195 C1192 1.386 . S
C1196 C1191 1.490 . S
C1196 C1198 1.395 . S
C1196 C1199 1.403 . S
H1197 C1203 0.930 . S
C1198 H1184 0.930 . S
C1198 C1196 1.395 . S
C1198 C1201 1.403 . S
C1199 C1196 1.403 . S
C1199 C1200 1.524 . S
C1199 C1203 1.400 . S
C1200 H1185 0.960 . S
C1200 H1186 0.960 . S
C1200 H1187 0.960 . S
C1200 C1199 1.524 . S
C1201 C1198 1.403 . S
C1201 C1202 1.392 . S
C1201 C1205 1.495 . S
C1202 C1201 1.392 . S
C1202 C1203 1.385 . S
C1202 C1204 1.478 . S
C1203 H1197 0.930 . S
C1203 C1199 1.400 . S
C1203 C1202 1.385 . S
C1204 C1202 1.478 . S
C1204 C1206 1.381 . S
C1204 C1210 1.383 . S
C1205 C1201 1.495 . S
C1205 H1211 0.959 . S
C1205 H1212 0.961 . S
C1205 H1213 0.960 . S
C1206 C1204 1.381 . S
C1206 C1207 1.394 . S
C1206 H1214 0.930 . S
C1207 C1206 1.394 . S
C1207 C1208 1.383 . S
C1207 H1215 0.929 . S
C1208 C1207 1.383 . S
C1208 C1209 1.377 . S
C1209 H1193 0.930 . S
C1209 C1208 1.377 . S
C1209 C1210 1.379 . S
C1210 H1194 0.931 . S
C1210 C1204 1.383 . S
C1210 C1209 1.379 . S
H1211 C1205 0.959 . S
H1212 C1205 0.961 . S
H1213 C1205 0.960 . S
H1214 C1206 0.930 . S
H1215 C1207 0.929 . S
H1216 C1224 0.929 . S
H1217 C1226 0.930 . S
H1218 C1228 0.930 . S
H1219 C1231 0.929 . S
H1220 C1234 0.930 . S
H1221 C1236 0.960 . S
H1222 C1236 0.960 . S
H1223 C1236 0.960 . S
C1224 H1216 0.929 . S
C1224 C1225 1.377 . S
C1224 C1226 1.384 . S
C1225 C1224 1.377 . S
C1225 C1231 1.390 . S
C1226 H1217 0.930 . S
C1226 C1224 1.384 . S
C1226 C1227 1.372 . S
C1227 C1226 1.372 . S
C1227 C1228 1.400 . S
C1227 C1232 1.490 . S
C1228 H1218 0.930 . S
C1228 C1227 1.400 . S
C1228 C1231 1.386 . S
H1229 C1245 0.930 . S
H1230 C1246 0.931 . S
C1231 H1219 0.929 . S
C1231 C1225 1.390 . S
C1231 C1228 1.386 . S
C1232 C1227 1.490 . S
C1232 C1234 1.395 . S
C1232 C1235 1.403 . S
H1233 C1239 0.930 . S
C1234 H1220 0.930 . S
C1234 C1232 1.395 . S
C1234 C1237 1.403 . S
C1235 C1232 1.403 . S
C1235 C1236 1.524 . S
C1235 C1239 1.400 . S
C1236 H1221 0.960 . S
C1236 H1222 0.960 . S
C1236 H1223 0.960 . S
C1236 C1235 1.524 . S
C1237 C1234 1.403 . S
C1237 C1238 1.392 . S
C1237 C1241 1.495 . S
C1238 C1237 1.392 . S
C1238 C1239 1.385 . S
C1238 C1240 1.478 . S
C1239 H1233 0.930 . S
C1239 C1235 1.400 . S
C1239 C1238 1.385 . S
C1240 C1238 1.478 . S
C1240 C1242 1.381 . S
C1240 C1246 1.383 . S
C1241 C1237 1.495 . S
C1241 H1247 0.959 . S
C1241 H1248 0.961 . S
C1241 H1249 0.960 . S
C1242 C1240 1.381 . S
C1242 C1243 1.394 . S
C1242 H1250 0.930 . S
C1243 C1242 1.394 . S
C1243 C1244 1.383 . S
C1243 H1251 0.929 . S
C1244 C1243 1.383 . S
C1244 C1245 1.377 . S
C1245 H1229 0.930 . S
C1245 C1244 1.377 . S
C1245 C1246 1.379 . S
C1246 H1230 0.931 . S
C1246 C1240 1.383 . S
C1246 C1245 1.379 . S
H1247 C1241 0.959 . S
H1248 C1241 0.961 . S
H1249 C1241 0.960 . S
H1250 C1242 0.930 . S
H1251 C1243 0.929 . S
H1252 C1260 0.929 . S
H1253 C1262 0.930 . S
H1254 C1264 0.930 . S
H1255 C1267 0.929 . S
H1256 C1270 0.930 . S
H1257 C1272 0.960 . S
H1258 C1272 0.960 . S
H1259 C1272 0.960 . S
C1260 H1252 0.929 . S
C1260 C1261 1.377 . S
C1260 C1262 1.384 . S
C1261 C1260 1.377 . S
C1261 C1267 1.390 . S
C1262 H1253 0.930 . S
C1262 C1260 1.384 . S
C1262 C1263 1.372 . S
C1263 C1262 1.372 . S
C1263 C1264 1.400 . S
C1263 C1268 1.490 . S
C1264 H1254 0.930 . S
C1264 C1263 1.400 . S
C1264 C1267 1.386 . S
H1265 C1281 0.930 . S
H1266 C1282 0.931 . S
C1267 H1255 0.929 . S
C1267 C1261 1.390 . S
C1267 C1264 1.386 . S
C1268 C1263 1.490 . S
C1268 C1270 1.395 . S
C1268 C1271 1.403 . S
H1269 C1275 0.930 . S
C1270 H1256 0.930 . S
C1270 C1268 1.395 . S
C1270 C1273 1.403 . S
C1271 C1268 1.403 . S
C1271 C1272 1.524 . S
C1271 C1275 1.400 . S
C1272 H1257 0.960 . S
C1272 H1258 0.960 . S
C1272 H1259 0.960 . S
C1272 C1271 1.524 . S
C1273 C1270 1.403 . S
C1273 C1274 1.392 . S
C1273 C1277 1.495 . S
C1274 C1273 1.392 . S
C1274 C1275 1.385 . S
C1274 C1276 1.478 . S
C1275 H1269 0.930 . S
C1275 C1271 1.400 . S
C1275 C1274 1.385 . S
C1276 C1274 1.478 . S
C1276 C1278 1.381 . S
C1276 C1282 1.383 . S
C1277 C1273 1.495 . S
C1277 H1283 0.959 . S
C1277 H1284 0.961 . S
C1277 H1285 0.960 . S
C1278 C1276 1.381 . S
C1278 C1279 1.394 . S
C1278 H1286 0.930 . S
C1279 C1278 1.394 . S
C1279 C1280 1.383 . S
C1279 H1287 0.929 . S
C1280 C1279 1.383 . S
C1280 C1281 1.377 . S
C1281 H1265 0.930 . S
C1281 C1280 1.377 . S
C1281 C1282 1.379 . S
C1282 H1266 0.931 . S
C1282 C1276 1.383 . S
C1282 C1281 1.379 . S
H1283 C1277 0.959 . S
H1284 C1277 0.961 . S
H1285 C1277 0.960 . S
H1286 C1278 0.930 . S
H1287 C1279 0.929 . S
H1288 C1296 0.929 . S
H1289 C1298 0.930 . S
H1290 C1300 0.930 . S
H1291 C1303 0.929 . S
H1292 C1306 0.930 . S
H1293 C1308 0.960 . S
H1294 C1308 0.960 . S
H1295 C1308 0.960 . S
C1296 H1288 0.929 . S
C1296 C1297 1.377 . S
C1296 C1298 1.384 . S
C1297 C1296 1.377 . S
C1297 C1303 1.390 . S
C1298 H1289 0.930 . S
C1298 C1296 1.384 . S
C1298 C1299 1.372 . S
C1299 C1298 1.372 . S
C1299 C1300 1.400 . S
C1299 C1304 1.490 . S
C1300 H1290 0.930 . S
C1300 C1299 1.400 . S
C1300 C1303 1.386 . S
H1301 C1317 0.930 . S
H1302 C1318 0.931 . S
C1303 H1291 0.929 . S
C1303 C1297 1.390 . S
C1303 C1300 1.386 . S
C1304 C1299 1.490 . S
C1304 C1306 1.395 . S
C1304 C1307 1.403 . S
H1305 C1311 0.930 . S
C1306 H1292 0.930 . S
C1306 C1304 1.395 . S
C1306 C1309 1.403 . S
C1307 C1304 1.403 . S
C1307 C1308 1.524 . S
C1307 C1311 1.400 . S
C1308 H1293 0.960 . S
C1308 H1294 0.960 . S
C1308 H1295 0.960 . S
C1308 C1307 1.524 . S
C1309 C1306 1.403 . S
C1309 C1310 1.392 . S
C1309 C1313 1.495 . S
C1310 C1309 1.392 . S
C1310 C1311 1.385 . S
C1310 C1312 1.478 . S
C1311 H1305 0.930 . S
C1311 C1307 1.400 . S
C1311 C1310 1.385 . S
C1312 C1310 1.478 . S
C1312 C1314 1.381 . S
C1312 C1318 1.383 . S
C1313 C1309 1.495 . S
C1313 H1319 0.959 . S
C1313 H1320 0.961 . S
C1313 H1321 0.960 . S
C1314 C1312 1.381 . S
C1314 C1315 1.394 . S
C1314 H1322 0.930 . S
C1315 C1314 1.394 . S
C1315 C1316 1.383 . S
C1315 H1323 0.929 . S
C1316 C1315 1.383 . S
C1316 C1317 1.377 . S
C1317 H1301 0.930 . S
C1317 C1316 1.377 . S
C1317 C1318 1.379 . S
C1318 H1302 0.931 . S
C1318 C1312 1.383 . S
C1318 C1317 1.379 . S
H1319 C1313 0.959 . S
H1320 C1313 0.961 . S
H1321 C1313 0.960 . S
H1322 C1314 0.930 . S
H1323 C1315 0.929 . S
H1324 C1332 0.929 . S
H1325 C1334 0.930 . S
H1326 C1336 0.930 . S
H1327 C1339 0.929 . S
H1328 C1342 0.930 . S
H1329 C1344 0.960 . S
H1330 C1344 0.960 . S
H1331 C1344 0.960 . S
C1332 H1324 0.929 . S
C1332 C1333 1.377 . S
C1332 C1334 1.384 . S
C1333 C1332 1.377 . S
C1333 C1339 1.390 . S
C1334 H1325 0.930 . S
C1334 C1332 1.384 . S
C1334 C1335 1.372 . S
C1335 C1334 1.372 . S
C1335 C1336 1.400 . S
C1335 C1340 1.490 . S
C1336 H1326 0.930 . S
C1336 C1335 1.400 . S
C1336 C1339 1.386 . S
H1337 C1353 0.930 . S
H1338 C1354 0.931 . S
C1339 H1327 0.929 . S
C1339 C1333 1.390 . S
C1339 C1336 1.386 . S
C1340 C1335 1.490 . S
C1340 C1342 1.395 . S
C1340 C1343 1.403 . S
H1341 C1347 0.930 . S
C1342 H1328 0.930 . S
C1342 C1340 1.395 . S
C1342 C1345 1.403 . S
C1343 C1340 1.403 . S
C1343 C1344 1.524 . S
C1343 C1347 1.400 . S
C1344 H1329 0.960 . S
C1344 H1330 0.960 . S
C1344 H1331 0.960 . S
C1344 C1343 1.524 . S
C1345 C1342 1.403 . S
C1345 C1346 1.392 . S
C1345 C1349 1.495 . S
C1346 C1345 1.392 . S
C1346 C1347 1.385 . S
C1346 C1348 1.478 . S
C1347 H1341 0.930 . S
C1347 C1343 1.400 . S
C1347 C1346 1.385 . S
C1348 C1346 1.478 . S
C1348 C1350 1.381 . S
C1348 C1354 1.383 . S
C1349 C1345 1.495 . S
C1349 H1355 0.959 . S
C1349 H1356 0.961 . S
C1349 H1357 0.960 . S
C1350 C1348 1.381 . S
C1350 C1351 1.394 . S
C1350 H1358 0.930 . S
C1351 C1350 1.394 . S
C1351 C1352 1.383 . S
C1351 H1359 0.929 . S
C1352 C1351 1.383 . S
C1352 C1353 1.377 . S
C1353 H1337 0.930 . S
C1353 C1352 1.377 . S
C1353 C1354 1.379 . S
C1354 H1338 0.931 . S
C1354 C1348 1.383 . S
C1354 C1353 1.379 . S
H1355 C1349 0.959 . S
H1356 C1349 0.961 . S
H1357 C1349 0.960 . S
H1358 C1350 0.930 . S
H1359 C1351 0.929 . S
C217 C0 1.381 . S
C236 C164 1.382 . S
C253 C177 1.389 . S
C272 C13 1.360 . S
C289 C26 1.382 . S
C308 C190 1.381 . S
C325 C203 1.383 . S
C344 C39 1.394 . S
C361 C104 1.375 . S
C380 C60 1.392 . S
C397 C73 1.381 . S
C416 C117 1.390 . S
C433 C130 1.380 . S
C452 C86 1.386 . S
C469 C99 1.381 . S
C488 C143 1.398 . S
C505 C5 1.517 . S
C524 C31 1.538 . S
C541 C18 1.517 . S
C560 C44 1.523 . S
C577 C57 1.320 . S
C596 C83 1.304 . S
C613 C70 1.322 . S
C632 C96 1.326 . S
C649 C135 1.525 . S
C668 C109 1.507 . S
C685 C122 1.517 . S
C704 C148 1.523 . S
C721 C187 1.316 . S
C740 C161 1.342 . S
C757 C174 1.315 . S
C776 C200 1.333 . S
C793 C88 1.451 . S
C812 C10 1.456 . S
C829 C101 1.451 . S
C848 C23 1.444 . S
C865 C36 1.447 . S
C884 C62 1.438 . S
C901 C49 1.446 . S
C920 C75 1.440 . S
C937 C192 1.446 . S
C956 C114 1.438 . S
C973 C127 1.449 . S
C992 C205 1.456 . S
C1009 C166 1.446 . S
C1028 C140 1.438 . S
C1045 C153 1.449 . S
C1064 C179 1.433 . S
C1081 C8 1.561 . S
C1100 C47 1.569 . S
C1117 C34 1.557 . S
C1136 C21 1.560 . S
C1153 C52 1.204 . S
C1172 C91 1.187 . S
C1189 C65 1.210 . S
C1208 C78 1.193 . S
C1225 C151 1.557 . S
C1244 C112 1.556 . S
C1261 C125 1.563 . S
C1280 C138 1.543 . S
C1297 C195 1.207 . S
C1316 C156 1.183 . S
C1333 C169 1.210 . S
C1352 C182 1.229 . S
