# Generated by pormake.
# Topology sxa, (6)-cn, num edge types: 1
# Building blocks:
#     Node 0, Type 0, BuildingBlock: UKALOJ_clean_sbu_0, # of connection points: 6
#     Node 1, Type 0, BuildingBlock: UKALOJ_clean_sbu_0, # of connection points: 6
#     Node 2, Type 0, BuildingBlock: UKALOJ_clean_sbu_0, # of connection points: 6
#     Node 3, Type 0, BuildingBlock: UKALOJ_clean_sbu_0, # of connection points: 6
#     Edge 4, Type (0, 0), BuildingBlock: ZUJKAS_clean_linker_0, # of connection points: 2
#     Edge 5, Type (0, 0), BuildingBlock: ZUJKAS_clean_linker_0, # of connection points: 2
#     Edge 6, Type (0, 0), BuildingBlock: ZUJKAS_clean_linker_0, # of connection points: 2
#     Edge 7, Type (0, 0), BuildingBlock: ZUJKAS_clean_linker_0, # of connection points: 2
#     Edge 8, Type (0, 0), BuildingBlock: ZUJKAS_clean_linker_0, # of connection points: 2
#     Edge 9, Type (0, 0), BuildingBlock: ZUJKAS_clean_linker_0, # of connection points: 2
#     Edge 10, Type (0, 0), BuildingBlock: ZUJKAS_clean_linker_0, # of connection points: 2
#     Edge 11, Type (0, 0), BuildingBlock: ZUJKAS_clean_linker_0, # of connection points: 2
#     Edge 12, Type (0, 0), BuildingBlock: ZUJKAS_clean_linker_0, # of connection points: 2
#     Edge 13, Type (0, 0), BuildingBlock: ZUJKAS_clean_linker_0, # of connection points: 2
#     Edge 14, Type (0, 0), BuildingBlock: ZUJKAS_clean_linker_0, # of connection points: 2
#     Edge 15, Type (0, 0), BuildingBlock: ZUJKAS_clean_linker_0, # of connection points: 2
# Relax obj value: 0.150
# Max RMSD: 0.199
# Mean RMSD: 0.199
data_MOF--net-sxa--node1-UKALOJ_clean_sbu_0--edge1-ZUJKAS_clean_linker_0
_symmetry_space_group_name_H-M    P1
_symmetry_Int_Tables_number       1
_symmetry_cell_setting            triclinic
loop_
_symmetry_equiv_pos_as_xyz
'x, y, z'
_cell_length_a     31.167855
_cell_length_b     46.239343
_cell_length_c     19.317559
_cell_angle_alpha  89.899025
_cell_angle_beta   89.923641
_cell_angle_gamma 90.049039
loop_
_atom_site_label
_atom_site_type_symbol
_atom_site_fract_x
_atom_site_fract_y
_atom_site_fract_z
_atom_type_partial_charge
Zn0 Zn 0.98112 0.80887 0.23235 0.0
O1 O 0.04536 0.81409 0.26771 0.0
C2 C 0.01246 0.78637 0.09857 0.0
Zn3 Zn -0.01194 0.76031 0.23393 0.0
C4 C 0.06782 0.79166 0.28009 0.0
O5 O 0.05152 0.76672 0.27059 0.0
C6 C 0.90146 0.77739 0.19146 0.0
O7 O 0.96373 0.75952 0.33705 0.0
O8 O 0.95888 0.80704 0.33557 0.0
N9 N -0.00255 0.7158 0.23335 0.0
C10 C -0.01353 0.69514 0.18697 0.0
C11 C 0.02609 0.67507 0.26276 0.0
N12 N 0.02191 0.70314 0.28045 0.0
N13 N 0.00407 0.66934 0.20432 0.0
C14 C -0.00989 0.87441 0.19019 0.0
C15 C 0.93559 0.89312 0.23907 0.0
N16 N 0.97102 0.85328 0.2278 0.0
N17 N 0.93727 0.86509 0.25829 0.0
N18 N 0.96815 0.89962 0.19567 0.0
H19 H 0.05096 0.85315 0.17479 0.0
H20 H 0.05017 0.89107 0.15167 0.0
H21 H 0.02447 0.86476 0.09719 0.0
C22 C 0.03145 0.87064 0.15157 0.0
C23 C 0.96076 0.70057 0.12266 0.0
H24 H 0.92716 0.69362 0.13189 0.0
H25 H 0.97377 0.68784 0.07875 0.0
H26 H 0.96028 0.72368 0.10839 0.0
O27 O 0.92469 0.75513 0.20004 0.0
O28 O 0.9176 0.80242 0.19937 0.0
C29 C 0.95278 0.78304 0.3666 0.0
O30 O 0.00144 0.80941 0.12926 0.0
O31 O 0.01124 0.7625 0.13108 0.0
Zn32 Zn 0.49766 0.27955 0.21747 0.0
O33 O 0.45113 0.2683 0.29374 0.0
C34 C 0.42507 0.29029 0.12591 0.0
Zn35 Zn 0.47525 0.32571 0.22479 0.0
C36 C 0.42796 0.28764 0.32219 0.0
O37 O 0.43337 0.31412 0.30592 0.0
C38 C 0.54221 0.31795 0.11896 0.0
O39 O 0.52564 0.33472 0.29684 0.0
O40 O 0.54293 0.28854 0.29454 0.0
N41 N 0.45356 0.36826 0.22498 0.0
C42 C 0.47339 0.39375 0.21152 0.0
C43 C 0.40616 0.40139 0.20651 0.0
N44 N 0.41179 0.37329 0.22266 0.0
N45 N 0.44426 0.4149 0.19877 0.0
C46 C 0.49862 0.21237 0.1909 0.0
C47 C 0.56528 0.20263 0.19547 0.0
N48 N 0.51907 0.23704 0.20909 0.0
N49 N 0.5605 0.23078 0.21225 0.0
N50 N 0.52693 0.19057 0.18122 0.0
H51 H 0.43412 0.22616 0.21596 0.0
H52 H 0.44111 0.18752 0.20635 0.0
H53 H 0.4409 0.21039 0.13167 0.0
C54 C 0.45088 0.20907 0.18644 0.0
C55 C 0.5211 0.39765 0.20799 0.0
H56 H 0.53845 0.37692 0.2122 0.0
H57 H 0.53152 0.41131 0.25199 0.0
H58 H 0.53008 0.40897 0.1594 0.0
O59 O 0.51554 0.33592 0.14313 0.0
O60 O 0.54251 0.29217 0.14193 0.0
C61 C 0.54939 0.31397 0.31744 0.0
O62 O 0.45343 0.27175 0.14093 0.0
O63 O 0.42621 0.3151 0.15406 0.0
Zn64 Zn -3e-05 0.30655 0.81812 0.0
O65 O 0.9528 0.31795 0.74261 0.0
C66 C 0.93032 0.2968 0.91733 0.0
Zn67 Zn 0.97506 0.26083 0.81359 0.0
C68 C 0.92846 0.2988 0.71598 0.0
O69 O 0.93225 0.27249 0.73459 0.0
C70 C 0.04277 0.2681 0.91809 0.0
O71 O 0.02368 0.25122 0.73801 0.0
O72 O 0.04366 0.29698 0.73917 0.0
N73 N 0.9525 0.21854 0.81555 0.0
C74 C 0.97228 0.193 0.82831 0.0
C75 C 0.90512 0.18573 0.83833 0.0
N76 N 0.91074 0.21374 0.82107 0.0
N77 N 0.94322 0.17212 0.84327 0.0
C78 C 0.00121 0.37349 0.84501 0.0
C79 C 0.0678 0.38348 0.84003 0.0
N80 N 0.02178 0.34901 0.8257 0.0
N81 N 0.06316 0.35542 0.8223 0.0
N82 N 0.02943 0.39535 0.85526 0.0
H83 H 0.93691 0.36065 0.81654 0.0
H84 H 0.9434 0.39867 0.8355 0.0
H85 H 0.94311 0.37255 0.90419 0.0
C86 C 0.9534 0.37646 0.85017 0.0
C87 C 0.01994 0.18885 0.83127 0.0
H88 H 0.03762 0.20912 0.8208 0.0
H89 H 0.02959 0.17275 0.79177 0.0
H90 H 0.0291 0.18002 0.88258 0.0
O91 O 0.01604 0.25045 0.89298 0.0
O92 O 0.04514 0.29366 0.89385 0.0
C93 C 0.04787 0.27147 0.71551 0.0
O94 O 0.95786 0.3149 0.89661 0.0
O95 O 0.92819 0.27203 0.88901 0.0
Zn96 Zn 0.48757 0.82541 0.80225 0.0
O97 O 0.46378 0.82616 0.69895 0.0
C98 C 0.40072 0.80705 0.84291 0.0
Zn99 Zn 0.48103 0.77678 0.80319 0.0
C100 C 0.45318 0.80269 0.66891 0.0
O101 O 0.4595 0.77863 0.6995 0.0
C102 C 0.51139 0.79936 0.93765 0.0
O103 O 0.54571 0.77269 0.76911 0.0
O104 O 0.55139 0.82014 0.76626 0.0
N105 N 0.47254 0.73215 0.80636 0.0
C106 C 0.49106 0.71137 0.84563 0.0
C107 C 0.43959 0.6915 0.79123 0.0
N108 N 0.44072 0.7196 0.77235 0.0
N109 N 0.47067 0.68573 0.83769 0.0
C110 C 0.49042 0.88944 0.85588 0.0
C111 C 0.50947 0.91319 0.76648 0.0
N112 N 0.49476 0.87018 0.80364 0.0
N113 N 0.50652 0.88509 0.74815 0.0
N114 N 0.49982 0.91654 0.83405 0.0
H115 H 0.45682 0.90047 0.94996 0.0
H116 H 0.50232 0.87698 0.96075 0.0
H117 H 0.45316 0.86289 0.92586 0.0
C118 C 0.47451 0.882 0.92703 0.0
C119 C 0.53056 0.71576 0.88846 0.0
H120 H 0.55034 0.73366 0.86742 0.0
H121 H 0.54991 0.69564 0.89005 0.0
H122 H 0.52111 0.72118 0.94214 0.0
O123 O 0.50051 0.77631 0.90683 0.0
O124 O 0.51016 0.82324 0.90521 0.0
C125 C 0.568 0.79527 0.75703 0.0
O126 O 0.42387 0.82944 0.83533 0.0
O127 O 0.4171 0.78211 0.83498 0.0
H128 H 0.06775 0.44534 0.81731 0.0
H129 H 0.06151 0.49265 0.8744 0.0
H130 H 0.97097 0.45645 1.01961 0.0
H131 H 0.97841 0.4092 0.96457 0.0
H132 H -0.00888 0.52909 0.89872 0.0
H133 H 0.06219 0.49118 0.14576 0.0
H134 H 0.0649 0.47027 0.0671 0.0
H135 H 0.01663 0.47043 0.11819 0.0
C136 C 0.04629 0.44763 0.86107 0.0
C137 C 0.02282 0.42365 0.88525 0.0
C138 C 0.04268 0.47463 0.89361 0.0
C139 C 0.01603 0.47813 0.95177 0.0
C140 C -0.00794 0.45431 0.97531 0.0
H141 H 0.93694 0.64199 0.14204 0.0
H142 H 0.93909 0.59612 0.07854 0.0
C143 C -0.00432 0.42735 0.94284 0.0
C144 C 0.01404 0.50643 0.98875 0.0
H145 H 0.03223 0.5383 0.14569 0.0
C146 C 0.00014 0.53112 0.9527 0.0
C147 C 0.02636 0.50923 0.059 0.0
C148 C 0.04376 0.48396 0.09973 0.0
C149 C -0.00233 0.55835 0.98515 0.0
C150 C 0.00883 0.56097 0.05596 0.0
C151 C 0.02324 0.53633 0.09168 0.0
C152 C 0.00714 0.58916 0.09357 0.0
C153 C 0.98404 0.5842 0.94282 0.0
C154 C 0.04429 0.60029 0.12493 0.0
C155 C 0.04305 0.62649 0.16112 0.0
C156 C 0.00469 0.64231 0.16672 0.0
C157 C 0.96728 0.6309 0.13652 0.0
C158 C 0.9685 0.60461 0.10034 0.0
H159 H -0.01256 0.58016 0.8864 0.0
H160 H 0.94979 0.58897 0.95355 0.0
H161 H 0.00321 0.60362 0.95651 0.0
H162 H 0.07443 0.58875 0.12102 0.0
H163 H 0.07229 0.63464 0.1842 0.0
H164 H 0.39705 0.43775 0.0957 0.0
H165 H 0.40649 0.4846 0.03878 0.0
H166 H 0.51367 0.50327 0.17217 0.0
H167 H 0.50355 0.45663 0.23081 0.0
H168 H 0.40511 0.54094 0.09939 0.0
H169 H 0.56121 0.51672 0.97223 0.0
H170 H 0.52645 0.48869 1.00565 0.0
H171 H 0.55812 0.51004 0.06389 0.0
C172 C 0.42257 0.45184 0.11318 0.0
C173 C 0.45014 0.44303 0.1669 0.0
C174 C 0.42802 0.4786 0.08039 0.0
C175 C 0.46126 0.49729 0.10024 0.0
C176 C 0.48843 0.48892 0.15478 0.0
H177 H 0.48082 0.67934 0.97643 0.0
H178 H 0.48171 0.63389 0.04191 0.0
C179 C 0.48281 0.46211 0.18801 0.0
C180 C 0.46659 0.52566 0.06434 0.0
H181 H 0.53302 0.56368 0.95605 0.0
C182 C 0.4332 0.54598 0.06843 0.0
C183 C 0.50304 0.53212 0.02328 0.0
C184 C 0.53923 0.51075 1.01527 0.0
C185 C 0.4353 0.57252 0.03278 0.0
C186 C 0.47181 0.57904 0.99199 0.0
C187 C 0.5052 0.55873 0.9877 0.0
C188 C 0.47502 0.60652 0.95189 0.0
C189 C 0.39799 0.59318 0.03762 0.0
C190 C 0.47189 0.60627 0.87936 0.0
C191 C 0.47161 0.63227 0.84181 0.0
C192 C 0.47529 0.659 0.87588 0.0
C193 C 0.47938 0.65913 0.94842 0.0
C194 C 0.47931 0.63316 0.986 0.0
H195 H 0.36931 0.58295 0.06158 0.0
H196 H 0.40737 0.61205 0.06968 0.0
H197 H 0.38919 0.60135 0.98545 0.0
H198 H 0.4684 0.58599 0.85196 0.0
H199 H 0.46797 0.63158 0.78611 0.0
H200 H 0.46928 0.96836 0.79279 0.0
H201 H 0.47264 1.01436 0.85627 0.0
H202 H 0.53729 0.97148 0.02476 0.0
H203 H 0.53462 0.92573 0.96092 0.0
H204 H 0.43926 1.0276 0.99256 0.0
H205 H 0.61622 1.04088 0.97749 0.0
H206 H 0.58714 1.0163 0.92216 0.0
H207 H 0.59788 1.00668 1.01056 0.0
C208 C 0.48413 0.96883 0.84342 0.0
C209 C 0.50096 0.94335 0.87241 0.0
C210 C 0.48596 0.99506 0.8797 0.0
C211 C 0.50543 0.99646 0.94519 0.0
C212 C 0.52239 0.97103 0.97416 0.0
H213 H 0.56171 0.14041 0.22549 0.0
H214 H 0.55451 0.09246 0.17179 0.0
C215 C 0.52033 0.94479 0.93805 0.0
C216 C 0.50787 1.02448 0.98314 0.0
H217 H 0.57835 0.07484 0.04525 0.0
C218 C 0.46965 1.03797 1.00402 0.0
C219 C 0.54754 1.03793 0.99848 0.0
C220 C 0.5896 1.02491 0.97564 0.0
C221 C 0.47001 0.06434 0.04043 0.0
C222 C 0.50969 0.07807 0.05494 0.0
C223 C 0.54792 0.06441 0.03439 0.0
C224 C 0.51231 0.10688 0.08976 0.0
C225 C 0.42783 0.07686 0.06432 0.0
C226 C 0.49141 0.1311 0.06152 0.0
C227 C 0.49525 0.15835 0.09253 0.0
C228 C 0.52025 0.1621 0.1524 0.0
C229 C 0.54168 0.138 0.1801 0.0
C230 C 0.53764 0.11066 0.14931 0.0
H231 H 0.40272 0.05989 0.06893 0.0
H232 H 0.43117 0.08783 0.11511 0.0
H233 H 0.41659 0.09297 0.02577 0.0
H234 H 0.47301 0.12913 1.01425 0.0
H235 H 0.48008 0.17669 0.06795 0.0
H236 H -0.0072 0.90842 0.0615 0.0
H237 H -0.00302 0.95453 1.00003 0.0
H238 H 0.95358 0.9988 0.18346 0.0
H239 H 0.95184 0.9528 0.24627 0.0
H240 H 0.93491 0.99085 0.96845 0.0
H241 H 0.05134 0.05022 0.13064 0.0
H242 H 0.043 1.01176 0.13913 0.0
H243 H 0.00714 1.03686 0.18082 0.0
C244 C -0.01403 0.92802 0.08976 0.0
C245 C 0.97358 0.92693 0.15984 0.0
C246 C -0.01236 0.95445 0.05407 0.0
C247 C 0.97658 0.98044 0.08726 0.0
C248 C 0.96369 0.97933 0.15701 0.0
H249 H 0.90915 0.15342 0.9631 0.0
H250 H 0.91997 0.10632 1.01915 0.0
C251 C 0.96236 0.95296 0.19283 0.0
C252 C 0.97581 1.00834 0.04791 0.0
H253 H 0.00879 0.07898 0.05317 0.0
C254 C 0.9516 1.00997 0.98659 0.0
C255 C -0.00236 1.03345 0.0711 0.0
C256 C 0.0266 1.03295 0.13361 0.0
C257 C 0.94746 1.03607 0.9495 0.0
C258 C 0.96801 0.06127 0.97413 0.0
C259 C -0.00712 0.05963 0.03452 0.0
C260 C 0.96227 0.08984 0.93973 0.0
C261 C 0.92003 1.03686 0.88527 0.0
C262 C 0.98259 0.09628 0.87651 0.0
C263 C 0.97661 0.12331 0.8446 0.0
C264 C 0.95006 0.14425 0.87529 0.0
C265 C 0.92966 0.13763 0.93832 0.0
C266 C 0.93596 0.11081 0.97046 0.0
H267 H 0.90291 1.01611 0.87645 0.0
H268 H 0.89605 0.05454 0.88918 0.0
H269 H 0.94057 1.04145 0.83956 0.0
H270 H 0.00303 0.08038 0.8519 0.0
H271 H -0.00791 0.12767 0.79552 0.0
H272 H 0.42533 0.75684 0.59193 0.0
H273 H 0.36647 0.75688 0.50872 0.0
H274 H 0.35857 0.84977 0.52236 0.0
H275 H 0.41774 0.85002 0.60526 0.0
H276 H 0.28659 0.77782 0.55225 0.0
H277 H 0.34071 0.8347 0.31407 0.0
H278 H 0.37779 0.81931 0.37581 0.0
H279 H 0.35187 0.85314 0.3939 0.0
C280 C 0.41208 0.7774 0.57563 0.0
C281 C 0.42611 0.80341 0.60578 0.0
C282 C 0.37831 0.77736 0.52812 0.0
C283 C 0.35809 0.80331 0.50932 0.0
C284 C 0.37407 0.82952 0.53529 0.0
H285 H 0.11147 0.84108 0.31585 0.0
H286 H 0.18286 0.84449 0.36859 0.0
C287 C 0.40794 0.8296 0.58286 0.0
C288 C 0.31684 0.80246 0.47103 0.0
H289 H 0.26591 0.82513 0.32405 0.0
C290 C 0.28219 0.78798 0.50208 0.0
C291 C 0.31098 0.81613 0.40619 0.0
C292 C 0.34734 0.83153 0.37007 0.0
C293 C 0.24179 0.78687 0.47035 0.0
C294 C 0.23601 0.8001 0.40494 0.0
C295 C 0.27049 0.8149 0.37405 0.0
C296 C 0.19437 0.79836 0.36798 0.0
C297 C 0.20538 0.77203 0.50793 0.0
C298 C 0.17768 0.77138 0.34863 0.0
C299 C 0.13695 0.76933 0.31893 0.0
C300 C 0.11212 0.79428 0.30744 0.0
C301 C 0.12963 0.82143 0.32437 0.0
C302 C 0.17045 0.82344 0.35432 0.0
H303 H 0.21191 0.76993 0.56425 0.0
H304 H 0.17484 0.78403 0.50099 0.0
H305 H 0.2011 0.74996 0.48658 0.0
H306 H 0.19593 0.75181 0.35754 0.0
H307 H 0.12473 0.7481 0.30591 0.0
H308 H 0.08986 0.31086 0.63608 0.0
H309 H 0.15139 0.30292 0.56082 0.0
H310 H 0.14646 0.21148 0.60445 0.0
H311 H 0.08423 0.21929 0.68069 0.0
H312 H 0.22844 0.23763 0.62403 0.0
H313 H 0.16143 0.26614 0.36802 0.0
H314 H 0.14872 0.29267 0.43255 0.0
H315 H 0.12799 0.25648 0.44103 0.0
C316 C 0.10137 0.28895 0.62905 0.0
C317 C 0.08218 0.26569 0.66438 0.0
C318 C 0.13641 0.28443 0.58555 0.0
C319 C 0.15313 0.25657 0.5763 0.0
C320 C 0.13371 0.23311 0.61045 0.0
H321 H 0.39974 0.23299 0.35469 0.0
H322 H 0.33344 0.21999 0.41604 0.0
C323 C 0.09817 0.2376 0.65373 0.0
C324 C 0.19307 0.25293 0.53557 0.0
H325 H 0.23824 0.27172 0.38083 0.0
C326 C 0.23052 0.24433 0.5703 0.0
C327 C 0.19562 0.26161 0.46544 0.0
C328 C 0.15618 0.26946 0.42437 0.0
C329 C 0.27091 0.24631 0.53817 0.0
C330 C 0.27362 0.25702 0.46981 0.0
C331 C 0.23597 0.2638 0.43362 0.0
C332 C 0.31526 0.2642 0.43733 0.0
C333 C 0.31069 0.2387 0.57859 0.0
C334 C 0.32705 0.29329 0.43004 0.0
C335 C 0.36482 0.30081 0.39557 0.0
C336 C 0.39146 0.27932 0.36725 0.0
C337 C 0.38014 0.25006 0.37639 0.0
C338 C 0.34225 0.24256 0.41117 0.0
H339 H 0.30322 0.23185 0.63242 0.0
H340 H 0.32797 0.22086 0.5522 0.0
H341 H 0.33264 0.25762 0.58034 0.0
H342 H 0.30654 0.31026 0.45002 0.0
H343 H 0.37241 0.32353 0.38933 0.0
H344 H 0.90109 0.35338 0.68103 0.0
H345 H 0.83923 0.36612 0.60858 0.0
H346 H 0.81538 0.27566 0.57059 0.0
H347 H 0.87692 0.26276 0.64189 0.0
H348 H 0.81099 0.31201 0.45057 0.0
H349 H 0.71266 0.35321 0.67067 0.0
H350 H 0.76537 0.36833 0.65855 0.0
H351 H 0.75975 0.33121 0.68415 0.0
C352 C 0.88292 0.33623 0.65659 0.0
C353 C 0.89384 0.30703 0.66742 0.0
C354 C 0.84745 0.34356 0.61568 0.0
C355 C 0.82248 0.3218 0.58506 0.0
C356 C 0.83419 0.29277 0.59398 0.0
H357 H 0.59967 0.27354 0.37941 0.0
H358 H 0.66623 0.2812 0.4426 0.0
C359 C 0.86939 0.28544 0.63484 0.0
C360 C 0.78345 0.32868 0.54465 0.0
H361 H 0.67849 0.34867 0.56286 0.0
C362 C 0.78224 0.32054 0.47477 0.0
C363 C 0.74604 0.3399 0.57638 0.0
C364 C 0.74559 0.34858 0.65165 0.0
C365 C 0.7441 0.32203 0.43662 0.0
C366 C 0.70613 0.33154 0.46949 0.0
C367 C 0.70777 0.34136 0.53807 0.0
C368 C 0.6639 0.32785 0.4359 0.0
C369 C 0.74426 0.31227 0.36212 0.0
C370 C 0.63982 0.35169 0.41332 0.0
C371 C 0.60142 0.3474 0.37694 0.0
C372 C 0.58668 0.31921 0.36311 0.0
C373 C 0.61016 0.29554 0.38868 0.0
C374 C 0.6483 0.29984 0.42469 0.0
H375 H 0.77687 0.31367 0.33905 0.0
H376 H 0.73363 0.28938 0.35963 0.0
H377 H 0.72184 0.32543 0.33046 0.0
H378 H 0.65138 0.37348 0.42193 0.0
H379 H 0.58412 0.36607 0.35774 0.0
H380 H 0.9263 0.829 0.4443 0.0
H381 H 0.86779 0.82939 0.52838 0.0
H382 H 0.85755 0.73662 0.51392 0.0
H383 H 0.91639 0.73593 0.43011 0.0
H384 H 0.78731 0.80927 0.48547 0.0
H385 H 0.84076 0.75163 0.72267 0.0
H386 H 0.87802 0.76679 0.66066 0.0
H387 H 0.85134 0.73321 0.64258 0.0
C388 C 0.9126 0.80855 0.46057 0.0
C389 C 0.92587 0.78244 0.42997 0.0
C390 C 0.87906 0.80884 0.5086 0.0
C391 C 0.85829 0.78306 0.52743 0.0
C392 C 0.8735 0.75673 0.50096 0.0
H393 H 0.61188 0.74601 0.72149 0.0
H394 H 0.68339 0.74274 0.6691 0.0
C395 C 0.90717 0.7564 0.45288 0.0
C396 C 0.81719 0.78426 0.5662 0.0
H397 H 0.76611 0.76178 0.71344 0.0
C398 C 0.7828 0.79909 0.53561 0.0
C399 C 0.81121 0.77057 0.63101 0.0
C400 C 0.84733 0.75482 0.66663 0.0
C401 C 0.74249 0.80046 0.5677 0.0
C402 C 0.73657 0.78716 0.63302 0.0
C403 C 0.77082 0.77208 0.66352 0.0
C404 C 0.6949 0.78888 0.67002 0.0
C405 C 0.7063 0.81559 0.53049 0.0
C406 C 0.67815 0.81583 0.68949 0.0
C407 C 0.63731 0.8178 0.71897 0.0
C408 C 0.61245 0.79281 0.73015 0.0
C409 C 0.63005 0.7657 0.71321 0.0
C410 C 0.67095 0.76377 0.68346 0.0
H411 H 0.71285 0.8178 0.47417 0.0
H412 H 0.67558 0.80374 0.53739 0.0
H413 H 0.70233 0.83764 0.55217 0.0
H414 H 0.69644 0.83543 0.68077 0.0
H415 H 0.625 0.83901 0.73204 0.0
H416 H 0.35177 0.8547 0.81753 0.0
H417 H 0.27343 0.85769 0.8188 0.0
H418 H 0.26617 0.76897 0.88753 0.0
H419 H 0.34432 0.76549 0.88418 0.0
H420 H 0.20816 0.78201 0.78122 0.0
H421 H 0.20215 0.86348 0.99383 0.0
H422 H 0.23195 0.87315 0.9176 0.0
H423 H 0.25078 0.84442 0.97237 0.0
C424 C 0.33346 0.83595 0.83378 0.0
C425 C 0.35407 0.80993 0.85162 0.0
C426 C 0.28877 0.83767 0.83407 0.0
C427 C 0.26418 0.81359 0.85349 0.0
C428 C 0.28471 0.78772 0.87188 0.0
H429 H 0.06199 0.74591 0.03471 0.0
H430 H 0.11239 0.75533 0.94133 0.0
C431 C 0.32929 0.78585 0.8707 0.0
C432 C 0.21705 0.81527 0.85803 0.0
H433 H 0.13801 0.84208 0.96086 0.0
C434 C 0.19251 0.79556 0.81946 0.0
C435 C 0.19676 0.83338 0.90693 0.0
C436 C 0.22162 0.85471 0.95046 0.0
C437 C 0.14868 0.79174 0.83288 0.0
C438 C 0.12937 0.80789 0.88639 0.0
C439 C 0.15294 0.82968 0.91975 0.0
C440 C 0.08914 0.79861 0.92012 0.0
C441 C 0.12407 0.7694 0.79236 0.0
C442 C 0.05772 0.81917 0.93667 0.0
C443 C 0.02923 0.81394 0.99097 0.0
C444 C 0.03207 0.78818 0.02939 0.0
C445 C 0.05949 0.76612 1.00654 0.0
C446 C 0.08806 0.77138 0.95241 0.0
H447 H 0.13624 0.76805 0.73837 0.0
H448 H 0.12866 0.74787 0.8167 0.0
H449 H 0.08921 0.77433 0.79119 0.0
H450 H 0.058 0.84028 0.91224 0.0
H451 H 0.00738 0.83097 1.00627 0.0
H452 H 0.10516 0.29899 0.98335 0.0
H453 H 0.16361 0.27912 0.05209 0.0
H454 H 0.10655 0.19422 0.04155 0.0
H455 H 0.0471 0.21404 0.97432 0.0
H456 H 0.17502 0.23509 0.17718 0.0
H457 H 0.21955 0.19786 0.91246 0.0
H458 H 0.17814 0.2249 0.91918 0.0
H459 H 0.1686 0.18906 0.95173 0.0
C460 C 0.1043 0.27631 0.99741 0.0
C461 C 0.0726 0.25785 0.97139 0.0
C462 C 0.13737 0.26503 0.03729 0.0
C463 C 0.13922 0.23522 0.05095 0.0
C464 C 0.10539 0.21725 0.03129 0.0
H465 H 0.41445 0.24146 0.04876 0.0
H466 H 0.34695 0.21457 0.04216 0.0
C467 C 0.07192 0.2286 0.99209 0.0
C468 C 0.18099 0.22325 0.06985 0.0
H469 H 0.27455 0.21891 0.98039 0.0
C470 C 0.19706 0.23 0.13543 0.0
C471 C 0.20944 0.21554 1.01592 0.0
C472 C 0.19328 0.20621 0.94581 0.0
C473 C 0.24101 0.23446 0.14466 0.0
C474 C 0.26826 0.23313 0.08609 0.0
C475 C 0.25317 0.22098 0.02446 0.0
C476 C 0.30864 0.24952 0.08369 0.0
C477 C 0.25713 0.24326 0.2152 0.0
C478 C 0.30854 0.27885 0.10244 0.0
C479 C 0.34691 0.29399 0.10747 0.0
C480 C 0.3857 0.27997 0.09281 0.0
C481 C 0.38496 0.25216 0.0635 0.0
C482 C 0.34661 0.23677 0.06 0.0
H483 H 0.23949 0.23141 0.25646 0.0
H484 H 0.29202 0.23904 0.22099 0.0
H485 H 0.25108 0.26667 0.22317 0.0
H486 H 0.27896 0.28966 0.11648 0.0
H487 H 0.34638 0.31565 0.12878 0.0
H488 H 0.60864 0.28684 0.06618 0.0
H489 H 0.67889 0.30668 0.038 0.0
H490 H 0.62879 0.39335 0.05299 0.0
H491 H 0.55757 0.37367 0.07828 0.0
H492 H 0.70434 0.37243 0.94031 0.0
H493 H 0.72841 0.35717 0.22149 0.0
H494 H 0.69717 0.32862 0.18357 0.0
H495 H 0.67656 0.36497 0.18377 0.0
C496 C 0.612 0.31005 0.06071 0.0
C497 C 0.57821 0.32877 0.07729 0.0
C498 C 0.65212 0.32136 0.04497 0.0
C499 C 0.65871 0.35135 0.04595 0.0
C500 C 0.62402 0.37014 0.05335 0.0
H501 H 0.9358 0.34273 1.00467 0.0
H502 H 0.87451 0.36865 0.05391 0.0
C503 C 0.58355 0.3588 0.06797 0.0
C504 C 0.70287 0.36181 0.04875 0.0
H505 H 0.78952 0.34419 0.14666 0.0
C506 C 0.72335 0.36802 0.98613 0.0
C507 C 0.72724 0.35665 0.10918 0.0
C508 C 0.70614 0.35177 0.17854 0.0
C509 C 0.76764 0.36422 0.98 0.0
C510 C 0.79064 0.3534 0.03744 0.0
C511 C 0.77133 0.35203 0.10262 0.0
C512 C 0.82869 0.33574 0.02528 0.0
C513 C 0.78848 0.36768 0.90996 0.0
C514 C 0.8229 0.30802 0.99732 0.0
C515 C 0.85738 0.29347 0.96791 0.0
C516 C 0.8978 0.30666 0.96662 0.0
C517 C 0.90443 0.33267 1.00301 0.0
C518 C 0.86976 0.34741 0.03158 0.0
H519 H 0.77022 0.38294 0.87673 0.0
H520 H 0.82199 0.37556 0.91527 0.0
H521 H 0.78938 0.34637 0.88361 0.0
H522 H 0.79105 0.29875 0.99308 0.0
H523 H 0.85156 0.27333 0.94094 0.0
H524 H 0.85229 0.72946 0.21423 0.0
H525 H 0.7739 0.72646 0.21148 0.0
H526 H 0.76743 0.81542 0.14447 0.0
H527 H 0.8455 0.81889 0.14918 0.0
H528 H 0.70956 0.80228 0.25094 0.0
H529 H 0.70204 0.72155 0.03689 0.0
H530 H 0.73195 0.71155 0.11265 0.0
H531 H 0.75095 0.74036 0.05814 0.0
C532 C 0.83413 0.74825 0.198 0.0
C533 C 0.85493 0.77436 0.18128 0.0
C534 C 0.78942 0.74652 0.19681 0.0
C535 C 0.76503 0.77069 0.17765 0.0
C536 C 0.78579 0.7966 0.15995 0.0
H537 H 0.56235 0.83949 0.99969 0.0
H538 H 0.61367 0.82971 0.09126 0.0
C539 C 0.83035 0.79846 0.16196 0.0
C540 C 0.71786 0.76924 0.1734 0.0
H541 H 0.63817 0.74319 0.07084 0.0
C542 C 0.69365 0.78893 0.21259 0.0
C543 C 0.69722 0.75141 0.12431 0.0
C544 C 0.72172 0.73011 0.08018 0.0
C545 C 0.64985 0.79302 0.19968 0.0
C546 C 0.63018 0.77713 0.14612 0.0
C547 C 0.6534 0.75537 0.11201 0.0
C548 C 0.58983 0.78663 0.11338 0.0
C549 C 0.62562 0.81537 0.24081 0.0
C550 C 0.5578 0.76632 0.09808 0.0
C551 C 0.52858 0.77182 0.04506 0.0
C552 C 0.53146 0.79753 1.00642 0.0
C553 C 0.55969 0.81935 0.0281 0.0
C554 C 0.58887 0.81386 0.0811 0.0
H555 H 0.63824 0.81677 0.29447 0.0
H556 H 0.63 0.83689 0.21623 0.0
H557 H 0.59077 0.81042 0.24289 0.0
H558 H 0.55797 0.74522 0.12255 0.0
H559 H 0.50606 0.75503 0.0308 0.0
loop_
_geom_bond_atom_site_label_1
_geom_bond_atom_site_label_2
_geom_bond_distance
_geom_bond_site_symmetry_2
_ccdc_geom_bond_type
Zn0 O1 2.055 1_655 S
Zn0 O8 2.046 . S
Zn0 N16 2.036 . S
Zn0 O28 2.053 . S
Zn0 O30 2.066 1_655 S
O1 Zn0 2.055 1_455 S
O1 C4 1.259 . S
C2 O30 1.256 . S
C2 O31 1.244 . S
Zn3 O5 2.046 . S
Zn3 O7 2.055 1_455 S
Zn3 N9 2.036 . S
Zn3 O27 2.066 1_455 S
Zn3 O31 2.053 . S
C4 O1 1.259 . S
C4 O5 1.254 . S
O5 Zn3 2.046 . S
O5 C4 1.254 . S
C6 O27 1.256 . S
C6 O28 1.244 . S
O7 Zn3 2.055 1_655 S
O7 C29 1.259 . S
O8 Zn0 2.046 . S
O8 C29 1.254 . S
N9 Zn3 2.036 . S
N9 C10 1.298 1_455 S
N9 N12 1.398 . S
C10 N9 1.298 1_655 S
C10 N13 1.367 . S
C10 C23 1.481 . S
C11 N12 1.299 . S
C11 N13 1.379 1_455 S
N12 N9 1.398 . S
N12 C11 1.299 . S
N13 C10 1.367 . S
N13 C11 1.379 1_655 S
C14 N16 1.298 1_455 S
C14 N18 1.367 . S
C14 C22 1.481 . S
C15 N17 1.299 . S
C15 N18 1.379 1_655 S
N16 Zn0 2.036 . S
N16 C14 1.298 1_655 S
N16 N17 1.398 . S
N17 C15 1.299 . S
N17 N16 1.398 . S
N18 C14 1.367 . S
N18 C15 1.379 1_455 S
H19 C22 0.980 . S
H20 C22 0.981 . S
H21 C22 0.981 . S
C22 C14 1.481 . S
C22 H19 0.980 . S
C22 H20 0.981 . S
C22 H21 0.981 . S
C23 C10 1.481 . S
C23 H24 0.980 . S
C23 H25 0.981 . S
C23 H26 0.981 . S
H24 C23 0.980 . S
H25 C23 0.981 . S
H26 C23 0.981 . S
O27 Zn3 2.066 1_655 S
O27 C6 1.256 . S
O28 Zn0 2.053 . S
O28 C6 1.244 . S
C29 O7 1.259 . S
C29 O8 1.254 . S
O30 Zn0 2.066 1_455 S
O30 C2 1.256 . S
O31 C2 1.244 . S
O31 Zn3 2.053 . S
Zn32 O33 2.055 . S
Zn32 O40 2.046 . S
Zn32 N48 2.036 . S
Zn32 O60 2.053 . S
Zn32 O62 2.066 . S
O33 Zn32 2.055 . S
O33 C36 1.259 . S
C34 O62 1.256 . S
C34 O63 1.244 . S
Zn35 O37 2.046 . S
Zn35 O39 2.055 . S
Zn35 N41 2.036 . S
Zn35 O59 2.066 . S
Zn35 O63 2.053 . S
C36 O33 1.259 . S
C36 O37 1.254 . S
O37 Zn35 2.046 . S
O37 C36 1.254 . S
C38 O59 1.256 . S
C38 O60 1.244 . S
O39 Zn35 2.055 . S
O39 C61 1.259 . S
O40 Zn32 2.046 . S
O40 C61 1.254 . S
N41 Zn35 2.036 . S
N41 C42 1.298 . S
N41 N44 1.398 . S
C42 N41 1.298 . S
C42 N45 1.367 . S
C42 C55 1.481 . S
C43 N44 1.299 . S
C43 N45 1.379 . S
N44 N41 1.398 . S
N44 C43 1.299 . S
N45 C42 1.367 . S
N45 C43 1.379 . S
C46 N48 1.298 . S
C46 N50 1.367 . S
C46 C54 1.481 . S
C47 N49 1.299 . S
C47 N50 1.379 . S
N48 Zn32 2.036 . S
N48 C46 1.298 . S
N48 N49 1.398 . S
N49 C47 1.299 . S
N49 N48 1.398 . S
N50 C46 1.367 . S
N50 C47 1.379 . S
H51 C54 0.980 . S
H52 C54 0.981 . S
H53 C54 0.981 . S
C54 C46 1.481 . S
C54 H51 0.980 . S
C54 H52 0.981 . S
C54 H53 0.981 . S
C55 C42 1.481 . S
C55 H56 0.980 . S
C55 H57 0.981 . S
C55 H58 0.981 . S
H56 C55 0.980 . S
H57 C55 0.981 . S
H58 C55 0.981 . S
O59 Zn35 2.066 . S
O59 C38 1.256 . S
O60 Zn32 2.053 . S
O60 C38 1.244 . S
C61 O39 1.259 . S
C61 O40 1.254 . S
O62 Zn32 2.066 . S
O62 C34 1.256 . S
O63 C34 1.244 . S
O63 Zn35 2.053 . S
Zn64 O65 2.055 1_455 S
Zn64 O72 2.046 . S
Zn64 N80 2.036 . S
Zn64 O92 2.053 . S
Zn64 O94 2.066 1_455 S
O65 Zn64 2.055 1_655 S
O65 C68 1.259 . S
C66 O94 1.256 . S
C66 O95 1.244 . S
Zn67 O69 2.046 . S
Zn67 O71 2.055 1_655 S
Zn67 N73 2.036 . S
Zn67 O91 2.066 1_655 S
Zn67 O95 2.053 . S
C68 O65 1.259 . S
C68 O69 1.254 . S
O69 Zn67 2.046 . S
O69 C68 1.254 . S
C70 O91 1.256 . S
C70 O92 1.244 . S
O71 Zn67 2.055 1_455 S
O71 C93 1.259 . S
O72 Zn64 2.046 . S
O72 C93 1.254 . S
N73 Zn67 2.036 . S
N73 C74 1.298 1_655 S
N73 N76 1.398 . S
C74 N73 1.298 1_455 S
C74 N77 1.367 . S
C74 C87 1.481 . S
C75 N76 1.299 . S
C75 N77 1.379 1_655 S
N76 N73 1.398 . S
N76 C75 1.299 . S
N77 C74 1.367 . S
N77 C75 1.379 1_455 S
C78 N80 1.298 1_655 S
C78 N82 1.367 . S
C78 C86 1.481 . S
C79 N81 1.299 . S
C79 N82 1.379 1_455 S
N80 Zn64 2.036 . S
N80 C78 1.298 1_455 S
N80 N81 1.398 . S
N81 C79 1.299 . S
N81 N80 1.398 . S
N82 C78 1.367 . S
N82 C79 1.379 1_655 S
H83 C86 0.980 . S
H84 C86 0.981 . S
H85 C86 0.981 . S
C86 C78 1.481 . S
C86 H83 0.980 . S
C86 H84 0.981 . S
C86 H85 0.981 . S
C87 C74 1.481 . S
C87 H88 0.980 . S
C87 H89 0.981 . S
C87 H90 0.981 . S
H88 C87 0.980 . S
H89 C87 0.981 . S
H90 C87 0.981 . S
O91 Zn67 2.066 1_455 S
O91 C70 1.256 . S
O92 Zn64 2.053 . S
O92 C70 1.244 . S
C93 O71 1.259 . S
C93 O72 1.254 . S
O94 Zn64 2.066 1_655 S
O94 C66 1.256 . S
O95 C66 1.244 . S
O95 Zn67 2.053 . S
Zn96 O97 2.055 . S
Zn96 O104 2.046 . S
Zn96 N112 2.036 . S
Zn96 O124 2.053 . S
Zn96 O126 2.066 . S
O97 Zn96 2.055 . S
O97 C100 1.259 . S
C98 O126 1.256 . S
C98 O127 1.244 . S
Zn99 O101 2.046 . S
Zn99 O103 2.055 . S
Zn99 N105 2.036 . S
Zn99 O123 2.066 . S
Zn99 O127 2.053 . S
C100 O97 1.259 . S
C100 O101 1.254 . S
O101 Zn99 2.046 . S
O101 C100 1.254 . S
C102 O123 1.256 . S
C102 O124 1.244 . S
O103 Zn99 2.055 . S
O103 C125 1.259 . S
O104 Zn96 2.046 . S
O104 C125 1.254 . S
N105 Zn99 2.036 . S
N105 C106 1.298 . S
N105 N108 1.398 . S
C106 N105 1.298 . S
C106 N109 1.367 . S
C106 C119 1.481 . S
C107 N108 1.299 . S
C107 N109 1.379 . S
N108 N105 1.398 . S
N108 C107 1.299 . S
N109 C106 1.367 . S
N109 C107 1.379 . S
C110 N112 1.298 . S
C110 N114 1.367 . S
C110 C118 1.481 . S
C111 N113 1.299 . S
C111 N114 1.379 . S
N112 Zn96 2.036 . S
N112 C110 1.298 . S
N112 N113 1.398 . S
N113 C111 1.299 . S
N113 N112 1.398 . S
N114 C110 1.367 . S
N114 C111 1.379 . S
H115 C118 0.980 . S
H116 C118 0.981 . S
H117 C118 0.981 . S
C118 C110 1.481 . S
C118 H115 0.980 . S
C118 H116 0.981 . S
C118 H117 0.981 . S
C119 C106 1.481 . S
C119 H120 0.980 . S
C119 H121 0.981 . S
C119 H122 0.981 . S
H120 C119 0.980 . S
H121 C119 0.981 . S
H122 C119 0.981 . S
O123 Zn99 2.066 . S
O123 C102 1.256 . S
O124 Zn96 2.053 . S
O124 C102 1.244 . S
C125 O103 1.259 . S
C125 O104 1.254 . S
O126 Zn96 2.066 . S
O126 C98 1.256 . S
O127 C98 1.244 . S
O127 Zn99 2.053 . S
H128 C136 0.929 . S
H129 C138 0.930 . S
H130 C140 0.930 1_554 S
H131 C143 0.929 . S
H132 C146 0.930 . S
H133 C148 0.960 . S
H134 C148 0.960 . S
H135 C148 0.960 1_655 S
C136 H128 0.929 . S
C136 C137 1.377 1_455 S
C136 C138 1.384 . S
C137 C136 1.377 1_655 S
C137 C143 1.390 . S
C138 H129 0.930 . S
C138 C136 1.384 . S
C138 C139 1.372 1_455 S
C139 C138 1.372 1_655 S
C139 C140 1.400 . S
C139 C144 1.490 . S
C140 H130 0.930 1_556 S
C140 C139 1.400 . S
C140 C143 1.386 . S
H141 C157 0.930 . S
H142 C158 0.931 . S
C143 H131 0.929 . S
C143 C137 1.390 . S
C143 C140 1.386 . S
C144 C139 1.490 . S
C144 C146 1.395 . S
C144 C147 1.403 1_556 S
H145 C151 0.930 1_455 S
C146 H132 0.930 . S
C146 C144 1.395 . S
C146 C149 1.403 . S
C147 C144 1.403 1_554 S
C147 C148 1.524 1_655 S
C147 C151 1.400 . S
C148 H133 0.960 . S
C148 H134 0.960 . S
C148 H135 0.960 1_455 S
C148 C147 1.524 1_455 S
C149 C146 1.403 . S
C149 C150 1.392 1_556 S
C149 C153 1.495 . S
C150 C149 1.392 1_554 S
C150 C151 1.385 . S
C150 C152 1.478 . S
C151 H145 0.930 1_655 S
C151 C147 1.400 . S
C151 C150 1.385 . S
C152 C150 1.478 . S
C152 C154 1.381 1_655 S
C152 C158 1.383 . S
C153 C149 1.495 . S
C153 H159 0.959 . S
C153 H160 0.961 . S
C153 H161 0.960 . S
C154 C152 1.381 1_455 S
C154 C155 1.394 . S
C154 H162 0.930 1_554 S
C155 C154 1.394 . S
C155 C156 1.383 1_455 S
C155 H163 0.929 . S
C156 C155 1.383 1_655 S
C156 C157 1.377 . S
C157 H141 0.930 . S
C157 C156 1.377 . S
C157 C158 1.379 . S
C158 H142 0.931 . S
C158 C152 1.383 . S
C158 C157 1.379 . S
H159 C153 0.959 . S
H160 C153 0.961 . S
H161 C153 0.960 . S
H162 C154 0.930 1_556 S
H163 C155 0.929 . S
H164 C172 0.929 . S
H165 C174 0.930 . S
H166 C176 0.930 . S
H167 C179 0.929 . S
H168 C182 0.930 . S
H169 C184 0.960 . S
H170 C184 0.960 . S
H171 C184 0.960 1_554 S
C172 H164 0.929 . S
C172 C173 1.377 . S
C172 C174 1.384 . S
C173 C172 1.377 . S
C173 C179 1.390 . S
C174 H165 0.930 . S
C174 C172 1.384 . S
C174 C175 1.372 . S
C175 C174 1.372 . S
C175 C176 1.400 . S
C175 C180 1.490 . S
C176 H166 0.930 . S
C176 C175 1.400 . S
C176 C179 1.386 . S
H177 C193 0.930 . S
H178 C194 0.931 . S
C179 H167 0.929 . S
C179 C173 1.390 . S
C179 C176 1.386 . S
C180 C175 1.490 . S
C180 C182 1.395 . S
C180 C183 1.403 1_554 S
H181 C187 0.930 . S
C182 H168 0.930 . S
C182 C180 1.395 . S
C182 C185 1.403 . S
C183 C180 1.403 1_556 S
C183 C184 1.524 . S
C183 C187 1.400 . S
C184 H169 0.960 . S
C184 H170 0.960 . S
C184 H171 0.960 1_556 S
C184 C183 1.524 . S
C185 C182 1.403 . S
C185 C186 1.392 1_554 S
C185 C189 1.495 . S
C186 C185 1.392 1_556 S
C186 C187 1.385 . S
C186 C188 1.478 . S
C187 H181 0.930 . S
C187 C183 1.400 . S
C187 C186 1.385 . S
C188 C186 1.478 . S
C188 C190 1.381 . S
C188 C194 1.383 . S
C189 C185 1.495 . S
C189 H195 0.959 . S
C189 H196 0.961 . S
C189 H197 0.960 1_554 S
C190 C188 1.381 . S
C190 C191 1.394 . S
C190 H198 0.930 . S
C191 C190 1.394 . S
C191 C192 1.383 . S
C191 H199 0.929 . S
C192 C191 1.383 . S
C192 C193 1.377 . S
C193 H177 0.930 . S
C193 C192 1.377 . S
C193 C194 1.379 . S
C194 H178 0.931 . S
C194 C188 1.383 . S
C194 C193 1.379 . S
H195 C189 0.959 . S
H196 C189 0.961 . S
H197 C189 0.960 1_556 S
H198 C190 0.930 . S
H199 C191 0.929 . S
H200 C208 0.929 . S
H201 C210 0.930 . S
H202 C212 0.930 . S
H203 C215 0.929 . S
H204 C218 0.930 . S
H205 C220 0.960 1_545 S
H206 C220 0.960 . S
H207 C220 0.960 . S
C208 H200 0.929 . S
C208 C209 1.377 . S
C208 C210 1.384 . S
C209 C208 1.377 . S
C209 C215 1.390 . S
C210 H201 0.930 . S
C210 C208 1.384 . S
C210 C211 1.372 . S
C211 C210 1.372 . S
C211 C212 1.400 . S
C211 C216 1.490 . S
C212 H202 0.930 . S
C212 C211 1.400 . S
C212 C215 1.386 . S
H213 C229 0.930 . S
H214 C230 0.931 . S
C215 H203 0.929 . S
C215 C209 1.390 . S
C215 C212 1.386 . S
C216 C211 1.490 . S
C216 C218 1.395 1_556 S
C216 C219 1.403 . S
H217 C223 0.930 . S
C218 H204 0.930 . S
C218 C216 1.395 1_554 S
C218 C221 1.403 1_565 S
C219 C216 1.403 . S
C219 C220 1.524 . S
C219 C223 1.400 1_565 S
C220 H205 0.960 1_565 S
C220 H206 0.960 . S
C220 H207 0.960 . S
C220 C219 1.524 . S
C221 C218 1.403 1_545 S
C221 C222 1.392 . S
C221 C225 1.495 . S
C222 C221 1.392 . S
C222 C223 1.385 1_554 S
C222 C224 1.478 . S
C223 H217 0.930 . S
C223 C219 1.400 1_545 S
C223 C222 1.385 1_556 S
C224 C222 1.478 . S
C224 C226 1.381 . S
C224 C230 1.383 . S
C225 C221 1.495 . S
C225 H231 0.959 1_545 S
C225 H232 0.961 . S
C225 H233 0.960 . S
C226 C224 1.381 . S
C226 C227 1.394 . S
C226 H234 0.930 . S
C227 C226 1.394 . S
C227 C228 1.383 . S
C227 H235 0.929 . S
C228 C227 1.383 . S
C228 C229 1.377 . S
C229 H213 0.930 . S
C229 C228 1.377 . S
C229 C230 1.379 . S
C230 H214 0.931 . S
C230 C224 1.383 . S
C230 C229 1.379 . S
H231 C225 0.959 1_565 S
H232 C225 0.961 . S
H233 C225 0.960 . S
H234 C226 0.930 . S
H235 C227 0.929 . S
H236 C244 0.929 . S
H237 C246 0.930 . S
H238 C248 0.930 . S
H239 C251 0.929 . S
H240 C254 0.930 . S
H241 C256 0.952 1_655 S
H242 C256 0.961 1_565 S
H243 C256 0.963 1_665 S
C244 H236 0.929 . S
C244 C245 1.377 . S
C244 C246 1.384 . S
C245 C244 1.377 . S
C245 C251 1.390 1_455 S
C246 H237 0.930 . S
C246 C244 1.384 . S
C246 C247 1.372 . S
C247 C246 1.372 . S
C247 C248 1.400 1_455 S
C247 C252 1.490 . S
C248 H238 0.930 . S
C248 C247 1.400 1_655 S
C248 C251 1.386 . S
H249 C265 0.930 . S
H250 C266 0.931 . S
C251 H239 0.929 . S
C251 C245 1.390 1_655 S
C251 C248 1.386 . S
C252 C247 1.490 . S
C252 C254 1.395 1_554 S
C252 C255 1.403 . S
H253 C259 0.930 . S
C254 H240 0.930 . S
C254 C252 1.395 1_556 S
C254 C257 1.426 . S
C255 C252 1.403 . S
C255 C256 1.524 1_565 S
C255 C259 1.400 1_565 S
C256 H241 0.952 1_455 S
C256 H242 0.961 1_545 S
C256 H243 0.963 1_445 S
C256 C255 1.524 1_545 S
C257 C254 1.426 . S
C257 C258 1.370 1_565 S
C257 C261 1.496 . S
C258 C257 1.370 1_545 S
C258 C259 1.385 1_556 S
C258 C260 1.478 . S
C259 H253 0.930 . S
C259 C255 1.400 1_545 S
C259 C258 1.385 1_554 S
C260 C258 1.478 . S
C260 C262 1.381 . S
C260 C266 1.383 1_455 S
C261 C257 1.496 . S
C261 H267 0.959 . S
C261 H268 0.961 1_565 S
C261 H269 0.960 1_565 S
C262 C260 1.381 . S
C262 C263 1.394 . S
C262 H270 0.930 . S
C263 C262 1.394 . S
C263 C264 1.383 . S
C263 H271 0.929 . S
C264 C263 1.383 . S
C264 C265 1.377 1_455 S
C265 H249 0.930 . S
C265 C264 1.377 1_655 S
C265 C266 1.379 . S
C266 H250 0.931 . S
C266 C260 1.383 1_655 S
C266 C265 1.379 . S
H267 C261 0.959 . S
H268 C261 0.961 1_545 S
H269 C261 0.960 1_545 S
H270 C262 0.930 . S
H271 C263 0.929 . S
H272 C280 0.929 . S
H273 C282 0.930 . S
H274 C284 0.930 . S
H275 C287 0.929 . S
H276 C290 0.930 . S
H277 C292 0.960 . S
H278 C292 0.960 . S
H279 C292 0.960 . S
C280 H272 0.929 . S
C280 C281 1.377 . S
C280 C282 1.384 . S
C281 C280 1.377 . S
C281 C287 1.390 . S
C282 H273 0.930 . S
C282 C280 1.384 . S
C282 C283 1.372 . S
C283 C282 1.372 . S
C283 C284 1.400 . S
C283 C288 1.490 . S
C284 H274 0.930 . S
C284 C283 1.400 . S
C284 C287 1.386 . S
H285 C301 0.930 . S
H286 C302 0.931 . S
C287 H275 0.929 . S
C287 C281 1.390 . S
C287 C284 1.386 . S
C288 C283 1.490 . S
C288 C290 1.395 . S
C288 C291 1.403 . S
H289 C295 0.930 . S
C290 H276 0.930 . S
C290 C288 1.395 . S
C290 C293 1.403 . S
C291 C288 1.403 . S
C291 C292 1.524 . S
C291 C295 1.400 . S
C292 H277 0.960 . S
C292 H278 0.960 . S
C292 H279 0.960 . S
C292 C291 1.524 . S
C293 C290 1.403 . S
C293 C294 1.392 . S
C293 C297 1.495 . S
C294 C293 1.392 . S
C294 C295 1.385 . S
C294 C296 1.478 . S
C295 H289 0.930 . S
C295 C291 1.400 . S
C295 C294 1.385 . S
C296 C294 1.478 . S
C296 C298 1.381 . S
C296 C302 1.383 . S
C297 C293 1.495 . S
C297 H303 0.959 . S
C297 H304 0.961 . S
C297 H305 0.960 . S
C298 C296 1.381 . S
C298 C299 1.394 . S
C298 H306 0.930 . S
C299 C298 1.394 . S
C299 C300 1.383 . S
C299 H307 0.929 . S
C300 C299 1.383 . S
C300 C301 1.377 . S
C301 H285 0.930 . S
C301 C300 1.377 . S
C301 C302 1.379 . S
C302 H286 0.931 . S
C302 C296 1.383 . S
C302 C301 1.379 . S
H303 C297 0.959 . S
H304 C297 0.961 . S
H305 C297 0.960 . S
H306 C298 0.930 . S
H307 C299 0.929 . S
H308 C316 0.929 . S
H309 C318 0.930 . S
H310 C320 0.930 . S
H311 C323 0.929 . S
H312 C326 0.930 . S
H313 C328 0.960 . S
H314 C328 0.960 . S
H315 C328 0.960 . S
C316 H308 0.929 . S
C316 C317 1.377 . S
C316 C318 1.384 . S
C317 C316 1.377 . S
C317 C323 1.390 . S
C318 H309 0.930 . S
C318 C316 1.384 . S
C318 C319 1.372 . S
C319 C318 1.372 . S
C319 C320 1.400 . S
C319 C324 1.490 . S
C320 H310 0.930 . S
C320 C319 1.400 . S
C320 C323 1.386 . S
H321 C337 0.930 . S
H322 C338 0.931 . S
C323 H311 0.929 . S
C323 C317 1.390 . S
C323 C320 1.386 . S
C324 C319 1.490 . S
C324 C326 1.395 . S
C324 C327 1.403 . S
H325 C331 0.930 . S
C326 H312 0.930 . S
C326 C324 1.395 . S
C326 C329 1.403 . S
C327 C324 1.403 . S
C327 C328 1.524 . S
C327 C331 1.400 . S
C328 H313 0.960 . S
C328 H314 0.960 . S
C328 H315 0.960 . S
C328 C327 1.524 . S
C329 C326 1.403 . S
C329 C330 1.392 . S
C329 C333 1.495 . S
C330 C329 1.392 . S
C330 C331 1.385 . S
C330 C332 1.478 . S
C331 H325 0.930 . S
C331 C327 1.400 . S
C331 C330 1.385 . S
C332 C330 1.478 . S
C332 C334 1.381 . S
C332 C338 1.383 . S
C333 C329 1.495 . S
C333 H339 0.959 . S
C333 H340 0.961 . S
C333 H341 0.960 . S
C334 C332 1.381 . S
C334 C335 1.394 . S
C334 H342 0.930 . S
C335 C334 1.394 . S
C335 C336 1.383 . S
C335 H343 0.929 . S
C336 C335 1.383 . S
C336 C337 1.377 . S
C337 H321 0.930 . S
C337 C336 1.377 . S
C337 C338 1.379 . S
C338 H322 0.931 . S
C338 C332 1.383 . S
C338 C337 1.379 . S
H339 C333 0.959 . S
H340 C333 0.961 . S
H341 C333 0.960 . S
H342 C334 0.930 . S
H343 C335 0.929 . S
H344 C352 0.929 . S
H345 C354 0.930 . S
H346 C356 0.930 . S
H347 C359 0.929 . S
H348 C362 0.930 . S
H349 C364 0.960 . S
H350 C364 0.960 . S
H351 C364 0.960 . S
C352 H344 0.929 . S
C352 C353 1.377 . S
C352 C354 1.384 . S
C353 C352 1.377 . S
C353 C359 1.390 . S
C354 H345 0.930 . S
C354 C352 1.384 . S
C354 C355 1.372 . S
C355 C354 1.372 . S
C355 C356 1.400 . S
C355 C360 1.490 . S
C356 H346 0.930 . S
C356 C355 1.400 . S
C356 C359 1.386 . S
H357 C373 0.930 . S
H358 C374 0.931 . S
C359 H347 0.929 . S
C359 C353 1.390 . S
C359 C356 1.386 . S
C360 C355 1.490 . S
C360 C362 1.395 . S
C360 C363 1.403 . S
H361 C367 0.930 . S
C362 H348 0.930 . S
C362 C360 1.395 . S
C362 C365 1.403 . S
C363 C360 1.403 . S
C363 C364 1.524 . S
C363 C367 1.400 . S
C364 H349 0.960 . S
C364 H350 0.960 . S
C364 H351 0.960 . S
C364 C363 1.524 . S
C365 C362 1.403 . S
C365 C366 1.392 . S
C365 C369 1.495 . S
C366 C365 1.392 . S
C366 C367 1.385 . S
C366 C368 1.478 . S
C367 H361 0.930 . S
C367 C363 1.400 . S
C367 C366 1.385 . S
C368 C366 1.478 . S
C368 C370 1.381 . S
C368 C374 1.383 . S
C369 C365 1.495 . S
C369 H375 0.959 . S
C369 H376 0.961 . S
C369 H377 0.960 . S
C370 C368 1.381 . S
C370 C371 1.394 . S
C370 H378 0.930 . S
C371 C370 1.394 . S
C371 C372 1.383 . S
C371 H379 0.929 . S
C372 C371 1.383 . S
C372 C373 1.377 . S
C373 H357 0.930 . S
C373 C372 1.377 . S
C373 C374 1.379 . S
C374 H358 0.931 . S
C374 C368 1.383 . S
C374 C373 1.379 . S
H375 C369 0.959 . S
H376 C369 0.961 . S
H377 C369 0.960 . S
H378 C370 0.930 . S
H379 C371 0.929 . S
H380 C388 0.929 . S
H381 C390 0.930 . S
H382 C392 0.930 . S
H383 C395 0.929 . S
H384 C398 0.930 . S
H385 C400 0.960 . S
H386 C400 0.960 . S
H387 C400 0.960 . S
C388 H380 0.929 . S
C388 C389 1.377 . S
C388 C390 1.384 . S
C389 C388 1.377 . S
C389 C395 1.390 . S
C390 H381 0.930 . S
C390 C388 1.384 . S
C390 C391 1.372 . S
C391 C390 1.372 . S
C391 C392 1.400 . S
C391 C396 1.490 . S
C392 H382 0.930 . S
C392 C391 1.400 . S
C392 C395 1.386 . S
H393 C409 0.930 . S
H394 C410 0.931 . S
C395 H383 0.929 . S
C395 C389 1.390 . S
C395 C392 1.386 . S
C396 C391 1.490 . S
C396 C398 1.395 . S
C396 C399 1.403 . S
H397 C403 0.930 . S
C398 H384 0.930 . S
C398 C396 1.395 . S
C398 C401 1.403 . S
C399 C396 1.403 . S
C399 C400 1.524 . S
C399 C403 1.400 . S
C400 H385 0.960 . S
C400 H386 0.960 . S
C400 H387 0.960 . S
C400 C399 1.524 . S
C401 C398 1.403 . S
C401 C402 1.392 . S
C401 C405 1.495 . S
C402 C401 1.392 . S
C402 C403 1.385 . S
C402 C404 1.478 . S
C403 H397 0.930 . S
C403 C399 1.400 . S
C403 C402 1.385 . S
C404 C402 1.478 . S
C404 C406 1.381 . S
C404 C410 1.383 . S
C405 C401 1.495 . S
C405 H411 0.959 . S
C405 H412 0.961 . S
C405 H413 0.960 . S
C406 C404 1.381 . S
C406 C407 1.394 . S
C406 H414 0.930 . S
C407 C406 1.394 . S
C407 C408 1.383 . S
C407 H415 0.929 . S
C408 C407 1.383 . S
C408 C409 1.377 . S
C409 H393 0.930 . S
C409 C408 1.377 . S
C409 C410 1.379 . S
C410 H394 0.931 . S
C410 C404 1.383 . S
C410 C409 1.379 . S
H411 C405 0.959 . S
H412 C405 0.961 . S
H413 C405 0.960 . S
H414 C406 0.930 . S
H415 C407 0.929 . S
H416 C424 0.929 . S
H417 C426 0.930 . S
H418 C428 0.930 1_554 S
H419 C431 0.929 . S
H420 C434 0.930 . S
H421 C436 0.960 . S
H422 C436 0.960 . S
H423 C436 0.960 . S
C424 H416 0.929 . S
C424 C425 1.377 . S
C424 C426 1.384 . S
C425 C424 1.377 . S
C425 C431 1.390 . S
C426 H417 0.930 . S
C426 C424 1.384 . S
C426 C427 1.372 . S
C427 C426 1.372 . S
C427 C428 1.400 . S
C427 C432 1.490 . S
C428 H418 0.930 1_556 S
C428 C427 1.400 . S
C428 C431 1.386 . S
H429 C445 0.930 . S
H430 C446 0.931 . S
C431 H419 0.929 . S
C431 C425 1.390 . S
C431 C428 1.386 . S
C432 C427 1.490 . S
C432 C434 1.395 . S
C432 C435 1.403 1_556 S
H433 C439 0.930 . S
C434 H420 0.930 . S
C434 C432 1.395 . S
C434 C437 1.403 . S
C435 C432 1.403 1_554 S
C435 C436 1.524 . S
C435 C439 1.400 . S
C436 H421 0.960 . S
C436 H422 0.960 . S
C436 H423 0.960 . S
C436 C435 1.524 . S
C437 C434 1.403 . S
C437 C438 1.392 1_556 S
C437 C441 1.495 . S
C438 C437 1.392 1_554 S
C438 C439 1.385 . S
C438 C440 1.478 . S
C439 H433 0.930 . S
C439 C435 1.400 . S
C439 C438 1.385 . S
C440 C438 1.478 . S
C440 C442 1.381 . S
C440 C446 1.383 . S
C441 C437 1.495 . S
C441 H447 0.959 . S
C441 H448 0.961 . S
C441 H449 0.960 . S
C442 C440 1.381 . S
C442 C443 1.394 . S
C442 H450 0.930 1_554 S
C443 C442 1.394 . S
C443 C444 1.383 . S
C443 H451 0.929 . S
C444 C443 1.383 . S
C444 C445 1.377 . S
C445 H429 0.930 . S
C445 C444 1.377 . S
C445 C446 1.379 . S
C446 H430 0.931 . S
C446 C440 1.383 . S
C446 C445 1.379 . S
H447 C441 0.959 . S
H448 C441 0.961 . S
H449 C441 0.960 . S
H450 C442 0.930 1_556 S
H451 C443 0.929 . S
H452 C460 0.929 . S
H453 C462 0.930 1_554 S
H454 C464 0.930 . S
H455 C467 0.929 . S
H456 C470 0.930 . S
H457 C472 0.960 . S
H458 C472 0.960 . S
H459 C472 0.960 . S
C460 H452 0.929 . S
C460 C461 1.377 . S
C460 C462 1.384 . S
C461 C460 1.377 . S
C461 C467 1.390 . S
C462 H453 0.930 1_556 S
C462 C460 1.384 . S
C462 C463 1.372 . S
C463 C462 1.372 . S
C463 C464 1.400 . S
C463 C468 1.490 . S
C464 H454 0.930 . S
C464 C463 1.400 . S
C464 C467 1.386 . S
H465 C481 0.930 . S
H466 C482 0.931 . S
C467 H455 0.929 . S
C467 C461 1.390 . S
C467 C464 1.386 . S
C468 C463 1.490 . S
C468 C470 1.395 1_556 S
C468 C471 1.403 . S
H469 C475 0.930 . S
C470 H456 0.930 . S
C470 C468 1.395 1_554 S
C470 C473 1.403 . S
C471 C468 1.403 . S
C471 C472 1.524 . S
C471 C475 1.400 . S
C472 H457 0.960 . S
C472 H458 0.960 . S
C472 H459 0.960 . S
C472 C471 1.524 . S
C473 C470 1.403 . S
C473 C474 1.392 . S
C473 C477 1.495 . S
C474 C473 1.392 . S
C474 C475 1.385 1_554 S
C474 C476 1.478 . S
C475 H469 0.930 . S
C475 C471 1.400 . S
C475 C474 1.385 1_556 S
C476 C474 1.478 . S
C476 C478 1.381 . S
C476 C482 1.383 . S
C477 C473 1.495 . S
C477 H483 0.959 . S
C477 H484 0.961 . S
C477 H485 0.960 . S
C478 C476 1.381 . S
C478 C479 1.394 . S
C478 H486 0.930 . S
C479 C478 1.394 . S
C479 C480 1.383 . S
C479 H487 0.929 . S
C480 C479 1.383 . S
C480 C481 1.377 . S
C481 H465 0.930 . S
C481 C480 1.377 . S
C481 C482 1.379 . S
C482 H466 0.931 . S
C482 C476 1.383 . S
C482 C481 1.379 . S
H483 C477 0.959 . S
H484 C477 0.961 . S
H485 C477 0.960 . S
H486 C478 0.930 . S
H487 C479 0.929 . S
H488 C496 0.929 . S
H489 C498 0.930 1_556 S
H490 C500 0.930 . S
H491 C503 0.929 . S
H492 C506 0.930 . S
H493 C508 0.960 . S
H494 C508 0.960 . S
H495 C508 0.960 . S
C496 H488 0.929 . S
C496 C497 1.377 . S
C496 C498 1.384 . S
C497 C496 1.377 . S
C497 C503 1.390 . S
C498 H489 0.930 1_554 S
C498 C496 1.384 . S
C498 C499 1.372 . S
C499 C498 1.372 . S
C499 C500 1.400 . S
C499 C504 1.490 . S
C500 H490 0.930 . S
C500 C499 1.400 . S
C500 C503 1.386 . S
H501 C517 0.930 . S
H502 C518 0.931 1_554 S
C503 H491 0.929 . S
C503 C497 1.390 . S
C503 C500 1.386 . S
C504 C499 1.490 . S
C504 C506 1.395 1_554 S
C504 C507 1.403 . S
H505 C511 0.930 . S
C506 H492 0.930 . S
C506 C504 1.395 1_556 S
C506 C509 1.403 . S
C507 C504 1.403 . S
C507 C508 1.524 . S
C507 C511 1.400 . S
C508 H493 0.960 . S
C508 H494 0.960 . S
C508 H495 0.960 . S
C508 C507 1.524 . S
C509 C506 1.403 . S
C509 C510 1.392 . S
C509 C513 1.495 . S
C510 C509 1.392 . S
C510 C511 1.385 1_556 S
C510 C512 1.478 . S
C511 H505 0.930 . S
C511 C507 1.400 . S
C511 C510 1.385 1_554 S
C512 C510 1.478 . S
C512 C514 1.381 . S
C512 C518 1.383 . S
C513 C509 1.495 . S
C513 H519 0.959 . S
C513 H520 0.961 . S
C513 H521 0.960 . S
C514 C512 1.381 . S
C514 C515 1.394 . S
C514 H522 0.930 . S
C515 C514 1.394 . S
C515 C516 1.383 . S
C515 H523 0.929 . S
C516 C515 1.383 . S
C516 C517 1.377 . S
C517 H501 0.930 . S
C517 C516 1.377 . S
C517 C518 1.379 . S
C518 H502 0.931 1_556 S
C518 C512 1.383 . S
C518 C517 1.379 . S
H519 C513 0.959 . S
H520 C513 0.961 . S
H521 C513 0.960 . S
H522 C514 0.930 . S
H523 C515 0.929 . S
H524 C532 0.929 . S
H525 C534 0.930 . S
H526 C536 0.930 1_556 S
H527 C539 0.939 . S
H528 C542 0.930 . S
H529 C544 0.960 . S
H530 C544 0.960 . S
H531 C544 0.960 . S
C532 H524 0.929 . S
C532 C533 1.377 . S
C532 C534 1.384 . S
C533 C532 1.377 . S
C533 C539 1.390 . S
C534 H525 0.930 . S
C534 C532 1.384 . S
C534 C535 1.372 . S
C535 C534 1.372 . S
C535 C536 1.400 . S
C535 C540 1.490 . S
C536 H526 0.930 1_554 S
C536 C535 1.400 . S
C536 C539 1.386 . S
H537 C553 0.930 . S
H538 C554 0.931 . S
C539 H527 0.939 . S
C539 C533 1.390 . S
C539 C536 1.386 . S
C540 C535 1.490 . S
C540 C542 1.395 . S
C540 C543 1.403 1_554 S
H541 C547 0.930 . S
C542 H528 0.930 . S
C542 C540 1.395 . S
C542 C545 1.403 . S
C543 C540 1.403 1_556 S
C543 C544 1.524 . S
C543 C547 1.400 . S
C544 H529 0.960 . S
C544 H530 0.960 . S
C544 H531 0.960 . S
C544 C543 1.524 . S
C545 C542 1.403 . S
C545 C546 1.392 1_554 S
C545 C549 1.495 . S
C546 C545 1.392 1_556 S
C546 C547 1.385 . S
C546 C548 1.478 . S
C547 H541 0.930 . S
C547 C543 1.400 . S
C547 C546 1.385 . S
C548 C546 1.478 . S
C548 C550 1.386 . S
C548 C554 1.383 . S
C549 C545 1.495 . S
C549 H555 0.959 . S
C549 H556 0.961 . S
C549 H557 0.960 . S
C550 C548 1.386 . S
C550 C551 1.398 . S
C550 H558 0.921 1_556 S
C551 C550 1.398 . S
C551 C552 1.383 . S
C551 H559 0.929 . S
C552 C551 1.383 . S
C552 C553 1.377 . S
C553 H537 0.930 . S
C553 C552 1.377 . S
C553 C554 1.379 . S
C554 H538 0.931 . S
C554 C548 1.383 . S
C554 C553 1.379 . S
H555 C549 0.959 . S
H556 C549 0.961 . S
H557 C549 0.960 . S
H558 C550 0.921 1_554 S
H559 C551 0.929 . S
C137 N82 1.995 . S
C156 N13 1.996 . S
C173 N45 1.996 . S
C192 N109 1.973 . S
C209 N114 2.003 . S
C228 N50 2.016 . S
C245 N18 2.004 . S
C264 N77 2.009 . S
C281 C100 1.602 . S
C300 C4 1.593 . S
C317 C93 1.602 . S
C336 C36 1.595 . S
C353 C68 1.603 . S
C372 C61 1.604 . S
C389 C29 1.602 . S
C408 C125 1.593 . S
C425 C98 0.468 . S
C444 C2 0.517 . S
C461 C70 0.463 . S
C480 C34 0.415 . S
C497 C38 0.465 . S
C516 C66 0.419 . S
C533 C6 0.467 . S
C552 C102 0.516 . S
