# Generated by pormake.
# Topology gme, (4)-cn, num edge types: 1
# Building blocks:
#     Node 0, Type 0, BuildingBlock: QUQFOY_clean_sbu_1, # of connection points: 4
#     Node 1, Type 0, BuildingBlock: QUQFOY_clean_sbu_1, # of connection points: 4
#     Node 2, Type 0, BuildingBlock: QUQFOY_clean_sbu_1, # of connection points: 4
#     Node 3, Type 0, BuildingBlock: QUQFOY_clean_sbu_1, # of connection points: 4
#     Node 4, Type 0, BuildingBlock: QUQFOY_clean_sbu_1, # of connection points: 4
#     Node 5, Type 0, BuildingBlock: QUQFOY_clean_sbu_1, # of connection points: 4
#     Node 6, Type 0, BuildingBlock: QUQFOY_clean_sbu_1, # of connection points: 4
#     Node 7, Type 0, BuildingBlock: QUQFOY_clean_sbu_1, # of connection points: 4
#     Node 8, Type 0, BuildingBlock: QUQFOY_clean_sbu_1, # of connection points: 4
#     Node 9, Type 0, BuildingBlock: QUQFOY_clean_sbu_1, # of connection points: 4
#     Node 10, Type 0, BuildingBlock: QUQFOY_clean_sbu_1, # of connection points: 4
#     Node 11, Type 0, BuildingBlock: QUQFOY_clean_sbu_1, # of connection points: 4
#     Node 12, Type 0, BuildingBlock: QUQFOY_clean_sbu_1, # of connection points: 4
#     Node 13, Type 0, BuildingBlock: QUQFOY_clean_sbu_1, # of connection points: 4
#     Node 14, Type 0, BuildingBlock: QUQFOY_clean_sbu_1, # of connection points: 4
#     Node 15, Type 0, BuildingBlock: QUQFOY_clean_sbu_1, # of connection points: 4
#     Node 16, Type 0, BuildingBlock: QUQFOY_clean_sbu_1, # of connection points: 4
#     Node 17, Type 0, BuildingBlock: QUQFOY_clean_sbu_1, # of connection points: 4
#     Node 18, Type 0, BuildingBlock: QUQFOY_clean_sbu_1, # of connection points: 4
#     Node 19, Type 0, BuildingBlock: QUQFOY_clean_sbu_1, # of connection points: 4
#     Node 20, Type 0, BuildingBlock: QUQFOY_clean_sbu_1, # of connection points: 4
#     Node 21, Type 0, BuildingBlock: QUQFOY_clean_sbu_1, # of connection points: 4
#     Node 22, Type 0, BuildingBlock: QUQFOY_clean_sbu_1, # of connection points: 4
#     Node 23, Type 0, BuildingBlock: QUQFOY_clean_sbu_1, # of connection points: 4
#     Edge 24, Type (0, 0), BuildingBlock: KIFKEQ_clean_linker_1, # of connection points: 2
#     Edge 25, Type (0, 0), BuildingBlock: KIFKEQ_clean_linker_1, # of connection points: 2
#     Edge 26, Type (0, 0), BuildingBlock: KIFKEQ_clean_linker_1, # of connection points: 2
#     Edge 27, Type (0, 0), BuildingBlock: KIFKEQ_clean_linker_1, # of connection points: 2
#     Edge 28, Type (0, 0), BuildingBlock: KIFKEQ_clean_linker_1, # of connection points: 2
#     Edge 29, Type (0, 0), BuildingBlock: KIFKEQ_clean_linker_1, # of connection points: 2
#     Edge 30, Type (0, 0), BuildingBlock: KIFKEQ_clean_linker_1, # of connection points: 2
#     Edge 31, Type (0, 0), BuildingBlock: KIFKEQ_clean_linker_1, # of connection points: 2
#     Edge 32, Type (0, 0), BuildingBlock: KIFKEQ_clean_linker_1, # of connection points: 2
#     Edge 33, Type (0, 0), BuildingBlock: KIFKEQ_clean_linker_1, # of connection points: 2
#     Edge 34, Type (0, 0), BuildingBlock: KIFKEQ_clean_linker_1, # of connection points: 2
#     Edge 35, Type (0, 0), BuildingBlock: KIFKEQ_clean_linker_1, # of connection points: 2
#     Edge 36, Type (0, 0), BuildingBlock: KIFKEQ_clean_linker_1, # of connection points: 2
#     Edge 37, Type (0, 0), BuildingBlock: KIFKEQ_clean_linker_1, # of connection points: 2
#     Edge 38, Type (0, 0), BuildingBlock: KIFKEQ_clean_linker_1, # of connection points: 2
#     Edge 39, Type (0, 0), BuildingBlock: KIFKEQ_clean_linker_1, # of connection points: 2
#     Edge 40, Type (0, 0), BuildingBlock: KIFKEQ_clean_linker_1, # of connection points: 2
#     Edge 41, Type (0, 0), BuildingBlock: KIFKEQ_clean_linker_1, # of connection points: 2
#     Edge 42, Type (0, 0), BuildingBlock: KIFKEQ_clean_linker_1, # of connection points: 2
#     Edge 43, Type (0, 0), BuildingBlock: KIFKEQ_clean_linker_1, # of connection points: 2
#     Edge 44, Type (0, 0), BuildingBlock: KIFKEQ_clean_linker_1, # of connection points: 2
#     Edge 45, Type (0, 0), BuildingBlock: KIFKEQ_clean_linker_1, # of connection points: 2
#     Edge 46, Type (0, 0), BuildingBlock: KIFKEQ_clean_linker_1, # of connection points: 2
#     Edge 47, Type (0, 0), BuildingBlock: KIFKEQ_clean_linker_1, # of connection points: 2
#     Edge 48, Type (0, 0), BuildingBlock: KIFKEQ_clean_linker_1, # of connection points: 2
#     Edge 49, Type (0, 0), BuildingBlock: KIFKEQ_clean_linker_1, # of connection points: 2
#     Edge 50, Type (0, 0), BuildingBlock: KIFKEQ_clean_linker_1, # of connection points: 2
#     Edge 51, Type (0, 0), BuildingBlock: KIFKEQ_clean_linker_1, # of connection points: 2
#     Edge 52, Type (0, 0), BuildingBlock: KIFKEQ_clean_linker_1, # of connection points: 2
#     Edge 53, Type (0, 0), BuildingBlock: KIFKEQ_clean_linker_1, # of connection points: 2
#     Edge 54, Type (0, 0), BuildingBlock: KIFKEQ_clean_linker_1, # of connection points: 2
#     Edge 55, Type (0, 0), BuildingBlock: KIFKEQ_clean_linker_1, # of connection points: 2
#     Edge 56, Type (0, 0), BuildingBlock: KIFKEQ_clean_linker_1, # of connection points: 2
#     Edge 57, Type (0, 0), BuildingBlock: KIFKEQ_clean_linker_1, # of connection points: 2
#     Edge 58, Type (0, 0), BuildingBlock: KIFKEQ_clean_linker_1, # of connection points: 2
#     Edge 59, Type (0, 0), BuildingBlock: KIFKEQ_clean_linker_1, # of connection points: 2
#     Edge 60, Type (0, 0), BuildingBlock: KIFKEQ_clean_linker_1, # of connection points: 2
#     Edge 61, Type (0, 0), BuildingBlock: KIFKEQ_clean_linker_1, # of connection points: 2
#     Edge 62, Type (0, 0), BuildingBlock: KIFKEQ_clean_linker_1, # of connection points: 2
#     Edge 63, Type (0, 0), BuildingBlock: KIFKEQ_clean_linker_1, # of connection points: 2
#     Edge 64, Type (0, 0), BuildingBlock: KIFKEQ_clean_linker_1, # of connection points: 2
#     Edge 65, Type (0, 0), BuildingBlock: KIFKEQ_clean_linker_1, # of connection points: 2
#     Edge 66, Type (0, 0), BuildingBlock: KIFKEQ_clean_linker_1, # of connection points: 2
#     Edge 67, Type (0, 0), BuildingBlock: KIFKEQ_clean_linker_1, # of connection points: 2
#     Edge 68, Type (0, 0), BuildingBlock: KIFKEQ_clean_linker_1, # of connection points: 2
#     Edge 69, Type (0, 0), BuildingBlock: KIFKEQ_clean_linker_1, # of connection points: 2
#     Edge 70, Type (0, 0), BuildingBlock: KIFKEQ_clean_linker_1, # of connection points: 2
#     Edge 71, Type (0, 0), BuildingBlock: KIFKEQ_clean_linker_1, # of connection points: 2
# Relax obj value: 0.037
# Max RMSD: 0.060
# Mean RMSD: 0.060
data_MOF--net-gme--node1-QUQFOY_clean_sbu_1--edge1-KIFKEQ_clean_linker_1
_symmetry_space_group_name_H-M    P1
_symmetry_Int_Tables_number       1
_symmetry_cell_setting            triclinic
loop_
_symmetry_equiv_pos_as_xyz
'x, y, z'
_cell_length_a     64.023176
_cell_length_b     64.029574
_cell_length_c     56.57409
_cell_angle_alpha  90.012178
_cell_angle_beta   89.956158
_cell_angle_gamma 119.99499
loop_
_atom_site_label
_atom_site_type_symbol
_atom_site_fract_x
_atom_site_fract_y
_atom_site_fract_z
_atom_type_partial_charge
O0 O 0.4232 0.0949 0.16844 0.0
Cd1 Cd 0.43778 0.10633 0.1352 0.0
Cd2 Cd 0.41213 0.05741 0.12825 0.0
O3 O 0.39893 0.05606 0.1621 0.0
O4 O 0.45411 0.1421 0.13799 0.0
O5 O 0.42335 0.12144 0.11399 0.0
C6 C 0.43913 0.14196 0.12277 0.0
C7 C 0.38796 0.04033 0.095 0.0
C8 C 0.40742 0.07418 0.17589 0.0
C9 C 0.46593 0.08147 0.12383 0.0
O10 O 0.44618 0.06163 0.12538 0.0
O11 O 0.46622 0.10138 0.12582 0.0
O12 O 0.39038 0.02715 0.1108 0.0
O13 O 0.39816 0.06328 0.09888 0.0
O14 O 0.3265 0.41248 0.66713 0.0
Cd15 Cd 0.33047 0.43119 0.63617 0.0
Cd16 Cd 0.35711 0.40795 0.62613 0.0
O17 O 0.34716 0.39398 0.65998 0.0
O18 O 0.31035 0.44604 0.6437 0.0
O19 O 0.3016 0.42037 0.61435 0.0
C20 C 0.29608 0.43386 0.62673 0.0
C21 C 0.35181 0.38427 0.59279 0.0
C22 C 0.3344 0.39875 0.67378 0.0
C23 C 0.38377 0.46226 0.62496 0.0
O24 O 0.38485 0.44302 0.62339 0.0
O25 O 0.36383 0.46134 0.62932 0.0
O26 O 0.36825 0.38845 0.60827 0.0
O27 O 0.33738 0.3925 0.59694 0.0
O28 O 0.91444 0.32733 0.16835 0.0
Cd29 Cd 0.90119 0.33173 0.13659 0.0
Cd30 Cd 0.95049 0.35694 0.12725 0.0
O31 O 0.95363 0.34654 0.16118 0.0
O32 O 0.8656 0.31178 0.14092 0.0
O33 O 0.88533 0.30302 0.11436 0.0
C34 C 0.86519 0.29768 0.1245 0.0
C35 C 0.96803 0.35041 0.09395 0.0
C36 C 0.93593 0.33448 0.17504 0.0
C37 C 0.92452 0.38505 0.12533 0.0
O38 O 0.94462 0.38563 0.12429 0.0
O39 O 0.90516 0.36531 0.12932 0.0
O40 O 0.98085 0.36663 0.10941 0.0
O41 O 0.94523 0.33684 0.09813 0.0
O42 O 0.59279 0.91636 0.66961 0.0
Cd43 Cd 0.57518 0.90294 0.63782 0.0
Cd44 Cd 0.59901 0.95257 0.62886 0.0
O45 O 0.6124 0.95563 0.66282 0.0
O46 O 0.55895 0.86741 0.64288 0.0
O47 O 0.58746 0.88609 0.61613 0.0
C48 C 0.57236 0.86629 0.62659 0.0
C49 C 0.62305 0.97001 0.59555 0.0
C50 C 0.60689 0.93785 0.6765 0.0
C51 C 0.54506 0.92624 0.62632 0.0
O52 O 0.56442 0.9465 0.62576 0.0
O53 O 0.5457 0.90698 0.63006 0.0
O54 O 0.61964 0.98288 0.61097 0.0
O55 O 0.61389 0.94723 0.59982 0.0
O56 O 0.67787 0.58277 0.17134 0.0
Cd57 Cd 0.67538 0.56815 0.13825 0.0
Cd58 Cd 0.65177 0.59357 0.13048 0.0
O59 O 0.66282 0.60657 0.16455 0.0
O60 O 0.69521 0.55227 0.14166 0.0
O61 O 0.70517 0.58277 0.11734 0.0
C62 C 0.71012 0.56727 0.12647 0.0
C63 C 0.65873 0.61809 0.09747 0.0
C64 C 0.67246 0.59828 0.17858 0.0
C65 C 0.62262 0.53961 0.12605 0.0
O66 O 0.62237 0.55931 0.12713 0.0
O67 O 0.64225 0.53944 0.12868 0.0
O68 O 0.6428 0.61506 0.11315 0.0
O69 O 0.67185 0.6083 0.10132 0.0
O70 O 0.09265 0.67889 0.66609 0.0
Cd71 Cd 0.10515 0.67444 0.63385 0.0
Cd72 Cd 0.05555 0.64938 0.62596 0.0
O73 O 0.05329 0.66013 0.65997 0.0
O74 O 0.14081 0.6936 0.63799 0.0
O75 O 0.12151 0.7035 0.61204 0.0
C76 C 0.14155 0.70817 0.62193 0.0
C77 C 0.03811 0.6563 0.5929 0.0
C78 C 0.07139 0.67204 0.67339 0.0
C79 C 0.08101 0.62096 0.6227 0.0
O80 O 0.0609 0.62041 0.62275 0.0
O81 O 0.10055 0.64074 0.6259 0.0
O82 O 0.02518 0.64021 0.60845 0.0
O83 O 0.06098 0.66956 0.59691 0.0
O84 O 0.91524 0.58946 0.3565 0.0
Cd85 Cd 0.90164 0.57292 0.3886 0.0
Cd86 Cd 0.95108 0.59786 0.39752 0.0
O87 O 0.95418 0.61177 0.36373 0.0
O88 O 0.8664 0.55756 0.38231 0.0
O89 O 0.88442 0.58506 0.40998 0.0
C90 C 0.86495 0.5708 0.39858 0.0
C91 C 0.96862 0.62179 0.43087 0.0
C92 C 0.93643 0.6046 0.34962 0.0
C93 C 0.92521 0.54358 0.40045 0.0
O94 O 0.94528 0.56321 0.40041 0.0
O95 O 0.90561 0.54368 0.39712 0.0
O96 O 0.98144 0.61846 0.41533 0.0
O97 O 0.94581 0.61256 0.42675 0.0
O98 O 0.32938 0.91663 0.85998 0.0
Cd99 Cd 0.33354 0.90451 0.89269 0.0
Cd100 Cd 0.35953 0.95427 0.89879 0.0
O101 O 0.34755 0.95606 0.86538 0.0
O102 O 0.31481 0.86884 0.88843 0.0
O103 O 0.30401 0.88775 0.91394 0.0
C104 C 0.29983 0.86782 0.90415 0.0
C105 C 0.3534 0.97155 0.93245 0.0
C106 C 0.33576 0.93766 0.8523 0.0
C107 C 0.38729 0.9284 0.90252 0.0
O108 O 0.38843 0.94869 0.90039 0.0
O109 O 0.36703 0.90898 0.90162 0.0
O110 O 0.3691 0.98457 0.91663 0.0
O111 O 0.34013 0.94867 0.92845 0.0
O112 O 0.42304 0.32971 0.358 0.0
Cd113 Cd 0.43643 0.33227 0.39185 0.0
Cd114 Cd 0.41057 0.35523 0.39722 0.0
O115 O 0.39707 0.34229 0.36385 0.0
O116 O 0.45336 0.31336 0.38927 0.0
O117 O 0.42159 0.30207 0.41219 0.0
C118 C 0.4379 0.29789 0.4038 0.0
C119 C 0.38695 0.3486 0.43083 0.0
C120 C 0.40665 0.33362 0.35024 0.0
C121 C 0.464 0.38528 0.4026 0.0
O122 O 0.44446 0.38534 0.39881 0.0
O123 O 0.46417 0.36552 0.4028 0.0
O124 O 0.38876 0.36367 0.41469 0.0
O125 O 0.39749 0.33614 0.42715 0.0
O126 O 0.09201 0.41253 0.85759 0.0
Cd127 Cd 0.10676 0.43109 0.88863 0.0
Cd128 Cd 0.05689 0.40792 0.89866 0.0
O129 O 0.05285 0.39405 0.86477 0.0
O130 O 0.14173 0.44593 0.88111 0.0
O131 O 0.12475 0.42011 0.91035 0.0
C132 C 0.14379 0.43366 0.89802 0.0
C133 C 0.03864 0.38425 0.93204 0.0
C134 C 0.07037 0.39884 0.85095 0.0
C135 C 0.08465 0.4622 0.90014 0.0
O136 O 0.06429 0.443 0.90156 0.0
O137 O 0.10364 0.46123 0.89575 0.0
O138 O 0.02632 0.38838 0.9166 0.0
O139 O 0.06129 0.3925 0.92781 0.0
O140 O 0.68031 0.09207 0.35874 0.0
Cd141 Cd 0.6758 0.10543 0.39042 0.0
Cd142 Cd 0.65024 0.05608 0.39971 0.0
O143 O 0.66072 0.05287 0.36583 0.0
O144 O 0.69554 0.14098 0.38583 0.0
O145 O 0.70448 0.12167 0.41265 0.0
C146 C 0.70964 0.14168 0.40237 0.0
C147 C 0.6568 0.0387 0.43308 0.0
C148 C 0.67301 0.07054 0.35203 0.0
C149 C 0.6224 0.08228 0.40155 0.0
O150 O 0.62163 0.06209 0.40261 0.0
O151 O 0.64223 0.10153 0.39759 0.0
O152 O 0.64053 0.02581 0.41769 0.0
O153 O 0.67039 0.06147 0.42878 0.0
O154 O 0.59359 0.67806 0.86214 0.0
Cd155 Cd 0.5762 0.67365 0.89411 0.0
Cd156 Cd 0.60052 0.64814 0.90245 0.0
O157 O 0.61381 0.65894 0.8685 0.0
O158 O 0.55956 0.69259 0.8892 0.0
O159 O 0.58825 0.70277 0.91577 0.0
C160 C 0.57296 0.70725 0.9054 0.0
C161 C 0.62457 0.65437 0.93566 0.0
C162 C 0.60791 0.67103 0.85499 0.0
C163 C 0.54655 0.62009 0.90507 0.0
O164 O 0.56603 0.61938 0.90533 0.0
O165 O 0.54697 0.63995 0.90179 0.0
O166 O 0.62128 0.63837 0.91997 0.0
O167 O 0.6153 0.66795 0.93173 0.0
O168 O 0.58712 0.91179 0.85929 0.0
Cd169 Cd 0.57094 0.8986 0.89158 0.0
Cd170 Cd 0.59634 0.94809 0.89998 0.0
O171 O 0.61006 0.95073 0.86611 0.0
O172 O 0.55546 0.8633 0.88555 0.0
O173 O 0.58333 0.88155 0.91285 0.0
C174 C 0.56897 0.862 0.90161 0.0
C175 C 0.62027 0.96574 0.93333 0.0
C176 C 0.60244 0.9328 0.85215 0.0
C177 C 0.54203 0.92261 0.90314 0.0
O178 O 0.56178 0.94256 0.90282 0.0
O179 O 0.54186 0.90284 0.90015 0.0
O180 O 0.6171 0.97854 0.91765 0.0
O181 O 0.61093 0.9429 0.92933 0.0
O182 O 0.67846 0.59068 0.36178 0.0
Cd183 Cd 0.67435 0.57367 0.39389 0.0
Cd184 Cd 0.64841 0.5976 0.40183 0.0
O185 O 0.65926 0.61087 0.36787 0.0
O186 O 0.69359 0.55735 0.38899 0.0
O187 O 0.7037 0.58626 0.4153 0.0
C188 C 0.70835 0.57107 0.40497 0.0
C189 C 0.65446 0.62142 0.43519 0.0
C190 C 0.67139 0.60491 0.35447 0.0
C191 C 0.62084 0.54365 0.40486 0.0
O192 O 0.61987 0.56298 0.40471 0.0
O193 O 0.64084 0.54429 0.40187 0.0
O194 O 0.63847 0.61816 0.41951 0.0
O195 O 0.66817 0.61232 0.43113 0.0
O196 O 0.09734 0.67637 0.85663 0.0
Cd197 Cd 0.10973 0.67359 0.88957 0.0
Cd198 Cd 0.06062 0.64931 0.89616 0.0
O199 O 0.05851 0.66173 0.86295 0.0
O200 O 0.14515 0.69352 0.88432 0.0
O201 O 0.12609 0.70326 0.91064 0.0
C202 C 0.14594 0.70845 0.89999 0.0
C203 C 0.04373 0.65526 0.93026 0.0
C204 C 0.07665 0.6715 0.84921 0.0
C205 C 0.08581 0.6205 0.89962 0.0
O206 O 0.06584 0.62004 0.89728 0.0
O207 O 0.10557 0.64046 0.89903 0.0
O208 O 0.0305 0.6398 0.91438 0.0
O209 O 0.06659 0.66841 0.92609 0.0
O210 O 0.41515 0.08934 0.35888 0.0
Cd211 Cd 0.43289 0.10298 0.39065 0.0
Cd212 Cd 0.40935 0.05305 0.39829 0.0
O213 O 0.39485 0.05 0.36499 0.0
O214 O 0.44849 0.13816 0.38386 0.0
O215 O 0.42163 0.12088 0.41222 0.0
C216 C 0.43578 0.14009 0.4004 0.0
C217 C 0.38659 0.03566 0.43234 0.0
C218 C 0.40071 0.06808 0.35165 0.0
C219 C 0.4634 0.07985 0.40028 0.0
O220 O 0.44416 0.05948 0.39947 0.0
O221 O 0.46258 0.09924 0.39855 0.0
O222 O 0.38957 0.02279 0.41659 0.0
O223 O 0.39552 0.05841 0.42809 0.0
O224 O 0.33348 0.42041 0.85723 0.0
Cd225 Cd 0.33607 0.43421 0.8909 0.0
Cd226 Cd 0.35961 0.40883 0.89643 0.0
O227 O 0.34689 0.39511 0.86308 0.0
O228 O 0.31713 0.45106 0.88783 0.0
O229 O 0.30583 0.41964 0.91121 0.0
C230 C 0.30164 0.43581 0.90247 0.0
C231 C 0.35278 0.38551 0.93028 0.0
C232 C 0.33777 0.40426 0.8495 0.0
C233 C 0.38914 0.46228 0.90167 0.0
O234 O 0.38948 0.44287 0.89803 0.0
O235 O 0.36924 0.4622 0.90172 0.0
O236 O 0.36807 0.3873 0.91437 0.0
O237 O 0.34023 0.39589 0.92623 0.0
O238 O 0.91468 0.3308 0.35882 0.0
Cd239 Cd 0.90256 0.3336 0.39192 0.0
Cd240 Cd 0.95205 0.35797 0.39765 0.0
O241 O 0.95362 0.34543 0.36432 0.0
O242 O 0.86715 0.31456 0.38627 0.0
O243 O 0.88522 0.3036 0.41252 0.0
C244 C 0.86567 0.29913 0.40169 0.0
C245 C 0.96918 0.352 0.43152 0.0
C246 C 0.93522 0.33561 0.35095 0.0
C247 C 0.92698 0.3868 0.40192 0.0
O248 O 0.94689 0.38728 0.39896 0.0
O249 O 0.90722 0.36683 0.40175 0.0
O250 O 0.9823 0.36742 0.41555 0.0
O251 O 0.94628 0.33888 0.42756 0.0
O252 O 0.09283 0.42014 0.66743 0.0
Cd253 Cd 0.10414 0.43411 0.63382 0.0
Cd254 Cd 0.05506 0.40895 0.62833 0.0
O255 O 0.05405 0.39507 0.66162 0.0
O256 O 0.13992 0.45091 0.63707 0.0
O257 O 0.11992 0.41969 0.61345 0.0
C258 C 0.14024 0.43579 0.62232 0.0
C259 C 0.03798 0.38578 0.59449 0.0
C260 C 0.07235 0.40407 0.67517 0.0
C261 C 0.0794 0.46252 0.62344 0.0
O262 O 0.05959 0.44315 0.62699 0.0
O263 O 0.09914 0.4623 0.62327 0.0
O264 O 0.02479 0.38777 0.61061 0.0
O265 O 0.06093 0.39586 0.59832 0.0
O266 O 0.67766 0.09083 0.168 0.0
Cd267 Cd 0.67504 0.10281 0.13477 0.0
Cd268 Cd 0.65064 0.05313 0.1294 0.0
O269 O 0.66318 0.05187 0.16278 0.0
O270 O 0.69363 0.13824 0.1405 0.0
O271 O 0.70524 0.12052 0.11447 0.0
C272 C 0.70931 0.13997 0.12525 0.0
C273 C 0.65657 0.03577 0.09566 0.0
C274 C 0.67288 0.07036 0.17605 0.0
C275 C 0.62183 0.07808 0.12445 0.0
O276 O 0.6213 0.0582 0.12788 0.0
O277 O 0.64181 0.09782 0.12443 0.0
O278 O 0.64122 0.02274 0.11174 0.0
O279 O 0.66968 0.05869 0.09947 0.0
O280 O 0.58602 0.67544 0.67186 0.0
Cd281 Cd 0.57073 0.67296 0.63905 0.0
Cd282 Cd 0.59553 0.64844 0.63201 0.0
O283 O 0.60989 0.66044 0.66536 0.0
O284 O 0.55505 0.69262 0.64495 0.0
O285 O 0.58369 0.70288 0.61834 0.0
C286 C 0.56899 0.70779 0.62934 0.0
C287 C 0.61865 0.65458 0.59805 0.0
C288 C 0.60169 0.67031 0.6792 0.0
C289 C 0.54149 0.61995 0.62831 0.0
O290 O 0.56093 0.61933 0.63052 0.0
O291 O 0.54179 0.63994 0.62929 0.0
O292 O 0.61611 0.63888 0.6138 0.0
O293 O 0.60905 0.66782 0.60226 0.0
O294 O 0.92242 0.59574 0.16764 0.0
Cd295 Cd 0.90762 0.57684 0.13662 0.0
Cd296 Cd 0.95779 0.59956 0.12787 0.0
O297 O 0.96168 0.61471 0.16096 0.0
O298 O 0.87274 0.56147 0.14481 0.0
O299 O 0.88871 0.58714 0.11533 0.0
C300 C 0.87003 0.57342 0.12802 0.0
C301 C 0.97529 0.62182 0.09358 0.0
C302 C 0.94393 0.60984 0.17445 0.0
C303 C 0.92996 0.54547 0.12694 0.0
O304 O 0.95053 0.56448 0.12704 0.0
O305 O 0.91084 0.54674 0.12917 0.0
O306 O 0.98802 0.61857 0.10928 0.0
O307 O 0.95264 0.61343 0.09799 0.0
O308 O 0.33064 0.9125 0.6685 0.0
Cd309 Cd 0.33362 0.90053 0.6354 0.0
Cd310 Cd 0.35755 0.94982 0.62948 0.0
O311 O 0.34473 0.95132 0.66269 0.0
O312 O 0.31439 0.86507 0.64065 0.0
O313 O 0.30386 0.88358 0.61449 0.0
C314 C 0.29919 0.86387 0.62511 0.0
C315 C 0.35169 0.96686 0.59547 0.0
C316 C 0.33516 0.933 0.67621 0.0
C317 C 0.38681 0.92517 0.62559 0.0
O318 O 0.38707 0.94499 0.62841 0.0
O319 O 0.36695 0.90531 0.62574 0.0
O320 O 0.36693 0.98005 0.61153 0.0
O321 O 0.33868 0.94395 0.59942 0.0
O322 O 0.41502 0.32661 0.16655 0.0
Cd323 Cd 0.43227 0.3308 0.13444 0.0
Cd324 Cd 0.40858 0.3571 0.12782 0.0
O325 O 0.39426 0.34526 0.16112 0.0
O326 O 0.4484 0.31169 0.14102 0.0
O327 O 0.42109 0.30152 0.11306 0.0
C328 C 0.43559 0.29682 0.1247 0.0
C329 C 0.38578 0.3514 0.09381 0.0
C330 C 0.40049 0.33316 0.17419 0.0
C331 C 0.46248 0.38453 0.12501 0.0
O332 O 0.44328 0.38566 0.1266 0.0
O333 O 0.46167 0.36429 0.12614 0.0
O334 O 0.38848 0.36716 0.10956 0.0
O335 O 0.395 0.33783 0.09807 0.0
H336 H 0.39261 0.09835 0.32462 0.0
H337 H 0.3921 0.03076 0.32211 0.0
H338 H 0.38789 0.09738 0.28189 0.0
H339 H 0.3887 0.03031 0.27907 0.0
H340 H 0.42264 0.10944 0.20919 0.0
H341 H 0.41532 0.1052 0.25123 0.0
H342 H 0.36851 0.02833 0.24277 0.0
H343 H 0.37666 0.03255 0.20022 0.0
C344 C 0.39117 0.08311 0.31489 0.0
C345 C 0.39298 0.06477 0.32664 0.0
C346 C 0.38869 0.08263 0.29035 0.0
C347 C 0.38858 0.06411 0.27684 0.0
C348 C 0.38864 0.04484 0.28881 0.0
C349 C 0.39064 0.04509 0.3135 0.0
C350 C 0.41057 0.0916 0.21613 0.0
C351 C 0.40037 0.07132 0.20123 0.0
C352 C 0.40614 0.08918 0.24038 0.0
C353 C 0.39118 0.06641 0.25058 0.0
C354 C 0.38031 0.04612 0.23561 0.0
C355 C 0.38486 0.04855 0.21118 0.0
H356 H 0.29603 0.389 0.70163 0.0
H357 H 0.3644 0.39099 0.70234 0.0
H358 H 0.29321 0.38414 0.74437 0.0
H359 H 0.36223 0.38727 0.7454 0.0
H360 H 0.34874 0.37399 0.82445 0.0
H361 H 0.34438 0.36613 0.78185 0.0
H362 H 0.31344 0.41229 0.77474 0.0
H363 H 0.31709 0.41947 0.81686 0.0
C364 C 0.31031 0.38804 0.71095 0.0
C365 C 0.33056 0.39065 0.6987 0.0
C366 C 0.30881 0.38546 0.73549 0.0
C367 C 0.32779 0.38597 0.74849 0.0
C368 C 0.34723 0.38674 0.73603 0.0
C369 C 0.34852 0.38891 0.71133 0.0
C370 C 0.34067 0.38213 0.81378 0.0
C371 C 0.33334 0.39743 0.82412 0.0
C372 C 0.3383 0.37774 0.78934 0.0
C373 C 0.32849 0.3885 0.77476 0.0
C374 C 0.32061 0.40324 0.78533 0.0
C375 C 0.32293 0.40757 0.8096 0.0
H376 H 0.90694 0.29603 0.20262 0.0
H377 H 0.97377 0.36392 0.20371 0.0
H378 H 0.90941 0.29234 0.24519 0.0
H379 H 0.97567 0.36106 0.24664 0.0
H380 H 0.97636 0.34731 0.32524 0.0
H381 H 0.97937 0.34335 0.28247 0.0
H382 H 0.90199 0.31119 0.27663 0.0
H383 H 0.89898 0.31425 0.31883 0.0
C384 C 0.92232 0.31006 0.212 0.0
C385 C 0.94001 0.33038 0.19992 0.0
C386 C 0.92367 0.30808 0.23646 0.0
C387 C 0.9424 0.32671 0.24958 0.0
C388 C 0.96101 0.34629 0.23722 0.0
C389 C 0.95991 0.348 0.21259 0.0
C390 C 0.96 0.339 0.31479 0.0
C391 C 0.93745 0.33119 0.32552 0.0
C392 C 0.96173 0.33689 0.29025 0.0
C393 C 0.94094 0.32692 0.27594 0.0
C394 C 0.91841 0.31849 0.28693 0.0
C395 C 0.91669 0.32048 0.31129 0.0
H396 H 0.61794 0.90961 0.70338 0.0
H397 H 0.61332 0.97451 0.70591 0.0
H398 H 0.62375 0.91144 0.74599 0.0
H399 H 0.61765 0.97568 0.74888 0.0
H400 H 0.63084 0.9751 0.82759 0.0
H401 H 0.63865 0.97952 0.78494 0.0
H402 H 0.59688 0.90203 0.77714 0.0
H403 H 0.59005 0.89768 0.81918 0.0
C404 C 0.61844 0.92444 0.7131 0.0
C405 C 0.61493 0.94177 0.70141 0.0
C406 C 0.62155 0.92541 0.73757 0.0
C407 C 0.6205 0.94332 0.75111 0.0
C408 C 0.61865 0.96165 0.73915 0.0
C409 C 0.6161 0.96097 0.71449 0.0
C410 C 0.62376 0.95904 0.81674 0.0
C411 C 0.60973 0.93605 0.82686 0.0
C412 C 0.62807 0.96157 0.79226 0.0
C413 C 0.61844 0.94116 0.77743 0.0
C414 C 0.6051 0.91822 0.78783 0.0
C415 C 0.60093 0.91571 0.81211 0.0
H416 H 0.64203 0.61228 0.32463 0.0
H417 H 0.71014 0.61388 0.32762 0.0
H418 H 0.64515 0.61562 0.28157 0.0
H419 H 0.71403 0.61855 0.28489 0.0
H420 H 0.69284 0.58379 0.21221 0.0
H421 H 0.69521 0.59093 0.25425 0.0
H422 H 0.6633 0.63607 0.24525 0.0
H423 H 0.6601 0.62809 0.20266 0.0
C424 C 0.65805 0.61418 0.31612 0.0
C425 C 0.67568 0.61247 0.3294 0.0
C426 C 0.6599 0.61614 0.29141 0.0
C427 C 0.6796 0.61679 0.27959 0.0
C428 C 0.69821 0.61728 0.29324 0.0
C429 C 0.69612 0.61483 0.31778 0.0
C430 C 0.68651 0.59546 0.21903 0.0
C431 C 0.67615 0.60525 0.20395 0.0
C432 C 0.68809 0.59978 0.24329 0.0
C433 C 0.67958 0.61423 0.25333 0.0
C434 C 0.66984 0.62467 0.2382 0.0
C435 C 0.66816 0.62023 0.21376 0.0
H436 H 0.03414 0.64307 0.70291 0.0
H437 H 0.1015 0.7104 0.7005 0.0
H438 H 0.03345 0.64609 0.74593 0.0
H439 H 0.10025 0.71425 0.74319 0.0
H440 H 0.11212 0.69217 0.81617 0.0
H441 H 0.1081 0.69514 0.77411 0.0
H442 H 0.03103 0.66414 0.78207 0.0
H443 H 0.03504 0.66027 0.82467 0.0
C444 C 0.04838 0.65891 0.71153 0.0
C445 C 0.06806 0.67632 0.69844 0.0
C446 C 0.04798 0.66071 0.73622 0.0
C447 C 0.06709 0.68016 0.74821 0.0
C448 C 0.08563 0.6986 0.73472 0.0
C449 C 0.08627 0.69654 0.7102 0.0
C450 C 0.09427 0.68618 0.80912 0.0
C451 C 0.07388 0.67582 0.82389 0.0
C452 C 0.09197 0.68812 0.78485 0.0
C453 C 0.06922 0.67999 0.7745 0.0
C454 C 0.04882 0.67036 0.78935 0.0
C455 C 0.05112 0.6683 0.81381 0.0
H456 H 0.98021 0.6161 0.20425 0.0
H457 H 0.91601 0.62191 0.20064 0.0
H458 H 0.98087 0.62046 0.24719 0.0
H459 H 0.91735 0.62774 0.24325 0.0
H460 H 0.9019 0.59304 0.31617 0.0
H461 H 0.90703 0.60045 0.27422 0.0
H462 H 0.98441 0.64134 0.28327 0.0
H463 H 0.97919 0.63298 0.32578 0.0
C464 C 0.96675 0.6192 0.21259 0.0
C465 C 0.94785 0.61832 0.19921 0.0
C466 C 0.96714 0.62176 0.23723 0.0
C467 C 0.94882 0.62388 0.24888 0.0
C468 C 0.93129 0.62532 0.23506 0.0
C469 C 0.93061 0.62221 0.21059 0.0
C470 C 0.92006 0.60386 0.30939 0.0
C471 C 0.94013 0.61224 0.32444 0.0
C472 C 0.92303 0.60836 0.28518 0.0
C473 C 0.94617 0.62161 0.27515 0.0
C474 C 0.96632 0.63084 0.29029 0.0
C475 C 0.96333 0.6262 0.31469 0.0
H476 H 0.29794 0.90615 0.8253 0.0
H477 H 0.36337 0.97525 0.8226 0.0
H478 H 0.29358 0.90721 0.78267 0.0
H479 H 0.35991 0.9758 0.77965 0.0
H480 H 0.34502 0.974 0.70121 0.0
H481 H 0.3412 0.97745 0.74391 0.0
H482 H 0.31289 0.9007 0.75116 0.0
H483 H 0.31574 0.89719 0.70901 0.0
C484 C 0.31129 0.92169 0.81555 0.0
C485 C 0.33113 0.94048 0.82721 0.0
C486 C 0.30894 0.92224 0.79105 0.0
C487 C 0.32672 0.94129 0.77749 0.0
C488 C 0.34578 0.96087 0.7894 0.0
C489 C 0.34784 0.96054 0.81405 0.0
C490 C 0.33758 0.95785 0.71195 0.0
C491 C 0.33078 0.93534 0.70162 0.0
C492 C 0.33555 0.95984 0.73646 0.0
C493 C 0.32672 0.93937 0.75116 0.0
C494 C 0.31929 0.91685 0.74057 0.0
C495 C 0.32116 0.91485 0.71624 0.0
H496 H 0.37447 0.34216 0.32567 0.0
H497 H 0.42438 0.31584 0.31698 0.0
H498 H 0.36681 0.33819 0.28305 0.0
H499 H 0.41745 0.31269 0.27483 0.0
H500 H 0.39479 0.29565 0.20131 0.0
H501 H 0.3904 0.29185 0.24407 0.0
H502 H 0.38692 0.35751 0.24693 0.0
H503 H 0.39013 0.36056 0.20388 0.0
C504 C 0.38365 0.33536 0.31474 0.0
C505 C 0.40009 0.32939 0.3248 0.0
C506 C 0.37938 0.33323 0.29029 0.0
C507 C 0.39145 0.32507 0.27538 0.0
C508 C 0.40739 0.31855 0.28565 0.0
C509 C 0.41156 0.32058 0.30995 0.0
C510 C 0.39252 0.30896 0.21105 0.0
C511 C 0.39307 0.32854 0.1993 0.0
C512 C 0.39021 0.30692 0.2356 0.0
C513 C 0.38894 0.32471 0.24912 0.0
C514 C 0.38778 0.34341 0.23717 0.0
C515 C 0.38966 0.34521 0.21247 0.0
H516 H 0.10828 0.41901 0.70772 0.0
H517 H 0.03106 0.37407 0.70031 0.0
H518 H 0.1048 0.41195 0.74985 0.0
H519 H 0.0276 0.3663 0.74294 0.0
H520 H 0.03269 0.3913 0.82238 0.0
H521 H 0.03109 0.3875 0.77932 0.0
H522 H 0.09677 0.38398 0.78036 0.0
H523 H 0.09888 0.38894 0.82309 0.0
C524 C 0.09053 0.40724 0.71502 0.0
C525 C 0.06995 0.39723 0.70054 0.0
C526 C 0.08853 0.40298 0.73931 0.0
C527 C 0.0659 0.38842 0.74994 0.0
C528 C 0.0453 0.37777 0.7354 0.0
C529 C 0.0473 0.3821 0.71095 0.0
C530 C 0.04644 0.38913 0.81339 0.0
C531 C 0.0661 0.39077 0.82602 0.0
C532 C 0.04552 0.38691 0.78869 0.0
C533 C 0.06411 0.38599 0.77623 0.0
C534 C 0.08255 0.38541 0.78923 0.0
C535 C 0.08367 0.38805 0.81377 0.0
H536 H 0.71156 0.09953 0.32452 0.0
H537 H 0.64376 0.0326 0.32337 0.0
H538 H 0.71549 0.0969 0.282 0.0
H539 H 0.64688 0.03053 0.28049 0.0
H540 H 0.66118 0.02943 0.20207 0.0
H541 H 0.66488 0.02669 0.2449 0.0
H542 H 0.69678 0.10407 0.25028 0.0
H543 H 0.69397 0.10682 0.20801 0.0
C544 C 0.6976 0.0841 0.31514 0.0
C545 C 0.67724 0.06642 0.32719 0.0
C546 C 0.69972 0.08266 0.29071 0.0
C547 C 0.6812 0.06383 0.27758 0.0
C548 C 0.66157 0.04525 0.28992 0.0
C549 C 0.65971 0.04645 0.31453 0.0
C550 C 0.66938 0.04585 0.21242 0.0
C551 C 0.67718 0.06832 0.20154 0.0
C552 C 0.67134 0.04428 0.23701 0.0
C553 C 0.68115 0.06515 0.25121 0.0
C554 C 0.68959 0.0876 0.24008 0.0
C555 C 0.68775 0.08917 0.21568 0.0
H556 H 0.58742 0.69135 0.71234 0.0
H557 H 0.63167 0.65844 0.70364 0.0
H558 H 0.59457 0.6943 0.75437 0.0
H559 H 0.63971 0.66227 0.74621 0.0
H560 H 0.61567 0.64166 0.82555 0.0
H561 H 0.61928 0.64452 0.78252 0.0
H562 H 0.62183 0.71325 0.78512 0.0
H563 H 0.61685 0.70958 0.82783 0.0
C564 C 0.5991 0.68512 0.71933 0.0
C565 C 0.60883 0.67451 0.70451 0.0
C566 C 0.60343 0.68704 0.74359 0.0
C567 C 0.61786 0.67864 0.75388 0.0
C568 C 0.62831 0.66872 0.73898 0.0
C569 C 0.62385 0.66668 0.71454 0.0
C570 C 0.61753 0.65759 0.8169 0.0
C571 C 0.61562 0.67523 0.82996 0.0
C572 C 0.61966 0.6593 0.7922 0.0
C573 C 0.62029 0.67887 0.78016 0.0
C574 C 0.62058 0.69752 0.79362 0.0
C575 C 0.61795 0.69556 0.81815 0.0
H576 H 0.40176 0.14794 0.10754 0.0
H577 H 0.47746 0.18727 0.12514 0.0
H578 H 0.40148 0.18597 0.10474 0.0
H579 H 0.47758 0.22513 0.12126 0.0
H580 H 0.46181 0.28178 0.14962 0.0
H581 H 0.46291 0.24481 0.14531 0.0
H582 H 0.41411 0.22441 0.08592 0.0
H583 H 0.41235 0.26156 0.09087 0.0
C584 C 0.41846 0.16475 0.1102 0.0
C585 C 0.43954 0.16467 0.11691 0.0
C586 C 0.41834 0.18656 0.10853 0.0
C587 C 0.43941 0.20867 0.11325 0.0
C588 C 0.46084 0.20847 0.11823 0.0
C589 C 0.46084 0.18676 0.12029 0.0
C590 C 0.45141 0.26957 0.13548 0.0
C591 C 0.43702 0.2747 0.12056 0.0
C592 C 0.45219 0.24834 0.13287 0.0
C593 C 0.43882 0.23162 0.11507 0.0
C594 C 0.42454 0.2368 0.09991 0.0
C595 C 0.42363 0.25813 0.10265 0.0
H596 H 0.1854 0.47413 0.62644 0.0
H597 H 0.14698 0.39892 0.60685 0.0
H598 H 0.22346 0.47454 0.62353 0.0
H599 H 0.18523 0.39896 0.60489 0.0
H600 H 0.26179 0.41146 0.59191 0.0
H601 H 0.22441 0.41276 0.58667 0.0
H602 H 0.24244 0.45906 0.64785 0.0
H603 H 0.27962 0.45838 0.65253 0.0
C604 C 0.18513 0.45768 0.62137 0.0
C605 C 0.1632 0.43643 0.61714 0.0
C606 C 0.20696 0.45785 0.61985 0.0
C607 C 0.20745 0.43664 0.61452 0.0
C608 C 0.18557 0.41564 0.60898 0.0
C609 C 0.16364 0.41558 0.61016 0.0
C610 C 0.25779 0.42208 0.60405 0.0
C611 C 0.27376 0.43492 0.62255 0.0
C612 C 0.23632 0.42271 0.60114 0.0
C613 C 0.23045 0.43619 0.6167 0.0
C614 C 0.24654 0.44897 0.63513 0.0
C615 C 0.26789 0.44843 0.63794 0.0
H616 H 0.82007 0.29096 0.12817 0.0
H617 H 0.85869 0.25451 0.1081 0.0
H618 H 0.782 0.25351 0.1241 0.0
H619 H 0.8205 0.2164 0.10527 0.0
H620 H 0.74485 0.15205 0.09169 0.0
H621 H 0.78218 0.19086 0.08715 0.0
H622 H 0.76173 0.21882 0.14694 0.0
H623 H 0.72452 0.18092 0.15071 0.0
C624 C 0.82036 0.27487 0.12277 0.0
C625 C 0.84231 0.27557 0.11868 0.0
C626 C 0.79853 0.2533 0.12063 0.0
C627 C 0.79808 0.23167 0.11494 0.0
C628 C 0.82006 0.23265 0.1096 0.0
C629 C 0.84198 0.25446 0.11128 0.0
C630 C 0.74832 0.16666 0.10363 0.0
C631 C 0.73163 0.16343 0.12145 0.0
C632 C 0.76977 0.18885 0.10115 0.0
C633 C 0.775 0.20818 0.11653 0.0
C634 C 0.75818 0.20473 0.1343 0.0
C635 C 0.7368 0.1828 0.1366 0.0
H636 H 0.54469 0.72462 0.65491 0.0
H637 H 0.59277 0.74257 0.5952 0.0
H638 H 0.54527 0.76244 0.65075 0.0
H639 H 0.5926 0.78053 0.5903 0.0
H640 H 0.60809 0.85823 0.61025 0.0
H641 H 0.60675 0.81938 0.60796 0.0
H642 H 0.53139 0.78307 0.62764 0.0
H643 H 0.53325 0.82177 0.63114 0.0
C644 C 0.55511 0.73651 0.64058 0.0
C645 C 0.56862 0.73049 0.62534 0.0
C646 C 0.5553 0.75825 0.63805 0.0
C647 C 0.56874 0.77458 0.61997 0.0
C648 C 0.58216 0.7685 0.60452 0.0
C649 C 0.58215 0.74669 0.60722 0.0
C650 C 0.59121 0.84185 0.61375 0.0
C651 C 0.57087 0.84299 0.6212 0.0
C652 C 0.59039 0.81956 0.61237 0.0
C653 C 0.56908 0.79801 0.61811 0.0
C654 C 0.54834 0.79926 0.62387 0.0
C655 C 0.54932 0.82145 0.62569 0.0
H656 H 0.75294 0.60451 0.10987 0.0
H657 H 0.71826 0.5298 0.13107 0.0
H658 H 0.79163 0.60552 0.1073 0.0
H659 H 0.75637 0.5304 0.12755 0.0
H660 H 0.82984 0.54879 0.1549 0.0
H661 H 0.79144 0.54708 0.15099 0.0
H662 H 0.81736 0.59232 0.08887 0.0
H663 H 0.8566 0.59468 0.09333 0.0
C664 C 0.75349 0.58817 0.11341 0.0
C665 C 0.73268 0.56718 0.12101 0.0
C666 C 0.77564 0.58871 0.11188 0.0
C667 C 0.77727 0.56817 0.11768 0.0
C668 C 0.756 0.54678 0.12366 0.0
C669 C 0.73407 0.54636 0.12552 0.0
C670 C 0.82743 0.55829 0.14027 0.0
C671 C 0.84632 0.57181 0.12438 0.0
C672 C 0.80523 0.55715 0.1379 0.0
C673 C 0.80108 0.56931 0.11942 0.0
C674 C 0.81995 0.58282 0.10338 0.0
C675 C 0.84237 0.58407 0.10584 0.0
H676 H 0.26416 0.85315 0.59135 0.0
H677 H 0.28304 0.82223 0.64965 0.0
H678 H 0.22642 0.81487 0.58611 0.0
H679 H 0.24544 0.78484 0.64517 0.0
H680 H 0.18623 0.7137 0.62512 0.0
H681 H 0.22478 0.75072 0.62152 0.0
H682 H 0.1878 0.78966 0.60406 0.0
H683 H 0.14911 0.752 0.60643 0.0
C684 C 0.2603 0.8382 0.60298 0.0
C685 C 0.27668 0.8407 0.62082 0.0
C686 C 0.23861 0.81632 0.60009 0.0
C687 C 0.23285 0.79657 0.61507 0.0
C688 C 0.24939 0.79928 0.63283 0.0
C689 C 0.271 0.82091 0.63555 0.0
C690 C 0.18637 0.7301 0.62011 0.0
C691 C 0.1647 0.73004 0.61629 0.0
C692 C 0.20847 0.75142 0.61824 0.0
C693 C 0.20949 0.77341 0.6131 0.0
C694 C 0.1878 0.7731 0.60798 0.0
C695 C 0.1656 0.75155 0.6094 0.0
H696 H 0.85372 0.5935 0.43367 0.0
H697 H 0.82375 0.5467 0.3731 0.0
H698 H 0.8153 0.59256 0.43948 0.0
H699 H 0.78618 0.54649 0.37823 0.0
H700 H 0.71453 0.53247 0.39968 0.0
H701 H 0.75186 0.53141 0.40219 0.0
H702 H 0.78996 0.60656 0.42252 0.0
H703 H 0.75202 0.60713 0.42113 0.0
C704 C 0.83896 0.58301 0.42164 0.0
C705 C 0.84176 0.57006 0.40302 0.0
C706 C 0.81699 0.58257 0.42488 0.0
C707 C 0.79745 0.56926 0.40948 0.0
C708 C 0.80047 0.55642 0.39087 0.0
C709 C 0.8222 0.55669 0.38779 0.0
C710 C 0.73081 0.54866 0.40507 0.0
C711 C 0.73043 0.56995 0.40997 0.0
C712 C 0.7523 0.54814 0.40633 0.0
C713 C 0.77414 0.56907 0.41197 0.0
C714 C 0.77353 0.59007 0.41817 0.0
C715 C 0.75181 0.59045 0.41733 0.0
H716 H 0.18788 0.72545 0.87572 0.0
H717 H 0.1557 0.74327 0.93373 0.0
H718 H 0.22477 0.76349 0.88039 0.0
H719 H 0.19346 0.7815 0.93914 0.0
H720 H 0.25547 0.8594 0.91904 0.0
H721 H 0.21821 0.8203 0.92115 0.0
H722 H 0.25857 0.7846 0.90444 0.0
H723 H 0.2952 0.82351 0.90113 0.0
C724 C 0.18881 0.73736 0.88979 0.0
C725 C 0.16881 0.73124 0.90439 0.0
C726 C 0.21015 0.75923 0.89261 0.0
C727 C 0.21235 0.77561 0.91035 0.0
C728 C 0.1924 0.76943 0.92519 0.0
C729 C 0.17081 0.74747 0.9222 0.0
C730 C 0.25631 0.84311 0.91618 0.0
C731 C 0.27811 0.84446 0.90958 0.0
C732 C 0.23499 0.82068 0.91745 0.0
C733 C 0.23521 0.79922 0.91247 0.0
C734 C 0.25748 0.80071 0.90761 0.0
C735 C 0.27857 0.82302 0.9059 0.0
H736 H 0.46168 0.18152 0.37558 0.0
H737 H 0.41226 0.15165 0.43435 0.0
H738 H 0.46239 0.2194 0.38012 0.0
H739 H 0.41359 0.19034 0.43951 0.0
H740 H 0.40059 0.25416 0.41838 0.0
H741 H 0.40061 0.21598 0.42073 0.0
H742 H 0.47682 0.25357 0.40457 0.0
H743 H 0.47644 0.29121 0.40122 0.0
C744 C 0.4512 0.18314 0.38975 0.0
C745 C 0.43695 0.16352 0.40464 0.0
C746 C 0.45175 0.20504 0.3925 0.0
C747 C 0.43826 0.20814 0.41037 0.0
C748 C 0.4241 0.18856 0.42546 0.0
C749 C 0.42345 0.16645 0.42262 0.0
C750 C 0.41738 0.25422 0.4157 0.0
C751 C 0.43843 0.27557 0.40927 0.0
C752 C 0.41743 0.23237 0.41711 0.0
C753 C 0.43862 0.23156 0.41237 0.0
C754 C 0.45999 0.25332 0.40761 0.0
C755 C 0.45984 0.27497 0.40585 0.0
H756 H 0.25802 0.39882 0.91775 0.0
H757 H 0.29479 0.47416 0.89859 0.0
H758 H 0.21978 0.39879 0.91972 0.0
H759 H 0.2571 0.47449 0.9015 0.0
H760 H 0.18484 0.45835 0.87233 0.0
H761 H 0.22271 0.45908 0.87706 0.0
H762 H 0.1943 0.41245 0.93802 0.0
H763 H 0.15562 0.41111 0.93274 0.0
C764 C 0.25801 0.41549 0.91454 0.0
C765 C 0.27929 0.4364 0.90768 0.0
C766 C 0.23612 0.41552 0.91573 0.0
C767 C 0.23522 0.43653 0.9103 0.0
C768 C 0.25693 0.45779 0.90509 0.0
C769 C 0.27861 0.45766 0.90358 0.0
C770 C 0.1866 0.44834 0.88688 0.0
C771 C 0.16717 0.43472 0.9022 0.0
C772 C 0.20849 0.44891 0.88972 0.0
C773 C 0.21177 0.43605 0.90811 0.0
C774 C 0.19237 0.42247 0.92359 0.0
C775 C 0.17027 0.42181 0.92066 0.0
H776 H 0.71545 0.18642 0.39884 0.0
H777 H 0.75311 0.14898 0.41875 0.0
H778 H 0.75246 0.22487 0.40302 0.0
H779 H 0.7908 0.18759 0.42169 0.0
H780 H 0.8542 0.26379 0.43531 0.0
H781 H 0.81578 0.22604 0.43987 0.0
H782 H 0.78707 0.24566 0.38014 0.0
H783 H 0.82457 0.28325 0.37635 0.0
C784 C 0.73172 0.18648 0.40422 0.0
C785 C 0.73149 0.16475 0.40823 0.0
C786 C 0.75303 0.20852 0.40643 0.0
C787 C 0.77488 0.20943 0.4121 0.0
C788 C 0.77437 0.18767 0.41737 0.0
C789 C 0.7528 0.16552 0.41563 0.0
C790 C 0.83951 0.26005 0.42339 0.0
C791 C 0.84241 0.27661 0.40557 0.0
C792 C 0.81754 0.23836 0.42589 0.0
C793 C 0.79812 0.23277 0.41052 0.0
C794 C 0.80123 0.24947 0.39277 0.0
C795 C 0.82294 0.27108 0.39045 0.0
H796 H 0.5337 0.71239 0.90065 0.0
H797 H 0.60843 0.75112 0.92178 0.0
H798 H 0.53162 0.74913 0.90391 0.0
H799 H 0.60685 0.78851 0.92387 0.0
H800 H 0.59241 0.8511 0.93615 0.0
H801 H 0.59232 0.81304 0.94136 0.0
H802 H 0.54557 0.78361 0.88061 0.0
H803 H 0.54492 0.82078 0.87613 0.0
C804 C 0.54969 0.72883 0.90611 0.0
C805 C 0.57129 0.72897 0.91072 0.0
C806 C 0.54858 0.74998 0.90779 0.0
C807 C 0.56922 0.77203 0.91357 0.0
C808 C 0.59056 0.77191 0.91944 0.0
C809 C 0.59152 0.75051 0.91819 0.0
C810 C 0.58193 0.83633 0.92413 0.0
C811 C 0.56856 0.83894 0.90582 0.0
C812 C 0.58199 0.81457 0.92701 0.0
C813 C 0.56877 0.79506 0.91154 0.0
C814 C 0.55546 0.79786 0.8933 0.0
C815 C 0.55523 0.81938 0.89059 0.0
H816 H 0.38114 0.0183 0.94663 0.0
H817 H 0.32388 0.94904 0.97041 0.0
H818 H 0.38444 0.03461 0.98607 0.0
H819 H 0.32665 0.96562 1.00992 0.0
H820 H 0.36777 0.99339 0.08106 0.0
H821 H 0.35479 0.97713 0.04161 0.0
H822 H 0.36791 0.0467 0.01742 0.0
H823 H 0.38169 0.0632 0.05694 0.0
C824 C 0.36885 0.00667 0.96016 0.0
C825 C 0.35242 0.98227 0.95539 0.0
C826 C 0.37063 0.0161 0.98283 0.0
C827 C 0.35595 1.00142 1.00135 0.0
C828 C 0.33855 0.97735 0.99622 0.0
C829 C 0.33684 0.96787 0.97351 0.0
C830 C 0.36752 0.00516 0.06745 0.0
C831 C 0.37604 0.02969 0.07213 0.0
C832 C 0.3599 0.99577 0.04477 0.0
C833 C 0.36049 0.01062 0.02615 0.0
C834 C 0.36764 0.03483 0.0312 0.0
C835 C 0.37537 0.04426 0.05391 0.0
H836 H 0.36571 0.37458 0.44424 0.0
H837 H 0.38215 0.32079 0.4696 0.0
H838 H 0.35278 0.37823 0.48364 0.0
H839 H 0.36849 0.32392 0.50907 0.0
H840 H 0.32165 0.37534 0.55496 0.0
H841 H 0.32484 0.36127 0.5157 0.0
H842 H 0.38467 0.35352 0.53972 0.0
H843 H 0.38103 0.36685 0.5789 0.0
C844 C 0.36605 0.3631 0.45811 0.0
C845 C 0.37523 0.34758 0.45379 0.0
C846 C 0.35846 0.36508 0.48076 0.0
C847 C 0.35977 0.35154 0.49969 0.0
C848 C 0.36764 0.33496 0.49503 0.0
C849 C 0.37531 0.33303 0.47235 0.0
C850 C 0.33516 0.37017 0.55195 0.0
C851 C 0.35121 0.37242 0.57004 0.0
C852 C 0.33711 0.36226 0.52939 0.0
C853 C 0.35518 0.35646 0.52439 0.0
C854 C 0.37036 0.35753 0.54288 0.0
C855 C 0.36837 0.36536 0.5654 0.0
H856 H 0.99183 0.36598 0.94577 0.0
H857 H 0.06032 0.37646 0.97021 0.0
H858 H 0.97499 0.35304 0.98508 0.0
H859 H 0.04323 0.36286 1.00961 0.0
H860 H 0.94547 0.32125 0.05581 0.0
H861 H 0.96232 0.32391 0.01643 0.0
H862 H 0.03169 0.38036 0.04095 0.0
H863 H 0.01507 0.37726 0.08025 0.0
C864 C 1.00317 0.36502 0.95942 0.0
C865 C 0.02752 0.37252 0.95487 0.0
C866 C 0.99343 0.35741 0.982 0.0
C867 C 0.00777 0.35706 1.00066 0.0
C868 C 0.03177 0.36328 0.99577 0.0
C869 C 0.04153 0.37092 0.97313 0.0
C870 C 0.96444 0.33387 0.05289 0.0
C871 C 0.97886 0.34919 0.07115 0.0
C872 C 0.97407 0.33553 0.03027 0.0
C873 C 0.99833 0.35254 0.02538 0.0
C874 C 0.01302 0.36688 0.04403 0.0
C875 C 1.00342 0.3652 0.06661 0.0
H876 H 0.68657 0.06131 0.47082 0.0
H877 H 0.62943 0.9919 0.44728 0.0
H878 H 0.68405 0.0448 0.51031 0.0
H879 H 0.62644 0.97563 0.4867 0.0
H880 H 0.6299 0.94738 0.55761 0.0
H881 H 0.64356 0.96388 0.51804 0.0
H882 H 0.6555 0.03311 0.54197 0.0
H883 H 0.64255 0.01685 0.58145 0.0
C884 C 0.67372 0.04245 0.47396 0.0
C885 C 0.65806 0.028 0.45593 0.0
C886 C 0.67215 0.03302 0.49666 0.0
C887 C 0.65486 0.00892 0.50184 0.0
C888 C 0.64015 0.99417 0.4834 0.0
C889 C 0.64176 0.00358 0.46075 0.0
C890 C 0.63593 0.96625 0.55452 0.0
C891 C 0.63492 0.98072 0.57266 0.0
C892 C 0.64361 0.97568 0.53178 0.0
C893 C 0.6504 0.99979 0.52667 0.0
C894 C 0.65067 0.01456 0.54521 0.0
C895 C 0.64306 0.00516 0.5679 0.0
H896 H 0.63179 0.6382 0.08387 0.0
H897 H 0.68809 0.62503 0.05937 0.0
H898 H 0.62864 0.6517 0.04462 0.0
H899 H 0.68545 0.63928 0.02005 0.0
H900 H 0.64379 0.62665 0.9493 0.0
H901 H 0.65682 0.62297 0.98859 0.0
H902 H 0.6455 0.68044 1.01327 0.0
H903 H 0.63172 0.68363 0.97389 0.0
C904 C 0.64392 0.63872 0.07023 0.0
C905 C 0.66001 0.63027 0.07474 0.0
C906 C 0.64222 0.64664 0.04767 0.0
C907 C 0.65663 0.64641 0.029 0.0
C908 C 0.67375 0.6393 0.03387 0.0
C909 C 0.6754 0.63129 0.05648 0.0
C910 C 0.64445 0.63881 0.96297 0.0
C911 C 0.63645 0.65526 0.95847 0.0
C912 C 0.6521 0.6368 0.98556 0.0
C913 C 0.65205 0.65126 1.00427 0.0
C914 C 0.64538 0.66871 0.99941 0.0
C915 C 0.63764 0.67067 0.97677 0.0
H916 H 0.99115 0.62929 0.5791 0.0
H917 H 0.06068 0.68575 0.55492 0.0
H918 H 0.97471 0.62612 0.53976 0.0
H919 H 0.04399 0.68307 0.5155 0.0
H920 H 0.01547 0.64109 0.44479 0.0
H921 H 0.03195 0.65429 0.48413 0.0
H922 H 0.96298 0.64298 0.50825 0.0
H923 H 0.94624 0.62903 0.46882 0.0
C924 C 1.00281 0.64145 0.56551 0.0
C925 C 0.02732 0.65759 0.57013 0.0
C926 C 0.99331 0.63974 0.5429 0.0
C927 C 0.00804 0.65418 0.52429 0.0
C928 C 0.03222 0.67136 0.52928 0.0
C929 C 0.04176 0.67303 0.55194 0.0
C930 C 1.00388 0.64178 0.45835 0.0
C931 C 0.97945 0.63372 0.45369 0.0
C932 C 0.01341 0.64954 0.48096 0.0
C933 C 0.99877 0.64954 0.49952 0.0
C934 C 0.97467 0.64282 0.49449 0.0
C935 C 0.96511 0.63498 0.47184 0.0
H936 H 0.62762 0.94355 0.97134 0.0
H937 H 0.63934 0.0126 0.94722 0.0
H938 H 0.64167 0.96042 1.01071 0.0
H939 H 0.65263 0.02921 0.98651 0.0
H940 H 0.6292 0.98879 0.08195 0.0
H941 H 0.62529 0.97225 0.04252 0.0
H942 H 0.68163 0.04153 0.01757 0.0
H943 H 0.68502 0.05831 0.05708 0.0
C944 C 0.6335 0.9624 0.97433 0.0
C945 C 0.63216 0.97665 0.95616 0.0
C946 C 0.64139 0.97205 0.99696 0.0
C947 C 0.64807 0.99615 1.00195 0.0
C948 C 0.64792 0.01068 0.98338 0.0
C949 C 0.64012 1.00107 0.96079 0.0
C950 C 0.64106 1.00044 0.06817 0.0
C951 C 0.65726 0.02496 0.07266 0.0
C952 C 0.63892 0.99088 0.0455 0.0
C953 C 0.65299 0.00556 0.02669 0.0
C954 C 0.67018 0.02978 0.0315 0.0
C955 C 0.67226 0.03938 0.05421 0.0
H956 H 0.68369 0.62844 0.47338 0.0
H957 H 0.62634 0.6401 0.44921 0.0
H958 H 0.68024 0.64169 0.51294 0.0
H959 H 0.62241 0.65262 0.4887 0.0
H960 H 0.62473 0.68363 0.55994 0.0
H961 H 0.63858 0.68105 0.52038 0.0
H962 H 0.65147 0.62437 0.54428 0.0
H963 H 0.63834 0.62745 0.58376 0.0
C964 C 0.67059 0.63416 0.4764 0.0
C965 C 0.65517 0.63301 0.45814 0.0
C966 C 0.66847 0.64159 0.49914 0.0
C967 C 0.65085 0.64799 0.50417 0.0
C968 C 0.63636 0.64809 0.48554 0.0
C969 C 0.63852 0.64074 0.46283 0.0
C970 C 0.63097 0.67095 0.55684 0.0
C971 C 0.63024 0.65562 0.575 0.0
C972 C 0.63876 0.66935 0.5341 0.0
C973 C 0.64595 0.65233 0.52898 0.0
C974 C 0.64636 0.63789 0.54751 0.0
C975 C 0.63865 0.63954 0.57021 0.0
H976 H 0.95304 0.6289 0.05547 0.0
H977 H 0.02179 0.63941 0.07909 0.0
H978 H 0.9696 0.64205 0.01582 0.0
H979 H 0.03808 0.65185 0.03953 0.0
H980 H 0.06686 0.6838 0.96859 0.0
H981 H 0.05051 0.68083 1.00826 0.0
H982 H 0.98075 0.62478 0.9841 0.0
H983 H 0.99687 0.62823 0.94451 0.0
C984 C 0.97176 0.6343 0.0523 0.0
C985 C 0.98602 0.63292 0.07043 0.0
C986 C 0.98122 0.64168 0.02952 0.0
C987 C 0.00514 0.64782 0.02434 0.0
C988 C 0.01969 0.64755 0.04283 0.0
C989 C 0.01026 0.64024 0.06556 0.0
C990 C 0.04792 0.67118 0.97167 0.0
C991 C 0.03324 0.65612 0.9534 0.0
C992 C 0.03857 0.66934 0.99446 0.0
C993 C 0.01434 0.65238 0.99952 0.0
C994 C 0.99941 0.63824 0.9809 0.0
C995 C 0.00872 0.64011 0.95815 0.0
H996 H 0.37899 0.01374 0.5814 0.0
H997 H 0.32331 0.94397 0.55699 0.0
H998 H 0.38279 0.03 0.54184 0.0
H999 H 0.3266 0.96046 0.51736 0.0
H1000 H 0.36833 0.98904 0.44671 0.0
H1001 H 0.35556 0.97273 0.48619 0.0
H1002 H 0.3661 0.04148 0.51001 0.0
H1003 H 0.37962 0.05806 0.47044 0.0
C1004 C 0.36715 1.00197 0.5677 0.0
C1005 C 0.35101 0.97747 0.57235 0.0
C1006 C 0.36923 0.01137 0.54495 0.0
C1007 C 0.35515 0.99653 0.52625 0.0
C1008 C 0.33804 0.97232 0.53122 0.0
C1009 C 0.33602 0.96289 0.55399 0.0
C1010 C 0.36759 1.00062 0.46024 0.0
C1011 C 0.37523 0.02495 0.45542 0.0
C1012 C 0.36008 0.99119 0.48294 0.0
C1013 C 0.35993 0.00579 0.50145 0.0
C1014 C 0.36638 0.0298 0.49631 0.0
C1015 C 0.37397 0.03928 0.47357 0.0
H1016 H 0.36761 0.37973 0.07911 0.0
H1017 H 0.37884 0.3218 0.05595 0.0
H1018 H 0.35512 0.3832 0.0395 0.0
H1019 H 0.36556 0.32475 0.01626 0.0
H1020 H 0.32395 0.38017 0.96838 0.0
H1021 H 0.32658 0.36677 1.00811 0.0
H1022 H 0.38256 0.35269 0.9844 0.0
H1023 H 0.37938 0.3653 0.94473 0.0
C1024 C 0.3669 0.36734 0.06568 0.0
C1025 C 0.37448 0.35064 0.07068 0.0
C1026 C 0.35955 0.36922 0.0429 0.0
C1027 C 0.35947 0.35439 0.02451 0.0
C1028 C 0.3658 0.33677 0.02985 0.0
C1029 C 0.37325 0.33495 0.05267 0.0
C1030 C 0.33647 0.37374 0.97156 0.0
C1031 C 0.35159 0.374 0.9534 0.0
C1032 C 0.33811 0.36622 0.9944 0.0
C1033 C 0.35499 0.35888 0.99962 0.0
C1034 C 0.36917 0.35795 0.98109 0.0
C1035 C 0.36745 0.36535 0.95829 0.0
H1036 H 0.06075 0.3799 0.55608 0.0
H1037 H 0.99112 0.36634 0.58048 0.0
H1038 H 0.04422 0.36659 0.51649 0.0
H1039 H 0.97483 0.35383 0.54096 0.0
H1040 H 0.94653 0.32286 0.46968 0.0
H1041 H 0.96307 0.32576 0.50921 0.0
H1042 H 0.03222 0.38315 0.48518 0.0
H1043 H 0.01594 0.37971 0.44572 0.0
C1044 C 0.04185 0.37379 0.55309 0.0
C1045 C 0.02732 0.37437 0.57143 0.0
C1046 C 0.03239 0.36632 0.53033 0.0
C1047 C 0.00821 0.35936 0.52536 0.0
C1048 C 0.99343 0.35878 0.54406 0.0
C1049 C 1.00284 0.36612 0.56679 0.0
C1050 C 0.96538 0.33577 0.47276 0.0
C1051 C 0.97984 0.35117 0.45456 0.0
C1052 C 0.97484 0.33756 0.49548 0.0
C1053 C 0.99896 0.35487 0.50056 0.0
C1054 C 0.01368 0.36941 0.48199 0.0
C1055 C 1.00426 0.36754 0.4593 0.0
H1056 H 0.5117 0.11867 0.13136 0.0
H1057 H 0.47208 0.04402 0.10972 0.0
H1058 H 0.54914 0.11769 0.12963 0.0
H1059 H 0.50967 0.04328 0.10692 0.0
H1060 H 0.57614 0.04156 0.13367 0.0
H1061 H 0.53881 0.04266 0.13158 0.0
H1062 H 0.57818 0.11593 0.10559 0.0
H1063 H 0.61572 0.11513 0.10872 0.0
C1064 C 0.51103 0.10214 0.12584 0.0
C1065 C 0.48888 0.08137 0.12084 0.0
C1066 C 0.53257 0.10161 0.1247 0.0
C1067 C 0.53254 0.08037 0.11822 0.0
C1068 C 0.5104 0.05982 0.11247 0.0
C1069 C 0.48882 0.06027 0.11392 0.0
C1070 C 0.57682 0.05787 0.12737 0.0
C1071 C 0.59894 0.0783 0.12148 0.0
C1072 C 0.55534 0.05846 0.12601 0.0
C1073 C 0.55535 0.07941 0.11844 0.0
C1074 C 0.57746 0.09963 0.11193 0.0
C1075 C 0.599 0.09913 0.11358 0.0
H1076 H 0.53311 0.57396 0.63323 0.0
H1077 H 0.49723 0.61421 0.61719 0.0
H1078 H 0.49483 0.53654 0.63083 0.0
H1079 H 0.45891 0.5766 0.61387 0.0
H1080 H 0.39144 0.5067 0.63819 0.0
H1081 H 0.42932 0.54493 0.63744 0.0
H1082 H 0.46454 0.50957 0.60493 0.0
H1083 H 0.42694 0.47126 0.60659 0.0
C1084 C 0.51708 0.57482 0.62886 0.0
C1085 C 0.51826 0.59712 0.62546 0.0
C1086 C 0.49508 0.55329 0.62733 0.0
C1087 C 0.47367 0.55343 0.6221 0.0
C1088 C 0.47493 0.57576 0.61829 0.0
C1089 C 0.49694 0.59735 0.62004 0.0
C1090 C 0.40724 0.50715 0.63074 0.0
C1091 C 0.40621 0.48589 0.62264 0.0
C1092 C 0.42898 0.52912 0.63018 0.0
C1093 C 0.45013 0.5304 0.62129 0.0
C1094 C 0.4488 0.50923 0.61242 0.0
C1095 C 0.42717 0.48725 0.61323 0.0
H1096 H 0.88878 0.39405 0.13916 0.0
H1097 H 0.95896 0.42749 0.10605 0.0
H1098 H 0.88951 0.43247 0.1383 0.0
H1099 H 0.95929 0.4656 0.10416 0.0
H1100 H 0.96654 0.53556 0.1313 0.0
H1101 H 0.96422 0.49662 0.12952 0.0
H1102 H 0.88776 0.46236 0.11527 0.0
H1103 H 0.88996 0.50145 0.11809 0.0
C1104 C 0.90419 0.40952 0.13134 0.0
C1105 C 0.92391 0.40777 0.12288 0.0
C1106 C 0.90458 0.43157 0.13072 0.0
C1107 C 0.92457 0.45231 0.12135 0.0
C1108 C 0.94385 0.45023 0.11206 0.0
C1109 C 0.9436 0.4283 0.11299 0.0
C1110 C 0.94922 0.51976 0.1277 0.0
C1111 C 0.92843 0.52166 0.12486 0.0
C1112 C 0.94791 0.49735 0.1265 0.0
C1113 C 0.92582 0.47621 0.12211 0.0
C1114 C 0.90503 0.47815 0.119 0.0
C1115 C 0.9063 0.5006 0.12048 0.0
H1116 H 0.3935 0.88754 0.61312 0.0
H1117 H 0.43238 0.96283 0.63272 0.0
H1118 H 0.43145 0.88738 0.61072 0.0
H1119 H 0.4701 0.96246 0.63126 0.0
H1120 H 0.53685 0.96136 0.60912 0.0
H1121 H 0.49858 0.96064 0.6063 0.0
H1122 H 0.46192 0.8885 0.6353 0.0
H1123 H 0.50012 0.8889 0.63716 0.0
C1124 C 0.41014 0.90405 0.61694 0.0
C1125 C 0.40988 0.92519 0.62312 0.0
C1126 C 0.43191 0.90393 0.61572 0.0
C1127 C 0.45393 0.92489 0.62085 0.0
C1128 C 0.45362 0.94608 0.62676 0.0
C1129 C 0.43191 0.94626 0.62775 0.0
C1130 C 0.5206 0.94528 0.61473 0.0
C1131 C 0.52157 0.92524 0.62346 0.0
C1132 C 0.49862 0.9449 0.61327 0.0
C1133 C 0.47708 0.92459 0.62078 0.0
C1134 C 0.47803 0.90434 0.62905 0.0
C1135 C 0.49999 0.90462 0.63025 0.0
H1136 H 0.61366 0.49402 0.1356 0.0
H1137 H 0.57972 0.53318 0.10947 0.0
H1138 H 0.57521 0.45658 0.1337 0.0
H1139 H 0.54145 0.49562 0.10644 0.0
H1140 H 0.47208 0.43059 0.13244 0.0
H1141 H 0.51083 0.46752 0.1309 0.0
H1142 H 0.54495 0.42673 0.10989 0.0
H1143 H 0.50615 0.38955 0.11253 0.0
C1144 C 0.59805 0.49457 0.12905 0.0
C1145 C 0.59971 0.5166 0.12286 0.0
C1146 C 0.57596 0.47304 0.12782 0.0
C1147 C 0.55504 0.47296 0.12005 0.0
C1148 C 0.55698 0.49497 0.11304 0.0
C1149 C 0.57898 0.51653 0.11461 0.0
C1150 C 0.48782 0.42949 0.12738 0.0
C1151 C 0.48601 0.40709 0.12269 0.0
C1152 C 0.5101 0.45075 0.12632 0.0
C1153 C 0.53117 0.45026 0.12022 0.0
C1154 C 0.52924 0.42785 0.11505 0.0
C1155 C 0.50696 0.4065 0.11642 0.0
H1156 H 0.11695 0.50619 0.60937 0.0
H1157 H 0.04232 0.47122 0.63125 0.0
H1158 H 0.11764 0.54451 0.60647 0.0
H1159 H 0.04325 0.50957 0.62929 0.0
H1160 H 0.0449 0.57757 0.60666 0.0
H1161 H 0.04484 0.5396 0.60408 0.0
H1162 H 0.11784 0.57465 0.63085 0.0
H1163 H 0.11818 0.61281 0.63247 0.0
C1164 C 0.10069 0.50668 0.61358 0.0
C1165 C 0.07959 0.48563 0.62056 0.0
C1166 C 0.10112 0.5287 0.61207 0.0
C1167 C 0.08053 0.53026 0.61773 0.0
C1168 C 0.05935 0.50908 0.6244 0.0
C1169 C 0.05885 0.48704 0.62567 0.0
C1170 C 0.06101 0.57721 0.61183 0.0
C1171 C 0.08151 0.59821 0.61987 0.0
C1172 C 0.06093 0.55537 0.61049 0.0
C1173 C 0.08125 0.5539 0.61746 0.0
C1174 C 0.10195 0.57508 0.62503 0.0
C1175 C 0.10212 0.59699 0.62609 0.0
H1176 H 0.96132 0.53651 0.41694 0.0
H1177 H 0.88819 0.49817 0.39074 0.0
H1178 H 0.96142 0.49865 0.42009 0.0
H1179 H 0.88859 0.46041 0.39291 0.0
H1180 H 0.88927 0.39301 0.41524 0.0
H1181 H 0.88857 0.43067 0.41761 0.0
H1182 H 0.96321 0.46995 0.39555 0.0
H1183 H 0.96413 0.43251 0.39415 0.0
C1184 C 0.94527 0.51999 0.4118 0.0
C1185 C 0.92479 0.52039 0.4035 0.0
C1186 C 0.94536 0.49825 0.41347 0.0
C1187 C 0.92508 0.47638 0.40657 0.0
C1188 C 0.90443 0.47678 0.3987 0.0
C1189 C 0.90424 0.49849 0.39732 0.0
C1190 C 0.90558 0.40973 0.41108 0.0
C1191 C 0.92675 0.40973 0.40448 0.0
C1192 C 0.90514 0.43134 0.41229 0.0
C1193 C 0.92581 0.45345 0.40668 0.0
C1194 C 0.94705 0.4534 0.4004 0.0
C1195 C 0.94755 0.43185 0.39944 0.0
H1196 H 0.53547 0.95895 0.91988 0.0
H1197 H 0.49651 0.88625 0.89267 0.0
H1198 H 0.49799 0.95986 0.92242 0.0
H1199 H 0.45913 0.88747 0.89416 0.0
H1200 H 0.39202 0.88963 0.91511 0.0
H1201 H 0.42908 0.88781 0.91799 0.0
H1202 H 0.47035 0.9628 0.89747 0.0
H1203 H 0.43352 0.96482 0.89562 0.0
C1204 C 0.51889 0.94316 0.91439 0.0
C1205 C 0.519 0.92257 0.90598 0.0
C1206 C 0.49737 0.94372 0.91569 0.0
C1207 C 0.47545 0.92383 0.90828 0.0
C1208 C 0.47553 0.90303 0.90034 0.0
C1209 C 0.49703 0.90236 0.89935 0.0
C1210 C 0.40905 0.90576 0.91139 0.0
C1211 C 0.4098 0.92737 0.90513 0.0
C1212 C 0.43032 0.90469 0.91289 0.0
C1213 C 0.45282 0.92514 0.90792 0.0
C1214 C 0.45349 0.94679 0.90188 0.0
C1215 C 0.43229 0.94793 0.90065 0.0
H1216 H 0.47196 0.4308 0.39481 0.0
H1217 H 0.50778 0.39216 0.41722 0.0
H1218 H 0.50991 0.4686 0.39718 0.0
H1219 H 0.54569 0.43016 0.42053 0.0
H1220 H 0.61363 0.49866 0.39517 0.0
H1221 H 0.57583 0.46046 0.39644 0.0
H1222 H 0.53937 0.49725 0.42269 0.0
H1223 H 0.57699 0.53554 0.42046 0.0
C1224 C 0.48788 0.4304 0.4006 0.0
C1225 C 0.48683 0.40842 0.40573 0.0
C1226 C 0.50969 0.45215 0.40211 0.0
C1227 C 0.53099 0.45254 0.40905 0.0
C1228 C 0.52978 0.43056 0.41473 0.0
C1229 C 0.508 0.40876 0.41298 0.0
C1230 C 0.59758 0.49856 0.40136 0.0
C1231 C 0.5983 0.52017 0.40753 0.0
C1232 C 0.57587 0.4766 0.40223 0.0
C1233 C 0.55441 0.47569 0.40955 0.0
C1234 C 0.55537 0.49727 0.41647 0.0
C1235 C 0.57701 0.51924 0.41534 0.0
H1236 H 0.05057 0.47118 0.91874 0.0
H1237 H 0.12167 0.50675 0.88748 0.0
H1238 H 0.05155 0.50959 0.92113 0.0
H1239 H 0.1223 0.5451 0.88895 0.0
H1240 H 0.12409 0.61428 0.91056 0.0
H1241 H 0.12449 0.57645 0.91317 0.0
H1242 H 0.04861 0.53713 0.89572 0.0
H1243 H 0.04805 0.57472 0.89403 0.0
C1244 C 0.06641 0.48721 0.91233 0.0
C1245 C 0.08598 0.48586 0.9028 0.0
C1246 C 0.06693 0.50926 0.91355 0.0
C1247 C 0.0869 0.53051 0.905 0.0
C1248 C 0.10673 0.52922 0.89597 0.0
C1249 C 0.10632 0.50718 0.895 0.0
C1250 C 0.10746 0.59752 0.90746 0.0
C1251 C 0.08604 0.59756 0.9021 0.0
C1252 C 0.10772 0.57582 0.9088 0.0
C1253 C 0.08659 0.55364 0.90464 0.0
C1254 C 0.06515 0.55375 0.89949 0.0
C1255 C 0.06484 0.57539 0.89836 0.0
H1256 H 0.61408 0.1186 0.38834 0.0
H1257 H 0.57956 0.04785 0.42026 0.0
H1258 H 0.57599 0.11851 0.38939 0.0
H1259 H 0.54176 0.04815 0.42234 0.0
H1260 H 0.47245 0.04273 0.39532 0.0
H1261 H 0.51102 0.04422 0.39707 0.0
H1262 H 0.54638 0.12046 0.41278 0.0
H1263 H 0.50769 0.11911 0.41 0.0
C1264 C 0.59844 0.10319 0.39593 0.0
C1265 C 0.5998 0.08315 0.40402 0.0
C1266 C 0.57658 0.10317 0.39667 0.0
C1267 C 0.55563 0.08323 0.40578 0.0
C1268 C 0.55731 0.06358 0.41466 0.0
C1269 C 0.57905 0.06347 0.41362 0.0
C1270 C 0.48842 0.05982 0.39925 0.0
C1271 C 0.48695 0.08081 0.40249 0.0
C1272 C 0.51061 0.06065 0.40043 0.0
C1273 C 0.53194 0.08245 0.40518 0.0
C1274 C 0.53042 0.10342 0.40874 0.0
C1275 C 0.5082 0.10263 0.4073 0.0
H1276 H 0.50149 0.61239 0.89477 0.0
H1277 H 0.53872 0.5764 0.92083 0.0
H1278 H 0.46352 0.57435 0.89573 0.0
H1279 H 0.50063 0.53854 0.92273 0.0
H1280 H 0.43492 0.47077 0.89432 0.0
H1281 H 0.47247 0.50895 0.89695 0.0
H1282 H 0.43311 0.54403 0.91961 0.0
H1283 H 0.39537 0.5059 0.91605 0.0
C1284 C 0.50151 0.59642 0.90107 0.0
C1285 C 0.52317 0.59741 0.90756 0.0
C1286 C 0.47968 0.57459 0.90175 0.0
C1287 C 0.47893 0.55324 0.90918 0.0
C1288 C 0.50054 0.55446 0.91642 0.0
C1289 C 0.52239 0.57623 0.91548 0.0
C1290 C 0.43426 0.48659 0.9 0.0
C1291 C 0.41211 0.48527 0.90488 0.0
C1292 C 0.45587 0.50852 0.90166 0.0
C1293 C 0.45592 0.52969 0.90849 0.0
C1294 C 0.43377 0.52823 0.9139 0.0
C1295 C 0.41212 0.50631 0.91201 0.0
loop_
_geom_bond_atom_site_label_1
_geom_bond_atom_site_label_2
_geom_bond_distance
_geom_bond_site_symmetry_2
_ccdc_geom_bond_type
O0 Cd1 2.223 . S
O0 C8 1.315 . S
Cd1 O0 2.223 . S
Cd1 O4 2.297 . S
Cd1 O5 2.439 . S
Cd1 O11 2.240 . S
Cd2 O3 2.240 . S
Cd2 O10 2.223 . S
Cd2 O12 2.297 . S
Cd2 O13 2.439 . S
O3 Cd2 2.240 . S
O3 C8 1.279 . S
O4 Cd1 2.297 . S
O4 C6 1.247 . S
O5 Cd1 2.439 . S
O5 C6 1.208 . S
C6 O4 1.247 . S
C6 O5 1.208 . S
C7 O12 1.247 . S
C7 O13 1.208 . S
C8 O0 1.315 . S
C8 O3 1.279 . S
C9 O10 1.315 . S
C9 O11 1.279 . S
O10 Cd2 2.223 . S
O10 C9 1.315 . S
O11 Cd1 2.240 . S
O11 C9 1.279 . S
O12 Cd2 2.297 . S
O12 C7 1.247 . S
O13 Cd2 2.439 . S
O13 C7 1.208 . S
O14 Cd15 2.223 . S
O14 C22 1.315 . S
Cd15 O14 2.223 . S
Cd15 O18 2.297 . S
Cd15 O19 2.439 . S
Cd15 O25 2.240 . S
Cd16 O17 2.240 . S
Cd16 O24 2.223 . S
Cd16 O26 2.297 . S
Cd16 O27 2.439 . S
O17 Cd16 2.240 . S
O17 C22 1.279 . S
O18 Cd15 2.297 . S
O18 C20 1.247 . S
O19 Cd15 2.439 . S
O19 C20 1.208 . S
C20 O18 1.247 . S
C20 O19 1.208 . S
C21 O26 1.247 . S
C21 O27 1.208 . S
C22 O14 1.315 . S
C22 O17 1.279 . S
C23 O24 1.315 . S
C23 O25 1.279 . S
O24 Cd16 2.223 . S
O24 C23 1.315 . S
O25 Cd15 2.240 . S
O25 C23 1.279 . S
O26 Cd16 2.297 . S
O26 C21 1.247 . S
O27 Cd16 2.439 . S
O27 C21 1.208 . S
O28 Cd29 2.223 . S
O28 C36 1.315 . S
Cd29 O28 2.223 . S
Cd29 O32 2.297 . S
Cd29 O33 2.439 . S
Cd29 O39 2.240 . S
Cd30 O31 2.240 . S
Cd30 O38 2.223 . S
Cd30 O40 2.297 . S
Cd30 O41 2.439 . S
O31 Cd30 2.240 . S
O31 C36 1.279 . S
O32 Cd29 2.297 . S
O32 C34 1.247 . S
O33 Cd29 2.439 . S
O33 C34 1.208 . S
C34 O32 1.247 . S
C34 O33 1.208 . S
C35 O40 1.247 . S
C35 O41 1.208 . S
C36 O28 1.315 . S
C36 O31 1.279 . S
C37 O38 1.315 . S
C37 O39 1.279 . S
O38 Cd30 2.223 . S
O38 C37 1.315 . S
O39 Cd29 2.240 . S
O39 C37 1.279 . S
O40 Cd30 2.297 . S
O40 C35 1.247 . S
O41 Cd30 2.439 . S
O41 C35 1.208 . S
O42 Cd43 2.223 . S
O42 C50 1.315 . S
Cd43 O42 2.223 . S
Cd43 O46 2.297 . S
Cd43 O47 2.439 . S
Cd43 O53 2.240 . S
Cd44 O45 2.240 . S
Cd44 O52 2.223 . S
Cd44 O54 2.297 . S
Cd44 O55 2.439 . S
O45 Cd44 2.240 . S
O45 C50 1.279 . S
O46 Cd43 2.297 . S
O46 C48 1.247 . S
O47 Cd43 2.439 . S
O47 C48 1.208 . S
C48 O46 1.247 . S
C48 O47 1.208 . S
C49 O54 1.247 . S
C49 O55 1.208 . S
C50 O42 1.315 . S
C50 O45 1.279 . S
C51 O52 1.315 . S
C51 O53 1.279 . S
O52 Cd44 2.223 . S
O52 C51 1.315 . S
O53 Cd43 2.240 . S
O53 C51 1.279 . S
O54 Cd44 2.297 . S
O54 C49 1.247 . S
O55 Cd44 2.439 . S
O55 C49 1.208 . S
O56 Cd57 2.223 . S
O56 C64 1.315 . S
Cd57 O56 2.223 . S
Cd57 O60 2.297 . S
Cd57 O61 2.439 . S
Cd57 O67 2.240 . S
Cd58 O59 2.240 . S
Cd58 O66 2.223 . S
Cd58 O68 2.297 . S
Cd58 O69 2.439 . S
O59 Cd58 2.240 . S
O59 C64 1.279 . S
O60 Cd57 2.297 . S
O60 C62 1.247 . S
O61 Cd57 2.439 . S
O61 C62 1.208 . S
C62 O60 1.247 . S
C62 O61 1.208 . S
C63 O68 1.247 . S
C63 O69 1.208 . S
C64 O56 1.315 . S
C64 O59 1.279 . S
C65 O66 1.315 . S
C65 O67 1.279 . S
O66 Cd58 2.223 . S
O66 C65 1.315 . S
O67 Cd57 2.240 . S
O67 C65 1.279 . S
O68 Cd58 2.297 . S
O68 C63 1.247 . S
O69 Cd58 2.439 . S
O69 C63 1.208 . S
O70 Cd71 2.223 . S
O70 C78 1.315 . S
Cd71 O70 2.223 . S
Cd71 O74 2.297 . S
Cd71 O75 2.439 . S
Cd71 O81 2.240 . S
Cd72 O73 2.240 . S
Cd72 O80 2.223 . S
Cd72 O82 2.297 . S
Cd72 O83 2.439 . S
O73 Cd72 2.240 . S
O73 C78 1.279 . S
O74 Cd71 2.297 . S
O74 C76 1.247 . S
O75 Cd71 2.439 . S
O75 C76 1.208 . S
C76 O74 1.247 . S
C76 O75 1.208 . S
C77 O82 1.247 . S
C77 O83 1.208 . S
C78 O70 1.315 . S
C78 O73 1.279 . S
C79 O80 1.315 . S
C79 O81 1.279 . S
O80 Cd72 2.223 . S
O80 C79 1.315 . S
O81 Cd71 2.240 . S
O81 C79 1.279 . S
O82 Cd72 2.297 . S
O82 C77 1.247 . S
O83 Cd72 2.439 . S
O83 C77 1.208 . S
O84 Cd85 2.223 . S
O84 C92 1.315 . S
Cd85 O84 2.223 . S
Cd85 O88 2.297 . S
Cd85 O89 2.439 . S
Cd85 O95 2.240 . S
Cd86 O87 2.240 . S
Cd86 O94 2.223 . S
Cd86 O96 2.297 . S
Cd86 O97 2.439 . S
O87 Cd86 2.240 . S
O87 C92 1.279 . S
O88 Cd85 2.297 . S
O88 C90 1.247 . S
O89 Cd85 2.439 . S
O89 C90 1.208 . S
C90 O88 1.247 . S
C90 O89 1.208 . S
C91 O96 1.247 . S
C91 O97 1.208 . S
C92 O84 1.315 . S
C92 O87 1.279 . S
C93 O94 1.315 . S
C93 O95 1.279 . S
O94 Cd86 2.223 . S
O94 C93 1.315 . S
O95 Cd85 2.240 . S
O95 C93 1.279 . S
O96 Cd86 2.297 . S
O96 C91 1.247 . S
O97 Cd86 2.439 . S
O97 C91 1.208 . S
O98 Cd99 2.223 . S
O98 C106 1.315 . S
Cd99 O98 2.223 . S
Cd99 O102 2.297 . S
Cd99 O103 2.439 . S
Cd99 O109 2.240 . S
Cd100 O101 2.240 . S
Cd100 O108 2.223 . S
Cd100 O110 2.297 . S
Cd100 O111 2.439 . S
O101 Cd100 2.240 . S
O101 C106 1.279 . S
O102 Cd99 2.297 . S
O102 C104 1.247 . S
O103 Cd99 2.439 . S
O103 C104 1.208 . S
C104 O102 1.247 . S
C104 O103 1.208 . S
C105 O110 1.247 . S
C105 O111 1.208 . S
C106 O98 1.315 . S
C106 O101 1.279 . S
C107 O108 1.315 . S
C107 O109 1.279 . S
O108 Cd100 2.223 . S
O108 C107 1.315 . S
O109 Cd99 2.240 . S
O109 C107 1.279 . S
O110 Cd100 2.297 . S
O110 C105 1.247 . S
O111 Cd100 2.439 . S
O111 C105 1.208 . S
O112 Cd113 2.223 . S
O112 C120 1.315 . S
Cd113 O112 2.223 . S
Cd113 O116 2.297 . S
Cd113 O117 2.439 . S
Cd113 O123 2.240 . S
Cd114 O115 2.240 . S
Cd114 O122 2.223 . S
Cd114 O124 2.297 . S
Cd114 O125 2.439 . S
O115 Cd114 2.240 . S
O115 C120 1.279 . S
O116 Cd113 2.297 . S
O116 C118 1.247 . S
O117 Cd113 2.439 . S
O117 C118 1.208 . S
C118 O116 1.247 . S
C118 O117 1.208 . S
C119 O124 1.247 . S
C119 O125 1.208 . S
C120 O112 1.315 . S
C120 O115 1.279 . S
C121 O122 1.315 . S
C121 O123 1.279 . S
O122 Cd114 2.223 . S
O122 C121 1.315 . S
O123 Cd113 2.240 . S
O123 C121 1.279 . S
O124 Cd114 2.297 . S
O124 C119 1.247 . S
O125 Cd114 2.439 . S
O125 C119 1.208 . S
O126 Cd127 2.223 . S
O126 C134 1.315 . S
Cd127 O126 2.223 . S
Cd127 O130 2.297 . S
Cd127 O131 2.439 . S
Cd127 O137 2.240 . S
Cd128 O129 2.240 . S
Cd128 O136 2.223 . S
Cd128 O138 2.297 . S
Cd128 O139 2.439 . S
O129 Cd128 2.240 . S
O129 C134 1.279 . S
O130 Cd127 2.297 . S
O130 C132 1.247 . S
O131 Cd127 2.439 . S
O131 C132 1.208 . S
C132 O130 1.247 . S
C132 O131 1.208 . S
C133 O138 1.247 . S
C133 O139 1.208 . S
C134 O126 1.315 . S
C134 O129 1.279 . S
C135 O136 1.315 . S
C135 O137 1.279 . S
O136 Cd128 2.223 . S
O136 C135 1.315 . S
O137 Cd127 2.240 . S
O137 C135 1.279 . S
O138 Cd128 2.297 . S
O138 C133 1.247 . S
O139 Cd128 2.439 . S
O139 C133 1.208 . S
O140 Cd141 2.223 . S
O140 C148 1.315 . S
Cd141 O140 2.223 . S
Cd141 O144 2.297 . S
Cd141 O145 2.439 . S
Cd141 O151 2.240 . S
Cd142 O143 2.240 . S
Cd142 O150 2.223 . S
Cd142 O152 2.297 . S
Cd142 O153 2.439 . S
O143 Cd142 2.240 . S
O143 C148 1.279 . S
O144 Cd141 2.297 . S
O144 C146 1.247 . S
O145 Cd141 2.439 . S
O145 C146 1.208 . S
C146 O144 1.247 . S
C146 O145 1.208 . S
C147 O152 1.247 . S
C147 O153 1.208 . S
C148 O140 1.315 . S
C148 O143 1.279 . S
C149 O150 1.315 . S
C149 O151 1.279 . S
O150 Cd142 2.223 . S
O150 C149 1.315 . S
O151 Cd141 2.240 . S
O151 C149 1.279 . S
O152 Cd142 2.297 . S
O152 C147 1.247 . S
O153 Cd142 2.439 . S
O153 C147 1.208 . S
O154 Cd155 2.223 . S
O154 C162 1.315 . S
Cd155 O154 2.223 . S
Cd155 O158 2.297 . S
Cd155 O159 2.439 . S
Cd155 O165 2.240 . S
Cd156 O157 2.240 . S
Cd156 O164 2.223 . S
Cd156 O166 2.297 . S
Cd156 O167 2.439 . S
O157 Cd156 2.240 . S
O157 C162 1.279 . S
O158 Cd155 2.297 . S
O158 C160 1.247 . S
O159 Cd155 2.439 . S
O159 C160 1.208 . S
C160 O158 1.247 . S
C160 O159 1.208 . S
C161 O166 1.247 . S
C161 O167 1.208 . S
C162 O154 1.315 . S
C162 O157 1.279 . S
C163 O164 1.315 . S
C163 O165 1.279 . S
O164 Cd156 2.223 . S
O164 C163 1.315 . S
O165 Cd155 2.240 . S
O165 C163 1.279 . S
O166 Cd156 2.297 . S
O166 C161 1.247 . S
O167 Cd156 2.439 . S
O167 C161 1.208 . S
O168 Cd169 2.223 . S
O168 C176 1.315 . S
Cd169 O168 2.223 . S
Cd169 O172 2.297 . S
Cd169 O173 2.439 . S
Cd169 O179 2.240 . S
Cd170 O171 2.240 . S
Cd170 O178 2.223 . S
Cd170 O180 2.297 . S
Cd170 O181 2.439 . S
O171 Cd170 2.240 . S
O171 C176 1.279 . S
O172 Cd169 2.297 . S
O172 C174 1.247 . S
O173 Cd169 2.439 . S
O173 C174 1.208 . S
C174 O172 1.247 . S
C174 O173 1.208 . S
C175 O180 1.247 . S
C175 O181 1.208 . S
C176 O168 1.315 . S
C176 O171 1.279 . S
C177 O178 1.315 . S
C177 O179 1.279 . S
O178 Cd170 2.223 . S
O178 C177 1.315 . S
O179 Cd169 2.240 . S
O179 C177 1.279 . S
O180 Cd170 2.297 . S
O180 C175 1.247 . S
O181 Cd170 2.439 . S
O181 C175 1.208 . S
O182 Cd183 2.223 . S
O182 C190 1.315 . S
Cd183 O182 2.223 . S
Cd183 O186 2.297 . S
Cd183 O187 2.439 . S
Cd183 O193 2.240 . S
Cd184 O185 2.240 . S
Cd184 O192 2.223 . S
Cd184 O194 2.297 . S
Cd184 O195 2.439 . S
O185 Cd184 2.240 . S
O185 C190 1.279 . S
O186 Cd183 2.297 . S
O186 C188 1.247 . S
O187 Cd183 2.439 . S
O187 C188 1.208 . S
C188 O186 1.247 . S
C188 O187 1.208 . S
C189 O194 1.247 . S
C189 O195 1.208 . S
C190 O182 1.315 . S
C190 O185 1.279 . S
C191 O192 1.315 . S
C191 O193 1.279 . S
O192 Cd184 2.223 . S
O192 C191 1.315 . S
O193 Cd183 2.240 . S
O193 C191 1.279 . S
O194 Cd184 2.297 . S
O194 C189 1.247 . S
O195 Cd184 2.439 . S
O195 C189 1.208 . S
O196 Cd197 2.223 . S
O196 C204 1.315 . S
Cd197 O196 2.223 . S
Cd197 O200 2.297 . S
Cd197 O201 2.439 . S
Cd197 O207 2.240 . S
Cd198 O199 2.240 . S
Cd198 O206 2.223 . S
Cd198 O208 2.297 . S
Cd198 O209 2.439 . S
O199 Cd198 2.240 . S
O199 C204 1.279 . S
O200 Cd197 2.297 . S
O200 C202 1.247 . S
O201 Cd197 2.439 . S
O201 C202 1.208 . S
C202 O200 1.247 . S
C202 O201 1.208 . S
C203 O208 1.247 . S
C203 O209 1.208 . S
C204 O196 1.315 . S
C204 O199 1.279 . S
C205 O206 1.315 . S
C205 O207 1.279 . S
O206 Cd198 2.223 . S
O206 C205 1.315 . S
O207 Cd197 2.240 . S
O207 C205 1.279 . S
O208 Cd198 2.297 . S
O208 C203 1.247 . S
O209 Cd198 2.439 . S
O209 C203 1.208 . S
O210 Cd211 2.223 . S
O210 C218 1.315 . S
Cd211 O210 2.223 . S
Cd211 O214 2.297 . S
Cd211 O215 2.439 . S
Cd211 O221 2.240 . S
Cd212 O213 2.240 . S
Cd212 O220 2.223 . S
Cd212 O222 2.297 . S
Cd212 O223 2.439 . S
O213 Cd212 2.240 . S
O213 C218 1.279 . S
O214 Cd211 2.297 . S
O214 C216 1.247 . S
O215 Cd211 2.439 . S
O215 C216 1.208 . S
C216 O214 1.247 . S
C216 O215 1.208 . S
C217 O222 1.247 . S
C217 O223 1.208 . S
C218 O210 1.315 . S
C218 O213 1.279 . S
C219 O220 1.315 . S
C219 O221 1.279 . S
O220 Cd212 2.223 . S
O220 C219 1.315 . S
O221 Cd211 2.240 . S
O221 C219 1.279 . S
O222 Cd212 2.297 . S
O222 C217 1.247 . S
O223 Cd212 2.439 . S
O223 C217 1.208 . S
O224 Cd225 2.223 . S
O224 C232 1.315 . S
Cd225 O224 2.223 . S
Cd225 O228 2.297 . S
Cd225 O229 2.439 . S
Cd225 O235 2.240 . S
Cd226 O227 2.240 . S
Cd226 O234 2.223 . S
Cd226 O236 2.297 . S
Cd226 O237 2.439 . S
O227 Cd226 2.240 . S
O227 C232 1.279 . S
O228 Cd225 2.297 . S
O228 C230 1.247 . S
O229 Cd225 2.439 . S
O229 C230 1.208 . S
C230 O228 1.247 . S
C230 O229 1.208 . S
C231 O236 1.247 . S
C231 O237 1.208 . S
C232 O224 1.315 . S
C232 O227 1.279 . S
C233 O234 1.315 . S
C233 O235 1.279 . S
O234 Cd226 2.223 . S
O234 C233 1.315 . S
O235 Cd225 2.240 . S
O235 C233 1.279 . S
O236 Cd226 2.297 . S
O236 C231 1.247 . S
O237 Cd226 2.439 . S
O237 C231 1.208 . S
O238 Cd239 2.223 . S
O238 C246 1.315 . S
Cd239 O238 2.223 . S
Cd239 O242 2.297 . S
Cd239 O243 2.439 . S
Cd239 O249 2.240 . S
Cd240 O241 2.240 . S
Cd240 O248 2.223 . S
Cd240 O250 2.297 . S
Cd240 O251 2.439 . S
O241 Cd240 2.240 . S
O241 C246 1.279 . S
O242 Cd239 2.297 . S
O242 C244 1.247 . S
O243 Cd239 2.439 . S
O243 C244 1.208 . S
C244 O242 1.247 . S
C244 O243 1.208 . S
C245 O250 1.247 . S
C245 O251 1.208 . S
C246 O238 1.315 . S
C246 O241 1.279 . S
C247 O248 1.315 . S
C247 O249 1.279 . S
O248 Cd240 2.223 . S
O248 C247 1.315 . S
O249 Cd239 2.240 . S
O249 C247 1.279 . S
O250 Cd240 2.297 . S
O250 C245 1.247 . S
O251 Cd240 2.439 . S
O251 C245 1.208 . S
O252 Cd253 2.223 . S
O252 C260 1.315 . S
Cd253 O252 2.223 . S
Cd253 O256 2.297 . S
Cd253 O257 2.439 . S
Cd253 O263 2.240 . S
Cd254 O255 2.240 . S
Cd254 O262 2.223 . S
Cd254 O264 2.297 . S
Cd254 O265 2.439 . S
O255 Cd254 2.240 . S
O255 C260 1.279 . S
O256 Cd253 2.297 . S
O256 C258 1.247 . S
O257 Cd253 2.439 . S
O257 C258 1.208 . S
C258 O256 1.247 . S
C258 O257 1.208 . S
C259 O264 1.247 . S
C259 O265 1.208 . S
C260 O252 1.315 . S
C260 O255 1.279 . S
C261 O262 1.315 . S
C261 O263 1.279 . S
O262 Cd254 2.223 . S
O262 C261 1.315 . S
O263 Cd253 2.240 . S
O263 C261 1.279 . S
O264 Cd254 2.297 . S
O264 C259 1.247 . S
O265 Cd254 2.439 . S
O265 C259 1.208 . S
O266 Cd267 2.223 . S
O266 C274 1.315 . S
Cd267 O266 2.223 . S
Cd267 O270 2.297 . S
Cd267 O271 2.439 . S
Cd267 O277 2.240 . S
Cd268 O269 2.240 . S
Cd268 O276 2.223 . S
Cd268 O278 2.297 . S
Cd268 O279 2.439 . S
O269 Cd268 2.240 . S
O269 C274 1.279 . S
O270 Cd267 2.297 . S
O270 C272 1.247 . S
O271 Cd267 2.439 . S
O271 C272 1.208 . S
C272 O270 1.247 . S
C272 O271 1.208 . S
C273 O278 1.247 . S
C273 O279 1.208 . S
C274 O266 1.315 . S
C274 O269 1.279 . S
C275 O276 1.315 . S
C275 O277 1.279 . S
O276 Cd268 2.223 . S
O276 C275 1.315 . S
O277 Cd267 2.240 . S
O277 C275 1.279 . S
O278 Cd268 2.297 . S
O278 C273 1.247 . S
O279 Cd268 2.439 . S
O279 C273 1.208 . S
O280 Cd281 2.223 . S
O280 C288 1.315 . S
Cd281 O280 2.223 . S
Cd281 O284 2.297 . S
Cd281 O285 2.439 . S
Cd281 O291 2.240 . S
Cd282 O283 2.240 . S
Cd282 O290 2.223 . S
Cd282 O292 2.297 . S
Cd282 O293 2.439 . S
O283 Cd282 2.240 . S
O283 C288 1.279 . S
O284 Cd281 2.297 . S
O284 C286 1.247 . S
O285 Cd281 2.439 . S
O285 C286 1.208 . S
C286 O284 1.247 . S
C286 O285 1.208 . S
C287 O292 1.247 . S
C287 O293 1.208 . S
C288 O280 1.315 . S
C288 O283 1.279 . S
C289 O290 1.315 . S
C289 O291 1.279 . S
O290 Cd282 2.223 . S
O290 C289 1.315 . S
O291 Cd281 2.240 . S
O291 C289 1.279 . S
O292 Cd282 2.297 . S
O292 C287 1.247 . S
O293 Cd282 2.439 . S
O293 C287 1.208 . S
O294 Cd295 2.223 . S
O294 C302 1.315 . S
Cd295 O294 2.223 . S
Cd295 O298 2.297 . S
Cd295 O299 2.439 . S
Cd295 O305 2.240 . S
Cd296 O297 2.240 . S
Cd296 O304 2.223 . S
Cd296 O306 2.297 . S
Cd296 O307 2.439 . S
O297 Cd296 2.240 . S
O297 C302 1.279 . S
O298 Cd295 2.297 . S
O298 C300 1.247 . S
O299 Cd295 2.439 . S
O299 C300 1.208 . S
C300 O298 1.247 . S
C300 O299 1.208 . S
C301 O306 1.247 . S
C301 O307 1.208 . S
C302 O294 1.315 . S
C302 O297 1.279 . S
C303 O304 1.315 . S
C303 O305 1.279 . S
O304 Cd296 2.223 . S
O304 C303 1.315 . S
O305 Cd295 2.240 . S
O305 C303 1.279 . S
O306 Cd296 2.297 . S
O306 C301 1.247 . S
O307 Cd296 2.439 . S
O307 C301 1.208 . S
O308 Cd309 2.223 . S
O308 C316 1.315 . S
Cd309 O308 2.223 . S
Cd309 O312 2.297 . S
Cd309 O313 2.439 . S
Cd309 O319 2.240 . S
Cd310 O311 2.240 . S
Cd310 O318 2.223 . S
Cd310 O320 2.297 . S
Cd310 O321 2.439 . S
O311 Cd310 2.240 . S
O311 C316 1.279 . S
O312 Cd309 2.297 . S
O312 C314 1.247 . S
O313 Cd309 2.439 . S
O313 C314 1.208 . S
C314 O312 1.247 . S
C314 O313 1.208 . S
C315 O320 1.247 . S
C315 O321 1.208 . S
C316 O308 1.315 . S
C316 O311 1.279 . S
C317 O318 1.315 . S
C317 O319 1.279 . S
O318 Cd310 2.223 . S
O318 C317 1.315 . S
O319 Cd309 2.240 . S
O319 C317 1.279 . S
O320 Cd310 2.297 . S
O320 C315 1.247 . S
O321 Cd310 2.439 . S
O321 C315 1.208 . S
O322 Cd323 2.223 . S
O322 C330 1.315 . S
Cd323 O322 2.223 . S
Cd323 O326 2.297 . S
Cd323 O327 2.439 . S
Cd323 O333 2.240 . S
Cd324 O325 2.240 . S
Cd324 O332 2.223 . S
Cd324 O334 2.297 . S
Cd324 O335 2.439 . S
O325 Cd324 2.240 . S
O325 C330 1.279 . S
O326 Cd323 2.297 . S
O326 C328 1.247 . S
O327 Cd323 2.439 . S
O327 C328 1.208 . S
C328 O326 1.247 . S
C328 O327 1.208 . S
C329 O334 1.247 . S
C329 O335 1.208 . S
C330 O322 1.315 . S
C330 O325 1.279 . S
C331 O332 1.315 . S
C331 O333 1.279 . S
O332 Cd324 2.223 . S
O332 C331 1.315 . S
O333 Cd323 2.240 . S
O333 C331 1.279 . S
O334 Cd324 2.297 . S
O334 C329 1.247 . S
O335 Cd324 2.439 . S
O335 C329 1.208 . S
H336 C344 0.950 . S
H337 C349 0.950 . S
H338 C346 0.950 . S
H339 C348 0.950 . S
H340 C350 0.950 . S
H341 C352 0.950 . S
H342 C354 0.950 . S
H343 C355 0.950 . S
C344 H336 0.950 . S
C344 C345 1.386 . S
C344 C346 1.391 . S
C345 C344 1.386 . S
C345 C349 1.393 . S
C346 H338 0.950 . S
C346 C344 1.391 . S
C346 C347 1.400 . S
C347 C346 1.400 . S
C347 C348 1.398 . S
C347 C353 1.491 . S
C348 H339 0.950 . S
C348 C347 1.398 . S
C348 C349 1.391 . S
C349 H337 0.950 . S
C349 C345 1.393 . S
C349 C348 1.391 . S
C350 H340 0.950 . S
C350 C351 1.386 . S
C350 C352 1.391 . S
C351 C350 1.386 . S
C351 C355 1.393 . S
C352 H341 0.950 . S
C352 C350 1.391 . S
C352 C353 1.400 . S
C353 C347 1.491 . S
C353 C352 1.400 . S
C353 C354 1.398 . S
C354 H342 0.950 . S
C354 C353 1.398 . S
C354 C355 1.391 . S
C355 H343 0.950 . S
C355 C351 1.393 . S
C355 C354 1.391 . S
H356 C364 0.950 . S
H357 C369 0.950 . S
H358 C366 0.950 . S
H359 C368 0.950 . S
H360 C370 0.950 . S
H361 C372 0.950 . S
H362 C374 0.950 . S
H363 C375 0.950 . S
C364 H356 0.950 . S
C364 C365 1.386 . S
C364 C366 1.391 . S
C365 C364 1.386 . S
C365 C369 1.393 . S
C366 H358 0.950 . S
C366 C364 1.391 . S
C366 C367 1.400 . S
C367 C366 1.400 . S
C367 C368 1.398 . S
C367 C373 1.491 . S
C368 H359 0.950 . S
C368 C367 1.398 . S
C368 C369 1.391 . S
C369 H357 0.950 . S
C369 C365 1.393 . S
C369 C368 1.391 . S
C370 H360 0.950 . S
C370 C371 1.386 . S
C370 C372 1.391 . S
C371 C370 1.386 . S
C371 C375 1.393 . S
C372 H361 0.950 . S
C372 C370 1.391 . S
C372 C373 1.400 . S
C373 C367 1.491 . S
C373 C372 1.400 . S
C373 C374 1.398 . S
C374 H362 0.950 . S
C374 C373 1.398 . S
C374 C375 1.391 . S
C375 H363 0.950 . S
C375 C371 1.393 . S
C375 C374 1.391 . S
H376 C384 0.950 . S
H377 C389 0.950 . S
H378 C386 0.950 . S
H379 C388 0.950 . S
H380 C390 0.950 . S
H381 C392 0.950 . S
H382 C394 0.950 . S
H383 C395 0.950 . S
C384 H376 0.950 . S
C384 C385 1.386 . S
C384 C386 1.391 . S
C385 C384 1.386 . S
C385 C389 1.393 . S
C386 H378 0.950 . S
C386 C384 1.391 . S
C386 C387 1.400 . S
C387 C386 1.400 . S
C387 C388 1.398 . S
C387 C393 1.491 . S
C388 H379 0.950 . S
C388 C387 1.398 . S
C388 C389 1.391 . S
C389 H377 0.950 . S
C389 C385 1.393 . S
C389 C388 1.391 . S
C390 H380 0.950 . S
C390 C391 1.386 . S
C390 C392 1.391 . S
C391 C390 1.386 . S
C391 C395 1.393 . S
C392 H381 0.950 . S
C392 C390 1.391 . S
C392 C393 1.400 . S
C393 C387 1.491 . S
C393 C392 1.400 . S
C393 C394 1.398 . S
C394 H382 0.950 . S
C394 C393 1.398 . S
C394 C395 1.391 . S
C395 H383 0.950 . S
C395 C391 1.393 . S
C395 C394 1.391 . S
H396 C404 0.950 . S
H397 C409 0.950 . S
H398 C406 0.950 . S
H399 C408 0.950 . S
H400 C410 0.950 . S
H401 C412 0.950 . S
H402 C414 0.950 . S
H403 C415 0.950 . S
C404 H396 0.950 . S
C404 C405 1.386 . S
C404 C406 1.391 . S
C405 C404 1.386 . S
C405 C409 1.393 . S
C406 H398 0.950 . S
C406 C404 1.391 . S
C406 C407 1.400 . S
C407 C406 1.400 . S
C407 C408 1.398 . S
C407 C413 1.491 . S
C408 H399 0.950 . S
C408 C407 1.398 . S
C408 C409 1.391 . S
C409 H397 0.950 . S
C409 C405 1.393 . S
C409 C408 1.391 . S
C410 H400 0.950 . S
C410 C411 1.386 . S
C410 C412 1.391 . S
C411 C410 1.386 . S
C411 C415 1.393 . S
C412 H401 0.950 . S
C412 C410 1.391 . S
C412 C413 1.400 . S
C413 C407 1.491 . S
C413 C412 1.400 . S
C413 C414 1.398 . S
C414 H402 0.950 . S
C414 C413 1.398 . S
C414 C415 1.391 . S
C415 H403 0.950 . S
C415 C411 1.393 . S
C415 C414 1.391 . S
H416 C424 0.950 . S
H417 C429 0.950 . S
H418 C426 0.950 . S
H419 C428 0.950 . S
H420 C430 0.950 . S
H421 C432 0.950 . S
H422 C434 0.950 . S
H423 C435 0.950 . S
C424 H416 0.950 . S
C424 C425 1.386 . S
C424 C426 1.391 . S
C425 C424 1.386 . S
C425 C429 1.393 . S
C426 H418 0.950 . S
C426 C424 1.391 . S
C426 C427 1.400 . S
C427 C426 1.400 . S
C427 C428 1.398 . S
C427 C433 1.491 . S
C428 H419 0.950 . S
C428 C427 1.398 . S
C428 C429 1.391 . S
C429 H417 0.950 . S
C429 C425 1.393 . S
C429 C428 1.391 . S
C430 H420 0.950 . S
C430 C431 1.386 . S
C430 C432 1.391 . S
C431 C430 1.386 . S
C431 C435 1.393 . S
C432 H421 0.950 . S
C432 C430 1.391 . S
C432 C433 1.400 . S
C433 C427 1.491 . S
C433 C432 1.400 . S
C433 C434 1.398 . S
C434 H422 0.950 . S
C434 C433 1.398 . S
C434 C435 1.391 . S
C435 H423 0.950 . S
C435 C431 1.393 . S
C435 C434 1.391 . S
H436 C444 0.950 . S
H437 C449 0.950 . S
H438 C446 0.950 . S
H439 C448 0.950 . S
H440 C450 0.950 . S
H441 C452 0.950 . S
H442 C454 0.950 . S
H443 C455 0.950 . S
C444 H436 0.950 . S
C444 C445 1.386 . S
C444 C446 1.391 . S
C445 C444 1.386 . S
C445 C449 1.393 . S
C446 H438 0.950 . S
C446 C444 1.391 . S
C446 C447 1.400 . S
C447 C446 1.400 . S
C447 C448 1.398 . S
C447 C453 1.491 . S
C448 H439 0.950 . S
C448 C447 1.398 . S
C448 C449 1.391 . S
C449 H437 0.950 . S
C449 C445 1.393 . S
C449 C448 1.391 . S
C450 H440 0.950 . S
C450 C451 1.386 . S
C450 C452 1.391 . S
C451 C450 1.386 . S
C451 C455 1.393 . S
C452 H441 0.950 . S
C452 C450 1.391 . S
C452 C453 1.400 . S
C453 C447 1.491 . S
C453 C452 1.400 . S
C453 C454 1.398 . S
C454 H442 0.950 . S
C454 C453 1.398 . S
C454 C455 1.391 . S
C455 H443 0.950 . S
C455 C451 1.393 . S
C455 C454 1.391 . S
H456 C464 0.950 . S
H457 C469 0.950 . S
H458 C466 0.950 . S
H459 C468 0.950 . S
H460 C470 0.950 . S
H461 C472 0.950 . S
H462 C474 0.950 . S
H463 C475 0.950 . S
C464 H456 0.950 . S
C464 C465 1.386 . S
C464 C466 1.391 . S
C465 C464 1.386 . S
C465 C469 1.393 . S
C466 H458 0.950 . S
C466 C464 1.391 . S
C466 C467 1.400 . S
C467 C466 1.400 . S
C467 C468 1.398 . S
C467 C473 1.491 . S
C468 H459 0.950 . S
C468 C467 1.398 . S
C468 C469 1.391 . S
C469 H457 0.950 . S
C469 C465 1.393 . S
C469 C468 1.391 . S
C470 H460 0.950 . S
C470 C471 1.386 . S
C470 C472 1.391 . S
C471 C470 1.386 . S
C471 C475 1.393 . S
C472 H461 0.950 . S
C472 C470 1.391 . S
C472 C473 1.400 . S
C473 C467 1.491 . S
C473 C472 1.400 . S
C473 C474 1.398 . S
C474 H462 0.950 . S
C474 C473 1.398 . S
C474 C475 1.391 . S
C475 H463 0.950 . S
C475 C471 1.393 . S
C475 C474 1.391 . S
H476 C484 0.950 . S
H477 C489 0.950 . S
H478 C486 0.950 . S
H479 C488 0.950 . S
H480 C490 0.950 . S
H481 C492 0.950 . S
H482 C494 0.950 . S
H483 C495 0.950 . S
C484 H476 0.950 . S
C484 C485 1.386 . S
C484 C486 1.391 . S
C485 C484 1.386 . S
C485 C489 1.393 . S
C486 H478 0.950 . S
C486 C484 1.391 . S
C486 C487 1.400 . S
C487 C486 1.400 . S
C487 C488 1.398 . S
C487 C493 1.491 . S
C488 H479 0.950 . S
C488 C487 1.398 . S
C488 C489 1.391 . S
C489 H477 0.950 . S
C489 C485 1.393 . S
C489 C488 1.391 . S
C490 H480 0.950 . S
C490 C491 1.386 . S
C490 C492 1.391 . S
C491 C490 1.386 . S
C491 C495 1.393 . S
C492 H481 0.950 . S
C492 C490 1.391 . S
C492 C493 1.400 . S
C493 C487 1.491 . S
C493 C492 1.400 . S
C493 C494 1.398 . S
C494 H482 0.950 . S
C494 C493 1.398 . S
C494 C495 1.391 . S
C495 H483 0.950 . S
C495 C491 1.393 . S
C495 C494 1.391 . S
H496 C504 0.950 . S
H497 C509 0.950 . S
H498 C506 0.950 . S
H499 C508 0.950 . S
H500 C510 0.950 . S
H501 C512 0.950 . S
H502 C514 0.950 . S
H503 C515 0.950 . S
C504 H496 0.950 . S
C504 C505 1.386 . S
C504 C506 1.391 . S
C505 C504 1.386 . S
C505 C509 1.393 . S
C506 H498 0.950 . S
C506 C504 1.391 . S
C506 C507 1.400 . S
C507 C506 1.400 . S
C507 C508 1.398 . S
C507 C513 1.491 . S
C508 H499 0.950 . S
C508 C507 1.398 . S
C508 C509 1.391 . S
C509 H497 0.950 . S
C509 C505 1.393 . S
C509 C508 1.391 . S
C510 H500 0.950 . S
C510 C511 1.386 . S
C510 C512 1.391 . S
C511 C510 1.386 . S
C511 C515 1.393 . S
C512 H501 0.950 . S
C512 C510 1.391 . S
C512 C513 1.400 . S
C513 C507 1.491 . S
C513 C512 1.400 . S
C513 C514 1.398 . S
C514 H502 0.950 . S
C514 C513 1.398 . S
C514 C515 1.391 . S
C515 H503 0.950 . S
C515 C511 1.393 . S
C515 C514 1.391 . S
H516 C524 0.950 . S
H517 C529 0.950 . S
H518 C526 0.950 . S
H519 C528 0.950 . S
H520 C530 0.950 . S
H521 C532 0.950 . S
H522 C534 0.950 . S
H523 C535 0.950 . S
C524 H516 0.950 . S
C524 C525 1.386 . S
C524 C526 1.391 . S
C525 C524 1.386 . S
C525 C529 1.393 . S
C526 H518 0.950 . S
C526 C524 1.391 . S
C526 C527 1.400 . S
C527 C526 1.400 . S
C527 C528 1.398 . S
C527 C533 1.491 . S
C528 H519 0.950 . S
C528 C527 1.398 . S
C528 C529 1.391 . S
C529 H517 0.950 . S
C529 C525 1.393 . S
C529 C528 1.391 . S
C530 H520 0.950 . S
C530 C531 1.386 . S
C530 C532 1.391 . S
C531 C530 1.386 . S
C531 C535 1.393 . S
C532 H521 0.950 . S
C532 C530 1.391 . S
C532 C533 1.400 . S
C533 C527 1.491 . S
C533 C532 1.400 . S
C533 C534 1.398 . S
C534 H522 0.950 . S
C534 C533 1.398 . S
C534 C535 1.391 . S
C535 H523 0.950 . S
C535 C531 1.393 . S
C535 C534 1.391 . S
H536 C544 0.950 . S
H537 C549 0.950 . S
H538 C546 0.950 . S
H539 C548 0.950 . S
H540 C550 0.950 . S
H541 C552 0.950 . S
H542 C554 0.950 . S
H543 C555 0.950 . S
C544 H536 0.950 . S
C544 C545 1.386 . S
C544 C546 1.391 . S
C545 C544 1.386 . S
C545 C549 1.393 . S
C546 H538 0.950 . S
C546 C544 1.391 . S
C546 C547 1.400 . S
C547 C546 1.400 . S
C547 C548 1.398 . S
C547 C553 1.491 . S
C548 H539 0.950 . S
C548 C547 1.398 . S
C548 C549 1.391 . S
C549 H537 0.950 . S
C549 C545 1.393 . S
C549 C548 1.391 . S
C550 H540 0.950 . S
C550 C551 1.386 . S
C550 C552 1.391 . S
C551 C550 1.386 . S
C551 C555 1.393 . S
C552 H541 0.950 . S
C552 C550 1.391 . S
C552 C553 1.400 . S
C553 C547 1.491 . S
C553 C552 1.400 . S
C553 C554 1.398 . S
C554 H542 0.950 . S
C554 C553 1.398 . S
C554 C555 1.391 . S
C555 H543 0.950 . S
C555 C551 1.393 . S
C555 C554 1.391 . S
H556 C564 0.950 . S
H557 C569 0.950 . S
H558 C566 0.950 . S
H559 C568 0.950 . S
H560 C570 0.950 . S
H561 C572 0.950 . S
H562 C574 0.950 . S
H563 C575 0.950 . S
C564 H556 0.950 . S
C564 C565 1.386 . S
C564 C566 1.391 . S
C565 C564 1.386 . S
C565 C569 1.393 . S
C566 H558 0.950 . S
C566 C564 1.391 . S
C566 C567 1.400 . S
C567 C566 1.400 . S
C567 C568 1.398 . S
C567 C573 1.491 . S
C568 H559 0.950 . S
C568 C567 1.398 . S
C568 C569 1.391 . S
C569 H557 0.950 . S
C569 C565 1.393 . S
C569 C568 1.391 . S
C570 H560 0.950 . S
C570 C571 1.386 . S
C570 C572 1.391 . S
C571 C570 1.386 . S
C571 C575 1.393 . S
C572 H561 0.950 . S
C572 C570 1.391 . S
C572 C573 1.400 . S
C573 C567 1.491 . S
C573 C572 1.400 . S
C573 C574 1.398 . S
C574 H562 0.950 . S
C574 C573 1.398 . S
C574 C575 1.391 . S
C575 H563 0.950 . S
C575 C571 1.393 . S
C575 C574 1.391 . S
H576 C584 0.950 . S
H577 C589 0.950 . S
H578 C586 0.950 . S
H579 C588 0.950 . S
H580 C590 0.950 . S
H581 C592 0.950 . S
H582 C594 0.950 . S
H583 C595 0.950 . S
C584 H576 0.950 . S
C584 C585 1.386 . S
C584 C586 1.391 . S
C585 C584 1.386 . S
C585 C589 1.393 . S
C586 H578 0.950 . S
C586 C584 1.391 . S
C586 C587 1.400 . S
C587 C586 1.400 . S
C587 C588 1.398 . S
C587 C593 1.491 . S
C588 H579 0.950 . S
C588 C587 1.398 . S
C588 C589 1.391 . S
C589 H577 0.950 . S
C589 C585 1.393 . S
C589 C588 1.391 . S
C590 H580 0.950 . S
C590 C591 1.386 . S
C590 C592 1.391 . S
C591 C590 1.386 . S
C591 C595 1.393 . S
C592 H581 0.950 . S
C592 C590 1.391 . S
C592 C593 1.400 . S
C593 C587 1.491 . S
C593 C592 1.400 . S
C593 C594 1.398 . S
C594 H582 0.950 . S
C594 C593 1.398 . S
C594 C595 1.391 . S
C595 H583 0.950 . S
C595 C591 1.393 . S
C595 C594 1.391 . S
H596 C604 0.950 . S
H597 C609 0.950 . S
H598 C606 0.950 . S
H599 C608 0.950 . S
H600 C610 0.950 . S
H601 C612 0.950 . S
H602 C614 0.950 . S
H603 C615 0.950 . S
C604 H596 0.950 . S
C604 C605 1.386 . S
C604 C606 1.391 . S
C605 C604 1.386 . S
C605 C609 1.393 . S
C606 H598 0.950 . S
C606 C604 1.391 . S
C606 C607 1.400 . S
C607 C606 1.400 . S
C607 C608 1.398 . S
C607 C613 1.491 . S
C608 H599 0.950 . S
C608 C607 1.398 . S
C608 C609 1.391 . S
C609 H597 0.950 . S
C609 C605 1.393 . S
C609 C608 1.391 . S
C610 H600 0.950 . S
C610 C611 1.386 . S
C610 C612 1.391 . S
C611 C610 1.386 . S
C611 C615 1.393 . S
C612 H601 0.950 . S
C612 C610 1.391 . S
C612 C613 1.400 . S
C613 C607 1.491 . S
C613 C612 1.400 . S
C613 C614 1.398 . S
C614 H602 0.950 . S
C614 C613 1.398 . S
C614 C615 1.391 . S
C615 H603 0.950 . S
C615 C611 1.393 . S
C615 C614 1.391 . S
H616 C624 0.950 . S
H617 C629 0.950 . S
H618 C626 0.950 . S
H619 C628 0.950 . S
H620 C630 0.950 . S
H621 C632 0.950 . S
H622 C634 0.950 . S
H623 C635 0.950 . S
C624 H616 0.950 . S
C624 C625 1.386 . S
C624 C626 1.391 . S
C625 C624 1.386 . S
C625 C629 1.393 . S
C626 H618 0.950 . S
C626 C624 1.391 . S
C626 C627 1.400 . S
C627 C626 1.400 . S
C627 C628 1.398 . S
C627 C633 1.491 . S
C628 H619 0.950 . S
C628 C627 1.398 . S
C628 C629 1.391 . S
C629 H617 0.950 . S
C629 C625 1.393 . S
C629 C628 1.391 . S
C630 H620 0.950 . S
C630 C631 1.386 . S
C630 C632 1.391 . S
C631 C630 1.386 . S
C631 C635 1.393 . S
C632 H621 0.950 . S
C632 C630 1.391 . S
C632 C633 1.400 . S
C633 C627 1.491 . S
C633 C632 1.400 . S
C633 C634 1.398 . S
C634 H622 0.950 . S
C634 C633 1.398 . S
C634 C635 1.391 . S
C635 H623 0.950 . S
C635 C631 1.393 . S
C635 C634 1.391 . S
H636 C644 0.950 . S
H637 C649 0.950 . S
H638 C646 0.950 . S
H639 C648 0.950 . S
H640 C650 0.950 . S
H641 C652 0.950 . S
H642 C654 0.950 . S
H643 C655 0.950 . S
C644 H636 0.950 . S
C644 C645 1.386 . S
C644 C646 1.391 . S
C645 C644 1.386 . S
C645 C649 1.393 . S
C646 H638 0.950 . S
C646 C644 1.391 . S
C646 C647 1.400 . S
C647 C646 1.400 . S
C647 C648 1.398 . S
C647 C653 1.491 . S
C648 H639 0.950 . S
C648 C647 1.398 . S
C648 C649 1.391 . S
C649 H637 0.950 . S
C649 C645 1.393 . S
C649 C648 1.391 . S
C650 H640 0.950 . S
C650 C651 1.386 . S
C650 C652 1.391 . S
C651 C650 1.386 . S
C651 C655 1.393 . S
C652 H641 0.950 . S
C652 C650 1.391 . S
C652 C653 1.400 . S
C653 C647 1.491 . S
C653 C652 1.400 . S
C653 C654 1.398 . S
C654 H642 0.950 . S
C654 C653 1.398 . S
C654 C655 1.391 . S
C655 H643 0.950 . S
C655 C651 1.393 . S
C655 C654 1.391 . S
H656 C664 0.950 . S
H657 C669 0.950 . S
H658 C666 0.950 . S
H659 C668 0.950 . S
H660 C670 0.950 . S
H661 C672 0.950 . S
H662 C674 0.950 . S
H663 C675 0.950 . S
C664 H656 0.950 . S
C664 C665 1.386 . S
C664 C666 1.391 . S
C665 C664 1.386 . S
C665 C669 1.393 . S
C666 H658 0.950 . S
C666 C664 1.391 . S
C666 C667 1.400 . S
C667 C666 1.400 . S
C667 C668 1.398 . S
C667 C673 1.491 . S
C668 H659 0.950 . S
C668 C667 1.398 . S
C668 C669 1.391 . S
C669 H657 0.950 . S
C669 C665 1.393 . S
C669 C668 1.391 . S
C670 H660 0.950 . S
C670 C671 1.386 . S
C670 C672 1.391 . S
C671 C670 1.386 . S
C671 C675 1.393 . S
C672 H661 0.950 . S
C672 C670 1.391 . S
C672 C673 1.400 . S
C673 C667 1.491 . S
C673 C672 1.400 . S
C673 C674 1.398 . S
C674 H662 0.950 . S
C674 C673 1.398 . S
C674 C675 1.391 . S
C675 H663 0.950 . S
C675 C671 1.393 . S
C675 C674 1.391 . S
H676 C684 0.950 . S
H677 C689 0.950 . S
H678 C686 0.950 . S
H679 C688 0.950 . S
H680 C690 0.950 . S
H681 C692 0.950 . S
H682 C694 0.950 . S
H683 C695 0.950 . S
C684 H676 0.950 . S
C684 C685 1.386 . S
C684 C686 1.391 . S
C685 C684 1.386 . S
C685 C689 1.393 . S
C686 H678 0.950 . S
C686 C684 1.391 . S
C686 C687 1.400 . S
C687 C686 1.400 . S
C687 C688 1.398 . S
C687 C693 1.491 . S
C688 H679 0.950 . S
C688 C687 1.398 . S
C688 C689 1.391 . S
C689 H677 0.950 . S
C689 C685 1.393 . S
C689 C688 1.391 . S
C690 H680 0.950 . S
C690 C691 1.386 . S
C690 C692 1.391 . S
C691 C690 1.386 . S
C691 C695 1.393 . S
C692 H681 0.950 . S
C692 C690 1.391 . S
C692 C693 1.400 . S
C693 C687 1.491 . S
C693 C692 1.400 . S
C693 C694 1.398 . S
C694 H682 0.950 . S
C694 C693 1.398 . S
C694 C695 1.391 . S
C695 H683 0.950 . S
C695 C691 1.393 . S
C695 C694 1.391 . S
H696 C704 0.950 . S
H697 C709 0.950 . S
H698 C706 0.950 . S
H699 C708 0.950 . S
H700 C710 0.950 . S
H701 C712 0.950 . S
H702 C714 0.950 . S
H703 C715 0.950 . S
C704 H696 0.950 . S
C704 C705 1.386 . S
C704 C706 1.391 . S
C705 C704 1.386 . S
C705 C709 1.393 . S
C706 H698 0.950 . S
C706 C704 1.391 . S
C706 C707 1.400 . S
C707 C706 1.400 . S
C707 C708 1.398 . S
C707 C713 1.491 . S
C708 H699 0.950 . S
C708 C707 1.398 . S
C708 C709 1.391 . S
C709 H697 0.950 . S
C709 C705 1.393 . S
C709 C708 1.391 . S
C710 H700 0.950 . S
C710 C711 1.386 . S
C710 C712 1.391 . S
C711 C710 1.386 . S
C711 C715 1.393 . S
C712 H701 0.950 . S
C712 C710 1.391 . S
C712 C713 1.400 . S
C713 C707 1.491 . S
C713 C712 1.400 . S
C713 C714 1.398 . S
C714 H702 0.950 . S
C714 C713 1.398 . S
C714 C715 1.391 . S
C715 H703 0.950 . S
C715 C711 1.393 . S
C715 C714 1.391 . S
H716 C724 0.950 . S
H717 C729 0.950 . S
H718 C726 0.950 . S
H719 C728 0.950 . S
H720 C730 0.950 . S
H721 C732 0.950 . S
H722 C734 0.950 . S
H723 C735 0.950 . S
C724 H716 0.950 . S
C724 C725 1.386 . S
C724 C726 1.391 . S
C725 C724 1.386 . S
C725 C729 1.393 . S
C726 H718 0.950 . S
C726 C724 1.391 . S
C726 C727 1.400 . S
C727 C726 1.400 . S
C727 C728 1.398 . S
C727 C733 1.491 . S
C728 H719 0.950 . S
C728 C727 1.398 . S
C728 C729 1.391 . S
C729 H717 0.950 . S
C729 C725 1.393 . S
C729 C728 1.391 . S
C730 H720 0.950 . S
C730 C731 1.386 . S
C730 C732 1.391 . S
C731 C730 1.386 . S
C731 C735 1.393 . S
C732 H721 0.950 . S
C732 C730 1.391 . S
C732 C733 1.400 . S
C733 C727 1.491 . S
C733 C732 1.400 . S
C733 C734 1.398 . S
C734 H722 0.950 . S
C734 C733 1.398 . S
C734 C735 1.391 . S
C735 H723 0.950 . S
C735 C731 1.393 . S
C735 C734 1.391 . S
H736 C744 0.950 . S
H737 C749 0.950 . S
H738 C746 0.950 . S
H739 C748 0.950 . S
H740 C750 0.950 . S
H741 C752 0.950 . S
H742 C754 0.950 . S
H743 C755 0.950 . S
C744 H736 0.950 . S
C744 C745 1.386 . S
C744 C746 1.391 . S
C745 C744 1.386 . S
C745 C749 1.393 . S
C746 H738 0.950 . S
C746 C744 1.391 . S
C746 C747 1.400 . S
C747 C746 1.400 . S
C747 C748 1.398 . S
C747 C753 1.491 . S
C748 H739 0.950 . S
C748 C747 1.398 . S
C748 C749 1.391 . S
C749 H737 0.950 . S
C749 C745 1.393 . S
C749 C748 1.391 . S
C750 H740 0.950 . S
C750 C751 1.386 . S
C750 C752 1.391 . S
C751 C750 1.386 . S
C751 C755 1.393 . S
C752 H741 0.950 . S
C752 C750 1.391 . S
C752 C753 1.400 . S
C753 C747 1.491 . S
C753 C752 1.400 . S
C753 C754 1.398 . S
C754 H742 0.950 . S
C754 C753 1.398 . S
C754 C755 1.391 . S
C755 H743 0.950 . S
C755 C751 1.393 . S
C755 C754 1.391 . S
H756 C764 0.950 . S
H757 C769 0.950 . S
H758 C766 0.950 . S
H759 C768 0.950 . S
H760 C770 0.950 . S
H761 C772 0.950 . S
H762 C774 0.950 . S
H763 C775 0.950 . S
C764 H756 0.950 . S
C764 C765 1.386 . S
C764 C766 1.391 . S
C765 C764 1.386 . S
C765 C769 1.393 . S
C766 H758 0.950 . S
C766 C764 1.391 . S
C766 C767 1.400 . S
C767 C766 1.400 . S
C767 C768 1.398 . S
C767 C773 1.491 . S
C768 H759 0.950 . S
C768 C767 1.398 . S
C768 C769 1.391 . S
C769 H757 0.950 . S
C769 C765 1.393 . S
C769 C768 1.391 . S
C770 H760 0.950 . S
C770 C771 1.386 . S
C770 C772 1.391 . S
C771 C770 1.386 . S
C771 C775 1.393 . S
C772 H761 0.950 . S
C772 C770 1.391 . S
C772 C773 1.400 . S
C773 C767 1.491 . S
C773 C772 1.400 . S
C773 C774 1.398 . S
C774 H762 0.950 . S
C774 C773 1.398 . S
C774 C775 1.391 . S
C775 H763 0.950 . S
C775 C771 1.393 . S
C775 C774 1.391 . S
H776 C784 0.950 . S
H777 C789 0.950 . S
H778 C786 0.950 . S
H779 C788 0.950 . S
H780 C790 0.950 . S
H781 C792 0.950 . S
H782 C794 0.950 . S
H783 C795 0.950 . S
C784 H776 0.950 . S
C784 C785 1.386 . S
C784 C786 1.391 . S
C785 C784 1.386 . S
C785 C789 1.393 . S
C786 H778 0.950 . S
C786 C784 1.391 . S
C786 C787 1.400 . S
C787 C786 1.400 . S
C787 C788 1.398 . S
C787 C793 1.491 . S
C788 H779 0.950 . S
C788 C787 1.398 . S
C788 C789 1.391 . S
C789 H777 0.950 . S
C789 C785 1.393 . S
C789 C788 1.391 . S
C790 H780 0.950 . S
C790 C791 1.386 . S
C790 C792 1.391 . S
C791 C790 1.386 . S
C791 C795 1.393 . S
C792 H781 0.950 . S
C792 C790 1.391 . S
C792 C793 1.400 . S
C793 C787 1.491 . S
C793 C792 1.400 . S
C793 C794 1.398 . S
C794 H782 0.950 . S
C794 C793 1.398 . S
C794 C795 1.391 . S
C795 H783 0.950 . S
C795 C791 1.393 . S
C795 C794 1.391 . S
H796 C804 0.950 . S
H797 C809 0.950 . S
H798 C806 0.950 . S
H799 C808 0.950 . S
H800 C810 0.950 . S
H801 C812 0.950 . S
H802 C814 0.950 . S
H803 C815 0.950 . S
C804 H796 0.950 . S
C804 C805 1.386 . S
C804 C806 1.391 . S
C805 C804 1.386 . S
C805 C809 1.393 . S
C806 H798 0.950 . S
C806 C804 1.391 . S
C806 C807 1.400 . S
C807 C806 1.400 . S
C807 C808 1.398 . S
C807 C813 1.491 . S
C808 H799 0.950 . S
C808 C807 1.398 . S
C808 C809 1.391 . S
C809 H797 0.950 . S
C809 C805 1.393 . S
C809 C808 1.391 . S
C810 H800 0.950 . S
C810 C811 1.386 . S
C810 C812 1.391 . S
C811 C810 1.386 . S
C811 C815 1.393 . S
C812 H801 0.950 . S
C812 C810 1.391 . S
C812 C813 1.400 . S
C813 C807 1.491 . S
C813 C812 1.400 . S
C813 C814 1.398 . S
C814 H802 0.950 . S
C814 C813 1.398 . S
C814 C815 1.391 . S
C815 H803 0.950 . S
C815 C811 1.393 . S
C815 C814 1.391 . S
H816 C824 0.950 1_545 S
H817 C829 0.950 . S
H818 C826 0.950 . S
H819 C828 0.950 . S
H820 C830 0.950 1_565 S
H821 C832 0.950 . S
H822 C834 0.950 . S
H823 C835 0.950 . S
C824 H816 0.950 1_565 S
C824 C825 1.386 . S
C824 C826 1.391 1_565 S
C825 C824 1.386 . S
C825 C829 1.393 . S
C826 H818 0.950 . S
C826 C824 1.391 1_545 S
C826 C827 1.400 1_545 S
C827 C826 1.400 1_565 S
C827 C828 1.398 . S
C827 C833 1.491 1_566 S
C828 H819 0.950 . S
C828 C827 1.398 . S
C828 C829 1.391 . S
C829 H817 0.950 . S
C829 C825 1.393 . S
C829 C828 1.391 . S
C830 H820 0.950 1_545 S
C830 C831 1.386 . S
C830 C832 1.391 1_545 S
C831 C830 1.386 . S
C831 C835 1.393 . S
C832 H821 0.950 . S
C832 C830 1.391 1_565 S
C832 C833 1.400 1_565 S
C833 C827 1.491 1_544 S
C833 C832 1.400 1_545 S
C833 C834 1.398 . S
C834 H822 0.950 . S
C834 C833 1.398 . S
C834 C835 1.391 . S
C835 H823 0.950 . S
C835 C831 1.393 . S
C835 C834 1.391 . S
H836 C844 0.950 . S
H837 C849 0.950 . S
H838 C846 0.950 . S
H839 C848 0.950 . S
H840 C850 0.950 . S
H841 C852 0.950 . S
H842 C854 0.950 . S
H843 C855 0.950 . S
C844 H836 0.950 . S
C844 C845 1.386 . S
C844 C846 1.391 . S
C845 C844 1.386 . S
C845 C849 1.393 . S
C846 H838 0.950 . S
C846 C844 1.391 . S
C846 C847 1.400 . S
C847 C846 1.400 . S
C847 C848 1.398 . S
C847 C853 1.491 . S
C848 H839 0.950 . S
C848 C847 1.398 . S
C848 C849 1.391 . S
C849 H837 0.950 . S
C849 C845 1.393 . S
C849 C848 1.391 . S
C850 H840 0.950 . S
C850 C851 1.386 . S
C850 C852 1.391 . S
C851 C850 1.386 . S
C851 C855 1.393 . S
C852 H841 0.950 . S
C852 C850 1.391 . S
C852 C853 1.400 . S
C853 C847 1.491 . S
C853 C852 1.400 . S
C853 C854 1.398 . S
C854 H842 0.950 . S
C854 C853 1.398 . S
C854 C855 1.391 . S
C855 H843 0.950 . S
C855 C851 1.393 . S
C855 C854 1.391 . S
H856 C864 0.950 . S
H857 C869 0.950 . S
H858 C866 0.950 1_655 S
H859 C868 0.950 . S
H860 C870 0.950 . S
H861 C872 0.950 1_455 S
H862 C874 0.950 . S
H863 C875 0.950 . S
C864 H856 0.950 . S
C864 C865 1.386 . S
C864 C866 1.391 . S
C865 C864 1.386 . S
C865 C869 1.393 . S
C866 H858 0.950 1_455 S
C866 C864 1.391 . S
C866 C867 1.400 . S
C867 C866 1.400 . S
C867 C868 1.398 . S
C867 C873 1.491 1_456 S
C868 H859 0.950 . S
C868 C867 1.398 . S
C868 C869 1.391 . S
C869 H857 0.950 . S
C869 C865 1.393 . S
C869 C868 1.391 . S
C870 H860 0.950 . S
C870 C871 1.386 . S
C870 C872 1.391 . S
C871 C870 1.386 . S
C871 C875 1.393 . S
C872 H861 0.950 1_655 S
C872 C870 1.391 . S
C872 C873 1.400 . S
C873 C867 1.491 1_654 S
C873 C872 1.400 . S
C873 C874 1.398 . S
C874 H862 0.950 . S
C874 C873 1.398 . S
C874 C875 1.391 . S
C875 H863 0.950 . S
C875 C871 1.393 . S
C875 C874 1.391 . S
H876 C884 0.950 . S
H877 C889 0.950 . S
H878 C886 0.950 . S
H879 C888 0.950 . S
H880 C890 0.950 . S
H881 C892 0.950 . S
H882 C894 0.950 . S
H883 C895 0.950 . S
C884 H876 0.950 . S
C884 C885 1.386 . S
C884 C886 1.391 . S
C885 C884 1.386 . S
C885 C889 1.393 . S
C886 H878 0.950 . S
C886 C884 1.391 . S
C886 C887 1.400 . S
C887 C886 1.400 . S
C887 C888 1.398 1_545 S
C887 C893 1.491 1_545 S
C888 H879 0.950 . S
C888 C887 1.398 1_565 S
C888 C889 1.391 1_565 S
C889 H877 0.950 . S
C889 C885 1.393 . S
C889 C888 1.391 1_545 S
C890 H880 0.950 . S
C890 C891 1.386 . S
C890 C892 1.391 . S
C891 C890 1.386 . S
C891 C895 1.393 . S
C892 H881 0.950 . S
C892 C890 1.391 . S
C892 C893 1.400 . S
C893 C887 1.491 1_565 S
C893 C892 1.400 . S
C893 C894 1.398 1_565 S
C894 H882 0.950 . S
C894 C893 1.398 1_545 S
C894 C895 1.391 1_545 S
C895 H883 0.950 . S
C895 C891 1.393 . S
C895 C894 1.391 1_565 S
H896 C904 0.950 . S
H897 C909 0.950 . S
H898 C906 0.950 . S
H899 C908 0.950 . S
H900 C910 0.950 . S
H901 C912 0.950 . S
H902 C914 0.950 . S
H903 C915 0.950 . S
C904 H896 0.950 . S
C904 C905 1.386 . S
C904 C906 1.391 . S
C905 C904 1.386 . S
C905 C909 1.393 . S
C906 H898 0.950 . S
C906 C904 1.391 . S
C906 C907 1.400 . S
C907 C906 1.400 . S
C907 C908 1.398 . S
C907 C913 1.491 1_554 S
C908 H899 0.950 . S
C908 C907 1.398 . S
C908 C909 1.391 . S
C909 H897 0.950 . S
C909 C905 1.393 . S
C909 C908 1.391 . S
C910 H900 0.950 . S
C910 C911 1.386 . S
C910 C912 1.391 . S
C911 C910 1.386 . S
C911 C915 1.393 . S
C912 H901 0.950 . S
C912 C910 1.391 . S
C912 C913 1.400 . S
C913 C907 1.491 1_556 S
C913 C912 1.400 . S
C913 C914 1.398 . S
C914 H902 0.950 . S
C914 C913 1.398 . S
C914 C915 1.391 . S
C915 H903 0.950 . S
C915 C911 1.393 . S
C915 C914 1.391 . S
H916 C924 0.950 . S
H917 C929 0.950 . S
H918 C926 0.950 1_655 S
H919 C928 0.950 . S
H920 C930 0.950 . S
H921 C932 0.950 1_455 S
H922 C934 0.950 . S
H923 C935 0.950 . S
C924 H916 0.950 . S
C924 C925 1.386 . S
C924 C926 1.391 . S
C925 C924 1.386 . S
C925 C929 1.393 . S
C926 H918 0.950 1_455 S
C926 C924 1.391 . S
C926 C927 1.400 . S
C927 C926 1.400 . S
C927 C928 1.398 . S
C927 C933 1.491 1_455 S
C928 H919 0.950 . S
C928 C927 1.398 . S
C928 C929 1.391 . S
C929 H917 0.950 . S
C929 C925 1.393 . S
C929 C928 1.391 . S
C930 H920 0.950 . S
C930 C931 1.386 . S
C930 C932 1.391 . S
C931 C930 1.386 . S
C931 C935 1.393 . S
C932 H921 0.950 1_655 S
C932 C930 1.391 . S
C932 C933 1.400 . S
C933 C927 1.491 1_655 S
C933 C932 1.400 . S
C933 C934 1.398 . S
C934 H922 0.950 . S
C934 C933 1.398 . S
C934 C935 1.391 . S
C935 H923 0.950 . S
C935 C931 1.393 . S
C935 C934 1.391 . S
H936 C944 0.950 . S
H937 C949 0.950 . S
H938 C946 0.950 . S
H939 C948 0.950 1_545 S
H940 C950 0.950 . S
H941 C952 0.950 . S
H942 C954 0.950 1_565 S
H943 C955 0.950 . S
C944 H936 0.950 . S
C944 C945 1.386 . S
C944 C946 1.391 . S
C945 C944 1.386 . S
C945 C949 1.393 . S
C946 H938 0.950 . S
C946 C944 1.391 . S
C946 C947 1.400 . S
C947 C946 1.400 . S
C947 C948 1.398 . S
C947 C953 1.491 1_566 S
C948 H939 0.950 1_565 S
C948 C947 1.398 . S
C948 C949 1.391 . S
C949 H937 0.950 . S
C949 C945 1.393 . S
C949 C948 1.391 . S
C950 H940 0.950 . S
C950 C951 1.386 . S
C950 C952 1.391 . S
C951 C950 1.386 . S
C951 C955 1.393 . S
C952 H941 0.950 . S
C952 C950 1.391 . S
C952 C953 1.400 . S
C953 C947 1.491 1_544 S
C953 C952 1.400 . S
C953 C954 1.398 . S
C954 H942 0.950 1_545 S
C954 C953 1.398 . S
C954 C955 1.391 . S
C955 H943 0.950 . S
C955 C951 1.393 . S
C955 C954 1.391 . S
H956 C964 0.950 . S
H957 C969 0.950 . S
H958 C966 0.950 . S
H959 C968 0.950 . S
H960 C970 0.950 . S
H961 C972 0.950 . S
H962 C974 0.950 . S
H963 C975 0.950 . S
C964 H956 0.950 . S
C964 C965 1.386 . S
C964 C966 1.391 . S
C965 C964 1.386 . S
C965 C969 1.393 . S
C966 H958 0.950 . S
C966 C964 1.391 . S
C966 C967 1.400 . S
C967 C966 1.400 . S
C967 C968 1.398 . S
C967 C973 1.491 . S
C968 H959 0.950 . S
C968 C967 1.398 . S
C968 C969 1.391 . S
C969 H957 0.950 . S
C969 C965 1.393 . S
C969 C968 1.391 . S
C970 H960 0.950 . S
C970 C971 1.386 . S
C970 C972 1.391 . S
C971 C970 1.386 . S
C971 C975 1.393 . S
C972 H961 0.950 . S
C972 C970 1.391 . S
C972 C973 1.400 . S
C973 C967 1.491 . S
C973 C972 1.400 . S
C973 C974 1.398 . S
C974 H962 0.950 . S
C974 C973 1.398 . S
C974 C975 1.391 . S
C975 H963 0.950 . S
C975 C971 1.393 . S
C975 C974 1.391 . S
H976 C984 0.950 . S
H977 C989 0.950 1_455 S
H978 C986 0.950 . S
H979 C988 0.950 . S
H980 C990 0.950 . S
H981 C992 0.950 . S
H982 C994 0.950 . S
H983 C995 0.950 1_655 S
C984 H976 0.950 . S
C984 C985 1.386 . S
C984 C986 1.391 . S
C985 C984 1.386 . S
C985 C989 1.393 . S
C986 H978 0.950 . S
C986 C984 1.391 . S
C986 C987 1.400 . S
C987 C986 1.400 . S
C987 C988 1.398 1_655 S
C987 C993 1.491 1_654 S
C988 H979 0.950 . S
C988 C987 1.398 1_455 S
C988 C989 1.391 1_455 S
C989 H977 0.950 1_655 S
C989 C985 1.393 . S
C989 C988 1.391 1_655 S
C990 H980 0.950 . S
C990 C991 1.386 . S
C990 C992 1.391 . S
C991 C990 1.386 . S
C991 C995 1.393 . S
C992 H981 0.950 . S
C992 C990 1.391 . S
C992 C993 1.400 . S
C993 C987 1.491 1_456 S
C993 C992 1.400 . S
C993 C994 1.398 1_455 S
C994 H982 0.950 . S
C994 C993 1.398 1_655 S
C994 C995 1.391 1_655 S
C995 H983 0.950 1_455 S
C995 C991 1.393 . S
C995 C994 1.391 1_455 S
H996 C1004 0.950 . S
H997 C1009 0.950 . S
H998 C1006 0.949 . S
H999 C1008 0.950 . S
H1000 C1010 0.950 . S
H1001 C1012 0.949 . S
H1002 C1014 0.950 . S
H1003 C1015 0.950 . S
C1004 H996 0.950 . S
C1004 C1005 1.386 . S
C1004 C1006 1.393 1_565 S
C1005 C1004 1.386 . S
C1005 C1009 1.393 . S
C1006 H998 0.949 . S
C1006 C1004 1.393 1_545 S
C1006 C1007 1.400 1_545 S
C1007 C1006 1.400 1_565 S
C1007 C1008 1.398 . S
C1007 C1013 1.491 1_565 S
C1008 H999 0.950 . S
C1008 C1007 1.398 . S
C1008 C1009 1.391 . S
C1009 H997 0.950 . S
C1009 C1005 1.393 . S
C1009 C1008 1.391 . S
C1010 H1000 0.950 . S
C1010 C1011 1.386 . S
C1010 C1012 1.393 1_545 S
C1011 C1010 1.386 . S
C1011 C1015 1.393 . S
C1012 H1001 0.949 . S
C1012 C1010 1.393 1_565 S
C1012 C1013 1.400 1_565 S
C1013 C1007 1.491 1_545 S
C1013 C1012 1.400 1_545 S
C1013 C1014 1.398 . S
C1014 H1002 0.950 . S
C1014 C1013 1.398 . S
C1014 C1015 1.391 . S
C1015 H1003 0.950 . S
C1015 C1011 1.393 . S
C1015 C1014 1.391 . S
H1016 C1024 0.950 . S
H1017 C1029 0.950 . S
H1018 C1026 0.950 . S
H1019 C1028 0.950 . S
H1020 C1030 0.950 . S
H1021 C1032 0.950 . S
H1022 C1034 0.950 . S
H1023 C1035 0.950 . S
C1024 H1016 0.950 . S
C1024 C1025 1.386 . S
C1024 C1026 1.391 . S
C1025 C1024 1.386 . S
C1025 C1029 1.393 . S
C1026 H1018 0.950 . S
C1026 C1024 1.391 . S
C1026 C1027 1.400 . S
C1027 C1026 1.400 . S
C1027 C1028 1.398 . S
C1027 C1033 1.491 1_554 S
C1028 H1019 0.950 . S
C1028 C1027 1.398 . S
C1028 C1029 1.391 . S
C1029 H1017 0.950 . S
C1029 C1025 1.393 . S
C1029 C1028 1.391 . S
C1030 H1020 0.950 . S
C1030 C1031 1.386 . S
C1030 C1032 1.391 . S
C1031 C1030 1.386 . S
C1031 C1035 1.393 . S
C1032 H1021 0.950 . S
C1032 C1030 1.391 . S
C1032 C1033 1.400 . S
C1033 C1027 1.491 1_556 S
C1033 C1032 1.400 . S
C1033 C1034 1.398 . S
C1034 H1022 0.950 . S
C1034 C1033 1.398 . S
C1034 C1035 1.391 . S
C1035 H1023 0.950 . S
C1035 C1031 1.393 . S
C1035 C1034 1.391 . S
H1036 C1044 0.950 . S
H1037 C1049 0.950 1_655 S
H1038 C1046 0.950 . S
H1039 C1048 0.950 . S
H1040 C1050 0.950 . S
H1041 C1052 0.950 . S
H1042 C1054 0.950 . S
H1043 C1055 0.950 1_455 S
C1044 H1036 0.950 . S
C1044 C1045 1.386 . S
C1044 C1046 1.391 . S
C1045 C1044 1.386 . S
C1045 C1049 1.393 . S
C1046 H1038 0.950 . S
C1046 C1044 1.391 . S
C1046 C1047 1.400 . S
C1047 C1046 1.400 . S
C1047 C1048 1.398 1_455 S
C1047 C1053 1.491 1_455 S
C1048 H1039 0.950 . S
C1048 C1047 1.398 1_655 S
C1048 C1049 1.391 1_655 S
C1049 H1037 0.950 1_455 S
C1049 C1045 1.393 . S
C1049 C1048 1.391 1_455 S
C1050 H1040 0.950 . S
C1050 C1051 1.386 . S
C1050 C1052 1.391 . S
C1051 C1050 1.386 . S
C1051 C1055 1.393 . S
C1052 H1041 0.950 . S
C1052 C1050 1.391 . S
C1052 C1053 1.400 . S
C1053 C1047 1.491 1_655 S
C1053 C1052 1.400 . S
C1053 C1054 1.398 1_655 S
C1054 H1042 0.950 . S
C1054 C1053 1.398 1_455 S
C1054 C1055 1.391 1_455 S
C1055 H1043 0.950 1_655 S
C1055 C1051 1.393 . S
C1055 C1054 1.391 1_655 S
H1056 C1064 0.950 . S
H1057 C1069 0.950 . S
H1058 C1066 0.950 . S
H1059 C1068 0.950 . S
H1060 C1070 0.950 . S
H1061 C1072 0.950 . S
H1062 C1074 0.950 . S
H1063 C1075 0.950 . S
C1064 H1056 0.950 . S
C1064 C1065 1.386 . S
C1064 C1066 1.391 . S
C1065 C1064 1.386 . S
C1065 C1069 1.393 . S
C1066 H1058 0.950 . S
C1066 C1064 1.391 . S
C1066 C1067 1.400 . S
C1067 C1066 1.400 . S
C1067 C1068 1.398 . S
C1067 C1073 1.491 . S
C1068 H1059 0.950 . S
C1068 C1067 1.398 . S
C1068 C1069 1.391 . S
C1069 H1057 0.950 . S
C1069 C1065 1.393 . S
C1069 C1068 1.391 . S
C1070 H1060 0.950 . S
C1070 C1071 1.386 . S
C1070 C1072 1.391 . S
C1071 C1070 1.386 . S
C1071 C1075 1.393 . S
C1072 H1061 0.950 . S
C1072 C1070 1.391 . S
C1072 C1073 1.400 . S
C1073 C1067 1.491 . S
C1073 C1072 1.400 . S
C1073 C1074 1.398 . S
C1074 H1062 0.950 . S
C1074 C1073 1.398 . S
C1074 C1075 1.391 . S
C1075 H1063 0.950 . S
C1075 C1071 1.393 . S
C1075 C1074 1.391 . S
H1076 C1084 0.950 . S
H1077 C1089 0.950 . S
H1078 C1086 0.950 . S
H1079 C1088 0.950 . S
H1080 C1090 0.950 . S
H1081 C1092 0.950 . S
H1082 C1094 0.950 . S
H1083 C1095 0.950 . S
C1084 H1076 0.950 . S
C1084 C1085 1.386 . S
C1084 C1086 1.391 . S
C1085 C1084 1.386 . S
C1085 C1089 1.393 . S
C1086 H1078 0.950 . S
C1086 C1084 1.391 . S
C1086 C1087 1.400 . S
C1087 C1086 1.400 . S
C1087 C1088 1.398 . S
C1087 C1093 1.491 . S
C1088 H1079 0.950 . S
C1088 C1087 1.398 . S
C1088 C1089 1.391 . S
C1089 H1077 0.950 . S
C1089 C1085 1.393 . S
C1089 C1088 1.391 . S
C1090 H1080 0.950 . S
C1090 C1091 1.386 . S
C1090 C1092 1.391 . S
C1091 C1090 1.386 . S
C1091 C1095 1.393 . S
C1092 H1081 0.950 . S
C1092 C1090 1.391 . S
C1092 C1093 1.400 . S
C1093 C1087 1.491 . S
C1093 C1092 1.400 . S
C1093 C1094 1.398 . S
C1094 H1082 0.950 . S
C1094 C1093 1.398 . S
C1094 C1095 1.391 . S
C1095 H1083 0.950 . S
C1095 C1091 1.393 . S
C1095 C1094 1.391 . S
H1096 C1104 0.950 . S
H1097 C1109 0.950 . S
H1098 C1106 0.950 . S
H1099 C1108 0.950 . S
H1100 C1110 0.950 . S
H1101 C1112 0.950 . S
H1102 C1114 0.950 . S
H1103 C1115 0.950 . S
C1104 H1096 0.950 . S
C1104 C1105 1.386 . S
C1104 C1106 1.391 . S
C1105 C1104 1.386 . S
C1105 C1109 1.393 . S
C1106 H1098 0.950 . S
C1106 C1104 1.391 . S
C1106 C1107 1.400 . S
C1107 C1106 1.400 . S
C1107 C1108 1.398 . S
C1107 C1113 1.491 . S
C1108 H1099 0.950 . S
C1108 C1107 1.398 . S
C1108 C1109 1.391 . S
C1109 H1097 0.950 . S
C1109 C1105 1.393 . S
C1109 C1108 1.391 . S
C1110 H1100 0.950 . S
C1110 C1111 1.386 . S
C1110 C1112 1.391 . S
C1111 C1110 1.386 . S
C1111 C1115 1.393 . S
C1112 H1101 0.950 . S
C1112 C1110 1.391 . S
C1112 C1113 1.400 . S
C1113 C1107 1.491 . S
C1113 C1112 1.400 . S
C1113 C1114 1.398 . S
C1114 H1102 0.950 . S
C1114 C1113 1.398 . S
C1114 C1115 1.391 . S
C1115 H1103 0.950 . S
C1115 C1111 1.393 . S
C1115 C1114 1.391 . S
H1116 C1124 0.950 . S
H1117 C1129 0.950 . S
H1118 C1126 0.950 . S
H1119 C1128 0.950 . S
H1120 C1130 0.950 . S
H1121 C1132 0.950 . S
H1122 C1134 0.950 . S
H1123 C1135 0.950 . S
C1124 H1116 0.950 . S
C1124 C1125 1.386 . S
C1124 C1126 1.391 . S
C1125 C1124 1.386 . S
C1125 C1129 1.393 . S
C1126 H1118 0.950 . S
C1126 C1124 1.391 . S
C1126 C1127 1.400 . S
C1127 C1126 1.400 . S
C1127 C1128 1.398 . S
C1127 C1133 1.491 . S
C1128 H1119 0.950 . S
C1128 C1127 1.398 . S
C1128 C1129 1.391 . S
C1129 H1117 0.950 . S
C1129 C1125 1.393 . S
C1129 C1128 1.391 . S
C1130 H1120 0.950 . S
C1130 C1131 1.386 . S
C1130 C1132 1.391 . S
C1131 C1130 1.386 . S
C1131 C1135 1.393 . S
C1132 H1121 0.950 . S
C1132 C1130 1.391 . S
C1132 C1133 1.400 . S
C1133 C1127 1.491 . S
C1133 C1132 1.400 . S
C1133 C1134 1.398 . S
C1134 H1122 0.950 . S
C1134 C1133 1.398 . S
C1134 C1135 1.391 . S
C1135 H1123 0.950 . S
C1135 C1131 1.393 . S
C1135 C1134 1.391 . S
H1136 C1144 0.950 . S
H1137 C1149 0.950 . S
H1138 C1146 0.950 . S
H1139 C1148 0.950 . S
H1140 C1150 0.950 . S
H1141 C1152 0.950 . S
H1142 C1154 0.950 . S
H1143 C1155 0.950 . S
C1144 H1136 0.950 . S
C1144 C1145 1.386 . S
C1144 C1146 1.391 . S
C1145 C1144 1.386 . S
C1145 C1149 1.393 . S
C1146 H1138 0.950 . S
C1146 C1144 1.391 . S
C1146 C1147 1.400 . S
C1147 C1146 1.400 . S
C1147 C1148 1.398 . S
C1147 C1153 1.491 . S
C1148 H1139 0.950 . S
C1148 C1147 1.398 . S
C1148 C1149 1.391 . S
C1149 H1137 0.950 . S
C1149 C1145 1.393 . S
C1149 C1148 1.391 . S
C1150 H1140 0.950 . S
C1150 C1151 1.386 . S
C1150 C1152 1.391 . S
C1151 C1150 1.386 . S
C1151 C1155 1.393 . S
C1152 H1141 0.950 . S
C1152 C1150 1.391 . S
C1152 C1153 1.400 . S
C1153 C1147 1.491 . S
C1153 C1152 1.400 . S
C1153 C1154 1.398 . S
C1154 H1142 0.950 . S
C1154 C1153 1.398 . S
C1154 C1155 1.391 . S
C1155 H1143 0.950 . S
C1155 C1151 1.393 . S
C1155 C1154 1.391 . S
H1156 C1164 0.950 . S
H1157 C1169 0.950 . S
H1158 C1166 0.950 . S
H1159 C1168 0.950 . S
H1160 C1170 0.950 . S
H1161 C1172 0.950 . S
H1162 C1174 0.950 . S
H1163 C1175 0.950 . S
C1164 H1156 0.950 . S
C1164 C1165 1.386 . S
C1164 C1166 1.391 . S
C1165 C1164 1.386 . S
C1165 C1169 1.393 . S
C1166 H1158 0.950 . S
C1166 C1164 1.391 . S
C1166 C1167 1.400 . S
C1167 C1166 1.400 . S
C1167 C1168 1.398 . S
C1167 C1173 1.491 . S
C1168 H1159 0.950 . S
C1168 C1167 1.398 . S
C1168 C1169 1.391 . S
C1169 H1157 0.950 . S
C1169 C1165 1.393 . S
C1169 C1168 1.391 . S
C1170 H1160 0.950 . S
C1170 C1171 1.386 . S
C1170 C1172 1.391 . S
C1171 C1170 1.386 . S
C1171 C1175 1.393 . S
C1172 H1161 0.950 . S
C1172 C1170 1.391 . S
C1172 C1173 1.400 . S
C1173 C1167 1.491 . S
C1173 C1172 1.400 . S
C1173 C1174 1.398 . S
C1174 H1162 0.950 . S
C1174 C1173 1.398 . S
C1174 C1175 1.391 . S
C1175 H1163 0.950 . S
C1175 C1171 1.393 . S
C1175 C1174 1.391 . S
H1176 C1184 0.950 . S
H1177 C1189 0.950 . S
H1178 C1186 0.950 . S
H1179 C1188 0.950 . S
H1180 C1190 0.950 . S
H1181 C1192 0.950 . S
H1182 C1194 0.950 . S
H1183 C1195 0.950 . S
C1184 H1176 0.950 . S
C1184 C1185 1.386 . S
C1184 C1186 1.391 . S
C1185 C1184 1.386 . S
C1185 C1189 1.393 . S
C1186 H1178 0.950 . S
C1186 C1184 1.391 . S
C1186 C1187 1.400 . S
C1187 C1186 1.400 . S
C1187 C1188 1.398 . S
C1187 C1193 1.491 . S
C1188 H1179 0.950 . S
C1188 C1187 1.398 . S
C1188 C1189 1.391 . S
C1189 H1177 0.950 . S
C1189 C1185 1.393 . S
C1189 C1188 1.391 . S
C1190 H1180 0.950 . S
C1190 C1191 1.386 . S
C1190 C1192 1.391 . S
C1191 C1190 1.386 . S
C1191 C1195 1.393 . S
C1192 H1181 0.950 . S
C1192 C1190 1.391 . S
C1192 C1193 1.400 . S
C1193 C1187 1.491 . S
C1193 C1192 1.400 . S
C1193 C1194 1.398 . S
C1194 H1182 0.950 . S
C1194 C1193 1.398 . S
C1194 C1195 1.391 . S
C1195 H1183 0.950 . S
C1195 C1191 1.393 . S
C1195 C1194 1.391 . S
H1196 C1204 0.950 . S
H1197 C1209 0.950 . S
H1198 C1206 0.950 . S
H1199 C1208 0.950 . S
H1200 C1210 0.950 . S
H1201 C1212 0.950 . S
H1202 C1214 0.950 . S
H1203 C1215 0.950 . S
C1204 H1196 0.950 . S
C1204 C1205 1.386 . S
C1204 C1206 1.391 . S
C1205 C1204 1.386 . S
C1205 C1209 1.393 . S
C1206 H1198 0.950 . S
C1206 C1204 1.391 . S
C1206 C1207 1.400 . S
C1207 C1206 1.400 . S
C1207 C1208 1.398 . S
C1207 C1213 1.491 . S
C1208 H1199 0.950 . S
C1208 C1207 1.398 . S
C1208 C1209 1.391 . S
C1209 H1197 0.950 . S
C1209 C1205 1.393 . S
C1209 C1208 1.391 . S
C1210 H1200 0.950 . S
C1210 C1211 1.386 . S
C1210 C1212 1.391 . S
C1211 C1210 1.386 . S
C1211 C1215 1.393 . S
C1212 H1201 0.950 . S
C1212 C1210 1.391 . S
C1212 C1213 1.400 . S
C1213 C1207 1.491 . S
C1213 C1212 1.400 . S
C1213 C1214 1.398 . S
C1214 H1202 0.950 . S
C1214 C1213 1.398 . S
C1214 C1215 1.391 . S
C1215 H1203 0.950 . S
C1215 C1211 1.393 . S
C1215 C1214 1.391 . S
H1216 C1224 0.950 . S
H1217 C1229 0.950 . S
H1218 C1226 0.950 . S
H1219 C1228 0.950 . S
H1220 C1230 0.950 . S
H1221 C1232 0.950 . S
H1222 C1234 0.950 . S
H1223 C1235 0.950 . S
C1224 H1216 0.950 . S
C1224 C1225 1.386 . S
C1224 C1226 1.391 . S
C1225 C1224 1.386 . S
C1225 C1229 1.393 . S
C1226 H1218 0.950 . S
C1226 C1224 1.391 . S
C1226 C1227 1.400 . S
C1227 C1226 1.400 . S
C1227 C1228 1.398 . S
C1227 C1233 1.491 . S
C1228 H1219 0.950 . S
C1228 C1227 1.398 . S
C1228 C1229 1.391 . S
C1229 H1217 0.950 . S
C1229 C1225 1.393 . S
C1229 C1228 1.391 . S
C1230 H1220 0.950 . S
C1230 C1231 1.386 . S
C1230 C1232 1.391 . S
C1231 C1230 1.386 . S
C1231 C1235 1.393 . S
C1232 H1221 0.950 . S
C1232 C1230 1.391 . S
C1232 C1233 1.400 . S
C1233 C1227 1.491 . S
C1233 C1232 1.400 . S
C1233 C1234 1.398 . S
C1234 H1222 0.950 . S
C1234 C1233 1.398 . S
C1234 C1235 1.391 . S
C1235 H1223 0.950 . S
C1235 C1231 1.393 . S
C1235 C1234 1.391 . S
H1236 C1244 0.950 . S
H1237 C1249 0.950 . S
H1238 C1246 0.950 . S
H1239 C1248 0.950 . S
H1240 C1250 0.950 . S
H1241 C1252 0.950 . S
H1242 C1254 0.950 . S
H1243 C1255 0.950 . S
C1244 H1236 0.950 . S
C1244 C1245 1.386 . S
C1244 C1246 1.391 . S
C1245 C1244 1.386 . S
C1245 C1249 1.393 . S
C1246 H1238 0.950 . S
C1246 C1244 1.391 . S
C1246 C1247 1.400 . S
C1247 C1246 1.400 . S
C1247 C1248 1.398 . S
C1247 C1253 1.491 . S
C1248 H1239 0.950 . S
C1248 C1247 1.398 . S
C1248 C1249 1.391 . S
C1249 H1237 0.950 . S
C1249 C1245 1.393 . S
C1249 C1248 1.391 . S
C1250 H1240 0.950 . S
C1250 C1251 1.386 . S
C1250 C1252 1.391 . S
C1251 C1250 1.386 . S
C1251 C1255 1.393 . S
C1252 H1241 0.950 . S
C1252 C1250 1.391 . S
C1252 C1253 1.400 . S
C1253 C1247 1.491 . S
C1253 C1252 1.400 . S
C1253 C1254 1.398 . S
C1254 H1242 0.950 . S
C1254 C1253 1.398 . S
C1254 C1255 1.391 . S
C1255 H1243 0.950 . S
C1255 C1251 1.393 . S
C1255 C1254 1.391 . S
H1256 C1264 0.950 . S
H1257 C1269 0.950 . S
H1258 C1266 0.950 . S
H1259 C1268 0.950 . S
H1260 C1270 0.950 . S
H1261 C1272 0.950 . S
H1262 C1274 0.950 . S
H1263 C1275 0.950 . S
C1264 H1256 0.950 . S
C1264 C1265 1.386 . S
C1264 C1266 1.391 . S
C1265 C1264 1.386 . S
C1265 C1269 1.393 . S
C1266 H1258 0.950 . S
C1266 C1264 1.391 . S
C1266 C1267 1.400 . S
C1267 C1266 1.400 . S
C1267 C1268 1.398 . S
C1267 C1273 1.491 . S
C1268 H1259 0.950 . S
C1268 C1267 1.398 . S
C1268 C1269 1.391 . S
C1269 H1257 0.950 . S
C1269 C1265 1.393 . S
C1269 C1268 1.391 . S
C1270 H1260 0.950 . S
C1270 C1271 1.386 . S
C1270 C1272 1.391 . S
C1271 C1270 1.386 . S
C1271 C1275 1.393 . S
C1272 H1261 0.950 . S
C1272 C1270 1.391 . S
C1272 C1273 1.400 . S
C1273 C1267 1.491 . S
C1273 C1272 1.400 . S
C1273 C1274 1.398 . S
C1274 H1262 0.950 . S
C1274 C1273 1.398 . S
C1274 C1275 1.391 . S
C1275 H1263 0.950 . S
C1275 C1271 1.393 . S
C1275 C1274 1.391 . S
H1276 C1284 0.950 . S
H1277 C1289 0.950 . S
H1278 C1286 0.950 . S
H1279 C1288 0.950 . S
H1280 C1290 0.950 . S
H1281 C1292 0.950 . S
H1282 C1294 0.950 . S
H1283 C1295 0.950 . S
C1284 H1276 0.950 . S
C1284 C1285 1.386 . S
C1284 C1286 1.391 . S
C1285 C1284 1.386 . S
C1285 C1289 1.393 . S
C1286 H1278 0.950 . S
C1286 C1284 1.391 . S
C1286 C1287 1.400 . S
C1287 C1286 1.400 . S
C1287 C1288 1.398 . S
C1287 C1293 1.491 . S
C1288 H1279 0.950 . S
C1288 C1287 1.398 . S
C1288 C1289 1.391 . S
C1289 H1277 0.950 . S
C1289 C1285 1.393 . S
C1289 C1288 1.391 . S
C1290 H1280 0.950 . S
C1290 C1291 1.386 . S
C1290 C1292 1.391 . S
C1291 C1290 1.386 . S
C1291 C1295 1.393 . S
C1292 H1281 0.950 . S
C1292 C1290 1.391 . S
C1292 C1293 1.400 . S
C1293 C1287 1.491 . S
C1293 C1292 1.400 . S
C1293 C1294 1.398 . S
C1294 H1282 0.950 . S
C1294 C1293 1.398 . S
C1294 C1295 1.391 . S
C1295 H1283 0.950 . S
C1295 C1291 1.393 . S
C1295 C1294 1.391 . S
C345 C218 1.273 . S
C351 C8 1.300 . S
C365 C22 1.295 . S
C371 C232 1.277 . S
C385 C36 1.276 . S
C391 C246 1.297 . S
C405 C50 1.278 . S
C411 C176 1.295 . S
C425 C190 1.289 . S
C431 C64 1.284 . S
C445 C78 1.297 . S
C451 C204 1.275 . S
C465 C302 1.290 . S
C471 C92 1.283 . S
C485 C106 1.300 . S
C491 C316 1.273 . S
C505 C120 1.292 . S
C511 C330 1.281 . S
C525 C260 1.277 . S
C531 C134 1.296 . S
C545 C148 1.298 . S
C551 C274 1.274 . S
C565 C288 1.280 . S
C571 C162 1.293 . S
C585 C6 1.634 . S
C591 C328 1.611 . S
C605 C258 1.633 . S
C611 C20 1.613 . S
C625 C34 1.619 . S
C631 C272 1.627 . S
C645 C286 1.624 . S
C651 C48 1.623 . S
C665 C62 1.634 . S
C671 C300 1.612 . S
C685 C314 1.612 . S
C691 C76 1.634 . S
C705 C90 1.633 . S
C711 C188 1.613 . S
C725 C202 1.623 . S
C731 C104 1.623 . S
C745 C216 1.616 . S
C751 C118 1.632 . S
C765 C230 1.615 . S
C771 C132 1.631 . S
C785 C146 1.630 . S
C791 C244 1.616 . S
C805 C160 1.629 . S
C811 C174 1.616 . S
C825 C105 1.360 . S
C831 C7 1.353 . S
C845 C119 1.354 . S
C851 C21 1.353 . S
C865 C133 1.356 . S
C871 C35 1.352 . S
C885 C147 1.352 . S
C891 C49 1.356 . S
C905 C63 1.362 . S
C911 C161 1.354 . S
C925 C77 1.366 . S
C931 C91 1.362 . S
C945 C175 1.355 . S
C951 C273 1.353 . S
C965 C189 1.360 . S
C971 C287 1.353 . S
C985 C301 1.359 . S
C991 C203 1.352 . S
C1005 C315 1.362 . S
C1011 C217 1.366 . S
C1025 C329 1.364 . S
C1031 C231 1.365 . S
C1045 C259 1.362 . S
C1051 C245 1.354 . S
C1065 C9 1.776 . S
C1071 C275 1.765 . S
C1085 C289 1.769 . S
C1091 C23 1.770 . S
C1105 C37 1.775 . S
C1111 C303 1.766 . S
C1125 C317 1.766 . S
C1131 C51 1.773 . S
C1145 C65 1.769 . S
C1151 C331 1.771 . S
C1165 C261 1.766 . S
C1171 C79 1.775 . S
C1185 C93 1.773 . S
C1191 C247 1.768 . S
C1205 C177 1.776 . S
C1211 C107 1.765 . S
C1225 C121 1.769 . S
C1231 C191 1.771 . S
C1245 C135 1.768 . S
C1251 C205 1.772 . S
C1265 C149 1.768 . S
C1271 C219 1.771 . S
C1285 C163 1.775 . S
C1291 C233 1.765 . S
