# Generated by pormake.
# Topology oof, (8)-cn, num edge types: 1
# Building blocks:
#     Node 0, Type 0, BuildingBlock: EBIMEJ_clean_sbu_0, # of connection points: 8
#     Node 1, Type 0, BuildingBlock: EBIMEJ_clean_sbu_0, # of connection points: 8
#     Node 2, Type 0, BuildingBlock: EBIMEJ_clean_sbu_0, # of connection points: 8
#     Node 3, Type 0, BuildingBlock: EBIMEJ_clean_sbu_0, # of connection points: 8
#     Edge 4, Type (0, 0), BuildingBlock: XIVTED_clean_linker_0, # of connection points: 2
#     Edge 5, Type (0, 0), BuildingBlock: XIVTED_clean_linker_0, # of connection points: 2
#     Edge 6, Type (0, 0), BuildingBlock: XIVTED_clean_linker_0, # of connection points: 2
#     Edge 7, Type (0, 0), BuildingBlock: XIVTED_clean_linker_0, # of connection points: 2
#     Edge 8, Type (0, 0), BuildingBlock: XIVTED_clean_linker_0, # of connection points: 2
#     Edge 9, Type (0, 0), BuildingBlock: XIVTED_clean_linker_0, # of connection points: 2
#     Edge 10, Type (0, 0), BuildingBlock: XIVTED_clean_linker_0, # of connection points: 2
#     Edge 11, Type (0, 0), BuildingBlock: XIVTED_clean_linker_0, # of connection points: 2
#     Edge 12, Type (0, 0), BuildingBlock: XIVTED_clean_linker_0, # of connection points: 2
#     Edge 13, Type (0, 0), BuildingBlock: XIVTED_clean_linker_0, # of connection points: 2
#     Edge 14, Type (0, 0), BuildingBlock: XIVTED_clean_linker_0, # of connection points: 2
#     Edge 15, Type (0, 0), BuildingBlock: XIVTED_clean_linker_0, # of connection points: 2
#     Edge 16, Type (0, 0), BuildingBlock: XIVTED_clean_linker_0, # of connection points: 2
#     Edge 17, Type (0, 0), BuildingBlock: XIVTED_clean_linker_0, # of connection points: 2
#     Edge 18, Type (0, 0), BuildingBlock: XIVTED_clean_linker_0, # of connection points: 2
#     Edge 19, Type (0, 0), BuildingBlock: XIVTED_clean_linker_0, # of connection points: 2
# Relax obj value: 0.053
# Max RMSD: 0.153
# Mean RMSD: 0.153
data_MOF--net-oof--node1-EBIMEJ_clean_sbu_0--edge1-XIVTED_clean_linker_0
_symmetry_space_group_name_H-M    P1
_symmetry_Int_Tables_number       1
_symmetry_cell_setting            triclinic
loop_
_symmetry_equiv_pos_as_xyz
'x, y, z'
_cell_length_a     15.297532
_cell_length_b     68.037127
_cell_length_c     17.614284
_cell_angle_alpha  79.596336
_cell_angle_beta   124.05342
_cell_angle_gamma 96.086423
loop_
_atom_site_label
_atom_site_type_symbol
_atom_site_fract_x
_atom_site_fract_y
_atom_site_fract_z
_atom_type_partial_charge
Co0 Co 0.93909 0.179 0.30465 0.0
Co1 Co 0.93454 0.1578 0.15422 0.0
Co2 Co 0.98016 0.13285 0.33287 0.0
H3 H 0.97643 0.15616 0.30852 0.0
O4 O 0.0127 0.16086 0.28571 0.0
H5 H 0.95464 0.13432 0.18278 0.0
O6 O 0.91782 0.12882 0.20394 0.0
Co7 Co 0.00582 0.11222 0.19211 0.0
O8 O 0.95813 0.12435 0.06081 0.0
O9 O 0.86928 0.1526 0.02425 0.0
O10 O 0.0206 0.09086 0.29573 0.0
O11 O 0.96627 0.10387 0.37138 0.0
O12 O 0.95054 0.2047 0.35663 0.0
O13 O 0.07722 0.19535 0.35951 0.0
O14 O 0.12886 0.12935 0.27042 0.0
O15 O 0.07256 0.15684 0.17054 0.0
C16 C 0.99441 0.15195 0.47905 0.0
C17 C 0.86853 0.1988 0.11823 0.0
C18 C 0.01081 0.08141 0.13583 0.0
C19 C 0.76733 0.15009 0.22814 0.0
C20 C 0.90062 0.13906 1.00236 0.0
C21 C 0.9953 0.08907 0.35468 0.0
C22 C 0.04335 0.20844 0.37843 0.0
C23 C 0.14634 0.14458 0.22747 0.0
O24 O 0.94837 0.16762 0.42195 0.0
O25 O 0.0282 0.13827 0.45997 0.0
O26 O 0.92682 0.18771 0.11207 0.0
O27 O 0.84285 0.19358 0.17636 0.0
O28 O 0.06485 0.09686 0.13865 0.0
O29 O 0.95461 0.08349 0.16511 0.0
O30 O 0.7974 0.1678 0.21608 0.0
O31 O 0.83164 0.13658 0.28914 0.0
Co32 Co 0.01565 0.92671 0.84125 0.0
Co33 Co 0.03594 0.90564 0.69813 0.0
Co34 Co 0.07791 0.88074 0.87579 0.0
H35 H 0.06226 0.9043 0.84856 0.0
O36 O 0.09972 0.90949 0.82758 0.0
H37 H 0.03502 0.88229 0.72089 0.0
O38 O -0.00166 0.87796 0.74367 0.0
Co39 Co 0.06768 0.85912 0.72308 0.0
O40 O 0.06136 0.87059 0.60701 0.0
O41 O 0.98621 0.90037 0.57041 0.0
O42 O 0.15537 0.84283 0.84863 0.0
O43 O 0.07955 0.85089 0.9168 0.0
O44 O 0.95986 0.94226 0.89657 0.0
O45 O 0.06926 0.95538 0.86851 0.0
O46 O 0.21002 0.86951 0.81561 0.0
O47 O 0.18311 0.9006 0.74182 0.0
C48 C 0.1163 0.89945 0.02944 0.0
C49 C 0.03091 0.9495 0.68016 0.0
C50 C 0.96585 0.82965 0.64769 0.0
C51 C 0.86741 0.89527 0.80438 0.0
C52 C 0.01827 0.88651 0.55079 0.0
C53 C 0.13153 0.83873 0.90832 0.0
C54 C 0.01437 0.9576 0.89893 0.0
C55 C 0.24419 0.88684 0.80404 0.0
O56 O 0.06142 0.91449 0.97194 0.0
O57 O 0.14505 0.8857 1.00644 0.0
O58 O 0.05564 0.93444 0.66145 0.0
O59 O 0.00681 0.94798 0.73981 0.0
O60 O 0.06311 0.8296 0.70814 0.0
O61 O 0.92657 0.84653 0.62869 0.0
O62 O 0.88472 0.91109 0.76424 0.0
O63 O 0.9405 0.88272 0.85943 0.0
Co64 Co 0.44025 0.67919 0.29775 0.0
Co65 Co 0.43321 0.65783 0.1463 0.0
Co66 Co 0.47604 0.6328 0.324 0.0
H67 H 0.47509 0.65616 0.30079 0.0
O68 O 0.51184 0.66065 0.27823 0.0
H69 H 0.45002 0.63431 0.17372 0.0
O70 O 0.41267 0.62899 0.19463 0.0
Co71 Co 0.49817 0.61202 0.18155 0.0
O72 O 0.45226 0.62426 0.05086 0.0
O73 O 0.36699 0.65287 0.0158 0.0
O74 O 0.50851 0.59056 0.28303 0.0
O75 O 0.45845 0.60388 0.36104 0.0
O76 O 0.4438 0.70875 0.312 0.0
O77 O 0.58078 0.69194 0.3919 0.0
O78 O 0.62674 0.62804 0.25993 0.0
O79 O 0.57114 0.65614 0.16322 0.0
C80 C 0.49263 0.65184 0.47105 0.0
C81 C 0.37617 0.69958 0.11279 0.0
C82 C 0.50027 0.58149 0.12232 0.0
C83 C 0.26613 0.65094 0.2181 0.0
C84 C 0.39657 0.6392 0.9931 0.0
C85 C 0.48418 0.58891 0.34258 0.0
C86 C 0.54104 0.7088 0.37251 0.0
C87 C 0.64442 0.6437 0.21921 0.0
O88 O 0.4482 0.66765 0.41447 0.0
O89 O 0.52533 0.63805 0.45159 0.0
O90 O 0.43015 0.6877 0.10525 0.0
O91 O 0.35103 0.69516 0.17154 0.0
O92 O 0.55669 0.5967 0.12785 0.0
O93 O 0.44312 0.58362 0.15062 0.0
O94 O 0.2988 0.66838 0.2058 0.0
O95 O 0.32848 0.63737 0.28063 0.0
Co96 Co 0.50255 0.42659 0.82915 0.0
Co97 Co 0.53252 0.40552 0.69193 0.0
Co98 Co 0.57703 0.38123 0.87141 0.0
H99 H 0.55555 0.40459 0.84069 0.0
O100 O 0.59266 0.41006 0.81976 0.0
H101 H 0.53484 0.38224 0.71732 0.0
O102 O 0.49848 0.37778 0.74029 0.0
Co103 Co 0.57125 0.35921 0.72248 0.0
O104 O 0.56786 0.37022 0.60761 0.0
O105 O 0.48711 0.39959 0.56613 0.0
O106 O 0.6656 0.34428 0.85026 0.0
O107 O 0.58551 0.3514 0.91614 0.0
O108 O 0.43765 0.44225 0.87654 0.0
O109 O 0.55354 0.45529 0.85681 0.0
O110 O 0.71203 0.37032 0.81352 0.0
O111 O 0.68176 0.40137 0.73882 0.0
C112 C 0.61101 0.40065 0.02141 0.0
C113 C 0.51882 0.4493 0.66828 0.0
C114 C 0.46579 0.32993 0.64791 0.0
C115 C 0.36314 0.39386 0.80012 0.0
C116 C 0.52284 0.3858 0.54933 0.0
C117 C 0.64198 0.33983 0.91003 0.0
C118 C 0.49336 0.45756 0.88183 0.0
C119 C 0.74419 0.38783 0.8016 0.0
O120 O 0.55235 0.4151 0.96166 0.0
O121 O 0.64278 0.38694 1.00071 0.0
O122 O 0.54782 0.43436 0.65233 0.0
O123 O 0.49219 0.44767 0.7263 0.0
O124 O 0.55844 0.33363 0.66922 0.0
O125 O 0.43267 0.34298 0.66772 0.0
O126 O 0.3758 0.40962 0.75643 0.0
O127 O 0.43957 0.38205 0.8561 0.0
H128 H 0.89055 0.17382 0.8906 0.0
H129 H 0.99198 0.11691 0.58451 0.0
H130 H 0.88972 0.10964 0.91151 0.0
H131 H 0.99537 0.18105 0.5667 0.0
H132 H 0.95637 0.11376 0.70594 0.0
H133 H 0.91925 0.1768 0.76524 0.0
C134 C 0.89305 0.16039 0.86688 0.0
C135 C 0.88748 0.14148 0.91136 0.0
C136 C 0.96579 0.12851 0.67589 0.0
C137 C 0.92409 0.14469 0.77054 0.0
C138 C 0.98768 0.13028 0.60759 0.0
C139 C 0.99646 0.14925 0.56534 0.0
C140 C 0.95271 0.14584 0.70188 0.0
C141 C 0.98847 0.16611 0.59697 0.0
C142 C 0.91129 0.16206 0.79642 0.0
C143 C 0.89369 0.12454 0.87912 0.0
N144 N 0.96641 0.16402 0.66268 0.0
N145 N 0.91261 0.12654 0.81143 0.0
H146 H 0.02477 0.92159 0.44742 0.0
H147 H 0.12354 0.86461 0.13978 0.0
H148 H 0.01678 0.85747 0.46251 0.0
H149 H 0.12923 0.92877 0.12175 0.0
H150 H 0.09448 0.86163 0.26492 0.0
H151 H 0.06176 0.92471 0.32685 0.0
C152 C 0.02843 0.90822 0.42397 0.0
C153 C 0.01782 0.88926 0.46519 0.0
C154 C 0.10356 0.87636 0.2344 0.0
C155 C 0.06309 0.89263 0.32953 0.0
C156 C 0.12197 0.87803 0.16403 0.0
C157 C 0.12897 0.89694 0.12035 0.0
C158 C 0.09202 0.89374 0.26105 0.0
C159 C 0.12404 0.91387 0.1534 0.0
C160 C 0.05107 0.90996 0.35614 0.0
C161 C 0.02505 0.8724 0.43307 0.0
N162 N 0.10491 0.91188 0.22097 0.0
N163 N 0.04781 0.87447 0.36781 0.0
H164 H 0.38931 0.674 0.88262 0.0
H165 H 0.48651 0.61679 0.57469 0.0
H166 H 0.3832 0.60983 0.90095 0.0
H167 H 0.49571 0.68092 0.55981 0.0
H168 H 0.45011 0.61374 0.6956 0.0
H169 H 0.41827 0.6769 0.75745 0.0
C170 C 0.39074 0.66057 0.8584 0.0
C171 C 0.38365 0.64167 0.90215 0.0
C172 C 0.46098 0.62847 0.66631 0.0
C173 C 0.42051 0.64478 0.76148 0.0
C174 C 0.48331 0.63018 0.59831 0.0
C175 C 0.494 0.64912 0.55704 0.0
C176 C 0.44936 0.64583 0.693 0.0
C177 C 0.48734 0.666 0.58932 0.0
C178 C 0.40911 0.66218 0.78803 0.0
C179 C 0.38843 0.62471 0.8692 0.0
N180 N 0.46484 0.66397 0.65473 0.0
N181 N 0.40752 0.62666 0.80163 0.0
H182 H 0.61456 0.43062 0.10645 0.0
H183 H 0.53437 0.35632 0.46981 0.0
H184 H 0.63191 0.36644 0.14071 0.0
H185 H 0.51824 0.42049 0.43798 0.0
H186 H 0.5704 0.3599 0.34988 0.0
H187 H 0.58895 0.42734 0.23287 0.0
C188 C 0.61559 0.41581 0.1422 0.0
C189 C 0.62544 0.39874 0.11284 0.0
C190 C 0.55831 0.37323 0.36839 0.0
C191 C 0.59331 0.3949 0.2566 0.0
C192 C 0.5369 0.37122 0.43655 0.0
C193 C 0.52334 0.38817 0.46427 0.0
C194 C 0.56658 0.39234 0.32711 0.0
C195 C 0.5273 0.40703 0.41839 0.0
C196 C 0.59983 0.41397 0.21383 0.0
C197 C 0.6257 0.37999 0.1615 0.0
N198 N 0.5493 0.40862 0.35243 0.0
N199 N 0.60854 0.37856 0.23032 0.0
H200 H 0.67099 0.11375 0.22181 0.0
H201 H 0.29626 0.11575 0.30559 0.0
H202 H 0.60586 0.17685 0.12679 0.0
H203 H 0.18352 0.17048 0.11118 0.0
H204 H 0.42157 0.11241 0.26596 0.0
H205 H 0.49361 0.10842 0.18861 0.0
C206 C 0.61885 0.12645 0.19309 0.0
C207 C 0.65459 0.14594 0.18254 0.0
C208 C 0.36755 0.12485 0.22979 0.0
C209 C 0.45559 0.14011 0.14891 0.0
C210 C 0.29794 0.12706 0.25451 0.0
C211 C 0.23059 0.14356 0.21269 0.0
C212 C 0.36978 0.13931 0.16294 0.0
C213 C 0.23512 0.15764 0.14617 0.0
C214 C 0.51818 0.12342 0.17505 0.0
C215 C 0.58272 0.1617 0.1402 0.0
N216 N 0.30431 0.15526 0.12391 0.0
N217 N 0.48694 0.15852 0.12736 0.0
H218 H 0.74666 0.9267 0.76849 0.0
H219 H 0.40084 0.85915 0.91356 0.0
H220 H 0.79826 0.86371 0.87609 0.0
H221 H 0.34702 0.92206 0.80534 0.0
H222 H 0.5783 0.86308 0.94669 0.0
H223 H 0.62469 0.92712 0.81521 0.0
C224 C 0.73085 0.91287 0.80046 0.0
C225 C 0.78074 0.89503 0.81683 0.0
C226 C 0.5284 0.87612 0.91745 0.0
C227 C 0.64358 0.89552 0.87233 0.0
C228 C 0.42721 0.87389 0.8987 0.0
C229 C 0.3578 0.89009 0.85145 0.0
C230 C 0.5582 0.89454 0.88729 0.0
C231 C 0.39688 0.90898 0.83741 0.0
C232 C 0.66297 0.91321 0.82889 0.0
C233 C 0.75991 0.8777 0.86093 0.0
N234 N 0.49407 0.91061 0.85273 0.0
N235 N 0.69208 0.87835 0.8866 0.0
H236 H 0.76767 0.61216 0.26083 0.0
H237 H 0.10688 0.67792 0.10347 0.0
H238 H 0.7103 0.6745 0.14109 0.0
H239 H 0.16634 0.61563 0.22325 0.0
H240 H 0.92968 0.67392 0.07087 0.0
H241 H 0.88917 0.61097 0.21424 0.0
C242 C 0.782 0.62569 0.22611 0.0
C243 C 0.7306 0.64357 0.20631 0.0
C244 C 0.98078 0.66102 0.10259 0.0
C245 C 0.86736 0.64219 0.15105 0.0
C246 C 0.08185 0.66329 0.12107 0.0
C247 C 0.15276 0.64737 0.17133 0.0
C248 C 0.95261 0.64285 0.13607 0.0
C249 C 0.11532 0.62856 0.18876 0.0
C250 C 0.84967 0.62489 0.19782 0.0
C251 C 0.74976 0.66049 0.15892 0.0
N252 N 0.01821 0.62693 0.17364 0.0
N253 N 0.8174 0.65942 0.13344 0.0
H254 H 0.84441 0.4234 0.80112 0.0
H255 H 0.31796 0.36376 0.89785 0.0
H256 H 0.90302 0.36076 0.91402 0.0
H257 H 0.22179 0.42321 0.74394 0.0
H258 H 0.19826 0.36532 0.94625 0.0
H259 H 0.02248 0.42694 0.8354 0.0
C260 C 0.89556 0.41048 0.83489 0.0
C261 C 0.85756 0.39149 0.84945 0.0
C262 C 0.20389 0.37804 0.90226 0.0
C263 C 0.05865 0.39536 0.88696 0.0
C264 C 0.27066 0.37704 0.87326 0.0
C265 C 0.27843 0.39326 0.81552 0.0
C266 C 0.14366 0.39526 0.87232 0.0
C267 C 0.21678 0.4102 0.78699 0.0
C268 C 0.99702 0.41251 0.85441 0.0
C269 C 0.92807 0.37548 0.89751 0.0
N270 N 0.15144 0.41071 0.81545 0.0
N271 N 0.02493 0.37762 0.91203 0.0
H272 H 0.52589 0.29986 0.60241 0.0
H273 H 0.98227 0.23861 0.42277 0.0
H274 H 0.26566 0.31941 0.60081 0.0
H275 H 0.24359 0.21896 0.42624 0.0
H276 H 0.08447 0.26831 0.48783 0.0
H277 H 0.42346 0.2702 0.53727 0.0
C278 C 0.44705 0.29792 0.58812 0.0
C279 C 0.40412 0.31212 0.60688 0.0
C280 C 0.11958 0.2575 0.47448 0.0
C281 C 0.28635 0.27819 0.53254 0.0
C282 C 0.06127 0.24054 0.43743 0.0
C283 C 0.10461 0.2263 0.41924 0.0
C284 C 0.22205 0.26027 0.49344 0.0
C285 C 0.20722 0.22956 0.43936 0.0
C286 C 0.3886 0.28098 0.55103 0.0
C287 C 0.3017 0.30885 0.58723 0.0
N288 N 0.26237 0.24619 0.4753 0.0
N289 N 0.24636 0.29223 0.5512 0.0
H290 H 0.51914 0.30789 0.91303 0.0
H291 H 0.99206 0.23094 0.11818 0.0
H292 H 0.84145 0.32609 0.02006 0.0
H293 H 0.6696 0.21282 1.01112 0.0
H294 H 0.93814 0.26603 0.07853 0.0
H295 H 0.57373 0.2728 0.95509 0.0
C296 C 0.60208 0.30445 0.94926 0.0
C297 C 0.67633 0.31984 0.96512 0.0
C298 C 0.87869 0.2544 0.06186 0.0
C299 C 0.73884 0.27989 1.00878 0.0
C300 C 0.90925 0.2344 0.08255 0.0
C301 C 0.8347 0.21903 0.06577 0.0
C302 C 0.77301 0.25898 0.02477 0.0
C303 C 0.72903 0.2243 0.02338 0.0
C304 C 0.63305 0.28446 0.97133 0.0
C305 C 0.78223 0.3146 1.00844 0.0
N306 N 0.70146 0.24377 1.005 0.0
N307 N 0.81018 0.29513 0.02799 0.0
H308 H 0.46995 0.74704 0.32838 0.0
H309 H 0.03647 0.79141 0.69111 0.0
H310 H 0.75074 0.71128 0.50861 0.0
H311 H 0.75583 0.82724 0.51173 0.0
H312 H 0.9333 0.76193 0.62479 0.0
H313 H 0.57292 0.77658 0.39452 0.0
C314 C 0.55323 0.7454 0.38223 0.0
C315 C 0.60185 0.72668 0.41337 0.0
C316 C 0.89419 0.77623 0.5997 0.0
C317 C 0.72046 0.76044 0.48914 0.0
C318 C 0.95316 0.79308 0.63741 0.0
C319 C 0.90467 0.81181 0.60658 0.0
C320 C 0.78576 0.77809 0.53055 0.0
C321 C 0.79635 0.81309 0.53735 0.0
C322 C 0.61207 0.76228 0.41983 0.0
C323 C 0.71012 0.72543 0.48275 0.0
N324 N 0.74057 0.79647 0.50167 0.0
N325 N 0.76573 0.74207 0.51828 0.0
H326 H 0.50243 0.73239 0.14592 0.0
H327 H 0.00517 0.80596 0.87555 0.0
H328 H 0.18082 0.71282 0.97471 0.0
H329 H 0.32662 0.82555 0.04744 0.0
H330 H 0.06695 0.77151 0.91567 0.0
H331 H 0.44066 0.76685 0.10633 0.0
C332 C 0.41923 0.73553 0.09614 0.0
C333 C 0.34686 0.71988 0.06082 0.0
C334 C 0.12398 0.78323 0.94672 0.0
C335 C 0.27457 0.75903 0.01959 0.0
C336 C 0.08832 0.80283 0.92563 0.0
C337 C 0.16064 0.81849 0.96095 0.0
C338 C 0.23299 0.77933 1.00274 0.0
C339 C 0.26818 0.81378 0.02126 0.0
C340 C 0.38359 0.75512 0.07534 0.0
C341 C 0.23928 0.72459 1.00089 0.0
N342 N 0.30121 0.79468 0.03972 0.0
N343 N 0.20631 0.74368 0.98267 0.0
H344 H 0.90728 0.0462 0.13629 0.0
H345 H 0.11932 0.99272 0.89877 0.0
H346 H 0.11687 0.07486 0.05843 0.0
H347 H 0.91006 0.96427 0.97741 0.0
H348 H 0.11976 0.02289 0.95669 0.0
H349 H 0.90795 1.01608 0.07893 0.0
C350 C 0.95345 0.04615 0.10702 0.0
C351 C 0.01203 0.06307 0.10202 0.0
C352 C 0.07375 1.01006 0.96139 0.0
C353 C 0.01317 0.02858 0.03597 0.0
C354 C 0.07352 0.99282 0.92835 0.0
C355 C 0.01461 0.97595 0.93336 0.0
C356 C 0.01472 1.01047 0.99993 0.0
C357 C 0.95647 0.97694 0.97209 0.0
C358 C 0.95385 0.02893 0.07428 0.0
C359 C 0.07068 0.06214 0.0637 0.0
N360 N 0.95806 0.99388 1.0039 0.0
N361 N 0.06967 0.0452 0.03207 0.0
H362 H 0.95569 0.07711 0.4911 0.0
H363 H 0.07094 0.96125 0.54364 0.0
H364 H 0.04673 0.05428 0.33148 0.0
H365 H 0.98505 0.98453 0.70588 0.0
H366 H 0.06289 0.99529 0.46483 0.0
H367 H 0.96591 0.04313 0.57067 0.0
C368 C 0.97768 0.06502 0.47266 0.0
C369 C 0.00026 0.06867 0.40434 0.0
C370 C 0.04598 0.99288 0.51785 0.0
C371 C 0.0122 0.02971 0.49514 0.0
C372 C 0.05067 0.97344 0.56289 0.0
C373 C 0.0287 0.9699 0.63162 0.0
C374 C 0.01909 1.00888 0.54167 0.0
C375 C 0.00271 0.98638 0.65347 0.0
C376 C 0.98362 0.0456 0.51815 0.0
C377 C 0.02853 0.05232 0.38357 0.0
N378 N -0.00141 1.00506 0.60871 0.0
N379 N 0.03361 0.03362 0.42865 0.0
H380 H 0.61132 0.575 0.04985 0.0
H381 H 0.37765 0.46437 0.94962 0.0
H382 H 0.38793 0.5469 0.11221 0.0
H383 H 0.60342 0.49234 0.89002 0.0
H384 H 0.37814 0.4946 1.0074 0.0
H385 H 0.60814 0.54499 0.98952 0.0
C386 C 0.56169 0.56249 0.05091 0.0
C387 C 0.49984 0.56343 0.08611 0.0
C388 C 0.42752 0.49415 0.98161 0.0
C389 C 0.49556 0.52902 0.01707 0.0
C390 C 0.42711 0.4769 0.94851 0.0
C391 C 0.4907 0.47584 0.91514 0.0
C392 C 0.49198 0.51049 0.9813 0.0
C393 C 0.55339 0.4925 0.91539 0.0
C394 C 0.55978 0.54537 0.01639 0.0
C395 C 0.43678 0.54681 0.08561 0.0
N396 N 0.55251 0.50911 0.94797 0.0
N397 N 0.43629 0.53031 0.05172 0.0
H398 H 0.55963 0.46109 0.53226 0.0
H399 H 0.44583 0.57707 0.47998 0.0
H400 H 0.46899 0.48424 0.69146 0.0
H401 H 0.52992 0.5539 0.31629 0.0
H402 H 0.45458 0.54305 0.55892 0.0
H403 H 0.55045 0.49509 0.45272 0.0
C404 C 0.538 0.47325 0.55065 0.0
C405 C 0.51512 0.46968 0.6188 0.0
C406 C 0.471 0.54546 0.50559 0.0
C407 C 0.50436 0.50864 0.52806 0.0
C408 C 0.4659 0.5649 0.46046 0.0
C409 C 0.48714 0.56847 0.39128 0.0
C410 C 0.49755 0.52947 0.48146 0.0
C411 C 0.51291 0.55201 0.36913 0.0
C412 C 0.53265 0.49267 0.50517 0.0
C413 C 0.48736 0.48612 0.6395 0.0
N414 N 0.51742 0.53331 0.414 0.0
N415 N 0.48282 0.50479 0.59446 0.0
loop_
_geom_bond_atom_site_label_1
_geom_bond_atom_site_label_2
_geom_bond_distance
_geom_bond_site_symmetry_2
_ccdc_geom_bond_type
Co0 H3 2.400 1_655 S
Co0 O4 2.009 1_655 S
Co0 O12 2.115 . S
Co0 O13 2.315 1_655 S
Co0 O24 2.053 . S
Co0 O27 2.094 . S
Co0 O30 2.122 . S
Co1 O4 2.126 1_655 S
Co1 H5 2.388 . S
Co1 O6 2.053 . S
Co1 O9 2.047 . S
Co1 O15 2.113 1_655 S
Co1 O26 2.063 1_655 S
Co2 H3 2.388 . S
Co2 O4 2.053 . S
Co2 O6 2.126 1_455 S
Co2 O11 2.063 1_455 S
Co2 O25 2.047 . S
Co2 O31 2.113 1_455 S
H3 Co0 2.400 1_455 S
H3 Co2 2.388 . S
H3 O4 0.760 . S
O4 Co0 2.009 1_455 S
O4 Co1 2.126 1_455 S
O4 Co2 2.053 . S
O4 H3 0.760 . S
H5 Co1 2.388 . S
H5 O6 0.760 . S
H5 Co7 2.400 1_655 S
O6 Co1 2.053 . S
O6 Co2 2.126 1_655 S
O6 H5 0.760 . S
O6 Co7 2.009 1_655 S
Co7 H5 2.400 1_455 S
Co7 O6 2.009 1_455 S
Co7 O8 2.053 . S
Co7 O10 2.094 . S
Co7 O14 2.122 . S
Co7 O28 2.115 . S
Co7 O29 2.315 1_455 S
O8 Co7 2.053 . S
O8 C20 1.259 1_455 S
O9 Co1 2.047 . S
O9 C20 1.257 . S
O10 Co7 2.094 . S
O10 C21 1.253 . S
O11 Co2 2.063 1_655 S
O11 C21 1.268 1_655 S
O12 Co0 2.115 . S
O12 C22 1.281 1_655 S
O13 Co0 2.315 1_455 S
O13 C22 1.252 . S
O14 Co7 2.122 . S
O14 C23 1.272 . S
O15 Co1 2.113 1_455 S
O15 C23 1.245 . S
C16 O24 1.259 1_455 S
C16 O25 1.257 . S
C17 O26 1.268 1_655 S
C17 O27 1.253 . S
C18 O28 1.281 1_655 S
C18 O29 1.252 . S
C19 O30 1.272 . S
C19 O31 1.245 . S
C20 O8 1.259 1_655 S
C20 O9 1.257 . S
C21 O10 1.253 . S
C21 O11 1.268 1_455 S
C22 O12 1.281 1_455 S
C22 O13 1.252 . S
C23 O14 1.272 . S
C23 O15 1.245 . S
O24 Co0 2.053 . S
O24 C16 1.259 1_655 S
O25 Co2 2.047 . S
O25 C16 1.257 . S
O26 Co1 2.063 1_455 S
O26 C17 1.268 1_455 S
O27 Co0 2.094 . S
O27 C17 1.253 . S
O28 Co7 2.115 . S
O28 C18 1.281 1_455 S
O29 Co7 2.315 1_655 S
O29 C18 1.252 . S
O30 Co0 2.122 . S
O30 C19 1.272 . S
O31 Co2 2.113 1_655 S
O31 C19 1.245 . S
Co32 H35 2.400 1_655 S
Co32 O36 2.009 1_655 S
Co32 O44 2.115 . S
Co32 O45 2.315 1_655 S
Co32 O56 2.053 1_655 S
Co32 O59 2.094 . S
Co32 O62 2.122 . S
Co33 O36 2.126 . S
Co33 H37 2.388 1_455 S
Co33 O38 2.053 1_455 S
Co33 O41 2.047 1_455 S
Co33 O47 2.113 . S
Co33 O58 2.063 . S
Co34 H35 2.388 . S
Co34 O36 2.053 . S
Co34 O38 2.126 1_455 S
Co34 O43 2.063 . S
Co34 O57 2.047 . S
Co34 O63 2.113 1_455 S
H35 Co32 2.400 1_455 S
H35 Co34 2.388 . S
H35 O36 0.760 . S
O36 Co32 2.009 1_455 S
O36 Co33 2.126 . S
O36 Co34 2.053 . S
O36 H35 0.760 . S
H37 Co33 2.388 1_655 S
H37 O38 0.760 . S
H37 Co39 2.400 1_655 S
O38 Co33 2.053 1_655 S
O38 Co34 2.126 1_655 S
O38 H37 0.760 . S
O38 Co39 2.009 1_655 S
Co39 H37 2.400 1_455 S
Co39 O38 2.009 1_455 S
Co39 O40 2.053 . S
Co39 O42 2.094 . S
Co39 O46 2.122 . S
Co39 O60 2.115 . S
Co39 O61 2.315 1_455 S
O40 Co39 2.053 . S
O40 C52 1.259 1_455 S
O41 Co33 2.047 1_655 S
O41 C52 1.257 . S
O42 Co39 2.094 . S
O42 C53 1.253 . S
O43 Co34 2.063 . S
O43 C53 1.268 . S
O44 Co32 2.115 . S
O44 C54 1.281 1_655 S
O45 Co32 2.315 1_455 S
O45 C54 1.252 . S
O46 Co39 2.122 . S
O46 C55 1.272 . S
O47 Co33 2.113 . S
O47 C55 1.245 . S
C48 O56 1.259 . S
C48 O57 1.257 . S
C49 O58 1.268 1_655 S
C49 O59 1.253 . S
C50 O60 1.281 1_655 S
C50 O61 1.252 . S
C51 O62 1.272 . S
C51 O63 1.245 . S
C52 O40 1.259 1_655 S
C52 O41 1.257 . S
C53 O42 1.253 . S
C53 O43 1.268 . S
C54 O44 1.281 1_455 S
C54 O45 1.252 . S
C55 O46 1.272 . S
C55 O47 1.245 . S
O56 Co32 2.053 1_455 S
O56 C48 1.259 . S
O57 Co34 2.047 . S
O57 C48 1.257 . S
O58 Co33 2.063 . S
O58 C49 1.268 1_455 S
O59 Co32 2.094 . S
O59 C49 1.253 . S
O60 Co39 2.115 . S
O60 C50 1.281 1_455 S
O61 Co39 2.315 1_655 S
O61 C50 1.252 . S
O62 Co32 2.122 . S
O62 C51 1.272 . S
O63 Co34 2.113 1_655 S
O63 C51 1.245 . S
Co64 H67 2.400 . S
Co64 O68 2.009 . S
Co64 O76 2.115 . S
Co64 O77 2.315 . S
Co64 O88 2.053 . S
Co64 O91 2.094 . S
Co64 O94 2.122 . S
Co65 O68 2.126 . S
Co65 H69 2.388 . S
Co65 O70 2.053 . S
Co65 O73 2.047 . S
Co65 O79 2.113 . S
Co65 O90 2.063 . S
Co66 H67 2.388 . S
Co66 O68 2.053 . S
Co66 O70 2.126 . S
Co66 O75 2.063 . S
Co66 O89 2.047 . S
Co66 O95 2.113 . S
H67 Co64 2.400 . S
H67 Co66 2.388 . S
H67 O68 0.760 . S
O68 Co64 2.009 . S
O68 Co65 2.126 . S
O68 Co66 2.053 . S
O68 H67 0.760 . S
H69 Co65 2.388 . S
H69 O70 0.760 . S
H69 Co71 2.400 . S
O70 Co65 2.053 . S
O70 Co66 2.126 . S
O70 H69 0.760 . S
O70 Co71 2.009 . S
Co71 H69 2.400 . S
Co71 O70 2.009 . S
Co71 O72 2.053 . S
Co71 O74 2.094 . S
Co71 O78 2.122 . S
Co71 O92 2.115 . S
Co71 O93 2.315 . S
O72 Co71 2.053 . S
O72 C84 1.259 . S
O73 Co65 2.047 . S
O73 C84 1.257 . S
O74 Co71 2.094 . S
O74 C85 1.253 . S
O75 Co66 2.063 . S
O75 C85 1.268 . S
O76 Co64 2.115 . S
O76 C86 1.281 . S
O77 Co64 2.315 . S
O77 C86 1.252 . S
O78 Co71 2.122 . S
O78 C87 1.272 . S
O79 Co65 2.113 . S
O79 C87 1.245 . S
C80 O88 1.259 . S
C80 O89 1.257 . S
C81 O90 1.268 . S
C81 O91 1.253 . S
C82 O92 1.281 . S
C82 O93 1.252 . S
C83 O94 1.272 . S
C83 O95 1.245 . S
C84 O72 1.259 . S
C84 O73 1.257 . S
C85 O74 1.253 . S
C85 O75 1.268 . S
C86 O76 1.281 . S
C86 O77 1.252 . S
C87 O78 1.272 . S
C87 O79 1.245 . S
O88 Co64 2.053 . S
O88 C80 1.259 . S
O89 Co66 2.047 . S
O89 C80 1.257 . S
O90 Co65 2.063 . S
O90 C81 1.268 . S
O91 Co64 2.094 . S
O91 C81 1.253 . S
O92 Co71 2.115 . S
O92 C82 1.281 . S
O93 Co71 2.315 . S
O93 C82 1.252 . S
O94 Co64 2.122 . S
O94 C83 1.272 . S
O95 Co66 2.113 . S
O95 C83 1.245 . S
Co96 H99 2.400 . S
Co96 O100 2.009 . S
Co96 O108 2.115 . S
Co96 O109 2.315 . S
Co96 O120 2.053 . S
Co96 O123 2.094 . S
Co96 O126 2.122 . S
Co97 O100 2.126 . S
Co97 H101 2.388 . S
Co97 O102 2.053 . S
Co97 O105 2.047 . S
Co97 O111 2.113 . S
Co97 O122 2.063 . S
Co98 H99 2.388 . S
Co98 O100 2.053 . S
Co98 O102 2.126 . S
Co98 O107 2.063 . S
Co98 O121 2.047 . S
Co98 O127 2.113 . S
H99 Co96 2.400 . S
H99 Co98 2.388 . S
H99 O100 0.760 . S
O100 Co96 2.009 . S
O100 Co97 2.126 . S
O100 Co98 2.053 . S
O100 H99 0.760 . S
H101 Co97 2.388 . S
H101 O102 0.760 . S
H101 Co103 2.400 . S
O102 Co97 2.053 . S
O102 Co98 2.126 . S
O102 H101 0.760 . S
O102 Co103 2.009 . S
Co103 H101 2.400 . S
Co103 O102 2.009 . S
Co103 O104 2.053 . S
Co103 O106 2.094 . S
Co103 O110 2.122 . S
Co103 O124 2.115 . S
Co103 O125 2.315 . S
O104 Co103 2.053 . S
O104 C116 1.259 . S
O105 Co97 2.047 . S
O105 C116 1.257 . S
O106 Co103 2.094 . S
O106 C117 1.253 . S
O107 Co98 2.063 . S
O107 C117 1.268 . S
O108 Co96 2.115 . S
O108 C118 1.281 . S
O109 Co96 2.315 . S
O109 C118 1.252 . S
O110 Co103 2.122 . S
O110 C119 1.272 . S
O111 Co97 2.113 . S
O111 C119 1.245 . S
C112 O120 1.259 . S
C112 O121 1.257 . S
C113 O122 1.268 . S
C113 O123 1.253 . S
C114 O124 1.281 . S
C114 O125 1.252 . S
C115 O126 1.272 . S
C115 O127 1.245 . S
C116 O104 1.259 . S
C116 O105 1.257 . S
C117 O106 1.253 . S
C117 O107 1.268 . S
C118 O108 1.281 . S
C118 O109 1.252 . S
C119 O110 1.272 . S
C119 O111 1.245 . S
O120 Co96 2.053 . S
O120 C112 1.259 . S
O121 Co98 2.047 . S
O121 C112 1.257 . S
O122 Co97 2.063 . S
O122 C113 1.268 . S
O123 Co96 2.094 . S
O123 C113 1.253 . S
O124 Co103 2.115 . S
O124 C114 1.281 . S
O125 Co103 2.315 . S
O125 C114 1.252 . S
O126 Co96 2.122 . S
O126 C115 1.272 . S
O127 Co98 2.113 . S
O127 C115 1.245 . S
H128 C134 0.930 . S
H129 C138 0.930 . S
H130 C143 0.929 . S
H131 C141 0.929 . S
H132 C136 0.929 . S
H133 C142 0.929 . S
C134 H128 0.930 . S
C134 C135 1.367 . S
C134 C142 1.378 . S
C135 C134 1.367 . S
C135 C143 1.433 1_655 S
C136 H132 0.929 . S
C136 C138 1.378 . S
C136 C140 1.350 . S
C137 C140 1.463 1_655 S
C137 C142 1.350 . S
C137 N145 1.427 1_655 S
C138 H129 0.930 . S
C138 C136 1.378 . S
C138 C139 1.367 . S
C139 C138 1.367 . S
C139 C141 1.433 1_455 S
C140 C136 1.350 . S
C140 C137 1.463 1_455 S
C140 N144 1.427 1_455 S
C141 H131 0.929 . S
C141 C139 1.433 1_655 S
C141 N144 1.384 . S
C142 H133 0.929 . S
C142 C134 1.378 . S
C142 C137 1.350 . S
C143 H130 0.929 . S
C143 C135 1.433 1_455 S
C143 N145 1.384 . S
N144 C140 1.427 1_655 S
N144 C141 1.384 . S
N145 C137 1.427 1_455 S
N145 C143 1.384 . S
H146 C152 0.930 . S
H147 C156 0.930 . S
H148 C161 0.929 . S
H149 C159 0.929 . S
H150 C154 0.929 . S
H151 C160 0.929 . S
C152 H146 0.930 . S
C152 C153 1.367 1_455 S
C152 C160 1.378 . S
C153 C152 1.367 1_655 S
C153 C161 1.433 . S
C154 H150 0.929 . S
C154 C156 1.378 . S
C154 C158 1.350 1_655 S
C155 C158 1.463 . S
C155 C160 1.350 . S
C155 N163 1.427 1_455 S
C156 H147 0.930 . S
C156 C154 1.378 . S
C156 C157 1.367 1_655 S
C157 C156 1.367 1_455 S
C157 C159 1.433 . S
C158 C154 1.350 1_455 S
C158 C155 1.463 . S
C158 N162 1.427 . S
C159 H149 0.929 . S
C159 C157 1.433 . S
C159 N162 1.384 . S
C160 H151 0.929 . S
C160 C152 1.378 . S
C160 C155 1.350 . S
C161 H148 0.929 . S
C161 C153 1.433 . S
C161 N163 1.384 . S
N162 C158 1.427 . S
N162 C159 1.384 . S
N163 C155 1.427 1_655 S
N163 C161 1.384 . S
H164 C170 0.930 . S
H165 C174 0.930 . S
H166 C179 0.929 . S
H167 C177 0.929 . S
H168 C172 0.929 . S
H169 C178 0.929 . S
C170 H164 0.930 . S
C170 C171 1.367 . S
C170 C178 1.378 . S
C171 C170 1.367 . S
C171 C179 1.433 . S
C172 H168 0.929 . S
C172 C174 1.378 . S
C172 C176 1.350 . S
C173 C176 1.463 . S
C173 C178 1.350 . S
C173 N181 1.427 . S
C174 H165 0.930 . S
C174 C172 1.378 . S
C174 C175 1.367 . S
C175 C174 1.367 . S
C175 C177 1.433 . S
C176 C172 1.350 . S
C176 C173 1.463 . S
C176 N180 1.427 . S
C177 H167 0.929 . S
C177 C175 1.433 . S
C177 N180 1.384 . S
C178 H169 0.929 . S
C178 C170 1.378 . S
C178 C173 1.350 . S
C179 H166 0.929 . S
C179 C171 1.433 . S
C179 N181 1.384 . S
N180 C176 1.427 . S
N180 C177 1.384 . S
N181 C173 1.427 . S
N181 C179 1.384 . S
H182 C188 0.930 . S
H183 C192 0.930 . S
H184 C197 0.929 . S
H185 C195 0.929 . S
H186 C190 0.929 . S
H187 C196 0.929 . S
C188 H182 0.930 . S
C188 C189 1.367 . S
C188 C196 1.378 . S
C189 C188 1.367 . S
C189 C197 1.433 . S
C190 H186 0.929 . S
C190 C192 1.378 . S
C190 C194 1.350 . S
C191 C194 1.463 . S
C191 C196 1.350 . S
C191 N199 1.427 . S
C192 H183 0.930 . S
C192 C190 1.378 . S
C192 C193 1.367 . S
C193 C192 1.367 . S
C193 C195 1.433 . S
C194 C190 1.350 . S
C194 C191 1.463 . S
C194 N198 1.427 . S
C195 H185 0.929 . S
C195 C193 1.433 . S
C195 N198 1.384 . S
C196 H187 0.929 . S
C196 C188 1.378 . S
C196 C191 1.350 . S
C197 H184 0.929 . S
C197 C189 1.433 . S
C197 N199 1.384 . S
N198 C194 1.427 . S
N198 C195 1.384 . S
N199 C191 1.427 . S
N199 C197 1.384 . S
H200 C206 0.930 . S
H201 C210 0.930 . S
H202 C215 0.929 . S
H203 C213 0.929 . S
H204 C208 0.929 . S
H205 C214 0.929 . S
C206 H200 0.930 . S
C206 C207 1.367 . S
C206 C214 1.378 . S
C207 C206 1.367 . S
C207 C215 1.433 . S
C208 H204 0.929 . S
C208 C210 1.378 . S
C208 C212 1.350 . S
C209 C212 1.463 . S
C209 C214 1.350 . S
C209 N217 1.427 . S
C210 H201 0.930 . S
C210 C208 1.378 . S
C210 C211 1.367 . S
C211 C210 1.367 . S
C211 C213 1.433 . S
C212 C208 1.350 . S
C212 C209 1.463 . S
C212 N216 1.427 . S
C213 H203 0.929 . S
C213 C211 1.433 . S
C213 N216 1.384 . S
C214 H205 0.929 . S
C214 C206 1.378 . S
C214 C209 1.350 . S
C215 H202 0.929 . S
C215 C207 1.433 . S
C215 N217 1.384 . S
N216 C212 1.427 . S
N216 C213 1.384 . S
N217 C209 1.427 . S
N217 C215 1.384 . S
H218 C224 0.930 . S
H219 C228 0.930 . S
H220 C233 0.929 . S
H221 C231 0.929 . S
H222 C226 0.929 . S
H223 C232 0.929 . S
C224 H218 0.930 . S
C224 C225 1.367 . S
C224 C232 1.378 . S
C225 C224 1.367 . S
C225 C233 1.433 . S
C226 H222 0.929 . S
C226 C228 1.378 . S
C226 C230 1.350 . S
C227 C230 1.463 . S
C227 C232 1.350 . S
C227 N235 1.427 . S
C228 H219 0.930 . S
C228 C226 1.378 . S
C228 C229 1.367 . S
C229 C228 1.367 . S
C229 C231 1.433 . S
C230 C226 1.350 . S
C230 C227 1.463 . S
C230 N234 1.427 . S
C231 H221 0.929 . S
C231 C229 1.433 . S
C231 N234 1.384 . S
C232 H223 0.929 . S
C232 C224 1.378 . S
C232 C227 1.350 . S
C233 H220 0.929 . S
C233 C225 1.433 . S
C233 N235 1.384 . S
N234 C230 1.427 . S
N234 C231 1.384 . S
N235 C227 1.427 . S
N235 C233 1.384 . S
H236 C242 0.930 . S
H237 C246 0.930 . S
H238 C251 0.929 . S
H239 C249 0.929 . S
H240 C244 0.929 1_655 S
H241 C250 0.929 1_455 S
C242 H236 0.930 . S
C242 C243 1.367 . S
C242 C250 1.378 . S
C243 C242 1.367 . S
C243 C251 1.433 . S
C244 H240 0.929 1_455 S
C244 C246 1.378 . S
C244 C248 1.350 . S
C245 C248 1.463 1_655 S
C245 C250 1.350 . S
C245 N253 1.427 . S
C246 H237 0.930 . S
C246 C244 1.378 . S
C246 C247 1.367 . S
C247 C246 1.367 . S
C247 C249 1.433 . S
C248 C244 1.350 . S
C248 C245 1.463 1_455 S
C248 N252 1.427 . S
C249 H239 0.929 . S
C249 C247 1.433 . S
C249 N252 1.384 . S
C250 H241 0.929 1_655 S
C250 C242 1.378 . S
C250 C245 1.350 . S
C251 H238 0.929 . S
C251 C243 1.433 . S
C251 N253 1.384 . S
N252 C248 1.427 . S
N252 C249 1.384 . S
N253 C245 1.427 . S
N253 C251 1.384 . S
H254 C260 0.930 . S
H255 C264 0.930 . S
H256 C269 0.929 . S
H257 C267 0.929 . S
H258 C262 0.929 . S
H259 C268 0.929 . S
C260 H254 0.930 . S
C260 C261 1.367 . S
C260 C268 1.378 . S
C261 C260 1.367 . S
C261 C269 1.433 . S
C262 H258 0.929 . S
C262 C264 1.378 . S
C262 C266 1.350 . S
C263 C266 1.463 1_655 S
C263 C268 1.350 . S
C263 N271 1.427 . S
C264 H255 0.930 . S
C264 C262 1.378 . S
C264 C265 1.367 . S
C265 C264 1.367 . S
C265 C267 1.433 . S
C266 C262 1.350 . S
C266 C263 1.463 1_455 S
C266 N270 1.427 . S
C267 H257 0.929 . S
C267 C265 1.433 . S
C267 N270 1.384 . S
C268 H259 0.929 . S
C268 C260 1.378 . S
C268 C263 1.350 . S
C269 H256 0.929 . S
C269 C261 1.433 . S
C269 N271 1.384 . S
N270 C266 1.427 . S
N270 C267 1.384 . S
N271 C263 1.427 . S
N271 C269 1.384 . S
H272 C278 0.930 . S
H273 C282 0.930 1_655 S
H274 C287 0.929 . S
H275 C285 0.929 . S
H276 C280 0.929 . S
H277 C286 0.929 . S
C278 H272 0.930 . S
C278 C279 1.367 . S
C278 C286 1.378 . S
C279 C278 1.367 . S
C279 C287 1.433 . S
C280 H276 0.929 . S
C280 C282 1.378 . S
C280 C284 1.350 . S
C281 C284 1.463 . S
C281 C286 1.350 . S
C281 N289 1.427 . S
C282 H273 0.930 1_455 S
C282 C280 1.378 . S
C282 C283 1.367 . S
C283 C282 1.367 . S
C283 C285 1.433 . S
C284 C280 1.350 . S
C284 C281 1.463 . S
C284 N288 1.427 . S
C285 H275 0.929 . S
C285 C283 1.433 . S
C285 N288 1.384 . S
C286 H277 0.929 . S
C286 C278 1.378 . S
C286 C281 1.350 . S
C287 H274 0.929 . S
C287 C279 1.433 . S
C287 N289 1.384 . S
N288 C284 1.427 . S
N288 C285 1.384 . S
N289 C281 1.427 . S
N289 C287 1.384 . S
H290 C296 0.930 . S
H291 C300 0.930 . S
H292 C305 0.929 . S
H293 C303 0.929 . S
H294 C298 0.929 1_556 S
H295 C304 0.929 1_554 S
C296 H290 0.930 . S
C296 C297 1.367 . S
C296 C304 1.378 . S
C297 C296 1.367 . S
C297 C305 1.433 . S
C298 H294 0.929 1_554 S
C298 C300 1.378 . S
C298 C302 1.350 . S
C299 C302 1.463 1_556 S
C299 C304 1.350 . S
C299 N307 1.427 . S
C300 H291 0.930 . S
C300 C298 1.378 . S
C300 C301 1.367 . S
C301 C300 1.367 . S
C301 C303 1.433 . S
C302 C298 1.350 . S
C302 C299 1.463 1_554 S
C302 N306 1.427 . S
C303 H293 0.929 . S
C303 C301 1.433 . S
C303 N306 1.384 . S
C304 H295 0.929 1_556 S
C304 C296 1.378 . S
C304 C299 1.350 . S
C305 H292 0.929 . S
C305 C297 1.433 . S
C305 N307 1.384 . S
N306 C302 1.427 . S
N306 C303 1.384 . S
N307 C299 1.427 . S
N307 C305 1.384 . S
H308 C314 0.930 . S
H309 C318 0.930 1_455 S
H310 C323 0.929 . S
H311 C321 0.929 . S
H312 C316 0.929 . S
H313 C322 0.929 . S
C314 H308 0.930 . S
C314 C315 1.367 . S
C314 C322 1.378 . S
C315 C314 1.367 . S
C315 C323 1.433 . S
C316 H312 0.929 . S
C316 C318 1.378 . S
C316 C320 1.350 . S
C317 C320 1.463 . S
C317 C322 1.350 . S
C317 N325 1.427 . S
C318 H309 0.930 1_655 S
C318 C316 1.378 . S
C318 C319 1.367 . S
C319 C318 1.367 . S
C319 C321 1.433 . S
C320 C316 1.350 . S
C320 C317 1.463 . S
C320 N324 1.427 . S
C321 H311 0.929 . S
C321 C319 1.433 . S
C321 N324 1.384 . S
C322 H313 0.929 . S
C322 C314 1.378 . S
C322 C317 1.350 . S
C323 H310 0.929 . S
C323 C315 1.433 . S
C323 N325 1.384 . S
N324 C320 1.427 . S
N324 C321 1.384 . S
N325 C317 1.427 . S
N325 C323 1.384 . S
H326 C332 0.930 . S
H327 C336 0.930 1_655 S
H328 C341 0.929 1_556 S
H329 C339 0.929 1_554 S
H330 C334 0.929 . S
H331 C340 0.929 . S
C332 H326 0.930 . S
C332 C333 1.367 . S
C332 C340 1.378 . S
C333 C332 1.367 . S
C333 C341 1.433 . S
C334 H330 0.929 . S
C334 C336 1.378 . S
C334 C338 1.350 . S
C335 C338 1.463 1_554 S
C335 C340 1.350 . S
C335 N343 1.427 1_554 S
C336 H327 0.930 1_455 S
C336 C334 1.378 . S
C336 C337 1.367 . S
C337 C336 1.367 . S
C337 C339 1.433 . S
C338 C334 1.350 . S
C338 C335 1.463 1_556 S
C338 N342 1.427 1_556 S
C339 H329 0.929 1_556 S
C339 C337 1.433 . S
C339 N342 1.384 1_556 S
C340 H331 0.929 . S
C340 C332 1.378 . S
C340 C335 1.350 . S
C341 H328 0.929 1_554 S
C341 C333 1.433 . S
C341 N343 1.384 1_554 S
N342 C338 1.427 1_554 S
N342 C339 1.384 1_554 S
N343 C335 1.427 1_556 S
N343 C341 1.384 1_556 S
H344 C350 0.930 . S
H345 C354 0.930 . S
H346 C359 0.929 . S
H347 C357 0.933 . S
H348 C352 0.929 1_545 S
H349 C358 0.929 1_565 S
C350 H344 0.930 . S
C350 C351 1.367 . S
C350 C358 1.378 . S
C351 C350 1.367 . S
C351 C359 1.433 1_655 S
C352 H348 0.929 1_565 S
C352 C354 1.378 . S
C352 C356 1.350 . S
C353 C356 1.463 1_544 S
C353 C358 1.350 1_455 S
C353 N361 1.427 1_554 S
C354 H345 0.930 . S
C354 C352 1.378 . S
C354 C355 1.367 . S
C355 C354 1.367 . S
C355 C357 1.425 1_455 S
C356 C352 1.350 . S
C356 C353 1.463 1_566 S
C356 N360 1.427 1_456 S
C357 H347 0.933 . S
C357 C355 1.425 1_655 S
C357 N360 1.388 1_556 S
C358 H349 0.929 1_545 S
C358 C350 1.378 . S
C358 C353 1.350 1_655 S
C359 H346 0.929 . S
C359 C351 1.433 1_455 S
C359 N361 1.384 1_554 S
N360 C356 1.427 1_654 S
N360 C357 1.388 1_554 S
N361 C353 1.427 1_556 S
N361 C359 1.384 1_556 S
H362 C368 0.930 . S
H363 C372 0.930 . S
H364 C377 0.929 . S
H365 C375 0.929 . S
H366 C370 0.929 . S
H367 C376 0.929 . S
C368 H362 0.930 . S
C368 C369 1.367 1_655 S
C368 C376 1.378 . S
C369 C368 1.367 1_455 S
C369 C377 1.433 . S
C370 H366 0.929 . S
C370 C372 1.378 . S
C370 C374 1.350 . S
C371 C374 1.463 1_545 S
C371 C376 1.350 1_455 S
C371 N379 1.427 . S
C372 H363 0.930 . S
C372 C370 1.378 . S
C372 C373 1.367 1_455 S
C373 C372 1.367 1_655 S
C373 C375 1.433 . S
C374 C370 1.350 . S
C374 C371 1.463 1_565 S
C374 N378 1.427 1_455 S
C375 H365 0.929 . S
C375 C373 1.433 . S
C375 N378 1.384 . S
C376 H367 0.929 . S
C376 C368 1.378 . S
C376 C371 1.350 1_655 S
C377 H364 0.929 . S
C377 C369 1.433 . S
C377 N379 1.384 . S
N378 C374 1.427 1_655 S
N378 C375 1.384 . S
N379 C371 1.427 . S
N379 C377 1.384 . S
H380 C386 0.930 . S
H381 C390 0.930 . S
H382 C395 0.929 . S
H383 C393 0.929 . S
H384 C388 0.929 1_554 S
H385 C394 0.929 1_556 S
C386 H380 0.930 . S
C386 C387 1.367 . S
C386 C394 1.378 . S
C387 C386 1.367 . S
C387 C395 1.433 . S
C388 H384 0.929 1_556 S
C388 C390 1.378 . S
C388 C392 1.350 . S
C389 C392 1.463 1_554 S
C389 C394 1.350 . S
C389 N397 1.427 . S
C390 H381 0.930 . S
C390 C388 1.378 . S
C390 C391 1.367 . S
C391 C390 1.367 . S
C391 C393 1.433 . S
C392 C388 1.350 . S
C392 C389 1.463 1_556 S
C392 N396 1.427 . S
C393 H383 0.929 . S
C393 C391 1.433 . S
C393 N396 1.384 . S
C394 H385 0.929 1_554 S
C394 C386 1.378 . S
C394 C389 1.350 . S
C395 H382 0.929 . S
C395 C387 1.433 . S
C395 N397 1.384 . S
N396 C392 1.427 . S
N396 C393 1.384 . S
N397 C389 1.427 . S
N397 C395 1.384 . S
H398 C404 0.930 . S
H399 C408 0.930 . S
H400 C413 0.929 . S
H401 C411 0.929 . S
H402 C406 0.929 . S
H403 C412 0.929 . S
C404 H398 0.930 . S
C404 C405 1.367 . S
C404 C412 1.378 . S
C405 C404 1.367 . S
C405 C413 1.433 . S
C406 H402 0.929 . S
C406 C408 1.378 . S
C406 C410 1.350 . S
C407 C410 1.463 . S
C407 C412 1.350 . S
C407 N415 1.427 . S
C408 H399 0.930 . S
C408 C406 1.378 . S
C408 C409 1.367 . S
C409 C408 1.367 . S
C409 C411 1.433 . S
C410 C406 1.350 . S
C410 C407 1.463 . S
C410 N414 1.427 . S
C411 H401 0.929 . S
C411 C409 1.433 . S
C411 N414 1.384 . S
C412 H403 0.929 . S
C412 C404 1.378 . S
C412 C407 1.350 . S
C413 H400 0.929 . S
C413 C405 1.433 . S
C413 N415 1.384 . S
N414 C410 1.427 . S
N414 C411 1.384 . S
N415 C407 1.427 . S
N415 C413 1.384 . S
C135 C20 1.535 1_556 S
C139 C16 1.535 . S
C153 C52 1.530 . S
C157 C48 1.530 1_554 S
C171 C84 1.531 1_556 S
C175 C80 1.531 . S
C189 C112 1.527 1_554 S
C193 C116 1.527 . S
C207 C19 0.640 . S
C211 C23 0.640 . S
C225 C51 0.615 . S
C229 C55 0.615 . S
C243 C87 0.631 . S
C247 C83 0.631 . S
C261 C119 0.633 . S
C265 C115 0.633 . S
C279 C114 1.856 . S
C283 C22 1.856 . S
C297 C117 2.095 . S
C301 C17 2.095 . S
C315 C86 1.855 . S
C319 C50 1.855 . S
C333 C81 2.093 . S
C337 C53 2.093 . S
C351 C18 1.873 . S
C355 C54 1.873 . S
C369 C21 1.752 . S
C373 C49 1.752 . S
C387 C82 1.863 . S
C391 C118 1.863 . S
C405 C113 1.751 . S
C409 C85 1.751 . S
