# Generated by pormake.
# Topology ulg, (4)-cn, num edge types: 1
# Building blocks:
#     Node 0, Type 0, BuildingBlock: AZAVOO_clean_sbu_0, # of connection points: 4
#     Node 1, Type 0, BuildingBlock: AZAVOO_clean_sbu_0, # of connection points: 4
#     Node 2, Type 0, BuildingBlock: AZAVOO_clean_sbu_0, # of connection points: 4
#     Node 3, Type 0, BuildingBlock: AZAVOO_clean_sbu_0, # of connection points: 4
#     Node 4, Type 0, BuildingBlock: AZAVOO_clean_sbu_0, # of connection points: 4
#     Node 5, Type 0, BuildingBlock: AZAVOO_clean_sbu_0, # of connection points: 4
#     Node 6, Type 0, BuildingBlock: AZAVOO_clean_sbu_0, # of connection points: 4
#     Node 7, Type 0, BuildingBlock: AZAVOO_clean_sbu_0, # of connection points: 4
#     Node 8, Type 0, BuildingBlock: AZAVOO_clean_sbu_0, # of connection points: 4
#     Node 9, Type 0, BuildingBlock: AZAVOO_clean_sbu_0, # of connection points: 4
#     Node 10, Type 0, BuildingBlock: AZAVOO_clean_sbu_0, # of connection points: 4
#     Node 11, Type 0, BuildingBlock: AZAVOO_clean_sbu_0, # of connection points: 4
#     Node 12, Type 0, BuildingBlock: AZAVOO_clean_sbu_0, # of connection points: 4
#     Node 13, Type 0, BuildingBlock: AZAVOO_clean_sbu_0, # of connection points: 4
#     Node 14, Type 0, BuildingBlock: AZAVOO_clean_sbu_0, # of connection points: 4
#     Node 15, Type 0, BuildingBlock: AZAVOO_clean_sbu_0, # of connection points: 4
#     Node 16, Type 0, BuildingBlock: AZAVOO_clean_sbu_0, # of connection points: 4
#     Node 17, Type 0, BuildingBlock: AZAVOO_clean_sbu_0, # of connection points: 4
#     Node 18, Type 0, BuildingBlock: AZAVOO_clean_sbu_0, # of connection points: 4
#     Node 19, Type 0, BuildingBlock: AZAVOO_clean_sbu_0, # of connection points: 4
#     Node 20, Type 0, BuildingBlock: AZAVOO_clean_sbu_0, # of connection points: 4
#     Node 21, Type 0, BuildingBlock: AZAVOO_clean_sbu_0, # of connection points: 4
#     Node 22, Type 0, BuildingBlock: AZAVOO_clean_sbu_0, # of connection points: 4
#     Node 23, Type 0, BuildingBlock: AZAVOO_clean_sbu_0, # of connection points: 4
#     Node 24, Type 0, BuildingBlock: AZAVOO_clean_sbu_0, # of connection points: 4
#     Node 25, Type 0, BuildingBlock: AZAVOO_clean_sbu_0, # of connection points: 4
#     Node 26, Type 0, BuildingBlock: AZAVOO_clean_sbu_0, # of connection points: 4
#     Node 27, Type 0, BuildingBlock: AZAVOO_clean_sbu_0, # of connection points: 4
#     Node 28, Type 0, BuildingBlock: AZAVOO_clean_sbu_0, # of connection points: 4
#     Node 29, Type 0, BuildingBlock: AZAVOO_clean_sbu_0, # of connection points: 4
#     Node 30, Type 0, BuildingBlock: AZAVOO_clean_sbu_0, # of connection points: 4
#     Node 31, Type 0, BuildingBlock: AZAVOO_clean_sbu_0, # of connection points: 4
#     Node 32, Type 0, BuildingBlock: AZAVOO_clean_sbu_0, # of connection points: 4
#     Node 33, Type 0, BuildingBlock: AZAVOO_clean_sbu_0, # of connection points: 4
#     Node 34, Type 0, BuildingBlock: AZAVOO_clean_sbu_0, # of connection points: 4
#     Node 35, Type 0, BuildingBlock: AZAVOO_clean_sbu_0, # of connection points: 4
#     Node 36, Type 0, BuildingBlock: AZAVOO_clean_sbu_0, # of connection points: 4
#     Node 37, Type 0, BuildingBlock: AZAVOO_clean_sbu_0, # of connection points: 4
#     Node 38, Type 0, BuildingBlock: AZAVOO_clean_sbu_0, # of connection points: 4
#     Node 39, Type 0, BuildingBlock: AZAVOO_clean_sbu_0, # of connection points: 4
#     Node 40, Type 0, BuildingBlock: AZAVOO_clean_sbu_0, # of connection points: 4
#     Node 41, Type 0, BuildingBlock: AZAVOO_clean_sbu_0, # of connection points: 4
#     Node 42, Type 0, BuildingBlock: AZAVOO_clean_sbu_0, # of connection points: 4
#     Node 43, Type 0, BuildingBlock: AZAVOO_clean_sbu_0, # of connection points: 4
#     Node 44, Type 0, BuildingBlock: AZAVOO_clean_sbu_0, # of connection points: 4
#     Node 45, Type 0, BuildingBlock: AZAVOO_clean_sbu_0, # of connection points: 4
#     Node 46, Type 0, BuildingBlock: AZAVOO_clean_sbu_0, # of connection points: 4
#     Node 47, Type 0, BuildingBlock: AZAVOO_clean_sbu_0, # of connection points: 4
#     Node 48, Type 0, BuildingBlock: AZAVOO_clean_sbu_0, # of connection points: 4
#     Node 49, Type 0, BuildingBlock: AZAVOO_clean_sbu_0, # of connection points: 4
#     Node 50, Type 0, BuildingBlock: AZAVOO_clean_sbu_0, # of connection points: 4
#     Node 51, Type 0, BuildingBlock: AZAVOO_clean_sbu_0, # of connection points: 4
#     Node 52, Type 0, BuildingBlock: AZAVOO_clean_sbu_0, # of connection points: 4
#     Node 53, Type 0, BuildingBlock: AZAVOO_clean_sbu_0, # of connection points: 4
#     Node 54, Type 0, BuildingBlock: AZAVOO_clean_sbu_0, # of connection points: 4
#     Node 55, Type 0, BuildingBlock: AZAVOO_clean_sbu_0, # of connection points: 4
#     Node 56, Type 0, BuildingBlock: AZAVOO_clean_sbu_0, # of connection points: 4
#     Node 57, Type 0, BuildingBlock: AZAVOO_clean_sbu_0, # of connection points: 4
#     Node 58, Type 0, BuildingBlock: AZAVOO_clean_sbu_0, # of connection points: 4
#     Node 59, Type 0, BuildingBlock: AZAVOO_clean_sbu_0, # of connection points: 4
#     Node 60, Type 0, BuildingBlock: AZAVOO_clean_sbu_0, # of connection points: 4
#     Node 61, Type 0, BuildingBlock: AZAVOO_clean_sbu_0, # of connection points: 4
#     Node 62, Type 0, BuildingBlock: AZAVOO_clean_sbu_0, # of connection points: 4
#     Node 63, Type 0, BuildingBlock: AZAVOO_clean_sbu_0, # of connection points: 4
#     Node 64, Type 0, BuildingBlock: AZAVOO_clean_sbu_0, # of connection points: 4
#     Node 65, Type 0, BuildingBlock: AZAVOO_clean_sbu_0, # of connection points: 4
#     Node 66, Type 0, BuildingBlock: AZAVOO_clean_sbu_0, # of connection points: 4
#     Node 67, Type 0, BuildingBlock: AZAVOO_clean_sbu_0, # of connection points: 4
#     Node 68, Type 0, BuildingBlock: AZAVOO_clean_sbu_0, # of connection points: 4
#     Node 69, Type 0, BuildingBlock: AZAVOO_clean_sbu_0, # of connection points: 4
#     Node 70, Type 0, BuildingBlock: AZAVOO_clean_sbu_0, # of connection points: 4
#     Node 71, Type 0, BuildingBlock: AZAVOO_clean_sbu_0, # of connection points: 4
#     Node 72, Type 0, BuildingBlock: AZAVOO_clean_sbu_0, # of connection points: 4
#     Node 73, Type 0, BuildingBlock: AZAVOO_clean_sbu_0, # of connection points: 4
#     Node 74, Type 0, BuildingBlock: AZAVOO_clean_sbu_0, # of connection points: 4
#     Node 75, Type 0, BuildingBlock: AZAVOO_clean_sbu_0, # of connection points: 4
#     Node 76, Type 0, BuildingBlock: AZAVOO_clean_sbu_0, # of connection points: 4
#     Node 77, Type 0, BuildingBlock: AZAVOO_clean_sbu_0, # of connection points: 4
#     Node 78, Type 0, BuildingBlock: AZAVOO_clean_sbu_0, # of connection points: 4
#     Node 79, Type 0, BuildingBlock: AZAVOO_clean_sbu_0, # of connection points: 4
#     Node 80, Type 0, BuildingBlock: AZAVOO_clean_sbu_0, # of connection points: 4
#     Node 81, Type 0, BuildingBlock: AZAVOO_clean_sbu_0, # of connection points: 4
#     Node 82, Type 0, BuildingBlock: AZAVOO_clean_sbu_0, # of connection points: 4
#     Node 83, Type 0, BuildingBlock: AZAVOO_clean_sbu_0, # of connection points: 4
#     Node 84, Type 0, BuildingBlock: AZAVOO_clean_sbu_0, # of connection points: 4
#     Node 85, Type 0, BuildingBlock: AZAVOO_clean_sbu_0, # of connection points: 4
#     Node 86, Type 0, BuildingBlock: AZAVOO_clean_sbu_0, # of connection points: 4
#     Node 87, Type 0, BuildingBlock: AZAVOO_clean_sbu_0, # of connection points: 4
#     Node 88, Type 0, BuildingBlock: AZAVOO_clean_sbu_0, # of connection points: 4
#     Node 89, Type 0, BuildingBlock: AZAVOO_clean_sbu_0, # of connection points: 4
#     Node 90, Type 0, BuildingBlock: AZAVOO_clean_sbu_0, # of connection points: 4
#     Node 91, Type 0, BuildingBlock: AZAVOO_clean_sbu_0, # of connection points: 4
#     Node 92, Type 0, BuildingBlock: AZAVOO_clean_sbu_0, # of connection points: 4
#     Node 93, Type 0, BuildingBlock: AZAVOO_clean_sbu_0, # of connection points: 4
#     Node 94, Type 0, BuildingBlock: AZAVOO_clean_sbu_0, # of connection points: 4
#     Node 95, Type 0, BuildingBlock: AZAVOO_clean_sbu_0, # of connection points: 4
#     Edge 96, Type (0, 0), BuildingBlock: MIFKUJ_clean_linker_0, # of connection points: 2
#     Edge 97, Type (0, 0), BuildingBlock: MIFKUJ_clean_linker_0, # of connection points: 2
#     Edge 98, Type (0, 0), BuildingBlock: MIFKUJ_clean_linker_0, # of connection points: 2
#     Edge 99, Type (0, 0), BuildingBlock: MIFKUJ_clean_linker_0, # of connection points: 2
#     Edge 100, Type (0, 0), BuildingBlock: MIFKUJ_clean_linker_0, # of connection points: 2
#     Edge 101, Type (0, 0), BuildingBlock: MIFKUJ_clean_linker_0, # of connection points: 2
#     Edge 102, Type (0, 0), BuildingBlock: MIFKUJ_clean_linker_0, # of connection points: 2
#     Edge 103, Type (0, 0), BuildingBlock: MIFKUJ_clean_linker_0, # of connection points: 2
#     Edge 104, Type (0, 0), BuildingBlock: MIFKUJ_clean_linker_0, # of connection points: 2
#     Edge 105, Type (0, 0), BuildingBlock: MIFKUJ_clean_linker_0, # of connection points: 2
#     Edge 106, Type (0, 0), BuildingBlock: MIFKUJ_clean_linker_0, # of connection points: 2
#     Edge 107, Type (0, 0), BuildingBlock: MIFKUJ_clean_linker_0, # of connection points: 2
#     Edge 108, Type (0, 0), BuildingBlock: MIFKUJ_clean_linker_0, # of connection points: 2
#     Edge 109, Type (0, 0), BuildingBlock: MIFKUJ_clean_linker_0, # of connection points: 2
#     Edge 110, Type (0, 0), BuildingBlock: MIFKUJ_clean_linker_0, # of connection points: 2
#     Edge 111, Type (0, 0), BuildingBlock: MIFKUJ_clean_linker_0, # of connection points: 2
#     Edge 112, Type (0, 0), BuildingBlock: MIFKUJ_clean_linker_0, # of connection points: 2
#     Edge 113, Type (0, 0), BuildingBlock: MIFKUJ_clean_linker_0, # of connection points: 2
#     Edge 114, Type (0, 0), BuildingBlock: MIFKUJ_clean_linker_0, # of connection points: 2
#     Edge 115, Type (0, 0), BuildingBlock: MIFKUJ_clean_linker_0, # of connection points: 2
#     Edge 116, Type (0, 0), BuildingBlock: MIFKUJ_clean_linker_0, # of connection points: 2
#     Edge 117, Type (0, 0), BuildingBlock: MIFKUJ_clean_linker_0, # of connection points: 2
#     Edge 118, Type (0, 0), BuildingBlock: MIFKUJ_clean_linker_0, # of connection points: 2
#     Edge 119, Type (0, 0), BuildingBlock: MIFKUJ_clean_linker_0, # of connection points: 2
#     Edge 120, Type (0, 0), BuildingBlock: MIFKUJ_clean_linker_0, # of connection points: 2
#     Edge 121, Type (0, 0), BuildingBlock: MIFKUJ_clean_linker_0, # of connection points: 2
#     Edge 122, Type (0, 0), BuildingBlock: MIFKUJ_clean_linker_0, # of connection points: 2
#     Edge 123, Type (0, 0), BuildingBlock: MIFKUJ_clean_linker_0, # of connection points: 2
#     Edge 124, Type (0, 0), BuildingBlock: MIFKUJ_clean_linker_0, # of connection points: 2
#     Edge 125, Type (0, 0), BuildingBlock: MIFKUJ_clean_linker_0, # of connection points: 2
#     Edge 126, Type (0, 0), BuildingBlock: MIFKUJ_clean_linker_0, # of connection points: 2
#     Edge 127, Type (0, 0), BuildingBlock: MIFKUJ_clean_linker_0, # of connection points: 2
#     Edge 128, Type (0, 0), BuildingBlock: MIFKUJ_clean_linker_0, # of connection points: 2
#     Edge 129, Type (0, 0), BuildingBlock: MIFKUJ_clean_linker_0, # of connection points: 2
#     Edge 130, Type (0, 0), BuildingBlock: MIFKUJ_clean_linker_0, # of connection points: 2
#     Edge 131, Type (0, 0), BuildingBlock: MIFKUJ_clean_linker_0, # of connection points: 2
#     Edge 132, Type (0, 0), BuildingBlock: MIFKUJ_clean_linker_0, # of connection points: 2
#     Edge 133, Type (0, 0), BuildingBlock: MIFKUJ_clean_linker_0, # of connection points: 2
#     Edge 134, Type (0, 0), BuildingBlock: MIFKUJ_clean_linker_0, # of connection points: 2
#     Edge 135, Type (0, 0), BuildingBlock: MIFKUJ_clean_linker_0, # of connection points: 2
#     Edge 136, Type (0, 0), BuildingBlock: MIFKUJ_clean_linker_0, # of connection points: 2
#     Edge 137, Type (0, 0), BuildingBlock: MIFKUJ_clean_linker_0, # of connection points: 2
#     Edge 138, Type (0, 0), BuildingBlock: MIFKUJ_clean_linker_0, # of connection points: 2
#     Edge 139, Type (0, 0), BuildingBlock: MIFKUJ_clean_linker_0, # of connection points: 2
#     Edge 140, Type (0, 0), BuildingBlock: MIFKUJ_clean_linker_0, # of connection points: 2
#     Edge 141, Type (0, 0), BuildingBlock: MIFKUJ_clean_linker_0, # of connection points: 2
#     Edge 142, Type (0, 0), BuildingBlock: MIFKUJ_clean_linker_0, # of connection points: 2
#     Edge 143, Type (0, 0), BuildingBlock: MIFKUJ_clean_linker_0, # of connection points: 2
#     Edge 144, Type (0, 0), BuildingBlock: MIFKUJ_clean_linker_0, # of connection points: 2
#     Edge 145, Type (0, 0), BuildingBlock: MIFKUJ_clean_linker_0, # of connection points: 2
#     Edge 146, Type (0, 0), BuildingBlock: MIFKUJ_clean_linker_0, # of connection points: 2
#     Edge 147, Type (0, 0), BuildingBlock: MIFKUJ_clean_linker_0, # of connection points: 2
#     Edge 148, Type (0, 0), BuildingBlock: MIFKUJ_clean_linker_0, # of connection points: 2
#     Edge 149, Type (0, 0), BuildingBlock: MIFKUJ_clean_linker_0, # of connection points: 2
#     Edge 150, Type (0, 0), BuildingBlock: MIFKUJ_clean_linker_0, # of connection points: 2
#     Edge 151, Type (0, 0), BuildingBlock: MIFKUJ_clean_linker_0, # of connection points: 2
#     Edge 152, Type (0, 0), BuildingBlock: MIFKUJ_clean_linker_0, # of connection points: 2
#     Edge 153, Type (0, 0), BuildingBlock: MIFKUJ_clean_linker_0, # of connection points: 2
#     Edge 154, Type (0, 0), BuildingBlock: MIFKUJ_clean_linker_0, # of connection points: 2
#     Edge 155, Type (0, 0), BuildingBlock: MIFKUJ_clean_linker_0, # of connection points: 2
#     Edge 156, Type (0, 0), BuildingBlock: MIFKUJ_clean_linker_0, # of connection points: 2
#     Edge 157, Type (0, 0), BuildingBlock: MIFKUJ_clean_linker_0, # of connection points: 2
#     Edge 158, Type (0, 0), BuildingBlock: MIFKUJ_clean_linker_0, # of connection points: 2
#     Edge 159, Type (0, 0), BuildingBlock: MIFKUJ_clean_linker_0, # of connection points: 2
#     Edge 160, Type (0, 0), BuildingBlock: MIFKUJ_clean_linker_0, # of connection points: 2
#     Edge 161, Type (0, 0), BuildingBlock: MIFKUJ_clean_linker_0, # of connection points: 2
#     Edge 162, Type (0, 0), BuildingBlock: MIFKUJ_clean_linker_0, # of connection points: 2
#     Edge 163, Type (0, 0), BuildingBlock: MIFKUJ_clean_linker_0, # of connection points: 2
#     Edge 164, Type (0, 0), BuildingBlock: MIFKUJ_clean_linker_0, # of connection points: 2
#     Edge 165, Type (0, 0), BuildingBlock: MIFKUJ_clean_linker_0, # of connection points: 2
#     Edge 166, Type (0, 0), BuildingBlock: MIFKUJ_clean_linker_0, # of connection points: 2
#     Edge 167, Type (0, 0), BuildingBlock: MIFKUJ_clean_linker_0, # of connection points: 2
#     Edge 168, Type (0, 0), BuildingBlock: MIFKUJ_clean_linker_0, # of connection points: 2
#     Edge 169, Type (0, 0), BuildingBlock: MIFKUJ_clean_linker_0, # of connection points: 2
#     Edge 170, Type (0, 0), BuildingBlock: MIFKUJ_clean_linker_0, # of connection points: 2
#     Edge 171, Type (0, 0), BuildingBlock: MIFKUJ_clean_linker_0, # of connection points: 2
#     Edge 172, Type (0, 0), BuildingBlock: MIFKUJ_clean_linker_0, # of connection points: 2
#     Edge 173, Type (0, 0), BuildingBlock: MIFKUJ_clean_linker_0, # of connection points: 2
#     Edge 174, Type (0, 0), BuildingBlock: MIFKUJ_clean_linker_0, # of connection points: 2
#     Edge 175, Type (0, 0), BuildingBlock: MIFKUJ_clean_linker_0, # of connection points: 2
#     Edge 176, Type (0, 0), BuildingBlock: MIFKUJ_clean_linker_0, # of connection points: 2
#     Edge 177, Type (0, 0), BuildingBlock: MIFKUJ_clean_linker_0, # of connection points: 2
#     Edge 178, Type (0, 0), BuildingBlock: MIFKUJ_clean_linker_0, # of connection points: 2
#     Edge 179, Type (0, 0), BuildingBlock: MIFKUJ_clean_linker_0, # of connection points: 2
#     Edge 180, Type (0, 0), BuildingBlock: MIFKUJ_clean_linker_0, # of connection points: 2
#     Edge 181, Type (0, 0), BuildingBlock: MIFKUJ_clean_linker_0, # of connection points: 2
#     Edge 182, Type (0, 0), BuildingBlock: MIFKUJ_clean_linker_0, # of connection points: 2
#     Edge 183, Type (0, 0), BuildingBlock: MIFKUJ_clean_linker_0, # of connection points: 2
#     Edge 184, Type (0, 0), BuildingBlock: MIFKUJ_clean_linker_0, # of connection points: 2
#     Edge 185, Type (0, 0), BuildingBlock: MIFKUJ_clean_linker_0, # of connection points: 2
#     Edge 186, Type (0, 0), BuildingBlock: MIFKUJ_clean_linker_0, # of connection points: 2
#     Edge 187, Type (0, 0), BuildingBlock: MIFKUJ_clean_linker_0, # of connection points: 2
#     Edge 188, Type (0, 0), BuildingBlock: MIFKUJ_clean_linker_0, # of connection points: 2
#     Edge 189, Type (0, 0), BuildingBlock: MIFKUJ_clean_linker_0, # of connection points: 2
#     Edge 190, Type (0, 0), BuildingBlock: MIFKUJ_clean_linker_0, # of connection points: 2
#     Edge 191, Type (0, 0), BuildingBlock: MIFKUJ_clean_linker_0, # of connection points: 2
#     Edge 192, Type (0, 0), BuildingBlock: MIFKUJ_clean_linker_0, # of connection points: 2
#     Edge 193, Type (0, 0), BuildingBlock: MIFKUJ_clean_linker_0, # of connection points: 2
#     Edge 194, Type (0, 0), BuildingBlock: MIFKUJ_clean_linker_0, # of connection points: 2
#     Edge 195, Type (0, 0), BuildingBlock: MIFKUJ_clean_linker_0, # of connection points: 2
#     Edge 196, Type (0, 0), BuildingBlock: MIFKUJ_clean_linker_0, # of connection points: 2
#     Edge 197, Type (0, 0), BuildingBlock: MIFKUJ_clean_linker_0, # of connection points: 2
#     Edge 198, Type (0, 0), BuildingBlock: MIFKUJ_clean_linker_0, # of connection points: 2
#     Edge 199, Type (0, 0), BuildingBlock: MIFKUJ_clean_linker_0, # of connection points: 2
#     Edge 200, Type (0, 0), BuildingBlock: MIFKUJ_clean_linker_0, # of connection points: 2
#     Edge 201, Type (0, 0), BuildingBlock: MIFKUJ_clean_linker_0, # of connection points: 2
#     Edge 202, Type (0, 0), BuildingBlock: MIFKUJ_clean_linker_0, # of connection points: 2
#     Edge 203, Type (0, 0), BuildingBlock: MIFKUJ_clean_linker_0, # of connection points: 2
#     Edge 204, Type (0, 0), BuildingBlock: MIFKUJ_clean_linker_0, # of connection points: 2
#     Edge 205, Type (0, 0), BuildingBlock: MIFKUJ_clean_linker_0, # of connection points: 2
#     Edge 206, Type (0, 0), BuildingBlock: MIFKUJ_clean_linker_0, # of connection points: 2
#     Edge 207, Type (0, 0), BuildingBlock: MIFKUJ_clean_linker_0, # of connection points: 2
#     Edge 208, Type (0, 0), BuildingBlock: MIFKUJ_clean_linker_0, # of connection points: 2
#     Edge 209, Type (0, 0), BuildingBlock: MIFKUJ_clean_linker_0, # of connection points: 2
#     Edge 210, Type (0, 0), BuildingBlock: MIFKUJ_clean_linker_0, # of connection points: 2
#     Edge 211, Type (0, 0), BuildingBlock: MIFKUJ_clean_linker_0, # of connection points: 2
#     Edge 212, Type (0, 0), BuildingBlock: MIFKUJ_clean_linker_0, # of connection points: 2
#     Edge 213, Type (0, 0), BuildingBlock: MIFKUJ_clean_linker_0, # of connection points: 2
#     Edge 214, Type (0, 0), BuildingBlock: MIFKUJ_clean_linker_0, # of connection points: 2
#     Edge 215, Type (0, 0), BuildingBlock: MIFKUJ_clean_linker_0, # of connection points: 2
#     Edge 216, Type (0, 0), BuildingBlock: MIFKUJ_clean_linker_0, # of connection points: 2
#     Edge 217, Type (0, 0), BuildingBlock: MIFKUJ_clean_linker_0, # of connection points: 2
#     Edge 218, Type (0, 0), BuildingBlock: MIFKUJ_clean_linker_0, # of connection points: 2
#     Edge 219, Type (0, 0), BuildingBlock: MIFKUJ_clean_linker_0, # of connection points: 2
#     Edge 220, Type (0, 0), BuildingBlock: MIFKUJ_clean_linker_0, # of connection points: 2
#     Edge 221, Type (0, 0), BuildingBlock: MIFKUJ_clean_linker_0, # of connection points: 2
#     Edge 222, Type (0, 0), BuildingBlock: MIFKUJ_clean_linker_0, # of connection points: 2
#     Edge 223, Type (0, 0), BuildingBlock: MIFKUJ_clean_linker_0, # of connection points: 2
#     Edge 224, Type (0, 0), BuildingBlock: MIFKUJ_clean_linker_0, # of connection points: 2
#     Edge 225, Type (0, 0), BuildingBlock: MIFKUJ_clean_linker_0, # of connection points: 2
#     Edge 226, Type (0, 0), BuildingBlock: MIFKUJ_clean_linker_0, # of connection points: 2
#     Edge 227, Type (0, 0), BuildingBlock: MIFKUJ_clean_linker_0, # of connection points: 2
#     Edge 228, Type (0, 0), BuildingBlock: MIFKUJ_clean_linker_0, # of connection points: 2
#     Edge 229, Type (0, 0), BuildingBlock: MIFKUJ_clean_linker_0, # of connection points: 2
#     Edge 230, Type (0, 0), BuildingBlock: MIFKUJ_clean_linker_0, # of connection points: 2
#     Edge 231, Type (0, 0), BuildingBlock: MIFKUJ_clean_linker_0, # of connection points: 2
#     Edge 232, Type (0, 0), BuildingBlock: MIFKUJ_clean_linker_0, # of connection points: 2
#     Edge 233, Type (0, 0), BuildingBlock: MIFKUJ_clean_linker_0, # of connection points: 2
#     Edge 234, Type (0, 0), BuildingBlock: MIFKUJ_clean_linker_0, # of connection points: 2
#     Edge 235, Type (0, 0), BuildingBlock: MIFKUJ_clean_linker_0, # of connection points: 2
#     Edge 236, Type (0, 0), BuildingBlock: MIFKUJ_clean_linker_0, # of connection points: 2
#     Edge 237, Type (0, 0), BuildingBlock: MIFKUJ_clean_linker_0, # of connection points: 2
#     Edge 238, Type (0, 0), BuildingBlock: MIFKUJ_clean_linker_0, # of connection points: 2
#     Edge 239, Type (0, 0), BuildingBlock: MIFKUJ_clean_linker_0, # of connection points: 2
#     Edge 240, Type (0, 0), BuildingBlock: MIFKUJ_clean_linker_0, # of connection points: 2
#     Edge 241, Type (0, 0), BuildingBlock: MIFKUJ_clean_linker_0, # of connection points: 2
#     Edge 242, Type (0, 0), BuildingBlock: MIFKUJ_clean_linker_0, # of connection points: 2
#     Edge 243, Type (0, 0), BuildingBlock: MIFKUJ_clean_linker_0, # of connection points: 2
#     Edge 244, Type (0, 0), BuildingBlock: MIFKUJ_clean_linker_0, # of connection points: 2
#     Edge 245, Type (0, 0), BuildingBlock: MIFKUJ_clean_linker_0, # of connection points: 2
#     Edge 246, Type (0, 0), BuildingBlock: MIFKUJ_clean_linker_0, # of connection points: 2
#     Edge 247, Type (0, 0), BuildingBlock: MIFKUJ_clean_linker_0, # of connection points: 2
#     Edge 248, Type (0, 0), BuildingBlock: MIFKUJ_clean_linker_0, # of connection points: 2
#     Edge 249, Type (0, 0), BuildingBlock: MIFKUJ_clean_linker_0, # of connection points: 2
#     Edge 250, Type (0, 0), BuildingBlock: MIFKUJ_clean_linker_0, # of connection points: 2
#     Edge 251, Type (0, 0), BuildingBlock: MIFKUJ_clean_linker_0, # of connection points: 2
#     Edge 252, Type (0, 0), BuildingBlock: MIFKUJ_clean_linker_0, # of connection points: 2
#     Edge 253, Type (0, 0), BuildingBlock: MIFKUJ_clean_linker_0, # of connection points: 2
#     Edge 254, Type (0, 0), BuildingBlock: MIFKUJ_clean_linker_0, # of connection points: 2
#     Edge 255, Type (0, 0), BuildingBlock: MIFKUJ_clean_linker_0, # of connection points: 2
#     Edge 256, Type (0, 0), BuildingBlock: MIFKUJ_clean_linker_0, # of connection points: 2
#     Edge 257, Type (0, 0), BuildingBlock: MIFKUJ_clean_linker_0, # of connection points: 2
#     Edge 258, Type (0, 0), BuildingBlock: MIFKUJ_clean_linker_0, # of connection points: 2
#     Edge 259, Type (0, 0), BuildingBlock: MIFKUJ_clean_linker_0, # of connection points: 2
#     Edge 260, Type (0, 0), BuildingBlock: MIFKUJ_clean_linker_0, # of connection points: 2
#     Edge 261, Type (0, 0), BuildingBlock: MIFKUJ_clean_linker_0, # of connection points: 2
#     Edge 262, Type (0, 0), BuildingBlock: MIFKUJ_clean_linker_0, # of connection points: 2
#     Edge 263, Type (0, 0), BuildingBlock: MIFKUJ_clean_linker_0, # of connection points: 2
#     Edge 264, Type (0, 0), BuildingBlock: MIFKUJ_clean_linker_0, # of connection points: 2
#     Edge 265, Type (0, 0), BuildingBlock: MIFKUJ_clean_linker_0, # of connection points: 2
#     Edge 266, Type (0, 0), BuildingBlock: MIFKUJ_clean_linker_0, # of connection points: 2
#     Edge 267, Type (0, 0), BuildingBlock: MIFKUJ_clean_linker_0, # of connection points: 2
#     Edge 268, Type (0, 0), BuildingBlock: MIFKUJ_clean_linker_0, # of connection points: 2
#     Edge 269, Type (0, 0), BuildingBlock: MIFKUJ_clean_linker_0, # of connection points: 2
#     Edge 270, Type (0, 0), BuildingBlock: MIFKUJ_clean_linker_0, # of connection points: 2
#     Edge 271, Type (0, 0), BuildingBlock: MIFKUJ_clean_linker_0, # of connection points: 2
#     Edge 272, Type (0, 0), BuildingBlock: MIFKUJ_clean_linker_0, # of connection points: 2
#     Edge 273, Type (0, 0), BuildingBlock: MIFKUJ_clean_linker_0, # of connection points: 2
#     Edge 274, Type (0, 0), BuildingBlock: MIFKUJ_clean_linker_0, # of connection points: 2
#     Edge 275, Type (0, 0), BuildingBlock: MIFKUJ_clean_linker_0, # of connection points: 2
#     Edge 276, Type (0, 0), BuildingBlock: MIFKUJ_clean_linker_0, # of connection points: 2
#     Edge 277, Type (0, 0), BuildingBlock: MIFKUJ_clean_linker_0, # of connection points: 2
#     Edge 278, Type (0, 0), BuildingBlock: MIFKUJ_clean_linker_0, # of connection points: 2
#     Edge 279, Type (0, 0), BuildingBlock: MIFKUJ_clean_linker_0, # of connection points: 2
#     Edge 280, Type (0, 0), BuildingBlock: MIFKUJ_clean_linker_0, # of connection points: 2
#     Edge 281, Type (0, 0), BuildingBlock: MIFKUJ_clean_linker_0, # of connection points: 2
#     Edge 282, Type (0, 0), BuildingBlock: MIFKUJ_clean_linker_0, # of connection points: 2
#     Edge 283, Type (0, 0), BuildingBlock: MIFKUJ_clean_linker_0, # of connection points: 2
#     Edge 284, Type (0, 0), BuildingBlock: MIFKUJ_clean_linker_0, # of connection points: 2
#     Edge 285, Type (0, 0), BuildingBlock: MIFKUJ_clean_linker_0, # of connection points: 2
#     Edge 286, Type (0, 0), BuildingBlock: MIFKUJ_clean_linker_0, # of connection points: 2
#     Edge 287, Type (0, 0), BuildingBlock: MIFKUJ_clean_linker_0, # of connection points: 2
# Relax obj value: 0.437
# Max RMSD: 0.185
# Mean RMSD: 0.185
data_MOF--net-ulg--node1-AZAVOO_clean_sbu_0--edge1-MIFKUJ_clean_linker_0
_symmetry_space_group_name_H-M    P1
_symmetry_Int_Tables_number       1
_symmetry_cell_setting            triclinic
loop_
_symmetry_equiv_pos_as_xyz
'x, y, z'
_cell_length_a     122.55712
_cell_length_b     122.54225
_cell_length_c     122.58377
_cell_angle_alpha  90.013216
_cell_angle_beta   89.988041
_cell_angle_gamma 89.999662
loop_
_atom_site_label
_atom_site_type_symbol
_atom_site_fract_x
_atom_site_fract_y
_atom_site_fract_z
_atom_type_partial_charge
Mg0 Mg 0.08013 0.51091 0.14199 0.0
O1 O 0.07352 0.52796 0.13737 0.0
O2 O 0.08652 0.53958 0.13166 0.0
Mg3 Mg 0.10297 0.53126 0.13466 0.0
C4 C 0.07652 0.53723 0.13359 0.0
C5 C 0.05684 0.50079 0.1407 0.0
O6 O 0.06104 0.49664 0.13175 0.0
O7 O 0.08371 0.51669 0.15995 0.0
O8 O 0.09398 0.52445 0.14831 0.0
O9 O 0.08095 0.50712 0.12407 0.0
O10 O 0.09475 0.51496 0.13248 0.0
C11 C 0.09112 0.52361 0.15809 0.0
C12 C 0.0904 0.51175 0.1235 0.0
O13 O 0.06286 0.50641 0.14697 0.0
Mg14 Mg 0.73847 0.33046 0.38822 0.0
O15 O 0.72175 0.32421 0.38365 0.0
O16 O 0.71073 0.33757 0.37813 0.0
Mg17 Mg 0.72104 0.35325 0.37948 0.0
C18 C 0.7126 0.32752 0.38008 0.0
C19 C 0.75013 0.3083 0.39573 0.0
O20 O 0.75923 0.31336 0.39319 0.0
O21 O 0.73175 0.3372 0.40441 0.0
O22 O 0.722 0.35129 0.39795 0.0
O23 O 0.74269 0.32874 0.37055 0.0
O24 O 0.73635 0.34395 0.37791 0.0
C25 C 0.72572 0.3456 0.40583 0.0
C26 C 0.73892 0.33853 0.36932 0.0
O27 O 0.74113 0.31341 0.39518 0.0
Mg28 Mg 0.91826 0.98586 0.64027 0.0
O29 O 0.92508 0.96947 0.63457 0.0
O30 O 0.91162 0.95797 0.63043 0.0
Mg31 Mg 0.89578 0.96695 0.63443 0.0
C32 C 0.92175 0.96022 0.63117 0.0
C33 C 0.94043 0.99885 0.64438 0.0
O34 O 0.93502 0.00729 0.6406 0.0
O35 O 0.91435 0.97865 0.65705 0.0
O36 O 0.90063 0.96754 0.65227 0.0
O37 O 0.91689 0.99095 0.62267 0.0
O38 O 0.90372 0.98292 0.63195 0.0
C39 C 0.90701 0.97164 0.65938 0.0
C40 C 0.90731 0.98651 0.62278 0.0
O41 O 0.93559 0.98975 0.64543 0.0
Mg42 Mg 0.26242 0.16783 0.88868 0.0
O43 O 0.27904 0.17449 0.88408 0.0
O44 O 0.29007 0.1611 0.87856 0.0
Mg45 Mg 0.27994 0.1453 0.87942 0.0
C46 C 0.2882 0.17116 0.88053 0.0
C47 C 0.25324 0.19118 0.89082 0.0
O48 O 0.24815 0.18765 0.88208 0.0
O49 O 0.26922 0.16075 0.90478 0.0
O50 O 0.27855 0.14664 0.89783 0.0
O51 O 0.2579 0.16957 0.87096 0.0
O52 O 0.26464 0.15455 0.87824 0.0
C53 C 0.27493 0.15208 0.90592 0.0
C54 C 0.26175 0.15982 0.86968 0.0
O55 O 0.25926 0.1846 0.89611 0.0
Mg56 Mg 0.08135 0.48748 0.86031 0.0
O57 O 0.07421 0.47078 0.86405 0.0
O58 O 0.08754 0.45889 0.8677 0.0
Mg59 Mg 0.10341 0.46888 0.86821 0.0
C60 C 0.07749 0.46119 0.8663 0.0
C61 C 0.05961 0.50017 0.85455 0.0
O62 O 0.06431 0.50814 0.85997 0.0
O63 O 0.08812 0.48129 0.84391 0.0
O64 O 0.10225 0.47132 0.84987 0.0
O65 O 0.07943 0.4915 0.87809 0.0
O66 O 0.09425 0.48414 0.87094 0.0
C67 C 0.09662 0.4755 0.84219 0.0
C68 C 0.08888 0.48702 0.87948 0.0
O69 O 0.06486 0.49141 0.85284 0.0
Mg70 Mg 0.76177 0.33056 0.10834 0.0
O71 O 0.7779 0.32338 0.11438 0.0
O72 O 0.78938 0.33688 0.11876 0.0
Mg73 Mg 0.78037 0.35292 0.11564 0.0
C74 C 0.78709 0.32677 0.11785 0.0
C75 C 0.75032 0.3079 0.10675 0.0
O76 O 0.74457 0.31227 0.11468 0.0
O77 O 0.76955 0.33527 0.09195 0.0
O78 O 0.78031 0.34897 0.09755 0.0
O79 O 0.7564 0.33092 0.12584 0.0
O80 O 0.76454 0.34463 0.11746 0.0
C81 C 0.77649 0.34282 0.09008 0.0
C82 C 0.76099 0.34042 0.12638 0.0
O83 O 0.75763 0.31359 0.10211 0.0
Mg84 Mg 0.91806 0.01104 0.35886 0.0
O85 O 0.92357 0.02732 0.36596 0.0
O86 O 0.90994 0.03603 0.37432 0.0
Mg87 Mg 0.89472 0.02593 0.37049 0.0
C88 C 0.91995 0.03534 0.37151 0.0
C89 C 0.94039 0.00062 0.35187 0.0
O90 O 0.93525 0.99166 0.35476 0.0
O91 O 0.91139 0.02023 0.3439 0.0
O92 O 0.89806 0.02917 0.3526 0.0
O93 O 0.91991 0.00421 0.37566 0.0
O94 O 0.90449 0.01101 0.36927 0.0
C95 C 0.9036 0.02717 0.34401 0.0
C96 C 0.91005 0.00755 0.37744 0.0
O97 O 0.93523 0.00962 0.35184 0.0
Mg98 Mg 0.23901 0.16811 0.60858 0.0
O99 O 0.22236 0.17462 0.61418 0.0
O100 O 0.21228 0.16097 0.62086 0.0
Mg101 Mg 0.22169 0.14527 0.61756 0.0
C102 C 0.21367 0.17106 0.6187 0.0
C103 C 0.24736 0.19172 0.60825 0.0
O104 O 0.25048 0.18815 0.61785 0.0
O105 O 0.23112 0.16245 0.59262 0.0
O106 O 0.22046 0.14923 0.59942 0.0
O107 O 0.24435 0.16906 0.62596 0.0
O108 O 0.23704 0.15432 0.61863 0.0
C109 C 0.22386 0.15506 0.5915 0.0
C110 C 0.24023 0.15944 0.6272 0.0
O111 O 0.24266 0.18514 0.60174 0.0
Mg112 Mg 0.14266 0.08018 0.51079 0.0
O113 O 0.13822 0.07423 0.5282 0.0
O114 O 0.13256 0.0877 0.53934 0.0
Mg115 Mg 0.13565 0.10392 0.53053 0.0
C116 C 0.13444 0.07759 0.53736 0.0
C117 C 0.14299 0.05741 0.49918 0.0
O118 O 0.13537 0.06208 0.49325 0.0
O119 O 0.16066 0.08405 0.51613 0.0
O120 O 0.14865 0.09444 0.5231 0.0
O121 O 0.12467 0.08093 0.50741 0.0
O122 O 0.13341 0.09496 0.51457 0.0
C123 C 0.15852 0.09181 0.52257 0.0
C124 C 0.12433 0.09053 0.51177 0.0
O125 O 0.14771 0.06291 0.50658 0.0
Mg126 Mg 0.1685 0.38872 0.76196 0.0
O127 O 0.17413 0.38315 0.77871 0.0
O128 O 0.16043 0.37572 0.78807 0.0
Mg129 Mg 0.14532 0.37715 0.77699 0.0
C130 C 0.17044 0.37848 0.78723 0.0
C131 C 0.19051 0.39551 0.75145 0.0
O132 O 0.1858 0.39059 0.74317 0.0
O133 O 0.16042 0.40392 0.76952 0.0
O134 O 0.14615 0.39571 0.7775 0.0
O135 O 0.17145 0.37158 0.75628 0.0
O136 O 0.15558 0.37765 0.76233 0.0
C137 C 0.15147 0.40428 0.77491 0.0
C138 C 0.1615 0.36961 0.7592 0.0
O139 O 0.18513 0.39682 0.76022 0.0
Mg140 Mg 0.85703 0.41868 0.01057 0.0
O141 O 0.86046 0.42538 0.02793 0.0
O142 O 0.86392 0.41208 0.0402 0.0
Mg143 Mg 0.86294 0.39527 0.03175 0.0
C144 C 0.86284 0.42214 0.03758 0.0
C145 C 0.85688 0.44125 0.99853 0.0
O146 O 0.86529 0.43691 0.99351 0.0
O147 O 0.83906 0.41422 0.01533 0.0
O148 O 0.85154 0.40365 0.02112 0.0
O149 O 0.87515 0.41797 0.00775 0.0
O150 O 0.86643 0.40442 0.01587 0.0
C151 C 0.84156 0.40603 0.02107 0.0
C152 C 0.87553 0.40876 0.01289 0.0
O153 O 0.85161 0.43557 0.0054 0.0
Mg154 Mg 0.83081 0.10932 0.25989 0.0
O155 O 0.82476 0.11535 0.27653 0.0
O156 O 0.83823 0.1236 0.28564 0.0
Mg157 Mg 0.85364 0.12018 0.27578 0.0
C158 C 0.82828 0.12068 0.28475 0.0
C159 C 0.80852 0.1039 0.24937 0.0
O160 O 0.81302 0.10973 0.24158 0.0
O161 O 0.83757 0.09408 0.26811 0.0
O162 O 0.85049 0.10194 0.27837 0.0
O163 O 0.82847 0.1263 0.25388 0.0
O164 O 0.84403 0.12012 0.26064 0.0
C165 C 0.84499 0.09361 0.27539 0.0
C166 C 0.83824 0.12824 0.25738 0.0
O167 O 0.81412 0.10161 0.25778 0.0
Mg168 Mg 0.13854 0.91867 0.48774 0.0
O169 O 0.13281 0.9251 0.47119 0.0
O170 O 0.12966 0.91126 0.45976 0.0
Mg171 Mg 0.1332 0.89565 0.46937 0.0
C172 C 0.12996 0.92144 0.46189 0.0
C173 C 0.14627 0.94072 0.50002 0.0
O174 O 0.14806 0.93478 0.50876 0.0
O175 O 0.15552 0.91488 0.48068 0.0
O176 O 0.15102 0.90072 0.47001 0.0
O177 O 0.12102 0.91752 0.49264 0.0
O178 O 0.13025 0.90404 0.48501 0.0
C179 C 0.15803 0.90733 0.47395 0.0
C180 C 0.12104 0.9079 0.48826 0.0
O181 O 0.14304 0.9362 0.49129 0.0
Mg182 Mg 0.32957 0.39024 0.73612 0.0
O183 O 0.32399 0.38466 0.71927 0.0
O184 O 0.33825 0.37905 0.70942 0.0
Mg185 Mg 0.35345 0.38258 0.71972 0.0
C186 C 0.32802 0.38059 0.71058 0.0
C187 C 0.30734 0.39483 0.74784 0.0
O188 O 0.31271 0.39055 0.75607 0.0
O189 O 0.33507 0.40661 0.72895 0.0
O190 O 0.34974 0.40085 0.71965 0.0
O191 O 0.32916 0.37272 0.74134 0.0
O192 O 0.34378 0.38089 0.7347 0.0
C193 C 0.34334 0.40841 0.72287 0.0
C194 C 0.33908 0.37204 0.73776 0.0
O195 O 0.31225 0.39627 0.73882 0.0
Mg196 Mg 0.85963 0.58021 0.98759 0.0
O197 O 0.86551 0.57373 0.97123 0.0
O198 O 0.86924 0.58736 0.95972 0.0
Mg199 Mg 0.86555 0.60307 0.96918 0.0
C200 C 0.86869 0.57723 0.962 0.0
C201 C 0.85134 0.55798 -0.00062 0.0
O202 O 0.84897 0.56373 0.00811 0.0
O203 O 0.84288 0.58418 0.98028 0.0
O204 O 0.84759 0.59827 0.96959 0.0
O205 O 0.87706 0.58103 0.99252 0.0
O206 O 0.86811 0.59475 0.98493 0.0
C207 C 0.84051 0.59171 0.97349 0.0
C208 C 0.87723 0.59061 0.98807 0.0
O209 O 0.85501 0.56269 0.99093 0.0
Mg210 Mg 0.66909 0.10617 0.23694 0.0
O211 O 0.67472 0.11258 0.2201 0.0
O212 O 0.66104 0.11903 0.20973 0.0
Mg213 Mg 0.64533 0.11337 0.21801 0.0
C214 C 0.67118 0.11732 0.21149 0.0
C215 C 0.69159 0.10251 0.2496 0.0
O216 O 0.68583 0.10426 0.25847 0.0
O217 O 0.66657 0.08841 0.22993 0.0
O218 O 0.65526 0.09955 0.22291 0.0
O219 O 0.66723 0.12365 0.24234 0.0
O220 O 0.65371 0.11501 0.23428 0.0
C221 C 0.65878 0.08997 0.22335 0.0
C222 C 0.65758 0.12397 0.23811 0.0
O223 O 0.68688 0.10237 0.24038 0.0
Mg224 Mg 0.51225 0.13928 0.0794 0.0
O225 O 0.52831 0.13258 0.07279 0.0
O226 O 0.53934 0.12746 0.0863 0.0
Mg227 Mg 0.53034 0.1319 0.10204 0.0
C228 C 0.53726 0.12853 0.07617 0.0
C229 C 0.50037 0.14793 0.05752 0.0
O230 O 0.4917 0.14979 0.06355 0.0
O231 O 0.52058 0.1555 0.08355 0.0
O232 O 0.53157 0.14978 0.09701 0.0
O233 O 0.50632 0.1221 0.08019 0.0
O234 O 0.51434 0.13066 0.09393 0.0
C235 C 0.52802 0.15723 0.09065 0.0
C236 C 0.51054 0.12176 0.08987 0.0
O237 O 0.50903 0.14436 0.06192 0.0
Mg238 Mg 0.00936 0.85977 0.41851 0.0
O239 O 0.02606 0.86464 0.42478 0.0
O240 O 0.03691 0.87039 0.41136 0.0
Mg241 Mg 0.02649 0.86908 0.39582 0.0
C242 C 0.03516 0.86832 0.42141 0.0
C243 C 0.99782 0.8511 0.44024 0.0
O244 O 0.98861 0.85211 0.43485 0.0
O245 O 0.01651 0.84383 0.41181 0.0
O246 O 0.02605 0.85055 0.39771 0.0
O247 O 0.00452 0.87711 0.42065 0.0
O248 O 0.01122 0.87042 0.40526 0.0
C249 C 0.02259 0.84257 0.40344 0.0
C250 C 0.00835 0.87876 0.41095 0.0
O251 O 0.00682 0.85277 0.43539 0.0
Mg252 Mg 0.39052 0.26217 0.66742 0.0
O253 O 0.38631 0.27858 0.67517 0.0
O254 O 0.38372 0.29119 0.66227 0.0
Mg255 Mg 0.38624 0.28254 0.64589 0.0
C256 C 0.38405 0.28831 0.67227 0.0
C257 C 0.39037 0.2505 0.69022 0.0
O258 O 0.3817 0.24572 0.68612 0.0
O259 O 0.40786 0.26823 0.66365 0.0
O260 O 0.40392 0.2804 0.65067 0.0
O261 O 0.37259 0.25844 0.66675 0.0
O262 O 0.38162 0.26693 0.65364 0.0
C263 C 0.41072 0.27549 0.65677 0.0
C264 C 0.37241 0.26392 0.65773 0.0
O265 O 0.39596 0.25686 0.68426 0.0
Mg266 Mg 0.98873 0.63888 0.91697 0.0
O267 O 0.9727 0.63241 0.92379 0.0
O268 O 0.9627 0.62482 0.91058 0.0
Mg269 Mg 0.97229 0.62737 0.89481 0.0
C270 C 0.96416 0.62746 0.92055 0.0
C271 C -0.00048 0.64413 0.93918 0.0
O272 O 0.00726 0.63825 0.93466 0.0
O273 O 0.97964 0.65391 0.91036 0.0
O274 O 0.96974 0.64552 0.89751 0.0
O275 O 0.99526 0.62199 0.91903 0.0
O276 O 0.98774 0.62809 0.90381 0.0
C277 C 0.97239 0.65406 0.90286 0.0
C278 C 0.99144 0.62003 0.90939 0.0
O279 O 0.99115 0.6466 0.9336 0.0
Mg280 Mg 0.10786 0.7383 0.16759 0.0
O281 O 0.11255 0.72182 0.17494 0.0
O282 O 0.11804 0.71053 0.16175 0.0
Mg283 Mg 0.11611 0.71959 0.14553 0.0
C284 C 0.1162 0.7126 0.17179 0.0
C285 C 0.10799 0.74746 0.19083 0.0
O286 O 0.11757 0.75023 0.18694 0.0
O287 O 0.09151 0.73107 0.16183 0.0
O288 O 0.09777 0.7202 0.14849 0.0
O289 O 0.12558 0.74279 0.16836 0.0
O290 O 0.1179 0.73526 0.15395 0.0
C291 C 0.08999 0.7242 0.15412 0.0
C292 C 0.12659 0.73841 0.15885 0.0
O293 O 0.10117 0.74284 0.18452 0.0
Mg294 Mg 0.48596 0.85795 0.07893 0.0
O295 O 0.46985 0.86434 0.07215 0.0
O296 O 0.45947 0.87081 0.08563 0.0
Mg297 Mg 0.46908 0.86864 0.10144 0.0
C298 C 0.46111 0.8688 0.07556 0.0
C299 C 0.49796 0.85281 0.05709 0.0
O300 O 0.5059 0.85772 0.06237 0.0
O301 O 0.47768 0.84222 0.08548 0.0
O302 O 0.46896 0.85045 0.09924 0.0
O303 O 0.49224 0.87525 0.07801 0.0
O304 O 0.48456 0.86799 0.09257 0.0
C305 C 0.4717 0.84188 0.09404 0.0
C306 C 0.48846 0.87642 0.08781 0.0
O307 O 0.48902 0.85097 0.06201 0.0
Mg308 Mg 0.39206 0.23589 0.82889 0.0
O309 O 0.3855 0.21946 0.8221 0.0
O310 O 0.37726 0.20982 0.8353 0.0
Mg311 Mg 0.3869 0.21599 0.84984 0.0
C312 C 0.37942 0.2116 0.82528 0.0
C313 C 0.39828 0.24892 0.80687 0.0
O314 O 0.39875 0.2578 0.81286 0.0
O315 O 0.40913 0.22919 0.83312 0.0
O316 O 0.40075 0.21415 0.83775 0.0
O317 O 0.37462 0.2409 0.83084 0.0
O318 O 0.38421 0.2329 0.84386 0.0
C319 C 0.40936 0.21985 0.83765 0.0
C320 C 0.37493 0.23639 0.8404 0.0
O321 O 0.3964 0.23977 0.81134 0.0
Mg322 Mg 0.60916 0.26271 0.33005 0.0
O323 O 0.61554 0.27882 0.32323 0.0
O324 O 0.62033 0.29023 0.33656 0.0
Mg325 Mg 0.61533 0.28168 0.35236 0.0
C326 C 0.61948 0.28788 0.32646 0.0
C327 C 0.60434 0.24995 0.30761 0.0
O328 O 0.60679 0.24102 0.31301 0.0
O329 O 0.59258 0.2705 0.33367 0.0
O330 O 0.59745 0.28171 0.34727 0.0
O331 O 0.62651 0.25696 0.33181 0.0
O332 O 0.61734 0.26543 0.34477 0.0
C333 C 0.59032 0.27772 0.34083 0.0
C334 C 0.62643 0.26144 0.34138 0.0
O335 O 0.60428 0.25906 0.31254 0.0
Mg336 Mg 0.07948 0.01091 0.6378 0.0
O337 O 0.07412 0.02828 0.63351 0.0
O338 O 0.08827 0.038 0.62741 0.0
Mg339 Mg 0.10323 0.02709 0.62958 0.0
C340 C 0.07814 0.03707 0.62965 0.0
C341 C 0.05715 -0.00023 0.64322 0.0
O342 O 0.06193 0.99148 0.63839 0.0
O343 O 0.08603 0.01714 0.65409 0.0
O344 O 0.09998 0.02726 0.64798 0.0
O345 O 0.07754 0.0067 0.6202 0.0
O346 O 0.09303 0.01245 0.62748 0.0
C347 C 0.09402 0.02362 0.6557 0.0
C348 C 0.08748 0.01001 0.61891 0.0
O349 O 0.0625 0.00851 0.64474 0.0
Mg350 Mg 0.73704 0.82945 0.88971 0.0
O351 O 0.72063 0.82324 0.88398 0.0
O352 O 0.70968 0.83688 0.87902 0.0
Mg353 Mg 0.71969 0.85251 0.88177 0.0
C354 C 0.71158 0.82672 0.88032 0.0
C355 C 0.74826 0.80736 0.89839 0.0
O356 O 0.75744 0.81286 0.89889 0.0
O357 O 0.72957 0.8349 0.90596 0.0
O358 O 0.71986 0.84925 0.90006 0.0
O359 O 0.74219 0.82892 0.87228 0.0
O360 O 0.73519 0.84352 0.8803 0.0
C361 C 0.72329 0.84304 0.90767 0.0
C362 C 0.73831 0.83872 0.87152 0.0
O363 O 0.73953 0.81218 0.89564 0.0
Mg364 Mg 0.91793 0.4878 0.13864 0.0
O365 O 0.92401 0.47124 0.13322 0.0
O366 O 0.91051 0.46033 0.12784 0.0
Mg367 Mg 0.89491 0.47051 0.13027 0.0
C368 C 0.92062 0.4622 0.12944 0.0
C369 C 0.94003 0.49869 0.14834 0.0
O370 O 0.93441 0.50767 0.15002 0.0
O371 O 0.91185 0.48066 0.15492 0.0
O372 O 0.89763 0.47099 0.14864 0.0
O373 O 0.91886 0.49268 0.1211 0.0
O374 O 0.90404 0.48596 0.12892 0.0
C375 C 0.90357 0.47449 0.15643 0.0
C376 C 0.90903 0.4889 0.12019 0.0
O377 O 0.93528 0.49025 0.14469 0.0
Mg378 Mg 0.26166 0.66982 0.3892 0.0
O379 O 0.2784 0.67585 0.38373 0.0
O380 O 0.28852 0.66213 0.37717 0.0
Mg381 Mg 0.27818 0.64672 0.37909 0.0
C382 C 0.28719 0.67216 0.3796 0.0
C383 C 0.24993 0.69203 0.39468 0.0
O384 O 0.24155 0.68673 0.39061 0.0
O385 O 0.26958 0.66334 0.40512 0.0
O386 O 0.27919 0.65006 0.3971 0.0
O387 O 0.25636 0.67126 0.37172 0.0
O388 O 0.26303 0.65616 0.37888 0.0
C389 C 0.27645 0.65548 0.40552 0.0
C390 C 0.25991 0.66141 0.3704 0.0
O391 O 0.25895 0.68704 0.39592 0.0
Mg392 Mg 0.08031 0.98668 0.35624 0.0
O393 O 0.0737 0.97008 0.36246 0.0
O394 O 0.08708 0.96042 0.37029 0.0
Mg395 Mg 0.10164 0.96725 0.36121 0.0
C396 C 0.07699 0.96206 0.36829 0.0
C397 C 0.05752 0.99825 0.35562 0.0
O398 O 0.0625 0.00482 0.36248 0.0
O399 O 0.08509 0.98034 0.33924 0.0
O400 O 0.09001 0.96496 0.34692 0.0
O401 O 0.08167 0.99132 0.37381 0.0
O402 O 0.09508 0.98382 0.36435 0.0
C403 C 0.08942 0.97094 0.33851 0.0
C404 C 0.09128 0.9869 0.37364 0.0
O405 O 0.06286 0.99052 0.35123 0.0
Mg406 Mg 0.76107 0.83082 0.60596 0.0
O407 O 0.77812 0.82381 0.60975 0.0
O408 O 0.79136 0.8364 0.61211 0.0
Mg409 Mg 0.7835 0.85334 0.60956 0.0
C410 C 0.788 0.8265 0.61184 0.0
C411 C 0.74802 0.80805 0.60598 0.0
O412 O 0.74131 0.81276 0.61288 0.0
O413 O 0.76547 0.83367 0.58738 0.0
O414 O 0.77317 0.84409 0.59887 0.0
O415 O 0.75878 0.83273 0.62406 0.0
O416 O 0.76723 0.84543 0.61441 0.0
C417 C 0.77232 0.84117 0.58912 0.0
C418 C 0.76441 0.84166 0.62383 0.0
O419 O 0.75578 0.81353 0.60185 0.0
Mg420 Mg 0.91986 0.51186 0.85727 0.0
O421 O 0.92518 0.52899 0.863 0.0
O422 O 0.91138 0.53873 0.87014 0.0
Mg423 Mg 0.89568 0.52981 0.86543 0.0
C424 C 0.9215 0.53746 0.86789 0.0
C425 C 0.9427 0.50009 0.85405 0.0
O426 O 0.93754 0.49158 0.85803 0.0
O427 O 0.91629 0.51843 0.83968 0.0
O428 O 0.90493 0.52554 0.85087 0.0
O429 O 0.91905 0.50725 0.87502 0.0
O430 O 0.90478 0.51405 0.86647 0.0
C431 C 0.9085 0.52501 0.84131 0.0
C432 C 0.90922 0.51107 0.87545 0.0
O433 O 0.93752 0.50893 0.85252 0.0
Mg434 Mg 0.23851 0.66929 0.11068 0.0
O435 O 0.22159 0.67481 0.11604 0.0
O436 O 0.21128 0.66084 0.12145 0.0
Mg437 Mg 0.22153 0.64565 0.11776 0.0
C438 C 0.21271 0.67104 0.11992 0.0
C439 C 0.24845 0.69136 0.09976 0.0
O440 O 0.25608 0.68534 0.09523 0.0
O441 O 0.23146 0.66423 0.09409 0.0
O442 O 0.22107 0.65027 0.09972 0.0
O443 O 0.2432 0.66959 0.12821 0.0
O444 O 0.23675 0.65496 0.11981 0.0
C445 C 0.22463 0.65658 0.09224 0.0
C446 C 0.23945 0.65974 0.12876 0.0
O447 O 0.24108 0.68688 0.10549 0.0
Mg448 Mg 0.1428 0.58074 0.01137 0.0
O449 O 0.13639 0.57264 0.02727 0.0
O450 O 0.12797 0.58508 0.03778 0.0
Mg451 Mg 0.13557 0.60077 0.03171 0.0
C452 C 0.1305 0.57521 0.03551 0.0
C453 C 0.14226 0.55804 0.00094 0.0
O454 O 0.13301 0.5624 0.99778 0.0
O455 O 0.15941 0.58624 0.01873 0.0
O456 O 0.15013 0.5896 0.03357 0.0
O457 O 0.12518 0.58143 0.00636 0.0
O458 O 0.13366 0.59488 0.01481 0.0
C459 C 0.15894 0.59036 0.02826 0.0
C460 C 0.12472 0.59079 0.01121 0.0
O461 O 0.14893 0.56385 0.00636 0.0
Mg462 Mg 0.16945 0.88919 0.26082 0.0
O463 O 0.17517 0.88306 0.27751 0.0
O464 O 0.16133 0.87523 0.28647 0.0
Mg465 Mg 0.14608 0.87971 0.27675 0.0
C466 C 0.17139 0.87776 0.28562 0.0
C467 C 0.19143 0.89712 0.24982 0.0
O468 O 0.18608 0.89545 0.24068 0.0
O469 O 0.16336 0.90488 0.26873 0.0
O470 O 0.14999 0.8979 0.27906 0.0
O471 O 0.17087 0.87202 0.25506 0.0
O472 O 0.15564 0.87919 0.26161 0.0
C473 C 0.1559 0.90589 0.27592 0.0
C474 C 0.16098 0.8707 0.25852 0.0
O475 O 0.18655 0.89588 0.25887 0.0
Mg476 Mg 0.85742 0.91798 0.51147 0.0
O477 O 0.86108 0.92434 0.52877 0.0
O478 O 0.86364 0.91151 0.54167 0.0
Mg479 Mg 0.86136 0.8948 0.53322 0.0
C480 C 0.86321 0.9215 0.53859 0.0
C481 C 0.8556 0.94069 0.49805 0.0
O482 O 0.85993 0.93552 0.48972 0.0
O483 O 0.83892 0.91499 0.51593 0.0
O484 O 0.85042 0.90428 0.52323 0.0
O485 O 0.87551 0.91609 0.50902 0.0
O486 O 0.86585 0.90317 0.5171 0.0
C487 C 0.84066 0.9073 0.52258 0.0
C488 C 0.87525 0.90696 0.51429 0.0
O489 O 0.85359 0.93554 0.50681 0.0
Mg490 Mg 0.83103 0.60864 0.75995 0.0
O491 O 0.82407 0.6152 0.77594 0.0
O492 O 0.83747 0.62168 0.78653 0.0
Mg493 Mg 0.8534 0.61855 0.77737 0.0
C494 C 0.82742 0.61971 0.78469 0.0
C495 C 0.80829 0.60624 0.74925 0.0
O496 O 0.81262 0.61381 0.74302 0.0
O497 O 0.83644 0.59307 0.7689 0.0
O498 O 0.84945 0.60067 0.77927 0.0
O499 O 0.83043 0.62583 0.75381 0.0
O500 O 0.84484 0.6184 0.76171 0.0
C501 C 0.84373 0.5925 0.77634 0.0
C502 C 0.84006 0.62693 0.758 0.0
O503 O 0.8141 0.60187 0.75663 0.0
Mg504 Mg 0.14351 0.41814 0.9892 0.0
O505 O 0.13905 0.42529 0.9722 0.0
O506 O 0.13414 0.41237 0.96007 0.0
Mg507 Mg 0.13719 0.39563 0.96775 0.0
C508 C 0.13563 0.42238 0.96274 0.0
C509 C 0.13993 0.44197 0.99567 0.0
O510 O 0.13009 0.43844 0.9933 0.0
O511 O 0.16169 0.41494 0.98359 0.0
O512 O 0.14986 0.40487 0.97593 0.0
O513 O 0.12555 0.41663 0.99261 0.0
O514 O 0.13442 0.40347 0.98418 0.0
C515 C 0.1597 0.40752 0.9767 0.0
C516 C 0.12527 0.4075 0.98738 0.0
O517 O 0.14788 0.43533 0.9951 0.0
Mg518 Mg 0.33047 0.88928 0.23777 0.0
O519 O 0.32485 0.88387 0.22082 0.0
O520 O 0.339 0.87728 0.21141 0.0
Mg521 Mg 0.35418 0.88061 0.22178 0.0
C522 C 0.32883 0.87934 0.21234 0.0
C523 C 0.30802 0.89321 0.24854 0.0
O524 O 0.31265 0.88682 0.2558 0.0
O525 O 0.33673 0.90529 0.23072 0.0
O526 O 0.351 0.89906 0.22109 0.0
O527 O 0.32894 0.87188 0.24277 0.0
O528 O 0.34422 0.8793 0.23662 0.0
C529 C 0.34485 0.90681 0.22439 0.0
C530 C 0.33887 0.87071 0.23937 0.0
O531 O 0.31351 0.89623 0.24029 0.0
Mg532 Mg 0.85889 0.07991 0.48563 0.0
O533 O 0.86543 0.07402 0.46921 0.0
O534 O 0.87405 0.08762 0.4607 0.0
Mg535 Mg 0.87098 0.10308 0.4708 0.0
C536 C 0.87109 0.07766 0.46129 0.0
C537 C 0.85288 0.05785 0.49639 0.0
O538 O 0.85765 0.06293 0.50454 0.0
O539 O 0.84378 0.0875 0.47717 0.0
O540 O 0.85265 0.10136 0.46927 0.0
O541 O 0.87599 0.07778 0.49214 0.0
O542 O 0.86956 0.09324 0.48557 0.0
C543 C 0.84385 0.09623 0.47143 0.0
C544 C 0.87771 0.08773 0.48907 0.0
O545 O 0.85132 0.063 0.48752 0.0
Mg546 Mg 0.66911 0.6067 0.73731 0.0
O547 O 0.67516 0.61202 0.72034 0.0
O548 O 0.66178 0.6195 0.71023 0.0
Mg549 Mg 0.64576 0.61458 0.7184 0.0
C550 C 0.6718 0.61706 0.71186 0.0
C551 C 0.69138 0.60131 0.75001 0.0
O552 O 0.68558 0.60148 0.75902 0.0
O553 O 0.66572 0.58892 0.73094 0.0
O554 O 0.65467 0.59994 0.72315 0.0
O555 O 0.66843 0.62457 0.74144 0.0
O556 O 0.65423 0.61612 0.73439 0.0
C557 C 0.65812 0.59035 0.72409 0.0
C558 C 0.65882 0.62511 0.73717 0.0
O559 O 0.68672 0.60249 0.74085 0.0
Mg560 Mg 0.51283 0.64088 0.58064 0.0
O561 O 0.52793 0.63322 0.57256 0.0
O562 O 0.53952 0.62737 0.58534 0.0
Mg563 Mg 0.53264 0.63283 0.60169 0.0
C564 C 0.53678 0.6285 0.57537 0.0
C565 C 0.50385 0.63934 0.55717 0.0
O566 O 0.50264 0.62931 0.56073 0.0
O567 O 0.52237 0.65669 0.5837 0.0
O568 O 0.53417 0.65049 0.59619 0.0
O569 O 0.50567 0.62406 0.58293 0.0
O570 O 0.51596 0.63234 0.5951 0.0
C571 C 0.53048 0.65808 0.59009 0.0
C572 C 0.51088 0.62369 0.5921 0.0
O573 O 0.50761 0.64653 0.56364 0.0
Mg574 Mg 0.01185 0.35856 0.91859 0.0
O575 O 0.02793 0.36401 0.92612 0.0
O576 O 0.03925 0.36965 0.91301 0.0
Mg577 Mg 0.03019 0.36823 0.89678 0.0
C578 C 0.03707 0.36783 0.92302 0.0
C579 C 0.00043 0.3558 0.94107 0.0
O580 O 0.99434 0.36352 0.93679 0.0
O581 O 0.01954 0.34247 0.91219 0.0
O582 O 0.02928 0.35005 0.89871 0.0
O583 O 0.00657 0.37628 0.91921 0.0
O584 O 0.01436 0.36844 0.90503 0.0
C585 C 0.02583 0.34172 0.90387 0.0
C586 C 0.01074 0.37711 0.90954 0.0
O587 O 0.00789 0.3515 0.9353 0.0
Mg588 Mg 0.38952 0.76131 0.16768 0.0
O589 O 0.38378 0.77783 0.1741 0.0
O590 O 0.379 0.78889 0.16049 0.0
Mg591 Mg 0.38326 0.77964 0.1449 0.0
C592 C 0.38005 0.7869 0.17064 0.0
C593 C 0.39463 0.7489 0.18999 0.0
O594 O 0.39176 0.74004 0.18468 0.0
O595 O 0.40613 0.76856 0.16348 0.0
O596 O 0.40118 0.77978 0.14993 0.0
O597 O 0.37203 0.75617 0.16694 0.0
O598 O 0.38088 0.76384 0.15323 0.0
C599 C 0.40834 0.77579 0.15633 0.0
C600 C 0.37181 0.76048 0.1573 0.0
O601 O 0.39484 0.75798 0.18503 0.0
Mg602 Mg 0.98765 0.13904 0.41866 0.0
O603 O 0.97094 0.13377 0.42525 0.0
O604 O 0.96128 0.12613 0.41178 0.0
Mg605 Mg 0.97055 0.12956 0.396 0.0
C606 C 0.96251 0.12877 0.42176 0.0
C607 C 0.99854 0.14222 0.44115 0.0
O608 O 0.00475 0.13463 0.43683 0.0
O609 O 0.98024 0.1549 0.41223 0.0
O610 O 0.96946 0.14791 0.39922 0.0
O611 O 0.99271 0.12153 0.42013 0.0
O612 O 0.9859 0.12883 0.40512 0.0
C613 C 0.97306 0.15596 0.40476 0.0
C614 C 0.98891 0.12028 0.41036 0.0
O615 O 0.99093 0.14632 0.43542 0.0
Mg616 Mg 0.11043 0.23797 0.66779 0.0
O617 O 0.11518 0.22122 0.67461 0.0
O618 O 0.12266 0.21126 0.66128 0.0
Mg619 Mg 0.12084 0.22101 0.64539 0.0
C620 C 0.11987 0.21257 0.67124 0.0
C621 C 0.1076 0.24844 0.69015 0.0
O622 O 0.11602 0.25359 0.68598 0.0
O623 O 0.0948 0.23064 0.66054 0.0
O624 O 0.10219 0.22101 0.64684 0.0
O625 O 0.12785 0.24291 0.67023 0.0
O626 O 0.12147 0.23617 0.6548 0.0
C627 C 0.09395 0.22442 0.65221 0.0
C628 C 0.12969 0.23921 0.66054 0.0
O629 O 0.1025 0.24158 0.68426 0.0
Mg630 Mg 0.48558 0.35448 0.57972 0.0
O631 O 0.47061 0.36217 0.57043 0.0
O632 O 0.45905 0.36953 0.5826 0.0
Mg633 Mg 0.46216 0.35836 0.59691 0.0
C634 C 0.46245 0.36828 0.57283 0.0
C635 C 0.49433 0.35907 0.55709 0.0
O636 O 0.49202 0.36877 0.56102 0.0
O637 O 0.4783 0.33711 0.58132 0.0
O638 O 0.46329 0.3461 0.58327 0.0
O639 O 0.49067 0.37147 0.58379 0.0
O640 O 0.4799 0.36167 0.59445 0.0
C641 C 0.46838 0.33722 0.58429 0.0
C642 C 0.48435 0.37095 0.59223 0.0
O643 O 0.49305 0.35078 0.56318 0.0
Mg644 Mg 0.39285 0.73742 0.3299 0.0
O645 O 0.38768 0.71999 0.32479 0.0
O646 O 0.38189 0.70963 0.33879 0.0
Mg647 Mg 0.38604 0.71893 0.35445 0.0
C648 C 0.38359 0.71114 0.32858 0.0
C649 C 0.39445 0.74905 0.30695 0.0
O650 O 0.3894 0.75701 0.31206 0.0
O651 O 0.41087 0.7317 0.33332 0.0
O652 O 0.3993 0.72496 0.34437 0.0
O653 O 0.37501 0.74136 0.33097 0.0
O654 O 0.38389 0.73464 0.34511 0.0
C655 C 0.40903 0.7254 0.34127 0.0
C656 C 0.37477 0.73741 0.34075 0.0
O657 O 0.3972 0.74057 0.31221 0.0
Mg658 Mg 0.60627 0.76206 0.8303 0.0
O659 O 0.61317 0.77795 0.8222 0.0
O660 O 0.62046 0.78887 0.83494 0.0
Mg661 Mg 0.611 0.78352 0.8498 0.0
C662 C 0.61881 0.78633 0.82496 0.0
C663 C 0.60962 0.75572 0.8066 0.0
O664 O 0.61945 0.75807 0.81016 0.0
O665 O 0.58909 0.76912 0.83392 0.0
O666 O 0.59768 0.78432 0.83709 0.0
O667 O 0.62362 0.75697 0.83283 0.0
O668 O 0.61414 0.76632 0.84499 0.0
C669 C 0.58898 0.77882 0.83759 0.0
C670 C 0.62338 0.7624 0.84189 0.0
O671 O 0.60167 0.75617 0.81325 0.0
Mg672 Mg 0.58132 0.51249 0.63938 0.0
O673 O 0.57362 0.52825 0.63316 0.0
O674 O 0.58634 0.54036 0.62835 0.0
Mg675 Mg 0.60265 0.53228 0.63223 0.0
C676 C 0.57638 0.53754 0.62939 0.0
C677 C 0.55859 0.50057 0.64085 0.0
O678 O 0.56294 0.49438 0.63325 0.0
O679 O 0.58522 0.52064 0.65575 0.0
O680 O 0.59787 0.53258 0.65014 0.0
O681 O 0.58235 0.50688 0.62199 0.0
O682 O 0.59544 0.51585 0.63052 0.0
C683 C 0.59189 0.52843 0.65757 0.0
C684 C 0.59165 0.51188 0.62159 0.0
O685 O 0.56432 0.508 0.64524 0.0
Mg686 Mg 0.23855 0.32928 0.89021 0.0
O687 O 0.22195 0.32279 0.88492 0.0
O688 O 0.21139 0.33642 0.87906 0.0
Mg689 Mg 0.22112 0.35213 0.88155 0.0
C690 C 0.213 0.32631 0.881 0.0
C691 C 0.2508 0.30775 0.89892 0.0
O692 O 0.25958 0.31386 0.89947 0.0
O693 O 0.23089 0.33509 0.90641 0.0
O694 O 0.22045 0.34855 0.89971 0.0
O695 O 0.24349 0.32833 0.87267 0.0
O696 O 0.23652 0.3431 0.88034 0.0
C697 C 0.22388 0.34274 0.90763 0.0
C698 C 0.23952 0.33806 0.87166 0.0
O699 O 0.24172 0.31202 0.8963 0.0
Mg700 Mg 0.41874 0.98676 0.13926 0.0
O701 O 0.42619 0.9706 0.13407 0.0
O702 O 0.41387 0.9609 0.12474 0.0
Mg703 Mg 0.39751 0.96977 0.12638 0.0
C704 C 0.42347 0.96227 0.12852 0.0
C705 C 0.44055 0.9983 0.14448 0.0
O706 O 0.43597 0.00516 0.13763 0.0
O707 O 0.41084 0.9783 0.15423 0.0
O708 O 0.39847 0.96882 0.14478 0.0
O709 O 0.4214 0.99251 0.12188 0.0
O710 O 0.40606 0.98527 0.12782 0.0
C711 C 0.40279 0.97163 0.15381 0.0
C712 C 0.41173 0.98882 0.11982 0.0
O713 O 0.4351 0.99005 0.14767 0.0
Mg714 Mg 0.75939 0.16837 0.38842 0.0
O715 O 0.77607 0.17478 0.38351 0.0
O716 O 0.78712 0.16106 0.37887 0.0
Mg717 Mg 0.77719 0.14536 0.38115 0.0
C718 C 0.78524 0.17122 0.38017 0.0
C719 C 0.74864 0.19149 0.39088 0.0
O720 O 0.74191 0.18734 0.38363 0.0
O721 O 0.76614 0.16274 0.40498 0.0
O722 O 0.77645 0.14868 0.39942 0.0
O723 O 0.75512 0.16905 0.37068 0.0
O724 O 0.76187 0.15446 0.37886 0.0
C725 C 0.77255 0.15475 0.40691 0.0
C726 C 0.75923 0.15934 0.36997 0.0
O727 O 0.75612 0.1855 0.39483 0.0
Mg728 Mg 0.57978 0.48637 0.35659 0.0
O729 O 0.57219 0.47016 0.36345 0.0
O730 O 0.58529 0.45931 0.37022 0.0
Mg731 Mg 0.59999 0.46528 0.36087 0.0
C732 C 0.57524 0.4617 0.36882 0.0
C733 C 0.5558 0.49173 0.36009 0.0
O734 O 0.55921 0.48854 0.36974 0.0
O735 O 0.58325 0.47969 0.33921 0.0
O736 O 0.58726 0.46461 0.34761 0.0
O737 O 0.5826 0.49146 0.37392 0.0
O738 O 0.59474 0.48235 0.36419 0.0
C739 C 0.58754 0.47025 0.33899 0.0
C740 C 0.59182 0.48631 0.37347 0.0
O741 O 0.5626 0.49214 0.35227 0.0
Mg742 Mg 0.25845 0.33041 0.60872 0.0
O743 O 0.27492 0.32323 0.61361 0.0
O744 O 0.2861 0.33641 0.61937 0.0
Mg745 Mg 0.27686 0.35249 0.6172 0.0
C746 C 0.28406 0.32637 0.61746 0.0
C747 C 0.24868 0.30735 0.60761 0.0
O748 O 0.24464 0.31116 0.61676 0.0
O749 O 0.26575 0.33627 0.59255 0.0
O750 O 0.27673 0.34949 0.59881 0.0
O751 O 0.25382 0.32918 0.62629 0.0
O752 O 0.26122 0.34389 0.61895 0.0
C753 C 0.27275 0.34383 0.59104 0.0
C754 C 0.25818 0.3387 0.62753 0.0
O755 O 0.25437 0.31365 0.60166 0.0
Mg756 Mg 0.4174 0.01127 0.85826 0.0
O757 O 0.42336 0.02773 0.8647 0.0
O758 O 0.40962 0.037 0.87226 0.0
Mg759 Mg 0.39423 0.02718 0.86853 0.0
C760 C 0.4197 0.03602 0.86982 0.0
C761 C 0.44011 0.001 0.85463 0.0
O762 O 0.43556 0.99387 0.86122 0.0
O763 O 0.41115 0.01978 0.84281 0.0
O764 O 0.39782 0.02971 0.85044 0.0
O765 O 0.41894 0.00512 0.87533 0.0
O766 O 0.40374 0.01204 0.86852 0.0
C767 C 0.40358 0.02693 0.84223 0.0
C768 C 0.40912 0.00867 0.87686 0.0
O769 O 0.43443 0.00897 0.8512 0.0
Mg770 Mg 0.7372 0.16932 0.10989 0.0
O771 O 0.72063 0.17518 0.11589 0.0
O772 O 0.71032 0.16136 0.12178 0.0
Mg773 Mg 0.72059 0.14605 0.11878 0.0
C774 C 0.71182 0.17151 0.12 0.0
C775 C 0.74822 0.19126 0.10084 0.0
O776 O 0.75733 0.18563 0.10047 0.0
O777 O 0.72936 0.16353 0.09392 0.0
O778 O 0.71934 0.14977 0.10061 0.0
O779 O 0.74273 0.17049 0.12712 0.0
O780 O 0.73588 0.15546 0.11977 0.0
C781 C 0.72251 0.15577 0.09272 0.0
C782 C 0.73903 0.16067 0.12832 0.0
O783 O 0.7394 0.18657 0.1036 0.0
Mg784 Mg 0.64245 0.08059 0.01065 0.0
O785 O 0.63579 0.07451 0.02741 0.0
O786 O 0.62946 0.08819 0.03792 0.0
Mg787 Mg 0.63434 0.10426 0.02976 0.0
C788 C 0.63108 0.07802 0.0361 0.0
C789 C 0.63915 0.05642 0.00518 0.0
O790 O 0.62917 0.05994 0.00682 0.0
O791 O 0.65998 0.08354 0.01796 0.0
O792 O 0.64814 0.09445 0.02444 0.0
O793 O 0.62509 0.08223 0.0051 0.0
O794 O 0.63336 0.09574 0.01357 0.0
C795 C 0.6579 0.0914 0.02432 0.0
C796 C 0.62452 0.09171 0.00966 0.0
O797 O 0.64702 0.06311 0.00608 0.0
Mg798 Mg 0.66827 0.39022 0.25994 0.0
O799 O 0.67368 0.38398 0.27663 0.0
O800 O 0.65971 0.37654 0.28565 0.0
Mg801 Mg 0.64462 0.38083 0.27554 0.0
C802 C 0.66982 0.3789 0.28483 0.0
C803 C 0.69062 0.39707 0.24929 0.0
O804 O 0.6855 0.39461 0.2402 0.0
O805 O 0.6622 0.40588 0.2679 0.0
O806 O 0.64839 0.39905 0.27778 0.0
O807 O 0.66969 0.37313 0.25406 0.0
O808 O 0.6544 0.38029 0.26052 0.0
C809 C 0.65448 0.40697 0.27481 0.0
C810 C 0.65977 0.37181 0.25744 0.0
O811 O 0.68547 0.39676 0.25827 0.0
Mg812 Mg 0.357 0.41908 0.51026 0.0
O813 O 0.36333 0.42637 0.52645 0.0
O814 O 0.37296 0.41394 0.53587 0.0
Mg815 Mg 0.36604 0.39821 0.52907 0.0
C816 C 0.36969 0.4237 0.53427 0.0
C817 C 0.35656 0.44249 0.50144 0.0
O818 O 0.36598 0.43864 0.4981 0.0
O819 O 0.34108 0.41241 0.51789 0.0
O820 O 0.35034 0.40746 0.53252 0.0
O821 O 0.37446 0.41953 0.50476 0.0
O822 O 0.36683 0.40523 0.51257 0.0
C823 C 0.34154 0.40752 0.52707 0.0
C824 C 0.37548 0.40994 0.50902 0.0
O825 O 0.35007 0.4361 0.50643 0.0
Mg826 Mg 0.32887 0.10651 0.75889 0.0
O827 O 0.32398 0.11214 0.77619 0.0
O828 O 0.33799 0.11715 0.78699 0.0
Mg829 Mg 0.3536 0.11299 0.77755 0.0
C830 C 0.32777 0.11592 0.78516 0.0
C831 C 0.30606 0.10167 0.74687 0.0
O832 O 0.31173 0.10172 0.73777 0.0
O833 O 0.33206 0.08848 0.76488 0.0
O834 O 0.34327 0.10016 0.7711 0.0
O835 O 0.3301 0.12418 0.75481 0.0
O836 O 0.34419 0.11539 0.76181 0.0
C837 C 0.34012 0.09043 0.77101 0.0
C838 C 0.33975 0.1245 0.75906 0.0
O839 O 0.31091 0.10285 0.75594 0.0
Mg840 Mg 0.64067 0.9179 0.98735 0.0
O841 O 0.63463 0.92637 0.97181 0.0
O842 O 0.62914 0.91375 0.95982 0.0
Mg843 Mg 0.63329 0.89723 0.96672 0.0
C844 C 0.63037 0.92362 0.96273 0.0
C845 C 0.63952 0.94078 0.99768 0.0
O846 O 0.62977 0.93682 -0.00032 0.0
O847 O 0.65719 0.91376 0.97955 0.0
O848 O 0.65111 0.90172 0.96727 0.0
O849 O 0.62305 0.91652 0.9924 0.0
O850 O 0.63196 0.90379 0.98332 0.0
C851 C 0.65881 0.90716 0.97165 0.0
C852 C 0.62291 0.90737 0.98713 0.0
O853 O 0.64653 0.93467 0.99309 0.0
Mg854 Mg 0.83003 0.39032 0.2381 0.0
O855 O 0.82347 0.38486 0.22161 0.0
O856 O 0.83721 0.37985 0.21072 0.0
Mg857 Mg 0.85291 0.38184 0.22069 0.0
C858 C 0.82706 0.38129 0.21254 0.0
C859 C 0.80751 0.39354 0.24935 0.0
O860 O 0.81202 0.38661 0.25619 0.0
O861 O 0.83609 0.40649 0.23074 0.0
O862 O 0.85039 0.40023 0.22118 0.0
O863 O 0.82887 0.37286 0.24317 0.0
O864 O 0.84365 0.38031 0.23598 0.0
C865 C 0.84441 0.40801 0.22464 0.0
C866 C 0.83852 0.37168 0.23903 0.0
O867 O 0.81313 0.39718 0.24144 0.0
Mg868 Mg 0.35864 0.58208 0.48696 0.0
O869 O 0.36513 0.57416 0.47136 0.0
O870 O 0.37036 0.58694 0.45943 0.0
Mg871 Mg 0.36674 0.60338 0.46729 0.0
C872 C 0.36908 0.57698 0.46217 0.0
C873 C 0.36021 0.55797 0.49307 0.0
O874 O 0.37035 0.56092 0.49122 0.0
O875 O 0.34253 0.58597 0.47805 0.0
O876 O 0.34894 0.59854 0.46643 0.0
O877 O 0.37592 0.58305 0.493 0.0
O878 O 0.36784 0.59608 0.48359 0.0
C879 C 0.34121 0.59265 0.47014 0.0
C880 C 0.37662 0.59218 0.48776 0.0
O881 O 0.35272 0.56512 0.49221 0.0
Mg882 Mg 0.16683 0.10862 0.73563 0.0
O883 O 0.17388 0.11574 0.71993 0.0
O884 O 0.16093 0.12485 0.71094 0.0
Mg885 Mg 0.14479 0.1211 0.71953 0.0
C886 C 0.17081 0.12178 0.71206 0.0
C887 C 0.189 0.10421 0.74666 0.0
O888 O 0.18424 0.11084 0.75361 0.0
O889 O 0.16016 0.09388 0.72589 0.0
O890 O 0.14738 0.10303 0.71667 0.0
O891 O 0.16827 0.12557 0.74279 0.0
O892 O 0.15342 0.11918 0.73494 0.0
C893 C 0.15245 0.09421 0.71884 0.0
C894 C 0.15856 0.12729 0.73905 0.0
O895 O 0.18362 0.10094 0.73841 0.0
Mg896 Mg 0.0114 0.13906 0.57945 0.0
O897 O 0.02812 0.13384 0.57351 0.0
O898 O 0.03831 0.12766 0.58728 0.0
Mg899 Mg 0.02739 0.12856 0.60252 0.0
C900 C 0.03699 0.12994 0.57721 0.0
C901 C 0.00034 0.14794 0.55774 0.0
O902 O 0.99117 0.1463 0.56304 0.0
O903 O 0.01869 0.15471 0.58705 0.0
O904 O 0.02711 0.14707 0.60137 0.0
O905 O 0.00632 0.12174 0.57682 0.0
O906 O 0.0125 0.12811 0.59253 0.0
C907 C 0.02417 0.15543 0.59591 0.0
C908 C 0.00968 0.1199 0.58665 0.0
O909 O 0.00938 0.14658 0.56262 0.0
Mg910 Mg 0.51057 0.85934 0.91767 0.0
O911 O 0.52697 0.86543 0.92393 0.0
O912 O 0.5376 0.87075 0.91008 0.0
Mg913 Mg 0.52777 0.86748 0.8946 0.0
C914 C 0.53585 0.86937 0.92024 0.0
C915 C 0.4994 0.85473 0.94033 0.0
O916 O 0.49118 0.85989 0.93578 0.0
O917 O 0.51836 0.84328 0.91221 0.0
O918 O 0.52888 0.8493 0.89852 0.0
O919 O 0.50512 0.87664 0.91844 0.0
O920 O 0.51233 0.86894 0.90376 0.0
C921 C 0.52539 0.84169 0.90469 0.0
C922 C 0.50921 0.87764 0.90875 0.0
O923 O 0.50791 0.85282 0.93475 0.0
Mg924 Mg 0.89121 0.26139 0.16899 0.0
O925 O 0.88459 0.27787 0.17548 0.0
O926 O 0.8751 0.28647 0.16241 0.0
Mg927 Mg 0.88436 0.28019 0.14763 0.0
C928 C 0.87794 0.28527 0.17236 0.0
C929 C 0.89811 0.24916 0.19107 0.0
O930 O 0.89835 0.24021 0.18518 0.0
O931 O 0.90783 0.2685 0.16374 0.0
O932 O 0.8988 0.28314 0.15888 0.0
O933 O 0.87379 0.2561 0.16824 0.0
O934 O 0.88258 0.26354 0.15434 0.0
C935 C 0.90761 0.27774 0.15901 0.0
C936 C 0.87352 0.26027 0.15853 0.0
O937 O 0.89626 0.25827 0.18651 0.0
Mg938 Mg 0.48883 0.64024 0.41763 0.0
O939 O 0.47286 0.63381 0.42491 0.0
O940 O 0.46156 0.62827 0.41171 0.0
Mg941 Mg 0.47013 0.63193 0.3956 0.0
C942 C 0.46385 0.6297 0.42176 0.0
C943 C 0.49344 0.63877 0.44194 0.0
O944 O 0.49142 0.6287 0.43889 0.0
O945 O 0.48016 0.65629 0.41322 0.0
O946 O 0.46897 0.64983 0.40027 0.0
O947 O 0.49475 0.62298 0.41725 0.0
O948 O 0.48612 0.6309 0.40356 0.0
C949 C 0.4725 0.65758 0.40625 0.0
C950 C 0.48992 0.62216 0.40791 0.0
O951 O 0.4933 0.64626 0.43476 0.0
Mg952 Mg 0.60459 0.73756 0.66931 0.0
O953 O 0.60932 0.72112 0.67773 0.0
O954 O 0.61346 0.70803 0.66545 0.0
Mg955 Mg 0.61014 0.71457 0.64834 0.0
C956 C 0.61246 0.71143 0.67529 0.0
C957 C 0.60669 0.75063 0.69105 0.0
O958 O 0.61595 0.75344 0.68645 0.0
O959 O 0.58626 0.73211 0.66681 0.0
O960 O 0.59775 0.72327 0.65734 0.0
O961 O 0.62249 0.74094 0.66716 0.0
O962 O 0.61331 0.73157 0.65487 0.0
C963 C 0.58795 0.72469 0.65987 0.0
C964 C 0.62252 0.73527 0.65826 0.0
O965 O 0.60011 0.74455 0.68585 0.0
Mg966 Mg 0.98953 0.85737 0.57951 0.0
O967 O 0.97208 0.86159 0.57374 0.0
O968 O 0.96141 0.86839 0.58704 0.0
Mg969 Mg 0.97094 0.86668 0.6031 0.0
C970 C 0.96306 0.8657 0.57706 0.0
C971 C 0.00026 0.8562 0.55669 0.0
O972 O 0.00571 0.86434 0.56105 0.0
O973 O 0.98404 0.83979 0.58489 0.0
O974 O 0.97708 0.85215 0.59492 0.0
O975 O 0.9931 0.87529 0.57853 0.0
O976 O 0.98657 0.8679 0.5936 0.0
C977 C 0.97794 0.84215 0.59287 0.0
C978 C 0.98932 0.87649 0.58829 0.0
O979 O 0.99329 0.85116 0.56247 0.0
Mg980 Mg 0.89009 0.236 0.33001 0.0
O981 O 0.88517 0.21916 0.32358 0.0
O982 O 0.8794 0.20892 0.33748 0.0
Mg983 Mg 0.88192 0.21877 0.35316 0.0
C984 C 0.88118 0.21031 0.32732 0.0
C985 C 0.89243 0.24746 0.3077 0.0
O986 O 0.88488 0.25343 0.31241 0.0
O987 O 0.90653 0.22924 0.33604 0.0
O988 O 0.90024 0.21981 0.35038 0.0
O989 O 0.87233 0.2407 0.32921 0.0
O990 O 0.88029 0.23388 0.34382 0.0
C991 C 0.90807 0.22333 0.3445 0.0
C992 C 0.87149 0.23686 0.339 0.0
O993 O 0.89678 0.23974 0.31309 0.0
Mg994 Mg 0.10774 0.26107 0.82872 0.0
O995 O 0.11204 0.27764 0.82128 0.0
O996 O 0.11732 0.28881 0.83469 0.0
Mg997 Mg 0.11434 0.28017 0.85091 0.0
C998 C 0.11578 0.28677 0.8246 0.0
C999 C 0.10832 0.25077 0.80589 0.0
O1000 O 0.11778 0.24786 0.80998 0.0
O1001 O 0.09095 0.26752 0.83376 0.0
O1002 O 0.09622 0.27891 0.84709 0.0
O1003 O 0.12571 0.25747 0.82863 0.0
O1004 O 0.11693 0.2646 0.84265 0.0
C1005 C 0.08886 0.27453 0.84119 0.0
C1006 C 0.12602 0.26203 0.83814 0.0
O1007 O 0.10168 0.25602 0.81187 0.0
Mg1008 Mg 0.57991 0.01092 0.13891 0.0
O1009 O 0.57386 0.02768 0.1338 0.0
O1010 O 0.58721 0.03746 0.12615 0.0
Mg1011 Mg 0.60282 0.02787 0.12967 0.0
C1012 C 0.57726 0.03619 0.12894 0.0
C1013 C 0.55749 -0.00049 0.14494 0.0
O1014 O 0.56245 0.99073 0.14131 0.0
O1015 O 0.58603 0.01842 0.1549 0.0
O1016 O 0.59906 0.02917 0.14788 0.0
O1017 O 0.57865 0.00601 0.12133 0.0
O1018 O 0.59368 0.01252 0.12886 0.0
C1019 C 0.5934 0.02572 0.15591 0.0
C1020 C 0.5885 0.00966 0.12022 0.0
O1021 O 0.56274 0.00843 0.14555 0.0
Mg1022 Mg 0.23631 0.83122 0.38962 0.0
O1023 O 0.22035 0.82463 0.38269 0.0
O1024 O 0.21183 0.83763 0.37317 0.0
Mg1025 Mg 0.22111 0.85351 0.37638 0.0
C1026 C 0.21259 0.82781 0.37654 0.0
C1027 C 0.24702 0.80917 0.39536 0.0
O1028 O 0.25469 0.81398 0.38962 0.0
O1029 O 0.22687 0.83871 0.40421 0.0
O1030 O 0.21834 0.85153 0.39449 0.0
O1031 O 0.24334 0.82884 0.37276 0.0
O1032 O 0.23616 0.84428 0.37856 0.0
C1033 C 0.22022 0.84676 0.40353 0.0
C1034 C 0.23992 0.8386 0.37064 0.0
O1035 O 0.23842 0.81452 0.39766 0.0
Mg1036 Mg 0.41974 0.48678 0.63943 0.0
O1037 O 0.42616 0.47035 0.63364 0.0
O1038 O 0.41248 0.45952 0.62853 0.0
Mg1039 Mg 0.39678 0.46917 0.63147 0.0
C1040 C 0.42265 0.46136 0.62981 0.0
C1041 C 0.44182 0.49883 0.64671 0.0
O1042 O 0.43624 0.50791 0.64552 0.0
O1043 O 0.41408 0.47944 0.65581 0.0
O1044 O 0.39992 0.46961 0.64968 0.0
O1045 O 0.41988 0.4921 0.62188 0.0
O1046 O 0.40564 0.48475 0.63011 0.0
C1047 C 0.40593 0.47312 0.6574 0.0
C1048 C 0.41012 0.4881 0.62125 0.0
O1049 O 0.43707 0.48971 0.64541 0.0
Mg1050 Mg 0.76233 0.6681 0.89164 0.0
O1051 O 0.77847 0.67617 0.88623 0.0
O1052 O 0.79019 0.66393 0.8793 0.0
Mg1053 Mg 0.78353 0.6483 0.88656 0.0
C1054 C 0.78732 0.67374 0.88127 0.0
C1055 C 0.75061 0.69063 0.8916 0.0
O1056 O 0.74564 0.68608 0.88327 0.0
O1057 O 0.76832 0.66297 0.90872 0.0
O1058 O 0.78419 0.65941 0.90138 0.0
O1059 O 0.75841 0.66718 0.87387 0.0
O1060 O 0.76663 0.65397 0.88303 0.0
C1061 C 0.77789 0.65905 0.90955 0.0
C1062 C 0.76345 0.65788 0.87382 0.0
O1063 O 0.75727 0.68502 0.89721 0.0
Mg1064 Mg 0.57949 0.98804 0.85949 0.0
O1065 O 0.57428 0.97126 0.86547 0.0
O1066 O 0.58855 0.96133 0.8708 0.0
Mg1067 Mg 0.60357 0.97171 0.86671 0.0
C1068 C 0.5783 0.96256 0.86949 0.0
C1069 C 0.55717 0.99912 0.85162 0.0
O1070 O 0.5629 0.00817 0.85121 0.0
O1071 O 0.58455 0.98056 0.84311 0.0
O1072 O 0.5992 0.97106 0.84861 0.0
O1073 O 0.57947 0.99346 0.8769 0.0
O1074 O 0.59394 0.98677 0.86849 0.0
C1075 C 0.59262 0.97424 0.8412 0.0
C1076 C 0.58937 0.98983 0.87743 0.0
O1077 O 0.56185 0.99022 0.85412 0.0
Mg1078 Mg 0.26054 0.83111 0.10892 0.0
O1079 O 0.27672 0.82406 0.11484 0.0
O1080 O 0.2878 0.83735 0.12067 0.0
Mg1081 Mg 0.27874 0.85334 0.11762 0.0
C1082 C 0.28571 0.82729 0.11895 0.0
C1083 C 0.25036 0.808 0.10756 0.0
O1084 O 0.24552 0.81189 0.1163 0.0
O1085 O 0.26866 0.83637 0.09287 0.0
O1086 O 0.2797 0.84933 0.09955 0.0
O1087 O 0.2552 0.83049 0.12634 0.0
O1088 O 0.26298 0.84488 0.11874 0.0
C1089 C 0.27612 0.84356 0.09167 0.0
C1090 C 0.25966 0.84 0.1274 0.0
O1091 O 0.2567 0.81419 0.10217 0.0
Mg1092 Mg 0.41748 0.51207 0.35816 0.0
O1093 O 0.4247 0.52819 0.36447 0.0
O1094 O 0.4113 0.53881 0.3709 0.0
Mg1095 Mg 0.39536 0.53067 0.36594 0.0
C1096 C 0.42138 0.53683 0.36924 0.0
C1097 C 0.43996 0.50056 0.35688 0.0
O1098 O 0.43536 0.49502 0.36481 0.0
O1099 O 0.41313 0.52023 0.34205 0.0
O1100 O 0.40027 0.53178 0.34801 0.0
O1101 O 0.41687 0.5062 0.3755 0.0
O1102 O 0.40329 0.51465 0.36721 0.0
C1103 C 0.40631 0.52792 0.34046 0.0
C1104 C 0.40737 0.51078 0.37606 0.0
O1105 O 0.43446 0.50786 0.35202 0.0
Mg1106 Mg 0.73684 0.66897 0.60949 0.0
O1107 O 0.72067 0.67591 0.61531 0.0
O1108 O 0.71039 0.66278 0.6226 0.0
Mg1109 Mg 0.72012 0.64687 0.6213 0.0
C1110 C 0.71196 0.67271 0.61995 0.0
C1111 C 0.74842 0.69097 0.6035 0.0
O1112 O 0.75666 0.68597 0.60818 0.0
O1113 O 0.72859 0.66145 0.59405 0.0
O1114 O 0.71978 0.64828 0.60305 0.0
O1115 O 0.74258 0.67097 0.62688 0.0
O1116 O 0.73552 0.6558 0.62026 0.0
C1117 C 0.72247 0.65296 0.59418 0.0
C1118 C 0.73896 0.66118 0.6285 0.0
O1119 O 0.73958 0.68577 0.60193 0.0
Mg1120 Mg 0.64016 0.5804 0.50919 0.0
O1121 O 0.63413 0.57455 0.5257 0.0
O1122 O 0.62812 0.58834 0.53593 0.0
Mg1123 Mg 0.63103 0.6037 0.52561 0.0
C1124 C 0.6299 0.57819 0.53446 0.0
C1125 C 0.64653 0.55803 0.49817 0.0
O1126 O 0.64304 0.56298 0.48932 0.0
O1127 O 0.65596 0.58657 0.51694 0.0
O1128 O 0.64946 0.60082 0.52642 0.0
O1129 O 0.62299 0.57898 0.50358 0.0
O1130 O 0.63011 0.59415 0.51037 0.0
C1131 C 0.6573 0.59472 0.52329 0.0
C1132 C 0.62164 0.58881 0.50722 0.0
O1133 O 0.64694 0.56328 0.50709 0.0
Mg1134 Mg 0.66787 0.89354 0.7616 0.0
O1135 O 0.6769 0.88849 0.77747 0.0
O1136 O 0.66492 0.88113 0.7892 0.0
Mg1137 Mg 0.64972 0.89019 0.78404 0.0
C1138 C 0.67466 0.88303 0.78607 0.0
C1139 C 0.68989 0.89404 0.74817 0.0
O1140 O 0.6852 0.88629 0.74243 0.0
O1141 O 0.66359 0.91083 0.7673 0.0
O1142 O 0.66175 0.90433 0.78372 0.0
O1143 O 0.66631 0.87575 0.75792 0.0
O1144 O 0.65383 0.88519 0.76698 0.0
C1145 C 0.66106 0.91232 0.77723 0.0
C1146 C 0.65739 0.87586 0.7636 0.0
O1147 O 0.68451 0.89885 0.7556 0.0
Mg1148 Mg 0.35503 0.91873 0.01054 0.0
O1149 O 0.36157 0.92657 0.02665 0.0
O1150 O 0.36805 0.91384 0.03828 0.0
Mg1151 Mg 0.3619 0.89724 0.03252 0.0
C1152 C 0.36654 0.92378 0.03543 0.0
C1153 C 0.35913 0.94226 0.00368 0.0
O1154 O 0.36889 0.93865 0.00625 0.0
O1155 O 0.33721 0.91707 0.01767 0.0
O1156 O 0.34899 0.90705 0.0255 0.0
O1157 O 0.37249 0.91574 0.00561 0.0
O1158 O 0.36345 0.90366 0.01536 0.0
C1159 C 0.33921 0.90994 0.02485 0.0
C1160 C 0.37254 0.90677 0.01114 0.0
O1161 O 0.3511 0.93573 0.0042 0.0
Mg1162 Mg 0.32937 0.60838 0.26189 0.0
O1163 O 0.32473 0.61205 0.27982 0.0
O1164 O 0.33871 0.61884 0.28952 0.0
Mg1165 Mg 0.35381 0.61779 0.27854 0.0
C1166 C 0.3287 0.61596 0.28866 0.0
C1167 C 0.30722 0.60257 0.25043 0.0
O1168 O 0.31251 0.60568 0.24164 0.0
O1169 O 0.3352 0.59082 0.26683 0.0
O1170 O 0.34606 0.60252 0.27383 0.0
O1171 O 0.32749 0.62631 0.25851 0.0
O1172 O 0.34323 0.61952 0.26381 0.0
C1173 C 0.34345 0.59269 0.27275 0.0
C1174 C 0.3374 0.62794 0.26163 0.0
O1175 O 0.3122 0.60217 0.25949 0.0
Mg1176 Mg 0.63973 0.41901 0.48697 0.0
O1177 O 0.63401 0.42545 0.47056 0.0
O1178 O 0.62691 0.41207 0.46048 0.0
Mg1179 Mg 0.62824 0.39651 0.47089 0.0
C1180 C 0.62947 0.42207 0.46185 0.0
C1181 C 0.64513 0.44109 0.49783 0.0
O1182 O 0.63891 0.43654 0.50529 0.0
O1183 O 0.65499 0.41134 0.47899 0.0
O1184 O 0.64678 0.39737 0.4705 0.0
O1185 O 0.62262 0.4216 0.49288 0.0
O1186 O 0.6287 0.40607 0.48601 0.0
C1187 C 0.65535 0.4026 0.47328 0.0
C1188 C 0.62066 0.41179 0.48949 0.0
O1189 O 0.64777 0.43557 0.48946 0.0
Mg1190 Mg 0.82951 0.89037 0.73855 0.0
O1191 O 0.82428 0.88518 0.72143 0.0
O1192 O 0.83762 0.87729 0.71176 0.0
Mg1193 Mg 0.85311 0.87951 0.72204 0.0
C1194 C 0.82771 0.88039 0.71284 0.0
C1195 C 0.80688 0.89563 0.7495 0.0
O1196 O 0.81178 0.89177 0.75821 0.0
O1197 O 0.83542 0.90721 0.73179 0.0
O1198 O 0.8471 0.89618 0.72438 0.0
O1199 O 0.82809 0.87264 0.74319 0.0
O1200 O 0.84347 0.87972 0.73722 0.0
C1201 C 0.84369 0.90577 0.7257 0.0
C1202 C 0.83802 0.87126 0.73994 0.0
O1203 O 0.81225 0.89671 0.7407 0.0
Mg1204 Mg 0.36081 0.08024 0.98698 0.0
O1205 O 0.36529 0.074 0.96996 0.0
O1206 O 0.37247 0.08767 0.96027 0.0
Mg1207 Mg 0.37095 0.1032 0.97064 0.0
C1208 C 0.36975 0.07767 0.96131 0.0
C1209 C 0.35782 0.05815 0.99759 0.0
O1210 O 0.36582 0.06271 0.00307 0.0
O1211 O 0.34504 0.08767 0.98019 0.0
O1212 O 0.35234 0.10178 0.97111 0.0
O1213 O 0.3783 0.0776 0.99157 0.0
O1214 O 0.37184 0.09326 0.98543 0.0
C1215 C 0.34411 0.0963 0.9744 0.0
C1216 C 0.38009 0.0874 0.98814 0.0
O1217 O 0.35297 0.0637 0.9903 0.0
Mg1218 Mg 0.16792 0.60686 0.23677 0.0
O1219 O 0.17371 0.61102 0.2192 0.0
O1220 O 0.15975 0.61496 0.20788 0.0
Mg1221 Mg 0.14379 0.61091 0.21684 0.0
C1222 C 0.16998 0.61417 0.20995 0.0
C1223 C 0.19046 0.6058 0.24952 0.0
O1224 O 0.18531 0.61144 0.25704 0.0
O1225 O 0.16529 0.5883 0.23212 0.0
O1226 O 0.15409 0.59946 0.22515 0.0
O1227 O 0.16646 0.62487 0.23978 0.0
O1228 O 0.15288 0.61576 0.23226 0.0
C1229 C 0.15746 0.58985 0.22564 0.0
C1230 C 0.15711 0.62503 0.23492 0.0
O1231 O 0.18537 0.60275 0.24105 0.0
Mg1232 Mg 0.01235 0.64033 0.07839 0.0
O1233 O 0.03002 0.63617 0.07334 0.0
O1234 O 0.04116 0.63152 0.08722 0.0
Mg1235 Mg 0.03122 0.63346 0.10307 0.0
C1236 C 0.03929 0.63315 0.07706 0.0
C1237 C -0.0001 0.64534 0.05606 0.0
O1238 O 0.99098 0.64341 0.06169 0.0
O1239 O 0.01719 0.65837 0.08285 0.0
O1240 O 0.02354 0.64626 0.0935 0.0
O1241 O 0.00908 0.62237 0.07881 0.0
O1242 O 0.01571 0.63097 0.09322 0.0
C1243 C 0.02285 0.65622 0.0912 0.0
C1244 C 0.01296 0.62196 0.0886 0.0
O1245 O 0.0091 0.64509 0.06082 0.0
Mg1246 Mg 0.51272 0.35522 0.41853 0.0
O1247 O 0.52852 0.36209 0.42673 0.0
O1248 O 0.53972 0.36864 0.41383 0.0
Mg1249 Mg 0.53461 0.3584 0.39942 0.0
C1250 C 0.53693 0.36761 0.42382 0.0
C1251 C 0.50301 0.35852 0.44149 0.0
O1252 O 0.50234 0.36844 0.43748 0.0
O1253 O 0.51924 0.33795 0.41572 0.0
O1254 O 0.53508 0.34523 0.4125 0.0
O1255 O 0.50792 0.37245 0.41547 0.0
O1256 O 0.51741 0.36257 0.4037 0.0
C1257 C 0.52904 0.33686 0.41258 0.0
C1258 C 0.51349 0.37194 0.40651 0.0
O1259 O 0.50658 0.35089 0.43546 0.0
Mg1260 Mg 0.88978 0.76217 0.66804 0.0
O1261 O 0.8839 0.7784 0.67495 0.0
O1262 O 0.87771 0.78903 0.66153 0.0
Mg1263 Mg 0.88176 0.78026 0.64556 0.0
C1264 C 0.87941 0.78716 0.67163 0.0
C1265 C 0.89246 0.75061 0.69068 0.0
O1266 O 0.88592 0.74349 0.68604 0.0
O1267 O 0.90599 0.77001 0.66303 0.0
O1268 O 0.89987 0.78096 0.6497 0.0
O1269 O 0.87222 0.75692 0.668 0.0
O1270 O 0.88058 0.76449 0.65394 0.0
C1271 C 0.90753 0.77725 0.65569 0.0
C1272 C 0.87168 0.76118 0.65834 0.0
O1273 O 0.89592 0.75866 0.68515 0.0
Mg1274 Mg 0.48808 0.13975 0.91831 0.0
O1275 O 0.47067 0.13591 0.92377 0.0
O1276 O 0.46094 0.12992 0.90957 0.0
Mg1277 Mg 0.47194 0.13137 0.89458 0.0
C1278 C 0.46183 0.13223 0.91969 0.0
C1279 C 0.49845 0.14296 0.94088 0.0
O1280 O 0.50472 0.13537 0.93663 0.0
O1281 O 0.48204 0.15597 0.91149 0.0
O1282 O 0.47242 0.14986 0.89719 0.0
O1283 O 0.4919 0.12218 0.92075 0.0
O1284 O 0.48631 0.12907 0.90504 0.0
C1285 C 0.476 0.15759 0.90317 0.0
C1286 C 0.48843 0.12062 0.91091 0.0
O1287 O 0.49096 0.14711 0.93504 0.0
Mg1288 Mg 0.6067 0.23479 0.16817 0.0
O1289 O 0.61425 0.21953 0.17575 0.0
O1290 O 0.62026 0.20824 0.16281 0.0
Mg1291 Mg 0.61561 0.21588 0.14656 0.0
C1292 C 0.61898 0.21074 0.17282 0.0
C1293 C 0.60405 0.2473 0.19048 0.0
O1294 O 0.61006 0.25453 0.18534 0.0
O1295 O 0.59091 0.22544 0.16396 0.0
O1296 O 0.59787 0.2145 0.1511 0.0
O1297 O 0.62374 0.24168 0.16676 0.0
O1298 O 0.61548 0.2323 0.15383 0.0
C1299 C 0.58992 0.21778 0.15693 0.0
C1300 C 0.62418 0.2369 0.15735 0.0
O1301 O 0.60086 0.23884 0.18539 0.0
Mg1302 Mg 0.98743 0.35839 0.08016 0.0
O1303 O 0.9707 0.36354 0.07396 0.0
O1304 O 0.95956 0.36792 0.08765 0.0
Mg1305 Mg 0.96931 0.36447 0.10319 0.0
C1306 C 0.9615 0.36686 0.07747 0.0
C1307 C -0.00036 0.35163 0.05793 0.0
O1308 O 0.00876 0.35209 0.06354 0.0
O1309 O 0.98061 0.34158 0.08466 0.0
O1310 O 0.96997 0.34645 0.09871 0.0
O1311 O 0.99213 0.37603 0.08055 0.0
O1312 O 0.98486 0.36727 0.09452 0.0
C1313 C 0.97394 0.33927 0.09231 0.0
C1314 C 0.98793 0.37636 0.09023 0.0
O1315 O 0.99059 0.35325 0.06269 0.0
Mg1316 Mg 0.89087 0.73678 0.82943 0.0
O1317 O 0.88509 0.72075 0.82204 0.0
O1318 O 0.87722 0.71033 0.83476 0.0
Mg1319 Mg 0.88115 0.71851 0.85105 0.0
C1320 C 0.87992 0.71222 0.8249 0.0
C1321 C 0.89685 0.74924 0.8075 0.0
O1322 O 0.89318 0.75786 0.81271 0.0
O1323 O 0.90668 0.72839 0.83492 0.0
O1324 O 0.8993 0.71705 0.84721 0.0
O1325 O 0.8734 0.7425 0.82892 0.0
O1326 O 0.88099 0.73454 0.84318 0.0
C1327 C 0.90747 0.72061 0.84181 0.0
C1328 C 0.87237 0.73824 0.83853 0.0
O1329 O 0.89752 0.74018 0.81248 0.0
Mg1330 Mg 0.10829 0.76149 0.32963 0.0
O1331 O 0.11398 0.77799 0.32293 0.0
O1332 O 0.12164 0.78754 0.33643 0.0
Mg1333 Mg 0.11903 0.77805 0.35233 0.0
C1334 C 0.11908 0.78637 0.32641 0.0
C1335 C 0.10601 0.751 0.30714 0.0
O1336 O 0.11415 0.74571 0.31167 0.0
O1337 O 0.09261 0.76927 0.33668 0.0
O1338 O 0.10061 0.77818 0.3505 0.0
O1339 O 0.12576 0.75598 0.32799 0.0
O1340 O 0.11881 0.76287 0.34307 0.0
C1341 C 0.09212 0.77525 0.34524 0.0
C1342 C 0.12721 0.75962 0.33778 0.0
O1343 O 0.10088 0.75805 0.31279 0.0
H1344 H 0.11067 0.52012 0.11983 0.0
H1345 H 0.11727 0.52887 0.1032 0.0
H1346 H 0.08779 0.51958 0.08646 0.0
H1347 H 0.08082 0.51121 0.10328 0.0
H1348 H 0.1146 0.5176 0.07679 0.0
H1349 H 0.08333 0.54031 0.0899 0.0
H1350 H 0.07324 0.55178 0.10299 0.0
H1351 H 0.10207 0.57073 0.10896 0.0
H1352 H 0.11245 0.55912 0.09623 0.0
H1353 H 0.12231 0.55484 0.03125 0.0
H1354 H 0.11596 0.54138 0.04474 0.0
H1355 H 0.12642 0.5628 0.07072 0.0
H1356 H 0.13199 0.57638 0.05736 0.0
H1357 H 0.10738 0.55733 0.07456 0.0
H1358 H 0.1391 0.5374 0.06336 0.0
H1359 H 0.15165 0.52769 0.05098 0.0
H1360 H 0.1264 0.50474 0.04305 0.0
H1361 H 0.11363 0.51442 0.05526 0.0
C1362 C 0.10556 0.51994 0.11263 0.0
C1363 C 0.09509 0.51523 0.11295 0.0
C1364 C 0.10939 0.52486 0.10313 0.0
C1365 C 0.10294 0.52495 0.09371 0.0
C1366 C 0.09283 0.51961 0.09372 0.0
C1367 C 0.08888 0.51482 0.10331 0.0
C1368 C 0.10654 0.53133 0.08418 0.0
C1369 C 0.11293 0.52627 0.07613 0.0
C1370 C 0.10468 0.54267 0.08366 0.0
C1371 C 0.09869 0.54875 0.09222 0.0
C1372 C 0.08759 0.54672 0.09422 0.0
C1373 C 0.0818 0.55331 0.10152 0.0
C1374 C 0.08699 0.56205 0.1067 0.0
C1375 C 0.09806 0.56399 0.1049 0.0
C1376 C 0.10391 0.55738 0.09771 0.0
C1377 C 0.12324 0.55657 0.03986 0.0
C1378 C 0.1274 0.56668 0.04333 0.0
C1379 C 0.11973 0.54886 0.04755 0.0
C1380 C 0.12068 0.55106 0.05877 0.0
C1381 C 0.12543 0.56095 0.06213 0.0
C1382 C 0.12859 0.56873 0.05451 0.0
C1383 C 0.11581 0.54377 0.06715 0.0
C1384 C 0.10908 0.54865 0.07502 0.0
C1385 C 0.11778 0.53238 0.06769 0.0
C1386 C 0.12535 0.52674 0.0601 0.0
C1387 C 0.13617 0.53037 0.05887 0.0
C1388 C 0.14334 0.52485 0.0519 0.0
C1389 C 0.13981 0.51563 0.0462 0.0
C1390 C 0.12911 0.51191 0.04745 0.0
C1391 C 0.12191 0.51741 0.05438 0.0
H1392 H 0.14538 0.51135 0.04083 0.0
H1393 H 0.08244 0.5674 0.11202 0.0
H1394 H 0.68817 0.38928 0.29178 0.0
H1395 H 0.70113 0.38311 0.30564 0.0
H1396 H 0.68203 0.35387 0.31041 0.0
H1397 H 0.66871 0.36038 0.29706 0.0
H1398 H 0.68805 0.36086 0.32894 0.0
H1399 H 0.70768 0.35596 0.29465 0.0
H1400 H 0.71563 0.36235 0.27728 0.0
H1401 H 0.73559 0.38531 0.29463 0.0
H1402 H 0.72768 0.37915 0.31209 0.0
H1403 H 0.72732 0.327 0.35439 0.0
H1404 H 0.71665 0.3346 0.33925 0.0
H1405 H 0.73015 0.36646 0.34562 0.0
H1406 H 0.74051 0.35897 0.36104 0.0
H1407 H 0.72787 0.35917 0.32179 0.0
H1408 H 0.70862 0.36563 0.35509 0.0
H1409 H 0.70005 0.36168 0.37285 0.0
H1410 H 0.67949 0.33763 0.3578 0.0
H1411 H 0.68802 0.34139 0.33993 0.0
C1412 C 0.68674 0.38155 0.29585 0.0
C1413 C 0.67745 0.3753 0.29339 0.0
C1414 C 0.6942 0.37798 0.30368 0.0
C1415 C 0.69274 0.36788 0.30891 0.0
C1416 C 0.68338 0.36168 0.30649 0.0
C1417 C 0.67576 0.3654 0.29888 0.0
C1418 C 0.70073 0.36384 0.31711 0.0
C1419 C 0.69673 0.36031 0.32725 0.0
C1420 C 0.71215 0.36358 0.31516 0.0
C1421 C 0.71702 0.36715 0.30466 0.0
C1422 C 0.71373 0.3624 0.29475 0.0
C1423 C 0.71823 0.36598 0.28489 0.0
C1424 C 0.72609 0.37425 0.28485 0.0
C1425 C 0.7295 0.37892 0.29467 0.0
C1426 C 0.72502 0.37538 0.30455 0.0
C1427 C 0.72828 0.33554 0.35231 0.0
C1428 C 0.73483 0.3424 0.35873 0.0
C1429 C 0.72212 0.33988 0.34375 0.0
C1430 C 0.72262 0.35108 0.34138 0.0
C1431 C 0.72971 0.3578 0.34733 0.0
C1432 C 0.73564 0.35352 0.35607 0.0
C1433 C 0.71506 0.35589 0.33332 0.0
C1434 C 0.71916 0.35962 0.32333 0.0
C1435 C 0.70374 0.35647 0.3354 0.0
C1436 C 0.69906 0.35368 0.34621 0.0
C1437 C 0.7024 0.35937 0.35559 0.0
C1438 C 0.6975 0.35722 0.36566 0.0
C1439 C 0.68921 0.34944 0.36643 0.0
C1440 C 0.6859 0.34368 0.35717 0.0
C1441 C 0.69076 0.34582 0.34707 0.0
H1442 H 0.68533 0.3479 0.37421 0.0
H1443 H 0.72956 0.37701 0.27721 0.0
H1444 H 0.8718 0.94142 0.53387 0.0
H1445 H 0.87839 0.95518 0.54673 0.0
H1446 H 0.86808 0.93505 0.57367 0.0
H1447 H 0.86171 0.92104 0.56085 0.0
H1448 H 0.8625 0.95971 0.57363 0.0
H1449 H 0.89188 0.93301 0.56939 0.0
H1450 H 0.90485 0.92237 0.55828 0.0
H1451 H 0.91855 0.95201 0.54559 0.0
H1452 H 0.90551 0.96283 0.55648 0.0
H1453 H 0.88707 0.97767 0.62113 0.0
H1454 H 0.87919 0.96888 0.60549 0.0
H1455 H 0.90498 0.98174 0.58515 0.0
H1456 H 0.91398 0.98909 0.60144 0.0
H1457 H 0.90245 0.96299 0.57926 0.0
H1458 H 0.87511 0.99017 0.58505 0.0
H1459 H 0.86206 0.00126 0.59563 0.0
H1460 H 0.84417 0.97239 0.60422 0.0
H1461 H 0.85717 0.96111 0.59382 0.0
C1462 C 0.87082 0.93996 0.54253 0.0
C1463 C 0.86626 0.93015 0.54638 0.0
C1464 C 0.87461 0.94782 0.54984 0.0
C1465 C 0.87372 0.94607 0.56108 0.0
C1466 C 0.8688 0.93649 0.56498 0.0
C1467 C 0.86522 0.92851 0.55767 0.0
C1468 C 0.87835 0.95401 0.56882 0.0
C1469 C 0.87122 0.96047 0.57495 0.0
C1470 C 0.88973 0.95524 0.5701 0.0
C1471 C 0.89761 0.94872 0.56363 0.0
C1472 C 0.89757 0.93725 0.56414 0.0
C1473 C 0.90495 0.93119 0.5579 0.0
C1474 C 0.91249 0.93651 0.5512 0.0
C1475 C 0.91269 0.9479 0.55076 0.0
C1476 C 0.9053 0.954 0.55696 0.0
C1477 C 0.89122 0.9785 0.61339 0.0
C1478 C 0.90141 0.98369 0.61264 0.0
C1479 C 0.88646 0.97373 0.60429 0.0
C1480 C 0.89127 0.97478 0.59395 0.0
C1481 C 0.90107 0.98073 0.59302 0.0
C1482 C 0.90617 0.98504 0.60231 0.0
C1483 C 0.8866 0.96875 0.58447 0.0
C1484 C 0.89372 0.96257 0.57791 0.0
C1485 C 0.87517 0.96796 0.58266 0.0
C1486 C 0.86714 0.97479 0.58865 0.0
C1487 C 0.8684 0.98618 0.5892 0.0
C1488 C 0.86102 0.99251 0.59518 0.0
C1489 C 0.8523 0.98754 0.6006 0.0
C1490 C 0.85091 0.97624 0.60001 0.0
C1491 C 0.85827 0.96988 0.59405 0.0
H1492 H 0.84661 0.99244 0.60524 0.0
H1493 H 0.91821 0.9318 0.54638 0.0
H1494 H 0.26709 0.17144 0.85132 0.0
H1495 H 0.27676 0.1643 0.83524 0.0
H1496 H 0.27439 0.13171 0.84827 0.0
H1497 H 0.26466 0.1387 0.86415 0.0
H1498 H 0.2977 0.1502 0.83952 0.0
H1499 H 0.26677 0.12107 0.83253 0.0
H1500 H 0.24688 0.11862 0.8303 0.0
H1501 H 0.2458 0.14604 0.80851 0.0
H1502 H 0.26566 0.14873 0.81078 0.0
H1503 H 0.32914 0.11418 0.80731 0.0
H1504 H 0.31621 0.12135 0.82079 0.0
H1505 H 0.29627 0.13426 0.79477 0.0
H1506 H 0.30874 0.12644 0.78135 0.0
H1507 H 0.28356 0.12718 0.80935 0.0
H1508 H 0.31606 0.14948 0.81038 0.0
H1509 H 0.33586 0.15237 0.81244 0.0
H1510 H 0.33433 0.1408 0.84545 0.0
H1511 H 0.3146 0.13736 0.84344 0.0
C1512 C 0.26829 0.16272 0.85054 0.0
C1513 C 0.26514 0.15561 0.85896 0.0
C1514 C 0.27388 0.15867 0.84142 0.0
C1515 C 0.2762 0.14749 0.8406 0.0
C1516 C 0.27251 0.14034 0.8487 0.0
C1517 C 0.26698 0.14435 0.85777 0.0
C1518 C 0.28344 0.1433 0.83197 0.0
C1519 C 0.29468 0.14518 0.83288 0.0
C1520 C 0.27942 0.13686 0.82336 0.0
C1521 C 0.26761 0.13512 0.82186 0.0
C1522 C 0.26226 0.12658 0.8273 0.0
C1523 C 0.25101 0.12516 0.82604 0.0
C1524 C 0.24508 0.13218 0.81928 0.0
C1525 C 0.2504 0.14063 0.81376 0.0
C1526 C 0.26163 0.14212 0.81505 0.0
C1527 C 0.32194 0.11848 0.80453 0.0
C1528 C 0.31992 0.11982 0.79335 0.0
C1529 C 0.31459 0.12263 0.81221 0.0
C1530 C 0.30539 0.12861 0.80881 0.0
C1531 C 0.3033 0.12972 0.79761 0.0
C1532 C 0.31044 0.12527 0.78995 0.0
C1533 C 0.29804 0.13391 0.81686 0.0
C1534 C 0.28672 0.13224 0.81589 0.0
C1535 C 0.30206 0.14063 0.8254 0.0
C1536 C 0.31385 0.14308 0.82672 0.0
C1537 C 0.31995 0.1475 0.81806 0.0
C1538 C 0.33117 0.14921 0.81921 0.0
C1539 C 0.33634 0.14681 0.82908 0.0
C1540 C 0.33031 0.14266 0.83781 0.0
C1541 C 0.31912 0.14078 0.83666 0.0
H1542 H 0.34502 0.14817 0.82995 0.0
H1543 H 0.23637 0.13106 0.81831 0.0
H1544 H 0.08655 0.46633 0.88605 0.0
H1545 H 0.09488 0.45753 0.90155 0.0
H1546 H 0.10599 0.48887 0.91329 0.0
H1547 H 0.09852 0.49755 0.89674 0.0
H1548 H 0.1216 0.47522 0.91512 0.0
H1549 H 0.0838 0.47244 0.92576 0.0
H1550 H 0.06436 0.46818 0.92274 0.0
H1551 H 0.07246 0.43466 0.91649 0.0
H1552 H 0.09194 0.43873 0.91939 0.0
H1553 H 0.13267 0.44431 0.96634 0.0
H1554 H 0.12549 0.45778 0.95339 0.0
H1555 H 0.12471 0.43324 0.92822 0.0
H1556 H 0.13218 0.41982 0.94095 0.0
H1557 H 0.10339 0.44556 0.93579 0.0
H1558 H 0.14017 0.44838 0.92181 0.0
H1559 H 0.15995 0.45186 0.92286 0.0
H1560 H 0.15378 0.48442 0.93426 0.0
H1561 H 0.13394 0.48105 0.93346 0.0
C1562 C 0.0908 0.47133 0.89186 0.0
C1563 C 0.09205 0.48253 0.89012 0.0
C1564 C 0.09537 0.46633 0.90093 0.0
C1565 C 0.10085 0.47252 0.90884 0.0
C1566 C 0.10173 0.4839 0.90736 0.0
C1567 C 0.0974 0.48887 0.89799 0.0
C1568 C 0.10636 0.46688 0.91806 0.0
C1569 C 0.1175 0.46896 0.91986 0.0
C1570 C 0.10114 0.45845 0.92406 0.0
C1571 C 0.08935 0.45591 0.92278 0.0
C1572 C 0.08144 0.46416 0.92375 0.0
C1573 C 0.0704 0.46178 0.92205 0.0
C1574 C 0.06718 0.45116 0.91942 0.0
C1575 C 0.07497 0.44288 0.91855 0.0
C1576 C 0.086 0.44521 0.92026 0.0
C1577 C 0.13118 0.44183 0.95799 0.0
C1578 C 0.13273 0.43092 0.95472 0.0
C1579 C 0.12709 0.44953 0.95062 0.0
C1580 C 0.12451 0.44642 0.93993 0.0
C1581 C 0.12661 0.43573 0.93649 0.0
C1582 C 0.1308 0.42807 0.94379 0.0
C1583 C 0.11851 0.45387 0.93265 0.0
C1584 C 0.10732 0.45208 0.93126 0.0
C1585 C 0.12368 0.46245 0.92698 0.0
C1586 C 0.13558 0.46438 0.92779 0.0
C1587 C 0.14303 0.45621 0.92474 0.0
C1588 C 0.15425 0.45818 0.92523 0.0
C1589 C 0.15812 0.46834 0.92868 0.0
C1590 C 0.15077 0.47654 0.93164 0.0
C1591 C 0.13954 0.4746 0.93117 0.0
H1592 H 0.16681 0.46986 0.92902 0.0
H1593 H 0.05864 0.44935 0.91805 0.0
H1594 H 0.76241 0.33058 0.14646 0.0
H1595 H 0.77178 0.33793 0.16261 0.0
H1596 H 0.77711 0.36833 0.14577 0.0
H1597 H 0.76746 0.36128 0.12986 0.0
H1598 H 0.79668 0.35214 0.15546 0.0
H1599 H 0.7637 0.37452 0.16184 0.0
H1600 H 0.74388 0.37611 0.16496 0.0
H1601 H 0.74641 0.3551 0.19288 0.0
H1602 H 0.76624 0.35324 0.18979 0.0
H1603 H 0.82773 0.38512 0.19063 0.0
H1604 H 0.81461 0.3789 0.17689 0.0
H1605 H 0.79584 0.3629 0.20208 0.0
H1606 H 0.80848 0.36986 0.21585 0.0
H1607 H 0.78244 0.37043 0.18865 0.0
H1608 H 0.81552 0.35032 0.1847 0.0
H1609 H 0.83529 0.3479 0.18206 0.0
H1610 H 0.8329 0.36149 0.14988 0.0
H1611 H 0.81322 0.36466 0.15257 0.0
C1612 C 0.76527 0.33894 0.14635 0.0
C1613 C 0.76435 0.34531 0.13685 0.0
C1614 C 0.77066 0.34309 0.15553 0.0
C1615 C 0.77515 0.35362 0.15528 0.0
C1616 C 0.77368 0.36018 0.14606 0.0
C1617 C 0.7682 0.35612 0.13699 0.0
C1618 C 0.78237 0.35746 0.16409 0.0
C1619 C 0.79365 0.35621 0.16272 0.0
C1620 C 0.77828 0.36243 0.17361 0.0
C1621 C 0.76641 0.36363 0.1755 0.0
C1622 C 0.76001 0.37014 0.16857 0.0
C1623 C 0.74878 0.37111 0.17035 0.0
C1624 C 0.74388 0.36568 0.17909 0.0
C1625 C 0.75021 0.35928 0.1861 0.0
C1626 C 0.76144 0.35827 0.18434 0.0
C1627 C 0.82073 0.38035 0.19319 0.0
C1628 C 0.8191 0.3779 0.20423 0.0
C1629 C 0.81327 0.37674 0.18535 0.0
C1630 C 0.80435 0.37016 0.18839 0.0
C1631 C 0.80264 0.36793 0.1995 0.0
C1632 C 0.80987 0.37187 0.20735 0.0
C1633 C 0.79697 0.36538 0.18002 0.0
C1634 C 0.78562 0.36634 0.18147 0.0
C1635 C 0.80104 0.35996 0.17062 0.0
C1636 C 0.81287 0.35785 0.16889 0.0
C1637 C 0.81921 0.35291 0.1771 0.0
C1638 C 0.83042 0.35143 0.1756 0.0
C1639 C 0.83534 0.35448 0.16579 0.0
C1640 C 0.82908 0.35914 0.15749 0.0
C1641 C 0.8179 0.36085 0.15902 0.0
H1642 H 0.84401 0.35324 0.16462 0.0
H1643 H 0.73519 0.36645 0.18046 0.0
H1644 H 0.92226 0.01747 0.39297 0.0
H1645 H 0.91527 0.02819 0.40823 0.0
H1646 H 0.88267 0.01665 0.40147 0.0
H1647 H 0.88963 0.00639 0.3858 0.0
H1648 H 0.88199 0.03744 0.40369 0.0
H1649 H 0.89748 0.0089 0.42499 0.0
H1650 H 0.91194 0.99592 0.43018 0.0
H1651 H 0.93293 0.02257 0.43896 0.0
H1652 H 0.91864 0.03573 0.43366 0.0
H1653 H 0.86064 0.0594 0.45407 0.0
H1654 H 0.86724 0.04606 0.44068 0.0
H1655 H 0.89689 0.06459 0.43675 0.0
H1656 H 0.8902 0.07816 0.44988 0.0
H1657 H 0.89833 0.0396 0.44066 0.0
H1658 H 0.882 0.06792 0.41824 0.0
H1659 H 0.86688 0.08015 0.41311 0.0
H1660 H 0.84634 0.05245 0.40691 0.0
H1661 H 0.86128 0.04005 0.41224 0.0
C1662 C 0.91368 0.01687 0.39503 0.0
C1663 C 0.9065 0.01095 0.38837 0.0
C1664 C 0.90966 0.02307 0.40371 0.0
C1665 C 0.89842 0.02319 0.40609 0.0
C1666 C 0.89135 0.01673 0.3998 0.0
C1667 C 0.89534 0.01073 0.39097 0.0
C1668 C 0.894 0.03061 0.41462 0.0
C1669 C 0.88546 0.03775 0.41182 0.0
C1670 C 0.89857 0.03116 0.42521 0.0
C1671 C 0.90701 0.0233 0.42889 0.0
C1672 C 0.90518 0.01199 0.42802 0.0
C1673 C 0.91336 0.00461 0.43097 0.0
C1674 C 0.92336 0.00842 0.43488 0.0
C1675 C 0.92518 0.01963 0.43592 0.0
C1676 C 0.91704 0.02706 0.43297 0.0
C1677 C 0.86853 0.06066 0.4503 0.0
C1678 C 0.87486 0.06986 0.45292 0.0
C1679 C 0.8723 0.05303 0.4427 0.0
C1680 C 0.88255 0.05435 0.4378 0.0
C1681 C 0.88896 0.06344 0.44049 0.0
C1682 C 0.88509 0.07122 0.4479 0.0
C1683 C 0.88646 0.04637 0.42965 0.0
C1684 C 0.89486 0.03916 0.43254 0.0
C1685 C 0.88163 0.04561 0.41921 0.0
C1686 C 0.87272 0.05306 0.41578 0.0
C1687 C 0.87423 0.06444 0.4159 0.0
C1688 C 0.86569 0.0714 0.41294 0.0
C1689 C 0.85564 0.06709 0.40973 0.0
C1690 C 0.85412 0.05579 0.40943 0.0
C1691 C 0.86262 0.04878 0.41242 0.0
H1692 H 0.84905 0.07249 0.40744 0.0
H1693 H 0.92969 0.00269 0.43712 0.0
H1694 H 0.22986 0.17159 0.64243 0.0
H1695 H 0.21989 0.16484 0.65827 0.0
H1696 H 0.23186 0.13228 0.65192 0.0
H1697 H 0.24114 0.13897 0.63554 0.0
H1698 H 0.21203 0.13071 0.65524 0.0
H1699 H 0.23979 0.14931 0.67476 0.0
H1700 H 0.25192 0.16454 0.67982 0.0
H1701 H 0.2242 0.18366 0.68949 0.0
H1702 H 0.21188 0.16865 0.68427 0.0
H1703 H 0.18962 0.11145 0.70617 0.0
H1704 H 0.20327 0.11764 0.69292 0.0
H1705 H 0.1845 0.14682 0.68712 0.0
H1706 H 0.17065 0.14057 0.70014 0.0
H1707 H 0.20899 0.14906 0.69118 0.0
H1708 H 0.1817 0.12976 0.6696 0.0
H1709 H 0.17048 0.11372 0.66492 0.0
H1710 H 0.19947 0.0946 0.66021 0.0
H1711 H 0.21085 0.11048 0.66508 0.0
C1712 C 0.2306 0.16305 0.64463 0.0
C1713 C 0.23638 0.15579 0.63792 0.0
C1714 C 0.22491 0.15919 0.6537 0.0
C1715 C 0.22522 0.14804 0.65645 0.0
C1716 C 0.23146 0.1409 0.65 0.0
C1717 C 0.23685 0.14471 0.64071 0.0
C1718 C 0.21825 0.1437 0.6654 0.0
C1719 C 0.2116 0.13462 0.66316 0.0
C1720 C 0.21748 0.14885 0.67574 0.0
C1721 C 0.22489 0.15787 0.67902 0.0
C1722 C 0.23626 0.15679 0.67789 0.0
C1723 C 0.24318 0.16539 0.68079 0.0
C1724 C 0.23883 0.17507 0.68495 0.0
C1725 C 0.22756 0.17616 0.68626 0.0
C1726 C 0.2206 0.1676 0.68333 0.0
C1727 C 0.18841 0.11919 0.70207 0.0
C1728 C 0.17905 0.12551 0.70411 0.0
C1729 C 0.1962 0.1227 0.69453 0.0
C1730 C 0.19486 0.13267 0.6891 0.0
C1731 C 0.18565 0.13911 0.69128 0.0
C1732 C 0.17773 0.13549 0.69863 0.0
C1733 C 0.20289 0.13625 0.68087 0.0
C1734 C 0.20966 0.14514 0.68326 0.0
C1735 C 0.20398 0.1308 0.67078 0.0
C1736 C 0.19712 0.12126 0.66786 0.0
C1737 C 0.18568 0.1221 0.66771 0.0
C1738 C 0.17929 0.11304 0.66499 0.0
C1739 C 0.18426 0.10313 0.66231 0.0
C1740 C 0.19563 0.10227 0.66232 0.0
C1741 C 0.20205 0.11129 0.66506 0.0
H1742 H 0.1793 0.09614 0.6602 0.0
H1743 H 0.2442 0.18172 0.68718 0.0
H1744 H 0.03466 0.11755 0.55919 0.0
H1745 H 0.04888 0.11204 0.54622 0.0
H1746 H 0.07258 0.13085 0.56417 0.0
H1747 H 0.05842 0.136 0.5775 0.0
H1748 H 0.06974 0.13064 0.53626 0.0
H1749 H 0.07853 0.11096 0.57055 0.0
H1750 H 0.07217 0.1003 0.5864 0.0
H1751 H 0.05816 0.07645 0.56489 0.0
H1752 H 0.06421 0.08712 0.54894 0.0
H1753 H 0.12092 0.11151 0.51802 0.0
H1754 H 0.10511 0.11886 0.52749 0.0
H1755 H 0.08833 0.08815 0.52345 0.0
H1756 H 0.10446 0.08054 0.5144 0.0
H1757 H 0.08663 0.09456 0.54361 0.0
H1758 H 0.08091 0.11204 0.50927 0.0
H1759 H 0.08622 0.12269 0.49305 0.0
H1760 H 0.09321 0.15042 0.5133 0.0
H1761 H 0.0881 0.13988 0.52967 0.0
C1762 C 0.0429 0.12054 0.56031 0.0
C1763 C 0.04554 0.1271 0.56933 0.0
C1764 C 0.05097 0.11746 0.55289 0.0
C1765 C 0.06171 0.12112 0.55424 0.0
C1766 C 0.0643 0.12801 0.56302 0.0
C1767 C 0.05628 0.13085 0.57064 0.0
C1768 C 0.07038 0.11684 0.54707 0.0
C1769 C 0.07356 0.12282 0.53787 0.0
C1770 C 0.075 0.10649 0.54904 0.0
C1771 C 0.07171 0.09988 0.55859 0.0
C1772 C 0.07401 0.10348 0.56922 0.0
C1773 C 0.07045 0.09745 0.57822 0.0
C1774 C 0.06469 0.08774 0.57667 0.0
C1775 C 0.06251 0.08403 0.5661 0.0
C1776 C 0.06602 0.09005 0.55708 0.0
C1777 C 0.11384 0.10633 0.51906 0.0
C1778 C 0.11398 0.09541 0.51557 0.0
C1779 C 0.10474 0.11059 0.52439 0.0
C1780 C 0.09547 0.1041 0.52611 0.0
C1781 C 0.09539 0.09331 0.5222 0.0
C1782 C 0.10457 0.089 0.51695 0.0
C1783 C 0.08623 0.10838 0.53269 0.0
C1784 C 0.08285 0.10236 0.54184 0.0
C1785 C 0.08138 0.11868 0.53057 0.0
C1786 C 0.08418 0.12514 0.52071 0.0
C1787 C 0.08362 0.1204 0.51027 0.0
C1788 C 0.0866 0.12641 0.50105 0.0
C1789 C 0.09007 0.13722 0.50215 0.0
C1790 C 0.09052 0.14204 0.51247 0.0
C1791 C 0.08757 0.13606 0.52172 0.0
H1792 H 0.09239 0.14186 0.495 0.0
H1793 H 0.06197 0.08307 0.58365 0.0
H1794 H 0.13132 0.30218 0.82705 0.0
H1795 H 0.13796 0.31516 0.81345 0.0
H1796 H 0.11489 0.30273 0.79007 0.0
H1797 H 0.10847 0.28934 0.80356 0.0
H1798 H 0.13438 0.30611 0.78074 0.0
H1799 H 0.11048 0.32745 0.80246 0.0
H1800 H 0.10224 0.33461 0.81936 0.0
H1801 H 0.1329 0.34889 0.82848 0.0
H1802 H 0.14138 0.34169 0.81171 0.0
H1803 H 0.14215 0.36059 0.75378 0.0
H1804 H 0.13363 0.34478 0.76263 0.0
H1805 H 0.16326 0.33894 0.78065 0.0
H1806 H 0.17194 0.35452 0.77152 0.0
H1807 H 0.13816 0.34512 0.79102 0.0
H1808 H 0.16208 0.32003 0.77025 0.0
H1809 H 0.16946 0.31357 0.75267 0.0
H1810 H 0.13695 0.30764 0.74102 0.0
H1811 H 0.12938 0.31419 0.75852 0.0
C1812 C 0.12754 0.30233 0.81908 0.0
C1813 C 0.11925 0.29492 0.81644 0.0
C1814 C 0.13133 0.30974 0.81135 0.0
C1815 C 0.12672 0.31013 0.8009 0.0
C1816 C 0.11849 0.30265 0.79814 0.0
C1817 C 0.11481 0.29505 0.80585 0.0
C1818 C 0.13081 0.31829 0.79296 0.0
C1819 C 0.13503 0.31466 0.78293 0.0
C1820 C 0.13168 0.32947 0.79579 0.0
C1821 C 0.12658 0.33397 0.80584 0.0
C1822 C 0.11549 0.33207 0.80809 0.0
C1823 C 0.11077 0.33614 0.81765 0.0
C1824 C 0.11705 0.34219 0.82499 0.0
C1825 C 0.12805 0.34421 0.82278 0.0
C1826 C 0.13281 0.34015 0.81323 0.0
C1827 C 0.14699 0.3556 0.75925 0.0
C1828 C 0.15774 0.35857 0.76183 0.0
C1829 C 0.1421 0.34666 0.76434 0.0
C1830 C 0.14786 0.34073 0.77222 0.0
C1831 C 0.15878 0.34336 0.77444 0.0
C1832 C 0.16375 0.35216 0.76917 0.0
C1833 C 0.14204 0.3328 0.77913 0.0
C1834 C 0.1374 0.33656 0.78887 0.0
C1835 C 0.14066 0.32183 0.776 0.0
C1836 C 0.14518 0.31768 0.76562 0.0
C1837 C 0.15651 0.31742 0.7639 0.0
C1838 C 0.16073 0.31373 0.75397 0.0
C1839 C 0.15368 0.31023 0.74572 0.0
C1840 C 0.1424 0.31036 0.74741 0.0
C1841 C 0.13814 0.31405 0.75734 0.0
H1842 H 0.15695 0.30739 0.73803 0.0
H1843 H 0.11339 0.34532 0.83239 0.0
H1844 H 0.88025 0.40449 0.03394 0.0
H1845 H 0.89699 0.3978 0.04175 0.0
H1846 H 0.91156 0.3967 0.00975 0.0
H1847 H 0.89442 0.40387 0.00179 0.0
H1848 H 0.91294 0.37646 0.02511 0.0
H1849 H 0.92121 0.41449 0.02317 0.0
H1850 H 0.91719 0.4341 0.02507 0.0
H1851 H 0.91293 0.43011 0.05957 0.0
H1852 H 0.91658 0.4104 0.05789 0.0
H1853 H 0.96254 0.3651 0.05523 0.0
H1854 H 0.94936 0.37182 0.04188 0.0
H1855 H 0.92838 0.3827 0.06794 0.0
H1856 H 0.94142 0.37589 0.0814 0.0
H1857 H 0.93304 0.39883 0.05223 0.0
H1858 H 0.92091 0.36181 0.05448 0.0
H1859 H 0.92209 0.34176 0.05368 0.0
H1860 H 0.93149 0.34346 0.01998 0.0
H1861 H 0.93054 0.36357 0.02063 0.0
C1862 C 0.88688 0.40283 0.02851 0.0
C1863 C 0.88593 0.40462 0.01727 0.0
C1864 C 0.89653 0.39904 0.03301 0.0
C1865 C 0.90549 0.39681 0.02633 0.0
C1866 C 0.90468 0.39845 0.01501 0.0
C1867 C 0.89496 0.40253 0.01051 0.0
C1868 C 0.91547 0.39259 0.03156 0.0
C1869 C 0.91764 0.38139 0.03077 0.0
C1870 C 0.92119 0.39901 0.03925 0.0
C1871 C 0.91912 0.41092 0.04038 0.0
C1872 C 0.91931 0.41776 0.03116 0.0
C1873 C 0.91709 0.4289 0.0322 0.0
C1874 C 0.91476 0.43334 0.04244 0.0
C1875 C 0.91468 0.42664 0.05166 0.0
C1876 C 0.91683 0.41548 0.05066 0.0
C1877 C 0.95507 0.36882 0.05816 0.0
C1878 C 0.95308 0.37005 0.06941 0.0
C1879 C 0.94755 0.37263 0.05049 0.0
C1880 C 0.93796 0.3778 0.05394 0.0
C1881 C 0.93579 0.37877 0.06514 0.0
C1882 C 0.94323 0.37483 0.07282 0.0
C1883 C 0.9304 0.38265 0.0459 0.0
C1884 C 0.92865 0.39395 0.04629 0.0
C1885 C 0.92492 0.37628 0.03798 0.0
C1886 C 0.92586 0.36421 0.03766 0.0
C1887 C 0.92341 0.35793 0.04695 0.0
C1888 C 0.92399 0.34655 0.04651 0.0
C1889 C 0.92692 0.34134 0.0368 0.0
C1890 C 0.92927 0.34751 0.02751 0.0
C1891 C 0.92872 0.3589 0.02791 0.0
H1892 H 0.92733 0.33252 0.03647 0.0
H1893 H 0.91304 0.44196 0.04323 0.0
H1894 H 0.82735 0.14029 0.27208 0.0
H1895 H 0.83491 0.15493 0.28301 0.0
H1896 H 0.86319 0.15606 0.26192 0.0
H1897 H 0.85627 0.14008 0.2521 0.0
H1898 H 0.87038 0.15731 0.28007 0.0
H1899 H 0.84025 0.17763 0.26481 0.0
H1900 H 0.82092 0.18044 0.25992 0.0
H1901 H 0.81186 0.17836 0.2937 0.0
H1902 H 0.83112 0.17547 0.29878 0.0
H1903 H 0.88794 0.20737 0.30622 0.0
H1904 H 0.88081 0.19427 0.29289 0.0
H1905 H 0.85898 0.1813 0.31723 0.0
H1906 H 0.86617 0.1942 0.33065 0.0
H1907 H 0.84902 0.18745 0.29656 0.0
H1908 H 0.8792 0.16677 0.31127 0.0
H1909 H 0.89847 0.16346 0.31598 0.0
H1910 H 0.90747 0.1667 0.28227 0.0
H1911 H 0.88826 0.17023 0.27739 0.0
C1912 C 0.83507 0.14385 0.26966 0.0
C1913 C 0.84122 0.13916 0.26124 0.0
C1914 C 0.83938 0.15236 0.27585 0.0
C1915 C 0.84958 0.15695 0.27323 0.0
C1916 C 0.85534 0.15273 0.26421 0.0
C1917 C 0.85132 0.14372 0.25846 0.0
C1918 C 0.85468 0.16534 0.28047 0.0
C1919 C 0.86572 0.16405 0.28339 0.0
C1920 C 0.84863 0.17404 0.28518 0.0
C1921 C 0.83713 0.17632 0.28216 0.0
C1922 C 0.83414 0.1778 0.27119 0.0
C1923 C 0.82319 0.17939 0.26839 0.0
C1924 C 0.81517 0.17957 0.27649 0.0
C1925 C 0.81809 0.17824 0.28743 0.0
C1926 C 0.82902 0.17667 0.29028 0.0
C1927 C 0.88171 0.20165 0.30877 0.0
C1928 C 0.87763 0.2018 0.3195 0.0
C1929 C 0.87765 0.19418 0.30114 0.0
C1930 C 0.86936 0.18687 0.30409 0.0
C1931 C 0.86537 0.18691 0.31481 0.0
C1932 C 0.86954 0.19423 0.32248 0.0
C1933 C 0.86458 0.17936 0.29593 0.0
C1934 C 0.85364 0.18082 0.29293 0.0
C1935 C 0.87074 0.17095 0.29103 0.0
C1936 C 0.88231 0.16892 0.29398 0.0
C1937 C 0.8853 0.16692 0.30488 0.0
C1938 C 0.89621 0.16497 0.30757 0.0
C1939 C 0.9042 0.16491 0.29944 0.0
C1940 C 0.90128 0.16678 0.28858 0.0
C1941 C 0.89038 0.16876 0.28584 0.0
H1942 H 0.91264 0.16339 0.30154 0.0
H1943 H 0.8067 0.18075 0.2743 0.0
H1944 H 0.05736 0.86929 0.41873 0.0
H1945 H 0.07097 0.87459 0.43248 0.0
H1946 H 0.04536 0.8794 0.45609 0.0
H1947 H 0.03179 0.87377 0.44263 0.0
H1948 H 0.06682 0.89731 0.44613 0.0
H1949 H 0.05296 0.86482 0.46742 0.0
H1950 H 0.04906 0.84511 0.46846 0.0
H1951 H 0.08178 0.83792 0.4582 0.0
H1952 H 0.08577 0.85762 0.45685 0.0
H1953 H 0.10027 0.91627 0.4885 0.0
H1954 H 0.08417 0.90842 0.47968 0.0
H1955 H 0.10287 0.87985 0.47099 0.0
H1956 H 0.11862 0.88725 0.48047 0.0
H1957 H 0.08374 0.87356 0.4742 0.0
H1958 H 0.09906 0.90251 0.45276 0.0
H1959 H 0.10555 0.92107 0.44869 0.0
H1960 H 0.0738 0.93401 0.45587 0.0
H1961 H 0.06708 0.91544 0.45992 0.0
C1962 C 0.05467 0.87134 0.4269 0.0
C1963 C 0.04354 0.87105 0.42963 0.0
C1964 C 0.06243 0.87431 0.43473 0.0
C1965 C 0.05914 0.87714 0.44532 0.0
C1966 C 0.04805 0.87694 0.44804 0.0
C1967 C 0.04033 0.87376 0.44032 0.0
C1968 C 0.06718 0.88128 0.45325 0.0
C1969 C 0.07041 0.8922 0.45241 0.0
C1970 C 0.07208 0.87447 0.46113 0.0
C1971 C 0.06958 0.86267 0.46181 0.0
C1972 C 0.05925 0.85904 0.46519 0.0
C1973 C 0.05704 0.84787 0.46588 0.0
C1974 C 0.06515 0.84026 0.46334 0.0
C1975 C 0.07549 0.84381 0.46011 0.0
C1976 C 0.07772 0.85498 0.45936 0.0
C1977 C 0.10085 0.9082 0.48495 0.0
C1978 C 0.11081 0.90251 0.48489 0.0
C1979 C 0.09168 0.90377 0.4798 0.0
C1980 C 0.0924 0.8937 0.47432 0.0
C1981 C 0.1021 0.88768 0.47502 0.0
C1982 C 0.11117 0.89199 0.48035 0.0
C1983 C 0.0834 0.88974 0.46723 0.0
C1984 C 0.08003 0.87881 0.46811 0.0
C1985 C 0.07862 0.89646 0.45912 0.0
C1986 C 0.08262 0.90763 0.4568 0.0
C1987 C 0.09349 0.90932 0.45357 0.0
C1988 C 0.09721 0.91985 0.45127 0.0
C1989 C 0.09014 0.92875 0.45215 0.0
C1990 C 0.07929 0.92712 0.45525 0.0
C1991 C 0.07551 0.91659 0.45752 0.0
H1992 H 0.09304 0.93689 0.45035 0.0
H1993 H 0.06343 0.83162 0.46392 0.0
H1994 H 0.32885 0.35249 0.73418 0.0
H1995 H 0.33689 0.33629 0.72558 0.0
H1996 H 0.36847 0.3518 0.72578 0.0
H1997 H 0.36056 0.3679 0.73442 0.0
H1998 H 0.34721 0.3382 0.70477 0.0
H1999 H 0.38518 0.33672 0.72888 0.0
H2000 H 0.39172 0.33791 0.74791 0.0
H2001 H 0.36347 0.32028 0.75886 0.0
H2002 H 0.35672 0.31917 0.73989 0.0
H2003 H 0.38378 0.31055 0.67064 0.0
H2004 H 0.37696 0.32358 0.68412 0.0
H2005 H 0.37009 0.29715 0.7063 0.0
H2006 H 0.37728 0.28411 0.69307 0.0
H2007 H 0.37783 0.31476 0.71721 0.0
H2008 H 0.34993 0.30751 0.69023 0.0
H2009 H 0.34301 0.30614 0.67139 0.0
H2010 H 0.34969 0.34016 0.66628 0.0
H2011 H 0.35677 0.3417 0.68506 0.0
C2012 C 0.33756 0.35229 0.73271 0.0
C2013 C 0.34408 0.36147 0.7349 0.0
C2014 C 0.34213 0.34307 0.72776 0.0
C2015 C 0.35327 0.34285 0.7251 0.0
C2016 C 0.35989 0.35174 0.72792 0.0
C2017 C 0.35534 0.36095 0.73279 0.0
C2018 C 0.35776 0.33404 0.71819 0.0
C2019 C 0.35385 0.33302 0.70749 0.0
C2020 C 0.3664 0.32732 0.72174 0.0
C2021 C 0.37048 0.32787 0.73305 0.0
C2022 C 0.38041 0.33308 0.73537 0.0
C2023 C 0.38412 0.33379 0.74613 0.0
C2024 C 0.37802 0.32917 0.75459 0.0
C2025 C 0.36818 0.32387 0.75231 0.0
C2026 C 0.36438 0.32325 0.74157 0.0
C2027 C 0.38094 0.30753 0.67844 0.0
C2028 C 0.38096 0.2963 0.68075 0.0
C2029 C 0.37704 0.31498 0.68613 0.0
C2030 C 0.37285 0.3113 0.69614 0.0
C2031 C 0.37331 0.30015 0.69865 0.0
C2032 C 0.37738 0.29271 0.69104 0.0
C2033 C 0.36737 0.31899 0.70368 0.0
C2034 C 0.37112 0.31985 0.71447 0.0
C2035 C 0.3585 0.32554 0.7002 0.0
C2036 C 0.35393 0.3247 0.68903 0.0
C2037 C 0.34994 0.31469 0.68508 0.0
C2038 C 0.346 0.31388 0.67441 0.0
C2039 C 0.34592 0.32305 0.66764 0.0
C2040 C 0.34975 0.33306 0.67154 0.0
C2041 C 0.35371 0.33391 0.6822 0.0
H2042 H 0.34288 0.3224 0.65937 0.0
H2043 H 0.38091 0.3297 0.76291 0.0
H2044 H 0.88088 0.61183 0.9828 0.0
H2045 H 0.89659 0.6192 0.9729 0.0
H2046 H 0.91221 0.58769 0.97415 0.0
H2047 H 0.89655 0.58026 0.9841 0.0
H2048 H 0.91998 0.61965 0.97717 0.0
H2049 H 0.91787 0.58207 0.9512 0.0
H2050 H 0.90498 0.56971 0.9418 0.0
H2051 H 0.8822 0.59608 0.93807 0.0
H2052 H 0.89494 0.60853 0.94752 0.0
H2053 H 0.96684 0.62306 0.94221 0.0
H2054 H 0.9527 0.61813 0.95543 0.0
H2055 H 0.92816 0.62177 0.9304 0.0
H2056 H 0.94231 0.6261 0.91709 0.0
H2057 H 0.92454 0.60427 0.94002 0.0
H2058 H 0.93309 0.64016 0.95226 0.0
H2059 H 0.9439 0.65558 0.95932 0.0
H2060 H 0.95056 0.63774 0.98869 0.0
H2061 H 0.94018 0.62202 0.98164 0.0
C2062 C 0.88778 0.60655 0.98118 0.0
C2063 C 0.88751 0.59548 0.98419 0.0
C2064 C 0.89673 0.61076 0.97554 0.0
C2065 C 0.90546 0.60395 0.97275 0.0
C2066 C 0.90548 0.59304 0.97623 0.0
C2067 C 0.89658 0.58884 0.98198 0.0
C2068 C 0.91414 0.60799 0.96547 0.0
C2069 C 0.92113 0.61629 0.96907 0.0
C2070 C 0.91528 0.60383 0.95482 0.0
C2071 C 0.90729 0.59616 0.95008 0.0
C2072 C 0.91007 0.58517 0.94845 0.0
C2073 C 0.90281 0.57817 0.9431 0.0
C2074 C 0.89282 0.58214 0.93928 0.0
C2075 C 0.88995 0.59304 0.94102 0.0
C2076 C 0.89715 0.60004 0.94642 0.0
C2077 C 0.95841 0.62282 0.93957 0.0
C2078 C 0.95565 0.62484 0.92862 0.0
C2079 C 0.95033 0.62009 0.94715 0.0
C2080 C 0.93933 0.61964 0.94395 0.0
C2081 C 0.93659 0.62197 0.93306 0.0
C2082 C 0.94467 0.62442 0.92545 0.0
C2083 C 0.93072 0.616 0.95165 0.0
C2084 C 0.92365 0.60769 0.94814 0.0
C2085 C 0.92937 0.62048 0.96226 0.0
C2086 C 0.93599 0.6298 0.96632 0.0
C2087 C 0.93704 0.63942 0.96013 0.0
C2088 C 0.94309 0.64822 0.96414 0.0
C2089 C 0.948 0.6476 0.9744 0.0
C2090 C 0.94685 0.63817 0.98069 0.0
C2091 C 0.94092 0.62929 0.97667 0.0
H2092 H 0.95264 0.65444 0.97751 0.0
H2093 H 0.88731 0.57679 0.93494 0.0
H2094 H 0.62541 0.18957 0.17022 0.0
H2095 H 0.6315 0.17689 0.18437 0.0
H2096 H 0.62808 0.20208 0.20865 0.0
H2097 H 0.62174 0.21484 0.19462 0.0
H2098 H 0.65039 0.18489 0.20423 0.0
H2099 H 0.61079 0.18978 0.21359 0.0
H2100 H 0.59165 0.18987 0.20732 0.0
H2101 H 0.59554 0.15752 0.19441 0.0
H2102 H 0.61475 0.15733 0.20043 0.0
H2103 H 0.66466 0.14482 0.24266 0.0
H2104 H 0.6571 0.16182 0.23547 0.0
H2105 H 0.63167 0.14343 0.21932 0.0
H2106 H 0.63785 0.1271 0.22829 0.0
H2107 H 0.62354 0.16013 0.22162 0.0
H2108 H 0.66 0.15339 0.20745 0.0
H2109 H 0.67998 0.15082 0.20831 0.0
H2110 H 0.68354 0.18209 0.22369 0.0
H2111 H 0.6636 0.18482 0.223 0.0
C2112 C 0.62596 0.19244 0.17856 0.0
C2113 C 0.62301 0.20319 0.18131 0.0
C2114 C 0.62944 0.18519 0.18661 0.0
C2115 C 0.63015 0.18859 0.19749 0.0
C2116 C 0.62751 0.19936 0.20027 0.0
C2117 C 0.62387 0.20659 0.19225 0.0
C2118 C 0.63346 0.18072 0.20594 0.0
C2119 C 0.64457 0.17954 0.20823 0.0
C2120 C 0.62585 0.17352 0.21066 0.0
C2121 C 0.61421 0.17358 0.20739 0.0
C2122 C 0.60758 0.18273 0.20934 0.0
C2123 C 0.59672 0.18279 0.20585 0.0
C2124 C 0.59239 0.17372 0.20045 0.0
C2125 C 0.5989 0.16455 0.19858 0.0
C2126 C 0.60976 0.16446 0.20204 0.0
C2127 C 0.65728 0.14451 0.23781 0.0
C2128 C 0.65223 0.13448 0.23549 0.0
C2129 C 0.65307 0.15422 0.23349 0.0
C2130 C 0.64416 0.15398 0.22622 0.0
C2131 C 0.63867 0.14403 0.22467 0.0
C2132 C 0.64243 0.13451 0.22958 0.0
C2133 C 0.64074 0.16379 0.21981 0.0
C2134 C 0.62953 0.16544 0.21785 0.0
C2135 C 0.64837 0.17095 0.21478 0.0
C2136 C 0.66032 0.16925 0.2153 0.0
C2137 C 0.66505 0.15968 0.21107 0.0
C2138 C 0.67636 0.15821 0.21151 0.0
C2139 C 0.68301 0.16627 0.21607 0.0
C2140 C 0.67838 0.17584 0.22018 0.0
C2141 C 0.66708 0.17736 0.21977 0.0
H2142 H 0.69176 0.1651 0.21639 0.0
H2143 H 0.58398 0.17378 0.19775 0.0
H2144 H 0.56148 0.04459 0.14204 0.0
H2145 H 0.54809 0.0587 0.13739 0.0
H2146 H 0.56112 0.06003 0.10465 0.0
H2147 H 0.57497 0.04656 0.10959 0.0
H2148 H 0.55868 0.07931 0.11188 0.0
H2149 H 0.53555 0.04648 0.11447 0.0
H2150 H 0.52746 0.03121 0.12477 0.0
H2151 H 0.51278 0.05381 0.14715 0.0
H2152 H 0.52113 0.0692 0.13725 0.0
H2153 H 0.51828 0.10363 0.0798 0.0
H2154 H 0.52779 0.0884 0.0886 0.0
H2155 H 0.51964 0.10145 0.12024 0.0
H2156 H 0.51047 0.11695 0.11146 0.0
H2157 H 0.51859 0.07606 0.1164 0.0
H2158 H 0.54111 0.10755 0.11718 0.0
H2159 H 0.55148 0.12385 0.1116 0.0
H2160 H 0.56784 0.10518 0.08686 0.0
H2161 H 0.5574 0.0888 0.09223 0.0
C2162 C 0.56145 0.04797 0.13388 0.0
C2163 C 0.56926 0.04464 0.12617 0.0
C2164 C 0.55373 0.05593 0.13118 0.0
C2165 C 0.55343 0.06031 0.1206 0.0
C2166 C 0.56118 0.0568 0.11288 0.0
C2167 C 0.56911 0.04914 0.11568 0.0
C2168 C 0.5456 0.06903 0.11757 0.0
C2169 C 0.5499 0.07845 0.1127 0.0
C2170 C 0.53417 0.06831 0.11935 0.0
C2171 C 0.52904 0.05899 0.12514 0.0
C2172 C 0.53066 0.04819 0.12162 0.0
C2173 C 0.52602 0.03951 0.12739 0.0
C2174 C 0.51955 0.04154 0.13657 0.0
C2175 C 0.51777 0.05225 0.14003 0.0
C2176 C 0.52249 0.06095 0.13436 0.0
C2177 C 0.51819 0.10304 0.08862 0.0
C2178 C 0.51361 0.11137 0.09499 0.0
C2179 C 0.52367 0.0944 0.09363 0.0
C2180 C 0.52441 0.09388 0.10504 0.0
C2181 C 0.5191 0.10173 0.11142 0.0
C2182 C 0.51387 0.11053 0.10641 0.0
C2183 C 0.53175 0.08584 0.11014 0.0
C2184 C 0.52737 0.07673 0.11549 0.0
C2185 C 0.54316 0.08691 0.10914 0.0
C2186 C 0.54838 0.097 0.10499 0.0
C2187 C 0.54671 0.10699 0.11037 0.0
C2188 C 0.55268 0.11621 0.10733 0.0
C2189 C 0.56039 0.11552 0.09897 0.0
C2190 C 0.56192 0.10569 0.09339 0.0
C2191 C 0.55596 0.09644 0.09641 0.0
H2192 H 0.5652 0.12261 0.09685 0.0
H2193 H 0.51591 0.03481 0.14098 0.0
H2194 H 0.02489 0.88925 0.4207 0.0
H2195 H 0.03522 0.90452 0.41342 0.0
H2196 H 0.01166 0.90806 0.38741 0.0
H2197 H 0.00213 0.89172 0.39402 0.0
H2198 H 0.02968 0.90994 0.37899 0.0
H2199 H 0.01564 0.92706 0.41158 0.0
H2200 H 0.0119 0.92835 0.43132 0.0
H2201 H 0.04626 0.9271 0.43809 0.0
H2202 H 0.05019 0.92569 0.41842 0.0
H2203 H 0.05547 0.96006 0.36259 0.0
H2204 H 0.04208 0.94723 0.37001 0.0
H2205 H 0.06654 0.9341 0.39162 0.0
H2206 H 0.08 0.94683 0.38426 0.0
H2207 H 0.04656 0.93876 0.40184 0.0
H2208 H 0.06041 0.92044 0.36986 0.0
H2209 H 0.06456 0.9184 0.35029 0.0
H2210 H 0.03056 0.92181 0.34254 0.0
H2211 H 0.02623 0.92406 0.36208 0.0
C2212 C 0.02184 0.89342 0.41353 0.0
C2213 C 0.01269 0.88947 0.40796 0.0
C2214 C 0.02768 0.90227 0.40942 0.0
C2215 C 0.0241 0.90776 0.40001 0.0
C2216 C 0.0146 0.90404 0.39471 0.0
C2217 C 0.00907 0.89481 0.39853 0.0
C2218 C 0.03076 0.91674 0.39522 0.0
C2219 C 0.03311 0.9164 0.38398 0.0
C2220 C 0.03556 0.92504 0.40171 0.0
C2221 C 0.0332 0.92624 0.41352 0.0
C2222 C 0.02239 0.92706 0.41728 0.0
C2223 C 0.02024 0.9278 0.42846 0.0
C2224 C 0.02884 0.9278 0.43595 0.0
C2225 C 0.03961 0.92711 0.43228 0.0
C2226 C 0.0418 0.92637 0.42112 0.0
C2227 C 0.058 0.95445 0.36893 0.0
C2228 C 0.06882 0.95443 0.37282 0.0
C2229 C 0.05035 0.94711 0.37312 0.0
C2230 C 0.05336 0.93971 0.3813 0.0
C2231 C 0.06408 0.93977 0.3853 0.0
C2232 C 0.07176 0.94701 0.38105 0.0
C2233 C 0.04538 0.93185 0.38576 0.0
C2234 C 0.04285 0.93242 0.39688 0.0
C2235 C 0.04039 0.92381 0.37918 0.0
C2236 C 0.04301 0.92258 0.36742 0.0
C2237 C 0.05383 0.9209 0.36398 0.0
C2238 C 0.05621 0.91967 0.35289 0.0
C2239 C 0.04783 0.92002 0.34517 0.0
C2240 C 0.03705 0.92157 0.34853 0.0
C2241 C 0.03462 0.92283 0.35961 0.0
H2242 H 0.04969 0.91904 0.33659 0.0
H2243 H 0.02715 0.92835 0.4446 0.0
H2244 H 0.30564 0.32955 0.62213 0.0
H2245 H 0.31905 0.3158 0.6275 0.0
H2246 H 0.29459 0.29065 0.62485 0.0
H2247 H 0.2811 0.30432 0.61937 0.0
H2248 H 0.30705 0.29043 0.6448 0.0
H2249 H 0.31279 0.29105 0.60598 0.0
H2250 H 0.31605 0.29965 0.58808 0.0
H2251 H 0.34607 0.31332 0.59989 0.0
H2252 H 0.34291 0.30495 0.6179 0.0
H2253 H 0.35267 0.25342 0.65591 0.0
H2254 H 0.33571 0.26086 0.64796 0.0
H2255 H 0.35198 0.29157 0.64236 0.0
H2256 H 0.36844 0.28436 0.65026 0.0
H2257 H 0.34151 0.2848 0.62434 0.0
H2258 H 0.33462 0.28886 0.663 0.0
H2259 H 0.33201 0.28249 0.6819 0.0
H2260 H 0.3053 0.26228 0.67158 0.0
H2261 H 0.30783 0.26849 0.65258 0.0
C2262 C 0.30311 0.32109 0.62262 0.0
C2263 C 0.29231 0.31803 0.6203 0.0
C2264 C 0.31079 0.31325 0.62566 0.0
C2265 C 0.3078 0.30222 0.62649 0.0
C2266 C 0.29704 0.29912 0.62421 0.0
C2267 C 0.28937 0.30695 0.62104 0.0
C2268 C 0.31592 0.29406 0.63007 0.0
C2269 C 0.31448 0.28896 0.64022 0.0
C2270 C 0.32567 0.29235 0.62416 0.0
C2271 C 0.32758 0.29741 0.61331 0.0
C2272 C 0.32004 0.29596 0.60478 0.0
C2273 C 0.32188 0.30078 0.59461 0.0
C2274 C 0.33125 0.30704 0.59285 0.0
C2275 C 0.33881 0.30847 0.60126 0.0
C2276 C 0.33701 0.30368 0.61145 0.0
C2277 C 0.35256 0.26174 0.65293 0.0
C2278 C 0.36205 0.26817 0.6533 0.0
C2279 C 0.3429 0.26597 0.64842 0.0
C2280 C 0.34267 0.27671 0.64438 0.0
C2281 C 0.35205 0.28318 0.64514 0.0
C2282 C 0.36157 0.27897 0.64957 0.0
C2283 C 0.33284 0.28152 0.63928 0.0
C2284 C 0.33394 0.28598 0.62879 0.0
C2285 C 0.32293 0.28288 0.64501 0.0
C2286 C 0.32152 0.279 0.65636 0.0
C2287 C 0.32827 0.28297 0.66475 0.0
C2288 C 0.32678 0.27942 0.67548 0.0
C2289 C 0.31852 0.27194 0.67793 0.0
C2290 C 0.31171 0.26804 0.66966 0.0
C2291 C 0.31316 0.27158 0.65891 0.0
H2292 H 0.31737 0.26921 0.68625 0.0
H2293 H 0.33266 0.31076 0.58497 0.0
H2294 H 0.9959 0.60942 0.89049 0.0
H2295 H 0.98595 0.5937 0.88322 0.0
H2296 H 0.96762 0.59158 0.91326 0.0
H2297 H 0.97833 0.60656 0.92083 0.0
H2298 H 0.96864 0.57288 0.90635 0.0
H2299 H 0.95832 0.60617 0.88832 0.0
H2300 H 0.9606 0.62308 0.87762 0.0
H2301 H 0.97399 0.60466 0.851 0.0
H2302 H 0.97169 0.58762 0.8615 0.0
H2303 H 0.91932 0.55179 0.88477 0.0
H2304 H 0.93273 0.565 0.89133 0.0
H2305 H 0.955 0.55515 0.86593 0.0
H2306 H 0.94156 0.54191 0.85925 0.0
H2307 H 0.95257 0.57894 0.86968 0.0
H2308 H 0.95963 0.54501 0.88934 0.0
H2309 H 0.95321 0.52947 0.9004 0.0
H2310 H 0.94204 0.55152 0.92523 0.0
H2311 H 0.94827 0.56721 0.91425 0.0
C2312 C 0.99007 0.60524 0.89566 0.0
C2313 C 0.98794 0.60904 0.90623 0.0
C2314 C 0.98421 0.59642 0.89144 0.0
C2315 C 0.9757 0.59167 0.89751 0.0
C2316 C 0.97408 0.59507 0.90835 0.0
C2317 C 0.98026 0.6036 0.91272 0.0
C2318 C 0.96807 0.58368 0.89243 0.0
C2319 C 0.96512 0.5743 0.89836 0.0
C2320 C 0.96337 0.58541 0.88198 0.0
C2321 C 0.96496 0.59565 0.87574 0.0
C2322 C 0.96182 0.60574 0.88022 0.0
C2323 C 0.96309 0.61534 0.87418 0.0
C2324 C 0.96751 0.61495 0.86368 0.0
C2325 C 0.9706 0.60495 0.85915 0.0
C2326 C 0.96928 0.59532 0.86512 0.0
C2327 C 0.92698 0.55256 0.88046 0.0
C2328 C 0.92936 0.54585 0.87148 0.0
C2329 C 0.93466 0.56005 0.88426 0.0
C2330 C 0.94485 0.56097 0.87914 0.0
C2331 C 0.94716 0.55453 0.86997 0.0
C2332 C 0.93951 0.54695 0.86622 0.0
C2333 C 0.95323 0.56837 0.88365 0.0
C2334 C 0.95626 0.57757 0.87761 0.0
C2335 C 0.95765 0.56672 0.89415 0.0
C2336 C 0.95439 0.55727 0.90097 0.0
C2337 C 0.9558 0.54654 0.89715 0.0
C2338 C 0.95218 0.53771 0.9034 0.0
C2339 C 0.94721 0.53951 0.9135 0.0
C2340 C 0.9459 0.55014 0.91741 0.0
C2341 C 0.94949 0.559 0.91119 0.0
H2342 H 0.94438 0.53266 0.91831 0.0
H2343 H 0.9685 0.6224 0.85904 0.0
H2344 H 0.21322 0.69328 0.11826 0.0
H2345 H 0.1992 0.70626 0.12381 0.0
H2346 H 0.17846 0.6797 0.13395 0.0
H2347 H 0.19243 0.66657 0.12833 0.0
H2348 H 0.167 0.6955 0.12302 0.0
H2349 H 0.19271 0.69337 0.15255 0.0
H2350 H 0.21095 0.69404 0.161 0.0
H2351 H 0.2145 0.72747 0.15111 0.0
H2352 H 0.19632 0.72694 0.14245 0.0
H2353 H 0.13858 0.72269 0.16841 0.0
H2354 H 0.1542 0.71302 0.16046 0.0
H2355 H 0.15401 0.73516 0.13311 0.0
H2356 H 0.13787 0.74439 0.14072 0.0
H2357 H 0.17616 0.72283 0.15151 0.0
H2358 H 0.15049 0.72244 0.11873 0.0
H2359 H 0.13159 0.72075 0.11199 0.0
H2360 H 0.12779 0.69076 0.12971 0.0
H2361 H 0.14657 0.69249 0.13683 0.0
C2362 C 0.20566 0.69016 0.12162 0.0
C2363 C 0.20399 0.67886 0.12292 0.0
C2364 C 0.19767 0.69761 0.1248 0.0
C2365 C 0.18785 0.69395 0.12938 0.0
C2366 C 0.186 0.68269 0.13042 0.0
C2367 C 0.19401 0.6752 0.12726 0.0
C2368 C 0.17967 0.70187 0.13344 0.0
C2369 C 0.16905 0.70152 0.12919 0.0
C2370 C 0.18232 0.70972 0.14151 0.0
C2371 C 0.19321 0.71008 0.14675 0.0
C2372 C 0.19742 0.70084 0.1521 0.0
C2373 C 0.20774 0.7012 0.15694 0.0
C2374 C 0.21389 0.71079 0.15656 0.0
C2375 C 0.20973 0.72005 0.15137 0.0
C2376 C 0.19941 0.71972 0.14651 0.0
C2377 C 0.14201 0.72558 0.16079 0.0
C2378 C 0.13716 0.73426 0.15515 0.0
C2379 C 0.15088 0.72005 0.15626 0.0
C2380 C 0.15509 0.72327 0.14612 0.0
C2381 C 0.15068 0.73241 0.14081 0.0
C2382 C 0.14159 0.73774 0.1452 0.0
C2383 C 0.16364 0.71659 0.14091 0.0
C2384 C 0.17427 0.71703 0.14509 0.0
C2385 C 0.16102 0.70881 0.13282 0.0
C2386 C 0.14981 0.70772 0.12848 0.0
C2387 C 0.14555 0.71559 0.12132 0.0
C2388 C 0.13488 0.71461 0.11742 0.0
C2389 C 0.12847 0.70569 0.12047 0.0
C2390 C 0.13274 0.69771 0.12741 0.0
C2391 C 0.14338 0.6987 0.13141 0.0
H2392 H 0.12022 0.70493 0.11742 0.0
H2393 H 0.22188 0.71105 0.16032 0.0
H2394 H 0.43097 0.95855 0.10828 0.0
H2395 H 0.44518 0.9457 0.10273 0.0
H2396 H 0.44927 0.93563 0.13624 0.0
H2397 H 0.43551 0.94918 0.14188 0.0
H2398 H 0.46841 0.93423 0.12599 0.0
H2399 H 0.43364 0.91978 0.1203 0.0
H2400 H 0.41422 0.9215 0.11541 0.0
H2401 H 0.42306 0.92794 0.08211 0.0
H2402 H 0.44258 0.92654 0.08691 0.0
H2403 H 0.48632 0.88094 0.10921 0.0
H2404 H 0.47721 0.8967 0.11716 0.0
H2405 H 0.47545 0.91175 0.08539 0.0
H2406 H 0.4843 0.8957 0.07728 0.0
H2407 H 0.45531 0.91001 0.09624 0.0
H2408 H 0.49274 0.92108 0.10583 0.0
H2409 H 0.51033 0.9166 0.11453 0.0
H2410 H 0.49415 0.91199 0.14526 0.0
H2411 H 0.47645 0.91627 0.13671 0.0
C2412 C 0.43497 0.95363 0.11444 0.0
C2413 C 0.43205 0.95456 0.12542 0.0
C2414 C 0.4431 0.94634 0.1113 0.0
C2415 C 0.44809 0.93951 0.11904 0.0
C2416 C 0.4455 0.94079 0.13013 0.0
C2417 C 0.43758 0.94839 0.13332 0.0
C2418 C 0.45503 0.93034 0.11526 0.0
C2419 C 0.46556 0.92891 0.11951 0.0
C2420 C 0.45118 0.9231 0.10715 0.0
C2421 C 0.43953 0.92301 0.10394 0.0
C2422 C 0.43142 0.92149 0.11192 0.0
C2423 C 0.42042 0.92248 0.10919 0.0
C2424 C 0.41741 0.92487 0.09848 0.0
C2425 C 0.4254 0.92611 0.09043 0.0
C2426 C 0.43644 0.92519 0.09313 0.0
C2427 C 0.48428 0.88775 0.10395 0.0
C2428 C 0.48601 0.88713 0.09263 0.0
C2429 C 0.47907 0.89674 0.10852 0.0
C2430 C 0.4757 0.9054 0.10187 0.0
C2431 C 0.47803 0.90513 0.09064 0.0
C2432 C 0.4832 0.89605 0.08604 0.0
C2433 C 0.46895 0.91427 0.1065 0.0
C2434 C 0.45828 0.91546 0.10255 0.0
C2435 C 0.47251 0.92078 0.11537 0.0
C2436 C 0.48327 0.919 0.12062 0.0
C2437 C 0.49294 0.91914 0.11445 0.0
C2438 C 0.50293 0.91661 0.11935 0.0
C2439 C 0.50336 0.91401 0.13044 0.0
C2440 C 0.49381 0.91402 0.13668 0.0
C2441 C 0.48381 0.91652 0.13181 0.0
H2442 H 0.51109 0.912 0.13421 0.0
H2443 H 0.40888 0.9258 0.09651 0.0
H2444 H 0.28484 0.19206 0.87392 0.0
H2445 H 0.29857 0.20545 0.86831 0.0
H2446 H 0.32413 0.1825 0.87588 0.0
H2447 H 0.3104 0.16886 0.88114 0.0
H2448 H 0.32507 0.20786 0.88359 0.0
H2449 H 0.32127 0.18191 0.85341 0.0
H2450 H 0.31027 0.1717 0.84002 0.0
H2451 H 0.29819 0.20181 0.82679 0.0
H2452 H 0.30894 0.21219 0.84031 0.0
H2453 H 0.37343 0.2258 0.85984 0.0
H2454 H 0.35769 0.21665 0.86726 0.0
H2455 H 0.33734 0.23133 0.84251 0.0
H2456 H 0.35358 0.23939 0.83407 0.0
H2457 H 0.33172 0.21199 0.84386 0.0
H2458 H 0.33748 0.2383 0.87218 0.0
H2459 H 0.3484 0.24868 0.88554 0.0
H2460 H 0.35625 0.21901 0.90243 0.0
H2461 H 0.34551 0.20844 0.88911 0.0
C2462 C 0.29339 0.18988 0.87447 0.0
C2463 C 0.29658 0.1794 0.87791 0.0
C2464 C 0.30119 0.19754 0.87127 0.0
C2465 C 0.3123 0.19491 0.87169 0.0
C2466 C 0.31555 0.18463 0.87553 0.0
C2467 C 0.30774 0.17685 0.87846 0.0
C2468 C 0.32049 0.20265 0.86749 0.0
C2469 C 0.32661 0.20878 0.87492 0.0
C2470 C 0.32213 0.20405 0.85618 0.0
C2471 C 0.31575 0.19782 0.848 0.0
C2472 C 0.31612 0.18635 0.84778 0.0
C2473 C 0.30995 0.18053 0.84015 0.0
C2474 C 0.30348 0.1861 0.83261 0.0
C2475 C 0.30318 0.1975 0.83267 0.0
C2476 C 0.3093 0.20336 0.84031 0.0
C2477 C 0.36565 0.22704 0.85586 0.0
C2478 C 0.36485 0.23305 0.84614 0.0
C2479 C 0.35653 0.22198 0.86032 0.0
C2480 C 0.34618 0.22342 0.85563 0.0
C2481 C 0.34522 0.23005 0.8463 0.0
C2482 C 0.35449 0.23474 0.84153 0.0
C2483 C 0.33665 0.21724 0.85996 0.0
C2484 C 0.33016 0.21134 0.85255 0.0
C2485 C 0.33461 0.21616 0.87132 0.0
C2486 C 0.3407 0.22258 0.87962 0.0
C2487 C 0.34154 0.23399 0.87874 0.0
C2488 C 0.34771 0.2399 0.8863 0.0
C2489 C 0.35302 0.23451 0.89482 0.0
C2490 C 0.35212 0.22319 0.89584 0.0
C2491 C 0.34597 0.21723 0.8883 0.0
H2492 H 0.35782 0.23909 0.90064 0.0
H2493 H 0.29873 0.18158 0.82669 0.0
H2494 H 0.69031 0.32969 0.38008 0.0
H2495 H 0.6768 0.31575 0.37501 0.0
H2496 H 0.70271 0.2927 0.36914 0.0
H2497 H 0.7162 0.30647 0.37424 0.0
H2498 H 0.6849 0.29754 0.35127 0.0
H2499 H 0.69149 0.28663 0.38917 0.0
H2500 H 0.69222 0.29027 0.40895 0.0
H2501 H 0.6586 0.30016 0.40856 0.0
H2502 H 0.65772 0.2967 0.38875 0.0
H2503 H 0.64771 0.25721 0.33534 0.0
H2504 H 0.66415 0.26468 0.34386 0.0
H2505 H 0.64423 0.2799 0.36867 0.0
H2506 H 0.62833 0.27091 0.36138 0.0
H2507 H 0.66118 0.27768 0.37734 0.0
H2508 H 0.6539 0.29227 0.34083 0.0
H2509 H 0.65152 0.29031 0.3209 0.0
H2510 H 0.68378 0.27696 0.31815 0.0
H2511 H 0.68632 0.27872 0.33805 0.0
C2512 C 0.6931 0.32167 0.37767 0.0
C2513 C 0.70428 0.3192 0.37746 0.0
C2514 C 0.6854 0.31371 0.37488 0.0
C2515 C 0.68882 0.30324 0.37175 0.0
C2516 C 0.69996 0.30074 0.37158 0.0
C2517 C 0.70762 0.30861 0.37452 0.0
C2518 C 0.68083 0.29501 0.36813 0.0
C2519 C 0.67974 0.2931 0.35693 0.0
C2520 C 0.67401 0.28946 0.37556 0.0
C2521 C 0.67458 0.29151 0.38746 0.0
C2522 C 0.68429 0.28968 0.39328 0.0
C2523 C 0.68472 0.29168 0.4045 0.0
C2524 C 0.67547 0.29547 0.41 0.0
C2525 C 0.66576 0.29724 0.40429 0.0
C2526 C 0.66529 0.29524 0.39307 0.0
C2527 C 0.64693 0.26191 0.34278 0.0
C2528 C 0.63662 0.26401 0.34732 0.0
C2529 C 0.65632 0.26636 0.34756 0.0
C2530 C 0.65546 0.2735 0.35654 0.0
C2531 C 0.64525 0.27469 0.3616 0.0
C2532 C 0.63603 0.26973 0.35723 0.0
C2533 C 0.66479 0.28039 0.36029 0.0
C2534 C 0.66625 0.28206 0.37156 0.0
C2535 C 0.67164 0.28611 0.35289 0.0
C2536 C 0.67025 0.2855 0.34091 0.0
C2537 C 0.66048 0.28893 0.33596 0.0
C2538 C 0.6591 0.28785 0.32469 0.0
C2539 C 0.66747 0.28347 0.31831 0.0
C2540 C 0.6773 0.28031 0.32313 0.0
C2541 C 0.67872 0.28135 0.33439 0.0
H2542 H 0.66633 0.28248 0.30963 0.0
H2543 H 0.67582 0.29702 0.41869 0.0
H2544 H 0.10281 0.00134 0.60525 0.0
H2545 H 0.11098 0.01034 0.58935 0.0
H2546 H 0.08967 0.03804 0.59442 0.0
H2547 H 0.0805 0.02824 0.60898 0.0
H2548 H 0.09261 0.03814 0.5755 0.0
H2549 H 0.11934 0.03423 0.60436 0.0
H2550 H 0.13084 0.02412 0.61742 0.0
H2551 H 0.1461 0.00693 0.59097 0.0
H2552 H 0.13461 0.01688 0.57775 0.0
H2553 H 0.12573 0.08124 0.5576 0.0
H2554 H 0.11902 0.06765 0.57051 0.0
H2555 H 0.12967 0.0418 0.54918 0.0
H2556 H 0.13646 0.05531 0.53614 0.0
H2557 H 0.13306 0.0393 0.57428 0.0
H2558 H 0.10459 0.04625 0.546 0.0
H2559 H 0.09434 0.05986 0.53522 0.0
H2560 H 0.08408 0.07569 0.56475 0.0
H2561 H 0.09407 0.06208 0.57565 0.0
C2562 C 0.0997 0.00919 0.60264 0.0
C2563 C 0.09114 0.0142 0.60833 0.0
C2564 C 0.1045 0.01446 0.59372 0.0
C2565 C 0.10134 0.02515 0.59087 0.0
C2566 C 0.0924 0.02986 0.59635 0.0
C2567 C 0.08721 0.02431 0.60479 0.0
C2568 C 0.10745 0.03171 0.58259 0.0
C2569 C 0.10145 0.03834 0.57538 0.0
C2570 C 0.11905 0.03209 0.58218 0.0
C2571 C 0.12604 0.0262 0.59009 0.0
C2572 C 0.12512 0.02827 0.60134 0.0
C2573 C 0.13164 0.02257 0.60877 0.0
C2574 C 0.13917 0.01486 0.60503 0.0
C2575 C 0.14024 0.01288 0.59385 0.0
C2576 C 0.13374 0.01855 0.58639 0.0
C2577 C 0.12681 0.07268 0.55568 0.0
C2578 C 0.13152 0.06939 0.54575 0.0
C2579 C 0.123 0.06493 0.5631 0.0
C2580 C 0.12382 0.05377 0.56074 0.0
C2581 C 0.12902 0.0504 0.55113 0.0
C2582 C 0.13283 0.05815 0.54368 0.0
C2583 C 0.11815 0.04575 0.56772 0.0
C2584 C 0.12422 0.03887 0.57451 0.0
C2585 C 0.10666 0.04549 0.56817 0.0
C2586 C 0.09998 0.05312 0.56161 0.0
C2587 C 0.10002 0.05257 0.55016 0.0
C2588 C 0.09426 0.06028 0.54404 0.0
C2589 C 0.08846 0.06858 0.5493 0.0
C2590 C 0.08841 0.06917 0.56068 0.0
C2591 C 0.09407 0.06143 0.56684 0.0
H2592 H 0.08404 0.07456 0.54454 0.0
H2593 H 0.1442 0.01045 0.61079 0.0
H2594 H 0.69034 0.8947 0.79645 0.0
H2595 H 0.70361 0.88774 0.80972 0.0
H2596 H 0.69256 0.85486 0.80333 0.0
H2597 H 0.67884 0.86195 0.79068 0.0
H2598 H 0.69198 0.85884 0.82385 0.0
H2599 H 0.71927 0.86644 0.79557 0.0
H2600 H 0.72895 0.87869 0.78284 0.0
H2601 H 0.73837 0.89931 0.80956 0.0
H2602 H 0.72865 0.88726 0.82241 0.0
H2603 H 0.73007 0.82784 0.854 0.0
H2604 H 0.7208 0.83603 0.83826 0.0
H2605 H 0.72925 0.86815 0.84991 0.0
H2606 H 0.73827 0.86002 0.86578 0.0
H2607 H 0.73164 0.86591 0.82733 0.0
H2608 H 0.70622 0.85948 0.85546 0.0
H2609 H 0.69431 0.85089 0.86915 0.0
H2610 H 0.67925 0.8315 0.8442 0.0
H2611 H 0.69143 0.83953 0.83042 0.0
C2612 C 0.69093 0.88599 0.79781 0.0
C2613 C 0.68363 0.87881 0.79271 0.0
C2614 C 0.69855 0.882 0.8053 0.0
C2615 C 0.69916 0.87075 0.80747 0.0
C2616 C 0.69222 0.86357 0.80182 0.0
C2617 C 0.68441 0.86758 0.79461 0.0
C2618 C 0.70597 0.86647 0.8165 0.0
C2619 C 0.70073 0.86011 0.82444 0.0
C2620 C 0.71721 0.86886 0.8177 0.0
C2621 C 0.72317 0.87598 0.80994 0.0
C2622 C 0.72336 0.87361 0.79871 0.0
C2623 C 0.72886 0.88052 0.79148 0.0
C2624 C 0.73425 0.88978 0.79538 0.0
C2625 C 0.73419 0.89214 0.80654 0.0
C2626 C 0.7287 0.88527 0.8138 0.0
C2627 C 0.73021 0.83663 0.85301 0.0
C2628 C 0.73495 0.84333 0.861 0.0
C2629 C 0.72483 0.84129 0.84411 0.0
C2630 C 0.72429 0.85268 0.84301 0.0
C2631 C 0.7296 0.85935 0.85063 0.0
C2632 C 0.73476 0.85471 0.85965 0.0
C2633 C 0.71773 0.85766 0.83422 0.0
C2634 C 0.72296 0.86436 0.82653 0.0
C2635 C 0.70638 0.85578 0.83336 0.0
C2636 C 0.69996 0.84998 0.84189 0.0
C2637 C 0.70065 0.85312 0.85291 0.0
C2638 C 0.6938 0.84836 0.8607 0.0
C2639 C 0.6861 0.84057 0.85757 0.0
C2640 C 0.68531 0.83743 0.84665 0.0
C2641 C 0.69223 0.84204 0.83886 0.0
H2642 H 0.68065 0.83707 0.86355 0.0
H2643 H 0.73849 0.89512 0.78977 0.0
H2644 H 0.88376 0.42511 0.04288 0.0
H2645 H 0.89142 0.43839 0.05561 0.0
H2646 H 0.85907 0.45057 0.06244 0.0
H2647 H 0.85142 0.43751 0.04916 0.0
H2648 H 0.87324 0.46703 0.06168 0.0
H2649 H 0.87181 0.43265 0.07958 0.0
H2650 H 0.8747 0.41284 0.08148 0.0
H2651 H 0.90939 0.4176 0.08022 0.0
H2652 H 0.9067 0.43745 0.07821 0.0
H2653 H 0.88779 0.48839 0.11431 0.0
H2654 H 0.87992 0.47871 0.09873 0.0
H2655 H 0.91225 0.47091 0.08719 0.0
H2656 H 0.92019 0.48075 0.10274 0.0
H2657 H 0.89774 0.4526 0.09053 0.0
H2658 H 0.89826 0.48758 0.07239 0.0
H2659 H 0.89449 0.50733 0.07157 0.0
H2660 H 0.86019 0.5011 0.07515 0.0
H2661 H 0.86379 0.4813 0.07612 0.0
C2662 C 0.87831 0.43065 0.04711 0.0
C2663 C 0.86703 0.43026 0.04527 0.0
C2664 C 0.88267 0.43821 0.05437 0.0
C2665 C 0.8758 0.4453 0.06018 0.0
C2666 C 0.86451 0.44513 0.0581 0.0
C2667 C 0.86014 0.43766 0.05061 0.0
C2668 C 0.88047 0.45258 0.06865 0.0
C2669 C 0.87849 0.46385 0.06806 0.0
C2670 C 0.88738 0.44845 0.07695 0.0
C2671 C 0.88905 0.43654 0.0786 0.0
C2672 C 0.88005 0.42948 0.07966 0.0
C2673 C 0.88166 0.41824 0.08076 0.0
C2674 C 0.89222 0.41396 0.08093 0.0
C2675 C 0.90121 0.42093 0.08009 0.0
C2676 C 0.89965 0.43218 0.07898 0.0
C2677 C 0.89321 0.4849 0.10825 0.0
C2678 C 0.90457 0.48538 0.10963 0.0
C2679 C 0.88871 0.47936 0.0994 0.0
C2680 C 0.89552 0.47411 0.09185 0.0
C2681 C 0.90689 0.47495 0.09294 0.0
C2682 C 0.9114 0.48067 0.10173 0.0
C2683 C 0.89069 0.467 0.08338 0.0
C2684 C 0.89255 0.45574 0.08408 0.0
C2685 C 0.88352 0.47112 0.07535 0.0
C2686 C 0.8813 0.48297 0.07438 0.0
C2687 C 0.88992 0.49043 0.07303 0.0
C2688 C 0.88781 0.50162 0.07254 0.0
C2689 C 0.87711 0.50547 0.07332 0.0
C2690 C 0.86848 0.49811 0.07454 0.0
C2691 C 0.87054 0.4869 0.07503 0.0
H2692 H 0.8755 0.51414 0.07297 0.0
H2693 H 0.89345 0.40525 0.08175 0.0
H2694 H 0.27648 0.67008 0.35908 0.0
H2695 H 0.28722 0.66096 0.34517 0.0
H2696 H 0.26324 0.63513 0.34357 0.0
H2697 H 0.25339 0.6436 0.35882 0.0
H2698 H 0.28077 0.62598 0.3419 0.0
H2699 H 0.26772 0.65715 0.32285 0.0
H2700 H 0.26375 0.67669 0.32013 0.0
H2701 H 0.29801 0.68395 0.32085 0.0
H2702 H 0.30215 0.66448 0.32385 0.0
H2703 H 0.3077 0.60874 0.29157 0.0
H2704 H 0.29441 0.61535 0.30497 0.0
H2705 H 0.31897 0.6362 0.31911 0.0
H2706 H 0.3323 0.62963 0.30587 0.0
H2707 H 0.29929 0.64688 0.31262 0.0
H2708 H 0.31107 0.61437 0.33243 0.0
H2709 H 0.31373 0.59449 0.33413 0.0
H2710 H 0.27941 0.5893 0.32941 0.0
H2711 H 0.27657 0.60914 0.32752 0.0
C2712 C 0.2734 0.66258 0.35558 0.0
C2713 C 0.26401 0.65766 0.35981 0.0
C2714 C 0.27951 0.65737 0.34754 0.0
C2715 C 0.27593 0.64747 0.34293 0.0
C2716 C 0.26621 0.64277 0.34687 0.0
C2717 C 0.26044 0.64771 0.35542 0.0
C2718 C 0.28263 0.64185 0.33443 0.0
C2719 C 0.2846 0.63056 0.33538 0.0
C2720 C 0.28773 0.6477 0.32583 0.0
C2721 C 0.28525 0.65935 0.32359 0.0
C2722 C 0.2744 0.66291 0.32243 0.0
C2723 C 0.27212 0.67398 0.32088 0.0
C2724 C 0.28063 0.68155 0.32033 0.0
C2725 C 0.29144 0.67807 0.32128 0.0
C2726 C 0.29376 0.66702 0.3229 0.0
C2727 C 0.31032 0.6146 0.29765 0.0
C2728 C 0.32107 0.61867 0.29764 0.0
C2729 C 0.30272 0.61834 0.3053 0.0
C2730 C 0.30572 0.62627 0.31299 0.0
C2731 C 0.31651 0.63008 0.31322 0.0
C2732 C 0.32414 0.62626 0.30568 0.0
C2733 C 0.29752 0.63122 0.32033 0.0
C2734 C 0.29526 0.64236 0.31909 0.0
C2735 C 0.2919 0.62515 0.32837 0.0
C2736 C 0.29362 0.61324 0.32972 0.0
C2737 C 0.3041 0.60898 0.33167 0.0
C2738 C 0.30564 0.59772 0.33269 0.0
C2739 C 0.29675 0.59063 0.33185 0.0
C2740 C 0.28629 0.59479 0.33005 0.0
C2741 C 0.28471 0.60605 0.32901 0.0
H2742 H 0.29796 0.58192 0.33263 0.0
H2743 H 0.27884 0.69012 0.31915 0.0
H2744 H 0.08316 0.98711 0.39454 0.0
H2745 H 0.09082 0.97761 0.41042 0.0
H2746 H 0.11877 0.96807 0.39132 0.0
H2747 H 0.11148 0.97787 0.37563 0.0
H2748 H 0.10555 0.95043 0.40195 0.0
H2749 H 0.12437 0.98446 0.40901 0.0
H2750 H 0.12483 0.00438 0.41179 0.0
H2751 H 0.10378 0.00117 0.43961 0.0
H2752 H 0.10308 0.98122 0.4369 0.0
H2753 H 0.13549 0.92081 0.44044 0.0
H2754 H 0.13016 0.93364 0.42615 0.0
H2755 H 0.11146 0.95209 0.44966 0.0
H2756 H 0.11762 0.93977 0.46413 0.0
H2757 H 0.11952 0.96568 0.43675 0.0
H2758 H 0.09941 0.93267 0.42995 0.0
H2759 H 0.09713 0.91282 0.42726 0.0
H2760 H 0.11809 0.91409 0.39921 0.0
H2761 H 0.12054 0.93391 0.40182 0.0
C2762 C 0.09106 0.98322 0.39381 0.0
C2763 C 0.09661 0.98306 0.38376 0.0
C2764 C 0.0954 0.97778 0.40286 0.0
C2765 C 0.10528 0.97206 0.40195 0.0
C2766 C 0.11109 0.97237 0.39212 0.0
C2767 C 0.10687 0.97795 0.38316 0.0
C2768 C 0.10919 0.96506 0.41094 0.0
C2769 C 0.10873 0.95373 0.40953 0.0
C2770 C 0.11297 0.96942 0.4209 0.0
C2771 C 0.1136 0.98136 0.4227 0.0
C2772 C 0.11978 0.98801 0.41568 0.0
C2773 C 0.1201 0.9993 0.41725 0.0
C2774 C 0.11431 0.00404 0.42586 0.0
C2775 C 0.10825 0.99749 0.43294 0.0
C2776 C 0.1079 0.98618 0.43141 0.0
C2777 C 0.13029 0.92765 0.44253 0.0
C2778 C 0.12687 0.92928 0.45332 0.0
C2779 C 0.12715 0.93494 0.43435 0.0
C2780 C 0.12009 0.94368 0.4367 0.0
C2781 C 0.11687 0.94542 0.44758 0.0
C2782 C 0.12036 0.93836 0.45584 0.0
C2783 C 0.11597 0.95089 0.42782 0.0
C2784 C 0.11634 0.96229 0.42922 0.0
C2785 C 0.11186 0.94659 0.41789 0.0
C2786 C 0.11024 0.93472 0.41616 0.0
C2787 C 0.10357 0.92868 0.42326 0.0
C2788 C 0.10225 0.91745 0.42174 0.0
C2789 C 0.1075 0.91219 0.4131 0.0
C2790 C 0.11404 0.91817 0.40591 0.0
C2791 C 0.11538 0.9294 0.40739 0.0
H2792 H 0.10649 0.9035 0.41195 0.0
H2793 H 0.11455 0.01279 0.42704 0.0
H2794 H 0.83182 0.87516 0.69149 0.0
H2795 H 0.81845 0.87058 0.67736 0.0
H2796 H 0.79227 0.87547 0.70036 0.0
H2797 H 0.80552 0.88019 0.71449 0.0
H2798 H 0.79133 0.85537 0.68884 0.0
H2799 H 0.79478 0.89363 0.68163 0.0
H2800 H 0.80441 0.91092 0.678 0.0
H2801 H 0.81832 0.89728 0.64888 0.0
H2802 H 0.80891 0.87985 0.65242 0.0
H2803 H 0.75429 0.84483 0.64358 0.0
H2804 H 0.76235 0.85299 0.66014 0.0
H2805 H 0.79312 0.8563 0.64335 0.0
H2806 H 0.78524 0.84829 0.62725 0.0
H2807 H 0.7883 0.87467 0.65342 0.0
H2808 H 0.78838 0.836 0.66199 0.0
H2809 H 0.78009 0.81798 0.66542 0.0
H2810 H 0.76097 0.83156 0.69147 0.0
H2811 H 0.76907 0.8497 0.68809 0.0
C2812 C 0.82322 0.87531 0.69353 0.0
C2813 C 0.81974 0.878 0.70411 0.0
C2814 C 0.8156 0.87276 0.68544 0.0
C2815 C 0.80439 0.87274 0.68784 0.0
C2816 C 0.80089 0.87547 0.69837 0.0
C2817 C 0.80848 0.87818 0.70641 0.0
C2818 C 0.79641 0.86935 0.67946 0.0
C2819 C 0.79047 0.8597 0.68116 0.0
C2820 C 0.79544 0.87494 0.66944 0.0
C2821 C 0.8012 0.8854 0.66734 0.0
C2822 C 0.79998 0.89428 0.67451 0.0
C2823 C 0.80538 0.90412 0.67245 0.0
C2824 C 0.81199 0.90519 0.66323 0.0
C2825 C 0.81321 0.89643 0.65603 0.0
C2826 C 0.80783 0.88658 0.65805 0.0
C2827 C 0.76276 0.84737 0.64349 0.0
C2828 C 0.76903 0.84629 0.63395 0.0
C2829 C 0.76735 0.852 0.65292 0.0
C2830 C 0.77831 0.8554 0.65292 0.0
C2831 C 0.78458 0.854 0.64348 0.0
C2832 C 0.78001 0.8495 0.63416 0.0
C2833 C 0.78356 0.86043 0.66259 0.0
C2834 C 0.78896 0.87044 0.66117 0.0
C2835 C 0.7842 0.85506 0.67278 0.0
C2836 C 0.77919 0.84423 0.67468 0.0
C2837 C 0.78231 0.83517 0.66836 0.0
C2838 C 0.77768 0.82493 0.67032 0.0
C2839 C 0.76998 0.82364 0.67863 0.0
C2840 C 0.76691 0.83258 0.68501 0.0
C2841 C 0.77152 0.84284 0.68308 0.0
H2842 H 0.76641 0.8157 0.68014 0.0
H2843 H 0.81616 0.91282 0.66165 0.0
H2844 H 0.8878 0.51508 0.87923 0.0
H2845 H 0.87997 0.52494 0.89468 0.0
H2846 H 0.9115 0.52557 0.9103 0.0
H2847 H 0.91943 0.51574 0.89477 0.0
H2848 H 0.89403 0.52124 0.92464 0.0
H2849 H 0.9029 0.54835 0.89613 0.0
H2850 H 0.90151 0.55665 0.87776 0.0
H2851 H 0.86663 0.55719 0.88043 0.0
H2852 H 0.86779 0.54913 0.89883 0.0
H2853 H 0.88622 0.56388 0.9628 0.0
H2854 H 0.89218 0.55083 0.94892 0.0
H2855 H 0.86386 0.55883 0.92945 0.0
H2856 H 0.85851 0.57254 0.94297 0.0
H2857 H 0.87899 0.55797 0.9168 0.0
H2858 H 0.8684 0.53303 0.94456 0.0
H2859 H 0.86752 0.5244 0.96271 0.0
H2860 H 0.90186 0.51758 0.96132 0.0
H2861 H 0.90298 0.52632 0.94324 0.0
C2862 C 0.89303 0.51715 0.88605 0.0
C2863 C 0.90424 0.51471 0.88578 0.0
C2864 C 0.88856 0.52284 0.89482 0.0
C2865 C 0.89521 0.52618 0.9035 0.0
C2866 C 0.90626 0.52312 0.90362 0.0
C2867 C 0.91076 0.51743 0.8948 0.0
C2868 C 0.89072 0.53319 0.91225 0.0
C2869 C 0.89082 0.52933 0.92301 0.0
C2870 C 0.88609 0.54351 0.90998 0.0
C2871 C 0.88544 0.54803 0.89878 0.0
C2872 C 0.89494 0.55015 0.89274 0.0
C2873 C 0.8942 0.55484 0.88235 0.0
C2874 C 0.884 0.55732 0.8779 0.0
C2875 C 0.87452 0.55522 0.88386 0.0
C2876 C 0.87522 0.55065 0.89428 0.0
C2877 C 0.88131 0.56278 0.95553 0.0
C2878 C 0.872 0.56919 0.95381 0.0
C2879 C 0.88461 0.55522 0.94766 0.0
C2880 C 0.87839 0.55363 0.93815 0.0
C2881 C 0.86887 0.55989 0.93665 0.0
C2882 C 0.86579 0.56772 0.94435 0.0
C2883 C 0.88219 0.54608 0.9294 0.0
C2884 C 0.88205 0.54985 0.91858 0.0
C2885 C 0.88639 0.53551 0.93159 0.0
C2886 C 0.88579 0.53044 0.94258 0.0
C2887 C 0.87578 0.52979 0.94817 0.0
C2888 C 0.87524 0.52486 0.95844 0.0
C2889 C 0.88463 0.52047 0.96318 0.0
C2890 C 0.89459 0.521 0.95765 0.0
C2891 C 0.89518 0.52594 0.94739 0.0
H2892 H 0.88419 0.51663 0.97112 0.0
H2893 H 0.88346 0.56092 0.86986 0.0
H2894 H 0.1665 0.62931 0.19413 0.0
H2895 H 0.17966 0.6366 0.1812 0.0
H2896 H 0.20436 0.61494 0.19388 0.0
H2897 H 0.19125 0.60792 0.20725 0.0
H2898 H 0.21335 0.63322 0.19078 0.0
H2899 H 0.19056 0.61123 0.1678 0.0
H2900 H 0.17317 0.60449 0.16023 0.0
H2901 H 0.1657 0.63659 0.14836 0.0
H2902 H 0.183 0.64355 0.15595 0.0
H2903 H 0.23932 0.63847 0.1348 0.0
H2904 H 0.22907 0.63043 0.15 0.0
H2905 H 0.21926 0.66257 0.1604 0.0
H2906 H 0.22983 0.67068 0.14548 0.0
H2907 H 0.20383 0.63837 0.15177 0.0
H2908 H 0.22632 0.65989 0.17897 0.0
H2909 H 0.24464 0.6651 0.1855 0.0
H2910 H 0.25354 0.63128 0.18793 0.0
H2911 H 0.2353 0.62591 0.18122 0.0
C2912 C 0.17469 0.62599 0.19408 0.0
C2913 C 0.17781 0.61795 0.20162 0.0
C2914 C 0.18223 0.63017 0.18666 0.0
C2915 C 0.19299 0.62622 0.1864 0.0
C2916 C 0.19611 0.61814 0.1939 0.0
C2917 C 0.18861 0.61409 0.2015 0.0
C2918 C 0.20097 0.63075 0.17845 0.0
C2919 C 0.21124 0.63424 0.18225 0.0
C2920 C 0.19835 0.63212 0.16726 0.0
C2921 C 0.18805 0.62791 0.16249 0.0
C2922 C 0.18519 0.61685 0.1636 0.0
C2923 C 0.17535 0.613 0.15931 0.0
C2924 C 0.16833 0.62011 0.15383 0.0
C2925 C 0.17115 0.63109 0.1526 0.0
C2926 C 0.18098 0.63499 0.15687 0.0
C2927 C 0.23531 0.64382 0.14059 0.0
C2928 C 0.23549 0.65518 0.13911 0.0
C2929 C 0.22944 0.63923 0.14921 0.0
C2930 C 0.22355 0.64593 0.15635 0.0
C2931 C 0.224 0.6573 0.15512 0.0
C2932 C 0.23006 0.66192 0.14663 0.0
C2933 C 0.21592 0.64097 0.16422 0.0
C2934 C 0.20581 0.63733 0.16034 0.0
C2935 C 0.21873 0.63931 0.17523 0.0
C2936 C 0.22954 0.64252 0.17948 0.0
C2937 C 0.23223 0.65358 0.1808 0.0
C2938 C 0.24258 0.65656 0.18455 0.0
C2939 C 0.25027 0.64852 0.18709 0.0
C2940 C 0.24759 0.6375 0.18593 0.0
C2941 C 0.23725 0.63448 0.18216 0.0
H2942 H 0.25828 0.65084 0.18999 0.0
H2943 H 0.1607 0.61712 0.15053 0.0
H2944 H 0.0385 0.61518 0.06461 0.0
H2945 H 0.05231 0.60863 0.0517 0.0
H2946 H 0.07211 0.63694 0.05843 0.0
H2947 H 0.05838 0.64336 0.0717 0.0
H2948 H 0.06852 0.62932 0.03414 0.0
H2949 H 0.08103 0.61843 0.06989 0.0
H2950 H 0.07845 0.61043 0.08816 0.0
H2951 H 0.06976 0.57973 0.07368 0.0
H2952 H 0.07207 0.58763 0.0553 0.0
H2953 H 0.12077 0.61193 0.01614 0.0
H2954 H 0.10485 0.61938 0.02551 0.0
H2955 H 0.08945 0.58774 0.02464 0.0
H2956 H 0.10544 0.58021 0.01517 0.0
H2957 H 0.0901 0.59693 0.04542 0.0
H2958 H 0.07889 0.60723 0.0097 0.0
H2959 H 0.08125 0.6151 0.99135 0.0
H2960 H 0.08738 0.64659 0.00544 0.0
H2961 H 0.0852 0.63887 0.0239 0.0
C2962 C 0.0458 0.62 0.06329 0.0
C2963 C 0.04752 0.62968 0.06913 0.0
C2964 C 0.05362 0.61629 0.05591 0.0
C2965 C 0.06317 0.62232 0.05413 0.0
C2966 C 0.06474 0.63222 0.0597 0.0
C2967 C 0.05699 0.63583 0.06729 0.0
C2968 C 0.07176 0.61781 0.047 0.0
C2969 C 0.07336 0.62234 0.03662 0.0
C2970 C 0.07779 0.60851 0.05019 0.0
C2971 C 0.07658 0.60366 0.06122 0.0
C2972 C 0.07845 0.61001 0.0706 0.0
C2973 C 0.07706 0.60549 0.08097 0.0
C2974 C 0.07391 0.59459 0.08208 0.0
C2975 C 0.07218 0.58818 0.07281 0.0
C2976 C 0.07353 0.59267 0.06241 0.0
C2977 C 0.11388 0.60662 0.01771 0.0
C2978 C 0.1143 0.59552 0.01489 0.0
C2979 C 0.1048 0.61088 0.02306 0.0
C2980 C 0.09598 0.60411 0.02575 0.0
C2981 C 0.09619 0.59309 0.02261 0.0
C2982 C 0.10526 0.58883 0.01712 0.0
C2983 C 0.08697 0.60846 0.03252 0.0
C2984 C 0.08526 0.60389 0.04287 0.0
C2985 C 0.08085 0.61771 0.02928 0.0
C2986 C 0.08196 0.62245 0.0182 0.0
C2987 C 0.0808 0.61582 0.00889 0.0
C2988 C 0.0821 0.62026 0.99847 0.0
C2989 C 0.08449 0.63134 0.99723 0.0
C2990 C 0.08554 0.63801 0.00642 0.0
C2991 C 0.08425 0.63361 0.01686 0.0
H2992 H 0.0855 0.63475 0.98915 0.0
H2993 H 0.07283 0.5911 0.09012 0.0
H2994 H 0.14039 0.86281 0.25674 0.0
H2995 H 0.13288 0.84687 0.26614 0.0
H2996 H 0.1649 0.83931 0.27875 0.0
H2997 H 0.17249 0.8548 0.26873 0.0
H2998 H 0.15515 0.8214 0.27596 0.0
H2999 H 0.1449 0.85458 0.29375 0.0
H3000 H 0.13697 0.87298 0.29571 0.0
H3001 H 0.10559 0.86069 0.28613 0.0
H3002 H 0.11334 0.8422 0.28412 0.0
H3003 H 0.13694 0.79954 0.32791 0.0
H3004 H 0.14382 0.81239 0.31422 0.0
H3005 H 0.11674 0.80462 0.29318 0.0
H3006 H 0.10994 0.79149 0.3067 0.0
H3007 H 0.12323 0.82942 0.29956 0.0
H3008 H 0.13557 0.79497 0.28346 0.0
H3009 H 0.14506 0.77724 0.28426 0.0
H3010 H 0.17467 0.79331 0.29389 0.0
H3011 H 0.16531 0.81113 0.29327 0.0
C3012 C 0.14585 0.85749 0.26122 0.0
C3013 C 0.15701 0.85992 0.26195 0.0
C3014 C 0.14154 0.84849 0.26672 0.0
C3015 C 0.14825 0.84206 0.27345 0.0
C3016 C 0.15953 0.84413 0.27365 0.0
C3017 C 0.16389 0.85295 0.26787 0.0
C3018 C 0.14345 0.83364 0.28077 0.0
C3019 C 0.1482 0.82321 0.28113 0.0
C3020 C 0.13437 0.83592 0.2876 0.0
C3021 C 0.12972 0.84704 0.28867 0.0
C3022 C 0.13632 0.85582 0.29199 0.0
C3023 C 0.13186 0.86626 0.29313 0.0
C3024 C 0.1208 0.86802 0.29099 0.0
C3025 C 0.11416 0.85932 0.28776 0.0
C3026 C 0.11858 0.84886 0.28664 0.0
C3027 C 0.13241 0.80061 0.3204 0.0
C3028 C 0.12285 0.79457 0.3184 0.0
C3029 C 0.13639 0.80789 0.31258 0.0
C3030 C 0.1308 0.80937 0.30271 0.0
C3031 C 0.12117 0.80351 0.30074 0.0
C3032 C 0.1173 0.79605 0.30847 0.0
C3033 C 0.1349 0.8173 0.29462 0.0
C3034 C 0.13007 0.82764 0.29422 0.0
C3035 C 0.14411 0.81506 0.28806 0.0
C3036 C 0.14971 0.80436 0.28844 0.0
C3037 C 0.14407 0.79471 0.28586 0.0
C3038 C 0.14943 0.78464 0.28624 0.0
C3039 C 0.16045 0.78414 0.28915 0.0
C3040 C 0.16613 0.79371 0.29165 0.0
C3041 C 0.16081 0.80379 0.29127 0.0
H3042 H 0.16459 0.77634 0.28944 0.0
H3043 H 0.11737 0.87611 0.29186 0.0
H3044 H 0.96523 0.86678 0.55488 0.0
H3045 H 0.9513 0.8719 0.54153 0.0
H3046 H 0.92755 0.8748 0.56733 0.0
H3047 H 0.94142 0.86977 0.58076 0.0
H3048 H 0.91937 0.86446 0.54863 0.0
H3049 H 0.93944 0.8967 0.55877 0.0
H3050 H 0.95605 0.90778 0.56122 0.0
H3051 H 0.96271 0.9057 0.52689 0.0
H3052 H 0.94623 0.89441 0.52427 0.0
H3053 H 0.87913 0.90082 0.53513 0.0
H3054 H 0.89511 0.89212 0.54262 0.0
H3055 H 0.91085 0.89377 0.51119 0.0
H3056 H 0.89446 0.90271 0.50355 0.0
H3057 H 0.92444 0.89956 0.52904 0.0
H3058 H 0.90135 0.86966 0.51919 0.0
H3059 H 0.88368 0.86011 0.51803 0.0
H3060 H 0.88179 0.85893 0.55298 0.0
H3061 H 0.89937 0.86861 0.55437 0.0
C3062 C 0.95701 0.86839 0.55771 0.0
C3063 C 0.95445 0.86796 0.5689 0.0
C3064 C 0.94908 0.87133 0.55007 0.0
C3065 C 0.93844 0.87379 0.55346 0.0
C3066 C 0.93573 0.87292 0.56455 0.0
C3067 C 0.94368 0.87012 0.57222 0.0
C3068 C 0.93024 0.87791 0.54561 0.0
C3069 C 0.92048 0.8721 0.54431 0.0
C3070 C 0.93182 0.88778 0.53981 0.0
C3071 C 0.9417 0.89458 0.54135 0.0
C3072 C 0.94451 0.89851 0.55176 0.0
C3073 C 0.95389 0.90484 0.55318 0.0
C3074 C 0.96045 0.90741 0.54422 0.0
C3075 C 0.95764 0.90367 0.53383 0.0
C3076 C 0.94829 0.8973 0.53237 0.0
C3077 C 0.8858 0.89916 0.52971 0.0
C3078 C 0.88534 0.90208 0.51867 0.0
C3079 C 0.89503 0.89424 0.53403 0.0
C3080 C 0.90404 0.89199 0.52739 0.0
C3081 C 0.90389 0.8953 0.51641 0.0
C3082 C 0.89457 0.90037 0.51207 0.0
C3083 C 0.91348 0.88621 0.53223 0.0
C3084 C 0.92347 0.89172 0.53303 0.0
C3085 C 0.91207 0.87611 0.53768 0.0
C3086 C 0.9017 0.86987 0.53688 0.0
C3087 C 0.89717 0.86737 0.52663 0.0
C3088 C 0.88716 0.86195 0.52593 0.0
C3089 C 0.88162 0.85892 0.53542 0.0
C3090 C 0.8861 0.86126 0.54564 0.0
C3091 C 0.89611 0.86669 0.54638 0.0
H3092 H 0.87385 0.85475 0.53487 0.0
H3093 H 0.96771 0.91233 0.54533 0.0
H3094 H 0.85967 0.70476 0.8208 0.0
H3095 H 0.85431 0.69076 0.80743 0.0
H3096 H 0.88754 0.68879 0.79612 0.0
H3097 H 0.89291 0.7028 0.80952 0.0
H3098 H 0.86895 0.68903 0.77935 0.0
H3099 H 0.88294 0.67106 0.81049 0.0
H3100 H 0.88537 0.66714 0.83002 0.0
H3101 H 0.85203 0.65663 0.83225 0.0
H3102 H 0.84927 0.66087 0.81279 0.0
H3103 H 0.86094 0.63389 0.75711 0.0
H3104 H 0.86877 0.64929 0.76722 0.0
H3105 H 0.83663 0.65837 0.7783 0.0
H3106 H 0.82872 0.64316 0.76791 0.0
H3107 H 0.85692 0.65357 0.79487 0.0
H3108 H 0.84302 0.67518 0.76413 0.0
H3109 H 0.84131 0.67795 0.74428 0.0
H3110 H 0.8762 0.67952 0.74134 0.0
H3111 H 0.87809 0.67658 0.76119 0.0
C3112 C 0.86581 0.70115 0.81557 0.0
C3113 C 0.87671 0.70442 0.81641 0.0
C3114 C 0.86277 0.69328 0.80794 0.0
C3115 C 0.87061 0.68855 0.8011 0.0
C3116 C 0.88142 0.69228 0.80145 0.0
C3117 C 0.88447 0.70021 0.80909 0.0
C3118 C 0.86741 0.67939 0.79397 0.0
C3119 C 0.86646 0.68124 0.78273 0.0
C3120 C 0.86419 0.66922 0.79844 0.0
C3121 C 0.86582 0.66655 0.81018 0.0
C3122 C 0.87605 0.66813 0.81516 0.0
C3123 C 0.8775 0.66581 0.82623 0.0
C3124 C 0.86884 0.66171 0.8324 0.0
C3125 C 0.85873 0.65984 0.82747 0.0
C3126 C 0.85722 0.66221 0.81641 0.0
C3127 C 0.85553 0.63944 0.76137 0.0
C3128 C 0.84423 0.63756 0.76154 0.0
C3129 C 0.86001 0.64811 0.76723 0.0
C3130 C 0.85325 0.65485 0.77351 0.0
C3131 C 0.84193 0.6532 0.77346 0.0
C3132 C 0.83741 0.64467 0.76739 0.0
C3133 C 0.8581 0.66343 0.7804 0.0
C3134 C 0.85944 0.66139 0.79156 0.0
C3135 C 0.86181 0.67334 0.77589 0.0
C3136 C 0.86069 0.67561 0.76409 0.0
C3137 C 0.85032 0.67608 0.75923 0.0
C3138 C 0.84932 0.67768 0.74799 0.0
C3139 C 0.85864 0.6789 0.74155 0.0
C3140 C 0.86899 0.67857 0.74635 0.0
C3141 C 0.87003 0.67696 0.75759 0.0
H3142 H 0.85786 0.6801 0.73284 0.0
H3143 H 0.86998 0.65992 0.84097 0.0
H3144 H 0.12192 0.3876 0.97799 0.0
H3145 H 0.10554 0.38131 0.96854 0.0
H3146 H 0.0885 0.41046 0.97838 0.0
H3147 H 0.10506 0.4171 0.98751 0.0
H3148 H 0.07824 0.38502 0.98009 0.0
H3149 H 0.09215 0.41469 0.95657 0.0
H3150 H 0.10546 0.42463 0.94518 0.0
H3151 H 0.11293 0.3951 0.92784 0.0
H3152 H 0.09973 0.385 0.93918 0.0
H3153 H 0.03345 0.37721 0.94282 0.0
H3154 H 0.04717 0.38381 0.95575 0.0
H3155 H 0.07268 0.37092 0.93509 0.0
H3156 H 0.059 0.36506 0.92184 0.0
H3157 H 0.07772 0.3899 0.93994 0.0
H3158 H 0.06434 0.35996 0.96157 0.0
H3159 H 0.05037 0.34904 0.97107 0.0
H3160 H 0.04255 0.37643 0.99147 0.0
H3161 H 0.0564 0.38757 0.982 0.0
C3162 C 0.11472 0.39271 0.97814 0.0
C3163 C 0.11487 0.40296 0.98329 0.0
C3164 C 0.10536 0.38906 0.9728 0.0
C3165 C 0.09591 0.39549 0.97271 0.0
C3166 C 0.09577 0.40543 0.97837 0.0
C3167 C 0.10521 0.40918 0.98359 0.0
C3168 C 0.08644 0.39195 0.9662 0.0
C3169 C 0.07798 0.38619 0.97132 0.0
C3170 C 0.08634 0.39322 0.95478 0.0
C3171 C 0.09506 0.39908 0.94881 0.0
C3172 C 0.0968 0.41028 0.95049 0.0
C3173 C 0.10427 0.41596 0.94399 0.0
C3174 C 0.11 0.41049 0.93578 0.0
C3175 C 0.10846 0.39932 0.93419 0.0
C3176 C 0.101 0.39362 0.94065 0.0
C3177 C 0.042 0.37572 0.94114 0.0
C3178 C 0.04523 0.37071 0.93133 0.0
C3179 C 0.04984 0.37941 0.94856 0.0
C3180 C 0.061 0.37781 0.94647 0.0
C3181 C 0.06414 0.37235 0.93687 0.0
C3182 C 0.05634 0.36898 0.92931 0.0
C3183 C 0.06951 0.38259 0.95368 0.0
C3184 C 0.07784 0.38867 0.94871 0.0
C3185 C 0.06955 0.38135 0.96519 0.0
C3186 C 0.06131 0.37464 0.97098 0.0
C3187 C 0.05959 0.36368 0.96803 0.0
C3188 C 0.05171 0.35745 0.97342 0.0
C3189 C 0.04555 0.36205 0.98183 0.0
C3190 C 0.04731 0.37288 0.98494 0.0
C3191 C 0.05519 0.37916 0.97956 0.0
H3192 H 0.03941 0.35722 0.98594 0.0
H3193 H 0.11558 0.4149 0.93056 0.0
H3194 H 0.3831 0.78656 0.19276 0.0
H3195 H 0.37704 0.80004 0.2061 0.0
H3196 H 0.36306 0.81944 0.18027 0.0
H3197 H 0.36931 0.80612 0.16682 0.0
H3198 H 0.37318 0.83219 0.19434 0.0
H3199 H 0.34724 0.80277 0.19659 0.0
H3200 H 0.34122 0.78372 0.19909 0.0
H3201 H 0.35502 0.78341 0.23129 0.0
H3202 H 0.36123 0.80242 0.22892 0.0
H3203 H 0.32792 0.85541 0.22775 0.0
H3204 H 0.33605 0.84006 0.21781 0.0
H3205 H 0.3672 0.84686 0.23269 0.0
H3206 H 0.35922 0.86258 0.24219 0.0
H3207 H 0.34931 0.82092 0.22507 0.0
H3208 H 0.38011 0.84991 0.21767 0.0
H3209 H 0.38405 0.86937 0.21416 0.0
H3210 H 0.35825 0.87046 0.19048 0.0
H3211 H 0.35401 0.85107 0.19408 0.0
C3212 C 0.37876 0.7937 0.18989 0.0
C3213 C 0.37664 0.79523 0.17871 0.0
C3214 C 0.37527 0.80139 0.19755 0.0
C3215 C 0.36947 0.81067 0.1942 0.0
C3216 C 0.36753 0.81233 0.18303 0.0
C3217 C 0.37108 0.80468 0.17536 0.0
C3218 C 0.36529 0.81862 0.20231 0.0
C3219 C 0.36803 0.82967 0.20109 0.0
C3220 C 0.35851 0.8154 0.21111 0.0
C3221 C 0.3548 0.80397 0.21253 0.0
C3222 C 0.34906 0.7986 0.20417 0.0
C3223 C 0.3456 0.78782 0.20557 0.0
C3224 C 0.34776 0.78235 0.21533 0.0
C3225 C 0.35337 0.78766 0.22373 0.0
C3226 C 0.35685 0.79843 0.22236 0.0
C3227 C 0.33642 0.85341 0.22914 0.0
C3228 C 0.34297 0.86006 0.23577 0.0
C3229 C 0.34106 0.84471 0.22341 0.0
C3230 C 0.35225 0.8425 0.22437 0.0
C3231 C 0.35861 0.84863 0.23164 0.0
C3232 C 0.35403 0.85749 0.23716 0.0
C3233 C 0.35737 0.83434 0.21714 0.0
C3234 C 0.35469 0.82331 0.21846 0.0
C3235 C 0.36413 0.83755 0.20838 0.0
C3236 C 0.36666 0.84915 0.20624 0.0
C3237 C 0.37523 0.85435 0.21179 0.0
C3238 C 0.37751 0.86535 0.20979 0.0
C3239 C 0.37138 0.87115 0.20212 0.0
C3240 C 0.36295 0.86597 0.19645 0.0
C3241 C 0.36058 0.85499 0.1985 0.0
H3242 H 0.37319 0.87965 0.20055 0.0
H3243 H 0.34507 0.77401 0.2164 0.0
H3244 H 0.95646 0.10804 0.42582 0.0
H3245 H 0.94319 0.10163 0.43924 0.0
H3246 H 0.93657 0.13497 0.44863 0.0
H3247 H 0.95057 0.14128 0.43573 0.0
H3248 H 0.93562 0.12375 0.46572 0.0
H3249 H 0.91927 0.11947 0.43127 0.0
H3250 H 0.91784 0.11406 0.41195 0.0
H3251 H 0.92014 0.0803 0.42103 0.0
H3252 H 0.92177 0.08551 0.4404 0.0
H3253 H 0.88411 0.10877 0.48905 0.0
H3254 H 0.89946 0.11633 0.479 0.0
H3255 H 0.91129 0.08379 0.47253 0.0
H3256 H 0.89555 0.07615 0.48226 0.0
H3257 H 0.90887 0.09569 0.45407 0.0
H3258 H 0.92474 0.10282 0.49018 0.0
H3259 H 0.92324 0.11066 0.50866 0.0
H3260 H 0.9179 0.14246 0.49497 0.0
H3261 H 0.91925 0.13479 0.47641 0.0
C3262 C 0.95214 0.11396 0.43077 0.0
C3263 C 0.95434 0.12512 0.4297 0.0
C3264 C 0.94453 0.11032 0.4384 0.0
C3265 C 0.9386 0.11782 0.44476 0.0
C3266 C 0.94096 0.12901 0.4438 0.0
C3267 C 0.94889 0.13263 0.43641 0.0
C3268 C 0.92991 0.1139 0.45229 0.0
C3269 C 0.92973 0.11768 0.46312 0.0
C3270 C 0.92204 0.10611 0.44892 0.0
C3271 C 0.92075 0.10289 0.4373 0.0
C3272 C 0.91952 0.11089 0.42915 0.0
C3273 C 0.91868 0.10786 0.41819 0.0
C3274 C 0.91894 0.09685 0.41526 0.0
C3275 C 0.91997 0.08883 0.42331 0.0
C3276 C 0.92084 0.09182 0.43428 0.0
C3277 C 0.8902 0.10323 0.48582 0.0
C3278 C 0.88868 0.09188 0.48646 0.0
C3279 C 0.89898 0.10757 0.48006 0.0
C3280 C 0.90657 0.10064 0.47504 0.0
C3281 C 0.90552 0.08929 0.47636 0.0
C3282 C 0.89664 0.08492 0.48207 0.0
C3283 C 0.91493 0.10519 0.46755 0.0
C3284 C 0.91489 0.10165 0.45666 0.0
C3285 C 0.92223 0.11355 0.47074 0.0
C3286 C 0.92208 0.11823 0.48191 0.0
C3287 C 0.92327 0.11149 0.49112 0.0
C3288 C 0.92243 0.1159 0.5016 0.0
C3289 C 0.92047 0.12705 0.50299 0.0
C3290 C 0.91943 0.13383 0.49389 0.0
C3291 C 0.92026 0.12946 0.48338 0.0
H3292 H 0.91977 0.13044 0.51111 0.0
H3293 H 0.91831 0.09452 0.40677 0.0
H3294 H 0.63796 0.62908 0.73094 0.0
H3295 H 0.63113 0.64486 0.7209 0.0
H3296 H 0.66255 0.66041 0.72365 0.0
H3297 H 0.66965 0.64438 0.73343 0.0
H3298 H 0.6388 0.67196 0.73019 0.0
H3299 H 0.66125 0.65858 0.69752 0.0
H3300 H 0.66731 0.64424 0.68469 0.0
H3301 H 0.6346 0.63193 0.68268 0.0
H3302 H 0.62827 0.64653 0.69507 0.0
H3303 H 0.62437 0.71571 0.69363 0.0
H3304 H 0.63224 0.70223 0.70611 0.0
H3305 H 0.61461 0.67665 0.68945 0.0
H3306 H 0.60739 0.69001 0.6766 0.0
H3307 H 0.63382 0.67086 0.69008 0.0
H3308 H 0.61025 0.68177 0.72065 0.0
H3309 H 0.60147 0.69372 0.73429 0.0
H3310 H 0.63244 0.70842 0.74158 0.0
H3311 H 0.64143 0.69623 0.72826 0.0
C3312 C 0.64343 0.63585 0.72944 0.0
C3313 C 0.65436 0.63546 0.73292 0.0
C3314 C 0.63952 0.64483 0.72368 0.0
C3315 C 0.6464 0.65365 0.72143 0.0
C3316 C 0.65718 0.65357 0.72525 0.0
C3317 C 0.66117 0.64449 0.73094 0.0
C3318 C 0.642 0.66307 0.71541 0.0
C3319 C 0.63789 0.6719 0.72138 0.0
C3320 C 0.64044 0.6627 0.70404 0.0
C3321 C 0.64434 0.65349 0.69732 0.0
C3322 C 0.6554 0.65273 0.69443 0.0
C3323 C 0.65886 0.64461 0.68719 0.0
C3324 C 0.65139 0.63706 0.68304 0.0
C3325 C 0.6404 0.63772 0.68598 0.0
C3326 C 0.63685 0.64596 0.69303 0.0
C3327 C 0.62204 0.70722 0.69282 0.0
C3328 C 0.61543 0.70383 0.6841 0.0
C3329 C 0.62646 0.69952 0.70001 0.0
C3330 C 0.62409 0.68835 0.69874 0.0
C3331 C 0.61673 0.68516 0.69053 0.0
C3332 C 0.61258 0.69279 0.6832 0.0
C3333 C 0.63025 0.67985 0.70484 0.0
C3334 C 0.63478 0.67115 0.69887 0.0
C3335 C 0.63188 0.6802 0.71627 0.0
C3336 C 0.62644 0.68827 0.72335 0.0
C3337 C 0.61514 0.68766 0.72507 0.0
C3338 C 0.61016 0.69435 0.73285 0.0
C3339 C 0.61639 0.70185 0.73878 0.0
C3340 C 0.62762 0.70262 0.73698 0.0
C3341 C 0.63267 0.69577 0.72938 0.0
H3342 H 0.6125 0.70708 0.74474 0.0
H3343 H 0.65411 0.63077 0.67747 0.0
H3344 H 0.57742 0.55979 0.62883 0.0
H3345 H 0.56284 0.5725 0.6237 0.0
H3346 H 0.54138 0.54541 0.61725 0.0
H3347 H 0.55576 0.53263 0.62268 0.0
H3348 H 0.54453 0.56394 0.59994 0.0
H3349 H 0.53481 0.5562 0.63781 0.0
H3350 H 0.53911 0.55486 0.65743 0.0
H3351 H 0.54845 0.58863 0.6579 0.0
H3352 H 0.54436 0.59013 0.63825 0.0
H3353 H 0.50499 0.60282 0.58605 0.0
H3354 H 0.51172 0.5858 0.59409 0.0
H3355 H 0.52891 0.60438 0.61864 0.0
H3356 H 0.52093 0.62099 0.61168 0.0
H3357 H 0.52551 0.58715 0.62712 0.0
H3358 H 0.53973 0.59531 0.59078 0.0
H3359 H 0.53708 0.59876 0.57111 0.0
H3360 H 0.52286 0.567 0.56724 0.0
H3361 H 0.52523 0.56342 0.58691 0.0
C3362 C 0.56958 0.55654 0.62635 0.0
C3363 C 0.5677 0.54523 0.62618 0.0
C3364 C 0.56128 0.5638 0.62345 0.0
C3365 C 0.55105 0.55983 0.62019 0.0
C3366 C 0.5492 0.54857 0.61983 0.0
C3367 C 0.55741 0.54131 0.62295 0.0
C3368 C 0.54237 0.56752 0.61697 0.0
C3369 C 0.54022 0.56893 0.60585 0.0
C3370 C 0.53702 0.57415 0.62471 0.0
C3371 C 0.53936 0.57325 0.63655 0.0
C3372 C 0.53786 0.56331 0.64208 0.0
C3373 C 0.54025 0.56253 0.65321 0.0
C3374 C 0.54407 0.57164 0.6589 0.0
C3375 C 0.5455 0.58157 0.65348 0.0
C3376 C 0.54313 0.58239 0.64236 0.0
C3377 C 0.50994 0.6032 0.59335 0.0
C3378 C 0.51291 0.61329 0.59789 0.0
C3379 C 0.51393 0.59347 0.59787 0.0
C3380 C 0.52138 0.59377 0.60662 0.0
C3381 C 0.52341 0.60381 0.61175 0.0
C3382 C 0.51901 0.61341 0.60759 0.0
C3383 C 0.52787 0.58401 0.60993 0.0
C3384 C 0.52966 0.58213 0.62112 0.0
C3385 C 0.53329 0.57727 0.60221 0.0
C3386 C 0.53252 0.57916 0.59031 0.0
C3387 C 0.53607 0.58906 0.58571 0.0
C3388 C 0.5346 0.59105 0.57459 0.0
C3389 C 0.52975 0.58314 0.56797 0.0
C3390 C 0.52656 0.57314 0.5724 0.0
C3391 C 0.52795 0.57112 0.58353 0.0
H3392 H 0.52841 0.58479 0.55943 0.0
H3393 H 0.54591 0.57102 0.66751 0.0
H3394 H 0.01579 0.39643 0.91973 0.0
H3395 H 0.02564 0.41177 0.91135 0.0
H3396 H 0.02324 0.39619 0.87988 0.0
H3397 H 0.01328 0.38107 0.88811 0.0
H3398 H 0.04487 0.40174 0.88618 0.0
H3399 H 0.00908 0.41787 0.88328 0.0
H3400 H 0.99132 0.42306 0.8912 0.0
H3401 H 0.00748 0.44436 0.91385 0.0
H3402 H 0.02535 0.43918 0.90614 0.0
H3403 H 0.07067 0.44308 0.85526 0.0
H3404 H 0.0571 0.42967 0.86149 0.0
H3405 H 0.05292 0.44788 0.89139 0.0
H3406 H 0.06594 0.46151 0.88486 0.0
H3407 H 0.03408 0.44077 0.88534 0.0
H3408 H 0.06963 0.42451 0.88946 0.0
H3409 H 0.08779 0.41873 0.88299 0.0
H3410 H 0.07285 0.39726 0.85968 0.0
H3411 H 0.05459 0.40301 0.86593 0.0
C3412 C 0.01701 0.39651 0.91098 0.0
C3413 C 0.0138 0.38759 0.90456 0.0
C3414 C 0.02274 0.40518 0.90622 0.0
C3415 C 0.02528 0.40498 0.89503 0.0
C3416 C 0.02146 0.39641 0.88854 0.0
C3417 C 0.01569 0.38785 0.89324 0.0
C3418 C 0.03234 0.41343 0.89012 0.0
C3419 C 0.04248 0.41026 0.88585 0.0
C3420 C 0.02928 0.42452 0.88993 0.0
C3421 C 0.01854 0.42811 0.89416 0.0
C3422 C 0.00883 0.42366 0.88995 0.0
C3423 C 0.99876 0.42659 0.89441 0.0
C3424 C 0.99827 0.43403 0.90304 0.0
C3425 C 0.00787 0.43861 0.90717 0.0
C3426 C 0.01797 0.4357 0.90274 0.0
C3427 C 0.06675 0.44418 0.86311 0.0
C3428 C 0.0693 0.45318 0.86965 0.0
C3429 C 0.05905 0.43655 0.86669 0.0
C3430 C 0.05411 0.43767 0.877 0.0
C3431 C 0.05658 0.44683 0.88341 0.0
C3432 C 0.06406 0.45457 0.87972 0.0
C3433 C 0.04672 0.42913 0.88138 0.0
C3434 C 0.0365 0.43225 0.88558 0.0
C3435 C 0.04979 0.41799 0.88164 0.0
C3436 C 0.06075 0.41426 0.8781 0.0
C3437 C 0.07022 0.41858 0.88293 0.0
C3438 C 0.08053 0.41531 0.87931 0.0
C3439 C 0.08147 0.40765 0.87091 0.0
C3440 C 0.07211 0.4032 0.86617 0.0
C3441 C 0.06177 0.40645 0.86976 0.0
H3442 H 0.08946 0.40515 0.86809 0.0
H3443 H 0.99046 0.43625 0.90651 0.0
H3444 H 0.28198 0.80771 0.12857 0.0
H3445 H 0.29562 0.79419 0.13429 0.0
H3446 H 0.32127 0.81457 0.12148 0.0
H3447 H 0.30771 0.82836 0.11617 0.0
H3448 H 0.31921 0.78793 0.1166 0.0
H3449 H 0.32313 0.81774 0.14311 0.0
H3450 H 0.31513 0.83093 0.15599 0.0
H3451 H 0.30113 0.80467 0.17447 0.0
H3452 H 0.30884 0.79131 0.16149 0.0
H3453 H 0.36902 0.76852 0.13682 0.0
H3454 H 0.35316 0.77792 0.12979 0.0
H3455 H 0.33474 0.76832 0.15826 0.0
H3456 H 0.35112 0.75982 0.16592 0.0
H3457 H 0.33137 0.78827 0.15521 0.0
H3458 H 0.33023 0.75807 0.13041 0.0
H3459 H 0.3378 0.74485 0.11726 0.0
H3460 H 0.34603 0.771 0.09544 0.0
H3461 H 0.33864 0.78438 0.10852 0.0
C3462 C 0.29053 0.80927 0.12695 0.0
C3463 C 0.29386 0.81905 0.12201 0.0
C3464 C 0.29827 0.80156 0.13019 0.0
C3465 C 0.30938 0.80343 0.12826 0.0
C3466 C 0.3127 0.81304 0.123 0.0
C3467 C 0.30499 0.8209 0.12005 0.0
C3468 C 0.31758 0.79562 0.13227 0.0
C3469 C 0.32197 0.78798 0.12501 0.0
C3470 C 0.32082 0.79557 0.1433 0.0
C3471 C 0.31639 0.80355 0.15123 0.0
C3472 C 0.31823 0.81479 0.14983 0.0
C3473 C 0.31377 0.82229 0.15717 0.0
C3474 C 0.30758 0.81866 0.16602 0.0
C3475 C 0.30589 0.80749 0.16758 0.0
C3476 C 0.31029 0.79994 0.16023 0.0
C3477 C 0.36162 0.7684 0.14163 0.0
C3478 C 0.36143 0.76371 0.15208 0.0
C3479 C 0.35243 0.77362 0.13747 0.0
C3480 C 0.34264 0.77377 0.14341 0.0
C3481 C 0.3422 0.76836 0.15353 0.0
C3482 C 0.35154 0.76342 0.15786 0.0
C3483 C 0.33328 0.78045 0.13952 0.0
C3484 C 0.32859 0.78797 0.14682 0.0
C3485 C 0.32973 0.78031 0.1285 0.0
C3486 C 0.33391 0.77224 0.12048 0.0
C3487 C 0.33368 0.761 0.12282 0.0
C3488 C 0.33794 0.75348 0.11538 0.0
C3489 C 0.3424 0.75708 0.10553 0.0
C3490 C 0.34257 0.76821 0.10307 0.0
C3491 C 0.33832 0.77577 0.11049 0.0
H3492 H 0.34572 0.75125 0.09979 0.0
H3493 H 0.30413 0.82449 0.17168 0.0
H3494 H 0.91601 0.05311 0.38455 0.0
H3495 H 0.92905 0.06706 0.3903 0.0
H3496 H 0.95438 0.05119 0.37169 0.0
H3497 H 0.94148 0.03716 0.366 0.0
H3498 H 0.96164 0.05623 0.39142 0.0
H3499 H 0.94316 0.07488 0.36265 0.0
H3500 H 0.92753 0.08208 0.35224 0.0
H3501 H 0.91801 0.10165 0.37971 0.0
H3502 H 0.93354 0.09447 0.39033 0.0
H3503 H 0.98823 0.11363 0.38935 0.0
H3504 H 0.97798 0.0981 0.38208 0.0
H3505 H 0.97014 0.08795 0.41484 0.0
H3506 H 0.98058 0.10336 0.42216 0.0
H3507 H 0.95503 0.09593 0.38694 0.0
H3508 H 0.97105 0.06688 0.41579 0.0
H3509 H 0.98821 0.06027 0.42407 0.0
H3510 H 0.00406 0.06183 0.39285 0.0
H3511 H 0.98702 0.06862 0.38447 0.0
C3512 C 0.92434 0.05261 0.38164 0.0
C3513 C 0.92769 0.044 0.37483 0.0
C3514 C 0.93177 0.06061 0.3849 0.0
C3515 C 0.94267 0.06019 0.38137 0.0
C3516 C 0.94602 0.05165 0.37453 0.0
C3517 C 0.93861 0.04364 0.37128 0.0
C3518 C 0.95066 0.06847 0.38507 0.0
C3519 C 0.96016 0.0649 0.39041 0.0
C3520 C 0.94886 0.07979 0.38363 0.0
C3521 C 0.93945 0.08405 0.37732 0.0
C3522 C 0.93768 0.08064 0.3665 0.0
C3523 C 0.92885 0.08474 0.36056 0.0
C3524 C 0.92176 0.0923 0.36532 0.0
C3525 C 0.9235 0.09578 0.37604 0.0
C3526 C 0.93232 0.09171 0.38202 0.0
C3527 C 0.98464 0.10785 0.39499 0.0
C3528 C 0.98529 0.10958 0.4063 0.0
C3529 C 0.97874 0.09905 0.39084 0.0
C3530 C 0.97336 0.09188 0.39793 0.0
C3531 C 0.97444 0.09327 0.40925 0.0
C3532 C 0.98045 0.10203 0.41342 0.0
C3533 C 0.96577 0.08365 0.39347 0.0
C3534 C 0.9564 0.08724 0.38796 0.0
C3535 C 0.96772 0.07238 0.39456 0.0
C3536 C 0.97786 0.06826 0.39956 0.0
C3537 C 0.97822 0.06581 0.41073 0.0
C3538 C 0.98792 0.06207 0.41543 0.0
C3539 C 0.99723 0.06064 0.40899 0.0
C3540 C 0.99686 0.06297 0.39783 0.0
C3541 C 0.98721 0.0668 0.39311 0.0
H3542 H 0.00471 0.05772 0.41264 0.0
H3543 H 0.91494 0.09547 0.3607 0.0
H3544 H 0.1418 0.24565 0.64314 0.0
H3545 H 0.15784 0.23624 0.63577 0.0
H3546 H 0.15659 0.21343 0.66265 0.0
H3547 H 0.14145 0.22364 0.67056 0.0
H3548 H 0.17573 0.21464 0.65784 0.0
H3549 H 0.14406 0.20958 0.63532 0.0
H3550 H 0.12854 0.21521 0.62381 0.0
H3551 H 0.1506 0.23025 0.60112 0.0
H3552 H 0.16625 0.22482 0.61257 0.0
H3553 H 0.19591 0.16739 0.63169 0.0
H3554 H 0.18241 0.18069 0.63787 0.0
H3555 H 0.19825 0.2058 0.61903 0.0
H3556 H 0.21192 0.19258 0.61283 0.0
H3557 H 0.173 0.20439 0.61876 0.0
H3558 H 0.20482 0.20665 0.64301 0.0
H3559 H 0.21861 0.19732 0.65432 0.0
H3560 H 0.19323 0.1834 0.67407 0.0
H3561 H 0.17928 0.19254 0.66276 0.0
C3562 C 0.14529 0.23888 0.64763 0.0
C3563 C 0.14054 0.23536 0.6574 0.0
C3564 C 0.15431 0.23336 0.64333 0.0
C3565 C 0.15823 0.22383 0.6484 0.0
C3566 C 0.15377 0.22072 0.65851 0.0
C3567 C 0.14511 0.22654 0.66305 0.0
C3568 C 0.16648 0.21672 0.64298 0.0
C3569 C 0.17502 0.21241 0.64931 0.0
C3570 C 0.1657 0.21371 0.6318 0.0
C3571 C 0.15631 0.2169 0.62486 0.0
C3572 C 0.14559 0.21414 0.62791 0.0
C3573 C 0.13677 0.21729 0.62139 0.0
C3574 C 0.13858 0.22311 0.61176 0.0
C3575 C 0.14921 0.22576 0.6086 0.0
C3576 C 0.15806 0.22264 0.61509 0.0
C3577 C 0.19649 0.17571 0.62875 0.0
C3578 C 0.20506 0.17894 0.62183 0.0
C3579 C 0.18875 0.18328 0.63228 0.0
C3580 C 0.18939 0.19419 0.6289 0.0
C3581 C 0.19764 0.19739 0.62167 0.0
C3582 C 0.20547 0.18984 0.61821 0.0
C3583 C 0.18196 0.20238 0.63369 0.0
C3584 C 0.17365 0.20682 0.62725 0.0
C3585 C 0.18264 0.20517 0.64484 0.0
C3586 C 0.19103 0.20025 0.65204 0.0
C3587 C 0.20219 0.20161 0.64977 0.0
C3588 C 0.21002 0.19634 0.65616 0.0
C3589 C 0.20679 0.18977 0.6649 0.0
C3590 C 0.19572 0.18851 0.6673 0.0
C3591 C 0.18784 0.19375 0.66092 0.0
H3592 H 0.21287 0.18568 0.66979 0.0
H3593 H 0.13174 0.22555 0.60673 0.0
H3594 H 0.44458 0.46396 0.62645 0.0
H3595 H 0.45778 0.45005 0.62082 0.0
H3596 H 0.43216 0.42596 0.62009 0.0
H3597 H 0.41886 0.4398 0.62555 0.0
H3598 H 0.45208 0.42045 0.63243 0.0
H3599 H 0.43994 0.43477 0.59708 0.0
H3600 H 0.43744 0.4495 0.58359 0.0
H3601 H 0.47182 0.45623 0.5843 0.0
H3602 H 0.4745 0.44159 0.59787 0.0
H3603 H 0.4676 0.37319 0.60674 0.0
H3604 H 0.45957 0.38982 0.61329 0.0
H3605 H 0.4858 0.40837 0.59878 0.0
H3606 H 0.49298 0.39157 0.59062 0.0
H3607 H 0.46908 0.41908 0.59573 0.0
H3608 H 0.48209 0.40294 0.62861 0.0
H3609 H 0.48503 0.38811 0.64188 0.0
H3610 H 0.45046 0.38548 0.64692 0.0
H3611 H 0.44729 0.40018 0.63359 0.0
C3612 C 0.44174 0.4557 0.6251 0.0
C3613 C 0.43066 0.45296 0.62649 0.0
C3614 C 0.44929 0.4478 0.62184 0.0
C3615 C 0.4459 0.43703 0.62004 0.0
C3616 C 0.43489 0.43426 0.62145 0.0
C3617 C 0.42731 0.44217 0.62456 0.0
C3618 C 0.45381 0.42849 0.61695 0.0
C3619 C 0.45582 0.42009 0.62442 0.0
C3620 C 0.45904 0.42838 0.6067 0.0
C3621 C 0.4574 0.43719 0.59859 0.0
C3622 C 0.44695 0.43946 0.59444 0.0
C3623 C 0.4455 0.44777 0.58676 0.0
C3624 C 0.45446 0.45383 0.58313 0.0
C3625 C 0.46489 0.45155 0.58714 0.0
C3626 C 0.46638 0.44325 0.59481 0.0
C3627 C 0.47161 0.38075 0.60472 0.0
C3628 C 0.48076 0.38101 0.59786 0.0
C3629 C 0.46715 0.39034 0.60878 0.0
C3630 C 0.47221 0.40044 0.60687 0.0
C3631 C 0.48171 0.40071 0.60042 0.0
C3632 C 0.48586 0.39109 0.59583 0.0
C3633 C 0.46711 0.41063 0.61108 0.0
C3634 C 0.46564 0.41945 0.60387 0.0
C3635 C 0.46253 0.41124 0.62171 0.0
C3636 C 0.46446 0.40268 0.63009 0.0
C3637 C 0.47511 0.39921 0.63255 0.0
C3638 C 0.47682 0.39081 0.64008 0.0
C3639 C 0.46794 0.38586 0.64524 0.0
C3640 C 0.45734 0.38933 0.64294 0.0
C3641 C 0.45558 0.39773 0.63542 0.0
H3642 H 0.46928 0.37933 0.65103 0.0
H3643 H 0.45333 0.46026 0.57718 0.0
H3644 H 0.28668 0.68733 0.36371 0.0
H3645 H 0.30136 0.6999 0.35844 0.0
H3646 H 0.32145 0.68746 0.38452 0.0
H3647 H 0.30688 0.67451 0.38952 0.0
H3648 H 0.31969 0.71294 0.38042 0.0
H3649 H 0.32868 0.67805 0.3649 0.0
H3650 H 0.32493 0.6611 0.35474 0.0
H3651 H 0.31764 0.67977 0.32602 0.0
H3652 H 0.32092 0.69684 0.33613 0.0
H3653 H 0.37142 0.732 0.36198 0.0
H3654 H 0.35579 0.72236 0.3696 0.0
H3655 H 0.33914 0.7248 0.33867 0.0
H3656 H 0.355 0.73414 0.33086 0.0
H3657 H 0.33912 0.70434 0.34594 0.0
H3658 H 0.33066 0.73934 0.36142 0.0
H3659 H 0.33482 0.75621 0.37156 0.0
H3660 H 0.34183 0.73743 0.40028 0.0
H3661 H 0.33785 0.72042 0.39027 0.0
C3662 C 0.29424 0.68731 0.36829 0.0
C3663 C 0.29582 0.67995 0.37688 0.0
C3664 C 0.30255 0.6945 0.36534 0.0
C3665 C 0.31243 0.69456 0.37111 0.0
C3666 C 0.31384 0.68751 0.38001 0.0
C3667 C 0.30561 0.6801 0.3828 0.0
C3668 C 0.32148 0.70147 0.36724 0.0
C3669 C 0.32406 0.71103 0.37297 0.0
C3670 C 0.32697 0.69901 0.35741 0.0
C3671 C 0.32487 0.68874 0.35133 0.0
C3672 C 0.32607 0.67855 0.35648 0.0
C3673 C 0.32405 0.66891 0.35072 0.0
C3674 C 0.32098 0.66935 0.33976 0.0
C3675 C 0.31993 0.67943 0.33453 0.0
C3676 C 0.32185 0.6891 0.34028 0.0
C3677 C 0.36437 0.73062 0.35683 0.0
C3678 C 0.36448 0.73372 0.34579 0.0
C3679 C 0.3554 0.72517 0.36123 0.0
C3680 C 0.34628 0.72288 0.35471 0.0
C3681 C 0.34612 0.72648 0.34383 0.0
C3682 C 0.35514 0.73189 0.33941 0.0
C3683 C 0.33732 0.71597 0.35902 0.0
C3684 C 0.33475 0.70634 0.35338 0.0
C3685 C 0.33189 0.71837 0.36894 0.0
C3686 C 0.33403 0.7286 0.37506 0.0
C3687 C 0.33314 0.7388 0.36988 0.0
C3688 C 0.33546 0.74839 0.37561 0.0
C3689 C 0.33861 0.74789 0.38655 0.0
C3690 C 0.3394 0.7378 0.3918 0.0
C3691 C 0.33709 0.72819 0.38611 0.0
H3692 H 0.34042 0.75532 0.39096 0.0
H3693 H 0.31948 0.66187 0.3353 0.0
H3694 H 0.71512 0.80604 0.87312 0.0
H3695 H 0.70151 0.79255 0.86749 0.0
H3696 H 0.67578 0.81539 0.87488 0.0
H3697 H 0.6894 0.829 0.88047 0.0
H3698 H 0.67363 0.79228 0.88327 0.0
H3699 H 0.68388 0.81315 0.85064 0.0
H3700 H 0.69726 0.81924 0.83685 0.0
H3701 H 0.70348 0.786 0.82789 0.0
H3702 H 0.69046 0.77967 0.84186 0.0
H3703 H 0.62529 0.77525 0.85993 0.0
H3704 H 0.64159 0.78382 0.86687 0.0
H3705 H 0.66118 0.76503 0.84437 0.0
H3706 H 0.64454 0.75737 0.8364 0.0
H3707 H 0.66888 0.78337 0.84409 0.0
H3708 H 0.66062 0.76109 0.87399 0.0
H3709 H 0.64946 0.75204 0.88805 0.0
H3710 H 0.64251 0.78306 0.90279 0.0
H3711 H 0.6535 0.79234 0.88871 0.0
C3712 C 0.70656 0.80818 0.87359 0.0
C3713 C 0.70329 0.8186 0.87713 0.0
C3714 C 0.69882 0.80047 0.87035 0.0
C3715 C 0.68769 0.80301 0.87075 0.0
C3716 C 0.68437 0.81331 0.87453 0.0
C3717 C 0.69212 0.82109 0.87762 0.0
C3718 C 0.67946 0.79505 0.86697 0.0
C3719 C 0.67249 0.79035 0.87471 0.0
C3720 C 0.67854 0.79202 0.85588 0.0
C3721 C 0.68629 0.79594 0.84742 0.0
C3722 C 0.6882 0.80714 0.84583 0.0
C3723 C 0.6957 0.81064 0.83797 0.0
C3724 C 0.70121 0.80303 0.83152 0.0
C3725 C 0.69923 0.79189 0.83291 0.0
C3726 C 0.69181 0.78834 0.84081 0.0
C3727 C 0.63302 0.77299 0.85634 0.0
C3728 C 0.63356 0.76586 0.84739 0.0
C3729 C 0.64244 0.77773 0.86053 0.0
C3730 C 0.65274 0.77498 0.85633 0.0
C3731 C 0.65336 0.76736 0.84776 0.0
C3732 C 0.64384 0.7629 0.84326 0.0
C3733 C 0.66266 0.78075 0.86036 0.0
C3734 C 0.67002 0.78507 0.8527 0.0
C3735 C 0.66432 0.78295 0.8716 0.0
C3736 C 0.65786 0.77742 0.88025 0.0
C3737 C 0.65668 0.766 0.8802 0.0
C3738 C 0.65038 0.76082 0.88817 0.0
C3739 C 0.64527 0.76697 0.8963 0.0
C3740 C 0.64648 0.77831 0.89649 0.0
C3741 C 0.65276 0.78353 0.88852 0.0
H3742 H 0.64038 0.76295 0.90246 0.0
H3743 H 0.70699 0.80576 0.82543 0.0
H3744 H 0.62661 0.58173 0.55631 0.0
H3745 H 0.62092 0.56827 0.57004 0.0
H3746 H 0.61947 0.54342 0.5452 0.0
H3747 H 0.62546 0.55663 0.53154 0.0
H3748 H 0.59961 0.5526 0.56565 0.0
H3749 H 0.63473 0.53359 0.55388 0.0
H3750 H 0.65463 0.53463 0.551 0.0
H3751 H 0.65882 0.54729 0.5834 0.0
H3752 H 0.63891 0.54655 0.58635 0.0
H3753 H 0.5831 0.51039 0.60088 0.0
H3754 H 0.59035 0.51907 0.58439 0.0
H3755 H 0.61847 0.53002 0.60261 0.0
H3756 H 0.61181 0.52055 0.61863 0.0
H3757 H 0.62502 0.52706 0.58409 0.0
H3758 H 0.59378 0.54621 0.59801 0.0
H3759 H 0.57468 0.54885 0.60374 0.0
H3760 H 0.56364 0.54029 0.57163 0.0
H3761 H 0.58271 0.53757 0.5657 0.0
C3762 C 0.62515 0.57338 0.55381 0.0
C3763 C 0.62656 0.57022 0.54287 0.0
C3764 C 0.62194 0.56572 0.56164 0.0
C3765 C 0.61998 0.55485 0.55861 0.0
C3766 C 0.62119 0.55172 0.5477 0.0
C3767 C 0.62458 0.5593 0.53992 0.0
C3768 C 0.61616 0.54687 0.56676 0.0
C3769 C 0.60509 0.54687 0.5696 0.0
C3770 C 0.62342 0.53974 0.57212 0.0
C3771 C 0.63534 0.54021 0.57025 0.0
C3772 C 0.63988 0.53676 0.56031 0.0
C3773 C 0.65117 0.53726 0.55868 0.0
C3774 C 0.65798 0.54107 0.56699 0.0
C3775 C 0.65353 0.54438 0.57695 0.0
C3776 C 0.64225 0.54394 0.5786 0.0
C3777 C 0.59096 0.51439 0.60125 0.0
C3778 C 0.59672 0.51509 0.61113 0.0
C3779 C 0.59504 0.51949 0.59187 0.0
C3780 C 0.60477 0.52559 0.59233 0.0
C3781 C 0.61089 0.52551 0.602 0.0
C3782 C 0.60699 0.52019 0.61123 0.0
C3783 C 0.60833 0.53264 0.5831 0.0
C3784 C 0.6194 0.53257 0.58006 0.0
C3785 C 0.60112 0.54005 0.57789 0.0
C3786 C 0.58965 0.54155 0.58145 0.0
C3787 C 0.58727 0.54481 0.59219 0.0
C3788 C 0.57646 0.54633 0.59548 0.0
C3789 C 0.56794 0.54468 0.58808 0.0
C3790 C 0.57024 0.54154 0.57736 0.0
C3791 C 0.58105 0.54002 0.57403 0.0
H3792 H 0.55958 0.54588 0.59065 0.0
H3793 H 0.66672 0.54142 0.56573 0.0
H3794 H 0.16602 0.37038 0.80769 0.0
H3795 H 0.17924 0.36456 0.82153 0.0
H3796 H 0.20571 0.37403 0.80038 0.0
H3797 H 0.19266 0.37994 0.78659 0.0
H3798 H 0.20813 0.35315 0.80859 0.0
H3799 H 0.20069 0.38924 0.82148 0.0
H3800 H 0.18935 0.40469 0.82762 0.0
H3801 H 0.17731 0.38547 0.85432 0.0
H3802 H 0.18845 0.36985 0.84824 0.0
H3803 H 0.24031 0.3589 0.86436 0.0
H3804 H 0.23042 0.36651 0.84877 0.0
H3805 H 0.21882 0.33426 0.84054 0.0
H3806 H 0.22925 0.32663 0.85571 0.0
H3807 H 0.20991 0.36752 0.84637 0.0
H3808 H 0.21064 0.33183 0.81635 0.0
H3809 H 0.22313 0.31733 0.81004 0.0
H3810 H 0.25067 0.33795 0.8167 0.0
H3811 H 0.23833 0.35253 0.82311 0.0
C3812 C 0.17465 0.37131 0.80602 0.0
C3813 C 0.17826 0.3756 0.79601 0.0
C3814 C 0.18219 0.368 0.81395 0.0
C3815 C 0.19344 0.36886 0.81195 0.0
C3816 C 0.19706 0.37327 0.80205 0.0
C3817 C 0.18956 0.37668 0.7942 0.0
C3818 C 0.20149 0.36477 0.82 0.0
C3819 C 0.20854 0.35631 0.81685 0.0
C3820 C 0.20212 0.36898 0.83071 0.0
C3821 C 0.19531 0.37832 0.83433 0.0
C3822 C 0.19553 0.38827 0.82859 0.0
C3823 C 0.18916 0.39707 0.83208 0.0
C3824 C 0.18258 0.39605 0.84134 0.0
C3825 C 0.18239 0.38624 0.84714 0.0
C3826 C 0.18873 0.37741 0.84368 0.0
C3827 C 0.23598 0.35342 0.85893 0.0
C3828 C 0.23568 0.34218 0.86106 0.0
C3829 C 0.23024 0.35777 0.85011 0.0
C3830 C 0.22389 0.35098 0.84339 0.0
C3831 C 0.22388 0.33967 0.84535 0.0
C3832 C 0.22985 0.33529 0.85403 0.0
C3833 C 0.21658 0.35584 0.835 0.0
C3834 C 0.20958 0.3644 0.8381 0.0
C3835 C 0.21612 0.35186 0.82417 0.0
C3836 C 0.22358 0.34322 0.82022 0.0
C3837 C 0.21936 0.33327 0.81641 0.0
C3838 C 0.22641 0.32503 0.81287 0.0
C3839 C 0.23769 0.32671 0.81298 0.0
C3840 C 0.24194 0.33664 0.81665 0.0
C3841 C 0.23493 0.34488 0.82028 0.0
H3842 H 0.24313 0.32033 0.81021 0.0
H3843 H 0.17766 0.40288 0.84403 0.0
H3844 H 0.38707 0.92469 0.04318 0.0
H3845 H 0.39477 0.93809 0.05574 0.0
H3846 H 0.36395 0.95513 0.05663 0.0
H3847 H 0.35646 0.94208 0.0433 0.0
H3848 H 0.38003 0.96945 0.05808 0.0
H3849 H 0.37037 0.93866 0.08022 0.0
H3850 H 0.3684 0.9188 0.08297 0.0
H3851 H 0.40291 0.91463 0.0786 0.0
H3852 H 0.40506 0.93453 0.07601 0.0
H3853 H 0.39151 0.99127 0.1116 0.0
H3854 H 0.38387 0.98183 0.09576 0.0
H3855 H 0.41573 0.96905 0.088 0.0
H3856 H 0.42345 0.97868 0.10383 0.0
H3857 H 0.39804 0.95298 0.09043 0.0
H3858 H 0.40536 0.98756 0.07179 0.0
H3859 H 0.40369 0.00757 0.07031 0.0
H3860 H 0.36877 0.00478 0.0696 0.0
H3861 H 0.37024 0.98476 0.07124 0.0
C3862 C 0.38199 0.93137 0.04599 0.0
C3863 C 0.37117 0.93233 0.04244 0.0
C3864 C 0.38635 0.93897 0.05322 0.0
C3865 C 0.37983 0.9474 0.05745 0.0
C3866 C 0.36911 0.94864 0.05355 0.0
C3867 C 0.36483 0.94119 0.04599 0.0
C3868 C 0.38417 0.95447 0.0663 0.0
C3869 C 0.38388 0.96586 0.06519 0.0
C3870 C 0.38899 0.94984 0.07571 0.0
C3871 C 0.3879 0.93804 0.07806 0.0
C3872 C 0.37755 0.9335 0.07999 0.0
C3873 C 0.37639 0.92225 0.0815 0.0
C3874 C 0.38553 0.91546 0.08101 0.0
C3875 C 0.39585 0.91991 0.07904 0.0
C3876 C 0.39706 0.93118 0.07767 0.0
C3877 C 0.39695 0.9868 0.10625 0.0
C3878 C 0.4081 0.98588 0.10876 0.0
C3879 C 0.39257 0.98134 0.09727 0.0
C3880 C 0.39923 0.97474 0.09072 0.0
C3881 C 0.41047 0.97414 0.09295 0.0
C3882 C 0.4149 0.97977 0.10187 0.0
C3883 C 0.3943 0.96797 0.082 0.0
C3884 C 0.3943 0.95659 0.08326 0.0
C3885 C 0.38876 0.97268 0.07302 0.0
C3886 C 0.38791 0.98467 0.07168 0.0
C3887 C 0.39733 0.99122 0.07136 0.0
C3888 C 0.39641 0.00256 0.0705 0.0
C3889 C 0.38613 0.00744 0.06988 0.0
C3890 C 0.37673 0.00099 0.07008 0.0
C3891 C 0.3776 0.98964 0.07096 0.0
H3892 H 0.38544 0.01622 0.06923 0.0
H3893 H 0.38462 0.90674 0.08211 0.0
H3894 H 0.76218 0.13806 0.3647 0.0
H3895 H 0.7724 0.13083 0.34919 0.0
H3896 H 0.77649 0.16348 0.33664 0.0
H3897 H 0.76594 0.17072 0.352 0.0
H3898 H 0.77399 0.14969 0.32025 0.0
H3899 H 0.79726 0.15114 0.35195 0.0
H3900 H 0.80282 0.14756 0.37096 0.0
H3901 H 0.80024 0.11306 0.36542 0.0
H3902 H 0.79478 0.11643 0.34634 0.0
H3903 H 0.82897 0.13895 0.2974 0.0
H3904 H 0.81548 0.14486 0.31095 0.0
H3905 H 0.79658 0.11581 0.30494 0.0
H3906 H 0.80982 0.11001 0.29109 0.0
H3907 H 0.8063 0.12734 0.33014 0.0
H3908 H 0.78141 0.1274 0.29769 0.0
H3909 H 0.77787 0.13248 0.27854 0.0
H3910 H 0.78525 0.16595 0.2859 0.0
H3911 H 0.78901 0.161 0.30507 0.0
C3912 C 0.76504 0.14366 0.35848 0.0
C3913 C 0.7633 0.15494 0.35954 0.0
C3914 C 0.77096 0.13954 0.34968 0.0
C3915 C 0.77546 0.14664 0.34191 0.0
C3916 C 0.77314 0.15785 0.34257 0.0
C3917 C 0.76706 0.16198 0.35132 0.0
C3918 C 0.78307 0.14243 0.33347 0.0
C3919 C 0.78103 0.1448 0.32245 0.0
C3920 C 0.79233 0.13608 0.33628 0.0
C3921 C 0.7955 0.13404 0.34777 0.0
C3922 C 0.79781 0.1428 0.35482 0.0
C3923 C 0.80096 0.1408 0.36559 0.0
C3924 C 0.80179 0.1301 0.36943 0.0
C3925 C 0.79956 0.12135 0.36246 0.0
C3926 C 0.79648 0.12329 0.35165 0.0
C3927 C 0.82195 0.13382 0.29898 0.0
C3928 C 0.82042 0.12403 0.29321 0.0
C3929 C 0.81425 0.13722 0.30667 0.0
C3930 C 0.80502 0.13081 0.3088 0.0
C3931 C 0.80359 0.12092 0.30324 0.0
C3932 C 0.81115 0.11762 0.29538 0.0
C3933 C 0.79703 0.1344 0.31704 0.0
C3934 C 0.79911 0.13205 0.32801 0.0
C3935 C 0.78792 0.14085 0.3142 0.0
C3936 C 0.78563 0.14381 0.30274 0.0
C3937 C 0.7824 0.13582 0.29518 0.0
C3938 C 0.78032 0.13868 0.28434 0.0
C3939 C 0.78136 0.14953 0.281 0.0
C3940 C 0.78446 0.15755 0.2885 0.0
C3941 C 0.78657 0.15472 0.29934 0.0
H3942 H 0.77972 0.15175 0.27261 0.0
H3943 H 0.80421 0.12858 0.37778 0.0
H3944 H 0.62626 0.41866 0.43997 0.0
H3945 H 0.62142 0.43236 0.42615 0.0
H3946 H 0.62109 0.45737 0.45087 0.0
H3947 H 0.62624 0.44388 0.46466 0.0
H3948 H 0.60091 0.45359 0.43441 0.0
H3949 H 0.63998 0.46106 0.43816 0.0
H3950 H 0.65938 0.45572 0.43822 0.0
H3951 H 0.65628 0.44336 0.40559 0.0
H3952 H 0.63681 0.44848 0.40541 0.0
H3953 H 0.58784 0.49283 0.39458 0.0
H3954 H 0.59623 0.4855 0.41115 0.0
H3955 H 0.61694 0.46488 0.39143 0.0
H3956 H 0.60979 0.47327 0.37513 0.0
H3957 H 0.62738 0.46848 0.40766 0.0
H3958 H 0.58938 0.45771 0.40338 0.0
H3959 H 0.5698 0.46198 0.40146 0.0
H3960 H 0.56995 0.47757 0.43284 0.0
H3961 H 0.5896 0.47361 0.43482 0.0
C3962 C 0.62521 0.42709 0.44244 0.0
C3963 C 0.62667 0.4302 0.45338 0.0
C3964 C 0.62247 0.43488 0.43456 0.0
C3965 C 0.62095 0.44583 0.43755 0.0
C3966 C 0.62228 0.44895 0.44845 0.0
C3967 C 0.62525 0.44123 0.45628 0.0
C3968 C 0.6177 0.45398 0.42929 0.0
C3969 C 0.60668 0.45697 0.42861 0.0
C3970 C 0.62523 0.45817 0.42166 0.0
C3971 C 0.63691 0.45503 0.42183 0.0
C3972 C 0.6434 0.45708 0.43106 0.0
C3973 C 0.65442 0.45413 0.4311 0.0
C3974 C 0.65905 0.44917 0.42193 0.0
C3975 C 0.65268 0.44718 0.41269 0.0
C3976 C 0.64165 0.45011 0.41262 0.0
C3977 C 0.59436 0.4869 0.39382 0.0
C3978 C 0.59778 0.48325 0.38351 0.0
C3979 C 0.59907 0.48261 0.40331 0.0
C3980 C 0.60686 0.47419 0.40262 0.0
C3981 C 0.61082 0.4712 0.3923 0.0
C3982 C 0.60652 0.47586 0.38289 0.0
C3983 C 0.61042 0.46788 0.41239 0.0
C3984 C 0.62153 0.46521 0.41344 0.0
C3985 C 0.60289 0.46364 0.42011 0.0
C3986 C 0.59097 0.46548 0.41919 0.0
C3987 C 0.58523 0.46205 0.40986 0.0
C3988 C 0.57414 0.46448 0.40873 0.0
C3989 C 0.56866 0.47011 0.41699 0.0
C3990 C 0.57422 0.47325 0.42643 0.0
C3991 C 0.58534 0.47094 0.42756 0.0
H3992 H 0.56008 0.47201 0.4161 0.0
H3993 H 0.66759 0.44691 0.42197 0.0
H3994 H 0.27361 0.3281 0.63892 0.0
H3995 H 0.28449 0.3354 0.65382 0.0
H3996 H 0.26361 0.36381 0.65513 0.0
H3997 H 0.25354 0.35697 0.63924 0.0
H3998 H 0.28221 0.37066 0.65635 0.0
H3999 H 0.26535 0.34144 0.67608 0.0
H4000 H 0.25946 0.3225 0.67951 0.0
H4001 H 0.29284 0.31186 0.67926 0.0
H4002 H 0.29893 0.33071 0.6757 0.0
H4003 H 0.30716 0.38756 0.707 0.0
H4004 H 0.29416 0.38062 0.69351 0.0
H4005 H 0.31853 0.3583 0.68141 0.0
H4006 H 0.33166 0.36532 0.69475 0.0
H4007 H 0.29729 0.34885 0.68689 0.0
H4008 H 0.31342 0.37868 0.6666 0.0
H4009 H 0.31868 0.39785 0.66353 0.0
H4010 H 0.28513 0.40765 0.66604 0.0
H4011 H 0.27969 0.38854 0.66931 0.0
C4012 C 0.27124 0.3358 0.64256 0.0
C4013 C 0.26271 0.34195 0.63809 0.0
C4014 C 0.2774 0.33995 0.65117 0.0
C4015 C 0.27479 0.3501 0.65587 0.0
C4016 C 0.26584 0.35598 0.6517 0.0
C4017 C 0.25999 0.35204 0.64273 0.0
C4018 C 0.28196 0.35498 0.6644 0.0
C4019 C 0.28526 0.36591 0.66316 0.0
C4020 C 0.28623 0.3488 0.67322 0.0
C4021 C 0.28259 0.33749 0.67556 0.0
C4022 C 0.27143 0.33506 0.67672 0.0
C4023 C 0.26806 0.32434 0.67869 0.0
C4024 C 0.27577 0.31598 0.67959 0.0
C4025 C 0.28687 0.31834 0.67856 0.0
C4026 C 0.29029 0.32904 0.67659 0.0
C4027 C 0.30979 0.38125 0.7014 0.0
C4028 C 0.32044 0.37699 0.70192 0.0
C4029 C 0.30236 0.3773 0.69371 0.0
C4030 C 0.30541 0.36895 0.68651 0.0
C4031 C 0.31605 0.36475 0.68693 0.0
C4032 C 0.32355 0.36881 0.69449 0.0
C4033 C 0.2974 0.36438 0.67873 0.0
C4034 C 0.29402 0.35355 0.68015 0.0
C4035 C 0.29288 0.3707 0.67023 0.0
C4036 C 0.29617 0.38219 0.66834 0.0
C4037 C 0.30718 0.38493 0.66662 0.0
C4038 C 0.31019 0.39579 0.66482 0.0
C4039 C 0.30225 0.40397 0.66463 0.0
C4040 C 0.29128 0.40131 0.66622 0.0
C4041 C 0.28823 0.39047 0.66805 0.0
H4042 H 0.3046 0.41237 0.66321 0.0
H4043 H 0.27314 0.30769 0.68109 0.0
H4044 H 0.38902 0.00574 0.88566 0.0
H4045 H 0.38157 0.0151 0.90167 0.0
H4046 H 0.413 0.02997 0.90744 0.0
H4047 H 0.42059 0.01992 0.892 0.0
H4048 H 0.40428 0.02721 0.92573 0.0
H4049 H 0.39052 0.04305 0.89212 0.0
H4050 H 0.38098 0.04296 0.87437 0.0
H4051 H 0.35188 0.03111 0.88987 0.0
H4052 H 0.36121 0.03124 0.90771 0.0
H4053 H 0.38713 0.07881 0.94747 0.0
H4054 H 0.39319 0.06492 0.9344 0.0
H4055 H 0.36543 0.04494 0.9426 0.0
H4056 H 0.35948 0.05864 0.95595 0.0
H4057 H 0.37097 0.04903 0.9184 0.0
H4058 H 0.38537 0.03699 0.95289 0.0
H4059 H 0.39567 0.03882 0.97004 0.0
H4060 H 0.42509 0.04465 0.95197 0.0
H4061 H 0.41488 0.04341 0.9347 0.0
C4062 C 0.39439 0.0107 0.89064 0.0
C4063 C 0.40537 0.01204 0.88773 0.0
C4064 C 0.3901 0.0162 0.89966 0.0
C4065 C 0.39661 0.02357 0.90558 0.0
C4066 C 0.40777 0.02438 0.90303 0.0
C4067 C 0.41214 0.01858 0.89423 0.0
C4068 C 0.39175 0.03091 0.91396 0.0
C4069 C 0.39705 0.03204 0.92406 0.0
C4070 C 0.38219 0.03712 0.91193 0.0
C4071 C 0.37658 0.03705 0.90121 0.0
C4072 C 0.3821 0.04039 0.89172 0.0
C4073 C 0.37672 0.04035 0.88166 0.0
C4074 C 0.36586 0.03695 0.88098 0.0
C4075 C 0.3603 0.0337 0.89039 0.0
C4076 C 0.36561 0.03381 0.90049 0.0
C4077 C 0.38224 0.07152 0.9464 0.0
C4078 C 0.3728 0.06981 0.95268 0.0
C4079 C 0.38576 0.06358 0.939 0.0
C4080 C 0.37977 0.05392 0.93762 0.0
C4081 C 0.37015 0.05235 0.9436 0.0
C4082 C 0.36677 0.06016 0.9512 0.0
C4083 C 0.38366 0.04544 0.92997 0.0
C4084 C 0.37816 0.04413 0.92004 0.0
C4085 C 0.39319 0.03928 0.93206 0.0
C4086 C 0.3993 0.04028 0.94248 0.0
C4087 C 0.39398 0.0389 0.95256 0.0
C4088 C 0.39981 0.03984 0.96232 0.0
C4089 C 0.41101 0.04198 0.96211 0.0
C4090 C 0.4164 0.04316 0.95213 0.0
C4091 C 0.41058 0.04237 0.94236 0.0
H4092 H 0.41552 0.04265 0.96966 0.0
H4093 H 0.36173 0.03687 0.87318 0.0
H4094 H 0.72605 0.17132 0.14254 0.0
H4095 H 0.71639 0.1634 0.15802 0.0
H4096 H 0.73408 0.13321 0.1536 0.0
H4097 H 0.74304 0.14093 0.13747 0.0
H4098 H 0.71467 0.12831 0.15601 0.0
H4099 H 0.73755 0.15248 0.1759 0.0
H4100 H 0.74631 0.16992 0.18075 0.0
H4101 H 0.71505 0.18369 0.18856 0.0
H4102 H 0.70611 0.16634 0.18374 0.0
H4103 H 0.69146 0.10906 0.2074 0.0
H4104 H 0.7049 0.11579 0.19417 0.0
H4105 H 0.68264 0.14123 0.18445 0.0
H4106 H 0.66903 0.13436 0.19737 0.0
H4107 H 0.70614 0.1472 0.19076 0.0
H4108 H 0.68385 0.12319 0.16813 0.0
H4109 H 0.67561 0.1055 0.16328 0.0
H4110 H 0.70741 0.09088 0.16174 0.0
H4111 H 0.71584 0.10846 0.16679 0.0
C4112 C 0.72809 0.16311 0.14511 0.0
C4113 C 0.73541 0.15677 0.13902 0.0
C4114 C 0.72258 0.15856 0.15398 0.0
C4115 C 0.72462 0.14772 0.15718 0.0
C4116 C 0.73235 0.14157 0.15134 0.0
C4117 C 0.73757 0.14601 0.14222 0.0
C4118 C 0.71796 0.14253 0.16591 0.0
C4119 C 0.71305 0.13239 0.16369 0.0
C4120 C 0.71566 0.14783 0.17595 0.0
C4121 C 0.72112 0.15816 0.17923 0.0
C4122 C 0.73253 0.15924 0.17857 0.0
C4123 C 0.73754 0.16911 0.18135 0.0
C4124 C 0.73124 0.17793 0.1849 0.0
C4125 C 0.71993 0.17687 0.18577 0.0
C4126 C 0.71489 0.16702 0.18302 0.0
C4127 C 0.68943 0.11606 0.2024 0.0
C4128 C 0.67921 0.12119 0.20339 0.0
C4129 C 0.69709 0.11986 0.19486 0.0
C4130 C 0.69472 0.12898 0.18839 0.0
C4131 C 0.68457 0.13416 0.1894 0.0
C4132 C 0.6768 0.1302 0.19673 0.0
C4133 C 0.70286 0.13327 0.18064 0.0
C4134 C 0.70802 0.14316 0.1831 0.0
C4135 C 0.70556 0.12768 0.17094 0.0
C4136 C 0.70046 0.1171 0.16801 0.0
C4137 C 0.68908 0.11617 0.16691 0.0
C4138 C 0.68437 0.10617 0.16409 0.0
C4139 C 0.69098 0.09706 0.16225 0.0
C4140 C 0.7023 0.09793 0.1632 0.0
C4141 C 0.70705 0.10791 0.16605 0.0
H4142 H 0.68732 0.08933 0.16004 0.0
H4143 H 0.73513 0.18557 0.18702 0.0
H4144 H 0.53387 0.12352 0.05468 0.0
H4145 H 0.54744 0.11745 0.04131 0.0
H4146 H 0.57259 0.11949 0.06581 0.0
H4147 H 0.55917 0.12602 0.07904 0.0
H4148 H 0.56747 0.12832 0.03465 0.0
H4149 H 0.58879 0.0963 0.06145 0.0
H4150 H 0.58486 0.08343 0.07641 0.0
H4151 H 0.55125 0.08204 0.06663 0.0
H4152 H 0.55501 0.09478 0.05151 0.0
H4153 H 0.62059 0.11243 0.01669 0.0
H4154 H 0.60417 0.11901 0.0258 0.0
H4155 H 0.58798 0.08855 0.01869 0.0
H4156 H 0.60457 0.08175 0.00992 0.0
H4157 H 0.58707 0.09329 0.0399 0.0
H4158 H 0.58026 0.11306 0.00646 0.0
H4159 H 0.58538 0.12551 0.9915 0.0
H4160 H 0.59061 0.15138 0.01455 0.0
H4161 H 0.58566 0.13905 0.02966 0.0
C4162 C 0.5423 0.12271 0.05721 0.0
C4163 C 0.54543 0.12497 0.06803 0.0
C4164 C 0.55002 0.11925 0.04957 0.0
C4165 C 0.56096 0.1179 0.05264 0.0
C4166 C 0.56414 0.12031 0.06335 0.0
C4167 C 0.55645 0.1239 0.07094 0.0
C4168 C 0.56909 0.11397 0.04466 0.0
C4169 C 0.57172 0.12063 0.03573 0.0
C4170 C 0.57463 0.10397 0.04614 0.0
C4171 C 0.57218 0.09655 0.05539 0.0
C4172 C 0.58056 0.09324 0.06249 0.0
C4173 C 0.57837 0.08596 0.07098 0.0
C4174 C 0.56782 0.08188 0.07243 0.0
C4175 C 0.55942 0.08519 0.06547 0.0
C4176 C 0.56157 0.09247 0.05696 0.0
C4177 C 0.61348 0.10718 0.01693 0.0
C4178 C 0.61392 0.0965 0.01277 0.0
C4179 C 0.60406 0.111 0.02206 0.0
C4180 C 0.59485 0.10427 0.02293 0.0
C4181 C 0.59502 0.09386 0.01813 0.0
C4182 C 0.60448 0.09002 0.01305 0.0
C4183 C 0.5855 0.10761 0.02983 0.0
C4184 C 0.58272 0.1009 0.03868 0.0
C4185 C 0.57993 0.11762 0.02831 0.0
C4186 C 0.58263 0.12511 0.0192 0.0
C4187 C 0.58254 0.12139 0.00834 0.0
C4188 C 0.58541 0.12843 -0.00016 0.0
C4189 C 0.58833 0.13922 0.00207 0.0
C4190 C 0.58834 0.14301 0.01282 0.0
C4191 C 0.58548 0.13601 0.02136 0.0
H4192 H 0.59057 0.14465 0.99548 0.0
H4193 H 0.56616 0.07617 0.07895 0.0
H4194 H 0.63932 0.36356 0.25531 0.0
H4195 H 0.63189 0.34757 0.26472 0.0
H4196 H 0.66376 0.34084 0.27819 0.0
H4197 H 0.67128 0.3563 0.26813 0.0
H4198 H 0.65453 0.32276 0.27506 0.0
H4199 H 0.64247 0.35623 0.29229 0.0
H4200 H 0.63344 0.37422 0.2931 0.0
H4201 H 0.60322 0.35971 0.2829 0.0
H4202 H 0.61207 0.34163 0.28207 0.0
H4203 H 0.63511 0.30363 0.32875 0.0
H4204 H 0.6417 0.31634 0.31475 0.0
H4205 H 0.61881 0.30293 0.29167 0.0
H4206 H 0.61245 0.28992 0.30546 0.0
H4207 H 0.62247 0.33012 0.29866 0.0
H4208 H 0.63598 0.29599 0.2822 0.0
H4209 H 0.64617 0.27865 0.28232 0.0
H4210 H 0.67513 0.29557 0.29246 0.0
H4211 H 0.665 0.31297 0.29269 0.0
C4212 C 0.64476 0.3584 0.25998 0.0
C4213 C 0.65586 0.36104 0.26093 0.0
C4214 C 0.6405 0.34939 0.2655 0.0
C4215 C 0.64718 0.34318 0.27245 0.0
C4216 C 0.65841 0.34549 0.2729 0.0
C4217 C 0.66273 0.35429 0.2671 0.0
C4218 C 0.64246 0.33469 0.27973 0.0
C4219 C 0.64754 0.32443 0.28023 0.0
C4220 C 0.63327 0.33676 0.28647 0.0
C4221 C 0.62795 0.34761 0.28701 0.0
C4222 C 0.63391 0.35689 0.29018 0.0
C4223 C 0.62882 0.3671 0.29065 0.0
C4224 C 0.61778 0.36812 0.28799 0.0
C4225 C 0.61178 0.35891 0.28493 0.0
C4226 C 0.61681 0.34868 0.28449 0.0
C4227 C 0.63149 0.30339 0.32069 0.0
C4228 C 0.62329 0.29578 0.31818 0.0
C4229 C 0.6353 0.31059 0.31271 0.0
C4230 C 0.63082 0.31043 0.30219 0.0
C4231 C 0.62247 0.30303 0.29972 0.0
C4232 C 0.61884 0.29564 0.3076 0.0
C4233 C 0.63459 0.31834 0.29393 0.0
C4234 C 0.62937 0.32849 0.29336 0.0
C4235 C 0.64375 0.31626 0.28728 0.0
C4236 C 0.64968 0.30574 0.28765 0.0
C4237 C 0.64445 0.29598 0.28468 0.0
C4238 C 0.65024 0.28614 0.28462 0.0
C4239 C 0.66129 0.28601 0.28739 0.0
C4240 C 0.66657 0.29569 0.2903 0.0
C4241 C 0.6608 0.30553 0.29044 0.0
H4242 H 0.66577 0.27839 0.2873 0.0
H4243 H 0.61387 0.37603 0.28833 0.0
H4244 H 0.38114 0.38873 0.51146 0.0
H4245 H 0.39753 0.38157 0.52026 0.0
H4246 H 0.40985 0.41436 0.52399 0.0
H4247 H 0.39364 0.42151 0.51474 0.0
H4248 H 0.42612 0.40137 0.51988 0.0
H4249 H 0.39626 0.40072 0.54501 0.0
H4250 H 0.37781 0.39631 0.55173 0.0
H4251 H 0.38482 0.36208 0.54909 0.0
H4252 H 0.40328 0.36628 0.54223 0.0
H4253 H 0.45274 0.3882 0.57292 0.0
H4254 H 0.4397 0.39536 0.55953 0.0
H4255 H 0.44379 0.36638 0.54001 0.0
H4256 H 0.45719 0.35936 0.55316 0.0
H4257 H 0.41989 0.37713 0.55171 0.0
H4258 H 0.45046 0.37945 0.52536 0.0
H4259 H 0.46899 0.3855 0.52034 0.0
H4260 H 0.46026 0.41868 0.52751 0.0
H4261 H 0.44173 0.41277 0.53277 0.0
C4262 C 0.38749 0.39437 0.51391 0.0
C4263 C 0.38618 0.40565 0.51238 0.0
C4264 C 0.39679 0.39029 0.51904 0.0
C4265 C 0.40481 0.39744 0.52302 0.0
C4266 C 0.40377 0.40869 0.521 0.0
C4267 C 0.39454 0.41276 0.51567 0.0
C4268 C 0.41399 0.39323 0.52971 0.0
C4269 C 0.42472 0.39609 0.52684 0.0
C4270 C 0.41222 0.38637 0.53886 0.0
C4271 C 0.40111 0.38382 0.54298 0.0
C4272 C 0.39384 0.39225 0.54578 0.0
C4273 C 0.38338 0.38979 0.54963 0.0
C4274 C 0.38013 0.37892 0.55079 0.0
C4275 C 0.38734 0.37049 0.54816 0.0
C4276 C 0.39781 0.37291 0.5443 0.0
C4277 C 0.45105 0.3835 0.56563 0.0
C4278 C 0.45597 0.37327 0.56402 0.0
C4279 C 0.44363 0.38758 0.55802 0.0
C4280 C 0.44088 0.38141 0.54879 0.0
C4281 C 0.44597 0.37131 0.54701 0.0
C4282 C 0.45361 0.36734 0.5545 0.0
C4283 C 0.4319 0.38508 0.54168 0.0
C4284 C 0.42122 0.38225 0.54461 0.0
C4285 C 0.43368 0.39212 0.53275 0.0
C4286 C 0.44479 0.39565 0.52961 0.0
C4287 C 0.45255 0.38801 0.52602 0.0
C4288 C 0.46304 0.39142 0.52309 0.0
C4289 C 0.46582 0.40246 0.52365 0.0
C4290 C 0.45811 0.41012 0.52711 0.0
C4291 C 0.44762 0.40675 0.53006 0.0
H4292 H 0.47393 0.40509 0.52137 0.0
H4293 H 0.37203 0.37704 0.55377 0.0
H4294 H 0.35861 0.20918 0.81815 0.0
H4295 H 0.3519 0.1958 0.80487 0.0
H4296 H 0.38454 0.18289 0.80146 0.0
H4297 H 0.3913 0.19681 0.81413 0.0
H4298 H 0.37576 0.18209 0.78289 0.0
H4299 H 0.36389 0.17035 0.81822 0.0
H4300 H 0.35511 0.17236 0.83621 0.0
H4301 H 0.32443 0.17907 0.82068 0.0
H4302 H 0.33306 0.17719 0.8026 0.0
H4303 H 0.3607 0.12854 0.76531 0.0
H4304 H 0.36744 0.1445 0.77519 0.0
H4305 H 0.33584 0.15974 0.77223 0.0
H4306 H 0.32899 0.14369 0.76253 0.0
H4307 H 0.34374 0.15965 0.79341 0.0
H4308 H 0.35722 0.16887 0.75738 0.0
H4309 H 0.36731 0.16472 0.74047 0.0
H4310 H 0.39678 0.16035 0.75889 0.0
H4311 H 0.38683 0.16432 0.77593 0.0
C4312 C 0.3643 0.20352 0.81445 0.0
C4313 C 0.3754 0.20387 0.81712 0.0
C4314 C 0.36049 0.19583 0.80694 0.0
C4315 C 0.36766 0.18811 0.80235 0.0
C4316 C 0.37883 0.18871 0.80488 0.0
C4317 C 0.38268 0.19659 0.81215 0.0
C4318 C 0.3635 0.17923 0.79521 0.0
C4319 C 0.36881 0.17714 0.78526 0.0
C4320 C 0.35441 0.17275 0.79822 0.0
C4321 C 0.34914 0.17372 0.80907 0.0
C4322 C 0.35528 0.1723 0.81865 0.0
C4323 C 0.35034 0.17343 0.82886 0.0
C4324 C 0.33923 0.17589 0.8296 0.0
C4325 C 0.33304 0.17721 0.82011 0.0
C4326 C 0.33795 0.1761 0.80987 0.0
C4327 C 0.35523 0.13535 0.76664 0.0
C4328 C 0.34431 0.13485 0.76319 0.0
C4329 C 0.3591 0.14448 0.77225 0.0
C4330 C 0.35214 0.1533 0.77442 0.0
C4331 C 0.34134 0.153 0.77064 0.0
C4332 C 0.33747 0.14387 0.765 0.0
C4333 C 0.35596 0.1626 0.78113 0.0
C4334 C 0.35061 0.1647 0.79103 0.0
C4335 C 0.36521 0.16885 0.77822 0.0
C4336 C 0.37127 0.16684 0.76793 0.0
C4337 C 0.36585 0.16699 0.75782 0.0
C4338 C 0.37154 0.16467 0.74822 0.0
C4339 C 0.38268 0.16226 0.74861 0.0
C4340 C 0.38816 0.16222 0.7586 0.0
C4341 C 0.3825 0.16453 0.76823 0.0
H4342 H 0.38707 0.16043 0.74116 0.0
H4343 H 0.33543 0.17671 0.83751 0.0
H4344 H 0.62044 0.88702 0.97886 0.0
H4345 H 0.60498 0.88014 0.96844 0.0
H4346 H 0.58673 0.90923 0.97613 0.0
H4347 H 0.60245 0.91646 0.98625 0.0
H4348 H 0.57481 0.88848 0.97746 0.0
H4349 H 0.59733 0.9093 0.95211 0.0
H4350 H 0.61441 0.91432 0.94272 0.0
H4351 H 0.61854 0.8812 0.93208 0.0
H4352 H 0.60138 0.87601 0.94128 0.0
H4353 H 0.53378 0.88372 0.93687 0.0
H4354 H 0.54793 0.88951 0.94971 0.0
H4355 H 0.57068 0.86723 0.93453 0.0
H4356 H 0.55672 0.86216 0.92116 0.0
H4357 H 0.58053 0.88449 0.9376 0.0
H4358 H 0.55727 0.86361 0.96121 0.0
H4359 H 0.5402 0.85816 0.97039 0.0
H4360 H 0.53784 0.88982 0.98522 0.0
H4361 H 0.55476 0.89554 0.97595 0.0
C4362 C 0.61311 0.89195 0.97842 0.0
C4363 C 0.61271 0.90238 0.98319 0.0
C4364 C 0.6043 0.88798 0.97246 0.0
C4365 C 0.59484 0.89428 0.97139 0.0
C4366 C 0.59405 0.90432 0.97684 0.0
C4367 C 0.60298 0.9084 0.98267 0.0
C4368 C 0.58601 0.89052 0.96414 0.0
C4369 C 0.57593 0.8877 0.96872 0.0
C4370 C 0.58772 0.8892 0.95283 0.0
C4371 C 0.59815 0.89225 0.94749 0.0
C4372 C 0.60194 0.90307 0.94786 0.0
C4373 C 0.61161 0.90595 0.94255 0.0
C4374 C 0.61763 0.89806 0.93692 0.0
C4375 C 0.61391 0.88729 0.9365 0.0
C4376 C 0.60418 0.88439 0.94171 0.0
C4377 C 0.54183 0.88011 0.93633 0.0
C4378 C 0.54427 0.87257 0.92808 0.0
C4379 C 0.54987 0.8833 0.94374 0.0
C4380 C 0.56036 0.87866 0.94328 0.0
C4381 C 0.56268 0.87096 0.93507 0.0
C4382 C 0.55474 0.86806 0.92744 0.0
C4383 C 0.56911 0.8823 0.95084 0.0
C4384 C 0.57926 0.88514 0.94634 0.0
C4385 C 0.56747 0.88347 0.96226 0.0
C4386 C 0.55723 0.88004 0.96777 0.0
C4387 C 0.55306 0.86944 0.96634 0.0
C4388 C 0.54341 0.86631 0.97157 0.0
C4389 C 0.53792 0.87365 0.97835 0.0
C4390 C 0.54208 0.88415 0.97994 0.0
C4391 C 0.5517 0.88734 0.97469 0.0
H4392 H 0.53045 0.87121 0.98237 0.0
H4393 H 0.62511 0.90032 0.93282 0.0
H4394 H 0.8568 0.29077 0.17586 0.0
H4395 H 0.84975 0.30364 0.18941 0.0
H4396 H 0.88265 0.31027 0.20021 0.0
H4397 H 0.88955 0.29664 0.18732 0.0
H4398 H 0.871 0.31141 0.21673 0.0
H4399 H 0.86802 0.3287 0.18226 0.0
H4400 H 0.86351 0.32942 0.16267 0.0
H4401 H 0.82966 0.32429 0.17009 0.0
H4402 H 0.83398 0.32357 0.18978 0.0
H4403 H 0.85953 0.36584 0.23528 0.0
H4404 H 0.86593 0.34959 0.22564 0.0
H4405 H 0.83296 0.33735 0.22425 0.0
H4406 H 0.82648 0.35363 0.23393 0.0
H4407 H 0.84434 0.33891 0.20356 0.0
H4408 H 0.85063 0.32494 0.24048 0.0
H4409 H 0.85857 0.32674 0.25889 0.0
H4410 H 0.89066 0.32917 0.24503 0.0
H4411 H 0.8829 0.32751 0.22654 0.0
C4412 C 0.86246 0.29496 0.1812 0.0
C4413 C 0.87368 0.29289 0.18054 0.0
C4414 C 0.85847 0.30235 0.18889 0.0
C4415 C 0.86568 0.30821 0.19564 0.0
C4416 C 0.8769 0.30591 0.19511 0.0
C4417 C 0.88085 0.29819 0.18771 0.0
C4418 C 0.86156 0.31699 0.20295 0.0
C4419 C 0.86522 0.31744 0.21381 0.0
C4420 C 0.85413 0.325 0.19918 0.0
C4421 C 0.85133 0.32602 0.18746 0.0
C4422 C 0.85961 0.32776 0.17971 0.0
C4423 C 0.8571 0.32816 0.16861 0.0
C4424 C 0.84633 0.32684 0.16515 0.0
C4425 C 0.83801 0.32525 0.1728 0.0
C4426 C 0.84048 0.3249 0.18394 0.0
C4427 C 0.85368 0.35956 0.23315 0.0
C4428 C 0.84252 0.36096 0.23537 0.0
C4429 C 0.85734 0.3503 0.22764 0.0
C4430 C 0.8499 0.3423 0.22424 0.0
C4431 C 0.83881 0.34345 0.22683 0.0
C4432 C 0.83514 0.35269 0.23245 0.0
C4433 C 0.85364 0.33316 0.21732 0.0
C4434 C 0.84998 0.33274 0.20649 0.0
C4435 C 0.86151 0.32556 0.22098 0.0
C4436 C 0.86618 0.32613 0.23213 0.0
C4437 C 0.85938 0.32588 0.24136 0.0
C4438 C 0.86385 0.32688 0.25181 0.0
C4439 C 0.87511 0.32808 0.25313 0.0
C4440 C 0.88194 0.32823 0.244 0.0
C4441 C 0.87751 0.32723 0.23354 0.0
H4442 H 0.87854 0.32889 0.26122 0.0
H4443 H 0.84445 0.32708 0.15655 0.0
H4444 H 0.46775 0.62113 0.4419 0.0
H4445 H 0.45417 0.6152 0.4554 0.0
H4446 H 0.42828 0.62568 0.43403 0.0
H4447 H 0.44177 0.63127 0.42034 0.0
H4448 H 0.43251 0.63023 0.46323 0.0
H4449 H 0.42075 0.60663 0.43088 0.0
H4450 H 0.42666 0.59515 0.41541 0.0
H4451 H 0.44715 0.57651 0.43686 0.0
H4452 H 0.44148 0.58805 0.45242 0.0
H4453 H 0.38051 0.61259 0.48013 0.0
H4454 H 0.39693 0.61911 0.4711 0.0
H4455 H 0.41333 0.58893 0.47889 0.0
H4456 H 0.39662 0.58213 0.48757 0.0
H4457 H 0.41586 0.59365 0.45798 0.0
H4458 H 0.42037 0.61386 0.49127 0.0
H4459 H 0.41423 0.62582 0.50625 0.0
H4460 H 0.40793 0.65159 0.48337 0.0
H4461 H 0.4139 0.63974 0.46823 0.0
C4462 C 0.45916 0.62219 0.44011 0.0
C4463 C 0.45576 0.62652 0.43006 0.0
C4464 C 0.45145 0.61883 0.44782 0.0
C4465 C 0.44028 0.61996 0.44562 0.0
C4466 C 0.43689 0.62465 0.43577 0.0
C4467 C 0.44457 0.62779 0.42797 0.0
C4468 C 0.43212 0.61572 0.45336 0.0
C4469 C 0.42884 0.62225 0.46215 0.0
C4470 C 0.42753 0.60527 0.45197 0.0
C4471 C 0.43076 0.59821 0.44275 0.0
C4472 C 0.42655 0.60011 0.43226 0.0
C4473 C 0.42986 0.59361 0.42349 0.0
C4474 C 0.43729 0.58512 0.42514 0.0
C4475 C 0.44142 0.58312 0.43558 0.0
C4476 C 0.43819 0.58964 0.44437 0.0
C4477 C 0.38765 0.60738 0.48005 0.0
C4478 C 0.38725 0.59681 0.48447 0.0
C4479 C 0.39708 0.61116 0.47496 0.0
C4480 C 0.40642 0.60456 0.47438 0.0
C4481 C 0.40622 0.59418 0.47926 0.0
C4482 C 0.39671 0.59034 0.4843 0.0
C4483 C 0.41599 0.60822 0.46793 0.0
C4484 C 0.4196 0.60157 0.45931 0.0
C4485 C 0.42081 0.61863 0.46948 0.0
C4486 C 0.41755 0.62589 0.47861 0.0
C4487 C 0.41765 0.62207 0.48943 0.0
C4488 C 0.4142 0.62883 0.49795 0.0
C4489 C 0.41068 0.63945 0.49576 0.0
C4490 C 0.41067 0.64336 0.48505 0.0
C4491 C 0.41411 0.63664 0.4765 0.0
H4492 H 0.40798 0.64466 0.50236 0.0
H4493 H 0.43984 0.58009 0.41834 0.0
H4494 H 0.13756 0.13384 0.73887 0.0
H4495 H 0.13016 0.1495 0.72902 0.0
H4496 H 0.16284 0.16078 0.72241 0.0
H4497 H 0.17029 0.14506 0.73235 0.0
H4498 H 0.14861 0.17778 0.72647 0.0
H4499 H 0.14972 0.14628 0.70216 0.0
H4500 H 0.14582 0.12754 0.69579 0.0
H4501 H 0.11156 0.13277 0.70074 0.0
H4502 H 0.11521 0.15163 0.70682 0.0
H4503 H 0.13822 0.20009 0.67139 0.0
H4504 H 0.14397 0.18703 0.68542 0.0
H4505 H 0.11422 0.19293 0.70323 0.0
H4506 H 0.10862 0.20639 0.68946 0.0
H4507 H 0.12599 0.16789 0.69437 0.0
H4508 H 0.12517 0.19987 0.71865 0.0
H4509 H 0.12949 0.21891 0.72352 0.0
H4510 H 0.16361 0.21257 0.71859 0.0
H4511 H 0.15943 0.19353 0.71347 0.0
C4512 C 0.14315 0.13987 0.73565 0.0
C4513 C 0.15449 0.13828 0.7364 0.0
C4514 C 0.13892 0.14873 0.7299 0.0
C4515 C 0.14595 0.15614 0.72476 0.0
C4516 C 0.15728 0.1551 0.72627 0.0
C4517 C 0.16153 0.14621 0.73206 0.0
C4518 C 0.14147 0.16457 0.71732 0.0
C4519 C 0.14369 0.1756 0.71944 0.0
C4520 C 0.13491 0.16177 0.70822 0.0
C4521 C 0.13275 0.15029 0.70509 0.0
C4522 C 0.14137 0.14339 0.70198 0.0
C4523 C 0.1392 0.13278 0.69837 0.0
C4524 C 0.12847 0.12893 0.69799 0.0
C4525 C 0.11987 0.13574 0.7011 0.0
C4526 C 0.12197 0.14641 0.70456 0.0
C4527 C 0.1329 0.19858 0.67829 0.0
C4528 C 0.12296 0.2042 0.67934 0.0
C4529 C 0.13623 0.1912 0.68632 0.0
C4530 C 0.1296 0.18921 0.69543 0.0
C4531 C 0.11954 0.19458 0.69637 0.0
C4532 C 0.11633 0.20218 0.68848 0.0
C4533 C 0.13304 0.18104 0.70359 0.0
C4534 C 0.13075 0.17004 0.70151 0.0
C4535 C 0.13947 0.18387 0.71273 0.0
C4536 C 0.14197 0.19537 0.71543 0.0
C4537 C 0.13357 0.2026 0.71838 0.0
C4538 C 0.13599 0.21337 0.72125 0.0
C4539 C 0.14681 0.21697 0.72129 0.0
C4540 C 0.15522 0.20979 0.71849 0.0
C4541 C 0.15283 0.19902 0.71559 0.0
H4542 H 0.14868 0.2253 0.72356 0.0
H4543 H 0.12683 0.1207 0.69524 0.0
H4544 H 0.02468 0.10752 0.57645 0.0
H4545 H 0.03487 0.09242 0.58442 0.0
H4546 H 0.01355 0.09289 0.61251 0.0
H4547 H 0.00402 0.10872 0.60487 0.0
H4548 H 0.03228 0.09178 0.61964 0.0
H4549 H 0.01462 0.07157 0.59188 0.0
H4550 H 0.00818 0.06704 0.57338 0.0
H4551 H 0.04129 0.06389 0.5624 0.0
H4552 H 0.04794 0.06851 0.58081 0.0
H4553 H 0.05757 0.0408 0.63749 0.0
H4554 H 0.0444 0.05437 0.63097 0.0
H4555 H 0.06827 0.0667 0.60827 0.0
H4556 H 0.08155 0.05332 0.61483 0.0
H4557 H 0.04669 0.05982 0.59945 0.0
H4558 H 0.06332 0.08173 0.6282 0.0
H4559 H 0.06855 0.08556 0.64724 0.0
H4560 H 0.03499 0.08343 0.65708 0.0
H4561 H 0.02958 0.07941 0.63811 0.0
C4562 C 0.02197 0.10413 0.58415 0.0
C4563 C 0.01346 0.10906 0.58997 0.0
C4564 C 0.02779 0.09548 0.58873 0.0
C4565 C 0.02491 0.09131 0.59903 0.0
C4566 C 0.01596 0.09592 0.60457 0.0
C4567 C 0.01041 0.10484 0.60015 0.0
C4568 C 0.03182 0.08289 0.60442 0.0
C4569 C 0.03521 0.08468 0.61524 0.0
C4570 C 0.03578 0.07361 0.59875 0.0
C4571 C 0.03179 0.07058 0.58771 0.0
C4572 C 0.02054 0.07 0.58551 0.0
C4573 C 0.01685 0.0674 0.57504 0.0
C4574 C 0.02432 0.06524 0.56671 0.0
C4575 C 0.03551 0.06561 0.56885 0.0
C4576 C 0.03924 0.06822 0.5793 0.0
C4577 C 0.06007 0.04651 0.63122 0.0
C4578 C 0.0706 0.04599 0.62666 0.0
C4579 C 0.05254 0.05425 0.62753 0.0
C4580 C 0.05539 0.06148 0.61915 0.0
C4581 C 0.06595 0.06116 0.61476 0.0
C4582 C 0.07354 0.05356 0.61856 0.0
C4583 C 0.04718 0.06893 0.61443 0.0
C4584 C 0.04357 0.06688 0.60378 0.0
C4585 C 0.04277 0.07776 0.62035 0.0
C4586 C 0.04607 0.08012 0.63175 0.0
C4587 C 0.05707 0.08195 0.63444 0.0
C4588 C 0.06006 0.08419 0.64522 0.0
C4589 C 0.05211 0.0847 0.65337 0.0
C4590 C 0.04114 0.083 0.65076 0.0
C4591 C 0.03811 0.08075 0.64 0.0
H4592 H 0.05444 0.08645 0.66171 0.0
H4593 H 0.02145 0.06324 0.5586 0.0
H4594 H 0.58276 0.94463 0.88213 0.0
H4595 H 0.56984 0.93088 0.88864 0.0
H4596 H 0.54379 0.94704 0.87135 0.0
H4597 H 0.55655 0.96091 0.865 0.0
H4598 H 0.53714 0.9418 0.89108 0.0
H4599 H 0.55526 0.9232 0.86171 0.0
H4600 H 0.57096 0.91613 0.85129 0.0
H4601 H 0.58064 0.89664 0.87873 0.0
H4602 H 0.56505 0.90368 0.88936 0.0
H4603 H 0.51087 0.88402 0.88767 0.0
H4604 H 0.52118 0.89966 0.88072 0.0
H4605 H 0.52754 0.91012 0.91371 0.0
H4606 H 0.51695 0.89469 0.92068 0.0
H4607 H 0.5434 0.90215 0.88571 0.0
H4608 H 0.52793 0.93119 0.91519 0.0
H4609 H 0.51087 0.93766 0.92379 0.0
H4610 H 0.49451 0.93601 0.89284 0.0
H4611 H 0.51144 0.92932 0.88416 0.0
C4612 C 0.5743 0.94522 0.87965 0.0
C4613 C 0.5707 0.95387 0.87304 0.0
C4614 C 0.56692 0.93734 0.88337 0.0
C4615 C 0.55586 0.9379 0.88043 0.0
C4616 C 0.55227 0.94648 0.87377 0.0
C4617 C 0.5596 0.95438 0.87011 0.0
C4618 C 0.54796 0.92961 0.88435 0.0
C4619 C 0.53855 0.93314 0.88989 0.0
C4620 C 0.54967 0.9183 0.88272 0.0
C4621 C 0.55905 0.91405 0.87636 0.0
C4622 C 0.56078 0.91747 0.86554 0.0
C4623 C 0.56965 0.91345 0.8596 0.0
C4624 C 0.57681 0.90596 0.86435 0.0
C4625 C 0.57509 0.90245 0.87506 0.0
C4626 C 0.56624 0.90644 0.88105 0.0
C4627 C 0.51414 0.8899 0.89341 0.0
C4628 C 0.51302 0.88826 0.90468 0.0
C4629 C 0.52008 0.89877 0.88944 0.0
C4630 C 0.52505 0.90608 0.89669 0.0
C4631 C 0.52353 0.90474 0.90797 0.0
C4632 C 0.51746 0.89594 0.91194 0.0
C4633 C 0.53274 0.91437 0.8925 0.0
C4634 C 0.54209 0.91082 0.88692 0.0
C4635 C 0.53093 0.92564 0.89392 0.0
C4636 C 0.52087 0.92975 0.89908 0.0
C4637 C 0.52068 0.93222 0.91026 0.0
C4638 C 0.51103 0.93588 0.91514 0.0
C4639 C 0.50161 0.93724 0.90887 0.0
C4640 C 0.5018 0.93492 0.8977 0.0
C4641 C 0.51139 0.93115 0.89281 0.0
H4642 H 0.49416 0.9401 0.91265 0.0
H4643 H 0.58367 0.90286 0.85973 0.0
H4644 H 0.85339 0.26214 0.16822 0.0
H4645 H 0.83759 0.27209 0.16097 0.0
H4646 H 0.85479 0.2775 0.13077 0.0
H4647 H 0.87042 0.26736 0.13777 0.0
H4648 H 0.84647 0.29699 0.14198 0.0
H4649 H 0.83508 0.26092 0.12962 0.0
H4650 H 0.83086 0.24153 0.13302 0.0
H4651 H 0.80589 0.25081 0.1558 0.0
H4652 H 0.81007 0.27025 0.15261 0.0
H4653 H 0.80776 0.32434 0.11031 0.0
H4654 H 0.82147 0.31124 0.1166 0.0
H4655 H 0.7985 0.29856 0.14015 0.0
H4656 H 0.78455 0.31109 0.1332 0.0
H4657 H 0.80959 0.28263 0.13347 0.0
H4658 H 0.81948 0.31792 0.14638 0.0
H4659 H 0.82343 0.33758 0.14486 0.0
H4660 H 0.85096 0.33065 0.12431 0.0
H4661 H 0.84702 0.31094 0.1255 0.0
C4662 C 0.85368 0.26517 0.15993 0.0
C4663 C 0.86319 0.26406 0.1536 0.0
C4664 C 0.84469 0.27092 0.15584 0.0
C4665 C 0.84513 0.27563 0.1454 0.0
C4666 C 0.85437 0.27402 0.13888 0.0
C4667 C 0.86327 0.26818 0.1429 0.0
C4668 C 0.83623 0.28274 0.14143 0.0
C4669 C 0.83843 0.29387 0.13999 0.0
C4670 C 0.82567 0.27869 0.1393 0.0
C4671 C 0.82293 0.26702 0.14093 0.0
C4672 C 0.82872 0.25882 0.13538 0.0
C4673 C 0.82634 0.24782 0.13727 0.0
C4674 C 0.81813 0.24494 0.14464 0.0
C4675 C 0.81225 0.25305 0.15009 0.0
C4676 C 0.81461 0.26406 0.14824 0.0
C4677 C 0.80567 0.31867 0.11677 0.0
C4678 C 0.79521 0.31871 0.12137 0.0
C4679 C 0.8135 0.31124 0.12042 0.0
C4680 C 0.81115 0.30409 0.1291 0.0
C4681 C 0.80056 0.30399 0.13349 0.0
C4682 C 0.79261 0.31117 0.12957 0.0
C4683 C 0.81982 0.29698 0.13377 0.0
C4684 C 0.8176 0.28584 0.13544 0.0
C4685 C 0.8303 0.3011 0.13643 0.0
C4686 C 0.83289 0.31294 0.13595 0.0
C4687 C 0.82633 0.32059 0.14147 0.0
C4688 C 0.82854 0.33175 0.14064 0.0
C4689 C 0.83741 0.33537 0.13446 0.0
C4690 C 0.84409 0.32783 0.1291 0.0
C4691 C 0.84186 0.31666 0.12984 0.0
H4692 H 0.83914 0.34401 0.13386 0.0
H4693 H 0.81631 0.23642 0.14611 0.0
H4694 H 0.48307 0.60469 0.41973 0.0
H4695 H 0.47283 0.58902 0.41288 0.0
H4696 H 0.47779 0.6002 0.37984 0.0
H4697 H 0.48749 0.61622 0.38676 0.0
H4698 H 0.45772 0.59583 0.38225 0.0
H4699 H 0.49033 0.57617 0.39111 0.0
H4700 H 0.5056 0.57035 0.40285 0.0
H4701 H 0.48296 0.55654 0.42575 0.0
H4702 H 0.46755 0.5624 0.41421 0.0
H4703 H 0.43854 0.54533 0.35804 0.0
H4704 H 0.45165 0.55908 0.36455 0.0
H4705 H 0.43583 0.55931 0.39598 0.0
H4706 H 0.42241 0.54597 0.38934 0.0
H4707 H 0.46175 0.55726 0.39388 0.0
H4708 H 0.42928 0.57829 0.38509 0.0
H4709 H 0.41429 0.58415 0.37303 0.0
H4710 H 0.43753 0.59542 0.34936 0.0
H4711 H 0.45267 0.58938 0.36118 0.0
C4712 C 0.48226 0.6036 0.41099 0.0
C4713 C 0.48617 0.61155 0.40374 0.0
C4714 C 0.47639 0.59464 0.40707 0.0
C4715 C 0.47461 0.59333 0.39581 0.0
C4716 C 0.47903 0.60103 0.38855 0.0
C4717 C 0.48466 0.61011 0.39249 0.0
C4718 C 0.46739 0.58451 0.39166 0.0
C4719 C 0.45877 0.58738 0.38466 0.0
C4720 C 0.46853 0.57348 0.39497 0.0
C4721 C 0.47779 0.56979 0.40183 0.0
C4722 C 0.48861 0.57193 0.39867 0.0
C4723 C 0.49729 0.56863 0.40529 0.0
C4724 C 0.49525 0.5631 0.41505 0.0
C4725 C 0.48453 0.56083 0.41819 0.0
C4726 C 0.47582 0.56412 0.4116 0.0
C4727 C 0.43791 0.54833 0.36633 0.0
C4728 C 0.42949 0.54472 0.3732 0.0
C4729 C 0.44537 0.55613 0.37003 0.0
C4730 C 0.44466 0.56015 0.38072 0.0
C4731 C 0.43647 0.55628 0.3877 0.0
C4732 C 0.42881 0.54874 0.3839 0.0
C4733 C 0.45226 0.56868 0.38452 0.0
C4734 C 0.46087 0.56573 0.39143 0.0
C4735 C 0.45119 0.57961 0.38107 0.0
C4736 C 0.4421 0.58319 0.37393 0.0
C4737 C 0.43119 0.58185 0.37723 0.0
C4738 C 0.42267 0.58524 0.37046 0.0
C4739 C 0.42495 0.59011 0.36041 0.0
C4740 C 0.43577 0.59161 0.35713 0.0
C4741 C 0.44432 0.58819 0.36386 0.0
H4742 H 0.41834 0.59275 0.35519 0.0
H4743 H 0.50198 0.56056 0.42017 0.0
H4744 H 0.71543 0.69313 0.62786 0.0
H4745 H 0.7016 0.70649 0.63352 0.0
H4746 H 0.67613 0.68421 0.62384 0.0
H4747 H 0.68994 0.67082 0.61824 0.0
H4748 H 0.67421 0.70773 0.61679 0.0
H4749 H 0.68169 0.68444 0.64844 0.0
H4750 H 0.69417 0.67662 0.66216 0.0
H4751 H 0.70263 0.70878 0.6731 0.0
H4752 H 0.69043 0.71682 0.65926 0.0
H4753 H 0.62493 0.72305 0.63982 0.0
H4754 H 0.6414 0.71475 0.63293 0.0
H4755 H 0.66038 0.7325 0.65674 0.0
H4756 H 0.64353 0.73977 0.66464 0.0
H4757 H 0.66802 0.71397 0.6563 0.0
H4758 H 0.65997 0.73794 0.6271 0.0
H4759 H 0.64879 0.74716 0.61314 0.0
H4760 H 0.6431 0.7165 0.59717 0.0
H4761 H 0.65411 0.70707 0.61111 0.0
C4762 C 0.70687 0.69113 0.62689 0.0
C4763 C 0.70368 0.68091 0.62279 0.0
C4764 C 0.69901 0.69874 0.63013 0.0
C4765 C 0.68789 0.69628 0.62912 0.0
C4766 C 0.6847 0.68622 0.62468 0.0
C4767 C 0.69255 0.67855 0.62162 0.0
C4768 C 0.67951 0.70398 0.63307 0.0
C4769 C 0.67277 0.70912 0.62542 0.0
C4770 C 0.67807 0.70612 0.64429 0.0
C4771 C 0.68526 0.70123 0.65271 0.0
C4772 C 0.6863 0.68984 0.65369 0.0
C4773 C 0.6933 0.68537 0.6615 0.0
C4774 C 0.69919 0.69218 0.66848 0.0
C4775 C 0.69808 0.7035 0.66768 0.0
C4776 C 0.69113 0.70802 0.65984 0.0
C4777 C 0.63254 0.72505 0.64377 0.0
C4778 C 0.63283 0.73177 0.65304 0.0
C4779 C 0.64208 0.72051 0.63959 0.0
C4780 C 0.65227 0.72311 0.64413 0.0
C4781 C 0.65265 0.73031 0.65308 0.0
C4782 C 0.64301 0.73453 0.65755 0.0
C4783 C 0.66232 0.71764 0.64003 0.0
C4784 C 0.66946 0.71288 0.64764 0.0
C4785 C 0.66432 0.71611 0.62872 0.0
C4786 C 0.65784 0.72179 0.62019 0.0
C4787 C 0.6563 0.73316 0.62063 0.0
C4788 C 0.64999 0.73842 0.61272 0.0
C4789 C 0.64523 0.73242 0.60428 0.0
C4790 C 0.6468 0.72114 0.60371 0.0
C4791 C 0.65309 0.71583 0.6116 0.0
H4792 H 0.64034 0.73651 0.59818 0.0
H4793 H 0.7046 0.68869 0.67452 0.0
H4794 H 0.94404 0.96173 0.6323 0.0
H4795 H 0.95748 0.94834 0.6262 0.0
H4796 H 0.93154 0.92678 0.61614 0.0
H4797 H 0.91803 0.94001 0.62239 0.0
H4798 H 0.94704 0.91553 0.62602 0.0
H4799 H 0.94547 0.94266 0.59773 0.0
H4800 H 0.94656 0.96109 0.58972 0.0
H4801 H 0.97992 0.96383 0.60007 0.0
H4802 H 0.97898 0.94546 0.60828 0.0
H4803 H 0.97282 0.88829 0.57981 0.0
H4804 H 0.96333 0.90353 0.58868 0.0
H4805 H 0.98739 0.90364 0.61435 0.0
H4806 H 0.99649 0.88788 0.60586 0.0
H4807 H 0.97466 0.92586 0.59825 0.0
H4808 H 0.97448 0.89758 0.62789 0.0
H4809 H 0.97224 0.8784 0.63356 0.0
H4810 H 0.94052 0.87757 0.61872 0.0
H4811 H 0.94276 0.89665 0.61264 0.0
C4812 C 0.94117 0.95412 0.62883 0.0
C4813 C 0.92993 0.95198 0.62778 0.0
C4814 C 0.94888 0.94649 0.62531 0.0
C4815 C 0.94552 0.93661 0.6206 0.0
C4816 C 0.93432 0.93435 0.61976 0.0
C4817 C 0.9266 0.94195 0.6233 0.0
C4818 C 0.95361 0.92868 0.61635 0.0
C4819 C 0.95312 0.91783 0.62001 0.0
C4820 C 0.96158 0.93165 0.60851 0.0
C4821 C 0.96211 0.94276 0.60374 0.0
C4822 C 0.953 0.94724 0.5984 0.0
C4823 C 0.9536 0.95766 0.5938 0.0
C4824 C 0.96329 0.96364 0.59442 0.0
C4825 C 0.97241 0.9592 0.59963 0.0
C4826 C 0.97185 0.94879 0.60425 0.0
C4827 C 0.97619 0.89174 0.58723 0.0
C4828 C 0.98539 0.88707 0.59216 0.0
C4829 C 0.97075 0.90036 0.5923 0.0
C4830 C 0.97458 0.90452 0.60224 0.0
C4831 C 0.98421 0.90035 0.60679 0.0
C4832 C 0.98946 0.89149 0.60189 0.0
C4833 C 0.96811 0.91285 0.60803 0.0
C4834 C 0.9688 0.9237 0.60453 0.0
C4835 C 0.96025 0.90988 0.61593 0.0
C4836 C 0.95891 0.89844 0.61959 0.0
C4837 C 0.96713 0.89323 0.62565 0.0
C4838 C 0.96584 0.8824 0.62897 0.0
C4839 C 0.95627 0.87674 0.62643 0.0
C4840 C 0.94796 0.88193 0.62061 0.0
C4841 C 0.94925 0.89274 0.6172 0.0
H4842 H 0.95527 0.86836 0.62904 0.0
H4843 H 0.96374 0.9717 0.59084 0.0
H4844 H 0.85192 0.23369 0.32856 0.0
H4845 H 0.83576 0.22457 0.3362 0.0
H4846 H 0.85146 0.22298 0.36761 0.0
H4847 H 0.86733 0.23241 0.36024 0.0
H4848 H 0.84047 0.20199 0.34862 0.0
H4849 H 0.8372 0.23144 0.37837 0.0
H4850 H 0.83584 0.2511 0.38254 0.0
H4851 H 0.80976 0.25434 0.35935 0.0
H4852 H 0.81116 0.23472 0.35492 0.0
H4853 H 0.80736 0.16916 0.38192 0.0
H4854 H 0.82121 0.18232 0.37609 0.0
H4855 H 0.79586 0.20414 0.36501 0.0
H4856 H 0.78204 0.19135 0.37152 0.0
H4857 H 0.81112 0.2158 0.37289 0.0
H4858 H 0.81059 0.18567 0.34746 0.0
H4859 H 0.81141 0.16614 0.3426 0.0
H4860 H 0.84389 0.1641 0.35558 0.0
H4861 H 0.8432 0.18357 0.36065 0.0
C4862 C 0.85174 0.23175 0.33718 0.0
C4863 C 0.86091 0.23367 0.34379 0.0
C4864 C 0.84255 0.2265 0.34151 0.0
C4865 C 0.84243 0.22321 0.35248 0.0
C4866 C 0.85133 0.22565 0.35919 0.0
C4867 C 0.86043 0.23095 0.35492 0.0
C4868 C 0.83368 0.21607 0.35664 0.0
C4869 C 0.83405 0.20496 0.35395 0.0
C4870 C 0.82531 0.22001 0.36346 0.0
C4871 C 0.82441 0.23171 0.36619 0.0
C4872 C 0.83128 0.23639 0.37408 0.0
C4873 C 0.83049 0.24751 0.3765 0.0
C4874 C 0.82276 0.25398 0.37117 0.0
C4875 C 0.81578 0.24933 0.36344 0.0
C4876 C 0.81658 0.23822 0.36095 0.0
C4877 C 0.80478 0.17681 0.37831 0.0
C4878 C 0.79366 0.17922 0.37708 0.0
C4879 C 0.81268 0.18431 0.37493 0.0
C4880 C 0.8096 0.19411 0.36981 0.0
C4881 C 0.79847 0.19664 0.36888 0.0
C4882 C 0.79057 0.1893 0.37257 0.0
C4883 C 0.81791 0.20154 0.36504 0.0
C4884 C 0.81748 0.21273 0.36755 0.0
C4885 C 0.82622 0.19765 0.35797 0.0
C4886 C 0.82682 0.18606 0.35449 0.0
C4887 C 0.8179 0.18105 0.34928 0.0
C4888 C 0.81834 0.16999 0.3465 0.0
C4889 C 0.82769 0.16388 0.34879 0.0
C4890 C 0.83665 0.16884 0.35381 0.0
C4891 C 0.83625 0.17989 0.35662 0.0
H4892 H 0.82799 0.15531 0.34668 0.0
H4893 H 0.82215 0.26259 0.37306 0.0
H4894 H 0.13039 0.26567 0.85941 0.0
H4895 H 0.14573 0.27578 0.86706 0.0
H4896 H 0.15961 0.27922 0.83488 0.0
H4897 H 0.14417 0.26902 0.82715 0.0
H4898 H 0.1668 0.2719 0.86763 0.0
H4899 H 0.16932 0.30256 0.83235 0.0
H4900 H 0.15884 0.3165 0.82222 0.0
H4901 H 0.13491 0.31733 0.8478 0.0
H4902 H 0.14516 0.30328 0.85795 0.0
H4903 H 0.21513 0.30443 0.87698 0.0
H4904 H 0.20083 0.29178 0.87106 0.0
H4905 H 0.17696 0.31752 0.87394 0.0
H4906 H 0.19122 0.33024 0.87945 0.0
H4907 H 0.17546 0.30937 0.85523 0.0
H4908 H 0.17729 0.29515 0.89075 0.0
H4909 H 0.18276 0.28625 0.9079 0.0
H4910 H 0.19118 0.25712 0.89034 0.0
H4911 H 0.18612 0.26596 0.87303 0.0
C4912 C 0.13681 0.26842 0.85399 0.0
C4913 C 0.13617 0.26648 0.84272 0.0
C4914 C 0.14553 0.27424 0.85835 0.0
C4915 C 0.15374 0.27834 0.85152 0.0
C4916 C 0.15329 0.27621 0.84027 0.0
C4917 C 0.14457 0.27025 0.83589 0.0
C4918 C 0.16282 0.28468 0.8563 0.0
C4919 C 0.16884 0.28006 0.86486 0.0
C4920 C 0.16515 0.29544 0.85297 0.0
C4921 C 0.15787 0.30176 0.84577 0.0
C4922 C 0.16166 0.30551 0.83564 0.0
C4923 C 0.15583 0.31351 0.82996 0.0
C4924 C 0.14631 0.3179 0.83445 0.0
C4925 C 0.14232 0.31396 0.84437 0.0
C4926 C 0.14806 0.30589 0.85002 0.0
C4927 C 0.2068 0.30735 0.87645 0.0
C4928 C 0.2043 0.31838 0.87846 0.0
C4929 C 0.19863 0.30008 0.87315 0.0
C4930 C 0.18784 0.30371 0.87198 0.0
C4931 C 0.18527 0.31457 0.87463 0.0
C4932 C 0.19342 0.32185 0.87775 0.0
C4933 C 0.17944 0.29672 0.86678 0.0
C4934 C 0.17368 0.30113 0.85794 0.0
C4935 C 0.17691 0.28605 0.8704 0.0
C4936 C 0.18148 0.2813 0.88054 0.0
C4937 C 0.18062 0.28697 0.89048 0.0
C4938 C 0.18359 0.28191 0.90026 0.0
C4939 C 0.18731 0.27114 0.90022 0.0
C4940 C 0.18833 0.26548 0.89037 0.0
C4941 C 0.18547 0.27053 0.88057 0.0
H4942 H 0.18932 0.26716 0.90784 0.0
H4943 H 0.14197 0.32431 0.83023 0.0
H4944 H 0.62141 0.08218 0.05582 0.0
H4945 H 0.61485 0.06902 0.06922 0.0
H4946 H 0.62547 0.04254 0.04861 0.0
H4947 H 0.63199 0.05565 0.03505 0.0
H4948 H 0.60513 0.03899 0.05643 0.0
H4949 H 0.63996 0.0494 0.07113 0.0
H4950 H 0.65411 0.06216 0.07761 0.0
H4951 H 0.63233 0.07405 0.10235 0.0
H4952 H 0.61799 0.06147 0.09592 0.0
H4953 H 0.60951 0.00928 0.11346 0.0
H4954 H 0.61728 0.01899 0.09786 0.0
H4955 H 0.58497 0.0292 0.08823 0.0
H4956 H 0.57718 0.01907 0.10356 0.0
H4957 H 0.61724 0.03986 0.09504 0.0
H4958 H 0.5833 0.03574 0.06365 0.0
H4959 H 0.5698 0.02218 0.05733 0.0
H4960 H 0.59178 0.99619 0.06565 0.0
H4961 H 0.60536 0.00961 0.07209 0.0
C4962 C 0.62239 0.07356 0.05411 0.0
C4963 C 0.62725 0.07 0.04433 0.0
C4964 C 0.61867 0.06604 0.06182 0.0
C4965 C 0.61976 0.0548 0.05996 0.0
C4966 C 0.62456 0.05119 0.05021 0.0
C4967 C 0.62831 0.05871 0.04248 0.0
C4968 C 0.6157 0.04681 0.06811 0.0
C4969 C 0.60783 0.03915 0.06486 0.0
C4970 C 0.61925 0.04696 0.0791 0.0
C4971 C 0.62786 0.05456 0.08297 0.0
C4972 C 0.63815 0.0548 0.0779 0.0
C4973 C 0.64622 0.06199 0.08157 0.0
C4974 C 0.64411 0.06893 0.09037 0.0
C4975 C 0.63395 0.06868 0.09553 0.0
C4976 C 0.62585 0.06151 0.09187 0.0
C4977 C 0.60406 0.01327 0.10776 0.0
C4978 C 0.59275 0.01329 0.10959 0.0
C4979 C 0.6085 0.01891 0.09892 0.0
C4980 C 0.60174 0.02482 0.09182 0.0
C4981 C 0.59037 0.0245 0.09341 0.0
C4982 C 0.5859 0.01868 0.10216 0.0
C4983 C 0.60665 0.03203 0.08337 0.0
C4984 C 0.61462 0.03962 0.08658 0.0
C4985 C 0.60332 0.03174 0.07233 0.0
C4986 C 0.5953 0.02365 0.06835 0.0
C4987 C 0.58525 0.02713 0.06407 0.0
C4988 C 0.57758 0.01947 0.06052 0.0
C4989 C 0.57993 0.00833 0.06109 0.0
C4990 C 0.58996 0.00482 0.06524 0.0
C4991 C 0.59762 0.01244 0.06888 0.0
H4992 H 0.57399 0.00241 0.05832 0.0
H4993 H 0.65037 0.07448 0.0932 0.0
H4994 H 0.17397 0.85708 0.29284 0.0
H4995 H 0.18745 0.85039 0.30592 0.0
H4996 H 0.19924 0.88329 0.3106 0.0
H4997 H 0.18635 0.88978 0.29673 0.0
H4998 H 0.21555 0.8713 0.31134 0.0
H4999 H 0.1817 0.86937 0.32966 0.0
H5000 H 0.16213 0.86495 0.33112 0.0
H5001 H 0.1695 0.83077 0.32883 0.0
H5002 H 0.18913 0.83499 0.32726 0.0
H5003 H 0.23977 0.85923 0.36302 0.0
H5004 H 0.22926 0.86593 0.34756 0.0
H5005 H 0.22212 0.83279 0.33801 0.0
H5006 H 0.23242 0.82604 0.3538 0.0
H5007 H 0.20372 0.84531 0.34004 0.0
H5008 H 0.23955 0.85015 0.32279 0.0
H5009 H 0.25834 0.85737 0.32317 0.0
H5010 H 0.24595 0.88994 0.32684 0.0
H5011 H 0.2271 0.8829 0.32659 0.0
C5012 C 0.17944 0.86284 0.29671 0.0
C5013 C 0.17909 0.87393 0.29396 0.0
C5014 C 0.18711 0.85905 0.30423 0.0
C5015 C 0.19421 0.86636 0.30953 0.0
C5016 C 0.19386 0.87747 0.30669 0.0
C5017 C 0.18646 0.8812 0.29884 0.0
C5018 C 0.20193 0.86238 0.31806 0.0
C5019 C 0.2129 0.86569 0.31765 0.0
C5020 C 0.19855 0.85516 0.32644 0.0
C5021 C 0.18687 0.8525 0.32822 0.0
C5022 C 0.17915 0.86091 0.32949 0.0
C5023 C 0.16805 0.85844 0.33031 0.0
C5024 C 0.16457 0.8476 0.32998 0.0
C5025 C 0.17221 0.83917 0.32903 0.0
C5026 C 0.18333 0.84159 0.32821 0.0
C5027 C 0.23632 0.85336 0.35738 0.0
C5028 C 0.237 0.84212 0.35953 0.0
C5029 C 0.23026 0.8572 0.34856 0.0
C5030 C 0.22493 0.84987 0.34158 0.0
C5031 C 0.2262 0.83859 0.34329 0.0
C5032 C 0.23224 0.83473 0.35219 0.0
C5033 C 0.21734 0.854 0.33309 0.0
C5034 C 0.20634 0.85081 0.33362 0.0
C5035 C 0.2206 0.86174 0.32516 0.0
C5036 C 0.23192 0.86599 0.32468 0.0
C5037 C 0.24084 0.85885 0.32366 0.0
C5038 C 0.2515 0.86291 0.32387 0.0
C5039 C 0.25334 0.8741 0.32504 0.0
C5040 C 0.24452 0.88127 0.32592 0.0
C5041 C 0.23384 0.87725 0.32571 0.0
H5042 H 0.2616 0.87723 0.32525 0.0
H5043 H 0.15596 0.84572 0.33047 0.0
H5044 H 0.3863 0.4381 0.53205 0.0
H5045 H 0.39242 0.4516 0.54559 0.0
H5046 H 0.36646 0.44165 0.56721 0.0
H5047 H 0.3604 0.42814 0.5537 0.0
H5048 H 0.36949 0.46421 0.56683 0.0
H5049 H 0.38979 0.43149 0.57117 0.0
H5050 H 0.40117 0.41604 0.56518 0.0
H5051 H 0.42703 0.43813 0.55678 0.0
H5052 H 0.41567 0.45377 0.56243 0.0
H5053 H 0.38923 0.48167 0.61789 0.0
H5054 H 0.38206 0.47234 0.60206 0.0
H5055 H 0.41179 0.47922 0.58443 0.0
H5056 H 0.41956 0.48754 0.60089 0.0
H5057 H 0.40676 0.45908 0.58178 0.0
H5058 H 0.38473 0.49221 0.57979 0.0
H5059 H 0.37242 0.50587 0.588 0.0
H5060 H 0.3488 0.48087 0.59468 0.0
H5061 H 0.36101 0.46704 0.58664 0.0
C5062 C 0.3819 0.43891 0.53968 0.0
C5063 C 0.373 0.43213 0.542 0.0
C5064 C 0.38536 0.44658 0.54736 0.0
C5065 C 0.37991 0.44755 0.5574 0.0
C5066 C 0.37073 0.44104 0.5595 0.0
C5067 C 0.36734 0.43331 0.55186 0.0
C5068 C 0.38426 0.45475 0.56603 0.0
C5069 C 0.37764 0.46313 0.57012 0.0
C5070 C 0.39486 0.45323 0.57032 0.0
C5071 C 0.4018 0.44384 0.56705 0.0
C5072 C 0.39785 0.43308 0.56792 0.0
C5073 C 0.4043 0.42428 0.56459 0.0
C5074 C 0.4148 0.42611 0.56055 0.0
C5075 C 0.41888 0.43674 0.55986 0.0
C5076 C 0.41243 0.44558 0.56311 0.0
C5077 C 0.39429 0.48121 0.61066 0.0
C5078 C 0.40507 0.4851 0.61074 0.0
C5079 C 0.39006 0.47604 0.60149 0.0
C5080 C 0.39628 0.47521 0.59192 0.0
C5081 C 0.40682 0.47976 0.59172 0.0
C5082 C 0.41122 0.48463 0.60108 0.0
C5083 C 0.39211 0.46881 0.5825 0.0
C5084 C 0.39873 0.46043 0.57832 0.0
C5085 C 0.38138 0.47015 0.57835 0.0
C5086 C 0.3738 0.47859 0.58262 0.0
C5087 C 0.3769 0.48963 0.58299 0.0
C5088 C 0.36995 0.4974 0.58764 0.0
C5089 C 0.35984 0.49424 0.59186 0.0
C5090 C 0.35663 0.48331 0.59139 0.0
C5091 C 0.36355 0.47551 0.58676 0.0
H5092 H 0.35449 0.50025 0.59551 0.0
H5093 H 0.41979 0.41928 0.55798 0.0
H5094 H 0.77233 0.63772 0.87137 0.0
H5095 H 0.78141 0.63036 0.85528 0.0
H5096 H 0.77262 0.65911 0.83702 0.0
H5097 H 0.76353 0.66665 0.85321 0.0
H5098 H 0.77078 0.63865 0.82515 0.0
H5099 H 0.79721 0.65901 0.84655 0.0
H5100 H 0.80697 0.66394 0.86344 0.0
H5101 H 0.81748 0.63073 0.86726 0.0
H5102 H 0.80783 0.62562 0.85033 0.0
H5103 H 0.8104 0.63371 0.78284 0.0
H5104 H 0.79758 0.6391 0.79719 0.0
H5105 H 0.81308 0.61649 0.81938 0.0
H5106 H 0.82638 0.6118 0.80524 0.0
H5107 H 0.81075 0.63385 0.8293 0.0
H5108 H 0.78544 0.6133 0.80731 0.0
H5109 H 0.77528 0.60797 0.79075 0.0
H5110 H 0.76199 0.64029 0.78829 0.0
H5111 H 0.77214 0.64585 0.80475 0.0
C5112 C 0.77221 0.64246 0.86391 0.0
C5113 C 0.76735 0.65284 0.86359 0.0
C5114 C 0.77739 0.63822 0.85473 0.0
C5115 C 0.77779 0.64427 0.84504 0.0
C5116 C 0.77239 0.65435 0.84446 0.0
C5117 C 0.76721 0.65863 0.85369 0.0
C5118 C 0.78456 0.64038 0.83585 0.0
C5119 C 0.77954 0.63768 0.82594 0.0
C5120 C 0.79592 0.63887 0.83707 0.0
C5121 C 0.80172 0.64192 0.84724 0.0
C5122 C 0.80155 0.65275 0.85103 0.0
C5123 C 0.80708 0.65558 0.86059 0.0
C5124 C 0.81278 0.64764 0.86646 0.0
C5125 C 0.81304 0.63687 0.86272 0.0
C5126 C 0.80758 0.63401 0.85312 0.0
C5127 C 0.81099 0.62992 0.7908 0.0
C5128 C 0.81937 0.62248 0.79307 0.0
C5129 C 0.80358 0.63287 0.79896 0.0
C5130 C 0.80421 0.62811 0.80938 0.0
C5131 C 0.81242 0.62035 0.81145 0.0
C5132 C 0.82002 0.61767 0.80341 0.0
C5133 C 0.79703 0.63188 0.81842 0.0
C5134 C 0.80198 0.63466 0.82838 0.0
C5135 C 0.78559 0.63332 0.81722 0.0
C5136 C 0.77964 0.63001 0.80721 0.0
C5137 C 0.78042 0.6193 0.80318 0.0
C5138 C 0.77464 0.61623 0.79382 0.0
C5139 C 0.76802 0.6238 0.78846 0.0
C5140 C 0.76713 0.63444 0.79244 0.0
C5141 C 0.77288 0.63755 0.80179 0.0
H5142 H 0.76356 0.62142 0.78122 0.0
H5143 H 0.81703 0.64984 0.87388 0.0
H5144 H 0.57929 0.98693 0.89717 0.0
H5145 H 0.587 0.97774 0.91316 0.0
H5146 H 0.6183 0.97603 0.89717 0.0
H5147 H 0.61073 0.98532 0.88127 0.0
H5148 H 0.61055 0.95592 0.90365 0.0
H5149 H 0.61595 0.99144 0.91898 0.0
H5150 H 0.61065 0.00997 0.92473 0.0
H5151 H 0.58706 0.99657 0.94689 0.0
H5152 H 0.59212 0.97793 0.94117 0.0
H5153 H 0.64145 0.93208 0.94576 0.0
H5154 H 0.63462 0.94513 0.9322 0.0
H5155 H 0.60379 0.94667 0.9492 0.0
H5156 H 0.61073 0.93368 0.96284 0.0
H5157 H 0.61115 0.96708 0.94256 0.0
H5158 H 0.60446 0.93188 0.92614 0.0
H5159 H 0.60899 0.9133 0.91986 0.0
H5160 H 0.63484 0.92609 0.89999 0.0
H5161 H 0.6303 0.9448 0.90596 0.0
C5162 C 0.58789 0.9849 0.89721 0.0
C5163 C 0.59438 0.9867 0.88792 0.0
C5164 C 0.59227 0.97962 0.90633 0.0
C5165 C 0.60319 0.97613 0.90628 0.0
C5166 C 0.60984 0.97859 0.89732 0.0
C5167 C 0.60549 0.9839 0.88825 0.0
C5168 C 0.60738 0.96895 0.91503 0.0
C5169 C 0.61084 0.95843 0.91213 0.0
C5170 C 0.60742 0.97212 0.92612 0.0
C5171 C 0.60433 0.9833 0.92956 0.0
C5172 C 0.60956 0.99244 0.925 0.0
C5173 C 0.60662 0.00297 0.92828 0.0
C5174 C 0.59851 0.00445 0.93615 0.0
C5175 C 0.59334 0.99541 0.94078 0.0
C5176 C 0.59625 0.98486 0.93754 0.0
C5177 C 0.63329 0.93536 0.94663 0.0
C5178 C 0.62662 0.9321 0.95529 0.0
C5179 C 0.62937 0.94272 0.93889 0.0
C5180 C 0.61868 0.94678 0.93968 0.0
C5181 C 0.61207 0.94365 0.94849 0.0
C5182 C 0.61602 0.9363 0.95626 0.0
C5183 C 0.61438 0.95412 0.93113 0.0
C5184 C 0.61087 0.96461 0.93406 0.0
C5185 C 0.61424 0.95094 0.92005 0.0
C5186 C 0.6171 0.93971 0.91656 0.0
C5187 C 0.61115 0.93072 0.92048 0.0
C5188 C 0.6137 0.92017 0.91696 0.0
C5189 C 0.62227 0.9185 0.90963 0.0
C5190 C 0.62823 0.92739 0.9057 0.0
C5191 C 0.62563 0.93798 0.90909 0.0
H5192 H 0.62425 0.91032 0.90695 0.0
H5193 H 0.59625 0.01261 0.93867 0.0
H5194 H 0.33177 0.86297 0.19754 0.0
H5195 H 0.3188 0.85646 0.1839 0.0
H5196 H 0.29591 0.88141 0.19365 0.0
H5197 H 0.30868 0.88761 0.20767 0.0
H5198 H 0.28511 0.86401 0.19048 0.0
H5199 H 0.31134 0.88303 0.16946 0.0
H5200 H 0.32961 0.88838 0.16293 0.0
H5201 H 0.33506 0.85589 0.151 0.0
H5202 H 0.31686 0.85033 0.15757 0.0
H5203 H 0.26044 0.86084 0.1347 0.0
H5204 H 0.271 0.86766 0.1503 0.0
H5205 H 0.27988 0.83467 0.15869 0.0
H5206 H 0.269 0.82779 0.14335 0.0
H5207 H 0.29692 0.85684 0.15242 0.0
H5208 H 0.2693 0.8389 0.17653 0.0
H5209 H 0.24994 0.83633 0.18145 0.0
H5210 H 0.2462 0.87094 0.1855 0.0
H5211 H 0.26551 0.8737 0.18044 0.0
C5212 C 0.32401 0.86713 0.19671 0.0
C5213 C 0.32127 0.87586 0.20361 0.0
C5214 C 0.3166 0.86341 0.18889 0.0
C5215 C 0.30642 0.86855 0.18759 0.0
C5216 C 0.30369 0.8773 0.19447 0.0
C5217 C 0.31102 0.88088 0.20245 0.0
C5218 C 0.2986 0.8647 0.17914 0.0
C5219 C 0.28774 0.86252 0.18216 0.0
C5220 C 0.30188 0.86288 0.16819 0.0
C5221 C 0.31278 0.86622 0.16412 0.0
C5222 C 0.31647 0.87701 0.16551 0.0
C5223 C 0.3268 0.88009 0.16179 0.0
C5224 C 0.3335 0.87247 0.15659 0.0
C5225 C 0.32986 0.86177 0.15505 0.0
C5226 C 0.31954 0.85866 0.15876 0.0
C5227 C 0.26432 0.85505 0.14013 0.0
C5228 C 0.26376 0.84381 0.138 0.0
C5229 C 0.2704 0.85894 0.14895 0.0
C5230 C 0.27615 0.85164 0.15561 0.0
C5231 C 0.27535 0.84038 0.1537 0.0
C5232 C 0.26907 0.83647 0.14502 0.0
C5233 C 0.28373 0.85586 0.16394 0.0
C5234 C 0.29445 0.85826 0.16081 0.0
C5235 C 0.28025 0.85821 0.17465 0.0
C5236 C 0.26879 0.85651 0.17802 0.0
C5237 C 0.26432 0.84596 0.1784 0.0
C5238 C 0.25337 0.84446 0.18122 0.0
C5239 C 0.24684 0.85346 0.18376 0.0
C5240 C 0.25127 0.86397 0.18352 0.0
C5241 C 0.26221 0.86551 0.18069 0.0
H5242 H 0.23836 0.8523 0.18592 0.0
H5243 H 0.34151 0.87487 0.15372 0.0
H5244 H 0.37837 0.5573 0.4666 0.0
H5245 H 0.38408 0.54334 0.45337 0.0
H5246 H 0.37175 0.56318 0.42708 0.0
H5247 H 0.36644 0.57735 0.44018 0.0
H5248 H 0.36691 0.53651 0.42956 0.0
H5249 H 0.39353 0.56665 0.42523 0.0
H5250 H 0.40593 0.58002 0.43379 0.0
H5251 H 0.42344 0.554 0.44939 0.0
H5252 H 0.41101 0.54049 0.44106 0.0
H5253 H 0.38693 0.51862 0.37936 0.0
H5254 H 0.38008 0.5276 0.39552 0.0
H5255 H 0.40887 0.51776 0.41331 0.0
H5256 H 0.41636 0.50972 0.39659 0.0
H5257 H 0.40555 0.53759 0.41742 0.0
H5258 H 0.38115 0.50702 0.41781 0.0
H5259 H 0.36819 0.49385 0.40984 0.0
H5260 H 0.34599 0.51991 0.4024 0.0
H5261 H 0.35886 0.53325 0.4102 0.0
C5262 C 0.37686 0.55864 0.45799 0.0
C5263 C 0.3721 0.56841 0.45435 0.0
C5264 C 0.38007 0.55068 0.45049 0.0
C5265 C 0.37829 0.55229 0.43932 0.0
C5266 C 0.37315 0.56184 0.4357 0.0
C5267 C 0.37022 0.56993 0.44315 0.0
C5268 C 0.38248 0.54438 0.43131 0.0
C5269 C 0.37533 0.53669 0.42684 0.0
C5270 C 0.39351 0.54454 0.42807 0.0
C5271 C 0.40128 0.55259 0.43265 0.0
C5272 C 0.39999 0.56379 0.43054 0.0
C5273 C 0.40701 0.57139 0.43534 0.0
C5274 C 0.41542 0.56786 0.44218 0.0
C5275 C 0.4169 0.55672 0.44412 0.0
C5276 C 0.40987 0.54909 0.43936 0.0
C5277 C 0.39184 0.51835 0.38669 0.0
C5278 C 0.40232 0.51371 0.38661 0.0
C5279 C 0.38779 0.52332 0.39605 0.0
C5280 C 0.39385 0.52326 0.40576 0.0
C5281 C 0.40403 0.51795 0.40592 0.0
C5282 C 0.40827 0.51325 0.3964 0.0
C5283 C 0.38995 0.5296 0.41535 0.0
C5284 C 0.39715 0.53711 0.42019 0.0
C5285 C 0.37893 0.52921 0.41894 0.0
C5286 C 0.371 0.52114 0.41457 0.0
C5287 C 0.37351 0.50994 0.41446 0.0
C5288 C 0.36618 0.50245 0.40996 0.0
C5289 C 0.35628 0.50604 0.40561 0.0
C5290 C 0.35366 0.51713 0.40579 0.0
C5291 C 0.36096 0.52466 0.41027 0.0
H5292 H 0.35063 0.50023 0.4021 0.0
H5293 H 0.42077 0.57375 0.44599 0.0
H5294 H 0.68828 0.6055 0.70238 0.0
H5295 H 0.70157 0.61227 0.68894 0.0
H5296 H 0.68733 0.64442 0.69124 0.0
H5297 H 0.67388 0.63756 0.70431 0.0
H5298 H 0.68939 0.63833 0.6707 0.0
H5299 H 0.71255 0.63733 0.70289 0.0
H5300 H 0.72167 0.62832 0.7184 0.0
H5301 H 0.73795 0.60646 0.69638 0.0
H5302 H 0.72878 0.61524 0.68075 0.0
H5303 H 0.72773 0.67221 0.64415 0.0
H5304 H 0.71716 0.66376 0.65893 0.0
H5305 H 0.73126 0.63245 0.65116 0.0
H5306 H 0.74165 0.64083 0.6363 0.0
H5307 H 0.72968 0.6363 0.67362 0.0
H5308 H 0.70771 0.63682 0.64175 0.0
H5309 H 0.69695 0.64287 0.62588 0.0
H5310 H 0.67775 0.66364 0.64654 0.0
H5311 H 0.68832 0.65763 0.66255 0.0
C5312 C 0.68804 0.614 0.69995 0.0
C5313 C 0.67997 0.621 0.70407 0.0
C5314 C 0.69566 0.61788 0.69237 0.0
C5315 C 0.69543 0.62886 0.6891 0.0
C5316 C 0.68757 0.63589 0.69356 0.0
C5317 C 0.67986 0.63198 0.70094 0.0
C5318 C 0.7029 0.63304 0.68056 0.0
C5319 C 0.69821 0.63809 0.67144 0.0
C5320 C 0.71439 0.63214 0.68126 0.0
C5321 C 0.71989 0.62687 0.69066 0.0
C5322 C 0.718 0.63054 0.70137 0.0
C5323 C 0.72319 0.62549 0.71018 0.0
C5324 C 0.73036 0.6168 0.70838 0.0
C5325 C 0.73238 0.61317 0.69776 0.0
C5326 C 0.72719 0.61819 0.68893 0.0
C5327 C 0.72892 0.66363 0.64593 0.0
C5328 C 0.73567 0.65719 0.6393 0.0
C5329 C 0.72273 0.65877 0.65421 0.0
C5330 C 0.72336 0.64747 0.65602 0.0
C5331 C 0.73068 0.64118 0.64988 0.0
C5332 C 0.7367 0.64599 0.64151 0.0
C5333 C 0.71613 0.64212 0.66406 0.0
C5334 C 0.72086 0.63669 0.67297 0.0
C5335 C 0.70464 0.64254 0.66312 0.0
C5336 C 0.699 0.64697 0.65334 0.0
C5337 C 0.70136 0.64286 0.64289 0.0
C5338 C 0.6952 0.64618 0.63388 0.0
C5339 C 0.68669 0.65364 0.6352 0.0
C5340 C 0.68437 0.65788 0.64552 0.0
C5341 C 0.69043 0.6545 0.65456 0.0
H5342 H 0.68182 0.65607 0.62825 0.0
H5343 H 0.73436 0.61291 0.71521 0.0
H5344 H 0.61256 0.60878 0.50405 0.0
H5345 H 0.5963 0.61607 0.51314 0.0
H5346 H 0.59141 0.58494 0.52899 0.0
H5347 H 0.60704 0.57749 0.51918 0.0
H5348 H 0.57303 0.5925 0.52545 0.0
H5349 H 0.60552 0.60858 0.54086 0.0
H5350 H 0.62274 0.61902 0.54061 0.0
H5351 H 0.60566 0.64728 0.52891 0.0
H5352 H 0.58835 0.63699 0.529 0.0
H5353 H 0.55278 0.61316 0.57749 0.0
H5354 H 0.56549 0.60677 0.56348 0.0
H5355 H 0.55078 0.62847 0.54005 0.0
H5356 H 0.53775 0.6347 0.55393 0.0
H5357 H 0.57775 0.62701 0.54609 0.0
H5358 H 0.54478 0.60917 0.53169 0.0
H5359 H 0.5285 0.59739 0.5328 0.0
H5360 H 0.54815 0.57109 0.54506 0.0
H5361 H 0.56453 0.58278 0.54414 0.0
C5362 C 0.60774 0.60345 0.5092 0.0
C5363 C 0.61088 0.59257 0.51083 0.0
C5364 C 0.59858 0.60764 0.51454 0.0
C5365 C 0.59277 0.60117 0.52202 0.0
C5366 C 0.5957 0.59014 0.52326 0.0
C5367 C 0.6046 0.58585 0.51762 0.0
C5368 C 0.58395 0.60587 0.52892 0.0
C5369 C 0.57415 0.60003 0.52998 0.0
C5370 C 0.58526 0.61577 0.53481 0.0
C5371 C 0.59566 0.62198 0.53483 0.0
C5372 C 0.60545 0.61701 0.53818 0.0
C5373 C 0.61522 0.62289 0.53807 0.0
C5374 C 0.6153 0.63379 0.53471 0.0
C5375 C 0.60559 0.63883 0.53149 0.0
C5376 C 0.59579 0.63298 0.53158 0.0
C5377 C 0.5522 0.61654 0.56935 0.0
C5378 C 0.54425 0.62442 0.56681 0.0
C5379 C 0.55944 0.61286 0.56136 0.0
C5380 C 0.559 0.61714 0.55078 0.0
C5381 C 0.55115 0.62505 0.54819 0.0
C5382 C 0.54373 0.62856 0.55611 0.0
C5383 C 0.56705 0.61355 0.54258 0.0
C5384 C 0.57669 0.61957 0.5414 0.0
C5385 C 0.56575 0.60368 0.53682 0.0
C5386 C 0.55584 0.59688 0.53794 0.0
C5387 C 0.5456 0.60093 0.53478 0.0
C5388 C 0.53637 0.59425 0.5353 0.0
C5389 C 0.53731 0.58347 0.53891 0.0
C5390 C 0.54745 0.57941 0.54218 0.0
C5391 C 0.5567 0.58607 0.54167 0.0
H5392 H 0.53017 0.57829 0.53925 0.0
H5393 H 0.62287 0.63833 0.53462 0.0
H5394 H 0.62082 0.7827 0.80286 0.0
H5395 H 0.62635 0.79602 0.78888 0.0
H5396 H 0.63059 0.82045 0.81383 0.0
H5397 H 0.62542 0.80731 0.82776 0.0
H5398 H 0.61681 0.82632 0.79473 0.0
H5399 H 0.65208 0.81081 0.80543 0.0
H5400 H 0.6649 0.79545 0.80757 0.0
H5401 H 0.66236 0.78833 0.77335 0.0
H5402 H 0.64939 0.80359 0.77106 0.0
H5403 H 0.64541 0.8725 0.78207 0.0
H5404 H 0.63832 0.85567 0.7891 0.0
H5405 H 0.64967 0.83871 0.7604 0.0
H5406 H 0.65797 0.85574 0.75377 0.0
H5407 H 0.65309 0.82648 0.77676 0.0
H5408 H 0.62088 0.84559 0.76579 0.0
H5409 H 0.60864 0.86152 0.76438 0.0
H5410 H 0.60496 0.86204 0.79921 0.0
H5411 H 0.61727 0.84622 0.80085 0.0
C5412 C 0.62303 0.79089 0.80536 0.0
C5413 C 0.62271 0.79393 0.81644 0.0
C5414 C 0.62615 0.79846 0.79737 0.0
C5415 C 0.62878 0.8092 0.80037 0.0
C5416 C 0.62852 0.81221 0.81138 0.0
C5417 C 0.62563 0.80464 0.81934 0.0
C5418 C 0.63176 0.81752 0.79218 0.0
C5419 C 0.62469 0.82637 0.7907 0.0
C5420 C 0.64189 0.81735 0.78672 0.0
C5421 C 0.64967 0.80822 0.7881 0.0
C5422 C 0.65417 0.80589 0.79839 0.0
C5423 C 0.66148 0.79723 0.79962 0.0
C5424 C 0.66441 0.79089 0.79061 0.0
C5425 C 0.66006 0.79323 0.78033 0.0
C5426 C 0.65274 0.80188 0.77906 0.0
C5427 C 0.64648 0.8653 0.77718 0.0
C5428 C 0.6523 0.86556 0.76733 0.0
C5429 C 0.64221 0.85559 0.78117 0.0
C5430 C 0.64303 0.84591 0.77511 0.0
C5431 C 0.64879 0.84608 0.76519 0.0
C5432 C 0.6535 0.85581 0.76139 0.0
C5433 C 0.63831 0.83565 0.7796 0.0
C5434 C 0.64502 0.82638 0.78039 0.0
C5435 C 0.62778 0.83543 0.78443 0.0
C5436 C 0.62 0.84469 0.78343 0.0
C5437 C 0.61745 0.8491 0.77315 0.0
C5438 C 0.61052 0.85812 0.77231 0.0
C5439 C 0.60602 0.86278 0.7817 0.0
C5440 C 0.60842 0.8584 0.79194 0.0
C5441 C 0.61535 0.84939 0.79282 0.0
H5442 H 0.60069 0.86979 0.78103 0.0
H5443 H 0.67008 0.78419 0.79158 0.0
H5444 H 0.46445 0.87573 0.0547 0.0
H5445 H 0.45062 0.88184 0.04156 0.0
H5446 H 0.42528 0.87508 0.065 0.0
H5447 H 0.43907 0.86935 0.07833 0.0
H5448 H 0.42424 0.86626 0.04029 0.0
H5449 H 0.42795 0.89759 0.06465 0.0
H5450 H 0.43913 0.91135 0.07404 0.0
H5451 H 0.45033 0.92362 0.04319 0.0
H5452 H 0.4395 0.90958 0.0336 0.0
H5453 H 0.37489 0.8877 0.02228 0.0
H5454 H 0.39099 0.88128 0.03158 0.0
H5455 H 0.41025 0.9061 0.01557 0.0
H5456 H 0.39359 0.91369 0.00755 0.0
H5457 H 0.4166 0.90561 0.03457 0.0
H5458 H 0.4106 0.87578 0.00982 0.0
H5459 H 0.39985 0.86149 0.00056 0.0
H5460 H 0.39341 0.84609 0.03135 0.0
H5461 H 0.40398 0.86034 0.04081 0.0
C5462 C 0.45592 0.87553 0.05703 0.0
C5463 C 0.45279 0.87209 0.06752 0.0
C5464 C 0.44807 0.87903 0.04954 0.0
C5465 C 0.437 0.8789 0.05237 0.0
C5466 C 0.43383 0.87523 0.06273 0.0
C5467 C 0.44168 0.87201 0.07032 0.0
C5468 C 0.42866 0.88267 0.04456 0.0
C5469 C 0.4225 0.87485 0.03899 0.0
C5470 C 0.42672 0.89386 0.0427 0.0
C5471 C 0.43307 0.90242 0.04842 0.0
C5472 C 0.43291 0.90312 0.05987 0.0
C5473 C 0.43916 0.911 0.06523 0.0
C5474 C 0.44544 0.91838 0.05923 0.0
C5475 C 0.44548 0.91788 0.04784 0.0
C5476 C 0.43931 0.90994 0.04243 0.0
C5477 C 0.38249 0.89196 0.02088 0.0
C5478 C 0.38285 0.90148 0.01452 0.0
C5479 C 0.39184 0.88804 0.02597 0.0
C5480 C 0.40201 0.893 0.02416 0.0
C5481 C 0.40253 0.9021 0.01716 0.0
C5482 C 0.39302 0.90638 0.01248 0.0
C5483 C 0.41183 0.88918 0.03023 0.0
C5484 C 0.41837 0.89699 0.03554 0.0
C5485 C 0.41417 0.87792 0.03176 0.0
C5486 C 0.40808 0.86916 0.02602 0.0
C5487 C 0.40688 0.86936 0.01462 0.0
C5488 C 0.40081 0.86127 0.00933 0.0
C5489 C 0.39595 0.85289 0.01536 0.0
C5490 C 0.39719 0.85257 0.02669 0.0
C5491 C 0.40324 0.86063 0.03201 0.0
H5492 H 0.39123 0.84666 0.01126 0.0
H5493 H 0.45026 0.92449 0.06341 0.0
H5494 H 0.33089 0.63605 0.28079 0.0
H5495 H 0.33999 0.64992 0.29132 0.0
H5496 H 0.35862 0.65924 0.26281 0.0
H5497 H 0.35135 0.64322 0.25318 0.0
H5498 H 0.37097 0.66169 0.27746 0.0
H5499 H 0.3333 0.67458 0.27685 0.0
H5500 H 0.31345 0.67215 0.27935 0.0
H5501 H 0.31852 0.66376 0.31297 0.0
H5502 H 0.33831 0.66632 0.31074 0.0
H5503 H 0.38577 0.71118 0.30629 0.0
H5504 H 0.37844 0.69786 0.29338 0.0
H5505 H 0.36627 0.67853 0.32014 0.0
H5506 H 0.37347 0.69177 0.33311 0.0
H5507 H 0.35063 0.68324 0.30498 0.0
H5508 H 0.38795 0.67014 0.30534 0.0
H5509 H 0.40786 0.67174 0.30292 0.0
H5510 H 0.40327 0.68075 0.26939 0.0
H5511 H 0.38331 0.67934 0.27165 0.0
C5512 C 0.33708 0.64092 0.27687 0.0
C5513 C 0.34059 0.63846 0.26631 0.0
C5514 C 0.34204 0.64921 0.28278 0.0
C5515 C 0.34971 0.65617 0.27784 0.0
C5516 C 0.35272 0.6541 0.26692 0.0
C5517 C 0.34844 0.64509 0.26131 0.0
C5518 C 0.35506 0.66504 0.2843 0.0
C5519 C 0.3664 0.66658 0.28324 0.0
C5520 C 0.34928 0.67137 0.29213 0.0
C5521 C 0.33729 0.67066 0.29362 0.0
C5522 C 0.33015 0.67234 0.2848 0.0
C5523 C 0.3189 0.67094 0.28618 0.0
C5524 C 0.31471 0.66787 0.29633 0.0
C5525 C 0.32174 0.66627 0.30515 0.0
C5526 C 0.33296 0.66776 0.30386 0.0
C5527 C 0.38164 0.70403 0.30946 0.0
C5528 C 0.38013 0.7026 0.32076 0.0
C5529 C 0.3775 0.69641 0.30205 0.0
C5530 C 0.37182 0.68723 0.30582 0.0
C5531 C 0.37061 0.68559 0.31708 0.0
C5532 C 0.37475 0.69318 0.32448 0.0
C5533 C 0.36638 0.6797 0.2981 0.0
C5534 C 0.35505 0.67849 0.29895 0.0
C5535 C 0.37213 0.67384 0.29001 0.0
C5536 C 0.38413 0.67477 0.2887 0.0
C5537 C 0.39118 0.67257 0.29748 0.0
C5538 C 0.40248 0.67342 0.29613 0.0
C5539 C 0.40683 0.67638 0.28602 0.0
C5540 C 0.39989 0.67848 0.27722 0.0
C5541 C 0.38858 0.67765 0.27853 0.0
H5542 H 0.41558 0.67701 0.28499 0.0
H5543 H 0.30601 0.66669 0.29736 0.0
H5544 H 0.53728 0.3634 0.44583 0.0
H5545 H 0.5501 0.37068 0.45932 0.0
H5546 H 0.56514 0.39048 0.4344 0.0
H5547 H 0.55261 0.38309 0.42088 0.0
H5548 H 0.58017 0.38029 0.44546 0.0
H5549 H 0.54802 0.40126 0.45465 0.0
H5550 H 0.52884 0.40391 0.46016 0.0
H5551 H 0.53465 0.386 0.4897 0.0
H5552 H 0.55384 0.38314 0.48431 0.0
H5553 H 0.60543 0.42266 0.47776 0.0
H5554 H 0.58948 0.41444 0.46884 0.0
H5555 H 0.59542 0.38424 0.48586 0.0
H5556 H 0.61165 0.39228 0.49442 0.0
H5557 H 0.56989 0.39828 0.48025 0.0
H5558 H 0.60174 0.3751 0.46878 0.0
H5559 H 0.62087 0.37321 0.46276 0.0
H5560 H 0.61522 0.39634 0.43706 0.0
H5561 H 0.59608 0.39846 0.44306 0.0
C5562 C 0.54326 0.36938 0.44325 0.0
C5563 C 0.54397 0.37261 0.43226 0.0
C5564 C 0.55056 0.37355 0.45098 0.0
C5565 C 0.55857 0.38115 0.44788 0.0
C5566 C 0.55908 0.38458 0.43697 0.0
C5567 C 0.55188 0.38035 0.42925 0.0
C5568 C 0.56678 0.38523 0.45578 0.0
C5569 C 0.57787 0.38422 0.45306 0.0
C5570 C 0.56385 0.39021 0.4658 0.0
C5571 C 0.55232 0.39188 0.46902 0.0
C5572 C 0.54517 0.39781 0.46228 0.0
C5573 C 0.53431 0.39937 0.46539 0.0
C5574 C 0.53052 0.3951 0.47526 0.0
C5575 C 0.53759 0.38928 0.48205 0.0
C5576 C 0.54846 0.3877 0.47898 0.0
C5577 C 0.60306 0.41441 0.4799 0.0
C5578 C 0.6096 0.40811 0.48686 0.0
C5579 C 0.59404 0.40971 0.47475 0.0
C5580 C 0.5914 0.39873 0.47666 0.0
C5581 C 0.59742 0.3927 0.48426 0.0
C5582 C 0.60658 0.39731 0.48921 0.0
C5583 C 0.58311 0.39334 0.46983 0.0
C5584 C 0.57208 0.39417 0.47273 0.0
C5585 C 0.58605 0.38818 0.45996 0.0
C5586 C 0.59757 0.38709 0.4565 0.0
C5587 C 0.60463 0.3799 0.46195 0.0
C5588 C 0.61545 0.37874 0.45851 0.0
C5589 C 0.61927 0.38468 0.44956 0.0
C5590 C 0.61226 0.39178 0.44402 0.0
C5591 C 0.60144 0.39296 0.44744 0.0
H5592 H 0.62764 0.38378 0.4469 0.0
H5593 H 0.5221 0.39632 0.47765 0.0
H5594 H 0.86407 0.80291 0.66908 0.0
H5595 H 0.85804 0.81646 0.6824 0.0
H5596 H 0.87983 0.80265 0.70633 0.0
H5597 H 0.88607 0.7892 0.69289 0.0
H5598 H 0.85874 0.80716 0.71451 0.0
H5599 H 0.88743 0.82532 0.69542 0.0
H5600 H 0.89749 0.83119 0.67901 0.0
H5601 H 0.86975 0.84978 0.66844 0.0
H5602 H 0.85946 0.8439 0.68472 0.0
H5603 H 0.85876 0.86384 0.74115 0.0
H5604 H 0.86655 0.84842 0.73105 0.0
H5605 H 0.83457 0.84032 0.71885 0.0
H5606 H 0.82669 0.8555 0.72923 0.0
H5607 H 0.86266 0.84664 0.70624 0.0
H5608 H 0.83324 0.82096 0.72289 0.0
H5609 H 0.82396 0.81539 0.73988 0.0
H5610 H 0.85499 0.81169 0.75576 0.0
H5611 H 0.8644 0.81752 0.7389 0.0
C5612 C 0.86774 0.80293 0.67708 0.0
C5613 C 0.87573 0.79521 0.67982 0.0
C5614 C 0.86422 0.81058 0.68472 0.0
C5615 C 0.8686 0.81062 0.69529 0.0
C5616 C 0.87638 0.80275 0.69819 0.0
C5617 C 0.87995 0.79511 0.6905 0.0
C5618 C 0.86509 0.81904 0.70318 0.0
C5619 C 0.85966 0.81578 0.71272 0.0
C5620 C 0.86639 0.83029 0.70091 0.0
C5621 C 0.87265 0.83412 0.69126 0.0
C5622 C 0.88346 0.83063 0.68957 0.0
C5623 C 0.8892 0.83395 0.6803 0.0
C5624 C 0.88425 0.84084 0.67268 0.0
C5625 C 0.87357 0.84445 0.67435 0.0
C5626 C 0.86778 0.84114 0.68361 0.0
C5627 C 0.85335 0.85847 0.73667 0.0
C5628 C 0.84209 0.86062 0.73621 0.0
C5629 C 0.85781 0.84977 0.73083 0.0
C5630 C 0.8511 0.84316 0.72437 0.0
C5631 C 0.83982 0.84514 0.72407 0.0
C5632 C 0.83532 0.85374 0.73006 0.0
C5633 C 0.85599 0.83472 0.7173 0.0
C5634 C 0.86176 0.83801 0.70798 0.0
C5635 C 0.85507 0.82352 0.71976 0.0
C5636 C 0.84948 0.81977 0.72974 0.0
C5637 C 0.83805 0.81903 0.73005 0.0
C5638 C 0.83278 0.81584 0.73964 0.0
C5639 C 0.83888 0.81322 0.74891 0.0
C5640 C 0.85027 0.81377 0.74859 0.0
C5641 C 0.85558 0.81704 0.73903 0.0
H5642 H 0.83479 0.81074 0.75633 0.0
H5643 H 0.88871 0.84338 0.66549 0.0
H5644 H 0.39113 0.07806 0.9717 0.0
H5645 H 0.40583 0.08632 0.9613 0.0
H5646 H 0.40835 0.11207 0.9853 0.0
H5647 H 0.39255 0.10444 0.9949 0.0
H5648 H 0.40906 0.12114 0.96778 0.0
H5649 H 0.42915 0.08986 0.9798 0.0
H5650 H 0.43289 0.07036 0.98316 0.0
H5651 H 0.43057 0.06383 0.94881 0.0
H5652 H 0.42656 0.08319 0.94529 0.0
H5653 H 0.45882 0.13906 0.94074 0.0
H5654 H 0.44538 0.13221 0.95384 0.0
H5655 H 0.43134 0.11181 0.92886 0.0
H5656 H 0.44465 0.11863 0.91569 0.0
H5657 H 0.43804 0.10078 0.94826 0.0
H5658 H 0.4175 0.13278 0.93717 0.0
H5659 H 0.41455 0.15252 0.93456 0.0
H5660 H 0.41947 0.15798 0.96881 0.0
H5661 H 0.42262 0.13829 0.97159 0.0
C5662 C 0.39502 0.08534 0.97486 0.0
C5663 C 0.39086 0.09059 0.98412 0.0
C5664 C 0.40353 0.09004 0.96896 0.0
C5665 C 0.40848 0.09976 0.97257 0.0
C5666 C 0.40472 0.1046 0.98229 0.0
C5667 C 0.39581 0.10018 0.98788 0.0
C5668 C 0.41674 0.1054 0.96564 0.0
C5669 C 0.41555 0.11667 0.96376 0.0
C5670 C 0.42515 0.09966 0.96015 0.0
C5671 C 0.42754 0.08798 0.96229 0.0
C5672 C 0.42937 0.08425 0.97298 0.0
C5673 C 0.43152 0.07321 0.97491 0.0
C5674 C 0.43194 0.06585 0.96621 0.0
C5675 C 0.4302 0.06951 0.95556 0.0
C5676 C 0.428 0.08052 0.95359 0.0
C5677 C 0.45275 0.13325 0.93799 0.0
C5678 C 0.45282 0.12935 0.92718 0.0
C5679 C 0.44507 0.12938 0.94548 0.0
C5680 C 0.43741 0.12151 0.94229 0.0
C5681 C 0.43721 0.1179 0.93144 0.0
C5682 C 0.44479 0.12185 0.92392 0.0
C5683 C 0.4302 0.11632 0.95043 0.0
C5684 C 0.43163 0.10517 0.95251 0.0
C5685 C 0.42222 0.12222 0.95628 0.0
C5686 C 0.42044 0.13407 0.95456 0.0
C5687 C 0.41808 0.1382 0.94412 0.0
C5688 C 0.41634 0.14938 0.94262 0.0
C5689 C 0.41686 0.1565 0.95151 0.0
C5690 C 0.4191 0.15246 0.96193 0.0
C5691 C 0.42086 0.14129 0.96347 0.0
H5692 H 0.41549 0.16515 0.95033 0.0
H5693 H 0.43363 0.05731 0.96773 0.0
H5694 H 0.14626 0.62868 0.21579 0.0
H5695 H 0.13993 0.64567 0.20835 0.0
H5696 H 0.15158 0.66268 0.23682 0.0
H5697 H 0.15817 0.64524 0.24448 0.0
H5698 H 0.12755 0.6669 0.22696 0.0
H5699 H 0.16595 0.66749 0.21915 0.0
H5700 H 0.1836 0.66013 0.2129 0.0
H5701 H 0.17019 0.65449 0.18104 0.0
H5702 H 0.15237 0.66144 0.18719 0.0
H5703 H 0.11699 0.7151 0.19403 0.0
H5704 H 0.12359 0.70191 0.20748 0.0
H5705 H 0.12823 0.67816 0.18191 0.0
H5706 H 0.12186 0.6913 0.16842 0.0
H5707 H 0.14608 0.6803 0.19358 0.0
H5708 H 0.10778 0.67596 0.20118 0.0
H5709 H 0.08916 0.68129 0.20665 0.0
H5710 H 0.1012 0.69228 0.23765 0.0
H5711 H 0.11992 0.68715 0.23231 0.0
C5712 C 0.14729 0.63582 0.2207 0.0
C5713 C 0.15255 0.63545 0.23086 0.0
C5714 C 0.14375 0.64564 0.21633 0.0
C5715 C 0.14531 0.65538 0.22203 0.0
C5716 C 0.15032 0.65518 0.23232 0.0
C5717 C 0.15407 0.64525 0.23665 0.0
C5718 C 0.14179 0.66562 0.21679 0.0
C5719 C 0.13172 0.67011 0.21984 0.0
C5720 C 0.14711 0.66944 0.20731 0.0
C5721 C 0.15778 0.66493 0.20367 0.0
C5722 C 0.16671 0.66451 0.21086 0.0
C5723 C 0.17676 0.66042 0.20733 0.0
C5724 C 0.17802 0.65682 0.19659 0.0
C5725 C 0.16921 0.65724 0.18937 0.0
C5726 C 0.15912 0.66124 0.19288 0.0
C5727 C 0.11929 0.70702 0.19128 0.0
C5728 C 0.11902 0.70429 0.18011 0.0
C5729 C 0.12302 0.69948 0.199 0.0
C5730 C 0.12644 0.68906 0.1957 0.0
C5731 C 0.12572 0.68619 0.18463 0.0
C5732 C 0.12207 0.69372 0.17692 0.0
C5733 C 0.13161 0.68139 0.2035 0.0
C5734 C 0.142 0.67737 0.20087 0.0
C5735 C 0.12646 0.67787 0.21323 0.0
C5736 C 0.11528 0.68135 0.21627 0.0
C5737 C 0.10648 0.67967 0.2091 0.0
C5738 C 0.0959 0.68261 0.21219 0.0
C5739 C 0.094 0.68717 0.22247 0.0
C5740 C 0.10269 0.68879 0.22968 0.0
C5741 C 0.11328 0.68587 0.22662 0.0
H5742 H 0.0858 0.6894 0.22486 0.0
H5743 H 0.18583 0.65374 0.19386 0.0
H5744 H 0.05437 0.53423 0.13221 0.0
H5745 H 0.04067 0.54766 0.12689 0.0
H5746 H 0.06583 0.57211 0.1238 0.0
H5747 H 0.07942 0.55891 0.12976 0.0
H5748 H 0.04963 0.58156 0.1312 0.0
H5749 H 0.05434 0.55669 0.10137 0.0
H5750 H 0.05464 0.5389 0.09193 0.0
H5751 H 0.02056 0.53453 0.09882 0.0
H5752 H 0.02016 0.55216 0.10855 0.0
H5753 H 0.03248 0.6125 0.08528 0.0
H5754 H 0.04034 0.59719 0.09536 0.0
H5755 H 0.00978 0.59255 0.11218 0.0
H5756 H 0.00207 0.60843 0.10248 0.0
H5757 H 0.02516 0.57265 0.10022 0.0
H5758 H 0.02218 0.60154 0.12784 0.0
H5759 H 0.02454 0.62067 0.13361 0.0
H5760 H 0.05885 0.61867 0.12679 0.0
H5761 H 0.05664 0.5996 0.12072 0.0
C5762 C 0.05696 0.54251 0.13051 0.0
C5763 C 0.06804 0.54545 0.13111 0.0
C5764 C 0.04911 0.55017 0.1274 0.0
C5765 C 0.0522 0.56087 0.12466 0.0
C5766 C 0.06319 0.56391 0.12577 0.0
C5767 C 0.071 0.55631 0.12904 0.0
C5768 C 0.04418 0.56886 0.12028 0.0
C5769 C 0.04426 0.57954 0.12446 0.0
C5770 C 0.03706 0.5663 0.11151 0.0
C5771 C 0.03729 0.55561 0.10587 0.0
C5772 C 0.04697 0.55183 0.10101 0.0
C5773 C 0.04714 0.5418 0.09559 0.0
C5774 C 0.03763 0.53556 0.09482 0.0
C5775 C 0.02793 0.53935 0.09945 0.0
C5776 C 0.02773 0.54935 0.10495 0.0
C5777 C 0.02746 0.60822 0.09112 0.0
C5778 C 0.01676 0.61164 0.09324 0.0
C5779 C 0.03192 0.59947 0.09682 0.0
C5780 C 0.02564 0.59387 0.10455 0.0
C5781 C 0.01472 0.59686 0.10627 0.0
C5782 C 0.01034 0.60584 0.10073 0.0
C5783 C 0.03084 0.5852 0.11105 0.0
C5784 C 0.03028 0.57446 0.10721 0.0
C5785 C 0.03785 0.58779 0.11982 0.0
C5786 C 0.03921 0.59918 0.12371 0.0
C5787 C 0.0302 0.60521 0.12745 0.0
C5788 C 0.03152 0.61604 0.13079 0.0
C5789 C 0.04183 0.62089 0.13054 0.0
C5790 C 0.05086 0.61491 0.12697 0.0
C5791 C 0.04958 0.60409 0.12357 0.0
H5792 H 0.04284 0.62928 0.13313 0.0
H5793 H 0.03777 0.5278 0.0906 0.0
H5794 H 0.55374 0.46549 0.37411 0.0
H5795 H 0.54006 0.45184 0.37966 0.0
H5796 H 0.5643 0.42649 0.37707 0.0
H5797 H 0.57799 0.43996 0.37189 0.0
H5798 H 0.54263 0.42324 0.36546 0.0
H5799 H 0.55993 0.43124 0.40054 0.0
H5800 H 0.5656 0.44279 0.41601 0.0
H5801 H 0.5326 0.45385 0.42008 0.0
H5802 H 0.52673 0.44229 0.40466 0.0
H5803 H 0.52876 0.37415 0.39038 0.0
H5804 H 0.53623 0.39089 0.38314 0.0
H5805 H 0.51235 0.40948 0.40121 0.0
H5806 H 0.50557 0.39262 0.40946 0.0
H5807 H 0.53033 0.41866 0.40373 0.0
H5808 H 0.51273 0.40601 0.37129 0.0
H5809 H 0.50781 0.39242 0.35729 0.0
H5810 H 0.54146 0.38948 0.34801 0.0
H5811 H 0.54662 0.40293 0.36205 0.0
C5812 C 0.55614 0.45701 0.37482 0.0
C5813 C 0.56695 0.4538 0.37263 0.0
C5814 C 0.54834 0.44925 0.37796 0.0
C5815 C 0.55121 0.43819 0.3787 0.0
C5816 C 0.56196 0.43499 0.3765 0.0
C5817 C 0.56978 0.44273 0.37362 0.0
C5818 C 0.54313 0.42978 0.38173 0.0
C5819 C 0.53984 0.42223 0.37379 0.0
C5820 C 0.53934 0.42866 0.39253 0.0
C5821 C 0.54293 0.43606 0.40136 0.0
C5822 C 0.55392 0.43627 0.40464 0.0
C5823 C 0.55715 0.44275 0.41344 0.0
C5824 C 0.54947 0.44909 0.419 0.0
C5825 C 0.53854 0.44896 0.41575 0.0
C5826 C 0.53525 0.44242 0.407 0.0
C5827 C 0.5251 0.38175 0.39289 0.0
C5828 C 0.51674 0.38202 0.40072 0.0
C5829 C 0.52925 0.39139 0.38853 0.0
C5830 C 0.52475 0.40153 0.39142 0.0
C5831 C 0.51599 0.40179 0.39883 0.0
C5832 C 0.51209 0.39213 0.40351 0.0
C5833 C 0.52988 0.41182 0.38749 0.0
C5834 C 0.53269 0.41978 0.39527 0.0
C5835 C 0.5332 0.41328 0.3765 0.0
C5836 C 0.53006 0.40549 0.36775 0.0
C5837 C 0.51909 0.40247 0.36627 0.0
C5838 C 0.51626 0.39477 0.35833 0.0
C5839 C 0.52432 0.39009 0.35177 0.0
C5840 C 0.53522 0.39313 0.35309 0.0
C5841 C 0.5381 0.40081 0.36101 0.0
H5842 H 0.52211 0.38411 0.34565 0.0
H5843 H 0.55197 0.45407 0.42585 0.0
H5844 H 0.86776 0.76473 0.63697 0.0
H5845 H 0.85228 0.77441 0.62904 0.0
H5846 H 0.83683 0.77585 0.6606 0.0
H5847 H 0.85241 0.76607 0.66867 0.0
H5848 H 0.82302 0.77009 0.64018 0.0
H5849 H 0.84352 0.80565 0.65372 0.0
H5850 H 0.86061 0.81622 0.65563 0.0
H5851 H 0.87159 0.80443 0.62454 0.0
H5852 H 0.85431 0.79428 0.62221 0.0
H5853 H 0.78439 0.81183 0.62782 0.0
H5854 H 0.79742 0.79889 0.63554 0.0
H5855 H 0.82115 0.80844 0.61125 0.0
H5856 H 0.80836 0.82208 0.60418 0.0
H5857 H 0.83065 0.80819 0.62887 0.0
H5858 H 0.80637 0.7819 0.61263 0.0
H5859 H 0.78883 0.77274 0.60892 0.0
H5860 H 0.78537 0.76519 0.64295 0.0
H5861 H 0.80281 0.77442 0.64688 0.0
C5862 C 0.86097 0.76691 0.6422 0.0
C5863 C 0.86128 0.76468 0.65344 0.0
C5864 C 0.8522 0.77252 0.63767 0.0
C5865 C 0.84359 0.77604 0.64429 0.0
C5866 C 0.84349 0.77325 0.6554 0.0
C5867 C 0.85231 0.76758 0.65997 0.0
C5868 C 0.83494 0.78294 0.63955 0.0
C5869 C 0.82458 0.77846 0.63776 0.0
C5870 C 0.83712 0.79372 0.63619 0.0
C5871 C 0.84781 0.79901 0.63793 0.0
C5872 C 0.84965 0.80522 0.64737 0.0
C5873 C 0.85932 0.81119 0.64848 0.0
C5874 C 0.86726 0.81081 0.64032 0.0
C5875 C 0.86548 0.80461 0.63092 0.0
C5876 C 0.85573 0.79881 0.62966 0.0
C5877 C 0.79237 0.81103 0.62408 0.0
C5878 C 0.79545 0.81788 0.61544 0.0
C5879 C 0.79978 0.80356 0.62842 0.0
C5880 C 0.81027 0.80251 0.6239 0.0
C5881 C 0.81315 0.8091 0.61494 0.0
C5882 C 0.80586 0.81685 0.61086 0.0
C5883 C 0.81858 0.79534 0.62908 0.0
C5884 C 0.82893 0.79981 0.63113 0.0
C5885 C 0.81638 0.78446 0.63241 0.0
C5886 C 0.80585 0.77895 0.63006 0.0
C5887 C 0.80183 0.77836 0.61933 0.0
C5888 C 0.79191 0.77314 0.61719 0.0
C5889 C 0.78598 0.76841 0.6257 0.0
C5890 C 0.78996 0.76887 0.63637 0.0
C5891 C 0.79987 0.77409 0.63856 0.0
H5892 H 0.7783 0.76436 0.62402 0.0
H5893 H 0.87473 0.81542 0.64123 0.0
H5894 H 0.47067 0.11142 0.91977 0.0
H5895 H 0.45999 0.09654 0.91232 0.0
H5896 H 0.48522 0.09042 0.8884 0.0
H5897 H 0.49505 0.10664 0.89489 0.0
H5898 H 0.46831 0.08832 0.87865 0.0
H5899 H 0.47791 0.07278 0.9135 0.0
H5900 H 0.47975 0.07233 0.93354 0.0
H5901 H 0.44515 0.07657 0.93699 0.0
H5902 H 0.4431 0.07711 0.91701 0.0
H5903 H 0.44137 0.0378 0.86457 0.0
H5904 H 0.4544 0.05139 0.87117 0.0
H5905 H 0.42881 0.0671 0.88953 0.0
H5906 H 0.41571 0.05356 0.88303 0.0
H5907 H 0.44727 0.06264 0.90175 0.0
H5908 H 0.4383 0.07871 0.86673 0.0
H5909 H 0.43676 0.07911 0.84667 0.0
H5910 H 0.47111 0.07288 0.8437 0.0
H5911 H 0.47283 0.0723 0.86375 0.0
C5912 C 0.47393 0.10685 0.91294 0.0
C5913 C 0.48363 0.11011 0.90787 0.0
C5914 C 0.46791 0.09816 0.90879 0.0
C5915 C 0.47187 0.09199 0.89996 0.0
C5916 C 0.48192 0.09498 0.89522 0.0
C5917 C 0.48763 0.10414 0.89899 0.0
C5918 C 0.46513 0.08304 0.89517 0.0
C5919 C 0.46396 0.08255 0.88375 0.0
C5920 C 0.45916 0.07557 0.90172 0.0
C5921 C 0.46037 0.07502 0.91375 0.0
C5922 C 0.4707 0.07363 0.91854 0.0
C5923 C 0.47177 0.07336 0.92989 0.0
C5924 C 0.46256 0.07442 0.93654 0.0
C5925 C 0.45226 0.07572 0.93185 0.0
C5926 C 0.45114 0.07597 0.92051 0.0
C5927 C 0.43848 0.04419 0.86996 0.0
C5928 C 0.42749 0.04457 0.8733 0.0
C5929 C 0.44594 0.05197 0.87367 0.0
C5930 C 0.44255 0.06025 0.8808 0.0
C5931 C 0.43157 0.06075 0.88403 0.0
C5932 C 0.4241 0.05302 0.88028 0.0
C5933 C 0.45049 0.06809 0.88539 0.0
C5934 C 0.45185 0.06832 0.89673 0.0
C5935 C 0.45676 0.07516 0.87879 0.0
C5936 C 0.45567 0.07534 0.86673 0.0
C5937 C 0.4455 0.07731 0.8618 0.0
C5938 C 0.4446 0.0776 0.85043 0.0
C5939 C 0.45382 0.07599 0.84391 0.0
C5940 C 0.46397 0.07411 0.84875 0.0
C5941 C 0.46491 0.0738 0.86012 0.0
H5942 H 0.45311 0.07624 0.83512 0.0
H5943 H 0.46341 0.07424 0.94533 0.0
H5944 H 0.7146 0.19191 0.12812 0.0
H5945 H 0.7004 0.20503 0.13329 0.0
H5946 H 0.67558 0.18224 0.12317 0.0
H5947 H 0.68977 0.16888 0.11836 0.0
H5948 H 0.67569 0.20836 0.11608 0.0
H5949 H 0.67461 0.18105 0.14526 0.0
H5950 H 0.68343 0.16946 0.15914 0.0
H5951 H 0.69706 0.19788 0.17444 0.0
H5952 H 0.68848 0.20963 0.16049 0.0
H5953 H 0.6267 0.22891 0.13693 0.0
H5954 H 0.64231 0.2192 0.13001 0.0
H5955 H 0.66156 0.2306 0.15727 0.0
H5956 H 0.64517 0.23888 0.16523 0.0
H5957 H 0.66573 0.21116 0.15522 0.0
H5958 H 0.6639 0.23898 0.12763 0.0
H5959 H 0.6546 0.25039 0.11391 0.0
H5960 H 0.6467 0.22182 0.09524 0.0
H5961 H 0.65578 0.21022 0.10892 0.0
C5962 C 0.70611 0.18971 0.12699 0.0
C5963 C 0.70323 0.17938 0.12293 0.0
C5964 C 0.69804 0.1972 0.1299 0.0
C5965 C 0.68701 0.19456 0.12856 0.0
C5966 C 0.68409 0.18438 0.12422 0.0
C5967 C 0.69216 0.17676 0.12158 0.0
C5968 C 0.67853 0.20226 0.13226 0.0
C5969 C 0.67341 0.209 0.12461 0.0
C5970 C 0.67588 0.20322 0.14341 0.0
C5971 C 0.68105 0.19619 0.15176 0.0
C5972 C 0.67961 0.18481 0.1515 0.0
C5973 C 0.68454 0.17822 0.15939 0.0
C5974 C 0.69082 0.18294 0.16764 0.0
C5975 C 0.69221 0.19425 0.16802 0.0
C5976 C 0.68732 0.20088 0.16013 0.0
C5977 C 0.63423 0.22932 0.14153 0.0
C5978 C 0.63459 0.23431 0.15185 0.0
C5979 C 0.64331 0.22397 0.13737 0.0
C5980 C 0.6533 0.22425 0.14295 0.0
C5981 C 0.65395 0.23017 0.1528 0.0
C5982 C 0.64463 0.23505 0.15729 0.0
C5983 C 0.66263 0.21749 0.13905 0.0
C5984 C 0.66801 0.21082 0.14668 0.0
C5985 C 0.66553 0.21669 0.12784 0.0
C5986 C 0.66052 0.22373 0.11933 0.0
C5987 C 0.66019 0.23513 0.1206 0.0
C5988 C 0.65493 0.24163 0.11284 0.0
C5989 C 0.65006 0.23683 0.10371 0.0
C5990 C 0.65048 0.22553 0.1023 0.0
C5991 C 0.65571 0.21899 0.11005 0.0
H5992 H 0.64596 0.24188 0.09773 0.0
H5993 H 0.69454 0.17785 0.17378 0.0
H5994 H 0.9184 0.43994 0.12826 0.0
H5995 H 0.93234 0.42668 0.12251 0.0
H5996 H 0.9551 0.45291 0.11697 0.0
H5997 H 0.94146 0.46612 0.12306 0.0
H5998 H 0.94721 0.43264 0.09897 0.0
H5999 H 0.96415 0.44452 0.13369 0.0
H6000 H 0.96307 0.4474 0.15353 0.0
H6001 H 0.95559 0.41349 0.15824 0.0
H6002 H 0.95607 0.41053 0.13834 0.0
H6003 H 0.98898 0.39703 0.08154 0.0
H6004 H 0.98041 0.41352 0.08888 0.0
H6005 H 0.96996 0.39534 0.11722 0.0
H6006 H 0.97955 0.37942 0.11057 0.0
H6007 H 0.9729 0.41361 0.12375 0.0
H6008 H 0.95396 0.40055 0.09161 0.0
H6009 H 0.95143 0.39591 0.07219 0.0
H6010 H 0.95924 0.42876 0.06304 0.0
H6011 H 0.96208 0.43358 0.08238 0.0
C6012 C 0.92641 0.44285 0.1259 0.0
C6013 C 0.92887 0.45404 0.12617 0.0
C6014 C 0.93434 0.43529 0.12266 0.0
C6015 C 0.94474 0.43887 0.11948 0.0
C6016 C 0.94716 0.45003 0.11958 0.0
C6017 C 0.93935 0.45754 0.12305 0.0
C6018 C 0.95291 0.43101 0.11545 0.0
C6019 C 0.95296 0.42853 0.10431 0.0
C6020 C 0.96013 0.42554 0.12254 0.0
C6021 C 0.95993 0.42736 0.1345 0.0
C6022 C 0.96206 0.43772 0.13892 0.0
C6023 C 0.96161 0.43936 0.1502 0.0
C6024 C 0.95928 0.43064 0.15716 0.0
C6025 C 0.95736 0.42026 0.15285 0.0
C6026 C 0.95768 0.41861 0.14157 0.0
C6027 C 0.98508 0.39666 0.08946 0.0
C6028 C 0.98457 0.3868 0.09528 0.0
C6029 C 0.98004 0.40606 0.09359 0.0
C6030 C 0.97409 0.40562 0.1034 0.0
C6031 C 0.97432 0.39596 0.10955 0.0
C6032 C 0.97968 0.38674 0.10564 0.0
C6033 C 0.96714 0.41488 0.10714 0.0
C6034 C 0.96729 0.41771 0.11827 0.0
C6035 C 0.95979 0.42038 0.10007 0.0
C6036 C 0.95837 0.41739 0.08843 0.0
C6037 C 0.95525 0.40675 0.08545 0.0
C6038 C 0.95373 0.40409 0.07447 0.0
C6039 C 0.95516 0.41201 0.0664 0.0
C6040 C 0.95815 0.42262 0.06929 0.0
C6041 C 0.95974 0.42532 0.08026 0.0
H6042 H 0.95392 0.40992 0.05791 0.0
H6043 H 0.95898 0.43192 0.16589 0.0
H6044 H 0.80835 0.67687 0.88718 0.0
H6045 H 0.8206 0.69155 0.8811 0.0
H6046 H 0.79477 0.70491 0.8613 0.0
H6047 H 0.78235 0.69052 0.86777 0.0
H6048 H 0.81831 0.69613 0.85239 0.0
H6049 H 0.79931 0.71839 0.87897 0.0
H6050 H 0.79343 0.72298 0.89759 0.0
H6051 H 0.82685 0.7262 0.90752 0.0
H6052 H 0.83296 0.7213 0.88902 0.0
H6053 H 0.85312 0.73441 0.82774 0.0
H6054 H 0.83666 0.72596 0.83543 0.0
H6055 H 0.85142 0.72637 0.86741 0.0
H6056 H 0.86767 0.73492 0.85981 0.0
H6057 H 0.83147 0.72993 0.87025 0.0
H6058 H 0.85092 0.70253 0.85329 0.0
H6059 H 0.8603 0.68936 0.84133 0.0
H6060 H 0.83262 0.68882 0.81988 0.0
H6061 H 0.82304 0.70199 0.83174 0.0
C6062 C 0.80529 0.68305 0.88165 0.0
C6063 C 0.79451 0.68264 0.87787 0.0
C6064 C 0.81222 0.69145 0.87829 0.0
C6065 C 0.80848 0.69937 0.87093 0.0
C6066 C 0.79768 0.69897 0.86716 0.0
C6067 C 0.79066 0.69076 0.87078 0.0
C6068 C 0.81632 0.70699 0.86595 0.0
C6069 C 0.82097 0.70374 0.85607 0.0
C6070 C 0.82033 0.71634 0.87138 0.0
C6071 C 0.81659 0.71941 0.88252 0.0
C6072 C 0.80542 0.71994 0.88511 0.0
C6073 C 0.80204 0.72262 0.89567 0.0
C6074 C 0.80976 0.72489 0.90374 0.0
C6075 C 0.82087 0.72446 0.90126 0.0
C6076 C 0.82429 0.72173 0.89072 0.0
C6077 C 0.85269 0.73297 0.83645 0.0
C6078 C 0.86166 0.73531 0.84319 0.0
C6079 C 0.84335 0.72802 0.84082 0.0
C6080 C 0.84284 0.72538 0.85199 0.0
C6081 C 0.85157 0.72832 0.85879 0.0
C6082 C 0.86087 0.73321 0.85443 0.0
C6083 C 0.83351 0.71909 0.85653 0.0
C6084 C 0.8286 0.72254 0.86633 0.0
C6085 C 0.82988 0.70929 0.85162 0.0
C6086 C 0.83633 0.70338 0.8433 0.0
C6087 C 0.84695 0.69985 0.84586 0.0
C6088 C 0.85222 0.69225 0.83922 0.0
C6089 C 0.84696 0.68815 0.82998 0.0
C6090 C 0.83661 0.69194 0.82712 0.0
C6091 C 0.83127 0.69949 0.83378 0.0
H6092 H 0.85098 0.68214 0.82497 0.0
H6093 H 0.80713 0.72699 0.9119 0.0
H6094 H 0.20091 0.82783 0.35765 0.0
H6095 H 0.18744 0.81442 0.35169 0.0
H6096 H 0.19221 0.79623 0.38149 0.0
H6097 H 0.20612 0.80937 0.38723 0.0
H6098 H 0.18918 0.78237 0.36648 0.0
H6099 H 0.17078 0.8134 0.37767 0.0
H6100 H 0.16577 0.83274 0.37969 0.0
H6101 H 0.15503 0.8336 0.3464 0.0
H6102 H 0.16061 0.81445 0.34392 0.0
H6103 H 0.13407 0.75983 0.35871 0.0
H6104 H 0.14964 0.77003 0.366 0.0
H6105 H 0.15953 0.77834 0.33328 0.0
H6106 H 0.14404 0.76797 0.32592 0.0
H6107 H 0.15421 0.79649 0.35171 0.0
H6108 H 0.17572 0.76297 0.34314 0.0
H6109 H 0.17716 0.74301 0.34536 0.0
H6110 H 0.17692 0.7467 0.3802 0.0
H6111 H 0.17539 0.76668 0.37817 0.0
C6112 C 0.19907 0.82098 0.36293 0.0
C6113 C 0.20442 0.81972 0.37297 0.0
C6114 C 0.19137 0.81331 0.35953 0.0
C6115 C 0.18862 0.80442 0.36624 0.0
C6116 C 0.19416 0.80302 0.37617 0.0
C6117 C 0.20205 0.81057 0.37947 0.0
C6118 C 0.17972 0.79685 0.36298 0.0
C6119 C 0.18154 0.78552 0.3633 0.0
C6120 C 0.16952 0.80084 0.35924 0.0
C6121 C 0.16629 0.81248 0.36056 0.0
C6122 C 0.16756 0.81775 0.37069 0.0
C6123 C 0.16465 0.82872 0.37191 0.0
C6124 C 0.16022 0.83445 0.36312 0.0
C6125 C 0.15866 0.82921 0.35312 0.0
C6126 C 0.16173 0.81831 0.3518 0.0
C6127 C 0.13981 0.7635 0.35307 0.0
C6128 C 0.13798 0.76302 0.34176 0.0
C6129 C 0.1486 0.76939 0.35724 0.0
C6130 C 0.15561 0.77496 0.35015 0.0
C6131 C 0.15414 0.77406 0.33884 0.0
C6132 C 0.14542 0.76802 0.33465 0.0
C6133 C 0.16406 0.78227 0.35459 0.0
C6134 C 0.16198 0.79351 0.35473 0.0
C6135 C 0.1737 0.77818 0.35933 0.0
C6136 C 0.17548 0.76629 0.3605 0.0
C6137 C 0.17603 0.75952 0.35127 0.0
C6138 C 0.17684 0.7482 0.35249 0.0
C6139 C 0.17714 0.74358 0.36291 0.0
C6140 C 0.17672 0.75028 0.37213 0.0
C6141 C 0.17592 0.7616 0.37095 0.0
H6142 H 0.1777 0.73482 0.36384 0.0
H6143 H 0.15791 0.84292 0.36408 0.0
H6144 H 0.15339 0.56836 0.23022 0.0
H6145 H 0.14215 0.55592 0.21919 0.0
H6146 H 0.14034 0.58024 0.19376 0.0
H6147 H 0.15112 0.59269 0.20487 0.0
H6148 H 0.121 0.57439 0.1989 0.0
H6149 H 0.15376 0.55585 0.19014 0.0
H6150 H 0.17118 0.54617 0.1928 0.0
H6151 H 0.15459 0.52076 0.21031 0.0
H6152 H 0.13707 0.53038 0.20789 0.0
H6153 H 0.10037 0.54329 0.15482 0.0
H6154 H 0.11079 0.55412 0.16781 0.0
H6155 H 0.10372 0.53073 0.19314 0.0
H6156 H 0.09309 0.51977 0.18006 0.0
H6157 H 0.12641 0.5354 0.1896 0.0
H6158 H 0.09265 0.55533 0.19511 0.0
H6159 H 0.07642 0.56571 0.18929 0.0
H6160 H 0.09694 0.58951 0.17381 0.0
H6161 H 0.11329 0.57922 0.17943 0.0
C6162 C 0.15078 0.57087 0.22216 0.0
C6163 C 0.15294 0.58147 0.21841 0.0
C6164 C 0.14439 0.5638 0.21587 0.0
C6165 C 0.1403 0.56721 0.2057 0.0
C6166 C 0.14325 0.57749 0.20164 0.0
C6167 C 0.14943 0.58458 0.20797 0.0
C6168 C 0.13203 0.56069 0.19977 0.0
C6169 C 0.12225 0.56588 0.19679 0.0
C6170 C 0.13356 0.54956 0.19718 0.0
C6171 C 0.14412 0.54393 0.19898 0.0
C6172 C 0.15384 0.54828 0.1947 0.0
C6173 C 0.16373 0.54278 0.19612 0.0
C6174 C 0.164 0.53288 0.20176 0.0
C6175 C 0.15438 0.52845 0.20598 0.0
C6176 C 0.14446 0.53392 0.20458 0.0
C6177 C 0.10088 0.54052 0.1632 0.0
C6178 C 0.09603 0.53066 0.16645 0.0
C6179 C 0.10678 0.54676 0.17062 0.0
C6180 C 0.10798 0.54322 0.18141 0.0
C6181 C 0.10282 0.53357 0.18482 0.0
C6182 C 0.09676 0.52736 0.17739 0.0
C6183 C 0.11551 0.54914 0.1887 0.0
C6184 C 0.12515 0.54385 0.19191 0.0
C6185 C 0.11406 0.56032 0.19111 0.0
C6186 C 0.1042 0.56645 0.18765 0.0
C6187 C 0.0937 0.56273 0.19039 0.0
C6188 C 0.08448 0.56861 0.18714 0.0
C6189 C 0.08565 0.57825 0.18117 0.0
C6190 C 0.09605 0.58204 0.17843 0.0
C6191 C 0.10529 0.57619 0.18167 0.0
H6192 H 0.0785 0.5828 0.17867 0.0
H6193 H 0.17166 0.52862 0.20283 0.0
H6194 H 0.73294 0.36361 0.41607 0.0
H6195 H 0.7237 0.37306 0.43101 0.0
H6196 H 0.7016 0.34586 0.43449 0.0
H6197 H 0.71092 0.33639 0.41948 0.0
H6198 H 0.69103 0.36467 0.43032 0.0
H6199 H 0.71828 0.35293 0.45554 0.0
H6200 H 0.73694 0.34985 0.4624 0.0
H6201 H 0.74311 0.38433 0.46164 0.0
H6202 H 0.72451 0.38761 0.45467 0.0
H6203 H 0.66059 0.38141 0.47444 0.0
H6204 H 0.67587 0.37221 0.46567 0.0
H6205 H 0.6889 0.40327 0.45552 0.0
H6206 H 0.67344 0.41265 0.46444 0.0
H6207 H 0.70478 0.38346 0.46347 0.0
H6208 H 0.67747 0.39469 0.43686 0.0
H6209 H 0.65844 0.39725 0.43082 0.0
H6210 H 0.65238 0.36297 0.43478 0.0
H6211 H 0.67136 0.36023 0.44095 0.0
C6212 C 0.72644 0.35946 0.42039 0.0
C6213 C 0.72272 0.34924 0.41681 0.0
C6214 C 0.72114 0.36487 0.42889 0.0
C6215 C 0.71195 0.36018 0.43386 0.0
C6216 C 0.7087 0.34961 0.43078 0.0
C6217 C 0.71408 0.34415 0.42231 0.0
C6218 C 0.70486 0.36694 0.44097 0.0
C6219 C 0.69404 0.36865 0.43763 0.0
C6220 C 0.70885 0.37243 0.45031 0.0
C6221 C 0.72003 0.37051 0.4545 0.0
C6222 C 0.72364 0.35985 0.45675 0.0
C6223 C 0.7342 0.35807 0.46068 0.0
C6224 C 0.74121 0.36689 0.46243 0.0
C6225 C 0.73767 0.37751 0.46028 0.0
C6226 C 0.72711 0.37934 0.45636 0.0
C6227 C 0.66685 0.38632 0.47058 0.0
C6228 C 0.66583 0.39771 0.47002 0.0
C6229 C 0.67558 0.38105 0.46562 0.0
C6230 C 0.68343 0.38707 0.45992 0.0
C6231 C 0.68292 0.39853 0.45997 0.0
C6232 C 0.67413 0.40386 0.46505 0.0
C6233 C 0.69107 0.38111 0.45276 0.0
C6234 C 0.7019 0.37952 0.45608 0.0
C6235 C 0.68714 0.3757 0.44337 0.0
C6236 C 0.67579 0.37727 0.43945 0.0
C6237 C 0.67205 0.38771 0.4365 0.0
C6238 C 0.66129 0.38919 0.43304 0.0
C6239 C 0.6542 0.38028 0.43244 0.0
C6240 C 0.65788 0.36986 0.43525 0.0
C6241 C 0.66865 0.36834 0.43871 0.0
H6242 H 0.64585 0.38145 0.42978 0.0
H6243 H 0.74939 0.36549 0.46547 0.0
H6244 H 0.89419 0.98202 0.67384 0.0
H6245 H 0.88379 0.97263 0.68801 0.0
H6246 H 0.90385 0.94401 0.68369 0.0
H6247 H 0.91405 0.95335 0.66931 0.0
H6248 H 0.88294 0.94037 0.67858 0.0
H6249 H 0.90191 0.95733 0.70874 0.0
H6250 H 0.90904 0.97281 0.71946 0.0
H6251 H 0.87664 0.98575 0.7227 0.0
H6252 H 0.86933 0.97042 0.71191 0.0
H6253 H 0.86262 0.90347 0.71496 0.0
H6254 H 0.87288 0.9169 0.70513 0.0
H6255 H 0.84903 0.9415 0.71327 0.0
H6256 H 0.83848 0.92778 0.72363 0.0
H6257 H 0.86977 0.94874 0.71591 0.0
H6258 H 0.85044 0.93138 0.68713 0.0
H6259 H 0.84288 0.91628 0.67619 0.0
H6260 H 0.87523 0.90454 0.66964 0.0
H6261 H 0.88299 0.91948 0.68066 0.0
C6262 C 0.89679 0.97397 0.67642 0.0
C6263 C 0.90495 0.96841 0.67065 0.0
C6264 C 0.8908 0.96858 0.68446 0.0
C6265 C 0.89299 0.95759 0.68683 0.0
C6266 C 0.90202 0.95248 0.68196 0.0
C6267 C 0.90794 0.95785 0.67386 0.0
C6268 C 0.88473 0.9509 0.69255 0.0
C6269 C 0.88019 0.94209 0.68681 0.0
C6270 C 0.88068 0.95357 0.70301 0.0
C6271 C 0.8851 0.9628 0.70943 0.0
C6272 C 0.89632 0.96353 0.71166 0.0
C6273 C 0.90039 0.97226 0.71777 0.0
C6274 C 0.8933 0.98027 0.72173 0.0
C6275 C 0.88212 0.97955 0.71962 0.0
C6276 C 0.87801 0.97084 0.71352 0.0
C6277 C 0.85941 0.9117 0.71472 0.0
C6278 C 0.84965 0.91454 0.72006 0.0
C6279 C 0.86531 0.91938 0.70897 0.0
C6280 C 0.86158 0.93011 0.70821 0.0
C6281 C 0.85194 0.93317 0.71367 0.0
C6282 C 0.84595 0.92538 0.71958 0.0
C6283 C 0.86827 0.93802 0.70207 0.0
C6284 C 0.87247 0.94708 0.70764 0.0
C6285 C 0.87195 0.93565 0.69138 0.0
C6286 C 0.8673 0.92656 0.68478 0.0
C6287 C 0.85595 0.92554 0.68343 0.0
C6288 C 0.85162 0.91701 0.6772 0.0
C6289 C 0.85857 0.90946 0.67223 0.0
C6290 C 0.86985 0.91041 0.67349 0.0
C6291 C 0.87422 0.91892 0.67971 0.0
H6292 H 0.8552 0.90287 0.6674 0.0
H6293 H 0.89647 0.98703 0.72646 0.0
H6294 H 0.27176 0.13142 0.91225 0.0
H6295 H 0.28011 0.12227 0.92774 0.0
H6296 H 0.29247 0.15315 0.93934 0.0
H6297 H 0.28414 0.16237 0.92355 0.0
H6298 H 0.30842 0.13856 0.93642 0.0
H6299 H 0.27376 0.13767 0.95477 0.0
H6300 H 0.25393 0.13445 0.95598 0.0
H6301 H 0.25876 0.10062 0.94823 0.0
H6302 H 0.27861 0.10365 0.94689 0.0
H6303 H 0.33663 0.11625 0.97928 0.0
H6304 H 0.32106 0.12554 0.97103 0.0
H6305 H 0.31215 0.09588 0.95432 0.0
H6306 H 0.32775 0.08643 0.96281 0.0
H6307 H 0.29362 0.11014 0.96122 0.0
H6308 H 0.32668 0.1108 0.9402 0.0
H6309 H 0.34653 0.11294 0.93768 0.0
H6310 H 0.34453 0.1461 0.94885 0.0
H6311 H 0.32465 0.1441 0.95154 0.0
C6312 C 0.27594 0.13631 0.91832 0.0
C6313 C 0.27732 0.14757 0.91676 0.0
C6314 C 0.28067 0.13108 0.92721 0.0
C6315 C 0.28687 0.13701 0.93476 0.0
C6316 C 0.28765 0.14843 0.93363 0.0
C6317 C 0.28284 0.1537 0.92469 0.0
C6318 C 0.2938 0.13104 0.94269 0.0
C6319 C 0.30512 0.13257 0.94205 0.0
C6320 C 0.28957 0.12281 0.94965 0.0
C6321 C 0.27767 0.1209 0.9507 0.0
C6322 C 0.27058 0.12955 0.9533 0.0
C6323 C 0.25934 0.12776 0.95401 0.0
C6324 C 0.25508 0.11734 0.95217 0.0
C6325 C 0.26207 0.10868 0.94967 0.0
C6326 C 0.27332 0.11043 0.94896 0.0
C6327 C 0.33111 0.11162 0.97416 0.0
C6328 C 0.33332 0.10068 0.97165 0.0
C6329 C 0.32225 0.11692 0.96945 0.0
C6330 C 0.31555 0.11142 0.96199 0.0
C6331 C 0.3172 0.10022 0.96012 0.0
C6332 C 0.32608 0.09485 0.96495 0.0
C6333 C 0.30811 0.11785 0.955 0.0
C6334 C 0.29681 0.11631 0.95574 0.0
C6335 C 0.31231 0.12595 0.94794 0.0
C6336 C 0.32421 0.12727 0.94616 0.0
C6337 C 0.33049 0.11853 0.94218 0.0
C6338 C 0.34173 0.11971 0.94071 0.0
C6339 C 0.34679 0.12964 0.94313 0.0
C6340 C 0.3406 0.13841 0.94698 0.0
C6341 C 0.32934 0.13726 0.94847 0.0
H6342 H 0.3555 0.13055 0.942 0.0
H6343 H 0.24637 0.11598 0.9527 0.0
H6344 H 0.16176 0.4226 0.78283 0.0
H6345 H 0.1528 0.43855 0.79117 0.0
H6346 H 0.12131 0.42516 0.78281 0.0
H6347 H 0.13016 0.40943 0.77455 0.0
H6348 H 0.12063 0.44638 0.78064 0.0
H6349 H 0.13209 0.42066 0.80715 0.0
H6350 H 0.14445 0.40879 0.81764 0.0
H6351 H 0.16233 0.43684 0.82864 0.0
H6352 H 0.15019 0.44889 0.81801 0.0
H6353 H 0.08717 0.46245 0.82693 0.0
H6354 H 0.09683 0.45394 0.81154 0.0
H6355 H 0.1248 0.47435 0.81784 0.0
H6356 H 0.11521 0.48276 0.83319 0.0
H6357 H 0.12833 0.45162 0.82 0.0
H6358 H 0.11196 0.47694 0.79437 0.0
H6359 H 0.09642 0.48611 0.78547 0.0
H6360 H 0.08403 0.45514 0.77476 0.0
H6361 H 0.09939 0.44576 0.78374 0.0
C6362 C 0.15296 0.42326 0.78256 0.0
C6363 C 0.14663 0.41479 0.77817 0.0
C6364 C 0.14784 0.43231 0.78736 0.0
C6365 C 0.13637 0.43297 0.78772 0.0
C6366 C 0.13015 0.42485 0.78264 0.0
C6367 C 0.13521 0.41583 0.77798 0.0
C6368 C 0.1307 0.44148 0.7942 0.0
C6369 C 0.12234 0.44757 0.78924 0.0
C6370 C 0.13282 0.4429 0.80546 0.0
C6371 C 0.14037 0.43567 0.81159 0.0
C6372 C 0.13876 0.4243 0.81165 0.0
C6373 C 0.14571 0.41753 0.81766 0.0
C6374 C 0.15422 0.42205 0.82376 0.0
C6375 C 0.15578 0.43334 0.82387 0.0
C6376 C 0.14888 0.44015 0.81784 0.0
C6377 C 0.09516 0.46547 0.82463 0.0
C6378 C 0.10045 0.47331 0.83108 0.0
C6379 C 0.10069 0.46059 0.81591 0.0
C6380 C 0.11154 0.46352 0.81359 0.0
C6381 C 0.11644 0.47201 0.81949 0.0
C6382 C 0.11094 0.47685 0.82819 0.0
C6383 C 0.11835 0.4566 0.80642 0.0
C6384 C 0.12685 0.45069 0.81132 0.0
C6385 C 0.11599 0.45498 0.79526 0.0
C6386 C 0.1068 0.46065 0.78979 0.0
C6387 C 0.10588 0.47208 0.79019 0.0
C6388 C 0.09711 0.47732 0.78512 0.0
C6389 C 0.08923 0.47121 0.77957 0.0
C6390 C 0.09013 0.45986 0.77906 0.0
C6391 C 0.09888 0.45458 0.78413 0.0
H6392 H 0.08245 0.47528 0.77565 0.0
H6393 H 0.15956 0.4168 0.82843 0.0
H6394 H 0.76663 0.35573 0.07528 0.0
H6395 H 0.77638 0.36609 0.06129 0.0
H6396 H 0.80507 0.34642 0.06678 0.0
H6397 H 0.79536 0.33626 0.08095 0.0
H6398 H 0.80877 0.36734 0.07109 0.0
H6399 H 0.79246 0.3475 0.04132 0.0
H6400 H 0.77744 0.33974 0.0304 0.0
H6401 H 0.76381 0.37174 0.0261 0.0
H6402 H 0.77871 0.37967 0.03708 0.0
H6403 H 0.84512 0.38724 0.03216 0.0
H6404 H 0.83243 0.37701 0.04332 0.0
H6405 H 0.8073 0.40077 0.03678 0.0
H6406 H 0.8202 0.4113 0.02556 0.0
H6407 H 0.80053 0.37955 0.03342 0.0
H6408 H 0.81775 0.39952 0.0619 0.0
H6409 H 0.83284 0.4073 0.07269 0.0
H6410 H 0.84473 0.3751 0.07964 0.0
H6411 H 0.82981 0.36711 0.06877 0.0
C6412 C 0.77481 0.35324 0.07302 0.0
C6413 C 0.78024 0.34515 0.07902 0.0
C6414 C 0.78041 0.3592 0.06508 0.0
C6415 C 0.79148 0.35709 0.06306 0.0
C6416 C 0.79653 0.34821 0.06824 0.0
C6417 C 0.79096 0.3423 0.07622 0.0
C6418 C 0.79824 0.3652 0.05716 0.0
C6419 C 0.80708 0.36986 0.06277 0.0
C6420 C 0.79567 0.36893 0.04656 0.0
C6421 C 0.78663 0.36416 0.04011 0.0
C6422 C 0.7862 0.35286 0.03814 0.0
C6423 C 0.77773 0.34844 0.03191 0.0
C6424 C 0.76966 0.35524 0.02759 0.0
C6425 C 0.77006 0.36648 0.02947 0.0
C6426 C 0.77852 0.37094 0.03567 0.0
C6427 C 0.837 0.39049 0.03326 0.0
C6428 C 0.83373 0.40019 0.0281 0.0
C6429 C 0.82973 0.38459 0.03965 0.0
C6430 C 0.81898 0.38822 0.041 0.0
C6431 C 0.8156 0.3979 0.03587 0.0
C6432 C 0.82296 0.40388 0.02948 0.0
C6433 C 0.81124 0.38137 0.04722 0.0
C6434 C 0.80218 0.37703 0.04174 0.0
C6435 C 0.81359 0.37793 0.05798 0.0
C6436 C 0.82268 0.38271 0.06444 0.0
C6437 C 0.82364 0.39409 0.06564 0.0
C6438 C 0.83215 0.39854 0.07179 0.0
C6439 C 0.83975 0.3917 0.07683 0.0
C6440 C 0.83885 0.38039 0.07573 0.0
C6441 C 0.83035 0.3759 0.06959 0.0
H6442 H 0.84633 0.39516 0.0816 0.0
H6443 H 0.76312 0.3518 0.02276 0.0
H6444 H 0.90393 0.02026 0.32258 0.0
H6445 H 0.89409 0.02904 0.30735 0.0
H6446 H 0.88577 0.05604 0.32831 0.0
H6447 H 0.89563 0.04759 0.34329 0.0
H6448 H 0.86782 0.04103 0.31829 0.0
H6449 H 0.89824 0.06507 0.31294 0.0
H6450 H 0.91719 0.07041 0.30894 0.0
H6451 H 0.91508 0.05501 0.27754 0.0
H6452 H 0.89613 0.04937 0.28148 0.0
H6453 H 0.8462 0.08989 0.29697 0.0
H6454 H 0.85479 0.07429 0.30591 0.0
H6455 H 0.85905 0.05865 0.27466 0.0
H6456 H 0.85014 0.07425 0.26567 0.0
H6457 H 0.87862 0.06371 0.28661 0.0
H6458 H 0.84422 0.04546 0.29293 0.0
H6459 H 0.82512 0.044 0.29913 0.0
H6460 H 0.83473 0.05315 0.33154 0.0
H6461 H 0.85384 0.05479 0.32553 0.0
C6462 C 0.90033 0.02825 0.32377 0.0
C6463 C 0.90036 0.03318 0.33412 0.0
C6464 C 0.89471 0.03322 0.31512 0.0
C6465 C 0.88919 0.04312 0.31681 0.0
C6466 C 0.88999 0.0484 0.32689 0.0
C6467 C 0.8956 0.04353 0.33543 0.0
C6468 C 0.88123 0.04732 0.30886 0.0
C6469 C 0.87013 0.04589 0.31126 0.0
C6470 C 0.88434 0.05367 0.2998 0.0
C6471 C 0.89589 0.05651 0.29763 0.0
C6472 C 0.9019 0.06258 0.30529 0.0
C6473 C 0.91261 0.06573 0.30301 0.0
C6474 C 0.91737 0.06297 0.29303 0.0
C6475 C 0.91141 0.05707 0.28531 0.0
C6476 C 0.90069 0.05387 0.28757 0.0
C6477 C 0.84862 0.08293 0.29207 0.0
C6478 C 0.84759 0.0832 0.28068 0.0
C6479 C 0.85347 0.07402 0.29717 0.0
C6480 C 0.85753 0.06533 0.29093 0.0
C6481 C 0.85587 0.06526 0.27959 0.0
C6482 C 0.85079 0.07412 0.27449 0.0
C6483 C 0.86514 0.05756 0.2961 0.0
C6484 C 0.87623 0.05842 0.29329 0.0
C6485 C 0.86203 0.05114 0.30515 0.0
C6486 C 0.85048 0.05027 0.30875 0.0
C6487 C 0.84225 0.04724 0.30136 0.0
C6488 C 0.83142 0.04636 0.30485 0.0
C6489 C 0.82872 0.04848 0.31572 0.0
C6490 C 0.83683 0.05149 0.32313 0.0
C6491 C 0.84767 0.05237 0.31969 0.0
H6492 H 0.82033 0.04779 0.3184 0.0
H6493 H 0.92565 0.06547 0.29125 0.0
H6494 H 0.20294 0.15834 0.58598 0.0
H6495 H 0.19316 0.1485 0.57166 0.0
H6496 H 0.22367 0.1359 0.55945 0.0
H6497 H 0.23352 0.14597 0.57372 0.0
H6498 H 0.20612 0.13899 0.54296 0.0
H6499 H 0.21288 0.12247 0.57854 0.0
H6500 H 0.21234 0.12274 0.59865 0.0
H6501 H 0.17747 0.12605 0.59788 0.0
H6502 H 0.17783 0.12605 0.57775 0.0
H6503 H 0.18085 0.0916 0.52052 0.0
H6504 H 0.19394 0.10245 0.53119 0.0
H6505 H 0.16749 0.1151 0.55072 0.0
H6506 H 0.15455 0.10428 0.54031 0.0
H6507 H 0.18477 0.11103 0.5631 0.0
H6508 H 0.17686 0.12943 0.5295 0.0
H6509 H 0.17544 0.13061 0.50947 0.0
H6510 H 0.20994 0.12525 0.50653 0.0
H6511 H 0.21153 0.12387 0.52657 0.0
C6512 C 0.20758 0.15394 0.57987 0.0
C6513 C 0.21893 0.15287 0.58086 0.0
C6514 C 0.202 0.14828 0.57175 0.0
C6515 C 0.20771 0.14131 0.56469 0.0
C6516 C 0.21916 0.14124 0.56486 0.0
C6517 C 0.22477 0.14701 0.57296 0.0
C6518 C 0.20169 0.13272 0.55876 0.0
C6519 C 0.2016 0.13276 0.54733 0.0
C6520 C 0.19563 0.12474 0.56452 0.0
C6521 C 0.19539 0.12435 0.57663 0.0
C6522 C 0.2051 0.12331 0.58266 0.0
C6523 C 0.20483 0.12343 0.59406 0.0
C6524 C 0.19488 0.12443 0.59954 0.0
C6525 C 0.18518 0.12528 0.59362 0.0
C6526 C 0.18541 0.12523 0.58222 0.0
C6527 C 0.1779 0.09659 0.52719 0.0
C6528 C 0.16669 0.09726 0.52948 0.0
C6529 C 0.18535 0.10279 0.53324 0.0
C6530 C 0.18164 0.10969 0.54163 0.0
C6531 C 0.17052 0.10986 0.54426 0.0
C6532 C 0.16313 0.10374 0.53824 0.0
C6533 C 0.18909 0.11732 0.54727 0.0
C6534 C 0.18945 0.11712 0.55869 0.0
C6535 C 0.19516 0.12529 0.54151 0.0
C6536 C 0.1943 0.12644 0.5295 0.0
C6537 C 0.18413 0.12845 0.52457 0.0
C6538 C 0.18329 0.12915 0.51323 0.0
C6539 C 0.19259 0.12797 0.50673 0.0
C6540 C 0.20275 0.12614 0.51158 0.0
C6541 C 0.20363 0.12541 0.52293 0.0
H6542 H 0.19192 0.1285 0.49794 0.0
H6543 H 0.1947 0.12453 0.60837 0.0
H6544 H 0.17412 0.8968 0.48482 0.0
H6545 H 0.18848 0.88631 0.4756 0.0
H6546 H 0.18075 0.9025 0.44535 0.0
H6547 H 0.16645 0.91291 0.45453 0.0
H6548 H 0.17531 0.87957 0.4471 0.0
H6549 H 0.20534 0.90457 0.45283 0.0
H6550 H 0.21797 0.91561 0.46393 0.0
H6551 H 0.22866 0.88679 0.48073 0.0
H6552 H 0.21601 0.87558 0.46977 0.0
H6553 H 0.20481 0.86253 0.40358 0.0
H6554 H 0.19681 0.87182 0.41885 0.0
H6555 H 0.21448 0.85109 0.44114 0.0
H6556 H 0.22315 0.84178 0.4255 0.0
H6557 H 0.21525 0.87302 0.44704 0.0
H6558 H 0.18669 0.84775 0.43862 0.0
H6559 H 0.17441 0.83733 0.42655 0.0
H6560 H 0.16073 0.86721 0.41438 0.0
H6561 H 0.17298 0.8778 0.42631 0.0
C6562 C 0.17601 0.89861 0.47638 0.0
C6563 C 0.16929 0.90568 0.47036 0.0
C6564 C 0.18414 0.89256 0.4711 0.0
C6565 C 0.18555 0.89355 0.45979 0.0
C6566 C 0.17978 0.90164 0.4541 0.0
C6567 C 0.17168 0.90766 0.45935 0.0
C6568 C 0.19083 0.8847 0.45353 0.0
C6569 C 0.18405 0.87815 0.44706 0.0
C6570 C 0.20214 0.88254 0.45392 0.0
C6571 C 0.20963 0.88927 0.46059 0.0
C6572 C 0.21029 0.90061 0.45897 0.0
C6573 C 0.21749 0.90689 0.46521 0.0
C6574 C 0.22408 0.90191 0.47306 0.0
C6575 C 0.22353 0.89063 0.47466 0.0
C6576 C 0.21636 0.88431 0.46843 0.0
C6577 C 0.20706 0.85979 0.41167 0.0
C6578 C 0.21471 0.85137 0.41326 0.0
C6579 C 0.20235 0.86512 0.42045 0.0
C6580 C 0.20486 0.86203 0.43115 0.0
C6581 C 0.21238 0.85354 0.43291 0.0
C6582 C 0.21727 0.84819 0.424 0.0
C6583 C 0.19977 0.86822 0.4402 0.0
C6584 C 0.20649 0.87423 0.44729 0.0
C6585 C 0.18834 0.86993 0.4404 0.0
C6586 C 0.18076 0.86357 0.43338 0.0
C6587 C 0.18108 0.8521 0.43336 0.0
C6588 C 0.17412 0.84616 0.42654 0.0
C6589 C 0.16679 0.8516 0.41971 0.0
C6590 C 0.16639 0.863 0.4197 0.0
C6591 C 0.17331 0.86897 0.42652 0.0
H6592 H 0.16144 0.84699 0.41441 0.0
H6593 H 0.22965 0.90679 0.47788 0.0
H6594 H 0.33429 0.42162 0.70742 0.0
H6595 H 0.3436 0.4371 0.69871 0.0
H6596 H 0.36951 0.43474 0.72247 0.0
H6597 H 0.36005 0.41964 0.73128 0.0
H6598 H 0.36844 0.45469 0.7163 0.0
H6599 H 0.36912 0.41971 0.69841 0.0
H6600 H 0.36125 0.40349 0.68947 0.0
H6601 H 0.34761 0.42375 0.66436 0.0
H6602 H 0.35523 0.44012 0.67328 0.0
H6603 H 0.41236 0.45703 0.67133 0.0
H6604 H 0.40077 0.44933 0.68582 0.0
H6605 H 0.37768 0.47545 0.68116 0.0
H6606 H 0.3894 0.48334 0.66714 0.0
H6607 H 0.37673 0.44511 0.67784 0.0
H6608 H 0.37645 0.48083 0.69975 0.0
H6609 H 0.38758 0.49479 0.70907 0.0
H6610 H 0.40408 0.46973 0.72718 0.0
H6611 H 0.39324 0.45563 0.7177 0.0
C6612 C 0.34168 0.42482 0.71105 0.0
C6613 C 0.34649 0.41957 0.72 0.0
C6614 C 0.34707 0.43356 0.70602 0.0
C6615 C 0.35741 0.43689 0.70976 0.0
C6616 C 0.36158 0.43232 0.71939 0.0
C6617 C 0.35618 0.42369 0.72444 0.0
C6618 C 0.36467 0.44381 0.70296 0.0
C6619 C 0.37011 0.45265 0.70785 0.0
C6620 C 0.36717 0.441 0.69201 0.0
C6621 C 0.3626 0.43116 0.68661 0.0
C6622 C 0.36437 0.42071 0.69104 0.0
C6623 C 0.35995 0.41149 0.68597 0.0
C6624 C 0.3539 0.41259 0.67637 0.0
C6625 C 0.35227 0.42292 0.67181 0.0
C6626 C 0.35662 0.43217 0.67688 0.0
C6627 C 0.40516 0.46146 0.67394 0.0
C6628 C 0.40187 0.47092 0.66841 0.0
C6629 C 0.39849 0.45701 0.68208 0.0
C6630 C 0.38847 0.46194 0.68466 0.0
C6631 C 0.38554 0.47174 0.67957 0.0
C6632 C 0.39226 0.47626 0.67159 0.0
C6633 C 0.38026 0.45599 0.69116 0.0
C6634 C 0.37477 0.44727 0.68621 0.0
C6635 C 0.37793 0.45871 0.70209 0.0
C6636 C 0.3842 0.4672 0.7079 0.0
C6637 C 0.38256 0.47831 0.7056 0.0
C6638 C 0.3888 0.48624 0.71093 0.0
C6639 C 0.39657 0.48315 0.71867 0.0
C6640 C 0.39809 0.47212 0.72114 0.0
C6641 C 0.39193 0.46415 0.71578 0.0
H6642 H 0.40139 0.4893 0.72279 0.0
H6643 H 0.3505 0.40544 0.67246 0.0
H6644 H 0.83038 0.58369 0.95561 0.0
H6645 H 0.81531 0.59284 0.94621 0.0
H6646 H 0.81123 0.61438 0.97377 0.0
H6647 H 0.82602 0.60497 0.98328 0.0
H6648 H 0.79236 0.61263 0.96311 0.0
H6649 H 0.82963 0.61993 0.95439 0.0
H6650 H 0.84846 0.61571 0.94872 0.0
H6651 H 0.83681 0.60461 0.91761 0.0
H6652 H 0.81786 0.60852 0.92319 0.0
H6653 H 0.77984 0.66171 0.93169 0.0
H6654 H 0.78721 0.64812 0.94459 0.0
H6655 H 0.78885 0.62441 0.91859 0.0
H6656 H 0.78168 0.63788 0.90583 0.0
H6657 H 0.80839 0.62741 0.929 0.0
H6658 H 0.77033 0.62192 0.93875 0.0
H6659 H 0.75243 0.62853 0.94516 0.0
H6660 H 0.76693 0.6392 0.97522 0.0
H6661 H 0.78495 0.6328 0.96891 0.0
C6662 C 0.8258 0.58994 0.95989 0.0
C6663 C 0.82922 0.59362 0.97016 0.0
C6664 C 0.81729 0.59525 0.95448 0.0
C6665 C 0.81238 0.6045 0.95918 0.0
C6666 C 0.81493 0.60731 0.96998 0.0
C6667 C 0.82335 0.6019 0.97543 0.0
C6668 C 0.80623 0.61232 0.9523 0.0
C6669 C 0.79585 0.61586 0.95565 0.0
C6670 C 0.81089 0.61672 0.94267 0.0
C6671 C 0.8223 0.61436 0.93928 0.0
C6672 C 0.83107 0.61648 0.94638 0.0
C6673 C 0.84177 0.61415 0.94318 0.0
C6674 C 0.84383 0.60986 0.93283 0.0
C6675 C 0.8352 0.6079 0.92564 0.0
C6676 C 0.82447 0.61015 0.92883 0.0
C6677 C 0.78153 0.6535 0.92888 0.0
C6678 C 0.78025 0.65077 0.91784 0.0
C6679 C 0.78574 0.64577 0.93619 0.0
C6680 C 0.78859 0.63528 0.9325 0.0
C6681 C 0.78675 0.63246 0.92158 0.0
C6682 C 0.78264 0.64014 0.91432 0.0
C6683 C 0.79438 0.62743 0.93961 0.0
C6684 C 0.80481 0.62403 0.93636 0.0
C6685 C 0.78988 0.62341 0.94943 0.0
C6686 C 0.77899 0.62695 0.95333 0.0
C6687 C 0.76971 0.62572 0.9467 0.0
C6688 C 0.75954 0.62943 0.95032 0.0
C6689 C 0.75855 0.6343 0.96058 0.0
C6690 C 0.76771 0.63543 0.96727 0.0
C6691 C 0.7779 0.63176 0.96368 0.0
H6692 H 0.75068 0.63718 0.96336 0.0
H6693 H 0.85212 0.60808 0.93036 0.0
H6694 H 0.59126 0.04672 0.16177 0.0
H6695 H 0.60173 0.0558 0.17611 0.0
H6696 H 0.613 0.02455 0.1877 0.0
H6697 H 0.60227 0.0154 0.17344 0.0
H6698 H 0.61092 0.04243 0.20451 0.0
H6699 H 0.62687 0.03463 0.16871 0.0
H6700 H 0.62619 0.03514 0.14861 0.0
H6701 H 0.62418 0.07011 0.1494 0.0
H6702 H 0.62461 0.06979 0.16952 0.0
H6703 H 0.65891 0.06768 0.2265 0.0
H6704 H 0.64789 0.05421 0.21642 0.0
H6705 H 0.63598 0.07981 0.19537 0.0
H6706 H 0.64694 0.09307 0.20516 0.0
H6707 H 0.63965 0.06224 0.18391 0.0
H6708 H 0.6215 0.07151 0.21738 0.0
H6709 H 0.62004 0.07335 0.23735 0.0
H6710 H 0.62416 0.03874 0.24099 0.0
H6711 H 0.62582 0.03673 0.22101 0.0
C6712 C 0.59551 0.04178 0.16775 0.0
C6713 C 0.596 0.03041 0.16659 0.0
C6714 C 0.60151 0.04696 0.17589 0.0
C6715 C 0.60828 0.04083 0.18279 0.0
C6716 C 0.60781 0.02939 0.18244 0.0
C6717 C 0.60167 0.02418 0.17433 0.0
C6718 C 0.61727 0.04636 0.18862 0.0
C6719 C 0.61733 0.04659 0.20005 0.0
C6720 C 0.62549 0.05197 0.18274 0.0
C6721 C 0.6257 0.05217 0.17063 0.0
C6722 C 0.62624 0.04242 0.1646 0.0
C6723 C 0.62589 0.04268 0.1532 0.0
C6724 C 0.62513 0.05265 0.14773 0.0
C6725 C 0.62477 0.06239 0.15365 0.0
C6726 C 0.62506 0.06218 0.16505 0.0
C6727 C 0.65409 0.07033 0.21958 0.0
C6728 C 0.65366 0.08141 0.21667 0.0
C6729 C 0.64776 0.06268 0.21389 0.0
C6730 C 0.641 0.06605 0.20525 0.0
C6731 C 0.6411 0.07701 0.20201 0.0
C6732 C 0.64734 0.0846 0.20766 0.0
C6733 C 0.63325 0.05851 0.19985 0.0
C6734 C 0.63341 0.05787 0.18844 0.0
C6735 C 0.62508 0.05284 0.20575 0.0
C6736 C 0.62393 0.05398 0.21773 0.0
C6737 C 0.62218 0.0643 0.22244 0.0
C6738 C 0.62131 0.06538 0.23376 0.0
C6739 C 0.62205 0.05617 0.24044 0.0
C6740 C 0.62362 0.04586 0.2358 0.0
C6741 C 0.62453 0.04475 0.22448 0.0
H6742 H 0.62138 0.05701 0.2492 0.0
H6743 H 0.62484 0.05283 0.13891 0.0
H6744 H 0.58509 0.197 0.15181 0.0
H6745 H 0.57092 0.19158 0.13896 0.0
H6746 H 0.55651 0.22359 0.14113 0.0
H6747 H 0.57103 0.22925 0.15381 0.0
H6748 H 0.5448 0.19593 0.14025 0.0
H6749 H 0.56384 0.22739 0.12251 0.0
H6750 H 0.58083 0.23729 0.11821 0.0
H6751 H 0.59434 0.20827 0.10397 0.0
H6752 H 0.57755 0.19812 0.10847 0.0
H6753 H 0.51652 0.1754 0.09599 0.0
H6754 H 0.52406 0.19116 0.10577 0.0
H6755 H 0.55664 0.17917 0.09992 0.0
H6756 H 0.54912 0.1634 0.09035 0.0
H6757 H 0.55659 0.2014 0.10189 0.0
H6758 H 0.54483 0.16976 0.1206 0.0
H6759 H 0.53246 0.15496 0.12625 0.0
H6760 H 0.51032 0.17846 0.1399 0.0
H6761 H 0.52249 0.19345 0.13408 0.0
C6762 C 0.57866 0.20277 0.14989 0.0
C6763 C 0.57918 0.21357 0.15368 0.0
C6764 C 0.57067 0.1997 0.14245 0.0
C6765 C 0.56298 0.20733 0.13885 0.0
C6766 C 0.5626 0.21772 0.14366 0.0
C6767 C 0.57073 0.22086 0.15106 0.0
C6768 C 0.5559 0.20433 0.12962 0.0
C6769 C 0.54702 0.19753 0.13183 0.0
C6770 C 0.55939 0.20583 0.1187 0.0
C6771 C 0.56949 0.21196 0.116 0.0
C6772 C 0.5705 0.22308 0.11863 0.0
C6773 C 0.58008 0.22874 0.11612 0.0
C6774 C 0.58868 0.2234 0.11086 0.0
C6775 C 0.5877 0.21239 0.10808 0.0
C6776 C 0.57815 0.20668 0.11062 0.0
C6777 C 0.52529 0.17647 0.09632 0.0
C6778 C 0.53228 0.16825 0.09249 0.0
C6779 C 0.52959 0.18542 0.10194 0.0
C6780 C 0.54089 0.18622 0.1037 0.0
C6781 C 0.5479 0.17872 0.09864 0.0
C6782 C 0.54361 0.16971 0.09319 0.0
C6783 C 0.54525 0.19322 0.11253 0.0
C6784 C 0.55383 0.20044 0.11025 0.0
C6785 C 0.54194 0.19163 0.12348 0.0
C6786 C 0.53442 0.18272 0.12668 0.0
C6787 C 0.53723 0.17178 0.12463 0.0
C6788 C 0.53028 0.16336 0.1279 0.0
C6789 C 0.52057 0.16577 0.13338 0.0
C6790 C 0.51781 0.17662 0.13559 0.0
C6791 C 0.52471 0.18508 0.13229 0.0
H6792 H 0.51522 0.15923 0.13595 0.0
H6793 H 0.59608 0.2278 0.1089 0.0
H6794 H 0.03714 0.82894 0.41317 0.0
H6795 H 0.0467 0.81382 0.4041 0.0
H6796 H 0.02562 0.81738 0.37611 0.0
H6797 H 0.01609 0.83234 0.38521 0.0
H6798 H 0.03118 0.79656 0.37842 0.0
H6799 H 0.04915 0.8314 0.37827 0.0
H6800 H 0.05773 0.84782 0.38611 0.0
H6801 H 0.08197 0.82792 0.40171 0.0
H6802 H 0.07338 0.81134 0.39417 0.0
H6803 H 0.07434 0.78578 0.33631 0.0
H6804 H 0.05934 0.79421 0.34684 0.0
H6805 H 0.07205 0.77991 0.37635 0.0
H6806 H 0.08675 0.77144 0.36598 0.0
H6807 H 0.07036 0.80535 0.37327 0.0
H6808 H 0.05176 0.7703 0.37222 0.0
H6809 H 0.04332 0.75474 0.36266 0.0
H6810 H 0.02043 0.77638 0.34733 0.0
H6811 H 0.02889 0.7921 0.35663 0.0
C6812 C 0.03428 0.82612 0.4053 0.0
C6813 C 0.02588 0.83166 0.39987 0.0
C6814 C 0.03979 0.81759 0.40007 0.0
C6815 C 0.037 0.81463 0.38934 0.0
C6816 C 0.02793 0.81953 0.38437 0.0
C6817 C 0.02247 0.82805 0.38956 0.0
C6818 C 0.04424 0.80756 0.3827 0.0
C6819 C 0.03975 0.79849 0.37729 0.0
C6820 C 0.0554 0.81014 0.38113 0.0
C6821 C 0.06051 0.8201 0.3858 0.0
C6822 C 0.05623 0.8305 0.38348 0.0
C6823 C 0.06111 0.83984 0.38786 0.0
C6824 C 0.07037 0.83891 0.39444 0.0
C6825 C 0.07477 0.82863 0.39665 0.0
C6826 C 0.06989 0.81925 0.39234 0.0
C6827 C 0.07362 0.78412 0.34496 0.0
C6828 C 0.08164 0.778 0.35037 0.0
C6829 C 0.06513 0.78896 0.35096 0.0
C6830 C 0.06467 0.78766 0.36235 0.0
C6831 C 0.07228 0.78096 0.36757 0.0
C6832 C 0.08064 0.77613 0.36164 0.0
C6833 C 0.05732 0.79435 0.36913 0.0
C6834 C 0.06181 0.80339 0.37451 0.0
C6835 C 0.04617 0.79185 0.37052 0.0
C6836 C 0.04107 0.78239 0.36498 0.0
C6837 C 0.04503 0.77176 0.3667 0.0
C6838 C 0.04021 0.76291 0.36135 0.0
C6839 C 0.03137 0.76458 0.35435 0.0
C6840 C 0.0273 0.7751 0.35272 0.0
C6841 C 0.0321 0.78398 0.35802 0.0
H6842 H 0.02765 0.75771 0.35023 0.0
H6843 H 0.07415 0.84615 0.39779 0.0
H6844 H 0.41984 0.29452 0.66252 0.0
H6845 H 0.43445 0.30317 0.65211 0.0
H6846 H 0.44121 0.27258 0.63613 0.0
H6847 H 0.42655 0.26388 0.64659 0.0
H6848 H 0.46018 0.29159 0.63919 0.0
H6849 H 0.42314 0.28241 0.62392 0.0
H6850 H 0.40308 0.28231 0.62581 0.0
H6851 H 0.40339 0.31667 0.63271 0.0
H6852 H 0.42346 0.31693 0.63094 0.0
H6853 H 0.47602 0.31646 0.58835 0.0
H6854 H 0.46933 0.30366 0.60227 0.0
H6855 H 0.44561 0.32757 0.61267 0.0
H6856 H 0.45165 0.33986 0.59852 0.0
H6857 H 0.43617 0.30989 0.6122 0.0
H6858 H 0.47053 0.32146 0.62677 0.0
H6859 H 0.49044 0.32435 0.62682 0.0
H6860 H 0.49564 0.2898 0.62412 0.0
H6861 H 0.47574 0.28671 0.62389 0.0
C6862 C 0.42496 0.28948 0.65736 0.0
C6863 C 0.42215 0.27857 0.65534 0.0
C6864 C 0.43327 0.29443 0.65138 0.0
C6865 C 0.43878 0.28851 0.64329 0.0
C6866 C 0.43707 0.27723 0.64241 0.0
C6867 C 0.42874 0.27225 0.64842 0.0
C6868 C 0.44366 0.29452 0.63408 0.0
C6869 C 0.45501 0.29549 0.63317 0.0
C6870 C 0.43684 0.29985 0.62647 0.0
C6871 C 0.42478 0.29966 0.6274 0.0
C6872 C 0.41893 0.28992 0.62591 0.0
C6873 C 0.40756 0.28984 0.62692 0.0
C6874 C 0.40197 0.29947 0.62941 0.0
C6875 C 0.40773 0.30921 0.63081 0.0
C6876 C 0.41909 0.30933 0.62978 0.0
C6877 C 0.46933 0.31889 0.59358 0.0
C6878 C 0.4644 0.32917 0.59234 0.0
C6879 C 0.46558 0.31163 0.60159 0.0
C6880 C 0.45704 0.31469 0.60864 0.0
C6881 C 0.45215 0.32496 0.60733 0.0
C6882 C 0.45568 0.33203 0.59922 0.0
C6883 C 0.45284 0.30728 0.61726 0.0
C6884 C 0.4415 0.30595 0.61807 0.0
C6885 C 0.4597 0.30205 0.62498 0.0
C6886 C 0.47165 0.30386 0.62518 0.0
C6887 C 0.47592 0.31448 0.6261 0.0
C6888 C 0.4872 0.31615 0.62617 0.0
C6889 C 0.4943 0.30726 0.62544 0.0
C6890 C 0.49013 0.29668 0.62466 0.0
C6891 C 0.47885 0.29496 0.62457 0.0
H6892 H 0.50303 0.30857 0.6255 0.0
H6893 H 0.39317 0.29938 0.63023 0.0
H6894 H 0.92625 0.73124 0.84747 0.0
H6895 H 0.94095 0.7232 0.85855 0.0
H6896 H 0.92675 0.69131 0.85414 0.0
H6897 H 0.91216 0.69925 0.84319 0.0
H6898 H 0.9269 0.7021 0.87663 0.0
H6899 H 0.94871 0.69152 0.84528 0.0
H6900 H 0.95976 0.69462 0.82876 0.0
H6901 H 0.98162 0.71505 0.847 0.0
H6902 H 0.9706 0.71216 0.86361 0.0
H6903 H 0.95157 0.65564 0.89612 0.0
H6904 H 0.94278 0.67121 0.88773 0.0
H6905 H 0.97103 0.69109 0.89463 0.0
H6906 H 0.98009 0.67519 0.90296 0.0
H6907 H 0.96585 0.69171 0.8735 0.0
H6908 H 0.94526 0.69733 0.90616 0.0
H6909 H 0.93399 0.69239 0.92209 0.0
H6910 H 0.9092 0.67965 0.90087 0.0
H6911 H 0.92034 0.68439 0.88483 0.0
C6912 C 0.92663 0.72246 0.84841 0.0
C6913 C 0.9181 0.71583 0.84457 0.0
C6914 C 0.93497 0.71789 0.85478 0.0
C6915 C 0.93482 0.7067 0.85721 0.0
C6916 C 0.92698 0.69997 0.85234 0.0
C6917 C 0.91868 0.7045 0.84606 0.0
C6918 C 0.94117 0.70228 0.86642 0.0
C6919 C 0.93544 0.69986 0.87602 0.0
C6920 C 0.95236 0.69974 0.86567 0.0
C6921 C 0.95872 0.70181 0.85562 0.0
C6922 C 0.95576 0.69683 0.84572 0.0
C6923 C 0.96205 0.6985 0.83636 0.0
C6924 C 0.97135 0.70508 0.83681 0.0
C6925 C 0.97439 0.70999 0.84664 0.0
C6926 C 0.96813 0.70834 0.85603 0.0
C6927 C 0.95585 0.66338 0.89608 0.0
C6928 C 0.96657 0.66419 0.90004 0.0
C6929 C 0.95075 0.67234 0.89139 0.0
C6930 C 0.95619 0.68238 0.89063 0.0
C6931 C 0.96667 0.68343 0.8952 0.0
C6932 C 0.97181 0.67438 0.89997 0.0
C6933 C 0.95145 0.69101 0.8836 0.0
C6934 C 0.95743 0.69429 0.87438 0.0
C6935 C 0.94038 0.69418 0.88461 0.0
C6936 C 0.93366 0.69124 0.89428 0.0
C6937 C 0.93743 0.69343 0.90489 0.0
C6938 C 0.93105 0.69067 0.91394 0.0
C6939 C 0.92088 0.68572 0.91249 0.0
C6940 C 0.91706 0.68351 0.90199 0.0
C6941 C 0.9234 0.68626 0.89291 0.0
H6942 H 0.91596 0.68359 0.91951 0.0
H6943 H 0.97623 0.70633 0.82956 0.0
H6944 H 0.07594 0.73311 0.13967 0.0
H6945 H 0.06192 0.72289 0.12972 0.0
H6946 H 0.06636 0.69564 0.15155 0.0
H6947 H 0.0804 0.70586 0.16142 0.0
H6948 H 0.071 0.69063 0.13049 0.0
H6949 H 0.04167 0.70799 0.14986 0.0
H6950 H 0.03086 0.72337 0.15706 0.0
H6951 H 0.02585 0.73532 0.12452 0.0
H6952 H 0.03672 0.72007 0.11713 0.0
H6953 H 0.03353 0.65298 0.11024 0.0
H6954 H 0.04359 0.66616 0.12104 0.0
H6955 H 0.03622 0.6913 0.09753 0.0
H6956 H 0.02585 0.67801 0.08662 0.0
H6957 H 0.0332 0.69836 0.11829 0.0
H6958 H 0.0618 0.68047 0.09883 0.0
H6959 H 0.07245 0.665 0.09161 0.0
H6960 H 0.07914 0.65413 0.12422 0.0
H6961 H 0.06841 0.66944 0.13165 0.0
C6962 C 0.07345 0.72519 0.14268 0.0
C6963 C 0.07904 0.7203 0.15139 0.0
C6964 C 0.06551 0.71932 0.13696 0.0
C6965 C 0.06316 0.70848 0.13986 0.0
C6966 C 0.06806 0.70399 0.14919 0.0
C6967 C 0.07597 0.70986 0.1549 0.0
C6968 C 0.05713 0.70131 0.13222 0.0
C6969 C 0.06266 0.69222 0.12796 0.0
C6970 C 0.04647 0.70368 0.12853 0.0
C6971 C 0.0401 0.71296 0.13296 0.0
C6972 C 0.03836 0.71397 0.14425 0.0
C6973 C 0.03219 0.72264 0.14836 0.0
C6974 C 0.0277 0.73034 0.14125 0.0
C6975 C 0.02935 0.72937 0.13002 0.0
C6976 C 0.0355 0.7207 0.12586 0.0
C6977 C 0.03407 0.66128 0.10728 0.0
C6978 C 0.02894 0.66445 0.09753 0.0
C6979 C 0.03988 0.66881 0.11347 0.0
C6980 C 0.04081 0.67967 0.11001 0.0
C6981 C 0.03563 0.68293 0.10031 0.0
C6982 C 0.02973 0.67536 0.0941 0.0
C6983 C 0.04698 0.68754 0.11679 0.0
C6984 C 0.04154 0.69679 0.12081 0.0
C6985 C 0.05777 0.68535 0.12025 0.0
C6986 C 0.06422 0.67608 0.1158 0.0
C6987 C 0.06546 0.67474 0.10447 0.0
C6988 C 0.07153 0.666 0.10033 0.0
C6989 C 0.07645 0.65858 0.10745 0.0
C6990 C 0.07533 0.65988 0.11871 0.0
C6991 C 0.06926 0.6686 0.12289 0.0
H6992 H 0.08115 0.65182 0.10423 0.0
H6993 H 0.02292 0.73704 0.14445 0.0
H6994 H 0.4645 0.82208 0.08542 0.0
H6995 H 0.45746 0.80654 0.0962 0.0
H6996 H 0.46541 0.82388 0.12588 0.0
H6997 H 0.47297 0.83857 0.11539 0.0
H6998 H 0.46865 0.80523 0.13021 0.0
H6999 H 0.43937 0.82376 0.11249 0.0
H7000 H 0.42773 0.83076 0.09766 0.0
H7001 H 0.4218 0.79803 0.08663 0.0
H7002 H 0.43359 0.79084 0.10129 0.0
H7003 H 0.4173 0.79545 0.16052 0.0
H7004 H 0.433 0.8031 0.15076 0.0
H7005 H 0.4395 0.77159 0.13653 0.0
H7006 H 0.424 0.76386 0.14655 0.0
H7007 H 0.43069 0.79328 0.12326 0.0
H7008 H 0.459 0.77808 0.14814 0.0
H7009 H 0.4673 0.77666 0.16644 0.0
H7010 H 0.47028 0.81154 0.16803 0.0
H7011 H 0.46193 0.81317 0.14981 0.0
C7012 C 0.46501 0.8223 0.09423 0.0
C7013 C 0.46912 0.83155 0.0996 0.0
C7014 C 0.46088 0.81352 0.1004 0.0
C7015 C 0.46074 0.81406 0.11191 0.0
C7016 C 0.46544 0.8231 0.11708 0.0
C7017 C 0.46968 0.83162 0.11103 0.0
C7018 C 0.45517 0.80583 0.11886 0.0
C7019 C 0.46036 0.8026 0.12859 0.0
C7020 C 0.44428 0.80245 0.11693 0.0
C7021 C 0.43758 0.80678 0.10782 0.0
C7022 C 0.43574 0.81806 0.10679 0.0
C7023 C 0.42908 0.82207 0.09844 0.0
C7024 C 0.42409 0.81485 0.09116 0.0
C7025 C 0.42573 0.80362 0.09223 0.0
C7026 C 0.43243 0.79958 0.10053 0.0
C7027 C 0.4225 0.79006 0.15581 0.0
C7028 C 0.41962 0.77908 0.15433 0.0
C7029 C 0.43139 0.79443 0.15021 0.0
C7030 C 0.43733 0.78788 0.14295 0.0
C7031 C 0.43505 0.7767 0.14221 0.0
C7032 C 0.42627 0.77228 0.14798 0.0
C7033 C 0.44412 0.79312 0.13455 0.0
C7034 C 0.4391 0.79572 0.1246 0.0
C7035 C 0.45477 0.79681 0.1367 0.0
C7036 C 0.45982 0.79573 0.14763 0.0
C7037 C 0.46137 0.78544 0.15243 0.0
C7038 C 0.4661 0.7846 0.16277 0.0
C7039 C 0.46931 0.794 0.16839 0.0
C7040 C 0.46781 0.80426 0.16367 0.0
C7041 C 0.4631 0.80514 0.15333 0.0
H7042 H 0.47297 0.79332 0.1764 0.0
H7043 H 0.4189 0.81796 0.08473 0.0
H7044 H 0.40629 0.21387 0.85853 0.0
H7045 H 0.41987 0.20721 0.87142 0.0
H7046 H 0.44524 0.21274 0.84765 0.0
H7047 H 0.43152 0.21963 0.83463 0.0
H7048 H 0.44356 0.19084 0.85669 0.0
H7049 H 0.44487 0.22849 0.8696 0.0
H7050 H 0.43584 0.2453 0.87602 0.0
H7051 H 0.42186 0.22773 0.90292 0.0
H7052 H 0.43071 0.2108 0.89659 0.0
H7053 H 0.48476 0.17059 0.88778 0.0
H7054 H 0.47534 0.18566 0.87868 0.0
H7055 H 0.44929 0.18368 0.90227 0.0
H7056 H 0.45884 0.16868 0.91148 0.0
H7057 H 0.45188 0.20503 0.89373 0.0
H7058 H 0.44599 0.1689 0.88216 0.0
H7059 H 0.451 0.1501 0.87706 0.0
H7060 H 0.46838 0.16214 0.84912 0.0
H7061 H 0.46365 0.18107 0.8542 0.0
C7062 C 0.41479 0.21382 0.8561 0.0
C7063 C 0.41791 0.21719 0.8456 0.0
C7064 C 0.42253 0.21009 0.8635 0.0
C7065 C 0.43354 0.20957 0.8605 0.0
C7066 C 0.43676 0.21319 0.8501 0.0
C7067 C 0.42898 0.21713 0.84271 0.0
C7068 C 0.44139 0.20419 0.86789 0.0
C7069 C 0.44566 0.19411 0.86464 0.0
C7070 C 0.44342 0.2081 0.87857 0.0
C7071 C 0.43845 0.21837 0.88261 0.0
C7072 C 0.43986 0.22821 0.87687 0.0
C7073 C 0.43477 0.23776 0.8805 0.0
C7074 C 0.42828 0.23758 0.88987 0.0
C7075 C 0.42691 0.22786 0.89567 0.0
C7076 C 0.43198 0.2183 0.89209 0.0
C7077 C 0.47731 0.17377 0.89132 0.0
C7078 C 0.47252 0.16863 0.90032 0.0
C7079 C 0.47191 0.18233 0.88612 0.0
C7080 C 0.46156 0.18565 0.88973 0.0
C7081 C 0.45729 0.18126 0.8994 0.0
C7082 C 0.46274 0.17272 0.90466 0.0
C7083 C 0.45444 0.19193 0.88229 0.0
C7084 C 0.45008 0.20198 0.88562 0.0
C7085 C 0.45182 0.18775 0.87185 0.0
C7086 C 0.45461 0.1764 0.86865 0.0
C7087 C 0.45098 0.16755 0.87499 0.0
C7088 C 0.45375 0.15687 0.8721 0.0
C7089 C 0.46004 0.15493 0.86279 0.0
C7090 C 0.46353 0.16367 0.85635 0.0
C7091 C 0.46081 0.17437 0.85923 0.0
H7092 H 0.46218 0.14666 0.86056 0.0
H7093 H 0.42432 0.24498 0.89264 0.0
H7094 H 0.5765 0.26722 0.35409 0.0
H7095 H 0.56157 0.27584 0.36397 0.0
H7096 H 0.56411 0.30411 0.34309 0.0
H7097 H 0.57953 0.29563 0.33362 0.0
H7098 H 0.56696 0.31006 0.36257 0.0
H7099 H 0.53943 0.28796 0.34615 0.0
H7100 H 0.53052 0.27112 0.33968 0.0
H7101 H 0.53013 0.25853 0.37236 0.0
H7102 H 0.53914 0.27524 0.37902 0.0
H7103 H 0.52614 0.33888 0.39103 0.0
H7104 H 0.53315 0.32678 0.37675 0.0
H7105 H 0.54452 0.3043 0.40131 0.0
H7106 H 0.53765 0.31658 0.4157 0.0
H7107 H 0.53304 0.29569 0.37934 0.0
H7108 H 0.56302 0.31695 0.39473 0.0
H7109 H 0.57159 0.33404 0.40102 0.0
H7110 H 0.56675 0.34831 0.3694 0.0
H7111 H 0.55801 0.33133 0.36297 0.0
C7112 C 0.57346 0.27503 0.35126 0.0
C7113 C 0.579 0.28074 0.34306 0.0
C7114 C 0.56491 0.27998 0.35692 0.0
C7115 C 0.56168 0.29067 0.35432 0.0
C7116 C 0.56647 0.29588 0.34528 0.0
C7117 C 0.57518 0.291 0.33977 0.0
C7118 C 0.55505 0.29705 0.36222 0.0
C7119 C 0.5594 0.30697 0.36599 0.0
C7120 C 0.54538 0.29293 0.36705 0.0
C7121 C 0.54002 0.28283 0.36307 0.0
C7122 C 0.53752 0.28157 0.35194 0.0
C7123 C 0.53243 0.27205 0.34824 0.0
C7124 C 0.52978 0.26375 0.3556 0.0
C7125 C 0.53219 0.26496 0.36667 0.0
C7126 C 0.53727 0.27446 0.37042 0.0
C7127 C 0.52989 0.33121 0.39334 0.0
C7128 C 0.53133 0.32853 0.40436 0.0
C7129 C 0.53387 0.32435 0.38522 0.0
C7130 C 0.5393 0.3147 0.38803 0.0
C7131 C 0.54024 0.31169 0.39904 0.0
C7132 C 0.53634 0.31865 0.40722 0.0
C7133 C 0.54502 0.30849 0.37948 0.0
C7134 C 0.54052 0.2987 0.37569 0.0
C7135 C 0.55454 0.31271 0.37456 0.0
C7136 C 0.55973 0.32293 0.37842 0.0
C7137 C 0.56367 0.32378 0.38916 0.0
C7138 C 0.56859 0.33343 0.39274 0.0
C7139 C 0.56968 0.34227 0.38562 0.0
C7140 C 0.56587 0.34147 0.37491 0.0
C7141 C 0.56094 0.33183 0.37129 0.0
H7142 H 0.5735 0.34974 0.3884 0.0
H7143 H 0.52584 0.25639 0.35272 0.0
H7144 H 0.15673 0.07253 0.72378 0.0
H7145 H 0.14701 0.05651 0.71638 0.0
H7146 H 0.1289 0.07751 0.69477 0.0
H7147 H 0.13862 0.09325 0.70166 0.0
H7148 H 0.11649 0.06312 0.71073 0.0
H7149 H 0.14308 0.06535 0.68197 0.0
H7150 H 0.16137 0.06529 0.67362 0.0
H7151 H 0.16708 0.033 0.68595 0.0
H7152 H 0.14886 0.03297 0.69458 0.0
H7153 H 0.0907 0.04384 0.66341 0.0
H7154 H 0.0998 0.05207 0.6791 0.0
H7155 H 0.11304 0.02064 0.6879 0.0
H7156 H 0.1038 0.01238 0.67212 0.0
H7157 H 0.12861 0.03615 0.68314 0.0
H7158 H 0.09678 0.0344 0.70614 0.0
H7159 H 0.07735 0.03688 0.71075 0.0
H7160 H 0.08022 0.07135 0.70515 0.0
H7161 H 0.0996 0.06907 0.70036 0.0
C7162 C 0.15086 0.07366 0.71728 0.0
C7163 C 0.14833 0.08419 0.71346 0.0
C7164 C 0.1453 0.06454 0.71311 0.0
C7165 C 0.13716 0.06593 0.70516 0.0
C7166 C 0.13508 0.07632 0.70098 0.0
C7167 C 0.14068 0.08532 0.70497 0.0
C7168 C 0.1301 0.05687 0.70157 0.0
C7169 C 0.11912 0.05708 0.70481 0.0
C7170 C 0.13361 0.04909 0.69385 0.0
C7171 C 0.14475 0.04928 0.68919 0.0
C7172 C 0.14833 0.05834 0.68313 0.0
C7173 C 0.15865 0.0583 0.67828 0.0
C7174 C 0.16542 0.04918 0.67933 0.0
C7175 C 0.16186 0.04009 0.68522 0.0
C7176 C 0.15155 0.0401 0.69011 0.0
C7177 C 0.09513 0.03863 0.66901 0.0
C7178 C 0.09652 0.02751 0.66671 0.0
C7179 C 0.10032 0.04331 0.67798 0.0
C7180 C 0.10706 0.03695 0.68471 0.0
C7181 C 0.10779 0.02566 0.68286 0.0
C7182 C 0.10249 0.02094 0.67391 0.0
C7183 C 0.11485 0.0425 0.69208 0.0
C7184 C 0.126 0.04174 0.68948 0.0
C7185 C 0.11137 0.05016 0.69999 0.0
C7186 C 0.09968 0.05154 0.70289 0.0
C7187 C 0.09326 0.0425 0.70583 0.0
C7188 C 0.08225 0.04387 0.70848 0.0
C7189 C 0.07755 0.05426 0.70824 0.0
C7190 C 0.08386 0.0633 0.70535 0.0
C7191 C 0.09487 0.06197 0.70269 0.0
H7192 H 0.06903 0.05531 0.7103 0.0
H7193 H 0.17339 0.04914 0.67552 0.0
H7194 H 0.70809 0.83353 0.92079 0.0
H7195 H 0.69895 0.84261 0.93617 0.0
H7196 H 0.72182 0.86933 0.93382 0.0
H7197 H 0.73101 0.86014 0.91877 0.0
H7198 H 0.71592 0.86756 0.9539 0.0
H7199 H 0.69797 0.86858 0.91911 0.0
H7200 H 0.68913 0.86112 0.90265 0.0
H7201 H 0.66421 0.84648 0.92246 0.0
H7202 H 0.67304 0.85369 0.93907 0.0
H7203 H 0.67597 0.91372 0.95858 0.0
H7204 H 0.68955 0.90084 0.95105 0.0
H7205 H 0.6773 0.87561 0.97228 0.0
H7206 H 0.66461 0.88852 0.98039 0.0
H7207 H 0.67727 0.87525 0.94458 0.0
H7208 H 0.69665 0.87724 0.97978 0.0
H7209 H 0.70529 0.88855 0.99398 0.0
H7210 H 0.72801 0.90104 0.9704 0.0
H7211 H 0.71922 0.89008 0.95598 0.0
C7212 C 0.71143 0.84107 0.92398 0.0
C7213 C 0.72026 0.84615 0.91877 0.0
C7214 C 0.70616 0.84632 0.93264 0.0
C7215 C 0.70956 0.85676 0.93598 0.0
C7216 C 0.71903 0.86129 0.9314 0.0
C7217 C 0.72431 0.85604 0.92283 0.0
C7218 C 0.70261 0.86372 0.94301 0.0
C7219 C 0.70745 0.86914 0.95189 0.0
C7220 C 0.69158 0.86596 0.9403 0.0
C7221 C 0.68628 0.86151 0.93035 0.0
C7222 C 0.69068 0.86367 0.91997 0.0
C7223 C 0.68566 0.8595 0.91061 0.0
C7224 C 0.67614 0.85329 0.91151 0.0
C7225 C 0.67161 0.85125 0.92178 0.0
C7226 C 0.67663 0.85536 0.93117 0.0
C7227 C 0.67672 0.90563 0.96206 0.0
C7228 C 0.66948 0.90211 0.9702 0.0
C7229 C 0.68427 0.89825 0.95765 0.0
C7230 C 0.68428 0.88732 0.96112 0.0
C7231 C 0.67747 0.88404 0.96962 0.0
C7232 C 0.67036 0.89147 0.97434 0.0
C7233 C 0.69066 0.879 0.95529 0.0
C7234 C 0.68567 0.87339 0.94667 0.0
C7235 C 0.7016 0.87682 0.95801 0.0
C7236 C 0.70719 0.88296 0.96679 0.0
C7237 C 0.7034 0.8825 0.9776 0.0
C7238 C 0.70833 0.88884 0.98569 0.0
C7239 C 0.71718 0.89554 0.98309 0.0
C7240 C 0.72114 0.89587 0.9724 0.0
C7241 C 0.71617 0.88961 0.96427 0.0
H7242 H 0.72099 0.90045 0.98936 0.0
H7243 H 0.67225 0.85009 0.90426 0.0
H7244 H 0.835 0.4219 0.21004 0.0
H7245 H 0.84443 0.43705 0.20089 0.0
H7246 H 0.8718 0.43306 0.2227 0.0
H7247 H 0.86229 0.41821 0.23191 0.0
H7248 H 0.87077 0.45332 0.21737 0.0
H7249 H 0.86969 0.41923 0.19843 0.0
H7250 H 0.86147 0.40326 0.18938 0.0
H7251 H 0.8466 0.42419 0.16556 0.0
H7252 H 0.85456 0.44033 0.17461 0.0
H7253 H 0.9113 0.45871 0.17 0.0
H7254 H 0.9009 0.45039 0.18503 0.0
H7255 H 0.87611 0.47509 0.18153 0.0
H7256 H 0.88653 0.48347 0.16673 0.0
H7257 H 0.87577 0.44552 0.17797 0.0
H7258 H 0.8774 0.48017 0.20097 0.0
H7259 H 0.88884 0.4939 0.21026 0.0
H7260 H 0.9066 0.46837 0.22642 0.0
H7261 H 0.89536 0.45451 0.21706 0.0
C7262 C 0.84279 0.42466 0.21317 0.0
C7263 C 0.84793 0.41904 0.22169 0.0
C7264 C 0.84824 0.4332 0.20787 0.0
C7265 C 0.85894 0.43602 0.21095 0.0
C7266 C 0.86359 0.43104 0.22015 0.0
C7267 C 0.85814 0.42258 0.22543 0.0
C7268 C 0.86588 0.44304 0.20393 0.0
C7269 C 0.87175 0.45165 0.20874 0.0
C7270 C 0.86748 0.44069 0.1927 0.0
C7271 C 0.86258 0.43101 0.18731 0.0
C7272 C 0.86457 0.42044 0.19134 0.0
C7273 C 0.85997 0.41136 0.1862 0.0
C7274 C 0.85348 0.41271 0.17692 0.0
C7275 C 0.85159 0.42316 0.17277 0.0
C7276 C 0.85613 0.43228 0.17791 0.0
C7277 C 0.90394 0.46267 0.17288 0.0
C7278 C 0.89979 0.47184 0.16745 0.0
C7279 C 0.89797 0.45788 0.18137 0.0
C7280 C 0.88782 0.46223 0.18445 0.0
C7281 C 0.88404 0.47178 0.17945 0.0
C7282 C 0.89001 0.47658 0.17104 0.0
C7283 C 0.88034 0.45586 0.1914 0.0
C7284 C 0.87452 0.44729 0.18655 0.0
C7285 C 0.87902 0.45801 0.20261 0.0
C7286 C 0.88566 0.46634 0.20823 0.0
C7287 C 0.88383 0.4775 0.2064 0.0
C7288 C 0.89025 0.4853 0.2117 0.0
C7289 C 0.89847 0.48201 0.21889 0.0
C7290 C 0.90026 0.47091 0.22083 0.0
C7291 C 0.89387 0.46309 0.21553 0.0
H7292 H 0.90343 0.48806 0.22299 0.0
H7293 H 0.84995 0.40567 0.17294 0.0
H7294 H 0.26756 0.65282 0.42607 0.0
H7295 H 0.27561 0.64127 0.44051 0.0
H7296 H 0.30513 0.6383 0.42161 0.0
H7297 H 0.29745 0.65001 0.4076 0.0
H7298 H 0.29077 0.61794 0.42671 0.0
H7299 H 0.31116 0.64868 0.43969 0.0
H7300 H 0.31357 0.66723 0.447 0.0
H7301 H 0.29554 0.65842 0.47572 0.0
H7302 H 0.29275 0.63985 0.46839 0.0
H7303 H 0.33726 0.59333 0.44865 0.0
H7304 H 0.32198 0.60241 0.43997 0.0
H7305 H 0.3058 0.60517 0.47115 0.0
H7306 H 0.32148 0.59629 0.47997 0.0
H7307 H 0.30904 0.62458 0.46216 0.0
H7308 H 0.29417 0.59058 0.44802 0.0
H7309 H 0.29539 0.57278 0.43867 0.0
H7310 H 0.30766 0.58851 0.40989 0.0
H7311 H 0.30661 0.60637 0.41907 0.0
C7312 C 0.27594 0.65011 0.4253 0.0
C7313 C 0.28185 0.65215 0.4157 0.0
C7314 C 0.28047 0.64345 0.43346 0.0
C7315 C 0.29087 0.63884 0.43196 0.0
C7316 C 0.29708 0.64175 0.42285 0.0
C7317 C 0.29268 0.64847 0.41489 0.0
C7318 C 0.29488 0.62988 0.4389 0.0
C7319 C 0.29464 0.6193 0.43456 0.0
C7320 C 0.29999 0.63179 0.44901 0.0
C7321 C 0.30148 0.64297 0.45336 0.0
C7322 C 0.30749 0.65076 0.44745 0.0
C7323 C 0.30898 0.66126 0.45162 0.0
C7324 C 0.30464 0.66403 0.46178 0.0
C7325 C 0.29883 0.65628 0.46781 0.0
C7326 C 0.29727 0.64577 0.46364 0.0
C7327 C 0.33023 0.59545 0.45359 0.0
C7328 C 0.33052 0.59419 0.46496 0.0
C7329 C 0.32144 0.6006 0.4486 0.0
C7330 C 0.31267 0.60446 0.45488 0.0
C7331 C 0.31246 0.60222 0.46614 0.0
C7332 C 0.32135 0.59706 0.47117 0.0
C7333 C 0.30503 0.61247 0.45 0.0
C7334 C 0.3047 0.62299 0.45462 0.0
C7335 C 0.29984 0.61059 0.43984 0.0
C7336 C 0.30028 0.59983 0.43425 0.0
C7337 C 0.29714 0.59024 0.43971 0.0
C7338 C 0.29781 0.58014 0.43443 0.0
C7339 C 0.30159 0.57952 0.42369 0.0
C7340 C 0.3047 0.589 0.41819 0.0
C7341 C 0.30403 0.59912 0.42342 0.0
H7342 H 0.30212 0.57169 0.41964 0.0
H7343 H 0.30583 0.67216 0.46502 0.0
H7344 H 0.08508 0.96725 0.31687 0.0
H7345 H 0.09805 0.95992 0.30335 0.0
H7346 H 0.12382 0.96155 0.32732 0.0
H7347 H 0.11102 0.96893 0.34059 0.0
H7348 H 0.13215 0.96604 0.30873 0.0
H7349 H 0.10955 0.93858 0.32339 0.0
H7350 H 0.09291 0.92848 0.32843 0.0
H7351 H 0.08466 0.92481 0.29459 0.0
H7352 H 0.10117 0.93509 0.28934 0.0
H7353 H 0.15671 0.91176 0.29711 0.0
H7354 H 0.1477 0.92762 0.30533 0.0
H7355 H 0.13915 0.93937 0.2733 0.0
H7356 H 0.14856 0.9237 0.26503 0.0
H7357 H 0.12226 0.92993 0.2934 0.0
H7358 H 0.15011 0.9564 0.28134 0.0
H7359 H 0.16903 0.96326 0.28079 0.0
H7360 H 0.16975 0.96463 0.31578 0.0
H7361 H 0.15091 0.95761 0.31654 0.0
C7362 C 0.09359 0.96631 0.31906 0.0
C7363 C 0.09713 0.96859 0.32969 0.0
C7364 C 0.10096 0.96207 0.31141 0.0
C7365 C 0.11188 0.96008 0.31437 0.0
C7366 C 0.11548 0.96304 0.32481 0.0
C7367 C 0.10815 0.96721 0.3324 0.0
C7368 C 0.11941 0.954 0.30711 0.0
C7369 C 0.12993 0.95819 0.30529 0.0
C7370 C 0.11665 0.94361 0.30287 0.0
C7371 C 0.10647 0.93782 0.30598 0.0
C7372 C 0.10409 0.93579 0.31702 0.0
C7373 C 0.09471 0.92999 0.31992 0.0
C7374 C 0.0877 0.92606 0.31184 0.0
C7375 C 0.09007 0.92791 0.30084 0.0
C7376 C 0.09942 0.93375 0.2979 0.0
C7377 C 0.15335 0.91801 0.29184 0.0
C7378 C 0.15335 0.91664 0.28048 0.0
C7379 C 0.14823 0.92704 0.29652 0.0
C7380 C 0.14286 0.93466 0.28989 0.0
C7381 C 0.14344 0.93365 0.27851 0.0
C7382 C 0.1488 0.92474 0.2738 0.0
C7383 C 0.13484 0.94207 0.29491 0.0
C7384 C 0.12428 0.93799 0.29648 0.0
C7385 C 0.13779 0.95221 0.29949 0.0
C7386 C 0.14914 0.95637 0.29899 0.0
C7387 C 0.15435 0.95803 0.28891 0.0
C7388 C 0.16505 0.96199 0.28857 0.0
C7389 C 0.1706 0.96436 0.29824 0.0
C7390 C 0.16545 0.96279 0.30829 0.0
C7391 C 0.15476 0.95883 0.30868 0.0
H7392 H 0.17887 0.96743 0.29795 0.0
H7393 H 0.08046 0.92153 0.3141 0.0
H7394 H 0.79358 0.84635 0.59141 0.0
H7395 H 0.80466 0.85745 0.57917 0.0
H7396 H 0.77821 0.8583 0.55595 0.0
H7397 H 0.76717 0.84675 0.56813 0.0
H7398 H 0.79841 0.85748 0.54595 0.0
H7399 H 0.78141 0.87866 0.57489 0.0
H7400 H 0.77734 0.88239 0.59425 0.0
H7401 H 0.81154 0.88604 0.60093 0.0
H7402 H 0.81583 0.88216 0.58165 0.0
H7403 H 0.819 0.904 0.51823 0.0
H7404 H 0.80615 0.89319 0.52926 0.0
H7405 H 0.83081 0.88917 0.55405 0.0
H7406 H 0.84357 0.89982 0.54311 0.0
H7407 H 0.8104 0.8923 0.56288 0.0
H7408 H 0.82828 0.8699 0.5366 0.0
H7409 H 0.83451 0.86473 0.51819 0.0
H7410 H 0.80124 0.862 0.50754 0.0
H7411 H 0.79482 0.86734 0.52587 0.0
C7412 C 0.79021 0.84871 0.58359 0.0
C7413 C 0.7795 0.84585 0.58073 0.0
C7414 C 0.79653 0.85509 0.57663 0.0
C7415 C 0.79212 0.85899 0.56682 0.0
C7416 C 0.78171 0.85546 0.56355 0.0
C7417 C 0.77543 0.84886 0.57047 0.0
C7418 C 0.79808 0.86738 0.56047 0.0
C7419 C 0.80083 0.86519 0.54958 0.0
C7420 C 0.80156 0.87729 0.56533 0.0
C7421 C 0.79894 0.88007 0.57683 0.0
C7422 C 0.78806 0.88024 0.58049 0.0
C7423 C 0.78572 0.88237 0.59146 0.0
C7424 C 0.79417 0.88443 0.59882 0.0
C7425 C 0.80499 0.88443 0.59522 0.0
C7426 C 0.80738 0.88229 0.58427 0.0
C7427 C 0.82155 0.90099 0.52614 0.0
C7428 C 0.83229 0.90258 0.52977 0.0
C7429 C 0.81426 0.8948 0.53239 0.0
C7430 C 0.8176 0.89029 0.5424 0.0
C7431 C 0.82808 0.89255 0.54635 0.0
C7432 C 0.83538 0.89857 0.54005 0.0
C7433 C 0.81061 0.88243 0.54835 0.0
C7434 C 0.80776 0.8847 0.55919 0.0
C7435 C 0.80727 0.87248 0.54355 0.0
C7436 C 0.81107 0.86916 0.53255 0.0
C7437 C 0.82229 0.8683 0.5303 0.0
C7438 C 0.82586 0.86532 0.51989 0.0
C7439 C 0.81827 0.86308 0.51169 0.0
C7440 C 0.80711 0.86377 0.5139 0.0
C7441 C 0.80349 0.86677 0.5243 0.0
H7442 H 0.82105 0.86077 0.50363 0.0
H7443 H 0.79234 0.88605 0.6073 0.0
H7444 H 0.84386 0.58976 0.79796 0.0
H7445 H 0.85469 0.57618 0.80767 0.0
H7446 H 0.86045 0.55907 0.77747 0.0
H7447 H 0.84964 0.57284 0.76762 0.0
H7448 H 0.8578 0.54591 0.79909 0.0
H7449 H 0.87773 0.5757 0.78187 0.0
H7450 H 0.88134 0.59507 0.77784 0.0
H7451 H 0.88559 0.60159 0.81199 0.0
H7452 H 0.88173 0.5823 0.81625 0.0
H7453 H 0.90601 0.52047 0.81953 0.0
H7454 H 0.89469 0.53085 0.80656 0.0
H7455 H 0.88856 0.55513 0.83132 0.0
H7456 H 0.89961 0.54481 0.84422 0.0
H7457 H 0.89217 0.56403 0.81065 0.0
H7458 H 0.87061 0.53738 0.82893 0.0
H7459 H 0.86549 0.51907 0.83546 0.0
H7460 H 0.86284 0.50782 0.80239 0.0
H7461 H 0.86814 0.52605 0.79566 0.0
C7462 C 0.84702 0.58281 0.79348 0.0
C7463 C 0.84602 0.5823 0.78208 0.0
C7464 C 0.85325 0.57513 0.79901 0.0
C7465 C 0.85851 0.56683 0.79321 0.0
C7466 C 0.85644 0.5655 0.78202 0.0
C7467 C 0.85021 0.57328 0.77643 0.0
C7468 C 0.86729 0.56066 0.79859 0.0
C7469 C 0.86544 0.54975 0.80137 0.0
C7470 C 0.87702 0.56592 0.80194 0.0
C7471 C 0.8793 0.57756 0.79938 0.0
C7472 C 0.87928 0.58128 0.78853 0.0
C7473 C 0.8814 0.59225 0.78621 0.0
C7474 C 0.88366 0.59957 0.79466 0.0
C7475 C 0.88381 0.59592 0.80545 0.0
C7476 C 0.88165 0.58497 0.80783 0.0
C7477 C 0.90243 0.52814 0.82206 0.0
C7478 C 0.90357 0.53184 0.83283 0.0
C7479 C 0.89595 0.53401 0.81472 0.0
C7480 C 0.89076 0.54367 0.81807 0.0
C7481 C 0.89252 0.5477 0.8286 0.0
C7482 C 0.89879 0.54178 0.83595 0.0
C7483 C 0.88277 0.5492 0.811 0.0
C7484 C 0.88468 0.56007 0.80806 0.0
C7485 C 0.87296 0.54402 0.8078 0.0
C7486 C 0.86996 0.53301 0.81179 0.0
C7487 C 0.86909 0.53096 0.82305 0.0
C7488 C 0.86612 0.52061 0.82679 0.0
C7489 C 0.86389 0.51227 0.81935 0.0
C7490 C 0.86461 0.51428 0.80815 0.0
C7491 C 0.8676 0.52462 0.80436 0.0
H7492 H 0.86156 0.50426 0.82225 0.0
H7493 H 0.88532 0.60805 0.79283 0.0
H7494 H 0.20433 0.66068 0.08511 0.0
H7495 H 0.19526 0.65089 0.0703 0.0
H7496 H 0.22608 0.637 0.06053 0.0
H7497 H 0.23522 0.64698 0.07532 0.0
H7498 H 0.20868 0.64033 0.04267 0.0
H7499 H 0.21485 0.62412 0.07886 0.0
H7500 H 0.21387 0.62487 0.09895 0.0
H7501 H 0.17915 0.62929 0.09729 0.0
H7502 H 0.17996 0.6288 0.07718 0.0
H7503 H 0.18069 0.59208 0.02214 0.0
H7504 H 0.1945 0.60423 0.03035 0.0
H7505 H 0.17006 0.61701 0.05227 0.0
H7506 H 0.15664 0.60488 0.04459 0.0
H7507 H 0.18711 0.61291 0.06323 0.0
H7508 H 0.17937 0.63092 0.02912 0.0
H7509 H 0.17823 0.63216 0.00907 0.0
H7510 H 0.21271 0.62638 0.00659 0.0
H7511 H 0.21401 0.62496 0.02663 0.0
C7512 C 0.20925 0.65605 0.0794 0.0
C7513 C 0.22044 0.6546 0.08124 0.0
C7514 C 0.20407 0.65042 0.07098 0.0
C7515 C 0.21 0.64312 0.06445 0.0
C7516 C 0.2214 0.64265 0.06547 0.0
C7517 C 0.22661 0.64836 0.07388 0.0
C7518 C 0.2041 0.63441 0.05855 0.0
C7519 C 0.20407 0.63422 0.04711 0.0
C7520 C 0.19798 0.62657 0.0644 0.0
C7521 C 0.19749 0.62651 0.07651 0.0
C7522 C 0.20702 0.62532 0.08278 0.0
C7523 C 0.20649 0.6257 0.09417 0.0
C7524 C 0.19646 0.62714 0.09939 0.0
C7525 C 0.18692 0.62818 0.09323 0.0
C7526 C 0.18741 0.62785 0.08184 0.0
C7527 C 0.17836 0.59747 0.02874 0.0
C7528 C 0.16762 0.59741 0.03278 0.0
C7529 C 0.18621 0.60443 0.03339 0.0
C7530 C 0.18331 0.61154 0.04195 0.0
C7531 C 0.17256 0.61153 0.04579 0.0
C7532 C 0.16486 0.60454 0.04134 0.0
C7533 C 0.19127 0.61898 0.04725 0.0
C7534 C 0.1918 0.61889 0.05869 0.0
C7535 C 0.19751 0.62673 0.04137 0.0
C7536 C 0.19677 0.6277 0.02935 0.0
C7537 C 0.18669 0.62983 0.02429 0.0
C7538 C 0.18602 0.63058 0.01293 0.0
C7539 C 0.19539 0.62931 0.00656 0.0
C7540 C 0.20545 0.62733 0.01153 0.0
C7541 C 0.20617 0.62656 0.02289 0.0
H7542 H 0.19485 0.62988 0.99776 0.0
H7543 H 0.19607 0.62745 0.10821 0.0
H7544 H 0.20292 0.34031 0.91338 0.0
H7545 H 0.19356 0.35096 0.9274 0.0
H7546 H 0.22455 0.36264 0.93926 0.0
H7547 H 0.23398 0.35188 0.92519 0.0
H7548 H 0.20622 0.35957 0.95593 0.0
H7549 H 0.21461 0.37664 0.9208 0.0
H7550 H 0.21443 0.37673 0.90068 0.0
H7551 H 0.17945 0.37474 0.90081 0.0
H7552 H 0.17944 0.37439 0.92093 0.0
H7553 H 0.18198 0.40681 0.9795 0.0
H7554 H 0.19503 0.39596 0.96876 0.0
H7555 H 0.16893 0.38567 0.94748 0.0
H7556 H 0.15605 0.39652 0.95795 0.0
H7557 H 0.18669 0.38894 0.93597 0.0
H7558 H 0.17673 0.36974 0.96832 0.0
H7559 H 0.17424 0.36759 0.98817 0.0
H7560 H 0.20873 0.37136 0.99305 0.0
H7561 H 0.21139 0.37371 0.97321 0.0
C7562 C 0.20775 0.34469 0.91935 0.0
C7563 C 0.21914 0.34524 0.91832 0.0
C7564 C 0.2024 0.35082 0.9273 0.0
C7565 C 0.20838 0.3577 0.93421 0.0
C7566 C 0.21983 0.35735 0.93398 0.0
C7567 C 0.22521 0.35116 0.92601 0.0
C7568 C 0.20264 0.36648 0.9402 0.0
C7569 C 0.20214 0.36613 0.95161 0.0
C7570 C 0.19703 0.37482 0.93449 0.0
C7571 C 0.19703 0.37541 0.92238 0.0
C7572 C 0.20688 0.37616 0.91654 0.0
C7573 C 0.20681 0.37625 0.90513 0.0
C7574 C 0.19693 0.37572 0.89947 0.0
C7575 C 0.1871 0.37514 0.9052 0.0
C7576 C 0.18713 0.375 0.91661 0.0
C7577 C 0.17911 0.40238 0.97241 0.0
C7578 C 0.16799 0.40235 0.96966 0.0
C7579 C 0.18654 0.39615 0.96632 0.0
C7580 C 0.18291 0.38987 0.95742 0.0
C7581 C 0.17192 0.39041 0.95432 0.0
C7582 C 0.16454 0.39656 0.96038 0.0
C7583 C 0.19023 0.38207 0.95175 0.0
C7584 C 0.19098 0.38255 0.94035 0.0
C7585 C 0.19575 0.37366 0.95744 0.0
C7586 C 0.19425 0.37202 0.96932 0.0
C7587 C 0.18377 0.37017 0.97364 0.0
C7588 C 0.18233 0.36892 0.98488 0.0
C7589 C 0.19132 0.36937 0.99187 0.0
C7590 C 0.20178 0.37104 0.98762 0.0
C7591 C 0.20326 0.37233 0.97638 0.0
H7592 H 0.19019 0.36841 0.00057 0.0
H7593 H 0.1969 0.37578 0.89064 0.0
H7594 H 0.38334 0.96127 0.15495 0.0
H7595 H 0.37404 0.95418 0.17076 0.0
H7596 H 0.4004 0.96488 0.19143 0.0
H7597 H 0.41004 0.97225 0.17531 0.0
H7598 H 0.39168 0.94129 0.19342 0.0
H7599 H 0.37929 0.97882 0.1946 0.0
H7600 H 0.37267 0.99554 0.18556 0.0
H7601 H 0.34453 0.97828 0.17384 0.0
H7602 H 0.35103 0.96143 0.18271 0.0
H7603 H 0.3592 0.92003 0.23443 0.0
H7604 H 0.36862 0.93555 0.22606 0.0
H7605 H 0.34737 0.93337 0.19811 0.0
H7606 H 0.33797 0.91778 0.20648 0.0
H7607 H 0.35494 0.95547 0.20309 0.0
H7608 H 0.36754 0.91941 0.19524 0.0
H7609 H 0.37253 0.90061 0.20034 0.0
H7610 H 0.39864 0.9128 0.22027 0.0
H7611 H 0.39365 0.93173 0.21542 0.0
C7612 C 0.38729 0.96218 0.1628 0.0
C7613 C 0.3975 0.96736 0.16382 0.0
C7614 C 0.38188 0.95813 0.17186 0.0
C7615 C 0.38646 0.95913 0.18223 0.0
C7616 C 0.39672 0.96414 0.18343 0.0
C7617 C 0.40219 0.96834 0.17426 0.0
C7618 C 0.38034 0.95458 0.19156 0.0
C7619 C 0.38386 0.94462 0.19592 0.0
C7620 C 0.36985 0.95862 0.19425 0.0
C7621 C 0.36564 0.96888 0.18936 0.0
C7622 C 0.37168 0.9786 0.19011 0.0
C7623 C 0.36796 0.9881 0.185 0.0
C7624 C 0.35818 0.98798 0.17914 0.0
C7625 C 0.35208 0.97837 0.17841 0.0
C7626 C 0.35577 0.96885 0.18351 0.0
C7627 C 0.35624 0.92322 0.22673 0.0
C7628 C 0.34787 0.91787 0.22108 0.0
C7629 C 0.36162 0.93205 0.22197 0.0
C7630 C 0.35871 0.93554 0.21146 0.0
C7631 C 0.34964 0.93085 0.20626 0.0
C7632 C 0.3443 0.92196 0.21102 0.0
C7633 C 0.36639 0.94232 0.20509 0.0
C7634 C 0.36303 0.95248 0.2011 0.0
C7635 C 0.37687 0.93828 0.20237 0.0
C7636 C 0.38015 0.92696 0.20508 0.0
C7637 C 0.3743 0.91808 0.20077 0.0
C7638 C 0.37713 0.9074 0.2036 0.0
C7639 C 0.38588 0.9055 0.21065 0.0
C7640 C 0.39185 0.91429 0.21483 0.0
C7641 C 0.38903 0.92499 0.21204 0.0
H7642 H 0.38805 0.89723 0.21284 0.0
H7643 H 0.35534 0.99532 0.17515 0.0
H7644 H 0.76306 0.14033 0.42057 0.0
H7645 H 0.77261 0.13053 0.43513 0.0
H7646 H 0.79985 0.15263 0.43204 0.0
H7647 H 0.7903 0.16234 0.41742 0.0
H7648 H 0.80542 0.13198 0.42754 0.0
H7649 H 0.78664 0.15047 0.45623 0.0
H7650 H 0.77082 0.15754 0.46645 0.0
H7651 H 0.75867 0.12494 0.47057 0.0
H7652 H 0.77438 0.11767 0.46027 0.0
H7653 H 0.84059 0.11772 0.46868 0.0
H7654 H 0.82524 0.12681 0.46019 0.0
H7655 H 0.80847 0.09605 0.45705 0.0
H7656 H 0.82414 0.08665 0.46565 0.0
H7657 H 0.79614 0.11887 0.4647 0.0
H7658 H 0.81657 0.10086 0.43577 0.0
H7659 H 0.83354 0.09518 0.42657 0.0
H7660 H 0.84343 0.12867 0.42373 0.0
H7661 H 0.82658 0.13454 0.43305 0.0
C7662 C 0.77082 0.14343 0.42345 0.0
C7663 C 0.77593 0.15214 0.41805 0.0
C7664 C 0.7763 0.1378 0.43172 0.0
C7665 C 0.78697 0.1408 0.4346 0.0
C7666 C 0.79162 0.15018 0.42992 0.0
C7667 C 0.78613 0.1558 0.42167 0.0
C7668 C 0.79394 0.13313 0.44083 0.0
C7669 C 0.80338 0.12918 0.43569 0.0
C7670 C 0.79114 0.1292 0.45132 0.0
C7671 C 0.78161 0.13354 0.45737 0.0
C7672 C 0.78053 0.14481 0.45921 0.0
C7673 C 0.77161 0.14886 0.46505 0.0
C7674 C 0.76373 0.1417 0.46913 0.0
C7675 C 0.76477 0.13047 0.46739 0.0
C7676 C 0.77369 0.12639 0.46157 0.0
C7677 C 0.83363 0.11282 0.4663 0.0
C7678 C 0.83365 0.10142 0.46765 0.0
C7679 C 0.82483 0.11808 0.46151 0.0
C7680 C 0.81581 0.11209 0.45795 0.0
C7681 C 0.81541 0.10077 0.45981 0.0
C7682 C 0.82433 0.09543 0.46468 0.0
C7683 C 0.80753 0.11785 0.45138 0.0
C7684 C 0.79794 0.1215 0.45644 0.0
C7685 C 0.81022 0.12164 0.44083 0.0
C7686 C 0.82035 0.11813 0.43518 0.0
C7687 C 0.82241 0.10701 0.43327 0.0
C7688 C 0.832 0.10375 0.42801 0.0
C7689 C 0.83957 0.11155 0.42458 0.0
C7690 C 0.83756 0.12263 0.42639 0.0
C7691 C 0.82798 0.12593 0.43164 0.0
H7692 H 0.84699 0.10902 0.42052 0.0
H7693 H 0.75683 0.14484 0.47365 0.0
H7694 H 0.58926 0.54907 0.66449 0.0
H7695 H 0.59978 0.55736 0.67922 0.0
H7696 H 0.6104 0.52548 0.68962 0.0
H7697 H 0.59965 0.51712 0.67494 0.0
H7698 H 0.60909 0.54389 0.70697 0.0
H7699 H 0.62458 0.5344 0.67115 0.0
H7700 H 0.62358 0.53442 0.65105 0.0
H7701 H 0.62222 0.56943 0.65099 0.0
H7702 H 0.62301 0.5696 0.67111 0.0
H7703 H 0.65793 0.56815 0.72794 0.0
H7704 H 0.64673 0.55456 0.71821 0.0
H7705 H 0.63548 0.57969 0.69624 0.0
H7706 H 0.64665 0.59301 0.70562 0.0
H7707 H 0.63844 0.5617 0.68542 0.0
H7708 H 0.62085 0.57266 0.71885 0.0
H7709 H 0.61991 0.5751 0.7388 0.0
H7710 H 0.62337 0.54052 0.74334 0.0
H7711 H 0.62449 0.53791 0.7234 0.0
C7712 C 0.59329 0.54381 0.67034 0.0
C7713 C 0.59371 0.5325 0.66864 0.0
C7714 C 0.59933 0.54854 0.67871 0.0
C7715 C 0.60601 0.54201 0.68532 0.0
C7716 C 0.60528 0.53061 0.68458 0.0
C7717 C 0.59911 0.52585 0.67623 0.0
C7718 C 0.61539 0.54709 0.6909 0.0
C7719 C 0.61564 0.5476 0.70231 0.0
C7720 C 0.62379 0.5521 0.68475 0.0
C7721 C 0.62379 0.552 0.67263 0.0
C7722 C 0.62402 0.5421 0.66685 0.0
C7723 C 0.62349 0.54208 0.65546 0.0
C7724 C 0.62281 0.55192 0.64975 0.0
C7725 C 0.62273 0.56181 0.65542 0.0
C7726 C 0.62324 0.56187 0.66682 0.0
C7727 C 0.65323 0.57065 0.72089 0.0
C7728 C 0.65301 0.58163 0.71762 0.0
C7729 C 0.64681 0.56293 0.71539 0.0
C7730 C 0.64015 0.56617 0.70661 0.0
C7731 C 0.64053 0.577 0.70299 0.0
C7732 C 0.64687 0.58463 0.70842 0.0
C7733 C 0.63212 0.5587 0.70155 0.0
C7734 C 0.63209 0.55774 0.69016 0.0
C7735 C 0.62378 0.55358 0.70771 0.0
C7736 C 0.62288 0.5551 0.71966 0.0
C7737 C 0.62147 0.56559 0.72411 0.0
C7738 C 0.6209 0.567 0.73541 0.0
C7739 C 0.62161 0.55798 0.74234 0.0
C7740 C 0.62285 0.54751 0.73797 0.0
C7741 C 0.62345 0.54605 0.72667 0.0
H7742 H 0.62118 0.55909 0.75108 0.0
H7743 H 0.62237 0.55188 0.64093 0.0
H7744 H 0.5518 0.6634 0.5903 0.0
H7745 H 0.55953 0.67817 0.60118 0.0
H7746 H 0.52736 0.69155 0.60603 0.0
H7747 H 0.51957 0.67678 0.59497 0.0
H7748 H 0.54832 0.70721 0.6063 0.0
H7749 H 0.53146 0.67443 0.6227 0.0
H7750 H 0.529 0.65444 0.62284 0.0
H7751 H 0.5635 0.65005 0.62704 0.0
H7752 H 0.56619 0.67001 0.62669 0.0
H7753 H 0.56649 0.73014 0.65635 0.0
H7754 H 0.55371 0.72047 0.64425 0.0
H7755 H 0.57762 0.69507 0.63935 0.0
H7756 H 0.59022 0.70454 0.65139 0.0
H7757 H 0.55788 0.68652 0.63982 0.0
H7758 H 0.5763 0.71604 0.62193 0.0
H7759 H 0.58203 0.7352 0.61976 0.0
H7760 H 0.54853 0.74503 0.61668 0.0
H7761 H 0.5426 0.72591 0.619 0.0
C7762 C 0.54646 0.66986 0.59314 0.0
C7763 C 0.53511 0.66896 0.59191 0.0
C7764 C 0.55087 0.67826 0.59938 0.0
C7765 C 0.54397 0.68577 0.60455 0.0
C7766 C 0.53279 0.6858 0.60207 0.0
C7767 C 0.52836 0.6774 0.59572 0.0
C7768 C 0.54802 0.69158 0.61428 0.0
C7769 C 0.55016 0.70279 0.61374 0.0
C7770 C 0.55072 0.68567 0.62383 0.0
C7771 C 0.54902 0.6737 0.6246 0.0
C7772 C 0.53852 0.66919 0.62361 0.0
C7773 C 0.53709 0.65787 0.62372 0.0
C7774 C 0.54609 0.65098 0.62493 0.0
C7775 C 0.55654 0.6554 0.6261 0.0
C7776 C 0.55802 0.66671 0.62595 0.0
C7777 C 0.56885 0.72234 0.65291 0.0
C7778 C 0.57936 0.71815 0.65464 0.0
C7779 C 0.5616 0.71687 0.64597 0.0
C7780 C 0.5648 0.70715 0.64077 0.0
C7781 C 0.57498 0.70256 0.64324 0.0
C7782 C 0.5822 0.70802 0.65007 0.0
C7783 C 0.55821 0.70222 0.63192 0.0
C7784 C 0.55568 0.69109 0.63257 0.0
C7785 C 0.55549 0.70814 0.62236 0.0
C7786 C 0.559 0.71959 0.62077 0.0
C7787 C 0.57016 0.7223 0.62086 0.0
C7788 C 0.57344 0.73315 0.6196 0.0
C7789 C 0.56565 0.74134 0.61812 0.0
C7790 C 0.55456 0.73868 0.61785 0.0
C7791 C 0.55123 0.72784 0.61914 0.0
H7792 H 0.5682 0.74974 0.61715 0.0
H7793 H 0.54497 0.64222 0.62498 0.0
H7794 H 0.02253 0.33769 0.88291 0.0
H7795 H 0.03049 0.32334 0.87211 0.0
H7796 H 0.04197 0.30744 0.90138 0.0
H7797 H 0.03465 0.32269 0.91237 0.0
H7798 H 0.0577 0.3088 0.88695 0.0
H7799 H 0.02021 0.29632 0.8836 0.0
H7800 H 0.00064 0.3 0.88059 0.0
H7801 H 0.00774 0.3126 0.84868 0.0
H7802 H 0.02734 0.30902 0.85152 0.0
H7803 H 0.07695 0.26475 0.85664 0.0
H7804 H 0.06224 0.27356 0.86687 0.0
H7805 H 0.06144 0.29968 0.84334 0.0
H7806 H 0.07643 0.291 0.83324 0.0
H7807 H 0.03936 0.29114 0.8554 0.0
H7808 H 0.07512 0.30772 0.85909 0.0
H7809 H 0.09513 0.30684 0.86102 0.0
H7810 H 0.0916 0.28922 0.89108 0.0
H7811 H 0.07153 0.28979 0.88918 0.0
C7812 C 0.0265 0.331 0.88711 0.0
C7813 C 0.02795 0.33125 0.89846 0.0
C7814 C 0.03097 0.32269 0.8809 0.0
C7815 C 0.03658 0.31408 0.88589 0.0
C7816 C 0.03755 0.31394 0.89736 0.0
C7817 C 0.03325 0.32253 0.90365 0.0
C7818 C 0.0423 0.30602 0.87888 0.0
C7819 C 0.05359 0.30469 0.88027 0.0
C7820 C 0.03708 0.30104 0.8698 0.0
C7821 C 0.02523 0.30235 0.86776 0.0
C7822 C 0.01758 0.29979 0.87592 0.0
C7823 C 0.00649 0.30189 0.87425 0.0
C7824 C 0.00295 0.30652 0.86445 0.0
C7825 C 0.01049 0.30897 0.85625 0.0
C7826 C 0.02157 0.30685 0.85786 0.0
C7827 C 0.07321 0.27206 0.85335 0.0
C7828 C 0.07762 0.27715 0.84411 0.0
C7829 C 0.06489 0.27711 0.85922 0.0
C7830 C 0.06086 0.28726 0.85586 0.0
C7831 C 0.06442 0.29179 0.84597 0.0
C7832 C 0.0729 0.28681 0.84017 0.0
C7833 C 0.05458 0.29392 0.86365 0.0
C7834 C 0.04331 0.29501 0.86231 0.0
C7835 C 0.05981 0.29889 0.87264 0.0
C7836 C 0.07185 0.29862 0.8739 0.0
C7837 C 0.07862 0.30353 0.86603 0.0
C7838 C 0.08996 0.30311 0.86713 0.0
C7839 C 0.09464 0.29793 0.87614 0.0
C7840 C 0.08796 0.29319 0.88409 0.0
C7841 C 0.0766 0.29355 0.883 0.0
H7842 H 0.10342 0.29762 0.87699 0.0
H7843 H 0.99438 0.30822 0.86322 0.0
H7844 H 0.92498 0.21278 0.33418 0.0
H7845 H 0.9408 0.20459 0.34349 0.0
H7846 H 0.93084 0.22002 0.37359 0.0
H7847 H 0.91554 0.22839 0.36427 0.0
H7848 H 0.95086 0.21801 0.37488 0.0
H7849 H 0.92154 0.19429 0.36479 0.0
H7850 H 0.90884 0.18434 0.35278 0.0
H7851 H 0.9358 0.16788 0.33761 0.0
H7852 H 0.94869 0.17792 0.3494 0.0
H7853 H 0.95235 0.16324 0.40557 0.0
H7854 H 0.9449 0.17853 0.39509 0.0
H7855 H 0.97741 0.18739 0.38492 0.0
H7856 H 0.9849 0.17234 0.39579 0.0
H7857 H 0.94939 0.17769 0.37202 0.0
H7858 H 0.97764 0.20724 0.38595 0.0
H7859 H 0.9852 0.21616 0.40238 0.0
H7860 H 0.95288 0.21984 0.41544 0.0
H7861 H 0.9452 0.21076 0.39917 0.0
C7862 C 0.92654 0.21477 0.34265 0.0
C7863 C 0.91909 0.22112 0.34858 0.0
C7864 C 0.93548 0.21001 0.348 0.0
C7865 C 0.93687 0.21145 0.35933 0.0
C7866 C 0.93 0.21872 0.36489 0.0
C7867 C 0.92121 0.22349 0.35957 0.0
C7868 C 0.94427 0.20438 0.36584 0.0
C7869 C 0.95069 0.2092 0.37406 0.0
C7870 C 0.94379 0.19283 0.36514 0.0
C7871 C 0.93609 0.18703 0.35781 0.0
C7872 C 0.92477 0.18867 0.35879 0.0
C7873 C 0.91754 0.18299 0.35204 0.0
C7874 C 0.92151 0.17553 0.34439 0.0
C7875 C 0.93274 0.17372 0.34349 0.0
C7876 C 0.94001 0.17942 0.35018 0.0
C7877 C 0.95792 0.1688 0.40153 0.0
C7878 C 0.96917 0.16679 0.40156 0.0
C7879 C 0.95367 0.17747 0.39551 0.0
C7880 C 0.96062 0.18411 0.38929 0.0
C7881 C 0.97194 0.18253 0.38988 0.0
C7882 C 0.97622 0.17396 0.39609 0.0
C7883 C 0.95584 0.19136 0.38094 0.0
C7884 C 0.94989 0.18652 0.37245 0.0
C7885 C 0.9562 0.20282 0.38178 0.0
C7886 C 0.96089 0.20823 0.39146 0.0
C7887 C 0.97218 0.20986 0.39239 0.0
C7888 C 0.97648 0.21495 0.40165 0.0
C7889 C 0.96952 0.21853 0.40996 0.0
C7890 C 0.95826 0.21703 0.40902 0.0
C7891 C 0.95394 0.2119 0.3998 0.0
H7892 H 0.97286 0.22249 0.41712 0.0
H7893 H 0.9159 0.17111 0.3392 0.0
H7894 H 0.08437 0.2309 0.63357 0.0
H7895 H 0.0691 0.22198 0.6243 0.0
H7896 H 0.06469 0.20076 0.65204 0.0
H7897 H 0.07998 0.20981 0.66137 0.0
H7898 H 0.06811 0.18957 0.63324 0.0
H7899 H 0.04441 0.21805 0.64508 0.0
H7900 H 0.03835 0.23699 0.64816 0.0
H7901 H 0.03892 0.24297 0.61365 0.0
H7902 H 0.04509 0.22408 0.61037 0.0
H7903 H 0.02174 0.16178 0.61669 0.0
H7904 H 0.03107 0.17683 0.62578 0.0
H7905 H 0.04366 0.18785 0.59484 0.0
H7906 H 0.03424 0.17263 0.5856 0.0
H7907 H 0.03549 0.20483 0.6147 0.0
H7908 H 0.06136 0.1764 0.60352 0.0
H7909 H 0.06678 0.15717 0.60105 0.0
H7910 H 0.06153 0.15115 0.63516 0.0
H7911 H 0.05596 0.17034 0.63779 0.0
C7912 C 0.07984 0.22462 0.63783 0.0
C7913 C 0.08318 0.2211 0.64819 0.0
C7914 C 0.07113 0.21952 0.63254 0.0
C7915 C 0.06575 0.21071 0.63748 0.0
C7916 C 0.06872 0.20758 0.64811 0.0
C7917 C 0.07736 0.21278 0.65347 0.0
C7918 C 0.05816 0.2039 0.63096 0.0
C7919 C 0.06092 0.19291 0.62931 0.0
C7920 C 0.04894 0.20831 0.62557 0.0
C7921 C 0.04531 0.21968 0.62749 0.0
C7922 C 0.04334 0.22343 0.63816 0.0
C7923 C 0.03986 0.23415 0.63994 0.0
C7924 C 0.03828 0.24119 0.63111 0.0
C7925 C 0.04016 0.23751 0.62048 0.0
C7926 C 0.04363 0.22679 0.61866 0.0
C7927 C 0.0262 0.16763 0.61177 0.0
C7928 C 0.02731 0.16608 0.60047 0.0
C7929 C 0.03151 0.1762 0.61697 0.0
C7930 C 0.03806 0.18337 0.61098 0.0
C7931 C 0.03854 0.18241 0.59956 0.0
C7932 C 0.03315 0.17377 0.5943 0.0
C7933 C 0.04556 0.19064 0.61699 0.0
C7934 C 0.04276 0.20161 0.61858 0.0
C7935 C 0.05477 0.18627 0.62236 0.0
C7936 C 0.05814 0.17475 0.62082 0.0
C7937 C 0.06127 0.17094 0.61047 0.0
C7938 C 0.06439 0.16006 0.60905 0.0
C7939 C 0.06447 0.15293 0.61794 0.0
C7940 C 0.06145 0.15668 0.62828 0.0
C7941 C 0.05832 0.16756 0.62974 0.0
H7942 H 0.06689 0.14451 0.61683 0.0
H7943 H 0.03558 0.24948 0.63251 0.0
H7944 H 0.40585 0.70628 0.35159 0.0
H7945 H 0.41862 0.69663 0.36337 0.0
H7946 H 0.44374 0.71998 0.35546 0.0
H7947 H 0.43095 0.72962 0.34332 0.0
H7948 H 0.45076 0.69708 0.35774 0.0
H7949 H 0.42908 0.72442 0.37751 0.0
H7950 H 0.41112 0.73239 0.38189 0.0
H7951 H 0.40036 0.7016 0.39467 0.0
H7952 H 0.4182 0.6934 0.39023 0.0
H7953 H 0.48223 0.67664 0.40013 0.0
H7954 H 0.47281 0.6916 0.39068 0.0
H7955 H 0.44177 0.67675 0.39823 0.0
H7956 H 0.45113 0.66201 0.40772 0.0
H7957 H 0.43903 0.69777 0.39652 0.0
H7958 H 0.45519 0.66935 0.37589 0.0
H7959 H 0.4699 0.65714 0.36964 0.0
H7960 H 0.48744 0.6846 0.35675 0.0
H7961 H 0.4729 0.69702 0.36314 0.0
C7962 C 0.41415 0.70926 0.3522 0.0
C7963 C 0.4174 0.71879 0.34673 0.0
C7964 C 0.42142 0.70374 0.35893 0.0
C7965 C 0.432 0.70778 0.36048 0.0
C7966 C 0.43555 0.71682 0.35441 0.0
C7967 C 0.42828 0.7223 0.34751 0.0
C7968 C 0.43888 0.70307 0.36918 0.0
C7969 C 0.44841 0.69748 0.36626 0.0
C7970 C 0.43543 0.70316 0.3802 0.0
C7971 C 0.42499 0.70831 0.38355 0.0
C7972 C 0.4229 0.71936 0.38129 0.0
C7973 C 0.41272 0.72391 0.38376 0.0
C7974 C 0.4046 0.71751 0.38856 0.0
C7975 C 0.40666 0.70656 0.39097 0.0
C7976 C 0.41681 0.70196 0.38851 0.0
C7977 C 0.47339 0.67693 0.40024 0.0
C7978 C 0.46736 0.66823 0.40457 0.0
C7979 C 0.46802 0.68539 0.39476 0.0
C7980 C 0.45661 0.68512 0.39352 0.0
C7981 C 0.45057 0.67711 0.39903 0.0
C7982 C 0.45592 0.6687 0.40446 0.0
C7983 C 0.45107 0.69187 0.38515 0.0
C7984 C 0.44168 0.69772 0.38808 0.0
C7985 C 0.45432 0.69153 0.37405 0.0
C7986 C 0.46306 0.68413 0.37015 0.0
C7987 C 0.46224 0.6728 0.37182 0.0
C7988 C 0.47054 0.66584 0.36824 0.0
C7989 C 0.47962 0.6701 0.36284 0.0
C7990 C 0.48041 0.68132 0.36097 0.0
C7991 C 0.47216 0.68833 0.36458 0.0
H7992 H 0.48604 0.66469 0.36006 0.0
H7993 H 0.39672 0.72103 0.39041 0.0
H7994 H 0.59007 0.79585 0.85163 0.0
H7995 H 0.57643 0.80195 0.86459 0.0
H7996 H 0.5542 0.77718 0.85324 0.0
H7997 H 0.56811 0.77066 0.8402 0.0
H7998 H 0.54876 0.80429 0.85598 0.0
H7999 H 0.55966 0.77013 0.87392 0.0
H8000 H 0.57403 0.75738 0.87993 0.0
H8001 H 0.58861 0.78268 0.8993 0.0
H8002 H 0.57442 0.79562 0.89327 0.0
H8003 H 0.51432 0.8247 0.89593 0.0
H8004 H 0.5227 0.80916 0.88649 0.0
H8005 H 0.55432 0.81893 0.89846 0.0
H8006 H 0.54598 0.83458 0.90767 0.0
H8007 H 0.55254 0.79602 0.89547 0.0
H8008 H 0.54847 0.82964 0.8769 0.0
H8009 H 0.53881 0.84613 0.87066 0.0
H8010 H 0.51659 0.8263 0.8522 0.0
H8011 H 0.52601 0.80964 0.85855 0.0
C8012 C 0.58229 0.79165 0.85179 0.0
C8013 C 0.58017 0.78273 0.84486 0.0
C8014 C 0.57453 0.79516 0.85926 0.0
C8015 C 0.56441 0.78994 0.8599 0.0
C8016 C 0.56205 0.78122 0.85286 0.0
C8017 C 0.56996 0.77753 0.84544 0.0
C8018 C 0.55644 0.79399 0.86793 0.0
C8019 C 0.54919 0.80215 0.86457 0.0
C8020 C 0.55769 0.79172 0.87918 0.0
C8021 C 0.566 0.78385 0.88311 0.0
C8022 C 0.56596 0.77299 0.87942 0.0
C8023 C 0.57407 0.76572 0.88284 0.0
C8024 C 0.58223 0.76922 0.88999 0.0
C8025 C 0.58228 0.77998 0.89377 0.0
C8026 C 0.57419 0.78727 0.89037 0.0
C8027 C 0.52297 0.82319 0.89696 0.0
C8028 C 0.52955 0.83071 0.90251 0.0
C8029 C 0.52775 0.81436 0.89155 0.0
C8030 C 0.53913 0.81297 0.89172 0.0
C8031 C 0.54553 0.81982 0.89829 0.0
C8032 C 0.54077 0.82874 0.90353 0.0
C8033 C 0.54452 0.80603 0.88346 0.0
C8034 C 0.55155 0.79765 0.88683 0.0
C8035 C 0.54353 0.80846 0.87222 0.0
C8036 C 0.5378 0.8184 0.86836 0.0
C8037 C 0.54143 0.82879 0.87162 0.0
C8038 C 0.53602 0.83817 0.86805 0.0
C8039 C 0.52706 0.83726 0.86108 0.0
C8040 C 0.52351 0.82698 0.85764 0.0
C8041 C 0.52887 0.81756 0.86124 0.0
H8042 H 0.52288 0.84453 0.8583 0.0
H8043 H 0.58851 0.76359 0.8926 0.0
H8044 H 0.60733 0.46126 0.34247 0.0
H8045 H 0.62043 0.4549 0.32905 0.0
H8046 H 0.5994 0.46598 0.30311 0.0
H8047 H 0.58614 0.47267 0.31674 0.0
H8048 H 0.60647 0.4432 0.3023 0.0
H8049 H 0.62226 0.47905 0.30609 0.0
H8050 H 0.62891 0.49471 0.31683 0.0
H8051 H 0.65312 0.47433 0.33187 0.0
H8052 H 0.64652 0.45851 0.32133 0.0
H8053 H 0.64387 0.4233 0.26454 0.0
H8054 H 0.63456 0.4386 0.2735 0.0
H8055 H 0.64941 0.42973 0.30414 0.0
H8056 H 0.65847 0.41424 0.29524 0.0
H8057 H 0.64554 0.45382 0.30037 0.0
H8058 H 0.62841 0.41875 0.30239 0.0
H8059 H 0.62229 0.40113 0.29483 0.0
H8060 H 0.60104 0.41792 0.27259 0.0
H8061 H 0.60724 0.43567 0.2799 0.0
C8062 C 0.60551 0.4625 0.33393 0.0
C8063 C 0.59569 0.46742 0.33063 0.0
C8064 C 0.61305 0.45892 0.32627 0.0
C8065 C 0.61092 0.46007 0.31511 0.0
C8066 C 0.6012 0.46513 0.31172 0.0
C8067 C 0.59367 0.46894 0.31946 0.0
C8068 C 0.61851 0.45502 0.30722 0.0
C8069 C 0.61491 0.44575 0.30157 0.0
C8070 C 0.62967 0.45801 0.3068 0.0
C8071 C 0.63388 0.46759 0.31292 0.0
C8072 C 0.62898 0.4779 0.31171 0.0
C8073 C 0.63274 0.4868 0.31777 0.0
C8074 C 0.64143 0.48551 0.32503 0.0
C8075 C 0.6464 0.47532 0.32623 0.0
C8076 C 0.64267 0.46639 0.32019 0.0
C8077 C 0.6455 0.42494 0.27308 0.0
C8078 C 0.65189 0.41774 0.27924 0.0
C8079 C 0.64019 0.43364 0.27818 0.0
C8080 C 0.64131 0.43524 0.28946 0.0
C8081 C 0.64855 0.42867 0.29541 0.0
C8082 C 0.65369 0.41984 0.29034 0.0
C8083 C 0.6334 0.44218 0.29533 0.0
C8084 C 0.63699 0.45158 0.30075 0.0
C8085 C 0.62229 0.43913 0.2959 0.0
C8086 C 0.61841 0.42852 0.29155 0.0
C8087 C 0.62253 0.41868 0.2958 0.0
C8088 C 0.61903 0.40868 0.29158 0.0
C8089 C 0.61131 0.40841 0.2832 0.0
C8090 C 0.60705 0.41815 0.27906 0.0
C8091 C 0.61056 0.42818 0.28323 0.0
H8092 H 0.60861 0.40065 0.27995 0.0
H8093 H 0.64431 0.49241 0.32973 0.0
H8094 H 0.2914 0.33671 0.58186 0.0
H8095 H 0.3013 0.34608 0.56726 0.0
H8096 H 0.27351 0.36701 0.56186 0.0
H8097 H 0.26355 0.35747 0.57636 0.0
H8098 H 0.28628 0.36344 0.54263 0.0
H8099 H 0.29073 0.37399 0.58055 0.0
H8100 H 0.29493 0.37057 0.59992 0.0
H8101 H 0.32716 0.35991 0.59123 0.0
H8102 H 0.32306 0.36304 0.57178 0.0
H8103 H 0.3191 0.41006 0.52526 0.0
H8104 H 0.30511 0.39812 0.53353 0.0
H8105 H 0.3305 0.37675 0.54535 0.0
H8106 H 0.34422 0.3886 0.53757 0.0
H8107 H 0.31741 0.38153 0.56113 0.0
H8108 H 0.31361 0.37026 0.52359 0.0
H8109 H 0.31002 0.37328 0.50403 0.0
H8110 H 0.27778 0.38477 0.51155 0.0
H8111 H 0.28125 0.38198 0.53118 0.0
C8112 C 0.28722 0.34291 0.57713 0.0
C8113 C 0.27673 0.34635 0.58008 0.0
C8114 C 0.29289 0.34831 0.56886 0.0
C8115 C 0.28819 0.35736 0.56364 0.0
C8116 C 0.27726 0.36004 0.56579 0.0
C8117 C 0.27157 0.35458 0.57403 0.0
C8118 C 0.2952 0.36516 0.55766 0.0
C8119 C 0.29305 0.36746 0.54665 0.0
C8120 C 0.30403 0.37039 0.56296 0.0
C8121 C 0.30653 0.36863 0.57469 0.0
C8122 C 0.29867 0.37083 0.58276 0.0
C8123 C 0.30104 0.36895 0.59376 0.0
C8124 C 0.3113 0.365 0.5968 0.0
C8125 C 0.31921 0.36295 0.58886 0.0
C8126 C 0.31686 0.36476 0.57784 0.0
C8127 C 0.3216 0.40277 0.52957 0.0
C8128 C 0.33271 0.40034 0.53095 0.0
C8129 C 0.31365 0.39595 0.53426 0.0
C8130 C 0.31678 0.38657 0.54012 0.0
C8131 C 0.32787 0.38399 0.54101 0.0
C8132 C 0.33572 0.39081 0.53656 0.0
C8133 C 0.30881 0.37956 0.54592 0.0
C8134 C 0.31067 0.37751 0.55703 0.0
C8135 C 0.29987 0.3745 0.54065 0.0
C8136 C 0.29773 0.37603 0.52886 0.0
C8137 C 0.30578 0.37351 0.52108 0.0
C8138 C 0.30377 0.37517 0.50998 0.0
C8139 C 0.29369 0.37925 0.50655 0.0
C8140 C 0.28559 0.38163 0.51422 0.0
C8141 C 0.28757 0.38001 0.52533 0.0
H8142 H 0.29214 0.38053 0.49796 0.0
H8143 H 0.31312 0.36356 0.60532 0.0
H8144 H 0.4037 0.04852 0.8386 0.0
H8145 H 0.3939 0.058 0.82407 0.0
H8146 H 0.38698 0.02717 0.80856 0.0
H8147 H 0.39706 0.01763 0.82307 0.0
H8148 H 0.38972 0.0467 0.79375 0.0
H8149 H 0.36987 0.03448 0.82613 0.0
H8150 H 0.36798 0.03308 0.84612 0.0
H8151 H 0.36722 0.06801 0.84868 0.0
H8152 H 0.36935 0.06962 0.82873 0.0
H8153 H 0.34205 0.06833 0.76779 0.0
H8154 H 0.35316 0.05561 0.77869 0.0
H8155 H 0.36105 0.08169 0.801 0.0
H8156 H 0.35016 0.09431 0.79017 0.0
H8157 H 0.35702 0.0626 0.8117 0.0
H8158 H 0.37844 0.07612 0.78213 0.0
H8159 H 0.38245 0.08007 0.76282 0.0
H8160 H 0.3821 0.04578 0.75557 0.0
H8161 H 0.37789 0.04165 0.77484 0.0
C8162 C 0.40051 0.04382 0.83181 0.0
C8163 C 0.40106 0.03239 0.83189 0.0
C8164 C 0.3949 0.04922 0.82355 0.0
C8165 C 0.38955 0.04324 0.8154 0.0
C8166 C 0.39106 0.0319 0.81481 0.0
C8167 C 0.39682 0.02647 0.82306 0.0
C8168 C 0.38097 0.04863 0.80886 0.0
C8169 C 0.38245 0.04996 0.7976 0.0
C8170 C 0.37166 0.05316 0.814 0.0
C8171 C 0.36983 0.05217 0.82594 0.0
C8172 C 0.36933 0.04186 0.83096 0.0
C8173 C 0.36824 0.04103 0.84228 0.0
C8174 C 0.3675 0.05045 0.84866 0.0
C8175 C 0.3678 0.06072 0.84373 0.0
C8176 C 0.36894 0.0616 0.83241 0.0
C8177 C 0.34602 0.07124 0.77512 0.0
C8178 C 0.34537 0.08228 0.7781 0.0
C8179 C 0.35237 0.06402 0.7813 0.0
C8180 C 0.35799 0.06776 0.79058 0.0
C8181 C 0.35679 0.07864 0.79387 0.0
C8182 C 0.35062 0.08585 0.78764 0.0
C8183 C 0.36572 0.06066 0.79655 0.0
C8184 C 0.36413 0.05907 0.80776 0.0
C8185 C 0.37505 0.05617 0.79142 0.0
C8186 C 0.3777 0.05858 0.77988 0.0
C8187 C 0.37912 0.06943 0.77639 0.0
C8188 C 0.38144 0.0717 0.76547 0.0
C8189 C 0.38249 0.06318 0.75797 0.0
C8190 C 0.38126 0.05237 0.76139 0.0
C8191 C 0.3789 0.05006 0.77231 0.0
H8192 H 0.38429 0.06496 0.74951 0.0
H8193 H 0.36668 0.0498 0.85743 0.0
H8194 H 0.73227 0.14659 0.07502 0.0
H8195 H 0.72252 0.13638 0.06077 0.0
H8196 H 0.69189 0.14871 0.07297 0.0
H8197 H 0.70159 0.15879 0.08718 0.0
H8198 H 0.69418 0.12638 0.07477 0.0
H8199 H 0.69835 0.15426 0.04776 0.0
H8200 H 0.70797 0.16737 0.03593 0.0
H8201 H 0.72614 0.14118 0.02138 0.0
H8202 H 0.71671 0.12791 0.03323 0.0
H8203 H 0.65381 0.10539 0.04082 0.0
H8204 H 0.66677 0.11615 0.05118 0.0
H8205 H 0.69345 0.1008 0.03406 0.0
H8206 H 0.68032 0.08998 0.02336 0.0
H8207 H 0.69521 0.12311 0.03447 0.0
H8208 H 0.68901 0.09503 0.06097 0.0
H8209 H 0.67814 0.08257 0.07245 0.0
H8210 H 0.66272 0.10995 0.08794 0.0
H8211 H 0.67338 0.12258 0.07647 0.0
C8212 C 0.72351 0.14755 0.07424 0.0
C8213 C 0.71762 0.15346 0.08208 0.0
C8214 C 0.71795 0.14168 0.06617 0.0
C8215 C 0.70649 0.14171 0.06593 0.0
C8216 C 0.70073 0.14856 0.07306 0.0
C8217 C 0.70626 0.15437 0.08111 0.0
C8218 C 0.70048 0.13321 0.05984 0.0
C8219 C 0.69432 0.12572 0.06594 0.0
C8220 C 0.70102 0.13213 0.04839 0.0
C8221 C 0.70695 0.14011 0.0415 0.0
C8222 C 0.70451 0.15131 0.04215 0.0
C8223 C 0.70989 0.15876 0.03541 0.0
C8224 C 0.7177 0.15511 0.02794 0.0
C8225 C 0.72012 0.144 0.02719 0.0
C8226 C 0.71475 0.1365 0.03392 0.0
C8227 C 0.66244 0.10419 0.03929 0.0
C8228 C 0.66606 0.09689 0.03123 0.0
C8229 C 0.66985 0.11031 0.04529 0.0
C8230 C 0.68108 0.1092 0.04347 0.0
C8231 C 0.6848 0.10173 0.0356 0.0
C8232 C 0.67732 0.09554 0.02954 0.0
C8233 C 0.68871 0.11644 0.04938 0.0
C8234 C 0.69521 0.12366 0.0433 0.0
C8235 C 0.68841 0.11736 0.06088 0.0
C8236 C 0.68197 0.10976 0.06781 0.0
C8237 C 0.68325 0.0984 0.06677 0.0
C8238 C 0.67713 0.0913 0.07329 0.0
C8239 C 0.66974 0.09546 0.08091 0.0
C8240 C 0.66846 0.10673 0.08204 0.0
C8241 C 0.67455 0.11387 0.07554 0.0
H8242 H 0.66501 0.08995 0.08594 0.0
H8243 H 0.72184 0.1609 0.0227 0.0
H8244 H 0.95621 0.32892 0.08435 0.0
H8245 H 0.94666 0.31418 0.09387 0.0
H8246 H 0.97407 0.31053 0.11566 0.0
H8247 H 0.98369 0.32508 0.10595 0.0
H8248 H 0.96253 0.2913 0.11378 0.0
H8249 H 0.95576 0.32928 0.12093 0.0
H8250 H 0.95088 0.34823 0.11629 0.0
H8251 H 0.9193 0.33763 0.10544 0.0
H8252 H 0.92409 0.31856 0.10978 0.0
H8253 H 0.92995 0.27769 0.16172 0.0
H8254 H 0.9435 0.28517 0.14883 0.0
H8255 H 0.91771 0.29191 0.1258 0.0
H8256 H 0.90434 0.28492 0.13863 0.0
H8257 H 0.9296 0.30932 0.12896 0.0
H8258 H 0.93677 0.27082 0.12261 0.0
H8259 H 0.94203 0.25231 0.1285 0.0
H8260 H 0.97305 0.26441 0.13942 0.0
H8261 H 0.9679 0.28303 0.13375 0.0
C8262 C 0.96043 0.32448 0.09073 0.0
C8263 C 0.97067 0.328 0.09441 0.0
C8264 C 0.95495 0.31615 0.09624 0.0
C8265 C 0.95957 0.31148 0.10564 0.0
C8266 C 0.97036 0.31405 0.10845 0.0
C8267 C 0.97587 0.32233 0.10288 0.0
C8268 C 0.95254 0.30576 0.11363 0.0
C8269 C 0.95533 0.29521 0.11712 0.0
C8270 C 0.94325 0.31098 0.11812 0.0
C8271 C 0.94034 0.32246 0.11554 0.0
C8272 C 0.94782 0.33097 0.11745 0.0
C8273 C 0.94506 0.34174 0.11488 0.0
C8274 C 0.9348 0.34413 0.11054 0.0
C8275 C 0.92726 0.33576 0.10877 0.0
C8276 C 0.93 0.32497 0.11127 0.0
C8277 C 0.92728 0.28066 0.15384 0.0
C8278 C 0.91614 0.28087 0.15118 0.0
C8279 C 0.93498 0.28489 0.14649 0.0
C8280 C 0.93159 0.28912 0.13636 0.0
C8281 C 0.92051 0.2888 0.13359 0.0
C8282 C 0.91288 0.2848 0.14094 0.0
C8283 C 0.93926 0.29463 0.1288 0.0
C8284 C 0.93671 0.3053 0.12553 0.0
C8285 C 0.94876 0.28955 0.12464 0.0
C8286 C 0.95191 0.27832 0.12784 0.0
C8287 C 0.94469 0.26954 0.12632 0.0
C8288 C 0.94765 0.25903 0.12962 0.0
C8289 C 0.95786 0.25719 0.13436 0.0
C8290 C 0.96514 0.26585 0.13577 0.0
C8291 C 0.96221 0.27638 0.13251 0.0
H8292 H 0.96013 0.24905 0.13691 0.0
H8293 H 0.93268 0.35248 0.10857 0.0
H8294 H 0.91624 0.79654 0.66167 0.0
H8295 H 0.93065 0.80607 0.65165 0.0
H8296 H 0.9368 0.77695 0.63283 0.0
H8297 H 0.92263 0.76733 0.64314 0.0
H8298 H 0.95519 0.78903 0.63465 0.0
H8299 H 0.91793 0.79472 0.62459 0.0
H8300 H 0.89858 0.79947 0.62743 0.0
H8301 H 0.90775 0.83197 0.63678 0.0
H8302 H 0.92717 0.82734 0.63422 0.0
H8303 H 0.97538 0.82016 0.58894 0.0
H8304 H 0.96446 0.80723 0.59973 0.0
H8305 H 0.95559 0.8332 0.62181 0.0
H8306 H 0.96614 0.84605 0.61107 0.0
H8307 H 0.93827 0.82115 0.6167 0.0
H8308 H 0.97602 0.81437 0.62771 0.0
H8309 H 0.99507 0.80937 0.62353 0.0
H8310 H 0.98437 0.77854 0.61076 0.0
H8311 H 0.96524 0.78343 0.61473 0.0
C8312 C 0.92111 0.79203 0.65582 0.0
C8313 C 0.91849 0.78122 0.65321 0.0
C8314 C 0.92922 0.7975 0.65 0.0
C8315 C 0.93455 0.79229 0.64129 0.0
C8316 C 0.93274 0.78112 0.63948 0.0
C8317 C 0.92472 0.77561 0.64541 0.0
C8318 C 0.94065 0.79881 0.63315 0.0
C8319 C 0.95147 0.796 0.63067 0.0
C8320 C 0.93574 0.80782 0.62782 0.0
C8321 C 0.92403 0.81064 0.62932 0.0
C8322 C 0.91583 0.80285 0.62734 0.0
C8323 C 0.90485 0.80552 0.6289 0.0
C8324 C 0.90194 0.81601 0.6323 0.0
C8325 C 0.91001 0.82384 0.63416 0.0
C8326 C 0.92101 0.8212 0.63266 0.0
C8327 C 0.97109 0.82306 0.5961 0.0
C8328 C 0.97165 0.83408 0.59919 0.0
C8329 C 0.96488 0.81569 0.60225 0.0
C8330 C 0.95928 0.81926 0.61162 0.0
C8331 C 0.9598 0.83027 0.6146 0.0
C8332 C 0.9659 0.8376 0.60846 0.0
C8333 C 0.95294 0.81166 0.61855 0.0
C8334 C 0.94199 0.81419 0.6207 0.0
C8335 C 0.9577 0.80236 0.62346 0.0
C8336 C 0.96921 0.79929 0.62144 0.0
C8337 C 0.97774 0.80654 0.62399 0.0
C8338 C 0.98854 0.80373 0.62165 0.0
C8339 C 0.99093 0.79365 0.61686 0.0
C8340 C 0.98251 0.78634 0.61446 0.0
C8341 C 0.97169 0.78912 0.61676 0.0
H8342 H 0.99929 0.79151 0.61504 0.0
H8343 H 0.89344 0.81807 0.63347 0.0
H8344 H 0.60683 0.98326 0.82714 0.0
H8345 H 0.61581 0.97374 0.81212 0.0
H8346 H 0.59348 0.94675 0.81589 0.0
H8347 H 0.58466 0.95627 0.83114 0.0
H8348 H 0.6134 0.94003 0.81808 0.0
H8349 H 0.59539 0.96136 0.79126 0.0
H8350 H 0.58835 0.97784 0.78212 0.0
H8351 H 0.621 0.99009 0.77866 0.0
H8352 H 0.62822 0.97373 0.7879 0.0
H8353 H 0.63943 0.90947 0.77674 0.0
H8354 H 0.62553 0.92148 0.78462 0.0
H8355 H 0.6503 0.94538 0.79197 0.0
H8356 H 0.66433 0.9332 0.78422 0.0
H8357 H 0.62796 0.9531 0.78264 0.0
H8358 H 0.64524 0.93228 0.81166 0.0
H8359 H 0.65187 0.91537 0.82032 0.0
H8360 H 0.61959 0.90182 0.819 0.0
H8361 H 0.61279 0.91861 0.8102 0.0
C8362 C 0.60352 0.97554 0.82437 0.0
C8363 C 0.59498 0.97053 0.8301 0.0
C8364 C 0.60865 0.97008 0.8158 0.0
C8365 C 0.60532 0.95952 0.81285 0.0
C8366 C 0.59617 0.9549 0.81801 0.0
C8367 C 0.59106 0.96037 0.82663 0.0
C8368 C 0.6125 0.9527 0.80587 0.0
C8369 C 0.61635 0.94281 0.81022 0.0
C8370 C 0.61664 0.95642 0.79574 0.0
C8371 C 0.61233 0.96635 0.79035 0.0
C8372 C 0.60106 0.96761 0.78864 0.0
C8373 C 0.59704 0.97692 0.78342 0.0
C8374 C 0.60422 0.98501 0.77983 0.0
C8375 C 0.61544 0.98381 0.78145 0.0
C8376 C 0.61951 0.97452 0.78666 0.0
C8377 C 0.64183 0.91742 0.77978 0.0
C8378 C 0.65284 0.92055 0.77981 0.0
C8379 C 0.63393 0.92422 0.78429 0.0
C8380 C 0.63694 0.93426 0.78886 0.0
C8381 C 0.64787 0.93767 0.78838 0.0
C8382 C 0.65583 0.93078 0.78395 0.0
C8383 C 0.62877 0.94064 0.79495 0.0
C8384 C 0.62482 0.95037 0.79045 0.0
C8385 C 0.62446 0.93677 0.80491 0.0
C8386 C 0.62854 0.92664 0.81014 0.0
C8387 C 0.63958 0.92564 0.8131 0.0
C8388 C 0.64336 0.91609 0.81807 0.0
C8389 C 0.63616 0.90751 0.82018 0.0
C8390 C 0.62516 0.90847 0.81734 0.0
C8391 C 0.62134 0.918 0.81237 0.0
H8392 H 0.6391 0.90013 0.82403 0.0
H8393 H 0.6011 0.99221 0.77578 0.0
H8394 H 0.26623 0.85139 0.07336 0.0
H8395 H 0.27573 0.8618 0.05909 0.0
H8396 H 0.3067 0.8517 0.0724 0.0
H8397 H 0.29726 0.84139 0.08658 0.0
H8398 H 0.3017 0.87433 0.07414 0.0
H8399 H 0.30304 0.84547 0.04801 0.0
H8400 H 0.29605 0.83102 0.0359 0.0
H8401 H 0.27664 0.85457 0.0187 0.0
H8402 H 0.28341 0.86916 0.03082 0.0
H8403 H 0.34285 0.89819 0.04307 0.0
H8404 H 0.33 0.88691 0.05299 0.0
H8405 H 0.30383 0.89834 0.0324 0.0
H8406 H 0.31691 0.90958 0.02209 0.0
H8407 H 0.30413 0.87632 0.03382 0.0
H8408 H 0.30522 0.90566 0.05989 0.0
H8409 H 0.31387 0.91932 0.07188 0.0
H8410 H 0.33034 0.89382 0.08937 0.0
H8411 H 0.32189 0.88002 0.07743 0.0
C8412 C 0.27504 0.85092 0.07282 0.0
C8413 C 0.28106 0.84565 0.081 0.0
C8414 C 0.28046 0.8569 0.06473 0.0
C8415 C 0.29189 0.8576 0.06482 0.0
C8416 C 0.29786 0.85126 0.07223 0.0
C8417 C 0.29248 0.84533 0.08028 0.0
C8418 C 0.2975 0.86651 0.05897 0.0
C8419 C 0.3023 0.87474 0.06532 0.0
C8420 C 0.29795 0.86717 0.0475 0.0
C8421 C 0.29359 0.85838 0.04044 0.0
C8422 C 0.29715 0.84755 0.04176 0.0
C8423 C 0.29327 0.83933 0.03486 0.0
C8424 C 0.28587 0.84186 0.02657 0.0
C8425 C 0.28234 0.85262 0.02515 0.0
C8426 C 0.2862 0.86086 0.03203 0.0
C8427 C 0.33434 0.89844 0.04071 0.0
C8428 C 0.33088 0.90469 0.03174 0.0
C8429 C 0.32697 0.89204 0.04647 0.0
C8430 C 0.31593 0.89186 0.04351 0.0
C8431 C 0.31232 0.89842 0.03482 0.0
C8432 C 0.31976 0.90486 0.02899 0.0
C8433 C 0.30852 0.88406 0.049 0.0
C8434 C 0.30334 0.87604 0.04263 0.0
C8435 C 0.30784 0.88349 0.06051 0.0
C8436 C 0.31293 0.8918 0.06772 0.0
C8437 C 0.31073 0.90297 0.06625 0.0
C8438 C 0.31559 0.91074 0.07305 0.0
C8439 C 0.32265 0.90744 0.08138 0.0
C8440 C 0.32486 0.89637 0.08293 0.0
C8441 C 0.32001 0.88857 0.07616 0.0
H8442 H 0.32641 0.91347 0.08663 0.0
H8443 H 0.28289 0.8355 0.02122 0.0
H8444 H 0.33989 0.57042 0.27339 0.0
H8445 H 0.35116 0.55681 0.28303 0.0
H8446 H 0.37195 0.58256 0.29502 0.0
H8447 H 0.36094 0.596 0.28563 0.0
H8448 H 0.3833 0.56633 0.28475 0.0
H8449 H 0.35631 0.57153 0.312 0.0
H8450 H 0.33824 0.57205 0.32079 0.0
H8451 H 0.33423 0.53773 0.31499 0.0
H8452 H 0.35222 0.53704 0.30598 0.0
H8453 H 0.4099 0.54833 0.33316 0.0
H8454 H 0.40057 0.55681 0.31769 0.0
H8455 H 0.38757 0.52546 0.30834 0.0
H8456 H 0.39716 0.51692 0.32371 0.0
H8457 H 0.37198 0.54175 0.31479 0.0
H8458 H 0.40257 0.53814 0.29006 0.0
H8459 H 0.42176 0.54006 0.28432 0.0
H8460 H 0.41994 0.57472 0.28914 0.0
H8461 H 0.40077 0.573 0.29501 0.0
C8462 C 0.34685 0.57312 0.27812 0.0
C8463 C 0.34963 0.58423 0.27862 0.0
C8464 C 0.35322 0.56538 0.28364 0.0
C8465 C 0.36241 0.56873 0.28963 0.0
C8466 C 0.36495 0.57983 0.29035 0.0
C8467 C 0.35863 0.58749 0.28495 0.0
C8468 C 0.36989 0.5608 0.29469 0.0
C8469 C 0.38082 0.5609 0.29129 0.0
C8470 C 0.3666 0.55378 0.3032 0.0
C8471 C 0.35552 0.55428 0.30808 0.0
C8472 C 0.35149 0.56413 0.31239 0.0
C8473 C 0.34128 0.56445 0.31747 0.0
C8474 C 0.33506 0.55494 0.31839 0.0
C8475 C 0.33903 0.5451 0.31422 0.0
C8476 C 0.34923 0.54474 0.30911 0.0
C8477 C 0.40553 0.5432 0.32744 0.0
C8478 C 0.40429 0.53201 0.32946 0.0
C8479 C 0.40018 0.54803 0.31864 0.0
C8480 C 0.39338 0.54173 0.31192 0.0
C8481 C 0.39286 0.5304 0.31342 0.0
C8482 C 0.39839 0.52553 0.32211 0.0
C8483 C 0.38539 0.5473 0.30486 0.0
C8484 C 0.37437 0.54687 0.30797 0.0
C8485 C 0.38867 0.55439 0.29641 0.0
C8486 C 0.40025 0.55542 0.29302 0.0
C8487 C 0.40629 0.54615 0.28998 0.0
C8488 C 0.41716 0.54721 0.28668 0.0
C8489 C 0.42207 0.5575 0.28637 0.0
C8490 C 0.41612 0.56676 0.28937 0.0
C8491 C 0.40525 0.56574 0.29266 0.0
H8492 H 0.43048 0.5583 0.2838 0.0
H8493 H 0.32718 0.55519 0.32238 0.0
H8494 H 0.71598 0.63206 0.5925 0.0
H8495 H 0.7084 0.6227 0.57705 0.0
H8496 H 0.71284 0.65136 0.55712 0.0
H8497 H 0.72036 0.66123 0.57307 0.0
H8498 H 0.6916 0.64127 0.556 0.0
H8499 H 0.72922 0.62934 0.55227 0.0
H8500 H 0.74646 0.62276 0.56033 0.0
H8501 H 0.7301 0.59429 0.57256 0.0
H8502 H 0.71276 0.60072 0.56462 0.0
H8503 H 0.67002 0.60999 0.51408 0.0
H8504 H 0.68517 0.61951 0.52297 0.0
H8505 H 0.68373 0.59678 0.54979 0.0
H8506 H 0.66846 0.58728 0.5409 0.0
H8507 H 0.70571 0.60501 0.54456 0.0
H8508 H 0.66984 0.61643 0.55405 0.0
H8509 H 0.65076 0.62155 0.55029 0.0
H8510 H 0.66169 0.64931 0.53192 0.0
H8511 H 0.68089 0.64421 0.53542 0.0
C8512 C 0.71543 0.63651 0.58488 0.0
C8513 C 0.71873 0.64748 0.58407 0.0
C8514 C 0.71117 0.63103 0.57598 0.0
C8515 C 0.71026 0.63623 0.56589 0.0
C8516 C 0.71361 0.64718 0.56486 0.0
C8517 C 0.71793 0.65278 0.57392 0.0
C8518 C 0.70514 0.63011 0.55682 0.0
C8519 C 0.69488 0.63356 0.55314 0.0
C8520 C 0.70914 0.61971 0.55364 0.0
C8521 C 0.71971 0.61549 0.55779 0.0
C8522 C 0.72932 0.62165 0.55663 0.0
C8523 C 0.7391 0.61796 0.5612 0.0
C8524 C 0.73938 0.60811 0.56694 0.0
C8525 C 0.72989 0.60189 0.56806 0.0
C8526 C 0.72009 0.60553 0.56349 0.0
C8527 C 0.67329 0.60675 0.52163 0.0
C8528 C 0.66825 0.59788 0.52679 0.0
C8529 C 0.68189 0.6122 0.52671 0.0
C8530 C 0.68549 0.60887 0.53704 0.0
C8531 C 0.68111 0.59939 0.54177 0.0
C8532 C 0.67243 0.59397 0.5367 0.0
C8533 C 0.69231 0.61631 0.54363 0.0
C8534 C 0.7027 0.61298 0.54698 0.0
C8535 C 0.68827 0.62664 0.54689 0.0
C8536 C 0.67679 0.62985 0.54485 0.0
C8537 C 0.66818 0.62356 0.54911 0.0
C8538 C 0.65735 0.62647 0.54704 0.0
C8539 C 0.65502 0.63573 0.54083 0.0
C8540 C 0.66352 0.64212 0.5367 0.0
C8541 C 0.67438 0.63923 0.53872 0.0
H8542 H 0.64662 0.63797 0.53924 0.0
H8543 H 0.74694 0.6053 0.57053 0.0
H8544 H 0.95408 0.48397 0.1395 0.0
H8545 H 0.97388 0.48442 0.13956 0.0
H8546 H 0.97327 0.51353 0.15938 0.0
H8547 H 0.95326 0.51342 0.15889 0.0
H8548 H 0.98756 0.51601 0.1443 0.0
H8549 H 0.98107 0.48716 0.16976 0.0
H8550 H 0.9735 0.46997 0.17697 0.0
H8551 H 0.98805 0.45222 0.1505 0.0
H8552 H 0.99566 0.46932 0.14309 0.0
H8553 H 0.04478 0.51241 0.15544 0.0
H8554 H 0.02497 0.51217 0.15781 0.0
H8555 H 0.02224 0.48739 0.13297 0.0
H8556 H 0.04205 0.48762 0.13048 0.0
H8557 H 0.00993 0.48311 0.15176 0.0
H8558 H 0.01704 0.51262 0.12696 0.0
H8559 H 0.02522 0.52992 0.12088 0.0
H8560 H 0.00943 0.54689 0.14715 0.0
H8561 H 0.00149 0.52959 0.15367 0.0
C8562 C 0.95812 0.49042 0.14399 0.0
C8563 C 0.95208 0.49864 0.14925 0.0
C8564 C 0.96949 0.49062 0.14407 0.0
C8565 C 0.97513 0.49887 0.14967 0.0
C8566 C 0.96912 0.50705 0.15504 0.0
C8567 C 0.95769 0.50697 0.15479 0.0
C8568 C 0.98726 0.49918 0.14942 0.0
C8569 C 0.99246 0.50887 0.14616 0.0
C8570 C 0.99368 0.4898 0.15158 0.0
C8571 C 0.98889 0.47954 0.15585 0.0
C8572 C 0.98258 0.47961 0.16543 0.0
C8573 C 0.97832 0.46987 0.16957 0.0
C8574 C 0.98033 0.46001 0.16422 0.0
C8575 C 0.98655 0.45986 0.15466 0.0
C8576 C 0.99085 0.46957 0.1505 0.0
C8577 C 0.03998 0.50683 0.15054 0.0
C8578 C 0.04498 0.50002 0.14277 0.0
C8579 C 0.02866 0.50676 0.15187 0.0
C8580 C 0.02216 0.49984 0.14549 0.0
C8581 C 0.02714 0.49281 0.13794 0.0
C8582 C 0.03845 0.49296 0.13653 0.0
C8583 C 0.01015 0.4999 0.14666 0.0
C8584 C 0.005 0.49026 0.15004 0.0
C8585 C 0.00382 0.50936 0.14474 0.0
C8586 C 0.00876 0.51975 0.14089 0.0
C8587 C 0.01543 0.52 0.13155 0.0
C8588 C 0.02 0.52983 0.128 0.0
C8589 C 0.01781 0.53952 0.13359 0.0
C8590 C 0.01112 0.53938 0.14282 0.0
C8591 C 0.00661 0.52955 0.14647 0.0
H8592 H 0.02125 0.54714 0.13077 0.0
H8593 H 0.97709 0.45248 0.16749 0.0
H8594 H 0.73275 0.29451 0.39429 0.0
H8595 H 0.73282 0.2747 0.39525 0.0
H8596 H 0.76728 0.27507 0.4025 0.0
H8597 H 0.76736 0.29502 0.40099 0.0
H8598 H 0.7638 0.26041 0.38814 0.0
H8599 H 0.74649 0.26837 0.42219 0.0
H8600 H 0.73318 0.27693 0.43462 0.0
H8601 H 0.70687 0.2615 0.41738 0.0
H8602 H 0.72002 0.25294 0.40477 0.0
H8603 H 0.76452 0.20361 0.40077 0.0
H8604 H 0.76496 0.22342 0.40321 0.0
H8605 H 0.73291 0.22596 0.38894 0.0
H8606 H 0.73243 0.20614 0.38635 0.0
H8607 H 0.73591 0.23882 0.40801 0.0
H8608 H 0.75373 0.23131 0.37375 0.0
H8609 H 0.76733 0.22255 0.36179 0.0
H8610 H 0.79327 0.23713 0.38026 0.0
H8611 H 0.77982 0.24581 0.39249 0.0
C8612 C 0.74033 0.29041 0.39625 0.0
C8613 C 0.75006 0.29635 0.3976 0.0
C8614 C 0.74034 0.27904 0.39685 0.0
C8615 C 0.75002 0.27333 0.39914 0.0
C8616 C 0.7597 0.27927 0.40075 0.0
C8617 C 0.75974 0.29067 0.39993 0.0
C8618 C 0.7501 0.26117 0.39918 0.0
C8619 C 0.75783 0.25571 0.39269 0.0
C8620 C 0.74218 0.25496 0.40489 0.0
C8621 C 0.73424 0.26008 0.41249 0.0
C8622 C 0.73786 0.26686 0.42101 0.0
C8623 C 0.73035 0.2717 0.4281 0.0
C8624 C 0.71919 0.26978 0.42678 0.0
C8625 C 0.71552 0.26299 0.41839 0.0
C8626 C 0.723 0.25812 0.41128 0.0
C8627 C 0.7575 0.20836 0.39826 0.0
C8628 C 0.74844 0.20331 0.39334 0.0
C8629 C 0.7578 0.21968 0.39961 0.0
C8630 C 0.74901 0.22614 0.39616 0.0
C8631 C 0.73978 0.2211 0.39163 0.0
C8632 C 0.73953 0.20979 0.39015 0.0
C8633 C 0.74956 0.23819 0.397 0.0
C8634 C 0.74194 0.24358 0.40361 0.0
C8635 C 0.75765 0.24431 0.39149 0.0
C8636 C 0.76575 0.23909 0.38413 0.0
C8637 C 0.76233 0.23255 0.37534 0.0
C8638 C 0.77002 0.22761 0.3685 0.0
C8639 C 0.78116 0.22924 0.37029 0.0
C8640 C 0.78464 0.23584 0.37891 0.0
C8641 C 0.77698 0.24077 0.3858 0.0
H8642 H 0.7871 0.22542 0.36499 0.0
H8643 H 0.71338 0.27354 0.43227 0.0
H8644 H 0.95437 0.98194 0.64818 0.0
H8645 H 0.97414 0.98258 0.64969 0.0
H8646 H 0.97335 0.01765 0.64657 0.0
H8647 H 0.95346 0.01704 0.64466 0.0
H8648 H 0.98828 0.00963 0.63375 0.0
H8649 H 0.97935 0.0044 0.67139 0.0
H8650 H 0.97048 0.99571 0.68722 0.0
H8651 H 0.98682 0.96555 0.68005 0.0
H8652 H 0.99568 0.97403 0.66409 0.0
H8653 H 0.04389 0.01708 0.64772 0.0
H8654 H 0.02403 0.01704 0.64938 0.0
H8655 H 0.02363 0.98209 0.64531 0.0
H8656 H 0.04356 0.98204 0.64348 0.0
H8657 H 0.00954 0.99052 0.66242 0.0
H8658 H 0.01772 0.99569 0.62438 0.0
H8659 H 0.02665 0.00445 0.60862 0.0
H8660 H 0.01165 0.03502 0.61689 0.0
H8661 H 0.00275 0.02647 0.6328 0.0
C8662 C 0.95836 0.98982 0.64794 0.0
C8663 C 0.95233 -0.00055 0.6463 0.0
C8664 C 0.96969 0.99017 0.64887 0.0
C8665 C 0.97525 0.00017 0.6484 0.0
C8666 C 0.96923 0.00984 0.64698 0.0
C8667 C 0.95787 0.00948 0.64592 0.0
C8668 C 0.98735 0.00043 0.64872 0.0
C8669 C 0.99291 0.00563 0.64015 0.0
C8670 C 0.99343 0.99495 0.65689 0.0
C8671 C 0.98811 0.98983 0.66649 0.0
C8672 C 0.98099 0.99589 0.67314 0.0
C8673 C 0.97597 0.99101 0.68215 0.0
C8674 C 0.97807 0.98008 0.68463 0.0
C8675 C 0.9852 0.97402 0.67812 0.0
C8676 C 0.99023 0.97886 0.6691 0.0
C8677 C 0.03961 0.00935 0.64732 0.0
C8678 C 0.04529 -0.00045 0.64543 0.0
C8679 C 0.02826 0.00936 0.64822 0.0
C8680 C 0.0224 -0.00042 0.64738 0.0
C8681 C 0.02805 0.98972 0.64597 0.0
C8682 C 0.03941 0.98971 0.64491 0.0
C8683 C 0.01034 -0.00026 0.64751 0.0
C8684 C 0.00485 0.99459 0.65611 0.0
C8685 C 0.00431 0.0053 0.6394 0.0
C8686 C 0.00968 0.01047 0.62986 0.0
C8687 C 0.01642 0.0043 0.62291 0.0
C8688 C 0.02145 0.00923 0.61393 0.0
C8689 C 0.01974 0.02029 0.61178 0.0
C8690 C 0.01298 0.02645 0.61858 0.0
C8691 C 0.00793 0.02157 0.62758 0.0
H8692 H 0.02364 0.02409 0.60482 0.0
H8693 H 0.97418 0.97631 0.6916 0.0
H8694 H 0.23699 0.29282 0.89014 0.0
H8695 H 0.23853 0.27305 0.89045 0.0
H8696 H 0.26777 0.27549 0.90991 0.0
H8697 H 0.26657 0.2955 0.90912 0.0
H8698 H 0.27031 0.26013 0.89521 0.0
H8699 H 0.24195 0.26874 0.92066 0.0
H8700 H 0.2248 0.27704 0.92714 0.0
H8701 H 0.20683 0.25872 0.90331 0.0
H8702 H 0.2238 0.25076 0.89637 0.0
H8703 H 0.26631 0.2022 0.90527 0.0
H8704 H 0.2669 0.22194 0.90847 0.0
H8705 H 0.24053 0.22645 0.88563 0.0
H8706 H 0.23988 0.20681 0.88237 0.0
H8707 H 0.2378 0.23799 0.90479 0.0
H8708 H 0.266 0.23139 0.87796 0.0
H8709 H 0.28283 0.22264 0.87123 0.0
H8710 H 0.30087 0.23642 0.89791 0.0
H8711 H 0.28409 0.24511 0.90491 0.0
C8712 C 0.24372 0.28918 0.89458 0.0
C8713 C 0.25159 0.29572 0.89975 0.0
C8714 C 0.24458 0.27784 0.89476 0.0
C8715 C 0.25311 0.27273 0.90044 0.0
C8716 C 0.26107 0.27924 0.90554 0.0
C8717 C 0.26035 0.29065 0.90514 0.0
C8718 C 0.25366 0.2606 0.90091 0.0
C8719 C 0.26326 0.2553 0.89751 0.0
C8720 C 0.24444 0.25424 0.90379 0.0
C8721 C 0.23419 0.25919 0.90795 0.0
C8722 C 0.23434 0.2666 0.91671 0.0
C8723 C 0.22463 0.27129 0.92044 0.0
C8724 C 0.2147 0.26851 0.91559 0.0
C8725 C 0.21448 0.26102 0.90699 0.0
C8726 C 0.22415 0.25642 0.90314 0.0
C8727 C 0.26057 0.20739 0.90102 0.0
C8728 C 0.25304 0.20294 0.89357 0.0
C8729 C 0.26097 0.21866 0.9028 0.0
C8730 C 0.25383 0.22565 0.89721 0.0
C8731 C 0.24613 0.2212 0.89001 0.0
C8732 C 0.24577 0.20996 0.88816 0.0
C8733 C 0.25426 0.23763 0.8988 0.0
C8734 C 0.24487 0.24287 0.90265 0.0
C8735 C 0.26365 0.24388 0.89633 0.0
C8736 C 0.27376 0.23879 0.89204 0.0
C8737 C 0.27354 0.23248 0.88245 0.0
C8738 C 0.28307 0.22754 0.87858 0.0
C8739 C 0.29291 0.22894 0.88416 0.0
C8740 C 0.29324 0.23532 0.89361 0.0
C8741 C 0.28372 0.24026 0.89753 0.0
H8742 H 0.30028 0.2251 0.88116 0.0
H8743 H 0.20719 0.27211 0.91852 0.0
H8744 H 0.04623 0.51808 0.85405 0.0
H8745 H 0.02635 0.51824 0.85215 0.0
H8746 H 0.0264 0.48321 0.84844 0.0
H8747 H 0.04622 0.48307 0.84978 0.0
H8748 H 0.01165 0.49072 0.83604 0.0
H8749 H 0.02077 0.49649 0.87342 0.0
H8750 H 0.02961 0.50524 0.88923 0.0
H8751 H 0.0131 0.5353 0.88208 0.0
H8752 H 0.00427 0.52676 0.86612 0.0
H8753 H 0.95638 0.48239 0.85479 0.0
H8754 H 0.97634 0.48242 0.85325 0.0
H8755 H 0.97596 0.51725 0.84828 0.0
H8756 H 0.9561 0.51731 0.84969 0.0
H8757 H 0.99057 0.50974 0.86489 0.0
H8758 H 0.98089 0.50203 0.82725 0.0
H8759 H 0.97153 0.49144 0.81293 0.0
H8760 H 0.98874 0.46255 0.82276 0.0
H8761 H 0.99811 0.47295 0.83723 0.0
C8762 C 0.042 0.51044 0.85267 0.0
C8763 C 0.04779 0.50056 0.85214 0.0
C8764 C 0.03063 0.51052 0.85166 0.0
C8765 C 0.02482 0.5007 0.85043 0.0
C8766 C 0.03065 0.49089 0.84942 0.0
C8767 C 0.04201 0.49083 0.8502 0.0
C8768 C 0.01269 0.50053 0.85063 0.0
C8769 C 0.00708 0.49481 0.84242 0.0
C8770 C 0.00664 0.50584 0.85893 0.0
C8771 C 0.01196 0.51102 0.8685 0.0
C8772 C 0.01909 0.50499 0.87517 0.0
C8773 C 0.02409 0.50991 0.88416 0.0
C8774 C 0.02194 0.52083 0.88664 0.0
C8775 C 0.01477 0.52685 0.88013 0.0
C8776 C 0.00977 0.52197 0.87111 0.0
C8777 C 0.96054 0.49003 0.85326 0.0
C8778 C 0.95466 0.49984 0.85237 0.0
C8779 C 0.97193 0.49003 0.85237 0.0
C8780 C 0.97758 0.49984 0.85065 0.0
C8781 C 0.97173 0.50961 0.84963 0.0
C8782 C 0.96037 0.5096 0.85039 0.0
C8783 C 0.98964 0.50005 0.85029 0.0
C8784 C 0.99521 0.50573 0.85851 0.0
C8785 C 0.99563 0.49445 0.84219 0.0
C8786 C 0.99013 0.48825 0.83337 0.0
C8787 C 0.98263 0.49341 0.8264 0.0
C8788 C 0.97733 0.48744 0.81825 0.0
C8789 C 0.97952 0.47633 0.81695 0.0
C8790 C 0.98705 0.47116 0.82378 0.0
C8791 C 0.99237 0.47709 0.83194 0.0
H8792 H 0.9754 0.47172 0.81064 0.0
H8793 H 0.02582 0.52462 0.89361 0.0
H8794 H 0.73581 0.29333 0.11537 0.0
H8795 H 0.73551 0.27357 0.11282 0.0
H8796 H 0.76235 0.27598 0.09017 0.0
H8797 H 0.76259 0.29579 0.09253 0.0
H8798 H 0.74774 0.26097 0.08341 0.0
H8799 H 0.76712 0.26891 0.11622 0.0
H8800 H 0.77022 0.27726 0.13425 0.0
H8801 H 0.74258 0.26002 0.14717 0.0
H8802 H 0.73922 0.25169 0.12915 0.0
H8803 H 0.76414 0.2042 0.0918 0.0
H8804 H 0.76453 0.22426 0.09123 0.0
H8805 H 0.73316 0.22538 0.10711 0.0
H8806 H 0.73254 0.2055 0.10748 0.0
H8807 H 0.75136 0.23845 0.11688 0.0
H8808 H 0.73185 0.23126 0.08325 0.0
H8809 H 0.72962 0.22266 0.06521 0.0
H8810 H 0.75894 0.23821 0.05398 0.0
H8811 H 0.76143 0.24679 0.07203 0.0
C8812 C 0.74156 0.28969 0.10975 0.0
C8813 C 0.74929 0.29613 0.10424 0.0
C8814 C 0.74141 0.27838 0.10833 0.0
C8815 C 0.74905 0.27329 0.10147 0.0
C8816 C 0.75642 0.27974 0.09555 0.0
C8817 C 0.75655 0.29106 0.09692 0.0
C8818 C 0.74965 0.26122 0.1009 0.0
C8819 C 0.74868 0.25606 0.09072 0.0
C8820 C 0.75085 0.2548 0.11043 0.0
C8821 C 0.75286 0.25976 0.1213 0.0
C8822 C 0.76165 0.26697 0.12288 0.0
C8823 C 0.76346 0.27168 0.1331 0.0
C8824 C 0.75658 0.26919 0.14184 0.0
C8825 C 0.74789 0.26195 0.14038 0.0
C8826 C 0.74604 0.25722 0.13017 0.0
C8827 C 0.75728 0.20873 0.09505 0.0
C8828 C 0.74831 0.20327 0.09966 0.0
C8829 C 0.75752 0.22016 0.09472 0.0
C8830 C 0.74888 0.22623 0.09916 0.0
C8831 C 0.7399 0.2208 0.10366 0.0
C8832 C 0.73955 0.20944 0.10381 0.0
C8833 C 0.74926 0.23826 0.09945 0.0
C8834 C 0.75048 0.2434 0.10959 0.0
C8835 C 0.74842 0.24463 0.08989 0.0
C8836 C 0.7469 0.23955 0.07902 0.0
C8837 C 0.73788 0.23276 0.07697 0.0
C8838 C 0.73656 0.22791 0.06674 0.0
C8839 C 0.74416 0.22986 0.05846 0.0
C8840 C 0.75308 0.23669 0.0604 0.0
C8841 C 0.75444 0.24156 0.07063 0.0
H8842 H 0.74312 0.22609 0.05054 0.0
H8843 H 0.758 0.27285 0.14976 0.0
H8844 H 0.95433 0.01793 0.35302 0.0
H8845 H 0.9742 0.01756 0.35282 0.0
H8846 H 0.97358 0.98279 0.34715 0.0
H8847 H 0.95361 0.98306 0.34786 0.0
H8848 H 0.98797 0.98688 0.36187 0.0
H8849 H 0.98085 0.0022 0.32666 0.0
H8850 H 0.97265 0.0149 0.31338 0.0
H8851 H 0.98811 0.04195 0.32941 0.0
H8852 H 0.99631 0.02942 0.34286 0.0
H8853 H 0.04397 0.98289 0.34688 0.0
H8854 H 0.02408 0.98353 0.34557 0.0
H8855 H 0.02409 0.01586 0.35945 0.0
H8856 H 0.04404 0.01525 0.36095 0.0
H8857 H 0.01033 0.01287 0.34033 0.0
H8858 H 0.01739 0.99689 0.37556 0.0
H8859 H 0.02611 0.98373 0.38803 0.0
H8860 H 0.01106 0.95718 0.37083 0.0
H8861 H 0.00235 0.97019 0.35817 0.0
C8862 C 0.9584 0.01022 0.35157 0.0
C8863 C 0.95238 0.00052 0.3504 0.0
C8864 C 0.9698 0.01002 0.35143 0.0
C8865 C 0.97544 0.00017 0.34982 0.0
C8866 C 0.96943 0.9905 0.34842 0.0
C8867 C 0.95802 0.99067 0.34875 0.0
C8868 C 0.98759 -8e-05 0.35004 0.0
C8869 C 0.99283 0.99245 0.35701 0.0
C8870 C 0.99401 0.00733 0.3439 0.0
C8871 C 0.98912 0.01488 0.33581 0.0
C8872 C 0.98244 0.01086 0.32739 0.0
C8873 C 0.97781 0.01803 0.31983 0.0
C8874 C 0.97984 0.02923 0.32056 0.0
C8875 C 0.98654 0.03328 0.32885 0.0
C8876 C 0.9912 0.02615 0.33643 0.0
C8877 C 0.03977 0.99019 0.34956 0.0
C8878 C 0.04558 0.99903 0.35402 0.0
C8879 C 0.0284 0.99051 0.34886 0.0
C8880 C 0.02264 -0.00029 0.35248 0.0
C8881 C 0.02841 0.00869 0.35663 0.0
C8882 C 0.03979 0.00831 0.35748 0.0
C8883 C 0.01057 -0.00015 0.35209 0.0
C8884 C 0.0054 0.00729 0.34513 0.0
C8885 C 0.00423 0.99235 0.35813 0.0
C8886 C 0.0093 0.98451 0.36585 0.0
C8887 C 0.016 0.98824 0.37439 0.0
C8888 C 0.02093 0.98081 0.3815 0.0
C8889 C 0.01917 0.96962 0.3802 0.0
C8890 C 0.01243 0.96585 0.37182 0.0
C8891 C 0.00748 0.97325 0.36468 0.0
H8892 H 0.02301 0.96388 0.3857 0.0
H8893 H 0.97624 0.03476 0.3147 0.0
H8894 H 0.24723 0.20186 0.58822 0.0
H8895 H 0.24774 0.22167 0.58473 0.0
H8896 H 0.24914 0.22773 0.61933 0.0
H8897 H 0.249 0.20816 0.62287 0.0
H8898 H 0.23085 0.23841 0.60317 0.0
H8899 H 0.2695 0.23278 0.61267 0.0
H8900 H 0.28741 0.22406 0.60989 0.0
H8901 H 0.28804 0.23553 0.5768 0.0
H8902 H 0.26999 0.24414 0.57935 0.0
H8903 H 0.2402 0.2915 0.62058 0.0
H8904 H 0.23988 0.27196 0.61733 0.0
H8905 H 0.25455 0.27679 0.58569 0.0
H8906 H 0.25526 0.29653 0.58908 0.0
H8907 H 0.26416 0.26032 0.59601 0.0
H8908 H 0.22714 0.26967 0.5883 0.0
H8909 H 0.20939 0.27856 0.59156 0.0
H8910 H 0.20539 0.26017 0.62111 0.0
H8911 H 0.22318 0.25128 0.6181 0.0
C8912 C 0.24776 0.20744 0.59504 0.0
C8913 C 0.24812 0.20348 0.60581 0.0
C8914 C 0.24807 0.2187 0.59305 0.0
C8915 C 0.24855 0.22607 0.60179 0.0
C8916 C 0.24888 0.22212 0.6125 0.0
C8917 C 0.24882 0.21094 0.61449 0.0
C8918 C 0.2481 0.23795 0.60001 0.0
C8919 C 0.23809 0.24324 0.60155 0.0
C8920 C 0.25753 0.24413 0.59768 0.0
C8921 C 0.26832 0.23891 0.59613 0.0
C8922 C 0.27337 0.23329 0.60475 0.0
C8923 C 0.28357 0.22841 0.60324 0.0
C8924 C 0.28884 0.22919 0.59315 0.0
C8925 C 0.28393 0.23489 0.58459 0.0
C8926 C 0.27371 0.23976 0.58606 0.0
C8927 C 0.24326 0.28847 0.61286 0.0
C8928 C 0.24769 0.29559 0.60506 0.0
C8929 C 0.24302 0.27726 0.61099 0.0
C8930 C 0.24699 0.27291 0.60117 0.0
C8931 C 0.25138 0.27998 0.5933 0.0
C8932 C 0.25173 0.29125 0.59523 0.0
C8933 C 0.2469 0.26091 0.59947 0.0
C8934 C 0.25681 0.25556 0.59731 0.0
C8935 C 0.23734 0.25465 0.60125 0.0
C8936 C 0.22652 0.25983 0.60298 0.0
C8937 C 0.22249 0.26755 0.59551 0.0
C8938 C 0.21242 0.27259 0.59732 0.0
C8939 C 0.20627 0.26994 0.60654 0.0
C8940 C 0.21016 0.26221 0.61396 0.0
C8941 C 0.22022 0.25715 0.6122 0.0
H8942 H 0.19848 0.27387 0.60793 0.0
H8943 H 0.29674 0.22542 0.592 0.0
H8944 H 0.15664 0.04503 0.5117 0.0
H8945 H 0.15845 0.02522 0.51167 0.0
H8946 H 0.13603 0.02312 0.48462 0.0
H8947 H 0.13399 0.04297 0.48473 0.0
H8948 H 0.13024 0.00957 0.50028 0.0
H8949 H 0.16343 0.0176 0.4815 0.0
H8950 H 0.18123 0.02639 0.47826 0.0
H8951 H 0.19375 0.01239 0.50782 0.0
H8952 H 0.17597 0.00362 0.51132 0.0
H8953 H 0.13896 0.95501 0.48473 0.0
H8954 H 0.13943 0.97484 0.48531 0.0
H8955 H 0.15574 0.97375 0.51644 0.0
H8956 H 0.1552 0.95368 0.51604 0.0
H8957 H 0.16494 0.9887 0.49977 0.0
H8958 H 0.13116 0.98013 0.51777 0.0
H8959 H 0.11335 0.97103 0.5199 0.0
H8960 H 0.10199 0.98593 0.49031 0.0
H8961 H 0.11979 0.99501 0.48792 0.0
C8962 C 0.1522 0.04038 0.50563 0.0
C8963 C 0.14511 0.04557 0.49825 0.0
C8964 C 0.15329 0.02905 0.50561 0.0
C8965 C 0.14741 0.02269 0.49812 0.0
C8966 C 0.14062 0.02788 0.49049 0.0
C8967 C 0.13949 0.03922 0.49054 0.0
C8968 C 0.14774 0.01062 0.49877 0.0
C8969 C 0.13783 0.00501 0.50002 0.0
C8970 C 0.15766 0.00469 0.49875 0.0
C8971 C 0.16833 0.01005 0.49674 0.0
C8972 C 0.16994 0.01648 0.48737 0.0
C8973 C 0.18004 0.02144 0.48547 0.0
C8974 C 0.18861 0.01998 0.49285 0.0
C8975 C 0.1871 0.01353 0.50213 0.0
C8976 C 0.17702 0.00856 0.50407 0.0
C8977 C 0.1427 0.95893 0.49171 0.0
C8978 C 0.14705 0.95275 0.50036 0.0
C8979 C 0.14292 0.97027 0.49202 0.0
C8980 C 0.14755 0.9757 0.50094 0.0
C8981 C 0.15212 0.96964 0.50951 0.0
C8982 C 0.15179 0.95821 0.50927 0.0
C8983 C 0.14747 0.98775 0.50117 0.0
C8984 C 0.1574 0.99332 0.50009 0.0
C8985 C 0.13757 0.99365 0.50122 0.0
C8986 C 0.12686 0.98817 0.50261 0.0
C8987 C 0.12491 0.98139 0.51166 0.0
C8988 C 0.1148 0.97625 0.51293 0.0
C8989 C 0.10655 0.97788 0.50523 0.0
C8990 C 0.10839 0.98467 0.49626 0.0
C8991 C 0.11848 0.98982 0.49495 0.0
H8992 H 0.09873 0.9739 0.50623 0.0
H8993 H 0.19642 0.02382 0.49136 0.0
H8994 H 0.2946 0.39475 0.76618 0.0
H8995 H 0.27475 0.39651 0.76718 0.0
H8996 H 0.27332 0.4005 0.73222 0.0
H8997 H 0.29315 0.39913 0.73122 0.0
H8998 H 0.25945 0.4136 0.74097 0.0
H8999 H 0.26751 0.37581 0.74506 0.0
H9000 H 0.27618 0.3594 0.75282 0.0
H9001 H 0.26124 0.36596 0.78383 0.0
H9002 H 0.25261 0.38252 0.77629 0.0
H9003 H 0.20388 0.39611 0.73361 0.0
H9004 H 0.22379 0.39781 0.73342 0.0
H9005 H 0.22388 0.40143 0.76841 0.0
H9006 H 0.20398 0.39987 0.76868 0.0
H9007 H 0.23821 0.38489 0.76002 0.0
H9008 H 0.22928 0.42287 0.75401 0.0
H9009 H 0.22017 0.43806 0.74446 0.0
H9010 H 0.23638 0.42927 0.71467 0.0
H9011 H 0.24547 0.41393 0.72401 0.0
C9012 C 0.29006 0.39611 0.75872 0.0
C9013 C 0.29545 0.39676 0.74862 0.0
C9014 C 0.27871 0.39704 0.75929 0.0
C9015 C 0.2725 0.39843 0.74975 0.0
C9016 C 0.27791 0.39941 0.7397 0.0
C9017 C 0.28926 0.39862 0.73914 0.0
C9018 C 0.26038 0.39864 0.75018 0.0
C9019 C 0.25482 0.40726 0.74506 0.0
C9020 C 0.2543 0.3904 0.75556 0.0
C9021 C 0.25952 0.38048 0.76015 0.0
C9022 C 0.26616 0.37381 0.75356 0.0
C9023 C 0.27105 0.36448 0.75792 0.0
C9024 C 0.26929 0.36166 0.76882 0.0
C9025 C 0.26262 0.36817 0.77539 0.0
C9026 C 0.25772 0.37753 0.77108 0.0
C9027 C 0.20812 0.39744 0.74125 0.0
C9028 C 0.20235 0.39786 0.75116 0.0
C9029 C 0.21949 0.39842 0.74112 0.0
C9030 C 0.22528 0.39974 0.75091 0.0
C9031 C 0.21954 0.40041 0.76078 0.0
C9032 C 0.20817 0.39958 0.7609 0.0
C9033 C 0.23736 0.39986 0.75089 0.0
C9034 C 0.24289 0.39126 0.75603 0.0
C9035 C 0.24339 0.40794 0.74529 0.0
C9036 C 0.23798 0.41719 0.73969 0.0
C9037 C 0.23083 0.42412 0.7454 0.0
C9038 C 0.22569 0.43277 0.74003 0.0
C9039 C 0.22768 0.43461 0.72896 0.0
C9040 C 0.23484 0.42783 0.72324 0.0
C9041 C 0.24 0.41916 0.72857 0.0
H9042 H 0.22369 0.44131 0.72482 0.0
H9043 H 0.27308 0.35442 0.77217 0.0
H9044 H 0.8662 0.45592 0.98453 0.0
H9045 H 0.86395 0.47574 0.98456 0.0
H9046 H 0.84034 0.47311 0.01054 0.0
H9047 H 0.84231 0.4533 0.01036 0.0
H9048 H 0.83434 0.48857 0.99671 0.0
H9049 H 0.86698 0.47932 0.01596 0.0
H9050 H 0.88489 0.47058 0.01871 0.0
H9051 H 0.8981 0.48876 0.99183 0.0
H9052 H 0.88021 0.4975 0.98882 0.0
H9053 H 0.84149 0.54458 0.01446 0.0
H9054 H 0.84125 0.52451 0.01445 0.0
H9055 H 0.85997 0.52425 0.98466 0.0
H9056 H 0.86013 0.5441 0.98448 0.0
H9057 H 0.86812 0.51037 0.00163 0.0
H9058 H 0.83477 0.51903 0.98231 0.0
H9059 H 0.81687 0.52801 0.98036 0.0
H9060 H 0.80513 0.51115 0.00874 0.0
H9061 H 0.82303 0.50218 0.01094 0.0
C9062 C 0.86042 0.45954 0.99014 0.0
C9063 C 0.85454 0.45305 0.99752 0.0
C9064 C 0.85918 0.47087 0.99019 0.0
C9065 C 0.85216 0.47591 0.99773 0.0
C9066 C 0.84584 0.4694 0.0047 0.0
C9067 C 0.84701 0.45807 0.00459 0.0
C9068 C 0.85181 0.48796 0.99872 0.0
C9069 C 0.84171 0.49332 0.99793 0.0
C9070 C 0.86143 0.49417 0.00028 0.0
C9071 C 0.87223 0.48898 0.0021 0.0
C9072 C 0.87368 0.48139 0.01058 0.0
C9073 C 0.88384 0.47645 0.0122 0.0
C9074 C 0.89262 0.47909 0.00543 0.0
C9075 C 0.89128 0.48671 0.99705 0.0
C9076 C 0.88114 0.49167 0.99539 0.0
C9077 C 0.8455 0.54023 0.0079 0.0
C9078 C 0.85079 0.54593 -0.00053 0.0
C9079 C 0.84535 0.5288 0.0079 0.0
C9080 C 0.8506 0.52297 -0.00045 0.0
C9081 C 0.8559 0.52863 0.99118 0.0
C9082 C 0.85592 0.53999 0.99108 0.0
C9083 C 0.8507 0.51092 -0.00054 0.0
C9084 C 0.86076 0.50558 0.00047 0.0
C9085 C 0.84105 0.50474 0.99823 0.0
C9086 C 0.83026 0.51003 0.99686 0.0
C9087 C 0.8284 0.51731 0.98819 0.0
C9088 C 0.81825 0.52238 0.98703 0.0
C9089 C 0.80988 0.52018 0.99444 0.0
C9090 C 0.81163 0.51286 0.00302 0.0
C9091 C 0.82177 0.50778 0.00422 0.0
H9092 H 0.80202 0.52411 0.99354 0.0
H9093 H 0.90048 0.47526 0.00669 0.0
H9094 H 0.79427 0.10716 0.23256 0.0
H9095 H 0.77439 0.10581 0.23314 0.0
H9096 H 0.77603 0.0946 0.26646 0.0
H9097 H 0.79593 0.09569 0.26587 0.0
H9098 H 0.76037 0.084 0.2557 0.0
H9099 H 0.77083 0.12106 0.26084 0.0
H9100 H 0.78042 0.13823 0.25665 0.0
H9101 H 0.76286 0.14088 0.22646 0.0
H9102 H 0.75334 0.12357 0.23035 0.0
H9103 H 0.70452 0.09906 0.26756 0.0
H9104 H 0.72455 0.09838 0.26812 0.0
H9105 H 0.72577 0.10384 0.23339 0.0
H9106 H 0.70589 0.10436 0.2327 0.0
H9107 H 0.73988 0.11762 0.24621 0.0
H9108 H 0.73015 0.07956 0.24141 0.0
H9109 H 0.72056 0.06262 0.24648 0.0
H9110 H 0.7366 0.06266 0.27762 0.0
H9111 H 0.74618 0.0797 0.27278 0.0
C9112 C 0.79042 0.10425 0.23996 0.0
C9113 C 0.79667 0.10164 0.2492 0.0
C9114 C 0.77905 0.10354 0.2403 0.0
C9115 C 0.77373 0.10034 0.24993 0.0
C9116 C 0.77997 0.09715 0.25897 0.0
C9117 C 0.79135 0.09778 0.25861 0.0
C9118 C 0.76166 0.10082 0.2507 0.0
C9119 C 0.75591 0.09139 0.25376 0.0
C9120 C 0.75582 0.11047 0.24817 0.0
C9121 C 0.76144 0.12095 0.24584 0.0
C9122 C 0.76907 0.12525 0.25327 0.0
C9123 C 0.77448 0.13502 0.25096 0.0
C9124 C 0.77225 0.14064 0.2413 0.0
C9125 C 0.76459 0.13651 0.23394 0.0
C9126 C 0.75918 0.12672 0.23619 0.0
C9127 C 0.70907 0.10006 0.26005 0.0
C9128 C 0.70362 0.10171 0.25009 0.0
C9129 C 0.72048 0.09967 0.26038 0.0
C9130 C 0.72659 0.10106 0.25079 0.0
C9131 C 0.72118 0.10277 0.24087 0.0
C9132 C 0.70981 0.103 0.2405 0.0
C9133 C 0.73865 0.10077 0.251 0.0
C9134 C 0.74438 0.11026 0.24818 0.0
C9135 C 0.74446 0.09125 0.25391 0.0
C9136 C 0.73879 0.08096 0.25678 0.0
C9137 C 0.73156 0.07601 0.24937 0.0
C9138 C 0.72614 0.06638 0.25219 0.0
C9139 C 0.72794 0.06158 0.26238 0.0
C9140 C 0.7352 0.06639 0.26974 0.0
C9141 C 0.74063 0.07603 0.26696 0.0
H9142 H 0.72374 0.05413 0.26455 0.0
H9143 H 0.77645 0.14821 0.23952 0.0
H9144 H 0.48463 0.15782 0.04496 0.0
H9145 H 0.48406 0.15898 0.02499 0.0
H9146 H 0.51437 0.14112 0.0231 0.0
H9147 H 0.5152 0.14032 0.04288 0.0
H9148 H 0.51515 0.1566 0.00929 0.0
H9149 H 0.48871 0.12922 0.01819 0.0
H9150 H 0.4724 0.12137 0.027 0.0
H9151 H 0.45218 0.14528 0.01129 0.0
H9152 H 0.4684 0.15336 0.00249 0.0
H9153 H 0.51308 0.13499 0.95565 0.0
H9154 H 0.51321 0.13787 0.97534 0.0
H9155 H 0.48568 0.15961 0.97248 0.0
H9156 H 0.48539 0.15668 0.95273 0.0
H9157 H 0.48284 0.14406 0.9884 0.0
H9158 H 0.51095 0.1697 0.9779 0.0
H9159 H 0.52793 0.1751 0.96854 0.0
H9160 H 0.54589 0.15138 0.98705 0.0
H9161 H 0.52899 0.14576 0.99642 0.0
C9162 C 0.49119 0.15421 0.04026 0.0
C9163 C 0.49995 0.149 0.0455 0.0
C9164 C 0.49083 0.15481 0.02886 0.0
C9165 C 0.49912 0.15003 0.02252 0.0
C9166 C 0.5079 0.14492 0.02778 0.0
C9167 C 0.50834 0.14445 0.03913 0.0
C9168 C 0.49877 0.15026 0.01041 0.0
C9169 C 0.50809 0.15379 0.00474 0.0
C9170 C 0.48953 0.14674 0.00443 0.0
C9171 C 0.47978 0.14199 0.00981 0.0
C9172 C 0.4808 0.13287 0.01671 0.0
C9173 C 0.47157 0.12837 0.02168 0.0
C9174 C 0.46127 0.13285 0.01974 0.0
C9175 C 0.46017 0.14184 0.01281 0.0
C9176 C 0.46938 0.14638 0.00783 0.0
C9177 C 0.50713 0.1405 0.95917 0.0
C9178 C 0.49923 0.14561 0.95262 0.0
C9179 C 0.50723 0.14215 0.97043 0.0
C9180 C 0.4995 0.14902 0.97535 0.0
C9181 C 0.49172 0.1543 0.96883 0.0
C9182 C 0.49161 0.15265 0.95754 0.0
C9183 C 0.49925 0.15026 0.98737 0.0
C9184 C 0.48982 0.14701 0.99299 0.0
C9185 C 0.50849 0.15375 0.99332 0.0
C9186 C 0.51869 0.15728 0.98782 0.0
C9187 C 0.51851 0.16561 0.97994 0.0
C9188 C 0.52812 0.16871 0.97464 0.0
C9189 C 0.53798 0.16358 0.97719 0.0
C9190 C 0.53825 0.15535 0.98508 0.0
C9191 C 0.52866 0.15222 0.99041 0.0
H9192 H 0.54541 0.16598 0.97307 0.0
H9193 H 0.45413 0.12935 0.02358 0.0
H9194 H 0.98941 0.84064 0.54491 0.0
H9195 H 0.98924 0.83841 0.52511 0.0
H9196 H 0.01282 0.86435 0.52192 0.0
H9197 H 0.01297 0.86671 0.5417 0.0
H9198 H 0.99584 0.86757 0.5087 0.0
H9199 H 0.02002 0.83823 0.51681 0.0
H9200 H 0.02648 0.82143 0.52578 0.0
H9201 H 0.99923 0.80372 0.51268 0.0
H9202 H 0.99252 0.82047 0.50374 0.0
H9203 H 0.01352 0.85809 0.45417 0.0
H9204 H 0.01317 0.85787 0.47406 0.0
H9205 H 0.98199 0.84159 0.47348 0.0
H9206 H 0.98208 0.84209 0.45339 0.0
H9207 H 0.00176 0.83304 0.48838 0.0
H9208 H 0.97819 0.86356 0.47984 0.0
H9209 H 0.9732 0.88071 0.47058 0.0
H9210 H 0.00122 0.89654 0.48442 0.0
H9211 H 0.00649 0.87942 0.4936 0.0
C9212 C 0.99468 0.84577 0.54001 0.0
C9213 C 0.00116 0.8539 0.54488 0.0
C9214 C 0.99459 0.84446 0.52869 0.0
C9215 C 0.00102 0.85122 0.52205 0.0
C9216 C 0.00777 0.85909 0.52691 0.0
C9217 C 0.00787 0.86039 0.53822 0.0
C9218 C 0.00017 0.85056 0.51001 0.0
C9219 C 0.99724 0.86003 0.50427 0.0
C9220 C 0.00178 0.84069 0.50424 0.0
C9221 C 0.0057 0.83064 0.50972 0.0
C9222 C 0.01534 0.83078 0.51594 0.0
C9223 C 0.01906 0.82126 0.521 0.0
C9224 C 0.01325 0.81152 0.51983 0.0
C9225 C 0.00371 0.81128 0.51359 0.0
C9226 C -5e-05 0.82078 0.50852 0.0
C9227 C 0.00661 0.85436 0.45824 0.0
C9228 C 0.99783 0.85006 0.45223 0.0
C9229 C 0.00642 0.8543 0.4696 0.0
C9230 C 0.99755 0.84975 0.47516 0.0
C9231 C 0.98889 0.84515 0.46926 0.0
C9232 C 0.98895 0.84544 0.45783 0.0
C9233 C 0.99743 0.85001 0.48719 0.0
C9234 C 0.00024 0.84051 0.49289 0.0
C9235 C 0.99587 0.85989 0.49292 0.0
C9236 C 0.99281 0.87015 0.48728 0.0
C9237 C 0.98337 0.87065 0.48078 0.0
C9238 C 0.98047 0.88038 0.47558 0.0
C9239 C 0.98691 0.8897 0.47688 0.0
C9240 C 0.99626 0.88931 0.48339 0.0
C9241 C 0.9992 0.87959 0.4886 0.0
H9242 H 0.98464 0.89723 0.47286 0.0
H9243 H 0.01615 0.80416 0.52374 0.0
H9244 H 0.39144 0.23352 0.7925 0.0
H9245 H 0.39131 0.23444 0.77273 0.0
H9246 H 0.40608 0.26639 0.77396 0.0
H9247 H 0.40579 0.26571 0.794 0.0
H9248 H 0.39051 0.26608 0.75922 0.0
H9249 H 0.421 0.24297 0.76673 0.0
H9250 H 0.43068 0.22763 0.77544 0.0
H9251 H 0.40881 0.20491 0.76016 0.0
H9252 H 0.39892 0.22012 0.75146 0.0
H9253 H 0.40304 0.26426 0.70227 0.0
H9254 H 0.40534 0.26445 0.72206 0.0
H9255 H 0.38514 0.23577 0.72477 0.0
H9256 H 0.38263 0.2356 0.70492 0.0
H9257 H 0.40487 0.23522 0.73727 0.0
H9258 H 0.37416 0.25865 0.73025 0.0
H9259 H 0.36412 0.27415 0.72228 0.0
H9260 H 0.38673 0.29658 0.73685 0.0
H9261 H 0.39706 0.2812 0.74474 0.0
C9262 C 0.39475 0.24073 0.78861 0.0
C9263 C 0.39874 0.24951 0.79483 0.0
C9264 C 0.39471 0.24122 0.77727 0.0
C9265 C 0.39893 0.25036 0.77183 0.0
C9266 C 0.40285 0.25921 0.77799 0.0
C9267 C 0.40273 0.2588 0.78942 0.0
C9268 C 0.39895 0.25066 0.75972 0.0
C9269 C 0.39387 0.25945 0.75441 0.0
C9270 C 0.40312 0.24189 0.75344 0.0
C9271 C 0.40919 0.2327 0.75849 0.0
C9272 C 0.41823 0.23471 0.76526 0.0
C9273 C 0.42375 0.22603 0.77019 0.0
C9274 C 0.42035 0.21531 0.76837 0.0
C9275 C 0.41144 0.21323 0.76157 0.0
C9276 C 0.40589 0.22187 0.75662 0.0
C9277 C 0.39917 0.25792 0.70705 0.0
C9278 C 0.39264 0.24991 0.70204 0.0
C9279 C 0.40045 0.25809 0.71836 0.0
C9280 C 0.39532 0.25019 0.72484 0.0
C9281 C 0.38912 0.24195 0.71986 0.0
C9282 C 0.3877 0.24187 0.70855 0.0
C9283 C 0.39638 0.25058 0.73684 0.0
C9284 C 0.40166 0.24191 0.7421 0.0
C9285 C 0.39247 0.25951 0.74304 0.0
C9286 C 0.38648 0.26875 0.73798 0.0
C9287 C 0.3771 0.26687 0.73162 0.0
C9288 C 0.37134 0.27564 0.72714 0.0
C9289 C 0.37479 0.28634 0.72905 0.0
C9290 C 0.38407 0.28829 0.73538 0.0
C9291 C 0.38989 0.27955 0.73984 0.0
H9292 H 0.37025 0.29313 0.72571 0.0
H9293 H 0.42463 0.2086 0.77221 0.0
H9294 H 0.01702 0.64511 0.04191 0.0
H9295 H 0.01649 0.64613 0.02211 0.0
H9296 H 0.98148 0.64979 0.02311 0.0
H9297 H 0.98191 0.64841 0.04307 0.0
H9298 H 0.98752 0.63517 0.00802 0.0
H9299 H 0.99898 0.6718 0.01741 0.0
H9300 H 0.01069 0.6853 0.02669 0.0
H9301 H 0.03881 0.67257 0.01011 0.0
H9302 H 0.0273 0.65892 0.00084 0.0
H9303 H 0.98237 0.64987 0.95221 0.0
H9304 H 0.98218 0.65113 0.97211 0.0
H9305 H 0.0167 0.6443 0.97293 0.0
H9306 H 0.01694 0.64287 0.95301 0.0
H9307 H 0.01048 0.66107 0.98702 0.0
H9308 H 0.00033 0.62506 0.97753 0.0
H9309 H 0.99006 0.61023 0.96872 0.0
H9310 H 0.9612 0.61955 0.98617 0.0
H9311 H 0.97112 0.63488 0.99467 0.0
C9312 C 0.00919 0.64624 0.03796 0.0
C9313 C -0.0005 0.64673 0.04408 0.0
C9314 C 0.00892 0.64686 0.02661 0.0
C9315 C 0.99897 0.64822 0.02112 0.0
C9316 C 0.98926 0.64879 0.02719 0.0
C9317 C 0.98951 0.64803 0.03859 0.0
C9318 C 0.99873 0.64866 0.00903 0.0
C9319 C 0.99233 0.641 0.00341 0.0
C9320 C 0.00539 0.65596 0.00304 0.0
C9321 C 0.01228 0.66431 0.00848 0.0
C9322 C 0.00767 0.67186 0.01578 0.0
C9323 C 0.01427 0.67954 0.02103 0.0
C9324 C 0.02549 0.67978 0.019 0.0
C9325 C 0.03012 0.67238 0.01168 0.0
C9326 C 0.02356 0.66468 0.00641 0.0
C9327 C 0.98996 0.64879 0.9566 0.0
C9328 C -0.00032 0.64626 0.95104 0.0
C9329 C 0.98982 0.64945 0.96797 0.0
C9330 C -0.0006 0.64771 0.97396 0.0
C9331 C 0.00921 0.64565 0.96843 0.0
C9332 C 0.00934 0.64483 0.95706 0.0
C9333 C 0.99914 0.6477 0.98603 0.0
C9334 C 0.0055 0.65538 0.99162 0.0
C9335 C 0.99258 0.64028 0.99198 0.0
C9336 C 0.98643 0.63131 0.98657 0.0
C9337 C 0.99172 0.62416 0.9793 0.0
C9338 C 0.98595 0.61565 0.97435 0.0
C9339 C 0.97493 0.61405 0.97677 0.0
C9340 C 0.96967 0.62094 0.98416 0.0
C9341 C 0.97536 0.62957 0.98901 0.0
H9342 H 0.9705 0.60741 0.97299 0.0
H9343 H 0.03058 0.68573 0.02309 0.0
H9344 H 0.08781 0.75689 0.2954 0.0
H9345 H 0.08557 0.75621 0.27544 0.0
H9346 H 0.11773 0.74236 0.27228 0.0
H9347 H 0.11992 0.74269 0.29205 0.0
H9348 H 0.11141 0.76382 0.26001 0.0
H9349 H 0.10207 0.72581 0.26708 0.0
H9350 H 0.09122 0.71114 0.27556 0.0
H9351 H 0.06206 0.72411 0.26111 0.0
H9352 H 0.07274 0.73896 0.25266 0.0
H9353 H 0.12318 0.74909 0.20672 0.0
H9354 H 0.12042 0.75005 0.22628 0.0
H9355 H 0.08552 0.74941 0.22154 0.0
H9356 H 0.08831 0.74782 0.20172 0.0
H9357 H 0.09045 0.73707 0.238 0.0
H9358 H 0.10007 0.77371 0.22882 0.0
H9359 H 0.11086 0.78836 0.22021 0.0
H9360 H 0.13903 0.77871 0.23867 0.0
H9361 H 0.12845 0.76393 0.24729 0.0
C9362 C 0.09432 0.75356 0.29044 0.0
C9363 C 0.10403 0.74985 0.29529 0.0
C9364 C 0.09302 0.75315 0.27908 0.0
C9365 C 0.10149 0.74922 0.27246 0.0
C9366 C 0.1111 0.74537 0.27729 0.0
C9367 C 0.11231 0.74555 0.2886 0.0
C9368 C 0.1008 0.74985 0.26044 0.0
C9369 C 0.10685 0.75798 0.25516 0.0
C9370 C 0.09459 0.74242 0.25422 0.0
C9371 C 0.08817 0.73359 0.25941 0.0
C9372 C 0.09332 0.72563 0.26584 0.0
C9373 C 0.08722 0.71725 0.27061 0.0
C9374 C 0.07595 0.71672 0.26892 0.0
C9375 C 0.07078 0.72455 0.26244 0.0
C9376 C 0.07686 0.73294 0.25766 0.0
C9377 C 0.1149 0.74925 0.20979 0.0
C9378 C 0.10595 0.74852 0.20267 0.0
C9379 C 0.11332 0.74986 0.22102 0.0
C9380 C 0.10275 0.75014 0.22542 0.0
C9381 C 0.09376 0.74932 0.21833 0.0
C9382 C 0.09535 0.74845 0.20703 0.0
C9383 C 0.10128 0.75094 0.23744 0.0
C9384 C 0.09484 0.74309 0.24278 0.0
C9385 C 0.10709 0.75871 0.24375 0.0
C9386 C 0.11346 0.76768 0.23867 0.0
C9387 C 0.10858 0.77469 0.23101 0.0
C9388 C 0.11466 0.78301 0.22613 0.0
C9389 C 0.12563 0.78445 0.22888 0.0
C9390 C 0.13053 0.77759 0.23655 0.0
C9391 C 0.12449 0.76925 0.24145 0.0
H9392 H 0.13033 0.7909 0.22509 0.0
H9393 H 0.07124 0.71023 0.2726 0.0
H9394 H 0.51636 0.85298 0.04443 0.0
H9395 H 0.5174 0.85169 0.02454 0.0
H9396 H 0.4824 0.84799 0.02297 0.0
H9397 H 0.48138 0.84879 0.0428 0.0
H9398 H 0.49077 0.83527 0.0089 0.0
H9399 H 0.49628 0.87303 0.01774 0.0
H9400 H 0.50484 0.88913 0.02625 0.0
H9401 H 0.53526 0.88143 0.01065 0.0
H9402 H 0.52692 0.86516 0.00221 0.0
H9403 H 0.48203 0.85479 0.95437 0.0
H9404 H 0.48254 0.85262 0.97425 0.0
H9405 H 0.51738 0.84792 0.97293 0.0
H9406 H 0.51696 0.84989 0.95311 0.0
H9407 H 0.51006 0.86414 0.98809 0.0
H9408 H 0.50298 0.82677 0.97812 0.0
H9409 H 0.49298 0.81205 0.96873 0.0
H9410 H 0.46372 0.8207 0.98595 0.0
H9411 H 0.47351 0.83558 0.99534 0.0
C9412 C 0.50891 0.85176 0.03984 0.0
C9413 C 0.49879 0.851 0.04519 0.0
C9414 C 0.5095 0.85112 0.02846 0.0
C9415 C 0.49995 0.84996 0.02221 0.0
C9416 C 0.48989 0.84889 0.02758 0.0
C9417 C 0.48932 0.84935 0.03894 0.0
C9418 C 0.50035 0.85 0.01008 0.0
C9419 C 0.49491 0.84166 0.00438 0.0
C9420 C 0.50589 0.85822 0.00411 0.0
C9421 C 0.51101 0.86781 0.00945 0.0
C9422 C 0.50482 0.8747 0.01623 0.0
C9423 C 0.50963 0.88386 0.02103 0.0
C9424 C 0.5206 0.88628 0.01903 0.0
C9425 C 0.52678 0.87953 0.01222 0.0
C9426 C 0.52201 0.87034 0.00743 0.0
C9427 C 0.48977 0.85316 0.9583 0.0
C9428 C 0.49944 0.85249 0.95217 0.0
C9429 C 0.49005 0.85191 0.96964 0.0
C9430 C 0.5 0.85009 0.97501 0.0
C9431 C 0.50963 0.8493 0.96891 0.0
C9432 C 0.50935 0.85037 0.95758 0.0
C9433 C 0.50042 0.84951 0.98704 0.0
C9434 C 0.50601 0.85774 0.99268 0.0
C9435 C 0.49484 0.84133 0.99294 0.0
C9436 C 0.48896 0.83235 0.98736 0.0
C9437 C 0.4944 0.82559 0.97984 0.0
C9438 C 0.48877 0.81721 0.97453 0.0
C9439 C 0.47772 0.81546 0.97673 0.0
C9440 C 0.47228 0.82207 0.98426 0.0
C9441 C 0.47786 0.83047 0.98958 0.0
H9442 H 0.47338 0.80896 0.97261 0.0
H9443 H 0.52429 0.89339 0.02272 0.0
H9444 H 0.6075 0.26507 0.20358 0.0
H9445 H 0.60625 0.26592 0.22347 0.0
H9446 H 0.59595 0.23225 0.22429 0.0
H9447 H 0.59679 0.23147 0.20442 0.0
H9448 H 0.58503 0.24288 0.23876 0.0
H9449 H 0.62295 0.24059 0.22956 0.0
H9450 H 0.64025 0.24583 0.22072 0.0
H9451 H 0.63927 0.27694 0.2368 0.0
H9452 H 0.62187 0.27196 0.24562 0.0
H9453 H 0.60141 0.23214 0.29434 0.0
H9454 H 0.59998 0.23202 0.27436 0.0
H9455 H 0.60265 0.26709 0.2739 0.0
H9456 H 0.60393 0.26734 0.29375 0.0
H9457 H 0.61726 0.25584 0.25954 0.0
H9458 H 0.57911 0.25723 0.26905 0.0
H9459 H 0.5625 0.25087 0.27845 0.0
H9460 H 0.56492 0.21992 0.26219 0.0
H9461 H 0.58165 0.22605 0.25281 0.0
C9462 C 0.60485 0.25788 0.20799 0.0
C9463 C 0.6023 0.24819 0.20241 0.0
C9464 C 0.60422 0.25835 0.21938 0.0
C9465 C 0.60124 0.24907 0.22542 0.0
C9466 C 0.59831 0.23951 0.21983 0.0
C9467 C 0.5988 0.23908 0.20845 0.0
C9468 C 0.60141 0.24921 0.23756 0.0
C9469 C 0.59214 0.2456 0.24328 0.0
C9470 C 0.61063 0.25288 0.24353 0.0
C9471 C 0.62103 0.25595 0.23814 0.0
C9472 C 0.62636 0.24859 0.23112 0.0
C9473 C 0.6362 0.25151 0.22613 0.0
C9474 C 0.64083 0.26173 0.22817 0.0
C9475 C 0.63565 0.26904 0.23521 0.0
C9476 C 0.6258 0.26618 0.24021 0.0
C9477 C 0.60159 0.23982 0.28998 0.0
C9478 C 0.60278 0.24973 0.29564 0.0
C9479 C 0.60076 0.23974 0.27859 0.0
C9480 C 0.60121 0.24955 0.27269 0.0
C9481 C 0.6023 0.25944 0.27832 0.0
C9482 C 0.60298 0.25955 0.28967 0.0
C9483 C 0.60092 0.24954 0.26062 0.0
C9484 C 0.61018 0.25315 0.25496 0.0
C9485 C 0.59178 0.24572 0.25473 0.0
C9486 C 0.58169 0.24206 0.26031 0.0
C9487 C 0.57616 0.24903 0.26755 0.0
C9488 C 0.56671 0.24548 0.27286 0.0
C9489 C 0.56267 0.23499 0.27094 0.0
C9490 C 0.56806 0.22804 0.26368 0.0
C9491 C 0.57752 0.23155 0.25836 0.0
H9492 H 0.55536 0.23225 0.27506 0.0
H9493 H 0.64846 0.26396 0.22431 0.0
H9494 H 0.73193 0.79354 0.89249 0.0
H9495 H 0.73215 0.77373 0.89248 0.0
H9496 H 0.76432 0.77397 0.90681 0.0
H9497 H 0.76434 0.79399 0.90642 0.0
H9498 H 0.7634 0.76042 0.89007 0.0
H9499 H 0.74027 0.76662 0.92157 0.0
H9500 H 0.7245 0.77476 0.93108 0.0
H9501 H 0.70267 0.75942 0.90838 0.0
H9502 H 0.71831 0.75128 0.89868 0.0
H9503 H 0.76475 0.70372 0.90274 0.0
H9504 H 0.76419 0.7236 0.90438 0.0
H9505 H 0.73407 0.72433 0.8862 0.0
H9506 H 0.73468 0.70442 0.88432 0.0
H9507 H 0.73382 0.73727 0.90515 0.0
H9508 H 0.75526 0.73089 0.87388 0.0
H9509 H 0.76985 0.72437 0.86173 0.0
H9510 H 0.79371 0.74132 0.88096 0.0
H9511 H 0.77934 0.74746 0.8936 0.0
C9512 C 0.73902 0.78942 0.89579 0.0
C9513 C 0.74813 0.79535 0.89949 0.0
C9514 C 0.7391 0.77806 0.89583 0.0
C9515 C 0.74816 0.77234 0.89983 0.0
C9516 C 0.7572 0.77823 0.90373 0.0
C9517 C 0.75721 0.78965 0.90354 0.0
C9518 C 0.74844 0.76026 0.89926 0.0
C9519 C 0.75709 0.75532 0.89362 0.0
C9520 C 0.73988 0.75368 0.90338 0.0
C9521 C 0.73047 0.75838 0.90937 0.0
C9522 C 0.73211 0.76501 0.91859 0.0
C9523 C 0.72319 0.76963 0.92401 0.0
C9524 C 0.71259 0.76762 0.92033 0.0
C9525 C 0.71088 0.76096 0.91123 0.0
C9526 C 0.71977 0.75633 0.90578 0.0
C9527 C 0.75795 0.7081 0.89918 0.0
C9528 C 0.74973 0.70252 0.89343 0.0
C9529 C 0.75769 0.71945 0.90006 0.0
C9530 C 0.74914 0.7254 0.89534 0.0
C9531 C 0.74075 0.71985 0.88987 0.0
C9532 C 0.7411 0.7085 0.88882 0.0
C9533 C 0.74893 0.73744 0.89619 0.0
C9534 C 0.74026 0.74235 0.9018 0.0
C9535 C 0.75739 0.74401 0.89187 0.0
C9536 C 0.76619 0.7395 0.88484 0.0
C9537 C 0.76364 0.73298 0.87573 0.0
C9538 C 0.77188 0.72937 0.86872 0.0
C9539 C 0.7827 0.7324 0.87059 0.0
C9540 C 0.78532 0.73893 0.87955 0.0
C9541 C 0.77714 0.74241 0.88669 0.0
H9542 H 0.78905 0.72972 0.86506 0.0
H9543 H 0.7057 0.77122 0.92452 0.0
H9544 H 0.23099 0.79568 0.40322 0.0
H9545 H 0.23143 0.77577 0.40438 0.0
H9546 H 0.26492 0.77582 0.39351 0.0
H9547 H 0.26447 0.79569 0.39212 0.0
H9548 H 0.25381 0.76154 0.38222 0.0
H9549 H 0.25788 0.76924 0.42016 0.0
H9550 H 0.25356 0.77754 0.43797 0.0
H9551 H 0.22222 0.76186 0.43788 0.0
H9552 H 0.22632 0.75356 0.42 0.0
H9553 H 0.26686 0.70647 0.39572 0.0
H9554 H 0.26587 0.72638 0.39661 0.0
H9555 H 0.23078 0.72471 0.39813 0.0
H9556 H 0.23166 0.70472 0.39697 0.0
H9557 H 0.24217 0.73953 0.41414 0.0
H9558 H 0.23903 0.73168 0.37567 0.0
H9559 H 0.24449 0.72315 0.35829 0.0
H9560 H 0.27566 0.73906 0.36007 0.0
H9561 H 0.27042 0.74759 0.37754 0.0
C9562 C 0.23851 0.79147 0.40125 0.0
C9563 C 0.24769 0.79728 0.39755 0.0
C9564 C 0.23875 0.78007 0.40193 0.0
C9565 C 0.24822 0.77426 0.39905 0.0
C9566 C 0.2575 0.78009 0.39572 0.0
C9567 C 0.25724 0.79147 0.39498 0.0
C9568 C 0.24827 0.76211 0.39892 0.0
C9569 C 0.2514 0.75676 0.38927 0.0
C9570 C 0.24491 0.75581 0.408 0.0
C9571 C 0.24236 0.76087 0.41869 0.0
C9572 C 0.25003 0.76765 0.42389 0.0
C9573 C 0.24763 0.77233 0.43401 0.0
C9574 C 0.23761 0.77026 0.43904 0.0
C9575 C 0.22997 0.76347 0.43396 0.0
C9576 C 0.23233 0.75876 0.42384 0.0
C9577 C 0.25892 0.71031 0.39636 0.0
C9578 C 0.24933 0.704 0.39631 0.0
C9579 C 0.25838 0.72169 0.39681 0.0
C9580 C 0.24826 0.72699 0.39739 0.0
C9581 C 0.23867 0.72074 0.39768 0.0
C9582 C 0.23919 0.70934 0.39702 0.0
C9583 C 0.24776 0.73907 0.39751 0.0
C9584 C 0.24454 0.74437 0.40712 0.0
C9585 C 0.25118 0.74533 0.38845 0.0
C9586 C 0.25438 0.74017 0.37798 0.0
C9587 C 0.24709 0.73327 0.37242 0.0
C9588 C 0.25013 0.72846 0.36253 0.0
C9589 C 0.26043 0.73053 0.3581 0.0
C9590 C 0.26769 0.73745 0.36352 0.0
C9591 C 0.26468 0.74228 0.37341 0.0
H9592 H 0.26277 0.72681 0.35044 0.0
H9593 H 0.23577 0.77388 0.44688 0.0
H9594 H 0.76394 0.79517 0.59729 0.0
H9595 H 0.76413 0.77538 0.59577 0.0
H9596 H 0.73138 0.77401 0.60864 0.0
H9597 H 0.73132 0.79391 0.61064 0.0
H9598 H 0.7432 0.75958 0.61835 0.0
H9599 H 0.7379 0.76889 0.58066 0.0
H9600 H 0.74181 0.77813 0.56322 0.0
H9601 H 0.77353 0.76327 0.56224 0.0
H9602 H 0.76984 0.75402 0.57973 0.0
H9603 H 0.73116 0.70496 0.60254 0.0
H9604 H 0.73167 0.72491 0.60221 0.0
H9605 H 0.76679 0.72413 0.60073 0.0
H9606 H 0.7664 0.70409 0.60137 0.0
H9607 H 0.75445 0.73934 0.58513 0.0
H9608 H 0.75943 0.73018 0.62301 0.0
H9609 H 0.75518 0.72093 0.64036 0.0
H9610 H 0.72338 0.73564 0.64062 0.0
H9611 H 0.7274 0.74487 0.62318 0.0
C9612 C 0.7567 0.79069 0.59968 0.0
C9613 C 0.74759 0.79612 0.60408 0.0
C9614 C 0.75681 0.77934 0.59875 0.0
C9615 C 0.74771 0.77317 0.60194 0.0
C9616 C 0.7385 0.77859 0.60612 0.0
C9617 C 0.73845 0.78996 0.60722 0.0
C9618 C 0.74805 0.76104 0.6015 0.0
C9619 C 0.74549 0.75519 0.61101 0.0
C9620 C 0.75137 0.75525 0.59205 0.0
C9621 C 0.75363 0.76084 0.58155 0.0
C9622 C 0.74574 0.76766 0.57676 0.0
C9623 C 0.74791 0.77288 0.56686 0.0
C9624 C 0.75792 0.77131 0.56164 0.0
C9625 C 0.76578 0.76449 0.5663 0.0
C9626 C 0.76365 0.75924 0.57619 0.0
C9627 C 0.739 0.70901 0.60199 0.0
C9628 C 0.74875 0.70295 0.60194 0.0
C9629 C 0.73927 0.7204 0.60187 0.0
C9630 C 0.74926 0.72595 0.6015 0.0
C9631 C 0.75901 0.71996 0.60103 0.0
C9632 C 0.75876 0.70854 0.60138 0.0
C9633 C 0.74944 0.73802 0.60189 0.0
C9634 C 0.75214 0.74381 0.59241 0.0
C9635 C 0.74617 0.74377 0.61133 0.0
C9636 C 0.74366 0.73808 0.62171 0.0
C9637 C 0.75148 0.73133 0.62669 0.0
C9638 C 0.74913 0.72612 0.63656 0.0
C9639 C 0.739 0.72767 0.64157 0.0
C9640 C 0.73121 0.73443 0.63672 0.0
C9641 C 0.73352 0.73966 0.62685 0.0
H9642 H 0.7372 0.72364 0.64922 0.0
H9643 H 0.75958 0.77536 0.55397 0.0
H9644 H 0.26129 0.70425 0.08659 0.0
H9645 H 0.26161 0.72426 0.08584 0.0
H9646 H 0.23681 0.72557 0.11082 0.0
H9647 H 0.23617 0.70578 0.11132 0.0
H9648 H 0.23208 0.73961 0.09622 0.0
H9649 H 0.26465 0.73046 0.11593 0.0
H9650 H 0.28246 0.72166 0.11912 0.0
H9651 H 0.29581 0.73815 0.09124 0.0
H9652 H 0.27802 0.74694 0.0878 0.0
H9653 H 0.23836 0.79255 0.11817 0.0
H9654 H 0.23801 0.77296 0.11477 0.0
H9655 H 0.25981 0.77717 0.08746 0.0
H9656 H 0.26037 0.79685 0.09093 0.0
H9657 H 0.26632 0.76067 0.10095 0.0
H9658 H 0.23267 0.77139 0.08337 0.0
H9659 H 0.21478 0.78057 0.08253 0.0
H9660 H 0.20335 0.76115 0.10936 0.0
H9661 H 0.22121 0.75195 0.11043 0.0
C9662 C 0.25588 0.70883 0.09187 0.0
C9663 C 0.2487 0.70342 0.09899 0.0
C9664 C 0.25611 0.72026 0.09149 0.0
C9665 C 0.2493 0.72644 0.09836 0.0
C9666 C 0.24211 0.72101 0.1054 0.0
C9667 C 0.24177 0.70965 0.10569 0.0
C9668 C 0.24952 0.73857 0.09829 0.0
C9669 C 0.23958 0.74419 0.09732 0.0
C9670 C 0.2593 0.74461 0.09954 0.0
C9671 C 0.26997 0.73924 0.10152 0.0
C9672 C 0.27135 0.73213 0.11041 0.0
C9673 C 0.28145 0.72716 0.11228 0.0
C9674 C 0.29025 0.72931 0.10536 0.0
C9675 C 0.28898 0.73646 0.09657 0.0
C9676 C 0.27889 0.74144 0.09466 0.0
C9677 C 0.243 0.78936 0.11136 0.0
C9678 C 0.24938 0.79628 0.10481 0.0
C9679 C 0.24276 0.77814 0.10941 0.0
C9680 C 0.2488 0.77361 0.1008 0.0
C9681 C 0.25507 0.7805 0.09414 0.0
C9682 C 0.25534 0.79175 0.0961 0.0
C9683 C 0.24887 0.76163 0.09907 0.0
C9684 C 0.25886 0.75606 0.09969 0.0
C9685 C 0.23911 0.75561 0.09778 0.0
C9686 C 0.2283 0.76102 0.097 0.0
C9687 C 0.22636 0.76912 0.08911 0.0
C9688 C 0.21622 0.77432 0.0886 0.0
C9689 C 0.20794 0.77145 0.09589 0.0
C9690 C 0.20977 0.76336 0.1037 0.0
C9691 C 0.21989 0.75813 0.10426 0.0
H9692 H 0.2001 0.7755 0.09549 0.0
H9693 H 0.29806 0.72547 0.10683 0.0
H9694 H 0.15921 0.45267 1e-05 0.0
H9695 H 0.16189 0.47249 0.00169 0.0
H9696 H 0.12729 0.47751 0.99785 0.0
H9697 H 0.1245 0.4579 0.99632 0.0
H9698 H 0.14129 0.48886 0.98258 0.0
H9699 H 0.13642 0.48235 0.02126 0.0
H9700 H 0.14068 0.47418 0.03914 0.0
H9701 H 0.17311 0.48736 0.03763 0.0
H9702 H 0.16906 0.49552 0.01967 0.0
H9703 H 0.1278 0.5431 0.99324 0.0
H9704 H 0.12993 0.52343 0.99233 0.0
H9705 H 0.16301 0.52632 0.00405 0.0
H9706 H 0.16077 0.54617 0.00539 0.0
H9707 H 0.15297 0.51069 0.01458 0.0
H9708 H 0.15693 0.51928 0.97679 0.0
H9709 H 0.15234 0.52774 0.95913 0.0
H9710 H 0.12178 0.51061 0.95865 0.0
H9711 H 0.12611 0.50216 0.97637 0.0
C9712 C 0.15217 0.458 -0.0003 0.0
C9713 C 0.14166 0.45372 0.99791 0.0
C9714 C 0.15371 0.46929 0.00068 0.0
C9715 C 0.14478 0.47641 -0.00016 0.0
C9716 C 0.13428 0.47212 0.99848 0.0
C9717 C 0.13272 0.4609 0.9976 0.0
C9718 C 0.14634 0.48836 -0.00063 0.0
C9719 C 0.14381 0.49367 0.98957 0.0
C9720 C 0.14998 0.49452 0.0084 0.0
C9721 C 0.1525 0.48939 0.01905 0.0
C9722 C 0.14451 0.48338 0.02467 0.0
C9723 C 0.14687 0.47879 0.03484 0.0
C9724 C 0.15718 0.48021 0.0395 0.0
C9725 C 0.16514 0.48624 0.034 0.0
C9726 C 0.16282 0.49085 0.02383 0.0
C9727 C 0.13559 0.53961 0.9955 0.0
C9728 C 0.14413 0.54622 -0.00063 0.0
C9729 C 0.13682 0.52832 0.99491 0.0
C9730 C 0.1467 0.52337 0.99794 0.0
C9731 C 0.15533 0.52996 0.00163 0.0
C9732 C 0.15406 0.54129 0.00235 0.0
C9733 C 0.14766 0.51129 0.99782 0.0
C9734 C 0.15067 0.50592 0.00749 0.0
C9735 C 0.14448 0.50504 0.98863 0.0
C9736 C 0.14183 0.51013 0.97795 0.0
C9737 C 0.1492 0.51737 0.97296 0.0
C9738 C 0.14665 0.52216 0.96292 0.0
C9739 C 0.13677 0.51972 0.95777 0.0
C9740 C 0.12943 0.51249 0.96264 0.0
C9741 C 0.13194 0.50768 0.97267 0.0
H9742 H 0.13481 0.52343 0.95001 0.0
H9743 H 0.15898 0.47667 0.04738 0.0
H9744 H 0.29391 0.88786 0.26494 0.0
H9745 H 0.27412 0.89012 0.2651 0.0
H9746 H 0.2756 0.90613 0.23379 0.0
H9747 H 0.29543 0.90408 0.23365 0.0
H9748 H 0.26081 0.91584 0.24678 0.0
H9749 H 0.269 0.87954 0.23529 0.0
H9750 H 0.27754 0.86135 0.23625 0.0
H9751 H 0.26081 0.8549 0.26635 0.0
H9752 H 0.2523 0.87313 0.26566 0.0
H9753 H 0.20446 0.90304 0.23261 0.0
H9754 H 0.22448 0.90406 0.23241 0.0
H9755 H 0.22532 0.89542 0.26648 0.0
H9756 H 0.20544 0.89464 0.26687 0.0
H9757 H 0.23876 0.88215 0.25117 0.0
H9758 H 0.23099 0.9192 0.26236 0.0
H9759 H 0.22215 0.93717 0.26042 0.0
H9760 H 0.23779 0.9417 0.2294 0.0
H9761 H 0.24661 0.92366 0.23109 0.0
C9762 C 0.29005 0.89198 0.25815 0.0
C9763 C 0.29624 0.89569 0.24923 0.0
C9764 C 0.27873 0.89323 0.25823 0.0
C9765 C 0.27338 0.89811 0.24936 0.0
C9766 C 0.27957 0.9023 0.2407 0.0
C9767 C 0.2909 0.9011 0.24062 0.0
C9768 C 0.2613 0.89838 0.24891 0.0
C9769 C 0.256 0.90845 0.24761 0.0
C9770 C 0.25501 0.88874 0.25003 0.0
C9771 C 0.2601 0.87776 0.25048 0.0
C9772 C 0.26722 0.87428 0.24216 0.0
C9773 C 0.27204 0.86396 0.24265 0.0
C9774 C 0.26974 0.85698 0.25137 0.0
C9775 C 0.2626 0.86032 0.25961 0.0
C9776 C 0.25777 0.87064 0.25917 0.0
C9777 C 0.20891 0.90151 0.24008 0.0
C9778 C 0.20337 0.89877 0.24975 0.0
C9779 C 0.22032 0.90209 0.23995 0.0
C9780 C 0.2263 0.89978 0.24943 0.0
C9781 C 0.2208 0.89721 0.2591 0.0
C9782 C 0.20944 0.89683 0.2593 0.0
C9783 C 0.23834 0.89959 0.24922 0.0
C9784 C 0.24361 0.88951 0.25034 0.0
C9785 C 0.24457 0.90918 0.24779 0.0
C9786 C 0.23935 0.92004 0.24679 0.0
C9787 C 0.23246 0.92398 0.25507 0.0
C9788 C 0.22747 0.93419 0.25403 0.0
C9789 C 0.22938 0.94056 0.24477 0.0
C9790 C 0.23631 0.93675 0.23656 0.0
C9791 C 0.24131 0.92654 0.23756 0.0
H9792 H 0.22551 0.94846 0.24398 0.0
H9793 H 0.27348 0.84899 0.25173 0.0
H9794 H 0.8532 0.04483 0.5145 0.0
H9795 H 0.8523 0.02491 0.51515 0.0
H9796 H 0.84807 0.02392 0.48022 0.0
H9797 H 0.84857 0.04383 0.47956 0.0
H9798 H 0.83588 0.00908 0.48889 0.0
H9799 H 0.87342 0.01957 0.49333 0.0
H9800 H 0.88917 0.02888 0.5017 0.0
H9801 H 0.88309 0.01236 0.53198 0.0
H9802 H 0.86719 0.00306 0.52384 0.0
H9803 H 0.85573 0.95434 0.48028 0.0
H9804 H 0.85385 0.9743 0.48029 0.0
H9805 H 0.85034 0.97403 0.51528 0.0
H9806 H 0.85202 0.95419 0.51536 0.0
H9807 H 0.86617 0.98921 0.50694 0.0
H9808 H 0.8288 0.97844 0.502 0.0
H9809 H 0.8137 0.96859 0.49308 0.0
H9810 H 0.82033 0.98531 0.46302 0.0
H9811 H 0.8356 0.99514 0.47173 0.0
C9812 C 0.85194 0.04037 0.50697 0.0
C9813 C 0.85102 0.04592 0.49697 0.0
C9814 C 0.85151 0.02897 0.50735 0.0
C9815 C 0.85038 0.02288 0.4977 0.0
C9816 C 0.849 0.02842 0.48777 0.0
C9817 C 0.84928 0.03983 0.48741 0.0
C9818 C 0.85092 0.01074 0.49787 0.0
C9819 C 0.84258 0.00476 0.49274 0.0
C9820 C 0.85956 0.00503 0.50306 0.0
C9821 C 0.86903 0.01072 0.50801 0.0
C9822 C 0.87538 0.018 0.5018 0.0
C9823 C 0.88434 0.02326 0.5065 0.0
C9824 C 0.88711 0.02124 0.51737 0.0
C9825 C 0.88092 0.01394 0.52357 0.0
C9826 C 0.87193 0.00867 0.51891 0.0
C9827 C 0.85448 0.95853 0.48795 0.0
C9828 C 0.854 0.95267 0.4978 0.0
C9829 C 0.85339 0.96991 0.48795 0.0
C9830 C 0.85194 0.9756 0.49779 0.0
C9831 C 0.85145 0.96978 0.50761 0.0
C9832 C 0.85237 0.95843 0.50761 0.0
C9833 C 0.8512 0.98766 0.49792 0.0
C9834 C 0.85949 0.99358 0.50312 0.0
C9835 C 0.8426 0.9933 0.49273 0.0
C9836 C 0.83342 0.98743 0.48748 0.0
C9837 C 0.82711 0.97994 0.49346 0.0
C9838 C 0.8185 0.97438 0.48845 0.0
C9839 C 0.81608 0.9763 0.47748 0.0
C9840 C 0.82223 0.98381 0.47151 0.0
C9841 C 0.83086 0.98939 0.47648 0.0
H9842 H 0.80941 0.97199 0.47362 0.0
H9843 H 0.89406 0.02531 0.52099 0.0
H9844 H 0.70465 0.59421 0.76663 0.0
H9845 H 0.72467 0.59408 0.76687 0.0
H9846 H 0.72512 0.60846 0.73471 0.0
H9847 H 0.70532 0.60813 0.73423 0.0
H9848 H 0.73907 0.59348 0.73497 0.0
H9849 H 0.73075 0.62287 0.75911 0.0
H9850 H 0.72285 0.63246 0.77493 0.0
H9851 H 0.74032 0.61131 0.79671 0.0
H9852 H 0.74816 0.60144 0.78102 0.0
H9853 H 0.79362 0.61393 0.73433 0.0
H9854 H 0.77379 0.61181 0.73462 0.0
H9855 H 0.77628 0.59157 0.7633 0.0
H9856 H 0.79612 0.59365 0.76309 0.0
H9857 H 0.76118 0.60853 0.76531 0.0
H9858 H 0.77001 0.57999 0.73944 0.0
H9859 H 0.77845 0.57254 0.72275 0.0
H9860 H 0.76026 0.59522 0.70321 0.0
H9861 H 0.75183 0.6029 0.71979 0.0
C9862 C 0.70906 0.5973 0.75962 0.0
C9863 C 0.70342 0.60109 0.75039 0.0
C9864 C 0.72048 0.5973 0.75979 0.0
C9865 C 0.72643 0.60135 0.75084 0.0
C9866 C 0.72076 0.60522 0.74169 0.0
C9867 C 0.70941 0.60502 0.74143 0.0
C9868 C 0.73855 0.6013 0.75074 0.0
C9869 C 0.74386 0.59689 0.74158 0.0
C9870 C 0.74488 0.60559 0.75941 0.0
C9871 C 0.73991 0.6113 0.76887 0.0
C9872 C 0.73279 0.62016 0.76727 0.0
C9873 C 0.72834 0.62567 0.77622 0.0
C9874 C 0.73104 0.62247 0.78682 0.0
C9875 C 0.73819 0.61375 0.78849 0.0
C9876 C 0.74263 0.60818 0.77957 0.0
C9877 C 0.78997 0.6089 0.74061 0.0
C9878 C 0.79645 0.60396 0.74869 0.0
C9879 C 0.77864 0.60769 0.74076 0.0
C9880 C 0.7736 0.6015 0.74896 0.0
C9881 C 0.78004 0.59638 0.7569 0.0
C9882 C 0.79137 0.59753 0.75673 0.0
C9883 C 0.76156 0.60081 0.74955 0.0
C9884 C 0.7563 0.60508 0.75878 0.0
C9885 C 0.75527 0.59668 0.74083 0.0
C9886 C 0.76035 0.59207 0.73086 0.0
C9887 C 0.76788 0.58344 0.73159 0.0
C9888 C 0.77265 0.57917 0.72215 0.0
C9889 C 0.76991 0.58342 0.71193 0.0
C9890 C 0.76238 0.59194 0.71113 0.0
C9891 C 0.75759 0.59625 0.72054 0.0
H9892 H 0.77361 0.58009 0.70463 0.0
H9893 H 0.72762 0.62677 0.79373 0.0
H9894 H 0.49271 0.6244 0.45877 0.0
H9895 H 0.49426 0.6282 0.47818 0.0
H9896 H 0.49957 0.66229 0.47133 0.0
H9897 H 0.49795 0.65858 0.45165 0.0
H9898 H 0.51412 0.6514 0.48829 0.0
H9899 H 0.47634 0.65766 0.4794 0.0
H9900 H 0.45902 0.65289 0.47035 0.0
H9901 H 0.45736 0.62313 0.48876 0.0
H9902 H 0.47478 0.62764 0.4978 0.0
H9903 H 0.50824 0.65834 0.54607 0.0
H9904 H 0.50589 0.66173 0.52649 0.0
H9905 H 0.49243 0.62944 0.52252 0.0
H9906 H 0.4946 0.62606 0.54197 0.0
H9907 H 0.48125 0.6437 0.51068 0.0
H9908 H 0.51906 0.63486 0.5169 0.0
H9909 H 0.53724 0.63718 0.5252 0.0
H9910 H 0.53962 0.66931 0.51144 0.0
H9911 H 0.52136 0.66724 0.50319 0.0
C9912 C 0.49428 0.63272 0.46132 0.0
C9913 C 0.49513 0.64121 0.45365 0.0
C9914 C 0.49516 0.63486 0.47243 0.0
C9915 C 0.49693 0.64552 0.47616 0.0
C9916 C 0.49819 0.65401 0.46857 0.0
C9917 C 0.49723 0.65188 0.45737 0.0
C9918 C 0.49697 0.64762 0.48804 0.0
C9919 C 0.50688 0.65005 0.49321 0.0
C9920 C 0.48757 0.64554 0.4944 0.0
C9921 C 0.47689 0.64298 0.48925 0.0
C9922 C 0.47231 0.65008 0.48149 0.0
C9923 C 0.46247 0.64742 0.47636 0.0
C9924 C 0.4571 0.6377 0.47897 0.0
C9925 C 0.46153 0.63066 0.48675 0.0
C9926 C 0.47138 0.63327 0.4919 0.0
C9927 C 0.50466 0.65202 0.54104 0.0
C9928 C 0.50167 0.6419 0.54557 0.0
C9929 C 0.50337 0.65395 0.52985 0.0
C9930 C 0.49908 0.6458 0.52302 0.0
C9931 C 0.49574 0.63586 0.52762 0.0
C9932 C 0.49704 0.63392 0.53875 0.0
C9933 C 0.49846 0.64728 0.51101 0.0
C9934 C 0.48843 0.64545 0.5058 0.0
C9935 C 0.5078 0.6497 0.50463 0.0
C9936 C 0.51878 0.65096 0.50957 0.0
C9937 C 0.52342 0.64246 0.51573 0.0
C9938 C 0.53374 0.64372 0.52041 0.0
C9939 C 0.53956 0.6534 0.51889 0.0
C9940 C 0.53508 0.66183 0.51264 0.0
C9941 C 0.52475 0.66062 0.50797 0.0
H9942 H 0.54756 0.65436 0.52251 0.0
H9943 H 0.4495 0.63565 0.47497 0.0
H9944 H 0.01653 0.34491 0.04483 0.0
H9945 H 0.0167 0.34393 0.02486 0.0
H9946 H 0.9834 0.35541 0.02403 0.0
H9947 H 0.98303 0.35592 0.04385 0.0
H9948 H 0.98527 0.34066 0.00971 0.0
H9949 H 0.00612 0.37267 0.01814 0.0
H9950 H 0.02064 0.3835 0.02691 0.0
H9951 H 0.04501 0.36318 0.01202 0.0
H9952 H 0.03059 0.35211 0.00332 0.0
H9953 H 0.98457 0.36224 0.95539 0.0
H9954 H 0.98441 0.35979 0.97521 0.0
H9955 H 0.01451 0.34166 0.97329 0.0
H9956 H 0.01472 0.344 0.95348 0.0
H9957 H 0.01473 0.35881 0.98871 0.0
H9958 H 0.99179 0.3283 0.97853 0.0
H9959 H 0.9761 0.31967 0.96936 0.0
H9960 H 0.95406 0.33995 0.98755 0.0
H9961 H 0.96963 0.34882 0.99672 0.0
C9962 C 0.00924 0.34714 0.04037 0.0
C9963 C -0.00021 0.3505 0.04592 0.0
C9964 C 0.00936 0.34666 0.02896 0.0
C9965 C 0.00011 0.34977 0.02291 0.0
C9966 C 0.99063 0.35294 0.02848 0.0
C9967 C 0.99045 0.35325 0.03984 0.0
C9968 C 0.00025 0.34983 0.01078 0.0
C9969 C 0.99167 0.34472 0.00515 0.0
C9970 C 0.00863 0.35503 0.00476 0.0
C9971 C 0.0173 0.36155 0.01012 0.0
C9972 C 0.01457 0.37047 0.0168 0.0
C9973 C 0.02278 0.37665 0.02176 0.0
C9974 C 0.03374 0.37402 0.02003 0.0
C9975 C 0.03652 0.3652 0.01336 0.0
C9976 C 0.02833 0.35898 0.0084 0.0
C9977 C 0.99108 0.3576 0.95916 0.0
C9978 C -0.00035 0.35331 0.95286 0.0
C9979 C 0.99097 0.35621 0.97048 0.0
C9980 C -0.00056 0.35053 0.97569 0.0
C9981 C 0.0079 0.34606 0.96941 0.0
C9982 C 0.00796 0.34736 0.95809 0.0
C9983 C -0.00027 0.34969 0.98773 0.0
C9984 C 0.00839 0.35468 0.99332 0.0
C9985 C 0.99125 0.34466 0.99371 0.0
C9986 C 0.98189 0.33928 0.98824 0.0
C9987 C 0.9836 0.33098 0.98051 0.0
C9988 C 0.97473 0.32603 0.97533 0.0
C9989 C 0.96409 0.32928 0.97785 0.0
C9990 C 0.96231 0.33746 0.98559 0.0
C9991 C 0.97115 0.34243 0.9908 0.0
H9992 H 0.95724 0.32544 0.97382 0.0
H9993 H 0.04009 0.37882 0.02386 0.0
H9994 H 0.39671 0.73107 0.20336 0.0
H9995 H 0.3981 0.73102 0.22328 0.0
H9996 H 0.39727 0.76623 0.22348 0.0
H9997 H 0.39629 0.76635 0.20366 0.0
H9998 H 0.41101 0.75984 0.238 0.0
H9999 H 0.3743 0.75046 0.22897 0.0
H10000 H 0.35954 0.74015 0.22 0.0
H10001 H 0.36981 0.71089 0.23631 0.0
H10002 H 0.38475 0.721 0.24526 0.0
H10003 H 0.39189 0.7665 0.29321 0.0
H10004 H 0.39325 0.76649 0.27324 0.0
H10005 H 0.40136 0.73225 0.27374 0.0
H10006 H 0.40014 0.73219 0.29362 0.0
H10007 H 0.38417 0.73809 0.25911 0.0
H10008 H 0.42087 0.74918 0.26873 0.0
H10009 H 0.43437 0.7609 0.27797 0.0
H10010 H 0.42218 0.78886 0.26074 0.0
H10011 H 0.40851 0.77732 0.2515 0.0
C10012 C 0.39694 0.73879 0.20765 0.0
C10013 C 0.39633 0.7487 0.20193 0.0
C10014 C 0.39767 0.73876 0.21904 0.0
C10015 C 0.39759 0.74862 0.2249 0.0
C10016 C 0.39734 0.75852 0.21916 0.0
C10017 C 0.39676 0.75856 0.2078 0.0
C10018 C 0.39742 0.7487 0.23701 0.0
C10019 C 0.40507 0.75515 0.2426 0.0
C10020 C 0.3897 0.74258 0.24304 0.0
C10021 C 0.38072 0.73646 0.23768 0.0
C10022 C 0.37347 0.74181 0.23057 0.0
C10023 C 0.36506 0.736 0.2255 0.0
C10024 C 0.36376 0.72486 0.22756 0.0
C10025 C 0.37085 0.71951 0.23471 0.0
C10026 C 0.37928 0.72528 0.23978 0.0
C10027 C 0.39406 0.759 0.28907 0.0
C10028 C 0.39593 0.74936 0.29499 0.0
C10029 C 0.39484 0.75901 0.27768 0.0
C10030 C 0.39742 0.74936 0.27207 0.0
C10031 C 0.39936 0.73977 0.27795 0.0
C10032 C 0.39871 0.73977 0.28931 0.0
C10033 C 0.39778 0.74915 0.26002 0.0
C10034 C 0.39013 0.74272 0.25447 0.0
C10035 C 0.40532 0.75549 0.25403 0.0
C10036 C 0.41361 0.7624 0.2595 0.0
C10037 C 0.42102 0.75784 0.26698 0.0
C10038 C 0.42871 0.76445 0.2722 0.0
C10039 C 0.42912 0.77562 0.26997 0.0
C10040 C 0.42185 0.78021 0.26247 0.0
C10041 C 0.41414 0.77363 0.25723 0.0
H10042 H 0.43508 0.78072 0.27402 0.0
H10043 H 0.35724 0.72038 0.22363 0.0
H10044 H 0.01307 0.13391 0.45584 0.0
H10045 H 0.01317 0.1365 0.47558 0.0
H10046 H 0.98612 0.15886 0.47293 0.0
H10047 H 0.986 0.15639 0.45311 0.0
H10048 H 0.00114 0.1657 0.48812 0.0
H10049 H 0.98116 0.13334 0.47989 0.0
H10050 H 0.97786 0.11545 0.47131 0.0
H10051 H 0.00509 0.10188 0.48867 0.0
H10052 H 0.00868 0.11976 0.49722 0.0
H10053 H 0.98396 0.15609 0.54484 0.0
H10054 H 0.98357 0.15677 0.52478 0.0
H10055 H 0.01586 0.14288 0.52363 0.0
H10056 H 0.01649 0.1425 0.54354 0.0
H10057 H 0.99679 0.13221 0.51049 0.0
H10058 H 0.01725 0.16542 0.51754 0.0
H10059 H 0.01996 0.18338 0.52619 0.0
H10060 H 0.99062 0.19524 0.51116 0.0
H10061 H 0.98764 0.17726 0.50256 0.0
C10062 C 0.00722 0.13949 0.45942 0.0
C10063 C -0.00055 0.14486 0.45291 0.0
C10064 C 0.00727 0.14093 0.47071 0.0
C10065 C -0.00048 0.14772 0.47573 0.0
C10066 C 0.99213 0.15354 0.46922 0.0
C10067 C 0.99207 0.1521 0.4579 0.0
C10068 C 0.99884 0.14827 0.48779 0.0
C10069 C 5e-05 0.1584 0.493 0.0
C10070 C 0.99744 0.13873 0.49417 0.0
C10071 C 0.99525 0.12792 0.48912 0.0
C10072 C 0.9865 0.12657 0.48182 0.0
C10073 C 0.98457 0.11643 0.47697 0.0
C10074 C 0.99128 0.10754 0.47942 0.0
C10075 C -9e-05 0.10878 0.48676 0.0
C10076 C 0.0019 0.11891 0.49162 0.0
C10077 C 0.99103 0.15334 0.54029 0.0
C10078 C 0.00028 0.14932 0.54575 0.0
C10079 C 0.99078 0.15371 0.52887 0.0
C10080 C -0.00031 0.14985 0.52279 0.0
C10081 C 0.00893 0.1459 0.52822 0.0
C10082 C 0.00929 0.14576 0.53959 0.0
C10083 C 0.9993 0.14959 0.51075 0.0
C10084 C 0.99783 0.1395 0.50557 0.0
C10085 C 0.00036 0.15916 0.50443 0.0
C10086 C 0.00214 0.16996 0.50954 0.0
C10087 C 0.01131 0.17182 0.51619 0.0
C10088 C 0.01291 0.18201 0.52105 0.0
C10089 C 0.00545 0.19044 0.51926 0.0
C10090 C 0.99638 0.1887 0.51256 0.0
C10091 C 0.99473 0.17851 0.50769 0.0
H10092 H 0.0067 0.19832 0.52303 0.0
H10093 H 0.98977 0.0997 0.47566 0.0
H10094 H 0.08863 0.24359 0.70106 0.0
H10095 H 0.08578 0.24377 0.72095 0.0
H10096 H 0.11884 0.25481 0.7256 0.0
H10097 H 0.12165 0.25503 0.7059 0.0
H10098 H 0.10788 0.23242 0.73673 0.0
H10099 H 0.10816 0.27244 0.73163 0.0
H10100 H 0.1011 0.28936 0.72334 0.0
H10101 H 0.06896 0.28193 0.73518 0.0
H10102 H 0.07583 0.26483 0.74335 0.0
H10103 H 0.12276 0.2446 0.79025 0.0
H10104 H 0.11975 0.2434 0.77071 0.0
H10105 H 0.08582 0.25169 0.7753 0.0
H10106 H 0.08893 0.25338 0.79499 0.0
H10107 H 0.09366 0.26297 0.75919 0.0
H10108 H 0.09455 0.22512 0.76809 0.0
H10109 H 0.10165 0.20829 0.77653 0.0
H10110 H 0.13102 0.21096 0.75762 0.0
H10111 H 0.12419 0.22789 0.74919 0.0
C10112 C 0.09521 0.24622 0.70634 0.0
C10113 C 0.10533 0.24934 0.70194 0.0
C10114 C 0.09357 0.24633 0.71765 0.0
C10115 C 0.10209 0.24938 0.72465 0.0
C10116 C 0.11215 0.25256 0.72027 0.0
C10117 C 0.11371 0.25269 0.70902 0.0
C10118 C 0.10091 0.24852 0.73658 0.0
C10119 C 0.10476 0.23906 0.74169 0.0
C10120 C 0.09659 0.2571 0.74292 0.0
C10121 C 0.09245 0.26727 0.73789 0.0
C10122 C 0.09955 0.27432 0.73229 0.0
C10123 C 0.0956 0.28396 0.72767 0.0
C10124 C 0.08457 0.28669 0.72868 0.0
C10125 C 0.07749 0.27978 0.73435 0.0
C10126 C 0.0814 0.27011 0.73898 0.0
C10127 C 0.11462 0.24604 0.78715 0.0
C10128 C 0.10607 0.24905 0.79418 0.0
C10129 C 0.11288 0.24528 0.77595 0.0
C10130 C 0.1025 0.24724 0.77152 0.0
C10131 C 0.09389 0.25009 0.77853 0.0
C10132 C 0.09567 0.25102 0.78977 0.0
C10133 C 0.10092 0.24692 0.75951 0.0
C10134 C 0.09655 0.25617 0.75432 0.0
C10135 C 0.10477 0.2381 0.75309 0.0
C10136 C 0.10886 0.22782 0.75805 0.0
C10137 C 0.10255 0.22215 0.76578 0.0
C10138 C 0.10653 0.21259 0.77056 0.0
C10139 C 0.11679 0.20857 0.76763 0.0
C10140 C 0.12308 0.21409 0.75989 0.0
C10141 C 0.11915 0.22366 0.75509 0.0
H10142 H 0.11985 0.20117 0.77135 0.0
H10143 H 0.08153 0.29417 0.72511 0.0
H10144 H 0.5005 0.34049 0.54618 0.0
H10145 H 0.50242 0.33826 0.52637 0.0
H10146 H 0.49535 0.37243 0.52183 0.0
H10147 H 0.49356 0.37479 0.54148 0.0
H10148 H 0.48182 0.35778 0.50984 0.0
H10149 H 0.5199 0.3648 0.51766 0.0
H10150 H 0.5376 0.36138 0.5266 0.0
H10151 H 0.5385 0.32915 0.51289 0.0
H10152 H 0.52073 0.33234 0.50397 0.0
H10153 H 0.4948 0.37295 0.45627 0.0
H10154 H 0.4929 0.37043 0.4759 0.0
H10155 H 0.50441 0.33729 0.4729 0.0
H10156 H 0.50644 0.33978 0.45318 0.0
H10157 H 0.51506 0.34819 0.48883 0.0
H10158 H 0.47812 0.34194 0.4791 0.0
H10159 H 0.46035 0.34516 0.47025 0.0
H10160 H 0.45691 0.37535 0.48769 0.0
H10161 H 0.47473 0.37241 0.49653 0.0
C10162 C 0.49952 0.34755 0.54096 0.0
C10163 C 0.49681 0.3578 0.54538 0.0
C10164 C 0.50063 0.34626 0.52967 0.0
C10165 C 0.49896 0.35518 0.5227 0.0
C10166 C 0.49663 0.36546 0.52712 0.0
C10167 C 0.49564 0.36678 0.53835 0.0
C10168 C 0.49889 0.35378 0.51075 0.0
C10169 C 0.48909 0.35575 0.50521 0.0
C10170 C 0.50829 0.35071 0.50484 0.0
C10171 C 0.51891 0.34875 0.51028 0.0
C10172 C 0.52381 0.35694 0.51666 0.0
C10173 C 0.53387 0.35506 0.52169 0.0
C10174 C 0.53915 0.34504 0.52035 0.0
C10175 C 0.53439 0.33689 0.51394 0.0
C10176 C 0.52433 0.33874 0.50889 0.0
C10177 C 0.4968 0.36508 0.45974 0.0
C10178 C 0.50079 0.35657 0.45317 0.0
C10179 C 0.49567 0.36363 0.47097 0.0
C10180 C 0.49844 0.35365 0.47583 0.0
C10181 C 0.50221 0.34505 0.46928 0.0
C10182 C 0.50332 0.34648 0.45802 0.0
C10183 C 0.49804 0.35253 0.48784 0.0
C10184 C 0.50773 0.35005 0.49343 0.0
C10185 C 0.4885 0.35509 0.49382 0.0
C10186 C 0.47782 0.35699 0.48841 0.0
C10187 C 0.47363 0.34932 0.48097 0.0
C10188 C 0.46353 0.35109 0.47597 0.0
C10189 C 0.45752 0.36047 0.47838 0.0
C10190 C 0.46158 0.3681 0.48582 0.0
C10191 C 0.47168 0.36638 0.49083 0.0
H10192 H 0.44969 0.36181 0.47451 0.0
H10193 H 0.54694 0.3436 0.52425 0.0
H10194 H 0.62441 0.75812 0.79027 0.0
H10195 H 0.62123 0.75693 0.7707 0.0
H10196 H 0.58776 0.74776 0.77649 0.0
H10197 H 0.59083 0.74907 0.79628 0.0
H10198 H 0.60075 0.73572 0.7583 0.0
H10199 H 0.58888 0.77117 0.77062 0.0
H10200 H 0.59088 0.788 0.78146 0.0
H10201 H 0.62049 0.79569 0.7644 0.0
H10202 H 0.61874 0.7788 0.75354 0.0
H10203 H 0.58849 0.74584 0.70304 0.0
H10204 H 0.58629 0.74755 0.72278 0.0
H10205 H 0.61803 0.76257 0.7251 0.0
H10206 H 0.62024 0.76107 0.70535 0.0
H10207 H 0.60311 0.7716 0.73954 0.0
H10208 H 0.61591 0.7358 0.72842 0.0
H10209 H 0.61376 0.71981 0.71638 0.0
H10210 H 0.58268 0.71282 0.73097 0.0
H10211 H 0.58454 0.72893 0.74294 0.0
C10212 C 0.61639 0.7557 0.78744 0.0
C10213 C 0.60783 0.75378 0.79483 0.0
C10214 C 0.61461 0.755 0.77625 0.0
C10215 C 0.60427 0.75231 0.77221 0.0
C10216 C 0.59581 0.74983 0.77951 0.0
C10217 C 0.59756 0.75064 0.79078 0.0
C10218 C 0.60223 0.75313 0.76037 0.0
C10219 C 0.60102 0.74356 0.7542 0.0
C10220 C 0.60278 0.76336 0.75506 0.0
C10221 C 0.60371 0.77369 0.76132 0.0
C10222 C 0.59585 0.77642 0.76922 0.0
C10223 C 0.59693 0.78597 0.77536 0.0
C10224 C 0.60581 0.7929 0.77363 0.0
C10225 C 0.61361 0.79031 0.76572 0.0
C10226 C 0.61257 0.78076 0.75955 0.0
C10227 C 0.59492 0.7497 0.70772 0.0
C10228 C 0.60462 0.75318 0.70265 0.0
C10229 C 0.59364 0.75067 0.71899 0.0
C10230 C 0.60207 0.75502 0.72539 0.0
C10231 C 0.61144 0.75917 0.72029 0.0
C10232 C 0.61271 0.75825 0.70901 0.0
C10233 C 0.60169 0.75421 0.73743 0.0
C10234 C 0.60258 0.76377 0.74364 0.0
C10235 C 0.60088 0.74398 0.74276 0.0
C10236 C 0.6003 0.73364 0.73647 0.0
C10237 C 0.60862 0.73084 0.72907 0.0
C10238 C 0.60741 0.72182 0.72219 0.0
C10239 C 0.598 0.71543 0.72278 0.0
C10240 C 0.5899 0.71787 0.73044 0.0
C10241 C 0.59103 0.72694 0.73728 0.0
H10242 H 0.59704 0.70848 0.71741 0.0
H10243 H 0.60665 0.80029 0.77841 0.0
H10244 H 0.45612 0.48218 0.64331 0.0
H10245 H 0.47593 0.48281 0.64393 0.0
H10246 H 0.47467 0.51656 0.65393 0.0
H10247 H 0.45469 0.51611 0.65286 0.0
H10248 H 0.48939 0.51426 0.63888 0.0
H10249 H 0.48183 0.49504 0.67199 0.0
H10250 H 0.47333 0.48088 0.68349 0.0
H10251 H 0.48924 0.45587 0.66479 0.0
H10252 H 0.49772 0.46988 0.65309 0.0
H10253 H 0.54606 0.5156 0.6515 0.0
H10254 H 0.52627 0.51543 0.65392 0.0
H10255 H 0.52452 0.4841 0.63799 0.0
H10256 H 0.54435 0.48424 0.63541 0.0
H10257 H 0.5116 0.48585 0.65727 0.0
H10258 H 0.51818 0.50508 0.62367 0.0
H10259 H 0.52618 0.51919 0.61176 0.0
H10260 H 0.51205 0.5443 0.6317 0.0
H10261 H 0.50407 0.53033 0.64381 0.0
C10262 C 0.46002 0.48972 0.64578 0.0
C10263 C 0.45381 0.49909 0.6481 0.0
C10264 C 0.47139 0.49005 0.64618 0.0
C10265 C 0.47683 0.49967 0.64918 0.0
C10266 C 0.47066 0.50902 0.65163 0.0
C10267 C 0.45924 0.50875 0.65106 0.0
C10268 C 0.48897 0.50004 0.64922 0.0
C10269 C 0.49423 0.50818 0.64311 0.0
C10270 C 0.49533 0.49195 0.6545 0.0
C10271 C 0.49035 0.48351 0.66162 0.0
C10272 C 0.48347 0.48652 0.67029 0.0
C10273 C 0.47866 0.47852 0.67685 0.0
C10274 C 0.48073 0.46748 0.67486 0.0
C10275 C 0.48764 0.46442 0.66633 0.0
C10276 C 0.49247 0.47239 0.65974 0.0
C10277 C 0.5415 0.5086 0.64862 0.0
C10278 C 0.54677 0.49993 0.64324 0.0
C10279 C 0.53019 0.50856 0.64996 0.0
C10280 C 0.52395 0.4998 0.64605 0.0
C10281 C 0.52921 0.49094 0.64104 0.0
C10282 C 0.54053 0.49104 0.63956 0.0
C10283 C 0.51191 0.50002 0.64693 0.0
C10284 C 0.50671 0.492 0.65319 0.0
C10285 C 0.50561 0.50824 0.64184 0.0
C10286 C 0.51061 0.51666 0.63471 0.0
C10287 C 0.51688 0.51361 0.62559 0.0
C10288 C 0.52139 0.52159 0.61879 0.0
C10289 C 0.51961 0.53263 0.62097 0.0
C10290 C 0.5134 0.53574 0.63001 0.0
C10291 C 0.50888 0.5278 0.63685 0.0
H10292 H 0.52298 0.53879 0.61562 0.0
H10293 H 0.47699 0.4613 0.67994 0.0
H10294 H 0.45389 0.98319 0.15421 0.0
H10295 H 0.47374 0.98388 0.15586 0.0
H10296 H 0.47385 0.01623 0.14196 0.0
H10297 H 0.45403 0.01548 0.14004 0.0
H10298 H 0.48846 0.00451 0.13219 0.0
H10299 H 0.47981 0.01141 0.16944 0.0
H10300 H 0.47109 0.0085 0.18733 0.0
H10301 H 0.48691 0.97737 0.19018 0.0
H10302 H 0.49563 0.98004 0.17224 0.0
H10303 H 0.54377 0.01703 0.14518 0.0
H10304 H 0.52387 0.01688 0.14643 0.0
H10305 H 0.52421 0.98191 0.15011 0.0
H10306 H 0.54419 0.98192 0.1486 0.0
H10307 H 0.50971 0.99509 0.16533 0.0
H10308 H 0.51822 0.98895 0.12734 0.0
H10309 H 0.52728 0.99307 0.10986 0.0
H10310 H 0.51169 0.02443 0.10898 0.0
H10311 H 0.50274 0.02061 0.1266 0.0
C10312 C 0.45811 0.99053 0.15168 0.0
C10313 C 0.45236 0.99928 0.14698 0.0
C10314 C 0.46949 0.99093 0.15265 0.0
C10315 C 0.47533 0.00013 0.14908 0.0
C10316 C 0.46955 0.00902 0.14474 0.0
C10317 C 0.4582 0.0086 0.14369 0.0
C10318 C 0.48749 0.00023 0.14924 0.0
C10319 C 0.49307 0.00261 0.13951 0.0
C10320 C 0.49357 0.99756 0.1587 0.0
C10321 C 0.48828 0.99588 0.16944 0.0
C10322 C 0.48135 0.0039 0.17384 0.0
C10323 C 0.47642 0.00231 0.184 0.0
C10324 C 0.47842 0.99274 0.18988 0.0
C10325 C 0.48536 0.98477 0.18561 0.0
C10326 C 0.49031 0.98632 0.17545 0.0
C10327 C 0.53964 0.0093 0.14639 0.0
C10328 C 0.54556 -0.00053 0.1468 0.0
C10329 C 0.52827 0.00925 0.14706 0.0
C10330 C 0.5226 0.99939 0.14832 0.0
C10331 C 0.52847 0.9896 0.14914 0.0
C10332 C 0.53986 0.98961 0.14826 0.0
C10333 C 0.51053 0.99934 0.14834 0.0
C10334 C 0.50501 0.99699 0.15807 0.0
C10335 C 0.5045 0.00219 0.13893 0.0
C10336 C 0.50991 0.00454 0.12836 0.0
C10337 C 0.51683 0.99678 0.12349 0.0
C10338 C 0.52193 0.99905 0.11354 0.0
C10339 C 0.52009 0.00902 0.10833 0.0
C10340 C 0.51311 0.01672 0.11303 0.0
C10341 C 0.50804 0.01451 0.123 0.0
H10342 H 0.52404 0.01076 0.10062 0.0
H10343 H 0.4746 0.99153 0.19775 0.0
H10344 H 0.45453 0.48767 0.36768 0.0
H10345 H 0.47436 0.48776 0.36593 0.0
H10346 H 0.47213 0.51103 0.33965 0.0
H10347 H 0.45219 0.51103 0.34133 0.0
H10348 H 0.48834 0.49432 0.33651 0.0
H10349 H 0.47752 0.52094 0.36293 0.0
H10350 H 0.46745 0.52771 0.37898 0.0
H10351 H 0.48379 0.5043 0.3993 0.0
H10352 H 0.49381 0.49727 0.38333 0.0
H10353 H 0.54618 0.50285 0.34314 0.0
H10354 H 0.52663 0.5064 0.34057 0.0
H10355 H 0.51962 0.48897 0.37037 0.0
H10356 H 0.53899 0.48585 0.37318 0.0
H10357 H 0.50794 0.50627 0.36985 0.0
H10358 H 0.51694 0.47811 0.34313 0.0
H10359 H 0.5266 0.47084 0.32703 0.0
H10360 H 0.51358 0.49672 0.30732 0.0
H10361 H 0.50397 0.50423 0.32335 0.0
C10362 C 0.45821 0.4927 0.36141 0.0
C10363 C 0.45179 0.49944 0.35474 0.0
C10364 C 0.46955 0.49275 0.36044 0.0
C10365 C 0.47468 0.49953 0.35278 0.0
C10366 C 0.46829 0.50578 0.34564 0.0
C10367 C 0.45692 0.50578 0.34664 0.0
C10368 C 0.4867 0.50058 0.35283 0.0
C10369 C 0.49267 0.49708 0.34372 0.0
C10370 C 0.49228 0.50421 0.36225 0.0
C10371 C 0.48637 0.50853 0.37191 0.0
C10372 C 0.47891 0.51719 0.37081 0.0
C10373 C 0.47321 0.52108 0.37989 0.0
C10374 C 0.47497 0.51643 0.39015 0.0
C10375 C 0.48243 0.5079 0.39135 0.0
C10376 C 0.48814 0.50396 0.38228 0.0
C10377 C 0.54044 0.49983 0.34914 0.0
C10378 C 0.54411 0.49408 0.35837 0.0
C10379 C 0.52927 0.50181 0.34764 0.0
C10380 C 0.52162 0.49785 0.35521 0.0
C10381 C 0.52534 0.49217 0.36443 0.0
C10382 C 0.53644 0.49036 0.36602 0.0
C10383 C 0.50969 0.49945 0.35373 0.0
C10384 C 0.50368 0.50359 0.36257 0.0
C10385 C 0.50411 0.49637 0.34407 0.0
C10386 C 0.50986 0.49181 0.33446 0.0
C10387 C 0.51621 0.4823 0.33538 0.0
C10388 C 0.52166 0.47813 0.32627 0.0
C10389 C 0.52073 0.48334 0.31617 0.0
C10390 C 0.51432 0.49271 0.31515 0.0
C10391 C 0.50887 0.49693 0.32425 0.0
H10392 H 0.52496 0.4801 0.30912 0.0
H10393 H 0.47055 0.51945 0.39718 0.0
H10394 H 0.54271 0.98307 0.85689 0.0
H10395 H 0.52289 0.98371 0.85598 0.0
H10396 H 0.52445 0.01617 0.84242 0.0
H10397 H 0.54441 0.01574 0.84371 0.0
H10398 H 0.50931 0.01536 0.85752 0.0
H10399 H 0.51803 0.99281 0.82657 0.0
H10400 H 0.52681 0.9774 0.81703 0.0
H10401 H 0.50996 0.95473 0.83775 0.0
H10402 H 0.50118 0.97 0.8475 0.0
H10403 H 0.45283 0.0162 0.84429 0.0
H10404 H 0.47269 0.01606 0.8423 0.0
H10405 H 0.47411 0.98468 0.85817 0.0
H10406 H 0.45428 0.9847 0.86011 0.0
H10407 H 0.48764 0.98556 0.84074 0.0
H10408 H 0.47973 0.00752 0.87221 0.0
H10409 H 0.47088 0.02254 0.88227 0.0
H10410 H 0.48619 0.04595 0.86119 0.0
H10411 H 0.49502 0.03105 0.85089 0.0
C10412 C 0.53887 0.99032 0.85361 0.0
C10413 C 0.54515 0.99934 0.85031 0.0
C10414 C 0.5275 0.99066 0.85305 0.0
C10415 C 0.52215 -9e-05 0.84894 0.0
C10416 C 0.5284 0.00892 0.84558 0.0
C10417 C 0.5398 0.00865 0.84629 0.0
C10418 C 0.51002 0.00027 0.84851 0.0
C10419 C 0.50458 0.00895 0.85365 0.0
C10420 C 0.50382 0.99175 0.84374 0.0
C10421 C 0.509 0.98255 0.8378 0.0
C10422 C 0.51624 0.98454 0.82912 0.0
C10423 C 0.52121 0.97583 0.82368 0.0
C10424 C 0.51896 0.9651 0.8268 0.0
C10425 C 0.5117 0.96305 0.83535 0.0
C10426 C 0.50671 0.97172 0.84082 0.0
C10427 C 0.45735 0.00921 0.84724 0.0
C10428 C 0.45197 0.00048 0.8524 0.0
C10429 C 0.46871 0.00917 0.84616 0.0
C10430 C 0.47489 0.00042 0.85022 0.0
C10431 C 0.4695 0.99152 0.855 0.0
C10432 C 0.45816 0.99156 0.85612 0.0
C10433 C 0.48698 0.00062 0.84974 0.0
C10434 C 0.49239 0.99203 0.84447 0.0
C10435 C 0.49315 0.00918 0.85445 0.0
C10436 C 0.48793 0.01816 0.86069 0.0
C10437 C 0.48114 0.01587 0.86966 0.0
C10438 C 0.47614 0.02436 0.87541 0.0
C10439 C 0.47794 0.03519 0.87235 0.0
C10440 C 0.48479 0.03755 0.86354 0.0
C10441 C 0.4898 0.02909 0.85774 0.0
H10442 H 0.47406 0.04175 0.87681 0.0
H10443 H 0.52282 0.95837 0.82258 0.0
H10444 H 0.65895 0.95184 0.99558 0.0
H10445 H 0.66165 0.97171 0.99626 0.0
H10446 H 0.62755 0.97609 0.00373 0.0
H10447 H 0.62481 0.95641 0.00328 0.0
H10448 H 0.63601 0.98794 0.9848 0.0
H10449 H 0.64372 0.98042 0.02302 0.0
H10450 H 0.65382 0.9718 0.03813 0.0
H10451 H 0.68363 0.98622 0.02666 0.0
H10452 H 0.6737 0.99481 0.01139 0.0
H10453 H 0.62386 0.04062 0.00217 0.0
H10454 H 0.62676 0.02121 -0.00068 0.0
H10455 H 0.66161 0.02619 -0.00026 0.0
H10456 H 0.65875 0.04577 0.0028 0.0
H10457 H 0.65624 0.00953 0.01241 0.0
H10458 H 0.64851 0.01928 0.97589 0.0
H10459 H 0.63902 0.02773 0.9603 0.0
H10460 H 0.61025 0.00905 0.96743 0.0
H10461 H 0.6195 0.00061 0.98318 0.0
C10462 C 0.65208 0.95704 0.99753 0.0
C10463 C 0.64165 0.95255 -0.00069 0.0
C10464 C 0.65364 0.96836 0.99792 0.0
C10465 C 0.64477 0.97531 -2e-05 0.0
C10466 C 0.63447 0.97083 0.00209 0.0
C10467 C 0.63294 0.95957 0.00186 0.0
C10468 C 0.64592 0.9873 -0.00074 0.0
C10469 C 0.64038 0.99271 0.99085 0.0
C10470 C 0.65203 0.99339 0.00689 0.0
C10471 C 0.658 0.98811 0.01597 0.0
C10472 C 0.65245 0.98163 0.02364 0.0
C10473 C 0.65814 0.97679 0.03226 0.0
C10474 C 0.66937 0.97842 0.03333 0.0
C10475 C 0.67493 0.98493 0.0258 0.0
C10476 C 0.66928 0.9898 0.01717 0.0
C10477 C 0.63216 0.03764 0.00157 0.0
C10478 C 0.64108 0.04475 0.00275 0.0
C10479 C 0.6338 0.02652 -0.00015 0.0
C10480 C 0.6444 0.02225 0.99916 0.0
C10481 C 0.65336 0.02933 0.00019 0.0
C10482 C 0.65171 0.0405 0.00192 0.0
C10483 C 0.64596 0.01028 0.99814 0.0
C10484 C 0.65202 0.00483 0.0062 0.0
C10485 C 0.64041 0.00412 0.9901 0.0
C10486 C 0.6347 0.00936 0.98078 0.0
C10487 C 0.64012 0.01706 0.97421 0.0
C10488 C 0.63479 0.02182 0.96533 0.0
C10489 C 0.62403 0.01894 0.96289 0.0
C10490 C 0.61858 0.01128 0.96934 0.0
C10491 C 0.62387 0.00649 0.97824 0.0
H10492 H 0.61993 0.02262 0.95599 0.0
H10493 H 0.67376 0.97468 0.04001 0.0
H10494 H 0.70399 0.40201 0.23209 0.0
H10495 H 0.72395 0.40291 0.23216 0.0
H10496 H 0.72416 0.39556 0.26661 0.0
H10497 H 0.7043 0.39517 0.26668 0.0
H10498 H 0.7388 0.40965 0.26315 0.0
H10499 H 0.72936 0.37604 0.24601 0.0
H10500 H 0.72057 0.3637 0.23278 0.0
H10501 H 0.73754 0.37948 0.2065 0.0
H10502 H 0.74628 0.39206 0.21957 0.0
H10503 H 0.79343 0.38858 0.26595 0.0
H10504 H 0.77357 0.39073 0.26605 0.0
H10505 H 0.77493 0.40552 0.23416 0.0
H10506 H 0.79477 0.40348 0.234 0.0
H10507 H 0.75979 0.38806 0.2361 0.0
H10508 H 0.76979 0.42126 0.25512 0.0
H10509 H 0.77902 0.43171 0.26962 0.0
H10510 H 0.76124 0.41391 0.29401 0.0
H10511 H 0.75201 0.40325 0.27965 0.0
C10512 C 0.70831 0.40071 0.23969 0.0
C10513 C 0.70259 0.39851 0.24937 0.0
C10514 C 0.71972 0.40114 0.23971 0.0
C10515 C 0.72559 0.39908 0.24935 0.0
C10516 C 0.71984 0.39717 0.25906 0.0
C10517 C 0.70847 0.39695 0.25909 0.0
C10518 C 0.73772 0.39878 0.24935 0.0
C10519 C 0.74336 0.40483 0.25729 0.0
C10520 C 0.74373 0.39256 0.24166 0.0
C10521 C 0.73837 0.38509 0.23376 0.0
C10522 C 0.73113 0.37696 0.2374 0.0
C10523 C 0.72617 0.36991 0.22993 0.0
C10524 C 0.72846 0.37083 0.21881 0.0
C10525 C 0.73574 0.3788 0.21512 0.0
C10526 C 0.7407 0.3859 0.22256 0.0
C10527 C 0.78952 0.39242 0.25902 0.0
C10528 C 0.79568 0.39586 0.24997 0.0
C10529 C 0.77818 0.39365 0.2591 0.0
C10530 C 0.77281 0.39829 0.25012 0.0
C10531 C 0.77894 0.40191 0.24117 0.0
C10532 C 0.79028 0.40079 0.24112 0.0
C10533 C 0.76076 0.39894 0.24985 0.0
C10534 C 0.75517 0.39292 0.24189 0.0
C10535 C 0.75479 0.40493 0.25768 0.0
C10536 C 0.76028 0.4114 0.26631 0.0
C10537 C 0.76791 0.41952 0.26358 0.0
C10538 C 0.77313 0.42549 0.27177 0.0
C10539 C 0.77074 0.42346 0.28273 0.0
C10540 C 0.7631 0.41547 0.28552 0.0
C10541 C 0.75786 0.40947 0.27735 0.0
H10542 H 0.77479 0.42809 0.28906 0.0
H10543 H 0.72463 0.36535 0.21304 0.0
H10544 H 0.37086 0.4583 0.49541 0.0
H10545 H 0.36812 0.47797 0.49553 0.0
H10546 H 0.33469 0.47347 0.5055 0.0
H10547 H 0.33741 0.45355 0.50562 0.0
H10548 H 0.34007 0.49015 0.4871 0.0
H10549 H 0.34836 0.4804 0.52425 0.0
H10550 H 0.3588 0.47068 0.53843 0.0
H10551 H 0.38798 0.48744 0.52868 0.0
H10552 H 0.37776 0.4971 0.51429 0.0
H10553 H 0.34011 0.54821 0.49559 0.0
H10554 H 0.3364 0.52876 0.49867 0.0
H10555 H 0.371 0.52224 0.49897 0.0
H10556 H 0.37474 0.5415 0.49609 0.0
H10557 H 0.36137 0.51099 0.51453 0.0
H10558 H 0.35519 0.51795 0.47629 0.0
H10559 H 0.3465 0.52685 0.46048 0.0
H10560 H 0.3152 0.51493 0.47076 0.0
H10561 H 0.3237 0.50608 0.48673 0.0
C10562 C 0.36287 0.46142 0.49753 0.0
C10563 C 0.35436 0.45434 0.50056 0.0
C10564 C 0.36133 0.47269 0.4976 0.0
C10565 C 0.35124 0.47713 0.50059 0.0
C10566 C 0.34255 0.47014 0.50319 0.0
C10567 C 0.34412 0.4588 0.50327 0.0
C10568 C 0.35016 0.48913 0.50143 0.0
C10569 C 0.34446 0.49475 0.49326 0.0
C10570 C 0.35615 0.49505 0.50931 0.0
C10571 C 0.36229 0.48943 0.51814 0.0
C10572 C 0.35702 0.48196 0.52508 0.0
C10573 C 0.3629 0.47646 0.53316 0.0
C10574 C 0.37405 0.47842 0.53445 0.0
C10575 C 0.37934 0.48592 0.52768 0.0
C10576 C 0.3735 0.49142 0.51956 0.0
C10577 C 0.34691 0.54263 0.49641 0.0
C10578 C 0.35772 0.5464 0.49553 0.0
C10579 C 0.34478 0.53152 0.49813 0.0
C10580 C 0.35342 0.52402 0.49897 0.0
C10581 C 0.36419 0.52785 0.49838 0.0
C10582 C 0.36631 0.53889 0.49668 0.0
C10583 C 0.35145 0.5121 0.50005 0.0
C10584 C 0.35667 0.50646 0.50855 0.0
C10585 C 0.34517 0.50616 0.49236 0.0
C10586 C 0.34005 0.5115 0.48279 0.0
C10587 C 0.34644 0.51732 0.47523 0.0
C10588 C 0.34155 0.52234 0.46623 0.0
C10589 C 0.3303 0.52149 0.46464 0.0
C10590 C 0.32391 0.5156 0.47202 0.0
C10591 C 0.32876 0.51059 0.48105 0.0
H10592 H 0.32653 0.52537 0.45766 0.0
H10593 H 0.37859 0.47415 0.54071 0.0
H10594 H 0.20199 0.09226 0.73286 0.0
H10595 H 0.22189 0.09068 0.73333 0.0
H10596 H 0.22275 0.10962 0.76298 0.0
H10597 H 0.20292 0.11129 0.76255 0.0
H10598 H 0.23673 0.11759 0.74848 0.0
H10599 H 0.22893 0.08282 0.76352 0.0
H10600 H 0.2207 0.06455 0.7652 0.0
H10601 H 0.23571 0.05479 0.73509 0.0
H10602 H 0.24393 0.07307 0.73315 0.0
H10603 H 0.29206 0.10746 0.76312 0.0
H10604 H 0.27215 0.10728 0.76277 0.0
H10605 H 0.27271 0.09465 0.72995 0.0
H10606 H 0.29276 0.09498 0.73013 0.0
H10607 H 0.25824 0.0834 0.74576 0.0
H10608 H 0.26642 0.11936 0.7318 0.0
H10609 H 0.27522 0.13745 0.73209 0.0
H10610 H 0.25979 0.14469 0.7627 0.0
H10611 H 0.251 0.12657 0.76266 0.0
C10612 C 0.2064 0.09594 0.73957 0.0
C10613 C 0.20085 0.10196 0.74763 0.0
C10614 C 0.21778 0.09501 0.73984 0.0
C10615 C 0.22382 0.10004 0.74818 0.0
C10616 C 0.21827 0.10571 0.75643 0.0
C10617 C 0.20691 0.10662 0.75619 0.0
C10618 C 0.23595 0.10002 0.74792 0.0
C10619 C 0.24142 0.1101 0.74801 0.0
C10620 C 0.24208 0.09027 0.74715 0.0
C10621 C 0.23692 0.07937 0.74811 0.0
C10622 C 0.23036 0.07683 0.75718 0.0
C10623 C 0.22573 0.06645 0.7582 0.0
C10624 C 0.22765 0.05852 0.75024 0.0
C10625 C 0.23421 0.06095 0.74124 0.0
C10626 C 0.23886 0.07132 0.74017 0.0
C10627 C 0.28798 0.1046 0.75582 0.0
C10628 C 0.29399 0.1012 0.74665 0.0
C10629 C 0.2766 0.10456 0.75564 0.0
C10630 C 0.27099 0.10099 0.74633 0.0
C10631 C 0.27693 0.09743 0.7372 0.0
C10632 C 0.28835 0.09764 0.73732 0.0
C10633 C 0.25892 0.10093 0.74626 0.0
C10634 C 0.25349 0.09086 0.74614 0.0
C10635 C 0.25282 0.11068 0.74722 0.0
C10636 C 0.25814 0.12156 0.74728 0.0
C10637 C 0.26498 0.12476 0.73864 0.0
C10638 C 0.26995 0.13503 0.73875 0.0
C10639 C 0.26809 0.1422 0.74742 0.0
C10640 C 0.26124 0.13912 0.75599 0.0
C10641 C 0.25625 0.12886 0.75593 0.0
H10642 H 0.27194 0.15015 0.74748 0.0
H10643 H 0.22407 0.05049 0.75106 0.0
H10644 H 0.90729 0.23628 0.29529 0.0
H10645 H 0.90943 0.23697 0.27546 0.0
H10646 H 0.88492 0.26216 0.27364 0.0
H10647 H 0.8827 0.26152 0.29342 0.0
H10648 H 0.88058 0.24574 0.25978 0.0
H10649 H 0.91096 0.26828 0.26831 0.0
H10650 H 0.92816 0.2739 0.27708 0.0
H10651 H 0.94464 0.24651 0.26273 0.0
H10652 H 0.92749 0.24064 0.25398 0.0
H10653 H 0.88959 0.26383 0.20531 0.0
H10654 H 0.8893 0.26285 0.22519 0.0
H10655 H 0.90704 0.23249 0.22407 0.0
H10656 H 0.90712 0.23324 0.204 0.0
H10657 H 0.91508 0.25074 0.2392 0.0
H10658 H 0.88358 0.22897 0.23016 0.0
H10659 H 0.8661 0.22488 0.22109 0.0
H10660 H 0.85146 0.25286 0.23627 0.0
H10661 H 0.8689 0.25721 0.24531 0.0
C10662 C 0.90247 0.24208 0.29069 0.0
C10663 C 0.89477 0.24879 0.29593 0.0
C10664 C 0.90373 0.24249 0.27936 0.0
C10665 C 0.89732 0.24961 0.27308 0.0
C10666 C 0.88991 0.25658 0.27833 0.0
C10667 C 0.88868 0.25622 0.28965 0.0
C10668 C 0.89777 0.24923 0.261 0.0
C10669 C 0.88811 0.24696 0.25529 0.0
C10670 C 0.90763 0.2506 0.25515 0.0
C10671 C 0.9179 0.25394 0.26061 0.0
C10672 C 0.91822 0.26337 0.26714 0.0
C10673 C 0.92797 0.26663 0.27207 0.0
C10674 C 0.93748 0.26055 0.2705 0.0
C10675 C 0.93726 0.2512 0.26396 0.0
C10676 C 0.92753 0.24791 0.25901 0.0
C10677 C 0.89349 0.25695 0.20927 0.0
C10678 C 0.89845 0.24863 0.2031 0.0
C10679 C 0.89325 0.25639 0.22062 0.0
C10680 C 0.89811 0.24759 0.22604 0.0
C10681 C 0.90323 0.23933 0.21997 0.0
C10682 C 0.90327 0.23977 0.20855 0.0
C10683 C 0.89792 0.24724 0.23808 0.0
C10684 C 0.9076 0.24942 0.24375 0.0
C10685 C 0.88805 0.24597 0.24389 0.0
C10686 C 0.87759 0.24349 0.23831 0.0
C10687 C 0.87667 0.23433 0.23145 0.0
C10688 C 0.86676 0.23194 0.22635 0.0
C10689 C 0.85768 0.23862 0.22807 0.0
C10690 C 0.8585 0.2477 0.23492 0.0
C10691 C 0.8684 0.25013 0.24005 0.0
H10692 H 0.85001 0.23675 0.22413 0.0
H10693 H 0.94503 0.26309 0.27431 0.0
H10694 H 0.64976 0.54463 0.4806 0.0
H10695 H 0.6512 0.52471 0.48066 0.0
H10696 H 0.64827 0.5246 0.51576 0.0
H10697 H 0.64733 0.54446 0.51578 0.0
H10698 H 0.66196 0.50995 0.51058 0.0
H10699 H 0.62632 0.5188 0.49828 0.0
H10700 H 0.61219 0.52766 0.48705 0.0
H10701 H 0.6246 0.51163 0.45848 0.0
H10702 H 0.63892 0.50278 0.46952 0.0
H10703 H 0.64226 0.45483 0.51516 0.0
H10704 H 0.64415 0.47471 0.51534 0.0
H10705 H 0.65488 0.47405 0.48184 0.0
H10706 H 0.65308 0.45417 0.48159 0.0
H10707 H 0.63747 0.48883 0.48624 0.0
H10708 H 0.673 0.4792 0.50102 0.0
H10709 H 0.68508 0.46993 0.51417 0.0
H10710 H 0.66985 0.48718 0.5406 0.0
H10711 H 0.65758 0.49645 0.52761 0.0
C10712 C 0.64956 0.54035 0.48833 0.0
C10713 C 0.6484 0.54611 0.49817 0.0
C10714 C 0.6503 0.52896 0.48836 0.0
C10715 C 0.64961 0.52311 0.4982 0.0
C10716 C 0.64881 0.52889 0.50806 0.0
C10717 C 0.64827 0.54027 0.50805 0.0
C10718 C 0.64945 0.51097 0.49825 0.0
C10719 C 0.65653 0.50536 0.50531 0.0
C10720 C 0.64236 0.50491 0.49141 0.0
C10721 C 0.63378 0.51023 0.48471 0.0
C10722 C 0.6261 0.51724 0.48959 0.0
C10723 C 0.61804 0.52225 0.48326 0.0
C10724 C 0.61752 0.52024 0.47205 0.0
C10725 C 0.62504 0.51319 0.46716 0.0
C10726 C 0.63312 0.50818 0.47345 0.0
C10727 C 0.64518 0.45889 0.50788 0.0
C10728 C 0.64753 0.45292 0.49837 0.0
C10729 C 0.64626 0.47025 0.508 0.0
C10730 C 0.64966 0.47583 0.4986 0.0
C10731 C 0.65224 0.46988 0.48917 0.0
C10732 C 0.65127 0.45852 0.48907 0.0
C10733 C 0.65005 0.48791 0.49845 0.0
C10734 C 0.64295 0.49348 0.49141 0.0
C10735 C 0.65684 0.49391 0.50558 0.0
C10736 C 0.66432 0.48845 0.51335 0.0
C10737 C 0.67218 0.48096 0.50964 0.0
C10738 C 0.67907 0.47572 0.51707 0.0
C10739 C 0.67822 0.47795 0.52821 0.0
C10740 C 0.6705 0.48545 0.53196 0.0
C10741 C 0.66359 0.49072 0.52457 0.0
H10742 H 0.68355 0.47387 0.53395 0.0
H10743 H 0.61128 0.52412 0.46716 0.0
H10744 H 0.70359 0.88947 0.73111 0.0
H10745 H 0.72353 0.89093 0.73092 0.0
H10746 H 0.72293 0.90304 0.76401 0.0
H10747 H 0.7031 0.90221 0.76398 0.0
H10748 H 0.73752 0.91339 0.75416 0.0
H10749 H 0.72915 0.8755 0.75693 0.0
H10750 H 0.7207 0.85794 0.7519 0.0
H10751 H 0.73759 0.8584 0.72121 0.0
H10752 H 0.74603 0.87604 0.726 0.0
H10753 H 0.79302 0.89727 0.76697 0.0
H10754 H 0.77301 0.89814 0.76651 0.0
H10755 H 0.77374 0.8977 0.73136 0.0
H10756 H 0.79365 0.89706 0.7317 0.0
H10757 H 0.75946 0.88147 0.74238 0.0
H10758 H 0.76806 0.92028 0.74154 0.0
H10759 H 0.77686 0.93687 0.74879 0.0
H10760 H 0.75967 0.93297 0.77906 0.0
H10761 H 0.75088 0.91627 0.77204 0.0
C10762 C 0.70774 0.89258 0.73827 0.0
C10763 C 0.7018 0.89574 0.74754 0.0
C10764 C 0.71913 0.89332 0.7382 0.0
C10765 C 0.72478 0.89688 0.74754 0.0
C10766 C 0.7188 0.90028 0.75669 0.0
C10767 C 0.70744 0.89981 0.75666 0.0
C10768 C 0.73691 0.89692 0.74791 0.0
C10769 C 0.74227 0.90634 0.75168 0.0
C10770 C 0.74319 0.88776 0.74469 0.0
C10771 C 0.73813 0.87715 0.74177 0.0
C10772 C 0.731 0.8719 0.74907 0.0
C10773 C 0.72622 0.86192 0.74627 0.0
C10774 C 0.72858 0.85708 0.73622 0.0
C10775 C 0.73575 0.86218 0.72897 0.0
C10776 C 0.74054 0.87216 0.73173 0.0
C10777 C 0.78891 0.89749 0.75915 0.0
C10778 C 0.79491 0.89713 0.74938 0.0
C10779 C 0.77751 0.89798 0.75891 0.0
C10780 C 0.77196 0.89796 0.7489 0.0
C10781 C 0.77791 0.89771 0.73915 0.0
C10782 C 0.78928 0.89741 0.73937 0.0
C10783 C 0.75991 0.8979 0.74854 0.0
C10784 C 0.75462 0.88847 0.74482 0.0
C10785 C 0.75369 0.9069 0.75212 0.0
C10786 C 0.7589 0.91698 0.7563 0.0
C10787 C 0.76623 0.92292 0.74977 0.0
C10788 C 0.7712 0.93235 0.75383 0.0
C10789 C 0.76885 0.93596 0.76439 0.0
C10790 C 0.76149 0.93016 0.77089 0.0
C10791 C 0.75651 0.92072 0.76687 0.0
H10792 H 0.77271 0.94326 0.76752 0.0
H10793 H 0.72488 0.84935 0.73407 0.0
H10794 H 0.3401 0.95277 0.99819 0.0
H10795 H 0.3373 0.97255 0.9965 0.0
H10796 H 0.37152 0.97792 0.00264 0.0
H10797 H 0.37443 0.95832 0.00425 0.0
H10798 H 0.35692 0.98938 0.01669 0.0
H10799 H 0.36265 0.98175 0.97813 0.0
H10800 H 0.35831 0.97279 0.96065 0.0
H10801 H 0.32607 0.9865 0.96142 0.0
H10802 H 0.33018 0.99543 0.979 0.0
H10803 H 0.37137 0.04307 0.00638 0.0
H10804 H 0.36887 0.02346 0.00726 0.0
H10805 H 0.33689 0.02675 0.99285 0.0
H10806 H 0.33966 0.04655 0.99138 0.0
H10807 H 0.3465 0.01058 0.98384 0.0
H10808 H 0.34125 0.0202 0.02104 0.0
H10809 H 0.34496 0.02887 0.03881 0.0
H10810 H 0.37504 0.01109 0.04143 0.0
H10811 H 0.37161 0.00246 0.02359 0.0
C10812 C 0.34705 0.95817 0.99903 0.0
C10813 C 0.35747 0.95399 0.00145 0.0
C10814 C 0.34543 0.96944 0.99804 0.0
C10815 C 0.35421 0.97664 -0.00049 0.0
C10816 C 0.36465 0.97246 0.00154 0.0
C10817 C 0.36629 0.96125 0.00243 0.0
C10818 C 0.35253 0.98857 -0.00027 0.0
C10819 C 0.3547 0.99407 0.00951 0.0
C10820 C 0.34914 0.99454 0.99048 0.0
C10821 C 0.34667 0.98914 0.97994 0.0
C10822 C 0.3546 0.98276 0.97463 0.0
C10823 C 0.35219 0.97771 0.96469 0.0
C10824 C 0.34191 0.97904 0.95995 0.0
C10825 C 0.33402 0.98545 0.96512 0.0
C10826 C 0.33639 0.99052 0.97506 0.0
C10827 C 0.36373 0.03967 0.00352 0.0
C10828 C 0.35567 0.04636 0.99889 0.0
C10829 C 0.36228 0.02842 0.00409 0.0
C10830 C 0.35257 0.0236 0.00038 0.0
C10831 C 0.34442 0.03028 0.99584 0.0
C10832 C 0.34599 0.04158 0.99503 0.0
C10833 C 0.35133 0.01154 0.00075 0.0
C10834 C 0.34854 0.00597 0.99111 0.0
C10835 C 0.35404 0.00546 0.01021 0.0
C10836 C 0.35618 0.01072 0.02093 0.0
C10837 C 0.3487 0.0182 0.02536 0.0
C10838 C 0.35075 0.02311 0.03545 0.0
C10839 C 0.36024 0.02055 0.04123 0.0
C10840 C 0.36769 0.01307 0.03694 0.0
C10841 C 0.36569 0.00816 0.02684 0.0
H10842 H 0.3618 0.02434 0.04905 0.0
H10843 H 0.34006 0.97513 0.95225 0.0
H10844 H 0.20417 0.61026 0.26663 0.0
H10845 H 0.22405 0.60844 0.26695 0.0
H10846 H 0.22349 0.59576 0.2341 0.0
H10847 H 0.20369 0.59721 0.23385 0.0
H10848 H 0.23789 0.58506 0.24529 0.0
H10849 H 0.22973 0.62264 0.2395 0.0
H10850 H 0.22121 0.64051 0.24314 0.0
H10851 H 0.23782 0.64236 0.27392 0.0
H10852 H 0.24631 0.62442 0.27054 0.0
H10853 H 0.29396 0.59975 0.23264 0.0
H10854 H 0.27392 0.59907 0.23252 0.0
H10855 H 0.27354 0.60217 0.26755 0.0
H10856 H 0.29343 0.6026 0.26781 0.0
H10857 H 0.2599 0.6177 0.25478 0.0
H10858 H 0.26803 0.57916 0.25938 0.0
H10859 H 0.27696 0.56195 0.254 0.0
H10860 H 0.26068 0.56298 0.223 0.0
H10861 H 0.25177 0.5803 0.22814 0.0
C10862 C 0.20828 0.60698 0.25953 0.0
C10863 C 0.20236 0.60396 0.25019 0.0
C10864 C 0.21964 0.606 0.25969 0.0
C10865 C 0.22527 0.60215 0.25047 0.0
C10866 C 0.21933 0.59877 0.2413 0.0
C10867 C 0.20799 0.59964 0.24117 0.0
C10868 C 0.23736 0.60197 0.25019 0.0
C10869 C 0.24268 0.59224 0.24727 0.0
C10870 C 0.24364 0.61133 0.25275 0.0
C10871 C 0.23856 0.62213 0.25482 0.0
C10872 C 0.23149 0.62682 0.24709 0.0
C10873 C 0.22668 0.63696 0.2491 0.0
C10874 C 0.22894 0.64255 0.25877 0.0
C10875 C 0.23605 0.63802 0.26644 0.0
C10876 C 0.24087 0.62786 0.26448 0.0
C10877 C 0.2896 0.60015 0.24032 0.0
C10878 C 0.29526 0.6012 0.25023 0.0
C10879 C 0.27819 0.59978 0.24023 0.0
C10880 C 0.27234 0.60061 0.25003 0.0
C10881 C 0.27796 0.60154 0.25992 0.0
C10882 C 0.28932 0.60172 0.26004 0.0
C10883 C 0.26031 0.6008 0.25003 0.0
C10884 C 0.25504 0.61055 0.25284 0.0
C10885 C 0.2541 0.59155 0.24714 0.0
C10886 C 0.25933 0.58108 0.2441 0.0
C10887 C 0.26643 0.57577 0.25138 0.0
C10888 C 0.27147 0.56598 0.24838 0.0
C10889 C 0.26941 0.56139 0.23815 0.0
C10890 C 0.26227 0.56655 0.23091 0.0
C10891 C 0.25722 0.57635 0.23387 0.0
H10892 H 0.27332 0.55382 0.23584 0.0
H10893 H 0.22521 0.65041 0.26031 0.0
H10894 H 0.89685 0.73202 0.79349 0.0
H10895 H 0.89744 0.73248 0.77367 0.0
H10896 H 0.90134 0.76749 0.77452 0.0
H10897 H 0.90014 0.76712 0.79447 0.0
H10898 H 0.88716 0.76276 0.75999 0.0
H10899 H 0.92287 0.74871 0.76749 0.0
H10900 H 0.93647 0.73643 0.77581 0.0
H10901 H 0.92169 0.70895 0.75987 0.0
H10902 H 0.90792 0.72105 0.75156 0.0
H10903 H 0.9006 0.76675 0.70369 0.0
H10904 H 0.90254 0.76654 0.72353 0.0
H10905 H 0.89105 0.73329 0.72441 0.0
H10906 H 0.88896 0.73344 0.70452 0.0
H10907 H 0.90975 0.73757 0.73775 0.0
H10908 H 0.8739 0.75192 0.73061 0.0
H10909 H 0.86055 0.76438 0.72218 0.0
H10910 H 0.87619 0.79177 0.73743 0.0
H10911 H 0.88976 0.77948 0.74582 0.0
C10912 C 0.89799 0.73982 0.78948 0.0
C10913 C 0.89851 0.74954 0.79555 0.0
C10914 C 0.89838 0.74006 0.77812 0.0
C10915 C 0.89964 0.75 0.77255 0.0
C10916 C 0.90039 0.75971 0.77861 0.0
C10917 C 0.89976 0.7595 0.79001 0.0
C10918 C 0.89955 0.75026 0.76041 0.0
C10919 C 0.89227 0.7574 0.75515 0.0
C10920 C 0.906 0.74307 0.75404 0.0
C10921 C 0.91432 0.73578 0.75897 0.0
C10922 C 0.92249 0.74004 0.76581 0.0
C10923 C 0.93023 0.73311 0.77052 0.0
C10924 C 0.92993 0.72191 0.76838 0.0
C10925 C 0.92191 0.71762 0.76152 0.0
C10926 C 0.91414 0.72452 0.7568 0.0
C10927 C 0.8986 0.75934 0.70807 0.0
C10928 C 0.89461 0.7501 0.70254 0.0
C10929 C 0.89966 0.75927 0.71941 0.0
C10930 C 0.89684 0.74994 0.72541 0.0
C10931 C 0.89324 0.74057 0.71989 0.0
C10932 C 0.89204 0.74068 0.70855 0.0
C10933 C 0.89743 0.75007 0.73746 0.0
C10934 C 0.90475 0.74299 0.74266 0.0
C10935 C 0.8911 0.75737 0.74377 0.0
C10936 C 0.88294 0.76478 0.73873 0.0
C10937 C 0.87457 0.76061 0.73207 0.0
C10938 C 0.86695 0.76764 0.72732 0.0
C10939 C 0.86755 0.77887 0.72924 0.0
C10940 C 0.87575 0.78308 0.73594 0.0
C10941 C 0.88341 0.77608 0.74069 0.0
H10942 H 0.86164 0.7843 0.72556 0.0
H10943 H 0.93593 0.71656 0.77204 0.0
loop_
_geom_bond_atom_site_label_1
_geom_bond_atom_site_label_2
_geom_bond_distance
_geom_bond_site_symmetry_2
_ccdc_geom_bond_type
Mg0 O1 2.028 . S
Mg0 O7 1.986 . S
Mg0 O9 2.114 . S
Mg0 O10 2.251 . S
Mg0 O13 2.010 . S
O1 Mg0 2.028 . S
O1 C4 1.250 . S
O2 Mg3 2.028 . S
O2 C4 1.248 . S
Mg3 O2 2.028 . S
Mg3 O8 2.032 . S
Mg3 O10 2.079 . S
C4 O1 1.250 . S
C4 O2 1.248 . S
C5 O6 1.264 . S
C5 O13 1.249 . S
O6 C5 1.264 . S
O7 Mg0 1.986 . S
O7 C11 1.246 . S
O8 Mg3 2.032 . S
O8 C11 1.259 . S
O9 Mg0 2.114 . S
O9 C12 1.252 . S
O10 Mg0 2.251 . S
O10 Mg3 2.079 . S
O10 C12 1.273 . S
C11 O7 1.246 . S
C11 O8 1.259 . S
C12 O9 1.252 . S
C12 O10 1.273 . S
O13 Mg0 2.010 . S
O13 C5 1.249 . S
Mg14 O15 2.028 . S
Mg14 O21 1.986 . S
Mg14 O23 2.114 . S
Mg14 O24 2.251 . S
Mg14 O27 2.010 . S
O15 Mg14 2.028 . S
O15 C18 1.250 . S
O16 Mg17 2.028 . S
O16 C18 1.248 . S
Mg17 O16 2.028 . S
Mg17 O22 2.032 . S
Mg17 O24 2.079 . S
C18 O15 1.250 . S
C18 O16 1.248 . S
C19 O20 1.264 . S
C19 O27 1.249 . S
O20 C19 1.264 . S
O21 Mg14 1.986 . S
O21 C25 1.246 . S
O22 Mg17 2.032 . S
O22 C25 1.259 . S
O23 Mg14 2.114 . S
O23 C26 1.252 . S
O24 Mg14 2.251 . S
O24 Mg17 2.079 . S
O24 C26 1.273 . S
C25 O21 1.246 . S
C25 O22 1.259 . S
C26 O23 1.252 . S
C26 O24 1.273 . S
O27 Mg14 2.010 . S
O27 C19 1.249 . S
Mg28 O29 2.028 . S
Mg28 O35 1.986 . S
Mg28 O37 2.114 . S
Mg28 O38 2.251 . S
Mg28 O41 2.010 . S
O29 Mg28 2.028 . S
O29 C32 1.250 . S
O30 Mg31 2.028 . S
O30 C32 1.248 . S
Mg31 O30 2.028 . S
Mg31 O36 2.032 . S
Mg31 O38 2.079 . S
C32 O29 1.250 . S
C32 O30 1.248 . S
C33 O34 1.264 1_565 S
C33 O41 1.249 . S
O34 C33 1.264 1_545 S
O35 Mg28 1.986 . S
O35 C39 1.246 . S
O36 Mg31 2.032 . S
O36 C39 1.259 . S
O37 Mg28 2.114 . S
O37 C40 1.252 . S
O38 Mg28 2.251 . S
O38 Mg31 2.079 . S
O38 C40 1.273 . S
C39 O35 1.246 . S
C39 O36 1.259 . S
C40 O37 1.252 . S
C40 O38 1.273 . S
O41 Mg28 2.010 . S
O41 C33 1.249 . S
Mg42 O43 2.028 . S
Mg42 O49 1.986 . S
Mg42 O51 2.114 . S
Mg42 O52 2.251 . S
Mg42 O55 2.010 . S
O43 Mg42 2.028 . S
O43 C46 1.250 . S
O44 Mg45 2.028 . S
O44 C46 1.248 . S
Mg45 O44 2.028 . S
Mg45 O50 2.032 . S
Mg45 O52 2.079 . S
C46 O43 1.250 . S
C46 O44 1.248 . S
C47 O48 1.264 . S
C47 O55 1.249 . S
O48 C47 1.264 . S
O49 Mg42 1.986 . S
O49 C53 1.246 . S
O50 Mg45 2.032 . S
O50 C53 1.259 . S
O51 Mg42 2.114 . S
O51 C54 1.252 . S
O52 Mg42 2.251 . S
O52 Mg45 2.079 . S
O52 C54 1.273 . S
C53 O49 1.246 . S
C53 O50 1.259 . S
C54 O51 1.252 . S
C54 O52 1.273 . S
O55 Mg42 2.010 . S
O55 C47 1.249 . S
Mg56 O57 2.028 . S
Mg56 O63 1.986 . S
Mg56 O65 2.114 . S
Mg56 O66 2.251 . S
Mg56 O69 2.010 . S
O57 Mg56 2.028 . S
O57 C60 1.250 . S
O58 Mg59 2.028 . S
O58 C60 1.248 . S
Mg59 O58 2.028 . S
Mg59 O64 2.032 . S
Mg59 O66 2.079 . S
C60 O57 1.250 . S
C60 O58 1.248 . S
C61 O62 1.264 . S
C61 O69 1.249 . S
O62 C61 1.264 . S
O63 Mg56 1.986 . S
O63 C67 1.246 . S
O64 Mg59 2.032 . S
O64 C67 1.259 . S
O65 Mg56 2.114 . S
O65 C68 1.252 . S
O66 Mg56 2.251 . S
O66 Mg59 2.079 . S
O66 C68 1.273 . S
C67 O63 1.246 . S
C67 O64 1.259 . S
C68 O65 1.252 . S
C68 O66 1.273 . S
O69 Mg56 2.010 . S
O69 C61 1.249 . S
Mg70 O71 2.028 . S
Mg70 O77 1.986 . S
Mg70 O79 2.114 . S
Mg70 O80 2.251 . S
Mg70 O83 2.010 . S
O71 Mg70 2.028 . S
O71 C74 1.250 . S
O72 Mg73 2.028 . S
O72 C74 1.248 . S
Mg73 O72 2.028 . S
Mg73 O78 2.032 . S
Mg73 O80 2.079 . S
C74 O71 1.250 . S
C74 O72 1.248 . S
C75 O76 1.264 . S
C75 O83 1.249 . S
O76 C75 1.264 . S
O77 Mg70 1.986 . S
O77 C81 1.246 . S
O78 Mg73 2.032 . S
O78 C81 1.259 . S
O79 Mg70 2.114 . S
O79 C82 1.252 . S
O80 Mg70 2.251 . S
O80 Mg73 2.079 . S
O80 C82 1.273 . S
C81 O77 1.246 . S
C81 O78 1.259 . S
C82 O79 1.252 . S
C82 O80 1.273 . S
O83 Mg70 2.010 . S
O83 C75 1.249 . S
Mg84 O85 2.028 . S
Mg84 O91 1.986 . S
Mg84 O93 2.114 . S
Mg84 O94 2.251 . S
Mg84 O97 2.010 . S
O85 Mg84 2.028 . S
O85 C88 1.250 . S
O86 Mg87 2.028 . S
O86 C88 1.248 . S
Mg87 O86 2.028 . S
Mg87 O92 2.032 . S
Mg87 O94 2.079 . S
C88 O85 1.250 . S
C88 O86 1.248 . S
C89 O90 1.264 1_545 S
C89 O97 1.249 . S
O90 C89 1.264 1_565 S
O91 Mg84 1.986 . S
O91 C95 1.246 . S
O92 Mg87 2.032 . S
O92 C95 1.259 . S
O93 Mg84 2.114 . S
O93 C96 1.252 . S
O94 Mg84 2.251 . S
O94 Mg87 2.079 . S
O94 C96 1.273 . S
C95 O91 1.246 . S
C95 O92 1.259 . S
C96 O93 1.252 . S
C96 O94 1.273 . S
O97 Mg84 2.010 . S
O97 C89 1.249 . S
Mg98 O99 2.028 . S
Mg98 O105 1.986 . S
Mg98 O107 2.114 . S
Mg98 O108 2.251 . S
Mg98 O111 2.010 . S
O99 Mg98 2.028 . S
O99 C102 1.250 . S
O100 Mg101 2.028 . S
O100 C102 1.248 . S
Mg101 O100 2.028 . S
Mg101 O106 2.032 . S
Mg101 O108 2.079 . S
C102 O99 1.250 . S
C102 O100 1.248 . S
C103 O104 1.264 . S
C103 O111 1.249 . S
O104 C103 1.264 . S
O105 Mg98 1.986 . S
O105 C109 1.246 . S
O106 Mg101 2.032 . S
O106 C109 1.259 . S
O107 Mg98 2.114 . S
O107 C110 1.252 . S
O108 Mg98 2.251 . S
O108 Mg101 2.079 . S
O108 C110 1.273 . S
C109 O105 1.246 . S
C109 O106 1.259 . S
C110 O107 1.252 . S
C110 O108 1.273 . S
O111 Mg98 2.010 . S
O111 C103 1.249 . S
Mg112 O113 2.028 . S
Mg112 O119 1.986 . S
Mg112 O121 2.114 . S
Mg112 O122 2.251 . S
Mg112 O125 2.010 . S
O113 Mg112 2.028 . S
O113 C116 1.250 . S
O114 Mg115 2.028 . S
O114 C116 1.248 . S
Mg115 O114 2.028 . S
Mg115 O120 2.032 . S
Mg115 O122 2.079 . S
C116 O113 1.250 . S
C116 O114 1.248 . S
C117 O118 1.264 . S
C117 O125 1.249 . S
O118 C117 1.264 . S
O119 Mg112 1.986 . S
O119 C123 1.246 . S
O120 Mg115 2.032 . S
O120 C123 1.259 . S
O121 Mg112 2.114 . S
O121 C124 1.252 . S
O122 Mg112 2.251 . S
O122 Mg115 2.079 . S
O122 C124 1.273 . S
C123 O119 1.246 . S
C123 O120 1.259 . S
C124 O121 1.252 . S
C124 O122 1.273 . S
O125 Mg112 2.010 . S
O125 C117 1.249 . S
Mg126 O127 2.028 . S
Mg126 O133 1.986 . S
Mg126 O135 2.114 . S
Mg126 O136 2.251 . S
Mg126 O139 2.010 . S
O127 Mg126 2.028 . S
O127 C130 1.250 . S
O128 Mg129 2.028 . S
O128 C130 1.248 . S
Mg129 O128 2.028 . S
Mg129 O134 2.032 . S
Mg129 O136 2.079 . S
C130 O127 1.250 . S
C130 O128 1.248 . S
C131 O132 1.264 . S
C131 O139 1.249 . S
O132 C131 1.264 . S
O133 Mg126 1.986 . S
O133 C137 1.246 . S
O134 Mg129 2.032 . S
O134 C137 1.259 . S
O135 Mg126 2.114 . S
O135 C138 1.252 . S
O136 Mg126 2.251 . S
O136 Mg129 2.079 . S
O136 C138 1.273 . S
C137 O133 1.246 . S
C137 O134 1.259 . S
C138 O135 1.252 . S
C138 O136 1.273 . S
O139 Mg126 2.010 . S
O139 C131 1.249 . S
Mg140 O141 2.028 . S
Mg140 O147 1.986 . S
Mg140 O149 2.114 . S
Mg140 O150 2.251 . S
Mg140 O153 2.010 . S
O141 Mg140 2.028 . S
O141 C144 1.250 . S
O142 Mg143 2.028 . S
O142 C144 1.248 . S
Mg143 O142 2.028 . S
Mg143 O148 2.032 . S
Mg143 O150 2.079 . S
C144 O141 1.250 . S
C144 O142 1.248 . S
C145 O146 1.264 1_554 S
C145 O153 1.249 . S
O146 C145 1.264 1_556 S
O147 Mg140 1.986 . S
O147 C151 1.246 . S
O148 Mg143 2.032 . S
O148 C151 1.259 . S
O149 Mg140 2.114 . S
O149 C152 1.252 . S
O150 Mg140 2.251 . S
O150 Mg143 2.079 . S
O150 C152 1.273 . S
C151 O147 1.246 . S
C151 O148 1.259 . S
C152 O149 1.252 . S
C152 O150 1.273 . S
O153 Mg140 2.010 . S
O153 C145 1.249 . S
Mg154 O155 2.028 . S
Mg154 O161 1.986 . S
Mg154 O163 2.114 . S
Mg154 O164 2.251 . S
Mg154 O167 2.010 . S
O155 Mg154 2.028 . S
O155 C158 1.250 . S
O156 Mg157 2.028 . S
O156 C158 1.248 . S
Mg157 O156 2.028 . S
Mg157 O162 2.032 . S
Mg157 O164 2.079 . S
C158 O155 1.250 . S
C158 O156 1.248 . S
C159 O160 1.264 . S
C159 O167 1.249 . S
O160 C159 1.264 . S
O161 Mg154 1.986 . S
O161 C165 1.246 . S
O162 Mg157 2.032 . S
O162 C165 1.259 . S
O163 Mg154 2.114 . S
O163 C166 1.252 . S
O164 Mg154 2.251 . S
O164 Mg157 2.079 . S
O164 C166 1.273 . S
C165 O161 1.246 . S
C165 O162 1.259 . S
C166 O163 1.252 . S
C166 O164 1.273 . S
O167 Mg154 2.010 . S
O167 C159 1.249 . S
Mg168 O169 2.028 . S
Mg168 O175 1.986 . S
Mg168 O177 2.114 . S
Mg168 O178 2.251 . S
Mg168 O181 2.010 . S
O169 Mg168 2.028 . S
O169 C172 1.250 . S
O170 Mg171 2.028 . S
O170 C172 1.248 . S
Mg171 O170 2.028 . S
Mg171 O176 2.032 . S
Mg171 O178 2.079 . S
C172 O169 1.250 . S
C172 O170 1.248 . S
C173 O174 1.264 . S
C173 O181 1.249 . S
O174 C173 1.264 . S
O175 Mg168 1.986 . S
O175 C179 1.246 . S
O176 Mg171 2.032 . S
O176 C179 1.259 . S
O177 Mg168 2.114 . S
O177 C180 1.252 . S
O178 Mg168 2.251 . S
O178 Mg171 2.079 . S
O178 C180 1.273 . S
C179 O175 1.246 . S
C179 O176 1.259 . S
C180 O177 1.252 . S
C180 O178 1.273 . S
O181 Mg168 2.010 . S
O181 C173 1.249 . S
Mg182 O183 2.028 . S
Mg182 O189 1.986 . S
Mg182 O191 2.114 . S
Mg182 O192 2.251 . S
Mg182 O195 2.010 . S
O183 Mg182 2.028 . S
O183 C186 1.250 . S
O184 Mg185 2.028 . S
O184 C186 1.248 . S
Mg185 O184 2.028 . S
Mg185 O190 2.032 . S
Mg185 O192 2.079 . S
C186 O183 1.250 . S
C186 O184 1.248 . S
C187 O188 1.264 . S
C187 O195 1.249 . S
O188 C187 1.264 . S
O189 Mg182 1.986 . S
O189 C193 1.246 . S
O190 Mg185 2.032 . S
O190 C193 1.259 . S
O191 Mg182 2.114 . S
O191 C194 1.252 . S
O192 Mg182 2.251 . S
O192 Mg185 2.079 . S
O192 C194 1.273 . S
C193 O189 1.246 . S
C193 O190 1.259 . S
C194 O191 1.252 . S
C194 O192 1.273 . S
O195 Mg182 2.010 . S
O195 C187 1.249 . S
Mg196 O197 2.028 . S
Mg196 O203 1.986 . S
Mg196 O205 2.114 . S
Mg196 O206 2.251 . S
Mg196 O209 2.010 . S
O197 Mg196 2.028 . S
O197 C200 1.250 . S
O198 Mg199 2.028 . S
O198 C200 1.248 . S
Mg199 O198 2.028 . S
Mg199 O204 2.032 . S
Mg199 O206 2.079 . S
C200 O197 1.250 . S
C200 O198 1.248 . S
C201 O202 1.264 1_556 S
C201 O209 1.249 . S
O202 C201 1.264 1_554 S
O203 Mg196 1.986 . S
O203 C207 1.246 . S
O204 Mg199 2.032 . S
O204 C207 1.259 . S
O205 Mg196 2.114 . S
O205 C208 1.252 . S
O206 Mg196 2.251 . S
O206 Mg199 2.079 . S
O206 C208 1.273 . S
C207 O203 1.246 . S
C207 O204 1.259 . S
C208 O205 1.252 . S
C208 O206 1.273 . S
O209 Mg196 2.010 . S
O209 C201 1.249 . S
Mg210 O211 2.028 . S
Mg210 O217 1.986 . S
Mg210 O219 2.114 . S
Mg210 O220 2.251 . S
Mg210 O223 2.010 . S
O211 Mg210 2.028 . S
O211 C214 1.250 . S
O212 Mg213 2.028 . S
O212 C214 1.248 . S
Mg213 O212 2.028 . S
Mg213 O218 2.032 . S
Mg213 O220 2.079 . S
C214 O211 1.250 . S
C214 O212 1.248 . S
C215 O216 1.264 . S
C215 O223 1.249 . S
O216 C215 1.264 . S
O217 Mg210 1.986 . S
O217 C221 1.246 . S
O218 Mg213 2.032 . S
O218 C221 1.259 . S
O219 Mg210 2.114 . S
O219 C222 1.252 . S
O220 Mg210 2.251 . S
O220 Mg213 2.079 . S
O220 C222 1.273 . S
C221 O217 1.246 . S
C221 O218 1.259 . S
C222 O219 1.252 . S
C222 O220 1.273 . S
O223 Mg210 2.010 . S
O223 C215 1.249 . S
Mg224 O225 2.028 . S
Mg224 O231 1.986 . S
Mg224 O233 2.114 . S
Mg224 O234 2.251 . S
Mg224 O237 2.010 . S
O225 Mg224 2.028 . S
O225 C228 1.250 . S
O226 Mg227 2.028 . S
O226 C228 1.248 . S
Mg227 O226 2.028 . S
Mg227 O232 2.032 . S
Mg227 O234 2.079 . S
C228 O225 1.250 . S
C228 O226 1.248 . S
C229 O230 1.264 . S
C229 O237 1.249 . S
O230 C229 1.264 . S
O231 Mg224 1.986 . S
O231 C235 1.246 . S
O232 Mg227 2.032 . S
O232 C235 1.259 . S
O233 Mg224 2.114 . S
O233 C236 1.252 . S
O234 Mg224 2.251 . S
O234 Mg227 2.079 . S
O234 C236 1.273 . S
C235 O231 1.246 . S
C235 O232 1.259 . S
C236 O233 1.252 . S
C236 O234 1.273 . S
O237 Mg224 2.010 . S
O237 C229 1.249 . S
Mg238 O239 2.028 . S
Mg238 O245 1.986 . S
Mg238 O247 2.114 . S
Mg238 O248 2.251 . S
Mg238 O251 2.010 . S
O239 Mg238 2.028 . S
O239 C242 1.250 . S
O240 Mg241 2.028 . S
O240 C242 1.248 . S
Mg241 O240 2.028 . S
Mg241 O246 2.032 . S
Mg241 O248 2.079 . S
C242 O239 1.250 . S
C242 O240 1.248 . S
C243 O244 1.264 1_455 S
C243 O251 1.249 . S
O244 C243 1.264 1_655 S
O245 Mg238 1.986 . S
O245 C249 1.246 . S
O246 Mg241 2.032 . S
O246 C249 1.259 . S
O247 Mg238 2.114 . S
O247 C250 1.252 . S
O248 Mg238 2.251 . S
O248 Mg241 2.079 . S
O248 C250 1.273 . S
C249 O245 1.246 . S
C249 O246 1.259 . S
C250 O247 1.252 . S
C250 O248 1.273 . S
O251 Mg238 2.010 . S
O251 C243 1.249 . S
Mg252 O253 2.028 . S
Mg252 O259 1.986 . S
Mg252 O261 2.114 . S
Mg252 O262 2.251 . S
Mg252 O265 2.010 . S
O253 Mg252 2.028 . S
O253 C256 1.250 . S
O254 Mg255 2.028 . S
O254 C256 1.248 . S
Mg255 O254 2.028 . S
Mg255 O260 2.032 . S
Mg255 O262 2.079 . S
C256 O253 1.250 . S
C256 O254 1.248 . S
C257 O258 1.264 . S
C257 O265 1.249 . S
O258 C257 1.264 . S
O259 Mg252 1.986 . S
O259 C263 1.246 . S
O260 Mg255 2.032 . S
O260 C263 1.259 . S
O261 Mg252 2.114 . S
O261 C264 1.252 . S
O262 Mg252 2.251 . S
O262 Mg255 2.079 . S
O262 C264 1.273 . S
C263 O259 1.246 . S
C263 O260 1.259 . S
C264 O261 1.252 . S
C264 O262 1.273 . S
O265 Mg252 2.010 . S
O265 C257 1.249 . S
Mg266 O267 2.028 . S
Mg266 O273 1.986 . S
Mg266 O275 2.114 . S
Mg266 O276 2.251 . S
Mg266 O279 2.010 . S
O267 Mg266 2.028 . S
O267 C270 1.250 . S
O268 Mg269 2.028 . S
O268 C270 1.248 . S
Mg269 O268 2.028 . S
Mg269 O274 2.032 . S
Mg269 O276 2.079 . S
C270 O267 1.250 . S
C270 O268 1.248 . S
C271 O272 1.264 1_655 S
C271 O279 1.249 . S
O272 C271 1.264 1_455 S
O273 Mg266 1.986 . S
O273 C277 1.246 . S
O274 Mg269 2.032 . S
O274 C277 1.259 . S
O275 Mg266 2.114 . S
O275 C278 1.252 . S
O276 Mg266 2.251 . S
O276 Mg269 2.079 . S
O276 C278 1.273 . S
C277 O273 1.246 . S
C277 O274 1.259 . S
C278 O275 1.252 . S
C278 O276 1.273 . S
O279 Mg266 2.010 . S
O279 C271 1.249 . S
Mg280 O281 2.028 . S
Mg280 O287 1.986 . S
Mg280 O289 2.114 . S
Mg280 O290 2.251 . S
Mg280 O293 2.010 . S
O281 Mg280 2.028 . S
O281 C284 1.250 . S
O282 Mg283 2.028 . S
O282 C284 1.248 . S
Mg283 O282 2.028 . S
Mg283 O288 2.032 . S
Mg283 O290 2.079 . S
C284 O281 1.250 . S
C284 O282 1.248 . S
C285 O286 1.264 . S
C285 O293 1.249 . S
O286 C285 1.264 . S
O287 Mg280 1.986 . S
O287 C291 1.246 . S
O288 Mg283 2.032 . S
O288 C291 1.259 . S
O289 Mg280 2.114 . S
O289 C292 1.252 . S
O290 Mg280 2.251 . S
O290 Mg283 2.079 . S
O290 C292 1.273 . S
C291 O287 1.246 . S
C291 O288 1.259 . S
C292 O289 1.252 . S
C292 O290 1.273 . S
O293 Mg280 2.010 . S
O293 C285 1.249 . S
Mg294 O295 2.028 . S
Mg294 O301 1.986 . S
Mg294 O303 2.114 . S
Mg294 O304 2.251 . S
Mg294 O307 2.010 . S
O295 Mg294 2.028 . S
O295 C298 1.250 . S
O296 Mg297 2.028 . S
O296 C298 1.248 . S
Mg297 O296 2.028 . S
Mg297 O302 2.032 . S
Mg297 O304 2.079 . S
C298 O295 1.250 . S
C298 O296 1.248 . S
C299 O300 1.264 . S
C299 O307 1.249 . S
O300 C299 1.264 . S
O301 Mg294 1.986 . S
O301 C305 1.246 . S
O302 Mg297 2.032 . S
O302 C305 1.259 . S
O303 Mg294 2.114 . S
O303 C306 1.252 . S
O304 Mg294 2.251 . S
O304 Mg297 2.079 . S
O304 C306 1.273 . S
C305 O301 1.246 . S
C305 O302 1.259 . S
C306 O303 1.252 . S
C306 O304 1.273 . S
O307 Mg294 2.010 . S
O307 C299 1.249 . S
Mg308 O309 2.028 . S
Mg308 O315 1.986 . S
Mg308 O317 2.114 . S
Mg308 O318 2.251 . S
Mg308 O321 2.010 . S
O309 Mg308 2.028 . S
O309 C312 1.250 . S
O310 Mg311 2.028 . S
O310 C312 1.248 . S
Mg311 O310 2.028 . S
Mg311 O316 2.032 . S
Mg311 O318 2.079 . S
C312 O309 1.250 . S
C312 O310 1.248 . S
C313 O314 1.264 . S
C313 O321 1.249 . S
O314 C313 1.264 . S
O315 Mg308 1.986 . S
O315 C319 1.246 . S
O316 Mg311 2.032 . S
O316 C319 1.259 . S
O317 Mg308 2.114 . S
O317 C320 1.252 . S
O318 Mg308 2.251 . S
O318 Mg311 2.079 . S
O318 C320 1.273 . S
C319 O315 1.246 . S
C319 O316 1.259 . S
C320 O317 1.252 . S
C320 O318 1.273 . S
O321 Mg308 2.010 . S
O321 C313 1.249 . S
Mg322 O323 2.028 . S
Mg322 O329 1.986 . S
Mg322 O331 2.114 . S
Mg322 O332 2.251 . S
Mg322 O335 2.010 . S
O323 Mg322 2.028 . S
O323 C326 1.250 . S
O324 Mg325 2.028 . S
O324 C326 1.248 . S
Mg325 O324 2.028 . S
Mg325 O330 2.032 . S
Mg325 O332 2.079 . S
C326 O323 1.250 . S
C326 O324 1.248 . S
C327 O328 1.264 . S
C327 O335 1.249 . S
O328 C327 1.264 . S
O329 Mg322 1.986 . S
O329 C333 1.246 . S
O330 Mg325 2.032 . S
O330 C333 1.259 . S
O331 Mg322 2.114 . S
O331 C334 1.252 . S
O332 Mg322 2.251 . S
O332 Mg325 2.079 . S
O332 C334 1.273 . S
C333 O329 1.246 . S
C333 O330 1.259 . S
C334 O331 1.252 . S
C334 O332 1.273 . S
O335 Mg322 2.010 . S
O335 C327 1.249 . S
Mg336 O337 2.028 . S
Mg336 O343 1.986 . S
Mg336 O345 2.114 . S
Mg336 O346 2.251 . S
Mg336 O349 2.010 . S
O337 Mg336 2.028 . S
O337 C340 1.250 . S
O338 Mg339 2.028 . S
O338 C340 1.248 . S
Mg339 O338 2.028 . S
Mg339 O344 2.032 . S
Mg339 O346 2.079 . S
C340 O337 1.250 . S
C340 O338 1.248 . S
C341 O342 1.264 1_545 S
C341 O349 1.249 . S
O342 C341 1.264 1_565 S
O343 Mg336 1.986 . S
O343 C347 1.246 . S
O344 Mg339 2.032 . S
O344 C347 1.259 . S
O345 Mg336 2.114 . S
O345 C348 1.252 . S
O346 Mg336 2.251 . S
O346 Mg339 2.079 . S
O346 C348 1.273 . S
C347 O343 1.246 . S
C347 O344 1.259 . S
C348 O345 1.252 . S
C348 O346 1.273 . S
O349 Mg336 2.010 . S
O349 C341 1.249 . S
Mg350 O351 2.028 . S
Mg350 O357 1.986 . S
Mg350 O359 2.114 . S
Mg350 O360 2.251 . S
Mg350 O363 2.010 . S
O351 Mg350 2.028 . S
O351 C354 1.250 . S
O352 Mg353 2.028 . S
O352 C354 1.248 . S
Mg353 O352 2.028 . S
Mg353 O358 2.032 . S
Mg353 O360 2.079 . S
C354 O351 1.250 . S
C354 O352 1.248 . S
C355 O356 1.264 . S
C355 O363 1.249 . S
O356 C355 1.264 . S
O357 Mg350 1.986 . S
O357 C361 1.246 . S
O358 Mg353 2.032 . S
O358 C361 1.259 . S
O359 Mg350 2.114 . S
O359 C362 1.252 . S
O360 Mg350 2.251 . S
O360 Mg353 2.079 . S
O360 C362 1.273 . S
C361 O357 1.246 . S
C361 O358 1.259 . S
C362 O359 1.252 . S
C362 O360 1.273 . S
O363 Mg350 2.010 . S
O363 C355 1.249 . S
Mg364 O365 2.028 . S
Mg364 O371 1.986 . S
Mg364 O373 2.114 . S
Mg364 O374 2.251 . S
Mg364 O377 2.010 . S
O365 Mg364 2.028 . S
O365 C368 1.250 . S
O366 Mg367 2.028 . S
O366 C368 1.248 . S
Mg367 O366 2.028 . S
Mg367 O372 2.032 . S
Mg367 O374 2.079 . S
C368 O365 1.250 . S
C368 O366 1.248 . S
C369 O370 1.264 . S
C369 O377 1.249 . S
O370 C369 1.264 . S
O371 Mg364 1.986 . S
O371 C375 1.246 . S
O372 Mg367 2.032 . S
O372 C375 1.259 . S
O373 Mg364 2.114 . S
O373 C376 1.252 . S
O374 Mg364 2.251 . S
O374 Mg367 2.079 . S
O374 C376 1.273 . S
C375 O371 1.246 . S
C375 O372 1.259 . S
C376 O373 1.252 . S
C376 O374 1.273 . S
O377 Mg364 2.010 . S
O377 C369 1.249 . S
Mg378 O379 2.028 . S
Mg378 O385 1.986 . S
Mg378 O387 2.114 . S
Mg378 O388 2.251 . S
Mg378 O391 2.010 . S
O379 Mg378 2.028 . S
O379 C382 1.250 . S
O380 Mg381 2.028 . S
O380 C382 1.248 . S
Mg381 O380 2.028 . S
Mg381 O386 2.032 . S
Mg381 O388 2.079 . S
C382 O379 1.250 . S
C382 O380 1.248 . S
C383 O384 1.264 . S
C383 O391 1.249 . S
O384 C383 1.264 . S
O385 Mg378 1.986 . S
O385 C389 1.246 . S
O386 Mg381 2.032 . S
O386 C389 1.259 . S
O387 Mg378 2.114 . S
O387 C390 1.252 . S
O388 Mg378 2.251 . S
O388 Mg381 2.079 . S
O388 C390 1.273 . S
C389 O385 1.246 . S
C389 O386 1.259 . S
C390 O387 1.252 . S
C390 O388 1.273 . S
O391 Mg378 2.010 . S
O391 C383 1.249 . S
Mg392 O393 2.028 . S
Mg392 O399 1.986 . S
Mg392 O401 2.114 . S
Mg392 O402 2.251 . S
Mg392 O405 2.010 . S
O393 Mg392 2.028 . S
O393 C396 1.250 . S
O394 Mg395 2.028 . S
O394 C396 1.248 . S
Mg395 O394 2.028 . S
Mg395 O400 2.032 . S
Mg395 O402 2.079 . S
C396 O393 1.250 . S
C396 O394 1.248 . S
C397 O398 1.264 1_565 S
C397 O405 1.249 . S
O398 C397 1.264 1_545 S
O399 Mg392 1.986 . S
O399 C403 1.246 . S
O400 Mg395 2.032 . S
O400 C403 1.259 . S
O401 Mg392 2.114 . S
O401 C404 1.252 . S
O402 Mg392 2.251 . S
O402 Mg395 2.079 . S
O402 C404 1.273 . S
C403 O399 1.246 . S
C403 O400 1.259 . S
C404 O401 1.252 . S
C404 O402 1.273 . S
O405 Mg392 2.010 . S
O405 C397 1.249 . S
Mg406 O407 2.028 . S
Mg406 O413 1.986 . S
Mg406 O415 2.114 . S
Mg406 O416 2.251 . S
Mg406 O419 2.010 . S
O407 Mg406 2.028 . S
O407 C410 1.250 . S
O408 Mg409 2.028 . S
O408 C410 1.248 . S
Mg409 O408 2.028 . S
Mg409 O414 2.032 . S
Mg409 O416 2.079 . S
C410 O407 1.250 . S
C410 O408 1.248 . S
C411 O412 1.264 . S
C411 O419 1.249 . S
O412 C411 1.264 . S
O413 Mg406 1.986 . S
O413 C417 1.246 . S
O414 Mg409 2.032 . S
O414 C417 1.259 . S
O415 Mg406 2.114 . S
O415 C418 1.252 . S
O416 Mg406 2.251 . S
O416 Mg409 2.079 . S
O416 C418 1.273 . S
C417 O413 1.246 . S
C417 O414 1.259 . S
C418 O415 1.252 . S
C418 O416 1.273 . S
O419 Mg406 2.010 . S
O419 C411 1.249 . S
Mg420 O421 2.028 . S
Mg420 O427 1.986 . S
Mg420 O429 2.114 . S
Mg420 O430 2.251 . S
Mg420 O433 2.010 . S
O421 Mg420 2.028 . S
O421 C424 1.250 . S
O422 Mg423 2.028 . S
O422 C424 1.248 . S
Mg423 O422 2.028 . S
Mg423 O428 2.032 . S
Mg423 O430 2.079 . S
C424 O421 1.250 . S
C424 O422 1.248 . S
C425 O426 1.264 . S
C425 O433 1.249 . S
O426 C425 1.264 . S
O427 Mg420 1.986 . S
O427 C431 1.246 . S
O428 Mg423 2.032 . S
O428 C431 1.259 . S
O429 Mg420 2.114 . S
O429 C432 1.252 . S
O430 Mg420 2.251 . S
O430 Mg423 2.079 . S
O430 C432 1.273 . S
C431 O427 1.246 . S
C431 O428 1.259 . S
C432 O429 1.252 . S
C432 O430 1.273 . S
O433 Mg420 2.010 . S
O433 C425 1.249 . S
Mg434 O435 2.028 . S
Mg434 O441 1.986 . S
Mg434 O443 2.114 . S
Mg434 O444 2.251 . S
Mg434 O447 2.010 . S
O435 Mg434 2.028 . S
O435 C438 1.250 . S
O436 Mg437 2.028 . S
O436 C438 1.248 . S
Mg437 O436 2.028 . S
Mg437 O442 2.032 . S
Mg437 O444 2.079 . S
C438 O435 1.250 . S
C438 O436 1.248 . S
C439 O440 1.264 . S
C439 O447 1.249 . S
O440 C439 1.264 . S
O441 Mg434 1.986 . S
O441 C445 1.246 . S
O442 Mg437 2.032 . S
O442 C445 1.259 . S
O443 Mg434 2.114 . S
O443 C446 1.252 . S
O444 Mg434 2.251 . S
O444 Mg437 2.079 . S
O444 C446 1.273 . S
C445 O441 1.246 . S
C445 O442 1.259 . S
C446 O443 1.252 . S
C446 O444 1.273 . S
O447 Mg434 2.010 . S
O447 C439 1.249 . S
Mg448 O449 2.028 . S
Mg448 O455 1.986 . S
Mg448 O457 2.114 . S
Mg448 O458 2.251 . S
Mg448 O461 2.010 . S
O449 Mg448 2.028 . S
O449 C452 1.250 . S
O450 Mg451 2.028 . S
O450 C452 1.248 . S
Mg451 O450 2.028 . S
Mg451 O456 2.032 . S
Mg451 O458 2.079 . S
C452 O449 1.250 . S
C452 O450 1.248 . S
C453 O454 1.264 1_554 S
C453 O461 1.249 . S
O454 C453 1.264 1_556 S
O455 Mg448 1.986 . S
O455 C459 1.246 . S
O456 Mg451 2.032 . S
O456 C459 1.259 . S
O457 Mg448 2.114 . S
O457 C460 1.252 . S
O458 Mg448 2.251 . S
O458 Mg451 2.079 . S
O458 C460 1.273 . S
C459 O455 1.246 . S
C459 O456 1.259 . S
C460 O457 1.252 . S
C460 O458 1.273 . S
O461 Mg448 2.010 . S
O461 C453 1.249 . S
Mg462 O463 2.028 . S
Mg462 O469 1.986 . S
Mg462 O471 2.114 . S
Mg462 O472 2.251 . S
Mg462 O475 2.010 . S
O463 Mg462 2.028 . S
O463 C466 1.250 . S
O464 Mg465 2.028 . S
O464 C466 1.248 . S
Mg465 O464 2.028 . S
Mg465 O470 2.032 . S
Mg465 O472 2.079 . S
C466 O463 1.250 . S
C466 O464 1.248 . S
C467 O468 1.264 . S
C467 O475 1.249 . S
O468 C467 1.264 . S
O469 Mg462 1.986 . S
O469 C473 1.246 . S
O470 Mg465 2.032 . S
O470 C473 1.259 . S
O471 Mg462 2.114 . S
O471 C474 1.252 . S
O472 Mg462 2.251 . S
O472 Mg465 2.079 . S
O472 C474 1.273 . S
C473 O469 1.246 . S
C473 O470 1.259 . S
C474 O471 1.252 . S
C474 O472 1.273 . S
O475 Mg462 2.010 . S
O475 C467 1.249 . S
Mg476 O477 2.028 . S
Mg476 O483 1.986 . S
Mg476 O485 2.114 . S
Mg476 O486 2.251 . S
Mg476 O489 2.010 . S
O477 Mg476 2.028 . S
O477 C480 1.250 . S
O478 Mg479 2.028 . S
O478 C480 1.248 . S
Mg479 O478 2.028 . S
Mg479 O484 2.032 . S
Mg479 O486 2.079 . S
C480 O477 1.250 . S
C480 O478 1.248 . S
C481 O482 1.264 . S
C481 O489 1.249 . S
O482 C481 1.264 . S
O483 Mg476 1.986 . S
O483 C487 1.246 . S
O484 Mg479 2.032 . S
O484 C487 1.259 . S
O485 Mg476 2.114 . S
O485 C488 1.252 . S
O486 Mg476 2.251 . S
O486 Mg479 2.079 . S
O486 C488 1.273 . S
C487 O483 1.246 . S
C487 O484 1.259 . S
C488 O485 1.252 . S
C488 O486 1.273 . S
O489 Mg476 2.010 . S
O489 C481 1.249 . S
Mg490 O491 2.028 . S
Mg490 O497 1.986 . S
Mg490 O499 2.114 . S
Mg490 O500 2.251 . S
Mg490 O503 2.010 . S
O491 Mg490 2.028 . S
O491 C494 1.250 . S
O492 Mg493 2.028 . S
O492 C494 1.248 . S
Mg493 O492 2.028 . S
Mg493 O498 2.032 . S
Mg493 O500 2.079 . S
C494 O491 1.250 . S
C494 O492 1.248 . S
C495 O496 1.264 . S
C495 O503 1.249 . S
O496 C495 1.264 . S
O497 Mg490 1.986 . S
O497 C501 1.246 . S
O498 Mg493 2.032 . S
O498 C501 1.259 . S
O499 Mg490 2.114 . S
O499 C502 1.252 . S
O500 Mg490 2.251 . S
O500 Mg493 2.079 . S
O500 C502 1.273 . S
C501 O497 1.246 . S
C501 O498 1.259 . S
C502 O499 1.252 . S
C502 O500 1.273 . S
O503 Mg490 2.010 . S
O503 C495 1.249 . S
Mg504 O505 2.028 . S
Mg504 O511 1.986 . S
Mg504 O513 2.114 . S
Mg504 O514 2.251 . S
Mg504 O517 2.010 . S
O505 Mg504 2.028 . S
O505 C508 1.250 . S
O506 Mg507 2.028 . S
O506 C508 1.248 . S
Mg507 O506 2.028 . S
Mg507 O512 2.032 . S
Mg507 O514 2.079 . S
C508 O505 1.250 . S
C508 O506 1.248 . S
C509 O510 1.264 1_556 S
C509 O517 1.249 . S
O510 C509 1.264 1_554 S
O511 Mg504 1.986 . S
O511 C515 1.246 . S
O512 Mg507 2.032 . S
O512 C515 1.259 . S
O513 Mg504 2.114 . S
O513 C516 1.252 . S
O514 Mg504 2.251 . S
O514 Mg507 2.079 . S
O514 C516 1.273 . S
C515 O511 1.246 . S
C515 O512 1.259 . S
C516 O513 1.252 . S
C516 O514 1.273 . S
O517 Mg504 2.010 . S
O517 C509 1.249 . S
Mg518 O519 2.028 . S
Mg518 O525 1.986 . S
Mg518 O527 2.114 . S
Mg518 O528 2.251 . S
Mg518 O531 2.010 . S
O519 Mg518 2.028 . S
O519 C522 1.250 . S
O520 Mg521 2.028 . S
O520 C522 1.248 . S
Mg521 O520 2.028 . S
Mg521 O526 2.032 . S
Mg521 O528 2.079 . S
C522 O519 1.250 . S
C522 O520 1.248 . S
C523 O524 1.264 . S
C523 O531 1.249 . S
O524 C523 1.264 . S
O525 Mg518 1.986 . S
O525 C529 1.246 . S
O526 Mg521 2.032 . S
O526 C529 1.259 . S
O527 Mg518 2.114 . S
O527 C530 1.252 . S
O528 Mg518 2.251 . S
O528 Mg521 2.079 . S
O528 C530 1.273 . S
C529 O525 1.246 . S
C529 O526 1.259 . S
C530 O527 1.252 . S
C530 O528 1.273 . S
O531 Mg518 2.010 . S
O531 C523 1.249 . S
Mg532 O533 2.028 . S
Mg532 O539 1.986 . S
Mg532 O541 2.114 . S
Mg532 O542 2.251 . S
Mg532 O545 2.010 . S
O533 Mg532 2.028 . S
O533 C536 1.250 . S
O534 Mg535 2.028 . S
O534 C536 1.248 . S
Mg535 O534 2.028 . S
Mg535 O540 2.032 . S
Mg535 O542 2.079 . S
C536 O533 1.250 . S
C536 O534 1.248 . S
C537 O538 1.264 . S
C537 O545 1.249 . S
O538 C537 1.264 . S
O539 Mg532 1.986 . S
O539 C543 1.246 . S
O540 Mg535 2.032 . S
O540 C543 1.259 . S
O541 Mg532 2.114 . S
O541 C544 1.252 . S
O542 Mg532 2.251 . S
O542 Mg535 2.079 . S
O542 C544 1.273 . S
C543 O539 1.246 . S
C543 O540 1.259 . S
C544 O541 1.252 . S
C544 O542 1.273 . S
O545 Mg532 2.010 . S
O545 C537 1.249 . S
Mg546 O547 2.028 . S
Mg546 O553 1.986 . S
Mg546 O555 2.114 . S
Mg546 O556 2.251 . S
Mg546 O559 2.010 . S
O547 Mg546 2.028 . S
O547 C550 1.250 . S
O548 Mg549 2.028 . S
O548 C550 1.248 . S
Mg549 O548 2.028 . S
Mg549 O554 2.032 . S
Mg549 O556 2.079 . S
C550 O547 1.250 . S
C550 O548 1.248 . S
C551 O552 1.264 . S
C551 O559 1.249 . S
O552 C551 1.264 . S
O553 Mg546 1.986 . S
O553 C557 1.246 . S
O554 Mg549 2.032 . S
O554 C557 1.259 . S
O555 Mg546 2.114 . S
O555 C558 1.252 . S
O556 Mg546 2.251 . S
O556 Mg549 2.079 . S
O556 C558 1.273 . S
C557 O553 1.246 . S
C557 O554 1.259 . S
C558 O555 1.252 . S
C558 O556 1.273 . S
O559 Mg546 2.010 . S
O559 C551 1.249 . S
Mg560 O561 2.028 . S
Mg560 O567 1.986 . S
Mg560 O569 2.114 . S
Mg560 O570 2.251 . S
Mg560 O573 2.010 . S
O561 Mg560 2.028 . S
O561 C564 1.250 . S
O562 Mg563 2.028 . S
O562 C564 1.248 . S
Mg563 O562 2.028 . S
Mg563 O568 2.032 . S
Mg563 O570 2.079 . S
C564 O561 1.250 . S
C564 O562 1.248 . S
C565 O566 1.264 . S
C565 O573 1.249 . S
O566 C565 1.264 . S
O567 Mg560 1.986 . S
O567 C571 1.246 . S
O568 Mg563 2.032 . S
O568 C571 1.259 . S
O569 Mg560 2.114 . S
O569 C572 1.252 . S
O570 Mg560 2.251 . S
O570 Mg563 2.079 . S
O570 C572 1.273 . S
C571 O567 1.246 . S
C571 O568 1.259 . S
C572 O569 1.252 . S
C572 O570 1.273 . S
O573 Mg560 2.010 . S
O573 C565 1.249 . S
Mg574 O575 2.028 . S
Mg574 O581 1.986 . S
Mg574 O583 2.114 . S
Mg574 O584 2.251 . S
Mg574 O587 2.010 . S
O575 Mg574 2.028 . S
O575 C578 1.250 . S
O576 Mg577 2.028 . S
O576 C578 1.248 . S
Mg577 O576 2.028 . S
Mg577 O582 2.032 . S
Mg577 O584 2.079 . S
C578 O575 1.250 . S
C578 O576 1.248 . S
C579 O580 1.264 1_455 S
C579 O587 1.249 . S
O580 C579 1.264 1_655 S
O581 Mg574 1.986 . S
O581 C585 1.246 . S
O582 Mg577 2.032 . S
O582 C585 1.259 . S
O583 Mg574 2.114 . S
O583 C586 1.252 . S
O584 Mg574 2.251 . S
O584 Mg577 2.079 . S
O584 C586 1.273 . S
C585 O581 1.246 . S
C585 O582 1.259 . S
C586 O583 1.252 . S
C586 O584 1.273 . S
O587 Mg574 2.010 . S
O587 C579 1.249 . S
Mg588 O589 2.028 . S
Mg588 O595 1.986 . S
Mg588 O597 2.114 . S
Mg588 O598 2.251 . S
Mg588 O601 2.010 . S
O589 Mg588 2.028 . S
O589 C592 1.250 . S
O590 Mg591 2.028 . S
O590 C592 1.248 . S
Mg591 O590 2.028 . S
Mg591 O596 2.032 . S
Mg591 O598 2.079 . S
C592 O589 1.250 . S
C592 O590 1.248 . S
C593 O594 1.264 . S
C593 O601 1.249 . S
O594 C593 1.264 . S
O595 Mg588 1.986 . S
O595 C599 1.246 . S
O596 Mg591 2.032 . S
O596 C599 1.259 . S
O597 Mg588 2.114 . S
O597 C600 1.252 . S
O598 Mg588 2.251 . S
O598 Mg591 2.079 . S
O598 C600 1.273 . S
C599 O595 1.246 . S
C599 O596 1.259 . S
C600 O597 1.252 . S
C600 O598 1.273 . S
O601 Mg588 2.010 . S
O601 C593 1.249 . S
Mg602 O603 2.028 . S
Mg602 O609 1.986 . S
Mg602 O611 2.114 . S
Mg602 O612 2.251 . S
Mg602 O615 2.010 . S
O603 Mg602 2.028 . S
O603 C606 1.250 . S
O604 Mg605 2.028 . S
O604 C606 1.248 . S
Mg605 O604 2.028 . S
Mg605 O610 2.032 . S
Mg605 O612 2.079 . S
C606 O603 1.250 . S
C606 O604 1.248 . S
C607 O608 1.264 1_655 S
C607 O615 1.249 . S
O608 C607 1.264 1_455 S
O609 Mg602 1.986 . S
O609 C613 1.246 . S
O610 Mg605 2.032 . S
O610 C613 1.259 . S
O611 Mg602 2.114 . S
O611 C614 1.252 . S
O612 Mg602 2.251 . S
O612 Mg605 2.079 . S
O612 C614 1.273 . S
C613 O609 1.246 . S
C613 O610 1.259 . S
C614 O611 1.252 . S
C614 O612 1.273 . S
O615 Mg602 2.010 . S
O615 C607 1.249 . S
Mg616 O617 2.028 . S
Mg616 O623 1.986 . S
Mg616 O625 2.114 . S
Mg616 O626 2.251 . S
Mg616 O629 2.010 . S
O617 Mg616 2.028 . S
O617 C620 1.250 . S
O618 Mg619 2.028 . S
O618 C620 1.248 . S
Mg619 O618 2.028 . S
Mg619 O624 2.032 . S
Mg619 O626 2.079 . S
C620 O617 1.250 . S
C620 O618 1.248 . S
C621 O622 1.264 . S
C621 O629 1.249 . S
O622 C621 1.264 . S
O623 Mg616 1.986 . S
O623 C627 1.246 . S
O624 Mg619 2.032 . S
O624 C627 1.259 . S
O625 Mg616 2.114 . S
O625 C628 1.252 . S
O626 Mg616 2.251 . S
O626 Mg619 2.079 . S
O626 C628 1.273 . S
C627 O623 1.246 . S
C627 O624 1.259 . S
C628 O625 1.252 . S
C628 O626 1.273 . S
O629 Mg616 2.010 . S
O629 C621 1.249 . S
Mg630 O631 2.028 . S
Mg630 O637 1.986 . S
Mg630 O639 2.114 . S
Mg630 O640 2.251 . S
Mg630 O643 2.010 . S
O631 Mg630 2.028 . S
O631 C634 1.250 . S
O632 Mg633 2.028 . S
O632 C634 1.248 . S
Mg633 O632 2.028 . S
Mg633 O638 2.032 . S
Mg633 O640 2.079 . S
C634 O631 1.250 . S
C634 O632 1.248 . S
C635 O636 1.264 . S
C635 O643 1.249 . S
O636 C635 1.264 . S
O637 Mg630 1.986 . S
O637 C641 1.246 . S
O638 Mg633 2.032 . S
O638 C641 1.259 . S
O639 Mg630 2.114 . S
O639 C642 1.252 . S
O640 Mg630 2.251 . S
O640 Mg633 2.079 . S
O640 C642 1.273 . S
C641 O637 1.246 . S
C641 O638 1.259 . S
C642 O639 1.252 . S
C642 O640 1.273 . S
O643 Mg630 2.010 . S
O643 C635 1.249 . S
Mg644 O645 2.028 . S
Mg644 O651 1.986 . S
Mg644 O653 2.114 . S
Mg644 O654 2.251 . S
Mg644 O657 2.010 . S
O645 Mg644 2.028 . S
O645 C648 1.250 . S
O646 Mg647 2.028 . S
O646 C648 1.248 . S
Mg647 O646 2.028 . S
Mg647 O652 2.032 . S
Mg647 O654 2.079 . S
C648 O645 1.250 . S
C648 O646 1.248 . S
C649 O650 1.264 . S
C649 O657 1.249 . S
O650 C649 1.264 . S
O651 Mg644 1.986 . S
O651 C655 1.246 . S
O652 Mg647 2.032 . S
O652 C655 1.259 . S
O653 Mg644 2.114 . S
O653 C656 1.252 . S
O654 Mg644 2.251 . S
O654 Mg647 2.079 . S
O654 C656 1.273 . S
C655 O651 1.246 . S
C655 O652 1.259 . S
C656 O653 1.252 . S
C656 O654 1.273 . S
O657 Mg644 2.010 . S
O657 C649 1.249 . S
Mg658 O659 2.028 . S
Mg658 O665 1.986 . S
Mg658 O667 2.114 . S
Mg658 O668 2.251 . S
Mg658 O671 2.010 . S
O659 Mg658 2.028 . S
O659 C662 1.250 . S
O660 Mg661 2.028 . S
O660 C662 1.248 . S
Mg661 O660 2.028 . S
Mg661 O666 2.032 . S
Mg661 O668 2.079 . S
C662 O659 1.250 . S
C662 O660 1.248 . S
C663 O664 1.264 . S
C663 O671 1.249 . S
O664 C663 1.264 . S
O665 Mg658 1.986 . S
O665 C669 1.246 . S
O666 Mg661 2.032 . S
O666 C669 1.259 . S
O667 Mg658 2.114 . S
O667 C670 1.252 . S
O668 Mg658 2.251 . S
O668 Mg661 2.079 . S
O668 C670 1.273 . S
C669 O665 1.246 . S
C669 O666 1.259 . S
C670 O667 1.252 . S
C670 O668 1.273 . S
O671 Mg658 2.010 . S
O671 C663 1.249 . S
Mg672 O673 2.028 . S
Mg672 O679 1.986 . S
Mg672 O681 2.114 . S
Mg672 O682 2.251 . S
Mg672 O685 2.010 . S
O673 Mg672 2.028 . S
O673 C676 1.250 . S
O674 Mg675 2.028 . S
O674 C676 1.248 . S
Mg675 O674 2.028 . S
Mg675 O680 2.032 . S
Mg675 O682 2.079 . S
C676 O673 1.250 . S
C676 O674 1.248 . S
C677 O678 1.264 . S
C677 O685 1.249 . S
O678 C677 1.264 . S
O679 Mg672 1.986 . S
O679 C683 1.246 . S
O680 Mg675 2.032 . S
O680 C683 1.259 . S
O681 Mg672 2.114 . S
O681 C684 1.252 . S
O682 Mg672 2.251 . S
O682 Mg675 2.079 . S
O682 C684 1.273 . S
C683 O679 1.246 . S
C683 O680 1.259 . S
C684 O681 1.252 . S
C684 O682 1.273 . S
O685 Mg672 2.010 . S
O685 C677 1.249 . S
Mg686 O687 2.028 . S
Mg686 O693 1.986 . S
Mg686 O695 2.114 . S
Mg686 O696 2.251 . S
Mg686 O699 2.010 . S
O687 Mg686 2.028 . S
O687 C690 1.250 . S
O688 Mg689 2.028 . S
O688 C690 1.248 . S
Mg689 O688 2.028 . S
Mg689 O694 2.032 . S
Mg689 O696 2.079 . S
C690 O687 1.250 . S
C690 O688 1.248 . S
C691 O692 1.264 . S
C691 O699 1.249 . S
O692 C691 1.264 . S
O693 Mg686 1.986 . S
O693 C697 1.246 . S
O694 Mg689 2.032 . S
O694 C697 1.259 . S
O695 Mg686 2.114 . S
O695 C698 1.252 . S
O696 Mg686 2.251 . S
O696 Mg689 2.079 . S
O696 C698 1.273 . S
C697 O693 1.246 . S
C697 O694 1.259 . S
C698 O695 1.252 . S
C698 O696 1.273 . S
O699 Mg686 2.010 . S
O699 C691 1.249 . S
Mg700 O701 2.028 . S
Mg700 O707 1.986 . S
Mg700 O709 2.114 . S
Mg700 O710 2.251 . S
Mg700 O713 2.010 . S
O701 Mg700 2.028 . S
O701 C704 1.250 . S
O702 Mg703 2.028 . S
O702 C704 1.248 . S
Mg703 O702 2.028 . S
Mg703 O708 2.032 . S
Mg703 O710 2.079 . S
C704 O701 1.250 . S
C704 O702 1.248 . S
C705 O706 1.264 1_565 S
C705 O713 1.249 . S
O706 C705 1.264 1_545 S
O707 Mg700 1.986 . S
O707 C711 1.246 . S
O708 Mg703 2.032 . S
O708 C711 1.259 . S
O709 Mg700 2.114 . S
O709 C712 1.252 . S
O710 Mg700 2.251 . S
O710 Mg703 2.079 . S
O710 C712 1.273 . S
C711 O707 1.246 . S
C711 O708 1.259 . S
C712 O709 1.252 . S
C712 O710 1.273 . S
O713 Mg700 2.010 . S
O713 C705 1.249 . S
Mg714 O715 2.028 . S
Mg714 O721 1.986 . S
Mg714 O723 2.114 . S
Mg714 O724 2.251 . S
Mg714 O727 2.010 . S
O715 Mg714 2.028 . S
O715 C718 1.250 . S
O716 Mg717 2.028 . S
O716 C718 1.248 . S
Mg717 O716 2.028 . S
Mg717 O722 2.032 . S
Mg717 O724 2.079 . S
C718 O715 1.250 . S
C718 O716 1.248 . S
C719 O720 1.264 . S
C719 O727 1.249 . S
O720 C719 1.264 . S
O721 Mg714 1.986 . S
O721 C725 1.246 . S
O722 Mg717 2.032 . S
O722 C725 1.259 . S
O723 Mg714 2.114 . S
O723 C726 1.252 . S
O724 Mg714 2.251 . S
O724 Mg717 2.079 . S
O724 C726 1.273 . S
C725 O721 1.246 . S
C725 O722 1.259 . S
C726 O723 1.252 . S
C726 O724 1.273 . S
O727 Mg714 2.010 . S
O727 C719 1.249 . S
Mg728 O729 2.028 . S
Mg728 O735 1.986 . S
Mg728 O737 2.114 . S
Mg728 O738 2.251 . S
Mg728 O741 2.010 . S
O729 Mg728 2.028 . S
O729 C732 1.250 . S
O730 Mg731 2.028 . S
O730 C732 1.248 . S
Mg731 O730 2.028 . S
Mg731 O736 2.032 . S
Mg731 O738 2.079 . S
C732 O729 1.250 . S
C732 O730 1.248 . S
C733 O734 1.264 . S
C733 O741 1.249 . S
O734 C733 1.264 . S
O735 Mg728 1.986 . S
O735 C739 1.246 . S
O736 Mg731 2.032 . S
O736 C739 1.259 . S
O737 Mg728 2.114 . S
O737 C740 1.252 . S
O738 Mg728 2.251 . S
O738 Mg731 2.079 . S
O738 C740 1.273 . S
C739 O735 1.246 . S
C739 O736 1.259 . S
C740 O737 1.252 . S
C740 O738 1.273 . S
O741 Mg728 2.010 . S
O741 C733 1.249 . S
Mg742 O743 2.028 . S
Mg742 O749 1.986 . S
Mg742 O751 2.114 . S
Mg742 O752 2.251 . S
Mg742 O755 2.010 . S
O743 Mg742 2.028 . S
O743 C746 1.250 . S
O744 Mg745 2.028 . S
O744 C746 1.248 . S
Mg745 O744 2.028 . S
Mg745 O750 2.032 . S
Mg745 O752 2.079 . S
C746 O743 1.250 . S
C746 O744 1.248 . S
C747 O748 1.264 . S
C747 O755 1.249 . S
O748 C747 1.264 . S
O749 Mg742 1.986 . S
O749 C753 1.246 . S
O750 Mg745 2.032 . S
O750 C753 1.259 . S
O751 Mg742 2.114 . S
O751 C754 1.252 . S
O752 Mg742 2.251 . S
O752 Mg745 2.079 . S
O752 C754 1.273 . S
C753 O749 1.246 . S
C753 O750 1.259 . S
C754 O751 1.252 . S
C754 O752 1.273 . S
O755 Mg742 2.010 . S
O755 C747 1.249 . S
Mg756 O757 2.028 . S
Mg756 O763 1.986 . S
Mg756 O765 2.114 . S
Mg756 O766 2.251 . S
Mg756 O769 2.010 . S
O757 Mg756 2.028 . S
O757 C760 1.250 . S
O758 Mg759 2.028 . S
O758 C760 1.248 . S
Mg759 O758 2.028 . S
Mg759 O764 2.032 . S
Mg759 O766 2.079 . S
C760 O757 1.250 . S
C760 O758 1.248 . S
C761 O762 1.264 1_545 S
C761 O769 1.249 . S
O762 C761 1.264 1_565 S
O763 Mg756 1.986 . S
O763 C767 1.246 . S
O764 Mg759 2.032 . S
O764 C767 1.259 . S
O765 Mg756 2.114 . S
O765 C768 1.252 . S
O766 Mg756 2.251 . S
O766 Mg759 2.079 . S
O766 C768 1.273 . S
C767 O763 1.246 . S
C767 O764 1.259 . S
C768 O765 1.252 . S
C768 O766 1.273 . S
O769 Mg756 2.010 . S
O769 C761 1.249 . S
Mg770 O771 2.028 . S
Mg770 O777 1.986 . S
Mg770 O779 2.114 . S
Mg770 O780 2.251 . S
Mg770 O783 2.010 . S
O771 Mg770 2.028 . S
O771 C774 1.250 . S
O772 Mg773 2.028 . S
O772 C774 1.248 . S
Mg773 O772 2.028 . S
Mg773 O778 2.032 . S
Mg773 O780 2.079 . S
C774 O771 1.250 . S
C774 O772 1.248 . S
C775 O776 1.264 . S
C775 O783 1.249 . S
O776 C775 1.264 . S
O777 Mg770 1.986 . S
O777 C781 1.246 . S
O778 Mg773 2.032 . S
O778 C781 1.259 . S
O779 Mg770 2.114 . S
O779 C782 1.252 . S
O780 Mg770 2.251 . S
O780 Mg773 2.079 . S
O780 C782 1.273 . S
C781 O777 1.246 . S
C781 O778 1.259 . S
C782 O779 1.252 . S
C782 O780 1.273 . S
O783 Mg770 2.010 . S
O783 C775 1.249 . S
Mg784 O785 2.028 . S
Mg784 O791 1.986 . S
Mg784 O793 2.114 . S
Mg784 O794 2.251 . S
Mg784 O797 2.010 . S
O785 Mg784 2.028 . S
O785 C788 1.250 . S
O786 Mg787 2.028 . S
O786 C788 1.248 . S
Mg787 O786 2.028 . S
Mg787 O792 2.032 . S
Mg787 O794 2.079 . S
C788 O785 1.250 . S
C788 O786 1.248 . S
C789 O790 1.264 1_554 S
C789 O797 1.249 . S
O790 C789 1.264 1_556 S
O791 Mg784 1.986 . S
O791 C795 1.246 . S
O792 Mg787 2.032 . S
O792 C795 1.259 . S
O793 Mg784 2.114 . S
O793 C796 1.252 . S
O794 Mg784 2.251 . S
O794 Mg787 2.079 . S
O794 C796 1.273 . S
C795 O791 1.246 . S
C795 O792 1.259 . S
C796 O793 1.252 . S
C796 O794 1.273 . S
O797 Mg784 2.010 . S
O797 C789 1.249 . S
Mg798 O799 2.028 . S
Mg798 O805 1.986 . S
Mg798 O807 2.114 . S
Mg798 O808 2.251 . S
Mg798 O811 2.010 . S
O799 Mg798 2.028 . S
O799 C802 1.250 . S
O800 Mg801 2.028 . S
O800 C802 1.248 . S
Mg801 O800 2.028 . S
Mg801 O806 2.032 . S
Mg801 O808 2.079 . S
C802 O799 1.250 . S
C802 O800 1.248 . S
C803 O804 1.264 . S
C803 O811 1.249 . S
O804 C803 1.264 . S
O805 Mg798 1.986 . S
O805 C809 1.246 . S
O806 Mg801 2.032 . S
O806 C809 1.259 . S
O807 Mg798 2.114 . S
O807 C810 1.252 . S
O808 Mg798 2.251 . S
O808 Mg801 2.079 . S
O808 C810 1.273 . S
C809 O805 1.246 . S
C809 O806 1.259 . S
C810 O807 1.252 . S
C810 O808 1.273 . S
O811 Mg798 2.010 . S
O811 C803 1.249 . S
Mg812 O813 2.028 . S
Mg812 O819 1.986 . S
Mg812 O821 2.114 . S
Mg812 O822 2.251 . S
Mg812 O825 2.010 . S
O813 Mg812 2.028 . S
O813 C816 1.250 . S
O814 Mg815 2.028 . S
O814 C816 1.248 . S
Mg815 O814 2.028 . S
Mg815 O820 2.032 . S
Mg815 O822 2.079 . S
C816 O813 1.250 . S
C816 O814 1.248 . S
C817 O818 1.264 . S
C817 O825 1.249 . S
O818 C817 1.264 . S
O819 Mg812 1.986 . S
O819 C823 1.246 . S
O820 Mg815 2.032 . S
O820 C823 1.259 . S
O821 Mg812 2.114 . S
O821 C824 1.252 . S
O822 Mg812 2.251 . S
O822 Mg815 2.079 . S
O822 C824 1.273 . S
C823 O819 1.246 . S
C823 O820 1.259 . S
C824 O821 1.252 . S
C824 O822 1.273 . S
O825 Mg812 2.010 . S
O825 C817 1.249 . S
Mg826 O827 2.028 . S
Mg826 O833 1.986 . S
Mg826 O835 2.114 . S
Mg826 O836 2.251 . S
Mg826 O839 2.010 . S
O827 Mg826 2.028 . S
O827 C830 1.250 . S
O828 Mg829 2.028 . S
O828 C830 1.248 . S
Mg829 O828 2.028 . S
Mg829 O834 2.032 . S
Mg829 O836 2.079 . S
C830 O827 1.250 . S
C830 O828 1.248 . S
C831 O832 1.264 . S
C831 O839 1.249 . S
O832 C831 1.264 . S
O833 Mg826 1.986 . S
O833 C837 1.246 . S
O834 Mg829 2.032 . S
O834 C837 1.259 . S
O835 Mg826 2.114 . S
O835 C838 1.252 . S
O836 Mg826 2.251 . S
O836 Mg829 2.079 . S
O836 C838 1.273 . S
C837 O833 1.246 . S
C837 O834 1.259 . S
C838 O835 1.252 . S
C838 O836 1.273 . S
O839 Mg826 2.010 . S
O839 C831 1.249 . S
Mg840 O841 2.028 . S
Mg840 O847 1.986 . S
Mg840 O849 2.114 . S
Mg840 O850 2.251 . S
Mg840 O853 2.010 . S
O841 Mg840 2.028 . S
O841 C844 1.250 . S
O842 Mg843 2.028 . S
O842 C844 1.248 . S
Mg843 O842 2.028 . S
Mg843 O848 2.032 . S
Mg843 O850 2.079 . S
C844 O841 1.250 . S
C844 O842 1.248 . S
C845 O846 1.264 1_556 S
C845 O853 1.249 . S
O846 C845 1.264 1_554 S
O847 Mg840 1.986 . S
O847 C851 1.246 . S
O848 Mg843 2.032 . S
O848 C851 1.259 . S
O849 Mg840 2.114 . S
O849 C852 1.252 . S
O850 Mg840 2.251 . S
O850 Mg843 2.079 . S
O850 C852 1.273 . S
C851 O847 1.246 . S
C851 O848 1.259 . S
C852 O849 1.252 . S
C852 O850 1.273 . S
O853 Mg840 2.010 . S
O853 C845 1.249 . S
Mg854 O855 2.028 . S
Mg854 O861 1.986 . S
Mg854 O863 2.114 . S
Mg854 O864 2.251 . S
Mg854 O867 2.010 . S
O855 Mg854 2.028 . S
O855 C858 1.250 . S
O856 Mg857 2.028 . S
O856 C858 1.248 . S
Mg857 O856 2.028 . S
Mg857 O862 2.032 . S
Mg857 O864 2.079 . S
C858 O855 1.250 . S
C858 O856 1.248 . S
C859 O860 1.264 . S
C859 O867 1.249 . S
O860 C859 1.264 . S
O861 Mg854 1.986 . S
O861 C865 1.246 . S
O862 Mg857 2.032 . S
O862 C865 1.259 . S
O863 Mg854 2.114 . S
O863 C866 1.252 . S
O864 Mg854 2.251 . S
O864 Mg857 2.079 . S
O864 C866 1.273 . S
C865 O861 1.246 . S
C865 O862 1.259 . S
C866 O863 1.252 . S
C866 O864 1.273 . S
O867 Mg854 2.010 . S
O867 C859 1.249 . S
Mg868 O869 2.028 . S
Mg868 O875 1.986 . S
Mg868 O877 2.114 . S
Mg868 O878 2.251 . S
Mg868 O881 2.010 . S
O869 Mg868 2.028 . S
O869 C872 1.250 . S
O870 Mg871 2.028 . S
O870 C872 1.248 . S
Mg871 O870 2.028 . S
Mg871 O876 2.032 . S
Mg871 O878 2.079 . S
C872 O869 1.250 . S
C872 O870 1.248 . S
C873 O874 1.264 . S
C873 O881 1.249 . S
O874 C873 1.264 . S
O875 Mg868 1.986 . S
O875 C879 1.246 . S
O876 Mg871 2.032 . S
O876 C879 1.259 . S
O877 Mg868 2.114 . S
O877 C880 1.252 . S
O878 Mg868 2.251 . S
O878 Mg871 2.079 . S
O878 C880 1.273 . S
C879 O875 1.246 . S
C879 O876 1.259 . S
C880 O877 1.252 . S
C880 O878 1.273 . S
O881 Mg868 2.010 . S
O881 C873 1.249 . S
Mg882 O883 2.028 . S
Mg882 O889 1.986 . S
Mg882 O891 2.114 . S
Mg882 O892 2.251 . S
Mg882 O895 2.010 . S
O883 Mg882 2.028 . S
O883 C886 1.250 . S
O884 Mg885 2.028 . S
O884 C886 1.248 . S
Mg885 O884 2.028 . S
Mg885 O890 2.032 . S
Mg885 O892 2.079 . S
C886 O883 1.250 . S
C886 O884 1.248 . S
C887 O888 1.264 . S
C887 O895 1.249 . S
O888 C887 1.264 . S
O889 Mg882 1.986 . S
O889 C893 1.246 . S
O890 Mg885 2.032 . S
O890 C893 1.259 . S
O891 Mg882 2.114 . S
O891 C894 1.252 . S
O892 Mg882 2.251 . S
O892 Mg885 2.079 . S
O892 C894 1.273 . S
C893 O889 1.246 . S
C893 O890 1.259 . S
C894 O891 1.252 . S
C894 O892 1.273 . S
O895 Mg882 2.010 . S
O895 C887 1.249 . S
Mg896 O897 2.028 . S
Mg896 O903 1.986 . S
Mg896 O905 2.114 . S
Mg896 O906 2.251 . S
Mg896 O909 2.010 . S
O897 Mg896 2.028 . S
O897 C900 1.250 . S
O898 Mg899 2.028 . S
O898 C900 1.248 . S
Mg899 O898 2.028 . S
Mg899 O904 2.032 . S
Mg899 O906 2.079 . S
C900 O897 1.250 . S
C900 O898 1.248 . S
C901 O902 1.264 1_455 S
C901 O909 1.249 . S
O902 C901 1.264 1_655 S
O903 Mg896 1.986 . S
O903 C907 1.246 . S
O904 Mg899 2.032 . S
O904 C907 1.259 . S
O905 Mg896 2.114 . S
O905 C908 1.252 . S
O906 Mg896 2.251 . S
O906 Mg899 2.079 . S
O906 C908 1.273 . S
C907 O903 1.246 . S
C907 O904 1.259 . S
C908 O905 1.252 . S
C908 O906 1.273 . S
O909 Mg896 2.010 . S
O909 C901 1.249 . S
Mg910 O911 2.028 . S
Mg910 O917 1.986 . S
Mg910 O919 2.114 . S
Mg910 O920 2.251 . S
Mg910 O923 2.010 . S
O911 Mg910 2.028 . S
O911 C914 1.250 . S
O912 Mg913 2.028 . S
O912 C914 1.248 . S
Mg913 O912 2.028 . S
Mg913 O918 2.032 . S
Mg913 O920 2.079 . S
C914 O911 1.250 . S
C914 O912 1.248 . S
C915 O916 1.264 . S
C915 O923 1.249 . S
O916 C915 1.264 . S
O917 Mg910 1.986 . S
O917 C921 1.246 . S
O918 Mg913 2.032 . S
O918 C921 1.259 . S
O919 Mg910 2.114 . S
O919 C922 1.252 . S
O920 Mg910 2.251 . S
O920 Mg913 2.079 . S
O920 C922 1.273 . S
C921 O917 1.246 . S
C921 O918 1.259 . S
C922 O919 1.252 . S
C922 O920 1.273 . S
O923 Mg910 2.010 . S
O923 C915 1.249 . S
Mg924 O925 2.028 . S
Mg924 O931 1.986 . S
Mg924 O933 2.114 . S
Mg924 O934 2.251 . S
Mg924 O937 2.010 . S
O925 Mg924 2.028 . S
O925 C928 1.250 . S
O926 Mg927 2.028 . S
O926 C928 1.248 . S
Mg927 O926 2.028 . S
Mg927 O932 2.032 . S
Mg927 O934 2.079 . S
C928 O925 1.250 . S
C928 O926 1.248 . S
C929 O930 1.264 . S
C929 O937 1.249 . S
O930 C929 1.264 . S
O931 Mg924 1.986 . S
O931 C935 1.246 . S
O932 Mg927 2.032 . S
O932 C935 1.259 . S
O933 Mg924 2.114 . S
O933 C936 1.252 . S
O934 Mg924 2.251 . S
O934 Mg927 2.079 . S
O934 C936 1.273 . S
C935 O931 1.246 . S
C935 O932 1.259 . S
C936 O933 1.252 . S
C936 O934 1.273 . S
O937 Mg924 2.010 . S
O937 C929 1.249 . S
Mg938 O939 2.028 . S
Mg938 O945 1.986 . S
Mg938 O947 2.114 . S
Mg938 O948 2.251 . S
Mg938 O951 2.010 . S
O939 Mg938 2.028 . S
O939 C942 1.250 . S
O940 Mg941 2.028 . S
O940 C942 1.248 . S
Mg941 O940 2.028 . S
Mg941 O946 2.032 . S
Mg941 O948 2.079 . S
C942 O939 1.250 . S
C942 O940 1.248 . S
C943 O944 1.264 . S
C943 O951 1.249 . S
O944 C943 1.264 . S
O945 Mg938 1.986 . S
O945 C949 1.246 . S
O946 Mg941 2.032 . S
O946 C949 1.259 . S
O947 Mg938 2.114 . S
O947 C950 1.252 . S
O948 Mg938 2.251 . S
O948 Mg941 2.079 . S
O948 C950 1.273 . S
C949 O945 1.246 . S
C949 O946 1.259 . S
C950 O947 1.252 . S
C950 O948 1.273 . S
O951 Mg938 2.010 . S
O951 C943 1.249 . S
Mg952 O953 2.028 . S
Mg952 O959 1.986 . S
Mg952 O961 2.114 . S
Mg952 O962 2.251 . S
Mg952 O965 2.010 . S
O953 Mg952 2.028 . S
O953 C956 1.250 . S
O954 Mg955 2.028 . S
O954 C956 1.248 . S
Mg955 O954 2.028 . S
Mg955 O960 2.032 . S
Mg955 O962 2.079 . S
C956 O953 1.250 . S
C956 O954 1.248 . S
C957 O958 1.264 . S
C957 O965 1.249 . S
O958 C957 1.264 . S
O959 Mg952 1.986 . S
O959 C963 1.246 . S
O960 Mg955 2.032 . S
O960 C963 1.259 . S
O961 Mg952 2.114 . S
O961 C964 1.252 . S
O962 Mg952 2.251 . S
O962 Mg955 2.079 . S
O962 C964 1.273 . S
C963 O959 1.246 . S
C963 O960 1.259 . S
C964 O961 1.252 . S
C964 O962 1.273 . S
O965 Mg952 2.010 . S
O965 C957 1.249 . S
Mg966 O967 2.028 . S
Mg966 O973 1.986 . S
Mg966 O975 2.114 . S
Mg966 O976 2.251 . S
Mg966 O979 2.010 . S
O967 Mg966 2.028 . S
O967 C970 1.250 . S
O968 Mg969 2.028 . S
O968 C970 1.248 . S
Mg969 O968 2.028 . S
Mg969 O974 2.032 . S
Mg969 O976 2.079 . S
C970 O967 1.250 . S
C970 O968 1.248 . S
C971 O972 1.264 1_655 S
C971 O979 1.249 . S
O972 C971 1.264 1_455 S
O973 Mg966 1.986 . S
O973 C977 1.246 . S
O974 Mg969 2.032 . S
O974 C977 1.259 . S
O975 Mg966 2.114 . S
O975 C978 1.252 . S
O976 Mg966 2.251 . S
O976 Mg969 2.079 . S
O976 C978 1.273 . S
C977 O973 1.246 . S
C977 O974 1.259 . S
C978 O975 1.252 . S
C978 O976 1.273 . S
O979 Mg966 2.010 . S
O979 C971 1.249 . S
Mg980 O981 2.028 . S
Mg980 O987 1.986 . S
Mg980 O989 2.114 . S
Mg980 O990 2.251 . S
Mg980 O993 2.010 . S
O981 Mg980 2.028 . S
O981 C984 1.250 . S
O982 Mg983 2.028 . S
O982 C984 1.248 . S
Mg983 O982 2.028 . S
Mg983 O988 2.032 . S
Mg983 O990 2.079 . S
C984 O981 1.250 . S
C984 O982 1.248 . S
C985 O986 1.264 . S
C985 O993 1.249 . S
O986 C985 1.264 . S
O987 Mg980 1.986 . S
O987 C991 1.246 . S
O988 Mg983 2.032 . S
O988 C991 1.259 . S
O989 Mg980 2.114 . S
O989 C992 1.252 . S
O990 Mg980 2.251 . S
O990 Mg983 2.079 . S
O990 C992 1.273 . S
C991 O987 1.246 . S
C991 O988 1.259 . S
C992 O989 1.252 . S
C992 O990 1.273 . S
O993 Mg980 2.010 . S
O993 C985 1.249 . S
Mg994 O995 2.028 . S
Mg994 O1001 1.986 . S
Mg994 O1003 2.114 . S
Mg994 O1004 2.251 . S
Mg994 O1007 2.010 . S
O995 Mg994 2.028 . S
O995 C998 1.250 . S
O996 Mg997 2.028 . S
O996 C998 1.248 . S
Mg997 O996 2.028 . S
Mg997 O1002 2.032 . S
Mg997 O1004 2.079 . S
C998 O995 1.250 . S
C998 O996 1.248 . S
C999 O1000 1.264 . S
C999 O1007 1.249 . S
O1000 C999 1.264 . S
O1001 Mg994 1.986 . S
O1001 C1005 1.246 . S
O1002 Mg997 2.032 . S
O1002 C1005 1.259 . S
O1003 Mg994 2.114 . S
O1003 C1006 1.252 . S
O1004 Mg994 2.251 . S
O1004 Mg997 2.079 . S
O1004 C1006 1.273 . S
C1005 O1001 1.246 . S
C1005 O1002 1.259 . S
C1006 O1003 1.252 . S
C1006 O1004 1.273 . S
O1007 Mg994 2.010 . S
O1007 C999 1.249 . S
Mg1008 O1009 2.028 . S
Mg1008 O1015 1.986 . S
Mg1008 O1017 2.114 . S
Mg1008 O1018 2.251 . S
Mg1008 O1021 2.010 . S
O1009 Mg1008 2.028 . S
O1009 C1012 1.250 . S
O1010 Mg1011 2.028 . S
O1010 C1012 1.248 . S
Mg1011 O1010 2.028 . S
Mg1011 O1016 2.032 . S
Mg1011 O1018 2.079 . S
C1012 O1009 1.250 . S
C1012 O1010 1.248 . S
C1013 O1014 1.264 1_545 S
C1013 O1021 1.249 . S
O1014 C1013 1.264 1_565 S
O1015 Mg1008 1.986 . S
O1015 C1019 1.246 . S
O1016 Mg1011 2.032 . S
O1016 C1019 1.259 . S
O1017 Mg1008 2.114 . S
O1017 C1020 1.252 . S
O1018 Mg1008 2.251 . S
O1018 Mg1011 2.079 . S
O1018 C1020 1.273 . S
C1019 O1015 1.246 . S
C1019 O1016 1.259 . S
C1020 O1017 1.252 . S
C1020 O1018 1.273 . S
O1021 Mg1008 2.010 . S
O1021 C1013 1.249 . S
Mg1022 O1023 2.028 . S
Mg1022 O1029 1.986 . S
Mg1022 O1031 2.114 . S
Mg1022 O1032 2.251 . S
Mg1022 O1035 2.010 . S
O1023 Mg1022 2.028 . S
O1023 C1026 1.250 . S
O1024 Mg1025 2.028 . S
O1024 C1026 1.248 . S
Mg1025 O1024 2.028 . S
Mg1025 O1030 2.032 . S
Mg1025 O1032 2.079 . S
C1026 O1023 1.250 . S
C1026 O1024 1.248 . S
C1027 O1028 1.264 . S
C1027 O1035 1.249 . S
O1028 C1027 1.264 . S
O1029 Mg1022 1.986 . S
O1029 C1033 1.246 . S
O1030 Mg1025 2.032 . S
O1030 C1033 1.259 . S
O1031 Mg1022 2.114 . S
O1031 C1034 1.252 . S
O1032 Mg1022 2.251 . S
O1032 Mg1025 2.079 . S
O1032 C1034 1.273 . S
C1033 O1029 1.246 . S
C1033 O1030 1.259 . S
C1034 O1031 1.252 . S
C1034 O1032 1.273 . S
O1035 Mg1022 2.010 . S
O1035 C1027 1.249 . S
Mg1036 O1037 2.028 . S
Mg1036 O1043 1.986 . S
Mg1036 O1045 2.114 . S
Mg1036 O1046 2.251 . S
Mg1036 O1049 2.010 . S
O1037 Mg1036 2.028 . S
O1037 C1040 1.250 . S
O1038 Mg1039 2.028 . S
O1038 C1040 1.248 . S
Mg1039 O1038 2.028 . S
Mg1039 O1044 2.032 . S
Mg1039 O1046 2.079 . S
C1040 O1037 1.250 . S
C1040 O1038 1.248 . S
C1041 O1042 1.264 . S
C1041 O1049 1.249 . S
O1042 C1041 1.264 . S
O1043 Mg1036 1.986 . S
O1043 C1047 1.246 . S
O1044 Mg1039 2.032 . S
O1044 C1047 1.259 . S
O1045 Mg1036 2.114 . S
O1045 C1048 1.252 . S
O1046 Mg1036 2.251 . S
O1046 Mg1039 2.079 . S
O1046 C1048 1.273 . S
C1047 O1043 1.246 . S
C1047 O1044 1.259 . S
C1048 O1045 1.252 . S
C1048 O1046 1.273 . S
O1049 Mg1036 2.010 . S
O1049 C1041 1.249 . S
Mg1050 O1051 2.028 . S
Mg1050 O1057 1.986 . S
Mg1050 O1059 2.114 . S
Mg1050 O1060 2.251 . S
Mg1050 O1063 2.010 . S
O1051 Mg1050 2.028 . S
O1051 C1054 1.250 . S
O1052 Mg1053 2.028 . S
O1052 C1054 1.248 . S
Mg1053 O1052 2.028 . S
Mg1053 O1058 2.032 . S
Mg1053 O1060 2.079 . S
C1054 O1051 1.250 . S
C1054 O1052 1.248 . S
C1055 O1056 1.264 . S
C1055 O1063 1.249 . S
O1056 C1055 1.264 . S
O1057 Mg1050 1.986 . S
O1057 C1061 1.246 . S
O1058 Mg1053 2.032 . S
O1058 C1061 1.259 . S
O1059 Mg1050 2.114 . S
O1059 C1062 1.252 . S
O1060 Mg1050 2.251 . S
O1060 Mg1053 2.079 . S
O1060 C1062 1.273 . S
C1061 O1057 1.246 . S
C1061 O1058 1.259 . S
C1062 O1059 1.252 . S
C1062 O1060 1.273 . S
O1063 Mg1050 2.010 . S
O1063 C1055 1.249 . S
Mg1064 O1065 2.028 . S
Mg1064 O1071 1.986 . S
Mg1064 O1073 2.114 . S
Mg1064 O1074 2.251 . S
Mg1064 O1077 2.010 . S
O1065 Mg1064 2.028 . S
O1065 C1068 1.250 . S
O1066 Mg1067 2.028 . S
O1066 C1068 1.248 . S
Mg1067 O1066 2.028 . S
Mg1067 O1072 2.032 . S
Mg1067 O1074 2.079 . S
C1068 O1065 1.250 . S
C1068 O1066 1.248 . S
C1069 O1070 1.264 1_565 S
C1069 O1077 1.249 . S
O1070 C1069 1.264 1_545 S
O1071 Mg1064 1.986 . S
O1071 C1075 1.246 . S
O1072 Mg1067 2.032 . S
O1072 C1075 1.259 . S
O1073 Mg1064 2.114 . S
O1073 C1076 1.252 . S
O1074 Mg1064 2.251 . S
O1074 Mg1067 2.079 . S
O1074 C1076 1.273 . S
C1075 O1071 1.246 . S
C1075 O1072 1.259 . S
C1076 O1073 1.252 . S
C1076 O1074 1.273 . S
O1077 Mg1064 2.010 . S
O1077 C1069 1.249 . S
Mg1078 O1079 2.028 . S
Mg1078 O1085 1.986 . S
Mg1078 O1087 2.114 . S
Mg1078 O1088 2.251 . S
Mg1078 O1091 2.010 . S
O1079 Mg1078 2.028 . S
O1079 C1082 1.250 . S
O1080 Mg1081 2.028 . S
O1080 C1082 1.248 . S
Mg1081 O1080 2.028 . S
Mg1081 O1086 2.032 . S
Mg1081 O1088 2.079 . S
C1082 O1079 1.250 . S
C1082 O1080 1.248 . S
C1083 O1084 1.264 . S
C1083 O1091 1.249 . S
O1084 C1083 1.264 . S
O1085 Mg1078 1.986 . S
O1085 C1089 1.246 . S
O1086 Mg1081 2.032 . S
O1086 C1089 1.259 . S
O1087 Mg1078 2.114 . S
O1087 C1090 1.252 . S
O1088 Mg1078 2.251 . S
O1088 Mg1081 2.079 . S
O1088 C1090 1.273 . S
C1089 O1085 1.246 . S
C1089 O1086 1.259 . S
C1090 O1087 1.252 . S
C1090 O1088 1.273 . S
O1091 Mg1078 2.010 . S
O1091 C1083 1.249 . S
Mg1092 O1093 2.028 . S
Mg1092 O1099 1.986 . S
Mg1092 O1101 2.114 . S
Mg1092 O1102 2.251 . S
Mg1092 O1105 2.010 . S
O1093 Mg1092 2.028 . S
O1093 C1096 1.250 . S
O1094 Mg1095 2.028 . S
O1094 C1096 1.248 . S
Mg1095 O1094 2.028 . S
Mg1095 O1100 2.032 . S
Mg1095 O1102 2.079 . S
C1096 O1093 1.250 . S
C1096 O1094 1.248 . S
C1097 O1098 1.264 . S
C1097 O1105 1.249 . S
O1098 C1097 1.264 . S
O1099 Mg1092 1.986 . S
O1099 C1103 1.246 . S
O1100 Mg1095 2.032 . S
O1100 C1103 1.259 . S
O1101 Mg1092 2.114 . S
O1101 C1104 1.252 . S
O1102 Mg1092 2.251 . S
O1102 Mg1095 2.079 . S
O1102 C1104 1.273 . S
C1103 O1099 1.246 . S
C1103 O1100 1.259 . S
C1104 O1101 1.252 . S
C1104 O1102 1.273 . S
O1105 Mg1092 2.010 . S
O1105 C1097 1.249 . S
Mg1106 O1107 2.028 . S
Mg1106 O1113 1.986 . S
Mg1106 O1115 2.114 . S
Mg1106 O1116 2.251 . S
Mg1106 O1119 2.010 . S
O1107 Mg1106 2.028 . S
O1107 C1110 1.250 . S
O1108 Mg1109 2.028 . S
O1108 C1110 1.248 . S
Mg1109 O1108 2.028 . S
Mg1109 O1114 2.032 . S
Mg1109 O1116 2.079 . S
C1110 O1107 1.250 . S
C1110 O1108 1.248 . S
C1111 O1112 1.264 . S
C1111 O1119 1.249 . S
O1112 C1111 1.264 . S
O1113 Mg1106 1.986 . S
O1113 C1117 1.246 . S
O1114 Mg1109 2.032 . S
O1114 C1117 1.259 . S
O1115 Mg1106 2.114 . S
O1115 C1118 1.252 . S
O1116 Mg1106 2.251 . S
O1116 Mg1109 2.079 . S
O1116 C1118 1.273 . S
C1117 O1113 1.246 . S
C1117 O1114 1.259 . S
C1118 O1115 1.252 . S
C1118 O1116 1.273 . S
O1119 Mg1106 2.010 . S
O1119 C1111 1.249 . S
Mg1120 O1121 2.028 . S
Mg1120 O1127 1.986 . S
Mg1120 O1129 2.114 . S
Mg1120 O1130 2.251 . S
Mg1120 O1133 2.010 . S
O1121 Mg1120 2.028 . S
O1121 C1124 1.250 . S
O1122 Mg1123 2.028 . S
O1122 C1124 1.248 . S
Mg1123 O1122 2.028 . S
Mg1123 O1128 2.032 . S
Mg1123 O1130 2.079 . S
C1124 O1121 1.250 . S
C1124 O1122 1.248 . S
C1125 O1126 1.264 . S
C1125 O1133 1.249 . S
O1126 C1125 1.264 . S
O1127 Mg1120 1.986 . S
O1127 C1131 1.246 . S
O1128 Mg1123 2.032 . S
O1128 C1131 1.259 . S
O1129 Mg1120 2.114 . S
O1129 C1132 1.252 . S
O1130 Mg1120 2.251 . S
O1130 Mg1123 2.079 . S
O1130 C1132 1.273 . S
C1131 O1127 1.246 . S
C1131 O1128 1.259 . S
C1132 O1129 1.252 . S
C1132 O1130 1.273 . S
O1133 Mg1120 2.010 . S
O1133 C1125 1.249 . S
Mg1134 O1135 2.028 . S
Mg1134 O1141 1.986 . S
Mg1134 O1143 2.114 . S
Mg1134 O1144 2.251 . S
Mg1134 O1147 2.010 . S
O1135 Mg1134 2.028 . S
O1135 C1138 1.250 . S
O1136 Mg1137 2.028 . S
O1136 C1138 1.248 . S
Mg1137 O1136 2.028 . S
Mg1137 O1142 2.032 . S
Mg1137 O1144 2.079 . S
C1138 O1135 1.250 . S
C1138 O1136 1.248 . S
C1139 O1140 1.264 . S
C1139 O1147 1.249 . S
O1140 C1139 1.264 . S
O1141 Mg1134 1.986 . S
O1141 C1145 1.246 . S
O1142 Mg1137 2.032 . S
O1142 C1145 1.259 . S
O1143 Mg1134 2.114 . S
O1143 C1146 1.252 . S
O1144 Mg1134 2.251 . S
O1144 Mg1137 2.079 . S
O1144 C1146 1.273 . S
C1145 O1141 1.246 . S
C1145 O1142 1.259 . S
C1146 O1143 1.252 . S
C1146 O1144 1.273 . S
O1147 Mg1134 2.010 . S
O1147 C1139 1.249 . S
Mg1148 O1149 2.028 . S
Mg1148 O1155 1.986 . S
Mg1148 O1157 2.114 . S
Mg1148 O1158 2.251 . S
Mg1148 O1161 2.010 . S
O1149 Mg1148 2.028 . S
O1149 C1152 1.250 . S
O1150 Mg1151 2.028 . S
O1150 C1152 1.248 . S
Mg1151 O1150 2.028 . S
Mg1151 O1156 2.032 . S
Mg1151 O1158 2.079 . S
C1152 O1149 1.250 . S
C1152 O1150 1.248 . S
C1153 O1154 1.264 1_554 S
C1153 O1161 1.249 . S
O1154 C1153 1.264 1_556 S
O1155 Mg1148 1.986 . S
O1155 C1159 1.246 . S
O1156 Mg1151 2.032 . S
O1156 C1159 1.259 . S
O1157 Mg1148 2.114 . S
O1157 C1160 1.252 . S
O1158 Mg1148 2.251 . S
O1158 Mg1151 2.079 . S
O1158 C1160 1.273 . S
C1159 O1155 1.246 . S
C1159 O1156 1.259 . S
C1160 O1157 1.252 . S
C1160 O1158 1.273 . S
O1161 Mg1148 2.010 . S
O1161 C1153 1.249 . S
Mg1162 O1163 2.028 . S
Mg1162 O1169 1.986 . S
Mg1162 O1171 2.114 . S
Mg1162 O1172 2.251 . S
Mg1162 O1175 2.010 . S
O1163 Mg1162 2.028 . S
O1163 C1166 1.250 . S
O1164 Mg1165 2.028 . S
O1164 C1166 1.248 . S
Mg1165 O1164 2.028 . S
Mg1165 O1170 2.032 . S
Mg1165 O1172 2.079 . S
C1166 O1163 1.250 . S
C1166 O1164 1.248 . S
C1167 O1168 1.264 . S
C1167 O1175 1.249 . S
O1168 C1167 1.264 . S
O1169 Mg1162 1.986 . S
O1169 C1173 1.246 . S
O1170 Mg1165 2.032 . S
O1170 C1173 1.259 . S
O1171 Mg1162 2.114 . S
O1171 C1174 1.252 . S
O1172 Mg1162 2.251 . S
O1172 Mg1165 2.079 . S
O1172 C1174 1.273 . S
C1173 O1169 1.246 . S
C1173 O1170 1.259 . S
C1174 O1171 1.252 . S
C1174 O1172 1.273 . S
O1175 Mg1162 2.010 . S
O1175 C1167 1.249 . S
Mg1176 O1177 2.028 . S
Mg1176 O1183 1.986 . S
Mg1176 O1185 2.114 . S
Mg1176 O1186 2.251 . S
Mg1176 O1189 2.010 . S
O1177 Mg1176 2.028 . S
O1177 C1180 1.250 . S
O1178 Mg1179 2.028 . S
O1178 C1180 1.248 . S
Mg1179 O1178 2.028 . S
Mg1179 O1184 2.032 . S
Mg1179 O1186 2.079 . S
C1180 O1177 1.250 . S
C1180 O1178 1.248 . S
C1181 O1182 1.264 . S
C1181 O1189 1.249 . S
O1182 C1181 1.264 . S
O1183 Mg1176 1.986 . S
O1183 C1187 1.246 . S
O1184 Mg1179 2.032 . S
O1184 C1187 1.259 . S
O1185 Mg1176 2.114 . S
O1185 C1188 1.252 . S
O1186 Mg1176 2.251 . S
O1186 Mg1179 2.079 . S
O1186 C1188 1.273 . S
C1187 O1183 1.246 . S
C1187 O1184 1.259 . S
C1188 O1185 1.252 . S
C1188 O1186 1.273 . S
O1189 Mg1176 2.010 . S
O1189 C1181 1.249 . S
Mg1190 O1191 2.028 . S
Mg1190 O1197 1.986 . S
Mg1190 O1199 2.114 . S
Mg1190 O1200 2.251 . S
Mg1190 O1203 2.010 . S
O1191 Mg1190 2.028 . S
O1191 C1194 1.250 . S
O1192 Mg1193 2.028 . S
O1192 C1194 1.248 . S
Mg1193 O1192 2.028 . S
Mg1193 O1198 2.032 . S
Mg1193 O1200 2.079 . S
C1194 O1191 1.250 . S
C1194 O1192 1.248 . S
C1195 O1196 1.264 . S
C1195 O1203 1.249 . S
O1196 C1195 1.264 . S
O1197 Mg1190 1.986 . S
O1197 C1201 1.246 . S
O1198 Mg1193 2.032 . S
O1198 C1201 1.259 . S
O1199 Mg1190 2.114 . S
O1199 C1202 1.252 . S
O1200 Mg1190 2.251 . S
O1200 Mg1193 2.079 . S
O1200 C1202 1.273 . S
C1201 O1197 1.246 . S
C1201 O1198 1.259 . S
C1202 O1199 1.252 . S
C1202 O1200 1.273 . S
O1203 Mg1190 2.010 . S
O1203 C1195 1.249 . S
Mg1204 O1205 2.028 . S
Mg1204 O1211 1.986 . S
Mg1204 O1213 2.114 . S
Mg1204 O1214 2.251 . S
Mg1204 O1217 2.010 . S
O1205 Mg1204 2.028 . S
O1205 C1208 1.250 . S
O1206 Mg1207 2.028 . S
O1206 C1208 1.248 . S
Mg1207 O1206 2.028 . S
Mg1207 O1212 2.032 . S
Mg1207 O1214 2.079 . S
C1208 O1205 1.250 . S
C1208 O1206 1.248 . S
C1209 O1210 1.264 1_556 S
C1209 O1217 1.249 . S
O1210 C1209 1.264 1_554 S
O1211 Mg1204 1.986 . S
O1211 C1215 1.246 . S
O1212 Mg1207 2.032 . S
O1212 C1215 1.259 . S
O1213 Mg1204 2.114 . S
O1213 C1216 1.252 . S
O1214 Mg1204 2.251 . S
O1214 Mg1207 2.079 . S
O1214 C1216 1.273 . S
C1215 O1211 1.246 . S
C1215 O1212 1.259 . S
C1216 O1213 1.252 . S
C1216 O1214 1.273 . S
O1217 Mg1204 2.010 . S
O1217 C1209 1.249 . S
Mg1218 O1219 2.028 . S
Mg1218 O1225 1.986 . S
Mg1218 O1227 2.114 . S
Mg1218 O1228 2.251 . S
Mg1218 O1231 2.010 . S
O1219 Mg1218 2.028 . S
O1219 C1222 1.250 . S
O1220 Mg1221 2.028 . S
O1220 C1222 1.248 . S
Mg1221 O1220 2.028 . S
Mg1221 O1226 2.032 . S
Mg1221 O1228 2.079 . S
C1222 O1219 1.250 . S
C1222 O1220 1.248 . S
C1223 O1224 1.264 . S
C1223 O1231 1.249 . S
O1224 C1223 1.264 . S
O1225 Mg1218 1.986 . S
O1225 C1229 1.246 . S
O1226 Mg1221 2.032 . S
O1226 C1229 1.259 . S
O1227 Mg1218 2.114 . S
O1227 C1230 1.252 . S
O1228 Mg1218 2.251 . S
O1228 Mg1221 2.079 . S
O1228 C1230 1.273 . S
C1229 O1225 1.246 . S
C1229 O1226 1.259 . S
C1230 O1227 1.252 . S
C1230 O1228 1.273 . S
O1231 Mg1218 2.010 . S
O1231 C1223 1.249 . S
Mg1232 O1233 2.028 . S
Mg1232 O1239 1.986 . S
Mg1232 O1241 2.114 . S
Mg1232 O1242 2.251 . S
Mg1232 O1245 2.010 . S
O1233 Mg1232 2.028 . S
O1233 C1236 1.250 . S
O1234 Mg1235 2.028 . S
O1234 C1236 1.248 . S
Mg1235 O1234 2.028 . S
Mg1235 O1240 2.032 . S
Mg1235 O1242 2.079 . S
C1236 O1233 1.250 . S
C1236 O1234 1.248 . S
C1237 O1238 1.264 1_455 S
C1237 O1245 1.249 . S
O1238 C1237 1.264 1_655 S
O1239 Mg1232 1.986 . S
O1239 C1243 1.246 . S
O1240 Mg1235 2.032 . S
O1240 C1243 1.259 . S
O1241 Mg1232 2.114 . S
O1241 C1244 1.252 . S
O1242 Mg1232 2.251 . S
O1242 Mg1235 2.079 . S
O1242 C1244 1.273 . S
C1243 O1239 1.246 . S
C1243 O1240 1.259 . S
C1244 O1241 1.252 . S
C1244 O1242 1.273 . S
O1245 Mg1232 2.010 . S
O1245 C1237 1.249 . S
Mg1246 O1247 2.028 . S
Mg1246 O1253 1.986 . S
Mg1246 O1255 2.114 . S
Mg1246 O1256 2.251 . S
Mg1246 O1259 2.010 . S
O1247 Mg1246 2.028 . S
O1247 C1250 1.250 . S
O1248 Mg1249 2.028 . S
O1248 C1250 1.248 . S
Mg1249 O1248 2.028 . S
Mg1249 O1254 2.032 . S
Mg1249 O1256 2.079 . S
C1250 O1247 1.250 . S
C1250 O1248 1.248 . S
C1251 O1252 1.264 . S
C1251 O1259 1.249 . S
O1252 C1251 1.264 . S
O1253 Mg1246 1.986 . S
O1253 C1257 1.246 . S
O1254 Mg1249 2.032 . S
O1254 C1257 1.259 . S
O1255 Mg1246 2.114 . S
O1255 C1258 1.252 . S
O1256 Mg1246 2.251 . S
O1256 Mg1249 2.079 . S
O1256 C1258 1.273 . S
C1257 O1253 1.246 . S
C1257 O1254 1.259 . S
C1258 O1255 1.252 . S
C1258 O1256 1.273 . S
O1259 Mg1246 2.010 . S
O1259 C1251 1.249 . S
Mg1260 O1261 2.028 . S
Mg1260 O1267 1.986 . S
Mg1260 O1269 2.114 . S
Mg1260 O1270 2.251 . S
Mg1260 O1273 2.010 . S
O1261 Mg1260 2.028 . S
O1261 C1264 1.250 . S
O1262 Mg1263 2.028 . S
O1262 C1264 1.248 . S
Mg1263 O1262 2.028 . S
Mg1263 O1268 2.032 . S
Mg1263 O1270 2.079 . S
C1264 O1261 1.250 . S
C1264 O1262 1.248 . S
C1265 O1266 1.264 . S
C1265 O1273 1.249 . S
O1266 C1265 1.264 . S
O1267 Mg1260 1.986 . S
O1267 C1271 1.246 . S
O1268 Mg1263 2.032 . S
O1268 C1271 1.259 . S
O1269 Mg1260 2.114 . S
O1269 C1272 1.252 . S
O1270 Mg1260 2.251 . S
O1270 Mg1263 2.079 . S
O1270 C1272 1.273 . S
C1271 O1267 1.246 . S
C1271 O1268 1.259 . S
C1272 O1269 1.252 . S
C1272 O1270 1.273 . S
O1273 Mg1260 2.010 . S
O1273 C1265 1.249 . S
Mg1274 O1275 2.028 . S
Mg1274 O1281 1.986 . S
Mg1274 O1283 2.114 . S
Mg1274 O1284 2.251 . S
Mg1274 O1287 2.010 . S
O1275 Mg1274 2.028 . S
O1275 C1278 1.250 . S
O1276 Mg1277 2.028 . S
O1276 C1278 1.248 . S
Mg1277 O1276 2.028 . S
Mg1277 O1282 2.032 . S
Mg1277 O1284 2.079 . S
C1278 O1275 1.250 . S
C1278 O1276 1.248 . S
C1279 O1280 1.264 . S
C1279 O1287 1.249 . S
O1280 C1279 1.264 . S
O1281 Mg1274 1.986 . S
O1281 C1285 1.246 . S
O1282 Mg1277 2.032 . S
O1282 C1285 1.259 . S
O1283 Mg1274 2.114 . S
O1283 C1286 1.252 . S
O1284 Mg1274 2.251 . S
O1284 Mg1277 2.079 . S
O1284 C1286 1.273 . S
C1285 O1281 1.246 . S
C1285 O1282 1.259 . S
C1286 O1283 1.252 . S
C1286 O1284 1.273 . S
O1287 Mg1274 2.010 . S
O1287 C1279 1.249 . S
Mg1288 O1289 2.028 . S
Mg1288 O1295 1.986 . S
Mg1288 O1297 2.114 . S
Mg1288 O1298 2.251 . S
Mg1288 O1301 2.010 . S
O1289 Mg1288 2.028 . S
O1289 C1292 1.250 . S
O1290 Mg1291 2.028 . S
O1290 C1292 1.248 . S
Mg1291 O1290 2.028 . S
Mg1291 O1296 2.032 . S
Mg1291 O1298 2.079 . S
C1292 O1289 1.250 . S
C1292 O1290 1.248 . S
C1293 O1294 1.264 . S
C1293 O1301 1.249 . S
O1294 C1293 1.264 . S
O1295 Mg1288 1.986 . S
O1295 C1299 1.246 . S
O1296 Mg1291 2.032 . S
O1296 C1299 1.259 . S
O1297 Mg1288 2.114 . S
O1297 C1300 1.252 . S
O1298 Mg1288 2.251 . S
O1298 Mg1291 2.079 . S
O1298 C1300 1.273 . S
C1299 O1295 1.246 . S
C1299 O1296 1.259 . S
C1300 O1297 1.252 . S
C1300 O1298 1.273 . S
O1301 Mg1288 2.010 . S
O1301 C1293 1.249 . S
Mg1302 O1303 2.028 . S
Mg1302 O1309 1.986 . S
Mg1302 O1311 2.114 . S
Mg1302 O1312 2.251 . S
Mg1302 O1315 2.010 . S
O1303 Mg1302 2.028 . S
O1303 C1306 1.250 . S
O1304 Mg1305 2.028 . S
O1304 C1306 1.248 . S
Mg1305 O1304 2.028 . S
Mg1305 O1310 2.032 . S
Mg1305 O1312 2.079 . S
C1306 O1303 1.250 . S
C1306 O1304 1.248 . S
C1307 O1308 1.264 1_655 S
C1307 O1315 1.249 . S
O1308 C1307 1.264 1_455 S
O1309 Mg1302 1.986 . S
O1309 C1313 1.246 . S
O1310 Mg1305 2.032 . S
O1310 C1313 1.259 . S
O1311 Mg1302 2.114 . S
O1311 C1314 1.252 . S
O1312 Mg1302 2.251 . S
O1312 Mg1305 2.079 . S
O1312 C1314 1.273 . S
C1313 O1309 1.246 . S
C1313 O1310 1.259 . S
C1314 O1311 1.252 . S
C1314 O1312 1.273 . S
O1315 Mg1302 2.010 . S
O1315 C1307 1.249 . S
Mg1316 O1317 2.028 . S
Mg1316 O1323 1.986 . S
Mg1316 O1325 2.114 . S
Mg1316 O1326 2.251 . S
Mg1316 O1329 2.010 . S
O1317 Mg1316 2.028 . S
O1317 C1320 1.250 . S
O1318 Mg1319 2.028 . S
O1318 C1320 1.248 . S
Mg1319 O1318 2.028 . S
Mg1319 O1324 2.032 . S
Mg1319 O1326 2.079 . S
C1320 O1317 1.250 . S
C1320 O1318 1.248 . S
C1321 O1322 1.264 . S
C1321 O1329 1.249 . S
O1322 C1321 1.264 . S
O1323 Mg1316 1.986 . S
O1323 C1327 1.246 . S
O1324 Mg1319 2.032 . S
O1324 C1327 1.259 . S
O1325 Mg1316 2.114 . S
O1325 C1328 1.252 . S
O1326 Mg1316 2.251 . S
O1326 Mg1319 2.079 . S
O1326 C1328 1.273 . S
C1327 O1323 1.246 . S
C1327 O1324 1.259 . S
C1328 O1325 1.252 . S
C1328 O1326 1.273 . S
O1329 Mg1316 2.010 . S
O1329 C1321 1.249 . S
Mg1330 O1331 2.028 . S
Mg1330 O1337 1.986 . S
Mg1330 O1339 2.114 . S
Mg1330 O1340 2.251 . S
Mg1330 O1343 2.010 . S
O1331 Mg1330 2.028 . S
O1331 C1334 1.250 . S
O1332 Mg1333 2.028 . S
O1332 C1334 1.248 . S
Mg1333 O1332 2.028 . S
Mg1333 O1338 2.032 . S
Mg1333 O1340 2.079 . S
C1334 O1331 1.250 . S
C1334 O1332 1.248 . S
C1335 O1336 1.264 . S
C1335 O1343 1.249 . S
O1336 C1335 1.264 . S
O1337 Mg1330 1.986 . S
O1337 C1341 1.246 . S
O1338 Mg1333 2.032 . S
O1338 C1341 1.259 . S
O1339 Mg1330 2.114 . S
O1339 C1342 1.252 . S
O1340 Mg1330 2.251 . S
O1340 Mg1333 2.079 . S
O1340 C1342 1.273 . S
C1341 O1337 1.246 . S
C1341 O1338 1.259 . S
C1342 O1339 1.252 . S
C1342 O1340 1.273 . S
O1343 Mg1330 2.010 . S
O1343 C1335 1.249 . S
H1344 C1362 0.951 . S
H1345 C1364 0.951 . S
H1346 C1366 0.950 . S
H1347 C1367 0.950 . S
H1348 C1369 0.950 . S
H1349 C1372 0.950 . S
H1350 C1373 0.950 . S
H1351 C1375 0.950 . S
H1352 C1376 0.950 . S
H1353 C1377 0.951 . S
H1354 C1379 0.951 . S
H1355 C1381 0.950 . S
H1356 C1382 0.950 . S
H1357 C1384 0.950 . S
H1358 C1387 0.950 . S
H1359 C1388 0.950 . S
H1360 C1390 0.950 . S
H1361 C1391 0.950 . S
C1362 H1344 0.951 . S
C1362 C1363 1.366 . S
C1362 C1364 1.388 . S
C1363 C1362 1.366 . S
C1363 C1367 1.385 . S
C1364 H1345 0.951 . S
C1364 C1362 1.388 . S
C1364 C1365 1.366 . S
C1365 C1364 1.366 . S
C1365 C1366 1.414 . S
C1365 C1368 1.499 . S
C1366 H1346 0.950 . S
C1366 C1365 1.414 . S
C1366 C1367 1.374 . S
C1367 H1347 0.950 . S
C1367 C1363 1.385 . S
C1367 C1366 1.374 . S
C1368 C1365 1.499 . S
C1368 C1369 1.373 . S
C1368 C1370 1.389 . S
C1369 H1348 0.950 . S
C1369 C1368 1.373 . S
C1369 C1385 1.377 . S
C1370 C1368 1.389 . S
C1370 C1371 1.524 . S
C1370 C1384 1.377 . S
C1371 C1370 1.524 . S
C1371 C1372 1.397 . S
C1371 C1376 1.363 . S
C1372 H1349 0.950 . S
C1372 C1371 1.397 . S
C1372 C1373 1.334 . S
C1373 H1350 0.950 . S
C1373 C1372 1.334 . S
C1373 C1374 1.287 . S
C1374 C1373 1.287 . S
C1374 C1375 1.524 . S
C1374 H1393 0.913 . S
C1375 H1351 0.950 . S
C1375 C1374 1.524 . S
C1375 C1376 1.415 . S
C1376 H1352 0.950 . S
C1376 C1371 1.363 . S
C1376 C1375 1.415 . S
C1377 H1353 0.951 . S
C1377 C1378 1.366 . S
C1377 C1379 1.388 . S
C1378 C1377 1.366 . S
C1378 C1382 1.385 . S
C1379 H1354 0.951 . S
C1379 C1377 1.388 . S
C1379 C1380 1.366 . S
C1380 C1379 1.366 . S
C1380 C1381 1.414 . S
C1380 C1383 1.499 . S
C1381 H1355 0.950 . S
C1381 C1380 1.414 . S
C1381 C1382 1.374 . S
C1382 H1356 0.950 . S
C1382 C1378 1.385 . S
C1382 C1381 1.374 . S
C1383 C1380 1.499 . S
C1383 C1384 1.373 . S
C1383 C1385 1.389 . S
C1384 H1357 0.950 . S
C1384 C1370 1.377 . S
C1384 C1383 1.373 . S
C1385 C1369 1.377 . S
C1385 C1383 1.389 . S
C1385 C1386 1.524 . S
C1386 C1385 1.524 . S
C1386 C1387 1.397 . S
C1386 C1391 1.363 . S
C1387 H1358 0.950 . S
C1387 C1386 1.397 . S
C1387 C1388 1.334 . S
C1388 H1359 0.950 . S
C1388 C1387 1.334 . S
C1388 C1389 1.287 . S
C1389 C1388 1.287 . S
C1389 C1390 1.524 . S
C1389 H1392 0.999 . S
C1390 H1360 0.950 . S
C1390 C1389 1.524 . S
C1390 C1391 1.415 . S
C1391 H1361 0.950 . S
C1391 C1386 1.363 . S
C1391 C1390 1.415 . S
H1392 C1389 0.999 . S
H1393 C1374 0.913 . S
H1394 C1412 0.951 . S
H1395 C1414 0.951 . S
H1396 C1416 0.950 . S
H1397 C1417 0.950 . S
H1398 C1419 0.950 . S
H1399 C1422 0.950 . S
H1400 C1423 0.950 . S
H1401 C1425 0.950 . S
H1402 C1426 0.950 . S
H1403 C1427 0.951 . S
H1404 C1429 0.951 . S
H1405 C1431 0.950 . S
H1406 C1432 0.950 . S
H1407 C1434 0.950 . S
H1408 C1437 0.950 . S
H1409 C1438 0.950 . S
H1410 C1440 0.950 . S
H1411 C1441 0.950 . S
C1412 H1394 0.951 . S
C1412 C1413 1.366 . S
C1412 C1414 1.388 . S
C1413 C1412 1.366 . S
C1413 C1417 1.385 . S
C1414 H1395 0.951 . S
C1414 C1412 1.388 . S
C1414 C1415 1.366 . S
C1415 C1414 1.366 . S
C1415 C1416 1.414 . S
C1415 C1418 1.499 . S
C1416 H1396 0.950 . S
C1416 C1415 1.414 . S
C1416 C1417 1.374 . S
C1417 H1397 0.950 . S
C1417 C1413 1.385 . S
C1417 C1416 1.374 . S
C1418 C1415 1.499 . S
C1418 C1419 1.373 . S
C1418 C1420 1.389 . S
C1419 H1398 0.950 . S
C1419 C1418 1.373 . S
C1419 C1435 1.377 . S
C1420 C1418 1.389 . S
C1420 C1421 1.524 . S
C1420 C1434 1.377 . S
C1421 C1420 1.524 . S
C1421 C1422 1.397 . S
C1421 C1426 1.363 . S
C1422 H1399 0.950 . S
C1422 C1421 1.397 . S
C1422 C1423 1.334 . S
C1423 H1400 0.950 . S
C1423 C1422 1.334 . S
C1423 C1424 1.287 . S
C1424 C1423 1.287 . S
C1424 C1425 1.524 . S
C1424 H1443 0.913 . S
C1425 H1401 0.950 . S
C1425 C1424 1.524 . S
C1425 C1426 1.415 . S
C1426 H1402 0.950 . S
C1426 C1421 1.363 . S
C1426 C1425 1.415 . S
C1427 H1403 0.951 . S
C1427 C1428 1.366 . S
C1427 C1429 1.388 . S
C1428 C1427 1.366 . S
C1428 C1432 1.385 . S
C1429 H1404 0.951 . S
C1429 C1427 1.388 . S
C1429 C1430 1.366 . S
C1430 C1429 1.366 . S
C1430 C1431 1.414 . S
C1430 C1433 1.499 . S
C1431 H1405 0.950 . S
C1431 C1430 1.414 . S
C1431 C1432 1.374 . S
C1432 H1406 0.950 . S
C1432 C1428 1.385 . S
C1432 C1431 1.374 . S
C1433 C1430 1.499 . S
C1433 C1434 1.373 . S
C1433 C1435 1.389 . S
C1434 H1407 0.950 . S
C1434 C1420 1.377 . S
C1434 C1433 1.373 . S
C1435 C1419 1.377 . S
C1435 C1433 1.389 . S
C1435 C1436 1.524 . S
C1436 C1435 1.524 . S
C1436 C1437 1.397 . S
C1436 C1441 1.363 . S
C1437 H1408 0.950 . S
C1437 C1436 1.397 . S
C1437 C1438 1.334 . S
C1438 H1409 0.950 . S
C1438 C1437 1.334 . S
C1438 C1439 1.287 . S
C1439 C1438 1.287 . S
C1439 C1440 1.524 . S
C1439 H1442 0.999 . S
C1440 H1410 0.950 . S
C1440 C1439 1.524 . S
C1440 C1441 1.415 . S
C1441 H1411 0.950 . S
C1441 C1436 1.363 . S
C1441 C1440 1.415 . S
H1442 C1439 0.999 . S
H1443 C1424 0.913 . S
H1444 C1462 0.951 . S
H1445 C1464 0.951 . S
H1446 C1466 0.950 . S
H1447 C1467 0.950 . S
H1448 C1469 0.950 . S
H1449 C1472 0.950 . S
H1450 C1473 0.950 . S
H1451 C1475 0.950 . S
H1452 C1476 0.950 . S
H1453 C1477 0.951 . S
H1454 C1479 0.951 . S
H1455 C1481 0.950 . S
H1456 C1482 0.950 . S
H1457 C1484 0.950 . S
H1458 C1487 0.950 . S
H1459 C1488 0.950 . S
H1460 C1490 0.950 . S
H1461 C1491 0.950 . S
C1462 H1444 0.951 . S
C1462 C1463 1.366 . S
C1462 C1464 1.388 . S
C1463 C1462 1.366 . S
C1463 C1467 1.385 . S
C1464 H1445 0.951 . S
C1464 C1462 1.388 . S
C1464 C1465 1.366 . S
C1465 C1464 1.366 . S
C1465 C1466 1.414 . S
C1465 C1468 1.499 . S
C1466 H1446 0.950 . S
C1466 C1465 1.414 . S
C1466 C1467 1.374 . S
C1467 H1447 0.950 . S
C1467 C1463 1.385 . S
C1467 C1466 1.374 . S
C1468 C1465 1.499 . S
C1468 C1469 1.373 . S
C1468 C1470 1.389 . S
C1469 H1448 0.950 . S
C1469 C1468 1.373 . S
C1469 C1485 1.377 . S
C1470 C1468 1.389 . S
C1470 C1471 1.524 . S
C1470 C1484 1.377 . S
C1471 C1470 1.524 . S
C1471 C1472 1.397 . S
C1471 C1476 1.363 . S
C1472 H1449 0.950 . S
C1472 C1471 1.397 . S
C1472 C1473 1.334 . S
C1473 H1450 0.950 . S
C1473 C1472 1.334 . S
C1473 C1474 1.287 . S
C1474 C1473 1.287 . S
C1474 C1475 1.524 . S
C1474 H1493 0.913 . S
C1475 H1451 0.950 . S
C1475 C1474 1.524 . S
C1475 C1476 1.415 . S
C1476 H1452 0.950 . S
C1476 C1471 1.363 . S
C1476 C1475 1.415 . S
C1477 H1453 0.951 . S
C1477 C1478 1.366 . S
C1477 C1479 1.388 . S
C1478 C1477 1.366 . S
C1478 C1482 1.385 . S
C1479 H1454 0.951 . S
C1479 C1477 1.388 . S
C1479 C1480 1.366 . S
C1480 C1479 1.366 . S
C1480 C1481 1.414 . S
C1480 C1483 1.499 . S
C1481 H1455 0.950 . S
C1481 C1480 1.414 . S
C1481 C1482 1.374 . S
C1482 H1456 0.950 . S
C1482 C1478 1.385 . S
C1482 C1481 1.374 . S
C1483 C1480 1.499 . S
C1483 C1484 1.373 . S
C1483 C1485 1.389 . S
C1484 H1457 0.950 . S
C1484 C1470 1.377 . S
C1484 C1483 1.373 . S
C1485 C1469 1.377 . S
C1485 C1483 1.389 . S
C1485 C1486 1.524 . S
C1486 C1485 1.524 . S
C1486 C1487 1.397 . S
C1486 C1491 1.363 . S
C1487 H1458 0.950 . S
C1487 C1486 1.397 . S
C1487 C1488 1.334 . S
C1488 H1459 0.950 . S
C1488 C1487 1.334 . S
C1488 C1489 1.287 . S
C1489 C1488 1.287 . S
C1489 C1490 1.524 . S
C1489 H1492 0.999 . S
C1490 H1460 0.950 . S
C1490 C1489 1.524 . S
C1490 C1491 1.415 . S
C1491 H1461 0.950 . S
C1491 C1486 1.363 . S
C1491 C1490 1.415 . S
H1492 C1489 0.999 . S
H1493 C1474 0.913 . S
H1494 C1512 0.951 . S
H1495 C1514 0.951 . S
H1496 C1516 0.950 . S
H1497 C1517 0.950 . S
H1498 C1519 0.950 . S
H1499 C1522 0.950 . S
H1500 C1523 0.950 . S
H1501 C1525 0.950 . S
H1502 C1526 0.950 . S
H1503 C1527 0.951 . S
H1504 C1529 0.951 . S
H1505 C1531 0.950 . S
H1506 C1532 0.950 . S
H1507 C1534 0.950 . S
H1508 C1537 0.950 . S
H1509 C1538 0.950 . S
H1510 C1540 0.950 . S
H1511 C1541 0.950 . S
C1512 H1494 0.951 . S
C1512 C1513 1.366 . S
C1512 C1514 1.388 . S
C1513 C1512 1.366 . S
C1513 C1517 1.385 . S
C1514 H1495 0.951 . S
C1514 C1512 1.388 . S
C1514 C1515 1.366 . S
C1515 C1514 1.366 . S
C1515 C1516 1.414 . S
C1515 C1518 1.499 . S
C1516 H1496 0.950 . S
C1516 C1515 1.414 . S
C1516 C1517 1.374 . S
C1517 H1497 0.950 . S
C1517 C1513 1.385 . S
C1517 C1516 1.374 . S
C1518 C1515 1.499 . S
C1518 C1519 1.373 . S
C1518 C1520 1.389 . S
C1519 H1498 0.950 . S
C1519 C1518 1.373 . S
C1519 C1535 1.377 . S
C1520 C1518 1.389 . S
C1520 C1521 1.524 . S
C1520 C1534 1.377 . S
C1521 C1520 1.524 . S
C1521 C1522 1.397 . S
C1521 C1526 1.363 . S
C1522 H1499 0.950 . S
C1522 C1521 1.397 . S
C1522 C1523 1.334 . S
C1523 H1500 0.950 . S
C1523 C1522 1.334 . S
C1523 C1524 1.287 . S
C1524 C1523 1.287 . S
C1524 C1525 1.524 . S
C1524 H1543 0.913 . S
C1525 H1501 0.950 . S
C1525 C1524 1.524 . S
C1525 C1526 1.415 . S
C1526 H1502 0.950 . S
C1526 C1521 1.363 . S
C1526 C1525 1.415 . S
C1527 H1503 0.951 . S
C1527 C1528 1.366 . S
C1527 C1529 1.388 . S
C1528 C1527 1.366 . S
C1528 C1532 1.385 . S
C1529 H1504 0.951 . S
C1529 C1527 1.388 . S
C1529 C1530 1.366 . S
C1530 C1529 1.366 . S
C1530 C1531 1.414 . S
C1530 C1533 1.499 . S
C1531 H1505 0.950 . S
C1531 C1530 1.414 . S
C1531 C1532 1.374 . S
C1532 H1506 0.950 . S
C1532 C1528 1.385 . S
C1532 C1531 1.374 . S
C1533 C1530 1.499 . S
C1533 C1534 1.373 . S
C1533 C1535 1.389 . S
C1534 H1507 0.950 . S
C1534 C1520 1.377 . S
C1534 C1533 1.373 . S
C1535 C1519 1.377 . S
C1535 C1533 1.389 . S
C1535 C1536 1.524 . S
C1536 C1535 1.524 . S
C1536 C1537 1.397 . S
C1536 C1541 1.363 . S
C1537 H1508 0.950 . S
C1537 C1536 1.397 . S
C1537 C1538 1.334 . S
C1538 H1509 0.950 . S
C1538 C1537 1.334 . S
C1538 C1539 1.287 . S
C1539 C1538 1.287 . S
C1539 C1540 1.524 . S
C1539 H1542 0.999 . S
C1540 H1510 0.950 . S
C1540 C1539 1.524 . S
C1540 C1541 1.415 . S
C1541 H1511 0.950 . S
C1541 C1536 1.363 . S
C1541 C1540 1.415 . S
H1542 C1539 0.999 . S
H1543 C1524 0.913 . S
H1544 C1562 0.951 . S
H1545 C1564 0.951 . S
H1546 C1566 0.950 . S
H1547 C1567 0.950 . S
H1548 C1569 0.950 . S
H1549 C1572 0.950 . S
H1550 C1573 0.950 . S
H1551 C1575 0.950 . S
H1552 C1576 0.950 . S
H1553 C1577 0.951 . S
H1554 C1579 0.951 . S
H1555 C1581 0.950 . S
H1556 C1582 0.950 . S
H1557 C1584 0.950 . S
H1558 C1587 0.950 . S
H1559 C1588 0.950 . S
H1560 C1590 0.950 . S
H1561 C1591 0.950 . S
C1562 H1544 0.951 . S
C1562 C1563 1.366 . S
C1562 C1564 1.388 . S
C1563 C1562 1.366 . S
C1563 C1567 1.385 . S
C1564 H1545 0.951 . S
C1564 C1562 1.388 . S
C1564 C1565 1.366 . S
C1565 C1564 1.366 . S
C1565 C1566 1.414 . S
C1565 C1568 1.499 . S
C1566 H1546 0.950 . S
C1566 C1565 1.414 . S
C1566 C1567 1.374 . S
C1567 H1547 0.950 . S
C1567 C1563 1.385 . S
C1567 C1566 1.374 . S
C1568 C1565 1.499 . S
C1568 C1569 1.373 . S
C1568 C1570 1.389 . S
C1569 H1548 0.950 . S
C1569 C1568 1.373 . S
C1569 C1585 1.377 . S
C1570 C1568 1.389 . S
C1570 C1571 1.524 . S
C1570 C1584 1.377 . S
C1571 C1570 1.524 . S
C1571 C1572 1.397 . S
C1571 C1576 1.363 . S
C1572 H1549 0.950 . S
C1572 C1571 1.397 . S
C1572 C1573 1.334 . S
C1573 H1550 0.950 . S
C1573 C1572 1.334 . S
C1573 C1574 1.287 . S
C1574 C1573 1.287 . S
C1574 C1575 1.524 . S
C1574 H1593 0.913 . S
C1575 H1551 0.950 . S
C1575 C1574 1.524 . S
C1575 C1576 1.415 . S
C1576 H1552 0.950 . S
C1576 C1571 1.363 . S
C1576 C1575 1.415 . S
C1577 H1553 0.951 . S
C1577 C1578 1.366 . S
C1577 C1579 1.388 . S
C1578 C1577 1.366 . S
C1578 C1582 1.385 . S
C1579 H1554 0.951 . S
C1579 C1577 1.388 . S
C1579 C1580 1.366 . S
C1580 C1579 1.366 . S
C1580 C1581 1.414 . S
C1580 C1583 1.499 . S
C1581 H1555 0.950 . S
C1581 C1580 1.414 . S
C1581 C1582 1.374 . S
C1582 H1556 0.950 . S
C1582 C1578 1.385 . S
C1582 C1581 1.374 . S
C1583 C1580 1.499 . S
C1583 C1584 1.373 . S
C1583 C1585 1.389 . S
C1584 H1557 0.950 . S
C1584 C1570 1.377 . S
C1584 C1583 1.373 . S
C1585 C1569 1.377 . S
C1585 C1583 1.389 . S
C1585 C1586 1.524 . S
C1586 C1585 1.524 . S
C1586 C1587 1.397 . S
C1586 C1591 1.363 . S
C1587 H1558 0.950 . S
C1587 C1586 1.397 . S
C1587 C1588 1.334 . S
C1588 H1559 0.950 . S
C1588 C1587 1.334 . S
C1588 C1589 1.287 . S
C1589 C1588 1.287 . S
C1589 C1590 1.524 . S
C1589 H1592 0.999 . S
C1590 H1560 0.950 . S
C1590 C1589 1.524 . S
C1590 C1591 1.415 . S
C1591 H1561 0.950 . S
C1591 C1586 1.363 . S
C1591 C1590 1.415 . S
H1592 C1589 0.999 . S
H1593 C1574 0.913 . S
H1594 C1612 0.951 . S
H1595 C1614 0.951 . S
H1596 C1616 0.950 . S
H1597 C1617 0.950 . S
H1598 C1619 0.950 . S
H1599 C1622 0.950 . S
H1600 C1623 0.950 . S
H1601 C1625 0.950 . S
H1602 C1626 0.950 . S
H1603 C1627 0.951 . S
H1604 C1629 0.951 . S
H1605 C1631 0.950 . S
H1606 C1632 0.950 . S
H1607 C1634 0.950 . S
H1608 C1637 0.950 . S
H1609 C1638 0.950 . S
H1610 C1640 0.950 . S
H1611 C1641 0.950 . S
C1612 H1594 0.951 . S
C1612 C1613 1.366 . S
C1612 C1614 1.388 . S
C1613 C1612 1.366 . S
C1613 C1617 1.385 . S
C1614 H1595 0.951 . S
C1614 C1612 1.388 . S
C1614 C1615 1.366 . S
C1615 C1614 1.366 . S
C1615 C1616 1.414 . S
C1615 C1618 1.499 . S
C1616 H1596 0.950 . S
C1616 C1615 1.414 . S
C1616 C1617 1.374 . S
C1617 H1597 0.950 . S
C1617 C1613 1.385 . S
C1617 C1616 1.374 . S
C1618 C1615 1.499 . S
C1618 C1619 1.373 . S
C1618 C1620 1.389 . S
C1619 H1598 0.950 . S
C1619 C1618 1.373 . S
C1619 C1635 1.377 . S
C1620 C1618 1.389 . S
C1620 C1621 1.524 . S
C1620 C1634 1.377 . S
C1621 C1620 1.524 . S
C1621 C1622 1.397 . S
C1621 C1626 1.363 . S
C1622 H1599 0.950 . S
C1622 C1621 1.397 . S
C1622 C1623 1.334 . S
C1623 H1600 0.950 . S
C1623 C1622 1.334 . S
C1623 C1624 1.287 . S
C1624 C1623 1.287 . S
C1624 C1625 1.524 . S
C1624 H1643 0.913 . S
C1625 H1601 0.950 . S
C1625 C1624 1.524 . S
C1625 C1626 1.415 . S
C1626 H1602 0.950 . S
C1626 C1621 1.363 . S
C1626 C1625 1.415 . S
C1627 H1603 0.951 . S
C1627 C1628 1.366 . S
C1627 C1629 1.388 . S
C1628 C1627 1.366 . S
C1628 C1632 1.385 . S
C1629 H1604 0.951 . S
C1629 C1627 1.388 . S
C1629 C1630 1.366 . S
C1630 C1629 1.366 . S
C1630 C1631 1.414 . S
C1630 C1633 1.499 . S
C1631 H1605 0.950 . S
C1631 C1630 1.414 . S
C1631 C1632 1.374 . S
C1632 H1606 0.950 . S
C1632 C1628 1.385 . S
C1632 C1631 1.374 . S
C1633 C1630 1.499 . S
C1633 C1634 1.373 . S
C1633 C1635 1.389 . S
C1634 H1607 0.950 . S
C1634 C1620 1.377 . S
C1634 C1633 1.373 . S
C1635 C1619 1.377 . S
C1635 C1633 1.389 . S
C1635 C1636 1.524 . S
C1636 C1635 1.524 . S
C1636 C1637 1.397 . S
C1636 C1641 1.363 . S
C1637 H1608 0.950 . S
C1637 C1636 1.397 . S
C1637 C1638 1.334 . S
C1638 H1609 0.950 . S
C1638 C1637 1.334 . S
C1638 C1639 1.287 . S
C1639 C1638 1.287 . S
C1639 C1640 1.524 . S
C1639 H1642 0.999 . S
C1640 H1610 0.950 . S
C1640 C1639 1.524 . S
C1640 C1641 1.415 . S
C1641 H1611 0.950 . S
C1641 C1636 1.363 . S
C1641 C1640 1.415 . S
H1642 C1639 0.999 . S
H1643 C1624 0.913 . S
H1644 C1662 0.951 . S
H1645 C1664 0.951 . S
H1646 C1666 0.950 . S
H1647 C1667 0.950 . S
H1648 C1669 0.950 . S
H1649 C1672 0.950 . S
H1650 C1673 0.950 . S
H1651 C1675 0.950 . S
H1652 C1676 0.950 . S
H1653 C1677 0.951 . S
H1654 C1679 0.951 . S
H1655 C1681 0.950 . S
H1656 C1682 0.950 . S
H1657 C1684 0.950 . S
H1658 C1687 0.950 . S
H1659 C1688 0.950 . S
H1660 C1690 0.950 . S
H1661 C1691 0.950 . S
C1662 H1644 0.951 . S
C1662 C1663 1.366 . S
C1662 C1664 1.388 . S
C1663 C1662 1.366 . S
C1663 C1667 1.385 . S
C1664 H1645 0.951 . S
C1664 C1662 1.388 . S
C1664 C1665 1.366 . S
C1665 C1664 1.366 . S
C1665 C1666 1.414 . S
C1665 C1668 1.499 . S
C1666 H1646 0.950 . S
C1666 C1665 1.414 . S
C1666 C1667 1.374 . S
C1667 H1647 0.950 . S
C1667 C1663 1.385 . S
C1667 C1666 1.374 . S
C1668 C1665 1.499 . S
C1668 C1669 1.373 . S
C1668 C1670 1.389 . S
C1669 H1648 0.950 . S
C1669 C1668 1.373 . S
C1669 C1685 1.377 . S
C1670 C1668 1.389 . S
C1670 C1671 1.524 . S
C1670 C1684 1.377 . S
C1671 C1670 1.524 . S
C1671 C1672 1.397 . S
C1671 C1676 1.363 . S
C1672 H1649 0.950 . S
C1672 C1671 1.397 . S
C1672 C1673 1.334 . S
C1673 H1650 0.950 . S
C1673 C1672 1.334 . S
C1673 C1674 1.287 . S
C1674 C1673 1.287 . S
C1674 C1675 1.524 . S
C1674 H1693 0.913 . S
C1675 H1651 0.950 . S
C1675 C1674 1.524 . S
C1675 C1676 1.415 . S
C1676 H1652 0.950 . S
C1676 C1671 1.363 . S
C1676 C1675 1.415 . S
C1677 H1653 0.951 . S
C1677 C1678 1.366 . S
C1677 C1679 1.388 . S
C1678 C1677 1.366 . S
C1678 C1682 1.385 . S
C1679 H1654 0.951 . S
C1679 C1677 1.388 . S
C1679 C1680 1.366 . S
C1680 C1679 1.366 . S
C1680 C1681 1.414 . S
C1680 C1683 1.499 . S
C1681 H1655 0.950 . S
C1681 C1680 1.414 . S
C1681 C1682 1.374 . S
C1682 H1656 0.950 . S
C1682 C1678 1.385 . S
C1682 C1681 1.374 . S
C1683 C1680 1.499 . S
C1683 C1684 1.373 . S
C1683 C1685 1.389 . S
C1684 H1657 0.950 . S
C1684 C1670 1.377 . S
C1684 C1683 1.373 . S
C1685 C1669 1.377 . S
C1685 C1683 1.389 . S
C1685 C1686 1.524 . S
C1686 C1685 1.524 . S
C1686 C1687 1.397 . S
C1686 C1691 1.363 . S
C1687 H1658 0.950 . S
C1687 C1686 1.397 . S
C1687 C1688 1.334 . S
C1688 H1659 0.950 . S
C1688 C1687 1.334 . S
C1688 C1689 1.287 . S
C1689 C1688 1.287 . S
C1689 C1690 1.524 . S
C1689 H1692 0.999 . S
C1690 H1660 0.950 . S
C1690 C1689 1.524 . S
C1690 C1691 1.415 . S
C1691 H1661 0.950 . S
C1691 C1686 1.363 . S
C1691 C1690 1.415 . S
H1692 C1689 0.999 . S
H1693 C1674 0.913 . S
H1694 C1712 0.951 . S
H1695 C1714 0.951 . S
H1696 C1716 0.950 . S
H1697 C1717 0.950 . S
H1698 C1719 0.950 . S
H1699 C1722 0.950 . S
H1700 C1723 0.950 . S
H1701 C1725 0.950 . S
H1702 C1726 0.950 . S
H1703 C1727 0.951 . S
H1704 C1729 0.951 . S
H1705 C1731 0.950 . S
H1706 C1732 0.950 . S
H1707 C1734 0.950 . S
H1708 C1737 0.950 . S
H1709 C1738 0.950 . S
H1710 C1740 0.950 . S
H1711 C1741 0.950 . S
C1712 H1694 0.951 . S
C1712 C1713 1.366 . S
C1712 C1714 1.388 . S
C1713 C1712 1.366 . S
C1713 C1717 1.385 . S
C1714 H1695 0.951 . S
C1714 C1712 1.388 . S
C1714 C1715 1.366 . S
C1715 C1714 1.366 . S
C1715 C1716 1.414 . S
C1715 C1718 1.499 . S
C1716 H1696 0.950 . S
C1716 C1715 1.414 . S
C1716 C1717 1.374 . S
C1717 H1697 0.950 . S
C1717 C1713 1.385 . S
C1717 C1716 1.374 . S
C1718 C1715 1.499 . S
C1718 C1719 1.373 . S
C1718 C1720 1.389 . S
C1719 H1698 0.950 . S
C1719 C1718 1.373 . S
C1719 C1735 1.377 . S
C1720 C1718 1.389 . S
C1720 C1721 1.524 . S
C1720 C1734 1.377 . S
C1721 C1720 1.524 . S
C1721 C1722 1.397 . S
C1721 C1726 1.363 . S
C1722 H1699 0.950 . S
C1722 C1721 1.397 . S
C1722 C1723 1.334 . S
C1723 H1700 0.950 . S
C1723 C1722 1.334 . S
C1723 C1724 1.287 . S
C1724 C1723 1.287 . S
C1724 C1725 1.524 . S
C1724 H1743 0.913 . S
C1725 H1701 0.950 . S
C1725 C1724 1.524 . S
C1725 C1726 1.415 . S
C1726 H1702 0.950 . S
C1726 C1721 1.363 . S
C1726 C1725 1.415 . S
C1727 H1703 0.951 . S
C1727 C1728 1.366 . S
C1727 C1729 1.388 . S
C1728 C1727 1.366 . S
C1728 C1732 1.385 . S
C1729 H1704 0.951 . S
C1729 C1727 1.388 . S
C1729 C1730 1.366 . S
C1730 C1729 1.366 . S
C1730 C1731 1.414 . S
C1730 C1733 1.499 . S
C1731 H1705 0.950 . S
C1731 C1730 1.414 . S
C1731 C1732 1.374 . S
C1732 H1706 0.950 . S
C1732 C1728 1.385 . S
C1732 C1731 1.374 . S
C1733 C1730 1.499 . S
C1733 C1734 1.373 . S
C1733 C1735 1.389 . S
C1734 H1707 0.950 . S
C1734 C1720 1.377 . S
C1734 C1733 1.373 . S
C1735 C1719 1.377 . S
C1735 C1733 1.389 . S
C1735 C1736 1.524 . S
C1736 C1735 1.524 . S
C1736 C1737 1.397 . S
C1736 C1741 1.363 . S
C1737 H1708 0.950 . S
C1737 C1736 1.397 . S
C1737 C1738 1.334 . S
C1738 H1709 0.950 . S
C1738 C1737 1.334 . S
C1738 C1739 1.287 . S
C1739 C1738 1.287 . S
C1739 C1740 1.524 . S
C1739 H1742 0.999 . S
C1740 H1710 0.950 . S
C1740 C1739 1.524 . S
C1740 C1741 1.415 . S
C1741 H1711 0.950 . S
C1741 C1736 1.363 . S
C1741 C1740 1.415 . S
H1742 C1739 0.999 . S
H1743 C1724 0.913 . S
H1744 C1762 0.951 . S
H1745 C1764 0.951 . S
H1746 C1766 0.950 . S
H1747 C1767 0.950 . S
H1748 C1769 0.950 . S
H1749 C1772 0.950 . S
H1750 C1773 0.950 . S
H1751 C1775 0.950 . S
H1752 C1776 0.950 . S
H1753 C1777 0.951 . S
H1754 C1779 0.951 . S
H1755 C1781 0.950 . S
H1756 C1782 0.950 . S
H1757 C1784 0.950 . S
H1758 C1787 0.950 . S
H1759 C1788 0.950 . S
H1760 C1790 0.950 . S
H1761 C1791 0.950 . S
C1762 H1744 0.951 . S
C1762 C1763 1.366 . S
C1762 C1764 1.388 . S
C1763 C1762 1.366 . S
C1763 C1767 1.385 . S
C1764 H1745 0.951 . S
C1764 C1762 1.388 . S
C1764 C1765 1.366 . S
C1765 C1764 1.366 . S
C1765 C1766 1.414 . S
C1765 C1768 1.499 . S
C1766 H1746 0.950 . S
C1766 C1765 1.414 . S
C1766 C1767 1.374 . S
C1767 H1747 0.950 . S
C1767 C1763 1.385 . S
C1767 C1766 1.374 . S
C1768 C1765 1.499 . S
C1768 C1769 1.373 . S
C1768 C1770 1.389 . S
C1769 H1748 0.950 . S
C1769 C1768 1.373 . S
C1769 C1785 1.377 . S
C1770 C1768 1.389 . S
C1770 C1771 1.524 . S
C1770 C1784 1.377 . S
C1771 C1770 1.524 . S
C1771 C1772 1.397 . S
C1771 C1776 1.363 . S
C1772 H1749 0.950 . S
C1772 C1771 1.397 . S
C1772 C1773 1.334 . S
C1773 H1750 0.950 . S
C1773 C1772 1.334 . S
C1773 C1774 1.287 . S
C1774 C1773 1.287 . S
C1774 C1775 1.524 . S
C1774 H1793 0.913 . S
C1775 H1751 0.950 . S
C1775 C1774 1.524 . S
C1775 C1776 1.415 . S
C1776 H1752 0.950 . S
C1776 C1771 1.363 . S
C1776 C1775 1.415 . S
C1777 H1753 0.951 . S
C1777 C1778 1.366 . S
C1777 C1779 1.388 . S
C1778 C1777 1.366 . S
C1778 C1782 1.385 . S
C1779 H1754 0.951 . S
C1779 C1777 1.388 . S
C1779 C1780 1.366 . S
C1780 C1779 1.366 . S
C1780 C1781 1.414 . S
C1780 C1783 1.499 . S
C1781 H1755 0.950 . S
C1781 C1780 1.414 . S
C1781 C1782 1.374 . S
C1782 H1756 0.950 . S
C1782 C1778 1.385 . S
C1782 C1781 1.374 . S
C1783 C1780 1.499 . S
C1783 C1784 1.373 . S
C1783 C1785 1.389 . S
C1784 H1757 0.950 . S
C1784 C1770 1.377 . S
C1784 C1783 1.373 . S
C1785 C1769 1.377 . S
C1785 C1783 1.389 . S
C1785 C1786 1.524 . S
C1786 C1785 1.524 . S
C1786 C1787 1.397 . S
C1786 C1791 1.363 . S
C1787 H1758 0.950 . S
C1787 C1786 1.397 . S
C1787 C1788 1.334 . S
C1788 H1759 0.950 . S
C1788 C1787 1.334 . S
C1788 C1789 1.287 . S
C1789 C1788 1.287 . S
C1789 C1790 1.524 . S
C1789 H1792 0.999 . S
C1790 H1760 0.950 . S
C1790 C1789 1.524 . S
C1790 C1791 1.415 . S
C1791 H1761 0.950 . S
C1791 C1786 1.363 . S
C1791 C1790 1.415 . S
H1792 C1789 0.999 . S
H1793 C1774 0.913 . S
H1794 C1812 0.951 . S
H1795 C1814 0.951 . S
H1796 C1816 0.950 . S
H1797 C1817 0.950 . S
H1798 C1819 0.950 . S
H1799 C1822 0.950 . S
H1800 C1823 0.950 . S
H1801 C1825 0.950 . S
H1802 C1826 0.950 . S
H1803 C1827 0.951 . S
H1804 C1829 0.951 . S
H1805 C1831 0.950 . S
H1806 C1832 0.950 . S
H1807 C1834 0.950 . S
H1808 C1837 0.950 . S
H1809 C1838 0.950 . S
H1810 C1840 0.950 . S
H1811 C1841 0.950 . S
C1812 H1794 0.951 . S
C1812 C1813 1.366 . S
C1812 C1814 1.388 . S
C1813 C1812 1.366 . S
C1813 C1817 1.385 . S
C1814 H1795 0.951 . S
C1814 C1812 1.388 . S
C1814 C1815 1.366 . S
C1815 C1814 1.366 . S
C1815 C1816 1.414 . S
C1815 C1818 1.499 . S
C1816 H1796 0.950 . S
C1816 C1815 1.414 . S
C1816 C1817 1.374 . S
C1817 H1797 0.950 . S
C1817 C1813 1.385 . S
C1817 C1816 1.374 . S
C1818 C1815 1.499 . S
C1818 C1819 1.373 . S
C1818 C1820 1.389 . S
C1819 H1798 0.950 . S
C1819 C1818 1.373 . S
C1819 C1835 1.377 . S
C1820 C1818 1.389 . S
C1820 C1821 1.524 . S
C1820 C1834 1.377 . S
C1821 C1820 1.524 . S
C1821 C1822 1.397 . S
C1821 C1826 1.363 . S
C1822 H1799 0.950 . S
C1822 C1821 1.397 . S
C1822 C1823 1.334 . S
C1823 H1800 0.950 . S
C1823 C1822 1.334 . S
C1823 C1824 1.287 . S
C1824 C1823 1.287 . S
C1824 C1825 1.524 . S
C1824 H1843 0.913 . S
C1825 H1801 0.950 . S
C1825 C1824 1.524 . S
C1825 C1826 1.415 . S
C1826 H1802 0.950 . S
C1826 C1821 1.363 . S
C1826 C1825 1.415 . S
C1827 H1803 0.951 . S
C1827 C1828 1.366 . S
C1827 C1829 1.388 . S
C1828 C1827 1.366 . S
C1828 C1832 1.385 . S
C1829 H1804 0.951 . S
C1829 C1827 1.388 . S
C1829 C1830 1.366 . S
C1830 C1829 1.366 . S
C1830 C1831 1.414 . S
C1830 C1833 1.499 . S
C1831 H1805 0.950 . S
C1831 C1830 1.414 . S
C1831 C1832 1.374 . S
C1832 H1806 0.950 . S
C1832 C1828 1.385 . S
C1832 C1831 1.374 . S
C1833 C1830 1.499 . S
C1833 C1834 1.373 . S
C1833 C1835 1.389 . S
C1834 H1807 0.950 . S
C1834 C1820 1.377 . S
C1834 C1833 1.373 . S
C1835 C1819 1.377 . S
C1835 C1833 1.389 . S
C1835 C1836 1.524 . S
C1836 C1835 1.524 . S
C1836 C1837 1.397 . S
C1836 C1841 1.363 . S
C1837 H1808 0.950 . S
C1837 C1836 1.397 . S
C1837 C1838 1.334 . S
C1838 H1809 0.950 . S
C1838 C1837 1.334 . S
C1838 C1839 1.287 . S
C1839 C1838 1.287 . S
C1839 C1840 1.524 . S
C1839 H1842 0.999 . S
C1840 H1810 0.950 . S
C1840 C1839 1.524 . S
C1840 C1841 1.415 . S
C1841 H1811 0.950 . S
C1841 C1836 1.363 . S
C1841 C1840 1.415 . S
H1842 C1839 0.999 . S
H1843 C1824 0.913 . S
H1844 C1862 0.951 . S
H1845 C1864 0.951 . S
H1846 C1866 0.950 . S
H1847 C1867 0.950 . S
H1848 C1869 0.950 . S
H1849 C1872 0.950 . S
H1850 C1873 0.950 . S
H1851 C1875 0.950 . S
H1852 C1876 0.950 . S
H1853 C1877 0.951 . S
H1854 C1879 0.951 . S
H1855 C1881 0.950 . S
H1856 C1882 0.950 . S
H1857 C1884 0.950 . S
H1858 C1887 0.950 . S
H1859 C1888 0.950 . S
H1860 C1890 0.950 . S
H1861 C1891 0.950 . S
C1862 H1844 0.951 . S
C1862 C1863 1.366 . S
C1862 C1864 1.388 . S
C1863 C1862 1.366 . S
C1863 C1867 1.385 . S
C1864 H1845 0.951 . S
C1864 C1862 1.388 . S
C1864 C1865 1.366 . S
C1865 C1864 1.366 . S
C1865 C1866 1.414 . S
C1865 C1868 1.499 . S
C1866 H1846 0.950 . S
C1866 C1865 1.414 . S
C1866 C1867 1.374 . S
C1867 H1847 0.950 . S
C1867 C1863 1.385 . S
C1867 C1866 1.374 . S
C1868 C1865 1.499 . S
C1868 C1869 1.373 . S
C1868 C1870 1.389 . S
C1869 H1848 0.950 . S
C1869 C1868 1.373 . S
C1869 C1885 1.377 . S
C1870 C1868 1.389 . S
C1870 C1871 1.524 . S
C1870 C1884 1.377 . S
C1871 C1870 1.524 . S
C1871 C1872 1.397 . S
C1871 C1876 1.363 . S
C1872 H1849 0.950 . S
C1872 C1871 1.397 . S
C1872 C1873 1.334 . S
C1873 H1850 0.950 . S
C1873 C1872 1.334 . S
C1873 C1874 1.287 . S
C1874 C1873 1.287 . S
C1874 C1875 1.524 . S
C1874 H1893 0.913 . S
C1875 H1851 0.950 . S
C1875 C1874 1.524 . S
C1875 C1876 1.415 . S
C1876 H1852 0.950 . S
C1876 C1871 1.363 . S
C1876 C1875 1.415 . S
C1877 H1853 0.951 . S
C1877 C1878 1.366 . S
C1877 C1879 1.388 . S
C1878 C1877 1.366 . S
C1878 C1882 1.385 . S
C1879 H1854 0.951 . S
C1879 C1877 1.388 . S
C1879 C1880 1.366 . S
C1880 C1879 1.366 . S
C1880 C1881 1.414 . S
C1880 C1883 1.499 . S
C1881 H1855 0.950 . S
C1881 C1880 1.414 . S
C1881 C1882 1.374 . S
C1882 H1856 0.950 . S
C1882 C1878 1.385 . S
C1882 C1881 1.374 . S
C1883 C1880 1.499 . S
C1883 C1884 1.373 . S
C1883 C1885 1.389 . S
C1884 H1857 0.950 . S
C1884 C1870 1.377 . S
C1884 C1883 1.373 . S
C1885 C1869 1.377 . S
C1885 C1883 1.389 . S
C1885 C1886 1.524 . S
C1886 C1885 1.524 . S
C1886 C1887 1.397 . S
C1886 C1891 1.363 . S
C1887 H1858 0.950 . S
C1887 C1886 1.397 . S
C1887 C1888 1.334 . S
C1888 H1859 0.950 . S
C1888 C1887 1.334 . S
C1888 C1889 1.287 . S
C1889 C1888 1.287 . S
C1889 C1890 1.524 . S
C1889 H1892 0.999 . S
C1890 H1860 0.950 . S
C1890 C1889 1.524 . S
C1890 C1891 1.415 . S
C1891 H1861 0.950 . S
C1891 C1886 1.363 . S
C1891 C1890 1.415 . S
H1892 C1889 0.999 . S
H1893 C1874 0.913 . S
H1894 C1912 0.951 . S
H1895 C1914 0.951 . S
H1896 C1916 0.950 . S
H1897 C1917 0.950 . S
H1898 C1919 0.950 . S
H1899 C1922 0.950 . S
H1900 C1923 0.950 . S
H1901 C1925 0.950 . S
H1902 C1926 0.950 . S
H1903 C1927 0.951 . S
H1904 C1929 0.951 . S
H1905 C1931 0.950 . S
H1906 C1932 0.950 . S
H1907 C1934 0.950 . S
H1908 C1937 0.950 . S
H1909 C1938 0.950 . S
H1910 C1940 0.950 . S
H1911 C1941 0.950 . S
C1912 H1894 0.951 . S
C1912 C1913 1.366 . S
C1912 C1914 1.388 . S
C1913 C1912 1.366 . S
C1913 C1917 1.385 . S
C1914 H1895 0.951 . S
C1914 C1912 1.388 . S
C1914 C1915 1.366 . S
C1915 C1914 1.366 . S
C1915 C1916 1.414 . S
C1915 C1918 1.499 . S
C1916 H1896 0.950 . S
C1916 C1915 1.414 . S
C1916 C1917 1.374 . S
C1917 H1897 0.950 . S
C1917 C1913 1.385 . S
C1917 C1916 1.374 . S
C1918 C1915 1.499 . S
C1918 C1919 1.373 . S
C1918 C1920 1.389 . S
C1919 H1898 0.950 . S
C1919 C1918 1.373 . S
C1919 C1935 1.377 . S
C1920 C1918 1.389 . S
C1920 C1921 1.524 . S
C1920 C1934 1.377 . S
C1921 C1920 1.524 . S
C1921 C1922 1.397 . S
C1921 C1926 1.363 . S
C1922 H1899 0.950 . S
C1922 C1921 1.397 . S
C1922 C1923 1.334 . S
C1923 H1900 0.950 . S
C1923 C1922 1.334 . S
C1923 C1924 1.287 . S
C1924 C1923 1.287 . S
C1924 C1925 1.524 . S
C1924 H1943 0.913 . S
C1925 H1901 0.950 . S
C1925 C1924 1.524 . S
C1925 C1926 1.415 . S
C1926 H1902 0.950 . S
C1926 C1921 1.363 . S
C1926 C1925 1.415 . S
C1927 H1903 0.951 . S
C1927 C1928 1.366 . S
C1927 C1929 1.388 . S
C1928 C1927 1.366 . S
C1928 C1932 1.385 . S
C1929 H1904 0.951 . S
C1929 C1927 1.388 . S
C1929 C1930 1.366 . S
C1930 C1929 1.366 . S
C1930 C1931 1.414 . S
C1930 C1933 1.499 . S
C1931 H1905 0.950 . S
C1931 C1930 1.414 . S
C1931 C1932 1.374 . S
C1932 H1906 0.950 . S
C1932 C1928 1.385 . S
C1932 C1931 1.374 . S
C1933 C1930 1.499 . S
C1933 C1934 1.373 . S
C1933 C1935 1.389 . S
C1934 H1907 0.950 . S
C1934 C1920 1.377 . S
C1934 C1933 1.373 . S
C1935 C1919 1.377 . S
C1935 C1933 1.389 . S
C1935 C1936 1.524 . S
C1936 C1935 1.524 . S
C1936 C1937 1.397 . S
C1936 C1941 1.363 . S
C1937 H1908 0.950 . S
C1937 C1936 1.397 . S
C1937 C1938 1.334 . S
C1938 H1909 0.950 . S
C1938 C1937 1.334 . S
C1938 C1939 1.287 . S
C1939 C1938 1.287 . S
C1939 C1940 1.524 . S
C1939 H1942 0.999 . S
C1940 H1910 0.950 . S
C1940 C1939 1.524 . S
C1940 C1941 1.415 . S
C1941 H1911 0.950 . S
C1941 C1936 1.363 . S
C1941 C1940 1.415 . S
H1942 C1939 0.999 . S
H1943 C1924 0.913 . S
H1944 C1962 0.951 . S
H1945 C1964 0.951 . S
H1946 C1966 0.950 . S
H1947 C1967 0.950 . S
H1948 C1969 0.950 . S
H1949 C1972 0.950 . S
H1950 C1973 0.950 . S
H1951 C1975 0.950 . S
H1952 C1976 0.950 . S
H1953 C1977 0.951 . S
H1954 C1979 0.951 . S
H1955 C1981 0.950 . S
H1956 C1982 0.950 . S
H1957 C1984 0.950 . S
H1958 C1987 0.950 . S
H1959 C1988 0.950 . S
H1960 C1990 0.950 . S
H1961 C1991 0.950 . S
C1962 H1944 0.951 . S
C1962 C1963 1.366 . S
C1962 C1964 1.388 . S
C1963 C1962 1.366 . S
C1963 C1967 1.385 . S
C1964 H1945 0.951 . S
C1964 C1962 1.388 . S
C1964 C1965 1.366 . S
C1965 C1964 1.366 . S
C1965 C1966 1.414 . S
C1965 C1968 1.499 . S
C1966 H1946 0.950 . S
C1966 C1965 1.414 . S
C1966 C1967 1.374 . S
C1967 H1947 0.950 . S
C1967 C1963 1.385 . S
C1967 C1966 1.374 . S
C1968 C1965 1.499 . S
C1968 C1969 1.373 . S
C1968 C1970 1.389 . S
C1969 H1948 0.950 . S
C1969 C1968 1.373 . S
C1969 C1985 1.377 . S
C1970 C1968 1.389 . S
C1970 C1971 1.524 . S
C1970 C1984 1.377 . S
C1971 C1970 1.524 . S
C1971 C1972 1.397 . S
C1971 C1976 1.363 . S
C1972 H1949 0.950 . S
C1972 C1971 1.397 . S
C1972 C1973 1.334 . S
C1973 H1950 0.950 . S
C1973 C1972 1.334 . S
C1973 C1974 1.287 . S
C1974 C1973 1.287 . S
C1974 C1975 1.524 . S
C1974 H1993 0.913 . S
C1975 H1951 0.950 . S
C1975 C1974 1.524 . S
C1975 C1976 1.415 . S
C1976 H1952 0.950 . S
C1976 C1971 1.363 . S
C1976 C1975 1.415 . S
C1977 H1953 0.951 . S
C1977 C1978 1.366 . S
C1977 C1979 1.388 . S
C1978 C1977 1.366 . S
C1978 C1982 1.385 . S
C1979 H1954 0.951 . S
C1979 C1977 1.388 . S
C1979 C1980 1.366 . S
C1980 C1979 1.366 . S
C1980 C1981 1.414 . S
C1980 C1983 1.499 . S
C1981 H1955 0.950 . S
C1981 C1980 1.414 . S
C1981 C1982 1.374 . S
C1982 H1956 0.950 . S
C1982 C1978 1.385 . S
C1982 C1981 1.374 . S
C1983 C1980 1.499 . S
C1983 C1984 1.373 . S
C1983 C1985 1.389 . S
C1984 H1957 0.950 . S
C1984 C1970 1.377 . S
C1984 C1983 1.373 . S
C1985 C1969 1.377 . S
C1985 C1983 1.389 . S
C1985 C1986 1.524 . S
C1986 C1985 1.524 . S
C1986 C1987 1.397 . S
C1986 C1991 1.363 . S
C1987 H1958 0.950 . S
C1987 C1986 1.397 . S
C1987 C1988 1.334 . S
C1988 H1959 0.950 . S
C1988 C1987 1.334 . S
C1988 C1989 1.287 . S
C1989 C1988 1.287 . S
C1989 C1990 1.524 . S
C1989 H1992 0.999 . S
C1990 H1960 0.950 . S
C1990 C1989 1.524 . S
C1990 C1991 1.415 . S
C1991 H1961 0.950 . S
C1991 C1986 1.363 . S
C1991 C1990 1.415 . S
H1992 C1989 0.999 . S
H1993 C1974 0.913 . S
H1994 C2012 0.951 . S
H1995 C2014 0.951 . S
H1996 C2016 0.950 . S
H1997 C2017 0.950 . S
H1998 C2019 0.950 . S
H1999 C2022 0.950 . S
H2000 C2023 0.950 . S
H2001 C2025 0.950 . S
H2002 C2026 0.950 . S
H2003 C2027 0.951 . S
H2004 C2029 0.951 . S
H2005 C2031 0.950 . S
H2006 C2032 0.950 . S
H2007 C2034 0.950 . S
H2008 C2037 0.950 . S
H2009 C2038 0.950 . S
H2010 C2040 0.950 . S
H2011 C2041 0.950 . S
C2012 H1994 0.951 . S
C2012 C2013 1.366 . S
C2012 C2014 1.388 . S
C2013 C2012 1.366 . S
C2013 C2017 1.385 . S
C2014 H1995 0.951 . S
C2014 C2012 1.388 . S
C2014 C2015 1.366 . S
C2015 C2014 1.366 . S
C2015 C2016 1.414 . S
C2015 C2018 1.499 . S
C2016 H1996 0.950 . S
C2016 C2015 1.414 . S
C2016 C2017 1.374 . S
C2017 H1997 0.950 . S
C2017 C2013 1.385 . S
C2017 C2016 1.374 . S
C2018 C2015 1.499 . S
C2018 C2019 1.373 . S
C2018 C2020 1.389 . S
C2019 H1998 0.950 . S
C2019 C2018 1.373 . S
C2019 C2035 1.377 . S
C2020 C2018 1.389 . S
C2020 C2021 1.524 . S
C2020 C2034 1.377 . S
C2021 C2020 1.524 . S
C2021 C2022 1.397 . S
C2021 C2026 1.363 . S
C2022 H1999 0.950 . S
C2022 C2021 1.397 . S
C2022 C2023 1.334 . S
C2023 H2000 0.950 . S
C2023 C2022 1.334 . S
C2023 C2024 1.287 . S
C2024 C2023 1.287 . S
C2024 C2025 1.524 . S
C2024 H2043 0.913 . S
C2025 H2001 0.950 . S
C2025 C2024 1.524 . S
C2025 C2026 1.415 . S
C2026 H2002 0.950 . S
C2026 C2021 1.363 . S
C2026 C2025 1.415 . S
C2027 H2003 0.951 . S
C2027 C2028 1.366 . S
C2027 C2029 1.388 . S
C2028 C2027 1.366 . S
C2028 C2032 1.385 . S
C2029 H2004 0.951 . S
C2029 C2027 1.388 . S
C2029 C2030 1.366 . S
C2030 C2029 1.366 . S
C2030 C2031 1.414 . S
C2030 C2033 1.499 . S
C2031 H2005 0.950 . S
C2031 C2030 1.414 . S
C2031 C2032 1.374 . S
C2032 H2006 0.950 . S
C2032 C2028 1.385 . S
C2032 C2031 1.374 . S
C2033 C2030 1.499 . S
C2033 C2034 1.373 . S
C2033 C2035 1.389 . S
C2034 H2007 0.950 . S
C2034 C2020 1.377 . S
C2034 C2033 1.373 . S
C2035 C2019 1.377 . S
C2035 C2033 1.389 . S
C2035 C2036 1.524 . S
C2036 C2035 1.524 . S
C2036 C2037 1.397 . S
C2036 C2041 1.363 . S
C2037 H2008 0.950 . S
C2037 C2036 1.397 . S
C2037 C2038 1.334 . S
C2038 H2009 0.950 . S
C2038 C2037 1.334 . S
C2038 C2039 1.287 . S
C2039 C2038 1.287 . S
C2039 C2040 1.524 . S
C2039 H2042 0.999 . S
C2040 H2010 0.950 . S
C2040 C2039 1.524 . S
C2040 C2041 1.415 . S
C2041 H2011 0.950 . S
C2041 C2036 1.363 . S
C2041 C2040 1.415 . S
H2042 C2039 0.999 . S
H2043 C2024 0.913 . S
H2044 C2062 0.951 . S
H2045 C2064 0.951 . S
H2046 C2066 0.950 . S
H2047 C2067 0.950 . S
H2048 C2069 0.950 . S
H2049 C2072 0.950 . S
H2050 C2073 0.950 . S
H2051 C2075 0.950 . S
H2052 C2076 0.950 . S
H2053 C2077 0.951 . S
H2054 C2079 0.951 . S
H2055 C2081 0.950 . S
H2056 C2082 0.950 . S
H2057 C2084 0.950 . S
H2058 C2087 0.950 . S
H2059 C2088 0.950 . S
H2060 C2090 0.950 . S
H2061 C2091 0.950 . S
C2062 H2044 0.951 . S
C2062 C2063 1.366 . S
C2062 C2064 1.388 . S
C2063 C2062 1.366 . S
C2063 C2067 1.385 . S
C2064 H2045 0.951 . S
C2064 C2062 1.388 . S
C2064 C2065 1.366 . S
C2065 C2064 1.366 . S
C2065 C2066 1.414 . S
C2065 C2068 1.499 . S
C2066 H2046 0.950 . S
C2066 C2065 1.414 . S
C2066 C2067 1.374 . S
C2067 H2047 0.950 . S
C2067 C2063 1.385 . S
C2067 C2066 1.374 . S
C2068 C2065 1.499 . S
C2068 C2069 1.373 . S
C2068 C2070 1.389 . S
C2069 H2048 0.950 . S
C2069 C2068 1.373 . S
C2069 C2085 1.377 . S
C2070 C2068 1.389 . S
C2070 C2071 1.524 . S
C2070 C2084 1.377 . S
C2071 C2070 1.524 . S
C2071 C2072 1.397 . S
C2071 C2076 1.363 . S
C2072 H2049 0.950 . S
C2072 C2071 1.397 . S
C2072 C2073 1.334 . S
C2073 H2050 0.950 . S
C2073 C2072 1.334 . S
C2073 C2074 1.287 . S
C2074 C2073 1.287 . S
C2074 C2075 1.524 . S
C2074 H2093 0.913 . S
C2075 H2051 0.950 . S
C2075 C2074 1.524 . S
C2075 C2076 1.415 . S
C2076 H2052 0.950 . S
C2076 C2071 1.363 . S
C2076 C2075 1.415 . S
C2077 H2053 0.951 . S
C2077 C2078 1.366 . S
C2077 C2079 1.388 . S
C2078 C2077 1.366 . S
C2078 C2082 1.385 . S
C2079 H2054 0.951 . S
C2079 C2077 1.388 . S
C2079 C2080 1.366 . S
C2080 C2079 1.366 . S
C2080 C2081 1.414 . S
C2080 C2083 1.499 . S
C2081 H2055 0.950 . S
C2081 C2080 1.414 . S
C2081 C2082 1.374 . S
C2082 H2056 0.950 . S
C2082 C2078 1.385 . S
C2082 C2081 1.374 . S
C2083 C2080 1.499 . S
C2083 C2084 1.373 . S
C2083 C2085 1.389 . S
C2084 H2057 0.950 . S
C2084 C2070 1.377 . S
C2084 C2083 1.373 . S
C2085 C2069 1.377 . S
C2085 C2083 1.389 . S
C2085 C2086 1.524 . S
C2086 C2085 1.524 . S
C2086 C2087 1.397 . S
C2086 C2091 1.363 . S
C2087 H2058 0.950 . S
C2087 C2086 1.397 . S
C2087 C2088 1.334 . S
C2088 H2059 0.950 . S
C2088 C2087 1.334 . S
C2088 C2089 1.287 . S
C2089 C2088 1.287 . S
C2089 C2090 1.524 . S
C2089 H2092 0.999 . S
C2090 H2060 0.950 . S
C2090 C2089 1.524 . S
C2090 C2091 1.415 . S
C2091 H2061 0.950 . S
C2091 C2086 1.363 . S
C2091 C2090 1.415 . S
H2092 C2089 0.999 . S
H2093 C2074 0.913 . S
H2094 C2112 0.951 . S
H2095 C2114 0.951 . S
H2096 C2116 0.950 . S
H2097 C2117 0.950 . S
H2098 C2119 0.950 . S
H2099 C2122 0.950 . S
H2100 C2123 0.950 . S
H2101 C2125 0.950 . S
H2102 C2126 0.950 . S
H2103 C2127 0.951 . S
H2104 C2129 0.951 . S
H2105 C2131 0.950 . S
H2106 C2132 0.950 . S
H2107 C2134 0.950 . S
H2108 C2137 0.950 . S
H2109 C2138 0.950 . S
H2110 C2140 0.950 . S
H2111 C2141 0.950 . S
C2112 H2094 0.951 . S
C2112 C2113 1.366 . S
C2112 C2114 1.388 . S
C2113 C2112 1.366 . S
C2113 C2117 1.385 . S
C2114 H2095 0.951 . S
C2114 C2112 1.388 . S
C2114 C2115 1.366 . S
C2115 C2114 1.366 . S
C2115 C2116 1.414 . S
C2115 C2118 1.499 . S
C2116 H2096 0.950 . S
C2116 C2115 1.414 . S
C2116 C2117 1.374 . S
C2117 H2097 0.950 . S
C2117 C2113 1.385 . S
C2117 C2116 1.374 . S
C2118 C2115 1.499 . S
C2118 C2119 1.373 . S
C2118 C2120 1.389 . S
C2119 H2098 0.950 . S
C2119 C2118 1.373 . S
C2119 C2135 1.377 . S
C2120 C2118 1.389 . S
C2120 C2121 1.524 . S
C2120 C2134 1.377 . S
C2121 C2120 1.524 . S
C2121 C2122 1.397 . S
C2121 C2126 1.363 . S
C2122 H2099 0.950 . S
C2122 C2121 1.397 . S
C2122 C2123 1.334 . S
C2123 H2100 0.950 . S
C2123 C2122 1.334 . S
C2123 C2124 1.287 . S
C2124 C2123 1.287 . S
C2124 C2125 1.524 . S
C2124 H2143 0.913 . S
C2125 H2101 0.950 . S
C2125 C2124 1.524 . S
C2125 C2126 1.415 . S
C2126 H2102 0.950 . S
C2126 C2121 1.363 . S
C2126 C2125 1.415 . S
C2127 H2103 0.951 . S
C2127 C2128 1.366 . S
C2127 C2129 1.388 . S
C2128 C2127 1.366 . S
C2128 C2132 1.385 . S
C2129 H2104 0.951 . S
C2129 C2127 1.388 . S
C2129 C2130 1.366 . S
C2130 C2129 1.366 . S
C2130 C2131 1.414 . S
C2130 C2133 1.499 . S
C2131 H2105 0.950 . S
C2131 C2130 1.414 . S
C2131 C2132 1.374 . S
C2132 H2106 0.950 . S
C2132 C2128 1.385 . S
C2132 C2131 1.374 . S
C2133 C2130 1.499 . S
C2133 C2134 1.373 . S
C2133 C2135 1.389 . S
C2134 H2107 0.950 . S
C2134 C2120 1.377 . S
C2134 C2133 1.373 . S
C2135 C2119 1.377 . S
C2135 C2133 1.389 . S
C2135 C2136 1.524 . S
C2136 C2135 1.524 . S
C2136 C2137 1.397 . S
C2136 C2141 1.363 . S
C2137 H2108 0.950 . S
C2137 C2136 1.397 . S
C2137 C2138 1.334 . S
C2138 H2109 0.950 . S
C2138 C2137 1.334 . S
C2138 C2139 1.287 . S
C2139 C2138 1.287 . S
C2139 C2140 1.524 . S
C2139 H2142 0.999 . S
C2140 H2110 0.950 . S
C2140 C2139 1.524 . S
C2140 C2141 1.415 . S
C2141 H2111 0.950 . S
C2141 C2136 1.363 . S
C2141 C2140 1.415 . S
H2142 C2139 0.999 . S
H2143 C2124 0.913 . S
H2144 C2162 0.951 . S
H2145 C2164 0.951 . S
H2146 C2166 0.950 . S
H2147 C2167 0.950 . S
H2148 C2169 0.950 . S
H2149 C2172 0.950 . S
H2150 C2173 0.950 . S
H2151 C2175 0.950 . S
H2152 C2176 0.950 . S
H2153 C2177 0.951 . S
H2154 C2179 0.951 . S
H2155 C2181 0.950 . S
H2156 C2182 0.950 . S
H2157 C2184 0.950 . S
H2158 C2187 0.950 . S
H2159 C2188 0.950 . S
H2160 C2190 0.950 . S
H2161 C2191 0.950 . S
C2162 H2144 0.951 . S
C2162 C2163 1.366 . S
C2162 C2164 1.388 . S
C2163 C2162 1.366 . S
C2163 C2167 1.385 . S
C2164 H2145 0.951 . S
C2164 C2162 1.388 . S
C2164 C2165 1.366 . S
C2165 C2164 1.366 . S
C2165 C2166 1.414 . S
C2165 C2168 1.499 . S
C2166 H2146 0.950 . S
C2166 C2165 1.414 . S
C2166 C2167 1.374 . S
C2167 H2147 0.950 . S
C2167 C2163 1.385 . S
C2167 C2166 1.374 . S
C2168 C2165 1.499 . S
C2168 C2169 1.373 . S
C2168 C2170 1.389 . S
C2169 H2148 0.950 . S
C2169 C2168 1.373 . S
C2169 C2185 1.377 . S
C2170 C2168 1.389 . S
C2170 C2171 1.524 . S
C2170 C2184 1.377 . S
C2171 C2170 1.524 . S
C2171 C2172 1.397 . S
C2171 C2176 1.363 . S
C2172 H2149 0.950 . S
C2172 C2171 1.397 . S
C2172 C2173 1.334 . S
C2173 H2150 0.950 . S
C2173 C2172 1.334 . S
C2173 C2174 1.287 . S
C2174 C2173 1.287 . S
C2174 C2175 1.524 . S
C2174 H2193 0.913 . S
C2175 H2151 0.950 . S
C2175 C2174 1.524 . S
C2175 C2176 1.415 . S
C2176 H2152 0.950 . S
C2176 C2171 1.363 . S
C2176 C2175 1.415 . S
C2177 H2153 0.951 . S
C2177 C2178 1.366 . S
C2177 C2179 1.388 . S
C2178 C2177 1.366 . S
C2178 C2182 1.385 . S
C2179 H2154 0.951 . S
C2179 C2177 1.388 . S
C2179 C2180 1.366 . S
C2180 C2179 1.366 . S
C2180 C2181 1.414 . S
C2180 C2183 1.499 . S
C2181 H2155 0.950 . S
C2181 C2180 1.414 . S
C2181 C2182 1.374 . S
C2182 H2156 0.950 . S
C2182 C2178 1.385 . S
C2182 C2181 1.374 . S
C2183 C2180 1.499 . S
C2183 C2184 1.373 . S
C2183 C2185 1.389 . S
C2184 H2157 0.950 . S
C2184 C2170 1.377 . S
C2184 C2183 1.373 . S
C2185 C2169 1.377 . S
C2185 C2183 1.389 . S
C2185 C2186 1.524 . S
C2186 C2185 1.524 . S
C2186 C2187 1.397 . S
C2186 C2191 1.363 . S
C2187 H2158 0.950 . S
C2187 C2186 1.397 . S
C2187 C2188 1.334 . S
C2188 H2159 0.950 . S
C2188 C2187 1.334 . S
C2188 C2189 1.287 . S
C2189 C2188 1.287 . S
C2189 C2190 1.524 . S
C2189 H2192 0.999 . S
C2190 H2160 0.950 . S
C2190 C2189 1.524 . S
C2190 C2191 1.415 . S
C2191 H2161 0.950 . S
C2191 C2186 1.363 . S
C2191 C2190 1.415 . S
H2192 C2189 0.999 . S
H2193 C2174 0.913 . S
H2194 C2212 0.951 . S
H2195 C2214 0.951 . S
H2196 C2216 0.950 . S
H2197 C2217 0.950 . S
H2198 C2219 0.950 . S
H2199 C2222 0.950 . S
H2200 C2223 0.950 . S
H2201 C2225 0.950 . S
H2202 C2226 0.950 . S
H2203 C2227 0.951 . S
H2204 C2229 0.951 . S
H2205 C2231 0.950 . S
H2206 C2232 0.950 . S
H2207 C2234 0.950 . S
H2208 C2237 0.950 . S
H2209 C2238 0.950 . S
H2210 C2240 0.950 . S
H2211 C2241 0.950 . S
C2212 H2194 0.951 . S
C2212 C2213 1.366 . S
C2212 C2214 1.388 . S
C2213 C2212 1.366 . S
C2213 C2217 1.385 . S
C2214 H2195 0.951 . S
C2214 C2212 1.388 . S
C2214 C2215 1.366 . S
C2215 C2214 1.366 . S
C2215 C2216 1.414 . S
C2215 C2218 1.499 . S
C2216 H2196 0.950 . S
C2216 C2215 1.414 . S
C2216 C2217 1.374 . S
C2217 H2197 0.950 . S
C2217 C2213 1.385 . S
C2217 C2216 1.374 . S
C2218 C2215 1.499 . S
C2218 C2219 1.373 . S
C2218 C2220 1.389 . S
C2219 H2198 0.950 . S
C2219 C2218 1.373 . S
C2219 C2235 1.377 . S
C2220 C2218 1.389 . S
C2220 C2221 1.524 . S
C2220 C2234 1.377 . S
C2221 C2220 1.524 . S
C2221 C2222 1.397 . S
C2221 C2226 1.363 . S
C2222 H2199 0.950 . S
C2222 C2221 1.397 . S
C2222 C2223 1.334 . S
C2223 H2200 0.950 . S
C2223 C2222 1.334 . S
C2223 C2224 1.287 . S
C2224 C2223 1.287 . S
C2224 C2225 1.524 . S
C2224 H2243 0.913 . S
C2225 H2201 0.950 . S
C2225 C2224 1.524 . S
C2225 C2226 1.415 . S
C2226 H2202 0.950 . S
C2226 C2221 1.363 . S
C2226 C2225 1.415 . S
C2227 H2203 0.951 . S
C2227 C2228 1.366 . S
C2227 C2229 1.388 . S
C2228 C2227 1.366 . S
C2228 C2232 1.385 . S
C2229 H2204 0.951 . S
C2229 C2227 1.388 . S
C2229 C2230 1.366 . S
C2230 C2229 1.366 . S
C2230 C2231 1.414 . S
C2230 C2233 1.499 . S
C2231 H2205 0.950 . S
C2231 C2230 1.414 . S
C2231 C2232 1.374 . S
C2232 H2206 0.950 . S
C2232 C2228 1.385 . S
C2232 C2231 1.374 . S
C2233 C2230 1.499 . S
C2233 C2234 1.373 . S
C2233 C2235 1.389 . S
C2234 H2207 0.950 . S
C2234 C2220 1.377 . S
C2234 C2233 1.373 . S
C2235 C2219 1.377 . S
C2235 C2233 1.389 . S
C2235 C2236 1.524 . S
C2236 C2235 1.524 . S
C2236 C2237 1.397 . S
C2236 C2241 1.363 . S
C2237 H2208 0.950 . S
C2237 C2236 1.397 . S
C2237 C2238 1.334 . S
C2238 H2209 0.950 . S
C2238 C2237 1.334 . S
C2238 C2239 1.287 . S
C2239 C2238 1.287 . S
C2239 C2240 1.524 . S
C2239 H2242 0.999 . S
C2240 H2210 0.950 . S
C2240 C2239 1.524 . S
C2240 C2241 1.415 . S
C2241 H2211 0.950 . S
C2241 C2236 1.363 . S
C2241 C2240 1.415 . S
H2242 C2239 0.999 . S
H2243 C2224 0.913 . S
H2244 C2262 0.951 . S
H2245 C2264 0.951 . S
H2246 C2266 0.950 . S
H2247 C2267 0.950 . S
H2248 C2269 0.950 . S
H2249 C2272 0.950 . S
H2250 C2273 0.950 . S
H2251 C2275 0.950 . S
H2252 C2276 0.950 . S
H2253 C2277 0.951 . S
H2254 C2279 0.951 . S
H2255 C2281 0.950 . S
H2256 C2282 0.950 . S
H2257 C2284 0.950 . S
H2258 C2287 0.950 . S
H2259 C2288 0.950 . S
H2260 C2290 0.950 . S
H2261 C2291 0.950 . S
C2262 H2244 0.951 . S
C2262 C2263 1.366 . S
C2262 C2264 1.388 . S
C2263 C2262 1.366 . S
C2263 C2267 1.385 . S
C2264 H2245 0.951 . S
C2264 C2262 1.388 . S
C2264 C2265 1.366 . S
C2265 C2264 1.366 . S
C2265 C2266 1.414 . S
C2265 C2268 1.499 . S
C2266 H2246 0.950 . S
C2266 C2265 1.414 . S
C2266 C2267 1.374 . S
C2267 H2247 0.950 . S
C2267 C2263 1.385 . S
C2267 C2266 1.374 . S
C2268 C2265 1.499 . S
C2268 C2269 1.373 . S
C2268 C2270 1.389 . S
C2269 H2248 0.950 . S
C2269 C2268 1.373 . S
C2269 C2285 1.377 . S
C2270 C2268 1.389 . S
C2270 C2271 1.524 . S
C2270 C2284 1.377 . S
C2271 C2270 1.524 . S
C2271 C2272 1.397 . S
C2271 C2276 1.363 . S
C2272 H2249 0.950 . S
C2272 C2271 1.397 . S
C2272 C2273 1.334 . S
C2273 H2250 0.950 . S
C2273 C2272 1.334 . S
C2273 C2274 1.287 . S
C2274 C2273 1.287 . S
C2274 C2275 1.524 . S
C2274 H2293 0.913 . S
C2275 H2251 0.950 . S
C2275 C2274 1.524 . S
C2275 C2276 1.415 . S
C2276 H2252 0.950 . S
C2276 C2271 1.363 . S
C2276 C2275 1.415 . S
C2277 H2253 0.951 . S
C2277 C2278 1.366 . S
C2277 C2279 1.388 . S
C2278 C2277 1.366 . S
C2278 C2282 1.385 . S
C2279 H2254 0.951 . S
C2279 C2277 1.388 . S
C2279 C2280 1.366 . S
C2280 C2279 1.366 . S
C2280 C2281 1.414 . S
C2280 C2283 1.499 . S
C2281 H2255 0.950 . S
C2281 C2280 1.414 . S
C2281 C2282 1.374 . S
C2282 H2256 0.950 . S
C2282 C2278 1.385 . S
C2282 C2281 1.374 . S
C2283 C2280 1.499 . S
C2283 C2284 1.373 . S
C2283 C2285 1.389 . S
C2284 H2257 0.950 . S
C2284 C2270 1.377 . S
C2284 C2283 1.373 . S
C2285 C2269 1.377 . S
C2285 C2283 1.389 . S
C2285 C2286 1.524 . S
C2286 C2285 1.524 . S
C2286 C2287 1.397 . S
C2286 C2291 1.363 . S
C2287 H2258 0.950 . S
C2287 C2286 1.397 . S
C2287 C2288 1.334 . S
C2288 H2259 0.950 . S
C2288 C2287 1.334 . S
C2288 C2289 1.287 . S
C2289 C2288 1.287 . S
C2289 C2290 1.524 . S
C2289 H2292 0.999 . S
C2290 H2260 0.950 . S
C2290 C2289 1.524 . S
C2290 C2291 1.415 . S
C2291 H2261 0.950 . S
C2291 C2286 1.363 . S
C2291 C2290 1.415 . S
H2292 C2289 0.999 . S
H2293 C2274 0.913 . S
H2294 C2312 0.951 . S
H2295 C2314 0.951 . S
H2296 C2316 0.950 . S
H2297 C2317 0.950 . S
H2298 C2319 0.950 . S
H2299 C2322 0.950 . S
H2300 C2323 0.950 . S
H2301 C2325 0.950 . S
H2302 C2326 0.950 . S
H2303 C2327 0.951 . S
H2304 C2329 0.951 . S
H2305 C2331 0.950 . S
H2306 C2332 0.950 . S
H2307 C2334 0.950 . S
H2308 C2337 0.950 . S
H2309 C2338 0.950 . S
H2310 C2340 0.950 . S
H2311 C2341 0.950 . S
C2312 H2294 0.951 . S
C2312 C2313 1.366 . S
C2312 C2314 1.388 . S
C2313 C2312 1.366 . S
C2313 C2317 1.385 . S
C2314 H2295 0.951 . S
C2314 C2312 1.388 . S
C2314 C2315 1.366 . S
C2315 C2314 1.366 . S
C2315 C2316 1.414 . S
C2315 C2318 1.499 . S
C2316 H2296 0.950 . S
C2316 C2315 1.414 . S
C2316 C2317 1.374 . S
C2317 H2297 0.950 . S
C2317 C2313 1.385 . S
C2317 C2316 1.374 . S
C2318 C2315 1.499 . S
C2318 C2319 1.373 . S
C2318 C2320 1.389 . S
C2319 H2298 0.950 . S
C2319 C2318 1.373 . S
C2319 C2335 1.377 . S
C2320 C2318 1.389 . S
C2320 C2321 1.524 . S
C2320 C2334 1.377 . S
C2321 C2320 1.524 . S
C2321 C2322 1.397 . S
C2321 C2326 1.363 . S
C2322 H2299 0.950 . S
C2322 C2321 1.397 . S
C2322 C2323 1.334 . S
C2323 H2300 0.950 . S
C2323 C2322 1.334 . S
C2323 C2324 1.287 . S
C2324 C2323 1.287 . S
C2324 C2325 1.524 . S
C2324 H2343 0.913 . S
C2325 H2301 0.950 . S
C2325 C2324 1.524 . S
C2325 C2326 1.415 . S
C2326 H2302 0.950 . S
C2326 C2321 1.363 . S
C2326 C2325 1.415 . S
C2327 H2303 0.951 . S
C2327 C2328 1.366 . S
C2327 C2329 1.388 . S
C2328 C2327 1.366 . S
C2328 C2332 1.385 . S
C2329 H2304 0.951 . S
C2329 C2327 1.388 . S
C2329 C2330 1.366 . S
C2330 C2329 1.366 . S
C2330 C2331 1.414 . S
C2330 C2333 1.499 . S
C2331 H2305 0.950 . S
C2331 C2330 1.414 . S
C2331 C2332 1.374 . S
C2332 H2306 0.950 . S
C2332 C2328 1.385 . S
C2332 C2331 1.374 . S
C2333 C2330 1.499 . S
C2333 C2334 1.373 . S
C2333 C2335 1.389 . S
C2334 H2307 0.950 . S
C2334 C2320 1.377 . S
C2334 C2333 1.373 . S
C2335 C2319 1.377 . S
C2335 C2333 1.389 . S
C2335 C2336 1.524 . S
C2336 C2335 1.524 . S
C2336 C2337 1.397 . S
C2336 C2341 1.363 . S
C2337 H2308 0.950 . S
C2337 C2336 1.397 . S
C2337 C2338 1.334 . S
C2338 H2309 0.950 . S
C2338 C2337 1.334 . S
C2338 C2339 1.287 . S
C2339 C2338 1.287 . S
C2339 C2340 1.524 . S
C2339 H2342 0.999 . S
C2340 H2310 0.950 . S
C2340 C2339 1.524 . S
C2340 C2341 1.415 . S
C2341 H2311 0.950 . S
C2341 C2336 1.363 . S
C2341 C2340 1.415 . S
H2342 C2339 0.999 . S
H2343 C2324 0.913 . S
H2344 C2362 0.951 . S
H2345 C2364 0.951 . S
H2346 C2366 0.950 . S
H2347 C2367 0.950 . S
H2348 C2369 0.950 . S
H2349 C2372 0.950 . S
H2350 C2373 0.950 . S
H2351 C2375 0.950 . S
H2352 C2376 0.950 . S
H2353 C2377 0.951 . S
H2354 C2379 0.951 . S
H2355 C2381 0.950 . S
H2356 C2382 0.950 . S
H2357 C2384 0.950 . S
H2358 C2387 0.950 . S
H2359 C2388 0.950 . S
H2360 C2390 0.950 . S
H2361 C2391 0.950 . S
C2362 H2344 0.951 . S
C2362 C2363 1.366 . S
C2362 C2364 1.388 . S
C2363 C2362 1.366 . S
C2363 C2367 1.385 . S
C2364 H2345 0.951 . S
C2364 C2362 1.388 . S
C2364 C2365 1.366 . S
C2365 C2364 1.366 . S
C2365 C2366 1.414 . S
C2365 C2368 1.499 . S
C2366 H2346 0.950 . S
C2366 C2365 1.414 . S
C2366 C2367 1.374 . S
C2367 H2347 0.950 . S
C2367 C2363 1.385 . S
C2367 C2366 1.374 . S
C2368 C2365 1.499 . S
C2368 C2369 1.373 . S
C2368 C2370 1.389 . S
C2369 H2348 0.950 . S
C2369 C2368 1.373 . S
C2369 C2385 1.377 . S
C2370 C2368 1.389 . S
C2370 C2371 1.524 . S
C2370 C2384 1.377 . S
C2371 C2370 1.524 . S
C2371 C2372 1.397 . S
C2371 C2376 1.363 . S
C2372 H2349 0.950 . S
C2372 C2371 1.397 . S
C2372 C2373 1.334 . S
C2373 H2350 0.950 . S
C2373 C2372 1.334 . S
C2373 C2374 1.287 . S
C2374 C2373 1.287 . S
C2374 C2375 1.524 . S
C2374 H2393 0.913 . S
C2375 H2351 0.950 . S
C2375 C2374 1.524 . S
C2375 C2376 1.415 . S
C2376 H2352 0.950 . S
C2376 C2371 1.363 . S
C2376 C2375 1.415 . S
C2377 H2353 0.951 . S
C2377 C2378 1.366 . S
C2377 C2379 1.388 . S
C2378 C2377 1.366 . S
C2378 C2382 1.385 . S
C2379 H2354 0.951 . S
C2379 C2377 1.388 . S
C2379 C2380 1.366 . S
C2380 C2379 1.366 . S
C2380 C2381 1.414 . S
C2380 C2383 1.499 . S
C2381 H2355 0.950 . S
C2381 C2380 1.414 . S
C2381 C2382 1.374 . S
C2382 H2356 0.950 . S
C2382 C2378 1.385 . S
C2382 C2381 1.374 . S
C2383 C2380 1.499 . S
C2383 C2384 1.373 . S
C2383 C2385 1.389 . S
C2384 H2357 0.950 . S
C2384 C2370 1.377 . S
C2384 C2383 1.373 . S
C2385 C2369 1.377 . S
C2385 C2383 1.389 . S
C2385 C2386 1.524 . S
C2386 C2385 1.524 . S
C2386 C2387 1.397 . S
C2386 C2391 1.363 . S
C2387 H2358 0.950 . S
C2387 C2386 1.397 . S
C2387 C2388 1.334 . S
C2388 H2359 0.950 . S
C2388 C2387 1.334 . S
C2388 C2389 1.287 . S
C2389 C2388 1.287 . S
C2389 C2390 1.524 . S
C2389 H2392 0.999 . S
C2390 H2360 0.950 . S
C2390 C2389 1.524 . S
C2390 C2391 1.415 . S
C2391 H2361 0.950 . S
C2391 C2386 1.363 . S
C2391 C2390 1.415 . S
H2392 C2389 0.999 . S
H2393 C2374 0.913 . S
H2394 C2412 0.951 . S
H2395 C2414 0.951 . S
H2396 C2416 0.950 . S
H2397 C2417 0.950 . S
H2398 C2419 0.950 . S
H2399 C2422 0.950 . S
H2400 C2423 0.950 . S
H2401 C2425 0.950 . S
H2402 C2426 0.950 . S
H2403 C2427 0.951 . S
H2404 C2429 0.951 . S
H2405 C2431 0.950 . S
H2406 C2432 0.950 . S
H2407 C2434 0.950 . S
H2408 C2437 0.950 . S
H2409 C2438 0.950 . S
H2410 C2440 0.950 . S
H2411 C2441 0.950 . S
C2412 H2394 0.951 . S
C2412 C2413 1.366 . S
C2412 C2414 1.388 . S
C2413 C2412 1.366 . S
C2413 C2417 1.385 . S
C2414 H2395 0.951 . S
C2414 C2412 1.388 . S
C2414 C2415 1.366 . S
C2415 C2414 1.366 . S
C2415 C2416 1.414 . S
C2415 C2418 1.499 . S
C2416 H2396 0.950 . S
C2416 C2415 1.414 . S
C2416 C2417 1.374 . S
C2417 H2397 0.950 . S
C2417 C2413 1.385 . S
C2417 C2416 1.374 . S
C2418 C2415 1.499 . S
C2418 C2419 1.373 . S
C2418 C2420 1.389 . S
C2419 H2398 0.950 . S
C2419 C2418 1.373 . S
C2419 C2435 1.377 . S
C2420 C2418 1.389 . S
C2420 C2421 1.524 . S
C2420 C2434 1.377 . S
C2421 C2420 1.524 . S
C2421 C2422 1.397 . S
C2421 C2426 1.363 . S
C2422 H2399 0.950 . S
C2422 C2421 1.397 . S
C2422 C2423 1.334 . S
C2423 H2400 0.950 . S
C2423 C2422 1.334 . S
C2423 C2424 1.287 . S
C2424 C2423 1.287 . S
C2424 C2425 1.524 . S
C2424 H2443 0.913 . S
C2425 H2401 0.950 . S
C2425 C2424 1.524 . S
C2425 C2426 1.415 . S
C2426 H2402 0.950 . S
C2426 C2421 1.363 . S
C2426 C2425 1.415 . S
C2427 H2403 0.951 . S
C2427 C2428 1.366 . S
C2427 C2429 1.388 . S
C2428 C2427 1.366 . S
C2428 C2432 1.385 . S
C2429 H2404 0.951 . S
C2429 C2427 1.388 . S
C2429 C2430 1.366 . S
C2430 C2429 1.366 . S
C2430 C2431 1.414 . S
C2430 C2433 1.499 . S
C2431 H2405 0.950 . S
C2431 C2430 1.414 . S
C2431 C2432 1.374 . S
C2432 H2406 0.950 . S
C2432 C2428 1.385 . S
C2432 C2431 1.374 . S
C2433 C2430 1.499 . S
C2433 C2434 1.373 . S
C2433 C2435 1.389 . S
C2434 H2407 0.950 . S
C2434 C2420 1.377 . S
C2434 C2433 1.373 . S
C2435 C2419 1.377 . S
C2435 C2433 1.389 . S
C2435 C2436 1.524 . S
C2436 C2435 1.524 . S
C2436 C2437 1.397 . S
C2436 C2441 1.363 . S
C2437 H2408 0.950 . S
C2437 C2436 1.397 . S
C2437 C2438 1.334 . S
C2438 H2409 0.950 . S
C2438 C2437 1.334 . S
C2438 C2439 1.287 . S
C2439 C2438 1.287 . S
C2439 C2440 1.524 . S
C2439 H2442 0.999 . S
C2440 H2410 0.950 . S
C2440 C2439 1.524 . S
C2440 C2441 1.415 . S
C2441 H2411 0.950 . S
C2441 C2436 1.363 . S
C2441 C2440 1.415 . S
H2442 C2439 0.999 . S
H2443 C2424 0.913 . S
H2444 C2462 0.951 . S
H2445 C2464 0.951 . S
H2446 C2466 0.950 . S
H2447 C2467 0.950 . S
H2448 C2469 0.950 . S
H2449 C2472 0.950 . S
H2450 C2473 0.950 . S
H2451 C2475 0.950 . S
H2452 C2476 0.950 . S
H2453 C2477 0.951 . S
H2454 C2479 0.951 . S
H2455 C2481 0.950 . S
H2456 C2482 0.950 . S
H2457 C2484 0.950 . S
H2458 C2487 0.950 . S
H2459 C2488 0.950 . S
H2460 C2490 0.950 . S
H2461 C2491 0.950 . S
C2462 H2444 0.951 . S
C2462 C2463 1.366 . S
C2462 C2464 1.388 . S
C2463 C2462 1.366 . S
C2463 C2467 1.385 . S
C2464 H2445 0.951 . S
C2464 C2462 1.388 . S
C2464 C2465 1.366 . S
C2465 C2464 1.366 . S
C2465 C2466 1.414 . S
C2465 C2468 1.499 . S
C2466 H2446 0.950 . S
C2466 C2465 1.414 . S
C2466 C2467 1.374 . S
C2467 H2447 0.950 . S
C2467 C2463 1.385 . S
C2467 C2466 1.374 . S
C2468 C2465 1.499 . S
C2468 C2469 1.373 . S
C2468 C2470 1.389 . S
C2469 H2448 0.950 . S
C2469 C2468 1.373 . S
C2469 C2485 1.377 . S
C2470 C2468 1.389 . S
C2470 C2471 1.524 . S
C2470 C2484 1.377 . S
C2471 C2470 1.524 . S
C2471 C2472 1.397 . S
C2471 C2476 1.363 . S
C2472 H2449 0.950 . S
C2472 C2471 1.397 . S
C2472 C2473 1.334 . S
C2473 H2450 0.950 . S
C2473 C2472 1.334 . S
C2473 C2474 1.287 . S
C2474 C2473 1.287 . S
C2474 C2475 1.524 . S
C2474 H2493 0.913 . S
C2475 H2451 0.950 . S
C2475 C2474 1.524 . S
C2475 C2476 1.415 . S
C2476 H2452 0.950 . S
C2476 C2471 1.363 . S
C2476 C2475 1.415 . S
C2477 H2453 0.951 . S
C2477 C2478 1.366 . S
C2477 C2479 1.388 . S
C2478 C2477 1.366 . S
C2478 C2482 1.385 . S
C2479 H2454 0.951 . S
C2479 C2477 1.388 . S
C2479 C2480 1.366 . S
C2480 C2479 1.366 . S
C2480 C2481 1.414 . S
C2480 C2483 1.499 . S
C2481 H2455 0.950 . S
C2481 C2480 1.414 . S
C2481 C2482 1.374 . S
C2482 H2456 0.950 . S
C2482 C2478 1.385 . S
C2482 C2481 1.374 . S
C2483 C2480 1.499 . S
C2483 C2484 1.373 . S
C2483 C2485 1.389 . S
C2484 H2457 0.950 . S
C2484 C2470 1.377 . S
C2484 C2483 1.373 . S
C2485 C2469 1.377 . S
C2485 C2483 1.389 . S
C2485 C2486 1.524 . S
C2486 C2485 1.524 . S
C2486 C2487 1.397 . S
C2486 C2491 1.363 . S
C2487 H2458 0.950 . S
C2487 C2486 1.397 . S
C2487 C2488 1.334 . S
C2488 H2459 0.950 . S
C2488 C2487 1.334 . S
C2488 C2489 1.287 . S
C2489 C2488 1.287 . S
C2489 C2490 1.524 . S
C2489 H2492 0.999 . S
C2490 H2460 0.950 . S
C2490 C2489 1.524 . S
C2490 C2491 1.415 . S
C2491 H2461 0.950 . S
C2491 C2486 1.363 . S
C2491 C2490 1.415 . S
H2492 C2489 0.999 . S
H2493 C2474 0.913 . S
H2494 C2512 0.951 . S
H2495 C2514 0.951 . S
H2496 C2516 0.950 . S
H2497 C2517 0.950 . S
H2498 C2519 0.950 . S
H2499 C2522 0.950 . S
H2500 C2523 0.950 . S
H2501 C2525 0.950 . S
H2502 C2526 0.950 . S
H2503 C2527 0.951 . S
H2504 C2529 0.951 . S
H2505 C2531 0.950 . S
H2506 C2532 0.950 . S
H2507 C2534 0.950 . S
H2508 C2537 0.950 . S
H2509 C2538 0.950 . S
H2510 C2540 0.950 . S
H2511 C2541 0.950 . S
C2512 H2494 0.951 . S
C2512 C2513 1.366 . S
C2512 C2514 1.388 . S
C2513 C2512 1.366 . S
C2513 C2517 1.385 . S
C2514 H2495 0.951 . S
C2514 C2512 1.388 . S
C2514 C2515 1.366 . S
C2515 C2514 1.366 . S
C2515 C2516 1.414 . S
C2515 C2518 1.499 . S
C2516 H2496 0.950 . S
C2516 C2515 1.414 . S
C2516 C2517 1.374 . S
C2517 H2497 0.950 . S
C2517 C2513 1.385 . S
C2517 C2516 1.374 . S
C2518 C2515 1.499 . S
C2518 C2519 1.373 . S
C2518 C2520 1.389 . S
C2519 H2498 0.950 . S
C2519 C2518 1.373 . S
C2519 C2535 1.377 . S
C2520 C2518 1.389 . S
C2520 C2521 1.524 . S
C2520 C2534 1.377 . S
C2521 C2520 1.524 . S
C2521 C2522 1.397 . S
C2521 C2526 1.363 . S
C2522 H2499 0.950 . S
C2522 C2521 1.397 . S
C2522 C2523 1.334 . S
C2523 H2500 0.950 . S
C2523 C2522 1.334 . S
C2523 C2524 1.287 . S
C2524 C2523 1.287 . S
C2524 C2525 1.524 . S
C2524 H2543 0.913 . S
C2525 H2501 0.950 . S
C2525 C2524 1.524 . S
C2525 C2526 1.415 . S
C2526 H2502 0.950 . S
C2526 C2521 1.363 . S
C2526 C2525 1.415 . S
C2527 H2503 0.951 . S
C2527 C2528 1.366 . S
C2527 C2529 1.388 . S
C2528 C2527 1.366 . S
C2528 C2532 1.385 . S
C2529 H2504 0.951 . S
C2529 C2527 1.388 . S
C2529 C2530 1.366 . S
C2530 C2529 1.366 . S
C2530 C2531 1.414 . S
C2530 C2533 1.499 . S
C2531 H2505 0.950 . S
C2531 C2530 1.414 . S
C2531 C2532 1.374 . S
C2532 H2506 0.950 . S
C2532 C2528 1.385 . S
C2532 C2531 1.374 . S
C2533 C2530 1.499 . S
C2533 C2534 1.373 . S
C2533 C2535 1.389 . S
C2534 H2507 0.950 . S
C2534 C2520 1.377 . S
C2534 C2533 1.373 . S
C2535 C2519 1.377 . S
C2535 C2533 1.389 . S
C2535 C2536 1.524 . S
C2536 C2535 1.524 . S
C2536 C2537 1.397 . S
C2536 C2541 1.363 . S
C2537 H2508 0.950 . S
C2537 C2536 1.397 . S
C2537 C2538 1.334 . S
C2538 H2509 0.950 . S
C2538 C2537 1.334 . S
C2538 C2539 1.287 . S
C2539 C2538 1.287 . S
C2539 C2540 1.524 . S
C2539 H2542 0.999 . S
C2540 H2510 0.950 . S
C2540 C2539 1.524 . S
C2540 C2541 1.415 . S
C2541 H2511 0.950 . S
C2541 C2536 1.363 . S
C2541 C2540 1.415 . S
H2542 C2539 0.999 . S
H2543 C2524 0.913 . S
H2544 C2562 0.951 . S
H2545 C2564 0.951 . S
H2546 C2566 0.950 . S
H2547 C2567 0.950 . S
H2548 C2569 0.950 . S
H2549 C2572 0.950 . S
H2550 C2573 0.950 . S
H2551 C2575 0.950 . S
H2552 C2576 0.950 . S
H2553 C2577 0.951 . S
H2554 C2579 0.951 . S
H2555 C2581 0.950 . S
H2556 C2582 0.950 . S
H2557 C2584 0.950 . S
H2558 C2587 0.950 . S
H2559 C2588 0.950 . S
H2560 C2590 0.950 . S
H2561 C2591 0.950 . S
C2562 H2544 0.951 . S
C2562 C2563 1.366 . S
C2562 C2564 1.388 . S
C2563 C2562 1.366 . S
C2563 C2567 1.385 . S
C2564 H2545 0.951 . S
C2564 C2562 1.388 . S
C2564 C2565 1.366 . S
C2565 C2564 1.366 . S
C2565 C2566 1.414 . S
C2565 C2568 1.499 . S
C2566 H2546 0.950 . S
C2566 C2565 1.414 . S
C2566 C2567 1.374 . S
C2567 H2547 0.950 . S
C2567 C2563 1.385 . S
C2567 C2566 1.374 . S
C2568 C2565 1.499 . S
C2568 C2569 1.373 . S
C2568 C2570 1.389 . S
C2569 H2548 0.950 . S
C2569 C2568 1.373 . S
C2569 C2585 1.377 . S
C2570 C2568 1.389 . S
C2570 C2571 1.524 . S
C2570 C2584 1.377 . S
C2571 C2570 1.524 . S
C2571 C2572 1.397 . S
C2571 C2576 1.363 . S
C2572 H2549 0.950 . S
C2572 C2571 1.397 . S
C2572 C2573 1.334 . S
C2573 H2550 0.950 . S
C2573 C2572 1.334 . S
C2573 C2574 1.287 . S
C2574 C2573 1.287 . S
C2574 C2575 1.524 . S
C2574 H2593 0.913 . S
C2575 H2551 0.950 . S
C2575 C2574 1.524 . S
C2575 C2576 1.415 . S
C2576 H2552 0.950 . S
C2576 C2571 1.363 . S
C2576 C2575 1.415 . S
C2577 H2553 0.951 . S
C2577 C2578 1.366 . S
C2577 C2579 1.388 . S
C2578 C2577 1.366 . S
C2578 C2582 1.385 . S
C2579 H2554 0.951 . S
C2579 C2577 1.388 . S
C2579 C2580 1.366 . S
C2580 C2579 1.366 . S
C2580 C2581 1.414 . S
C2580 C2583 1.499 . S
C2581 H2555 0.950 . S
C2581 C2580 1.414 . S
C2581 C2582 1.374 . S
C2582 H2556 0.950 . S
C2582 C2578 1.385 . S
C2582 C2581 1.374 . S
C2583 C2580 1.499 . S
C2583 C2584 1.373 . S
C2583 C2585 1.389 . S
C2584 H2557 0.950 . S
C2584 C2570 1.377 . S
C2584 C2583 1.373 . S
C2585 C2569 1.377 . S
C2585 C2583 1.389 . S
C2585 C2586 1.524 . S
C2586 C2585 1.524 . S
C2586 C2587 1.397 . S
C2586 C2591 1.363 . S
C2587 H2558 0.950 . S
C2587 C2586 1.397 . S
C2587 C2588 1.334 . S
C2588 H2559 0.950 . S
C2588 C2587 1.334 . S
C2588 C2589 1.287 . S
C2589 C2588 1.287 . S
C2589 C2590 1.524 . S
C2589 H2592 0.999 . S
C2590 H2560 0.950 . S
C2590 C2589 1.524 . S
C2590 C2591 1.415 . S
C2591 H2561 0.950 . S
C2591 C2586 1.363 . S
C2591 C2590 1.415 . S
H2592 C2589 0.999 . S
H2593 C2574 0.913 . S
H2594 C2612 0.951 . S
H2595 C2614 0.951 . S
H2596 C2616 0.950 . S
H2597 C2617 0.950 . S
H2598 C2619 0.950 . S
H2599 C2622 0.950 . S
H2600 C2623 0.950 . S
H2601 C2625 0.950 . S
H2602 C2626 0.950 . S
H2603 C2627 0.951 . S
H2604 C2629 0.951 . S
H2605 C2631 0.950 . S
H2606 C2632 0.950 . S
H2607 C2634 0.950 . S
H2608 C2637 0.950 . S
H2609 C2638 0.950 . S
H2610 C2640 0.950 . S
H2611 C2641 0.950 . S
C2612 H2594 0.951 . S
C2612 C2613 1.366 . S
C2612 C2614 1.388 . S
C2613 C2612 1.366 . S
C2613 C2617 1.385 . S
C2614 H2595 0.951 . S
C2614 C2612 1.388 . S
C2614 C2615 1.366 . S
C2615 C2614 1.366 . S
C2615 C2616 1.414 . S
C2615 C2618 1.499 . S
C2616 H2596 0.950 . S
C2616 C2615 1.414 . S
C2616 C2617 1.374 . S
C2617 H2597 0.950 . S
C2617 C2613 1.385 . S
C2617 C2616 1.374 . S
C2618 C2615 1.499 . S
C2618 C2619 1.373 . S
C2618 C2620 1.389 . S
C2619 H2598 0.950 . S
C2619 C2618 1.373 . S
C2619 C2635 1.377 . S
C2620 C2618 1.389 . S
C2620 C2621 1.524 . S
C2620 C2634 1.377 . S
C2621 C2620 1.524 . S
C2621 C2622 1.397 . S
C2621 C2626 1.363 . S
C2622 H2599 0.950 . S
C2622 C2621 1.397 . S
C2622 C2623 1.334 . S
C2623 H2600 0.950 . S
C2623 C2622 1.334 . S
C2623 C2624 1.287 . S
C2624 C2623 1.287 . S
C2624 C2625 1.524 . S
C2624 H2643 0.913 . S
C2625 H2601 0.950 . S
C2625 C2624 1.524 . S
C2625 C2626 1.415 . S
C2626 H2602 0.950 . S
C2626 C2621 1.363 . S
C2626 C2625 1.415 . S
C2627 H2603 0.951 . S
C2627 C2628 1.366 . S
C2627 C2629 1.388 . S
C2628 C2627 1.366 . S
C2628 C2632 1.385 . S
C2629 H2604 0.951 . S
C2629 C2627 1.388 . S
C2629 C2630 1.366 . S
C2630 C2629 1.366 . S
C2630 C2631 1.414 . S
C2630 C2633 1.499 . S
C2631 H2605 0.950 . S
C2631 C2630 1.414 . S
C2631 C2632 1.374 . S
C2632 H2606 0.950 . S
C2632 C2628 1.385 . S
C2632 C2631 1.374 . S
C2633 C2630 1.499 . S
C2633 C2634 1.373 . S
C2633 C2635 1.389 . S
C2634 H2607 0.950 . S
C2634 C2620 1.377 . S
C2634 C2633 1.373 . S
C2635 C2619 1.377 . S
C2635 C2633 1.389 . S
C2635 C2636 1.524 . S
C2636 C2635 1.524 . S
C2636 C2637 1.397 . S
C2636 C2641 1.363 . S
C2637 H2608 0.950 . S
C2637 C2636 1.397 . S
C2637 C2638 1.334 . S
C2638 H2609 0.950 . S
C2638 C2637 1.334 . S
C2638 C2639 1.287 . S
C2639 C2638 1.287 . S
C2639 C2640 1.524 . S
C2639 H2642 0.999 . S
C2640 H2610 0.950 . S
C2640 C2639 1.524 . S
C2640 C2641 1.415 . S
C2641 H2611 0.950 . S
C2641 C2636 1.363 . S
C2641 C2640 1.415 . S
H2642 C2639 0.999 . S
H2643 C2624 0.913 . S
H2644 C2662 0.951 . S
H2645 C2664 0.951 . S
H2646 C2666 0.950 . S
H2647 C2667 0.950 . S
H2648 C2669 0.950 . S
H2649 C2672 0.950 . S
H2650 C2673 0.950 . S
H2651 C2675 0.950 . S
H2652 C2676 0.950 . S
H2653 C2677 0.951 . S
H2654 C2679 0.951 . S
H2655 C2681 0.950 . S
H2656 C2682 0.950 . S
H2657 C2684 0.950 . S
H2658 C2687 0.950 . S
H2659 C2688 0.950 . S
H2660 C2690 0.950 . S
H2661 C2691 0.950 . S
C2662 H2644 0.951 . S
C2662 C2663 1.366 . S
C2662 C2664 1.388 . S
C2663 C2662 1.366 . S
C2663 C2667 1.385 . S
C2664 H2645 0.951 . S
C2664 C2662 1.388 . S
C2664 C2665 1.366 . S
C2665 C2664 1.366 . S
C2665 C2666 1.414 . S
C2665 C2668 1.499 . S
C2666 H2646 0.950 . S
C2666 C2665 1.414 . S
C2666 C2667 1.374 . S
C2667 H2647 0.950 . S
C2667 C2663 1.385 . S
C2667 C2666 1.374 . S
C2668 C2665 1.499 . S
C2668 C2669 1.373 . S
C2668 C2670 1.389 . S
C2669 H2648 0.950 . S
C2669 C2668 1.373 . S
C2669 C2685 1.377 . S
C2670 C2668 1.389 . S
C2670 C2671 1.524 . S
C2670 C2684 1.377 . S
C2671 C2670 1.524 . S
C2671 C2672 1.397 . S
C2671 C2676 1.363 . S
C2672 H2649 0.950 . S
C2672 C2671 1.397 . S
C2672 C2673 1.334 . S
C2673 H2650 0.950 . S
C2673 C2672 1.334 . S
C2673 C2674 1.287 . S
C2674 C2673 1.287 . S
C2674 C2675 1.524 . S
C2674 H2693 0.913 . S
C2675 H2651 0.950 . S
C2675 C2674 1.524 . S
C2675 C2676 1.415 . S
C2676 H2652 0.950 . S
C2676 C2671 1.363 . S
C2676 C2675 1.415 . S
C2677 H2653 0.951 . S
C2677 C2678 1.366 . S
C2677 C2679 1.388 . S
C2678 C2677 1.366 . S
C2678 C2682 1.385 . S
C2679 H2654 0.951 . S
C2679 C2677 1.388 . S
C2679 C2680 1.366 . S
C2680 C2679 1.366 . S
C2680 C2681 1.414 . S
C2680 C2683 1.499 . S
C2681 H2655 0.950 . S
C2681 C2680 1.414 . S
C2681 C2682 1.374 . S
C2682 H2656 0.950 . S
C2682 C2678 1.385 . S
C2682 C2681 1.374 . S
C2683 C2680 1.499 . S
C2683 C2684 1.373 . S
C2683 C2685 1.389 . S
C2684 H2657 0.950 . S
C2684 C2670 1.377 . S
C2684 C2683 1.373 . S
C2685 C2669 1.377 . S
C2685 C2683 1.389 . S
C2685 C2686 1.524 . S
C2686 C2685 1.524 . S
C2686 C2687 1.397 . S
C2686 C2691 1.363 . S
C2687 H2658 0.950 . S
C2687 C2686 1.397 . S
C2687 C2688 1.334 . S
C2688 H2659 0.950 . S
C2688 C2687 1.334 . S
C2688 C2689 1.287 . S
C2689 C2688 1.287 . S
C2689 C2690 1.524 . S
C2689 H2692 0.999 . S
C2690 H2660 0.950 . S
C2690 C2689 1.524 . S
C2690 C2691 1.415 . S
C2691 H2661 0.950 . S
C2691 C2686 1.363 . S
C2691 C2690 1.415 . S
H2692 C2689 0.999 . S
H2693 C2674 0.913 . S
H2694 C2712 0.951 . S
H2695 C2714 0.951 . S
H2696 C2716 0.950 . S
H2697 C2717 0.950 . S
H2698 C2719 0.950 . S
H2699 C2722 0.950 . S
H2700 C2723 0.950 . S
H2701 C2725 0.950 . S
H2702 C2726 0.950 . S
H2703 C2727 0.951 . S
H2704 C2729 0.951 . S
H2705 C2731 0.950 . S
H2706 C2732 0.950 . S
H2707 C2734 0.950 . S
H2708 C2737 0.950 . S
H2709 C2738 0.950 . S
H2710 C2740 0.950 . S
H2711 C2741 0.950 . S
C2712 H2694 0.951 . S
C2712 C2713 1.366 . S
C2712 C2714 1.388 . S
C2713 C2712 1.366 . S
C2713 C2717 1.385 . S
C2714 H2695 0.951 . S
C2714 C2712 1.388 . S
C2714 C2715 1.366 . S
C2715 C2714 1.366 . S
C2715 C2716 1.414 . S
C2715 C2718 1.499 . S
C2716 H2696 0.950 . S
C2716 C2715 1.414 . S
C2716 C2717 1.374 . S
C2717 H2697 0.950 . S
C2717 C2713 1.385 . S
C2717 C2716 1.374 . S
C2718 C2715 1.499 . S
C2718 C2719 1.373 . S
C2718 C2720 1.389 . S
C2719 H2698 0.950 . S
C2719 C2718 1.373 . S
C2719 C2735 1.377 . S
C2720 C2718 1.389 . S
C2720 C2721 1.524 . S
C2720 C2734 1.377 . S
C2721 C2720 1.524 . S
C2721 C2722 1.397 . S
C2721 C2726 1.363 . S
C2722 H2699 0.950 . S
C2722 C2721 1.397 . S
C2722 C2723 1.334 . S
C2723 H2700 0.950 . S
C2723 C2722 1.334 . S
C2723 C2724 1.287 . S
C2724 C2723 1.287 . S
C2724 C2725 1.524 . S
C2724 H2743 0.913 . S
C2725 H2701 0.950 . S
C2725 C2724 1.524 . S
C2725 C2726 1.415 . S
C2726 H2702 0.950 . S
C2726 C2721 1.363 . S
C2726 C2725 1.415 . S
C2727 H2703 0.951 . S
C2727 C2728 1.366 . S
C2727 C2729 1.388 . S
C2728 C2727 1.366 . S
C2728 C2732 1.385 . S
C2729 H2704 0.951 . S
C2729 C2727 1.388 . S
C2729 C2730 1.366 . S
C2730 C2729 1.366 . S
C2730 C2731 1.414 . S
C2730 C2733 1.499 . S
C2731 H2705 0.950 . S
C2731 C2730 1.414 . S
C2731 C2732 1.374 . S
C2732 H2706 0.950 . S
C2732 C2728 1.385 . S
C2732 C2731 1.374 . S
C2733 C2730 1.499 . S
C2733 C2734 1.373 . S
C2733 C2735 1.389 . S
C2734 H2707 0.950 . S
C2734 C2720 1.377 . S
C2734 C2733 1.373 . S
C2735 C2719 1.377 . S
C2735 C2733 1.389 . S
C2735 C2736 1.524 . S
C2736 C2735 1.524 . S
C2736 C2737 1.397 . S
C2736 C2741 1.363 . S
C2737 H2708 0.950 . S
C2737 C2736 1.397 . S
C2737 C2738 1.334 . S
C2738 H2709 0.950 . S
C2738 C2737 1.334 . S
C2738 C2739 1.287 . S
C2739 C2738 1.287 . S
C2739 C2740 1.524 . S
C2739 H2742 0.999 . S
C2740 H2710 0.950 . S
C2740 C2739 1.524 . S
C2740 C2741 1.415 . S
C2741 H2711 0.950 . S
C2741 C2736 1.363 . S
C2741 C2740 1.415 . S
H2742 C2739 0.999 . S
H2743 C2724 0.913 . S
H2744 C2762 0.951 . S
H2745 C2764 0.951 . S
H2746 C2766 0.950 . S
H2747 C2767 0.950 . S
H2748 C2769 0.950 . S
H2749 C2772 0.950 . S
H2750 C2773 0.950 1_545 S
H2751 C2775 0.950 1_545 S
H2752 C2776 0.950 . S
H2753 C2777 0.951 . S
H2754 C2779 0.951 . S
H2755 C2781 0.950 . S
H2756 C2782 0.950 . S
H2757 C2784 0.950 . S
H2758 C2787 0.950 . S
H2759 C2788 0.950 . S
H2760 C2790 0.950 . S
H2761 C2791 0.950 . S
C2762 H2744 0.951 . S
C2762 C2763 1.366 . S
C2762 C2764 1.388 . S
C2763 C2762 1.366 . S
C2763 C2767 1.385 . S
C2764 H2745 0.951 . S
C2764 C2762 1.388 . S
C2764 C2765 1.366 . S
C2765 C2764 1.366 . S
C2765 C2766 1.414 . S
C2765 C2768 1.499 . S
C2766 H2746 0.950 . S
C2766 C2765 1.414 . S
C2766 C2767 1.374 . S
C2767 H2747 0.950 . S
C2767 C2763 1.385 . S
C2767 C2766 1.374 . S
C2768 C2765 1.499 . S
C2768 C2769 1.373 . S
C2768 C2770 1.389 . S
C2769 H2748 0.950 . S
C2769 C2768 1.373 . S
C2769 C2785 1.377 . S
C2770 C2768 1.389 . S
C2770 C2771 1.524 . S
C2770 C2784 1.377 . S
C2771 C2770 1.524 . S
C2771 C2772 1.397 . S
C2771 C2776 1.363 . S
C2772 H2749 0.950 . S
C2772 C2771 1.397 . S
C2772 C2773 1.334 . S
C2773 H2750 0.950 1_565 S
C2773 C2772 1.334 . S
C2773 C2774 1.287 1_565 S
C2774 C2773 1.287 1_545 S
C2774 C2775 1.524 1_545 S
C2774 H2793 0.913 . S
C2775 H2751 0.950 1_565 S
C2775 C2774 1.524 1_565 S
C2775 C2776 1.415 . S
C2776 H2752 0.950 . S
C2776 C2771 1.363 . S
C2776 C2775 1.415 . S
C2777 H2753 0.951 . S
C2777 C2778 1.366 . S
C2777 C2779 1.388 . S
C2778 C2777 1.366 . S
C2778 C2782 1.385 . S
C2779 H2754 0.951 . S
C2779 C2777 1.388 . S
C2779 C2780 1.366 . S
C2780 C2779 1.366 . S
C2780 C2781 1.414 . S
C2780 C2783 1.499 . S
C2781 H2755 0.950 . S
C2781 C2780 1.414 . S
C2781 C2782 1.374 . S
C2782 H2756 0.950 . S
C2782 C2778 1.385 . S
C2782 C2781 1.374 . S
C2783 C2780 1.499 . S
C2783 C2784 1.373 . S
C2783 C2785 1.389 . S
C2784 H2757 0.950 . S
C2784 C2770 1.377 . S
C2784 C2783 1.373 . S
C2785 C2769 1.377 . S
C2785 C2783 1.389 . S
C2785 C2786 1.524 . S
C2786 C2785 1.524 . S
C2786 C2787 1.397 . S
C2786 C2791 1.363 . S
C2787 H2758 0.950 . S
C2787 C2786 1.397 . S
C2787 C2788 1.334 . S
C2788 H2759 0.950 . S
C2788 C2787 1.334 . S
C2788 C2789 1.287 . S
C2789 C2788 1.287 . S
C2789 C2790 1.524 . S
C2789 H2792 0.999 . S
C2790 H2760 0.950 . S
C2790 C2789 1.524 . S
C2790 C2791 1.415 . S
C2791 H2761 0.950 . S
C2791 C2786 1.363 . S
C2791 C2790 1.415 . S
H2792 C2789 0.999 . S
H2793 C2774 0.913 . S
H2794 C2812 0.951 . S
H2795 C2814 0.951 . S
H2796 C2816 0.950 . S
H2797 C2817 0.950 . S
H2798 C2819 0.950 . S
H2799 C2822 0.950 . S
H2800 C2823 0.950 . S
H2801 C2825 0.950 . S
H2802 C2826 0.950 . S
H2803 C2827 0.951 . S
H2804 C2829 0.951 . S
H2805 C2831 0.950 . S
H2806 C2832 0.950 . S
H2807 C2834 0.950 . S
H2808 C2837 0.950 . S
H2809 C2838 0.950 . S
H2810 C2840 0.950 . S
H2811 C2841 0.950 . S
C2812 H2794 0.951 . S
C2812 C2813 1.366 . S
C2812 C2814 1.388 . S
C2813 C2812 1.366 . S
C2813 C2817 1.385 . S
C2814 H2795 0.951 . S
C2814 C2812 1.388 . S
C2814 C2815 1.366 . S
C2815 C2814 1.366 . S
C2815 C2816 1.414 . S
C2815 C2818 1.499 . S
C2816 H2796 0.950 . S
C2816 C2815 1.414 . S
C2816 C2817 1.374 . S
C2817 H2797 0.950 . S
C2817 C2813 1.385 . S
C2817 C2816 1.374 . S
C2818 C2815 1.499 . S
C2818 C2819 1.373 . S
C2818 C2820 1.389 . S
C2819 H2798 0.950 . S
C2819 C2818 1.373 . S
C2819 C2835 1.377 . S
C2820 C2818 1.389 . S
C2820 C2821 1.524 . S
C2820 C2834 1.377 . S
C2821 C2820 1.524 . S
C2821 C2822 1.397 . S
C2821 C2826 1.363 . S
C2822 H2799 0.950 . S
C2822 C2821 1.397 . S
C2822 C2823 1.334 . S
C2823 H2800 0.950 . S
C2823 C2822 1.334 . S
C2823 C2824 1.287 . S
C2824 C2823 1.287 . S
C2824 C2825 1.524 . S
C2824 H2843 0.913 . S
C2825 H2801 0.950 . S
C2825 C2824 1.524 . S
C2825 C2826 1.415 . S
C2826 H2802 0.950 . S
C2826 C2821 1.363 . S
C2826 C2825 1.415 . S
C2827 H2803 0.951 . S
C2827 C2828 1.366 . S
C2827 C2829 1.388 . S
C2828 C2827 1.366 . S
C2828 C2832 1.385 . S
C2829 H2804 0.951 . S
C2829 C2827 1.388 . S
C2829 C2830 1.366 . S
C2830 C2829 1.366 . S
C2830 C2831 1.414 . S
C2830 C2833 1.499 . S
C2831 H2805 0.950 . S
C2831 C2830 1.414 . S
C2831 C2832 1.374 . S
C2832 H2806 0.950 . S
C2832 C2828 1.385 . S
C2832 C2831 1.374 . S
C2833 C2830 1.499 . S
C2833 C2834 1.373 . S
C2833 C2835 1.389 . S
C2834 H2807 0.950 . S
C2834 C2820 1.377 . S
C2834 C2833 1.373 . S
C2835 C2819 1.377 . S
C2835 C2833 1.389 . S
C2835 C2836 1.524 . S
C2836 C2835 1.524 . S
C2836 C2837 1.397 . S
C2836 C2841 1.363 . S
C2837 H2808 0.950 . S
C2837 C2836 1.397 . S
C2837 C2838 1.334 . S
C2838 H2809 0.950 . S
C2838 C2837 1.334 . S
C2838 C2839 1.287 . S
C2839 C2838 1.287 . S
C2839 C2840 1.524 . S
C2839 H2842 0.999 . S
C2840 H2810 0.950 . S
C2840 C2839 1.524 . S
C2840 C2841 1.415 . S
C2841 H2811 0.950 . S
C2841 C2836 1.363 . S
C2841 C2840 1.415 . S
H2842 C2839 0.999 . S
H2843 C2824 0.913 . S
H2844 C2862 0.951 . S
H2845 C2864 0.951 . S
H2846 C2866 0.950 . S
H2847 C2867 0.950 . S
H2848 C2869 0.950 . S
H2849 C2872 0.950 . S
H2850 C2873 0.950 . S
H2851 C2875 0.950 . S
H2852 C2876 0.950 . S
H2853 C2877 0.951 . S
H2854 C2879 0.951 . S
H2855 C2881 0.950 . S
H2856 C2882 0.950 . S
H2857 C2884 0.950 . S
H2858 C2887 0.950 . S
H2859 C2888 0.950 . S
H2860 C2890 0.950 . S
H2861 C2891 0.950 . S
C2862 H2844 0.951 . S
C2862 C2863 1.366 . S
C2862 C2864 1.388 . S
C2863 C2862 1.366 . S
C2863 C2867 1.385 . S
C2864 H2845 0.951 . S
C2864 C2862 1.388 . S
C2864 C2865 1.366 . S
C2865 C2864 1.366 . S
C2865 C2866 1.414 . S
C2865 C2868 1.499 . S
C2866 H2846 0.950 . S
C2866 C2865 1.414 . S
C2866 C2867 1.374 . S
C2867 H2847 0.950 . S
C2867 C2863 1.385 . S
C2867 C2866 1.374 . S
C2868 C2865 1.499 . S
C2868 C2869 1.373 . S
C2868 C2870 1.389 . S
C2869 H2848 0.950 . S
C2869 C2868 1.373 . S
C2869 C2885 1.377 . S
C2870 C2868 1.389 . S
C2870 C2871 1.524 . S
C2870 C2884 1.377 . S
C2871 C2870 1.524 . S
C2871 C2872 1.397 . S
C2871 C2876 1.363 . S
C2872 H2849 0.950 . S
C2872 C2871 1.397 . S
C2872 C2873 1.334 . S
C2873 H2850 0.950 . S
C2873 C2872 1.334 . S
C2873 C2874 1.287 . S
C2874 C2873 1.287 . S
C2874 C2875 1.524 . S
C2874 H2893 0.913 . S
C2875 H2851 0.950 . S
C2875 C2874 1.524 . S
C2875 C2876 1.415 . S
C2876 H2852 0.950 . S
C2876 C2871 1.363 . S
C2876 C2875 1.415 . S
C2877 H2853 0.951 . S
C2877 C2878 1.366 . S
C2877 C2879 1.388 . S
C2878 C2877 1.366 . S
C2878 C2882 1.385 . S
C2879 H2854 0.951 . S
C2879 C2877 1.388 . S
C2879 C2880 1.366 . S
C2880 C2879 1.366 . S
C2880 C2881 1.414 . S
C2880 C2883 1.499 . S
C2881 H2855 0.950 . S
C2881 C2880 1.414 . S
C2881 C2882 1.374 . S
C2882 H2856 0.950 . S
C2882 C2878 1.385 . S
C2882 C2881 1.374 . S
C2883 C2880 1.499 . S
C2883 C2884 1.373 . S
C2883 C2885 1.389 . S
C2884 H2857 0.950 . S
C2884 C2870 1.377 . S
C2884 C2883 1.373 . S
C2885 C2869 1.377 . S
C2885 C2883 1.389 . S
C2885 C2886 1.524 . S
C2886 C2885 1.524 . S
C2886 C2887 1.397 . S
C2886 C2891 1.363 . S
C2887 H2858 0.950 . S
C2887 C2886 1.397 . S
C2887 C2888 1.334 . S
C2888 H2859 0.950 . S
C2888 C2887 1.334 . S
C2888 C2889 1.287 . S
C2889 C2888 1.287 . S
C2889 C2890 1.524 . S
C2889 H2892 0.999 . S
C2890 H2860 0.950 . S
C2890 C2889 1.524 . S
C2890 C2891 1.415 . S
C2891 H2861 0.950 . S
C2891 C2886 1.363 . S
C2891 C2890 1.415 . S
H2892 C2889 0.999 . S
H2893 C2874 0.913 . S
H2894 C2912 0.951 . S
H2895 C2914 0.951 . S
H2896 C2916 0.950 . S
H2897 C2917 0.950 . S
H2898 C2919 0.950 . S
H2899 C2922 0.950 . S
H2900 C2923 0.950 . S
H2901 C2925 0.950 . S
H2902 C2926 0.950 . S
H2903 C2927 0.951 . S
H2904 C2929 0.951 . S
H2905 C2931 0.950 . S
H2906 C2932 0.950 . S
H2907 C2934 0.950 . S
H2908 C2937 0.950 . S
H2909 C2938 0.950 . S
H2910 C2940 0.950 . S
H2911 C2941 0.950 . S
C2912 H2894 0.951 . S
C2912 C2913 1.366 . S
C2912 C2914 1.388 . S
C2913 C2912 1.366 . S
C2913 C2917 1.385 . S
C2914 H2895 0.951 . S
C2914 C2912 1.388 . S
C2914 C2915 1.366 . S
C2915 C2914 1.366 . S
C2915 C2916 1.414 . S
C2915 C2918 1.499 . S
C2916 H2896 0.950 . S
C2916 C2915 1.414 . S
C2916 C2917 1.374 . S
C2917 H2897 0.950 . S
C2917 C2913 1.385 . S
C2917 C2916 1.374 . S
C2918 C2915 1.499 . S
C2918 C2919 1.373 . S
C2918 C2920 1.389 . S
C2919 H2898 0.950 . S
C2919 C2918 1.373 . S
C2919 C2935 1.377 . S
C2920 C2918 1.389 . S
C2920 C2921 1.524 . S
C2920 C2934 1.377 . S
C2921 C2920 1.524 . S
C2921 C2922 1.397 . S
C2921 C2926 1.363 . S
C2922 H2899 0.950 . S
C2922 C2921 1.397 . S
C2922 C2923 1.334 . S
C2923 H2900 0.950 . S
C2923 C2922 1.334 . S
C2923 C2924 1.287 . S
C2924 C2923 1.287 . S
C2924 C2925 1.524 . S
C2924 H2943 0.913 . S
C2925 H2901 0.950 . S
C2925 C2924 1.524 . S
C2925 C2926 1.415 . S
C2926 H2902 0.950 . S
C2926 C2921 1.363 . S
C2926 C2925 1.415 . S
C2927 H2903 0.951 . S
C2927 C2928 1.366 . S
C2927 C2929 1.388 . S
C2928 C2927 1.366 . S
C2928 C2932 1.385 . S
C2929 H2904 0.951 . S
C2929 C2927 1.388 . S
C2929 C2930 1.366 . S
C2930 C2929 1.366 . S
C2930 C2931 1.414 . S
C2930 C2933 1.499 . S
C2931 H2905 0.950 . S
C2931 C2930 1.414 . S
C2931 C2932 1.374 . S
C2932 H2906 0.950 . S
C2932 C2928 1.385 . S
C2932 C2931 1.374 . S
C2933 C2930 1.499 . S
C2933 C2934 1.373 . S
C2933 C2935 1.389 . S
C2934 H2907 0.950 . S
C2934 C2920 1.377 . S
C2934 C2933 1.373 . S
C2935 C2919 1.377 . S
C2935 C2933 1.389 . S
C2935 C2936 1.524 . S
C2936 C2935 1.524 . S
C2936 C2937 1.397 . S
C2936 C2941 1.363 . S
C2937 H2908 0.950 . S
C2937 C2936 1.397 . S
C2937 C2938 1.334 . S
C2938 H2909 0.950 . S
C2938 C2937 1.334 . S
C2938 C2939 1.287 . S
C2939 C2938 1.287 . S
C2939 C2940 1.524 . S
C2939 H2942 0.999 . S
C2940 H2910 0.950 . S
C2940 C2939 1.524 . S
C2940 C2941 1.415 . S
C2941 H2911 0.950 . S
C2941 C2936 1.363 . S
C2941 C2940 1.415 . S
H2942 C2939 0.999 . S
H2943 C2924 0.913 . S
H2944 C2962 0.951 . S
H2945 C2964 0.951 . S
H2946 C2966 0.950 . S
H2947 C2967 0.950 . S
H2948 C2969 0.950 . S
H2949 C2972 0.950 . S
H2950 C2973 0.950 . S
H2951 C2975 0.950 . S
H2952 C2976 0.950 . S
H2953 C2977 0.951 . S
H2954 C2979 0.951 . S
H2955 C2981 0.950 . S
H2956 C2982 0.950 . S
H2957 C2984 0.950 . S
H2958 C2987 0.950 . S
H2959 C2988 0.950 1_556 S
H2960 C2990 0.950 . S
H2961 C2991 0.950 . S
C2962 H2944 0.951 . S
C2962 C2963 1.366 . S
C2962 C2964 1.388 . S
C2963 C2962 1.366 . S
C2963 C2967 1.385 . S
C2964 H2945 0.951 . S
C2964 C2962 1.388 . S
C2964 C2965 1.366 . S
C2965 C2964 1.366 . S
C2965 C2966 1.414 . S
C2965 C2968 1.499 . S
C2966 H2946 0.950 . S
C2966 C2965 1.414 . S
C2966 C2967 1.374 . S
C2967 H2947 0.950 . S
C2967 C2963 1.385 . S
C2967 C2966 1.374 . S
C2968 C2965 1.499 . S
C2968 C2969 1.373 . S
C2968 C2970 1.389 . S
C2969 H2948 0.950 . S
C2969 C2968 1.373 . S
C2969 C2985 1.377 . S
C2970 C2968 1.389 . S
C2970 C2971 1.524 . S
C2970 C2984 1.377 . S
C2971 C2970 1.524 . S
C2971 C2972 1.397 . S
C2971 C2976 1.363 . S
C2972 H2949 0.950 . S
C2972 C2971 1.397 . S
C2972 C2973 1.334 . S
C2973 H2950 0.950 . S
C2973 C2972 1.334 . S
C2973 C2974 1.287 . S
C2974 C2973 1.287 . S
C2974 C2975 1.524 . S
C2974 H2993 0.913 . S
C2975 H2951 0.950 . S
C2975 C2974 1.524 . S
C2975 C2976 1.415 . S
C2976 H2952 0.950 . S
C2976 C2971 1.363 . S
C2976 C2975 1.415 . S
C2977 H2953 0.951 . S
C2977 C2978 1.366 . S
C2977 C2979 1.388 . S
C2978 C2977 1.366 . S
C2978 C2982 1.385 . S
C2979 H2954 0.951 . S
C2979 C2977 1.388 . S
C2979 C2980 1.366 . S
C2980 C2979 1.366 . S
C2980 C2981 1.414 . S
C2980 C2983 1.499 . S
C2981 H2955 0.950 . S
C2981 C2980 1.414 . S
C2981 C2982 1.374 . S
C2982 H2956 0.950 . S
C2982 C2978 1.385 . S
C2982 C2981 1.374 . S
C2983 C2980 1.499 . S
C2983 C2984 1.373 . S
C2983 C2985 1.389 . S
C2984 H2957 0.950 . S
C2984 C2970 1.377 . S
C2984 C2983 1.373 . S
C2985 C2969 1.377 . S
C2985 C2983 1.389 . S
C2985 C2986 1.524 . S
C2986 C2985 1.524 . S
C2986 C2987 1.397 . S
C2986 C2991 1.363 . S
C2987 H2958 0.950 . S
C2987 C2986 1.397 . S
C2987 C2988 1.334 . S
C2988 H2959 0.950 1_554 S
C2988 C2987 1.334 . S
C2988 C2989 1.268 1_554 S
C2989 C2988 1.268 1_556 S
C2989 C2990 1.456 1_556 S
C2989 H2992 1.102 . S
C2990 H2960 0.950 . S
C2990 C2989 1.456 1_554 S
C2990 C2991 1.415 . S
C2991 H2961 0.950 . S
C2991 C2986 1.363 . S
C2991 C2990 1.415 . S
H2992 C2989 1.102 . S
H2993 C2974 0.913 . S
H2994 C3012 0.951 . S
H2995 C3014 0.951 . S
H2996 C3016 0.950 . S
H2997 C3017 0.950 . S
H2998 C3019 0.950 . S
H2999 C3022 0.950 . S
H3000 C3023 0.950 . S
H3001 C3025 0.950 . S
H3002 C3026 0.950 . S
H3003 C3027 0.951 . S
H3004 C3029 0.951 . S
H3005 C3031 0.950 . S
H3006 C3032 0.950 . S
H3007 C3034 0.950 . S
H3008 C3037 0.950 . S
H3009 C3038 0.950 . S
H3010 C3040 0.950 . S
H3011 C3041 0.950 . S
C3012 H2994 0.951 . S
C3012 C3013 1.366 . S
C3012 C3014 1.388 . S
C3013 C3012 1.366 . S
C3013 C3017 1.385 . S
C3014 H2995 0.951 . S
C3014 C3012 1.388 . S
C3014 C3015 1.366 . S
C3015 C3014 1.366 . S
C3015 C3016 1.414 . S
C3015 C3018 1.499 . S
C3016 H2996 0.950 . S
C3016 C3015 1.414 . S
C3016 C3017 1.374 . S
C3017 H2997 0.950 . S
C3017 C3013 1.385 . S
C3017 C3016 1.374 . S
C3018 C3015 1.499 . S
C3018 C3019 1.373 . S
C3018 C3020 1.389 . S
C3019 H2998 0.950 . S
C3019 C3018 1.373 . S
C3019 C3035 1.377 . S
C3020 C3018 1.389 . S
C3020 C3021 1.524 . S
C3020 C3034 1.377 . S
C3021 C3020 1.524 . S
C3021 C3022 1.397 . S
C3021 C3026 1.363 . S
C3022 H2999 0.950 . S
C3022 C3021 1.397 . S
C3022 C3023 1.334 . S
C3023 H3000 0.950 . S
C3023 C3022 1.334 . S
C3023 C3024 1.287 . S
C3024 C3023 1.287 . S
C3024 C3025 1.524 . S
C3024 H3043 0.913 . S
C3025 H3001 0.950 . S
C3025 C3024 1.524 . S
C3025 C3026 1.415 . S
C3026 H3002 0.950 . S
C3026 C3021 1.363 . S
C3026 C3025 1.415 . S
C3027 H3003 0.951 . S
C3027 C3028 1.366 . S
C3027 C3029 1.388 . S
C3028 C3027 1.366 . S
C3028 C3032 1.385 . S
C3029 H3004 0.951 . S
C3029 C3027 1.388 . S
C3029 C3030 1.366 . S
C3030 C3029 1.366 . S
C3030 C3031 1.414 . S
C3030 C3033 1.499 . S
C3031 H3005 0.950 . S
C3031 C3030 1.414 . S
C3031 C3032 1.374 . S
C3032 H3006 0.950 . S
C3032 C3028 1.385 . S
C3032 C3031 1.374 . S
C3033 C3030 1.499 . S
C3033 C3034 1.373 . S
C3033 C3035 1.389 . S
C3034 H3007 0.950 . S
C3034 C3020 1.377 . S
C3034 C3033 1.373 . S
C3035 C3019 1.377 . S
C3035 C3033 1.389 . S
C3035 C3036 1.524 . S
C3036 C3035 1.524 . S
C3036 C3037 1.397 . S
C3036 C3041 1.363 . S
C3037 H3008 0.950 . S
C3037 C3036 1.397 . S
C3037 C3038 1.334 . S
C3038 H3009 0.950 . S
C3038 C3037 1.334 . S
C3038 C3039 1.287 . S
C3039 C3038 1.287 . S
C3039 C3040 1.524 . S
C3039 H3042 0.999 . S
C3040 H3010 0.950 . S
C3040 C3039 1.524 . S
C3040 C3041 1.415 . S
C3041 H3011 0.950 . S
C3041 C3036 1.363 . S
C3041 C3040 1.415 . S
H3042 C3039 0.999 . S
H3043 C3024 0.913 . S
H3044 C3062 0.951 . S
H3045 C3064 0.951 . S
H3046 C3066 0.950 . S
H3047 C3067 0.950 . S
H3048 C3069 0.950 . S
H3049 C3072 0.950 . S
H3050 C3073 0.950 . S
H3051 C3075 0.950 . S
H3052 C3076 0.950 . S
H3053 C3077 0.951 . S
H3054 C3079 0.951 . S
H3055 C3081 0.950 . S
H3056 C3082 0.950 . S
H3057 C3084 0.950 . S
H3058 C3087 0.950 . S
H3059 C3088 0.950 . S
H3060 C3090 0.950 . S
H3061 C3091 0.950 . S
C3062 H3044 0.951 . S
C3062 C3063 1.366 . S
C3062 C3064 1.388 . S
C3063 C3062 1.366 . S
C3063 C3067 1.385 . S
C3064 H3045 0.951 . S
C3064 C3062 1.388 . S
C3064 C3065 1.366 . S
C3065 C3064 1.366 . S
C3065 C3066 1.414 . S
C3065 C3068 1.499 . S
C3066 H3046 0.950 . S
C3066 C3065 1.414 . S
C3066 C3067 1.374 . S
C3067 H3047 0.950 . S
C3067 C3063 1.385 . S
C3067 C3066 1.374 . S
C3068 C3065 1.499 . S
C3068 C3069 1.373 . S
C3068 C3070 1.389 . S
C3069 H3048 0.950 . S
C3069 C3068 1.373 . S
C3069 C3085 1.377 . S
C3070 C3068 1.389 . S
C3070 C3071 1.524 . S
C3070 C3084 1.377 . S
C3071 C3070 1.524 . S
C3071 C3072 1.397 . S
C3071 C3076 1.363 . S
C3072 H3049 0.950 . S
C3072 C3071 1.397 . S
C3072 C3073 1.334 . S
C3073 H3050 0.950 . S
C3073 C3072 1.334 . S
C3073 C3074 1.287 . S
C3074 C3073 1.287 . S
C3074 C3075 1.524 . S
C3074 H3093 0.913 . S
C3075 H3051 0.950 . S
C3075 C3074 1.524 . S
C3075 C3076 1.415 . S
C3076 H3052 0.950 . S
C3076 C3071 1.363 . S
C3076 C3075 1.415 . S
C3077 H3053 0.951 . S
C3077 C3078 1.366 . S
C3077 C3079 1.388 . S
C3078 C3077 1.366 . S
C3078 C3082 1.385 . S
C3079 H3054 0.951 . S
C3079 C3077 1.388 . S
C3079 C3080 1.366 . S
C3080 C3079 1.366 . S
C3080 C3081 1.414 . S
C3080 C3083 1.499 . S
C3081 H3055 0.950 . S
C3081 C3080 1.414 . S
C3081 C3082 1.374 . S
C3082 H3056 0.950 . S
C3082 C3078 1.385 . S
C3082 C3081 1.374 . S
C3083 C3080 1.499 . S
C3083 C3084 1.373 . S
C3083 C3085 1.389 . S
C3084 H3057 0.950 . S
C3084 C3070 1.377 . S
C3084 C3083 1.373 . S
C3085 C3069 1.377 . S
C3085 C3083 1.389 . S
C3085 C3086 1.524 . S
C3086 C3085 1.524 . S
C3086 C3087 1.397 . S
C3086 C3091 1.363 . S
C3087 H3058 0.950 . S
C3087 C3086 1.397 . S
C3087 C3088 1.334 . S
C3088 H3059 0.950 . S
C3088 C3087 1.334 . S
C3088 C3089 1.287 . S
C3089 C3088 1.287 . S
C3089 C3090 1.524 . S
C3089 H3092 0.999 . S
C3090 H3060 0.950 . S
C3090 C3089 1.524 . S
C3090 C3091 1.415 . S
C3091 H3061 0.950 . S
C3091 C3086 1.363 . S
C3091 C3090 1.415 . S
H3092 C3089 0.999 . S
H3093 C3074 0.913 . S
H3094 C3112 0.951 . S
H3095 C3114 0.951 . S
H3096 C3116 0.950 . S
H3097 C3117 0.950 . S
H3098 C3119 0.950 . S
H3099 C3122 0.950 . S
H3100 C3123 0.950 . S
H3101 C3125 0.950 . S
H3102 C3126 0.950 . S
H3103 C3127 0.951 . S
H3104 C3129 0.951 . S
H3105 C3131 0.950 . S
H3106 C3132 0.950 . S
H3107 C3134 0.950 . S
H3108 C3137 0.950 . S
H3109 C3138 0.950 . S
H3110 C3140 0.950 . S
H3111 C3141 0.950 . S
C3112 H3094 0.951 . S
C3112 C3113 1.366 . S
C3112 C3114 1.388 . S
C3113 C3112 1.366 . S
C3113 C3117 1.385 . S
C3114 H3095 0.951 . S
C3114 C3112 1.388 . S
C3114 C3115 1.366 . S
C3115 C3114 1.366 . S
C3115 C3116 1.414 . S
C3115 C3118 1.499 . S
C3116 H3096 0.950 . S
C3116 C3115 1.414 . S
C3116 C3117 1.374 . S
C3117 H3097 0.950 . S
C3117 C3113 1.385 . S
C3117 C3116 1.374 . S
C3118 C3115 1.499 . S
C3118 C3119 1.373 . S
C3118 C3120 1.389 . S
C3119 H3098 0.950 . S
C3119 C3118 1.373 . S
C3119 C3135 1.377 . S
C3120 C3118 1.389 . S
C3120 C3121 1.524 . S
C3120 C3134 1.377 . S
C3121 C3120 1.524 . S
C3121 C3122 1.397 . S
C3121 C3126 1.363 . S
C3122 H3099 0.950 . S
C3122 C3121 1.397 . S
C3122 C3123 1.334 . S
C3123 H3100 0.950 . S
C3123 C3122 1.334 . S
C3123 C3124 1.287 . S
C3124 C3123 1.287 . S
C3124 C3125 1.524 . S
C3124 H3143 0.913 . S
C3125 H3101 0.950 . S
C3125 C3124 1.524 . S
C3125 C3126 1.415 . S
C3126 H3102 0.950 . S
C3126 C3121 1.363 . S
C3126 C3125 1.415 . S
C3127 H3103 0.951 . S
C3127 C3128 1.366 . S
C3127 C3129 1.388 . S
C3128 C3127 1.366 . S
C3128 C3132 1.385 . S
C3129 H3104 0.951 . S
C3129 C3127 1.388 . S
C3129 C3130 1.366 . S
C3130 C3129 1.366 . S
C3130 C3131 1.414 . S
C3130 C3133 1.499 . S
C3131 H3105 0.950 . S
C3131 C3130 1.414 . S
C3131 C3132 1.374 . S
C3132 H3106 0.950 . S
C3132 C3128 1.385 . S
C3132 C3131 1.374 . S
C3133 C3130 1.499 . S
C3133 C3134 1.373 . S
C3133 C3135 1.389 . S
C3134 H3107 0.950 . S
C3134 C3120 1.377 . S
C3134 C3133 1.373 . S
C3135 C3119 1.377 . S
C3135 C3133 1.389 . S
C3135 C3136 1.524 . S
C3136 C3135 1.524 . S
C3136 C3137 1.397 . S
C3136 C3141 1.363 . S
C3137 H3108 0.950 . S
C3137 C3136 1.397 . S
C3137 C3138 1.334 . S
C3138 H3109 0.950 . S
C3138 C3137 1.334 . S
C3138 C3139 1.287 . S
C3139 C3138 1.287 . S
C3139 C3140 1.524 . S
C3139 H3142 0.999 . S
C3140 H3110 0.950 . S
C3140 C3139 1.524 . S
C3140 C3141 1.415 . S
C3141 H3111 0.950 . S
C3141 C3136 1.363 . S
C3141 C3140 1.415 . S
H3142 C3139 0.999 . S
H3143 C3124 0.913 . S
H3144 C3162 0.951 . S
H3145 C3164 0.951 . S
H3146 C3166 0.950 . S
H3147 C3167 0.950 . S
H3148 C3169 0.950 . S
H3149 C3172 0.950 . S
H3150 C3173 0.950 . S
H3151 C3175 0.950 . S
H3152 C3176 0.950 . S
H3153 C3177 0.951 . S
H3154 C3179 0.951 . S
H3155 C3181 0.950 . S
H3156 C3182 0.950 . S
H3157 C3184 0.950 . S
H3158 C3187 0.950 . S
H3159 C3188 0.950 . S
H3160 C3190 0.950 . S
H3161 C3191 0.950 . S
C3162 H3144 0.951 . S
C3162 C3163 1.366 . S
C3162 C3164 1.388 . S
C3163 C3162 1.366 . S
C3163 C3167 1.385 . S
C3164 H3145 0.951 . S
C3164 C3162 1.388 . S
C3164 C3165 1.366 . S
C3165 C3164 1.366 . S
C3165 C3166 1.414 . S
C3165 C3168 1.499 . S
C3166 H3146 0.950 . S
C3166 C3165 1.414 . S
C3166 C3167 1.374 . S
C3167 H3147 0.950 . S
C3167 C3163 1.385 . S
C3167 C3166 1.374 . S
C3168 C3165 1.499 . S
C3168 C3169 1.373 . S
C3168 C3170 1.389 . S
C3169 H3148 0.950 . S
C3169 C3168 1.373 . S
C3169 C3185 1.377 . S
C3170 C3168 1.389 . S
C3170 C3171 1.524 . S
C3170 C3184 1.377 . S
C3171 C3170 1.524 . S
C3171 C3172 1.397 . S
C3171 C3176 1.363 . S
C3172 H3149 0.950 . S
C3172 C3171 1.397 . S
C3172 C3173 1.334 . S
C3173 H3150 0.950 . S
C3173 C3172 1.334 . S
C3173 C3174 1.287 . S
C3174 C3173 1.287 . S
C3174 C3175 1.524 . S
C3174 H3193 0.913 . S
C3175 H3151 0.950 . S
C3175 C3174 1.524 . S
C3175 C3176 1.415 . S
C3176 H3152 0.950 . S
C3176 C3171 1.363 . S
C3176 C3175 1.415 . S
C3177 H3153 0.951 . S
C3177 C3178 1.366 . S
C3177 C3179 1.388 . S
C3178 C3177 1.366 . S
C3178 C3182 1.385 . S
C3179 H3154 0.951 . S
C3179 C3177 1.388 . S
C3179 C3180 1.366 . S
C3180 C3179 1.366 . S
C3180 C3181 1.414 . S
C3180 C3183 1.499 . S
C3181 H3155 0.950 . S
C3181 C3180 1.414 . S
C3181 C3182 1.374 . S
C3182 H3156 0.950 . S
C3182 C3178 1.385 . S
C3182 C3181 1.374 . S
C3183 C3180 1.499 . S
C3183 C3184 1.373 . S
C3183 C3185 1.389 . S
C3184 H3157 0.950 . S
C3184 C3170 1.377 . S
C3184 C3183 1.373 . S
C3185 C3169 1.377 . S
C3185 C3183 1.389 . S
C3185 C3186 1.524 . S
C3186 C3185 1.524 . S
C3186 C3187 1.397 . S
C3186 C3191 1.363 . S
C3187 H3158 0.950 . S
C3187 C3186 1.397 . S
C3187 C3188 1.334 . S
C3188 H3159 0.950 . S
C3188 C3187 1.334 . S
C3188 C3189 1.287 . S
C3189 C3188 1.287 . S
C3189 C3190 1.524 . S
C3189 H3192 0.999 . S
C3190 H3160 0.950 . S
C3190 C3189 1.524 . S
C3190 C3191 1.415 . S
C3191 H3161 0.950 . S
C3191 C3186 1.363 . S
C3191 C3190 1.415 . S
H3192 C3189 0.999 . S
H3193 C3174 0.913 . S
H3194 C3212 0.951 . S
H3195 C3214 0.951 . S
H3196 C3216 0.950 . S
H3197 C3217 0.950 . S
H3198 C3219 0.950 . S
H3199 C3222 0.950 . S
H3200 C3223 0.950 . S
H3201 C3225 0.950 . S
H3202 C3226 0.950 . S
H3203 C3227 0.951 . S
H3204 C3229 0.951 . S
H3205 C3231 0.950 . S
H3206 C3232 0.950 . S
H3207 C3234 0.950 . S
H3208 C3237 0.950 . S
H3209 C3238 0.950 . S
H3210 C3240 0.950 . S
H3211 C3241 0.950 . S
C3212 H3194 0.951 . S
C3212 C3213 1.366 . S
C3212 C3214 1.388 . S
C3213 C3212 1.366 . S
C3213 C3217 1.385 . S
C3214 H3195 0.951 . S
C3214 C3212 1.388 . S
C3214 C3215 1.366 . S
C3215 C3214 1.366 . S
C3215 C3216 1.414 . S
C3215 C3218 1.499 . S
C3216 H3196 0.950 . S
C3216 C3215 1.414 . S
C3216 C3217 1.374 . S
C3217 H3197 0.950 . S
C3217 C3213 1.385 . S
C3217 C3216 1.374 . S
C3218 C3215 1.499 . S
C3218 C3219 1.373 . S
C3218 C3220 1.389 . S
C3219 H3198 0.950 . S
C3219 C3218 1.373 . S
C3219 C3235 1.377 . S
C3220 C3218 1.389 . S
C3220 C3221 1.524 . S
C3220 C3234 1.377 . S
C3221 C3220 1.524 . S
C3221 C3222 1.397 . S
C3221 C3226 1.363 . S
C3222 H3199 0.950 . S
C3222 C3221 1.397 . S
C3222 C3223 1.334 . S
C3223 H3200 0.950 . S
C3223 C3222 1.334 . S
C3223 C3224 1.287 . S
C3224 C3223 1.287 . S
C3224 C3225 1.524 . S
C3224 H3243 0.913 . S
C3225 H3201 0.950 . S
C3225 C3224 1.524 . S
C3225 C3226 1.415 . S
C3226 H3202 0.950 . S
C3226 C3221 1.363 . S
C3226 C3225 1.415 . S
C3227 H3203 0.951 . S
C3227 C3228 1.366 . S
C3227 C3229 1.388 . S
C3228 C3227 1.366 . S
C3228 C3232 1.385 . S
C3229 H3204 0.951 . S
C3229 C3227 1.388 . S
C3229 C3230 1.366 . S
C3230 C3229 1.366 . S
C3230 C3231 1.414 . S
C3230 C3233 1.499 . S
C3231 H3205 0.950 . S
C3231 C3230 1.414 . S
C3231 C3232 1.374 . S
C3232 H3206 0.950 . S
C3232 C3228 1.385 . S
C3232 C3231 1.374 . S
C3233 C3230 1.499 . S
C3233 C3234 1.373 . S
C3233 C3235 1.389 . S
C3234 H3207 0.950 . S
C3234 C3220 1.377 . S
C3234 C3233 1.373 . S
C3235 C3219 1.377 . S
C3235 C3233 1.389 . S
C3235 C3236 1.524 . S
C3236 C3235 1.524 . S
C3236 C3237 1.397 . S
C3236 C3241 1.363 . S
C3237 H3208 0.950 . S
C3237 C3236 1.397 . S
C3237 C3238 1.334 . S
C3238 H3209 0.950 . S
C3238 C3237 1.334 . S
C3238 C3239 1.287 . S
C3239 C3238 1.287 . S
C3239 C3240 1.524 . S
C3239 H3242 0.999 . S
C3240 H3210 0.950 . S
C3240 C3239 1.524 . S
C3240 C3241 1.415 . S
C3241 H3211 0.950 . S
C3241 C3236 1.363 . S
C3241 C3240 1.415 . S
H3242 C3239 0.999 . S
H3243 C3224 0.913 . S
H3244 C3262 0.951 . S
H3245 C3264 0.951 . S
H3246 C3266 0.950 . S
H3247 C3267 0.950 . S
H3248 C3269 0.950 . S
H3249 C3272 0.950 . S
H3250 C3273 0.950 . S
H3251 C3275 0.950 . S
H3252 C3276 0.950 . S
H3253 C3277 0.951 . S
H3254 C3279 0.951 . S
H3255 C3281 0.950 . S
H3256 C3282 0.950 . S
H3257 C3284 0.950 . S
H3258 C3287 0.950 . S
H3259 C3288 0.950 . S
H3260 C3290 0.950 . S
H3261 C3291 0.950 . S
C3262 H3244 0.951 . S
C3262 C3263 1.366 . S
C3262 C3264 1.388 . S
C3263 C3262 1.366 . S
C3263 C3267 1.385 . S
C3264 H3245 0.951 . S
C3264 C3262 1.388 . S
C3264 C3265 1.366 . S
C3265 C3264 1.366 . S
C3265 C3266 1.414 . S
C3265 C3268 1.499 . S
C3266 H3246 0.950 . S
C3266 C3265 1.414 . S
C3266 C3267 1.374 . S
C3267 H3247 0.950 . S
C3267 C3263 1.385 . S
C3267 C3266 1.374 . S
C3268 C3265 1.499 . S
C3268 C3269 1.373 . S
C3268 C3270 1.389 . S
C3269 H3248 0.950 . S
C3269 C3268 1.373 . S
C3269 C3285 1.377 . S
C3270 C3268 1.389 . S
C3270 C3271 1.524 . S
C3270 C3284 1.377 . S
C3271 C3270 1.524 . S
C3271 C3272 1.397 . S
C3271 C3276 1.363 . S
C3272 H3249 0.950 . S
C3272 C3271 1.397 . S
C3272 C3273 1.334 . S
C3273 H3250 0.950 . S
C3273 C3272 1.334 . S
C3273 C3274 1.287 . S
C3274 C3273 1.287 . S
C3274 C3275 1.524 . S
C3274 H3293 0.913 . S
C3275 H3251 0.950 . S
C3275 C3274 1.524 . S
C3275 C3276 1.415 . S
C3276 H3252 0.950 . S
C3276 C3271 1.363 . S
C3276 C3275 1.415 . S
C3277 H3253 0.951 . S
C3277 C3278 1.366 . S
C3277 C3279 1.388 . S
C3278 C3277 1.366 . S
C3278 C3282 1.385 . S
C3279 H3254 0.951 . S
C3279 C3277 1.388 . S
C3279 C3280 1.366 . S
C3280 C3279 1.366 . S
C3280 C3281 1.414 . S
C3280 C3283 1.499 . S
C3281 H3255 0.950 . S
C3281 C3280 1.414 . S
C3281 C3282 1.374 . S
C3282 H3256 0.950 . S
C3282 C3278 1.385 . S
C3282 C3281 1.374 . S
C3283 C3280 1.499 . S
C3283 C3284 1.373 . S
C3283 C3285 1.389 . S
C3284 H3257 0.950 . S
C3284 C3270 1.377 . S
C3284 C3283 1.373 . S
C3285 C3269 1.377 . S
C3285 C3283 1.389 . S
C3285 C3286 1.524 . S
C3286 C3285 1.524 . S
C3286 C3287 1.397 . S
C3286 C3291 1.363 . S
C3287 H3258 0.950 . S
C3287 C3286 1.397 . S
C3287 C3288 1.334 . S
C3288 H3259 0.950 . S
C3288 C3287 1.334 . S
C3288 C3289 1.287 . S
C3289 C3288 1.287 . S
C3289 C3290 1.524 . S
C3289 H3292 0.999 . S
C3290 H3260 0.950 . S
C3290 C3289 1.524 . S
C3290 C3291 1.415 . S
C3291 H3261 0.950 . S
C3291 C3286 1.363 . S
C3291 C3290 1.415 . S
H3292 C3289 0.999 . S
H3293 C3274 0.913 . S
H3294 C3312 0.951 . S
H3295 C3314 0.951 . S
H3296 C3316 0.950 . S
H3297 C3317 0.950 . S
H3298 C3319 0.950 . S
H3299 C3322 0.950 . S
H3300 C3323 0.950 . S
H3301 C3325 0.950 . S
H3302 C3326 0.950 . S
H3303 C3327 0.951 . S
H3304 C3329 0.951 . S
H3305 C3331 0.950 . S
H3306 C3332 0.950 . S
H3307 C3334 0.950 . S
H3308 C3337 0.950 . S
H3309 C3338 0.950 . S
H3310 C3340 0.950 . S
H3311 C3341 0.950 . S
C3312 H3294 0.951 . S
C3312 C3313 1.366 . S
C3312 C3314 1.388 . S
C3313 C3312 1.366 . S
C3313 C3317 1.385 . S
C3314 H3295 0.951 . S
C3314 C3312 1.388 . S
C3314 C3315 1.366 . S
C3315 C3314 1.366 . S
C3315 C3316 1.414 . S
C3315 C3318 1.499 . S
C3316 H3296 0.950 . S
C3316 C3315 1.414 . S
C3316 C3317 1.374 . S
C3317 H3297 0.950 . S
C3317 C3313 1.385 . S
C3317 C3316 1.374 . S
C3318 C3315 1.499 . S
C3318 C3319 1.373 . S
C3318 C3320 1.389 . S
C3319 H3298 0.950 . S
C3319 C3318 1.373 . S
C3319 C3335 1.377 . S
C3320 C3318 1.389 . S
C3320 C3321 1.524 . S
C3320 C3334 1.377 . S
C3321 C3320 1.524 . S
C3321 C3322 1.397 . S
C3321 C3326 1.363 . S
C3322 H3299 0.950 . S
C3322 C3321 1.397 . S
C3322 C3323 1.334 . S
C3323 H3300 0.950 . S
C3323 C3322 1.334 . S
C3323 C3324 1.287 . S
C3324 C3323 1.287 . S
C3324 C3325 1.524 . S
C3324 H3343 0.913 . S
C3325 H3301 0.950 . S
C3325 C3324 1.524 . S
C3325 C3326 1.415 . S
C3326 H3302 0.950 . S
C3326 C3321 1.363 . S
C3326 C3325 1.415 . S
C3327 H3303 0.951 . S
C3327 C3328 1.366 . S
C3327 C3329 1.388 . S
C3328 C3327 1.366 . S
C3328 C3332 1.385 . S
C3329 H3304 0.951 . S
C3329 C3327 1.388 . S
C3329 C3330 1.366 . S
C3330 C3329 1.366 . S
C3330 C3331 1.414 . S
C3330 C3333 1.499 . S
C3331 H3305 0.950 . S
C3331 C3330 1.414 . S
C3331 C3332 1.374 . S
C3332 H3306 0.950 . S
C3332 C3328 1.385 . S
C3332 C3331 1.374 . S
C3333 C3330 1.499 . S
C3333 C3334 1.373 . S
C3333 C3335 1.389 . S
C3334 H3307 0.950 . S
C3334 C3320 1.377 . S
C3334 C3333 1.373 . S
C3335 C3319 1.377 . S
C3335 C3333 1.389 . S
C3335 C3336 1.524 . S
C3336 C3335 1.524 . S
C3336 C3337 1.397 . S
C3336 C3341 1.363 . S
C3337 H3308 0.950 . S
C3337 C3336 1.397 . S
C3337 C3338 1.334 . S
C3338 H3309 0.950 . S
C3338 C3337 1.334 . S
C3338 C3339 1.287 . S
C3339 C3338 1.287 . S
C3339 C3340 1.524 . S
C3339 H3342 0.999 . S
C3340 H3310 0.950 . S
C3340 C3339 1.524 . S
C3340 C3341 1.415 . S
C3341 H3311 0.950 . S
C3341 C3336 1.363 . S
C3341 C3340 1.415 . S
H3342 C3339 0.999 . S
H3343 C3324 0.913 . S
H3344 C3362 0.951 . S
H3345 C3364 0.951 . S
H3346 C3366 0.950 . S
H3347 C3367 0.950 . S
H3348 C3369 0.950 . S
H3349 C3372 0.950 . S
H3350 C3373 0.950 . S
H3351 C3375 0.950 . S
H3352 C3376 0.950 . S
H3353 C3377 0.951 . S
H3354 C3379 0.951 . S
H3355 C3381 0.950 . S
H3356 C3382 0.950 . S
H3357 C3384 0.950 . S
H3358 C3387 0.950 . S
H3359 C3388 0.950 . S
H3360 C3390 0.950 . S
H3361 C3391 0.950 . S
C3362 H3344 0.951 . S
C3362 C3363 1.366 . S
C3362 C3364 1.388 . S
C3363 C3362 1.366 . S
C3363 C3367 1.385 . S
C3364 H3345 0.951 . S
C3364 C3362 1.388 . S
C3364 C3365 1.366 . S
C3365 C3364 1.366 . S
C3365 C3366 1.414 . S
C3365 C3368 1.499 . S
C3366 H3346 0.950 . S
C3366 C3365 1.414 . S
C3366 C3367 1.374 . S
C3367 H3347 0.950 . S
C3367 C3363 1.385 . S
C3367 C3366 1.374 . S
C3368 C3365 1.499 . S
C3368 C3369 1.373 . S
C3368 C3370 1.389 . S
C3369 H3348 0.950 . S
C3369 C3368 1.373 . S
C3369 C3385 1.377 . S
C3370 C3368 1.389 . S
C3370 C3371 1.524 . S
C3370 C3384 1.377 . S
C3371 C3370 1.524 . S
C3371 C3372 1.397 . S
C3371 C3376 1.363 . S
C3372 H3349 0.950 . S
C3372 C3371 1.397 . S
C3372 C3373 1.334 . S
C3373 H3350 0.950 . S
C3373 C3372 1.334 . S
C3373 C3374 1.287 . S
C3374 C3373 1.287 . S
C3374 C3375 1.524 . S
C3374 H3393 0.913 . S
C3375 H3351 0.950 . S
C3375 C3374 1.524 . S
C3375 C3376 1.415 . S
C3376 H3352 0.950 . S
C3376 C3371 1.363 . S
C3376 C3375 1.415 . S
C3377 H3353 0.951 . S
C3377 C3378 1.366 . S
C3377 C3379 1.388 . S
C3378 C3377 1.366 . S
C3378 C3382 1.385 . S
C3379 H3354 0.951 . S
C3379 C3377 1.388 . S
C3379 C3380 1.366 . S
C3380 C3379 1.366 . S
C3380 C3381 1.414 . S
C3380 C3383 1.499 . S
C3381 H3355 0.950 . S
C3381 C3380 1.414 . S
C3381 C3382 1.374 . S
C3382 H3356 0.950 . S
C3382 C3378 1.385 . S
C3382 C3381 1.374 . S
C3383 C3380 1.499 . S
C3383 C3384 1.373 . S
C3383 C3385 1.389 . S
C3384 H3357 0.950 . S
C3384 C3370 1.377 . S
C3384 C3383 1.373 . S
C3385 C3369 1.377 . S
C3385 C3383 1.389 . S
C3385 C3386 1.524 . S
C3386 C3385 1.524 . S
C3386 C3387 1.397 . S
C3386 C3391 1.363 . S
C3387 H3358 0.950 . S
C3387 C3386 1.397 . S
C3387 C3388 1.334 . S
C3388 H3359 0.950 . S
C3388 C3387 1.334 . S
C3388 C3389 1.287 . S
C3389 C3388 1.287 . S
C3389 C3390 1.524 . S
C3389 H3392 0.999 . S
C3390 H3360 0.950 . S
C3390 C3389 1.524 . S
C3390 C3391 1.415 . S
C3391 H3361 0.950 . S
C3391 C3386 1.363 . S
C3391 C3390 1.415 . S
H3392 C3389 0.999 . S
H3393 C3374 0.913 . S
H3394 C3412 0.951 . S
H3395 C3414 0.951 . S
H3396 C3416 0.950 . S
H3397 C3417 0.950 . S
H3398 C3419 0.950 . S
H3399 C3422 0.950 . S
H3400 C3423 0.950 1_655 S
H3401 C3425 0.950 . S
H3402 C3426 0.950 . S
H3403 C3427 0.951 . S
H3404 C3429 0.951 . S
H3405 C3431 0.950 . S
H3406 C3432 0.950 . S
H3407 C3434 0.950 . S
H3408 C3437 0.950 . S
H3409 C3438 0.950 . S
H3410 C3440 0.950 . S
H3411 C3441 0.950 . S
C3412 H3394 0.951 . S
C3412 C3413 1.366 . S
C3412 C3414 1.388 . S
C3413 C3412 1.366 . S
C3413 C3417 1.385 . S
C3414 H3395 0.951 . S
C3414 C3412 1.388 . S
C3414 C3415 1.366 . S
C3415 C3414 1.366 . S
C3415 C3416 1.414 . S
C3415 C3418 1.499 . S
C3416 H3396 0.950 . S
C3416 C3415 1.414 . S
C3416 C3417 1.374 . S
C3417 H3397 0.950 . S
C3417 C3413 1.385 . S
C3417 C3416 1.374 . S
C3418 C3415 1.499 . S
C3418 C3419 1.373 . S
C3418 C3420 1.389 . S
C3419 H3398 0.950 . S
C3419 C3418 1.373 . S
C3419 C3435 1.377 . S
C3420 C3418 1.389 . S
C3420 C3421 1.524 . S
C3420 C3434 1.377 . S
C3421 C3420 1.524 . S
C3421 C3422 1.397 . S
C3421 C3426 1.363 . S
C3422 H3399 0.950 . S
C3422 C3421 1.397 . S
C3422 C3423 1.334 . S
C3423 H3400 0.950 1_455 S
C3423 C3422 1.334 . S
C3423 C3424 1.287 . S
C3424 C3423 1.287 . S
C3424 C3425 1.524 . S
C3424 H3443 0.913 1_455 S
C3425 H3401 0.950 . S
C3425 C3424 1.524 . S
C3425 C3426 1.415 . S
C3426 H3402 0.950 . S
C3426 C3421 1.363 . S
C3426 C3425 1.415 . S
C3427 H3403 0.951 . S
C3427 C3428 1.366 . S
C3427 C3429 1.388 . S
C3428 C3427 1.366 . S
C3428 C3432 1.385 . S
C3429 H3404 0.951 . S
C3429 C3427 1.388 . S
C3429 C3430 1.366 . S
C3430 C3429 1.366 . S
C3430 C3431 1.414 . S
C3430 C3433 1.499 . S
C3431 H3405 0.950 . S
C3431 C3430 1.414 . S
C3431 C3432 1.374 . S
C3432 H3406 0.950 . S
C3432 C3428 1.385 . S
C3432 C3431 1.374 . S
C3433 C3430 1.499 . S
C3433 C3434 1.373 . S
C3433 C3435 1.389 . S
C3434 H3407 0.950 . S
C3434 C3420 1.377 . S
C3434 C3433 1.373 . S
C3435 C3419 1.377 . S
C3435 C3433 1.389 . S
C3435 C3436 1.524 . S
C3436 C3435 1.524 . S
C3436 C3437 1.397 . S
C3436 C3441 1.363 . S
C3437 H3408 0.950 . S
C3437 C3436 1.397 . S
C3437 C3438 1.334 . S
C3438 H3409 0.950 . S
C3438 C3437 1.334 . S
C3438 C3439 1.287 . S
C3439 C3438 1.287 . S
C3439 C3440 1.524 . S
C3439 H3442 0.999 . S
C3440 H3410 0.950 . S
C3440 C3439 1.524 . S
C3440 C3441 1.415 . S
C3441 H3411 0.950 . S
C3441 C3436 1.363 . S
C3441 C3440 1.415 . S
H3442 C3439 0.999 . S
H3443 C3424 0.913 1_655 S
H3444 C3462 0.951 . S
H3445 C3464 0.951 . S
H3446 C3466 0.950 . S
H3447 C3467 0.950 . S
H3448 C3469 0.950 . S
H3449 C3472 0.950 . S
H3450 C3473 0.950 . S
H3451 C3475 0.950 . S
H3452 C3476 0.950 . S
H3453 C3477 0.951 . S
H3454 C3479 0.951 . S
H3455 C3481 0.950 . S
H3456 C3482 0.950 . S
H3457 C3484 0.950 . S
H3458 C3487 0.950 . S
H3459 C3488 0.950 . S
H3460 C3490 0.950 . S
H3461 C3491 0.950 . S
C3462 H3444 0.951 . S
C3462 C3463 1.366 . S
C3462 C3464 1.388 . S
C3463 C3462 1.366 . S
C3463 C3467 1.385 . S
C3464 H3445 0.951 . S
C3464 C3462 1.388 . S
C3464 C3465 1.366 . S
C3465 C3464 1.366 . S
C3465 C3466 1.414 . S
C3465 C3468 1.499 . S
C3466 H3446 0.950 . S
C3466 C3465 1.414 . S
C3466 C3467 1.374 . S
C3467 H3447 0.950 . S
C3467 C3463 1.385 . S
C3467 C3466 1.374 . S
C3468 C3465 1.499 . S
C3468 C3469 1.373 . S
C3468 C3470 1.389 . S
C3469 H3448 0.950 . S
C3469 C3468 1.373 . S
C3469 C3485 1.377 . S
C3470 C3468 1.389 . S
C3470 C3471 1.524 . S
C3470 C3484 1.377 . S
C3471 C3470 1.524 . S
C3471 C3472 1.397 . S
C3471 C3476 1.363 . S
C3472 H3449 0.950 . S
C3472 C3471 1.397 . S
C3472 C3473 1.334 . S
C3473 H3450 0.950 . S
C3473 C3472 1.334 . S
C3473 C3474 1.287 . S
C3474 C3473 1.287 . S
C3474 C3475 1.524 . S
C3474 H3493 0.913 . S
C3475 H3451 0.950 . S
C3475 C3474 1.524 . S
C3475 C3476 1.415 . S
C3476 H3452 0.950 . S
C3476 C3471 1.363 . S
C3476 C3475 1.415 . S
C3477 H3453 0.951 . S
C3477 C3478 1.366 . S
C3477 C3479 1.388 . S
C3478 C3477 1.366 . S
C3478 C3482 1.385 . S
C3479 H3454 0.951 . S
C3479 C3477 1.388 . S
C3479 C3480 1.366 . S
C3480 C3479 1.366 . S
C3480 C3481 1.414 . S
C3480 C3483 1.499 . S
C3481 H3455 0.950 . S
C3481 C3480 1.414 . S
C3481 C3482 1.374 . S
C3482 H3456 0.950 . S
C3482 C3478 1.385 . S
C3482 C3481 1.374 . S
C3483 C3480 1.499 . S
C3483 C3484 1.373 . S
C3483 C3485 1.389 . S
C3484 H3457 0.950 . S
C3484 C3470 1.377 . S
C3484 C3483 1.373 . S
C3485 C3469 1.377 . S
C3485 C3483 1.389 . S
C3485 C3486 1.524 . S
C3486 C3485 1.524 . S
C3486 C3487 1.397 . S
C3486 C3491 1.363 . S
C3487 H3458 0.950 . S
C3487 C3486 1.397 . S
C3487 C3488 1.334 . S
C3488 H3459 0.950 . S
C3488 C3487 1.334 . S
C3488 C3489 1.287 . S
C3489 C3488 1.287 . S
C3489 C3490 1.524 . S
C3489 H3492 0.999 . S
C3490 H3460 0.950 . S
C3490 C3489 1.524 . S
C3490 C3491 1.415 . S
C3491 H3461 0.950 . S
C3491 C3486 1.363 . S
C3491 C3490 1.415 . S
H3492 C3489 0.999 . S
H3493 C3474 0.913 . S
H3494 C3512 0.951 . S
H3495 C3514 0.951 . S
H3496 C3516 0.950 . S
H3497 C3517 0.950 . S
H3498 C3519 0.950 . S
H3499 C3522 0.950 . S
H3500 C3523 0.950 . S
H3501 C3525 0.950 . S
H3502 C3526 0.950 . S
H3503 C3527 0.951 . S
H3504 C3529 0.951 . S
H3505 C3531 0.950 . S
H3506 C3532 0.950 . S
H3507 C3534 0.950 . S
H3508 C3537 0.950 . S
H3509 C3538 0.950 . S
H3510 C3540 0.950 1_455 S
H3511 C3541 0.950 . S
C3512 H3494 0.951 . S
C3512 C3513 1.366 . S
C3512 C3514 1.388 . S
C3513 C3512 1.366 . S
C3513 C3517 1.385 . S
C3514 H3495 0.951 . S
C3514 C3512 1.388 . S
C3514 C3515 1.366 . S
C3515 C3514 1.366 . S
C3515 C3516 1.414 . S
C3515 C3518 1.499 . S
C3516 H3496 0.950 . S
C3516 C3515 1.414 . S
C3516 C3517 1.374 . S
C3517 H3497 0.950 . S
C3517 C3513 1.385 . S
C3517 C3516 1.374 . S
C3518 C3515 1.499 . S
C3518 C3519 1.373 . S
C3518 C3520 1.389 . S
C3519 H3498 0.950 . S
C3519 C3518 1.373 . S
C3519 C3535 1.377 . S
C3520 C3518 1.389 . S
C3520 C3521 1.524 . S
C3520 C3534 1.377 . S
C3521 C3520 1.524 . S
C3521 C3522 1.397 . S
C3521 C3526 1.363 . S
C3522 H3499 0.950 . S
C3522 C3521 1.397 . S
C3522 C3523 1.334 . S
C3523 H3500 0.950 . S
C3523 C3522 1.334 . S
C3523 C3524 1.287 . S
C3524 C3523 1.287 . S
C3524 C3525 1.524 . S
C3524 H3543 0.913 . S
C3525 H3501 0.950 . S
C3525 C3524 1.524 . S
C3525 C3526 1.415 . S
C3526 H3502 0.950 . S
C3526 C3521 1.363 . S
C3526 C3525 1.415 . S
C3527 H3503 0.951 . S
C3527 C3528 1.366 . S
C3527 C3529 1.388 . S
C3528 C3527 1.366 . S
C3528 C3532 1.385 . S
C3529 H3504 0.951 . S
C3529 C3527 1.388 . S
C3529 C3530 1.366 . S
C3530 C3529 1.366 . S
C3530 C3531 1.414 . S
C3530 C3533 1.499 . S
C3531 H3505 0.950 . S
C3531 C3530 1.414 . S
C3531 C3532 1.374 . S
C3532 H3506 0.950 . S
C3532 C3528 1.385 . S
C3532 C3531 1.374 . S
C3533 C3530 1.499 . S
C3533 C3534 1.373 . S
C3533 C3535 1.389 . S
C3534 H3507 0.950 . S
C3534 C3520 1.377 . S
C3534 C3533 1.373 . S
C3535 C3519 1.377 . S
C3535 C3533 1.389 . S
C3535 C3536 1.524 . S
C3536 C3535 1.524 . S
C3536 C3537 1.397 . S
C3536 C3541 1.363 . S
C3537 H3508 0.950 . S
C3537 C3536 1.397 . S
C3537 C3538 1.334 . S
C3538 H3509 0.950 . S
C3538 C3537 1.334 . S
C3538 C3539 1.287 . S
C3539 C3538 1.287 . S
C3539 C3540 1.524 . S
C3539 H3542 0.999 1_655 S
C3540 H3510 0.950 1_655 S
C3540 C3539 1.524 . S
C3540 C3541 1.415 . S
C3541 H3511 0.950 . S
C3541 C3536 1.363 . S
C3541 C3540 1.415 . S
H3542 C3539 0.999 1_455 S
H3543 C3524 0.913 . S
H3544 C3562 0.951 . S
H3545 C3564 0.951 . S
H3546 C3566 0.950 . S
H3547 C3567 0.950 . S
H3548 C3569 0.950 . S
H3549 C3572 0.950 . S
H3550 C3573 0.950 . S
H3551 C3575 0.950 . S
H3552 C3576 0.950 . S
H3553 C3577 0.951 . S
H3554 C3579 0.951 . S
H3555 C3581 0.950 . S
H3556 C3582 0.950 . S
H3557 C3584 0.950 . S
H3558 C3587 0.950 . S
H3559 C3588 0.950 . S
H3560 C3590 0.950 . S
H3561 C3591 0.950 . S
C3562 H3544 0.951 . S
C3562 C3563 1.366 . S
C3562 C3564 1.388 . S
C3563 C3562 1.366 . S
C3563 C3567 1.385 . S
C3564 H3545 0.951 . S
C3564 C3562 1.388 . S
C3564 C3565 1.366 . S
C3565 C3564 1.366 . S
C3565 C3566 1.414 . S
C3565 C3568 1.499 . S
C3566 H3546 0.950 . S
C3566 C3565 1.414 . S
C3566 C3567 1.374 . S
C3567 H3547 0.950 . S
C3567 C3563 1.385 . S
C3567 C3566 1.374 . S
C3568 C3565 1.499 . S
C3568 C3569 1.373 . S
C3568 C3570 1.389 . S
C3569 H3548 0.950 . S
C3569 C3568 1.373 . S
C3569 C3585 1.377 . S
C3570 C3568 1.389 . S
C3570 C3571 1.524 . S
C3570 C3584 1.377 . S
C3571 C3570 1.524 . S
C3571 C3572 1.397 . S
C3571 C3576 1.363 . S
C3572 H3549 0.950 . S
C3572 C3571 1.397 . S
C3572 C3573 1.334 . S
C3573 H3550 0.950 . S
C3573 C3572 1.334 . S
C3573 C3574 1.287 . S
C3574 C3573 1.287 . S
C3574 C3575 1.524 . S
C3574 H3593 0.913 . S
C3575 H3551 0.950 . S
C3575 C3574 1.524 . S
C3575 C3576 1.415 . S
C3576 H3552 0.950 . S
C3576 C3571 1.363 . S
C3576 C3575 1.415 . S
C3577 H3553 0.951 . S
C3577 C3578 1.366 . S
C3577 C3579 1.388 . S
C3578 C3577 1.366 . S
C3578 C3582 1.385 . S
C3579 H3554 0.951 . S
C3579 C3577 1.388 . S
C3579 C3580 1.366 . S
C3580 C3579 1.366 . S
C3580 C3581 1.414 . S
C3580 C3583 1.499 . S
C3581 H3555 0.950 . S
C3581 C3580 1.414 . S
C3581 C3582 1.374 . S
C3582 H3556 0.950 . S
C3582 C3578 1.385 . S
C3582 C3581 1.374 . S
C3583 C3580 1.499 . S
C3583 C3584 1.373 . S
C3583 C3585 1.389 . S
C3584 H3557 0.950 . S
C3584 C3570 1.377 . S
C3584 C3583 1.373 . S
C3585 C3569 1.377 . S
C3585 C3583 1.389 . S
C3585 C3586 1.524 . S
C3586 C3585 1.524 . S
C3586 C3587 1.397 . S
C3586 C3591 1.363 . S
C3587 H3558 0.950 . S
C3587 C3586 1.397 . S
C3587 C3588 1.334 . S
C3588 H3559 0.950 . S
C3588 C3587 1.334 . S
C3588 C3589 1.287 . S
C3589 C3588 1.287 . S
C3589 C3590 1.524 . S
C3589 H3592 0.999 . S
C3590 H3560 0.950 . S
C3590 C3589 1.524 . S
C3590 C3591 1.415 . S
C3591 H3561 0.950 . S
C3591 C3586 1.363 . S
C3591 C3590 1.415 . S
H3592 C3589 0.999 . S
H3593 C3574 0.913 . S
H3594 C3612 0.951 . S
H3595 C3614 0.951 . S
H3596 C3616 0.950 . S
H3597 C3617 0.950 . S
H3598 C3619 0.950 . S
H3599 C3622 0.950 . S
H3600 C3623 0.950 . S
H3601 C3625 0.950 . S
H3602 C3626 0.950 . S
H3603 C3627 0.951 . S
H3604 C3629 0.951 . S
H3605 C3631 0.950 . S
H3606 C3632 0.950 . S
H3607 C3634 0.950 . S
H3608 C3637 0.950 . S
H3609 C3638 0.950 . S
H3610 C3640 0.950 . S
H3611 C3641 0.950 . S
C3612 H3594 0.951 . S
C3612 C3613 1.366 . S
C3612 C3614 1.388 . S
C3613 C3612 1.366 . S
C3613 C3617 1.385 . S
C3614 H3595 0.951 . S
C3614 C3612 1.388 . S
C3614 C3615 1.366 . S
C3615 C3614 1.366 . S
C3615 C3616 1.414 . S
C3615 C3618 1.499 . S
C3616 H3596 0.950 . S
C3616 C3615 1.414 . S
C3616 C3617 1.374 . S
C3617 H3597 0.950 . S
C3617 C3613 1.385 . S
C3617 C3616 1.374 . S
C3618 C3615 1.499 . S
C3618 C3619 1.373 . S
C3618 C3620 1.389 . S
C3619 H3598 0.950 . S
C3619 C3618 1.373 . S
C3619 C3635 1.377 . S
C3620 C3618 1.389 . S
C3620 C3621 1.524 . S
C3620 C3634 1.377 . S
C3621 C3620 1.524 . S
C3621 C3622 1.397 . S
C3621 C3626 1.363 . S
C3622 H3599 0.950 . S
C3622 C3621 1.397 . S
C3622 C3623 1.334 . S
C3623 H3600 0.950 . S
C3623 C3622 1.334 . S
C3623 C3624 1.287 . S
C3624 C3623 1.287 . S
C3624 C3625 1.524 . S
C3624 H3643 0.913 . S
C3625 H3601 0.950 . S
C3625 C3624 1.524 . S
C3625 C3626 1.415 . S
C3626 H3602 0.950 . S
C3626 C3621 1.363 . S
C3626 C3625 1.415 . S
C3627 H3603 0.951 . S
C3627 C3628 1.366 . S
C3627 C3629 1.388 . S
C3628 C3627 1.366 . S
C3628 C3632 1.385 . S
C3629 H3604 0.951 . S
C3629 C3627 1.388 . S
C3629 C3630 1.366 . S
C3630 C3629 1.366 . S
C3630 C3631 1.414 . S
C3630 C3633 1.499 . S
C3631 H3605 0.950 . S
C3631 C3630 1.414 . S
C3631 C3632 1.374 . S
C3632 H3606 0.950 . S
C3632 C3628 1.385 . S
C3632 C3631 1.374 . S
C3633 C3630 1.499 . S
C3633 C3634 1.373 . S
C3633 C3635 1.389 . S
C3634 H3607 0.950 . S
C3634 C3620 1.377 . S
C3634 C3633 1.373 . S
C3635 C3619 1.377 . S
C3635 C3633 1.389 . S
C3635 C3636 1.524 . S
C3636 C3635 1.524 . S
C3636 C3637 1.397 . S
C3636 C3641 1.363 . S
C3637 H3608 0.950 . S
C3637 C3636 1.397 . S
C3637 C3638 1.334 . S
C3638 H3609 0.950 . S
C3638 C3637 1.334 . S
C3638 C3639 1.287 . S
C3639 C3638 1.287 . S
C3639 C3640 1.524 . S
C3639 H3642 0.999 . S
C3640 H3610 0.950 . S
C3640 C3639 1.524 . S
C3640 C3641 1.415 . S
C3641 H3611 0.950 . S
C3641 C3636 1.363 . S
C3641 C3640 1.415 . S
H3642 C3639 0.999 . S
H3643 C3624 0.913 . S
H3644 C3662 0.951 . S
H3645 C3664 0.951 . S
H3646 C3666 0.950 . S
H3647 C3667 0.950 . S
H3648 C3669 0.950 . S
H3649 C3672 0.950 . S
H3650 C3673 0.950 . S
H3651 C3675 0.950 . S
H3652 C3676 0.950 . S
H3653 C3677 0.951 . S
H3654 C3679 0.951 . S
H3655 C3681 0.950 . S
H3656 C3682 0.950 . S
H3657 C3684 0.950 . S
H3658 C3687 0.950 . S
H3659 C3688 0.950 . S
H3660 C3690 0.950 . S
H3661 C3691 0.950 . S
C3662 H3644 0.951 . S
C3662 C3663 1.366 . S
C3662 C3664 1.388 . S
C3663 C3662 1.366 . S
C3663 C3667 1.385 . S
C3664 H3645 0.951 . S
C3664 C3662 1.388 . S
C3664 C3665 1.366 . S
C3665 C3664 1.366 . S
C3665 C3666 1.414 . S
C3665 C3668 1.499 . S
C3666 H3646 0.950 . S
C3666 C3665 1.414 . S
C3666 C3667 1.374 . S
C3667 H3647 0.950 . S
C3667 C3663 1.385 . S
C3667 C3666 1.374 . S
C3668 C3665 1.499 . S
C3668 C3669 1.373 . S
C3668 C3670 1.389 . S
C3669 H3648 0.950 . S
C3669 C3668 1.373 . S
C3669 C3685 1.377 . S
C3670 C3668 1.389 . S
C3670 C3671 1.524 . S
C3670 C3684 1.377 . S
C3671 C3670 1.524 . S
C3671 C3672 1.397 . S
C3671 C3676 1.363 . S
C3672 H3649 0.950 . S
C3672 C3671 1.397 . S
C3672 C3673 1.334 . S
C3673 H3650 0.950 . S
C3673 C3672 1.334 . S
C3673 C3674 1.287 . S
C3674 C3673 1.287 . S
C3674 C3675 1.524 . S
C3674 H3693 0.913 . S
C3675 H3651 0.950 . S
C3675 C3674 1.524 . S
C3675 C3676 1.415 . S
C3676 H3652 0.950 . S
C3676 C3671 1.363 . S
C3676 C3675 1.415 . S
C3677 H3653 0.951 . S
C3677 C3678 1.366 . S
C3677 C3679 1.388 . S
C3678 C3677 1.366 . S
C3678 C3682 1.385 . S
C3679 H3654 0.951 . S
C3679 C3677 1.388 . S
C3679 C3680 1.366 . S
C3680 C3679 1.366 . S
C3680 C3681 1.414 . S
C3680 C3683 1.499 . S
C3681 H3655 0.950 . S
C3681 C3680 1.414 . S
C3681 C3682 1.374 . S
C3682 H3656 0.950 . S
C3682 C3678 1.385 . S
C3682 C3681 1.374 . S
C3683 C3680 1.499 . S
C3683 C3684 1.373 . S
C3683 C3685 1.389 . S
C3684 H3657 0.950 . S
C3684 C3670 1.377 . S
C3684 C3683 1.373 . S
C3685 C3669 1.377 . S
C3685 C3683 1.389 . S
C3685 C3686 1.524 . S
C3686 C3685 1.524 . S
C3686 C3687 1.397 . S
C3686 C3691 1.363 . S
C3687 H3658 0.950 . S
C3687 C3686 1.397 . S
C3687 C3688 1.334 . S
C3688 H3659 0.950 . S
C3688 C3687 1.334 . S
C3688 C3689 1.287 . S
C3689 C3688 1.287 . S
C3689 C3690 1.524 . S
C3689 H3692 0.999 . S
C3690 H3660 0.950 . S
C3690 C3689 1.524 . S
C3690 C3691 1.415 . S
C3691 H3661 0.950 . S
C3691 C3686 1.363 . S
C3691 C3690 1.415 . S
H3692 C3689 0.999 . S
H3693 C3674 0.913 . S
H3694 C3712 0.951 . S
H3695 C3714 0.951 . S
H3696 C3716 0.950 . S
H3697 C3717 0.950 . S
H3698 C3719 0.950 . S
H3699 C3722 0.950 . S
H3700 C3723 0.950 . S
H3701 C3725 0.950 . S
H3702 C3726 0.950 . S
H3703 C3727 0.951 . S
H3704 C3729 0.951 . S
H3705 C3731 0.950 . S
H3706 C3732 0.950 . S
H3707 C3734 0.950 . S
H3708 C3737 0.950 . S
H3709 C3738 0.950 . S
H3710 C3740 0.950 . S
H3711 C3741 0.950 . S
C3712 H3694 0.951 . S
C3712 C3713 1.366 . S
C3712 C3714 1.388 . S
C3713 C3712 1.366 . S
C3713 C3717 1.385 . S
C3714 H3695 0.951 . S
C3714 C3712 1.388 . S
C3714 C3715 1.366 . S
C3715 C3714 1.366 . S
C3715 C3716 1.414 . S
C3715 C3718 1.499 . S
C3716 H3696 0.950 . S
C3716 C3715 1.414 . S
C3716 C3717 1.374 . S
C3717 H3697 0.950 . S
C3717 C3713 1.385 . S
C3717 C3716 1.374 . S
C3718 C3715 1.499 . S
C3718 C3719 1.373 . S
C3718 C3720 1.389 . S
C3719 H3698 0.950 . S
C3719 C3718 1.373 . S
C3719 C3735 1.377 . S
C3720 C3718 1.389 . S
C3720 C3721 1.524 . S
C3720 C3734 1.377 . S
C3721 C3720 1.524 . S
C3721 C3722 1.397 . S
C3721 C3726 1.363 . S
C3722 H3699 0.950 . S
C3722 C3721 1.397 . S
C3722 C3723 1.334 . S
C3723 H3700 0.950 . S
C3723 C3722 1.334 . S
C3723 C3724 1.287 . S
C3724 C3723 1.287 . S
C3724 C3725 1.524 . S
C3724 H3743 0.913 . S
C3725 H3701 0.950 . S
C3725 C3724 1.524 . S
C3725 C3726 1.415 . S
C3726 H3702 0.950 . S
C3726 C3721 1.363 . S
C3726 C3725 1.415 . S
C3727 H3703 0.951 . S
C3727 C3728 1.366 . S
C3727 C3729 1.388 . S
C3728 C3727 1.366 . S
C3728 C3732 1.385 . S
C3729 H3704 0.951 . S
C3729 C3727 1.388 . S
C3729 C3730 1.366 . S
C3730 C3729 1.366 . S
C3730 C3731 1.414 . S
C3730 C3733 1.499 . S
C3731 H3705 0.950 . S
C3731 C3730 1.414 . S
C3731 C3732 1.374 . S
C3732 H3706 0.950 . S
C3732 C3728 1.385 . S
C3732 C3731 1.374 . S
C3733 C3730 1.499 . S
C3733 C3734 1.373 . S
C3733 C3735 1.389 . S
C3734 H3707 0.950 . S
C3734 C3720 1.377 . S
C3734 C3733 1.373 . S
C3735 C3719 1.377 . S
C3735 C3733 1.389 . S
C3735 C3736 1.524 . S
C3736 C3735 1.524 . S
C3736 C3737 1.397 . S
C3736 C3741 1.363 . S
C3737 H3708 0.950 . S
C3737 C3736 1.397 . S
C3737 C3738 1.334 . S
C3738 H3709 0.950 . S
C3738 C3737 1.334 . S
C3738 C3739 1.287 . S
C3739 C3738 1.287 . S
C3739 C3740 1.524 . S
C3739 H3742 0.999 . S
C3740 H3710 0.950 . S
C3740 C3739 1.524 . S
C3740 C3741 1.415 . S
C3741 H3711 0.950 . S
C3741 C3736 1.363 . S
C3741 C3740 1.415 . S
H3742 C3739 0.999 . S
H3743 C3724 0.913 . S
H3744 C3762 0.951 . S
H3745 C3764 0.951 . S
H3746 C3766 0.950 . S
H3747 C3767 0.950 . S
H3748 C3769 0.950 . S
H3749 C3772 0.950 . S
H3750 C3773 0.950 . S
H3751 C3775 0.950 . S
H3752 C3776 0.950 . S
H3753 C3777 0.951 . S
H3754 C3779 0.951 . S
H3755 C3781 0.950 . S
H3756 C3782 0.950 . S
H3757 C3784 0.950 . S
H3758 C3787 0.950 . S
H3759 C3788 0.950 . S
H3760 C3790 0.950 . S
H3761 C3791 0.950 . S
C3762 H3744 0.951 . S
C3762 C3763 1.366 . S
C3762 C3764 1.388 . S
C3763 C3762 1.366 . S
C3763 C3767 1.385 . S
C3764 H3745 0.951 . S
C3764 C3762 1.388 . S
C3764 C3765 1.366 . S
C3765 C3764 1.366 . S
C3765 C3766 1.414 . S
C3765 C3768 1.499 . S
C3766 H3746 0.950 . S
C3766 C3765 1.414 . S
C3766 C3767 1.374 . S
C3767 H3747 0.950 . S
C3767 C3763 1.385 . S
C3767 C3766 1.374 . S
C3768 C3765 1.499 . S
C3768 C3769 1.373 . S
C3768 C3770 1.389 . S
C3769 H3748 0.950 . S
C3769 C3768 1.373 . S
C3769 C3785 1.377 . S
C3770 C3768 1.389 . S
C3770 C3771 1.524 . S
C3770 C3784 1.377 . S
C3771 C3770 1.524 . S
C3771 C3772 1.397 . S
C3771 C3776 1.363 . S
C3772 H3749 0.950 . S
C3772 C3771 1.397 . S
C3772 C3773 1.334 . S
C3773 H3750 0.950 . S
C3773 C3772 1.334 . S
C3773 C3774 1.287 . S
C3774 C3773 1.287 . S
C3774 C3775 1.524 . S
C3774 H3793 0.913 . S
C3775 H3751 0.950 . S
C3775 C3774 1.524 . S
C3775 C3776 1.415 . S
C3776 H3752 0.950 . S
C3776 C3771 1.363 . S
C3776 C3775 1.415 . S
C3777 H3753 0.951 . S
C3777 C3778 1.366 . S
C3777 C3779 1.388 . S
C3778 C3777 1.366 . S
C3778 C3782 1.385 . S
C3779 H3754 0.951 . S
C3779 C3777 1.388 . S
C3779 C3780 1.366 . S
C3780 C3779 1.366 . S
C3780 C3781 1.414 . S
C3780 C3783 1.499 . S
C3781 H3755 0.950 . S
C3781 C3780 1.414 . S
C3781 C3782 1.374 . S
C3782 H3756 0.950 . S
C3782 C3778 1.385 . S
C3782 C3781 1.374 . S
C3783 C3780 1.499 . S
C3783 C3784 1.373 . S
C3783 C3785 1.389 . S
C3784 H3757 0.950 . S
C3784 C3770 1.377 . S
C3784 C3783 1.373 . S
C3785 C3769 1.377 . S
C3785 C3783 1.389 . S
C3785 C3786 1.524 . S
C3786 C3785 1.524 . S
C3786 C3787 1.397 . S
C3786 C3791 1.363 . S
C3787 H3758 0.950 . S
C3787 C3786 1.397 . S
C3787 C3788 1.334 . S
C3788 H3759 0.950 . S
C3788 C3787 1.334 . S
C3788 C3789 1.287 . S
C3789 C3788 1.287 . S
C3789 C3790 1.524 . S
C3789 H3792 0.999 . S
C3790 H3760 0.950 . S
C3790 C3789 1.524 . S
C3790 C3791 1.415 . S
C3791 H3761 0.950 . S
C3791 C3786 1.363 . S
C3791 C3790 1.415 . S
H3792 C3789 0.999 . S
H3793 C3774 0.913 . S
H3794 C3812 0.951 . S
H3795 C3814 0.951 . S
H3796 C3816 0.950 . S
H3797 C3817 0.950 . S
H3798 C3819 0.950 . S
H3799 C3822 0.950 . S
H3800 C3823 0.950 . S
H3801 C3825 0.950 . S
H3802 C3826 0.950 . S
H3803 C3827 0.951 . S
H3804 C3829 0.951 . S
H3805 C3831 0.950 . S
H3806 C3832 0.950 . S
H3807 C3834 0.950 . S
H3808 C3837 0.950 . S
H3809 C3838 0.950 . S
H3810 C3840 0.950 . S
H3811 C3841 0.950 . S
C3812 H3794 0.951 . S
C3812 C3813 1.366 . S
C3812 C3814 1.388 . S
C3813 C3812 1.366 . S
C3813 C3817 1.385 . S
C3814 H3795 0.951 . S
C3814 C3812 1.388 . S
C3814 C3815 1.366 . S
C3815 C3814 1.366 . S
C3815 C3816 1.414 . S
C3815 C3818 1.499 . S
C3816 H3796 0.950 . S
C3816 C3815 1.414 . S
C3816 C3817 1.374 . S
C3817 H3797 0.950 . S
C3817 C3813 1.385 . S
C3817 C3816 1.374 . S
C3818 C3815 1.499 . S
C3818 C3819 1.373 . S
C3818 C3820 1.389 . S
C3819 H3798 0.950 . S
C3819 C3818 1.373 . S
C3819 C3835 1.377 . S
C3820 C3818 1.389 . S
C3820 C3821 1.524 . S
C3820 C3834 1.377 . S
C3821 C3820 1.524 . S
C3821 C3822 1.397 . S
C3821 C3826 1.363 . S
C3822 H3799 0.950 . S
C3822 C3821 1.397 . S
C3822 C3823 1.334 . S
C3823 H3800 0.950 . S
C3823 C3822 1.334 . S
C3823 C3824 1.287 . S
C3824 C3823 1.287 . S
C3824 C3825 1.524 . S
C3824 H3843 0.913 . S
C3825 H3801 0.950 . S
C3825 C3824 1.524 . S
C3825 C3826 1.415 . S
C3826 H3802 0.950 . S
C3826 C3821 1.363 . S
C3826 C3825 1.415 . S
C3827 H3803 0.951 . S
C3827 C3828 1.366 . S
C3827 C3829 1.388 . S
C3828 C3827 1.366 . S
C3828 C3832 1.385 . S
C3829 H3804 0.951 . S
C3829 C3827 1.388 . S
C3829 C3830 1.366 . S
C3830 C3829 1.366 . S
C3830 C3831 1.414 . S
C3830 C3833 1.499 . S
C3831 H3805 0.950 . S
C3831 C3830 1.414 . S
C3831 C3832 1.374 . S
C3832 H3806 0.950 . S
C3832 C3828 1.385 . S
C3832 C3831 1.374 . S
C3833 C3830 1.499 . S
C3833 C3834 1.373 . S
C3833 C3835 1.389 . S
C3834 H3807 0.950 . S
C3834 C3820 1.377 . S
C3834 C3833 1.373 . S
C3835 C3819 1.377 . S
C3835 C3833 1.389 . S
C3835 C3836 1.524 . S
C3836 C3835 1.524 . S
C3836 C3837 1.397 . S
C3836 C3841 1.363 . S
C3837 H3808 0.950 . S
C3837 C3836 1.397 . S
C3837 C3838 1.334 . S
C3838 H3809 0.950 . S
C3838 C3837 1.334 . S
C3838 C3839 1.287 . S
C3839 C3838 1.287 . S
C3839 C3840 1.524 . S
C3839 H3842 0.999 . S
C3840 H3810 0.950 . S
C3840 C3839 1.524 . S
C3840 C3841 1.415 . S
C3841 H3811 0.950 . S
C3841 C3836 1.363 . S
C3841 C3840 1.415 . S
H3842 C3839 0.999 . S
H3843 C3824 0.913 . S
H3844 C3862 0.951 . S
H3845 C3864 0.951 . S
H3846 C3866 0.950 . S
H3847 C3867 0.950 . S
H3848 C3869 0.950 . S
H3849 C3872 0.950 . S
H3850 C3873 0.950 . S
H3851 C3875 0.950 . S
H3852 C3876 0.950 . S
H3853 C3877 0.951 . S
H3854 C3879 0.951 . S
H3855 C3881 0.950 . S
H3856 C3882 0.950 . S
H3857 C3884 0.950 . S
H3858 C3887 0.950 . S
H3859 C3888 0.927 1_545 S
H3860 C3890 0.905 1_545 S
H3861 C3891 0.950 . S
C3862 H3844 0.951 . S
C3862 C3863 1.366 . S
C3862 C3864 1.388 . S
C3863 C3862 1.366 . S
C3863 C3867 1.385 . S
C3864 H3845 0.951 . S
C3864 C3862 1.388 . S
C3864 C3865 1.366 . S
C3865 C3864 1.366 . S
C3865 C3866 1.414 . S
C3865 C3868 1.499 . S
C3866 H3846 0.950 . S
C3866 C3865 1.414 . S
C3866 C3867 1.374 . S
C3867 H3847 0.950 . S
C3867 C3863 1.385 . S
C3867 C3866 1.374 . S
C3868 C3865 1.499 . S
C3868 C3869 1.373 . S
C3868 C3870 1.389 . S
C3869 H3848 0.950 . S
C3869 C3868 1.373 . S
C3869 C3885 1.377 . S
C3870 C3868 1.389 . S
C3870 C3871 1.524 . S
C3870 C3884 1.377 . S
C3871 C3870 1.524 . S
C3871 C3872 1.397 . S
C3871 C3876 1.363 . S
C3872 H3849 0.950 . S
C3872 C3871 1.397 . S
C3872 C3873 1.334 . S
C3873 H3850 0.950 . S
C3873 C3872 1.334 . S
C3873 C3874 1.287 . S
C3874 C3873 1.287 . S
C3874 C3875 1.524 . S
C3874 H3893 0.913 . S
C3875 H3851 0.950 . S
C3875 C3874 1.524 . S
C3875 C3876 1.415 . S
C3876 H3852 0.950 . S
C3876 C3871 1.363 . S
C3876 C3875 1.415 . S
C3877 H3853 0.951 . S
C3877 C3878 1.366 . S
C3877 C3879 1.388 . S
C3878 C3877 1.366 . S
C3878 C3882 1.385 . S
C3879 H3854 0.951 . S
C3879 C3877 1.388 . S
C3879 C3880 1.366 . S
C3880 C3879 1.366 . S
C3880 C3881 1.414 . S
C3880 C3883 1.499 . S
C3881 H3855 0.950 . S
C3881 C3880 1.414 . S
C3881 C3882 1.374 . S
C3882 H3856 0.950 . S
C3882 C3878 1.385 . S
C3882 C3881 1.374 . S
C3883 C3880 1.499 . S
C3883 C3884 1.373 . S
C3883 C3885 1.389 . S
C3884 H3857 0.950 . S
C3884 C3870 1.377 . S
C3884 C3883 1.373 . S
C3885 C3869 1.377 . S
C3885 C3883 1.389 . S
C3885 C3886 1.524 . S
C3886 C3885 1.524 . S
C3886 C3887 1.397 . S
C3886 C3891 1.363 . S
C3887 H3858 0.950 . S
C3887 C3886 1.397 . S
C3887 C3888 1.334 . S
C3888 H3859 0.927 1_565 S
C3888 C3887 1.334 . S
C3888 C3889 1.287 1_565 S
C3889 C3888 1.287 1_545 S
C3889 C3890 1.502 1_545 S
C3889 H3892 0.999 . S
C3890 H3860 0.905 1_565 S
C3890 C3889 1.502 1_565 S
C3890 C3891 1.492 . S
C3891 H3861 0.950 . S
C3891 C3886 1.363 . S
C3891 C3890 1.492 . S
H3892 C3889 0.999 . S
H3893 C3874 0.913 . S
H3894 C3912 0.951 . S
H3895 C3914 0.951 . S
H3896 C3916 0.950 . S
H3897 C3917 0.950 . S
H3898 C3919 0.950 . S
H3899 C3922 0.950 . S
H3900 C3923 0.950 . S
H3901 C3925 0.950 . S
H3902 C3926 0.950 . S
H3903 C3927 0.951 . S
H3904 C3929 0.951 . S
H3905 C3931 0.950 . S
H3906 C3932 0.950 . S
H3907 C3934 0.950 . S
H3908 C3937 0.950 . S
H3909 C3938 0.950 . S
H3910 C3940 0.950 . S
H3911 C3941 0.950 . S
C3912 H3894 0.951 . S
C3912 C3913 1.366 . S
C3912 C3914 1.388 . S
C3913 C3912 1.366 . S
C3913 C3917 1.385 . S
C3914 H3895 0.951 . S
C3914 C3912 1.388 . S
C3914 C3915 1.366 . S
C3915 C3914 1.366 . S
C3915 C3916 1.414 . S
C3915 C3918 1.499 . S
C3916 H3896 0.950 . S
C3916 C3915 1.414 . S
C3916 C3917 1.374 . S
C3917 H3897 0.950 . S
C3917 C3913 1.385 . S
C3917 C3916 1.374 . S
C3918 C3915 1.499 . S
C3918 C3919 1.373 . S
C3918 C3920 1.389 . S
C3919 H3898 0.950 . S
C3919 C3918 1.373 . S
C3919 C3935 1.377 . S
C3920 C3918 1.389 . S
C3920 C3921 1.524 . S
C3920 C3934 1.377 . S
C3921 C3920 1.524 . S
C3921 C3922 1.397 . S
C3921 C3926 1.363 . S
C3922 H3899 0.950 . S
C3922 C3921 1.397 . S
C3922 C3923 1.334 . S
C3923 H3900 0.950 . S
C3923 C3922 1.334 . S
C3923 C3924 1.287 . S
C3924 C3923 1.287 . S
C3924 C3925 1.524 . S
C3924 H3943 0.913 . S
C3925 H3901 0.950 . S
C3925 C3924 1.524 . S
C3925 C3926 1.415 . S
C3926 H3902 0.950 . S
C3926 C3921 1.363 . S
C3926 C3925 1.415 . S
C3927 H3903 0.951 . S
C3927 C3928 1.366 . S
C3927 C3929 1.388 . S
C3928 C3927 1.366 . S
C3928 C3932 1.385 . S
C3929 H3904 0.951 . S
C3929 C3927 1.388 . S
C3929 C3930 1.366 . S
C3930 C3929 1.366 . S
C3930 C3931 1.414 . S
C3930 C3933 1.499 . S
C3931 H3905 0.950 . S
C3931 C3930 1.414 . S
C3931 C3932 1.374 . S
C3932 H3906 0.950 . S
C3932 C3928 1.385 . S
C3932 C3931 1.374 . S
C3933 C3930 1.499 . S
C3933 C3934 1.373 . S
C3933 C3935 1.389 . S
C3934 H3907 0.950 . S
C3934 C3920 1.377 . S
C3934 C3933 1.373 . S
C3935 C3919 1.377 . S
C3935 C3933 1.389 . S
C3935 C3936 1.524 . S
C3936 C3935 1.524 . S
C3936 C3937 1.397 . S
C3936 C3941 1.363 . S
C3937 H3908 0.950 . S
C3937 C3936 1.397 . S
C3937 C3938 1.334 . S
C3938 H3909 0.950 . S
C3938 C3937 1.334 . S
C3938 C3939 1.287 . S
C3939 C3938 1.287 . S
C3939 C3940 1.524 . S
C3939 H3942 0.999 . S
C3940 H3910 0.950 . S
C3940 C3939 1.524 . S
C3940 C3941 1.415 . S
C3941 H3911 0.950 . S
C3941 C3936 1.363 . S
C3941 C3940 1.415 . S
H3942 C3939 0.999 . S
H3943 C3924 0.913 . S
H3944 C3962 0.951 . S
H3945 C3964 0.951 . S
H3946 C3966 0.950 . S
H3947 C3967 0.950 . S
H3948 C3969 0.950 . S
H3949 C3972 0.950 . S
H3950 C3973 0.950 . S
H3951 C3975 0.950 . S
H3952 C3976 0.950 . S
H3953 C3977 0.951 . S
H3954 C3979 0.951 . S
H3955 C3981 0.950 . S
H3956 C3982 0.950 . S
H3957 C3984 0.950 . S
H3958 C3987 0.950 . S
H3959 C3988 0.950 . S
H3960 C3990 0.950 . S
H3961 C3991 0.950 . S
C3962 H3944 0.951 . S
C3962 C3963 1.366 . S
C3962 C3964 1.388 . S
C3963 C3962 1.366 . S
C3963 C3967 1.385 . S
C3964 H3945 0.951 . S
C3964 C3962 1.388 . S
C3964 C3965 1.366 . S
C3965 C3964 1.366 . S
C3965 C3966 1.414 . S
C3965 C3968 1.499 . S
C3966 H3946 0.950 . S
C3966 C3965 1.414 . S
C3966 C3967 1.374 . S
C3967 H3947 0.950 . S
C3967 C3963 1.385 . S
C3967 C3966 1.374 . S
C3968 C3965 1.499 . S
C3968 C3969 1.373 . S
C3968 C3970 1.389 . S
C3969 H3948 0.950 . S
C3969 C3968 1.373 . S
C3969 C3985 1.377 . S
C3970 C3968 1.389 . S
C3970 C3971 1.524 . S
C3970 C3984 1.377 . S
C3971 C3970 1.524 . S
C3971 C3972 1.397 . S
C3971 C3976 1.363 . S
C3972 H3949 0.950 . S
C3972 C3971 1.397 . S
C3972 C3973 1.334 . S
C3973 H3950 0.950 . S
C3973 C3972 1.334 . S
C3973 C3974 1.287 . S
C3974 C3973 1.287 . S
C3974 C3975 1.524 . S
C3974 H3993 0.913 . S
C3975 H3951 0.950 . S
C3975 C3974 1.524 . S
C3975 C3976 1.415 . S
C3976 H3952 0.950 . S
C3976 C3971 1.363 . S
C3976 C3975 1.415 . S
C3977 H3953 0.951 . S
C3977 C3978 1.366 . S
C3977 C3979 1.388 . S
C3978 C3977 1.366 . S
C3978 C3982 1.385 . S
C3979 H3954 0.951 . S
C3979 C3977 1.388 . S
C3979 C3980 1.366 . S
C3980 C3979 1.366 . S
C3980 C3981 1.414 . S
C3980 C3983 1.499 . S
C3981 H3955 0.950 . S
C3981 C3980 1.414 . S
C3981 C3982 1.374 . S
C3982 H3956 0.950 . S
C3982 C3978 1.385 . S
C3982 C3981 1.374 . S
C3983 C3980 1.499 . S
C3983 C3984 1.373 . S
C3983 C3985 1.389 . S
C3984 H3957 0.950 . S
C3984 C3970 1.377 . S
C3984 C3983 1.373 . S
C3985 C3969 1.377 . S
C3985 C3983 1.389 . S
C3985 C3986 1.524 . S
C3986 C3985 1.524 . S
C3986 C3987 1.397 . S
C3986 C3991 1.363 . S
C3987 H3958 0.950 . S
C3987 C3986 1.397 . S
C3987 C3988 1.334 . S
C3988 H3959 0.950 . S
C3988 C3987 1.334 . S
C3988 C3989 1.287 . S
C3989 C3988 1.287 . S
C3989 C3990 1.524 . S
C3989 H3992 0.999 . S
C3990 H3960 0.950 . S
C3990 C3989 1.524 . S
C3990 C3991 1.415 . S
C3991 H3961 0.950 . S
C3991 C3986 1.363 . S
C3991 C3990 1.415 . S
H3992 C3989 0.999 . S
H3993 C3974 0.913 . S
H3994 C4012 0.951 . S
H3995 C4014 0.951 . S
H3996 C4016 0.950 . S
H3997 C4017 0.950 . S
H3998 C4019 0.950 . S
H3999 C4022 0.950 . S
H4000 C4023 0.950 . S
H4001 C4025 0.950 . S
H4002 C4026 0.950 . S
H4003 C4027 0.951 . S
H4004 C4029 0.951 . S
H4005 C4031 0.950 . S
H4006 C4032 0.950 . S
H4007 C4034 0.950 . S
H4008 C4037 0.950 . S
H4009 C4038 0.950 . S
H4010 C4040 0.950 . S
H4011 C4041 0.950 . S
C4012 H3994 0.951 . S
C4012 C4013 1.366 . S
C4012 C4014 1.388 . S
C4013 C4012 1.366 . S
C4013 C4017 1.385 . S
C4014 H3995 0.951 . S
C4014 C4012 1.388 . S
C4014 C4015 1.366 . S
C4015 C4014 1.366 . S
C4015 C4016 1.414 . S
C4015 C4018 1.499 . S
C4016 H3996 0.950 . S
C4016 C4015 1.414 . S
C4016 C4017 1.374 . S
C4017 H3997 0.950 . S
C4017 C4013 1.385 . S
C4017 C4016 1.374 . S
C4018 C4015 1.499 . S
C4018 C4019 1.373 . S
C4018 C4020 1.389 . S
C4019 H3998 0.950 . S
C4019 C4018 1.373 . S
C4019 C4035 1.377 . S
C4020 C4018 1.389 . S
C4020 C4021 1.524 . S
C4020 C4034 1.377 . S
C4021 C4020 1.524 . S
C4021 C4022 1.397 . S
C4021 C4026 1.363 . S
C4022 H3999 0.950 . S
C4022 C4021 1.397 . S
C4022 C4023 1.334 . S
C4023 H4000 0.950 . S
C4023 C4022 1.334 . S
C4023 C4024 1.287 . S
C4024 C4023 1.287 . S
C4024 C4025 1.524 . S
C4024 H4043 0.913 . S
C4025 H4001 0.950 . S
C4025 C4024 1.524 . S
C4025 C4026 1.415 . S
C4026 H4002 0.950 . S
C4026 C4021 1.363 . S
C4026 C4025 1.415 . S
C4027 H4003 0.951 . S
C4027 C4028 1.366 . S
C4027 C4029 1.388 . S
C4028 C4027 1.366 . S
C4028 C4032 1.385 . S
C4029 H4004 0.951 . S
C4029 C4027 1.388 . S
C4029 C4030 1.366 . S
C4030 C4029 1.366 . S
C4030 C4031 1.414 . S
C4030 C4033 1.499 . S
C4031 H4005 0.950 . S
C4031 C4030 1.414 . S
C4031 C4032 1.374 . S
C4032 H4006 0.950 . S
C4032 C4028 1.385 . S
C4032 C4031 1.374 . S
C4033 C4030 1.499 . S
C4033 C4034 1.373 . S
C4033 C4035 1.389 . S
C4034 H4007 0.950 . S
C4034 C4020 1.377 . S
C4034 C4033 1.373 . S
C4035 C4019 1.377 . S
C4035 C4033 1.389 . S
C4035 C4036 1.524 . S
C4036 C4035 1.524 . S
C4036 C4037 1.397 . S
C4036 C4041 1.363 . S
C4037 H4008 0.950 . S
C4037 C4036 1.397 . S
C4037 C4038 1.334 . S
C4038 H4009 0.950 . S
C4038 C4037 1.334 . S
C4038 C4039 1.287 . S
C4039 C4038 1.287 . S
C4039 C4040 1.524 . S
C4039 H4042 0.999 . S
C4040 H4010 0.950 . S
C4040 C4039 1.524 . S
C4040 C4041 1.415 . S
C4041 H4011 0.950 . S
C4041 C4036 1.363 . S
C4041 C4040 1.415 . S
H4042 C4039 0.999 . S
H4043 C4024 0.913 . S
H4044 C4062 0.951 . S
H4045 C4064 0.951 . S
H4046 C4066 0.950 . S
H4047 C4067 0.950 . S
H4048 C4069 0.950 . S
H4049 C4072 0.950 . S
H4050 C4073 0.950 . S
H4051 C4075 0.950 . S
H4052 C4076 0.950 . S
H4053 C4077 0.951 . S
H4054 C4079 0.951 . S
H4055 C4081 0.950 . S
H4056 C4082 0.950 . S
H4057 C4084 0.950 . S
H4058 C4087 0.950 . S
H4059 C4088 0.950 . S
H4060 C4090 0.950 . S
H4061 C4091 0.950 . S
C4062 H4044 0.951 . S
C4062 C4063 1.366 . S
C4062 C4064 1.388 . S
C4063 C4062 1.366 . S
C4063 C4067 1.385 . S
C4064 H4045 0.951 . S
C4064 C4062 1.388 . S
C4064 C4065 1.366 . S
C4065 C4064 1.366 . S
C4065 C4066 1.414 . S
C4065 C4068 1.499 . S
C4066 H4046 0.950 . S
C4066 C4065 1.414 . S
C4066 C4067 1.374 . S
C4067 H4047 0.950 . S
C4067 C4063 1.385 . S
C4067 C4066 1.374 . S
C4068 C4065 1.499 . S
C4068 C4069 1.373 . S
C4068 C4070 1.389 . S
C4069 H4048 0.950 . S
C4069 C4068 1.373 . S
C4069 C4085 1.377 . S
C4070 C4068 1.389 . S
C4070 C4071 1.524 . S
C4070 C4084 1.377 . S
C4071 C4070 1.524 . S
C4071 C4072 1.397 . S
C4071 C4076 1.363 . S
C4072 H4049 0.950 . S
C4072 C4071 1.397 . S
C4072 C4073 1.334 . S
C4073 H4050 0.950 . S
C4073 C4072 1.334 . S
C4073 C4074 1.287 . S
C4074 C4073 1.287 . S
C4074 C4075 1.524 . S
C4074 H4093 0.913 . S
C4075 H4051 0.950 . S
C4075 C4074 1.524 . S
C4075 C4076 1.415 . S
C4076 H4052 0.950 . S
C4076 C4071 1.363 . S
C4076 C4075 1.415 . S
C4077 H4053 0.951 . S
C4077 C4078 1.366 . S
C4077 C4079 1.388 . S
C4078 C4077 1.366 . S
C4078 C4082 1.385 . S
C4079 H4054 0.951 . S
C4079 C4077 1.388 . S
C4079 C4080 1.366 . S
C4080 C4079 1.366 . S
C4080 C4081 1.414 . S
C4080 C4083 1.499 . S
C4081 H4055 0.950 . S
C4081 C4080 1.414 . S
C4081 C4082 1.374 . S
C4082 H4056 0.950 . S
C4082 C4078 1.385 . S
C4082 C4081 1.374 . S
C4083 C4080 1.499 . S
C4083 C4084 1.373 . S
C4083 C4085 1.389 . S
C4084 H4057 0.950 . S
C4084 C4070 1.377 . S
C4084 C4083 1.373 . S
C4085 C4069 1.377 . S
C4085 C4083 1.389 . S
C4085 C4086 1.524 . S
C4086 C4085 1.524 . S
C4086 C4087 1.397 . S
C4086 C4091 1.363 . S
C4087 H4058 0.950 . S
C4087 C4086 1.397 . S
C4087 C4088 1.334 . S
C4088 H4059 0.950 . S
C4088 C4087 1.334 . S
C4088 C4089 1.287 . S
C4089 C4088 1.287 . S
C4089 C4090 1.524 . S
C4089 H4092 0.999 . S
C4090 H4060 0.950 . S
C4090 C4089 1.524 . S
C4090 C4091 1.415 . S
C4091 H4061 0.950 . S
C4091 C4086 1.363 . S
C4091 C4090 1.415 . S
H4092 C4089 0.999 . S
H4093 C4074 0.913 . S
H4094 C4112 0.951 . S
H4095 C4114 0.951 . S
H4096 C4116 0.950 . S
H4097 C4117 0.950 . S
H4098 C4119 0.950 . S
H4099 C4122 0.950 . S
H4100 C4123 0.950 . S
H4101 C4125 0.950 . S
H4102 C4126 0.950 . S
H4103 C4127 0.951 . S
H4104 C4129 0.951 . S
H4105 C4131 0.950 . S
H4106 C4132 0.950 . S
H4107 C4134 0.950 . S
H4108 C4137 0.950 . S
H4109 C4138 0.950 . S
H4110 C4140 0.950 . S
H4111 C4141 0.950 . S
C4112 H4094 0.951 . S
C4112 C4113 1.366 . S
C4112 C4114 1.388 . S
C4113 C4112 1.366 . S
C4113 C4117 1.385 . S
C4114 H4095 0.951 . S
C4114 C4112 1.388 . S
C4114 C4115 1.366 . S
C4115 C4114 1.366 . S
C4115 C4116 1.414 . S
C4115 C4118 1.499 . S
C4116 H4096 0.950 . S
C4116 C4115 1.414 . S
C4116 C4117 1.374 . S
C4117 H4097 0.950 . S
C4117 C4113 1.385 . S
C4117 C4116 1.374 . S
C4118 C4115 1.499 . S
C4118 C4119 1.373 . S
C4118 C4120 1.389 . S
C4119 H4098 0.950 . S
C4119 C4118 1.373 . S
C4119 C4135 1.377 . S
C4120 C4118 1.389 . S
C4120 C4121 1.524 . S
C4120 C4134 1.377 . S
C4121 C4120 1.524 . S
C4121 C4122 1.397 . S
C4121 C4126 1.363 . S
C4122 H4099 0.950 . S
C4122 C4121 1.397 . S
C4122 C4123 1.334 . S
C4123 H4100 0.950 . S
C4123 C4122 1.334 . S
C4123 C4124 1.287 . S
C4124 C4123 1.287 . S
C4124 C4125 1.524 . S
C4124 H4143 0.913 . S
C4125 H4101 0.950 . S
C4125 C4124 1.524 . S
C4125 C4126 1.415 . S
C4126 H4102 0.950 . S
C4126 C4121 1.363 . S
C4126 C4125 1.415 . S
C4127 H4103 0.951 . S
C4127 C4128 1.366 . S
C4127 C4129 1.388 . S
C4128 C4127 1.366 . S
C4128 C4132 1.385 . S
C4129 H4104 0.951 . S
C4129 C4127 1.388 . S
C4129 C4130 1.366 . S
C4130 C4129 1.366 . S
C4130 C4131 1.414 . S
C4130 C4133 1.499 . S
C4131 H4105 0.950 . S
C4131 C4130 1.414 . S
C4131 C4132 1.374 . S
C4132 H4106 0.950 . S
C4132 C4128 1.385 . S
C4132 C4131 1.374 . S
C4133 C4130 1.499 . S
C4133 C4134 1.373 . S
C4133 C4135 1.389 . S
C4134 H4107 0.950 . S
C4134 C4120 1.377 . S
C4134 C4133 1.373 . S
C4135 C4119 1.377 . S
C4135 C4133 1.389 . S
C4135 C4136 1.524 . S
C4136 C4135 1.524 . S
C4136 C4137 1.397 . S
C4136 C4141 1.363 . S
C4137 H4108 0.950 . S
C4137 C4136 1.397 . S
C4137 C4138 1.334 . S
C4138 H4109 0.950 . S
C4138 C4137 1.334 . S
C4138 C4139 1.287 . S
C4139 C4138 1.287 . S
C4139 C4140 1.524 . S
C4139 H4142 0.999 . S
C4140 H4110 0.950 . S
C4140 C4139 1.524 . S
C4140 C4141 1.415 . S
C4141 H4111 0.950 . S
C4141 C4136 1.363 . S
C4141 C4140 1.415 . S
H4142 C4139 0.999 . S
H4143 C4124 0.913 . S
H4144 C4162 0.951 . S
H4145 C4164 0.951 . S
H4146 C4166 0.950 . S
H4147 C4167 0.950 . S
H4148 C4169 0.950 . S
H4149 C4172 0.950 . S
H4150 C4173 0.950 . S
H4151 C4175 0.950 . S
H4152 C4176 0.950 . S
H4153 C4177 0.951 . S
H4154 C4179 0.951 . S
H4155 C4181 0.950 . S
H4156 C4182 0.950 . S
H4157 C4184 0.950 . S
H4158 C4187 0.950 . S
H4159 C4188 0.950 1_556 S
H4160 C4190 0.950 . S
H4161 C4191 0.950 . S
C4162 H4144 0.951 . S
C4162 C4163 1.366 . S
C4162 C4164 1.388 . S
C4163 C4162 1.366 . S
C4163 C4167 1.385 . S
C4164 H4145 0.951 . S
C4164 C4162 1.388 . S
C4164 C4165 1.366 . S
C4165 C4164 1.366 . S
C4165 C4166 1.414 . S
C4165 C4168 1.499 . S
C4166 H4146 0.950 . S
C4166 C4165 1.414 . S
C4166 C4167 1.374 . S
C4167 H4147 0.950 . S
C4167 C4163 1.385 . S
C4167 C4166 1.374 . S
C4168 C4165 1.499 . S
C4168 C4169 1.373 . S
C4168 C4170 1.389 . S
C4169 H4148 0.950 . S
C4169 C4168 1.373 . S
C4169 C4185 1.377 . S
C4170 C4168 1.389 . S
C4170 C4171 1.524 . S
C4170 C4184 1.377 . S
C4171 C4170 1.524 . S
C4171 C4172 1.397 . S
C4171 C4176 1.363 . S
C4172 H4149 0.950 . S
C4172 C4171 1.397 . S
C4172 C4173 1.334 . S
C4173 H4150 0.950 . S
C4173 C4172 1.334 . S
C4173 C4174 1.287 . S
C4174 C4173 1.287 . S
C4174 C4175 1.524 . S
C4174 H4193 0.913 . S
C4175 H4151 0.950 . S
C4175 C4174 1.524 . S
C4175 C4176 1.415 . S
C4176 H4152 0.950 . S
C4176 C4171 1.363 . S
C4176 C4175 1.415 . S
C4177 H4153 0.951 . S
C4177 C4178 1.366 . S
C4177 C4179 1.388 . S
C4178 C4177 1.366 . S
C4178 C4182 1.385 . S
C4179 H4154 0.951 . S
C4179 C4177 1.388 . S
C4179 C4180 1.366 . S
C4180 C4179 1.366 . S
C4180 C4181 1.414 . S
C4180 C4183 1.499 . S
C4181 H4155 0.950 . S
C4181 C4180 1.414 . S
C4181 C4182 1.374 . S
C4182 H4156 0.950 . S
C4182 C4178 1.385 . S
C4182 C4181 1.374 . S
C4183 C4180 1.499 . S
C4183 C4184 1.373 . S
C4183 C4185 1.389 . S
C4184 H4157 0.950 . S
C4184 C4170 1.377 . S
C4184 C4183 1.373 . S
C4185 C4169 1.377 . S
C4185 C4183 1.389 . S
C4185 C4186 1.524 . S
C4186 C4185 1.524 . S
C4186 C4187 1.397 . S
C4186 C4191 1.363 . S
C4187 H4158 0.950 . S
C4187 C4186 1.397 . S
C4187 C4188 1.334 . S
C4188 H4159 0.950 1_554 S
C4188 C4187 1.334 . S
C4188 C4189 1.287 . S
C4189 C4188 1.287 . S
C4189 C4190 1.524 . S
C4189 H4192 0.999 1_554 S
C4190 H4160 0.950 . S
C4190 C4189 1.524 . S
C4190 C4191 1.415 . S
C4191 H4161 0.950 . S
C4191 C4186 1.363 . S
C4191 C4190 1.415 . S
H4192 C4189 0.999 1_556 S
H4193 C4174 0.913 . S
H4194 C4212 0.951 . S
H4195 C4214 0.951 . S
H4196 C4216 0.950 . S
H4197 C4217 0.950 . S
H4198 C4219 0.950 . S
H4199 C4222 0.950 . S
H4200 C4223 0.950 . S
H4201 C4225 0.950 . S
H4202 C4226 0.950 . S
H4203 C4227 0.951 . S
H4204 C4229 0.951 . S
H4205 C4231 0.950 . S
H4206 C4232 0.950 . S
H4207 C4234 0.950 . S
H4208 C4237 0.950 . S
H4209 C4238 0.950 . S
H4210 C4240 0.950 . S
H4211 C4241 0.950 . S
C4212 H4194 0.951 . S
C4212 C4213 1.366 . S
C4212 C4214 1.388 . S
C4213 C4212 1.366 . S
C4213 C4217 1.385 . S
C4214 H4195 0.951 . S
C4214 C4212 1.388 . S
C4214 C4215 1.366 . S
C4215 C4214 1.366 . S
C4215 C4216 1.414 . S
C4215 C4218 1.499 . S
C4216 H4196 0.950 . S
C4216 C4215 1.414 . S
C4216 C4217 1.374 . S
C4217 H4197 0.950 . S
C4217 C4213 1.385 . S
C4217 C4216 1.374 . S
C4218 C4215 1.499 . S
C4218 C4219 1.373 . S
C4218 C4220 1.389 . S
C4219 H4198 0.950 . S
C4219 C4218 1.373 . S
C4219 C4235 1.377 . S
C4220 C4218 1.389 . S
C4220 C4221 1.524 . S
C4220 C4234 1.377 . S
C4221 C4220 1.524 . S
C4221 C4222 1.397 . S
C4221 C4226 1.363 . S
C4222 H4199 0.950 . S
C4222 C4221 1.397 . S
C4222 C4223 1.334 . S
C4223 H4200 0.950 . S
C4223 C4222 1.334 . S
C4223 C4224 1.287 . S
C4224 C4223 1.287 . S
C4224 C4225 1.524 . S
C4224 H4243 0.913 . S
C4225 H4201 0.950 . S
C4225 C4224 1.524 . S
C4225 C4226 1.415 . S
C4226 H4202 0.950 . S
C4226 C4221 1.363 . S
C4226 C4225 1.415 . S
C4227 H4203 0.951 . S
C4227 C4228 1.366 . S
C4227 C4229 1.388 . S
C4228 C4227 1.366 . S
C4228 C4232 1.385 . S
C4229 H4204 0.951 . S
C4229 C4227 1.388 . S
C4229 C4230 1.366 . S
C4230 C4229 1.366 . S
C4230 C4231 1.414 . S
C4230 C4233 1.499 . S
C4231 H4205 0.950 . S
C4231 C4230 1.414 . S
C4231 C4232 1.374 . S
C4232 H4206 0.950 . S
C4232 C4228 1.385 . S
C4232 C4231 1.374 . S
C4233 C4230 1.499 . S
C4233 C4234 1.373 . S
C4233 C4235 1.389 . S
C4234 H4207 0.950 . S
C4234 C4220 1.377 . S
C4234 C4233 1.373 . S
C4235 C4219 1.377 . S
C4235 C4233 1.389 . S
C4235 C4236 1.524 . S
C4236 C4235 1.524 . S
C4236 C4237 1.397 . S
C4236 C4241 1.363 . S
C4237 H4208 0.950 . S
C4237 C4236 1.397 . S
C4237 C4238 1.334 . S
C4238 H4209 0.950 . S
C4238 C4237 1.334 . S
C4238 C4239 1.287 . S
C4239 C4238 1.287 . S
C4239 C4240 1.524 . S
C4239 H4242 0.999 . S
C4240 H4210 0.950 . S
C4240 C4239 1.524 . S
C4240 C4241 1.415 . S
C4241 H4211 0.950 . S
C4241 C4236 1.363 . S
C4241 C4240 1.415 . S
H4242 C4239 0.999 . S
H4243 C4224 0.913 . S
H4244 C4262 0.951 . S
H4245 C4264 0.951 . S
H4246 C4266 0.950 . S
H4247 C4267 0.950 . S
H4248 C4269 0.950 . S
H4249 C4272 0.950 . S
H4250 C4273 0.950 . S
H4251 C4275 0.950 . S
H4252 C4276 0.950 . S
H4253 C4277 0.951 . S
H4254 C4279 0.951 . S
H4255 C4281 0.950 . S
H4256 C4282 0.950 . S
H4257 C4284 0.950 . S
H4258 C4287 0.950 . S
H4259 C4288 0.950 . S
H4260 C4290 0.950 . S
H4261 C4291 0.950 . S
C4262 H4244 0.951 . S
C4262 C4263 1.366 . S
C4262 C4264 1.388 . S
C4263 C4262 1.366 . S
C4263 C4267 1.385 . S
C4264 H4245 0.951 . S
C4264 C4262 1.388 . S
C4264 C4265 1.366 . S
C4265 C4264 1.366 . S
C4265 C4266 1.414 . S
C4265 C4268 1.499 . S
C4266 H4246 0.950 . S
C4266 C4265 1.414 . S
C4266 C4267 1.374 . S
C4267 H4247 0.950 . S
C4267 C4263 1.385 . S
C4267 C4266 1.374 . S
C4268 C4265 1.499 . S
C4268 C4269 1.373 . S
C4268 C4270 1.389 . S
C4269 H4248 0.950 . S
C4269 C4268 1.373 . S
C4269 C4285 1.377 . S
C4270 C4268 1.389 . S
C4270 C4271 1.524 . S
C4270 C4284 1.377 . S
C4271 C4270 1.524 . S
C4271 C4272 1.397 . S
C4271 C4276 1.363 . S
C4272 H4249 0.950 . S
C4272 C4271 1.397 . S
C4272 C4273 1.334 . S
C4273 H4250 0.950 . S
C4273 C4272 1.334 . S
C4273 C4274 1.287 . S
C4274 C4273 1.287 . S
C4274 C4275 1.524 . S
C4274 H4293 0.913 . S
C4275 H4251 0.950 . S
C4275 C4274 1.524 . S
C4275 C4276 1.415 . S
C4276 H4252 0.950 . S
C4276 C4271 1.363 . S
C4276 C4275 1.415 . S
C4277 H4253 0.951 . S
C4277 C4278 1.366 . S
C4277 C4279 1.388 . S
C4278 C4277 1.366 . S
C4278 C4282 1.385 . S
C4279 H4254 0.951 . S
C4279 C4277 1.388 . S
C4279 C4280 1.366 . S
C4280 C4279 1.366 . S
C4280 C4281 1.414 . S
C4280 C4283 1.499 . S
C4281 H4255 0.950 . S
C4281 C4280 1.414 . S
C4281 C4282 1.374 . S
C4282 H4256 0.950 . S
C4282 C4278 1.385 . S
C4282 C4281 1.374 . S
C4283 C4280 1.499 . S
C4283 C4284 1.373 . S
C4283 C4285 1.389 . S
C4284 H4257 0.950 . S
C4284 C4270 1.377 . S
C4284 C4283 1.373 . S
C4285 C4269 1.377 . S
C4285 C4283 1.389 . S
C4285 C4286 1.524 . S
C4286 C4285 1.524 . S
C4286 C4287 1.397 . S
C4286 C4291 1.363 . S
C4287 H4258 0.950 . S
C4287 C4286 1.397 . S
C4287 C4288 1.334 . S
C4288 H4259 0.950 . S
C4288 C4287 1.334 . S
C4288 C4289 1.287 . S
C4289 C4288 1.287 . S
C4289 C4290 1.524 . S
C4289 H4292 0.999 . S
C4290 H4260 0.950 . S
C4290 C4289 1.524 . S
C4290 C4291 1.415 . S
C4291 H4261 0.950 . S
C4291 C4286 1.363 . S
C4291 C4290 1.415 . S
H4292 C4289 0.999 . S
H4293 C4274 0.913 . S
H4294 C4312 0.951 . S
H4295 C4314 0.951 . S
H4296 C4316 0.950 . S
H4297 C4317 0.950 . S
H4298 C4319 0.950 . S
H4299 C4322 0.950 . S
H4300 C4323 0.950 . S
H4301 C4325 0.950 . S
H4302 C4326 0.950 . S
H4303 C4327 0.951 . S
H4304 C4329 0.951 . S
H4305 C4331 0.950 . S
H4306 C4332 0.950 . S
H4307 C4334 0.950 . S
H4308 C4337 0.950 . S
H4309 C4338 0.950 . S
H4310 C4340 0.950 . S
H4311 C4341 0.950 . S
C4312 H4294 0.951 . S
C4312 C4313 1.366 . S
C4312 C4314 1.388 . S
C4313 C4312 1.366 . S
C4313 C4317 1.385 . S
C4314 H4295 0.951 . S
C4314 C4312 1.388 . S
C4314 C4315 1.366 . S
C4315 C4314 1.366 . S
C4315 C4316 1.414 . S
C4315 C4318 1.499 . S
C4316 H4296 0.950 . S
C4316 C4315 1.414 . S
C4316 C4317 1.374 . S
C4317 H4297 0.950 . S
C4317 C4313 1.385 . S
C4317 C4316 1.374 . S
C4318 C4315 1.499 . S
C4318 C4319 1.373 . S
C4318 C4320 1.389 . S
C4319 H4298 0.950 . S
C4319 C4318 1.373 . S
C4319 C4335 1.377 . S
C4320 C4318 1.389 . S
C4320 C4321 1.524 . S
C4320 C4334 1.377 . S
C4321 C4320 1.524 . S
C4321 C4322 1.397 . S
C4321 C4326 1.363 . S
C4322 H4299 0.950 . S
C4322 C4321 1.397 . S
C4322 C4323 1.334 . S
C4323 H4300 0.950 . S
C4323 C4322 1.334 . S
C4323 C4324 1.287 . S
C4324 C4323 1.287 . S
C4324 C4325 1.524 . S
C4324 H4343 0.913 . S
C4325 H4301 0.950 . S
C4325 C4324 1.524 . S
C4325 C4326 1.415 . S
C4326 H4302 0.950 . S
C4326 C4321 1.363 . S
C4326 C4325 1.415 . S
C4327 H4303 0.951 . S
C4327 C4328 1.366 . S
C4327 C4329 1.388 . S
C4328 C4327 1.366 . S
C4328 C4332 1.385 . S
C4329 H4304 0.951 . S
C4329 C4327 1.388 . S
C4329 C4330 1.366 . S
C4330 C4329 1.366 . S
C4330 C4331 1.414 . S
C4330 C4333 1.499 . S
C4331 H4305 0.950 . S
C4331 C4330 1.414 . S
C4331 C4332 1.374 . S
C4332 H4306 0.950 . S
C4332 C4328 1.385 . S
C4332 C4331 1.374 . S
C4333 C4330 1.499 . S
C4333 C4334 1.373 . S
C4333 C4335 1.389 . S
C4334 H4307 0.950 . S
C4334 C4320 1.377 . S
C4334 C4333 1.373 . S
C4335 C4319 1.377 . S
C4335 C4333 1.389 . S
C4335 C4336 1.524 . S
C4336 C4335 1.524 . S
C4336 C4337 1.397 . S
C4336 C4341 1.363 . S
C4337 H4308 0.950 . S
C4337 C4336 1.397 . S
C4337 C4338 1.334 . S
C4338 H4309 0.950 . S
C4338 C4337 1.334 . S
C4338 C4339 1.287 . S
C4339 C4338 1.287 . S
C4339 C4340 1.524 . S
C4339 H4342 0.999 . S
C4340 H4310 0.950 . S
C4340 C4339 1.524 . S
C4340 C4341 1.415 . S
C4341 H4311 0.950 . S
C4341 C4336 1.363 . S
C4341 C4340 1.415 . S
H4342 C4339 0.999 . S
H4343 C4324 0.913 . S
H4344 C4362 0.951 . S
H4345 C4364 0.951 . S
H4346 C4366 0.950 . S
H4347 C4367 0.950 . S
H4348 C4369 0.950 . S
H4349 C4372 0.950 . S
H4350 C4373 0.950 . S
H4351 C4375 0.950 . S
H4352 C4376 0.950 . S
H4353 C4377 0.951 . S
H4354 C4379 0.951 . S
H4355 C4381 0.950 . S
H4356 C4382 0.950 . S
H4357 C4384 0.950 . S
H4358 C4387 0.950 . S
H4359 C4388 0.950 . S
H4360 C4390 0.950 . S
H4361 C4391 0.950 . S
C4362 H4344 0.951 . S
C4362 C4363 1.366 . S
C4362 C4364 1.388 . S
C4363 C4362 1.366 . S
C4363 C4367 1.385 . S
C4364 H4345 0.951 . S
C4364 C4362 1.388 . S
C4364 C4365 1.366 . S
C4365 C4364 1.366 . S
C4365 C4366 1.414 . S
C4365 C4368 1.499 . S
C4366 H4346 0.950 . S
C4366 C4365 1.414 . S
C4366 C4367 1.374 . S
C4367 H4347 0.950 . S
C4367 C4363 1.385 . S
C4367 C4366 1.374 . S
C4368 C4365 1.499 . S
C4368 C4369 1.373 . S
C4368 C4370 1.389 . S
C4369 H4348 0.950 . S
C4369 C4368 1.373 . S
C4369 C4385 1.377 . S
C4370 C4368 1.389 . S
C4370 C4371 1.524 . S
C4370 C4384 1.377 . S
C4371 C4370 1.524 . S
C4371 C4372 1.397 . S
C4371 C4376 1.363 . S
C4372 H4349 0.950 . S
C4372 C4371 1.397 . S
C4372 C4373 1.334 . S
C4373 H4350 0.950 . S
C4373 C4372 1.334 . S
C4373 C4374 1.287 . S
C4374 C4373 1.287 . S
C4374 C4375 1.524 . S
C4374 H4393 0.913 . S
C4375 H4351 0.950 . S
C4375 C4374 1.524 . S
C4375 C4376 1.415 . S
C4376 H4352 0.950 . S
C4376 C4371 1.363 . S
C4376 C4375 1.415 . S
C4377 H4353 0.951 . S
C4377 C4378 1.366 . S
C4377 C4379 1.388 . S
C4378 C4377 1.366 . S
C4378 C4382 1.385 . S
C4379 H4354 0.951 . S
C4379 C4377 1.388 . S
C4379 C4380 1.366 . S
C4380 C4379 1.366 . S
C4380 C4381 1.414 . S
C4380 C4383 1.499 . S
C4381 H4355 0.950 . S
C4381 C4380 1.414 . S
C4381 C4382 1.374 . S
C4382 H4356 0.950 . S
C4382 C4378 1.385 . S
C4382 C4381 1.374 . S
C4383 C4380 1.499 . S
C4383 C4384 1.373 . S
C4383 C4385 1.389 . S
C4384 H4357 0.950 . S
C4384 C4370 1.377 . S
C4384 C4383 1.373 . S
C4385 C4369 1.377 . S
C4385 C4383 1.389 . S
C4385 C4386 1.524 . S
C4386 C4385 1.524 . S
C4386 C4387 1.397 . S
C4386 C4391 1.363 . S
C4387 H4358 0.950 . S
C4387 C4386 1.397 . S
C4387 C4388 1.334 . S
C4388 H4359 0.950 . S
C4388 C4387 1.334 . S
C4388 C4389 1.287 . S
C4389 C4388 1.287 . S
C4389 C4390 1.524 . S
C4389 H4392 0.999 . S
C4390 H4360 0.950 . S
C4390 C4389 1.524 . S
C4390 C4391 1.415 . S
C4391 H4361 0.950 . S
C4391 C4386 1.363 . S
C4391 C4390 1.415 . S
H4392 C4389 0.999 . S
H4393 C4374 0.913 . S
H4394 C4412 0.951 . S
H4395 C4414 0.951 . S
H4396 C4416 0.950 . S
H4397 C4417 0.950 . S
H4398 C4419 0.950 . S
H4399 C4422 0.950 . S
H4400 C4423 0.950 . S
H4401 C4425 0.950 . S
H4402 C4426 0.950 . S
H4403 C4427 0.951 . S
H4404 C4429 0.951 . S
H4405 C4431 0.950 . S
H4406 C4432 0.950 . S
H4407 C4434 0.950 . S
H4408 C4437 0.950 . S
H4409 C4438 0.950 . S
H4410 C4440 0.950 . S
H4411 C4441 0.950 . S
C4412 H4394 0.951 . S
C4412 C4413 1.366 . S
C4412 C4414 1.388 . S
C4413 C4412 1.366 . S
C4413 C4417 1.385 . S
C4414 H4395 0.951 . S
C4414 C4412 1.388 . S
C4414 C4415 1.366 . S
C4415 C4414 1.366 . S
C4415 C4416 1.414 . S
C4415 C4418 1.499 . S
C4416 H4396 0.950 . S
C4416 C4415 1.414 . S
C4416 C4417 1.374 . S
C4417 H4397 0.950 . S
C4417 C4413 1.385 . S
C4417 C4416 1.374 . S
C4418 C4415 1.499 . S
C4418 C4419 1.373 . S
C4418 C4420 1.389 . S
C4419 H4398 0.950 . S
C4419 C4418 1.373 . S
C4419 C4435 1.377 . S
C4420 C4418 1.389 . S
C4420 C4421 1.524 . S
C4420 C4434 1.377 . S
C4421 C4420 1.524 . S
C4421 C4422 1.397 . S
C4421 C4426 1.363 . S
C4422 H4399 0.950 . S
C4422 C4421 1.397 . S
C4422 C4423 1.334 . S
C4423 H4400 0.950 . S
C4423 C4422 1.334 . S
C4423 C4424 1.287 . S
C4424 C4423 1.287 . S
C4424 C4425 1.524 . S
C4424 H4443 0.913 . S
C4425 H4401 0.950 . S
C4425 C4424 1.524 . S
C4425 C4426 1.415 . S
C4426 H4402 0.950 . S
C4426 C4421 1.363 . S
C4426 C4425 1.415 . S
C4427 H4403 0.951 . S
C4427 C4428 1.366 . S
C4427 C4429 1.388 . S
C4428 C4427 1.366 . S
C4428 C4432 1.385 . S
C4429 H4404 0.951 . S
C4429 C4427 1.388 . S
C4429 C4430 1.366 . S
C4430 C4429 1.366 . S
C4430 C4431 1.414 . S
C4430 C4433 1.499 . S
C4431 H4405 0.950 . S
C4431 C4430 1.414 . S
C4431 C4432 1.374 . S
C4432 H4406 0.950 . S
C4432 C4428 1.385 . S
C4432 C4431 1.374 . S
C4433 C4430 1.499 . S
C4433 C4434 1.373 . S
C4433 C4435 1.389 . S
C4434 H4407 0.950 . S
C4434 C4420 1.377 . S
C4434 C4433 1.373 . S
C4435 C4419 1.377 . S
C4435 C4433 1.389 . S
C4435 C4436 1.524 . S
C4436 C4435 1.524 . S
C4436 C4437 1.397 . S
C4436 C4441 1.363 . S
C4437 H4408 0.950 . S
C4437 C4436 1.397 . S
C4437 C4438 1.334 . S
C4438 H4409 0.950 . S
C4438 C4437 1.334 . S
C4438 C4439 1.287 . S
C4439 C4438 1.287 . S
C4439 C4440 1.524 . S
C4439 H4442 0.999 . S
C4440 H4410 0.950 . S
C4440 C4439 1.524 . S
C4440 C4441 1.415 . S
C4441 H4411 0.950 . S
C4441 C4436 1.363 . S
C4441 C4440 1.415 . S
H4442 C4439 0.999 . S
H4443 C4424 0.913 . S
H4444 C4462 0.951 . S
H4445 C4464 0.951 . S
H4446 C4466 0.950 . S
H4447 C4467 0.950 . S
H4448 C4469 0.950 . S
H4449 C4472 0.950 . S
H4450 C4473 0.950 . S
H4451 C4475 0.950 . S
H4452 C4476 0.950 . S
H4453 C4477 0.951 . S
H4454 C4479 0.951 . S
H4455 C4481 0.950 . S
H4456 C4482 0.950 . S
H4457 C4484 0.950 . S
H4458 C4487 0.950 . S
H4459 C4488 0.950 . S
H4460 C4490 0.950 . S
H4461 C4491 0.950 . S
C4462 H4444 0.951 . S
C4462 C4463 1.366 . S
C4462 C4464 1.388 . S
C4463 C4462 1.366 . S
C4463 C4467 1.385 . S
C4464 H4445 0.951 . S
C4464 C4462 1.388 . S
C4464 C4465 1.366 . S
C4465 C4464 1.366 . S
C4465 C4466 1.414 . S
C4465 C4468 1.499 . S
C4466 H4446 0.950 . S
C4466 C4465 1.414 . S
C4466 C4467 1.374 . S
C4467 H4447 0.950 . S
C4467 C4463 1.385 . S
C4467 C4466 1.374 . S
C4468 C4465 1.499 . S
C4468 C4469 1.373 . S
C4468 C4470 1.389 . S
C4469 H4448 0.950 . S
C4469 C4468 1.373 . S
C4469 C4485 1.377 . S
C4470 C4468 1.389 . S
C4470 C4471 1.524 . S
C4470 C4484 1.377 . S
C4471 C4470 1.524 . S
C4471 C4472 1.397 . S
C4471 C4476 1.363 . S
C4472 H4449 0.950 . S
C4472 C4471 1.397 . S
C4472 C4473 1.334 . S
C4473 H4450 0.950 . S
C4473 C4472 1.334 . S
C4473 C4474 1.287 . S
C4474 C4473 1.287 . S
C4474 C4475 1.524 . S
C4474 H4493 0.913 . S
C4475 H4451 0.950 . S
C4475 C4474 1.524 . S
C4475 C4476 1.415 . S
C4476 H4452 0.950 . S
C4476 C4471 1.363 . S
C4476 C4475 1.415 . S
C4477 H4453 0.951 . S
C4477 C4478 1.366 . S
C4477 C4479 1.388 . S
C4478 C4477 1.366 . S
C4478 C4482 1.385 . S
C4479 H4454 0.951 . S
C4479 C4477 1.388 . S
C4479 C4480 1.366 . S
C4480 C4479 1.366 . S
C4480 C4481 1.414 . S
C4480 C4483 1.499 . S
C4481 H4455 0.950 . S
C4481 C4480 1.414 . S
C4481 C4482 1.374 . S
C4482 H4456 0.950 . S
C4482 C4478 1.385 . S
C4482 C4481 1.374 . S
C4483 C4480 1.499 . S
C4483 C4484 1.373 . S
C4483 C4485 1.389 . S
C4484 H4457 0.950 . S
C4484 C4470 1.377 . S
C4484 C4483 1.373 . S
C4485 C4469 1.377 . S
C4485 C4483 1.389 . S
C4485 C4486 1.524 . S
C4486 C4485 1.524 . S
C4486 C4487 1.397 . S
C4486 C4491 1.363 . S
C4487 H4458 0.950 . S
C4487 C4486 1.397 . S
C4487 C4488 1.334 . S
C4488 H4459 0.950 . S
C4488 C4487 1.334 . S
C4488 C4489 1.287 . S
C4489 C4488 1.287 . S
C4489 C4490 1.524 . S
C4489 H4492 0.999 . S
C4490 H4460 0.950 . S
C4490 C4489 1.524 . S
C4490 C4491 1.415 . S
C4491 H4461 0.950 . S
C4491 C4486 1.363 . S
C4491 C4490 1.415 . S
H4492 C4489 0.999 . S
H4493 C4474 0.913 . S
H4494 C4512 0.951 . S
H4495 C4514 0.951 . S
H4496 C4516 0.950 . S
H4497 C4517 0.950 . S
H4498 C4519 0.950 . S
H4499 C4522 0.950 . S
H4500 C4523 0.950 . S
H4501 C4525 0.950 . S
H4502 C4526 0.950 . S
H4503 C4527 0.951 . S
H4504 C4529 0.951 . S
H4505 C4531 0.950 . S
H4506 C4532 0.950 . S
H4507 C4534 0.950 . S
H4508 C4537 0.950 . S
H4509 C4538 0.950 . S
H4510 C4540 0.950 . S
H4511 C4541 0.950 . S
C4512 H4494 0.951 . S
C4512 C4513 1.366 . S
C4512 C4514 1.388 . S
C4513 C4512 1.366 . S
C4513 C4517 1.385 . S
C4514 H4495 0.951 . S
C4514 C4512 1.388 . S
C4514 C4515 1.366 . S
C4515 C4514 1.366 . S
C4515 C4516 1.414 . S
C4515 C4518 1.499 . S
C4516 H4496 0.950 . S
C4516 C4515 1.414 . S
C4516 C4517 1.374 . S
C4517 H4497 0.950 . S
C4517 C4513 1.385 . S
C4517 C4516 1.374 . S
C4518 C4515 1.499 . S
C4518 C4519 1.373 . S
C4518 C4520 1.389 . S
C4519 H4498 0.950 . S
C4519 C4518 1.373 . S
C4519 C4535 1.377 . S
C4520 C4518 1.389 . S
C4520 C4521 1.524 . S
C4520 C4534 1.377 . S
C4521 C4520 1.524 . S
C4521 C4522 1.397 . S
C4521 C4526 1.363 . S
C4522 H4499 0.950 . S
C4522 C4521 1.397 . S
C4522 C4523 1.334 . S
C4523 H4500 0.950 . S
C4523 C4522 1.334 . S
C4523 C4524 1.287 . S
C4524 C4523 1.287 . S
C4524 C4525 1.524 . S
C4524 H4543 0.913 . S
C4525 H4501 0.950 . S
C4525 C4524 1.524 . S
C4525 C4526 1.415 . S
C4526 H4502 0.950 . S
C4526 C4521 1.363 . S
C4526 C4525 1.415 . S
C4527 H4503 0.951 . S
C4527 C4528 1.366 . S
C4527 C4529 1.388 . S
C4528 C4527 1.366 . S
C4528 C4532 1.385 . S
C4529 H4504 0.951 . S
C4529 C4527 1.388 . S
C4529 C4530 1.366 . S
C4530 C4529 1.366 . S
C4530 C4531 1.414 . S
C4530 C4533 1.499 . S
C4531 H4505 0.950 . S
C4531 C4530 1.414 . S
C4531 C4532 1.374 . S
C4532 H4506 0.950 . S
C4532 C4528 1.385 . S
C4532 C4531 1.374 . S
C4533 C4530 1.499 . S
C4533 C4534 1.373 . S
C4533 C4535 1.389 . S
C4534 H4507 0.950 . S
C4534 C4520 1.377 . S
C4534 C4533 1.373 . S
C4535 C4519 1.377 . S
C4535 C4533 1.389 . S
C4535 C4536 1.524 . S
C4536 C4535 1.524 . S
C4536 C4537 1.397 . S
C4536 C4541 1.363 . S
C4537 H4508 0.950 . S
C4537 C4536 1.397 . S
C4537 C4538 1.334 . S
C4538 H4509 0.950 . S
C4538 C4537 1.334 . S
C4538 C4539 1.287 . S
C4539 C4538 1.287 . S
C4539 C4540 1.524 . S
C4539 H4542 0.999 . S
C4540 H4510 0.950 . S
C4540 C4539 1.524 . S
C4540 C4541 1.415 . S
C4541 H4511 0.950 . S
C4541 C4536 1.363 . S
C4541 C4540 1.415 . S
H4542 C4539 0.999 . S
H4543 C4524 0.913 . S
H4544 C4562 0.951 . S
H4545 C4564 0.951 . S
H4546 C4566 0.950 . S
H4547 C4567 0.950 . S
H4548 C4569 0.950 . S
H4549 C4572 0.950 . S
H4550 C4573 0.950 . S
H4551 C4575 0.950 . S
H4552 C4576 0.950 . S
H4553 C4577 0.951 . S
H4554 C4579 0.951 . S
H4555 C4581 0.950 . S
H4556 C4582 0.950 . S
H4557 C4584 0.950 . S
H4558 C4587 0.950 . S
H4559 C4588 0.950 . S
H4560 C4590 0.950 . S
H4561 C4591 0.950 . S
C4562 H4544 0.951 . S
C4562 C4563 1.366 . S
C4562 C4564 1.388 . S
C4563 C4562 1.366 . S
C4563 C4567 1.385 . S
C4564 H4545 0.951 . S
C4564 C4562 1.388 . S
C4564 C4565 1.366 . S
C4565 C4564 1.366 . S
C4565 C4566 1.414 . S
C4565 C4568 1.499 . S
C4566 H4546 0.950 . S
C4566 C4565 1.414 . S
C4566 C4567 1.374 . S
C4567 H4547 0.950 . S
C4567 C4563 1.385 . S
C4567 C4566 1.374 . S
C4568 C4565 1.499 . S
C4568 C4569 1.373 . S
C4568 C4570 1.389 . S
C4569 H4548 0.950 . S
C4569 C4568 1.373 . S
C4569 C4585 1.377 . S
C4570 C4568 1.389 . S
C4570 C4571 1.524 . S
C4570 C4584 1.377 . S
C4571 C4570 1.524 . S
C4571 C4572 1.397 . S
C4571 C4576 1.363 . S
C4572 H4549 0.950 . S
C4572 C4571 1.397 . S
C4572 C4573 1.334 . S
C4573 H4550 0.950 . S
C4573 C4572 1.334 . S
C4573 C4574 1.287 . S
C4574 C4573 1.287 . S
C4574 C4575 1.524 . S
C4574 H4593 0.913 . S
C4575 H4551 0.950 . S
C4575 C4574 1.524 . S
C4575 C4576 1.415 . S
C4576 H4552 0.950 . S
C4576 C4571 1.363 . S
C4576 C4575 1.415 . S
C4577 H4553 0.951 . S
C4577 C4578 1.366 . S
C4577 C4579 1.388 . S
C4578 C4577 1.366 . S
C4578 C4582 1.385 . S
C4579 H4554 0.951 . S
C4579 C4577 1.388 . S
C4579 C4580 1.366 . S
C4580 C4579 1.366 . S
C4580 C4581 1.414 . S
C4580 C4583 1.499 . S
C4581 H4555 0.950 . S
C4581 C4580 1.414 . S
C4581 C4582 1.374 . S
C4582 H4556 0.950 . S
C4582 C4578 1.385 . S
C4582 C4581 1.374 . S
C4583 C4580 1.499 . S
C4583 C4584 1.373 . S
C4583 C4585 1.389 . S
C4584 H4557 0.950 . S
C4584 C4570 1.377 . S
C4584 C4583 1.373 . S
C4585 C4569 1.377 . S
C4585 C4583 1.389 . S
C4585 C4586 1.524 . S
C4586 C4585 1.524 . S
C4586 C4587 1.397 . S
C4586 C4591 1.363 . S
C4587 H4558 0.950 . S
C4587 C4586 1.397 . S
C4587 C4588 1.334 . S
C4588 H4559 0.950 . S
C4588 C4587 1.334 . S
C4588 C4589 1.287 . S
C4589 C4588 1.287 . S
C4589 C4590 1.524 . S
C4589 H4592 0.999 . S
C4590 H4560 0.950 . S
C4590 C4589 1.524 . S
C4590 C4591 1.415 . S
C4591 H4561 0.950 . S
C4591 C4586 1.363 . S
C4591 C4590 1.415 . S
H4592 C4589 0.999 . S
H4593 C4574 0.913 . S
H4594 C4612 0.951 . S
H4595 C4614 0.951 . S
H4596 C4616 0.950 . S
H4597 C4617 0.950 . S
H4598 C4619 0.950 . S
H4599 C4622 0.950 . S
H4600 C4623 0.950 . S
H4601 C4625 0.950 . S
H4602 C4626 0.950 . S
H4603 C4627 0.951 . S
H4604 C4629 0.951 . S
H4605 C4631 0.950 . S
H4606 C4632 0.950 . S
H4607 C4634 0.950 . S
H4608 C4637 0.950 . S
H4609 C4638 0.950 . S
H4610 C4640 0.950 . S
H4611 C4641 0.950 . S
C4612 H4594 0.951 . S
C4612 C4613 1.366 . S
C4612 C4614 1.388 . S
C4613 C4612 1.366 . S
C4613 C4617 1.385 . S
C4614 H4595 0.951 . S
C4614 C4612 1.388 . S
C4614 C4615 1.366 . S
C4615 C4614 1.366 . S
C4615 C4616 1.414 . S
C4615 C4618 1.499 . S
C4616 H4596 0.950 . S
C4616 C4615 1.414 . S
C4616 C4617 1.374 . S
C4617 H4597 0.950 . S
C4617 C4613 1.385 . S
C4617 C4616 1.374 . S
C4618 C4615 1.499 . S
C4618 C4619 1.373 . S
C4618 C4620 1.389 . S
C4619 H4598 0.950 . S
C4619 C4618 1.373 . S
C4619 C4635 1.377 . S
C4620 C4618 1.389 . S
C4620 C4621 1.524 . S
C4620 C4634 1.377 . S
C4621 C4620 1.524 . S
C4621 C4622 1.397 . S
C4621 C4626 1.363 . S
C4622 H4599 0.950 . S
C4622 C4621 1.397 . S
C4622 C4623 1.334 . S
C4623 H4600 0.950 . S
C4623 C4622 1.334 . S
C4623 C4624 1.287 . S
C4624 C4623 1.287 . S
C4624 C4625 1.524 . S
C4624 H4643 0.913 . S
C4625 H4601 0.950 . S
C4625 C4624 1.524 . S
C4625 C4626 1.415 . S
C4626 H4602 0.950 . S
C4626 C4621 1.363 . S
C4626 C4625 1.415 . S
C4627 H4603 0.951 . S
C4627 C4628 1.366 . S
C4627 C4629 1.388 . S
C4628 C4627 1.366 . S
C4628 C4632 1.385 . S
C4629 H4604 0.951 . S
C4629 C4627 1.388 . S
C4629 C4630 1.366 . S
C4630 C4629 1.366 . S
C4630 C4631 1.414 . S
C4630 C4633 1.499 . S
C4631 H4605 0.950 . S
C4631 C4630 1.414 . S
C4631 C4632 1.374 . S
C4632 H4606 0.950 . S
C4632 C4628 1.385 . S
C4632 C4631 1.374 . S
C4633 C4630 1.499 . S
C4633 C4634 1.373 . S
C4633 C4635 1.389 . S
C4634 H4607 0.950 . S
C4634 C4620 1.377 . S
C4634 C4633 1.373 . S
C4635 C4619 1.377 . S
C4635 C4633 1.389 . S
C4635 C4636 1.524 . S
C4636 C4635 1.524 . S
C4636 C4637 1.397 . S
C4636 C4641 1.363 . S
C4637 H4608 0.950 . S
C4637 C4636 1.397 . S
C4637 C4638 1.334 . S
C4638 H4609 0.950 . S
C4638 C4637 1.334 . S
C4638 C4639 1.287 . S
C4639 C4638 1.287 . S
C4639 C4640 1.524 . S
C4639 H4642 0.999 . S
C4640 H4610 0.950 . S
C4640 C4639 1.524 . S
C4640 C4641 1.415 . S
C4641 H4611 0.950 . S
C4641 C4636 1.363 . S
C4641 C4640 1.415 . S
H4642 C4639 0.999 . S
H4643 C4624 0.913 . S
H4644 C4662 0.951 . S
H4645 C4664 0.951 . S
H4646 C4666 0.950 . S
H4647 C4667 0.950 . S
H4648 C4669 0.950 . S
H4649 C4672 0.950 . S
H4650 C4673 0.950 . S
H4651 C4675 0.950 . S
H4652 C4676 0.950 . S
H4653 C4677 0.951 . S
H4654 C4679 0.951 . S
H4655 C4681 0.950 . S
H4656 C4682 0.950 . S
H4657 C4684 0.950 . S
H4658 C4687 0.950 . S
H4659 C4688 0.950 . S
H4660 C4690 0.950 . S
H4661 C4691 0.950 . S
C4662 H4644 0.951 . S
C4662 C4663 1.366 . S
C4662 C4664 1.388 . S
C4663 C4662 1.366 . S
C4663 C4667 1.385 . S
C4664 H4645 0.951 . S
C4664 C4662 1.388 . S
C4664 C4665 1.366 . S
C4665 C4664 1.366 . S
C4665 C4666 1.414 . S
C4665 C4668 1.499 . S
C4666 H4646 0.950 . S
C4666 C4665 1.414 . S
C4666 C4667 1.374 . S
C4667 H4647 0.950 . S
C4667 C4663 1.385 . S
C4667 C4666 1.374 . S
C4668 C4665 1.499 . S
C4668 C4669 1.373 . S
C4668 C4670 1.389 . S
C4669 H4648 0.950 . S
C4669 C4668 1.373 . S
C4669 C4685 1.377 . S
C4670 C4668 1.389 . S
C4670 C4671 1.524 . S
C4670 C4684 1.377 . S
C4671 C4670 1.524 . S
C4671 C4672 1.397 . S
C4671 C4676 1.363 . S
C4672 H4649 0.950 . S
C4672 C4671 1.397 . S
C4672 C4673 1.334 . S
C4673 H4650 0.950 . S
C4673 C4672 1.334 . S
C4673 C4674 1.287 . S
C4674 C4673 1.287 . S
C4674 C4675 1.524 . S
C4674 H4693 0.913 . S
C4675 H4651 0.950 . S
C4675 C4674 1.524 . S
C4675 C4676 1.415 . S
C4676 H4652 0.950 . S
C4676 C4671 1.363 . S
C4676 C4675 1.415 . S
C4677 H4653 0.951 . S
C4677 C4678 1.366 . S
C4677 C4679 1.388 . S
C4678 C4677 1.366 . S
C4678 C4682 1.385 . S
C4679 H4654 0.951 . S
C4679 C4677 1.388 . S
C4679 C4680 1.366 . S
C4680 C4679 1.366 . S
C4680 C4681 1.414 . S
C4680 C4683 1.499 . S
C4681 H4655 0.950 . S
C4681 C4680 1.414 . S
C4681 C4682 1.374 . S
C4682 H4656 0.950 . S
C4682 C4678 1.385 . S
C4682 C4681 1.374 . S
C4683 C4680 1.499 . S
C4683 C4684 1.373 . S
C4683 C4685 1.389 . S
C4684 H4657 0.950 . S
C4684 C4670 1.377 . S
C4684 C4683 1.373 . S
C4685 C4669 1.377 . S
C4685 C4683 1.389 . S
C4685 C4686 1.524 . S
C4686 C4685 1.524 . S
C4686 C4687 1.397 . S
C4686 C4691 1.363 . S
C4687 H4658 0.950 . S
C4687 C4686 1.397 . S
C4687 C4688 1.334 . S
C4688 H4659 0.950 . S
C4688 C4687 1.334 . S
C4688 C4689 1.287 . S
C4689 C4688 1.287 . S
C4689 C4690 1.524 . S
C4689 H4692 0.999 . S
C4690 H4660 0.950 . S
C4690 C4689 1.524 . S
C4690 C4691 1.415 . S
C4691 H4661 0.950 . S
C4691 C4686 1.363 . S
C4691 C4690 1.415 . S
H4692 C4689 0.999 . S
H4693 C4674 0.913 . S
H4694 C4712 0.951 . S
H4695 C4714 0.951 . S
H4696 C4716 0.950 . S
H4697 C4717 0.950 . S
H4698 C4719 0.950 . S
H4699 C4722 0.950 . S
H4700 C4723 0.950 . S
H4701 C4725 0.950 . S
H4702 C4726 0.950 . S
H4703 C4727 0.951 . S
H4704 C4729 0.951 . S
H4705 C4731 0.950 . S
H4706 C4732 0.950 . S
H4707 C4734 0.950 . S
H4708 C4737 0.950 . S
H4709 C4738 0.950 . S
H4710 C4740 0.950 . S
H4711 C4741 0.950 . S
C4712 H4694 0.951 . S
C4712 C4713 1.366 . S
C4712 C4714 1.388 . S
C4713 C4712 1.366 . S
C4713 C4717 1.385 . S
C4714 H4695 0.951 . S
C4714 C4712 1.388 . S
C4714 C4715 1.366 . S
C4715 C4714 1.366 . S
C4715 C4716 1.414 . S
C4715 C4718 1.499 . S
C4716 H4696 0.950 . S
C4716 C4715 1.414 . S
C4716 C4717 1.374 . S
C4717 H4697 0.950 . S
C4717 C4713 1.385 . S
C4717 C4716 1.374 . S
C4718 C4715 1.499 . S
C4718 C4719 1.373 . S
C4718 C4720 1.389 . S
C4719 H4698 0.950 . S
C4719 C4718 1.373 . S
C4719 C4735 1.377 . S
C4720 C4718 1.389 . S
C4720 C4721 1.524 . S
C4720 C4734 1.377 . S
C4721 C4720 1.524 . S
C4721 C4722 1.397 . S
C4721 C4726 1.363 . S
C4722 H4699 0.950 . S
C4722 C4721 1.397 . S
C4722 C4723 1.334 . S
C4723 H4700 0.950 . S
C4723 C4722 1.334 . S
C4723 C4724 1.287 . S
C4724 C4723 1.287 . S
C4724 C4725 1.524 . S
C4724 H4743 0.913 . S
C4725 H4701 0.950 . S
C4725 C4724 1.524 . S
C4725 C4726 1.415 . S
C4726 H4702 0.950 . S
C4726 C4721 1.363 . S
C4726 C4725 1.415 . S
C4727 H4703 0.951 . S
C4727 C4728 1.366 . S
C4727 C4729 1.388 . S
C4728 C4727 1.366 . S
C4728 C4732 1.385 . S
C4729 H4704 0.951 . S
C4729 C4727 1.388 . S
C4729 C4730 1.366 . S
C4730 C4729 1.366 . S
C4730 C4731 1.414 . S
C4730 C4733 1.499 . S
C4731 H4705 0.950 . S
C4731 C4730 1.414 . S
C4731 C4732 1.374 . S
C4732 H4706 0.950 . S
C4732 C4728 1.385 . S
C4732 C4731 1.374 . S
C4733 C4730 1.499 . S
C4733 C4734 1.373 . S
C4733 C4735 1.389 . S
C4734 H4707 0.950 . S
C4734 C4720 1.377 . S
C4734 C4733 1.373 . S
C4735 C4719 1.377 . S
C4735 C4733 1.389 . S
C4735 C4736 1.524 . S
C4736 C4735 1.524 . S
C4736 C4737 1.397 . S
C4736 C4741 1.363 . S
C4737 H4708 0.950 . S
C4737 C4736 1.397 . S
C4737 C4738 1.334 . S
C4738 H4709 0.950 . S
C4738 C4737 1.334 . S
C4738 C4739 1.287 . S
C4739 C4738 1.287 . S
C4739 C4740 1.524 . S
C4739 H4742 0.999 . S
C4740 H4710 0.950 . S
C4740 C4739 1.524 . S
C4740 C4741 1.415 . S
C4741 H4711 0.950 . S
C4741 C4736 1.363 . S
C4741 C4740 1.415 . S
H4742 C4739 0.999 . S
H4743 C4724 0.913 . S
H4744 C4762 0.951 . S
H4745 C4764 0.951 . S
H4746 C4766 0.950 . S
H4747 C4767 0.950 . S
H4748 C4769 0.950 . S
H4749 C4772 0.950 . S
H4750 C4773 0.950 . S
H4751 C4775 0.950 . S
H4752 C4776 0.950 . S
H4753 C4777 0.951 . S
H4754 C4779 0.951 . S
H4755 C4781 0.950 . S
H4756 C4782 0.950 . S
H4757 C4784 0.950 . S
H4758 C4787 0.950 . S
H4759 C4788 0.950 . S
H4760 C4790 0.950 . S
H4761 C4791 0.950 . S
C4762 H4744 0.951 . S
C4762 C4763 1.366 . S
C4762 C4764 1.388 . S
C4763 C4762 1.366 . S
C4763 C4767 1.385 . S
C4764 H4745 0.951 . S
C4764 C4762 1.388 . S
C4764 C4765 1.366 . S
C4765 C4764 1.366 . S
C4765 C4766 1.414 . S
C4765 C4768 1.499 . S
C4766 H4746 0.950 . S
C4766 C4765 1.414 . S
C4766 C4767 1.374 . S
C4767 H4747 0.950 . S
C4767 C4763 1.385 . S
C4767 C4766 1.374 . S
C4768 C4765 1.499 . S
C4768 C4769 1.373 . S
C4768 C4770 1.389 . S
C4769 H4748 0.950 . S
C4769 C4768 1.373 . S
C4769 C4785 1.377 . S
C4770 C4768 1.389 . S
C4770 C4771 1.524 . S
C4770 C4784 1.377 . S
C4771 C4770 1.524 . S
C4771 C4772 1.397 . S
C4771 C4776 1.363 . S
C4772 H4749 0.950 . S
C4772 C4771 1.397 . S
C4772 C4773 1.334 . S
C4773 H4750 0.950 . S
C4773 C4772 1.334 . S
C4773 C4774 1.287 . S
C4774 C4773 1.287 . S
C4774 C4775 1.524 . S
C4774 H4793 0.913 . S
C4775 H4751 0.950 . S
C4775 C4774 1.524 . S
C4775 C4776 1.415 . S
C4776 H4752 0.950 . S
C4776 C4771 1.363 . S
C4776 C4775 1.415 . S
C4777 H4753 0.951 . S
C4777 C4778 1.366 . S
C4777 C4779 1.388 . S
C4778 C4777 1.366 . S
C4778 C4782 1.385 . S
C4779 H4754 0.951 . S
C4779 C4777 1.388 . S
C4779 C4780 1.366 . S
C4780 C4779 1.366 . S
C4780 C4781 1.414 . S
C4780 C4783 1.499 . S
C4781 H4755 0.950 . S
C4781 C4780 1.414 . S
C4781 C4782 1.374 . S
C4782 H4756 0.950 . S
C4782 C4778 1.385 . S
C4782 C4781 1.374 . S
C4783 C4780 1.499 . S
C4783 C4784 1.373 . S
C4783 C4785 1.389 . S
C4784 H4757 0.950 . S
C4784 C4770 1.377 . S
C4784 C4783 1.373 . S
C4785 C4769 1.377 . S
C4785 C4783 1.389 . S
C4785 C4786 1.524 . S
C4786 C4785 1.524 . S
C4786 C4787 1.397 . S
C4786 C4791 1.363 . S
C4787 H4758 0.950 . S
C4787 C4786 1.397 . S
C4787 C4788 1.334 . S
C4788 H4759 0.950 . S
C4788 C4787 1.334 . S
C4788 C4789 1.287 . S
C4789 C4788 1.287 . S
C4789 C4790 1.524 . S
C4789 H4792 0.999 . S
C4790 H4760 0.950 . S
C4790 C4789 1.524 . S
C4790 C4791 1.415 . S
C4791 H4761 0.950 . S
C4791 C4786 1.363 . S
C4791 C4790 1.415 . S
H4792 C4789 0.999 . S
H4793 C4774 0.913 . S
H4794 C4812 0.951 . S
H4795 C4814 0.951 . S
H4796 C4816 0.950 . S
H4797 C4817 0.950 . S
H4798 C4819 0.950 . S
H4799 C4822 0.950 . S
H4800 C4823 0.950 . S
H4801 C4825 0.950 . S
H4802 C4826 0.950 . S
H4803 C4827 0.951 . S
H4804 C4829 0.951 . S
H4805 C4831 0.950 . S
H4806 C4832 0.950 . S
H4807 C4834 0.950 . S
H4808 C4837 0.950 . S
H4809 C4838 0.950 . S
H4810 C4840 0.950 . S
H4811 C4841 0.950 . S
C4812 H4794 0.951 . S
C4812 C4813 1.366 . S
C4812 C4814 1.388 . S
C4813 C4812 1.366 . S
C4813 C4817 1.385 . S
C4814 H4795 0.951 . S
C4814 C4812 1.388 . S
C4814 C4815 1.366 . S
C4815 C4814 1.366 . S
C4815 C4816 1.414 . S
C4815 C4818 1.499 . S
C4816 H4796 0.950 . S
C4816 C4815 1.414 . S
C4816 C4817 1.374 . S
C4817 H4797 0.950 . S
C4817 C4813 1.385 . S
C4817 C4816 1.374 . S
C4818 C4815 1.499 . S
C4818 C4819 1.373 . S
C4818 C4820 1.389 . S
C4819 H4798 0.950 . S
C4819 C4818 1.373 . S
C4819 C4835 1.377 . S
C4820 C4818 1.389 . S
C4820 C4821 1.524 . S
C4820 C4834 1.377 . S
C4821 C4820 1.524 . S
C4821 C4822 1.397 . S
C4821 C4826 1.363 . S
C4822 H4799 0.950 . S
C4822 C4821 1.397 . S
C4822 C4823 1.334 . S
C4823 H4800 0.950 . S
C4823 C4822 1.334 . S
C4823 C4824 1.287 . S
C4824 C4823 1.287 . S
C4824 C4825 1.524 . S
C4824 H4843 0.913 . S
C4825 H4801 0.950 . S
C4825 C4824 1.524 . S
C4825 C4826 1.415 . S
C4826 H4802 0.950 . S
C4826 C4821 1.363 . S
C4826 C4825 1.415 . S
C4827 H4803 0.951 . S
C4827 C4828 1.366 . S
C4827 C4829 1.388 . S
C4828 C4827 1.366 . S
C4828 C4832 1.385 . S
C4829 H4804 0.951 . S
C4829 C4827 1.388 . S
C4829 C4830 1.366 . S
C4830 C4829 1.366 . S
C4830 C4831 1.414 . S
C4830 C4833 1.499 . S
C4831 H4805 0.950 . S
C4831 C4830 1.414 . S
C4831 C4832 1.374 . S
C4832 H4806 0.950 . S
C4832 C4828 1.385 . S
C4832 C4831 1.374 . S
C4833 C4830 1.499 . S
C4833 C4834 1.373 . S
C4833 C4835 1.389 . S
C4834 H4807 0.950 . S
C4834 C4820 1.377 . S
C4834 C4833 1.373 . S
C4835 C4819 1.377 . S
C4835 C4833 1.389 . S
C4835 C4836 1.524 . S
C4836 C4835 1.524 . S
C4836 C4837 1.397 . S
C4836 C4841 1.363 . S
C4837 H4808 0.950 . S
C4837 C4836 1.397 . S
C4837 C4838 1.334 . S
C4838 H4809 0.950 . S
C4838 C4837 1.334 . S
C4838 C4839 1.287 . S
C4839 C4838 1.287 . S
C4839 C4840 1.524 . S
C4839 H4842 0.999 . S
C4840 H4810 0.950 . S
C4840 C4839 1.524 . S
C4840 C4841 1.415 . S
C4841 H4811 0.950 . S
C4841 C4836 1.363 . S
C4841 C4840 1.415 . S
H4842 C4839 0.999 . S
H4843 C4824 0.913 . S
H4844 C4862 0.951 . S
H4845 C4864 0.951 . S
H4846 C4866 0.950 . S
H4847 C4867 0.950 . S
H4848 C4869 0.950 . S
H4849 C4872 0.950 . S
H4850 C4873 0.950 . S
H4851 C4875 0.950 . S
H4852 C4876 0.950 . S
H4853 C4877 0.951 . S
H4854 C4879 0.951 . S
H4855 C4881 0.950 . S
H4856 C4882 0.950 . S
H4857 C4884 0.950 . S
H4858 C4887 0.950 . S
H4859 C4888 0.950 . S
H4860 C4890 0.950 . S
H4861 C4891 0.950 . S
C4862 H4844 0.951 . S
C4862 C4863 1.366 . S
C4862 C4864 1.388 . S
C4863 C4862 1.366 . S
C4863 C4867 1.385 . S
C4864 H4845 0.951 . S
C4864 C4862 1.388 . S
C4864 C4865 1.366 . S
C4865 C4864 1.366 . S
C4865 C4866 1.414 . S
C4865 C4868 1.499 . S
C4866 H4846 0.950 . S
C4866 C4865 1.414 . S
C4866 C4867 1.374 . S
C4867 H4847 0.950 . S
C4867 C4863 1.385 . S
C4867 C4866 1.374 . S
C4868 C4865 1.499 . S
C4868 C4869 1.373 . S
C4868 C4870 1.389 . S
C4869 H4848 0.950 . S
C4869 C4868 1.373 . S
C4869 C4885 1.377 . S
C4870 C4868 1.389 . S
C4870 C4871 1.524 . S
C4870 C4884 1.377 . S
C4871 C4870 1.524 . S
C4871 C4872 1.397 . S
C4871 C4876 1.363 . S
C4872 H4849 0.950 . S
C4872 C4871 1.397 . S
C4872 C4873 1.334 . S
C4873 H4850 0.950 . S
C4873 C4872 1.334 . S
C4873 C4874 1.287 . S
C4874 C4873 1.287 . S
C4874 C4875 1.524 . S
C4874 H4893 0.913 . S
C4875 H4851 0.950 . S
C4875 C4874 1.524 . S
C4875 C4876 1.415 . S
C4876 H4852 0.950 . S
C4876 C4871 1.363 . S
C4876 C4875 1.415 . S
C4877 H4853 0.951 . S
C4877 C4878 1.366 . S
C4877 C4879 1.388 . S
C4878 C4877 1.366 . S
C4878 C4882 1.385 . S
C4879 H4854 0.951 . S
C4879 C4877 1.388 . S
C4879 C4880 1.366 . S
C4880 C4879 1.366 . S
C4880 C4881 1.414 . S
C4880 C4883 1.499 . S
C4881 H4855 0.950 . S
C4881 C4880 1.414 . S
C4881 C4882 1.374 . S
C4882 H4856 0.950 . S
C4882 C4878 1.385 . S
C4882 C4881 1.374 . S
C4883 C4880 1.499 . S
C4883 C4884 1.373 . S
C4883 C4885 1.389 . S
C4884 H4857 0.950 . S
C4884 C4870 1.377 . S
C4884 C4883 1.373 . S
C4885 C4869 1.377 . S
C4885 C4883 1.389 . S
C4885 C4886 1.524 . S
C4886 C4885 1.524 . S
C4886 C4887 1.397 . S
C4886 C4891 1.363 . S
C4887 H4858 0.950 . S
C4887 C4886 1.397 . S
C4887 C4888 1.334 . S
C4888 H4859 0.950 . S
C4888 C4887 1.334 . S
C4888 C4889 1.287 . S
C4889 C4888 1.287 . S
C4889 C4890 1.524 . S
C4889 H4892 0.999 . S
C4890 H4860 0.950 . S
C4890 C4889 1.524 . S
C4890 C4891 1.415 . S
C4891 H4861 0.950 . S
C4891 C4886 1.363 . S
C4891 C4890 1.415 . S
H4892 C4889 0.999 . S
H4893 C4874 0.913 . S
H4894 C4912 0.951 . S
H4895 C4914 0.951 . S
H4896 C4916 0.950 . S
H4897 C4917 0.950 . S
H4898 C4919 0.950 . S
H4899 C4922 0.950 . S
H4900 C4923 0.950 . S
H4901 C4925 0.950 . S
H4902 C4926 0.950 . S
H4903 C4927 0.951 . S
H4904 C4929 0.951 . S
H4905 C4931 0.950 . S
H4906 C4932 0.950 . S
H4907 C4934 0.950 . S
H4908 C4937 0.950 . S
H4909 C4938 0.950 . S
H4910 C4940 0.950 . S
H4911 C4941 0.950 . S
C4912 H4894 0.951 . S
C4912 C4913 1.366 . S
C4912 C4914 1.388 . S
C4913 C4912 1.366 . S
C4913 C4917 1.385 . S
C4914 H4895 0.951 . S
C4914 C4912 1.388 . S
C4914 C4915 1.366 . S
C4915 C4914 1.366 . S
C4915 C4916 1.414 . S
C4915 C4918 1.499 . S
C4916 H4896 0.950 . S
C4916 C4915 1.414 . S
C4916 C4917 1.374 . S
C4917 H4897 0.950 . S
C4917 C4913 1.385 . S
C4917 C4916 1.374 . S
C4918 C4915 1.499 . S
C4918 C4919 1.373 . S
C4918 C4920 1.389 . S
C4919 H4898 0.950 . S
C4919 C4918 1.373 . S
C4919 C4935 1.377 . S
C4920 C4918 1.389 . S
C4920 C4921 1.524 . S
C4920 C4934 1.377 . S
C4921 C4920 1.524 . S
C4921 C4922 1.397 . S
C4921 C4926 1.363 . S
C4922 H4899 0.950 . S
C4922 C4921 1.397 . S
C4922 C4923 1.334 . S
C4923 H4900 0.950 . S
C4923 C4922 1.334 . S
C4923 C4924 1.287 . S
C4924 C4923 1.287 . S
C4924 C4925 1.524 . S
C4924 H4943 0.913 . S
C4925 H4901 0.950 . S
C4925 C4924 1.524 . S
C4925 C4926 1.415 . S
C4926 H4902 0.950 . S
C4926 C4921 1.363 . S
C4926 C4925 1.415 . S
C4927 H4903 0.951 . S
C4927 C4928 1.366 . S
C4927 C4929 1.388 . S
C4928 C4927 1.366 . S
C4928 C4932 1.385 . S
C4929 H4904 0.951 . S
C4929 C4927 1.388 . S
C4929 C4930 1.366 . S
C4930 C4929 1.366 . S
C4930 C4931 1.414 . S
C4930 C4933 1.499 . S
C4931 H4905 0.950 . S
C4931 C4930 1.414 . S
C4931 C4932 1.374 . S
C4932 H4906 0.950 . S
C4932 C4928 1.385 . S
C4932 C4931 1.374 . S
C4933 C4930 1.499 . S
C4933 C4934 1.373 . S
C4933 C4935 1.389 . S
C4934 H4907 0.950 . S
C4934 C4920 1.377 . S
C4934 C4933 1.373 . S
C4935 C4919 1.377 . S
C4935 C4933 1.389 . S
C4935 C4936 1.524 . S
C4936 C4935 1.524 . S
C4936 C4937 1.397 . S
C4936 C4941 1.363 . S
C4937 H4908 0.950 . S
C4937 C4936 1.397 . S
C4937 C4938 1.334 . S
C4938 H4909 0.950 . S
C4938 C4937 1.334 . S
C4938 C4939 1.287 . S
C4939 C4938 1.287 . S
C4939 C4940 1.524 . S
C4939 H4942 0.999 . S
C4940 H4910 0.950 . S
C4940 C4939 1.524 . S
C4940 C4941 1.415 . S
C4941 H4911 0.950 . S
C4941 C4936 1.363 . S
C4941 C4940 1.415 . S
H4942 C4939 0.999 . S
H4943 C4924 0.913 . S
H4944 C4962 0.951 . S
H4945 C4964 0.951 . S
H4946 C4966 0.950 . S
H4947 C4967 0.950 . S
H4948 C4969 0.950 . S
H4949 C4972 0.950 . S
H4950 C4973 0.950 . S
H4951 C4975 0.950 . S
H4952 C4976 0.950 . S
H4953 C4977 0.951 . S
H4954 C4979 0.951 . S
H4955 C4981 0.950 . S
H4956 C4982 0.950 . S
H4957 C4984 0.950 . S
H4958 C4987 0.950 . S
H4959 C4988 0.950 . S
H4960 C4990 0.950 . S
H4961 C4991 0.950 . S
C4962 H4944 0.951 . S
C4962 C4963 1.366 . S
C4962 C4964 1.388 . S
C4963 C4962 1.366 . S
C4963 C4967 1.385 . S
C4964 H4945 0.951 . S
C4964 C4962 1.388 . S
C4964 C4965 1.366 . S
C4965 C4964 1.366 . S
C4965 C4966 1.414 . S
C4965 C4968 1.499 . S
C4966 H4946 0.950 . S
C4966 C4965 1.414 . S
C4966 C4967 1.374 . S
C4967 H4947 0.950 . S
C4967 C4963 1.385 . S
C4967 C4966 1.374 . S
C4968 C4965 1.499 . S
C4968 C4969 1.373 . S
C4968 C4970 1.389 . S
C4969 H4948 0.950 . S
C4969 C4968 1.373 . S
C4969 C4985 1.377 . S
C4970 C4968 1.389 . S
C4970 C4971 1.524 . S
C4970 C4984 1.377 . S
C4971 C4970 1.524 . S
C4971 C4972 1.397 . S
C4971 C4976 1.363 . S
C4972 H4949 0.950 . S
C4972 C4971 1.397 . S
C4972 C4973 1.334 . S
C4973 H4950 0.950 . S
C4973 C4972 1.334 . S
C4973 C4974 1.287 . S
C4974 C4973 1.287 . S
C4974 C4975 1.524 . S
C4974 H4993 0.913 . S
C4975 H4951 0.950 . S
C4975 C4974 1.524 . S
C4975 C4976 1.415 . S
C4976 H4952 0.950 . S
C4976 C4971 1.363 . S
C4976 C4975 1.415 . S
C4977 H4953 0.951 . S
C4977 C4978 1.366 . S
C4977 C4979 1.388 . S
C4978 C4977 1.366 . S
C4978 C4982 1.385 . S
C4979 H4954 0.951 . S
C4979 C4977 1.388 . S
C4979 C4980 1.366 . S
C4980 C4979 1.366 . S
C4980 C4981 1.414 . S
C4980 C4983 1.499 . S
C4981 H4955 0.950 . S
C4981 C4980 1.414 . S
C4981 C4982 1.374 . S
C4982 H4956 0.950 . S
C4982 C4978 1.385 . S
C4982 C4981 1.374 . S
C4983 C4980 1.499 . S
C4983 C4984 1.373 . S
C4983 C4985 1.389 . S
C4984 H4957 0.950 . S
C4984 C4970 1.377 . S
C4984 C4983 1.373 . S
C4985 C4969 1.377 . S
C4985 C4983 1.389 . S
C4985 C4986 1.524 . S
C4986 C4985 1.524 . S
C4986 C4987 1.397 . S
C4986 C4991 1.363 . S
C4987 H4958 0.950 . S
C4987 C4986 1.397 . S
C4987 C4988 1.334 . S
C4988 H4959 0.950 . S
C4988 C4987 1.334 . S
C4988 C4989 1.287 . S
C4989 C4988 1.287 . S
C4989 C4990 1.524 . S
C4989 H4992 0.999 . S
C4990 H4960 0.950 . S
C4990 C4989 1.524 . S
C4990 C4991 1.415 . S
C4991 H4961 0.950 . S
C4991 C4986 1.363 . S
C4991 C4990 1.415 . S
H4992 C4989 0.999 . S
H4993 C4974 0.913 . S
H4994 C5012 0.951 . S
H4995 C5014 0.951 . S
H4996 C5016 0.950 . S
H4997 C5017 0.950 . S
H4998 C5019 0.950 . S
H4999 C5022 0.950 . S
H5000 C5023 0.950 . S
H5001 C5025 0.950 . S
H5002 C5026 0.950 . S
H5003 C5027 0.951 . S
H5004 C5029 0.951 . S
H5005 C5031 0.950 . S
H5006 C5032 0.950 . S
H5007 C5034 0.950 . S
H5008 C5037 0.950 . S
H5009 C5038 0.950 . S
H5010 C5040 0.950 . S
H5011 C5041 0.950 . S
C5012 H4994 0.951 . S
C5012 C5013 1.366 . S
C5012 C5014 1.388 . S
C5013 C5012 1.366 . S
C5013 C5017 1.385 . S
C5014 H4995 0.951 . S
C5014 C5012 1.388 . S
C5014 C5015 1.366 . S
C5015 C5014 1.366 . S
C5015 C5016 1.414 . S
C5015 C5018 1.499 . S
C5016 H4996 0.950 . S
C5016 C5015 1.414 . S
C5016 C5017 1.374 . S
C5017 H4997 0.950 . S
C5017 C5013 1.385 . S
C5017 C5016 1.374 . S
C5018 C5015 1.499 . S
C5018 C5019 1.373 . S
C5018 C5020 1.389 . S
C5019 H4998 0.950 . S
C5019 C5018 1.373 . S
C5019 C5035 1.377 . S
C5020 C5018 1.389 . S
C5020 C5021 1.524 . S
C5020 C5034 1.377 . S
C5021 C5020 1.524 . S
C5021 C5022 1.397 . S
C5021 C5026 1.363 . S
C5022 H4999 0.950 . S
C5022 C5021 1.397 . S
C5022 C5023 1.334 . S
C5023 H5000 0.950 . S
C5023 C5022 1.334 . S
C5023 C5024 1.287 . S
C5024 C5023 1.287 . S
C5024 C5025 1.524 . S
C5024 H5043 0.913 . S
C5025 H5001 0.950 . S
C5025 C5024 1.524 . S
C5025 C5026 1.415 . S
C5026 H5002 0.950 . S
C5026 C5021 1.363 . S
C5026 C5025 1.415 . S
C5027 H5003 0.951 . S
C5027 C5028 1.366 . S
C5027 C5029 1.388 . S
C5028 C5027 1.366 . S
C5028 C5032 1.385 . S
C5029 H5004 0.951 . S
C5029 C5027 1.388 . S
C5029 C5030 1.366 . S
C5030 C5029 1.366 . S
C5030 C5031 1.414 . S
C5030 C5033 1.499 . S
C5031 H5005 0.950 . S
C5031 C5030 1.414 . S
C5031 C5032 1.374 . S
C5032 H5006 0.950 . S
C5032 C5028 1.385 . S
C5032 C5031 1.374 . S
C5033 C5030 1.499 . S
C5033 C5034 1.373 . S
C5033 C5035 1.389 . S
C5034 H5007 0.950 . S
C5034 C5020 1.377 . S
C5034 C5033 1.373 . S
C5035 C5019 1.377 . S
C5035 C5033 1.389 . S
C5035 C5036 1.524 . S
C5036 C5035 1.524 . S
C5036 C5037 1.397 . S
C5036 C5041 1.363 . S
C5037 H5008 0.950 . S
C5037 C5036 1.397 . S
C5037 C5038 1.334 . S
C5038 H5009 0.950 . S
C5038 C5037 1.334 . S
C5038 C5039 1.287 . S
C5039 C5038 1.287 . S
C5039 C5040 1.524 . S
C5039 H5042 0.999 . S
C5040 H5010 0.950 . S
C5040 C5039 1.524 . S
C5040 C5041 1.415 . S
C5041 H5011 0.950 . S
C5041 C5036 1.363 . S
C5041 C5040 1.415 . S
H5042 C5039 0.999 . S
H5043 C5024 0.913 . S
H5044 C5062 0.951 . S
H5045 C5064 0.951 . S
H5046 C5066 0.950 . S
H5047 C5067 0.950 . S
H5048 C5069 0.950 . S
H5049 C5072 0.950 . S
H5050 C5073 0.950 . S
H5051 C5075 0.950 . S
H5052 C5076 0.950 . S
H5053 C5077 0.951 . S
H5054 C5079 0.951 . S
H5055 C5081 0.950 . S
H5056 C5082 0.950 . S
H5057 C5084 0.950 . S
H5058 C5087 0.950 . S
H5059 C5088 0.950 . S
H5060 C5090 0.950 . S
H5061 C5091 0.950 . S
C5062 H5044 0.951 . S
C5062 C5063 1.366 . S
C5062 C5064 1.388 . S
C5063 C5062 1.366 . S
C5063 C5067 1.385 . S
C5064 H5045 0.951 . S
C5064 C5062 1.388 . S
C5064 C5065 1.366 . S
C5065 C5064 1.366 . S
C5065 C5066 1.414 . S
C5065 C5068 1.499 . S
C5066 H5046 0.950 . S
C5066 C5065 1.414 . S
C5066 C5067 1.374 . S
C5067 H5047 0.950 . S
C5067 C5063 1.385 . S
C5067 C5066 1.374 . S
C5068 C5065 1.499 . S
C5068 C5069 1.373 . S
C5068 C5070 1.389 . S
C5069 H5048 0.950 . S
C5069 C5068 1.373 . S
C5069 C5085 1.377 . S
C5070 C5068 1.389 . S
C5070 C5071 1.524 . S
C5070 C5084 1.377 . S
C5071 C5070 1.524 . S
C5071 C5072 1.397 . S
C5071 C5076 1.363 . S
C5072 H5049 0.950 . S
C5072 C5071 1.397 . S
C5072 C5073 1.334 . S
C5073 H5050 0.950 . S
C5073 C5072 1.334 . S
C5073 C5074 1.287 . S
C5074 C5073 1.287 . S
C5074 C5075 1.524 . S
C5074 H5093 0.913 . S
C5075 H5051 0.950 . S
C5075 C5074 1.524 . S
C5075 C5076 1.415 . S
C5076 H5052 0.950 . S
C5076 C5071 1.363 . S
C5076 C5075 1.415 . S
C5077 H5053 0.951 . S
C5077 C5078 1.366 . S
C5077 C5079 1.388 . S
C5078 C5077 1.366 . S
C5078 C5082 1.385 . S
C5079 H5054 0.951 . S
C5079 C5077 1.388 . S
C5079 C5080 1.366 . S
C5080 C5079 1.366 . S
C5080 C5081 1.414 . S
C5080 C5083 1.499 . S
C5081 H5055 0.950 . S
C5081 C5080 1.414 . S
C5081 C5082 1.374 . S
C5082 H5056 0.950 . S
C5082 C5078 1.385 . S
C5082 C5081 1.374 . S
C5083 C5080 1.499 . S
C5083 C5084 1.373 . S
C5083 C5085 1.389 . S
C5084 H5057 0.950 . S
C5084 C5070 1.377 . S
C5084 C5083 1.373 . S
C5085 C5069 1.377 . S
C5085 C5083 1.389 . S
C5085 C5086 1.524 . S
C5086 C5085 1.524 . S
C5086 C5087 1.397 . S
C5086 C5091 1.363 . S
C5087 H5058 0.950 . S
C5087 C5086 1.397 . S
C5087 C5088 1.334 . S
C5088 H5059 0.950 . S
C5088 C5087 1.334 . S
C5088 C5089 1.287 . S
C5089 C5088 1.287 . S
C5089 C5090 1.524 . S
C5089 H5092 0.999 . S
C5090 H5060 0.950 . S
C5090 C5089 1.524 . S
C5090 C5091 1.415 . S
C5091 H5061 0.950 . S
C5091 C5086 1.363 . S
C5091 C5090 1.415 . S
H5092 C5089 0.999 . S
H5093 C5074 0.913 . S
H5094 C5112 0.951 . S
H5095 C5114 0.951 . S
H5096 C5116 0.950 . S
H5097 C5117 0.950 . S
H5098 C5119 0.950 . S
H5099 C5122 0.950 . S
H5100 C5123 0.950 . S
H5101 C5125 0.950 . S
H5102 C5126 0.950 . S
H5103 C5127 0.951 . S
H5104 C5129 0.951 . S
H5105 C5131 0.950 . S
H5106 C5132 0.950 . S
H5107 C5134 0.950 . S
H5108 C5137 0.950 . S
H5109 C5138 0.950 . S
H5110 C5140 0.950 . S
H5111 C5141 0.950 . S
C5112 H5094 0.951 . S
C5112 C5113 1.366 . S
C5112 C5114 1.388 . S
C5113 C5112 1.366 . S
C5113 C5117 1.385 . S
C5114 H5095 0.951 . S
C5114 C5112 1.388 . S
C5114 C5115 1.366 . S
C5115 C5114 1.366 . S
C5115 C5116 1.414 . S
C5115 C5118 1.499 . S
C5116 H5096 0.950 . S
C5116 C5115 1.414 . S
C5116 C5117 1.374 . S
C5117 H5097 0.950 . S
C5117 C5113 1.385 . S
C5117 C5116 1.374 . S
C5118 C5115 1.499 . S
C5118 C5119 1.373 . S
C5118 C5120 1.389 . S
C5119 H5098 0.950 . S
C5119 C5118 1.373 . S
C5119 C5135 1.377 . S
C5120 C5118 1.389 . S
C5120 C5121 1.524 . S
C5120 C5134 1.377 . S
C5121 C5120 1.524 . S
C5121 C5122 1.397 . S
C5121 C5126 1.363 . S
C5122 H5099 0.950 . S
C5122 C5121 1.397 . S
C5122 C5123 1.334 . S
C5123 H5100 0.950 . S
C5123 C5122 1.334 . S
C5123 C5124 1.287 . S
C5124 C5123 1.287 . S
C5124 C5125 1.524 . S
C5124 H5143 0.913 . S
C5125 H5101 0.950 . S
C5125 C5124 1.524 . S
C5125 C5126 1.415 . S
C5126 H5102 0.950 . S
C5126 C5121 1.363 . S
C5126 C5125 1.415 . S
C5127 H5103 0.951 . S
C5127 C5128 1.366 . S
C5127 C5129 1.388 . S
C5128 C5127 1.366 . S
C5128 C5132 1.385 . S
C5129 H5104 0.951 . S
C5129 C5127 1.388 . S
C5129 C5130 1.366 . S
C5130 C5129 1.366 . S
C5130 C5131 1.414 . S
C5130 C5133 1.499 . S
C5131 H5105 0.950 . S
C5131 C5130 1.414 . S
C5131 C5132 1.374 . S
C5132 H5106 0.950 . S
C5132 C5128 1.385 . S
C5132 C5131 1.374 . S
C5133 C5130 1.499 . S
C5133 C5134 1.373 . S
C5133 C5135 1.389 . S
C5134 H5107 0.950 . S
C5134 C5120 1.377 . S
C5134 C5133 1.373 . S
C5135 C5119 1.377 . S
C5135 C5133 1.389 . S
C5135 C5136 1.524 . S
C5136 C5135 1.524 . S
C5136 C5137 1.397 . S
C5136 C5141 1.363 . S
C5137 H5108 0.950 . S
C5137 C5136 1.397 . S
C5137 C5138 1.334 . S
C5138 H5109 0.950 . S
C5138 C5137 1.334 . S
C5138 C5139 1.287 . S
C5139 C5138 1.287 . S
C5139 C5140 1.524 . S
C5139 H5142 0.999 . S
C5140 H5110 0.950 . S
C5140 C5139 1.524 . S
C5140 C5141 1.415 . S
C5141 H5111 0.950 . S
C5141 C5136 1.363 . S
C5141 C5140 1.415 . S
H5142 C5139 0.999 . S
H5143 C5124 0.913 . S
H5144 C5162 0.951 . S
H5145 C5164 0.951 . S
H5146 C5166 0.950 . S
H5147 C5167 0.950 . S
H5148 C5169 0.950 . S
H5149 C5172 0.950 . S
H5150 C5173 0.950 1_545 S
H5151 C5175 0.950 . S
H5152 C5176 0.950 . S
H5153 C5177 0.951 . S
H5154 C5179 0.951 . S
H5155 C5181 0.950 . S
H5156 C5182 0.950 . S
H5157 C5184 0.950 . S
H5158 C5187 0.950 . S
H5159 C5188 0.950 . S
H5160 C5190 0.950 . S
H5161 C5191 0.950 . S
C5162 H5144 0.951 . S
C5162 C5163 1.366 . S
C5162 C5164 1.388 . S
C5163 C5162 1.366 . S
C5163 C5167 1.385 . S
C5164 H5145 0.951 . S
C5164 C5162 1.388 . S
C5164 C5165 1.366 . S
C5165 C5164 1.366 . S
C5165 C5166 1.414 . S
C5165 C5168 1.499 . S
C5166 H5146 0.950 . S
C5166 C5165 1.414 . S
C5166 C5167 1.374 . S
C5167 H5147 0.950 . S
C5167 C5163 1.385 . S
C5167 C5166 1.374 . S
C5168 C5165 1.499 . S
C5168 C5169 1.373 . S
C5168 C5170 1.389 . S
C5169 H5148 0.950 . S
C5169 C5168 1.373 . S
C5169 C5185 1.377 . S
C5170 C5168 1.389 . S
C5170 C5171 1.524 . S
C5170 C5184 1.377 . S
C5171 C5170 1.524 . S
C5171 C5172 1.397 . S
C5171 C5176 1.363 . S
C5172 H5149 0.950 . S
C5172 C5171 1.397 . S
C5172 C5173 1.334 . S
C5173 H5150 0.950 1_565 S
C5173 C5172 1.334 . S
C5173 C5174 1.268 1_565 S
C5174 C5173 1.268 1_545 S
C5174 C5175 1.457 1_545 S
C5174 H5193 1.016 . S
C5175 H5151 0.950 . S
C5175 C5174 1.457 1_565 S
C5175 C5176 1.415 . S
C5176 H5152 0.950 . S
C5176 C5171 1.363 . S
C5176 C5175 1.415 . S
C5177 H5153 0.951 . S
C5177 C5178 1.366 . S
C5177 C5179 1.388 . S
C5178 C5177 1.366 . S
C5178 C5182 1.385 . S
C5179 H5154 0.951 . S
C5179 C5177 1.388 . S
C5179 C5180 1.366 . S
C5180 C5179 1.366 . S
C5180 C5181 1.414 . S
C5180 C5183 1.499 . S
C5181 H5155 0.950 . S
C5181 C5180 1.414 . S
C5181 C5182 1.374 . S
C5182 H5156 0.950 . S
C5182 C5178 1.385 . S
C5182 C5181 1.374 . S
C5183 C5180 1.499 . S
C5183 C5184 1.373 . S
C5183 C5185 1.389 . S
C5184 H5157 0.950 . S
C5184 C5170 1.377 . S
C5184 C5183 1.373 . S
C5185 C5169 1.377 . S
C5185 C5183 1.389 . S
C5185 C5186 1.524 . S
C5186 C5185 1.524 . S
C5186 C5187 1.397 . S
C5186 C5191 1.363 . S
C5187 H5158 0.950 . S
C5187 C5186 1.397 . S
C5187 C5188 1.334 . S
C5188 H5159 0.950 . S
C5188 C5187 1.334 . S
C5188 C5189 1.287 . S
C5189 C5188 1.287 . S
C5189 C5190 1.524 . S
C5189 H5192 0.999 . S
C5190 H5160 0.950 . S
C5190 C5189 1.524 . S
C5190 C5191 1.415 . S
C5191 H5161 0.950 . S
C5191 C5186 1.363 . S
C5191 C5190 1.415 . S
H5192 C5189 0.999 . S
H5193 C5174 1.016 . S
H5194 C5212 0.951 . S
H5195 C5214 0.951 . S
H5196 C5216 0.950 . S
H5197 C5217 0.950 . S
H5198 C5219 0.950 . S
H5199 C5222 0.950 . S
H5200 C5223 0.950 . S
H5201 C5225 0.950 . S
H5202 C5226 0.950 . S
H5203 C5227 0.951 . S
H5204 C5229 0.951 . S
H5205 C5231 0.950 . S
H5206 C5232 0.950 . S
H5207 C5234 0.950 . S
H5208 C5237 0.950 . S
H5209 C5238 0.950 . S
H5210 C5240 0.950 . S
H5211 C5241 0.950 . S
C5212 H5194 0.951 . S
C5212 C5213 1.366 . S
C5212 C5214 1.388 . S
C5213 C5212 1.366 . S
C5213 C5217 1.385 . S
C5214 H5195 0.951 . S
C5214 C5212 1.388 . S
C5214 C5215 1.366 . S
C5215 C5214 1.366 . S
C5215 C5216 1.414 . S
C5215 C5218 1.499 . S
C5216 H5196 0.950 . S
C5216 C5215 1.414 . S
C5216 C5217 1.374 . S
C5217 H5197 0.950 . S
C5217 C5213 1.385 . S
C5217 C5216 1.374 . S
C5218 C5215 1.499 . S
C5218 C5219 1.373 . S
C5218 C5220 1.389 . S
C5219 H5198 0.950 . S
C5219 C5218 1.373 . S
C5219 C5235 1.377 . S
C5220 C5218 1.389 . S
C5220 C5221 1.524 . S
C5220 C5234 1.377 . S
C5221 C5220 1.524 . S
C5221 C5222 1.397 . S
C5221 C5226 1.363 . S
C5222 H5199 0.950 . S
C5222 C5221 1.397 . S
C5222 C5223 1.334 . S
C5223 H5200 0.950 . S
C5223 C5222 1.334 . S
C5223 C5224 1.287 . S
C5224 C5223 1.287 . S
C5224 C5225 1.524 . S
C5224 H5243 0.913 . S
C5225 H5201 0.950 . S
C5225 C5224 1.524 . S
C5225 C5226 1.415 . S
C5226 H5202 0.950 . S
C5226 C5221 1.363 . S
C5226 C5225 1.415 . S
C5227 H5203 0.951 . S
C5227 C5228 1.366 . S
C5227 C5229 1.388 . S
C5228 C5227 1.366 . S
C5228 C5232 1.385 . S
C5229 H5204 0.951 . S
C5229 C5227 1.388 . S
C5229 C5230 1.366 . S
C5230 C5229 1.366 . S
C5230 C5231 1.414 . S
C5230 C5233 1.499 . S
C5231 H5205 0.950 . S
C5231 C5230 1.414 . S
C5231 C5232 1.374 . S
C5232 H5206 0.950 . S
C5232 C5228 1.385 . S
C5232 C5231 1.374 . S
C5233 C5230 1.499 . S
C5233 C5234 1.373 . S
C5233 C5235 1.389 . S
C5234 H5207 0.950 . S
C5234 C5220 1.377 . S
C5234 C5233 1.373 . S
C5235 C5219 1.377 . S
C5235 C5233 1.389 . S
C5235 C5236 1.524 . S
C5236 C5235 1.524 . S
C5236 C5237 1.397 . S
C5236 C5241 1.363 . S
C5237 H5208 0.950 . S
C5237 C5236 1.397 . S
C5237 C5238 1.334 . S
C5238 H5209 0.950 . S
C5238 C5237 1.334 . S
C5238 C5239 1.287 . S
C5239 C5238 1.287 . S
C5239 C5240 1.524 . S
C5239 H5242 0.999 . S
C5240 H5210 0.950 . S
C5240 C5239 1.524 . S
C5240 C5241 1.415 . S
C5241 H5211 0.950 . S
C5241 C5236 1.363 . S
C5241 C5240 1.415 . S
H5242 C5239 0.999 . S
H5243 C5224 0.913 . S
H5244 C5262 0.951 . S
H5245 C5264 0.951 . S
H5246 C5266 0.950 . S
H5247 C5267 0.950 . S
H5248 C5269 0.950 . S
H5249 C5272 0.950 . S
H5250 C5273 0.950 . S
H5251 C5275 0.950 . S
H5252 C5276 0.950 . S
H5253 C5277 0.951 . S
H5254 C5279 0.951 . S
H5255 C5281 0.950 . S
H5256 C5282 0.950 . S
H5257 C5284 0.950 . S
H5258 C5287 0.950 . S
H5259 C5288 0.950 . S
H5260 C5290 0.950 . S
H5261 C5291 0.950 . S
C5262 H5244 0.951 . S
C5262 C5263 1.366 . S
C5262 C5264 1.388 . S
C5263 C5262 1.366 . S
C5263 C5267 1.385 . S
C5264 H5245 0.951 . S
C5264 C5262 1.388 . S
C5264 C5265 1.366 . S
C5265 C5264 1.366 . S
C5265 C5266 1.414 . S
C5265 C5268 1.499 . S
C5266 H5246 0.950 . S
C5266 C5265 1.414 . S
C5266 C5267 1.374 . S
C5267 H5247 0.950 . S
C5267 C5263 1.385 . S
C5267 C5266 1.374 . S
C5268 C5265 1.499 . S
C5268 C5269 1.373 . S
C5268 C5270 1.389 . S
C5269 H5248 0.950 . S
C5269 C5268 1.373 . S
C5269 C5285 1.377 . S
C5270 C5268 1.389 . S
C5270 C5271 1.524 . S
C5270 C5284 1.377 . S
C5271 C5270 1.524 . S
C5271 C5272 1.397 . S
C5271 C5276 1.363 . S
C5272 H5249 0.950 . S
C5272 C5271 1.397 . S
C5272 C5273 1.334 . S
C5273 H5250 0.950 . S
C5273 C5272 1.334 . S
C5273 C5274 1.287 . S
C5274 C5273 1.287 . S
C5274 C5275 1.524 . S
C5274 H5293 0.913 . S
C5275 H5251 0.950 . S
C5275 C5274 1.524 . S
C5275 C5276 1.415 . S
C5276 H5252 0.950 . S
C5276 C5271 1.363 . S
C5276 C5275 1.415 . S
C5277 H5253 0.951 . S
C5277 C5278 1.366 . S
C5277 C5279 1.388 . S
C5278 C5277 1.366 . S
C5278 C5282 1.385 . S
C5279 H5254 0.951 . S
C5279 C5277 1.388 . S
C5279 C5280 1.366 . S
C5280 C5279 1.366 . S
C5280 C5281 1.414 . S
C5280 C5283 1.499 . S
C5281 H5255 0.950 . S
C5281 C5280 1.414 . S
C5281 C5282 1.374 . S
C5282 H5256 0.950 . S
C5282 C5278 1.385 . S
C5282 C5281 1.374 . S
C5283 C5280 1.499 . S
C5283 C5284 1.373 . S
C5283 C5285 1.389 . S
C5284 H5257 0.950 . S
C5284 C5270 1.377 . S
C5284 C5283 1.373 . S
C5285 C5269 1.377 . S
C5285 C5283 1.389 . S
C5285 C5286 1.524 . S
C5286 C5285 1.524 . S
C5286 C5287 1.397 . S
C5286 C5291 1.363 . S
C5287 H5258 0.950 . S
C5287 C5286 1.397 . S
C5287 C5288 1.334 . S
C5288 H5259 0.950 . S
C5288 C5287 1.334 . S
C5288 C5289 1.287 . S
C5289 C5288 1.287 . S
C5289 C5290 1.524 . S
C5289 H5292 0.999 . S
C5290 H5260 0.950 . S
C5290 C5289 1.524 . S
C5290 C5291 1.415 . S
C5291 H5261 0.950 . S
C5291 C5286 1.363 . S
C5291 C5290 1.415 . S
H5292 C5289 0.999 . S
H5293 C5274 0.913 . S
H5294 C5312 0.951 . S
H5295 C5314 0.951 . S
H5296 C5316 0.950 . S
H5297 C5317 0.950 . S
H5298 C5319 0.950 . S
H5299 C5322 0.950 . S
H5300 C5323 0.950 . S
H5301 C5325 0.950 . S
H5302 C5326 0.950 . S
H5303 C5327 0.951 . S
H5304 C5329 0.951 . S
H5305 C5331 0.950 . S
H5306 C5332 0.950 . S
H5307 C5334 0.950 . S
H5308 C5337 0.950 . S
H5309 C5338 0.950 . S
H5310 C5340 0.950 . S
H5311 C5341 0.950 . S
C5312 H5294 0.951 . S
C5312 C5313 1.366 . S
C5312 C5314 1.388 . S
C5313 C5312 1.366 . S
C5313 C5317 1.385 . S
C5314 H5295 0.951 . S
C5314 C5312 1.388 . S
C5314 C5315 1.366 . S
C5315 C5314 1.366 . S
C5315 C5316 1.414 . S
C5315 C5318 1.499 . S
C5316 H5296 0.950 . S
C5316 C5315 1.414 . S
C5316 C5317 1.374 . S
C5317 H5297 0.950 . S
C5317 C5313 1.385 . S
C5317 C5316 1.374 . S
C5318 C5315 1.499 . S
C5318 C5319 1.373 . S
C5318 C5320 1.389 . S
C5319 H5298 0.950 . S
C5319 C5318 1.373 . S
C5319 C5335 1.377 . S
C5320 C5318 1.389 . S
C5320 C5321 1.524 . S
C5320 C5334 1.377 . S
C5321 C5320 1.524 . S
C5321 C5322 1.397 . S
C5321 C5326 1.363 . S
C5322 H5299 0.950 . S
C5322 C5321 1.397 . S
C5322 C5323 1.334 . S
C5323 H5300 0.950 . S
C5323 C5322 1.334 . S
C5323 C5324 1.287 . S
C5324 C5323 1.287 . S
C5324 C5325 1.524 . S
C5324 H5343 0.913 . S
C5325 H5301 0.950 . S
C5325 C5324 1.524 . S
C5325 C5326 1.415 . S
C5326 H5302 0.950 . S
C5326 C5321 1.363 . S
C5326 C5325 1.415 . S
C5327 H5303 0.951 . S
C5327 C5328 1.366 . S
C5327 C5329 1.388 . S
C5328 C5327 1.366 . S
C5328 C5332 1.385 . S
C5329 H5304 0.951 . S
C5329 C5327 1.388 . S
C5329 C5330 1.366 . S
C5330 C5329 1.366 . S
C5330 C5331 1.414 . S
C5330 C5333 1.499 . S
C5331 H5305 0.950 . S
C5331 C5330 1.414 . S
C5331 C5332 1.374 . S
C5332 H5306 0.950 . S
C5332 C5328 1.385 . S
C5332 C5331 1.374 . S
C5333 C5330 1.499 . S
C5333 C5334 1.373 . S
C5333 C5335 1.389 . S
C5334 H5307 0.950 . S
C5334 C5320 1.377 . S
C5334 C5333 1.373 . S
C5335 C5319 1.377 . S
C5335 C5333 1.389 . S
C5335 C5336 1.524 . S
C5336 C5335 1.524 . S
C5336 C5337 1.397 . S
C5336 C5341 1.363 . S
C5337 H5308 0.950 . S
C5337 C5336 1.397 . S
C5337 C5338 1.334 . S
C5338 H5309 0.950 . S
C5338 C5337 1.334 . S
C5338 C5339 1.287 . S
C5339 C5338 1.287 . S
C5339 C5340 1.524 . S
C5339 H5342 0.999 . S
C5340 H5310 0.950 . S
C5340 C5339 1.524 . S
C5340 C5341 1.415 . S
C5341 H5311 0.950 . S
C5341 C5336 1.363 . S
C5341 C5340 1.415 . S
H5342 C5339 0.999 . S
H5343 C5324 0.913 . S
H5344 C5362 0.951 . S
H5345 C5364 0.951 . S
H5346 C5366 0.950 . S
H5347 C5367 0.950 . S
H5348 C5369 0.950 . S
H5349 C5372 0.950 . S
H5350 C5373 0.950 . S
H5351 C5375 0.950 . S
H5352 C5376 0.950 . S
H5353 C5377 0.951 . S
H5354 C5379 0.951 . S
H5355 C5381 0.950 . S
H5356 C5382 0.950 . S
H5357 C5384 0.950 . S
H5358 C5387 0.950 . S
H5359 C5388 0.950 . S
H5360 C5390 0.950 . S
H5361 C5391 0.950 . S
C5362 H5344 0.951 . S
C5362 C5363 1.366 . S
C5362 C5364 1.388 . S
C5363 C5362 1.366 . S
C5363 C5367 1.385 . S
C5364 H5345 0.951 . S
C5364 C5362 1.388 . S
C5364 C5365 1.366 . S
C5365 C5364 1.366 . S
C5365 C5366 1.414 . S
C5365 C5368 1.499 . S
C5366 H5346 0.950 . S
C5366 C5365 1.414 . S
C5366 C5367 1.374 . S
C5367 H5347 0.950 . S
C5367 C5363 1.385 . S
C5367 C5366 1.374 . S
C5368 C5365 1.499 . S
C5368 C5369 1.373 . S
C5368 C5370 1.389 . S
C5369 H5348 0.950 . S
C5369 C5368 1.373 . S
C5369 C5385 1.377 . S
C5370 C5368 1.389 . S
C5370 C5371 1.524 . S
C5370 C5384 1.377 . S
C5371 C5370 1.524 . S
C5371 C5372 1.397 . S
C5371 C5376 1.363 . S
C5372 H5349 0.950 . S
C5372 C5371 1.397 . S
C5372 C5373 1.334 . S
C5373 H5350 0.950 . S
C5373 C5372 1.334 . S
C5373 C5374 1.287 . S
C5374 C5373 1.287 . S
C5374 C5375 1.524 . S
C5374 H5393 0.913 . S
C5375 H5351 0.950 . S
C5375 C5374 1.524 . S
C5375 C5376 1.415 . S
C5376 H5352 0.950 . S
C5376 C5371 1.363 . S
C5376 C5375 1.415 . S
C5377 H5353 0.951 . S
C5377 C5378 1.366 . S
C5377 C5379 1.388 . S
C5378 C5377 1.366 . S
C5378 C5382 1.385 . S
C5379 H5354 0.951 . S
C5379 C5377 1.388 . S
C5379 C5380 1.366 . S
C5380 C5379 1.366 . S
C5380 C5381 1.414 . S
C5380 C5383 1.499 . S
C5381 H5355 0.950 . S
C5381 C5380 1.414 . S
C5381 C5382 1.374 . S
C5382 H5356 0.950 . S
C5382 C5378 1.385 . S
C5382 C5381 1.374 . S
C5383 C5380 1.499 . S
C5383 C5384 1.373 . S
C5383 C5385 1.389 . S
C5384 H5357 0.950 . S
C5384 C5370 1.377 . S
C5384 C5383 1.373 . S
C5385 C5369 1.377 . S
C5385 C5383 1.389 . S
C5385 C5386 1.524 . S
C5386 C5385 1.524 . S
C5386 C5387 1.397 . S
C5386 C5391 1.363 . S
C5387 H5358 0.950 . S
C5387 C5386 1.397 . S
C5387 C5388 1.334 . S
C5388 H5359 0.950 . S
C5388 C5387 1.334 . S
C5388 C5389 1.287 . S
C5389 C5388 1.287 . S
C5389 C5390 1.524 . S
C5389 H5392 0.999 . S
C5390 H5360 0.950 . S
C5390 C5389 1.524 . S
C5390 C5391 1.415 . S
C5391 H5361 0.950 . S
C5391 C5386 1.363 . S
C5391 C5390 1.415 . S
H5392 C5389 0.999 . S
H5393 C5374 0.913 . S
H5394 C5412 0.951 . S
H5395 C5414 0.951 . S
H5396 C5416 0.950 . S
H5397 C5417 0.950 . S
H5398 C5419 0.950 . S
H5399 C5422 0.950 . S
H5400 C5423 0.950 . S
H5401 C5425 0.950 . S
H5402 C5426 0.950 . S
H5403 C5427 0.951 . S
H5404 C5429 0.951 . S
H5405 C5431 0.950 . S
H5406 C5432 0.950 . S
H5407 C5434 0.950 . S
H5408 C5437 0.950 . S
H5409 C5438 0.950 . S
H5410 C5440 0.950 . S
H5411 C5441 0.950 . S
C5412 H5394 0.951 . S
C5412 C5413 1.366 . S
C5412 C5414 1.388 . S
C5413 C5412 1.366 . S
C5413 C5417 1.385 . S
C5414 H5395 0.951 . S
C5414 C5412 1.388 . S
C5414 C5415 1.366 . S
C5415 C5414 1.366 . S
C5415 C5416 1.414 . S
C5415 C5418 1.499 . S
C5416 H5396 0.950 . S
C5416 C5415 1.414 . S
C5416 C5417 1.374 . S
C5417 H5397 0.950 . S
C5417 C5413 1.385 . S
C5417 C5416 1.374 . S
C5418 C5415 1.499 . S
C5418 C5419 1.373 . S
C5418 C5420 1.389 . S
C5419 H5398 0.950 . S
C5419 C5418 1.373 . S
C5419 C5435 1.377 . S
C5420 C5418 1.389 . S
C5420 C5421 1.524 . S
C5420 C5434 1.377 . S
C5421 C5420 1.524 . S
C5421 C5422 1.397 . S
C5421 C5426 1.363 . S
C5422 H5399 0.950 . S
C5422 C5421 1.397 . S
C5422 C5423 1.334 . S
C5423 H5400 0.950 . S
C5423 C5422 1.334 . S
C5423 C5424 1.287 . S
C5424 C5423 1.287 . S
C5424 C5425 1.524 . S
C5424 H5443 0.913 . S
C5425 H5401 0.950 . S
C5425 C5424 1.524 . S
C5425 C5426 1.415 . S
C5426 H5402 0.950 . S
C5426 C5421 1.363 . S
C5426 C5425 1.415 . S
C5427 H5403 0.951 . S
C5427 C5428 1.366 . S
C5427 C5429 1.388 . S
C5428 C5427 1.366 . S
C5428 C5432 1.385 . S
C5429 H5404 0.951 . S
C5429 C5427 1.388 . S
C5429 C5430 1.366 . S
C5430 C5429 1.366 . S
C5430 C5431 1.414 . S
C5430 C5433 1.499 . S
C5431 H5405 0.950 . S
C5431 C5430 1.414 . S
C5431 C5432 1.374 . S
C5432 H5406 0.950 . S
C5432 C5428 1.385 . S
C5432 C5431 1.374 . S
C5433 C5430 1.499 . S
C5433 C5434 1.373 . S
C5433 C5435 1.389 . S
C5434 H5407 0.950 . S
C5434 C5420 1.377 . S
C5434 C5433 1.373 . S
C5435 C5419 1.377 . S
C5435 C5433 1.389 . S
C5435 C5436 1.524 . S
C5436 C5435 1.524 . S
C5436 C5437 1.397 . S
C5436 C5441 1.363 . S
C5437 H5408 0.950 . S
C5437 C5436 1.397 . S
C5437 C5438 1.334 . S
C5438 H5409 0.950 . S
C5438 C5437 1.334 . S
C5438 C5439 1.287 . S
C5439 C5438 1.287 . S
C5439 C5440 1.524 . S
C5439 H5442 0.999 . S
C5440 H5410 0.950 . S
C5440 C5439 1.524 . S
C5440 C5441 1.415 . S
C5441 H5411 0.950 . S
C5441 C5436 1.363 . S
C5441 C5440 1.415 . S
H5442 C5439 0.999 . S
H5443 C5424 0.913 . S
H5444 C5462 0.951 . S
H5445 C5464 0.951 . S
H5446 C5466 0.950 . S
H5447 C5467 0.950 . S
H5448 C5469 0.950 . S
H5449 C5472 0.950 . S
H5450 C5473 0.950 . S
H5451 C5475 0.950 . S
H5452 C5476 0.950 . S
H5453 C5477 0.951 . S
H5454 C5479 0.951 . S
H5455 C5481 0.950 . S
H5456 C5482 0.950 . S
H5457 C5484 0.950 . S
H5458 C5487 0.950 . S
H5459 C5488 0.950 . S
H5460 C5490 0.950 . S
H5461 C5491 0.950 . S
C5462 H5444 0.951 . S
C5462 C5463 1.366 . S
C5462 C5464 1.388 . S
C5463 C5462 1.366 . S
C5463 C5467 1.385 . S
C5464 H5445 0.951 . S
C5464 C5462 1.388 . S
C5464 C5465 1.366 . S
C5465 C5464 1.366 . S
C5465 C5466 1.414 . S
C5465 C5468 1.499 . S
C5466 H5446 0.950 . S
C5466 C5465 1.414 . S
C5466 C5467 1.374 . S
C5467 H5447 0.950 . S
C5467 C5463 1.385 . S
C5467 C5466 1.374 . S
C5468 C5465 1.499 . S
C5468 C5469 1.373 . S
C5468 C5470 1.389 . S
C5469 H5448 0.950 . S
C5469 C5468 1.373 . S
C5469 C5485 1.377 . S
C5470 C5468 1.389 . S
C5470 C5471 1.524 . S
C5470 C5484 1.377 . S
C5471 C5470 1.524 . S
C5471 C5472 1.397 . S
C5471 C5476 1.363 . S
C5472 H5449 0.950 . S
C5472 C5471 1.397 . S
C5472 C5473 1.334 . S
C5473 H5450 0.950 . S
C5473 C5472 1.334 . S
C5473 C5474 1.287 . S
C5474 C5473 1.287 . S
C5474 C5475 1.524 . S
C5474 H5493 0.913 . S
C5475 H5451 0.950 . S
C5475 C5474 1.524 . S
C5475 C5476 1.415 . S
C5476 H5452 0.950 . S
C5476 C5471 1.363 . S
C5476 C5475 1.415 . S
C5477 H5453 0.951 . S
C5477 C5478 1.366 . S
C5477 C5479 1.388 . S
C5478 C5477 1.366 . S
C5478 C5482 1.385 . S
C5479 H5454 0.951 . S
C5479 C5477 1.388 . S
C5479 C5480 1.366 . S
C5480 C5479 1.366 . S
C5480 C5481 1.414 . S
C5480 C5483 1.499 . S
C5481 H5455 0.950 . S
C5481 C5480 1.414 . S
C5481 C5482 1.374 . S
C5482 H5456 0.950 . S
C5482 C5478 1.385 . S
C5482 C5481 1.374 . S
C5483 C5480 1.499 . S
C5483 C5484 1.373 . S
C5483 C5485 1.389 . S
C5484 H5457 0.950 . S
C5484 C5470 1.377 . S
C5484 C5483 1.373 . S
C5485 C5469 1.377 . S
C5485 C5483 1.389 . S
C5485 C5486 1.524 . S
C5486 C5485 1.524 . S
C5486 C5487 1.397 . S
C5486 C5491 1.363 . S
C5487 H5458 0.950 . S
C5487 C5486 1.397 . S
C5487 C5488 1.334 . S
C5488 H5459 0.950 . S
C5488 C5487 1.334 . S
C5488 C5489 1.287 . S
C5489 C5488 1.287 . S
C5489 C5490 1.524 . S
C5489 H5492 0.999 . S
C5490 H5460 0.950 . S
C5490 C5489 1.524 . S
C5490 C5491 1.415 . S
C5491 H5461 0.950 . S
C5491 C5486 1.363 . S
C5491 C5490 1.415 . S
H5492 C5489 0.999 . S
H5493 C5474 0.913 . S
H5494 C5512 0.951 . S
H5495 C5514 0.951 . S
H5496 C5516 0.950 . S
H5497 C5517 0.950 . S
H5498 C5519 0.950 . S
H5499 C5522 0.950 . S
H5500 C5523 0.950 . S
H5501 C5525 0.950 . S
H5502 C5526 0.950 . S
H5503 C5527 0.951 . S
H5504 C5529 0.951 . S
H5505 C5531 0.950 . S
H5506 C5532 0.950 . S
H5507 C5534 0.950 . S
H5508 C5537 0.950 . S
H5509 C5538 0.950 . S
H5510 C5540 0.950 . S
H5511 C5541 0.950 . S
C5512 H5494 0.951 . S
C5512 C5513 1.366 . S
C5512 C5514 1.388 . S
C5513 C5512 1.366 . S
C5513 C5517 1.385 . S
C5514 H5495 0.951 . S
C5514 C5512 1.388 . S
C5514 C5515 1.366 . S
C5515 C5514 1.366 . S
C5515 C5516 1.414 . S
C5515 C5518 1.499 . S
C5516 H5496 0.950 . S
C5516 C5515 1.414 . S
C5516 C5517 1.374 . S
C5517 H5497 0.950 . S
C5517 C5513 1.385 . S
C5517 C5516 1.374 . S
C5518 C5515 1.499 . S
C5518 C5519 1.373 . S
C5518 C5520 1.389 . S
C5519 H5498 0.950 . S
C5519 C5518 1.373 . S
C5519 C5535 1.377 . S
C5520 C5518 1.389 . S
C5520 C5521 1.524 . S
C5520 C5534 1.377 . S
C5521 C5520 1.524 . S
C5521 C5522 1.397 . S
C5521 C5526 1.363 . S
C5522 H5499 0.950 . S
C5522 C5521 1.397 . S
C5522 C5523 1.334 . S
C5523 H5500 0.950 . S
C5523 C5522 1.334 . S
C5523 C5524 1.287 . S
C5524 C5523 1.287 . S
C5524 C5525 1.524 . S
C5524 H5543 0.913 . S
C5525 H5501 0.950 . S
C5525 C5524 1.524 . S
C5525 C5526 1.415 . S
C5526 H5502 0.950 . S
C5526 C5521 1.363 . S
C5526 C5525 1.415 . S
C5527 H5503 0.951 . S
C5527 C5528 1.366 . S
C5527 C5529 1.388 . S
C5528 C5527 1.366 . S
C5528 C5532 1.385 . S
C5529 H5504 0.951 . S
C5529 C5527 1.388 . S
C5529 C5530 1.366 . S
C5530 C5529 1.366 . S
C5530 C5531 1.414 . S
C5530 C5533 1.499 . S
C5531 H5505 0.950 . S
C5531 C5530 1.414 . S
C5531 C5532 1.374 . S
C5532 H5506 0.950 . S
C5532 C5528 1.385 . S
C5532 C5531 1.374 . S
C5533 C5530 1.499 . S
C5533 C5534 1.373 . S
C5533 C5535 1.389 . S
C5534 H5507 0.950 . S
C5534 C5520 1.377 . S
C5534 C5533 1.373 . S
C5535 C5519 1.377 . S
C5535 C5533 1.389 . S
C5535 C5536 1.524 . S
C5536 C5535 1.524 . S
C5536 C5537 1.397 . S
C5536 C5541 1.363 . S
C5537 H5508 0.950 . S
C5537 C5536 1.397 . S
C5537 C5538 1.334 . S
C5538 H5509 0.950 . S
C5538 C5537 1.334 . S
C5538 C5539 1.287 . S
C5539 C5538 1.287 . S
C5539 C5540 1.524 . S
C5539 H5542 0.999 . S
C5540 H5510 0.950 . S
C5540 C5539 1.524 . S
C5540 C5541 1.415 . S
C5541 H5511 0.950 . S
C5541 C5536 1.363 . S
C5541 C5540 1.415 . S
H5542 C5539 0.999 . S
H5543 C5524 0.913 . S
H5544 C5562 0.951 . S
H5545 C5564 0.951 . S
H5546 C5566 0.950 . S
H5547 C5567 0.950 . S
H5548 C5569 0.950 . S
H5549 C5572 0.950 . S
H5550 C5573 0.950 . S
H5551 C5575 0.950 . S
H5552 C5576 0.950 . S
H5553 C5577 0.951 . S
H5554 C5579 0.951 . S
H5555 C5581 0.950 . S
H5556 C5582 0.950 . S
H5557 C5584 0.950 . S
H5558 C5587 0.950 . S
H5559 C5588 0.950 . S
H5560 C5590 0.950 . S
H5561 C5591 0.950 . S
C5562 H5544 0.951 . S
C5562 C5563 1.366 . S
C5562 C5564 1.388 . S
C5563 C5562 1.366 . S
C5563 C5567 1.385 . S
C5564 H5545 0.951 . S
C5564 C5562 1.388 . S
C5564 C5565 1.366 . S
C5565 C5564 1.366 . S
C5565 C5566 1.414 . S
C5565 C5568 1.499 . S
C5566 H5546 0.950 . S
C5566 C5565 1.414 . S
C5566 C5567 1.374 . S
C5567 H5547 0.950 . S
C5567 C5563 1.385 . S
C5567 C5566 1.374 . S
C5568 C5565 1.499 . S
C5568 C5569 1.373 . S
C5568 C5570 1.389 . S
C5569 H5548 0.950 . S
C5569 C5568 1.373 . S
C5569 C5585 1.377 . S
C5570 C5568 1.389 . S
C5570 C5571 1.524 . S
C5570 C5584 1.377 . S
C5571 C5570 1.524 . S
C5571 C5572 1.397 . S
C5571 C5576 1.363 . S
C5572 H5549 0.950 . S
C5572 C5571 1.397 . S
C5572 C5573 1.334 . S
C5573 H5550 0.950 . S
C5573 C5572 1.334 . S
C5573 C5574 1.287 . S
C5574 C5573 1.287 . S
C5574 C5575 1.524 . S
C5574 H5593 0.913 . S
C5575 H5551 0.950 . S
C5575 C5574 1.524 . S
C5575 C5576 1.415 . S
C5576 H5552 0.950 . S
C5576 C5571 1.363 . S
C5576 C5575 1.415 . S
C5577 H5553 0.951 . S
C5577 C5578 1.366 . S
C5577 C5579 1.388 . S
C5578 C5577 1.366 . S
C5578 C5582 1.385 . S
C5579 H5554 0.951 . S
C5579 C5577 1.388 . S
C5579 C5580 1.366 . S
C5580 C5579 1.366 . S
C5580 C5581 1.414 . S
C5580 C5583 1.499 . S
C5581 H5555 0.950 . S
C5581 C5580 1.414 . S
C5581 C5582 1.374 . S
C5582 H5556 0.950 . S
C5582 C5578 1.385 . S
C5582 C5581 1.374 . S
C5583 C5580 1.499 . S
C5583 C5584 1.373 . S
C5583 C5585 1.389 . S
C5584 H5557 0.950 . S
C5584 C5570 1.377 . S
C5584 C5583 1.373 . S
C5585 C5569 1.377 . S
C5585 C5583 1.389 . S
C5585 C5586 1.524 . S
C5586 C5585 1.524 . S
C5586 C5587 1.397 . S
C5586 C5591 1.363 . S
C5587 H5558 0.950 . S
C5587 C5586 1.397 . S
C5587 C5588 1.334 . S
C5588 H5559 0.950 . S
C5588 C5587 1.334 . S
C5588 C5589 1.287 . S
C5589 C5588 1.287 . S
C5589 C5590 1.524 . S
C5589 H5592 0.999 . S
C5590 H5560 0.950 . S
C5590 C5589 1.524 . S
C5590 C5591 1.415 . S
C5591 H5561 0.950 . S
C5591 C5586 1.363 . S
C5591 C5590 1.415 . S
H5592 C5589 0.999 . S
H5593 C5574 0.913 . S
H5594 C5612 0.951 . S
H5595 C5614 0.951 . S
H5596 C5616 0.950 . S
H5597 C5617 0.950 . S
H5598 C5619 0.950 . S
H5599 C5622 0.950 . S
H5600 C5623 0.950 . S
H5601 C5625 0.950 . S
H5602 C5626 0.950 . S
H5603 C5627 0.951 . S
H5604 C5629 0.951 . S
H5605 C5631 0.950 . S
H5606 C5632 0.950 . S
H5607 C5634 0.950 . S
H5608 C5637 0.950 . S
H5609 C5638 0.950 . S
H5610 C5640 0.950 . S
H5611 C5641 0.950 . S
C5612 H5594 0.951 . S
C5612 C5613 1.366 . S
C5612 C5614 1.388 . S
C5613 C5612 1.366 . S
C5613 C5617 1.385 . S
C5614 H5595 0.951 . S
C5614 C5612 1.388 . S
C5614 C5615 1.366 . S
C5615 C5614 1.366 . S
C5615 C5616 1.414 . S
C5615 C5618 1.499 . S
C5616 H5596 0.950 . S
C5616 C5615 1.414 . S
C5616 C5617 1.374 . S
C5617 H5597 0.950 . S
C5617 C5613 1.385 . S
C5617 C5616 1.374 . S
C5618 C5615 1.499 . S
C5618 C5619 1.373 . S
C5618 C5620 1.389 . S
C5619 H5598 0.950 . S
C5619 C5618 1.373 . S
C5619 C5635 1.377 . S
C5620 C5618 1.389 . S
C5620 C5621 1.524 . S
C5620 C5634 1.377 . S
C5621 C5620 1.524 . S
C5621 C5622 1.397 . S
C5621 C5626 1.363 . S
C5622 H5599 0.950 . S
C5622 C5621 1.397 . S
C5622 C5623 1.334 . S
C5623 H5600 0.950 . S
C5623 C5622 1.334 . S
C5623 C5624 1.287 . S
C5624 C5623 1.287 . S
C5624 C5625 1.524 . S
C5624 H5643 0.913 . S
C5625 H5601 0.950 . S
C5625 C5624 1.524 . S
C5625 C5626 1.415 . S
C5626 H5602 0.950 . S
C5626 C5621 1.363 . S
C5626 C5625 1.415 . S
C5627 H5603 0.951 . S
C5627 C5628 1.366 . S
C5627 C5629 1.388 . S
C5628 C5627 1.366 . S
C5628 C5632 1.385 . S
C5629 H5604 0.951 . S
C5629 C5627 1.388 . S
C5629 C5630 1.366 . S
C5630 C5629 1.366 . S
C5630 C5631 1.414 . S
C5630 C5633 1.499 . S
C5631 H5605 0.950 . S
C5631 C5630 1.414 . S
C5631 C5632 1.374 . S
C5632 H5606 0.950 . S
C5632 C5628 1.385 . S
C5632 C5631 1.374 . S
C5633 C5630 1.499 . S
C5633 C5634 1.373 . S
C5633 C5635 1.389 . S
C5634 H5607 0.950 . S
C5634 C5620 1.377 . S
C5634 C5633 1.373 . S
C5635 C5619 1.377 . S
C5635 C5633 1.389 . S
C5635 C5636 1.524 . S
C5636 C5635 1.524 . S
C5636 C5637 1.397 . S
C5636 C5641 1.363 . S
C5637 H5608 0.950 . S
C5637 C5636 1.397 . S
C5637 C5638 1.334 . S
C5638 H5609 0.950 . S
C5638 C5637 1.334 . S
C5638 C5639 1.287 . S
C5639 C5638 1.287 . S
C5639 C5640 1.524 . S
C5639 H5642 0.999 . S
C5640 H5610 0.950 . S
C5640 C5639 1.524 . S
C5640 C5641 1.415 . S
C5641 H5611 0.950 . S
C5641 C5636 1.363 . S
C5641 C5640 1.415 . S
H5642 C5639 0.999 . S
H5643 C5624 0.913 . S
H5644 C5662 0.951 . S
H5645 C5664 0.951 . S
H5646 C5666 0.950 . S
H5647 C5667 0.950 . S
H5648 C5669 0.950 . S
H5649 C5672 0.950 . S
H5650 C5673 0.950 . S
H5651 C5675 0.950 . S
H5652 C5676 0.950 . S
H5653 C5677 0.951 . S
H5654 C5679 0.951 . S
H5655 C5681 0.950 . S
H5656 C5682 0.950 . S
H5657 C5684 0.950 . S
H5658 C5687 0.950 . S
H5659 C5688 0.950 . S
H5660 C5690 0.950 . S
H5661 C5691 0.950 . S
C5662 H5644 0.951 . S
C5662 C5663 1.366 . S
C5662 C5664 1.388 . S
C5663 C5662 1.366 . S
C5663 C5667 1.385 . S
C5664 H5645 0.951 . S
C5664 C5662 1.388 . S
C5664 C5665 1.366 . S
C5665 C5664 1.366 . S
C5665 C5666 1.414 . S
C5665 C5668 1.499 . S
C5666 H5646 0.950 . S
C5666 C5665 1.414 . S
C5666 C5667 1.374 . S
C5667 H5647 0.950 . S
C5667 C5663 1.385 . S
C5667 C5666 1.374 . S
C5668 C5665 1.499 . S
C5668 C5669 1.373 . S
C5668 C5670 1.389 . S
C5669 H5648 0.950 . S
C5669 C5668 1.373 . S
C5669 C5685 1.377 . S
C5670 C5668 1.389 . S
C5670 C5671 1.524 . S
C5670 C5684 1.377 . S
C5671 C5670 1.524 . S
C5671 C5672 1.397 . S
C5671 C5676 1.363 . S
C5672 H5649 0.950 . S
C5672 C5671 1.397 . S
C5672 C5673 1.334 . S
C5673 H5650 0.950 . S
C5673 C5672 1.334 . S
C5673 C5674 1.287 . S
C5674 C5673 1.287 . S
C5674 C5675 1.524 . S
C5674 H5693 0.913 . S
C5675 H5651 0.950 . S
C5675 C5674 1.524 . S
C5675 C5676 1.415 . S
C5676 H5652 0.950 . S
C5676 C5671 1.363 . S
C5676 C5675 1.415 . S
C5677 H5653 0.951 . S
C5677 C5678 1.366 . S
C5677 C5679 1.388 . S
C5678 C5677 1.366 . S
C5678 C5682 1.385 . S
C5679 H5654 0.951 . S
C5679 C5677 1.388 . S
C5679 C5680 1.366 . S
C5680 C5679 1.366 . S
C5680 C5681 1.414 . S
C5680 C5683 1.499 . S
C5681 H5655 0.950 . S
C5681 C5680 1.414 . S
C5681 C5682 1.374 . S
C5682 H5656 0.950 . S
C5682 C5678 1.385 . S
C5682 C5681 1.374 . S
C5683 C5680 1.499 . S
C5683 C5684 1.373 . S
C5683 C5685 1.389 . S
C5684 H5657 0.950 . S
C5684 C5670 1.377 . S
C5684 C5683 1.373 . S
C5685 C5669 1.377 . S
C5685 C5683 1.389 . S
C5685 C5686 1.524 . S
C5686 C5685 1.524 . S
C5686 C5687 1.397 . S
C5686 C5691 1.363 . S
C5687 H5658 0.950 . S
C5687 C5686 1.397 . S
C5687 C5688 1.334 . S
C5688 H5659 0.950 . S
C5688 C5687 1.334 . S
C5688 C5689 1.287 . S
C5689 C5688 1.287 . S
C5689 C5690 1.524 . S
C5689 H5692 0.999 . S
C5690 H5660 0.950 . S
C5690 C5689 1.524 . S
C5690 C5691 1.415 . S
C5691 H5661 0.950 . S
C5691 C5686 1.363 . S
C5691 C5690 1.415 . S
H5692 C5689 0.999 . S
H5693 C5674 0.913 . S
H5694 C5712 0.951 . S
H5695 C5714 0.951 . S
H5696 C5716 0.950 . S
H5697 C5717 0.950 . S
H5698 C5719 0.950 . S
H5699 C5722 0.950 . S
H5700 C5723 0.950 . S
H5701 C5725 0.950 . S
H5702 C5726 0.950 . S
H5703 C5727 0.951 . S
H5704 C5729 0.951 . S
H5705 C5731 0.950 . S
H5706 C5732 0.950 . S
H5707 C5734 0.950 . S
H5708 C5737 0.950 . S
H5709 C5738 0.950 . S
H5710 C5740 0.950 . S
H5711 C5741 0.950 . S
C5712 H5694 0.951 . S
C5712 C5713 1.366 . S
C5712 C5714 1.388 . S
C5713 C5712 1.366 . S
C5713 C5717 1.385 . S
C5714 H5695 0.951 . S
C5714 C5712 1.388 . S
C5714 C5715 1.366 . S
C5715 C5714 1.366 . S
C5715 C5716 1.414 . S
C5715 C5718 1.499 . S
C5716 H5696 0.950 . S
C5716 C5715 1.414 . S
C5716 C5717 1.374 . S
C5717 H5697 0.950 . S
C5717 C5713 1.385 . S
C5717 C5716 1.374 . S
C5718 C5715 1.499 . S
C5718 C5719 1.373 . S
C5718 C5720 1.389 . S
C5719 H5698 0.950 . S
C5719 C5718 1.373 . S
C5719 C5735 1.377 . S
C5720 C5718 1.389 . S
C5720 C5721 1.524 . S
C5720 C5734 1.377 . S
C5721 C5720 1.524 . S
C5721 C5722 1.397 . S
C5721 C5726 1.363 . S
C5722 H5699 0.950 . S
C5722 C5721 1.397 . S
C5722 C5723 1.334 . S
C5723 H5700 0.950 . S
C5723 C5722 1.334 . S
C5723 C5724 1.287 . S
C5724 C5723 1.287 . S
C5724 C5725 1.524 . S
C5724 H5743 0.913 . S
C5725 H5701 0.950 . S
C5725 C5724 1.524 . S
C5725 C5726 1.415 . S
C5726 H5702 0.950 . S
C5726 C5721 1.363 . S
C5726 C5725 1.415 . S
C5727 H5703 0.951 . S
C5727 C5728 1.366 . S
C5727 C5729 1.388 . S
C5728 C5727 1.366 . S
C5728 C5732 1.385 . S
C5729 H5704 0.951 . S
C5729 C5727 1.388 . S
C5729 C5730 1.366 . S
C5730 C5729 1.366 . S
C5730 C5731 1.414 . S
C5730 C5733 1.499 . S
C5731 H5705 0.950 . S
C5731 C5730 1.414 . S
C5731 C5732 1.374 . S
C5732 H5706 0.950 . S
C5732 C5728 1.385 . S
C5732 C5731 1.374 . S
C5733 C5730 1.499 . S
C5733 C5734 1.373 . S
C5733 C5735 1.389 . S
C5734 H5707 0.950 . S
C5734 C5720 1.377 . S
C5734 C5733 1.373 . S
C5735 C5719 1.377 . S
C5735 C5733 1.389 . S
C5735 C5736 1.524 . S
C5736 C5735 1.524 . S
C5736 C5737 1.397 . S
C5736 C5741 1.363 . S
C5737 H5708 0.950 . S
C5737 C5736 1.397 . S
C5737 C5738 1.334 . S
C5738 H5709 0.950 . S
C5738 C5737 1.334 . S
C5738 C5739 1.287 . S
C5739 C5738 1.287 . S
C5739 C5740 1.524 . S
C5739 H5742 0.999 . S
C5740 H5710 0.950 . S
C5740 C5739 1.524 . S
C5740 C5741 1.415 . S
C5741 H5711 0.950 . S
C5741 C5736 1.363 . S
C5741 C5740 1.415 . S
H5742 C5739 0.999 . S
H5743 C5724 0.913 . S
H5744 C5762 0.951 . S
H5745 C5764 0.951 . S
H5746 C5766 0.950 . S
H5747 C5767 0.950 . S
H5748 C5769 0.950 . S
H5749 C5772 0.950 . S
H5750 C5773 0.950 . S
H5751 C5775 0.950 . S
H5752 C5776 0.950 . S
H5753 C5777 0.951 . S
H5754 C5779 0.951 . S
H5755 C5781 0.950 . S
H5756 C5782 0.950 . S
H5757 C5784 0.950 . S
H5758 C5787 0.950 . S
H5759 C5788 0.950 . S
H5760 C5790 0.950 . S
H5761 C5791 0.950 . S
C5762 H5744 0.951 . S
C5762 C5763 1.366 . S
C5762 C5764 1.388 . S
C5763 C5762 1.366 . S
C5763 C5767 1.385 . S
C5764 H5745 0.951 . S
C5764 C5762 1.388 . S
C5764 C5765 1.366 . S
C5765 C5764 1.366 . S
C5765 C5766 1.414 . S
C5765 C5768 1.499 . S
C5766 H5746 0.950 . S
C5766 C5765 1.414 . S
C5766 C5767 1.374 . S
C5767 H5747 0.950 . S
C5767 C5763 1.385 . S
C5767 C5766 1.374 . S
C5768 C5765 1.499 . S
C5768 C5769 1.373 . S
C5768 C5770 1.389 . S
C5769 H5748 0.950 . S
C5769 C5768 1.373 . S
C5769 C5785 1.377 . S
C5770 C5768 1.389 . S
C5770 C5771 1.524 . S
C5770 C5784 1.377 . S
C5771 C5770 1.524 . S
C5771 C5772 1.397 . S
C5771 C5776 1.363 . S
C5772 H5749 0.950 . S
C5772 C5771 1.397 . S
C5772 C5773 1.334 . S
C5773 H5750 0.950 . S
C5773 C5772 1.334 . S
C5773 C5774 1.287 . S
C5774 C5773 1.287 . S
C5774 C5775 1.524 . S
C5774 H5793 0.913 . S
C5775 H5751 0.950 . S
C5775 C5774 1.524 . S
C5775 C5776 1.415 . S
C5776 H5752 0.950 . S
C5776 C5771 1.363 . S
C5776 C5775 1.415 . S
C5777 H5753 0.951 . S
C5777 C5778 1.366 . S
C5777 C5779 1.388 . S
C5778 C5777 1.366 . S
C5778 C5782 1.385 . S
C5779 H5754 0.951 . S
C5779 C5777 1.388 . S
C5779 C5780 1.366 . S
C5780 C5779 1.366 . S
C5780 C5781 1.414 . S
C5780 C5783 1.499 . S
C5781 H5755 0.950 . S
C5781 C5780 1.414 . S
C5781 C5782 1.374 . S
C5782 H5756 0.950 . S
C5782 C5778 1.385 . S
C5782 C5781 1.374 . S
C5783 C5780 1.499 . S
C5783 C5784 1.373 . S
C5783 C5785 1.389 . S
C5784 H5757 0.950 . S
C5784 C5770 1.377 . S
C5784 C5783 1.373 . S
C5785 C5769 1.377 . S
C5785 C5783 1.389 . S
C5785 C5786 1.524 . S
C5786 C5785 1.524 . S
C5786 C5787 1.397 . S
C5786 C5791 1.363 . S
C5787 H5758 0.950 . S
C5787 C5786 1.397 . S
C5787 C5788 1.334 . S
C5788 H5759 0.950 . S
C5788 C5787 1.334 . S
C5788 C5789 1.287 . S
C5789 C5788 1.287 . S
C5789 C5790 1.524 . S
C5789 H5792 0.999 . S
C5790 H5760 0.950 . S
C5790 C5789 1.524 . S
C5790 C5791 1.415 . S
C5791 H5761 0.950 . S
C5791 C5786 1.363 . S
C5791 C5790 1.415 . S
H5792 C5789 0.999 . S
H5793 C5774 0.913 . S
H5794 C5812 0.951 . S
H5795 C5814 0.951 . S
H5796 C5816 0.950 . S
H5797 C5817 0.950 . S
H5798 C5819 0.950 . S
H5799 C5822 0.950 . S
H5800 C5823 0.950 . S
H5801 C5825 0.950 . S
H5802 C5826 0.950 . S
H5803 C5827 0.951 . S
H5804 C5829 0.951 . S
H5805 C5831 0.950 . S
H5806 C5832 0.950 . S
H5807 C5834 0.950 . S
H5808 C5837 0.950 . S
H5809 C5838 0.950 . S
H5810 C5840 0.950 . S
H5811 C5841 0.950 . S
C5812 H5794 0.951 . S
C5812 C5813 1.366 . S
C5812 C5814 1.388 . S
C5813 C5812 1.366 . S
C5813 C5817 1.385 . S
C5814 H5795 0.951 . S
C5814 C5812 1.388 . S
C5814 C5815 1.366 . S
C5815 C5814 1.366 . S
C5815 C5816 1.414 . S
C5815 C5818 1.499 . S
C5816 H5796 0.950 . S
C5816 C5815 1.414 . S
C5816 C5817 1.374 . S
C5817 H5797 0.950 . S
C5817 C5813 1.385 . S
C5817 C5816 1.374 . S
C5818 C5815 1.499 . S
C5818 C5819 1.373 . S
C5818 C5820 1.389 . S
C5819 H5798 0.950 . S
C5819 C5818 1.373 . S
C5819 C5835 1.377 . S
C5820 C5818 1.389 . S
C5820 C5821 1.524 . S
C5820 C5834 1.377 . S
C5821 C5820 1.524 . S
C5821 C5822 1.397 . S
C5821 C5826 1.363 . S
C5822 H5799 0.950 . S
C5822 C5821 1.397 . S
C5822 C5823 1.334 . S
C5823 H5800 0.950 . S
C5823 C5822 1.334 . S
C5823 C5824 1.287 . S
C5824 C5823 1.287 . S
C5824 C5825 1.524 . S
C5824 H5843 0.913 . S
C5825 H5801 0.950 . S
C5825 C5824 1.524 . S
C5825 C5826 1.415 . S
C5826 H5802 0.950 . S
C5826 C5821 1.363 . S
C5826 C5825 1.415 . S
C5827 H5803 0.951 . S
C5827 C5828 1.366 . S
C5827 C5829 1.388 . S
C5828 C5827 1.366 . S
C5828 C5832 1.385 . S
C5829 H5804 0.951 . S
C5829 C5827 1.388 . S
C5829 C5830 1.366 . S
C5830 C5829 1.366 . S
C5830 C5831 1.414 . S
C5830 C5833 1.499 . S
C5831 H5805 0.950 . S
C5831 C5830 1.414 . S
C5831 C5832 1.374 . S
C5832 H5806 0.950 . S
C5832 C5828 1.385 . S
C5832 C5831 1.374 . S
C5833 C5830 1.499 . S
C5833 C5834 1.373 . S
C5833 C5835 1.389 . S
C5834 H5807 0.950 . S
C5834 C5820 1.377 . S
C5834 C5833 1.373 . S
C5835 C5819 1.377 . S
C5835 C5833 1.389 . S
C5835 C5836 1.524 . S
C5836 C5835 1.524 . S
C5836 C5837 1.397 . S
C5836 C5841 1.363 . S
C5837 H5808 0.950 . S
C5837 C5836 1.397 . S
C5837 C5838 1.334 . S
C5838 H5809 0.950 . S
C5838 C5837 1.334 . S
C5838 C5839 1.287 . S
C5839 C5838 1.287 . S
C5839 C5840 1.524 . S
C5839 H5842 0.999 . S
C5840 H5810 0.950 . S
C5840 C5839 1.524 . S
C5840 C5841 1.415 . S
C5841 H5811 0.950 . S
C5841 C5836 1.363 . S
C5841 C5840 1.415 . S
H5842 C5839 0.999 . S
H5843 C5824 0.913 . S
H5844 C5862 0.951 . S
H5845 C5864 0.951 . S
H5846 C5866 0.950 . S
H5847 C5867 0.950 . S
H5848 C5869 0.950 . S
H5849 C5872 0.950 . S
H5850 C5873 0.950 . S
H5851 C5875 0.950 . S
H5852 C5876 0.950 . S
H5853 C5877 0.951 . S
H5854 C5879 0.951 . S
H5855 C5881 0.950 . S
H5856 C5882 0.950 . S
H5857 C5884 0.950 . S
H5858 C5887 0.950 . S
H5859 C5888 0.950 . S
H5860 C5890 0.950 . S
H5861 C5891 0.950 . S
C5862 H5844 0.951 . S
C5862 C5863 1.366 . S
C5862 C5864 1.388 . S
C5863 C5862 1.366 . S
C5863 C5867 1.385 . S
C5864 H5845 0.951 . S
C5864 C5862 1.388 . S
C5864 C5865 1.366 . S
C5865 C5864 1.366 . S
C5865 C5866 1.414 . S
C5865 C5868 1.499 . S
C5866 H5846 0.950 . S
C5866 C5865 1.414 . S
C5866 C5867 1.374 . S
C5867 H5847 0.950 . S
C5867 C5863 1.385 . S
C5867 C5866 1.374 . S
C5868 C5865 1.499 . S
C5868 C5869 1.373 . S
C5868 C5870 1.389 . S
C5869 H5848 0.950 . S
C5869 C5868 1.373 . S
C5869 C5885 1.377 . S
C5870 C5868 1.389 . S
C5870 C5871 1.524 . S
C5870 C5884 1.377 . S
C5871 C5870 1.524 . S
C5871 C5872 1.397 . S
C5871 C5876 1.363 . S
C5872 H5849 0.950 . S
C5872 C5871 1.397 . S
C5872 C5873 1.334 . S
C5873 H5850 0.950 . S
C5873 C5872 1.334 . S
C5873 C5874 1.287 . S
C5874 C5873 1.287 . S
C5874 C5875 1.524 . S
C5874 H5893 0.913 . S
C5875 H5851 0.950 . S
C5875 C5874 1.524 . S
C5875 C5876 1.415 . S
C5876 H5852 0.950 . S
C5876 C5871 1.363 . S
C5876 C5875 1.415 . S
C5877 H5853 0.951 . S
C5877 C5878 1.366 . S
C5877 C5879 1.388 . S
C5878 C5877 1.366 . S
C5878 C5882 1.385 . S
C5879 H5854 0.951 . S
C5879 C5877 1.388 . S
C5879 C5880 1.366 . S
C5880 C5879 1.366 . S
C5880 C5881 1.414 . S
C5880 C5883 1.499 . S
C5881 H5855 0.950 . S
C5881 C5880 1.414 . S
C5881 C5882 1.374 . S
C5882 H5856 0.950 . S
C5882 C5878 1.385 . S
C5882 C5881 1.374 . S
C5883 C5880 1.499 . S
C5883 C5884 1.373 . S
C5883 C5885 1.389 . S
C5884 H5857 0.950 . S
C5884 C5870 1.377 . S
C5884 C5883 1.373 . S
C5885 C5869 1.377 . S
C5885 C5883 1.389 . S
C5885 C5886 1.524 . S
C5886 C5885 1.524 . S
C5886 C5887 1.397 . S
C5886 C5891 1.363 . S
C5887 H5858 0.950 . S
C5887 C5886 1.397 . S
C5887 C5888 1.334 . S
C5888 H5859 0.950 . S
C5888 C5887 1.334 . S
C5888 C5889 1.287 . S
C5889 C5888 1.287 . S
C5889 C5890 1.524 . S
C5889 H5892 0.999 . S
C5890 H5860 0.950 . S
C5890 C5889 1.524 . S
C5890 C5891 1.415 . S
C5891 H5861 0.950 . S
C5891 C5886 1.363 . S
C5891 C5890 1.415 . S
H5892 C5889 0.999 . S
H5893 C5874 0.913 . S
H5894 C5912 0.951 . S
H5895 C5914 0.951 . S
H5896 C5916 0.950 . S
H5897 C5917 0.950 . S
H5898 C5919 0.950 . S
H5899 C5922 0.950 . S
H5900 C5923 0.950 . S
H5901 C5925 0.950 . S
H5902 C5926 0.950 . S
H5903 C5927 0.951 . S
H5904 C5929 0.951 . S
H5905 C5931 0.950 . S
H5906 C5932 0.950 . S
H5907 C5934 0.950 . S
H5908 C5937 0.950 . S
H5909 C5938 0.950 . S
H5910 C5940 0.950 . S
H5911 C5941 0.950 . S
C5912 H5894 0.951 . S
C5912 C5913 1.366 . S
C5912 C5914 1.388 . S
C5913 C5912 1.366 . S
C5913 C5917 1.385 . S
C5914 H5895 0.951 . S
C5914 C5912 1.388 . S
C5914 C5915 1.366 . S
C5915 C5914 1.366 . S
C5915 C5916 1.414 . S
C5915 C5918 1.499 . S
C5916 H5896 0.950 . S
C5916 C5915 1.414 . S
C5916 C5917 1.374 . S
C5917 H5897 0.950 . S
C5917 C5913 1.385 . S
C5917 C5916 1.374 . S
C5918 C5915 1.499 . S
C5918 C5919 1.373 . S
C5918 C5920 1.389 . S
C5919 H5898 0.950 . S
C5919 C5918 1.373 . S
C5919 C5935 1.377 . S
C5920 C5918 1.389 . S
C5920 C5921 1.524 . S
C5920 C5934 1.377 . S
C5921 C5920 1.524 . S
C5921 C5922 1.397 . S
C5921 C5926 1.363 . S
C5922 H5899 0.950 . S
C5922 C5921 1.397 . S
C5922 C5923 1.334 . S
C5923 H5900 0.950 . S
C5923 C5922 1.334 . S
C5923 C5924 1.287 . S
C5924 C5923 1.287 . S
C5924 C5925 1.524 . S
C5924 H5943 0.913 . S
C5925 H5901 0.950 . S
C5925 C5924 1.524 . S
C5925 C5926 1.415 . S
C5926 H5902 0.950 . S
C5926 C5921 1.363 . S
C5926 C5925 1.415 . S
C5927 H5903 0.951 . S
C5927 C5928 1.366 . S
C5927 C5929 1.388 . S
C5928 C5927 1.366 . S
C5928 C5932 1.385 . S
C5929 H5904 0.951 . S
C5929 C5927 1.388 . S
C5929 C5930 1.366 . S
C5930 C5929 1.366 . S
C5930 C5931 1.414 . S
C5930 C5933 1.499 . S
C5931 H5905 0.950 . S
C5931 C5930 1.414 . S
C5931 C5932 1.374 . S
C5932 H5906 0.950 . S
C5932 C5928 1.385 . S
C5932 C5931 1.374 . S
C5933 C5930 1.499 . S
C5933 C5934 1.373 . S
C5933 C5935 1.389 . S
C5934 H5907 0.950 . S
C5934 C5920 1.377 . S
C5934 C5933 1.373 . S
C5935 C5919 1.377 . S
C5935 C5933 1.389 . S
C5935 C5936 1.524 . S
C5936 C5935 1.524 . S
C5936 C5937 1.397 . S
C5936 C5941 1.363 . S
C5937 H5908 0.950 . S
C5937 C5936 1.397 . S
C5937 C5938 1.334 . S
C5938 H5909 0.950 . S
C5938 C5937 1.334 . S
C5938 C5939 1.287 . S
C5939 C5938 1.287 . S
C5939 C5940 1.524 . S
C5939 H5942 0.999 . S
C5940 H5910 0.950 . S
C5940 C5939 1.524 . S
C5940 C5941 1.415 . S
C5941 H5911 0.950 . S
C5941 C5936 1.363 . S
C5941 C5940 1.415 . S
H5942 C5939 0.999 . S
H5943 C5924 0.913 . S
H5944 C5962 0.951 . S
H5945 C5964 0.951 . S
H5946 C5966 0.950 . S
H5947 C5967 0.950 . S
H5948 C5969 0.950 . S
H5949 C5972 0.950 . S
H5950 C5973 0.950 . S
H5951 C5975 0.950 . S
H5952 C5976 0.950 . S
H5953 C5977 0.951 . S
H5954 C5979 0.951 . S
H5955 C5981 0.950 . S
H5956 C5982 0.950 . S
H5957 C5984 0.950 . S
H5958 C5987 0.950 . S
H5959 C5988 0.950 . S
H5960 C5990 0.950 . S
H5961 C5991 0.950 . S
C5962 H5944 0.951 . S
C5962 C5963 1.366 . S
C5962 C5964 1.388 . S
C5963 C5962 1.366 . S
C5963 C5967 1.385 . S
C5964 H5945 0.951 . S
C5964 C5962 1.388 . S
C5964 C5965 1.366 . S
C5965 C5964 1.366 . S
C5965 C5966 1.414 . S
C5965 C5968 1.499 . S
C5966 H5946 0.950 . S
C5966 C5965 1.414 . S
C5966 C5967 1.374 . S
C5967 H5947 0.950 . S
C5967 C5963 1.385 . S
C5967 C5966 1.374 . S
C5968 C5965 1.499 . S
C5968 C5969 1.373 . S
C5968 C5970 1.389 . S
C5969 H5948 0.950 . S
C5969 C5968 1.373 . S
C5969 C5985 1.377 . S
C5970 C5968 1.389 . S
C5970 C5971 1.524 . S
C5970 C5984 1.377 . S
C5971 C5970 1.524 . S
C5971 C5972 1.397 . S
C5971 C5976 1.363 . S
C5972 H5949 0.950 . S
C5972 C5971 1.397 . S
C5972 C5973 1.334 . S
C5973 H5950 0.950 . S
C5973 C5972 1.334 . S
C5973 C5974 1.287 . S
C5974 C5973 1.287 . S
C5974 C5975 1.524 . S
C5974 H5993 0.913 . S
C5975 H5951 0.950 . S
C5975 C5974 1.524 . S
C5975 C5976 1.415 . S
C5976 H5952 0.950 . S
C5976 C5971 1.363 . S
C5976 C5975 1.415 . S
C5977 H5953 0.951 . S
C5977 C5978 1.366 . S
C5977 C5979 1.388 . S
C5978 C5977 1.366 . S
C5978 C5982 1.385 . S
C5979 H5954 0.951 . S
C5979 C5977 1.388 . S
C5979 C5980 1.366 . S
C5980 C5979 1.366 . S
C5980 C5981 1.414 . S
C5980 C5983 1.499 . S
C5981 H5955 0.950 . S
C5981 C5980 1.414 . S
C5981 C5982 1.374 . S
C5982 H5956 0.950 . S
C5982 C5978 1.385 . S
C5982 C5981 1.374 . S
C5983 C5980 1.499 . S
C5983 C5984 1.373 . S
C5983 C5985 1.389 . S
C5984 H5957 0.950 . S
C5984 C5970 1.377 . S
C5984 C5983 1.373 . S
C5985 C5969 1.377 . S
C5985 C5983 1.389 . S
C5985 C5986 1.524 . S
C5986 C5985 1.524 . S
C5986 C5987 1.397 . S
C5986 C5991 1.363 . S
C5987 H5958 0.950 . S
C5987 C5986 1.397 . S
C5987 C5988 1.334 . S
C5988 H5959 0.950 . S
C5988 C5987 1.334 . S
C5988 C5989 1.287 . S
C5989 C5988 1.287 . S
C5989 C5990 1.524 . S
C5989 H5992 0.999 . S
C5990 H5960 0.950 . S
C5990 C5989 1.524 . S
C5990 C5991 1.415 . S
C5991 H5961 0.950 . S
C5991 C5986 1.363 . S
C5991 C5990 1.415 . S
H5992 C5989 0.999 . S
H5993 C5974 0.913 . S
H5994 C6012 0.951 . S
H5995 C6014 0.951 . S
H5996 C6016 0.950 . S
H5997 C6017 0.950 . S
H5998 C6019 0.950 . S
H5999 C6022 0.950 . S
H6000 C6023 0.950 . S
H6001 C6025 0.950 . S
H6002 C6026 0.950 . S
H6003 C6027 0.951 . S
H6004 C6029 0.951 . S
H6005 C6031 0.950 . S
H6006 C6032 0.950 . S
H6007 C6034 0.950 . S
H6008 C6037 0.950 . S
H6009 C6038 0.950 . S
H6010 C6040 0.950 . S
H6011 C6041 0.950 . S
C6012 H5994 0.951 . S
C6012 C6013 1.366 . S
C6012 C6014 1.388 . S
C6013 C6012 1.366 . S
C6013 C6017 1.385 . S
C6014 H5995 0.951 . S
C6014 C6012 1.388 . S
C6014 C6015 1.366 . S
C6015 C6014 1.366 . S
C6015 C6016 1.414 . S
C6015 C6018 1.499 . S
C6016 H5996 0.950 . S
C6016 C6015 1.414 . S
C6016 C6017 1.374 . S
C6017 H5997 0.950 . S
C6017 C6013 1.385 . S
C6017 C6016 1.374 . S
C6018 C6015 1.499 . S
C6018 C6019 1.373 . S
C6018 C6020 1.389 . S
C6019 H5998 0.950 . S
C6019 C6018 1.373 . S
C6019 C6035 1.377 . S
C6020 C6018 1.389 . S
C6020 C6021 1.524 . S
C6020 C6034 1.377 . S
C6021 C6020 1.524 . S
C6021 C6022 1.397 . S
C6021 C6026 1.363 . S
C6022 H5999 0.950 . S
C6022 C6021 1.397 . S
C6022 C6023 1.334 . S
C6023 H6000 0.950 . S
C6023 C6022 1.334 . S
C6023 C6024 1.287 . S
C6024 C6023 1.287 . S
C6024 C6025 1.524 . S
C6024 H6043 0.913 . S
C6025 H6001 0.950 . S
C6025 C6024 1.524 . S
C6025 C6026 1.415 . S
C6026 H6002 0.950 . S
C6026 C6021 1.363 . S
C6026 C6025 1.415 . S
C6027 H6003 0.951 . S
C6027 C6028 1.366 . S
C6027 C6029 1.388 . S
C6028 C6027 1.366 . S
C6028 C6032 1.385 . S
C6029 H6004 0.951 . S
C6029 C6027 1.388 . S
C6029 C6030 1.366 . S
C6030 C6029 1.366 . S
C6030 C6031 1.414 . S
C6030 C6033 1.499 . S
C6031 H6005 0.950 . S
C6031 C6030 1.414 . S
C6031 C6032 1.374 . S
C6032 H6006 0.950 . S
C6032 C6028 1.385 . S
C6032 C6031 1.374 . S
C6033 C6030 1.499 . S
C6033 C6034 1.373 . S
C6033 C6035 1.389 . S
C6034 H6007 0.950 . S
C6034 C6020 1.377 . S
C6034 C6033 1.373 . S
C6035 C6019 1.377 . S
C6035 C6033 1.389 . S
C6035 C6036 1.524 . S
C6036 C6035 1.524 . S
C6036 C6037 1.397 . S
C6036 C6041 1.363 . S
C6037 H6008 0.950 . S
C6037 C6036 1.397 . S
C6037 C6038 1.334 . S
C6038 H6009 0.950 . S
C6038 C6037 1.334 . S
C6038 C6039 1.287 . S
C6039 C6038 1.287 . S
C6039 C6040 1.524 . S
C6039 H6042 0.999 . S
C6040 H6010 0.950 . S
C6040 C6039 1.524 . S
C6040 C6041 1.415 . S
C6041 H6011 0.950 . S
C6041 C6036 1.363 . S
C6041 C6040 1.415 . S
H6042 C6039 0.999 . S
H6043 C6024 0.913 . S
H6044 C6062 0.951 . S
H6045 C6064 0.951 . S
H6046 C6066 0.950 . S
H6047 C6067 0.950 . S
H6048 C6069 0.950 . S
H6049 C6072 0.950 . S
H6050 C6073 0.950 . S
H6051 C6075 0.950 . S
H6052 C6076 0.950 . S
H6053 C6077 0.951 . S
H6054 C6079 0.951 . S
H6055 C6081 0.950 . S
H6056 C6082 0.950 . S
H6057 C6084 0.950 . S
H6058 C6087 0.950 . S
H6059 C6088 0.950 . S
H6060 C6090 0.950 . S
H6061 C6091 0.950 . S
C6062 H6044 0.951 . S
C6062 C6063 1.366 . S
C6062 C6064 1.388 . S
C6063 C6062 1.366 . S
C6063 C6067 1.385 . S
C6064 H6045 0.951 . S
C6064 C6062 1.388 . S
C6064 C6065 1.366 . S
C6065 C6064 1.366 . S
C6065 C6066 1.414 . S
C6065 C6068 1.499 . S
C6066 H6046 0.950 . S
C6066 C6065 1.414 . S
C6066 C6067 1.374 . S
C6067 H6047 0.950 . S
C6067 C6063 1.385 . S
C6067 C6066 1.374 . S
C6068 C6065 1.499 . S
C6068 C6069 1.373 . S
C6068 C6070 1.389 . S
C6069 H6048 0.950 . S
C6069 C6068 1.373 . S
C6069 C6085 1.377 . S
C6070 C6068 1.389 . S
C6070 C6071 1.524 . S
C6070 C6084 1.377 . S
C6071 C6070 1.524 . S
C6071 C6072 1.397 . S
C6071 C6076 1.363 . S
C6072 H6049 0.950 . S
C6072 C6071 1.397 . S
C6072 C6073 1.334 . S
C6073 H6050 0.950 . S
C6073 C6072 1.334 . S
C6073 C6074 1.287 . S
C6074 C6073 1.287 . S
C6074 C6075 1.524 . S
C6074 H6093 0.913 . S
C6075 H6051 0.950 . S
C6075 C6074 1.524 . S
C6075 C6076 1.415 . S
C6076 H6052 0.950 . S
C6076 C6071 1.363 . S
C6076 C6075 1.415 . S
C6077 H6053 0.951 . S
C6077 C6078 1.366 . S
C6077 C6079 1.388 . S
C6078 C6077 1.366 . S
C6078 C6082 1.385 . S
C6079 H6054 0.951 . S
C6079 C6077 1.388 . S
C6079 C6080 1.366 . S
C6080 C6079 1.366 . S
C6080 C6081 1.414 . S
C6080 C6083 1.499 . S
C6081 H6055 0.950 . S
C6081 C6080 1.414 . S
C6081 C6082 1.374 . S
C6082 H6056 0.950 . S
C6082 C6078 1.385 . S
C6082 C6081 1.374 . S
C6083 C6080 1.499 . S
C6083 C6084 1.373 . S
C6083 C6085 1.389 . S
C6084 H6057 0.950 . S
C6084 C6070 1.377 . S
C6084 C6083 1.373 . S
C6085 C6069 1.377 . S
C6085 C6083 1.389 . S
C6085 C6086 1.524 . S
C6086 C6085 1.524 . S
C6086 C6087 1.397 . S
C6086 C6091 1.363 . S
C6087 H6058 0.950 . S
C6087 C6086 1.397 . S
C6087 C6088 1.334 . S
C6088 H6059 0.950 . S
C6088 C6087 1.334 . S
C6088 C6089 1.287 . S
C6089 C6088 1.287 . S
C6089 C6090 1.524 . S
C6089 H6092 0.999 . S
C6090 H6060 0.950 . S
C6090 C6089 1.524 . S
C6090 C6091 1.415 . S
C6091 H6061 0.950 . S
C6091 C6086 1.363 . S
C6091 C6090 1.415 . S
H6092 C6089 0.999 . S
H6093 C6074 0.913 . S
H6094 C6112 0.951 . S
H6095 C6114 0.951 . S
H6096 C6116 0.950 . S
H6097 C6117 0.950 . S
H6098 C6119 0.950 . S
H6099 C6122 0.950 . S
H6100 C6123 0.950 . S
H6101 C6125 0.950 . S
H6102 C6126 0.950 . S
H6103 C6127 0.951 . S
H6104 C6129 0.951 . S
H6105 C6131 0.950 . S
H6106 C6132 0.950 . S
H6107 C6134 0.950 . S
H6108 C6137 0.950 . S
H6109 C6138 0.950 . S
H6110 C6140 0.950 . S
H6111 C6141 0.950 . S
C6112 H6094 0.951 . S
C6112 C6113 1.366 . S
C6112 C6114 1.388 . S
C6113 C6112 1.366 . S
C6113 C6117 1.385 . S
C6114 H6095 0.951 . S
C6114 C6112 1.388 . S
C6114 C6115 1.366 . S
C6115 C6114 1.366 . S
C6115 C6116 1.414 . S
C6115 C6118 1.499 . S
C6116 H6096 0.950 . S
C6116 C6115 1.414 . S
C6116 C6117 1.374 . S
C6117 H6097 0.950 . S
C6117 C6113 1.385 . S
C6117 C6116 1.374 . S
C6118 C6115 1.499 . S
C6118 C6119 1.373 . S
C6118 C6120 1.389 . S
C6119 H6098 0.950 . S
C6119 C6118 1.373 . S
C6119 C6135 1.377 . S
C6120 C6118 1.389 . S
C6120 C6121 1.524 . S
C6120 C6134 1.377 . S
C6121 C6120 1.524 . S
C6121 C6122 1.397 . S
C6121 C6126 1.363 . S
C6122 H6099 0.950 . S
C6122 C6121 1.397 . S
C6122 C6123 1.334 . S
C6123 H6100 0.950 . S
C6123 C6122 1.334 . S
C6123 C6124 1.287 . S
C6124 C6123 1.287 . S
C6124 C6125 1.524 . S
C6124 H6143 0.913 . S
C6125 H6101 0.950 . S
C6125 C6124 1.524 . S
C6125 C6126 1.415 . S
C6126 H6102 0.950 . S
C6126 C6121 1.363 . S
C6126 C6125 1.415 . S
C6127 H6103 0.951 . S
C6127 C6128 1.366 . S
C6127 C6129 1.388 . S
C6128 C6127 1.366 . S
C6128 C6132 1.385 . S
C6129 H6104 0.951 . S
C6129 C6127 1.388 . S
C6129 C6130 1.366 . S
C6130 C6129 1.366 . S
C6130 C6131 1.414 . S
C6130 C6133 1.499 . S
C6131 H6105 0.950 . S
C6131 C6130 1.414 . S
C6131 C6132 1.374 . S
C6132 H6106 0.950 . S
C6132 C6128 1.385 . S
C6132 C6131 1.374 . S
C6133 C6130 1.499 . S
C6133 C6134 1.373 . S
C6133 C6135 1.389 . S
C6134 H6107 0.950 . S
C6134 C6120 1.377 . S
C6134 C6133 1.373 . S
C6135 C6119 1.377 . S
C6135 C6133 1.389 . S
C6135 C6136 1.524 . S
C6136 C6135 1.524 . S
C6136 C6137 1.397 . S
C6136 C6141 1.363 . S
C6137 H6108 0.950 . S
C6137 C6136 1.397 . S
C6137 C6138 1.334 . S
C6138 H6109 0.950 . S
C6138 C6137 1.334 . S
C6138 C6139 1.287 . S
C6139 C6138 1.287 . S
C6139 C6140 1.524 . S
C6139 H6142 0.999 . S
C6140 H6110 0.950 . S
C6140 C6139 1.524 . S
C6140 C6141 1.415 . S
C6141 H6111 0.950 . S
C6141 C6136 1.363 . S
C6141 C6140 1.415 . S
H6142 C6139 0.999 . S
H6143 C6124 0.913 . S
H6144 C6162 0.951 . S
H6145 C6164 0.951 . S
H6146 C6166 0.950 . S
H6147 C6167 0.950 . S
H6148 C6169 0.950 . S
H6149 C6172 0.950 . S
H6150 C6173 0.950 . S
H6151 C6175 0.950 . S
H6152 C6176 0.950 . S
H6153 C6177 0.951 . S
H6154 C6179 0.951 . S
H6155 C6181 0.950 . S
H6156 C6182 0.950 . S
H6157 C6184 0.950 . S
H6158 C6187 0.950 . S
H6159 C6188 0.950 . S
H6160 C6190 0.950 . S
H6161 C6191 0.950 . S
C6162 H6144 0.951 . S
C6162 C6163 1.366 . S
C6162 C6164 1.388 . S
C6163 C6162 1.366 . S
C6163 C6167 1.385 . S
C6164 H6145 0.951 . S
C6164 C6162 1.388 . S
C6164 C6165 1.366 . S
C6165 C6164 1.366 . S
C6165 C6166 1.414 . S
C6165 C6168 1.499 . S
C6166 H6146 0.950 . S
C6166 C6165 1.414 . S
C6166 C6167 1.374 . S
C6167 H6147 0.950 . S
C6167 C6163 1.385 . S
C6167 C6166 1.374 . S
C6168 C6165 1.499 . S
C6168 C6169 1.373 . S
C6168 C6170 1.389 . S
C6169 H6148 0.950 . S
C6169 C6168 1.373 . S
C6169 C6185 1.377 . S
C6170 C6168 1.389 . S
C6170 C6171 1.524 . S
C6170 C6184 1.377 . S
C6171 C6170 1.524 . S
C6171 C6172 1.397 . S
C6171 C6176 1.363 . S
C6172 H6149 0.950 . S
C6172 C6171 1.397 . S
C6172 C6173 1.334 . S
C6173 H6150 0.950 . S
C6173 C6172 1.334 . S
C6173 C6174 1.287 . S
C6174 C6173 1.287 . S
C6174 C6175 1.524 . S
C6174 H6193 0.913 . S
C6175 H6151 0.950 . S
C6175 C6174 1.524 . S
C6175 C6176 1.415 . S
C6176 H6152 0.950 . S
C6176 C6171 1.363 . S
C6176 C6175 1.415 . S
C6177 H6153 0.951 . S
C6177 C6178 1.366 . S
C6177 C6179 1.388 . S
C6178 C6177 1.366 . S
C6178 C6182 1.385 . S
C6179 H6154 0.951 . S
C6179 C6177 1.388 . S
C6179 C6180 1.366 . S
C6180 C6179 1.366 . S
C6180 C6181 1.414 . S
C6180 C6183 1.499 . S
C6181 H6155 0.950 . S
C6181 C6180 1.414 . S
C6181 C6182 1.374 . S
C6182 H6156 0.950 . S
C6182 C6178 1.385 . S
C6182 C6181 1.374 . S
C6183 C6180 1.499 . S
C6183 C6184 1.373 . S
C6183 C6185 1.389 . S
C6184 H6157 0.950 . S
C6184 C6170 1.377 . S
C6184 C6183 1.373 . S
C6185 C6169 1.377 . S
C6185 C6183 1.389 . S
C6185 C6186 1.524 . S
C6186 C6185 1.524 . S
C6186 C6187 1.397 . S
C6186 C6191 1.363 . S
C6187 H6158 0.950 . S
C6187 C6186 1.397 . S
C6187 C6188 1.334 . S
C6188 H6159 0.950 . S
C6188 C6187 1.334 . S
C6188 C6189 1.287 . S
C6189 C6188 1.287 . S
C6189 C6190 1.524 . S
C6189 H6192 0.999 . S
C6190 H6160 0.950 . S
C6190 C6189 1.524 . S
C6190 C6191 1.415 . S
C6191 H6161 0.950 . S
C6191 C6186 1.363 . S
C6191 C6190 1.415 . S
H6192 C6189 0.999 . S
H6193 C6174 0.913 . S
H6194 C6212 0.951 . S
H6195 C6214 0.951 . S
H6196 C6216 0.950 . S
H6197 C6217 0.950 . S
H6198 C6219 0.950 . S
H6199 C6222 0.950 . S
H6200 C6223 0.950 . S
H6201 C6225 0.950 . S
H6202 C6226 0.950 . S
H6203 C6227 0.951 . S
H6204 C6229 0.951 . S
H6205 C6231 0.950 . S
H6206 C6232 0.950 . S
H6207 C6234 0.950 . S
H6208 C6237 0.950 . S
H6209 C6238 0.950 . S
H6210 C6240 0.950 . S
H6211 C6241 0.950 . S
C6212 H6194 0.951 . S
C6212 C6213 1.366 . S
C6212 C6214 1.388 . S
C6213 C6212 1.366 . S
C6213 C6217 1.385 . S
C6214 H6195 0.951 . S
C6214 C6212 1.388 . S
C6214 C6215 1.366 . S
C6215 C6214 1.366 . S
C6215 C6216 1.414 . S
C6215 C6218 1.499 . S
C6216 H6196 0.950 . S
C6216 C6215 1.414 . S
C6216 C6217 1.374 . S
C6217 H6197 0.950 . S
C6217 C6213 1.385 . S
C6217 C6216 1.374 . S
C6218 C6215 1.499 . S
C6218 C6219 1.373 . S
C6218 C6220 1.389 . S
C6219 H6198 0.950 . S
C6219 C6218 1.373 . S
C6219 C6235 1.377 . S
C6220 C6218 1.389 . S
C6220 C6221 1.524 . S
C6220 C6234 1.377 . S
C6221 C6220 1.524 . S
C6221 C6222 1.397 . S
C6221 C6226 1.363 . S
C6222 H6199 0.950 . S
C6222 C6221 1.397 . S
C6222 C6223 1.334 . S
C6223 H6200 0.950 . S
C6223 C6222 1.334 . S
C6223 C6224 1.287 . S
C6224 C6223 1.287 . S
C6224 C6225 1.524 . S
C6224 H6243 0.913 . S
C6225 H6201 0.950 . S
C6225 C6224 1.524 . S
C6225 C6226 1.415 . S
C6226 H6202 0.950 . S
C6226 C6221 1.363 . S
C6226 C6225 1.415 . S
C6227 H6203 0.951 . S
C6227 C6228 1.366 . S
C6227 C6229 1.388 . S
C6228 C6227 1.366 . S
C6228 C6232 1.385 . S
C6229 H6204 0.951 . S
C6229 C6227 1.388 . S
C6229 C6230 1.366 . S
C6230 C6229 1.366 . S
C6230 C6231 1.414 . S
C6230 C6233 1.499 . S
C6231 H6205 0.950 . S
C6231 C6230 1.414 . S
C6231 C6232 1.374 . S
C6232 H6206 0.950 . S
C6232 C6228 1.385 . S
C6232 C6231 1.374 . S
C6233 C6230 1.499 . S
C6233 C6234 1.373 . S
C6233 C6235 1.389 . S
C6234 H6207 0.950 . S
C6234 C6220 1.377 . S
C6234 C6233 1.373 . S
C6235 C6219 1.377 . S
C6235 C6233 1.389 . S
C6235 C6236 1.524 . S
C6236 C6235 1.524 . S
C6236 C6237 1.397 . S
C6236 C6241 1.363 . S
C6237 H6208 0.950 . S
C6237 C6236 1.397 . S
C6237 C6238 1.334 . S
C6238 H6209 0.950 . S
C6238 C6237 1.334 . S
C6238 C6239 1.287 . S
C6239 C6238 1.287 . S
C6239 C6240 1.524 . S
C6239 H6242 0.999 . S
C6240 H6210 0.950 . S
C6240 C6239 1.524 . S
C6240 C6241 1.415 . S
C6241 H6211 0.950 . S
C6241 C6236 1.363 . S
C6241 C6240 1.415 . S
H6242 C6239 0.999 . S
H6243 C6224 0.913 . S
H6244 C6262 0.951 . S
H6245 C6264 0.951 . S
H6246 C6266 0.950 . S
H6247 C6267 0.950 . S
H6248 C6269 0.950 . S
H6249 C6272 0.950 . S
H6250 C6273 0.950 . S
H6251 C6275 0.950 . S
H6252 C6276 0.950 . S
H6253 C6277 0.951 . S
H6254 C6279 0.951 . S
H6255 C6281 0.950 . S
H6256 C6282 0.950 . S
H6257 C6284 0.950 . S
H6258 C6287 0.950 . S
H6259 C6288 0.950 . S
H6260 C6290 0.950 . S
H6261 C6291 0.950 . S
C6262 H6244 0.951 . S
C6262 C6263 1.366 . S
C6262 C6264 1.388 . S
C6263 C6262 1.366 . S
C6263 C6267 1.385 . S
C6264 H6245 0.951 . S
C6264 C6262 1.388 . S
C6264 C6265 1.366 . S
C6265 C6264 1.366 . S
C6265 C6266 1.414 . S
C6265 C6268 1.499 . S
C6266 H6246 0.950 . S
C6266 C6265 1.414 . S
C6266 C6267 1.374 . S
C6267 H6247 0.950 . S
C6267 C6263 1.385 . S
C6267 C6266 1.374 . S
C6268 C6265 1.499 . S
C6268 C6269 1.373 . S
C6268 C6270 1.389 . S
C6269 H6248 0.950 . S
C6269 C6268 1.373 . S
C6269 C6285 1.377 . S
C6270 C6268 1.389 . S
C6270 C6271 1.524 . S
C6270 C6284 1.377 . S
C6271 C6270 1.524 . S
C6271 C6272 1.397 . S
C6271 C6276 1.363 . S
C6272 H6249 0.950 . S
C6272 C6271 1.397 . S
C6272 C6273 1.334 . S
C6273 H6250 0.950 . S
C6273 C6272 1.334 . S
C6273 C6274 1.287 . S
C6274 C6273 1.287 . S
C6274 C6275 1.524 . S
C6274 H6293 0.913 . S
C6275 H6251 0.950 . S
C6275 C6274 1.524 . S
C6275 C6276 1.415 . S
C6276 H6252 0.950 . S
C6276 C6271 1.363 . S
C6276 C6275 1.415 . S
C6277 H6253 0.951 . S
C6277 C6278 1.366 . S
C6277 C6279 1.388 . S
C6278 C6277 1.366 . S
C6278 C6282 1.385 . S
C6279 H6254 0.951 . S
C6279 C6277 1.388 . S
C6279 C6280 1.366 . S
C6280 C6279 1.366 . S
C6280 C6281 1.414 . S
C6280 C6283 1.499 . S
C6281 H6255 0.950 . S
C6281 C6280 1.414 . S
C6281 C6282 1.374 . S
C6282 H6256 0.950 . S
C6282 C6278 1.385 . S
C6282 C6281 1.374 . S
C6283 C6280 1.499 . S
C6283 C6284 1.373 . S
C6283 C6285 1.389 . S
C6284 H6257 0.950 . S
C6284 C6270 1.377 . S
C6284 C6283 1.373 . S
C6285 C6269 1.377 . S
C6285 C6283 1.389 . S
C6285 C6286 1.524 . S
C6286 C6285 1.524 . S
C6286 C6287 1.397 . S
C6286 C6291 1.363 . S
C6287 H6258 0.950 . S
C6287 C6286 1.397 . S
C6287 C6288 1.334 . S
C6288 H6259 0.950 . S
C6288 C6287 1.334 . S
C6288 C6289 1.287 . S
C6289 C6288 1.287 . S
C6289 C6290 1.524 . S
C6289 H6292 0.999 . S
C6290 H6260 0.950 . S
C6290 C6289 1.524 . S
C6290 C6291 1.415 . S
C6291 H6261 0.950 . S
C6291 C6286 1.363 . S
C6291 C6290 1.415 . S
H6292 C6289 0.999 . S
H6293 C6274 0.913 . S
H6294 C6312 0.951 . S
H6295 C6314 0.951 . S
H6296 C6316 0.950 . S
H6297 C6317 0.950 . S
H6298 C6319 0.950 . S
H6299 C6322 0.950 . S
H6300 C6323 0.950 . S
H6301 C6325 0.950 . S
H6302 C6326 0.950 . S
H6303 C6327 0.951 . S
H6304 C6329 0.951 . S
H6305 C6331 0.950 . S
H6306 C6332 0.950 . S
H6307 C6334 0.950 . S
H6308 C6337 0.950 . S
H6309 C6338 0.950 . S
H6310 C6340 0.950 . S
H6311 C6341 0.950 . S
C6312 H6294 0.951 . S
C6312 C6313 1.366 . S
C6312 C6314 1.388 . S
C6313 C6312 1.366 . S
C6313 C6317 1.385 . S
C6314 H6295 0.951 . S
C6314 C6312 1.388 . S
C6314 C6315 1.366 . S
C6315 C6314 1.366 . S
C6315 C6316 1.414 . S
C6315 C6318 1.499 . S
C6316 H6296 0.950 . S
C6316 C6315 1.414 . S
C6316 C6317 1.374 . S
C6317 H6297 0.950 . S
C6317 C6313 1.385 . S
C6317 C6316 1.374 . S
C6318 C6315 1.499 . S
C6318 C6319 1.373 . S
C6318 C6320 1.389 . S
C6319 H6298 0.950 . S
C6319 C6318 1.373 . S
C6319 C6335 1.377 . S
C6320 C6318 1.389 . S
C6320 C6321 1.524 . S
C6320 C6334 1.377 . S
C6321 C6320 1.524 . S
C6321 C6322 1.397 . S
C6321 C6326 1.363 . S
C6322 H6299 0.950 . S
C6322 C6321 1.397 . S
C6322 C6323 1.334 . S
C6323 H6300 0.950 . S
C6323 C6322 1.334 . S
C6323 C6324 1.287 . S
C6324 C6323 1.287 . S
C6324 C6325 1.524 . S
C6324 H6343 0.913 . S
C6325 H6301 0.950 . S
C6325 C6324 1.524 . S
C6325 C6326 1.415 . S
C6326 H6302 0.950 . S
C6326 C6321 1.363 . S
C6326 C6325 1.415 . S
C6327 H6303 0.951 . S
C6327 C6328 1.366 . S
C6327 C6329 1.388 . S
C6328 C6327 1.366 . S
C6328 C6332 1.385 . S
C6329 H6304 0.951 . S
C6329 C6327 1.388 . S
C6329 C6330 1.366 . S
C6330 C6329 1.366 . S
C6330 C6331 1.414 . S
C6330 C6333 1.499 . S
C6331 H6305 0.950 . S
C6331 C6330 1.414 . S
C6331 C6332 1.374 . S
C6332 H6306 0.950 . S
C6332 C6328 1.385 . S
C6332 C6331 1.374 . S
C6333 C6330 1.499 . S
C6333 C6334 1.373 . S
C6333 C6335 1.389 . S
C6334 H6307 0.950 . S
C6334 C6320 1.377 . S
C6334 C6333 1.373 . S
C6335 C6319 1.377 . S
C6335 C6333 1.389 . S
C6335 C6336 1.524 . S
C6336 C6335 1.524 . S
C6336 C6337 1.397 . S
C6336 C6341 1.363 . S
C6337 H6308 0.950 . S
C6337 C6336 1.397 . S
C6337 C6338 1.334 . S
C6338 H6309 0.950 . S
C6338 C6337 1.334 . S
C6338 C6339 1.287 . S
C6339 C6338 1.287 . S
C6339 C6340 1.524 . S
C6339 H6342 0.999 . S
C6340 H6310 0.950 . S
C6340 C6339 1.524 . S
C6340 C6341 1.415 . S
C6341 H6311 0.950 . S
C6341 C6336 1.363 . S
C6341 C6340 1.415 . S
H6342 C6339 0.999 . S
H6343 C6324 0.913 . S
H6344 C6362 0.951 . S
H6345 C6364 0.951 . S
H6346 C6366 0.950 . S
H6347 C6367 0.950 . S
H6348 C6369 0.950 . S
H6349 C6372 0.950 . S
H6350 C6373 0.950 . S
H6351 C6375 0.950 . S
H6352 C6376 0.950 . S
H6353 C6377 0.951 . S
H6354 C6379 0.951 . S
H6355 C6381 0.950 . S
H6356 C6382 0.950 . S
H6357 C6384 0.950 . S
H6358 C6387 0.950 . S
H6359 C6388 0.950 . S
H6360 C6390 0.950 . S
H6361 C6391 0.950 . S
C6362 H6344 0.951 . S
C6362 C6363 1.366 . S
C6362 C6364 1.388 . S
C6363 C6362 1.366 . S
C6363 C6367 1.385 . S
C6364 H6345 0.951 . S
C6364 C6362 1.388 . S
C6364 C6365 1.366 . S
C6365 C6364 1.366 . S
C6365 C6366 1.414 . S
C6365 C6368 1.499 . S
C6366 H6346 0.950 . S
C6366 C6365 1.414 . S
C6366 C6367 1.374 . S
C6367 H6347 0.950 . S
C6367 C6363 1.385 . S
C6367 C6366 1.374 . S
C6368 C6365 1.499 . S
C6368 C6369 1.373 . S
C6368 C6370 1.389 . S
C6369 H6348 0.950 . S
C6369 C6368 1.373 . S
C6369 C6385 1.377 . S
C6370 C6368 1.389 . S
C6370 C6371 1.524 . S
C6370 C6384 1.377 . S
C6371 C6370 1.524 . S
C6371 C6372 1.397 . S
C6371 C6376 1.363 . S
C6372 H6349 0.950 . S
C6372 C6371 1.397 . S
C6372 C6373 1.334 . S
C6373 H6350 0.950 . S
C6373 C6372 1.334 . S
C6373 C6374 1.287 . S
C6374 C6373 1.287 . S
C6374 C6375 1.524 . S
C6374 H6393 0.913 . S
C6375 H6351 0.950 . S
C6375 C6374 1.524 . S
C6375 C6376 1.415 . S
C6376 H6352 0.950 . S
C6376 C6371 1.363 . S
C6376 C6375 1.415 . S
C6377 H6353 0.951 . S
C6377 C6378 1.366 . S
C6377 C6379 1.388 . S
C6378 C6377 1.366 . S
C6378 C6382 1.385 . S
C6379 H6354 0.951 . S
C6379 C6377 1.388 . S
C6379 C6380 1.366 . S
C6380 C6379 1.366 . S
C6380 C6381 1.414 . S
C6380 C6383 1.499 . S
C6381 H6355 0.950 . S
C6381 C6380 1.414 . S
C6381 C6382 1.374 . S
C6382 H6356 0.950 . S
C6382 C6378 1.385 . S
C6382 C6381 1.374 . S
C6383 C6380 1.499 . S
C6383 C6384 1.373 . S
C6383 C6385 1.389 . S
C6384 H6357 0.950 . S
C6384 C6370 1.377 . S
C6384 C6383 1.373 . S
C6385 C6369 1.377 . S
C6385 C6383 1.389 . S
C6385 C6386 1.524 . S
C6386 C6385 1.524 . S
C6386 C6387 1.397 . S
C6386 C6391 1.363 . S
C6387 H6358 0.950 . S
C6387 C6386 1.397 . S
C6387 C6388 1.334 . S
C6388 H6359 0.950 . S
C6388 C6387 1.334 . S
C6388 C6389 1.287 . S
C6389 C6388 1.287 . S
C6389 C6390 1.524 . S
C6389 H6392 0.999 . S
C6390 H6360 0.950 . S
C6390 C6389 1.524 . S
C6390 C6391 1.415 . S
C6391 H6361 0.950 . S
C6391 C6386 1.363 . S
C6391 C6390 1.415 . S
H6392 C6389 0.999 . S
H6393 C6374 0.913 . S
H6394 C6412 0.951 . S
H6395 C6414 0.951 . S
H6396 C6416 0.950 . S
H6397 C6417 0.950 . S
H6398 C6419 0.950 . S
H6399 C6422 0.950 . S
H6400 C6423 0.950 . S
H6401 C6425 0.950 . S
H6402 C6426 0.950 . S
H6403 C6427 0.951 . S
H6404 C6429 0.951 . S
H6405 C6431 0.950 . S
H6406 C6432 0.950 . S
H6407 C6434 0.950 . S
H6408 C6437 0.950 . S
H6409 C6438 0.950 . S
H6410 C6440 0.950 . S
H6411 C6441 0.950 . S
C6412 H6394 0.951 . S
C6412 C6413 1.366 . S
C6412 C6414 1.388 . S
C6413 C6412 1.366 . S
C6413 C6417 1.385 . S
C6414 H6395 0.951 . S
C6414 C6412 1.388 . S
C6414 C6415 1.366 . S
C6415 C6414 1.366 . S
C6415 C6416 1.414 . S
C6415 C6418 1.499 . S
C6416 H6396 0.950 . S
C6416 C6415 1.414 . S
C6416 C6417 1.374 . S
C6417 H6397 0.950 . S
C6417 C6413 1.385 . S
C6417 C6416 1.374 . S
C6418 C6415 1.499 . S
C6418 C6419 1.373 . S
C6418 C6420 1.389 . S
C6419 H6398 0.950 . S
C6419 C6418 1.373 . S
C6419 C6435 1.377 . S
C6420 C6418 1.389 . S
C6420 C6421 1.524 . S
C6420 C6434 1.377 . S
C6421 C6420 1.524 . S
C6421 C6422 1.397 . S
C6421 C6426 1.363 . S
C6422 H6399 0.950 . S
C6422 C6421 1.397 . S
C6422 C6423 1.334 . S
C6423 H6400 0.950 . S
C6423 C6422 1.334 . S
C6423 C6424 1.287 . S
C6424 C6423 1.287 . S
C6424 C6425 1.524 . S
C6424 H6443 0.913 . S
C6425 H6401 0.950 . S
C6425 C6424 1.524 . S
C6425 C6426 1.415 . S
C6426 H6402 0.950 . S
C6426 C6421 1.363 . S
C6426 C6425 1.415 . S
C6427 H6403 0.951 . S
C6427 C6428 1.366 . S
C6427 C6429 1.388 . S
C6428 C6427 1.366 . S
C6428 C6432 1.385 . S
C6429 H6404 0.951 . S
C6429 C6427 1.388 . S
C6429 C6430 1.366 . S
C6430 C6429 1.366 . S
C6430 C6431 1.414 . S
C6430 C6433 1.499 . S
C6431 H6405 0.950 . S
C6431 C6430 1.414 . S
C6431 C6432 1.374 . S
C6432 H6406 0.950 . S
C6432 C6428 1.385 . S
C6432 C6431 1.374 . S
C6433 C6430 1.499 . S
C6433 C6434 1.373 . S
C6433 C6435 1.389 . S
C6434 H6407 0.950 . S
C6434 C6420 1.377 . S
C6434 C6433 1.373 . S
C6435 C6419 1.377 . S
C6435 C6433 1.389 . S
C6435 C6436 1.524 . S
C6436 C6435 1.524 . S
C6436 C6437 1.397 . S
C6436 C6441 1.363 . S
C6437 H6408 0.950 . S
C6437 C6436 1.397 . S
C6437 C6438 1.334 . S
C6438 H6409 0.950 . S
C6438 C6437 1.334 . S
C6438 C6439 1.287 . S
C6439 C6438 1.287 . S
C6439 C6440 1.524 . S
C6439 H6442 0.999 . S
C6440 H6410 0.950 . S
C6440 C6439 1.524 . S
C6440 C6441 1.415 . S
C6441 H6411 0.950 . S
C6441 C6436 1.363 . S
C6441 C6440 1.415 . S
H6442 C6439 0.999 . S
H6443 C6424 0.913 . S
H6444 C6462 0.951 . S
H6445 C6464 0.951 . S
H6446 C6466 0.950 . S
H6447 C6467 0.950 . S
H6448 C6469 0.950 . S
H6449 C6472 0.950 . S
H6450 C6473 0.950 . S
H6451 C6475 0.950 . S
H6452 C6476 0.950 . S
H6453 C6477 0.951 . S
H6454 C6479 0.951 . S
H6455 C6481 0.950 . S
H6456 C6482 0.950 . S
H6457 C6484 0.950 . S
H6458 C6487 0.950 . S
H6459 C6488 0.950 . S
H6460 C6490 0.950 . S
H6461 C6491 0.950 . S
C6462 H6444 0.951 . S
C6462 C6463 1.366 . S
C6462 C6464 1.388 . S
C6463 C6462 1.366 . S
C6463 C6467 1.385 . S
C6464 H6445 0.951 . S
C6464 C6462 1.388 . S
C6464 C6465 1.366 . S
C6465 C6464 1.366 . S
C6465 C6466 1.414 . S
C6465 C6468 1.499 . S
C6466 H6446 0.950 . S
C6466 C6465 1.414 . S
C6466 C6467 1.374 . S
C6467 H6447 0.950 . S
C6467 C6463 1.385 . S
C6467 C6466 1.374 . S
C6468 C6465 1.499 . S
C6468 C6469 1.373 . S
C6468 C6470 1.389 . S
C6469 H6448 0.950 . S
C6469 C6468 1.373 . S
C6469 C6485 1.377 . S
C6470 C6468 1.389 . S
C6470 C6471 1.524 . S
C6470 C6484 1.377 . S
C6471 C6470 1.524 . S
C6471 C6472 1.397 . S
C6471 C6476 1.363 . S
C6472 H6449 0.950 . S
C6472 C6471 1.397 . S
C6472 C6473 1.334 . S
C6473 H6450 0.950 . S
C6473 C6472 1.334 . S
C6473 C6474 1.287 . S
C6474 C6473 1.287 . S
C6474 C6475 1.524 . S
C6474 H6493 0.913 . S
C6475 H6451 0.950 . S
C6475 C6474 1.524 . S
C6475 C6476 1.415 . S
C6476 H6452 0.950 . S
C6476 C6471 1.363 . S
C6476 C6475 1.415 . S
C6477 H6453 0.951 . S
C6477 C6478 1.366 . S
C6477 C6479 1.388 . S
C6478 C6477 1.366 . S
C6478 C6482 1.385 . S
C6479 H6454 0.951 . S
C6479 C6477 1.388 . S
C6479 C6480 1.366 . S
C6480 C6479 1.366 . S
C6480 C6481 1.414 . S
C6480 C6483 1.499 . S
C6481 H6455 0.950 . S
C6481 C6480 1.414 . S
C6481 C6482 1.374 . S
C6482 H6456 0.950 . S
C6482 C6478 1.385 . S
C6482 C6481 1.374 . S
C6483 C6480 1.499 . S
C6483 C6484 1.373 . S
C6483 C6485 1.389 . S
C6484 H6457 0.950 . S
C6484 C6470 1.377 . S
C6484 C6483 1.373 . S
C6485 C6469 1.377 . S
C6485 C6483 1.389 . S
C6485 C6486 1.524 . S
C6486 C6485 1.524 . S
C6486 C6487 1.397 . S
C6486 C6491 1.363 . S
C6487 H6458 0.950 . S
C6487 C6486 1.397 . S
C6487 C6488 1.334 . S
C6488 H6459 0.950 . S
C6488 C6487 1.334 . S
C6488 C6489 1.287 . S
C6489 C6488 1.287 . S
C6489 C6490 1.524 . S
C6489 H6492 0.999 . S
C6490 H6460 0.950 . S
C6490 C6489 1.524 . S
C6490 C6491 1.415 . S
C6491 H6461 0.950 . S
C6491 C6486 1.363 . S
C6491 C6490 1.415 . S
H6492 C6489 0.999 . S
H6493 C6474 0.913 . S
H6494 C6512 0.951 . S
H6495 C6514 0.951 . S
H6496 C6516 0.950 . S
H6497 C6517 0.950 . S
H6498 C6519 0.950 . S
H6499 C6522 0.950 . S
H6500 C6523 0.950 . S
H6501 C6525 0.950 . S
H6502 C6526 0.950 . S
H6503 C6527 0.951 . S
H6504 C6529 0.951 . S
H6505 C6531 0.950 . S
H6506 C6532 0.950 . S
H6507 C6534 0.950 . S
H6508 C6537 0.950 . S
H6509 C6538 0.950 . S
H6510 C6540 0.950 . S
H6511 C6541 0.950 . S
C6512 H6494 0.951 . S
C6512 C6513 1.366 . S
C6512 C6514 1.388 . S
C6513 C6512 1.366 . S
C6513 C6517 1.385 . S
C6514 H6495 0.951 . S
C6514 C6512 1.388 . S
C6514 C6515 1.366 . S
C6515 C6514 1.366 . S
C6515 C6516 1.414 . S
C6515 C6518 1.499 . S
C6516 H6496 0.950 . S
C6516 C6515 1.414 . S
C6516 C6517 1.374 . S
C6517 H6497 0.950 . S
C6517 C6513 1.385 . S
C6517 C6516 1.374 . S
C6518 C6515 1.499 . S
C6518 C6519 1.373 . S
C6518 C6520 1.389 . S
C6519 H6498 0.950 . S
C6519 C6518 1.373 . S
C6519 C6535 1.377 . S
C6520 C6518 1.389 . S
C6520 C6521 1.524 . S
C6520 C6534 1.377 . S
C6521 C6520 1.524 . S
C6521 C6522 1.397 . S
C6521 C6526 1.363 . S
C6522 H6499 0.950 . S
C6522 C6521 1.397 . S
C6522 C6523 1.334 . S
C6523 H6500 0.950 . S
C6523 C6522 1.334 . S
C6523 C6524 1.287 . S
C6524 C6523 1.287 . S
C6524 C6525 1.524 . S
C6524 H6543 0.913 . S
C6525 H6501 0.950 . S
C6525 C6524 1.524 . S
C6525 C6526 1.415 . S
C6526 H6502 0.950 . S
C6526 C6521 1.363 . S
C6526 C6525 1.415 . S
C6527 H6503 0.951 . S
C6527 C6528 1.366 . S
C6527 C6529 1.388 . S
C6528 C6527 1.366 . S
C6528 C6532 1.385 . S
C6529 H6504 0.951 . S
C6529 C6527 1.388 . S
C6529 C6530 1.366 . S
C6530 C6529 1.366 . S
C6530 C6531 1.414 . S
C6530 C6533 1.499 . S
C6531 H6505 0.950 . S
C6531 C6530 1.414 . S
C6531 C6532 1.374 . S
C6532 H6506 0.950 . S
C6532 C6528 1.385 . S
C6532 C6531 1.374 . S
C6533 C6530 1.499 . S
C6533 C6534 1.373 . S
C6533 C6535 1.389 . S
C6534 H6507 0.950 . S
C6534 C6520 1.377 . S
C6534 C6533 1.373 . S
C6535 C6519 1.377 . S
C6535 C6533 1.389 . S
C6535 C6536 1.524 . S
C6536 C6535 1.524 . S
C6536 C6537 1.397 . S
C6536 C6541 1.363 . S
C6537 H6508 0.950 . S
C6537 C6536 1.397 . S
C6537 C6538 1.334 . S
C6538 H6509 0.950 . S
C6538 C6537 1.334 . S
C6538 C6539 1.287 . S
C6539 C6538 1.287 . S
C6539 C6540 1.524 . S
C6539 H6542 0.999 . S
C6540 H6510 0.950 . S
C6540 C6539 1.524 . S
C6540 C6541 1.415 . S
C6541 H6511 0.950 . S
C6541 C6536 1.363 . S
C6541 C6540 1.415 . S
H6542 C6539 0.999 . S
H6543 C6524 0.913 . S
H6544 C6562 0.951 . S
H6545 C6564 0.951 . S
H6546 C6566 0.950 . S
H6547 C6567 0.950 . S
H6548 C6569 0.950 . S
H6549 C6572 0.950 . S
H6550 C6573 0.950 . S
H6551 C6575 0.950 . S
H6552 C6576 0.950 . S
H6553 C6577 0.951 . S
H6554 C6579 0.951 . S
H6555 C6581 0.950 . S
H6556 C6582 0.950 . S
H6557 C6584 0.950 . S
H6558 C6587 0.950 . S
H6559 C6588 0.950 . S
H6560 C6590 0.950 . S
H6561 C6591 0.950 . S
C6562 H6544 0.951 . S
C6562 C6563 1.366 . S
C6562 C6564 1.388 . S
C6563 C6562 1.366 . S
C6563 C6567 1.385 . S
C6564 H6545 0.951 . S
C6564 C6562 1.388 . S
C6564 C6565 1.366 . S
C6565 C6564 1.366 . S
C6565 C6566 1.414 . S
C6565 C6568 1.499 . S
C6566 H6546 0.950 . S
C6566 C6565 1.414 . S
C6566 C6567 1.374 . S
C6567 H6547 0.950 . S
C6567 C6563 1.385 . S
C6567 C6566 1.374 . S
C6568 C6565 1.499 . S
C6568 C6569 1.373 . S
C6568 C6570 1.389 . S
C6569 H6548 0.950 . S
C6569 C6568 1.373 . S
C6569 C6585 1.377 . S
C6570 C6568 1.389 . S
C6570 C6571 1.524 . S
C6570 C6584 1.377 . S
C6571 C6570 1.524 . S
C6571 C6572 1.397 . S
C6571 C6576 1.363 . S
C6572 H6549 0.950 . S
C6572 C6571 1.397 . S
C6572 C6573 1.334 . S
C6573 H6550 0.950 . S
C6573 C6572 1.334 . S
C6573 C6574 1.287 . S
C6574 C6573 1.287 . S
C6574 C6575 1.524 . S
C6574 H6593 0.913 . S
C6575 H6551 0.950 . S
C6575 C6574 1.524 . S
C6575 C6576 1.415 . S
C6576 H6552 0.950 . S
C6576 C6571 1.363 . S
C6576 C6575 1.415 . S
C6577 H6553 0.951 . S
C6577 C6578 1.366 . S
C6577 C6579 1.388 . S
C6578 C6577 1.366 . S
C6578 C6582 1.385 . S
C6579 H6554 0.951 . S
C6579 C6577 1.388 . S
C6579 C6580 1.366 . S
C6580 C6579 1.366 . S
C6580 C6581 1.414 . S
C6580 C6583 1.499 . S
C6581 H6555 0.950 . S
C6581 C6580 1.414 . S
C6581 C6582 1.374 . S
C6582 H6556 0.950 . S
C6582 C6578 1.385 . S
C6582 C6581 1.374 . S
C6583 C6580 1.499 . S
C6583 C6584 1.373 . S
C6583 C6585 1.389 . S
C6584 H6557 0.950 . S
C6584 C6570 1.377 . S
C6584 C6583 1.373 . S
C6585 C6569 1.377 . S
C6585 C6583 1.389 . S
C6585 C6586 1.524 . S
C6586 C6585 1.524 . S
C6586 C6587 1.397 . S
C6586 C6591 1.363 . S
C6587 H6558 0.950 . S
C6587 C6586 1.397 . S
C6587 C6588 1.334 . S
C6588 H6559 0.950 . S
C6588 C6587 1.334 . S
C6588 C6589 1.287 . S
C6589 C6588 1.287 . S
C6589 C6590 1.524 . S
C6589 H6592 0.999 . S
C6590 H6560 0.950 . S
C6590 C6589 1.524 . S
C6590 C6591 1.415 . S
C6591 H6561 0.950 . S
C6591 C6586 1.363 . S
C6591 C6590 1.415 . S
H6592 C6589 0.999 . S
H6593 C6574 0.913 . S
H6594 C6612 0.951 . S
H6595 C6614 0.951 . S
H6596 C6616 0.950 . S
H6597 C6617 0.950 . S
H6598 C6619 0.950 . S
H6599 C6622 0.950 . S
H6600 C6623 0.950 . S
H6601 C6625 0.950 . S
H6602 C6626 0.950 . S
H6603 C6627 0.951 . S
H6604 C6629 0.951 . S
H6605 C6631 0.950 . S
H6606 C6632 0.950 . S
H6607 C6634 0.950 . S
H6608 C6637 0.950 . S
H6609 C6638 0.950 . S
H6610 C6640 0.950 . S
H6611 C6641 0.950 . S
C6612 H6594 0.951 . S
C6612 C6613 1.366 . S
C6612 C6614 1.388 . S
C6613 C6612 1.366 . S
C6613 C6617 1.385 . S
C6614 H6595 0.951 . S
C6614 C6612 1.388 . S
C6614 C6615 1.366 . S
C6615 C6614 1.366 . S
C6615 C6616 1.414 . S
C6615 C6618 1.499 . S
C6616 H6596 0.950 . S
C6616 C6615 1.414 . S
C6616 C6617 1.374 . S
C6617 H6597 0.950 . S
C6617 C6613 1.385 . S
C6617 C6616 1.374 . S
C6618 C6615 1.499 . S
C6618 C6619 1.373 . S
C6618 C6620 1.389 . S
C6619 H6598 0.950 . S
C6619 C6618 1.373 . S
C6619 C6635 1.377 . S
C6620 C6618 1.389 . S
C6620 C6621 1.524 . S
C6620 C6634 1.377 . S
C6621 C6620 1.524 . S
C6621 C6622 1.397 . S
C6621 C6626 1.363 . S
C6622 H6599 0.950 . S
C6622 C6621 1.397 . S
C6622 C6623 1.334 . S
C6623 H6600 0.950 . S
C6623 C6622 1.334 . S
C6623 C6624 1.287 . S
C6624 C6623 1.287 . S
C6624 C6625 1.524 . S
C6624 H6643 0.913 . S
C6625 H6601 0.950 . S
C6625 C6624 1.524 . S
C6625 C6626 1.415 . S
C6626 H6602 0.950 . S
C6626 C6621 1.363 . S
C6626 C6625 1.415 . S
C6627 H6603 0.951 . S
C6627 C6628 1.366 . S
C6627 C6629 1.388 . S
C6628 C6627 1.366 . S
C6628 C6632 1.385 . S
C6629 H6604 0.951 . S
C6629 C6627 1.388 . S
C6629 C6630 1.366 . S
C6630 C6629 1.366 . S
C6630 C6631 1.414 . S
C6630 C6633 1.499 . S
C6631 H6605 0.950 . S
C6631 C6630 1.414 . S
C6631 C6632 1.374 . S
C6632 H6606 0.950 . S
C6632 C6628 1.385 . S
C6632 C6631 1.374 . S
C6633 C6630 1.499 . S
C6633 C6634 1.373 . S
C6633 C6635 1.389 . S
C6634 H6607 0.950 . S
C6634 C6620 1.377 . S
C6634 C6633 1.373 . S
C6635 C6619 1.377 . S
C6635 C6633 1.389 . S
C6635 C6636 1.524 . S
C6636 C6635 1.524 . S
C6636 C6637 1.397 . S
C6636 C6641 1.363 . S
C6637 H6608 0.950 . S
C6637 C6636 1.397 . S
C6637 C6638 1.334 . S
C6638 H6609 0.950 . S
C6638 C6637 1.334 . S
C6638 C6639 1.287 . S
C6639 C6638 1.287 . S
C6639 C6640 1.524 . S
C6639 H6642 0.999 . S
C6640 H6610 0.950 . S
C6640 C6639 1.524 . S
C6640 C6641 1.415 . S
C6641 H6611 0.950 . S
C6641 C6636 1.363 . S
C6641 C6640 1.415 . S
H6642 C6639 0.999 . S
H6643 C6624 0.913 . S
H6644 C6662 0.951 . S
H6645 C6664 0.951 . S
H6646 C6666 0.950 . S
H6647 C6667 0.950 . S
H6648 C6669 0.950 . S
H6649 C6672 0.950 . S
H6650 C6673 0.950 . S
H6651 C6675 0.950 . S
H6652 C6676 0.950 . S
H6653 C6677 0.951 . S
H6654 C6679 0.951 . S
H6655 C6681 0.950 . S
H6656 C6682 0.950 . S
H6657 C6684 0.950 . S
H6658 C6687 0.950 . S
H6659 C6688 0.950 . S
H6660 C6690 0.950 . S
H6661 C6691 0.950 . S
C6662 H6644 0.951 . S
C6662 C6663 1.366 . S
C6662 C6664 1.388 . S
C6663 C6662 1.366 . S
C6663 C6667 1.385 . S
C6664 H6645 0.951 . S
C6664 C6662 1.388 . S
C6664 C6665 1.366 . S
C6665 C6664 1.366 . S
C6665 C6666 1.414 . S
C6665 C6668 1.499 . S
C6666 H6646 0.950 . S
C6666 C6665 1.414 . S
C6666 C6667 1.374 . S
C6667 H6647 0.950 . S
C6667 C6663 1.385 . S
C6667 C6666 1.374 . S
C6668 C6665 1.499 . S
C6668 C6669 1.373 . S
C6668 C6670 1.389 . S
C6669 H6648 0.950 . S
C6669 C6668 1.373 . S
C6669 C6685 1.377 . S
C6670 C6668 1.389 . S
C6670 C6671 1.524 . S
C6670 C6684 1.377 . S
C6671 C6670 1.524 . S
C6671 C6672 1.397 . S
C6671 C6676 1.363 . S
C6672 H6649 0.950 . S
C6672 C6671 1.397 . S
C6672 C6673 1.334 . S
C6673 H6650 0.950 . S
C6673 C6672 1.334 . S
C6673 C6674 1.287 . S
C6674 C6673 1.287 . S
C6674 C6675 1.524 . S
C6674 H6693 0.913 . S
C6675 H6651 0.950 . S
C6675 C6674 1.524 . S
C6675 C6676 1.415 . S
C6676 H6652 0.950 . S
C6676 C6671 1.363 . S
C6676 C6675 1.415 . S
C6677 H6653 0.951 . S
C6677 C6678 1.366 . S
C6677 C6679 1.388 . S
C6678 C6677 1.366 . S
C6678 C6682 1.385 . S
C6679 H6654 0.951 . S
C6679 C6677 1.388 . S
C6679 C6680 1.366 . S
C6680 C6679 1.366 . S
C6680 C6681 1.414 . S
C6680 C6683 1.499 . S
C6681 H6655 0.950 . S
C6681 C6680 1.414 . S
C6681 C6682 1.374 . S
C6682 H6656 0.950 . S
C6682 C6678 1.385 . S
C6682 C6681 1.374 . S
C6683 C6680 1.499 . S
C6683 C6684 1.373 . S
C6683 C6685 1.389 . S
C6684 H6657 0.950 . S
C6684 C6670 1.377 . S
C6684 C6683 1.373 . S
C6685 C6669 1.377 . S
C6685 C6683 1.389 . S
C6685 C6686 1.524 . S
C6686 C6685 1.524 . S
C6686 C6687 1.397 . S
C6686 C6691 1.363 . S
C6687 H6658 0.950 . S
C6687 C6686 1.397 . S
C6687 C6688 1.334 . S
C6688 H6659 0.950 . S
C6688 C6687 1.334 . S
C6688 C6689 1.287 . S
C6689 C6688 1.287 . S
C6689 C6690 1.524 . S
C6689 H6692 0.999 . S
C6690 H6660 0.950 . S
C6690 C6689 1.524 . S
C6690 C6691 1.415 . S
C6691 H6661 0.950 . S
C6691 C6686 1.363 . S
C6691 C6690 1.415 . S
H6692 C6689 0.999 . S
H6693 C6674 0.913 . S
H6694 C6712 0.951 . S
H6695 C6714 0.951 . S
H6696 C6716 0.950 . S
H6697 C6717 0.950 . S
H6698 C6719 0.950 . S
H6699 C6722 0.950 . S
H6700 C6723 0.950 . S
H6701 C6725 0.950 . S
H6702 C6726 0.950 . S
H6703 C6727 0.951 . S
H6704 C6729 0.951 . S
H6705 C6731 0.950 . S
H6706 C6732 0.950 . S
H6707 C6734 0.950 . S
H6708 C6737 0.950 . S
H6709 C6738 0.950 . S
H6710 C6740 0.950 . S
H6711 C6741 0.950 . S
C6712 H6694 0.951 . S
C6712 C6713 1.366 . S
C6712 C6714 1.388 . S
C6713 C6712 1.366 . S
C6713 C6717 1.385 . S
C6714 H6695 0.951 . S
C6714 C6712 1.388 . S
C6714 C6715 1.366 . S
C6715 C6714 1.366 . S
C6715 C6716 1.414 . S
C6715 C6718 1.499 . S
C6716 H6696 0.950 . S
C6716 C6715 1.414 . S
C6716 C6717 1.374 . S
C6717 H6697 0.950 . S
C6717 C6713 1.385 . S
C6717 C6716 1.374 . S
C6718 C6715 1.499 . S
C6718 C6719 1.373 . S
C6718 C6720 1.389 . S
C6719 H6698 0.950 . S
C6719 C6718 1.373 . S
C6719 C6735 1.377 . S
C6720 C6718 1.389 . S
C6720 C6721 1.524 . S
C6720 C6734 1.377 . S
C6721 C6720 1.524 . S
C6721 C6722 1.397 . S
C6721 C6726 1.363 . S
C6722 H6699 0.950 . S
C6722 C6721 1.397 . S
C6722 C6723 1.334 . S
C6723 H6700 0.950 . S
C6723 C6722 1.334 . S
C6723 C6724 1.287 . S
C6724 C6723 1.287 . S
C6724 C6725 1.524 . S
C6724 H6743 0.913 . S
C6725 H6701 0.950 . S
C6725 C6724 1.524 . S
C6725 C6726 1.415 . S
C6726 H6702 0.950 . S
C6726 C6721 1.363 . S
C6726 C6725 1.415 . S
C6727 H6703 0.951 . S
C6727 C6728 1.366 . S
C6727 C6729 1.388 . S
C6728 C6727 1.366 . S
C6728 C6732 1.385 . S
C6729 H6704 0.951 . S
C6729 C6727 1.388 . S
C6729 C6730 1.366 . S
C6730 C6729 1.366 . S
C6730 C6731 1.414 . S
C6730 C6733 1.499 . S
C6731 H6705 0.950 . S
C6731 C6730 1.414 . S
C6731 C6732 1.374 . S
C6732 H6706 0.950 . S
C6732 C6728 1.385 . S
C6732 C6731 1.374 . S
C6733 C6730 1.499 . S
C6733 C6734 1.373 . S
C6733 C6735 1.389 . S
C6734 H6707 0.950 . S
C6734 C6720 1.377 . S
C6734 C6733 1.373 . S
C6735 C6719 1.377 . S
C6735 C6733 1.389 . S
C6735 C6736 1.524 . S
C6736 C6735 1.524 . S
C6736 C6737 1.397 . S
C6736 C6741 1.363 . S
C6737 H6708 0.950 . S
C6737 C6736 1.397 . S
C6737 C6738 1.334 . S
C6738 H6709 0.950 . S
C6738 C6737 1.334 . S
C6738 C6739 1.287 . S
C6739 C6738 1.287 . S
C6739 C6740 1.524 . S
C6739 H6742 0.999 . S
C6740 H6710 0.950 . S
C6740 C6739 1.524 . S
C6740 C6741 1.415 . S
C6741 H6711 0.950 . S
C6741 C6736 1.363 . S
C6741 C6740 1.415 . S
H6742 C6739 0.999 . S
H6743 C6724 0.913 . S
H6744 C6762 0.951 . S
H6745 C6764 0.951 . S
H6746 C6766 0.950 . S
H6747 C6767 0.950 . S
H6748 C6769 0.950 . S
H6749 C6772 0.950 . S
H6750 C6773 0.950 . S
H6751 C6775 0.950 . S
H6752 C6776 0.950 . S
H6753 C6777 0.951 . S
H6754 C6779 0.951 . S
H6755 C6781 0.950 . S
H6756 C6782 0.950 . S
H6757 C6784 0.950 . S
H6758 C6787 0.950 . S
H6759 C6788 0.950 . S
H6760 C6790 0.950 . S
H6761 C6791 0.950 . S
C6762 H6744 0.951 . S
C6762 C6763 1.366 . S
C6762 C6764 1.388 . S
C6763 C6762 1.366 . S
C6763 C6767 1.385 . S
C6764 H6745 0.951 . S
C6764 C6762 1.388 . S
C6764 C6765 1.366 . S
C6765 C6764 1.366 . S
C6765 C6766 1.414 . S
C6765 C6768 1.499 . S
C6766 H6746 0.950 . S
C6766 C6765 1.414 . S
C6766 C6767 1.374 . S
C6767 H6747 0.950 . S
C6767 C6763 1.385 . S
C6767 C6766 1.374 . S
C6768 C6765 1.499 . S
C6768 C6769 1.373 . S
C6768 C6770 1.389 . S
C6769 H6748 0.950 . S
C6769 C6768 1.373 . S
C6769 C6785 1.377 . S
C6770 C6768 1.389 . S
C6770 C6771 1.524 . S
C6770 C6784 1.377 . S
C6771 C6770 1.524 . S
C6771 C6772 1.397 . S
C6771 C6776 1.363 . S
C6772 H6749 0.950 . S
C6772 C6771 1.397 . S
C6772 C6773 1.334 . S
C6773 H6750 0.950 . S
C6773 C6772 1.334 . S
C6773 C6774 1.287 . S
C6774 C6773 1.287 . S
C6774 C6775 1.524 . S
C6774 H6793 0.913 . S
C6775 H6751 0.950 . S
C6775 C6774 1.524 . S
C6775 C6776 1.415 . S
C6776 H6752 0.950 . S
C6776 C6771 1.363 . S
C6776 C6775 1.415 . S
C6777 H6753 0.951 . S
C6777 C6778 1.366 . S
C6777 C6779 1.388 . S
C6778 C6777 1.366 . S
C6778 C6782 1.385 . S
C6779 H6754 0.951 . S
C6779 C6777 1.388 . S
C6779 C6780 1.366 . S
C6780 C6779 1.366 . S
C6780 C6781 1.414 . S
C6780 C6783 1.499 . S
C6781 H6755 0.950 . S
C6781 C6780 1.414 . S
C6781 C6782 1.374 . S
C6782 H6756 0.950 . S
C6782 C6778 1.385 . S
C6782 C6781 1.374 . S
C6783 C6780 1.499 . S
C6783 C6784 1.373 . S
C6783 C6785 1.389 . S
C6784 H6757 0.950 . S
C6784 C6770 1.377 . S
C6784 C6783 1.373 . S
C6785 C6769 1.377 . S
C6785 C6783 1.389 . S
C6785 C6786 1.524 . S
C6786 C6785 1.524 . S
C6786 C6787 1.397 . S
C6786 C6791 1.363 . S
C6787 H6758 0.950 . S
C6787 C6786 1.397 . S
C6787 C6788 1.334 . S
C6788 H6759 0.950 . S
C6788 C6787 1.334 . S
C6788 C6789 1.287 . S
C6789 C6788 1.287 . S
C6789 C6790 1.524 . S
C6789 H6792 0.999 . S
C6790 H6760 0.950 . S
C6790 C6789 1.524 . S
C6790 C6791 1.415 . S
C6791 H6761 0.950 . S
C6791 C6786 1.363 . S
C6791 C6790 1.415 . S
H6792 C6789 0.999 . S
H6793 C6774 0.913 . S
H6794 C6812 0.951 . S
H6795 C6814 0.951 . S
H6796 C6816 0.950 . S
H6797 C6817 0.950 . S
H6798 C6819 0.950 . S
H6799 C6822 0.950 . S
H6800 C6823 0.950 . S
H6801 C6825 0.950 . S
H6802 C6826 0.950 . S
H6803 C6827 0.951 . S
H6804 C6829 0.951 . S
H6805 C6831 0.950 . S
H6806 C6832 0.950 . S
H6807 C6834 0.950 . S
H6808 C6837 0.950 . S
H6809 C6838 0.950 . S
H6810 C6840 0.950 . S
H6811 C6841 0.950 . S
C6812 H6794 0.951 . S
C6812 C6813 1.366 . S
C6812 C6814 1.388 . S
C6813 C6812 1.366 . S
C6813 C6817 1.385 . S
C6814 H6795 0.951 . S
C6814 C6812 1.388 . S
C6814 C6815 1.366 . S
C6815 C6814 1.366 . S
C6815 C6816 1.414 . S
C6815 C6818 1.499 . S
C6816 H6796 0.950 . S
C6816 C6815 1.414 . S
C6816 C6817 1.374 . S
C6817 H6797 0.950 . S
C6817 C6813 1.385 . S
C6817 C6816 1.374 . S
C6818 C6815 1.499 . S
C6818 C6819 1.373 . S
C6818 C6820 1.389 . S
C6819 H6798 0.950 . S
C6819 C6818 1.373 . S
C6819 C6835 1.377 . S
C6820 C6818 1.389 . S
C6820 C6821 1.524 . S
C6820 C6834 1.377 . S
C6821 C6820 1.524 . S
C6821 C6822 1.397 . S
C6821 C6826 1.363 . S
C6822 H6799 0.950 . S
C6822 C6821 1.397 . S
C6822 C6823 1.334 . S
C6823 H6800 0.950 . S
C6823 C6822 1.334 . S
C6823 C6824 1.287 . S
C6824 C6823 1.287 . S
C6824 C6825 1.524 . S
C6824 H6843 0.913 . S
C6825 H6801 0.950 . S
C6825 C6824 1.524 . S
C6825 C6826 1.415 . S
C6826 H6802 0.950 . S
C6826 C6821 1.363 . S
C6826 C6825 1.415 . S
C6827 H6803 0.951 . S
C6827 C6828 1.366 . S
C6827 C6829 1.388 . S
C6828 C6827 1.366 . S
C6828 C6832 1.385 . S
C6829 H6804 0.951 . S
C6829 C6827 1.388 . S
C6829 C6830 1.366 . S
C6830 C6829 1.366 . S
C6830 C6831 1.414 . S
C6830 C6833 1.499 . S
C6831 H6805 0.950 . S
C6831 C6830 1.414 . S
C6831 C6832 1.374 . S
C6832 H6806 0.950 . S
C6832 C6828 1.385 . S
C6832 C6831 1.374 . S
C6833 C6830 1.499 . S
C6833 C6834 1.373 . S
C6833 C6835 1.389 . S
C6834 H6807 0.950 . S
C6834 C6820 1.377 . S
C6834 C6833 1.373 . S
C6835 C6819 1.377 . S
C6835 C6833 1.389 . S
C6835 C6836 1.524 . S
C6836 C6835 1.524 . S
C6836 C6837 1.397 . S
C6836 C6841 1.363 . S
C6837 H6808 0.950 . S
C6837 C6836 1.397 . S
C6837 C6838 1.334 . S
C6838 H6809 0.950 . S
C6838 C6837 1.334 . S
C6838 C6839 1.287 . S
C6839 C6838 1.287 . S
C6839 C6840 1.524 . S
C6839 H6842 0.999 . S
C6840 H6810 0.950 . S
C6840 C6839 1.524 . S
C6840 C6841 1.415 . S
C6841 H6811 0.950 . S
C6841 C6836 1.363 . S
C6841 C6840 1.415 . S
H6842 C6839 0.999 . S
H6843 C6824 0.913 . S
H6844 C6862 0.951 . S
H6845 C6864 0.951 . S
H6846 C6866 0.950 . S
H6847 C6867 0.950 . S
H6848 C6869 0.950 . S
H6849 C6872 0.950 . S
H6850 C6873 0.950 . S
H6851 C6875 0.950 . S
H6852 C6876 0.950 . S
H6853 C6877 0.951 . S
H6854 C6879 0.951 . S
H6855 C6881 0.950 . S
H6856 C6882 0.950 . S
H6857 C6884 0.950 . S
H6858 C6887 0.950 . S
H6859 C6888 0.950 . S
H6860 C6890 0.950 . S
H6861 C6891 0.950 . S
C6862 H6844 0.951 . S
C6862 C6863 1.366 . S
C6862 C6864 1.388 . S
C6863 C6862 1.366 . S
C6863 C6867 1.385 . S
C6864 H6845 0.951 . S
C6864 C6862 1.388 . S
C6864 C6865 1.366 . S
C6865 C6864 1.366 . S
C6865 C6866 1.414 . S
C6865 C6868 1.499 . S
C6866 H6846 0.950 . S
C6866 C6865 1.414 . S
C6866 C6867 1.374 . S
C6867 H6847 0.950 . S
C6867 C6863 1.385 . S
C6867 C6866 1.374 . S
C6868 C6865 1.499 . S
C6868 C6869 1.373 . S
C6868 C6870 1.389 . S
C6869 H6848 0.950 . S
C6869 C6868 1.373 . S
C6869 C6885 1.377 . S
C6870 C6868 1.389 . S
C6870 C6871 1.524 . S
C6870 C6884 1.377 . S
C6871 C6870 1.524 . S
C6871 C6872 1.397 . S
C6871 C6876 1.363 . S
C6872 H6849 0.950 . S
C6872 C6871 1.397 . S
C6872 C6873 1.334 . S
C6873 H6850 0.950 . S
C6873 C6872 1.334 . S
C6873 C6874 1.287 . S
C6874 C6873 1.287 . S
C6874 C6875 1.524 . S
C6874 H6893 0.913 . S
C6875 H6851 0.950 . S
C6875 C6874 1.524 . S
C6875 C6876 1.415 . S
C6876 H6852 0.950 . S
C6876 C6871 1.363 . S
C6876 C6875 1.415 . S
C6877 H6853 0.951 . S
C6877 C6878 1.366 . S
C6877 C6879 1.388 . S
C6878 C6877 1.366 . S
C6878 C6882 1.385 . S
C6879 H6854 0.951 . S
C6879 C6877 1.388 . S
C6879 C6880 1.366 . S
C6880 C6879 1.366 . S
C6880 C6881 1.414 . S
C6880 C6883 1.499 . S
C6881 H6855 0.950 . S
C6881 C6880 1.414 . S
C6881 C6882 1.374 . S
C6882 H6856 0.950 . S
C6882 C6878 1.385 . S
C6882 C6881 1.374 . S
C6883 C6880 1.499 . S
C6883 C6884 1.373 . S
C6883 C6885 1.389 . S
C6884 H6857 0.950 . S
C6884 C6870 1.377 . S
C6884 C6883 1.373 . S
C6885 C6869 1.377 . S
C6885 C6883 1.389 . S
C6885 C6886 1.524 . S
C6886 C6885 1.524 . S
C6886 C6887 1.397 . S
C6886 C6891 1.363 . S
C6887 H6858 0.950 . S
C6887 C6886 1.397 . S
C6887 C6888 1.334 . S
C6888 H6859 0.950 . S
C6888 C6887 1.334 . S
C6888 C6889 1.287 . S
C6889 C6888 1.287 . S
C6889 C6890 1.524 . S
C6889 H6892 0.999 . S
C6890 H6860 0.950 . S
C6890 C6889 1.524 . S
C6890 C6891 1.415 . S
C6891 H6861 0.950 . S
C6891 C6886 1.363 . S
C6891 C6890 1.415 . S
H6892 C6889 0.999 . S
H6893 C6874 0.913 . S
H6894 C6912 0.951 . S
H6895 C6914 0.951 . S
H6896 C6916 0.950 . S
H6897 C6917 0.950 . S
H6898 C6919 0.950 . S
H6899 C6922 0.950 . S
H6900 C6923 0.950 . S
H6901 C6925 0.950 . S
H6902 C6926 0.950 . S
H6903 C6927 0.951 . S
H6904 C6929 0.951 . S
H6905 C6931 0.950 . S
H6906 C6932 0.950 . S
H6907 C6934 0.950 . S
H6908 C6937 0.950 . S
H6909 C6938 0.950 . S
H6910 C6940 0.950 . S
H6911 C6941 0.950 . S
C6912 H6894 0.951 . S
C6912 C6913 1.366 . S
C6912 C6914 1.388 . S
C6913 C6912 1.366 . S
C6913 C6917 1.385 . S
C6914 H6895 0.951 . S
C6914 C6912 1.388 . S
C6914 C6915 1.366 . S
C6915 C6914 1.366 . S
C6915 C6916 1.414 . S
C6915 C6918 1.499 . S
C6916 H6896 0.950 . S
C6916 C6915 1.414 . S
C6916 C6917 1.374 . S
C6917 H6897 0.950 . S
C6917 C6913 1.385 . S
C6917 C6916 1.374 . S
C6918 C6915 1.499 . S
C6918 C6919 1.373 . S
C6918 C6920 1.389 . S
C6919 H6898 0.950 . S
C6919 C6918 1.373 . S
C6919 C6935 1.377 . S
C6920 C6918 1.389 . S
C6920 C6921 1.524 . S
C6920 C6934 1.377 . S
C6921 C6920 1.524 . S
C6921 C6922 1.397 . S
C6921 C6926 1.363 . S
C6922 H6899 0.950 . S
C6922 C6921 1.397 . S
C6922 C6923 1.334 . S
C6923 H6900 0.950 . S
C6923 C6922 1.334 . S
C6923 C6924 1.287 . S
C6924 C6923 1.287 . S
C6924 C6925 1.524 . S
C6924 H6943 0.913 . S
C6925 H6901 0.950 . S
C6925 C6924 1.524 . S
C6925 C6926 1.415 . S
C6926 H6902 0.950 . S
C6926 C6921 1.363 . S
C6926 C6925 1.415 . S
C6927 H6903 0.951 . S
C6927 C6928 1.366 . S
C6927 C6929 1.388 . S
C6928 C6927 1.366 . S
C6928 C6932 1.385 . S
C6929 H6904 0.951 . S
C6929 C6927 1.388 . S
C6929 C6930 1.366 . S
C6930 C6929 1.366 . S
C6930 C6931 1.414 . S
C6930 C6933 1.499 . S
C6931 H6905 0.950 . S
C6931 C6930 1.414 . S
C6931 C6932 1.374 . S
C6932 H6906 0.950 . S
C6932 C6928 1.385 . S
C6932 C6931 1.374 . S
C6933 C6930 1.499 . S
C6933 C6934 1.373 . S
C6933 C6935 1.389 . S
C6934 H6907 0.950 . S
C6934 C6920 1.377 . S
C6934 C6933 1.373 . S
C6935 C6919 1.377 . S
C6935 C6933 1.389 . S
C6935 C6936 1.524 . S
C6936 C6935 1.524 . S
C6936 C6937 1.397 . S
C6936 C6941 1.363 . S
C6937 H6908 0.950 . S
C6937 C6936 1.397 . S
C6937 C6938 1.334 . S
C6938 H6909 0.950 . S
C6938 C6937 1.334 . S
C6938 C6939 1.287 . S
C6939 C6938 1.287 . S
C6939 C6940 1.524 . S
C6939 H6942 0.999 . S
C6940 H6910 0.950 . S
C6940 C6939 1.524 . S
C6940 C6941 1.415 . S
C6941 H6911 0.950 . S
C6941 C6936 1.363 . S
C6941 C6940 1.415 . S
H6942 C6939 0.999 . S
H6943 C6924 0.913 . S
H6944 C6962 0.951 . S
H6945 C6964 0.951 . S
H6946 C6966 0.950 . S
H6947 C6967 0.950 . S
H6948 C6969 0.950 . S
H6949 C6972 0.950 . S
H6950 C6973 0.950 . S
H6951 C6975 0.950 . S
H6952 C6976 0.950 . S
H6953 C6977 0.951 . S
H6954 C6979 0.951 . S
H6955 C6981 0.950 . S
H6956 C6982 0.950 . S
H6957 C6984 0.950 . S
H6958 C6987 0.950 . S
H6959 C6988 0.950 . S
H6960 C6990 0.950 . S
H6961 C6991 0.950 . S
C6962 H6944 0.951 . S
C6962 C6963 1.366 . S
C6962 C6964 1.388 . S
C6963 C6962 1.366 . S
C6963 C6967 1.385 . S
C6964 H6945 0.951 . S
C6964 C6962 1.388 . S
C6964 C6965 1.366 . S
C6965 C6964 1.366 . S
C6965 C6966 1.414 . S
C6965 C6968 1.499 . S
C6966 H6946 0.950 . S
C6966 C6965 1.414 . S
C6966 C6967 1.374 . S
C6967 H6947 0.950 . S
C6967 C6963 1.385 . S
C6967 C6966 1.374 . S
C6968 C6965 1.499 . S
C6968 C6969 1.373 . S
C6968 C6970 1.389 . S
C6969 H6948 0.950 . S
C6969 C6968 1.373 . S
C6969 C6985 1.377 . S
C6970 C6968 1.389 . S
C6970 C6971 1.524 . S
C6970 C6984 1.377 . S
C6971 C6970 1.524 . S
C6971 C6972 1.397 . S
C6971 C6976 1.363 . S
C6972 H6949 0.950 . S
C6972 C6971 1.397 . S
C6972 C6973 1.334 . S
C6973 H6950 0.950 . S
C6973 C6972 1.334 . S
C6973 C6974 1.287 . S
C6974 C6973 1.287 . S
C6974 C6975 1.524 . S
C6974 H6993 0.913 . S
C6975 H6951 0.950 . S
C6975 C6974 1.524 . S
C6975 C6976 1.415 . S
C6976 H6952 0.950 . S
C6976 C6971 1.363 . S
C6976 C6975 1.415 . S
C6977 H6953 0.951 . S
C6977 C6978 1.366 . S
C6977 C6979 1.388 . S
C6978 C6977 1.366 . S
C6978 C6982 1.385 . S
C6979 H6954 0.951 . S
C6979 C6977 1.388 . S
C6979 C6980 1.366 . S
C6980 C6979 1.366 . S
C6980 C6981 1.414 . S
C6980 C6983 1.499 . S
C6981 H6955 0.950 . S
C6981 C6980 1.414 . S
C6981 C6982 1.374 . S
C6982 H6956 0.950 . S
C6982 C6978 1.385 . S
C6982 C6981 1.374 . S
C6983 C6980 1.499 . S
C6983 C6984 1.373 . S
C6983 C6985 1.389 . S
C6984 H6957 0.950 . S
C6984 C6970 1.377 . S
C6984 C6983 1.373 . S
C6985 C6969 1.377 . S
C6985 C6983 1.389 . S
C6985 C6986 1.524 . S
C6986 C6985 1.524 . S
C6986 C6987 1.397 . S
C6986 C6991 1.363 . S
C6987 H6958 0.950 . S
C6987 C6986 1.397 . S
C6987 C6988 1.334 . S
C6988 H6959 0.950 . S
C6988 C6987 1.334 . S
C6988 C6989 1.287 . S
C6989 C6988 1.287 . S
C6989 C6990 1.524 . S
C6989 H6992 0.999 . S
C6990 H6960 0.950 . S
C6990 C6989 1.524 . S
C6990 C6991 1.415 . S
C6991 H6961 0.950 . S
C6991 C6986 1.363 . S
C6991 C6990 1.415 . S
H6992 C6989 0.999 . S
H6993 C6974 0.913 . S
H6994 C7012 0.951 . S
H6995 C7014 0.951 . S
H6996 C7016 0.950 . S
H6997 C7017 0.950 . S
H6998 C7019 0.950 . S
H6999 C7022 0.950 . S
H7000 C7023 0.950 . S
H7001 C7025 0.950 . S
H7002 C7026 0.950 . S
H7003 C7027 0.951 . S
H7004 C7029 0.951 . S
H7005 C7031 0.950 . S
H7006 C7032 0.950 . S
H7007 C7034 0.950 . S
H7008 C7037 0.950 . S
H7009 C7038 0.950 . S
H7010 C7040 0.950 . S
H7011 C7041 0.950 . S
C7012 H6994 0.951 . S
C7012 C7013 1.366 . S
C7012 C7014 1.388 . S
C7013 C7012 1.366 . S
C7013 C7017 1.385 . S
C7014 H6995 0.951 . S
C7014 C7012 1.388 . S
C7014 C7015 1.366 . S
C7015 C7014 1.366 . S
C7015 C7016 1.414 . S
C7015 C7018 1.499 . S
C7016 H6996 0.950 . S
C7016 C7015 1.414 . S
C7016 C7017 1.374 . S
C7017 H6997 0.950 . S
C7017 C7013 1.385 . S
C7017 C7016 1.374 . S
C7018 C7015 1.499 . S
C7018 C7019 1.373 . S
C7018 C7020 1.389 . S
C7019 H6998 0.950 . S
C7019 C7018 1.373 . S
C7019 C7035 1.377 . S
C7020 C7018 1.389 . S
C7020 C7021 1.524 . S
C7020 C7034 1.377 . S
C7021 C7020 1.524 . S
C7021 C7022 1.397 . S
C7021 C7026 1.363 . S
C7022 H6999 0.950 . S
C7022 C7021 1.397 . S
C7022 C7023 1.334 . S
C7023 H7000 0.950 . S
C7023 C7022 1.334 . S
C7023 C7024 1.287 . S
C7024 C7023 1.287 . S
C7024 C7025 1.524 . S
C7024 H7043 0.913 . S
C7025 H7001 0.950 . S
C7025 C7024 1.524 . S
C7025 C7026 1.415 . S
C7026 H7002 0.950 . S
C7026 C7021 1.363 . S
C7026 C7025 1.415 . S
C7027 H7003 0.951 . S
C7027 C7028 1.366 . S
C7027 C7029 1.388 . S
C7028 C7027 1.366 . S
C7028 C7032 1.385 . S
C7029 H7004 0.951 . S
C7029 C7027 1.388 . S
C7029 C7030 1.366 . S
C7030 C7029 1.366 . S
C7030 C7031 1.414 . S
C7030 C7033 1.499 . S
C7031 H7005 0.950 . S
C7031 C7030 1.414 . S
C7031 C7032 1.374 . S
C7032 H7006 0.950 . S
C7032 C7028 1.385 . S
C7032 C7031 1.374 . S
C7033 C7030 1.499 . S
C7033 C7034 1.373 . S
C7033 C7035 1.389 . S
C7034 H7007 0.950 . S
C7034 C7020 1.377 . S
C7034 C7033 1.373 . S
C7035 C7019 1.377 . S
C7035 C7033 1.389 . S
C7035 C7036 1.524 . S
C7036 C7035 1.524 . S
C7036 C7037 1.397 . S
C7036 C7041 1.363 . S
C7037 H7008 0.950 . S
C7037 C7036 1.397 . S
C7037 C7038 1.334 . S
C7038 H7009 0.950 . S
C7038 C7037 1.334 . S
C7038 C7039 1.287 . S
C7039 C7038 1.287 . S
C7039 C7040 1.524 . S
C7039 H7042 0.999 . S
C7040 H7010 0.950 . S
C7040 C7039 1.524 . S
C7040 C7041 1.415 . S
C7041 H7011 0.950 . S
C7041 C7036 1.363 . S
C7041 C7040 1.415 . S
H7042 C7039 0.999 . S
H7043 C7024 0.913 . S
H7044 C7062 0.951 . S
H7045 C7064 0.951 . S
H7046 C7066 0.950 . S
H7047 C7067 0.950 . S
H7048 C7069 0.950 . S
H7049 C7072 0.950 . S
H7050 C7073 0.950 . S
H7051 C7075 0.950 . S
H7052 C7076 0.950 . S
H7053 C7077 0.951 . S
H7054 C7079 0.951 . S
H7055 C7081 0.950 . S
H7056 C7082 0.950 . S
H7057 C7084 0.950 . S
H7058 C7087 0.950 . S
H7059 C7088 0.950 . S
H7060 C7090 0.950 . S
H7061 C7091 0.950 . S
C7062 H7044 0.951 . S
C7062 C7063 1.366 . S
C7062 C7064 1.388 . S
C7063 C7062 1.366 . S
C7063 C7067 1.385 . S
C7064 H7045 0.951 . S
C7064 C7062 1.388 . S
C7064 C7065 1.366 . S
C7065 C7064 1.366 . S
C7065 C7066 1.414 . S
C7065 C7068 1.499 . S
C7066 H7046 0.950 . S
C7066 C7065 1.414 . S
C7066 C7067 1.374 . S
C7067 H7047 0.950 . S
C7067 C7063 1.385 . S
C7067 C7066 1.374 . S
C7068 C7065 1.499 . S
C7068 C7069 1.373 . S
C7068 C7070 1.389 . S
C7069 H7048 0.950 . S
C7069 C7068 1.373 . S
C7069 C7085 1.377 . S
C7070 C7068 1.389 . S
C7070 C7071 1.524 . S
C7070 C7084 1.377 . S
C7071 C7070 1.524 . S
C7071 C7072 1.397 . S
C7071 C7076 1.363 . S
C7072 H7049 0.950 . S
C7072 C7071 1.397 . S
C7072 C7073 1.334 . S
C7073 H7050 0.950 . S
C7073 C7072 1.334 . S
C7073 C7074 1.287 . S
C7074 C7073 1.287 . S
C7074 C7075 1.524 . S
C7074 H7093 0.913 . S
C7075 H7051 0.950 . S
C7075 C7074 1.524 . S
C7075 C7076 1.415 . S
C7076 H7052 0.950 . S
C7076 C7071 1.363 . S
C7076 C7075 1.415 . S
C7077 H7053 0.951 . S
C7077 C7078 1.366 . S
C7077 C7079 1.388 . S
C7078 C7077 1.366 . S
C7078 C7082 1.385 . S
C7079 H7054 0.951 . S
C7079 C7077 1.388 . S
C7079 C7080 1.366 . S
C7080 C7079 1.366 . S
C7080 C7081 1.414 . S
C7080 C7083 1.499 . S
C7081 H7055 0.950 . S
C7081 C7080 1.414 . S
C7081 C7082 1.374 . S
C7082 H7056 0.950 . S
C7082 C7078 1.385 . S
C7082 C7081 1.374 . S
C7083 C7080 1.499 . S
C7083 C7084 1.373 . S
C7083 C7085 1.389 . S
C7084 H7057 0.950 . S
C7084 C7070 1.377 . S
C7084 C7083 1.373 . S
C7085 C7069 1.377 . S
C7085 C7083 1.389 . S
C7085 C7086 1.524 . S
C7086 C7085 1.524 . S
C7086 C7087 1.397 . S
C7086 C7091 1.363 . S
C7087 H7058 0.950 . S
C7087 C7086 1.397 . S
C7087 C7088 1.334 . S
C7088 H7059 0.950 . S
C7088 C7087 1.334 . S
C7088 C7089 1.287 . S
C7089 C7088 1.287 . S
C7089 C7090 1.524 . S
C7089 H7092 0.999 . S
C7090 H7060 0.950 . S
C7090 C7089 1.524 . S
C7090 C7091 1.415 . S
C7091 H7061 0.950 . S
C7091 C7086 1.363 . S
C7091 C7090 1.415 . S
H7092 C7089 0.999 . S
H7093 C7074 0.913 . S
H7094 C7112 0.951 . S
H7095 C7114 0.951 . S
H7096 C7116 0.950 . S
H7097 C7117 0.950 . S
H7098 C7119 0.950 . S
H7099 C7122 0.950 . S
H7100 C7123 0.950 . S
H7101 C7125 0.950 . S
H7102 C7126 0.950 . S
H7103 C7127 0.951 . S
H7104 C7129 0.951 . S
H7105 C7131 0.950 . S
H7106 C7132 0.950 . S
H7107 C7134 0.950 . S
H7108 C7137 0.950 . S
H7109 C7138 0.950 . S
H7110 C7140 0.950 . S
H7111 C7141 0.950 . S
C7112 H7094 0.951 . S
C7112 C7113 1.366 . S
C7112 C7114 1.388 . S
C7113 C7112 1.366 . S
C7113 C7117 1.385 . S
C7114 H7095 0.951 . S
C7114 C7112 1.388 . S
C7114 C7115 1.366 . S
C7115 C7114 1.366 . S
C7115 C7116 1.414 . S
C7115 C7118 1.499 . S
C7116 H7096 0.950 . S
C7116 C7115 1.414 . S
C7116 C7117 1.374 . S
C7117 H7097 0.950 . S
C7117 C7113 1.385 . S
C7117 C7116 1.374 . S
C7118 C7115 1.499 . S
C7118 C7119 1.373 . S
C7118 C7120 1.389 . S
C7119 H7098 0.950 . S
C7119 C7118 1.373 . S
C7119 C7135 1.377 . S
C7120 C7118 1.389 . S
C7120 C7121 1.524 . S
C7120 C7134 1.377 . S
C7121 C7120 1.524 . S
C7121 C7122 1.397 . S
C7121 C7126 1.363 . S
C7122 H7099 0.950 . S
C7122 C7121 1.397 . S
C7122 C7123 1.334 . S
C7123 H7100 0.950 . S
C7123 C7122 1.334 . S
C7123 C7124 1.287 . S
C7124 C7123 1.287 . S
C7124 C7125 1.524 . S
C7124 H7143 0.913 . S
C7125 H7101 0.950 . S
C7125 C7124 1.524 . S
C7125 C7126 1.415 . S
C7126 H7102 0.950 . S
C7126 C7121 1.363 . S
C7126 C7125 1.415 . S
C7127 H7103 0.951 . S
C7127 C7128 1.366 . S
C7127 C7129 1.388 . S
C7128 C7127 1.366 . S
C7128 C7132 1.385 . S
C7129 H7104 0.951 . S
C7129 C7127 1.388 . S
C7129 C7130 1.366 . S
C7130 C7129 1.366 . S
C7130 C7131 1.414 . S
C7130 C7133 1.499 . S
C7131 H7105 0.950 . S
C7131 C7130 1.414 . S
C7131 C7132 1.374 . S
C7132 H7106 0.950 . S
C7132 C7128 1.385 . S
C7132 C7131 1.374 . S
C7133 C7130 1.499 . S
C7133 C7134 1.373 . S
C7133 C7135 1.389 . S
C7134 H7107 0.950 . S
C7134 C7120 1.377 . S
C7134 C7133 1.373 . S
C7135 C7119 1.377 . S
C7135 C7133 1.389 . S
C7135 C7136 1.524 . S
C7136 C7135 1.524 . S
C7136 C7137 1.397 . S
C7136 C7141 1.363 . S
C7137 H7108 0.950 . S
C7137 C7136 1.397 . S
C7137 C7138 1.334 . S
C7138 H7109 0.950 . S
C7138 C7137 1.334 . S
C7138 C7139 1.287 . S
C7139 C7138 1.287 . S
C7139 C7140 1.524 . S
C7139 H7142 0.999 . S
C7140 H7110 0.950 . S
C7140 C7139 1.524 . S
C7140 C7141 1.415 . S
C7141 H7111 0.950 . S
C7141 C7136 1.363 . S
C7141 C7140 1.415 . S
H7142 C7139 0.999 . S
H7143 C7124 0.913 . S
H7144 C7162 0.951 . S
H7145 C7164 0.951 . S
H7146 C7166 0.950 . S
H7147 C7167 0.950 . S
H7148 C7169 0.950 . S
H7149 C7172 0.950 . S
H7150 C7173 0.950 . S
H7151 C7175 0.950 . S
H7152 C7176 0.950 . S
H7153 C7177 0.951 . S
H7154 C7179 0.951 . S
H7155 C7181 0.950 . S
H7156 C7182 0.950 . S
H7157 C7184 0.950 . S
H7158 C7187 0.950 . S
H7159 C7188 0.950 . S
H7160 C7190 0.950 . S
H7161 C7191 0.950 . S
C7162 H7144 0.951 . S
C7162 C7163 1.366 . S
C7162 C7164 1.388 . S
C7163 C7162 1.366 . S
C7163 C7167 1.385 . S
C7164 H7145 0.951 . S
C7164 C7162 1.388 . S
C7164 C7165 1.366 . S
C7165 C7164 1.366 . S
C7165 C7166 1.414 . S
C7165 C7168 1.499 . S
C7166 H7146 0.950 . S
C7166 C7165 1.414 . S
C7166 C7167 1.374 . S
C7167 H7147 0.950 . S
C7167 C7163 1.385 . S
C7167 C7166 1.374 . S
C7168 C7165 1.499 . S
C7168 C7169 1.373 . S
C7168 C7170 1.389 . S
C7169 H7148 0.950 . S
C7169 C7168 1.373 . S
C7169 C7185 1.377 . S
C7170 C7168 1.389 . S
C7170 C7171 1.524 . S
C7170 C7184 1.377 . S
C7171 C7170 1.524 . S
C7171 C7172 1.397 . S
C7171 C7176 1.363 . S
C7172 H7149 0.950 . S
C7172 C7171 1.397 . S
C7172 C7173 1.334 . S
C7173 H7150 0.950 . S
C7173 C7172 1.334 . S
C7173 C7174 1.287 . S
C7174 C7173 1.287 . S
C7174 C7175 1.524 . S
C7174 H7193 0.913 . S
C7175 H7151 0.950 . S
C7175 C7174 1.524 . S
C7175 C7176 1.415 . S
C7176 H7152 0.950 . S
C7176 C7171 1.363 . S
C7176 C7175 1.415 . S
C7177 H7153 0.951 . S
C7177 C7178 1.366 . S
C7177 C7179 1.388 . S
C7178 C7177 1.366 . S
C7178 C7182 1.385 . S
C7179 H7154 0.951 . S
C7179 C7177 1.388 . S
C7179 C7180 1.366 . S
C7180 C7179 1.366 . S
C7180 C7181 1.414 . S
C7180 C7183 1.499 . S
C7181 H7155 0.950 . S
C7181 C7180 1.414 . S
C7181 C7182 1.374 . S
C7182 H7156 0.950 . S
C7182 C7178 1.385 . S
C7182 C7181 1.374 . S
C7183 C7180 1.499 . S
C7183 C7184 1.373 . S
C7183 C7185 1.389 . S
C7184 H7157 0.950 . S
C7184 C7170 1.377 . S
C7184 C7183 1.373 . S
C7185 C7169 1.377 . S
C7185 C7183 1.389 . S
C7185 C7186 1.524 . S
C7186 C7185 1.524 . S
C7186 C7187 1.397 . S
C7186 C7191 1.363 . S
C7187 H7158 0.950 . S
C7187 C7186 1.397 . S
C7187 C7188 1.334 . S
C7188 H7159 0.950 . S
C7188 C7187 1.334 . S
C7188 C7189 1.287 . S
C7189 C7188 1.287 . S
C7189 C7190 1.524 . S
C7189 H7192 0.999 . S
C7190 H7160 0.950 . S
C7190 C7189 1.524 . S
C7190 C7191 1.415 . S
C7191 H7161 0.950 . S
C7191 C7186 1.363 . S
C7191 C7190 1.415 . S
H7192 C7189 0.999 . S
H7193 C7174 0.913 . S
H7194 C7212 0.951 . S
H7195 C7214 0.951 . S
H7196 C7216 0.950 . S
H7197 C7217 0.950 . S
H7198 C7219 0.950 . S
H7199 C7222 0.950 . S
H7200 C7223 0.950 . S
H7201 C7225 0.950 . S
H7202 C7226 0.950 . S
H7203 C7227 0.951 . S
H7204 C7229 0.951 . S
H7205 C7231 0.950 . S
H7206 C7232 0.950 . S
H7207 C7234 0.950 . S
H7208 C7237 0.950 . S
H7209 C7238 0.950 . S
H7210 C7240 0.950 . S
H7211 C7241 0.950 . S
C7212 H7194 0.951 . S
C7212 C7213 1.366 . S
C7212 C7214 1.388 . S
C7213 C7212 1.366 . S
C7213 C7217 1.385 . S
C7214 H7195 0.951 . S
C7214 C7212 1.388 . S
C7214 C7215 1.366 . S
C7215 C7214 1.366 . S
C7215 C7216 1.414 . S
C7215 C7218 1.499 . S
C7216 H7196 0.950 . S
C7216 C7215 1.414 . S
C7216 C7217 1.374 . S
C7217 H7197 0.950 . S
C7217 C7213 1.385 . S
C7217 C7216 1.374 . S
C7218 C7215 1.499 . S
C7218 C7219 1.373 . S
C7218 C7220 1.389 . S
C7219 H7198 0.950 . S
C7219 C7218 1.373 . S
C7219 C7235 1.377 . S
C7220 C7218 1.389 . S
C7220 C7221 1.524 . S
C7220 C7234 1.377 . S
C7221 C7220 1.524 . S
C7221 C7222 1.397 . S
C7221 C7226 1.363 . S
C7222 H7199 0.950 . S
C7222 C7221 1.397 . S
C7222 C7223 1.334 . S
C7223 H7200 0.950 . S
C7223 C7222 1.334 . S
C7223 C7224 1.287 . S
C7224 C7223 1.287 . S
C7224 C7225 1.524 . S
C7224 H7243 0.913 . S
C7225 H7201 0.950 . S
C7225 C7224 1.524 . S
C7225 C7226 1.415 . S
C7226 H7202 0.950 . S
C7226 C7221 1.363 . S
C7226 C7225 1.415 . S
C7227 H7203 0.951 . S
C7227 C7228 1.366 . S
C7227 C7229 1.388 . S
C7228 C7227 1.366 . S
C7228 C7232 1.385 . S
C7229 H7204 0.951 . S
C7229 C7227 1.388 . S
C7229 C7230 1.366 . S
C7230 C7229 1.366 . S
C7230 C7231 1.414 . S
C7230 C7233 1.499 . S
C7231 H7205 0.950 . S
C7231 C7230 1.414 . S
C7231 C7232 1.374 . S
C7232 H7206 0.950 . S
C7232 C7228 1.385 . S
C7232 C7231 1.374 . S
C7233 C7230 1.499 . S
C7233 C7234 1.373 . S
C7233 C7235 1.389 . S
C7234 H7207 0.950 . S
C7234 C7220 1.377 . S
C7234 C7233 1.373 . S
C7235 C7219 1.377 . S
C7235 C7233 1.389 . S
C7235 C7236 1.524 . S
C7236 C7235 1.524 . S
C7236 C7237 1.397 . S
C7236 C7241 1.363 . S
C7237 H7208 0.950 . S
C7237 C7236 1.397 . S
C7237 C7238 1.334 . S
C7238 H7209 0.950 . S
C7238 C7237 1.334 . S
C7238 C7239 1.287 . S
C7239 C7238 1.287 . S
C7239 C7240 1.524 . S
C7239 H7242 0.999 . S
C7240 H7210 0.950 . S
C7240 C7239 1.524 . S
C7240 C7241 1.415 . S
C7241 H7211 0.950 . S
C7241 C7236 1.363 . S
C7241 C7240 1.415 . S
H7242 C7239 0.999 . S
H7243 C7224 0.913 . S
H7244 C7262 0.951 . S
H7245 C7264 0.951 . S
H7246 C7266 0.950 . S
H7247 C7267 0.950 . S
H7248 C7269 0.950 . S
H7249 C7272 0.950 . S
H7250 C7273 0.950 . S
H7251 C7275 0.950 . S
H7252 C7276 0.950 . S
H7253 C7277 0.951 . S
H7254 C7279 0.951 . S
H7255 C7281 0.950 . S
H7256 C7282 0.950 . S
H7257 C7284 0.950 . S
H7258 C7287 0.950 . S
H7259 C7288 0.950 . S
H7260 C7290 0.950 . S
H7261 C7291 0.950 . S
C7262 H7244 0.951 . S
C7262 C7263 1.366 . S
C7262 C7264 1.388 . S
C7263 C7262 1.366 . S
C7263 C7267 1.385 . S
C7264 H7245 0.951 . S
C7264 C7262 1.388 . S
C7264 C7265 1.366 . S
C7265 C7264 1.366 . S
C7265 C7266 1.414 . S
C7265 C7268 1.499 . S
C7266 H7246 0.950 . S
C7266 C7265 1.414 . S
C7266 C7267 1.374 . S
C7267 H7247 0.950 . S
C7267 C7263 1.385 . S
C7267 C7266 1.374 . S
C7268 C7265 1.499 . S
C7268 C7269 1.373 . S
C7268 C7270 1.389 . S
C7269 H7248 0.950 . S
C7269 C7268 1.373 . S
C7269 C7285 1.377 . S
C7270 C7268 1.389 . S
C7270 C7271 1.524 . S
C7270 C7284 1.377 . S
C7271 C7270 1.524 . S
C7271 C7272 1.397 . S
C7271 C7276 1.363 . S
C7272 H7249 0.950 . S
C7272 C7271 1.397 . S
C7272 C7273 1.334 . S
C7273 H7250 0.950 . S
C7273 C7272 1.334 . S
C7273 C7274 1.287 . S
C7274 C7273 1.287 . S
C7274 C7275 1.524 . S
C7274 H7293 0.913 . S
C7275 H7251 0.950 . S
C7275 C7274 1.524 . S
C7275 C7276 1.415 . S
C7276 H7252 0.950 . S
C7276 C7271 1.363 . S
C7276 C7275 1.415 . S
C7277 H7253 0.951 . S
C7277 C7278 1.366 . S
C7277 C7279 1.388 . S
C7278 C7277 1.366 . S
C7278 C7282 1.385 . S
C7279 H7254 0.951 . S
C7279 C7277 1.388 . S
C7279 C7280 1.366 . S
C7280 C7279 1.366 . S
C7280 C7281 1.414 . S
C7280 C7283 1.499 . S
C7281 H7255 0.950 . S
C7281 C7280 1.414 . S
C7281 C7282 1.374 . S
C7282 H7256 0.950 . S
C7282 C7278 1.385 . S
C7282 C7281 1.374 . S
C7283 C7280 1.499 . S
C7283 C7284 1.373 . S
C7283 C7285 1.389 . S
C7284 H7257 0.950 . S
C7284 C7270 1.377 . S
C7284 C7283 1.373 . S
C7285 C7269 1.377 . S
C7285 C7283 1.389 . S
C7285 C7286 1.524 . S
C7286 C7285 1.524 . S
C7286 C7287 1.397 . S
C7286 C7291 1.363 . S
C7287 H7258 0.950 . S
C7287 C7286 1.397 . S
C7287 C7288 1.334 . S
C7288 H7259 0.950 . S
C7288 C7287 1.334 . S
C7288 C7289 1.287 . S
C7289 C7288 1.287 . S
C7289 C7290 1.524 . S
C7289 H7292 0.999 . S
C7290 H7260 0.950 . S
C7290 C7289 1.524 . S
C7290 C7291 1.415 . S
C7291 H7261 0.950 . S
C7291 C7286 1.363 . S
C7291 C7290 1.415 . S
H7292 C7289 0.999 . S
H7293 C7274 0.913 . S
H7294 C7312 0.951 . S
H7295 C7314 0.951 . S
H7296 C7316 0.950 . S
H7297 C7317 0.950 . S
H7298 C7319 0.950 . S
H7299 C7322 0.950 . S
H7300 C7323 0.950 . S
H7301 C7325 0.950 . S
H7302 C7326 0.950 . S
H7303 C7327 0.951 . S
H7304 C7329 0.951 . S
H7305 C7331 0.950 . S
H7306 C7332 0.950 . S
H7307 C7334 0.950 . S
H7308 C7337 0.950 . S
H7309 C7338 0.950 . S
H7310 C7340 0.950 . S
H7311 C7341 0.950 . S
C7312 H7294 0.951 . S
C7312 C7313 1.366 . S
C7312 C7314 1.388 . S
C7313 C7312 1.366 . S
C7313 C7317 1.385 . S
C7314 H7295 0.951 . S
C7314 C7312 1.388 . S
C7314 C7315 1.366 . S
C7315 C7314 1.366 . S
C7315 C7316 1.414 . S
C7315 C7318 1.499 . S
C7316 H7296 0.950 . S
C7316 C7315 1.414 . S
C7316 C7317 1.374 . S
C7317 H7297 0.950 . S
C7317 C7313 1.385 . S
C7317 C7316 1.374 . S
C7318 C7315 1.499 . S
C7318 C7319 1.373 . S
C7318 C7320 1.389 . S
C7319 H7298 0.950 . S
C7319 C7318 1.373 . S
C7319 C7335 1.377 . S
C7320 C7318 1.389 . S
C7320 C7321 1.524 . S
C7320 C7334 1.377 . S
C7321 C7320 1.524 . S
C7321 C7322 1.397 . S
C7321 C7326 1.363 . S
C7322 H7299 0.950 . S
C7322 C7321 1.397 . S
C7322 C7323 1.334 . S
C7323 H7300 0.950 . S
C7323 C7322 1.334 . S
C7323 C7324 1.287 . S
C7324 C7323 1.287 . S
C7324 C7325 1.524 . S
C7324 H7343 0.913 . S
C7325 H7301 0.950 . S
C7325 C7324 1.524 . S
C7325 C7326 1.415 . S
C7326 H7302 0.950 . S
C7326 C7321 1.363 . S
C7326 C7325 1.415 . S
C7327 H7303 0.951 . S
C7327 C7328 1.366 . S
C7327 C7329 1.388 . S
C7328 C7327 1.366 . S
C7328 C7332 1.385 . S
C7329 H7304 0.951 . S
C7329 C7327 1.388 . S
C7329 C7330 1.366 . S
C7330 C7329 1.366 . S
C7330 C7331 1.414 . S
C7330 C7333 1.499 . S
C7331 H7305 0.950 . S
C7331 C7330 1.414 . S
C7331 C7332 1.374 . S
C7332 H7306 0.950 . S
C7332 C7328 1.385 . S
C7332 C7331 1.374 . S
C7333 C7330 1.499 . S
C7333 C7334 1.373 . S
C7333 C7335 1.389 . S
C7334 H7307 0.950 . S
C7334 C7320 1.377 . S
C7334 C7333 1.373 . S
C7335 C7319 1.377 . S
C7335 C7333 1.389 . S
C7335 C7336 1.524 . S
C7336 C7335 1.524 . S
C7336 C7337 1.397 . S
C7336 C7341 1.363 . S
C7337 H7308 0.950 . S
C7337 C7336 1.397 . S
C7337 C7338 1.334 . S
C7338 H7309 0.950 . S
C7338 C7337 1.334 . S
C7338 C7339 1.287 . S
C7339 C7338 1.287 . S
C7339 C7340 1.524 . S
C7339 H7342 0.999 . S
C7340 H7310 0.950 . S
C7340 C7339 1.524 . S
C7340 C7341 1.415 . S
C7341 H7311 0.950 . S
C7341 C7336 1.363 . S
C7341 C7340 1.415 . S
H7342 C7339 0.999 . S
H7343 C7324 0.913 . S
H7344 C7362 0.951 . S
H7345 C7364 0.951 . S
H7346 C7366 0.950 . S
H7347 C7367 0.950 . S
H7348 C7369 0.950 . S
H7349 C7372 0.950 . S
H7350 C7373 0.950 . S
H7351 C7375 0.950 . S
H7352 C7376 0.950 . S
H7353 C7377 0.951 . S
H7354 C7379 0.951 . S
H7355 C7381 0.950 . S
H7356 C7382 0.950 . S
H7357 C7384 0.950 . S
H7358 C7387 0.950 . S
H7359 C7388 0.950 . S
H7360 C7390 0.950 . S
H7361 C7391 0.950 . S
C7362 H7344 0.951 . S
C7362 C7363 1.366 . S
C7362 C7364 1.388 . S
C7363 C7362 1.366 . S
C7363 C7367 1.385 . S
C7364 H7345 0.951 . S
C7364 C7362 1.388 . S
C7364 C7365 1.366 . S
C7365 C7364 1.366 . S
C7365 C7366 1.414 . S
C7365 C7368 1.499 . S
C7366 H7346 0.950 . S
C7366 C7365 1.414 . S
C7366 C7367 1.374 . S
C7367 H7347 0.950 . S
C7367 C7363 1.385 . S
C7367 C7366 1.374 . S
C7368 C7365 1.499 . S
C7368 C7369 1.373 . S
C7368 C7370 1.389 . S
C7369 H7348 0.950 . S
C7369 C7368 1.373 . S
C7369 C7385 1.377 . S
C7370 C7368 1.389 . S
C7370 C7371 1.524 . S
C7370 C7384 1.377 . S
C7371 C7370 1.524 . S
C7371 C7372 1.397 . S
C7371 C7376 1.363 . S
C7372 H7349 0.950 . S
C7372 C7371 1.397 . S
C7372 C7373 1.334 . S
C7373 H7350 0.950 . S
C7373 C7372 1.334 . S
C7373 C7374 1.287 . S
C7374 C7373 1.287 . S
C7374 C7375 1.524 . S
C7374 H7393 0.913 . S
C7375 H7351 0.950 . S
C7375 C7374 1.524 . S
C7375 C7376 1.415 . S
C7376 H7352 0.950 . S
C7376 C7371 1.363 . S
C7376 C7375 1.415 . S
C7377 H7353 0.951 . S
C7377 C7378 1.366 . S
C7377 C7379 1.388 . S
C7378 C7377 1.366 . S
C7378 C7382 1.385 . S
C7379 H7354 0.951 . S
C7379 C7377 1.388 . S
C7379 C7380 1.366 . S
C7380 C7379 1.366 . S
C7380 C7381 1.414 . S
C7380 C7383 1.499 . S
C7381 H7355 0.950 . S
C7381 C7380 1.414 . S
C7381 C7382 1.374 . S
C7382 H7356 0.950 . S
C7382 C7378 1.385 . S
C7382 C7381 1.374 . S
C7383 C7380 1.499 . S
C7383 C7384 1.373 . S
C7383 C7385 1.389 . S
C7384 H7357 0.950 . S
C7384 C7370 1.377 . S
C7384 C7383 1.373 . S
C7385 C7369 1.377 . S
C7385 C7383 1.389 . S
C7385 C7386 1.524 . S
C7386 C7385 1.524 . S
C7386 C7387 1.397 . S
C7386 C7391 1.363 . S
C7387 H7358 0.950 . S
C7387 C7386 1.397 . S
C7387 C7388 1.334 . S
C7388 H7359 0.950 . S
C7388 C7387 1.334 . S
C7388 C7389 1.287 . S
C7389 C7388 1.287 . S
C7389 C7390 1.524 . S
C7389 H7392 0.999 . S
C7390 H7360 0.950 . S
C7390 C7389 1.524 . S
C7390 C7391 1.415 . S
C7391 H7361 0.950 . S
C7391 C7386 1.363 . S
C7391 C7390 1.415 . S
H7392 C7389 0.999 . S
H7393 C7374 0.913 . S
H7394 C7412 0.951 . S
H7395 C7414 0.951 . S
H7396 C7416 0.950 . S
H7397 C7417 0.950 . S
H7398 C7419 0.950 . S
H7399 C7422 0.950 . S
H7400 C7423 0.950 . S
H7401 C7425 0.950 . S
H7402 C7426 0.950 . S
H7403 C7427 0.951 . S
H7404 C7429 0.951 . S
H7405 C7431 0.950 . S
H7406 C7432 0.950 . S
H7407 C7434 0.950 . S
H7408 C7437 0.950 . S
H7409 C7438 0.950 . S
H7410 C7440 0.950 . S
H7411 C7441 0.950 . S
C7412 H7394 0.951 . S
C7412 C7413 1.366 . S
C7412 C7414 1.388 . S
C7413 C7412 1.366 . S
C7413 C7417 1.385 . S
C7414 H7395 0.951 . S
C7414 C7412 1.388 . S
C7414 C7415 1.366 . S
C7415 C7414 1.366 . S
C7415 C7416 1.414 . S
C7415 C7418 1.499 . S
C7416 H7396 0.950 . S
C7416 C7415 1.414 . S
C7416 C7417 1.374 . S
C7417 H7397 0.950 . S
C7417 C7413 1.385 . S
C7417 C7416 1.374 . S
C7418 C7415 1.499 . S
C7418 C7419 1.373 . S
C7418 C7420 1.389 . S
C7419 H7398 0.950 . S
C7419 C7418 1.373 . S
C7419 C7435 1.377 . S
C7420 C7418 1.389 . S
C7420 C7421 1.524 . S
C7420 C7434 1.377 . S
C7421 C7420 1.524 . S
C7421 C7422 1.397 . S
C7421 C7426 1.363 . S
C7422 H7399 0.950 . S
C7422 C7421 1.397 . S
C7422 C7423 1.334 . S
C7423 H7400 0.950 . S
C7423 C7422 1.334 . S
C7423 C7424 1.287 . S
C7424 C7423 1.287 . S
C7424 C7425 1.524 . S
C7424 H7443 0.913 . S
C7425 H7401 0.950 . S
C7425 C7424 1.524 . S
C7425 C7426 1.415 . S
C7426 H7402 0.950 . S
C7426 C7421 1.363 . S
C7426 C7425 1.415 . S
C7427 H7403 0.951 . S
C7427 C7428 1.366 . S
C7427 C7429 1.388 . S
C7428 C7427 1.366 . S
C7428 C7432 1.385 . S
C7429 H7404 0.951 . S
C7429 C7427 1.388 . S
C7429 C7430 1.366 . S
C7430 C7429 1.366 . S
C7430 C7431 1.414 . S
C7430 C7433 1.499 . S
C7431 H7405 0.950 . S
C7431 C7430 1.414 . S
C7431 C7432 1.374 . S
C7432 H7406 0.950 . S
C7432 C7428 1.385 . S
C7432 C7431 1.374 . S
C7433 C7430 1.499 . S
C7433 C7434 1.373 . S
C7433 C7435 1.389 . S
C7434 H7407 0.950 . S
C7434 C7420 1.377 . S
C7434 C7433 1.373 . S
C7435 C7419 1.377 . S
C7435 C7433 1.389 . S
C7435 C7436 1.524 . S
C7436 C7435 1.524 . S
C7436 C7437 1.397 . S
C7436 C7441 1.363 . S
C7437 H7408 0.950 . S
C7437 C7436 1.397 . S
C7437 C7438 1.334 . S
C7438 H7409 0.950 . S
C7438 C7437 1.334 . S
C7438 C7439 1.287 . S
C7439 C7438 1.287 . S
C7439 C7440 1.524 . S
C7439 H7442 0.999 . S
C7440 H7410 0.950 . S
C7440 C7439 1.524 . S
C7440 C7441 1.415 . S
C7441 H7411 0.950 . S
C7441 C7436 1.363 . S
C7441 C7440 1.415 . S
H7442 C7439 0.999 . S
H7443 C7424 0.913 . S
H7444 C7462 0.951 . S
H7445 C7464 0.951 . S
H7446 C7466 0.950 . S
H7447 C7467 0.950 . S
H7448 C7469 0.950 . S
H7449 C7472 0.950 . S
H7450 C7473 0.950 . S
H7451 C7475 0.950 . S
H7452 C7476 0.950 . S
H7453 C7477 0.951 . S
H7454 C7479 0.951 . S
H7455 C7481 0.950 . S
H7456 C7482 0.950 . S
H7457 C7484 0.950 . S
H7458 C7487 0.950 . S
H7459 C7488 0.950 . S
H7460 C7490 0.950 . S
H7461 C7491 0.950 . S
C7462 H7444 0.951 . S
C7462 C7463 1.366 . S
C7462 C7464 1.388 . S
C7463 C7462 1.366 . S
C7463 C7467 1.385 . S
C7464 H7445 0.951 . S
C7464 C7462 1.388 . S
C7464 C7465 1.366 . S
C7465 C7464 1.366 . S
C7465 C7466 1.414 . S
C7465 C7468 1.499 . S
C7466 H7446 0.950 . S
C7466 C7465 1.414 . S
C7466 C7467 1.374 . S
C7467 H7447 0.950 . S
C7467 C7463 1.385 . S
C7467 C7466 1.374 . S
C7468 C7465 1.499 . S
C7468 C7469 1.373 . S
C7468 C7470 1.389 . S
C7469 H7448 0.950 . S
C7469 C7468 1.373 . S
C7469 C7485 1.377 . S
C7470 C7468 1.389 . S
C7470 C7471 1.524 . S
C7470 C7484 1.377 . S
C7471 C7470 1.524 . S
C7471 C7472 1.397 . S
C7471 C7476 1.363 . S
C7472 H7449 0.950 . S
C7472 C7471 1.397 . S
C7472 C7473 1.334 . S
C7473 H7450 0.950 . S
C7473 C7472 1.334 . S
C7473 C7474 1.287 . S
C7474 C7473 1.287 . S
C7474 C7475 1.524 . S
C7474 H7493 0.913 . S
C7475 H7451 0.950 . S
C7475 C7474 1.524 . S
C7475 C7476 1.415 . S
C7476 H7452 0.950 . S
C7476 C7471 1.363 . S
C7476 C7475 1.415 . S
C7477 H7453 0.951 . S
C7477 C7478 1.366 . S
C7477 C7479 1.388 . S
C7478 C7477 1.366 . S
C7478 C7482 1.385 . S
C7479 H7454 0.951 . S
C7479 C7477 1.388 . S
C7479 C7480 1.366 . S
C7480 C7479 1.366 . S
C7480 C7481 1.414 . S
C7480 C7483 1.499 . S
C7481 H7455 0.950 . S
C7481 C7480 1.414 . S
C7481 C7482 1.374 . S
C7482 H7456 0.950 . S
C7482 C7478 1.385 . S
C7482 C7481 1.374 . S
C7483 C7480 1.499 . S
C7483 C7484 1.373 . S
C7483 C7485 1.389 . S
C7484 H7457 0.950 . S
C7484 C7470 1.377 . S
C7484 C7483 1.373 . S
C7485 C7469 1.377 . S
C7485 C7483 1.389 . S
C7485 C7486 1.524 . S
C7486 C7485 1.524 . S
C7486 C7487 1.397 . S
C7486 C7491 1.363 . S
C7487 H7458 0.950 . S
C7487 C7486 1.397 . S
C7487 C7488 1.334 . S
C7488 H7459 0.950 . S
C7488 C7487 1.334 . S
C7488 C7489 1.287 . S
C7489 C7488 1.287 . S
C7489 C7490 1.524 . S
C7489 H7492 0.999 . S
C7490 H7460 0.950 . S
C7490 C7489 1.524 . S
C7490 C7491 1.415 . S
C7491 H7461 0.950 . S
C7491 C7486 1.363 . S
C7491 C7490 1.415 . S
H7492 C7489 0.999 . S
H7493 C7474 0.913 . S
H7494 C7512 0.951 . S
H7495 C7514 0.951 . S
H7496 C7516 0.950 . S
H7497 C7517 0.950 . S
H7498 C7519 0.950 . S
H7499 C7522 0.950 . S
H7500 C7523 0.950 . S
H7501 C7525 0.950 . S
H7502 C7526 0.950 . S
H7503 C7527 0.951 . S
H7504 C7529 0.951 . S
H7505 C7531 0.950 . S
H7506 C7532 0.950 . S
H7507 C7534 0.950 . S
H7508 C7537 0.950 . S
H7509 C7538 0.950 . S
H7510 C7540 0.950 . S
H7511 C7541 0.950 . S
C7512 H7494 0.951 . S
C7512 C7513 1.366 . S
C7512 C7514 1.388 . S
C7513 C7512 1.366 . S
C7513 C7517 1.385 . S
C7514 H7495 0.951 . S
C7514 C7512 1.388 . S
C7514 C7515 1.366 . S
C7515 C7514 1.366 . S
C7515 C7516 1.414 . S
C7515 C7518 1.499 . S
C7516 H7496 0.950 . S
C7516 C7515 1.414 . S
C7516 C7517 1.374 . S
C7517 H7497 0.950 . S
C7517 C7513 1.385 . S
C7517 C7516 1.374 . S
C7518 C7515 1.499 . S
C7518 C7519 1.373 . S
C7518 C7520 1.389 . S
C7519 H7498 0.950 . S
C7519 C7518 1.373 . S
C7519 C7535 1.377 . S
C7520 C7518 1.389 . S
C7520 C7521 1.524 . S
C7520 C7534 1.377 . S
C7521 C7520 1.524 . S
C7521 C7522 1.397 . S
C7521 C7526 1.363 . S
C7522 H7499 0.950 . S
C7522 C7521 1.397 . S
C7522 C7523 1.334 . S
C7523 H7500 0.950 . S
C7523 C7522 1.334 . S
C7523 C7524 1.287 . S
C7524 C7523 1.287 . S
C7524 C7525 1.524 . S
C7524 H7543 0.913 . S
C7525 H7501 0.950 . S
C7525 C7524 1.524 . S
C7525 C7526 1.415 . S
C7526 H7502 0.950 . S
C7526 C7521 1.363 . S
C7526 C7525 1.415 . S
C7527 H7503 0.951 . S
C7527 C7528 1.366 . S
C7527 C7529 1.388 . S
C7528 C7527 1.366 . S
C7528 C7532 1.385 . S
C7529 H7504 0.951 . S
C7529 C7527 1.388 . S
C7529 C7530 1.366 . S
C7530 C7529 1.366 . S
C7530 C7531 1.414 . S
C7530 C7533 1.499 . S
C7531 H7505 0.950 . S
C7531 C7530 1.414 . S
C7531 C7532 1.374 . S
C7532 H7506 0.950 . S
C7532 C7528 1.385 . S
C7532 C7531 1.374 . S
C7533 C7530 1.499 . S
C7533 C7534 1.373 . S
C7533 C7535 1.389 . S
C7534 H7507 0.950 . S
C7534 C7520 1.377 . S
C7534 C7533 1.373 . S
C7535 C7519 1.377 . S
C7535 C7533 1.389 . S
C7535 C7536 1.524 . S
C7536 C7535 1.524 . S
C7536 C7537 1.397 . S
C7536 C7541 1.363 . S
C7537 H7508 0.950 . S
C7537 C7536 1.397 . S
C7537 C7538 1.334 . S
C7538 H7509 0.950 . S
C7538 C7537 1.334 . S
C7538 C7539 1.287 . S
C7539 C7538 1.287 . S
C7539 C7540 1.524 . S
C7539 H7542 0.999 . S
C7540 H7510 0.950 . S
C7540 C7539 1.524 . S
C7540 C7541 1.415 . S
C7541 H7511 0.950 . S
C7541 C7536 1.363 . S
C7541 C7540 1.415 . S
H7542 C7539 0.999 . S
H7543 C7524 0.913 . S
H7544 C7562 0.951 . S
H7545 C7564 0.951 . S
H7546 C7566 0.950 . S
H7547 C7567 0.950 . S
H7548 C7569 0.950 . S
H7549 C7572 0.950 . S
H7550 C7573 0.950 . S
H7551 C7575 0.950 . S
H7552 C7576 0.950 . S
H7553 C7577 0.951 . S
H7554 C7579 0.951 . S
H7555 C7581 0.950 . S
H7556 C7582 0.950 . S
H7557 C7584 0.950 . S
H7558 C7587 0.950 . S
H7559 C7588 0.950 . S
H7560 C7590 0.950 . S
H7561 C7591 0.950 . S
C7562 H7544 0.951 . S
C7562 C7563 1.366 . S
C7562 C7564 1.388 . S
C7563 C7562 1.366 . S
C7563 C7567 1.385 . S
C7564 H7545 0.951 . S
C7564 C7562 1.388 . S
C7564 C7565 1.366 . S
C7565 C7564 1.366 . S
C7565 C7566 1.414 . S
C7565 C7568 1.499 . S
C7566 H7546 0.950 . S
C7566 C7565 1.414 . S
C7566 C7567 1.374 . S
C7567 H7547 0.950 . S
C7567 C7563 1.385 . S
C7567 C7566 1.374 . S
C7568 C7565 1.499 . S
C7568 C7569 1.373 . S
C7568 C7570 1.389 . S
C7569 H7548 0.950 . S
C7569 C7568 1.373 . S
C7569 C7585 1.377 . S
C7570 C7568 1.389 . S
C7570 C7571 1.524 . S
C7570 C7584 1.377 . S
C7571 C7570 1.524 . S
C7571 C7572 1.397 . S
C7571 C7576 1.363 . S
C7572 H7549 0.950 . S
C7572 C7571 1.397 . S
C7572 C7573 1.334 . S
C7573 H7550 0.950 . S
C7573 C7572 1.334 . S
C7573 C7574 1.287 . S
C7574 C7573 1.287 . S
C7574 C7575 1.524 . S
C7574 H7593 0.913 . S
C7575 H7551 0.950 . S
C7575 C7574 1.524 . S
C7575 C7576 1.415 . S
C7576 H7552 0.950 . S
C7576 C7571 1.363 . S
C7576 C7575 1.415 . S
C7577 H7553 0.951 . S
C7577 C7578 1.366 . S
C7577 C7579 1.388 . S
C7578 C7577 1.366 . S
C7578 C7582 1.385 . S
C7579 H7554 0.951 . S
C7579 C7577 1.388 . S
C7579 C7580 1.366 . S
C7580 C7579 1.366 . S
C7580 C7581 1.414 . S
C7580 C7583 1.499 . S
C7581 H7555 0.950 . S
C7581 C7580 1.414 . S
C7581 C7582 1.374 . S
C7582 H7556 0.950 . S
C7582 C7578 1.385 . S
C7582 C7581 1.374 . S
C7583 C7580 1.499 . S
C7583 C7584 1.373 . S
C7583 C7585 1.389 . S
C7584 H7557 0.950 . S
C7584 C7570 1.377 . S
C7584 C7583 1.373 . S
C7585 C7569 1.377 . S
C7585 C7583 1.389 . S
C7585 C7586 1.524 . S
C7586 C7585 1.524 . S
C7586 C7587 1.397 . S
C7586 C7591 1.363 . S
C7587 H7558 0.950 . S
C7587 C7586 1.397 . S
C7587 C7588 1.334 . S
C7588 H7559 0.950 . S
C7588 C7587 1.334 . S
C7588 C7589 1.287 . S
C7589 C7588 1.287 . S
C7589 C7590 1.524 . S
C7589 H7592 0.999 . S
C7590 H7560 0.950 . S
C7590 C7589 1.524 . S
C7590 C7591 1.415 . S
C7591 H7561 0.950 . S
C7591 C7586 1.363 . S
C7591 C7590 1.415 . S
H7592 C7589 0.999 . S
H7593 C7574 0.913 . S
H7594 C7612 0.951 . S
H7595 C7614 0.951 . S
H7596 C7616 0.950 . S
H7597 C7617 0.950 . S
H7598 C7619 0.950 . S
H7599 C7622 0.950 . S
H7600 C7623 0.950 . S
H7601 C7625 0.950 . S
H7602 C7626 0.950 . S
H7603 C7627 0.951 . S
H7604 C7629 0.951 . S
H7605 C7631 0.950 . S
H7606 C7632 0.950 . S
H7607 C7634 0.950 . S
H7608 C7637 0.950 . S
H7609 C7638 0.950 . S
H7610 C7640 0.950 . S
H7611 C7641 0.950 . S
C7612 H7594 0.951 . S
C7612 C7613 1.366 . S
C7612 C7614 1.388 . S
C7613 C7612 1.366 . S
C7613 C7617 1.385 . S
C7614 H7595 0.951 . S
C7614 C7612 1.388 . S
C7614 C7615 1.366 . S
C7615 C7614 1.366 . S
C7615 C7616 1.414 . S
C7615 C7618 1.499 . S
C7616 H7596 0.950 . S
C7616 C7615 1.414 . S
C7616 C7617 1.374 . S
C7617 H7597 0.950 . S
C7617 C7613 1.385 . S
C7617 C7616 1.374 . S
C7618 C7615 1.499 . S
C7618 C7619 1.373 . S
C7618 C7620 1.389 . S
C7619 H7598 0.950 . S
C7619 C7618 1.373 . S
C7619 C7635 1.377 . S
C7620 C7618 1.389 . S
C7620 C7621 1.524 . S
C7620 C7634 1.377 . S
C7621 C7620 1.524 . S
C7621 C7622 1.397 . S
C7621 C7626 1.363 . S
C7622 H7599 0.950 . S
C7622 C7621 1.397 . S
C7622 C7623 1.334 . S
C7623 H7600 0.950 . S
C7623 C7622 1.334 . S
C7623 C7624 1.287 . S
C7624 C7623 1.287 . S
C7624 C7625 1.524 . S
C7624 H7643 0.913 . S
C7625 H7601 0.950 . S
C7625 C7624 1.524 . S
C7625 C7626 1.415 . S
C7626 H7602 0.950 . S
C7626 C7621 1.363 . S
C7626 C7625 1.415 . S
C7627 H7603 0.951 . S
C7627 C7628 1.366 . S
C7627 C7629 1.388 . S
C7628 C7627 1.366 . S
C7628 C7632 1.385 . S
C7629 H7604 0.951 . S
C7629 C7627 1.388 . S
C7629 C7630 1.366 . S
C7630 C7629 1.366 . S
C7630 C7631 1.414 . S
C7630 C7633 1.499 . S
C7631 H7605 0.950 . S
C7631 C7630 1.414 . S
C7631 C7632 1.374 . S
C7632 H7606 0.950 . S
C7632 C7628 1.385 . S
C7632 C7631 1.374 . S
C7633 C7630 1.499 . S
C7633 C7634 1.373 . S
C7633 C7635 1.389 . S
C7634 H7607 0.950 . S
C7634 C7620 1.377 . S
C7634 C7633 1.373 . S
C7635 C7619 1.377 . S
C7635 C7633 1.389 . S
C7635 C7636 1.524 . S
C7636 C7635 1.524 . S
C7636 C7637 1.397 . S
C7636 C7641 1.363 . S
C7637 H7608 0.950 . S
C7637 C7636 1.397 . S
C7637 C7638 1.334 . S
C7638 H7609 0.950 . S
C7638 C7637 1.334 . S
C7638 C7639 1.287 . S
C7639 C7638 1.287 . S
C7639 C7640 1.524 . S
C7639 H7642 0.999 . S
C7640 H7610 0.950 . S
C7640 C7639 1.524 . S
C7640 C7641 1.415 . S
C7641 H7611 0.950 . S
C7641 C7636 1.363 . S
C7641 C7640 1.415 . S
H7642 C7639 0.999 . S
H7643 C7624 0.913 . S
H7644 C7662 0.951 . S
H7645 C7664 0.951 . S
H7646 C7666 0.950 . S
H7647 C7667 0.950 . S
H7648 C7669 0.950 . S
H7649 C7672 0.950 . S
H7650 C7673 0.950 . S
H7651 C7675 0.950 . S
H7652 C7676 0.950 . S
H7653 C7677 0.951 . S
H7654 C7679 0.951 . S
H7655 C7681 0.950 . S
H7656 C7682 0.950 . S
H7657 C7684 0.950 . S
H7658 C7687 0.950 . S
H7659 C7688 0.950 . S
H7660 C7690 0.950 . S
H7661 C7691 0.950 . S
C7662 H7644 0.951 . S
C7662 C7663 1.366 . S
C7662 C7664 1.388 . S
C7663 C7662 1.366 . S
C7663 C7667 1.385 . S
C7664 H7645 0.951 . S
C7664 C7662 1.388 . S
C7664 C7665 1.366 . S
C7665 C7664 1.366 . S
C7665 C7666 1.414 . S
C7665 C7668 1.499 . S
C7666 H7646 0.950 . S
C7666 C7665 1.414 . S
C7666 C7667 1.374 . S
C7667 H7647 0.950 . S
C7667 C7663 1.385 . S
C7667 C7666 1.374 . S
C7668 C7665 1.499 . S
C7668 C7669 1.373 . S
C7668 C7670 1.389 . S
C7669 H7648 0.950 . S
C7669 C7668 1.373 . S
C7669 C7685 1.377 . S
C7670 C7668 1.389 . S
C7670 C7671 1.524 . S
C7670 C7684 1.377 . S
C7671 C7670 1.524 . S
C7671 C7672 1.397 . S
C7671 C7676 1.363 . S
C7672 H7649 0.950 . S
C7672 C7671 1.397 . S
C7672 C7673 1.334 . S
C7673 H7650 0.950 . S
C7673 C7672 1.334 . S
C7673 C7674 1.287 . S
C7674 C7673 1.287 . S
C7674 C7675 1.524 . S
C7674 H7693 0.913 . S
C7675 H7651 0.950 . S
C7675 C7674 1.524 . S
C7675 C7676 1.415 . S
C7676 H7652 0.950 . S
C7676 C7671 1.363 . S
C7676 C7675 1.415 . S
C7677 H7653 0.951 . S
C7677 C7678 1.366 . S
C7677 C7679 1.388 . S
C7678 C7677 1.366 . S
C7678 C7682 1.385 . S
C7679 H7654 0.951 . S
C7679 C7677 1.388 . S
C7679 C7680 1.366 . S
C7680 C7679 1.366 . S
C7680 C7681 1.414 . S
C7680 C7683 1.499 . S
C7681 H7655 0.950 . S
C7681 C7680 1.414 . S
C7681 C7682 1.374 . S
C7682 H7656 0.950 . S
C7682 C7678 1.385 . S
C7682 C7681 1.374 . S
C7683 C7680 1.499 . S
C7683 C7684 1.373 . S
C7683 C7685 1.389 . S
C7684 H7657 0.950 . S
C7684 C7670 1.377 . S
C7684 C7683 1.373 . S
C7685 C7669 1.377 . S
C7685 C7683 1.389 . S
C7685 C7686 1.524 . S
C7686 C7685 1.524 . S
C7686 C7687 1.397 . S
C7686 C7691 1.363 . S
C7687 H7658 0.950 . S
C7687 C7686 1.397 . S
C7687 C7688 1.334 . S
C7688 H7659 0.950 . S
C7688 C7687 1.334 . S
C7688 C7689 1.287 . S
C7689 C7688 1.287 . S
C7689 C7690 1.524 . S
C7689 H7692 0.999 . S
C7690 H7660 0.950 . S
C7690 C7689 1.524 . S
C7690 C7691 1.415 . S
C7691 H7661 0.950 . S
C7691 C7686 1.363 . S
C7691 C7690 1.415 . S
H7692 C7689 0.999 . S
H7693 C7674 0.913 . S
H7694 C7712 0.951 . S
H7695 C7714 0.951 . S
H7696 C7716 0.950 . S
H7697 C7717 0.950 . S
H7698 C7719 0.950 . S
H7699 C7722 0.950 . S
H7700 C7723 0.950 . S
H7701 C7725 0.950 . S
H7702 C7726 0.950 . S
H7703 C7727 0.951 . S
H7704 C7729 0.951 . S
H7705 C7731 0.950 . S
H7706 C7732 0.950 . S
H7707 C7734 0.950 . S
H7708 C7737 0.950 . S
H7709 C7738 0.950 . S
H7710 C7740 0.950 . S
H7711 C7741 0.950 . S
C7712 H7694 0.951 . S
C7712 C7713 1.366 . S
C7712 C7714 1.388 . S
C7713 C7712 1.366 . S
C7713 C7717 1.385 . S
C7714 H7695 0.951 . S
C7714 C7712 1.388 . S
C7714 C7715 1.366 . S
C7715 C7714 1.366 . S
C7715 C7716 1.414 . S
C7715 C7718 1.499 . S
C7716 H7696 0.950 . S
C7716 C7715 1.414 . S
C7716 C7717 1.374 . S
C7717 H7697 0.950 . S
C7717 C7713 1.385 . S
C7717 C7716 1.374 . S
C7718 C7715 1.499 . S
C7718 C7719 1.373 . S
C7718 C7720 1.389 . S
C7719 H7698 0.950 . S
C7719 C7718 1.373 . S
C7719 C7735 1.377 . S
C7720 C7718 1.389 . S
C7720 C7721 1.524 . S
C7720 C7734 1.377 . S
C7721 C7720 1.524 . S
C7721 C7722 1.397 . S
C7721 C7726 1.363 . S
C7722 H7699 0.950 . S
C7722 C7721 1.397 . S
C7722 C7723 1.334 . S
C7723 H7700 0.950 . S
C7723 C7722 1.334 . S
C7723 C7724 1.287 . S
C7724 C7723 1.287 . S
C7724 C7725 1.524 . S
C7724 H7743 0.913 . S
C7725 H7701 0.950 . S
C7725 C7724 1.524 . S
C7725 C7726 1.415 . S
C7726 H7702 0.950 . S
C7726 C7721 1.363 . S
C7726 C7725 1.415 . S
C7727 H7703 0.951 . S
C7727 C7728 1.366 . S
C7727 C7729 1.388 . S
C7728 C7727 1.366 . S
C7728 C7732 1.385 . S
C7729 H7704 0.951 . S
C7729 C7727 1.388 . S
C7729 C7730 1.366 . S
C7730 C7729 1.366 . S
C7730 C7731 1.414 . S
C7730 C7733 1.499 . S
C7731 H7705 0.950 . S
C7731 C7730 1.414 . S
C7731 C7732 1.374 . S
C7732 H7706 0.950 . S
C7732 C7728 1.385 . S
C7732 C7731 1.374 . S
C7733 C7730 1.499 . S
C7733 C7734 1.373 . S
C7733 C7735 1.389 . S
C7734 H7707 0.950 . S
C7734 C7720 1.377 . S
C7734 C7733 1.373 . S
C7735 C7719 1.377 . S
C7735 C7733 1.389 . S
C7735 C7736 1.524 . S
C7736 C7735 1.524 . S
C7736 C7737 1.397 . S
C7736 C7741 1.363 . S
C7737 H7708 0.950 . S
C7737 C7736 1.397 . S
C7737 C7738 1.334 . S
C7738 H7709 0.950 . S
C7738 C7737 1.334 . S
C7738 C7739 1.287 . S
C7739 C7738 1.287 . S
C7739 C7740 1.524 . S
C7739 H7742 0.999 . S
C7740 H7710 0.950 . S
C7740 C7739 1.524 . S
C7740 C7741 1.415 . S
C7741 H7711 0.950 . S
C7741 C7736 1.363 . S
C7741 C7740 1.415 . S
H7742 C7739 0.999 . S
H7743 C7724 0.913 . S
H7744 C7762 0.951 . S
H7745 C7764 0.951 . S
H7746 C7766 0.950 . S
H7747 C7767 0.950 . S
H7748 C7769 0.950 . S
H7749 C7772 0.950 . S
H7750 C7773 0.950 . S
H7751 C7775 0.950 . S
H7752 C7776 0.950 . S
H7753 C7777 0.951 . S
H7754 C7779 0.951 . S
H7755 C7781 0.950 . S
H7756 C7782 0.950 . S
H7757 C7784 0.950 . S
H7758 C7787 0.950 . S
H7759 C7788 0.950 . S
H7760 C7790 0.950 . S
H7761 C7791 0.950 . S
C7762 H7744 0.951 . S
C7762 C7763 1.366 . S
C7762 C7764 1.388 . S
C7763 C7762 1.366 . S
C7763 C7767 1.385 . S
C7764 H7745 0.951 . S
C7764 C7762 1.388 . S
C7764 C7765 1.366 . S
C7765 C7764 1.366 . S
C7765 C7766 1.414 . S
C7765 C7768 1.499 . S
C7766 H7746 0.950 . S
C7766 C7765 1.414 . S
C7766 C7767 1.374 . S
C7767 H7747 0.950 . S
C7767 C7763 1.385 . S
C7767 C7766 1.374 . S
C7768 C7765 1.499 . S
C7768 C7769 1.373 . S
C7768 C7770 1.389 . S
C7769 H7748 0.950 . S
C7769 C7768 1.373 . S
C7769 C7785 1.377 . S
C7770 C7768 1.389 . S
C7770 C7771 1.524 . S
C7770 C7784 1.377 . S
C7771 C7770 1.524 . S
C7771 C7772 1.397 . S
C7771 C7776 1.363 . S
C7772 H7749 0.950 . S
C7772 C7771 1.397 . S
C7772 C7773 1.334 . S
C7773 H7750 0.950 . S
C7773 C7772 1.334 . S
C7773 C7774 1.287 . S
C7774 C7773 1.287 . S
C7774 C7775 1.524 . S
C7774 H7793 0.913 . S
C7775 H7751 0.950 . S
C7775 C7774 1.524 . S
C7775 C7776 1.415 . S
C7776 H7752 0.950 . S
C7776 C7771 1.363 . S
C7776 C7775 1.415 . S
C7777 H7753 0.951 . S
C7777 C7778 1.366 . S
C7777 C7779 1.388 . S
C7778 C7777 1.366 . S
C7778 C7782 1.385 . S
C7779 H7754 0.951 . S
C7779 C7777 1.388 . S
C7779 C7780 1.366 . S
C7780 C7779 1.366 . S
C7780 C7781 1.414 . S
C7780 C7783 1.499 . S
C7781 H7755 0.950 . S
C7781 C7780 1.414 . S
C7781 C7782 1.374 . S
C7782 H7756 0.950 . S
C7782 C7778 1.385 . S
C7782 C7781 1.374 . S
C7783 C7780 1.499 . S
C7783 C7784 1.373 . S
C7783 C7785 1.389 . S
C7784 H7757 0.950 . S
C7784 C7770 1.377 . S
C7784 C7783 1.373 . S
C7785 C7769 1.377 . S
C7785 C7783 1.389 . S
C7785 C7786 1.524 . S
C7786 C7785 1.524 . S
C7786 C7787 1.397 . S
C7786 C7791 1.363 . S
C7787 H7758 0.950 . S
C7787 C7786 1.397 . S
C7787 C7788 1.334 . S
C7788 H7759 0.950 . S
C7788 C7787 1.334 . S
C7788 C7789 1.287 . S
C7789 C7788 1.287 . S
C7789 C7790 1.524 . S
C7789 H7792 0.999 . S
C7790 H7760 0.950 . S
C7790 C7789 1.524 . S
C7790 C7791 1.415 . S
C7791 H7761 0.950 . S
C7791 C7786 1.363 . S
C7791 C7790 1.415 . S
H7792 C7789 0.999 . S
H7793 C7774 0.913 . S
H7794 C7812 0.951 . S
H7795 C7814 0.951 . S
H7796 C7816 0.950 . S
H7797 C7817 0.950 . S
H7798 C7819 0.950 . S
H7799 C7822 0.950 . S
H7800 C7823 0.950 . S
H7801 C7825 0.950 . S
H7802 C7826 0.950 . S
H7803 C7827 0.951 . S
H7804 C7829 0.951 . S
H7805 C7831 0.950 . S
H7806 C7832 0.950 . S
H7807 C7834 0.950 . S
H7808 C7837 0.950 . S
H7809 C7838 0.950 . S
H7810 C7840 0.950 . S
H7811 C7841 0.950 . S
C7812 H7794 0.951 . S
C7812 C7813 1.366 . S
C7812 C7814 1.388 . S
C7813 C7812 1.366 . S
C7813 C7817 1.385 . S
C7814 H7795 0.951 . S
C7814 C7812 1.388 . S
C7814 C7815 1.366 . S
C7815 C7814 1.366 . S
C7815 C7816 1.414 . S
C7815 C7818 1.499 . S
C7816 H7796 0.950 . S
C7816 C7815 1.414 . S
C7816 C7817 1.374 . S
C7817 H7797 0.950 . S
C7817 C7813 1.385 . S
C7817 C7816 1.374 . S
C7818 C7815 1.499 . S
C7818 C7819 1.373 . S
C7818 C7820 1.389 . S
C7819 H7798 0.950 . S
C7819 C7818 1.373 . S
C7819 C7835 1.377 . S
C7820 C7818 1.389 . S
C7820 C7821 1.524 . S
C7820 C7834 1.377 . S
C7821 C7820 1.524 . S
C7821 C7822 1.397 . S
C7821 C7826 1.363 . S
C7822 H7799 0.950 . S
C7822 C7821 1.397 . S
C7822 C7823 1.334 . S
C7823 H7800 0.950 . S
C7823 C7822 1.334 . S
C7823 C7824 1.287 . S
C7824 C7823 1.287 . S
C7824 C7825 1.524 . S
C7824 H7843 0.913 . S
C7825 H7801 0.950 . S
C7825 C7824 1.524 . S
C7825 C7826 1.415 . S
C7826 H7802 0.950 . S
C7826 C7821 1.363 . S
C7826 C7825 1.415 . S
C7827 H7803 0.951 . S
C7827 C7828 1.366 . S
C7827 C7829 1.388 . S
C7828 C7827 1.366 . S
C7828 C7832 1.385 . S
C7829 H7804 0.951 . S
C7829 C7827 1.388 . S
C7829 C7830 1.366 . S
C7830 C7829 1.366 . S
C7830 C7831 1.414 . S
C7830 C7833 1.499 . S
C7831 H7805 0.950 . S
C7831 C7830 1.414 . S
C7831 C7832 1.374 . S
C7832 H7806 0.950 . S
C7832 C7828 1.385 . S
C7832 C7831 1.374 . S
C7833 C7830 1.499 . S
C7833 C7834 1.373 . S
C7833 C7835 1.389 . S
C7834 H7807 0.950 . S
C7834 C7820 1.377 . S
C7834 C7833 1.373 . S
C7835 C7819 1.377 . S
C7835 C7833 1.389 . S
C7835 C7836 1.524 . S
C7836 C7835 1.524 . S
C7836 C7837 1.397 . S
C7836 C7841 1.363 . S
C7837 H7808 0.950 . S
C7837 C7836 1.397 . S
C7837 C7838 1.334 . S
C7838 H7809 0.950 . S
C7838 C7837 1.334 . S
C7838 C7839 1.287 . S
C7839 C7838 1.287 . S
C7839 C7840 1.524 . S
C7839 H7842 0.999 . S
C7840 H7810 0.950 . S
C7840 C7839 1.524 . S
C7840 C7841 1.415 . S
C7841 H7811 0.950 . S
C7841 C7836 1.363 . S
C7841 C7840 1.415 . S
H7842 C7839 0.999 . S
H7843 C7824 0.913 . S
H7844 C7862 0.951 . S
H7845 C7864 0.951 . S
H7846 C7866 0.950 . S
H7847 C7867 0.950 . S
H7848 C7869 0.950 . S
H7849 C7872 0.950 . S
H7850 C7873 0.950 . S
H7851 C7875 0.950 . S
H7852 C7876 0.950 . S
H7853 C7877 0.951 . S
H7854 C7879 0.951 . S
H7855 C7881 0.950 . S
H7856 C7882 0.950 . S
H7857 C7884 0.950 . S
H7858 C7887 0.950 . S
H7859 C7888 0.950 . S
H7860 C7890 0.950 . S
H7861 C7891 0.950 . S
C7862 H7844 0.951 . S
C7862 C7863 1.366 . S
C7862 C7864 1.388 . S
C7863 C7862 1.366 . S
C7863 C7867 1.385 . S
C7864 H7845 0.951 . S
C7864 C7862 1.388 . S
C7864 C7865 1.366 . S
C7865 C7864 1.366 . S
C7865 C7866 1.414 . S
C7865 C7868 1.499 . S
C7866 H7846 0.950 . S
C7866 C7865 1.414 . S
C7866 C7867 1.374 . S
C7867 H7847 0.950 . S
C7867 C7863 1.385 . S
C7867 C7866 1.374 . S
C7868 C7865 1.499 . S
C7868 C7869 1.373 . S
C7868 C7870 1.389 . S
C7869 H7848 0.950 . S
C7869 C7868 1.373 . S
C7869 C7885 1.377 . S
C7870 C7868 1.389 . S
C7870 C7871 1.524 . S
C7870 C7884 1.377 . S
C7871 C7870 1.524 . S
C7871 C7872 1.397 . S
C7871 C7876 1.363 . S
C7872 H7849 0.950 . S
C7872 C7871 1.397 . S
C7872 C7873 1.334 . S
C7873 H7850 0.950 . S
C7873 C7872 1.334 . S
C7873 C7874 1.287 . S
C7874 C7873 1.287 . S
C7874 C7875 1.524 . S
C7874 H7893 0.913 . S
C7875 H7851 0.950 . S
C7875 C7874 1.524 . S
C7875 C7876 1.415 . S
C7876 H7852 0.950 . S
C7876 C7871 1.363 . S
C7876 C7875 1.415 . S
C7877 H7853 0.951 . S
C7877 C7878 1.366 . S
C7877 C7879 1.388 . S
C7878 C7877 1.366 . S
C7878 C7882 1.385 . S
C7879 H7854 0.951 . S
C7879 C7877 1.388 . S
C7879 C7880 1.366 . S
C7880 C7879 1.366 . S
C7880 C7881 1.414 . S
C7880 C7883 1.499 . S
C7881 H7855 0.950 . S
C7881 C7880 1.414 . S
C7881 C7882 1.374 . S
C7882 H7856 0.950 . S
C7882 C7878 1.385 . S
C7882 C7881 1.374 . S
C7883 C7880 1.499 . S
C7883 C7884 1.373 . S
C7883 C7885 1.389 . S
C7884 H7857 0.950 . S
C7884 C7870 1.377 . S
C7884 C7883 1.373 . S
C7885 C7869 1.377 . S
C7885 C7883 1.389 . S
C7885 C7886 1.524 . S
C7886 C7885 1.524 . S
C7886 C7887 1.397 . S
C7886 C7891 1.363 . S
C7887 H7858 0.950 . S
C7887 C7886 1.397 . S
C7887 C7888 1.334 . S
C7888 H7859 0.950 . S
C7888 C7887 1.334 . S
C7888 C7889 1.287 . S
C7889 C7888 1.287 . S
C7889 C7890 1.524 . S
C7889 H7892 0.999 . S
C7890 H7860 0.950 . S
C7890 C7889 1.524 . S
C7890 C7891 1.415 . S
C7891 H7861 0.950 . S
C7891 C7886 1.363 . S
C7891 C7890 1.415 . S
H7892 C7889 0.999 . S
H7893 C7874 0.913 . S
H7894 C7912 0.951 . S
H7895 C7914 0.951 . S
H7896 C7916 0.950 . S
H7897 C7917 0.950 . S
H7898 C7919 0.950 . S
H7899 C7922 0.950 . S
H7900 C7923 0.950 . S
H7901 C7925 0.950 . S
H7902 C7926 0.950 . S
H7903 C7927 0.951 . S
H7904 C7929 0.951 . S
H7905 C7931 0.950 . S
H7906 C7932 0.950 . S
H7907 C7934 0.950 . S
H7908 C7937 0.950 . S
H7909 C7938 0.950 . S
H7910 C7940 0.950 . S
H7911 C7941 0.950 . S
C7912 H7894 0.951 . S
C7912 C7913 1.366 . S
C7912 C7914 1.388 . S
C7913 C7912 1.366 . S
C7913 C7917 1.385 . S
C7914 H7895 0.951 . S
C7914 C7912 1.388 . S
C7914 C7915 1.366 . S
C7915 C7914 1.366 . S
C7915 C7916 1.414 . S
C7915 C7918 1.499 . S
C7916 H7896 0.950 . S
C7916 C7915 1.414 . S
C7916 C7917 1.374 . S
C7917 H7897 0.950 . S
C7917 C7913 1.385 . S
C7917 C7916 1.374 . S
C7918 C7915 1.499 . S
C7918 C7919 1.373 . S
C7918 C7920 1.389 . S
C7919 H7898 0.950 . S
C7919 C7918 1.373 . S
C7919 C7935 1.377 . S
C7920 C7918 1.389 . S
C7920 C7921 1.524 . S
C7920 C7934 1.377 . S
C7921 C7920 1.524 . S
C7921 C7922 1.397 . S
C7921 C7926 1.363 . S
C7922 H7899 0.950 . S
C7922 C7921 1.397 . S
C7922 C7923 1.334 . S
C7923 H7900 0.950 . S
C7923 C7922 1.334 . S
C7923 C7924 1.287 . S
C7924 C7923 1.287 . S
C7924 C7925 1.524 . S
C7924 H7943 0.913 . S
C7925 H7901 0.950 . S
C7925 C7924 1.524 . S
C7925 C7926 1.415 . S
C7926 H7902 0.950 . S
C7926 C7921 1.363 . S
C7926 C7925 1.415 . S
C7927 H7903 0.951 . S
C7927 C7928 1.366 . S
C7927 C7929 1.388 . S
C7928 C7927 1.366 . S
C7928 C7932 1.385 . S
C7929 H7904 0.951 . S
C7929 C7927 1.388 . S
C7929 C7930 1.366 . S
C7930 C7929 1.366 . S
C7930 C7931 1.414 . S
C7930 C7933 1.499 . S
C7931 H7905 0.950 . S
C7931 C7930 1.414 . S
C7931 C7932 1.374 . S
C7932 H7906 0.950 . S
C7932 C7928 1.385 . S
C7932 C7931 1.374 . S
C7933 C7930 1.499 . S
C7933 C7934 1.373 . S
C7933 C7935 1.389 . S
C7934 H7907 0.950 . S
C7934 C7920 1.377 . S
C7934 C7933 1.373 . S
C7935 C7919 1.377 . S
C7935 C7933 1.389 . S
C7935 C7936 1.524 . S
C7936 C7935 1.524 . S
C7936 C7937 1.397 . S
C7936 C7941 1.363 . S
C7937 H7908 0.950 . S
C7937 C7936 1.397 . S
C7937 C7938 1.334 . S
C7938 H7909 0.950 . S
C7938 C7937 1.334 . S
C7938 C7939 1.287 . S
C7939 C7938 1.287 . S
C7939 C7940 1.524 . S
C7939 H7942 0.999 . S
C7940 H7910 0.950 . S
C7940 C7939 1.524 . S
C7940 C7941 1.415 . S
C7941 H7911 0.950 . S
C7941 C7936 1.363 . S
C7941 C7940 1.415 . S
H7942 C7939 0.999 . S
H7943 C7924 0.913 . S
H7944 C7962 0.951 . S
H7945 C7964 0.951 . S
H7946 C7966 0.950 . S
H7947 C7967 0.950 . S
H7948 C7969 0.950 . S
H7949 C7972 0.950 . S
H7950 C7973 0.950 . S
H7951 C7975 0.950 . S
H7952 C7976 0.950 . S
H7953 C7977 0.951 . S
H7954 C7979 0.951 . S
H7955 C7981 0.950 . S
H7956 C7982 0.950 . S
H7957 C7984 0.950 . S
H7958 C7987 0.950 . S
H7959 C7988 0.950 . S
H7960 C7990 0.950 . S
H7961 C7991 0.950 . S
C7962 H7944 0.951 . S
C7962 C7963 1.366 . S
C7962 C7964 1.388 . S
C7963 C7962 1.366 . S
C7963 C7967 1.385 . S
C7964 H7945 0.951 . S
C7964 C7962 1.388 . S
C7964 C7965 1.366 . S
C7965 C7964 1.366 . S
C7965 C7966 1.414 . S
C7965 C7968 1.499 . S
C7966 H7946 0.950 . S
C7966 C7965 1.414 . S
C7966 C7967 1.374 . S
C7967 H7947 0.950 . S
C7967 C7963 1.385 . S
C7967 C7966 1.374 . S
C7968 C7965 1.499 . S
C7968 C7969 1.373 . S
C7968 C7970 1.389 . S
C7969 H7948 0.950 . S
C7969 C7968 1.373 . S
C7969 C7985 1.377 . S
C7970 C7968 1.389 . S
C7970 C7971 1.524 . S
C7970 C7984 1.377 . S
C7971 C7970 1.524 . S
C7971 C7972 1.397 . S
C7971 C7976 1.363 . S
C7972 H7949 0.950 . S
C7972 C7971 1.397 . S
C7972 C7973 1.334 . S
C7973 H7950 0.950 . S
C7973 C7972 1.334 . S
C7973 C7974 1.287 . S
C7974 C7973 1.287 . S
C7974 C7975 1.524 . S
C7974 H7993 0.913 . S
C7975 H7951 0.950 . S
C7975 C7974 1.524 . S
C7975 C7976 1.415 . S
C7976 H7952 0.950 . S
C7976 C7971 1.363 . S
C7976 C7975 1.415 . S
C7977 H7953 0.951 . S
C7977 C7978 1.366 . S
C7977 C7979 1.388 . S
C7978 C7977 1.366 . S
C7978 C7982 1.385 . S
C7979 H7954 0.951 . S
C7979 C7977 1.388 . S
C7979 C7980 1.366 . S
C7980 C7979 1.366 . S
C7980 C7981 1.414 . S
C7980 C7983 1.499 . S
C7981 H7955 0.950 . S
C7981 C7980 1.414 . S
C7981 C7982 1.374 . S
C7982 H7956 0.950 . S
C7982 C7978 1.385 . S
C7982 C7981 1.374 . S
C7983 C7980 1.499 . S
C7983 C7984 1.373 . S
C7983 C7985 1.389 . S
C7984 H7957 0.950 . S
C7984 C7970 1.377 . S
C7984 C7983 1.373 . S
C7985 C7969 1.377 . S
C7985 C7983 1.389 . S
C7985 C7986 1.524 . S
C7986 C7985 1.524 . S
C7986 C7987 1.397 . S
C7986 C7991 1.363 . S
C7987 H7958 0.950 . S
C7987 C7986 1.397 . S
C7987 C7988 1.334 . S
C7988 H7959 0.950 . S
C7988 C7987 1.334 . S
C7988 C7989 1.287 . S
C7989 C7988 1.287 . S
C7989 C7990 1.524 . S
C7989 H7992 0.999 . S
C7990 H7960 0.950 . S
C7990 C7989 1.524 . S
C7990 C7991 1.415 . S
C7991 H7961 0.950 . S
C7991 C7986 1.363 . S
C7991 C7990 1.415 . S
H7992 C7989 0.999 . S
H7993 C7974 0.913 . S
H7994 C8012 0.951 . S
H7995 C8014 0.951 . S
H7996 C8016 0.950 . S
H7997 C8017 0.950 . S
H7998 C8019 0.950 . S
H7999 C8022 0.950 . S
H8000 C8023 0.950 . S
H8001 C8025 0.950 . S
H8002 C8026 0.950 . S
H8003 C8027 0.951 . S
H8004 C8029 0.951 . S
H8005 C8031 0.950 . S
H8006 C8032 0.950 . S
H8007 C8034 0.950 . S
H8008 C8037 0.950 . S
H8009 C8038 0.950 . S
H8010 C8040 0.950 . S
H8011 C8041 0.950 . S
C8012 H7994 0.951 . S
C8012 C8013 1.366 . S
C8012 C8014 1.388 . S
C8013 C8012 1.366 . S
C8013 C8017 1.385 . S
C8014 H7995 0.951 . S
C8014 C8012 1.388 . S
C8014 C8015 1.366 . S
C8015 C8014 1.366 . S
C8015 C8016 1.414 . S
C8015 C8018 1.499 . S
C8016 H7996 0.950 . S
C8016 C8015 1.414 . S
C8016 C8017 1.374 . S
C8017 H7997 0.950 . S
C8017 C8013 1.385 . S
C8017 C8016 1.374 . S
C8018 C8015 1.499 . S
C8018 C8019 1.373 . S
C8018 C8020 1.389 . S
C8019 H7998 0.950 . S
C8019 C8018 1.373 . S
C8019 C8035 1.377 . S
C8020 C8018 1.389 . S
C8020 C8021 1.524 . S
C8020 C8034 1.377 . S
C8021 C8020 1.524 . S
C8021 C8022 1.397 . S
C8021 C8026 1.363 . S
C8022 H7999 0.950 . S
C8022 C8021 1.397 . S
C8022 C8023 1.334 . S
C8023 H8000 0.950 . S
C8023 C8022 1.334 . S
C8023 C8024 1.287 . S
C8024 C8023 1.287 . S
C8024 C8025 1.524 . S
C8024 H8043 0.913 . S
C8025 H8001 0.950 . S
C8025 C8024 1.524 . S
C8025 C8026 1.415 . S
C8026 H8002 0.950 . S
C8026 C8021 1.363 . S
C8026 C8025 1.415 . S
C8027 H8003 0.951 . S
C8027 C8028 1.366 . S
C8027 C8029 1.388 . S
C8028 C8027 1.366 . S
C8028 C8032 1.385 . S
C8029 H8004 0.951 . S
C8029 C8027 1.388 . S
C8029 C8030 1.366 . S
C8030 C8029 1.366 . S
C8030 C8031 1.414 . S
C8030 C8033 1.499 . S
C8031 H8005 0.950 . S
C8031 C8030 1.414 . S
C8031 C8032 1.374 . S
C8032 H8006 0.950 . S
C8032 C8028 1.385 . S
C8032 C8031 1.374 . S
C8033 C8030 1.499 . S
C8033 C8034 1.373 . S
C8033 C8035 1.389 . S
C8034 H8007 0.950 . S
C8034 C8020 1.377 . S
C8034 C8033 1.373 . S
C8035 C8019 1.377 . S
C8035 C8033 1.389 . S
C8035 C8036 1.524 . S
C8036 C8035 1.524 . S
C8036 C8037 1.397 . S
C8036 C8041 1.363 . S
C8037 H8008 0.950 . S
C8037 C8036 1.397 . S
C8037 C8038 1.334 . S
C8038 H8009 0.950 . S
C8038 C8037 1.334 . S
C8038 C8039 1.287 . S
C8039 C8038 1.287 . S
C8039 C8040 1.524 . S
C8039 H8042 0.999 . S
C8040 H8010 0.950 . S
C8040 C8039 1.524 . S
C8040 C8041 1.415 . S
C8041 H8011 0.950 . S
C8041 C8036 1.363 . S
C8041 C8040 1.415 . S
H8042 C8039 0.999 . S
H8043 C8024 0.913 . S
H8044 C8062 0.951 . S
H8045 C8064 0.951 . S
H8046 C8066 0.950 . S
H8047 C8067 0.950 . S
H8048 C8069 0.950 . S
H8049 C8072 0.950 . S
H8050 C8073 0.950 . S
H8051 C8075 0.950 . S
H8052 C8076 0.950 . S
H8053 C8077 0.951 . S
H8054 C8079 0.951 . S
H8055 C8081 0.950 . S
H8056 C8082 0.950 . S
H8057 C8084 0.950 . S
H8058 C8087 0.950 . S
H8059 C8088 0.950 . S
H8060 C8090 0.950 . S
H8061 C8091 0.950 . S
C8062 H8044 0.951 . S
C8062 C8063 1.366 . S
C8062 C8064 1.388 . S
C8063 C8062 1.366 . S
C8063 C8067 1.385 . S
C8064 H8045 0.951 . S
C8064 C8062 1.388 . S
C8064 C8065 1.366 . S
C8065 C8064 1.366 . S
C8065 C8066 1.414 . S
C8065 C8068 1.499 . S
C8066 H8046 0.950 . S
C8066 C8065 1.414 . S
C8066 C8067 1.374 . S
C8067 H8047 0.950 . S
C8067 C8063 1.385 . S
C8067 C8066 1.374 . S
C8068 C8065 1.499 . S
C8068 C8069 1.373 . S
C8068 C8070 1.389 . S
C8069 H8048 0.950 . S
C8069 C8068 1.373 . S
C8069 C8085 1.377 . S
C8070 C8068 1.389 . S
C8070 C8071 1.524 . S
C8070 C8084 1.377 . S
C8071 C8070 1.524 . S
C8071 C8072 1.397 . S
C8071 C8076 1.363 . S
C8072 H8049 0.950 . S
C8072 C8071 1.397 . S
C8072 C8073 1.334 . S
C8073 H8050 0.950 . S
C8073 C8072 1.334 . S
C8073 C8074 1.287 . S
C8074 C8073 1.287 . S
C8074 C8075 1.524 . S
C8074 H8093 0.913 . S
C8075 H8051 0.950 . S
C8075 C8074 1.524 . S
C8075 C8076 1.415 . S
C8076 H8052 0.950 . S
C8076 C8071 1.363 . S
C8076 C8075 1.415 . S
C8077 H8053 0.951 . S
C8077 C8078 1.366 . S
C8077 C8079 1.388 . S
C8078 C8077 1.366 . S
C8078 C8082 1.385 . S
C8079 H8054 0.951 . S
C8079 C8077 1.388 . S
C8079 C8080 1.366 . S
C8080 C8079 1.366 . S
C8080 C8081 1.414 . S
C8080 C8083 1.499 . S
C8081 H8055 0.950 . S
C8081 C8080 1.414 . S
C8081 C8082 1.374 . S
C8082 H8056 0.950 . S
C8082 C8078 1.385 . S
C8082 C8081 1.374 . S
C8083 C8080 1.499 . S
C8083 C8084 1.373 . S
C8083 C8085 1.389 . S
C8084 H8057 0.950 . S
C8084 C8070 1.377 . S
C8084 C8083 1.373 . S
C8085 C8069 1.377 . S
C8085 C8083 1.389 . S
C8085 C8086 1.524 . S
C8086 C8085 1.524 . S
C8086 C8087 1.397 . S
C8086 C8091 1.363 . S
C8087 H8058 0.950 . S
C8087 C8086 1.397 . S
C8087 C8088 1.334 . S
C8088 H8059 0.950 . S
C8088 C8087 1.334 . S
C8088 C8089 1.287 . S
C8089 C8088 1.287 . S
C8089 C8090 1.524 . S
C8089 H8092 0.999 . S
C8090 H8060 0.950 . S
C8090 C8089 1.524 . S
C8090 C8091 1.415 . S
C8091 H8061 0.950 . S
C8091 C8086 1.363 . S
C8091 C8090 1.415 . S
H8092 C8089 0.999 . S
H8093 C8074 0.913 . S
H8094 C8112 0.951 . S
H8095 C8114 0.951 . S
H8096 C8116 0.950 . S
H8097 C8117 0.950 . S
H8098 C8119 0.950 . S
H8099 C8122 0.950 . S
H8100 C8123 0.950 . S
H8101 C8125 0.950 . S
H8102 C8126 0.950 . S
H8103 C8127 0.951 . S
H8104 C8129 0.951 . S
H8105 C8131 0.950 . S
H8106 C8132 0.950 . S
H8107 C8134 0.950 . S
H8108 C8137 0.950 . S
H8109 C8138 0.950 . S
H8110 C8140 0.950 . S
H8111 C8141 0.950 . S
C8112 H8094 0.951 . S
C8112 C8113 1.366 . S
C8112 C8114 1.388 . S
C8113 C8112 1.366 . S
C8113 C8117 1.385 . S
C8114 H8095 0.951 . S
C8114 C8112 1.388 . S
C8114 C8115 1.366 . S
C8115 C8114 1.366 . S
C8115 C8116 1.414 . S
C8115 C8118 1.499 . S
C8116 H8096 0.950 . S
C8116 C8115 1.414 . S
C8116 C8117 1.374 . S
C8117 H8097 0.950 . S
C8117 C8113 1.385 . S
C8117 C8116 1.374 . S
C8118 C8115 1.499 . S
C8118 C8119 1.373 . S
C8118 C8120 1.389 . S
C8119 H8098 0.950 . S
C8119 C8118 1.373 . S
C8119 C8135 1.377 . S
C8120 C8118 1.389 . S
C8120 C8121 1.524 . S
C8120 C8134 1.377 . S
C8121 C8120 1.524 . S
C8121 C8122 1.397 . S
C8121 C8126 1.363 . S
C8122 H8099 0.950 . S
C8122 C8121 1.397 . S
C8122 C8123 1.334 . S
C8123 H8100 0.950 . S
C8123 C8122 1.334 . S
C8123 C8124 1.287 . S
C8124 C8123 1.287 . S
C8124 C8125 1.524 . S
C8124 H8143 0.913 . S
C8125 H8101 0.950 . S
C8125 C8124 1.524 . S
C8125 C8126 1.415 . S
C8126 H8102 0.950 . S
C8126 C8121 1.363 . S
C8126 C8125 1.415 . S
C8127 H8103 0.951 . S
C8127 C8128 1.366 . S
C8127 C8129 1.388 . S
C8128 C8127 1.366 . S
C8128 C8132 1.385 . S
C8129 H8104 0.951 . S
C8129 C8127 1.388 . S
C8129 C8130 1.366 . S
C8130 C8129 1.366 . S
C8130 C8131 1.414 . S
C8130 C8133 1.499 . S
C8131 H8105 0.950 . S
C8131 C8130 1.414 . S
C8131 C8132 1.374 . S
C8132 H8106 0.950 . S
C8132 C8128 1.385 . S
C8132 C8131 1.374 . S
C8133 C8130 1.499 . S
C8133 C8134 1.373 . S
C8133 C8135 1.389 . S
C8134 H8107 0.950 . S
C8134 C8120 1.377 . S
C8134 C8133 1.373 . S
C8135 C8119 1.377 . S
C8135 C8133 1.389 . S
C8135 C8136 1.524 . S
C8136 C8135 1.524 . S
C8136 C8137 1.397 . S
C8136 C8141 1.363 . S
C8137 H8108 0.950 . S
C8137 C8136 1.397 . S
C8137 C8138 1.334 . S
C8138 H8109 0.950 . S
C8138 C8137 1.334 . S
C8138 C8139 1.287 . S
C8139 C8138 1.287 . S
C8139 C8140 1.524 . S
C8139 H8142 0.999 . S
C8140 H8110 0.950 . S
C8140 C8139 1.524 . S
C8140 C8141 1.415 . S
C8141 H8111 0.950 . S
C8141 C8136 1.363 . S
C8141 C8140 1.415 . S
H8142 C8139 0.999 . S
H8143 C8124 0.913 . S
H8144 C8162 0.951 . S
H8145 C8164 0.951 . S
H8146 C8166 0.950 . S
H8147 C8167 0.950 . S
H8148 C8169 0.950 . S
H8149 C8172 0.950 . S
H8150 C8173 0.950 . S
H8151 C8175 0.950 . S
H8152 C8176 0.950 . S
H8153 C8177 0.951 . S
H8154 C8179 0.951 . S
H8155 C8181 0.950 . S
H8156 C8182 0.950 . S
H8157 C8184 0.950 . S
H8158 C8187 0.950 . S
H8159 C8188 0.950 . S
H8160 C8190 0.950 . S
H8161 C8191 0.950 . S
C8162 H8144 0.951 . S
C8162 C8163 1.366 . S
C8162 C8164 1.388 . S
C8163 C8162 1.366 . S
C8163 C8167 1.385 . S
C8164 H8145 0.951 . S
C8164 C8162 1.388 . S
C8164 C8165 1.366 . S
C8165 C8164 1.366 . S
C8165 C8166 1.414 . S
C8165 C8168 1.499 . S
C8166 H8146 0.950 . S
C8166 C8165 1.414 . S
C8166 C8167 1.374 . S
C8167 H8147 0.950 . S
C8167 C8163 1.385 . S
C8167 C8166 1.374 . S
C8168 C8165 1.499 . S
C8168 C8169 1.373 . S
C8168 C8170 1.389 . S
C8169 H8148 0.950 . S
C8169 C8168 1.373 . S
C8169 C8185 1.377 . S
C8170 C8168 1.389 . S
C8170 C8171 1.524 . S
C8170 C8184 1.377 . S
C8171 C8170 1.524 . S
C8171 C8172 1.397 . S
C8171 C8176 1.363 . S
C8172 H8149 0.950 . S
C8172 C8171 1.397 . S
C8172 C8173 1.334 . S
C8173 H8150 0.950 . S
C8173 C8172 1.334 . S
C8173 C8174 1.287 . S
C8174 C8173 1.287 . S
C8174 C8175 1.524 . S
C8174 H8193 0.913 . S
C8175 H8151 0.950 . S
C8175 C8174 1.524 . S
C8175 C8176 1.415 . S
C8176 H8152 0.950 . S
C8176 C8171 1.363 . S
C8176 C8175 1.415 . S
C8177 H8153 0.951 . S
C8177 C8178 1.366 . S
C8177 C8179 1.388 . S
C8178 C8177 1.366 . S
C8178 C8182 1.385 . S
C8179 H8154 0.951 . S
C8179 C8177 1.388 . S
C8179 C8180 1.366 . S
C8180 C8179 1.366 . S
C8180 C8181 1.414 . S
C8180 C8183 1.499 . S
C8181 H8155 0.950 . S
C8181 C8180 1.414 . S
C8181 C8182 1.374 . S
C8182 H8156 0.950 . S
C8182 C8178 1.385 . S
C8182 C8181 1.374 . S
C8183 C8180 1.499 . S
C8183 C8184 1.373 . S
C8183 C8185 1.389 . S
C8184 H8157 0.950 . S
C8184 C8170 1.377 . S
C8184 C8183 1.373 . S
C8185 C8169 1.377 . S
C8185 C8183 1.389 . S
C8185 C8186 1.524 . S
C8186 C8185 1.524 . S
C8186 C8187 1.397 . S
C8186 C8191 1.363 . S
C8187 H8158 0.950 . S
C8187 C8186 1.397 . S
C8187 C8188 1.334 . S
C8188 H8159 0.950 . S
C8188 C8187 1.334 . S
C8188 C8189 1.287 . S
C8189 C8188 1.287 . S
C8189 C8190 1.524 . S
C8189 H8192 0.999 . S
C8190 H8160 0.950 . S
C8190 C8189 1.524 . S
C8190 C8191 1.415 . S
C8191 H8161 0.950 . S
C8191 C8186 1.363 . S
C8191 C8190 1.415 . S
H8192 C8189 0.999 . S
H8193 C8174 0.913 . S
H8194 C8212 0.951 . S
H8195 C8214 0.951 . S
H8196 C8216 0.950 . S
H8197 C8217 0.950 . S
H8198 C8219 0.950 . S
H8199 C8222 0.950 . S
H8200 C8223 0.950 . S
H8201 C8225 0.950 . S
H8202 C8226 0.950 . S
H8203 C8227 0.951 . S
H8204 C8229 0.951 . S
H8205 C8231 0.950 . S
H8206 C8232 0.950 . S
H8207 C8234 0.950 . S
H8208 C8237 0.950 . S
H8209 C8238 0.950 . S
H8210 C8240 0.950 . S
H8211 C8241 0.950 . S
C8212 H8194 0.951 . S
C8212 C8213 1.366 . S
C8212 C8214 1.388 . S
C8213 C8212 1.366 . S
C8213 C8217 1.385 . S
C8214 H8195 0.951 . S
C8214 C8212 1.388 . S
C8214 C8215 1.366 . S
C8215 C8214 1.366 . S
C8215 C8216 1.414 . S
C8215 C8218 1.499 . S
C8216 H8196 0.950 . S
C8216 C8215 1.414 . S
C8216 C8217 1.374 . S
C8217 H8197 0.950 . S
C8217 C8213 1.385 . S
C8217 C8216 1.374 . S
C8218 C8215 1.499 . S
C8218 C8219 1.373 . S
C8218 C8220 1.389 . S
C8219 H8198 0.950 . S
C8219 C8218 1.373 . S
C8219 C8235 1.377 . S
C8220 C8218 1.389 . S
C8220 C8221 1.524 . S
C8220 C8234 1.377 . S
C8221 C8220 1.524 . S
C8221 C8222 1.397 . S
C8221 C8226 1.363 . S
C8222 H8199 0.950 . S
C8222 C8221 1.397 . S
C8222 C8223 1.334 . S
C8223 H8200 0.950 . S
C8223 C8222 1.334 . S
C8223 C8224 1.287 . S
C8224 C8223 1.287 . S
C8224 C8225 1.524 . S
C8224 H8243 0.913 . S
C8225 H8201 0.950 . S
C8225 C8224 1.524 . S
C8225 C8226 1.415 . S
C8226 H8202 0.950 . S
C8226 C8221 1.363 . S
C8226 C8225 1.415 . S
C8227 H8203 0.951 . S
C8227 C8228 1.366 . S
C8227 C8229 1.388 . S
C8228 C8227 1.366 . S
C8228 C8232 1.385 . S
C8229 H8204 0.951 . S
C8229 C8227 1.388 . S
C8229 C8230 1.366 . S
C8230 C8229 1.366 . S
C8230 C8231 1.414 . S
C8230 C8233 1.499 . S
C8231 H8205 0.950 . S
C8231 C8230 1.414 . S
C8231 C8232 1.374 . S
C8232 H8206 0.950 . S
C8232 C8228 1.385 . S
C8232 C8231 1.374 . S
C8233 C8230 1.499 . S
C8233 C8234 1.373 . S
C8233 C8235 1.389 . S
C8234 H8207 0.950 . S
C8234 C8220 1.377 . S
C8234 C8233 1.373 . S
C8235 C8219 1.377 . S
C8235 C8233 1.389 . S
C8235 C8236 1.524 . S
C8236 C8235 1.524 . S
C8236 C8237 1.397 . S
C8236 C8241 1.363 . S
C8237 H8208 0.950 . S
C8237 C8236 1.397 . S
C8237 C8238 1.334 . S
C8238 H8209 0.950 . S
C8238 C8237 1.334 . S
C8238 C8239 1.287 . S
C8239 C8238 1.287 . S
C8239 C8240 1.524 . S
C8239 H8242 0.999 . S
C8240 H8210 0.950 . S
C8240 C8239 1.524 . S
C8240 C8241 1.415 . S
C8241 H8211 0.950 . S
C8241 C8236 1.363 . S
C8241 C8240 1.415 . S
H8242 C8239 0.999 . S
H8243 C8224 0.913 . S
H8244 C8262 0.951 . S
H8245 C8264 0.951 . S
H8246 C8266 0.950 . S
H8247 C8267 0.950 . S
H8248 C8269 0.950 . S
H8249 C8272 0.950 . S
H8250 C8273 0.950 . S
H8251 C8275 0.950 . S
H8252 C8276 0.950 . S
H8253 C8277 0.951 . S
H8254 C8279 0.951 . S
H8255 C8281 0.950 . S
H8256 C8282 0.950 . S
H8257 C8284 0.950 . S
H8258 C8287 0.950 . S
H8259 C8288 0.950 . S
H8260 C8290 0.950 . S
H8261 C8291 0.950 . S
C8262 H8244 0.951 . S
C8262 C8263 1.366 . S
C8262 C8264 1.388 . S
C8263 C8262 1.366 . S
C8263 C8267 1.385 . S
C8264 H8245 0.951 . S
C8264 C8262 1.388 . S
C8264 C8265 1.366 . S
C8265 C8264 1.366 . S
C8265 C8266 1.414 . S
C8265 C8268 1.499 . S
C8266 H8246 0.950 . S
C8266 C8265 1.414 . S
C8266 C8267 1.374 . S
C8267 H8247 0.950 . S
C8267 C8263 1.385 . S
C8267 C8266 1.374 . S
C8268 C8265 1.499 . S
C8268 C8269 1.373 . S
C8268 C8270 1.389 . S
C8269 H8248 0.950 . S
C8269 C8268 1.373 . S
C8269 C8285 1.377 . S
C8270 C8268 1.389 . S
C8270 C8271 1.524 . S
C8270 C8284 1.377 . S
C8271 C8270 1.524 . S
C8271 C8272 1.397 . S
C8271 C8276 1.363 . S
C8272 H8249 0.950 . S
C8272 C8271 1.397 . S
C8272 C8273 1.334 . S
C8273 H8250 0.950 . S
C8273 C8272 1.334 . S
C8273 C8274 1.287 . S
C8274 C8273 1.287 . S
C8274 C8275 1.524 . S
C8274 H8293 0.913 . S
C8275 H8251 0.950 . S
C8275 C8274 1.524 . S
C8275 C8276 1.415 . S
C8276 H8252 0.950 . S
C8276 C8271 1.363 . S
C8276 C8275 1.415 . S
C8277 H8253 0.951 . S
C8277 C8278 1.366 . S
C8277 C8279 1.388 . S
C8278 C8277 1.366 . S
C8278 C8282 1.385 . S
C8279 H8254 0.951 . S
C8279 C8277 1.388 . S
C8279 C8280 1.366 . S
C8280 C8279 1.366 . S
C8280 C8281 1.414 . S
C8280 C8283 1.499 . S
C8281 H8255 0.950 . S
C8281 C8280 1.414 . S
C8281 C8282 1.374 . S
C8282 H8256 0.950 . S
C8282 C8278 1.385 . S
C8282 C8281 1.374 . S
C8283 C8280 1.499 . S
C8283 C8284 1.373 . S
C8283 C8285 1.389 . S
C8284 H8257 0.950 . S
C8284 C8270 1.377 . S
C8284 C8283 1.373 . S
C8285 C8269 1.377 . S
C8285 C8283 1.389 . S
C8285 C8286 1.524 . S
C8286 C8285 1.524 . S
C8286 C8287 1.397 . S
C8286 C8291 1.363 . S
C8287 H8258 0.950 . S
C8287 C8286 1.397 . S
C8287 C8288 1.334 . S
C8288 H8259 0.950 . S
C8288 C8287 1.334 . S
C8288 C8289 1.287 . S
C8289 C8288 1.287 . S
C8289 C8290 1.524 . S
C8289 H8292 0.999 . S
C8290 H8260 0.950 . S
C8290 C8289 1.524 . S
C8290 C8291 1.415 . S
C8291 H8261 0.950 . S
C8291 C8286 1.363 . S
C8291 C8290 1.415 . S
H8292 C8289 0.999 . S
H8293 C8274 0.913 . S
H8294 C8312 0.951 . S
H8295 C8314 0.951 . S
H8296 C8316 0.950 . S
H8297 C8317 0.950 . S
H8298 C8319 0.950 . S
H8299 C8322 0.950 . S
H8300 C8323 0.950 . S
H8301 C8325 0.950 . S
H8302 C8326 0.950 . S
H8303 C8327 0.951 . S
H8304 C8329 0.951 . S
H8305 C8331 0.950 . S
H8306 C8332 0.950 . S
H8307 C8334 0.950 . S
H8308 C8337 0.950 . S
H8309 C8338 0.950 . S
H8310 C8340 0.950 . S
H8311 C8341 0.950 . S
C8312 H8294 0.951 . S
C8312 C8313 1.366 . S
C8312 C8314 1.388 . S
C8313 C8312 1.366 . S
C8313 C8317 1.385 . S
C8314 H8295 0.951 . S
C8314 C8312 1.388 . S
C8314 C8315 1.366 . S
C8315 C8314 1.366 . S
C8315 C8316 1.414 . S
C8315 C8318 1.499 . S
C8316 H8296 0.950 . S
C8316 C8315 1.414 . S
C8316 C8317 1.374 . S
C8317 H8297 0.950 . S
C8317 C8313 1.385 . S
C8317 C8316 1.374 . S
C8318 C8315 1.499 . S
C8318 C8319 1.373 . S
C8318 C8320 1.389 . S
C8319 H8298 0.950 . S
C8319 C8318 1.373 . S
C8319 C8335 1.377 . S
C8320 C8318 1.389 . S
C8320 C8321 1.524 . S
C8320 C8334 1.377 . S
C8321 C8320 1.524 . S
C8321 C8322 1.397 . S
C8321 C8326 1.363 . S
C8322 H8299 0.950 . S
C8322 C8321 1.397 . S
C8322 C8323 1.334 . S
C8323 H8300 0.950 . S
C8323 C8322 1.334 . S
C8323 C8324 1.287 . S
C8324 C8323 1.287 . S
C8324 C8325 1.524 . S
C8324 H8343 0.913 . S
C8325 H8301 0.950 . S
C8325 C8324 1.524 . S
C8325 C8326 1.415 . S
C8326 H8302 0.950 . S
C8326 C8321 1.363 . S
C8326 C8325 1.415 . S
C8327 H8303 0.951 . S
C8327 C8328 1.366 . S
C8327 C8329 1.388 . S
C8328 C8327 1.366 . S
C8328 C8332 1.385 . S
C8329 H8304 0.951 . S
C8329 C8327 1.388 . S
C8329 C8330 1.366 . S
C8330 C8329 1.366 . S
C8330 C8331 1.414 . S
C8330 C8333 1.499 . S
C8331 H8305 0.950 . S
C8331 C8330 1.414 . S
C8331 C8332 1.374 . S
C8332 H8306 0.950 . S
C8332 C8328 1.385 . S
C8332 C8331 1.374 . S
C8333 C8330 1.499 . S
C8333 C8334 1.373 . S
C8333 C8335 1.389 . S
C8334 H8307 0.950 . S
C8334 C8320 1.377 . S
C8334 C8333 1.373 . S
C8335 C8319 1.377 . S
C8335 C8333 1.389 . S
C8335 C8336 1.524 . S
C8336 C8335 1.524 . S
C8336 C8337 1.397 . S
C8336 C8341 1.363 . S
C8337 H8308 0.950 . S
C8337 C8336 1.397 . S
C8337 C8338 1.334 . S
C8338 H8309 0.950 . S
C8338 C8337 1.334 . S
C8338 C8339 1.287 . S
C8339 C8338 1.287 . S
C8339 C8340 1.524 . S
C8339 H8342 0.999 . S
C8340 H8310 0.950 . S
C8340 C8339 1.524 . S
C8340 C8341 1.415 . S
C8341 H8311 0.950 . S
C8341 C8336 1.363 . S
C8341 C8340 1.415 . S
H8342 C8339 0.999 . S
H8343 C8324 0.913 . S
H8344 C8362 0.951 . S
H8345 C8364 0.951 . S
H8346 C8366 0.950 . S
H8347 C8367 0.950 . S
H8348 C8369 0.950 . S
H8349 C8372 0.950 . S
H8350 C8373 0.950 . S
H8351 C8375 0.950 . S
H8352 C8376 0.950 . S
H8353 C8377 0.951 . S
H8354 C8379 0.951 . S
H8355 C8381 0.950 . S
H8356 C8382 0.950 . S
H8357 C8384 0.950 . S
H8358 C8387 0.950 . S
H8359 C8388 0.950 . S
H8360 C8390 0.950 . S
H8361 C8391 0.950 . S
C8362 H8344 0.951 . S
C8362 C8363 1.366 . S
C8362 C8364 1.388 . S
C8363 C8362 1.366 . S
C8363 C8367 1.385 . S
C8364 H8345 0.951 . S
C8364 C8362 1.388 . S
C8364 C8365 1.366 . S
C8365 C8364 1.366 . S
C8365 C8366 1.414 . S
C8365 C8368 1.499 . S
C8366 H8346 0.950 . S
C8366 C8365 1.414 . S
C8366 C8367 1.374 . S
C8367 H8347 0.950 . S
C8367 C8363 1.385 . S
C8367 C8366 1.374 . S
C8368 C8365 1.499 . S
C8368 C8369 1.373 . S
C8368 C8370 1.389 . S
C8369 H8348 0.950 . S
C8369 C8368 1.373 . S
C8369 C8385 1.377 . S
C8370 C8368 1.389 . S
C8370 C8371 1.524 . S
C8370 C8384 1.377 . S
C8371 C8370 1.524 . S
C8371 C8372 1.397 . S
C8371 C8376 1.363 . S
C8372 H8349 0.950 . S
C8372 C8371 1.397 . S
C8372 C8373 1.334 . S
C8373 H8350 0.950 . S
C8373 C8372 1.334 . S
C8373 C8374 1.287 . S
C8374 C8373 1.287 . S
C8374 C8375 1.524 . S
C8374 H8393 0.913 . S
C8375 H8351 0.950 . S
C8375 C8374 1.524 . S
C8375 C8376 1.415 . S
C8376 H8352 0.950 . S
C8376 C8371 1.363 . S
C8376 C8375 1.415 . S
C8377 H8353 0.951 . S
C8377 C8378 1.366 . S
C8377 C8379 1.388 . S
C8378 C8377 1.366 . S
C8378 C8382 1.385 . S
C8379 H8354 0.951 . S
C8379 C8377 1.388 . S
C8379 C8380 1.366 . S
C8380 C8379 1.366 . S
C8380 C8381 1.414 . S
C8380 C8383 1.499 . S
C8381 H8355 0.950 . S
C8381 C8380 1.414 . S
C8381 C8382 1.374 . S
C8382 H8356 0.950 . S
C8382 C8378 1.385 . S
C8382 C8381 1.374 . S
C8383 C8380 1.499 . S
C8383 C8384 1.373 . S
C8383 C8385 1.389 . S
C8384 H8357 0.950 . S
C8384 C8370 1.377 . S
C8384 C8383 1.373 . S
C8385 C8369 1.377 . S
C8385 C8383 1.389 . S
C8385 C8386 1.524 . S
C8386 C8385 1.524 . S
C8386 C8387 1.397 . S
C8386 C8391 1.363 . S
C8387 H8358 0.950 . S
C8387 C8386 1.397 . S
C8387 C8388 1.334 . S
C8388 H8359 0.950 . S
C8388 C8387 1.334 . S
C8388 C8389 1.287 . S
C8389 C8388 1.287 . S
C8389 C8390 1.524 . S
C8389 H8392 0.999 . S
C8390 H8360 0.950 . S
C8390 C8389 1.524 . S
C8390 C8391 1.415 . S
C8391 H8361 0.950 . S
C8391 C8386 1.363 . S
C8391 C8390 1.415 . S
H8392 C8389 0.999 . S
H8393 C8374 0.913 . S
H8394 C8412 0.951 . S
H8395 C8414 0.951 . S
H8396 C8416 0.950 . S
H8397 C8417 0.950 . S
H8398 C8419 0.950 . S
H8399 C8422 0.950 . S
H8400 C8423 0.950 . S
H8401 C8425 0.950 . S
H8402 C8426 0.950 . S
H8403 C8427 0.951 . S
H8404 C8429 0.951 . S
H8405 C8431 0.950 . S
H8406 C8432 0.950 . S
H8407 C8434 0.950 . S
H8408 C8437 0.950 . S
H8409 C8438 0.950 . S
H8410 C8440 0.950 . S
H8411 C8441 0.950 . S
C8412 H8394 0.951 . S
C8412 C8413 1.366 . S
C8412 C8414 1.388 . S
C8413 C8412 1.366 . S
C8413 C8417 1.385 . S
C8414 H8395 0.951 . S
C8414 C8412 1.388 . S
C8414 C8415 1.366 . S
C8415 C8414 1.366 . S
C8415 C8416 1.414 . S
C8415 C8418 1.499 . S
C8416 H8396 0.950 . S
C8416 C8415 1.414 . S
C8416 C8417 1.374 . S
C8417 H8397 0.950 . S
C8417 C8413 1.385 . S
C8417 C8416 1.374 . S
C8418 C8415 1.499 . S
C8418 C8419 1.373 . S
C8418 C8420 1.389 . S
C8419 H8398 0.950 . S
C8419 C8418 1.373 . S
C8419 C8435 1.377 . S
C8420 C8418 1.389 . S
C8420 C8421 1.524 . S
C8420 C8434 1.377 . S
C8421 C8420 1.524 . S
C8421 C8422 1.397 . S
C8421 C8426 1.363 . S
C8422 H8399 0.950 . S
C8422 C8421 1.397 . S
C8422 C8423 1.334 . S
C8423 H8400 0.950 . S
C8423 C8422 1.334 . S
C8423 C8424 1.287 . S
C8424 C8423 1.287 . S
C8424 C8425 1.524 . S
C8424 H8443 0.913 . S
C8425 H8401 0.950 . S
C8425 C8424 1.524 . S
C8425 C8426 1.415 . S
C8426 H8402 0.950 . S
C8426 C8421 1.363 . S
C8426 C8425 1.415 . S
C8427 H8403 0.951 . S
C8427 C8428 1.366 . S
C8427 C8429 1.388 . S
C8428 C8427 1.366 . S
C8428 C8432 1.385 . S
C8429 H8404 0.951 . S
C8429 C8427 1.388 . S
C8429 C8430 1.366 . S
C8430 C8429 1.366 . S
C8430 C8431 1.414 . S
C8430 C8433 1.499 . S
C8431 H8405 0.950 . S
C8431 C8430 1.414 . S
C8431 C8432 1.374 . S
C8432 H8406 0.950 . S
C8432 C8428 1.385 . S
C8432 C8431 1.374 . S
C8433 C8430 1.499 . S
C8433 C8434 1.373 . S
C8433 C8435 1.389 . S
C8434 H8407 0.950 . S
C8434 C8420 1.377 . S
C8434 C8433 1.373 . S
C8435 C8419 1.377 . S
C8435 C8433 1.389 . S
C8435 C8436 1.524 . S
C8436 C8435 1.524 . S
C8436 C8437 1.397 . S
C8436 C8441 1.363 . S
C8437 H8408 0.950 . S
C8437 C8436 1.397 . S
C8437 C8438 1.334 . S
C8438 H8409 0.950 . S
C8438 C8437 1.334 . S
C8438 C8439 1.287 . S
C8439 C8438 1.287 . S
C8439 C8440 1.524 . S
C8439 H8442 0.999 . S
C8440 H8410 0.950 . S
C8440 C8439 1.524 . S
C8440 C8441 1.415 . S
C8441 H8411 0.950 . S
C8441 C8436 1.363 . S
C8441 C8440 1.415 . S
H8442 C8439 0.999 . S
H8443 C8424 0.913 . S
H8444 C8462 0.951 . S
H8445 C8464 0.951 . S
H8446 C8466 0.950 . S
H8447 C8467 0.950 . S
H8448 C8469 0.950 . S
H8449 C8472 0.950 . S
H8450 C8473 0.950 . S
H8451 C8475 0.950 . S
H8452 C8476 0.950 . S
H8453 C8477 0.951 . S
H8454 C8479 0.951 . S
H8455 C8481 0.950 . S
H8456 C8482 0.950 . S
H8457 C8484 0.950 . S
H8458 C8487 0.950 . S
H8459 C8488 0.950 . S
H8460 C8490 0.950 . S
H8461 C8491 0.950 . S
C8462 H8444 0.951 . S
C8462 C8463 1.366 . S
C8462 C8464 1.388 . S
C8463 C8462 1.366 . S
C8463 C8467 1.385 . S
C8464 H8445 0.951 . S
C8464 C8462 1.388 . S
C8464 C8465 1.366 . S
C8465 C8464 1.366 . S
C8465 C8466 1.414 . S
C8465 C8468 1.499 . S
C8466 H8446 0.950 . S
C8466 C8465 1.414 . S
C8466 C8467 1.374 . S
C8467 H8447 0.950 . S
C8467 C8463 1.385 . S
C8467 C8466 1.374 . S
C8468 C8465 1.499 . S
C8468 C8469 1.373 . S
C8468 C8470 1.389 . S
C8469 H8448 0.950 . S
C8469 C8468 1.373 . S
C8469 C8485 1.377 . S
C8470 C8468 1.389 . S
C8470 C8471 1.524 . S
C8470 C8484 1.377 . S
C8471 C8470 1.524 . S
C8471 C8472 1.397 . S
C8471 C8476 1.363 . S
C8472 H8449 0.950 . S
C8472 C8471 1.397 . S
C8472 C8473 1.334 . S
C8473 H8450 0.950 . S
C8473 C8472 1.334 . S
C8473 C8474 1.287 . S
C8474 C8473 1.287 . S
C8474 C8475 1.524 . S
C8474 H8493 0.913 . S
C8475 H8451 0.950 . S
C8475 C8474 1.524 . S
C8475 C8476 1.415 . S
C8476 H8452 0.950 . S
C8476 C8471 1.363 . S
C8476 C8475 1.415 . S
C8477 H8453 0.951 . S
C8477 C8478 1.366 . S
C8477 C8479 1.388 . S
C8478 C8477 1.366 . S
C8478 C8482 1.385 . S
C8479 H8454 0.951 . S
C8479 C8477 1.388 . S
C8479 C8480 1.366 . S
C8480 C8479 1.366 . S
C8480 C8481 1.414 . S
C8480 C8483 1.499 . S
C8481 H8455 0.950 . S
C8481 C8480 1.414 . S
C8481 C8482 1.374 . S
C8482 H8456 0.950 . S
C8482 C8478 1.385 . S
C8482 C8481 1.374 . S
C8483 C8480 1.499 . S
C8483 C8484 1.373 . S
C8483 C8485 1.389 . S
C8484 H8457 0.950 . S
C8484 C8470 1.377 . S
C8484 C8483 1.373 . S
C8485 C8469 1.377 . S
C8485 C8483 1.389 . S
C8485 C8486 1.524 . S
C8486 C8485 1.524 . S
C8486 C8487 1.397 . S
C8486 C8491 1.363 . S
C8487 H8458 0.950 . S
C8487 C8486 1.397 . S
C8487 C8488 1.334 . S
C8488 H8459 0.950 . S
C8488 C8487 1.334 . S
C8488 C8489 1.287 . S
C8489 C8488 1.287 . S
C8489 C8490 1.524 . S
C8489 H8492 0.999 . S
C8490 H8460 0.950 . S
C8490 C8489 1.524 . S
C8490 C8491 1.415 . S
C8491 H8461 0.950 . S
C8491 C8486 1.363 . S
C8491 C8490 1.415 . S
H8492 C8489 0.999 . S
H8493 C8474 0.913 . S
H8494 C8512 0.951 . S
H8495 C8514 0.951 . S
H8496 C8516 0.950 . S
H8497 C8517 0.950 . S
H8498 C8519 0.950 . S
H8499 C8522 0.950 . S
H8500 C8523 0.950 . S
H8501 C8525 0.950 . S
H8502 C8526 0.950 . S
H8503 C8527 0.951 . S
H8504 C8529 0.951 . S
H8505 C8531 0.950 . S
H8506 C8532 0.950 . S
H8507 C8534 0.950 . S
H8508 C8537 0.950 . S
H8509 C8538 0.950 . S
H8510 C8540 0.950 . S
H8511 C8541 0.950 . S
C8512 H8494 0.951 . S
C8512 C8513 1.366 . S
C8512 C8514 1.388 . S
C8513 C8512 1.366 . S
C8513 C8517 1.385 . S
C8514 H8495 0.951 . S
C8514 C8512 1.388 . S
C8514 C8515 1.366 . S
C8515 C8514 1.366 . S
C8515 C8516 1.414 . S
C8515 C8518 1.499 . S
C8516 H8496 0.950 . S
C8516 C8515 1.414 . S
C8516 C8517 1.374 . S
C8517 H8497 0.950 . S
C8517 C8513 1.385 . S
C8517 C8516 1.374 . S
C8518 C8515 1.499 . S
C8518 C8519 1.373 . S
C8518 C8520 1.389 . S
C8519 H8498 0.950 . S
C8519 C8518 1.373 . S
C8519 C8535 1.377 . S
C8520 C8518 1.389 . S
C8520 C8521 1.524 . S
C8520 C8534 1.377 . S
C8521 C8520 1.524 . S
C8521 C8522 1.397 . S
C8521 C8526 1.363 . S
C8522 H8499 0.950 . S
C8522 C8521 1.397 . S
C8522 C8523 1.334 . S
C8523 H8500 0.950 . S
C8523 C8522 1.334 . S
C8523 C8524 1.287 . S
C8524 C8523 1.287 . S
C8524 C8525 1.524 . S
C8524 H8543 0.913 . S
C8525 H8501 0.950 . S
C8525 C8524 1.524 . S
C8525 C8526 1.415 . S
C8526 H8502 0.950 . S
C8526 C8521 1.363 . S
C8526 C8525 1.415 . S
C8527 H8503 0.951 . S
C8527 C8528 1.366 . S
C8527 C8529 1.388 . S
C8528 C8527 1.366 . S
C8528 C8532 1.385 . S
C8529 H8504 0.951 . S
C8529 C8527 1.388 . S
C8529 C8530 1.366 . S
C8530 C8529 1.366 . S
C8530 C8531 1.414 . S
C8530 C8533 1.499 . S
C8531 H8505 0.950 . S
C8531 C8530 1.414 . S
C8531 C8532 1.374 . S
C8532 H8506 0.950 . S
C8532 C8528 1.385 . S
C8532 C8531 1.374 . S
C8533 C8530 1.499 . S
C8533 C8534 1.373 . S
C8533 C8535 1.389 . S
C8534 H8507 0.950 . S
C8534 C8520 1.377 . S
C8534 C8533 1.373 . S
C8535 C8519 1.377 . S
C8535 C8533 1.389 . S
C8535 C8536 1.524 . S
C8536 C8535 1.524 . S
C8536 C8537 1.397 . S
C8536 C8541 1.363 . S
C8537 H8508 0.950 . S
C8537 C8536 1.397 . S
C8537 C8538 1.334 . S
C8538 H8509 0.950 . S
C8538 C8537 1.334 . S
C8538 C8539 1.287 . S
C8539 C8538 1.287 . S
C8539 C8540 1.524 . S
C8539 H8542 0.999 . S
C8540 H8510 0.950 . S
C8540 C8539 1.524 . S
C8540 C8541 1.415 . S
C8541 H8511 0.950 . S
C8541 C8536 1.363 . S
C8541 C8540 1.415 . S
H8542 C8539 0.999 . S
H8543 C8524 0.913 . S
H8544 C8562 0.951 . S
H8545 C8564 0.951 . S
H8546 C8566 0.950 . S
H8547 C8567 0.950 . S
H8548 C8569 0.950 . S
H8549 C8572 0.950 . S
H8550 C8573 0.950 . S
H8551 C8575 0.950 . S
H8552 C8576 0.899 1_455 S
H8553 C8577 0.951 . S
H8554 C8579 0.951 . S
H8555 C8581 0.950 . S
H8556 C8582 0.950 . S
H8557 C8584 0.950 . S
H8558 C8587 0.950 . S
H8559 C8588 0.950 . S
H8560 C8590 0.950 . S
H8561 C8591 0.899 1_655 S
C8562 H8544 0.951 . S
C8562 C8563 1.366 . S
C8562 C8564 1.388 . S
C8563 C8562 1.366 . S
C8563 C8567 1.385 . S
C8564 H8545 0.951 . S
C8564 C8562 1.388 . S
C8564 C8565 1.366 . S
C8565 C8564 1.366 . S
C8565 C8566 1.414 . S
C8565 C8568 1.499 . S
C8566 H8546 0.950 . S
C8566 C8565 1.414 . S
C8566 C8567 1.374 . S
C8567 H8547 0.950 . S
C8567 C8563 1.385 . S
C8567 C8566 1.374 . S
C8568 C8565 1.499 . S
C8568 C8569 1.373 . S
C8568 C8570 1.389 . S
C8569 H8548 0.950 . S
C8569 C8568 1.373 . S
C8569 C8585 1.377 1_655 S
C8570 C8568 1.389 . S
C8570 C8571 1.524 . S
C8570 C8584 1.377 1_655 S
C8571 C8570 1.524 . S
C8571 C8572 1.397 . S
C8571 C8576 1.363 . S
C8572 H8549 0.950 . S
C8572 C8571 1.397 . S
C8572 C8573 1.334 . S
C8573 H8550 0.950 . S
C8573 C8572 1.334 . S
C8573 C8574 1.287 . S
C8574 C8573 1.287 . S
C8574 C8575 1.524 . S
C8574 H8593 0.913 . S
C8575 H8551 0.950 . S
C8575 C8574 1.524 . S
C8575 C8576 1.415 . S
C8576 H8552 0.899 1_655 S
C8576 C8571 1.363 . S
C8576 C8575 1.415 . S
C8577 H8553 0.951 . S
C8577 C8578 1.366 . S
C8577 C8579 1.388 . S
C8578 C8577 1.366 . S
C8578 C8582 1.385 . S
C8579 H8554 0.951 . S
C8579 C8577 1.388 . S
C8579 C8580 1.366 . S
C8580 C8579 1.366 . S
C8580 C8581 1.414 . S
C8580 C8583 1.499 . S
C8581 H8555 0.950 . S
C8581 C8580 1.414 . S
C8581 C8582 1.374 . S
C8582 H8556 0.950 . S
C8582 C8578 1.385 . S
C8582 C8581 1.374 . S
C8583 C8580 1.499 . S
C8583 C8584 1.373 . S
C8583 C8585 1.389 . S
C8584 H8557 0.950 . S
C8584 C8570 1.377 1_455 S
C8584 C8583 1.373 . S
C8585 C8569 1.377 1_455 S
C8585 C8583 1.389 . S
C8585 C8586 1.524 . S
C8586 C8585 1.524 . S
C8586 C8587 1.397 . S
C8586 C8591 1.363 . S
C8587 H8558 0.950 . S
C8587 C8586 1.397 . S
C8587 C8588 1.334 . S
C8588 H8559 0.950 . S
C8588 C8587 1.334 . S
C8588 C8589 1.287 . S
C8589 C8588 1.287 . S
C8589 C8590 1.524 . S
C8589 H8592 0.999 . S
C8590 H8560 0.950 . S
C8590 C8589 1.524 . S
C8590 C8591 1.415 . S
C8591 H8561 0.899 1_455 S
C8591 C8586 1.363 . S
C8591 C8590 1.415 . S
H8592 C8589 0.999 . S
H8593 C8574 0.913 . S
H8594 C8612 0.951 . S
H8595 C8614 0.951 . S
H8596 C8616 0.950 . S
H8597 C8617 0.950 . S
H8598 C8619 0.950 . S
H8599 C8622 0.950 . S
H8600 C8623 0.950 . S
H8601 C8625 0.950 . S
H8602 C8626 0.950 . S
H8603 C8627 0.951 . S
H8604 C8629 0.951 . S
H8605 C8631 0.950 . S
H8606 C8632 0.950 . S
H8607 C8634 0.950 . S
H8608 C8637 0.950 . S
H8609 C8638 0.950 . S
H8610 C8640 0.950 . S
H8611 C8641 0.950 . S
C8612 H8594 0.951 . S
C8612 C8613 1.366 . S
C8612 C8614 1.388 . S
C8613 C8612 1.366 . S
C8613 C8617 1.385 . S
C8614 H8595 0.951 . S
C8614 C8612 1.388 . S
C8614 C8615 1.366 . S
C8615 C8614 1.366 . S
C8615 C8616 1.414 . S
C8615 C8618 1.499 . S
C8616 H8596 0.950 . S
C8616 C8615 1.414 . S
C8616 C8617 1.374 . S
C8617 H8597 0.950 . S
C8617 C8613 1.385 . S
C8617 C8616 1.374 . S
C8618 C8615 1.499 . S
C8618 C8619 1.373 . S
C8618 C8620 1.389 . S
C8619 H8598 0.950 . S
C8619 C8618 1.373 . S
C8619 C8635 1.377 . S
C8620 C8618 1.389 . S
C8620 C8621 1.524 . S
C8620 C8634 1.377 . S
C8621 C8620 1.524 . S
C8621 C8622 1.397 . S
C8621 C8626 1.363 . S
C8622 H8599 0.950 . S
C8622 C8621 1.397 . S
C8622 C8623 1.334 . S
C8623 H8600 0.950 . S
C8623 C8622 1.334 . S
C8623 C8624 1.287 . S
C8624 C8623 1.287 . S
C8624 C8625 1.524 . S
C8624 H8643 0.913 . S
C8625 H8601 0.950 . S
C8625 C8624 1.524 . S
C8625 C8626 1.415 . S
C8626 H8602 0.950 . S
C8626 C8621 1.363 . S
C8626 C8625 1.415 . S
C8627 H8603 0.951 . S
C8627 C8628 1.366 . S
C8627 C8629 1.388 . S
C8628 C8627 1.366 . S
C8628 C8632 1.385 . S
C8629 H8604 0.951 . S
C8629 C8627 1.388 . S
C8629 C8630 1.366 . S
C8630 C8629 1.366 . S
C8630 C8631 1.414 . S
C8630 C8633 1.499 . S
C8631 H8605 0.950 . S
C8631 C8630 1.414 . S
C8631 C8632 1.374 . S
C8632 H8606 0.950 . S
C8632 C8628 1.385 . S
C8632 C8631 1.374 . S
C8633 C8630 1.499 . S
C8633 C8634 1.373 . S
C8633 C8635 1.389 . S
C8634 H8607 0.950 . S
C8634 C8620 1.377 . S
C8634 C8633 1.373 . S
C8635 C8619 1.377 . S
C8635 C8633 1.389 . S
C8635 C8636 1.524 . S
C8636 C8635 1.524 . S
C8636 C8637 1.397 . S
C8636 C8641 1.363 . S
C8637 H8608 0.950 . S
C8637 C8636 1.397 . S
C8637 C8638 1.334 . S
C8638 H8609 0.950 . S
C8638 C8637 1.334 . S
C8638 C8639 1.287 . S
C8639 C8638 1.287 . S
C8639 C8640 1.524 . S
C8639 H8642 0.999 . S
C8640 H8610 0.950 . S
C8640 C8639 1.524 . S
C8640 C8641 1.415 . S
C8641 H8611 0.950 . S
C8641 C8636 1.363 . S
C8641 C8640 1.415 . S
H8642 C8639 0.999 . S
H8643 C8624 0.913 . S
H8644 C8662 0.951 . S
H8645 C8664 0.951 . S
H8646 C8666 0.950 . S
H8647 C8667 0.950 . S
H8648 C8669 0.950 . S
H8649 C8672 0.950 1_545 S
H8650 C8673 0.950 . S
H8651 C8675 0.950 . S
H8652 C8676 0.937 1_455 S
H8653 C8677 0.951 . S
H8654 C8679 0.951 . S
H8655 C8681 0.950 . S
H8656 C8682 0.950 . S
H8657 C8684 0.950 . S
H8658 C8687 0.950 1_565 S
H8659 C8688 0.950 . S
H8660 C8690 0.950 . S
H8661 C8691 0.937 1_655 S
C8662 H8644 0.951 . S
C8662 C8663 1.366 . S
C8662 C8664 1.388 . S
C8663 C8662 1.366 . S
C8663 C8667 1.385 1_565 S
C8664 H8645 0.951 . S
C8664 C8662 1.388 . S
C8664 C8665 1.366 . S
C8665 C8664 1.366 . S
C8665 C8666 1.414 1_565 S
C8665 C8668 1.518 . S
C8666 H8646 0.950 . S
C8666 C8665 1.414 1_545 S
C8666 C8667 1.374 . S
C8667 H8647 0.950 . S
C8667 C8663 1.385 1_545 S
C8667 C8666 1.374 . S
C8668 C8665 1.518 . S
C8668 C8669 1.322 1_565 S
C8668 C8670 1.437 . S
C8669 H8648 0.950 . S
C8669 C8668 1.322 1_545 S
C8669 C8685 1.377 1_655 S
C8670 C8668 1.437 . S
C8670 C8671 1.524 . S
C8670 C8684 1.377 1_655 S
C8671 C8670 1.524 . S
C8671 C8672 1.397 . S
C8671 C8676 1.363 . S
C8672 H8649 0.950 1_565 S
C8672 C8671 1.397 . S
C8672 C8673 1.334 . S
C8673 H8650 0.950 . S
C8673 C8672 1.334 . S
C8673 C8674 1.287 . S
C8674 C8673 1.287 . S
C8674 C8675 1.524 . S
C8674 H8693 0.913 . S
C8675 H8651 0.950 . S
C8675 C8674 1.524 . S
C8675 C8676 1.415 . S
C8676 H8652 0.937 1_655 S
C8676 C8671 1.363 . S
C8676 C8675 1.415 . S
C8677 H8653 0.951 . S
C8677 C8678 1.366 . S
C8677 C8679 1.388 . S
C8678 C8677 1.366 . S
C8678 C8682 1.385 1_545 S
C8679 H8654 0.951 . S
C8679 C8677 1.388 . S
C8679 C8680 1.366 . S
C8680 C8679 1.366 . S
C8680 C8681 1.414 1_545 S
C8680 C8683 1.518 . S
C8681 H8655 0.950 . S
C8681 C8680 1.414 1_565 S
C8681 C8682 1.374 . S
C8682 H8656 0.950 . S
C8682 C8678 1.385 1_565 S
C8682 C8681 1.374 . S
C8683 C8680 1.518 . S
C8683 C8684 1.322 1_545 S
C8683 C8685 1.437 . S
C8684 H8657 0.950 . S
C8684 C8670 1.377 1_455 S
C8684 C8683 1.322 1_565 S
C8685 C8669 1.377 1_455 S
C8685 C8683 1.437 . S
C8685 C8686 1.524 . S
C8686 C8685 1.524 . S
C8686 C8687 1.397 . S
C8686 C8691 1.363 . S
C8687 H8658 0.950 1_545 S
C8687 C8686 1.397 . S
C8687 C8688 1.334 . S
C8688 H8659 0.950 . S
C8688 C8687 1.334 . S
C8688 C8689 1.287 . S
C8689 C8688 1.287 . S
C8689 C8690 1.524 . S
C8689 H8692 0.999 . S
C8690 H8660 0.950 . S
C8690 C8689 1.524 . S
C8690 C8691 1.415 . S
C8691 H8661 0.937 1_455 S
C8691 C8686 1.363 . S
C8691 C8690 1.415 . S
H8692 C8689 0.999 . S
H8693 C8674 0.913 . S
H8694 C8712 0.951 . S
H8695 C8714 0.951 . S
H8696 C8716 0.950 . S
H8697 C8717 0.950 . S
H8698 C8719 0.950 . S
H8699 C8722 0.950 . S
H8700 C8723 0.950 . S
H8701 C8725 0.950 . S
H8702 C8726 0.950 . S
H8703 C8727 0.951 . S
H8704 C8729 0.951 . S
H8705 C8731 0.950 . S
H8706 C8732 0.950 . S
H8707 C8734 0.950 . S
H8708 C8737 0.950 . S
H8709 C8738 0.950 . S
H8710 C8740 0.950 . S
H8711 C8741 0.950 . S
C8712 H8694 0.951 . S
C8712 C8713 1.366 . S
C8712 C8714 1.388 . S
C8713 C8712 1.366 . S
C8713 C8717 1.385 . S
C8714 H8695 0.951 . S
C8714 C8712 1.388 . S
C8714 C8715 1.366 . S
C8715 C8714 1.366 . S
C8715 C8716 1.414 . S
C8715 C8718 1.499 . S
C8716 H8696 0.950 . S
C8716 C8715 1.414 . S
C8716 C8717 1.374 . S
C8717 H8697 0.950 . S
C8717 C8713 1.385 . S
C8717 C8716 1.374 . S
C8718 C8715 1.499 . S
C8718 C8719 1.373 . S
C8718 C8720 1.389 . S
C8719 H8698 0.950 . S
C8719 C8718 1.373 . S
C8719 C8735 1.377 . S
C8720 C8718 1.389 . S
C8720 C8721 1.524 . S
C8720 C8734 1.377 . S
C8721 C8720 1.524 . S
C8721 C8722 1.397 . S
C8721 C8726 1.363 . S
C8722 H8699 0.950 . S
C8722 C8721 1.397 . S
C8722 C8723 1.334 . S
C8723 H8700 0.950 . S
C8723 C8722 1.334 . S
C8723 C8724 1.287 . S
C8724 C8723 1.287 . S
C8724 C8725 1.524 . S
C8724 H8743 0.913 . S
C8725 H8701 0.950 . S
C8725 C8724 1.524 . S
C8725 C8726 1.415 . S
C8726 H8702 0.950 . S
C8726 C8721 1.363 . S
C8726 C8725 1.415 . S
C8727 H8703 0.951 . S
C8727 C8728 1.366 . S
C8727 C8729 1.388 . S
C8728 C8727 1.366 . S
C8728 C8732 1.385 . S
C8729 H8704 0.951 . S
C8729 C8727 1.388 . S
C8729 C8730 1.366 . S
C8730 C8729 1.366 . S
C8730 C8731 1.414 . S
C8730 C8733 1.499 . S
C8731 H8705 0.950 . S
C8731 C8730 1.414 . S
C8731 C8732 1.374 . S
C8732 H8706 0.950 . S
C8732 C8728 1.385 . S
C8732 C8731 1.374 . S
C8733 C8730 1.499 . S
C8733 C8734 1.373 . S
C8733 C8735 1.389 . S
C8734 H8707 0.950 . S
C8734 C8720 1.377 . S
C8734 C8733 1.373 . S
C8735 C8719 1.377 . S
C8735 C8733 1.389 . S
C8735 C8736 1.524 . S
C8736 C8735 1.524 . S
C8736 C8737 1.397 . S
C8736 C8741 1.363 . S
C8737 H8708 0.950 . S
C8737 C8736 1.397 . S
C8737 C8738 1.334 . S
C8738 H8709 0.950 . S
C8738 C8737 1.334 . S
C8738 C8739 1.287 . S
C8739 C8738 1.287 . S
C8739 C8740 1.524 . S
C8739 H8742 0.999 . S
C8740 H8710 0.950 . S
C8740 C8739 1.524 . S
C8740 C8741 1.415 . S
C8741 H8711 0.950 . S
C8741 C8736 1.363 . S
C8741 C8740 1.415 . S
H8742 C8739 0.999 . S
H8743 C8724 0.913 . S
H8744 C8762 0.951 . S
H8745 C8764 0.951 . S
H8746 C8766 0.950 . S
H8747 C8767 0.950 . S
H8748 C8769 0.950 . S
H8749 C8772 0.950 . S
H8750 C8773 0.950 . S
H8751 C8775 0.950 . S
H8752 C8776 0.950 . S
H8753 C8777 0.951 . S
H8754 C8779 0.951 . S
H8755 C8781 0.950 . S
H8756 C8782 0.950 . S
H8757 C8784 0.950 . S
H8758 C8787 0.950 . S
H8759 C8788 0.950 . S
H8760 C8790 0.950 . S
H8761 C8791 0.950 . S
C8762 H8744 0.951 . S
C8762 C8763 1.366 . S
C8762 C8764 1.388 . S
C8763 C8762 1.366 . S
C8763 C8767 1.385 . S
C8764 H8745 0.951 . S
C8764 C8762 1.388 . S
C8764 C8765 1.366 . S
C8765 C8764 1.366 . S
C8765 C8766 1.414 . S
C8765 C8768 1.499 . S
C8766 H8746 0.950 . S
C8766 C8765 1.414 . S
C8766 C8767 1.374 . S
C8767 H8747 0.950 . S
C8767 C8763 1.385 . S
C8767 C8766 1.374 . S
C8768 C8765 1.499 . S
C8768 C8769 1.373 . S
C8768 C8770 1.389 . S
C8769 H8748 0.950 . S
C8769 C8768 1.373 . S
C8769 C8785 1.377 1_455 S
C8770 C8768 1.389 . S
C8770 C8771 1.524 . S
C8770 C8784 1.377 1_455 S
C8771 C8770 1.524 . S
C8771 C8772 1.397 . S
C8771 C8776 1.363 . S
C8772 H8749 0.950 . S
C8772 C8771 1.397 . S
C8772 C8773 1.334 . S
C8773 H8750 0.950 . S
C8773 C8772 1.334 . S
C8773 C8774 1.287 . S
C8774 C8773 1.287 . S
C8774 C8775 1.524 . S
C8774 H8793 0.913 . S
C8775 H8751 0.950 . S
C8775 C8774 1.524 . S
C8775 C8776 1.415 . S
C8776 H8752 0.950 . S
C8776 C8771 1.363 . S
C8776 C8775 1.415 . S
C8777 H8753 0.951 . S
C8777 C8778 1.366 . S
C8777 C8779 1.388 . S
C8778 C8777 1.366 . S
C8778 C8782 1.385 . S
C8779 H8754 0.951 . S
C8779 C8777 1.388 . S
C8779 C8780 1.366 . S
C8780 C8779 1.366 . S
C8780 C8781 1.414 . S
C8780 C8783 1.499 . S
C8781 H8755 0.950 . S
C8781 C8780 1.414 . S
C8781 C8782 1.374 . S
C8782 H8756 0.950 . S
C8782 C8778 1.385 . S
C8782 C8781 1.374 . S
C8783 C8780 1.499 . S
C8783 C8784 1.373 . S
C8783 C8785 1.389 . S
C8784 H8757 0.950 . S
C8784 C8770 1.377 1_655 S
C8784 C8783 1.373 . S
C8785 C8769 1.377 1_655 S
C8785 C8783 1.389 . S
C8785 C8786 1.524 . S
C8786 C8785 1.524 . S
C8786 C8787 1.397 . S
C8786 C8791 1.363 . S
C8787 H8758 0.950 . S
C8787 C8786 1.397 . S
C8787 C8788 1.334 . S
C8788 H8759 0.950 . S
C8788 C8787 1.334 . S
C8788 C8789 1.287 . S
C8789 C8788 1.287 . S
C8789 C8790 1.524 . S
C8789 H8792 0.999 . S
C8790 H8760 0.950 . S
C8790 C8789 1.524 . S
C8790 C8791 1.415 . S
C8791 H8761 0.950 . S
C8791 C8786 1.363 . S
C8791 C8790 1.415 . S
H8792 C8789 0.999 . S
H8793 C8774 0.913 . S
H8794 C8812 0.951 . S
H8795 C8814 0.951 . S
H8796 C8816 0.950 . S
H8797 C8817 0.950 . S
H8798 C8819 0.950 . S
H8799 C8822 0.950 . S
H8800 C8823 0.950 . S
H8801 C8825 0.950 . S
H8802 C8826 0.950 . S
H8803 C8827 0.951 . S
H8804 C8829 0.951 . S
H8805 C8831 0.950 . S
H8806 C8832 0.950 . S
H8807 C8834 0.950 . S
H8808 C8837 0.950 . S
H8809 C8838 0.950 . S
H8810 C8840 0.950 . S
H8811 C8841 0.950 . S
C8812 H8794 0.951 . S
C8812 C8813 1.366 . S
C8812 C8814 1.388 . S
C8813 C8812 1.366 . S
C8813 C8817 1.385 . S
C8814 H8795 0.951 . S
C8814 C8812 1.388 . S
C8814 C8815 1.366 . S
C8815 C8814 1.366 . S
C8815 C8816 1.414 . S
C8815 C8818 1.499 . S
C8816 H8796 0.950 . S
C8816 C8815 1.414 . S
C8816 C8817 1.374 . S
C8817 H8797 0.950 . S
C8817 C8813 1.385 . S
C8817 C8816 1.374 . S
C8818 C8815 1.499 . S
C8818 C8819 1.373 . S
C8818 C8820 1.389 . S
C8819 H8798 0.950 . S
C8819 C8818 1.373 . S
C8819 C8835 1.377 . S
C8820 C8818 1.389 . S
C8820 C8821 1.524 . S
C8820 C8834 1.377 . S
C8821 C8820 1.524 . S
C8821 C8822 1.397 . S
C8821 C8826 1.363 . S
C8822 H8799 0.950 . S
C8822 C8821 1.397 . S
C8822 C8823 1.334 . S
C8823 H8800 0.950 . S
C8823 C8822 1.334 . S
C8823 C8824 1.287 . S
C8824 C8823 1.287 . S
C8824 C8825 1.524 . S
C8824 H8843 0.913 . S
C8825 H8801 0.950 . S
C8825 C8824 1.524 . S
C8825 C8826 1.415 . S
C8826 H8802 0.950 . S
C8826 C8821 1.363 . S
C8826 C8825 1.415 . S
C8827 H8803 0.951 . S
C8827 C8828 1.366 . S
C8827 C8829 1.388 . S
C8828 C8827 1.366 . S
C8828 C8832 1.385 . S
C8829 H8804 0.951 . S
C8829 C8827 1.388 . S
C8829 C8830 1.366 . S
C8830 C8829 1.366 . S
C8830 C8831 1.414 . S
C8830 C8833 1.499 . S
C8831 H8805 0.950 . S
C8831 C8830 1.414 . S
C8831 C8832 1.374 . S
C8832 H8806 0.950 . S
C8832 C8828 1.385 . S
C8832 C8831 1.374 . S
C8833 C8830 1.499 . S
C8833 C8834 1.373 . S
C8833 C8835 1.389 . S
C8834 H8807 0.950 . S
C8834 C8820 1.377 . S
C8834 C8833 1.373 . S
C8835 C8819 1.377 . S
C8835 C8833 1.389 . S
C8835 C8836 1.524 . S
C8836 C8835 1.524 . S
C8836 C8837 1.397 . S
C8836 C8841 1.363 . S
C8837 H8808 0.950 . S
C8837 C8836 1.397 . S
C8837 C8838 1.334 . S
C8838 H8809 0.950 . S
C8838 C8837 1.334 . S
C8838 C8839 1.287 . S
C8839 C8838 1.287 . S
C8839 C8840 1.524 . S
C8839 H8842 0.999 . S
C8840 H8810 0.950 . S
C8840 C8839 1.524 . S
C8840 C8841 1.415 . S
C8841 H8811 0.950 . S
C8841 C8836 1.363 . S
C8841 C8840 1.415 . S
H8842 C8839 0.999 . S
H8843 C8824 0.913 . S
H8844 C8862 0.951 . S
H8845 C8864 0.951 . S
H8846 C8866 0.950 . S
H8847 C8867 0.950 . S
H8848 C8869 0.950 . S
H8849 C8872 0.950 . S
H8850 C8873 0.950 . S
H8851 C8875 0.950 . S
H8852 C8876 0.902 1_455 S
H8853 C8877 0.951 . S
H8854 C8879 0.951 . S
H8855 C8881 0.950 . S
H8856 C8882 0.950 . S
H8857 C8884 0.950 . S
H8858 C8887 0.950 . S
H8859 C8888 0.950 . S
H8860 C8890 0.950 . S
H8861 C8891 0.902 1_655 S
C8862 H8844 0.951 . S
C8862 C8863 1.366 . S
C8862 C8864 1.388 . S
C8863 C8862 1.366 . S
C8863 C8867 1.385 1_545 S
C8864 H8845 0.951 . S
C8864 C8862 1.388 . S
C8864 C8865 1.366 . S
C8865 C8864 1.366 . S
C8865 C8866 1.414 1_545 S
C8865 C8868 1.499 . S
C8866 H8846 0.950 . S
C8866 C8865 1.414 1_565 S
C8866 C8867 1.374 . S
C8867 H8847 0.950 . S
C8867 C8863 1.385 1_565 S
C8867 C8866 1.374 . S
C8868 C8865 1.499 . S
C8868 C8869 1.373 1_545 S
C8868 C8870 1.389 . S
C8869 H8848 0.950 . S
C8869 C8868 1.373 1_565 S
C8869 C8885 1.377 1_655 S
C8870 C8868 1.389 . S
C8870 C8871 1.524 . S
C8870 C8884 1.377 1_655 S
C8871 C8870 1.524 . S
C8871 C8872 1.397 . S
C8871 C8876 1.363 . S
C8872 H8849 0.950 . S
C8872 C8871 1.397 . S
C8872 C8873 1.334 . S
C8873 H8850 0.950 . S
C8873 C8872 1.334 . S
C8873 C8874 1.287 . S
C8874 C8873 1.287 . S
C8874 C8875 1.524 . S
C8874 H8893 0.913 . S
C8875 H8851 0.950 . S
C8875 C8874 1.524 . S
C8875 C8876 1.415 . S
C8876 H8852 0.902 1_655 S
C8876 C8871 1.363 . S
C8876 C8875 1.415 . S
C8877 H8853 0.951 . S
C8877 C8878 1.366 . S
C8877 C8879 1.388 . S
C8878 C8877 1.366 . S
C8878 C8882 1.385 1_565 S
C8879 H8854 0.951 . S
C8879 C8877 1.388 . S
C8879 C8880 1.366 . S
C8880 C8879 1.366 . S
C8880 C8881 1.414 1_565 S
C8880 C8883 1.499 . S
C8881 H8855 0.950 . S
C8881 C8880 1.414 1_545 S
C8881 C8882 1.374 . S
C8882 H8856 0.950 . S
C8882 C8878 1.385 1_545 S
C8882 C8881 1.374 . S
C8883 C8880 1.499 . S
C8883 C8884 1.373 1_565 S
C8883 C8885 1.389 . S
C8884 H8857 0.950 . S
C8884 C8870 1.377 1_455 S
C8884 C8883 1.373 1_545 S
C8885 C8869 1.377 1_455 S
C8885 C8883 1.389 . S
C8885 C8886 1.524 . S
C8886 C8885 1.524 . S
C8886 C8887 1.397 . S
C8886 C8891 1.363 . S
C8887 H8858 0.950 . S
C8887 C8886 1.397 . S
C8887 C8888 1.334 . S
C8888 H8859 0.950 . S
C8888 C8887 1.334 . S
C8888 C8889 1.287 . S
C8889 C8888 1.287 . S
C8889 C8890 1.524 . S
C8889 H8892 0.999 . S
C8890 H8860 0.950 . S
C8890 C8889 1.524 . S
C8890 C8891 1.415 . S
C8891 H8861 0.902 1_455 S
C8891 C8886 1.363 . S
C8891 C8890 1.415 . S
H8892 C8889 0.999 . S
H8893 C8874 0.913 . S
H8894 C8912 0.951 . S
H8895 C8914 0.951 . S
H8896 C8916 0.950 . S
H8897 C8917 0.950 . S
H8898 C8919 0.950 . S
H8899 C8922 0.950 . S
H8900 C8923 0.950 . S
H8901 C8925 0.950 . S
H8902 C8926 0.950 . S
H8903 C8927 0.951 . S
H8904 C8929 0.951 . S
H8905 C8931 0.950 . S
H8906 C8932 0.950 . S
H8907 C8934 0.950 . S
H8908 C8937 0.950 . S
H8909 C8938 0.950 . S
H8910 C8940 0.950 . S
H8911 C8941 0.950 . S
C8912 H8894 0.951 . S
C8912 C8913 1.366 . S
C8912 C8914 1.388 . S
C8913 C8912 1.366 . S
C8913 C8917 1.385 . S
C8914 H8895 0.951 . S
C8914 C8912 1.388 . S
C8914 C8915 1.366 . S
C8915 C8914 1.366 . S
C8915 C8916 1.414 . S
C8915 C8918 1.499 . S
C8916 H8896 0.950 . S
C8916 C8915 1.414 . S
C8916 C8917 1.374 . S
C8917 H8897 0.950 . S
C8917 C8913 1.385 . S
C8917 C8916 1.374 . S
C8918 C8915 1.499 . S
C8918 C8919 1.373 . S
C8918 C8920 1.389 . S
C8919 H8898 0.950 . S
C8919 C8918 1.373 . S
C8919 C8935 1.377 . S
C8920 C8918 1.389 . S
C8920 C8921 1.524 . S
C8920 C8934 1.377 . S
C8921 C8920 1.524 . S
C8921 C8922 1.397 . S
C8921 C8926 1.363 . S
C8922 H8899 0.950 . S
C8922 C8921 1.397 . S
C8922 C8923 1.334 . S
C8923 H8900 0.950 . S
C8923 C8922 1.334 . S
C8923 C8924 1.287 . S
C8924 C8923 1.287 . S
C8924 C8925 1.524 . S
C8924 H8943 0.913 . S
C8925 H8901 0.950 . S
C8925 C8924 1.524 . S
C8925 C8926 1.415 . S
C8926 H8902 0.950 . S
C8926 C8921 1.363 . S
C8926 C8925 1.415 . S
C8927 H8903 0.951 . S
C8927 C8928 1.366 . S
C8927 C8929 1.388 . S
C8928 C8927 1.366 . S
C8928 C8932 1.385 . S
C8929 H8904 0.951 . S
C8929 C8927 1.388 . S
C8929 C8930 1.366 . S
C8930 C8929 1.366 . S
C8930 C8931 1.414 . S
C8930 C8933 1.499 . S
C8931 H8905 0.950 . S
C8931 C8930 1.414 . S
C8931 C8932 1.374 . S
C8932 H8906 0.950 . S
C8932 C8928 1.385 . S
C8932 C8931 1.374 . S
C8933 C8930 1.499 . S
C8933 C8934 1.373 . S
C8933 C8935 1.389 . S
C8934 H8907 0.950 . S
C8934 C8920 1.377 . S
C8934 C8933 1.373 . S
C8935 C8919 1.377 . S
C8935 C8933 1.389 . S
C8935 C8936 1.524 . S
C8936 C8935 1.524 . S
C8936 C8937 1.397 . S
C8936 C8941 1.363 . S
C8937 H8908 0.950 . S
C8937 C8936 1.397 . S
C8937 C8938 1.334 . S
C8938 H8909 0.950 . S
C8938 C8937 1.334 . S
C8938 C8939 1.287 . S
C8939 C8938 1.287 . S
C8939 C8940 1.524 . S
C8939 H8942 0.999 . S
C8940 H8910 0.950 . S
C8940 C8939 1.524 . S
C8940 C8941 1.415 . S
C8941 H8911 0.950 . S
C8941 C8936 1.363 . S
C8941 C8940 1.415 . S
H8942 C8939 0.999 . S
H8943 C8924 0.913 . S
H8944 C8962 0.951 . S
H8945 C8964 0.951 . S
H8946 C8966 0.950 . S
H8947 C8967 0.950 . S
H8948 C8969 0.950 . S
H8949 C8972 0.950 . S
H8950 C8973 0.950 . S
H8951 C8975 0.950 . S
H8952 C8976 0.950 . S
H8953 C8977 0.951 . S
H8954 C8979 0.951 . S
H8955 C8981 0.950 . S
H8956 C8982 0.950 . S
H8957 C8984 0.950 . S
H8958 C8987 0.950 . S
H8959 C8988 0.950 . S
H8960 C8990 0.950 . S
H8961 C8991 0.950 . S
C8962 H8944 0.951 . S
C8962 C8963 1.366 . S
C8962 C8964 1.388 . S
C8963 C8962 1.366 . S
C8963 C8967 1.385 . S
C8964 H8945 0.951 . S
C8964 C8962 1.388 . S
C8964 C8965 1.366 . S
C8965 C8964 1.366 . S
C8965 C8966 1.414 . S
C8965 C8968 1.499 . S
C8966 H8946 0.950 . S
C8966 C8965 1.414 . S
C8966 C8967 1.374 . S
C8967 H8947 0.950 . S
C8967 C8963 1.385 . S
C8967 C8966 1.374 . S
C8968 C8965 1.499 . S
C8968 C8969 1.373 . S
C8968 C8970 1.389 . S
C8969 H8948 0.950 . S
C8969 C8968 1.373 . S
C8969 C8985 1.377 1_545 S
C8970 C8968 1.389 . S
C8970 C8971 1.524 . S
C8970 C8984 1.377 1_545 S
C8971 C8970 1.524 . S
C8971 C8972 1.397 . S
C8971 C8976 1.363 . S
C8972 H8949 0.950 . S
C8972 C8971 1.397 . S
C8972 C8973 1.334 . S
C8973 H8950 0.950 . S
C8973 C8972 1.334 . S
C8973 C8974 1.287 . S
C8974 C8973 1.287 . S
C8974 C8975 1.524 . S
C8974 H8993 0.913 . S
C8975 H8951 0.950 . S
C8975 C8974 1.524 . S
C8975 C8976 1.415 . S
C8976 H8952 0.950 . S
C8976 C8971 1.363 . S
C8976 C8975 1.415 . S
C8977 H8953 0.951 . S
C8977 C8978 1.366 . S
C8977 C8979 1.388 . S
C8978 C8977 1.366 . S
C8978 C8982 1.385 . S
C8979 H8954 0.951 . S
C8979 C8977 1.388 . S
C8979 C8980 1.366 . S
C8980 C8979 1.366 . S
C8980 C8981 1.414 . S
C8980 C8983 1.499 . S
C8981 H8955 0.950 . S
C8981 C8980 1.414 . S
C8981 C8982 1.374 . S
C8982 H8956 0.950 . S
C8982 C8978 1.385 . S
C8982 C8981 1.374 . S
C8983 C8980 1.499 . S
C8983 C8984 1.373 . S
C8983 C8985 1.389 . S
C8984 H8957 0.950 . S
C8984 C8970 1.377 1_565 S
C8984 C8983 1.373 . S
C8985 C8969 1.377 1_565 S
C8985 C8983 1.389 . S
C8985 C8986 1.524 . S
C8986 C8985 1.524 . S
C8986 C8987 1.397 . S
C8986 C8991 1.363 . S
C8987 H8958 0.950 . S
C8987 C8986 1.397 . S
C8987 C8988 1.334 . S
C8988 H8959 0.950 . S
C8988 C8987 1.334 . S
C8988 C8989 1.287 . S
C8989 C8988 1.287 . S
C8989 C8990 1.524 . S
C8989 H8992 0.999 . S
C8990 H8960 0.950 . S
C8990 C8989 1.524 . S
C8990 C8991 1.415 . S
C8991 H8961 0.950 . S
C8991 C8986 1.363 . S
C8991 C8990 1.415 . S
H8992 C8989 0.999 . S
H8993 C8974 0.913 . S
H8994 C9012 0.951 . S
H8995 C9014 0.951 . S
H8996 C9016 0.950 . S
H8997 C9017 0.950 . S
H8998 C9019 0.950 . S
H8999 C9022 0.950 . S
H9000 C9023 0.950 . S
H9001 C9025 0.950 . S
H9002 C9026 0.950 . S
H9003 C9027 0.951 . S
H9004 C9029 0.951 . S
H9005 C9031 0.950 . S
H9006 C9032 0.950 . S
H9007 C9034 0.950 . S
H9008 C9037 0.950 . S
H9009 C9038 0.950 . S
H9010 C9040 0.950 . S
H9011 C9041 0.950 . S
C9012 H8994 0.951 . S
C9012 C9013 1.366 . S
C9012 C9014 1.388 . S
C9013 C9012 1.366 . S
C9013 C9017 1.385 . S
C9014 H8995 0.951 . S
C9014 C9012 1.388 . S
C9014 C9015 1.366 . S
C9015 C9014 1.366 . S
C9015 C9016 1.414 . S
C9015 C9018 1.499 . S
C9016 H8996 0.950 . S
C9016 C9015 1.414 . S
C9016 C9017 1.374 . S
C9017 H8997 0.950 . S
C9017 C9013 1.385 . S
C9017 C9016 1.374 . S
C9018 C9015 1.499 . S
C9018 C9019 1.373 . S
C9018 C9020 1.389 . S
C9019 H8998 0.950 . S
C9019 C9018 1.373 . S
C9019 C9035 1.377 . S
C9020 C9018 1.389 . S
C9020 C9021 1.524 . S
C9020 C9034 1.377 . S
C9021 C9020 1.524 . S
C9021 C9022 1.397 . S
C9021 C9026 1.363 . S
C9022 H8999 0.950 . S
C9022 C9021 1.397 . S
C9022 C9023 1.334 . S
C9023 H9000 0.950 . S
C9023 C9022 1.334 . S
C9023 C9024 1.287 . S
C9024 C9023 1.287 . S
C9024 C9025 1.524 . S
C9024 H9043 0.913 . S
C9025 H9001 0.950 . S
C9025 C9024 1.524 . S
C9025 C9026 1.415 . S
C9026 H9002 0.950 . S
C9026 C9021 1.363 . S
C9026 C9025 1.415 . S
C9027 H9003 0.951 . S
C9027 C9028 1.366 . S
C9027 C9029 1.388 . S
C9028 C9027 1.366 . S
C9028 C9032 1.385 . S
C9029 H9004 0.951 . S
C9029 C9027 1.388 . S
C9029 C9030 1.366 . S
C9030 C9029 1.366 . S
C9030 C9031 1.414 . S
C9030 C9033 1.499 . S
C9031 H9005 0.950 . S
C9031 C9030 1.414 . S
C9031 C9032 1.374 . S
C9032 H9006 0.950 . S
C9032 C9028 1.385 . S
C9032 C9031 1.374 . S
C9033 C9030 1.499 . S
C9033 C9034 1.373 . S
C9033 C9035 1.389 . S
C9034 H9007 0.950 . S
C9034 C9020 1.377 . S
C9034 C9033 1.373 . S
C9035 C9019 1.377 . S
C9035 C9033 1.389 . S
C9035 C9036 1.524 . S
C9036 C9035 1.524 . S
C9036 C9037 1.397 . S
C9036 C9041 1.363 . S
C9037 H9008 0.950 . S
C9037 C9036 1.397 . S
C9037 C9038 1.334 . S
C9038 H9009 0.950 . S
C9038 C9037 1.334 . S
C9038 C9039 1.287 . S
C9039 C9038 1.287 . S
C9039 C9040 1.524 . S
C9039 H9042 0.999 . S
C9040 H9010 0.950 . S
C9040 C9039 1.524 . S
C9040 C9041 1.415 . S
C9041 H9011 0.950 . S
C9041 C9036 1.363 . S
C9041 C9040 1.415 . S
H9042 C9039 0.999 . S
H9043 C9024 0.913 . S
H9044 C9062 0.951 . S
H9045 C9064 0.951 . S
H9046 C9066 0.950 . S
H9047 C9067 0.950 . S
H9048 C9069 0.950 . S
H9049 C9072 0.950 . S
H9050 C9073 0.950 . S
H9051 C9075 0.950 . S
H9052 C9076 0.950 . S
H9053 C9077 0.951 . S
H9054 C9079 0.951 . S
H9055 C9081 0.950 . S
H9056 C9082 0.950 . S
H9057 C9084 0.950 . S
H9058 C9087 0.950 . S
H9059 C9088 0.950 . S
H9060 C9090 0.950 . S
H9061 C9091 0.950 . S
C9062 H9044 0.951 . S
C9062 C9063 1.366 1_556 S
C9062 C9064 1.388 . S
C9063 C9062 1.366 1_554 S
C9063 C9067 1.385 . S
C9064 H9045 0.951 . S
C9064 C9062 1.388 . S
C9064 C9065 1.366 1_556 S
C9065 C9064 1.366 1_554 S
C9065 C9066 1.414 . S
C9065 C9068 1.499 . S
C9066 H9046 0.950 . S
C9066 C9065 1.414 . S
C9066 C9067 1.374 . S
C9067 H9047 0.950 . S
C9067 C9063 1.385 . S
C9067 C9066 1.374 . S
C9068 C9065 1.499 . S
C9068 C9069 1.373 . S
C9068 C9070 1.402 . S
C9069 H9048 0.950 . S
C9069 C9068 1.373 . S
C9069 C9085 1.363 1_554 S
C9070 C9068 1.402 . S
C9070 C9071 1.538 . S
C9070 C9084 1.363 1_554 S
C9071 C9070 1.538 . S
C9071 C9072 1.397 . S
C9071 C9076 1.363 1_554 S
C9072 H9049 0.950 . S
C9072 C9071 1.397 . S
C9072 C9073 1.334 . S
C9073 H9050 0.950 . S
C9073 C9072 1.334 . S
C9073 C9074 1.287 . S
C9074 C9073 1.287 . S
C9074 C9075 1.524 1_554 S
C9074 H9093 0.913 . S
C9075 H9051 0.950 . S
C9075 C9074 1.524 1_556 S
C9075 C9076 1.415 . S
C9076 H9052 0.950 . S
C9076 C9071 1.363 1_556 S
C9076 C9075 1.415 . S
C9077 H9053 0.951 . S
C9077 C9078 1.366 1_554 S
C9077 C9079 1.388 . S
C9078 C9077 1.366 1_556 S
C9078 C9082 1.385 . S
C9079 H9054 0.951 . S
C9079 C9077 1.388 . S
C9079 C9080 1.366 1_554 S
C9080 C9079 1.366 1_556 S
C9080 C9081 1.414 . S
C9080 C9083 1.499 . S
C9081 H9055 0.950 . S
C9081 C9080 1.414 . S
C9081 C9082 1.374 . S
C9082 H9056 0.950 . S
C9082 C9078 1.385 . S
C9082 C9081 1.374 . S
C9083 C9080 1.499 . S
C9083 C9084 1.373 . S
C9083 C9085 1.402 . S
C9084 H9057 0.950 . S
C9084 C9070 1.363 1_556 S
C9084 C9083 1.373 . S
C9085 C9069 1.363 1_556 S
C9085 C9083 1.402 . S
C9085 C9086 1.538 . S
C9086 C9085 1.538 . S
C9086 C9087 1.397 . S
C9086 C9091 1.363 1_556 S
C9087 H9058 0.950 . S
C9087 C9086 1.397 . S
C9087 C9088 1.334 . S
C9088 H9059 0.950 . S
C9088 C9087 1.334 . S
C9088 C9089 1.287 . S
C9089 C9088 1.287 . S
C9089 C9090 1.524 1_556 S
C9089 H9092 0.999 . S
C9090 H9060 0.950 . S
C9090 C9089 1.524 1_554 S
C9090 C9091 1.415 . S
C9091 H9061 0.950 . S
C9091 C9086 1.363 1_554 S
C9091 C9090 1.415 . S
H9092 C9089 0.999 . S
H9093 C9074 0.913 . S
H9094 C9112 0.951 . S
H9095 C9114 0.951 . S
H9096 C9116 0.950 . S
H9097 C9117 0.950 . S
H9098 C9119 0.950 . S
H9099 C9122 0.950 . S
H9100 C9123 0.950 . S
H9101 C9125 0.950 . S
H9102 C9126 0.950 . S
H9103 C9127 0.951 . S
H9104 C9129 0.951 . S
H9105 C9131 0.950 . S
H9106 C9132 0.950 . S
H9107 C9134 0.950 . S
H9108 C9137 0.950 . S
H9109 C9138 0.950 . S
H9110 C9140 0.950 . S
H9111 C9141 0.950 . S
C9112 H9094 0.951 . S
C9112 C9113 1.366 . S
C9112 C9114 1.388 . S
C9113 C9112 1.366 . S
C9113 C9117 1.385 . S
C9114 H9095 0.951 . S
C9114 C9112 1.388 . S
C9114 C9115 1.366 . S
C9115 C9114 1.366 . S
C9115 C9116 1.414 . S
C9115 C9118 1.499 . S
C9116 H9096 0.950 . S
C9116 C9115 1.414 . S
C9116 C9117 1.374 . S
C9117 H9097 0.950 . S
C9117 C9113 1.385 . S
C9117 C9116 1.374 . S
C9118 C9115 1.499 . S
C9118 C9119 1.373 . S
C9118 C9120 1.389 . S
C9119 H9098 0.950 . S
C9119 C9118 1.373 . S
C9119 C9135 1.377 . S
C9120 C9118 1.389 . S
C9120 C9121 1.524 . S
C9120 C9134 1.377 . S
C9121 C9120 1.524 . S
C9121 C9122 1.397 . S
C9121 C9126 1.363 . S
C9122 H9099 0.950 . S
C9122 C9121 1.397 . S
C9122 C9123 1.334 . S
C9123 H9100 0.950 . S
C9123 C9122 1.334 . S
C9123 C9124 1.287 . S
C9124 C9123 1.287 . S
C9124 C9125 1.524 . S
C9124 H9143 0.913 . S
C9125 H9101 0.950 . S
C9125 C9124 1.524 . S
C9125 C9126 1.415 . S
C9126 H9102 0.950 . S
C9126 C9121 1.363 . S
C9126 C9125 1.415 . S
C9127 H9103 0.951 . S
C9127 C9128 1.366 . S
C9127 C9129 1.388 . S
C9128 C9127 1.366 . S
C9128 C9132 1.385 . S
C9129 H9104 0.951 . S
C9129 C9127 1.388 . S
C9129 C9130 1.366 . S
C9130 C9129 1.366 . S
C9130 C9131 1.414 . S
C9130 C9133 1.499 . S
C9131 H9105 0.950 . S
C9131 C9130 1.414 . S
C9131 C9132 1.374 . S
C9132 H9106 0.950 . S
C9132 C9128 1.385 . S
C9132 C9131 1.374 . S
C9133 C9130 1.499 . S
C9133 C9134 1.373 . S
C9133 C9135 1.389 . S
C9134 H9107 0.950 . S
C9134 C9120 1.377 . S
C9134 C9133 1.373 . S
C9135 C9119 1.377 . S
C9135 C9133 1.389 . S
C9135 C9136 1.524 . S
C9136 C9135 1.524 . S
C9136 C9137 1.397 . S
C9136 C9141 1.363 . S
C9137 H9108 0.950 . S
C9137 C9136 1.397 . S
C9137 C9138 1.334 . S
C9138 H9109 0.950 . S
C9138 C9137 1.334 . S
C9138 C9139 1.287 . S
C9139 C9138 1.287 . S
C9139 C9140 1.524 . S
C9139 H9142 0.999 . S
C9140 H9110 0.950 . S
C9140 C9139 1.524 . S
C9140 C9141 1.415 . S
C9141 H9111 0.950 . S
C9141 C9136 1.363 . S
C9141 C9140 1.415 . S
H9142 C9139 0.999 . S
H9143 C9124 0.913 . S
H9144 C9162 0.951 . S
H9145 C9164 0.951 . S
H9146 C9166 0.950 . S
H9147 C9167 0.950 . S
H9148 C9169 0.950 . S
H9149 C9172 0.950 . S
H9150 C9173 0.950 . S
H9151 C9175 0.950 . S
H9152 C9176 0.950 . S
H9153 C9177 0.951 . S
H9154 C9179 0.951 . S
H9155 C9181 0.950 . S
H9156 C9182 0.950 . S
H9157 C9184 0.950 . S
H9158 C9187 0.950 . S
H9159 C9188 0.950 . S
H9160 C9190 0.950 . S
H9161 C9191 0.950 . S
C9162 H9144 0.951 . S
C9162 C9163 1.366 . S
C9162 C9164 1.388 . S
C9163 C9162 1.366 . S
C9163 C9167 1.385 . S
C9164 H9145 0.951 . S
C9164 C9162 1.388 . S
C9164 C9165 1.366 . S
C9165 C9164 1.366 . S
C9165 C9166 1.414 . S
C9165 C9168 1.499 . S
C9166 H9146 0.950 . S
C9166 C9165 1.414 . S
C9166 C9167 1.374 . S
C9167 H9147 0.950 . S
C9167 C9163 1.385 . S
C9167 C9166 1.374 . S
C9168 C9165 1.499 . S
C9168 C9169 1.373 . S
C9168 C9170 1.389 . S
C9169 H9148 0.950 . S
C9169 C9168 1.373 . S
C9169 C9185 1.377 1_554 S
C9170 C9168 1.389 . S
C9170 C9171 1.524 . S
C9170 C9184 1.377 1_554 S
C9171 C9170 1.524 . S
C9171 C9172 1.397 . S
C9171 C9176 1.363 . S
C9172 H9149 0.950 . S
C9172 C9171 1.397 . S
C9172 C9173 1.334 . S
C9173 H9150 0.950 . S
C9173 C9172 1.334 . S
C9173 C9174 1.287 . S
C9174 C9173 1.287 . S
C9174 C9175 1.524 . S
C9174 H9193 0.913 . S
C9175 H9151 0.950 . S
C9175 C9174 1.524 . S
C9175 C9176 1.415 . S
C9176 H9152 0.950 . S
C9176 C9171 1.363 . S
C9176 C9175 1.415 . S
C9177 H9153 0.951 . S
C9177 C9178 1.366 . S
C9177 C9179 1.388 . S
C9178 C9177 1.366 . S
C9178 C9182 1.385 . S
C9179 H9154 0.951 . S
C9179 C9177 1.388 . S
C9179 C9180 1.366 . S
C9180 C9179 1.366 . S
C9180 C9181 1.414 . S
C9180 C9183 1.499 . S
C9181 H9155 0.950 . S
C9181 C9180 1.414 . S
C9181 C9182 1.374 . S
C9182 H9156 0.950 . S
C9182 C9178 1.385 . S
C9182 C9181 1.374 . S
C9183 C9180 1.499 . S
C9183 C9184 1.373 . S
C9183 C9185 1.389 . S
C9184 H9157 0.950 . S
C9184 C9170 1.377 1_556 S
C9184 C9183 1.373 . S
C9185 C9169 1.377 1_556 S
C9185 C9183 1.389 . S
C9185 C9186 1.524 . S
C9186 C9185 1.524 . S
C9186 C9187 1.397 . S
C9186 C9191 1.363 . S
C9187 H9158 0.950 . S
C9187 C9186 1.397 . S
C9187 C9188 1.334 . S
C9188 H9159 0.950 . S
C9188 C9187 1.334 . S
C9188 C9189 1.287 . S
C9189 C9188 1.287 . S
C9189 C9190 1.524 . S
C9189 H9192 0.999 . S
C9190 H9160 0.950 . S
C9190 C9189 1.524 . S
C9190 C9191 1.415 . S
C9191 H9161 0.950 . S
C9191 C9186 1.363 . S
C9191 C9190 1.415 . S
H9192 C9189 0.999 . S
H9193 C9174 0.913 . S
H9194 C9212 0.951 . S
H9195 C9214 0.951 . S
H9196 C9216 0.950 . S
H9197 C9217 0.985 . S
H9198 C9219 0.950 . S
H9199 C9222 0.950 . S
H9200 C9223 0.950 . S
H9201 C9225 0.950 . S
H9202 C9226 0.950 1_655 S
H9203 C9227 0.951 . S
H9204 C9229 0.951 . S
H9205 C9231 0.950 . S
H9206 C9232 0.985 . S
H9207 C9234 0.950 . S
H9208 C9237 0.950 . S
H9209 C9238 0.950 . S
H9210 C9240 0.950 . S
H9211 C9241 0.950 1_455 S
C9212 H9194 0.951 . S
C9212 C9213 1.366 . S
C9212 C9214 1.388 . S
C9213 C9212 1.366 . S
C9213 C9217 1.343 1_655 S
C9214 H9195 0.951 . S
C9214 C9212 1.388 . S
C9214 C9215 1.366 . S
C9215 C9214 1.366 . S
C9215 C9216 1.414 1_655 S
C9215 C9218 1.510 . S
C9216 H9196 0.950 . S
C9216 C9215 1.414 1_455 S
C9216 C9217 1.386 . S
C9217 H9197 0.985 . S
C9217 C9213 1.343 1_455 S
C9217 C9216 1.386 . S
C9218 C9215 1.510 . S
C9218 C9219 1.387 . S
C9218 C9220 1.374 1_655 S
C9219 H9198 0.950 . S
C9219 C9218 1.387 . S
C9219 C9235 1.377 . S
C9220 C9218 1.374 1_455 S
C9220 C9221 1.524 . S
C9220 C9234 1.377 . S
C9221 C9220 1.524 . S
C9221 C9222 1.397 . S
C9221 C9226 1.363 . S
C9222 H9199 0.950 . S
C9222 C9221 1.397 . S
C9222 C9223 1.334 . S
C9223 H9200 0.950 . S
C9223 C9222 1.334 . S
C9223 C9224 1.287 . S
C9224 C9223 1.287 . S
C9224 C9225 1.524 . S
C9224 H9243 0.913 . S
C9225 H9201 0.950 . S
C9225 C9224 1.524 . S
C9225 C9226 1.415 . S
C9226 H9202 0.950 1_455 S
C9226 C9221 1.363 . S
C9226 C9225 1.415 . S
C9227 H9203 0.951 . S
C9227 C9228 1.366 . S
C9227 C9229 1.388 . S
C9228 C9227 1.366 . S
C9228 C9232 1.343 1_455 S
C9229 H9204 0.951 . S
C9229 C9227 1.388 . S
C9229 C9230 1.366 . S
C9230 C9229 1.366 . S
C9230 C9231 1.414 1_455 S
C9230 C9233 1.510 . S
C9231 H9205 0.950 . S
C9231 C9230 1.414 1_655 S
C9231 C9232 1.386 . S
C9232 H9206 0.985 . S
C9232 C9228 1.343 1_655 S
C9232 C9231 1.386 . S
C9233 C9230 1.510 . S
C9233 C9234 1.387 . S
C9233 C9235 1.374 1_455 S
C9234 H9207 0.950 . S
C9234 C9220 1.377 . S
C9234 C9233 1.387 . S
C9235 C9219 1.377 . S
C9235 C9233 1.374 1_655 S
C9235 C9236 1.524 . S
C9236 C9235 1.524 . S
C9236 C9237 1.397 . S
C9236 C9241 1.363 . S
C9237 H9208 0.950 . S
C9237 C9236 1.397 . S
C9237 C9238 1.334 . S
C9238 H9209 0.950 . S
C9238 C9237 1.334 . S
C9238 C9239 1.287 . S
C9239 C9238 1.287 . S
C9239 C9240 1.524 . S
C9239 H9242 0.999 . S
C9240 H9210 0.950 . S
C9240 C9239 1.524 . S
C9240 C9241 1.415 . S
C9241 H9211 0.950 1_655 S
C9241 C9236 1.363 . S
C9241 C9240 1.415 . S
H9242 C9239 0.999 . S
H9243 C9224 0.913 . S
H9244 C9262 0.951 . S
H9245 C9264 0.951 . S
H9246 C9266 0.950 . S
H9247 C9267 0.950 . S
H9248 C9269 0.950 . S
H9249 C9272 0.950 . S
H9250 C9273 0.950 . S
H9251 C9275 0.950 . S
H9252 C9276 0.950 . S
H9253 C9277 0.951 . S
H9254 C9279 0.951 . S
H9255 C9281 0.950 . S
H9256 C9282 0.950 . S
H9257 C9284 0.950 . S
H9258 C9287 0.950 . S
H9259 C9288 0.950 . S
H9260 C9290 0.950 . S
H9261 C9291 0.950 . S
C9262 H9244 0.951 . S
C9262 C9263 1.366 . S
C9262 C9264 1.388 . S
C9263 C9262 1.366 . S
C9263 C9267 1.385 . S
C9264 H9245 0.951 . S
C9264 C9262 1.388 . S
C9264 C9265 1.366 . S
C9265 C9264 1.366 . S
C9265 C9266 1.414 . S
C9265 C9268 1.499 . S
C9266 H9246 0.950 . S
C9266 C9265 1.414 . S
C9266 C9267 1.374 . S
C9267 H9247 0.950 . S
C9267 C9263 1.385 . S
C9267 C9266 1.374 . S
C9268 C9265 1.499 . S
C9268 C9269 1.373 . S
C9268 C9270 1.389 . S
C9269 H9248 0.950 . S
C9269 C9268 1.373 . S
C9269 C9285 1.377 . S
C9270 C9268 1.389 . S
C9270 C9271 1.524 . S
C9270 C9284 1.377 . S
C9271 C9270 1.524 . S
C9271 C9272 1.397 . S
C9271 C9276 1.363 . S
C9272 H9249 0.950 . S
C9272 C9271 1.397 . S
C9272 C9273 1.334 . S
C9273 H9250 0.950 . S
C9273 C9272 1.334 . S
C9273 C9274 1.287 . S
C9274 C9273 1.287 . S
C9274 C9275 1.524 . S
C9274 H9293 0.913 . S
C9275 H9251 0.950 . S
C9275 C9274 1.524 . S
C9275 C9276 1.415 . S
C9276 H9252 0.950 . S
C9276 C9271 1.363 . S
C9276 C9275 1.415 . S
C9277 H9253 0.951 . S
C9277 C9278 1.366 . S
C9277 C9279 1.388 . S
C9278 C9277 1.366 . S
C9278 C9282 1.385 . S
C9279 H9254 0.951 . S
C9279 C9277 1.388 . S
C9279 C9280 1.366 . S
C9280 C9279 1.366 . S
C9280 C9281 1.414 . S
C9280 C9283 1.499 . S
C9281 H9255 0.950 . S
C9281 C9280 1.414 . S
C9281 C9282 1.374 . S
C9282 H9256 0.950 . S
C9282 C9278 1.385 . S
C9282 C9281 1.374 . S
C9283 C9280 1.499 . S
C9283 C9284 1.373 . S
C9283 C9285 1.389 . S
C9284 H9257 0.950 . S
C9284 C9270 1.377 . S
C9284 C9283 1.373 . S
C9285 C9269 1.377 . S
C9285 C9283 1.389 . S
C9285 C9286 1.524 . S
C9286 C9285 1.524 . S
C9286 C9287 1.397 . S
C9286 C9291 1.363 . S
C9287 H9258 0.950 . S
C9287 C9286 1.397 . S
C9287 C9288 1.334 . S
C9288 H9259 0.950 . S
C9288 C9287 1.334 . S
C9288 C9289 1.287 . S
C9289 C9288 1.287 . S
C9289 C9290 1.524 . S
C9289 H9292 0.999 . S
C9290 H9260 0.950 . S
C9290 C9289 1.524 . S
C9290 C9291 1.415 . S
C9291 H9261 0.950 . S
C9291 C9286 1.363 . S
C9291 C9290 1.415 . S
H9292 C9289 0.999 . S
H9293 C9274 0.913 . S
H9294 C9312 0.951 . S
H9295 C9314 0.951 . S
H9296 C9316 0.950 . S
H9297 C9317 0.950 . S
H9298 C9319 0.950 . S
H9299 C9322 0.950 . S
H9300 C9323 0.950 . S
H9301 C9325 0.950 . S
H9302 C9326 0.903 1_556 S
H9303 C9327 0.951 . S
H9304 C9329 0.951 . S
H9305 C9331 0.950 . S
H9306 C9332 0.950 . S
H9307 C9334 0.950 . S
H9308 C9337 0.950 . S
H9309 C9338 0.950 . S
H9310 C9340 0.950 . S
H9311 C9341 0.903 1_554 S
C9312 H9294 0.951 . S
C9312 C9313 1.366 . S
C9312 C9314 1.388 . S
C9313 C9312 1.366 . S
C9313 C9317 1.385 1_455 S
C9314 H9295 0.951 . S
C9314 C9312 1.388 . S
C9314 C9315 1.366 . S
C9315 C9314 1.366 . S
C9315 C9316 1.414 1_455 S
C9315 C9318 1.499 . S
C9316 H9296 0.950 . S
C9316 C9315 1.414 1_655 S
C9316 C9317 1.374 . S
C9317 H9297 0.950 . S
C9317 C9313 1.385 1_655 S
C9317 C9316 1.374 . S
C9318 C9315 1.499 . S
C9318 C9319 1.373 1_455 S
C9318 C9320 1.389 . S
C9319 H9298 0.950 . S
C9319 C9318 1.373 1_655 S
C9319 C9335 1.377 1_554 S
C9320 C9318 1.389 . S
C9320 C9321 1.524 . S
C9320 C9334 1.377 1_554 S
C9321 C9320 1.524 . S
C9321 C9322 1.397 . S
C9321 C9326 1.363 . S
C9322 H9299 0.950 . S
C9322 C9321 1.397 . S
C9322 C9323 1.334 . S
C9323 H9300 0.950 . S
C9323 C9322 1.334 . S
C9323 C9324 1.287 . S
C9324 C9323 1.287 . S
C9324 C9325 1.524 . S
C9324 H9343 0.913 . S
C9325 H9301 0.950 . S
C9325 C9324 1.524 . S
C9325 C9326 1.415 . S
C9326 H9302 0.903 1_554 S
C9326 C9321 1.363 . S
C9326 C9325 1.415 . S
C9327 H9303 0.951 . S
C9327 C9328 1.366 . S
C9327 C9329 1.388 . S
C9328 C9327 1.366 . S
C9328 C9332 1.385 1_655 S
C9329 H9304 0.951 . S
C9329 C9327 1.388 . S
C9329 C9330 1.366 . S
C9330 C9329 1.366 . S
C9330 C9331 1.414 1_655 S
C9330 C9333 1.499 . S
C9331 H9305 0.950 . S
C9331 C9330 1.414 1_455 S
C9331 C9332 1.374 . S
C9332 H9306 0.950 . S
C9332 C9328 1.385 1_455 S
C9332 C9331 1.374 . S
C9333 C9330 1.499 . S
C9333 C9334 1.373 1_655 S
C9333 C9335 1.389 . S
C9334 H9307 0.950 . S
C9334 C9320 1.377 1_556 S
C9334 C9333 1.373 1_455 S
C9335 C9319 1.377 1_556 S
C9335 C9333 1.389 . S
C9335 C9336 1.524 . S
C9336 C9335 1.524 . S
C9336 C9337 1.397 . S
C9336 C9341 1.363 . S
C9337 H9308 0.950 . S
C9337 C9336 1.397 . S
C9337 C9338 1.334 . S
C9338 H9309 0.950 . S
C9338 C9337 1.334 . S
C9338 C9339 1.287 . S
C9339 C9338 1.287 . S
C9339 C9340 1.524 . S
C9339 H9342 0.999 . S
C9340 H9310 0.950 . S
C9340 C9339 1.524 . S
C9340 C9341 1.415 . S
C9341 H9311 0.903 1_556 S
C9341 C9336 1.363 . S
C9341 C9340 1.415 . S
H9342 C9339 0.999 . S
H9343 C9324 0.913 . S
H9344 C9362 0.951 . S
H9345 C9364 0.951 . S
H9346 C9366 0.950 . S
H9347 C9367 0.950 . S
H9348 C9369 0.950 . S
H9349 C9372 0.950 . S
H9350 C9373 0.950 . S
H9351 C9375 0.950 . S
H9352 C9376 0.950 . S
H9353 C9377 0.951 . S
H9354 C9379 0.951 . S
H9355 C9381 0.950 . S
H9356 C9382 0.950 . S
H9357 C9384 0.950 . S
H9358 C9387 0.950 . S
H9359 C9388 0.950 . S
H9360 C9390 0.950 . S
H9361 C9391 0.950 . S
C9362 H9344 0.951 . S
C9362 C9363 1.366 . S
C9362 C9364 1.388 . S
C9363 C9362 1.366 . S
C9363 C9367 1.385 . S
C9364 H9345 0.951 . S
C9364 C9362 1.388 . S
C9364 C9365 1.366 . S
C9365 C9364 1.366 . S
C9365 C9366 1.414 . S
C9365 C9368 1.499 . S
C9366 H9346 0.950 . S
C9366 C9365 1.414 . S
C9366 C9367 1.374 . S
C9367 H9347 0.950 . S
C9367 C9363 1.385 . S
C9367 C9366 1.374 . S
C9368 C9365 1.499 . S
C9368 C9369 1.373 . S
C9368 C9370 1.389 . S
C9369 H9348 0.950 . S
C9369 C9368 1.373 . S
C9369 C9385 1.377 . S
C9370 C9368 1.389 . S
C9370 C9371 1.524 . S
C9370 C9384 1.377 . S
C9371 C9370 1.524 . S
C9371 C9372 1.397 . S
C9371 C9376 1.363 . S
C9372 H9349 0.950 . S
C9372 C9371 1.397 . S
C9372 C9373 1.334 . S
C9373 H9350 0.950 . S
C9373 C9372 1.334 . S
C9373 C9374 1.287 . S
C9374 C9373 1.287 . S
C9374 C9375 1.524 . S
C9374 H9393 0.913 . S
C9375 H9351 0.950 . S
C9375 C9374 1.524 . S
C9375 C9376 1.415 . S
C9376 H9352 0.950 . S
C9376 C9371 1.363 . S
C9376 C9375 1.415 . S
C9377 H9353 0.951 . S
C9377 C9378 1.366 . S
C9377 C9379 1.388 . S
C9378 C9377 1.366 . S
C9378 C9382 1.385 . S
C9379 H9354 0.951 . S
C9379 C9377 1.388 . S
C9379 C9380 1.366 . S
C9380 C9379 1.366 . S
C9380 C9381 1.414 . S
C9380 C9383 1.499 . S
C9381 H9355 0.950 . S
C9381 C9380 1.414 . S
C9381 C9382 1.374 . S
C9382 H9356 0.950 . S
C9382 C9378 1.385 . S
C9382 C9381 1.374 . S
C9383 C9380 1.499 . S
C9383 C9384 1.373 . S
C9383 C9385 1.389 . S
C9384 H9357 0.950 . S
C9384 C9370 1.377 . S
C9384 C9383 1.373 . S
C9385 C9369 1.377 . S
C9385 C9383 1.389 . S
C9385 C9386 1.524 . S
C9386 C9385 1.524 . S
C9386 C9387 1.397 . S
C9386 C9391 1.363 . S
C9387 H9358 0.950 . S
C9387 C9386 1.397 . S
C9387 C9388 1.334 . S
C9388 H9359 0.950 . S
C9388 C9387 1.334 . S
C9388 C9389 1.287 . S
C9389 C9388 1.287 . S
C9389 C9390 1.524 . S
C9389 H9392 0.999 . S
C9390 H9360 0.950 . S
C9390 C9389 1.524 . S
C9390 C9391 1.415 . S
C9391 H9361 0.950 . S
C9391 C9386 1.363 . S
C9391 C9390 1.415 . S
H9392 C9389 0.999 . S
H9393 C9374 0.913 . S
H9394 C9412 0.951 . S
H9395 C9414 0.951 . S
H9396 C9416 0.950 . S
H9397 C9417 0.950 . S
H9398 C9419 0.950 . S
H9399 C9422 0.950 . S
H9400 C9423 0.950 . S
H9401 C9425 0.950 . S
H9402 C9426 0.950 . S
H9403 C9427 0.951 . S
H9404 C9429 0.951 . S
H9405 C9431 0.950 . S
H9406 C9432 0.950 . S
H9407 C9434 0.950 . S
H9408 C9437 0.950 . S
H9409 C9438 0.950 . S
H9410 C9440 0.950 . S
H9411 C9441 0.950 . S
C9412 H9394 0.951 . S
C9412 C9413 1.366 . S
C9412 C9414 1.388 . S
C9413 C9412 1.366 . S
C9413 C9417 1.385 . S
C9414 H9395 0.951 . S
C9414 C9412 1.388 . S
C9414 C9415 1.366 . S
C9415 C9414 1.366 . S
C9415 C9416 1.414 . S
C9415 C9418 1.499 . S
C9416 H9396 0.950 . S
C9416 C9415 1.414 . S
C9416 C9417 1.374 . S
C9417 H9397 0.950 . S
C9417 C9413 1.385 . S
C9417 C9416 1.374 . S
C9418 C9415 1.499 . S
C9418 C9419 1.373 . S
C9418 C9420 1.389 . S
C9419 H9398 0.950 . S
C9419 C9418 1.373 . S
C9419 C9435 1.377 1_554 S
C9420 C9418 1.389 . S
C9420 C9421 1.524 . S
C9420 C9434 1.377 1_554 S
C9421 C9420 1.524 . S
C9421 C9422 1.397 . S
C9421 C9426 1.363 . S
C9422 H9399 0.950 . S
C9422 C9421 1.397 . S
C9422 C9423 1.334 . S
C9423 H9400 0.950 . S
C9423 C9422 1.334 . S
C9423 C9424 1.287 . S
C9424 C9423 1.287 . S
C9424 C9425 1.524 . S
C9424 H9443 0.913 . S
C9425 H9401 0.950 . S
C9425 C9424 1.524 . S
C9425 C9426 1.415 . S
C9426 H9402 0.950 . S
C9426 C9421 1.363 . S
C9426 C9425 1.415 . S
C9427 H9403 0.951 . S
C9427 C9428 1.366 . S
C9427 C9429 1.388 . S
C9428 C9427 1.366 . S
C9428 C9432 1.385 . S
C9429 H9404 0.951 . S
C9429 C9427 1.388 . S
C9429 C9430 1.366 . S
C9430 C9429 1.366 . S
C9430 C9431 1.414 . S
C9430 C9433 1.499 . S
C9431 H9405 0.950 . S
C9431 C9430 1.414 . S
C9431 C9432 1.374 . S
C9432 H9406 0.950 . S
C9432 C9428 1.385 . S
C9432 C9431 1.374 . S
C9433 C9430 1.499 . S
C9433 C9434 1.373 . S
C9433 C9435 1.389 . S
C9434 H9407 0.950 . S
C9434 C9420 1.377 1_556 S
C9434 C9433 1.373 . S
C9435 C9419 1.377 1_556 S
C9435 C9433 1.389 . S
C9435 C9436 1.524 . S
C9436 C9435 1.524 . S
C9436 C9437 1.397 . S
C9436 C9441 1.363 . S
C9437 H9408 0.950 . S
C9437 C9436 1.397 . S
C9437 C9438 1.334 . S
C9438 H9409 0.950 . S
C9438 C9437 1.334 . S
C9438 C9439 1.287 . S
C9439 C9438 1.287 . S
C9439 C9440 1.524 . S
C9439 H9442 0.999 . S
C9440 H9410 0.950 . S
C9440 C9439 1.524 . S
C9440 C9441 1.415 . S
C9441 H9411 0.950 . S
C9441 C9436 1.363 . S
C9441 C9440 1.415 . S
H9442 C9439 0.999 . S
H9443 C9424 0.913 . S
H9444 C9462 0.951 . S
H9445 C9464 0.951 . S
H9446 C9466 0.950 . S
H9447 C9467 0.950 . S
H9448 C9469 0.950 . S
H9449 C9472 0.950 . S
H9450 C9473 0.950 . S
H9451 C9475 0.950 . S
H9452 C9476 0.950 . S
H9453 C9477 0.951 . S
H9454 C9479 0.951 . S
H9455 C9481 0.950 . S
H9456 C9482 0.950 . S
H9457 C9484 0.950 . S
H9458 C9487 0.950 . S
H9459 C9488 0.950 . S
H9460 C9490 0.950 . S
H9461 C9491 0.950 . S
C9462 H9444 0.951 . S
C9462 C9463 1.366 . S
C9462 C9464 1.388 . S
C9463 C9462 1.366 . S
C9463 C9467 1.385 . S
C9464 H9445 0.951 . S
C9464 C9462 1.388 . S
C9464 C9465 1.366 . S
C9465 C9464 1.366 . S
C9465 C9466 1.414 . S
C9465 C9468 1.499 . S
C9466 H9446 0.950 . S
C9466 C9465 1.414 . S
C9466 C9467 1.374 . S
C9467 H9447 0.950 . S
C9467 C9463 1.385 . S
C9467 C9466 1.374 . S
C9468 C9465 1.499 . S
C9468 C9469 1.373 . S
C9468 C9470 1.389 . S
C9469 H9448 0.950 . S
C9469 C9468 1.373 . S
C9469 C9485 1.377 . S
C9470 C9468 1.389 . S
C9470 C9471 1.524 . S
C9470 C9484 1.377 . S
C9471 C9470 1.524 . S
C9471 C9472 1.397 . S
C9471 C9476 1.363 . S
C9472 H9449 0.950 . S
C9472 C9471 1.397 . S
C9472 C9473 1.334 . S
C9473 H9450 0.950 . S
C9473 C9472 1.334 . S
C9473 C9474 1.287 . S
C9474 C9473 1.287 . S
C9474 C9475 1.524 . S
C9474 H9493 0.913 . S
C9475 H9451 0.950 . S
C9475 C9474 1.524 . S
C9475 C9476 1.415 . S
C9476 H9452 0.950 . S
C9476 C9471 1.363 . S
C9476 C9475 1.415 . S
C9477 H9453 0.951 . S
C9477 C9478 1.366 . S
C9477 C9479 1.388 . S
C9478 C9477 1.366 . S
C9478 C9482 1.385 . S
C9479 H9454 0.951 . S
C9479 C9477 1.388 . S
C9479 C9480 1.366 . S
C9480 C9479 1.366 . S
C9480 C9481 1.414 . S
C9480 C9483 1.499 . S
C9481 H9455 0.950 . S
C9481 C9480 1.414 . S
C9481 C9482 1.374 . S
C9482 H9456 0.950 . S
C9482 C9478 1.385 . S
C9482 C9481 1.374 . S
C9483 C9480 1.499 . S
C9483 C9484 1.373 . S
C9483 C9485 1.389 . S
C9484 H9457 0.950 . S
C9484 C9470 1.377 . S
C9484 C9483 1.373 . S
C9485 C9469 1.377 . S
C9485 C9483 1.389 . S
C9485 C9486 1.524 . S
C9486 C9485 1.524 . S
C9486 C9487 1.397 . S
C9486 C9491 1.363 . S
C9487 H9458 0.950 . S
C9487 C9486 1.397 . S
C9487 C9488 1.334 . S
C9488 H9459 0.950 . S
C9488 C9487 1.334 . S
C9488 C9489 1.287 . S
C9489 C9488 1.287 . S
C9489 C9490 1.524 . S
C9489 H9492 0.999 . S
C9490 H9460 0.950 . S
C9490 C9489 1.524 . S
C9490 C9491 1.415 . S
C9491 H9461 0.950 . S
C9491 C9486 1.363 . S
C9491 C9490 1.415 . S
H9492 C9489 0.999 . S
H9493 C9474 0.913 . S
H9494 C9512 0.951 . S
H9495 C9514 0.951 . S
H9496 C9516 0.950 . S
H9497 C9517 0.950 . S
H9498 C9519 0.950 . S
H9499 C9522 0.950 . S
H9500 C9523 0.950 . S
H9501 C9525 0.950 . S
H9502 C9526 0.950 . S
H9503 C9527 0.951 . S
H9504 C9529 0.951 . S
H9505 C9531 0.950 . S
H9506 C9532 0.950 . S
H9507 C9534 0.950 . S
H9508 C9537 0.950 . S
H9509 C9538 0.950 . S
H9510 C9540 0.950 . S
H9511 C9541 0.950 . S
C9512 H9494 0.951 . S
C9512 C9513 1.366 . S
C9512 C9514 1.388 . S
C9513 C9512 1.366 . S
C9513 C9517 1.385 . S
C9514 H9495 0.951 . S
C9514 C9512 1.388 . S
C9514 C9515 1.366 . S
C9515 C9514 1.366 . S
C9515 C9516 1.414 . S
C9515 C9518 1.499 . S
C9516 H9496 0.950 . S
C9516 C9515 1.414 . S
C9516 C9517 1.374 . S
C9517 H9497 0.950 . S
C9517 C9513 1.385 . S
C9517 C9516 1.374 . S
C9518 C9515 1.499 . S
C9518 C9519 1.373 . S
C9518 C9520 1.389 . S
C9519 H9498 0.950 . S
C9519 C9518 1.373 . S
C9519 C9535 1.377 . S
C9520 C9518 1.389 . S
C9520 C9521 1.524 . S
C9520 C9534 1.377 . S
C9521 C9520 1.524 . S
C9521 C9522 1.397 . S
C9521 C9526 1.363 . S
C9522 H9499 0.950 . S
C9522 C9521 1.397 . S
C9522 C9523 1.334 . S
C9523 H9500 0.950 . S
C9523 C9522 1.334 . S
C9523 C9524 1.287 . S
C9524 C9523 1.287 . S
C9524 C9525 1.524 . S
C9524 H9543 0.913 . S
C9525 H9501 0.950 . S
C9525 C9524 1.524 . S
C9525 C9526 1.415 . S
C9526 H9502 0.950 . S
C9526 C9521 1.363 . S
C9526 C9525 1.415 . S
C9527 H9503 0.951 . S
C9527 C9528 1.366 . S
C9527 C9529 1.388 . S
C9528 C9527 1.366 . S
C9528 C9532 1.385 . S
C9529 H9504 0.951 . S
C9529 C9527 1.388 . S
C9529 C9530 1.366 . S
C9530 C9529 1.366 . S
C9530 C9531 1.414 . S
C9530 C9533 1.499 . S
C9531 H9505 0.950 . S
C9531 C9530 1.414 . S
C9531 C9532 1.374 . S
C9532 H9506 0.950 . S
C9532 C9528 1.385 . S
C9532 C9531 1.374 . S
C9533 C9530 1.499 . S
C9533 C9534 1.373 . S
C9533 C9535 1.389 . S
C9534 H9507 0.950 . S
C9534 C9520 1.377 . S
C9534 C9533 1.373 . S
C9535 C9519 1.377 . S
C9535 C9533 1.389 . S
C9535 C9536 1.524 . S
C9536 C9535 1.524 . S
C9536 C9537 1.397 . S
C9536 C9541 1.363 . S
C9537 H9508 0.950 . S
C9537 C9536 1.397 . S
C9537 C9538 1.334 . S
C9538 H9509 0.950 . S
C9538 C9537 1.334 . S
C9538 C9539 1.287 . S
C9539 C9538 1.287 . S
C9539 C9540 1.524 . S
C9539 H9542 0.999 . S
C9540 H9510 0.950 . S
C9540 C9539 1.524 . S
C9540 C9541 1.415 . S
C9541 H9511 0.950 . S
C9541 C9536 1.363 . S
C9541 C9540 1.415 . S
H9542 C9539 0.999 . S
H9543 C9524 0.913 . S
H9544 C9562 0.951 . S
H9545 C9564 0.951 . S
H9546 C9566 0.950 . S
H9547 C9567 0.950 . S
H9548 C9569 0.950 . S
H9549 C9572 0.950 . S
H9550 C9573 0.950 . S
H9551 C9575 0.950 . S
H9552 C9576 0.950 . S
H9553 C9577 0.951 . S
H9554 C9579 0.951 . S
H9555 C9581 0.950 . S
H9556 C9582 0.950 . S
H9557 C9584 0.950 . S
H9558 C9587 0.950 . S
H9559 C9588 0.950 . S
H9560 C9590 0.950 . S
H9561 C9591 0.950 . S
C9562 H9544 0.951 . S
C9562 C9563 1.366 . S
C9562 C9564 1.388 . S
C9563 C9562 1.366 . S
C9563 C9567 1.385 . S
C9564 H9545 0.951 . S
C9564 C9562 1.388 . S
C9564 C9565 1.366 . S
C9565 C9564 1.366 . S
C9565 C9566 1.414 . S
C9565 C9568 1.499 . S
C9566 H9546 0.950 . S
C9566 C9565 1.414 . S
C9566 C9567 1.374 . S
C9567 H9547 0.950 . S
C9567 C9563 1.385 . S
C9567 C9566 1.374 . S
C9568 C9565 1.499 . S
C9568 C9569 1.373 . S
C9568 C9570 1.389 . S
C9569 H9548 0.950 . S
C9569 C9568 1.373 . S
C9569 C9585 1.377 . S
C9570 C9568 1.389 . S
C9570 C9571 1.524 . S
C9570 C9584 1.377 . S
C9571 C9570 1.524 . S
C9571 C9572 1.397 . S
C9571 C9576 1.363 . S
C9572 H9549 0.950 . S
C9572 C9571 1.397 . S
C9572 C9573 1.334 . S
C9573 H9550 0.950 . S
C9573 C9572 1.334 . S
C9573 C9574 1.287 . S
C9574 C9573 1.287 . S
C9574 C9575 1.524 . S
C9574 H9593 0.913 . S
C9575 H9551 0.950 . S
C9575 C9574 1.524 . S
C9575 C9576 1.415 . S
C9576 H9552 0.950 . S
C9576 C9571 1.363 . S
C9576 C9575 1.415 . S
C9577 H9553 0.951 . S
C9577 C9578 1.366 . S
C9577 C9579 1.388 . S
C9578 C9577 1.366 . S
C9578 C9582 1.385 . S
C9579 H9554 0.951 . S
C9579 C9577 1.388 . S
C9579 C9580 1.366 . S
C9580 C9579 1.366 . S
C9580 C9581 1.414 . S
C9580 C9583 1.499 . S
C9581 H9555 0.950 . S
C9581 C9580 1.414 . S
C9581 C9582 1.374 . S
C9582 H9556 0.950 . S
C9582 C9578 1.385 . S
C9582 C9581 1.374 . S
C9583 C9580 1.499 . S
C9583 C9584 1.373 . S
C9583 C9585 1.389 . S
C9584 H9557 0.950 . S
C9584 C9570 1.377 . S
C9584 C9583 1.373 . S
C9585 C9569 1.377 . S
C9585 C9583 1.389 . S
C9585 C9586 1.524 . S
C9586 C9585 1.524 . S
C9586 C9587 1.397 . S
C9586 C9591 1.363 . S
C9587 H9558 0.950 . S
C9587 C9586 1.397 . S
C9587 C9588 1.334 . S
C9588 H9559 0.950 . S
C9588 C9587 1.334 . S
C9588 C9589 1.287 . S
C9589 C9588 1.287 . S
C9589 C9590 1.524 . S
C9589 H9592 0.999 . S
C9590 H9560 0.950 . S
C9590 C9589 1.524 . S
C9590 C9591 1.415 . S
C9591 H9561 0.950 . S
C9591 C9586 1.363 . S
C9591 C9590 1.415 . S
H9592 C9589 0.999 . S
H9593 C9574 0.913 . S
H9594 C9612 0.951 . S
H9595 C9614 0.951 . S
H9596 C9616 0.950 . S
H9597 C9617 0.950 . S
H9598 C9619 0.950 . S
H9599 C9622 0.950 . S
H9600 C9623 0.950 . S
H9601 C9625 0.950 . S
H9602 C9626 0.950 . S
H9603 C9627 0.951 . S
H9604 C9629 0.951 . S
H9605 C9631 0.950 . S
H9606 C9632 0.950 . S
H9607 C9634 0.950 . S
H9608 C9637 0.950 . S
H9609 C9638 0.950 . S
H9610 C9640 0.950 . S
H9611 C9641 0.950 . S
C9612 H9594 0.951 . S
C9612 C9613 1.366 . S
C9612 C9614 1.388 . S
C9613 C9612 1.366 . S
C9613 C9617 1.385 . S
C9614 H9595 0.951 . S
C9614 C9612 1.388 . S
C9614 C9615 1.366 . S
C9615 C9614 1.366 . S
C9615 C9616 1.414 . S
C9615 C9618 1.499 . S
C9616 H9596 0.950 . S
C9616 C9615 1.414 . S
C9616 C9617 1.374 . S
C9617 H9597 0.950 . S
C9617 C9613 1.385 . S
C9617 C9616 1.374 . S
C9618 C9615 1.499 . S
C9618 C9619 1.373 . S
C9618 C9620 1.389 . S
C9619 H9598 0.950 . S
C9619 C9618 1.373 . S
C9619 C9635 1.377 . S
C9620 C9618 1.389 . S
C9620 C9621 1.524 . S
C9620 C9634 1.377 . S
C9621 C9620 1.524 . S
C9621 C9622 1.397 . S
C9621 C9626 1.363 . S
C9622 H9599 0.950 . S
C9622 C9621 1.397 . S
C9622 C9623 1.334 . S
C9623 H9600 0.950 . S
C9623 C9622 1.334 . S
C9623 C9624 1.287 . S
C9624 C9623 1.287 . S
C9624 C9625 1.524 . S
C9624 H9643 0.913 . S
C9625 H9601 0.950 . S
C9625 C9624 1.524 . S
C9625 C9626 1.415 . S
C9626 H9602 0.950 . S
C9626 C9621 1.363 . S
C9626 C9625 1.415 . S
C9627 H9603 0.951 . S
C9627 C9628 1.366 . S
C9627 C9629 1.388 . S
C9628 C9627 1.366 . S
C9628 C9632 1.385 . S
C9629 H9604 0.951 . S
C9629 C9627 1.388 . S
C9629 C9630 1.366 . S
C9630 C9629 1.366 . S
C9630 C9631 1.414 . S
C9630 C9633 1.499 . S
C9631 H9605 0.950 . S
C9631 C9630 1.414 . S
C9631 C9632 1.374 . S
C9632 H9606 0.950 . S
C9632 C9628 1.385 . S
C9632 C9631 1.374 . S
C9633 C9630 1.499 . S
C9633 C9634 1.373 . S
C9633 C9635 1.389 . S
C9634 H9607 0.950 . S
C9634 C9620 1.377 . S
C9634 C9633 1.373 . S
C9635 C9619 1.377 . S
C9635 C9633 1.389 . S
C9635 C9636 1.524 . S
C9636 C9635 1.524 . S
C9636 C9637 1.397 . S
C9636 C9641 1.363 . S
C9637 H9608 0.950 . S
C9637 C9636 1.397 . S
C9637 C9638 1.334 . S
C9638 H9609 0.950 . S
C9638 C9637 1.334 . S
C9638 C9639 1.287 . S
C9639 C9638 1.287 . S
C9639 C9640 1.524 . S
C9639 H9642 0.999 . S
C9640 H9610 0.950 . S
C9640 C9639 1.524 . S
C9640 C9641 1.415 . S
C9641 H9611 0.950 . S
C9641 C9636 1.363 . S
C9641 C9640 1.415 . S
H9642 C9639 0.999 . S
H9643 C9624 0.913 . S
H9644 C9662 0.951 . S
H9645 C9664 0.951 . S
H9646 C9666 0.950 . S
H9647 C9667 0.950 . S
H9648 C9669 0.950 . S
H9649 C9672 0.950 . S
H9650 C9673 0.950 . S
H9651 C9675 0.950 . S
H9652 C9676 0.950 . S
H9653 C9677 0.951 . S
H9654 C9679 0.951 . S
H9655 C9681 0.950 . S
H9656 C9682 0.950 . S
H9657 C9684 0.950 . S
H9658 C9687 0.950 . S
H9659 C9688 0.950 . S
H9660 C9690 0.950 . S
H9661 C9691 0.950 . S
C9662 H9644 0.951 . S
C9662 C9663 1.366 . S
C9662 C9664 1.388 . S
C9663 C9662 1.366 . S
C9663 C9667 1.385 . S
C9664 H9645 0.951 . S
C9664 C9662 1.388 . S
C9664 C9665 1.366 . S
C9665 C9664 1.366 . S
C9665 C9666 1.414 . S
C9665 C9668 1.499 . S
C9666 H9646 0.950 . S
C9666 C9665 1.414 . S
C9666 C9667 1.374 . S
C9667 H9647 0.950 . S
C9667 C9663 1.385 . S
C9667 C9666 1.374 . S
C9668 C9665 1.499 . S
C9668 C9669 1.373 . S
C9668 C9670 1.389 . S
C9669 H9648 0.950 . S
C9669 C9668 1.373 . S
C9669 C9685 1.377 . S
C9670 C9668 1.389 . S
C9670 C9671 1.524 . S
C9670 C9684 1.377 . S
C9671 C9670 1.524 . S
C9671 C9672 1.397 . S
C9671 C9676 1.363 . S
C9672 H9649 0.950 . S
C9672 C9671 1.397 . S
C9672 C9673 1.334 . S
C9673 H9650 0.950 . S
C9673 C9672 1.334 . S
C9673 C9674 1.287 . S
C9674 C9673 1.287 . S
C9674 C9675 1.524 . S
C9674 H9693 0.913 . S
C9675 H9651 0.950 . S
C9675 C9674 1.524 . S
C9675 C9676 1.415 . S
C9676 H9652 0.950 . S
C9676 C9671 1.363 . S
C9676 C9675 1.415 . S
C9677 H9653 0.951 . S
C9677 C9678 1.366 . S
C9677 C9679 1.388 . S
C9678 C9677 1.366 . S
C9678 C9682 1.385 . S
C9679 H9654 0.951 . S
C9679 C9677 1.388 . S
C9679 C9680 1.366 . S
C9680 C9679 1.366 . S
C9680 C9681 1.414 . S
C9680 C9683 1.499 . S
C9681 H9655 0.950 . S
C9681 C9680 1.414 . S
C9681 C9682 1.374 . S
C9682 H9656 0.950 . S
C9682 C9678 1.385 . S
C9682 C9681 1.374 . S
C9683 C9680 1.499 . S
C9683 C9684 1.373 . S
C9683 C9685 1.389 . S
C9684 H9657 0.950 . S
C9684 C9670 1.377 . S
C9684 C9683 1.373 . S
C9685 C9669 1.377 . S
C9685 C9683 1.389 . S
C9685 C9686 1.524 . S
C9686 C9685 1.524 . S
C9686 C9687 1.397 . S
C9686 C9691 1.363 . S
C9687 H9658 0.950 . S
C9687 C9686 1.397 . S
C9687 C9688 1.334 . S
C9688 H9659 0.950 . S
C9688 C9687 1.334 . S
C9688 C9689 1.287 . S
C9689 C9688 1.287 . S
C9689 C9690 1.524 . S
C9689 H9692 0.999 . S
C9690 H9660 0.950 . S
C9690 C9689 1.524 . S
C9690 C9691 1.415 . S
C9691 H9661 0.950 . S
C9691 C9686 1.363 . S
C9691 C9690 1.415 . S
H9692 C9689 0.999 . S
H9693 C9674 0.913 . S
H9694 C9712 0.962 . S
H9695 C9714 0.941 1_554 S
H9696 C9716 0.950 . S
H9697 C9717 0.950 . S
H9698 C9719 0.950 . S
H9699 C9722 0.950 . S
H9700 C9723 0.950 . S
H9701 C9725 0.950 . S
H9702 C9726 0.950 . S
H9703 C9727 0.962 . S
H9704 C9729 0.941 1_556 S
H9705 C9731 0.950 . S
H9706 C9732 0.950 . S
H9707 C9734 0.950 . S
H9708 C9737 0.950 . S
H9709 C9738 0.950 . S
H9710 C9740 0.950 . S
H9711 C9741 0.950 . S
C9712 H9694 0.962 . S
C9712 C9713 1.366 . S
C9712 C9714 1.393 . S
C9713 C9712 1.366 . S
C9713 C9717 1.385 . S
C9714 H9695 0.941 1_556 S
C9714 C9712 1.393 . S
C9714 C9715 1.372 . S
C9715 C9714 1.372 . S
C9715 C9716 1.414 . S
C9715 C9718 1.513 . S
C9716 H9696 0.950 . S
C9716 C9715 1.414 . S
C9716 C9717 1.374 . S
C9717 H9697 0.950 . S
C9717 C9713 1.385 . S
C9717 C9716 1.374 . S
C9718 C9715 1.513 . S
C9718 C9719 1.448 . S
C9718 C9720 1.310 1_556 S
C9719 H9698 0.950 . S
C9719 C9718 1.448 . S
C9719 C9735 1.377 . S
C9720 C9718 1.310 1_554 S
C9720 C9721 1.524 . S
C9720 C9734 1.377 . S
C9721 C9720 1.524 . S
C9721 C9722 1.397 . S
C9721 C9726 1.363 . S
C9722 H9699 0.950 . S
C9722 C9721 1.397 . S
C9722 C9723 1.334 . S
C9723 H9700 0.950 . S
C9723 C9722 1.334 . S
C9723 C9724 1.287 . S
C9724 C9723 1.287 . S
C9724 C9725 1.524 . S
C9724 H9743 0.913 . S
C9725 H9701 0.950 . S
C9725 C9724 1.524 . S
C9725 C9726 1.415 . S
C9726 H9702 0.950 . S
C9726 C9721 1.363 . S
C9726 C9725 1.415 . S
C9727 H9703 0.962 . S
C9727 C9728 1.366 . S
C9727 C9729 1.393 . S
C9728 C9727 1.366 . S
C9728 C9732 1.385 . S
C9729 H9704 0.941 1_554 S
C9729 C9727 1.393 . S
C9729 C9730 1.372 . S
C9730 C9729 1.372 . S
C9730 C9731 1.414 . S
C9730 C9733 1.513 . S
C9731 H9705 0.950 . S
C9731 C9730 1.414 . S
C9731 C9732 1.374 . S
C9732 H9706 0.950 . S
C9732 C9728 1.385 . S
C9732 C9731 1.374 . S
C9733 C9730 1.513 . S
C9733 C9734 1.448 . S
C9733 C9735 1.310 1_554 S
C9734 H9707 0.950 . S
C9734 C9720 1.377 . S
C9734 C9733 1.448 . S
C9735 C9719 1.377 . S
C9735 C9733 1.310 1_556 S
C9735 C9736 1.524 . S
C9736 C9735 1.524 . S
C9736 C9737 1.397 . S
C9736 C9741 1.363 . S
C9737 H9708 0.950 . S
C9737 C9736 1.397 . S
C9737 C9738 1.334 . S
C9738 H9709 0.950 . S
C9738 C9737 1.334 . S
C9738 C9739 1.287 . S
C9739 C9738 1.287 . S
C9739 C9740 1.524 . S
C9739 H9742 0.999 . S
C9740 H9710 0.950 . S
C9740 C9739 1.524 . S
C9740 C9741 1.415 . S
C9741 H9711 0.950 . S
C9741 C9736 1.363 . S
C9741 C9740 1.415 . S
H9742 C9739 0.999 . S
H9743 C9724 0.913 . S
H9744 C9762 0.951 . S
H9745 C9764 0.951 . S
H9746 C9766 0.950 . S
H9747 C9767 0.950 . S
H9748 C9769 0.950 . S
H9749 C9772 0.950 . S
H9750 C9773 0.950 . S
H9751 C9775 0.950 . S
H9752 C9776 0.950 . S
H9753 C9777 0.951 . S
H9754 C9779 0.951 . S
H9755 C9781 0.950 . S
H9756 C9782 0.950 . S
H9757 C9784 0.950 . S
H9758 C9787 0.950 . S
H9759 C9788 0.950 . S
H9760 C9790 0.950 . S
H9761 C9791 0.950 . S
C9762 H9744 0.951 . S
C9762 C9763 1.366 . S
C9762 C9764 1.388 . S
C9763 C9762 1.366 . S
C9763 C9767 1.385 . S
C9764 H9745 0.951 . S
C9764 C9762 1.388 . S
C9764 C9765 1.366 . S
C9765 C9764 1.366 . S
C9765 C9766 1.414 . S
C9765 C9768 1.499 . S
C9766 H9746 0.950 . S
C9766 C9765 1.414 . S
C9766 C9767 1.374 . S
C9767 H9747 0.950 . S
C9767 C9763 1.385 . S
C9767 C9766 1.374 . S
C9768 C9765 1.499 . S
C9768 C9769 1.373 . S
C9768 C9770 1.389 . S
C9769 H9748 0.950 . S
C9769 C9768 1.373 . S
C9769 C9785 1.377 . S
C9770 C9768 1.389 . S
C9770 C9771 1.524 . S
C9770 C9784 1.377 . S
C9771 C9770 1.524 . S
C9771 C9772 1.397 . S
C9771 C9776 1.363 . S
C9772 H9749 0.950 . S
C9772 C9771 1.397 . S
C9772 C9773 1.334 . S
C9773 H9750 0.950 . S
C9773 C9772 1.334 . S
C9773 C9774 1.287 . S
C9774 C9773 1.287 . S
C9774 C9775 1.524 . S
C9774 H9793 0.913 . S
C9775 H9751 0.950 . S
C9775 C9774 1.524 . S
C9775 C9776 1.415 . S
C9776 H9752 0.950 . S
C9776 C9771 1.363 . S
C9776 C9775 1.415 . S
C9777 H9753 0.951 . S
C9777 C9778 1.366 . S
C9777 C9779 1.388 . S
C9778 C9777 1.366 . S
C9778 C9782 1.385 . S
C9779 H9754 0.951 . S
C9779 C9777 1.388 . S
C9779 C9780 1.366 . S
C9780 C9779 1.366 . S
C9780 C9781 1.414 . S
C9780 C9783 1.499 . S
C9781 H9755 0.950 . S
C9781 C9780 1.414 . S
C9781 C9782 1.374 . S
C9782 H9756 0.950 . S
C9782 C9778 1.385 . S
C9782 C9781 1.374 . S
C9783 C9780 1.499 . S
C9783 C9784 1.373 . S
C9783 C9785 1.389 . S
C9784 H9757 0.950 . S
C9784 C9770 1.377 . S
C9784 C9783 1.373 . S
C9785 C9769 1.377 . S
C9785 C9783 1.389 . S
C9785 C9786 1.524 . S
C9786 C9785 1.524 . S
C9786 C9787 1.397 . S
C9786 C9791 1.363 . S
C9787 H9758 0.950 . S
C9787 C9786 1.397 . S
C9787 C9788 1.334 . S
C9788 H9759 0.950 . S
C9788 C9787 1.334 . S
C9788 C9789 1.287 . S
C9789 C9788 1.287 . S
C9789 C9790 1.524 . S
C9789 H9792 0.999 . S
C9790 H9760 0.950 . S
C9790 C9789 1.524 . S
C9790 C9791 1.415 . S
C9791 H9761 0.950 . S
C9791 C9786 1.363 . S
C9791 C9790 1.415 . S
H9792 C9789 0.999 . S
H9793 C9774 0.913 . S
H9794 C9812 0.951 . S
H9795 C9814 0.951 . S
H9796 C9816 0.950 . S
H9797 C9817 0.950 . S
H9798 C9819 0.950 . S
H9799 C9822 0.950 . S
H9800 C9823 0.950 . S
H9801 C9825 0.950 . S
H9802 C9826 0.950 . S
H9803 C9827 0.951 . S
H9804 C9829 0.951 . S
H9805 C9831 0.950 . S
H9806 C9832 0.950 . S
H9807 C9834 0.950 . S
H9808 C9837 0.950 . S
H9809 C9838 0.950 . S
H9810 C9840 0.950 . S
H9811 C9841 0.950 . S
C9812 H9794 0.951 . S
C9812 C9813 1.366 . S
C9812 C9814 1.388 . S
C9813 C9812 1.366 . S
C9813 C9817 1.385 . S
C9814 H9795 0.951 . S
C9814 C9812 1.388 . S
C9814 C9815 1.366 . S
C9815 C9814 1.366 . S
C9815 C9816 1.414 . S
C9815 C9818 1.499 . S
C9816 H9796 0.950 . S
C9816 C9815 1.414 . S
C9816 C9817 1.374 . S
C9817 H9797 0.950 . S
C9817 C9813 1.385 . S
C9817 C9816 1.374 . S
C9818 C9815 1.499 . S
C9818 C9819 1.373 . S
C9818 C9820 1.389 . S
C9819 H9798 0.950 . S
C9819 C9818 1.373 . S
C9819 C9835 1.377 1_545 S
C9820 C9818 1.389 . S
C9820 C9821 1.524 . S
C9820 C9834 1.377 1_545 S
C9821 C9820 1.524 . S
C9821 C9822 1.397 . S
C9821 C9826 1.363 . S
C9822 H9799 0.950 . S
C9822 C9821 1.397 . S
C9822 C9823 1.334 . S
C9823 H9800 0.950 . S
C9823 C9822 1.334 . S
C9823 C9824 1.287 . S
C9824 C9823 1.287 . S
C9824 C9825 1.524 . S
C9824 H9843 0.913 . S
C9825 H9801 0.950 . S
C9825 C9824 1.524 . S
C9825 C9826 1.415 . S
C9826 H9802 0.950 . S
C9826 C9821 1.363 . S
C9826 C9825 1.415 . S
C9827 H9803 0.951 . S
C9827 C9828 1.366 . S
C9827 C9829 1.388 . S
C9828 C9827 1.366 . S
C9828 C9832 1.385 . S
C9829 H9804 0.951 . S
C9829 C9827 1.388 . S
C9829 C9830 1.366 . S
C9830 C9829 1.366 . S
C9830 C9831 1.414 . S
C9830 C9833 1.499 . S
C9831 H9805 0.950 . S
C9831 C9830 1.414 . S
C9831 C9832 1.374 . S
C9832 H9806 0.950 . S
C9832 C9828 1.385 . S
C9832 C9831 1.374 . S
C9833 C9830 1.499 . S
C9833 C9834 1.373 . S
C9833 C9835 1.389 . S
C9834 H9807 0.950 . S
C9834 C9820 1.377 1_565 S
C9834 C9833 1.373 . S
C9835 C9819 1.377 1_565 S
C9835 C9833 1.389 . S
C9835 C9836 1.524 . S
C9836 C9835 1.524 . S
C9836 C9837 1.397 . S
C9836 C9841 1.363 . S
C9837 H9808 0.950 . S
C9837 C9836 1.397 . S
C9837 C9838 1.334 . S
C9838 H9809 0.950 . S
C9838 C9837 1.334 . S
C9838 C9839 1.287 . S
C9839 C9838 1.287 . S
C9839 C9840 1.524 . S
C9839 H9842 0.999 . S
C9840 H9810 0.950 . S
C9840 C9839 1.524 . S
C9840 C9841 1.415 . S
C9841 H9811 0.950 . S
C9841 C9836 1.363 . S
C9841 C9840 1.415 . S
H9842 C9839 0.999 . S
H9843 C9824 0.913 . S
H9844 C9862 0.951 . S
H9845 C9864 0.951 . S
H9846 C9866 0.950 . S
H9847 C9867 0.950 . S
H9848 C9869 0.950 . S
H9849 C9872 0.950 . S
H9850 C9873 0.950 . S
H9851 C9875 0.950 . S
H9852 C9876 0.950 . S
H9853 C9877 0.951 . S
H9854 C9879 0.951 . S
H9855 C9881 0.950 . S
H9856 C9882 0.950 . S
H9857 C9884 0.950 . S
H9858 C9887 0.950 . S
H9859 C9888 0.950 . S
H9860 C9890 0.950 . S
H9861 C9891 0.950 . S
C9862 H9844 0.951 . S
C9862 C9863 1.366 . S
C9862 C9864 1.388 . S
C9863 C9862 1.366 . S
C9863 C9867 1.385 . S
C9864 H9845 0.951 . S
C9864 C9862 1.388 . S
C9864 C9865 1.366 . S
C9865 C9864 1.366 . S
C9865 C9866 1.414 . S
C9865 C9868 1.499 . S
C9866 H9846 0.950 . S
C9866 C9865 1.414 . S
C9866 C9867 1.374 . S
C9867 H9847 0.950 . S
C9867 C9863 1.385 . S
C9867 C9866 1.374 . S
C9868 C9865 1.499 . S
C9868 C9869 1.373 . S
C9868 C9870 1.389 . S
C9869 H9848 0.950 . S
C9869 C9868 1.373 . S
C9869 C9885 1.377 . S
C9870 C9868 1.389 . S
C9870 C9871 1.524 . S
C9870 C9884 1.377 . S
C9871 C9870 1.524 . S
C9871 C9872 1.397 . S
C9871 C9876 1.363 . S
C9872 H9849 0.950 . S
C9872 C9871 1.397 . S
C9872 C9873 1.334 . S
C9873 H9850 0.950 . S
C9873 C9872 1.334 . S
C9873 C9874 1.287 . S
C9874 C9873 1.287 . S
C9874 C9875 1.524 . S
C9874 H9893 0.913 . S
C9875 H9851 0.950 . S
C9875 C9874 1.524 . S
C9875 C9876 1.415 . S
C9876 H9852 0.950 . S
C9876 C9871 1.363 . S
C9876 C9875 1.415 . S
C9877 H9853 0.951 . S
C9877 C9878 1.366 . S
C9877 C9879 1.388 . S
C9878 C9877 1.366 . S
C9878 C9882 1.385 . S
C9879 H9854 0.951 . S
C9879 C9877 1.388 . S
C9879 C9880 1.366 . S
C9880 C9879 1.366 . S
C9880 C9881 1.414 . S
C9880 C9883 1.499 . S
C9881 H9855 0.950 . S
C9881 C9880 1.414 . S
C9881 C9882 1.374 . S
C9882 H9856 0.950 . S
C9882 C9878 1.385 . S
C9882 C9881 1.374 . S
C9883 C9880 1.499 . S
C9883 C9884 1.373 . S
C9883 C9885 1.389 . S
C9884 H9857 0.950 . S
C9884 C9870 1.377 . S
C9884 C9883 1.373 . S
C9885 C9869 1.377 . S
C9885 C9883 1.389 . S
C9885 C9886 1.524 . S
C9886 C9885 1.524 . S
C9886 C9887 1.397 . S
C9886 C9891 1.363 . S
C9887 H9858 0.950 . S
C9887 C9886 1.397 . S
C9887 C9888 1.334 . S
C9888 H9859 0.950 . S
C9888 C9887 1.334 . S
C9888 C9889 1.287 . S
C9889 C9888 1.287 . S
C9889 C9890 1.524 . S
C9889 H9892 0.999 . S
C9890 H9860 0.950 . S
C9890 C9889 1.524 . S
C9890 C9891 1.415 . S
C9891 H9861 0.950 . S
C9891 C9886 1.363 . S
C9891 C9890 1.415 . S
H9892 C9889 0.999 . S
H9893 C9874 0.913 . S
H9894 C9912 0.951 . S
H9895 C9914 0.951 . S
H9896 C9916 0.950 . S
H9897 C9917 0.950 . S
H9898 C9919 0.950 . S
H9899 C9922 0.950 . S
H9900 C9923 0.950 . S
H9901 C9925 0.950 . S
H9902 C9926 0.950 . S
H9903 C9927 0.951 . S
H9904 C9929 0.951 . S
H9905 C9931 0.950 . S
H9906 C9932 0.950 . S
H9907 C9934 0.950 . S
H9908 C9937 0.950 . S
H9909 C9938 0.950 . S
H9910 C9940 0.950 . S
H9911 C9941 0.950 . S
C9912 H9894 0.951 . S
C9912 C9913 1.366 . S
C9912 C9914 1.388 . S
C9913 C9912 1.366 . S
C9913 C9917 1.385 . S
C9914 H9895 0.951 . S
C9914 C9912 1.388 . S
C9914 C9915 1.366 . S
C9915 C9914 1.366 . S
C9915 C9916 1.414 . S
C9915 C9918 1.499 . S
C9916 H9896 0.950 . S
C9916 C9915 1.414 . S
C9916 C9917 1.374 . S
C9917 H9897 0.950 . S
C9917 C9913 1.385 . S
C9917 C9916 1.374 . S
C9918 C9915 1.499 . S
C9918 C9919 1.373 . S
C9918 C9920 1.389 . S
C9919 H9898 0.950 . S
C9919 C9918 1.373 . S
C9919 C9935 1.377 . S
C9920 C9918 1.389 . S
C9920 C9921 1.524 . S
C9920 C9934 1.377 . S
C9921 C9920 1.524 . S
C9921 C9922 1.397 . S
C9921 C9926 1.363 . S
C9922 H9899 0.950 . S
C9922 C9921 1.397 . S
C9922 C9923 1.334 . S
C9923 H9900 0.950 . S
C9923 C9922 1.334 . S
C9923 C9924 1.287 . S
C9924 C9923 1.287 . S
C9924 C9925 1.524 . S
C9924 H9943 0.913 . S
C9925 H9901 0.950 . S
C9925 C9924 1.524 . S
C9925 C9926 1.415 . S
C9926 H9902 0.950 . S
C9926 C9921 1.363 . S
C9926 C9925 1.415 . S
C9927 H9903 0.951 . S
C9927 C9928 1.366 . S
C9927 C9929 1.388 . S
C9928 C9927 1.366 . S
C9928 C9932 1.385 . S
C9929 H9904 0.951 . S
C9929 C9927 1.388 . S
C9929 C9930 1.366 . S
C9930 C9929 1.366 . S
C9930 C9931 1.414 . S
C9930 C9933 1.499 . S
C9931 H9905 0.950 . S
C9931 C9930 1.414 . S
C9931 C9932 1.374 . S
C9932 H9906 0.950 . S
C9932 C9928 1.385 . S
C9932 C9931 1.374 . S
C9933 C9930 1.499 . S
C9933 C9934 1.373 . S
C9933 C9935 1.389 . S
C9934 H9907 0.950 . S
C9934 C9920 1.377 . S
C9934 C9933 1.373 . S
C9935 C9919 1.377 . S
C9935 C9933 1.389 . S
C9935 C9936 1.524 . S
C9936 C9935 1.524 . S
C9936 C9937 1.397 . S
C9936 C9941 1.363 . S
C9937 H9908 0.950 . S
C9937 C9936 1.397 . S
C9937 C9938 1.334 . S
C9938 H9909 0.950 . S
C9938 C9937 1.334 . S
C9938 C9939 1.287 . S
C9939 C9938 1.287 . S
C9939 C9940 1.524 . S
C9939 H9942 0.999 . S
C9940 H9910 0.950 . S
C9940 C9939 1.524 . S
C9940 C9941 1.415 . S
C9941 H9911 0.950 . S
C9941 C9936 1.363 . S
C9941 C9940 1.415 . S
H9942 C9939 0.999 . S
H9943 C9924 0.913 . S
H9944 C9962 0.951 . S
H9945 C9964 0.951 . S
H9946 C9966 0.950 . S
H9947 C9967 0.950 . S
H9948 C9969 0.950 . S
H9949 C9972 0.950 . S
H9950 C9973 0.950 . S
H9951 C9975 0.950 . S
H9952 C9976 0.950 . S
H9953 C9977 0.951 . S
H9954 C9979 0.951 . S
H9955 C9981 0.950 . S
H9956 C9982 0.950 . S
H9957 C9984 0.950 . S
H9958 C9987 0.950 . S
H9959 C9988 0.950 . S
H9960 C9990 0.950 . S
H9961 C9991 0.950 . S
C9962 H9944 0.951 . S
C9962 C9963 1.366 1_455 S
C9962 C9964 1.388 . S
C9963 C9962 1.366 1_655 S
C9963 C9967 1.385 . S
C9964 H9945 0.951 . S
C9964 C9962 1.388 . S
C9964 C9965 1.366 1_455 S
C9965 C9964 1.366 1_655 S
C9965 C9966 1.414 . S
C9965 C9968 1.499 . S
C9966 H9946 0.950 . S
C9966 C9965 1.414 . S
C9966 C9967 1.374 . S
C9967 H9947 0.950 . S
C9967 C9963 1.385 . S
C9967 C9966 1.374 . S
C9968 C9965 1.499 . S
C9968 C9969 1.373 . S
C9968 C9970 1.389 1_655 S
C9969 H9948 0.950 . S
C9969 C9968 1.373 . S
C9969 C9985 1.377 1_554 S
C9970 C9968 1.389 1_455 S
C9970 C9971 1.524 . S
C9970 C9984 1.377 1_554 S
C9971 C9970 1.524 . S
C9971 C9972 1.397 . S
C9971 C9976 1.363 . S
C9972 H9949 0.950 . S
C9972 C9971 1.397 . S
C9972 C9973 1.334 . S
C9973 H9950 0.950 . S
C9973 C9972 1.334 . S
C9973 C9974 1.287 . S
C9974 C9973 1.287 . S
C9974 C9975 1.524 . S
C9974 H9993 0.913 . S
C9975 H9951 0.950 . S
C9975 C9974 1.524 . S
C9975 C9976 1.415 . S
C9976 H9952 0.950 . S
C9976 C9971 1.363 . S
C9976 C9975 1.415 . S
C9977 H9953 0.951 . S
C9977 C9978 1.366 1_655 S
C9977 C9979 1.388 . S
C9978 C9977 1.366 1_455 S
C9978 C9982 1.385 . S
C9979 H9954 0.951 . S
C9979 C9977 1.388 . S
C9979 C9980 1.366 1_655 S
C9980 C9979 1.366 1_455 S
C9980 C9981 1.414 . S
C9980 C9983 1.499 . S
C9981 H9955 0.950 . S
C9981 C9980 1.414 . S
C9981 C9982 1.374 . S
C9982 H9956 0.950 . S
C9982 C9978 1.385 . S
C9982 C9981 1.374 . S
C9983 C9980 1.499 . S
C9983 C9984 1.373 . S
C9983 C9985 1.389 1_455 S
C9984 H9957 0.950 . S
C9984 C9970 1.377 1_556 S
C9984 C9983 1.373 . S
C9985 C9969 1.377 1_556 S
C9985 C9983 1.389 1_655 S
C9985 C9986 1.524 . S
C9986 C9985 1.524 . S
C9986 C9987 1.397 . S
C9986 C9991 1.363 . S
C9987 H9958 0.950 . S
C9987 C9986 1.397 . S
C9987 C9988 1.334 . S
C9988 H9959 0.950 . S
C9988 C9987 1.334 . S
C9988 C9989 1.287 . S
C9989 C9988 1.287 . S
C9989 C9990 1.524 . S
C9989 H9992 0.999 . S
C9990 H9960 0.950 . S
C9990 C9989 1.524 . S
C9990 C9991 1.415 . S
C9991 H9961 0.950 . S
C9991 C9986 1.363 . S
C9991 C9990 1.415 . S
H9992 C9989 0.999 . S
H9993 C9974 0.913 . S
H9994 C10012 0.951 . S
H9995 C10014 0.951 . S
H9996 C10016 0.950 . S
H9997 C10017 0.950 . S
H9998 C10019 0.950 . S
H9999 C10022 0.950 . S
H10000 C10023 0.950 . S
H10001 C10025 0.950 . S
H10002 C10026 0.950 . S
H10003 C10027 0.951 . S
H10004 C10029 0.951 . S
H10005 C10031 0.950 . S
H10006 C10032 0.950 . S
H10007 C10034 0.950 . S
H10008 C10037 0.950 . S
H10009 C10038 0.950 . S
H10010 C10040 0.950 . S
H10011 C10041 0.950 . S
C10012 H9994 0.951 . S
C10012 C10013 1.366 . S
C10012 C10014 1.388 . S
C10013 C10012 1.366 . S
C10013 C10017 1.385 . S
C10014 H9995 0.951 . S
C10014 C10012 1.388 . S
C10014 C10015 1.366 . S
C10015 C10014 1.366 . S
C10015 C10016 1.414 . S
C10015 C10018 1.499 . S
C10016 H9996 0.950 . S
C10016 C10015 1.414 . S
C10016 C10017 1.374 . S
C10017 H9997 0.950 . S
C10017 C10013 1.385 . S
C10017 C10016 1.374 . S
C10018 C10015 1.499 . S
C10018 C10019 1.373 . S
C10018 C10020 1.389 . S
C10019 H9998 0.950 . S
C10019 C10018 1.373 . S
C10019 C10035 1.377 . S
C10020 C10018 1.389 . S
C10020 C10021 1.524 . S
C10020 C10034 1.377 . S
C10021 C10020 1.524 . S
C10021 C10022 1.397 . S
C10021 C10026 1.363 . S
C10022 H9999 0.950 . S
C10022 C10021 1.397 . S
C10022 C10023 1.334 . S
C10023 H10000 0.950 . S
C10023 C10022 1.334 . S
C10023 C10024 1.287 . S
C10024 C10023 1.287 . S
C10024 C10025 1.524 . S
C10024 H10043 0.913 . S
C10025 H10001 0.950 . S
C10025 C10024 1.524 . S
C10025 C10026 1.415 . S
C10026 H10002 0.950 . S
C10026 C10021 1.363 . S
C10026 C10025 1.415 . S
C10027 H10003 0.951 . S
C10027 C10028 1.366 . S
C10027 C10029 1.388 . S
C10028 C10027 1.366 . S
C10028 C10032 1.385 . S
C10029 H10004 0.951 . S
C10029 C10027 1.388 . S
C10029 C10030 1.366 . S
C10030 C10029 1.366 . S
C10030 C10031 1.414 . S
C10030 C10033 1.499 . S
C10031 H10005 0.950 . S
C10031 C10030 1.414 . S
C10031 C10032 1.374 . S
C10032 H10006 0.950 . S
C10032 C10028 1.385 . S
C10032 C10031 1.374 . S
C10033 C10030 1.499 . S
C10033 C10034 1.373 . S
C10033 C10035 1.389 . S
C10034 H10007 0.950 . S
C10034 C10020 1.377 . S
C10034 C10033 1.373 . S
C10035 C10019 1.377 . S
C10035 C10033 1.389 . S
C10035 C10036 1.524 . S
C10036 C10035 1.524 . S
C10036 C10037 1.397 . S
C10036 C10041 1.363 . S
C10037 H10008 0.950 . S
C10037 C10036 1.397 . S
C10037 C10038 1.334 . S
C10038 H10009 0.950 . S
C10038 C10037 1.334 . S
C10038 C10039 1.287 . S
C10039 C10038 1.287 . S
C10039 C10040 1.524 . S
C10039 H10042 0.999 . S
C10040 H10010 0.950 . S
C10040 C10039 1.524 . S
C10040 C10041 1.415 . S
C10041 H10011 0.950 . S
C10041 C10036 1.363 . S
C10041 C10040 1.415 . S
H10042 C10039 0.999 . S
H10043 C10024 0.913 . S
H10044 C10062 0.951 . S
H10045 C10064 0.951 . S
H10046 C10066 0.950 . S
H10047 C10067 0.950 . S
H10048 C10069 0.963 . S
H10049 C10072 0.950 . S
H10050 C10073 0.950 . S
H10051 C10075 0.950 . S
H10052 C10076 0.950 . S
H10053 C10077 0.951 . S
H10054 C10079 0.951 . S
H10055 C10081 0.950 . S
H10056 C10082 0.950 . S
H10057 C10084 0.963 . S
H10058 C10087 0.950 . S
H10059 C10088 0.950 . S
H10060 C10090 0.950 . S
H10061 C10091 0.950 . S
C10062 H10044 0.951 . S
C10062 C10063 1.366 1_455 S
C10062 C10064 1.388 . S
C10063 C10062 1.366 1_655 S
C10063 C10067 1.385 . S
C10064 H10045 0.951 . S
C10064 C10062 1.388 . S
C10064 C10065 1.366 1_455 S
C10065 C10064 1.366 1_655 S
C10065 C10066 1.414 . S
C10065 C10068 1.499 . S
C10066 H10046 0.950 . S
C10066 C10065 1.414 . S
C10066 C10067 1.374 . S
C10067 H10047 0.950 . S
C10067 C10063 1.385 . S
C10067 C10066 1.374 . S
C10068 C10065 1.499 . S
C10068 C10069 1.387 . S
C10068 C10070 1.389 . S
C10069 H10048 0.963 . S
C10069 C10068 1.387 . S
C10069 C10085 1.362 1_655 S
C10070 C10068 1.389 . S
C10070 C10071 1.524 . S
C10070 C10084 1.362 1_655 S
C10071 C10070 1.524 . S
C10071 C10072 1.397 . S
C10071 C10076 1.363 1_655 S
C10072 H10049 0.950 . S
C10072 C10071 1.397 . S
C10072 C10073 1.334 . S
C10073 H10050 0.950 . S
C10073 C10072 1.334 . S
C10073 C10074 1.287 . S
C10074 C10073 1.287 . S
C10074 C10075 1.524 1_655 S
C10074 H10093 0.913 . S
C10075 H10051 0.950 . S
C10075 C10074 1.524 1_455 S
C10075 C10076 1.415 . S
C10076 H10052 0.950 . S
C10076 C10071 1.363 1_455 S
C10076 C10075 1.415 . S
C10077 H10053 0.951 . S
C10077 C10078 1.366 1_655 S
C10077 C10079 1.388 . S
C10078 C10077 1.366 1_455 S
C10078 C10082 1.385 . S
C10079 H10054 0.951 . S
C10079 C10077 1.388 . S
C10079 C10080 1.366 1_655 S
C10080 C10079 1.366 1_455 S
C10080 C10081 1.414 . S
C10080 C10083 1.499 . S
C10081 H10055 0.950 . S
C10081 C10080 1.414 . S
C10081 C10082 1.374 . S
C10082 H10056 0.950 . S
C10082 C10078 1.385 . S
C10082 C10081 1.374 . S
C10083 C10080 1.499 . S
C10083 C10084 1.387 . S
C10083 C10085 1.389 . S
C10084 H10057 0.963 . S
C10084 C10070 1.362 1_455 S
C10084 C10083 1.387 . S
C10085 C10069 1.362 1_455 S
C10085 C10083 1.389 . S
C10085 C10086 1.524 . S
C10086 C10085 1.524 . S
C10086 C10087 1.397 . S
C10086 C10091 1.363 1_455 S
C10087 H10058 0.950 . S
C10087 C10086 1.397 . S
C10087 C10088 1.334 . S
C10088 H10059 0.950 . S
C10088 C10087 1.334 . S
C10088 C10089 1.287 . S
C10089 C10088 1.287 . S
C10089 C10090 1.524 1_455 S
C10089 H10092 0.999 . S
C10090 H10060 0.950 . S
C10090 C10089 1.524 1_655 S
C10090 C10091 1.415 . S
C10091 H10061 0.950 . S
C10091 C10086 1.363 1_655 S
C10091 C10090 1.415 . S
H10092 C10089 0.999 . S
H10093 C10074 0.913 . S
H10094 C10112 0.951 . S
H10095 C10114 0.951 . S
H10096 C10116 0.950 . S
H10097 C10117 0.950 . S
H10098 C10119 0.950 . S
H10099 C10122 0.950 . S
H10100 C10123 0.950 . S
H10101 C10125 0.950 . S
H10102 C10126 0.950 . S
H10103 C10127 0.951 . S
H10104 C10129 0.951 . S
H10105 C10131 0.950 . S
H10106 C10132 0.950 . S
H10107 C10134 0.950 . S
H10108 C10137 0.950 . S
H10109 C10138 0.950 . S
H10110 C10140 0.950 . S
H10111 C10141 0.950 . S
C10112 H10094 0.951 . S
C10112 C10113 1.366 . S
C10112 C10114 1.388 . S
C10113 C10112 1.366 . S
C10113 C10117 1.385 . S
C10114 H10095 0.951 . S
C10114 C10112 1.388 . S
C10114 C10115 1.366 . S
C10115 C10114 1.366 . S
C10115 C10116 1.414 . S
C10115 C10118 1.499 . S
C10116 H10096 0.950 . S
C10116 C10115 1.414 . S
C10116 C10117 1.374 . S
C10117 H10097 0.950 . S
C10117 C10113 1.385 . S
C10117 C10116 1.374 . S
C10118 C10115 1.499 . S
C10118 C10119 1.373 . S
C10118 C10120 1.389 . S
C10119 H10098 0.950 . S
C10119 C10118 1.373 . S
C10119 C10135 1.377 . S
C10120 C10118 1.389 . S
C10120 C10121 1.524 . S
C10120 C10134 1.377 . S
C10121 C10120 1.524 . S
C10121 C10122 1.397 . S
C10121 C10126 1.363 . S
C10122 H10099 0.950 . S
C10122 C10121 1.397 . S
C10122 C10123 1.334 . S
C10123 H10100 0.950 . S
C10123 C10122 1.334 . S
C10123 C10124 1.287 . S
C10124 C10123 1.287 . S
C10124 C10125 1.524 . S
C10124 H10143 0.913 . S
C10125 H10101 0.950 . S
C10125 C10124 1.524 . S
C10125 C10126 1.415 . S
C10126 H10102 0.950 . S
C10126 C10121 1.363 . S
C10126 C10125 1.415 . S
C10127 H10103 0.951 . S
C10127 C10128 1.366 . S
C10127 C10129 1.388 . S
C10128 C10127 1.366 . S
C10128 C10132 1.385 . S
C10129 H10104 0.951 . S
C10129 C10127 1.388 . S
C10129 C10130 1.366 . S
C10130 C10129 1.366 . S
C10130 C10131 1.414 . S
C10130 C10133 1.499 . S
C10131 H10105 0.950 . S
C10131 C10130 1.414 . S
C10131 C10132 1.374 . S
C10132 H10106 0.950 . S
C10132 C10128 1.385 . S
C10132 C10131 1.374 . S
C10133 C10130 1.499 . S
C10133 C10134 1.373 . S
C10133 C10135 1.389 . S
C10134 H10107 0.950 . S
C10134 C10120 1.377 . S
C10134 C10133 1.373 . S
C10135 C10119 1.377 . S
C10135 C10133 1.389 . S
C10135 C10136 1.524 . S
C10136 C10135 1.524 . S
C10136 C10137 1.397 . S
C10136 C10141 1.363 . S
C10137 H10108 0.950 . S
C10137 C10136 1.397 . S
C10137 C10138 1.334 . S
C10138 H10109 0.950 . S
C10138 C10137 1.334 . S
C10138 C10139 1.287 . S
C10139 C10138 1.287 . S
C10139 C10140 1.524 . S
C10139 H10142 0.999 . S
C10140 H10110 0.950 . S
C10140 C10139 1.524 . S
C10140 C10141 1.415 . S
C10141 H10111 0.950 . S
C10141 C10136 1.363 . S
C10141 C10140 1.415 . S
H10142 C10139 0.999 . S
H10143 C10124 0.913 . S
H10144 C10162 0.951 . S
H10145 C10164 0.951 . S
H10146 C10166 0.950 . S
H10147 C10167 0.950 . S
H10148 C10169 0.950 . S
H10149 C10172 0.950 . S
H10150 C10173 0.950 . S
H10151 C10175 0.950 . S
H10152 C10176 0.950 . S
H10153 C10177 0.951 . S
H10154 C10179 0.951 . S
H10155 C10181 0.950 . S
H10156 C10182 0.950 . S
H10157 C10184 0.950 . S
H10158 C10187 0.950 . S
H10159 C10188 0.950 . S
H10160 C10190 0.950 . S
H10161 C10191 0.950 . S
C10162 H10144 0.951 . S
C10162 C10163 1.366 . S
C10162 C10164 1.388 . S
C10163 C10162 1.366 . S
C10163 C10167 1.385 . S
C10164 H10145 0.951 . S
C10164 C10162 1.388 . S
C10164 C10165 1.366 . S
C10165 C10164 1.366 . S
C10165 C10166 1.414 . S
C10165 C10168 1.499 . S
C10166 H10146 0.950 . S
C10166 C10165 1.414 . S
C10166 C10167 1.374 . S
C10167 H10147 0.950 . S
C10167 C10163 1.385 . S
C10167 C10166 1.374 . S
C10168 C10165 1.499 . S
C10168 C10169 1.373 . S
C10168 C10170 1.389 . S
C10169 H10148 0.950 . S
C10169 C10168 1.373 . S
C10169 C10185 1.377 . S
C10170 C10168 1.389 . S
C10170 C10171 1.524 . S
C10170 C10184 1.377 . S
C10171 C10170 1.524 . S
C10171 C10172 1.397 . S
C10171 C10176 1.363 . S
C10172 H10149 0.950 . S
C10172 C10171 1.397 . S
C10172 C10173 1.334 . S
C10173 H10150 0.950 . S
C10173 C10172 1.334 . S
C10173 C10174 1.287 . S
C10174 C10173 1.287 . S
C10174 C10175 1.524 . S
C10174 H10193 0.913 . S
C10175 H10151 0.950 . S
C10175 C10174 1.524 . S
C10175 C10176 1.415 . S
C10176 H10152 0.950 . S
C10176 C10171 1.363 . S
C10176 C10175 1.415 . S
C10177 H10153 0.951 . S
C10177 C10178 1.366 . S
C10177 C10179 1.388 . S
C10178 C10177 1.366 . S
C10178 C10182 1.385 . S
C10179 H10154 0.951 . S
C10179 C10177 1.388 . S
C10179 C10180 1.366 . S
C10180 C10179 1.366 . S
C10180 C10181 1.414 . S
C10180 C10183 1.499 . S
C10181 H10155 0.950 . S
C10181 C10180 1.414 . S
C10181 C10182 1.374 . S
C10182 H10156 0.950 . S
C10182 C10178 1.385 . S
C10182 C10181 1.374 . S
C10183 C10180 1.499 . S
C10183 C10184 1.373 . S
C10183 C10185 1.389 . S
C10184 H10157 0.950 . S
C10184 C10170 1.377 . S
C10184 C10183 1.373 . S
C10185 C10169 1.377 . S
C10185 C10183 1.389 . S
C10185 C10186 1.524 . S
C10186 C10185 1.524 . S
C10186 C10187 1.397 . S
C10186 C10191 1.363 . S
C10187 H10158 0.950 . S
C10187 C10186 1.397 . S
C10187 C10188 1.334 . S
C10188 H10159 0.950 . S
C10188 C10187 1.334 . S
C10188 C10189 1.287 . S
C10189 C10188 1.287 . S
C10189 C10190 1.524 . S
C10189 H10192 0.999 . S
C10190 H10160 0.950 . S
C10190 C10189 1.524 . S
C10190 C10191 1.415 . S
C10191 H10161 0.950 . S
C10191 C10186 1.363 . S
C10191 C10190 1.415 . S
H10192 C10189 0.999 . S
H10193 C10174 0.913 . S
H10194 C10212 0.951 . S
H10195 C10214 0.951 . S
H10196 C10216 0.950 . S
H10197 C10217 0.950 . S
H10198 C10219 0.950 . S
H10199 C10222 0.950 . S
H10200 C10223 0.950 . S
H10201 C10225 0.950 . S
H10202 C10226 0.950 . S
H10203 C10227 0.951 . S
H10204 C10229 0.951 . S
H10205 C10231 0.950 . S
H10206 C10232 0.950 . S
H10207 C10234 0.950 . S
H10208 C10237 0.950 . S
H10209 C10238 0.950 . S
H10210 C10240 0.950 . S
H10211 C10241 0.950 . S
C10212 H10194 0.951 . S
C10212 C10213 1.366 . S
C10212 C10214 1.388 . S
C10213 C10212 1.366 . S
C10213 C10217 1.385 . S
C10214 H10195 0.951 . S
C10214 C10212 1.388 . S
C10214 C10215 1.366 . S
C10215 C10214 1.366 . S
C10215 C10216 1.414 . S
C10215 C10218 1.499 . S
C10216 H10196 0.950 . S
C10216 C10215 1.414 . S
C10216 C10217 1.374 . S
C10217 H10197 0.950 . S
C10217 C10213 1.385 . S
C10217 C10216 1.374 . S
C10218 C10215 1.499 . S
C10218 C10219 1.373 . S
C10218 C10220 1.389 . S
C10219 H10198 0.950 . S
C10219 C10218 1.373 . S
C10219 C10235 1.377 . S
C10220 C10218 1.389 . S
C10220 C10221 1.524 . S
C10220 C10234 1.377 . S
C10221 C10220 1.524 . S
C10221 C10222 1.397 . S
C10221 C10226 1.363 . S
C10222 H10199 0.950 . S
C10222 C10221 1.397 . S
C10222 C10223 1.334 . S
C10223 H10200 0.950 . S
C10223 C10222 1.334 . S
C10223 C10224 1.287 . S
C10224 C10223 1.287 . S
C10224 C10225 1.524 . S
C10224 H10243 0.913 . S
C10225 H10201 0.950 . S
C10225 C10224 1.524 . S
C10225 C10226 1.415 . S
C10226 H10202 0.950 . S
C10226 C10221 1.363 . S
C10226 C10225 1.415 . S
C10227 H10203 0.951 . S
C10227 C10228 1.366 . S
C10227 C10229 1.388 . S
C10228 C10227 1.366 . S
C10228 C10232 1.385 . S
C10229 H10204 0.951 . S
C10229 C10227 1.388 . S
C10229 C10230 1.366 . S
C10230 C10229 1.366 . S
C10230 C10231 1.414 . S
C10230 C10233 1.499 . S
C10231 H10205 0.950 . S
C10231 C10230 1.414 . S
C10231 C10232 1.374 . S
C10232 H10206 0.950 . S
C10232 C10228 1.385 . S
C10232 C10231 1.374 . S
C10233 C10230 1.499 . S
C10233 C10234 1.373 . S
C10233 C10235 1.389 . S
C10234 H10207 0.950 . S
C10234 C10220 1.377 . S
C10234 C10233 1.373 . S
C10235 C10219 1.377 . S
C10235 C10233 1.389 . S
C10235 C10236 1.524 . S
C10236 C10235 1.524 . S
C10236 C10237 1.397 . S
C10236 C10241 1.363 . S
C10237 H10208 0.950 . S
C10237 C10236 1.397 . S
C10237 C10238 1.334 . S
C10238 H10209 0.950 . S
C10238 C10237 1.334 . S
C10238 C10239 1.287 . S
C10239 C10238 1.287 . S
C10239 C10240 1.524 . S
C10239 H10242 0.999 . S
C10240 H10210 0.950 . S
C10240 C10239 1.524 . S
C10240 C10241 1.415 . S
C10241 H10211 0.950 . S
C10241 C10236 1.363 . S
C10241 C10240 1.415 . S
H10242 C10239 0.999 . S
H10243 C10224 0.913 . S
H10244 C10262 0.951 . S
H10245 C10264 0.951 . S
H10246 C10266 0.950 . S
H10247 C10267 0.950 . S
H10248 C10269 0.950 . S
H10249 C10272 0.950 . S
H10250 C10273 0.950 . S
H10251 C10275 0.950 . S
H10252 C10276 0.950 . S
H10253 C10277 0.951 . S
H10254 C10279 0.951 . S
H10255 C10281 0.950 . S
H10256 C10282 0.950 . S
H10257 C10284 0.950 . S
H10258 C10287 0.950 . S
H10259 C10288 0.950 . S
H10260 C10290 0.950 . S
H10261 C10291 0.950 . S
C10262 H10244 0.951 . S
C10262 C10263 1.366 . S
C10262 C10264 1.388 . S
C10263 C10262 1.366 . S
C10263 C10267 1.385 . S
C10264 H10245 0.951 . S
C10264 C10262 1.388 . S
C10264 C10265 1.366 . S
C10265 C10264 1.366 . S
C10265 C10266 1.414 . S
C10265 C10268 1.499 . S
C10266 H10246 0.950 . S
C10266 C10265 1.414 . S
C10266 C10267 1.374 . S
C10267 H10247 0.950 . S
C10267 C10263 1.385 . S
C10267 C10266 1.374 . S
C10268 C10265 1.499 . S
C10268 C10269 1.373 . S
C10268 C10270 1.389 . S
C10269 H10248 0.950 . S
C10269 C10268 1.373 . S
C10269 C10285 1.377 . S
C10270 C10268 1.389 . S
C10270 C10271 1.524 . S
C10270 C10284 1.377 . S
C10271 C10270 1.524 . S
C10271 C10272 1.397 . S
C10271 C10276 1.363 . S
C10272 H10249 0.950 . S
C10272 C10271 1.397 . S
C10272 C10273 1.334 . S
C10273 H10250 0.950 . S
C10273 C10272 1.334 . S
C10273 C10274 1.287 . S
C10274 C10273 1.287 . S
C10274 C10275 1.524 . S
C10274 H10293 0.913 . S
C10275 H10251 0.950 . S
C10275 C10274 1.524 . S
C10275 C10276 1.415 . S
C10276 H10252 0.950 . S
C10276 C10271 1.363 . S
C10276 C10275 1.415 . S
C10277 H10253 0.951 . S
C10277 C10278 1.366 . S
C10277 C10279 1.388 . S
C10278 C10277 1.366 . S
C10278 C10282 1.385 . S
C10279 H10254 0.951 . S
C10279 C10277 1.388 . S
C10279 C10280 1.366 . S
C10280 C10279 1.366 . S
C10280 C10281 1.414 . S
C10280 C10283 1.499 . S
C10281 H10255 0.950 . S
C10281 C10280 1.414 . S
C10281 C10282 1.374 . S
C10282 H10256 0.950 . S
C10282 C10278 1.385 . S
C10282 C10281 1.374 . S
C10283 C10280 1.499 . S
C10283 C10284 1.373 . S
C10283 C10285 1.389 . S
C10284 H10257 0.950 . S
C10284 C10270 1.377 . S
C10284 C10283 1.373 . S
C10285 C10269 1.377 . S
C10285 C10283 1.389 . S
C10285 C10286 1.524 . S
C10286 C10285 1.524 . S
C10286 C10287 1.397 . S
C10286 C10291 1.363 . S
C10287 H10258 0.950 . S
C10287 C10286 1.397 . S
C10287 C10288 1.334 . S
C10288 H10259 0.950 . S
C10288 C10287 1.334 . S
C10288 C10289 1.287 . S
C10289 C10288 1.287 . S
C10289 C10290 1.524 . S
C10289 H10292 0.999 . S
C10290 H10260 0.950 . S
C10290 C10289 1.524 . S
C10290 C10291 1.415 . S
C10291 H10261 0.950 . S
C10291 C10286 1.363 . S
C10291 C10290 1.415 . S
H10292 C10289 0.999 . S
H10293 C10274 0.913 . S
H10294 C10312 0.951 . S
H10295 C10314 0.951 . S
H10296 C10316 0.950 . S
H10297 C10317 0.950 . S
H10298 C10319 0.950 . S
H10299 C10322 0.950 . S
H10300 C10323 0.950 . S
H10301 C10325 0.950 . S
H10302 C10326 0.950 . S
H10303 C10327 0.951 . S
H10304 C10329 0.951 . S
H10305 C10331 0.950 . S
H10306 C10332 0.950 . S
H10307 C10334 0.950 . S
H10308 C10337 0.950 . S
H10309 C10338 0.950 . S
H10310 C10340 0.950 . S
H10311 C10341 0.950 . S
C10312 H10294 0.951 . S
C10312 C10313 1.366 . S
C10312 C10314 1.388 . S
C10313 C10312 1.366 . S
C10313 C10317 1.385 1_565 S
C10314 H10295 0.951 . S
C10314 C10312 1.388 . S
C10314 C10315 1.366 . S
C10315 C10314 1.366 . S
C10315 C10316 1.414 1_565 S
C10315 C10318 1.513 . S
C10316 H10296 0.950 . S
C10316 C10315 1.414 1_545 S
C10316 C10317 1.374 . S
C10317 H10297 0.950 . S
C10317 C10313 1.385 1_545 S
C10317 C10316 1.374 . S
C10318 C10315 1.513 . S
C10318 C10319 1.355 1_565 S
C10318 C10320 1.406 . S
C10319 H10298 0.950 . S
C10319 C10318 1.355 1_545 S
C10319 C10335 1.377 . S
C10320 C10318 1.406 . S
C10320 C10321 1.524 . S
C10320 C10334 1.377 . S
C10321 C10320 1.524 . S
C10321 C10322 1.397 1_565 S
C10321 C10326 1.363 . S
C10322 H10299 0.950 . S
C10322 C10321 1.397 1_545 S
C10322 C10323 1.334 . S
C10323 H10300 0.950 . S
C10323 C10322 1.334 . S
C10323 C10324 1.287 1_545 S
C10324 C10323 1.287 1_565 S
C10324 C10325 1.524 . S
C10324 H10343 0.913 . S
C10325 H10301 0.950 . S
C10325 C10324 1.524 . S
C10325 C10326 1.415 . S
C10326 H10302 0.950 . S
C10326 C10321 1.363 . S
C10326 C10325 1.415 . S
C10327 H10303 0.951 . S
C10327 C10328 1.366 . S
C10327 C10329 1.388 . S
C10328 C10327 1.366 . S
C10328 C10332 1.385 1_545 S
C10329 H10304 0.951 . S
C10329 C10327 1.388 . S
C10329 C10330 1.366 . S
C10330 C10329 1.366 . S
C10330 C10331 1.414 1_545 S
C10330 C10333 1.513 . S
C10331 H10305 0.950 . S
C10331 C10330 1.414 1_565 S
C10331 C10332 1.374 . S
C10332 H10306 0.950 . S
C10332 C10328 1.385 1_565 S
C10332 C10331 1.374 . S
C10333 C10330 1.513 . S
C10333 C10334 1.355 1_545 S
C10333 C10335 1.406 . S
C10334 H10307 0.950 . S
C10334 C10320 1.377 . S
C10334 C10333 1.355 1_565 S
C10335 C10319 1.377 . S
C10335 C10333 1.406 . S
C10335 C10336 1.524 . S
C10336 C10335 1.524 . S
C10336 C10337 1.397 1_545 S
C10336 C10341 1.363 . S
C10337 H10308 0.950 . S
C10337 C10336 1.397 1_565 S
C10337 C10338 1.334 . S
C10338 H10309 0.950 . S
C10338 C10337 1.334 . S
C10338 C10339 1.287 1_565 S
C10339 C10338 1.287 1_545 S
C10339 C10340 1.524 . S
C10339 H10342 0.999 . S
C10340 H10310 0.950 . S
C10340 C10339 1.524 . S
C10340 C10341 1.415 . S
C10341 H10311 0.950 . S
C10341 C10336 1.363 . S
C10341 C10340 1.415 . S
H10342 C10339 0.999 . S
H10343 C10324 0.913 . S
H10344 C10362 0.951 . S
H10345 C10364 0.951 . S
H10346 C10366 0.950 . S
H10347 C10367 0.950 . S
H10348 C10369 0.950 . S
H10349 C10372 0.950 . S
H10350 C10373 0.950 . S
H10351 C10375 0.950 . S
H10352 C10376 0.950 . S
H10353 C10377 0.951 . S
H10354 C10379 0.951 . S
H10355 C10381 0.950 . S
H10356 C10382 0.950 . S
H10357 C10384 0.950 . S
H10358 C10387 0.950 . S
H10359 C10388 0.950 . S
H10360 C10390 0.950 . S
H10361 C10391 0.950 . S
C10362 H10344 0.951 . S
C10362 C10363 1.366 . S
C10362 C10364 1.388 . S
C10363 C10362 1.366 . S
C10363 C10367 1.385 . S
C10364 H10345 0.951 . S
C10364 C10362 1.388 . S
C10364 C10365 1.366 . S
C10365 C10364 1.366 . S
C10365 C10366 1.414 . S
C10365 C10368 1.499 . S
C10366 H10346 0.950 . S
C10366 C10365 1.414 . S
C10366 C10367 1.374 . S
C10367 H10347 0.950 . S
C10367 C10363 1.385 . S
C10367 C10366 1.374 . S
C10368 C10365 1.499 . S
C10368 C10369 1.373 . S
C10368 C10370 1.389 . S
C10369 H10348 0.950 . S
C10369 C10368 1.373 . S
C10369 C10385 1.377 . S
C10370 C10368 1.389 . S
C10370 C10371 1.524 . S
C10370 C10384 1.377 . S
C10371 C10370 1.524 . S
C10371 C10372 1.397 . S
C10371 C10376 1.363 . S
C10372 H10349 0.950 . S
C10372 C10371 1.397 . S
C10372 C10373 1.334 . S
C10373 H10350 0.950 . S
C10373 C10372 1.334 . S
C10373 C10374 1.287 . S
C10374 C10373 1.287 . S
C10374 C10375 1.524 . S
C10374 H10393 0.913 . S
C10375 H10351 0.950 . S
C10375 C10374 1.524 . S
C10375 C10376 1.415 . S
C10376 H10352 0.950 . S
C10376 C10371 1.363 . S
C10376 C10375 1.415 . S
C10377 H10353 0.951 . S
C10377 C10378 1.366 . S
C10377 C10379 1.388 . S
C10378 C10377 1.366 . S
C10378 C10382 1.385 . S
C10379 H10354 0.951 . S
C10379 C10377 1.388 . S
C10379 C10380 1.366 . S
C10380 C10379 1.366 . S
C10380 C10381 1.414 . S
C10380 C10383 1.499 . S
C10381 H10355 0.950 . S
C10381 C10380 1.414 . S
C10381 C10382 1.374 . S
C10382 H10356 0.950 . S
C10382 C10378 1.385 . S
C10382 C10381 1.374 . S
C10383 C10380 1.499 . S
C10383 C10384 1.373 . S
C10383 C10385 1.389 . S
C10384 H10357 0.950 . S
C10384 C10370 1.377 . S
C10384 C10383 1.373 . S
C10385 C10369 1.377 . S
C10385 C10383 1.389 . S
C10385 C10386 1.524 . S
C10386 C10385 1.524 . S
C10386 C10387 1.397 . S
C10386 C10391 1.363 . S
C10387 H10358 0.950 . S
C10387 C10386 1.397 . S
C10387 C10388 1.334 . S
C10388 H10359 0.950 . S
C10388 C10387 1.334 . S
C10388 C10389 1.287 . S
C10389 C10388 1.287 . S
C10389 C10390 1.524 . S
C10389 H10392 0.999 . S
C10390 H10360 0.950 . S
C10390 C10389 1.524 . S
C10390 C10391 1.415 . S
C10391 H10361 0.950 . S
C10391 C10386 1.363 . S
C10391 C10390 1.415 . S
H10392 C10389 0.999 . S
H10393 C10374 0.913 . S
H10394 C10412 0.951 . S
H10395 C10414 0.951 . S
H10396 C10416 0.950 . S
H10397 C10417 0.950 . S
H10398 C10419 0.950 . S
H10399 C10422 0.950 . S
H10400 C10423 0.950 . S
H10401 C10425 0.950 . S
H10402 C10426 0.950 . S
H10403 C10427 0.951 . S
H10404 C10429 0.951 . S
H10405 C10431 0.950 . S
H10406 C10432 0.950 . S
H10407 C10434 0.950 . S
H10408 C10437 0.950 . S
H10409 C10438 0.950 . S
H10410 C10440 0.950 . S
H10411 C10441 0.950 . S
C10412 H10394 0.951 . S
C10412 C10413 1.366 . S
C10412 C10414 1.388 . S
C10413 C10412 1.366 . S
C10413 C10417 1.385 1_565 S
C10414 H10395 0.951 . S
C10414 C10412 1.388 . S
C10414 C10415 1.366 . S
C10415 C10414 1.366 . S
C10415 C10416 1.414 1_565 S
C10415 C10418 1.499 . S
C10416 H10396 0.950 . S
C10416 C10415 1.414 1_545 S
C10416 C10417 1.374 . S
C10417 H10397 0.950 . S
C10417 C10413 1.385 1_545 S
C10417 C10416 1.374 . S
C10418 C10415 1.499 . S
C10418 C10419 1.373 1_565 S
C10418 C10420 1.389 . S
C10419 H10398 0.950 . S
C10419 C10418 1.373 1_545 S
C10419 C10435 1.377 . S
C10420 C10418 1.389 . S
C10420 C10421 1.524 . S
C10420 C10434 1.377 . S
C10421 C10420 1.524 . S
C10421 C10422 1.397 . S
C10421 C10426 1.363 . S
C10422 H10399 0.950 . S
C10422 C10421 1.397 . S
C10422 C10423 1.334 . S
C10423 H10400 0.950 . S
C10423 C10422 1.334 . S
C10423 C10424 1.287 . S
C10424 C10423 1.287 . S
C10424 C10425 1.524 . S
C10424 H10443 0.913 . S
C10425 H10401 0.950 . S
C10425 C10424 1.524 . S
C10425 C10426 1.415 . S
C10426 H10402 0.950 . S
C10426 C10421 1.363 . S
C10426 C10425 1.415 . S
C10427 H10403 0.951 . S
C10427 C10428 1.366 . S
C10427 C10429 1.388 . S
C10428 C10427 1.366 . S
C10428 C10432 1.385 1_545 S
C10429 H10404 0.951 . S
C10429 C10427 1.388 . S
C10429 C10430 1.366 . S
C10430 C10429 1.366 . S
C10430 C10431 1.414 1_545 S
C10430 C10433 1.499 . S
C10431 H10405 0.950 . S
C10431 C10430 1.414 1_565 S
C10431 C10432 1.374 . S
C10432 H10406 0.950 . S
C10432 C10428 1.385 1_565 S
C10432 C10431 1.374 . S
C10433 C10430 1.499 . S
C10433 C10434 1.373 1_545 S
C10433 C10435 1.389 . S
C10434 H10407 0.950 . S
C10434 C10420 1.377 . S
C10434 C10433 1.373 1_565 S
C10435 C10419 1.377 . S
C10435 C10433 1.389 . S
C10435 C10436 1.524 . S
C10436 C10435 1.524 . S
C10436 C10437 1.397 . S
C10436 C10441 1.363 . S
C10437 H10408 0.950 . S
C10437 C10436 1.397 . S
C10437 C10438 1.334 . S
C10438 H10409 0.950 . S
C10438 C10437 1.334 . S
C10438 C10439 1.287 . S
C10439 C10438 1.287 . S
C10439 C10440 1.524 . S
C10439 H10442 0.999 . S
C10440 H10410 0.950 . S
C10440 C10439 1.524 . S
C10440 C10441 1.415 . S
C10441 H10411 0.950 . S
C10441 C10436 1.363 . S
C10441 C10440 1.415 . S
H10442 C10439 0.999 . S
H10443 C10424 0.913 . S
H10444 C10462 0.951 . S
H10445 C10464 0.951 . S
H10446 C10466 0.950 . S
H10447 C10467 0.950 . S
H10448 C10469 0.950 . S
H10449 C10472 0.950 . S
H10450 C10473 0.950 . S
H10451 C10475 0.950 . S
H10452 C10476 0.950 . S
H10453 C10477 0.951 . S
H10454 C10479 0.951 . S
H10455 C10481 0.950 . S
H10456 C10482 0.950 . S
H10457 C10484 0.950 . S
H10458 C10487 0.950 . S
H10459 C10488 0.950 . S
H10460 C10490 0.950 . S
H10461 C10491 0.950 . S
C10462 H10444 0.951 . S
C10462 C10463 1.366 . S
C10462 C10464 1.388 . S
C10463 C10462 1.366 . S
C10463 C10467 1.385 . S
C10464 H10445 0.951 . S
C10464 C10462 1.388 . S
C10464 C10465 1.366 . S
C10465 C10464 1.366 . S
C10465 C10466 1.414 . S
C10465 C10468 1.511 . S
C10466 H10446 0.950 . S
C10466 C10465 1.414 . S
C10466 C10467 1.374 . S
C10467 H10447 0.950 . S
C10467 C10463 1.385 . S
C10467 C10466 1.374 . S
C10468 C10465 1.511 . S
C10468 C10469 1.425 . S
C10468 C10470 1.335 1_556 S
C10469 H10448 0.950 . S
C10469 C10468 1.425 . S
C10469 C10485 1.377 1_565 S
C10470 C10468 1.335 1_554 S
C10470 C10471 1.524 . S
C10470 C10484 1.377 1_565 S
C10471 C10470 1.524 . S
C10471 C10472 1.397 . S
C10471 C10476 1.363 . S
C10472 H10449 0.950 . S
C10472 C10471 1.397 . S
C10472 C10473 1.334 . S
C10473 H10450 0.950 . S
C10473 C10472 1.334 . S
C10473 C10474 1.287 . S
C10474 C10473 1.287 . S
C10474 C10475 1.524 . S
C10474 H10493 0.913 . S
C10475 H10451 0.950 . S
C10475 C10474 1.524 . S
C10475 C10476 1.415 . S
C10476 H10452 0.950 . S
C10476 C10471 1.363 . S
C10476 C10475 1.415 . S
C10477 H10453 0.951 . S
C10477 C10478 1.366 . S
C10477 C10479 1.388 . S
C10478 C10477 1.366 . S
C10478 C10482 1.385 . S
C10479 H10454 0.951 . S
C10479 C10477 1.388 . S
C10479 C10480 1.366 . S
C10480 C10479 1.366 . S
C10480 C10481 1.414 . S
C10480 C10483 1.511 . S
C10481 H10455 0.950 . S
C10481 C10480 1.414 . S
C10481 C10482 1.374 . S
C10482 H10456 0.950 . S
C10482 C10478 1.385 . S
C10482 C10481 1.374 . S
C10483 C10480 1.511 . S
C10483 C10484 1.425 . S
C10483 C10485 1.335 1_554 S
C10484 H10457 0.950 . S
C10484 C10470 1.377 1_545 S
C10484 C10483 1.425 . S
C10485 C10469 1.377 1_545 S
C10485 C10483 1.335 1_556 S
C10485 C10486 1.524 . S
C10486 C10485 1.524 . S
C10486 C10487 1.397 . S
C10486 C10491 1.363 . S
C10487 H10458 0.950 . S
C10487 C10486 1.397 . S
C10487 C10488 1.334 . S
C10488 H10459 0.950 . S
C10488 C10487 1.334 . S
C10488 C10489 1.287 . S
C10489 C10488 1.287 . S
C10489 C10490 1.524 . S
C10489 H10492 0.999 . S
C10490 H10460 0.950 . S
C10490 C10489 1.524 . S
C10490 C10491 1.415 . S
C10491 H10461 0.950 . S
C10491 C10486 1.363 . S
C10491 C10490 1.415 . S
H10492 C10489 0.999 . S
H10493 C10474 0.913 . S
H10494 C10512 0.951 . S
H10495 C10514 0.951 . S
H10496 C10516 0.950 . S
H10497 C10517 0.950 . S
H10498 C10519 0.950 . S
H10499 C10522 0.950 . S
H10500 C10523 0.950 . S
H10501 C10525 0.950 . S
H10502 C10526 0.950 . S
H10503 C10527 0.951 . S
H10504 C10529 0.951 . S
H10505 C10531 0.950 . S
H10506 C10532 0.950 . S
H10507 C10534 0.950 . S
H10508 C10537 0.950 . S
H10509 C10538 0.950 . S
H10510 C10540 0.950 . S
H10511 C10541 0.950 . S
C10512 H10494 0.951 . S
C10512 C10513 1.366 . S
C10512 C10514 1.388 . S
C10513 C10512 1.366 . S
C10513 C10517 1.385 . S
C10514 H10495 0.951 . S
C10514 C10512 1.388 . S
C10514 C10515 1.366 . S
C10515 C10514 1.366 . S
C10515 C10516 1.414 . S
C10515 C10518 1.499 . S
C10516 H10496 0.950 . S
C10516 C10515 1.414 . S
C10516 C10517 1.374 . S
C10517 H10497 0.950 . S
C10517 C10513 1.385 . S
C10517 C10516 1.374 . S
C10518 C10515 1.499 . S
C10518 C10519 1.373 . S
C10518 C10520 1.389 . S
C10519 H10498 0.950 . S
C10519 C10518 1.373 . S
C10519 C10535 1.377 . S
C10520 C10518 1.389 . S
C10520 C10521 1.524 . S
C10520 C10534 1.377 . S
C10521 C10520 1.524 . S
C10521 C10522 1.397 . S
C10521 C10526 1.363 . S
C10522 H10499 0.950 . S
C10522 C10521 1.397 . S
C10522 C10523 1.334 . S
C10523 H10500 0.950 . S
C10523 C10522 1.334 . S
C10523 C10524 1.287 . S
C10524 C10523 1.287 . S
C10524 C10525 1.524 . S
C10524 H10543 0.913 . S
C10525 H10501 0.950 . S
C10525 C10524 1.524 . S
C10525 C10526 1.415 . S
C10526 H10502 0.950 . S
C10526 C10521 1.363 . S
C10526 C10525 1.415 . S
C10527 H10503 0.951 . S
C10527 C10528 1.366 . S
C10527 C10529 1.388 . S
C10528 C10527 1.366 . S
C10528 C10532 1.385 . S
C10529 H10504 0.951 . S
C10529 C10527 1.388 . S
C10529 C10530 1.366 . S
C10530 C10529 1.366 . S
C10530 C10531 1.414 . S
C10530 C10533 1.499 . S
C10531 H10505 0.950 . S
C10531 C10530 1.414 . S
C10531 C10532 1.374 . S
C10532 H10506 0.950 . S
C10532 C10528 1.385 . S
C10532 C10531 1.374 . S
C10533 C10530 1.499 . S
C10533 C10534 1.373 . S
C10533 C10535 1.389 . S
C10534 H10507 0.950 . S
C10534 C10520 1.377 . S
C10534 C10533 1.373 . S
C10535 C10519 1.377 . S
C10535 C10533 1.389 . S
C10535 C10536 1.524 . S
C10536 C10535 1.524 . S
C10536 C10537 1.397 . S
C10536 C10541 1.363 . S
C10537 H10508 0.950 . S
C10537 C10536 1.397 . S
C10537 C10538 1.334 . S
C10538 H10509 0.950 . S
C10538 C10537 1.334 . S
C10538 C10539 1.287 . S
C10539 C10538 1.287 . S
C10539 C10540 1.524 . S
C10539 H10542 0.999 . S
C10540 H10510 0.950 . S
C10540 C10539 1.524 . S
C10540 C10541 1.415 . S
C10541 H10511 0.950 . S
C10541 C10536 1.363 . S
C10541 C10540 1.415 . S
H10542 C10539 0.999 . S
H10543 C10524 0.913 . S
H10544 C10562 0.951 . S
H10545 C10564 0.951 . S
H10546 C10566 0.950 . S
H10547 C10567 0.950 . S
H10548 C10569 0.950 . S
H10549 C10572 0.950 . S
H10550 C10573 0.950 . S
H10551 C10575 0.950 . S
H10552 C10576 0.950 . S
H10553 C10577 0.951 . S
H10554 C10579 0.951 . S
H10555 C10581 0.950 . S
H10556 C10582 0.950 . S
H10557 C10584 0.950 . S
H10558 C10587 0.950 . S
H10559 C10588 0.950 . S
H10560 C10590 0.950 . S
H10561 C10591 0.950 . S
C10562 H10544 0.951 . S
C10562 C10563 1.366 . S
C10562 C10564 1.388 . S
C10563 C10562 1.366 . S
C10563 C10567 1.385 . S
C10564 H10545 0.951 . S
C10564 C10562 1.388 . S
C10564 C10565 1.366 . S
C10565 C10564 1.366 . S
C10565 C10566 1.414 . S
C10565 C10568 1.499 . S
C10566 H10546 0.950 . S
C10566 C10565 1.414 . S
C10566 C10567 1.374 . S
C10567 H10547 0.950 . S
C10567 C10563 1.385 . S
C10567 C10566 1.374 . S
C10568 C10565 1.499 . S
C10568 C10569 1.373 . S
C10568 C10570 1.389 . S
C10569 H10548 0.950 . S
C10569 C10568 1.373 . S
C10569 C10585 1.377 . S
C10570 C10568 1.389 . S
C10570 C10571 1.524 . S
C10570 C10584 1.377 . S
C10571 C10570 1.524 . S
C10571 C10572 1.397 . S
C10571 C10576 1.363 . S
C10572 H10549 0.950 . S
C10572 C10571 1.397 . S
C10572 C10573 1.334 . S
C10573 H10550 0.950 . S
C10573 C10572 1.334 . S
C10573 C10574 1.287 . S
C10574 C10573 1.287 . S
C10574 C10575 1.524 . S
C10574 H10593 0.913 . S
C10575 H10551 0.950 . S
C10575 C10574 1.524 . S
C10575 C10576 1.415 . S
C10576 H10552 0.950 . S
C10576 C10571 1.363 . S
C10576 C10575 1.415 . S
C10577 H10553 0.951 . S
C10577 C10578 1.366 . S
C10577 C10579 1.388 . S
C10578 C10577 1.366 . S
C10578 C10582 1.385 . S
C10579 H10554 0.951 . S
C10579 C10577 1.388 . S
C10579 C10580 1.366 . S
C10580 C10579 1.366 . S
C10580 C10581 1.414 . S
C10580 C10583 1.499 . S
C10581 H10555 0.950 . S
C10581 C10580 1.414 . S
C10581 C10582 1.374 . S
C10582 H10556 0.950 . S
C10582 C10578 1.385 . S
C10582 C10581 1.374 . S
C10583 C10580 1.499 . S
C10583 C10584 1.373 . S
C10583 C10585 1.389 . S
C10584 H10557 0.950 . S
C10584 C10570 1.377 . S
C10584 C10583 1.373 . S
C10585 C10569 1.377 . S
C10585 C10583 1.389 . S
C10585 C10586 1.524 . S
C10586 C10585 1.524 . S
C10586 C10587 1.397 . S
C10586 C10591 1.363 . S
C10587 H10558 0.950 . S
C10587 C10586 1.397 . S
C10587 C10588 1.334 . S
C10588 H10559 0.950 . S
C10588 C10587 1.334 . S
C10588 C10589 1.287 . S
C10589 C10588 1.287 . S
C10589 C10590 1.524 . S
C10589 H10592 0.999 . S
C10590 H10560 0.950 . S
C10590 C10589 1.524 . S
C10590 C10591 1.415 . S
C10591 H10561 0.950 . S
C10591 C10586 1.363 . S
C10591 C10590 1.415 . S
H10592 C10589 0.999 . S
H10593 C10574 0.913 . S
H10594 C10612 0.951 . S
H10595 C10614 0.951 . S
H10596 C10616 0.950 . S
H10597 C10617 0.950 . S
H10598 C10619 0.950 . S
H10599 C10622 0.950 . S
H10600 C10623 0.950 . S
H10601 C10625 0.950 . S
H10602 C10626 0.950 . S
H10603 C10627 0.951 . S
H10604 C10629 0.951 . S
H10605 C10631 0.950 . S
H10606 C10632 0.950 . S
H10607 C10634 0.950 . S
H10608 C10637 0.950 . S
H10609 C10638 0.950 . S
H10610 C10640 0.950 . S
H10611 C10641 0.950 . S
C10612 H10594 0.951 . S
C10612 C10613 1.366 . S
C10612 C10614 1.388 . S
C10613 C10612 1.366 . S
C10613 C10617 1.385 . S
C10614 H10595 0.951 . S
C10614 C10612 1.388 . S
C10614 C10615 1.366 . S
C10615 C10614 1.366 . S
C10615 C10616 1.414 . S
C10615 C10618 1.499 . S
C10616 H10596 0.950 . S
C10616 C10615 1.414 . S
C10616 C10617 1.374 . S
C10617 H10597 0.950 . S
C10617 C10613 1.385 . S
C10617 C10616 1.374 . S
C10618 C10615 1.499 . S
C10618 C10619 1.373 . S
C10618 C10620 1.389 . S
C10619 H10598 0.950 . S
C10619 C10618 1.373 . S
C10619 C10635 1.377 . S
C10620 C10618 1.389 . S
C10620 C10621 1.524 . S
C10620 C10634 1.377 . S
C10621 C10620 1.524 . S
C10621 C10622 1.397 . S
C10621 C10626 1.363 . S
C10622 H10599 0.950 . S
C10622 C10621 1.397 . S
C10622 C10623 1.334 . S
C10623 H10600 0.950 . S
C10623 C10622 1.334 . S
C10623 C10624 1.287 . S
C10624 C10623 1.287 . S
C10624 C10625 1.524 . S
C10624 H10643 0.913 . S
C10625 H10601 0.950 . S
C10625 C10624 1.524 . S
C10625 C10626 1.415 . S
C10626 H10602 0.950 . S
C10626 C10621 1.363 . S
C10626 C10625 1.415 . S
C10627 H10603 0.951 . S
C10627 C10628 1.366 . S
C10627 C10629 1.388 . S
C10628 C10627 1.366 . S
C10628 C10632 1.385 . S
C10629 H10604 0.951 . S
C10629 C10627 1.388 . S
C10629 C10630 1.366 . S
C10630 C10629 1.366 . S
C10630 C10631 1.414 . S
C10630 C10633 1.499 . S
C10631 H10605 0.950 . S
C10631 C10630 1.414 . S
C10631 C10632 1.374 . S
C10632 H10606 0.950 . S
C10632 C10628 1.385 . S
C10632 C10631 1.374 . S
C10633 C10630 1.499 . S
C10633 C10634 1.373 . S
C10633 C10635 1.389 . S
C10634 H10607 0.950 . S
C10634 C10620 1.377 . S
C10634 C10633 1.373 . S
C10635 C10619 1.377 . S
C10635 C10633 1.389 . S
C10635 C10636 1.524 . S
C10636 C10635 1.524 . S
C10636 C10637 1.397 . S
C10636 C10641 1.363 . S
C10637 H10608 0.950 . S
C10637 C10636 1.397 . S
C10637 C10638 1.334 . S
C10638 H10609 0.950 . S
C10638 C10637 1.334 . S
C10638 C10639 1.287 . S
C10639 C10638 1.287 . S
C10639 C10640 1.524 . S
C10639 H10642 0.999 . S
C10640 H10610 0.950 . S
C10640 C10639 1.524 . S
C10640 C10641 1.415 . S
C10641 H10611 0.950 . S
C10641 C10636 1.363 . S
C10641 C10640 1.415 . S
H10642 C10639 0.999 . S
H10643 C10624 0.913 . S
H10644 C10662 0.951 . S
H10645 C10664 0.951 . S
H10646 C10666 0.950 . S
H10647 C10667 0.950 . S
H10648 C10669 0.950 . S
H10649 C10672 0.950 . S
H10650 C10673 0.950 . S
H10651 C10675 0.950 . S
H10652 C10676 0.950 . S
H10653 C10677 0.951 . S
H10654 C10679 0.951 . S
H10655 C10681 0.950 . S
H10656 C10682 0.950 . S
H10657 C10684 0.950 . S
H10658 C10687 0.950 . S
H10659 C10688 0.950 . S
H10660 C10690 0.950 . S
H10661 C10691 0.950 . S
C10662 H10644 0.951 . S
C10662 C10663 1.366 . S
C10662 C10664 1.388 . S
C10663 C10662 1.366 . S
C10663 C10667 1.385 . S
C10664 H10645 0.951 . S
C10664 C10662 1.388 . S
C10664 C10665 1.366 . S
C10665 C10664 1.366 . S
C10665 C10666 1.414 . S
C10665 C10668 1.499 . S
C10666 H10646 0.950 . S
C10666 C10665 1.414 . S
C10666 C10667 1.374 . S
C10667 H10647 0.950 . S
C10667 C10663 1.385 . S
C10667 C10666 1.374 . S
C10668 C10665 1.499 . S
C10668 C10669 1.373 . S
C10668 C10670 1.389 . S
C10669 H10648 0.950 . S
C10669 C10668 1.373 . S
C10669 C10685 1.377 . S
C10670 C10668 1.389 . S
C10670 C10671 1.524 . S
C10670 C10684 1.377 . S
C10671 C10670 1.524 . S
C10671 C10672 1.397 . S
C10671 C10676 1.363 . S
C10672 H10649 0.950 . S
C10672 C10671 1.397 . S
C10672 C10673 1.334 . S
C10673 H10650 0.950 . S
C10673 C10672 1.334 . S
C10673 C10674 1.287 . S
C10674 C10673 1.287 . S
C10674 C10675 1.524 . S
C10674 H10693 0.913 . S
C10675 H10651 0.950 . S
C10675 C10674 1.524 . S
C10675 C10676 1.415 . S
C10676 H10652 0.950 . S
C10676 C10671 1.363 . S
C10676 C10675 1.415 . S
C10677 H10653 0.951 . S
C10677 C10678 1.366 . S
C10677 C10679 1.388 . S
C10678 C10677 1.366 . S
C10678 C10682 1.385 . S
C10679 H10654 0.951 . S
C10679 C10677 1.388 . S
C10679 C10680 1.366 . S
C10680 C10679 1.366 . S
C10680 C10681 1.414 . S
C10680 C10683 1.499 . S
C10681 H10655 0.950 . S
C10681 C10680 1.414 . S
C10681 C10682 1.374 . S
C10682 H10656 0.950 . S
C10682 C10678 1.385 . S
C10682 C10681 1.374 . S
C10683 C10680 1.499 . S
C10683 C10684 1.373 . S
C10683 C10685 1.389 . S
C10684 H10657 0.950 . S
C10684 C10670 1.377 . S
C10684 C10683 1.373 . S
C10685 C10669 1.377 . S
C10685 C10683 1.389 . S
C10685 C10686 1.524 . S
C10686 C10685 1.524 . S
C10686 C10687 1.397 . S
C10686 C10691 1.363 . S
C10687 H10658 0.950 . S
C10687 C10686 1.397 . S
C10687 C10688 1.334 . S
C10688 H10659 0.950 . S
C10688 C10687 1.334 . S
C10688 C10689 1.287 . S
C10689 C10688 1.287 . S
C10689 C10690 1.524 . S
C10689 H10692 0.999 . S
C10690 H10660 0.950 . S
C10690 C10689 1.524 . S
C10690 C10691 1.415 . S
C10691 H10661 0.950 . S
C10691 C10686 1.363 . S
C10691 C10690 1.415 . S
H10692 C10689 0.999 . S
H10693 C10674 0.913 . S
H10694 C10712 0.951 . S
H10695 C10714 0.951 . S
H10696 C10716 0.950 . S
H10697 C10717 0.950 . S
H10698 C10719 0.950 . S
H10699 C10722 0.950 . S
H10700 C10723 0.950 . S
H10701 C10725 0.950 . S
H10702 C10726 0.950 . S
H10703 C10727 0.951 . S
H10704 C10729 0.951 . S
H10705 C10731 0.950 . S
H10706 C10732 0.950 . S
H10707 C10734 0.950 . S
H10708 C10737 0.950 . S
H10709 C10738 0.950 . S
H10710 C10740 0.950 . S
H10711 C10741 0.950 . S
C10712 H10694 0.951 . S
C10712 C10713 1.366 . S
C10712 C10714 1.388 . S
C10713 C10712 1.366 . S
C10713 C10717 1.385 . S
C10714 H10695 0.951 . S
C10714 C10712 1.388 . S
C10714 C10715 1.366 . S
C10715 C10714 1.366 . S
C10715 C10716 1.414 . S
C10715 C10718 1.499 . S
C10716 H10696 0.950 . S
C10716 C10715 1.414 . S
C10716 C10717 1.374 . S
C10717 H10697 0.950 . S
C10717 C10713 1.385 . S
C10717 C10716 1.374 . S
C10718 C10715 1.499 . S
C10718 C10719 1.373 . S
C10718 C10720 1.389 . S
C10719 H10698 0.950 . S
C10719 C10718 1.373 . S
C10719 C10735 1.377 . S
C10720 C10718 1.389 . S
C10720 C10721 1.524 . S
C10720 C10734 1.377 . S
C10721 C10720 1.524 . S
C10721 C10722 1.397 . S
C10721 C10726 1.363 . S
C10722 H10699 0.950 . S
C10722 C10721 1.397 . S
C10722 C10723 1.334 . S
C10723 H10700 0.950 . S
C10723 C10722 1.334 . S
C10723 C10724 1.287 . S
C10724 C10723 1.287 . S
C10724 C10725 1.524 . S
C10724 H10743 0.913 . S
C10725 H10701 0.950 . S
C10725 C10724 1.524 . S
C10725 C10726 1.415 . S
C10726 H10702 0.950 . S
C10726 C10721 1.363 . S
C10726 C10725 1.415 . S
C10727 H10703 0.951 . S
C10727 C10728 1.366 . S
C10727 C10729 1.388 . S
C10728 C10727 1.366 . S
C10728 C10732 1.385 . S
C10729 H10704 0.951 . S
C10729 C10727 1.388 . S
C10729 C10730 1.366 . S
C10730 C10729 1.366 . S
C10730 C10731 1.414 . S
C10730 C10733 1.499 . S
C10731 H10705 0.950 . S
C10731 C10730 1.414 . S
C10731 C10732 1.374 . S
C10732 H10706 0.950 . S
C10732 C10728 1.385 . S
C10732 C10731 1.374 . S
C10733 C10730 1.499 . S
C10733 C10734 1.373 . S
C10733 C10735 1.389 . S
C10734 H10707 0.950 . S
C10734 C10720 1.377 . S
C10734 C10733 1.373 . S
C10735 C10719 1.377 . S
C10735 C10733 1.389 . S
C10735 C10736 1.524 . S
C10736 C10735 1.524 . S
C10736 C10737 1.397 . S
C10736 C10741 1.363 . S
C10737 H10708 0.950 . S
C10737 C10736 1.397 . S
C10737 C10738 1.334 . S
C10738 H10709 0.950 . S
C10738 C10737 1.334 . S
C10738 C10739 1.287 . S
C10739 C10738 1.287 . S
C10739 C10740 1.524 . S
C10739 H10742 0.999 . S
C10740 H10710 0.950 . S
C10740 C10739 1.524 . S
C10740 C10741 1.415 . S
C10741 H10711 0.950 . S
C10741 C10736 1.363 . S
C10741 C10740 1.415 . S
H10742 C10739 0.999 . S
H10743 C10724 0.913 . S
H10744 C10762 0.951 . S
H10745 C10764 0.951 . S
H10746 C10766 0.950 . S
H10747 C10767 0.950 . S
H10748 C10769 0.950 . S
H10749 C10772 0.950 . S
H10750 C10773 0.950 . S
H10751 C10775 0.950 . S
H10752 C10776 0.950 . S
H10753 C10777 0.951 . S
H10754 C10779 0.951 . S
H10755 C10781 0.950 . S
H10756 C10782 0.950 . S
H10757 C10784 0.950 . S
H10758 C10787 0.950 . S
H10759 C10788 0.950 . S
H10760 C10790 0.950 . S
H10761 C10791 0.950 . S
C10762 H10744 0.951 . S
C10762 C10763 1.366 . S
C10762 C10764 1.388 . S
C10763 C10762 1.366 . S
C10763 C10767 1.385 . S
C10764 H10745 0.951 . S
C10764 C10762 1.388 . S
C10764 C10765 1.366 . S
C10765 C10764 1.366 . S
C10765 C10766 1.414 . S
C10765 C10768 1.499 . S
C10766 H10746 0.950 . S
C10766 C10765 1.414 . S
C10766 C10767 1.374 . S
C10767 H10747 0.950 . S
C10767 C10763 1.385 . S
C10767 C10766 1.374 . S
C10768 C10765 1.499 . S
C10768 C10769 1.373 . S
C10768 C10770 1.389 . S
C10769 H10748 0.950 . S
C10769 C10768 1.373 . S
C10769 C10785 1.377 . S
C10770 C10768 1.389 . S
C10770 C10771 1.524 . S
C10770 C10784 1.377 . S
C10771 C10770 1.524 . S
C10771 C10772 1.397 . S
C10771 C10776 1.363 . S
C10772 H10749 0.950 . S
C10772 C10771 1.397 . S
C10772 C10773 1.334 . S
C10773 H10750 0.950 . S
C10773 C10772 1.334 . S
C10773 C10774 1.287 . S
C10774 C10773 1.287 . S
C10774 C10775 1.524 . S
C10774 H10793 0.913 . S
C10775 H10751 0.950 . S
C10775 C10774 1.524 . S
C10775 C10776 1.415 . S
C10776 H10752 0.950 . S
C10776 C10771 1.363 . S
C10776 C10775 1.415 . S
C10777 H10753 0.951 . S
C10777 C10778 1.366 . S
C10777 C10779 1.388 . S
C10778 C10777 1.366 . S
C10778 C10782 1.385 . S
C10779 H10754 0.951 . S
C10779 C10777 1.388 . S
C10779 C10780 1.366 . S
C10780 C10779 1.366 . S
C10780 C10781 1.414 . S
C10780 C10783 1.499 . S
C10781 H10755 0.950 . S
C10781 C10780 1.414 . S
C10781 C10782 1.374 . S
C10782 H10756 0.950 . S
C10782 C10778 1.385 . S
C10782 C10781 1.374 . S
C10783 C10780 1.499 . S
C10783 C10784 1.373 . S
C10783 C10785 1.389 . S
C10784 H10757 0.950 . S
C10784 C10770 1.377 . S
C10784 C10783 1.373 . S
C10785 C10769 1.377 . S
C10785 C10783 1.389 . S
C10785 C10786 1.524 . S
C10786 C10785 1.524 . S
C10786 C10787 1.397 . S
C10786 C10791 1.363 . S
C10787 H10758 0.950 . S
C10787 C10786 1.397 . S
C10787 C10788 1.334 . S
C10788 H10759 0.950 . S
C10788 C10787 1.334 . S
C10788 C10789 1.287 . S
C10789 C10788 1.287 . S
C10789 C10790 1.524 . S
C10789 H10792 0.999 . S
C10790 H10760 0.950 . S
C10790 C10789 1.524 . S
C10790 C10791 1.415 . S
C10791 H10761 0.950 . S
C10791 C10786 1.363 . S
C10791 C10790 1.415 . S
H10792 C10789 0.999 . S
H10793 C10774 0.913 . S
H10794 C10812 0.952 . S
H10795 C10814 0.949 1_556 S
H10796 C10816 0.950 . S
H10797 C10817 0.950 . S
H10798 C10819 0.950 . S
H10799 C10822 0.950 . S
H10800 C10823 0.950 . S
H10801 C10825 0.950 . S
H10802 C10826 0.950 . S
H10803 C10827 0.952 . S
H10804 C10829 0.949 1_554 S
H10805 C10831 0.950 . S
H10806 C10832 0.950 . S
H10807 C10834 0.950 . S
H10808 C10837 0.950 . S
H10809 C10838 0.950 . S
H10810 C10840 0.950 . S
H10811 C10841 0.950 . S
C10812 H10794 0.952 . S
C10812 C10813 1.366 . S
C10812 C10814 1.389 . S
C10813 C10812 1.366 . S
C10813 C10817 1.385 . S
C10814 H10795 0.949 1_554 S
C10814 C10812 1.389 . S
C10814 C10815 1.367 . S
C10815 C10814 1.367 . S
C10815 C10816 1.414 . S
C10815 C10818 1.513 . S
C10816 H10796 0.950 . S
C10816 C10815 1.414 . S
C10816 C10817 1.374 . S
C10817 H10797 0.950 . S
C10817 C10813 1.385 . S
C10817 C10816 1.374 . S
C10818 C10815 1.513 . S
C10818 C10819 1.450 . S
C10818 C10820 1.308 1_554 S
C10819 H10798 0.950 . S
C10819 C10818 1.450 . S
C10819 C10835 1.377 1_565 S
C10820 C10818 1.308 1_556 S
C10820 C10821 1.524 . S
C10820 C10834 1.377 1_565 S
C10821 C10820 1.524 . S
C10821 C10822 1.397 . S
C10821 C10826 1.363 . S
C10822 H10799 0.950 . S
C10822 C10821 1.397 . S
C10822 C10823 1.334 . S
C10823 H10800 0.950 . S
C10823 C10822 1.334 . S
C10823 C10824 1.287 . S
C10824 C10823 1.287 . S
C10824 C10825 1.524 . S
C10824 H10843 0.913 . S
C10825 H10801 0.950 . S
C10825 C10824 1.524 . S
C10825 C10826 1.415 . S
C10826 H10802 0.950 . S
C10826 C10821 1.363 . S
C10826 C10825 1.415 . S
C10827 H10803 0.952 . S
C10827 C10828 1.366 . S
C10827 C10829 1.389 . S
C10828 C10827 1.366 . S
C10828 C10832 1.385 . S
C10829 H10804 0.949 1_556 S
C10829 C10827 1.389 . S
C10829 C10830 1.367 . S
C10830 C10829 1.367 . S
C10830 C10831 1.414 . S
C10830 C10833 1.513 . S
C10831 H10805 0.950 . S
C10831 C10830 1.414 . S
C10831 C10832 1.374 . S
C10832 H10806 0.950 . S
C10832 C10828 1.385 . S
C10832 C10831 1.374 . S
C10833 C10830 1.513 . S
C10833 C10834 1.450 . S
C10833 C10835 1.308 1_556 S
C10834 H10807 0.950 . S
C10834 C10820 1.377 1_545 S
C10834 C10833 1.450 . S
C10835 C10819 1.377 1_545 S
C10835 C10833 1.308 1_554 S
C10835 C10836 1.524 . S
C10836 C10835 1.524 . S
C10836 C10837 1.397 . S
C10836 C10841 1.363 . S
C10837 H10808 0.950 . S
C10837 C10836 1.397 . S
C10837 C10838 1.334 . S
C10838 H10809 0.950 . S
C10838 C10837 1.334 . S
C10838 C10839 1.287 . S
C10839 C10838 1.287 . S
C10839 C10840 1.524 . S
C10839 H10842 0.999 . S
C10840 H10810 0.950 . S
C10840 C10839 1.524 . S
C10840 C10841 1.415 . S
C10841 H10811 0.950 . S
C10841 C10836 1.363 . S
C10841 C10840 1.415 . S
H10842 C10839 0.999 . S
H10843 C10824 0.913 . S
H10844 C10862 0.951 . S
H10845 C10864 0.951 . S
H10846 C10866 0.950 . S
H10847 C10867 0.950 . S
H10848 C10869 0.950 . S
H10849 C10872 0.950 . S
H10850 C10873 0.950 . S
H10851 C10875 0.950 . S
H10852 C10876 0.950 . S
H10853 C10877 0.951 . S
H10854 C10879 0.951 . S
H10855 C10881 0.950 . S
H10856 C10882 0.950 . S
H10857 C10884 0.950 . S
H10858 C10887 0.950 . S
H10859 C10888 0.950 . S
H10860 C10890 0.950 . S
H10861 C10891 0.950 . S
C10862 H10844 0.951 . S
C10862 C10863 1.366 . S
C10862 C10864 1.388 . S
C10863 C10862 1.366 . S
C10863 C10867 1.385 . S
C10864 H10845 0.951 . S
C10864 C10862 1.388 . S
C10864 C10865 1.366 . S
C10865 C10864 1.366 . S
C10865 C10866 1.414 . S
C10865 C10868 1.499 . S
C10866 H10846 0.950 . S
C10866 C10865 1.414 . S
C10866 C10867 1.374 . S
C10867 H10847 0.950 . S
C10867 C10863 1.385 . S
C10867 C10866 1.374 . S
C10868 C10865 1.499 . S
C10868 C10869 1.373 . S
C10868 C10870 1.389 . S
C10869 H10848 0.950 . S
C10869 C10868 1.373 . S
C10869 C10885 1.377 . S
C10870 C10868 1.389 . S
C10870 C10871 1.524 . S
C10870 C10884 1.377 . S
C10871 C10870 1.524 . S
C10871 C10872 1.397 . S
C10871 C10876 1.363 . S
C10872 H10849 0.950 . S
C10872 C10871 1.397 . S
C10872 C10873 1.334 . S
C10873 H10850 0.950 . S
C10873 C10872 1.334 . S
C10873 C10874 1.287 . S
C10874 C10873 1.287 . S
C10874 C10875 1.524 . S
C10874 H10893 0.913 . S
C10875 H10851 0.950 . S
C10875 C10874 1.524 . S
C10875 C10876 1.415 . S
C10876 H10852 0.950 . S
C10876 C10871 1.363 . S
C10876 C10875 1.415 . S
C10877 H10853 0.951 . S
C10877 C10878 1.366 . S
C10877 C10879 1.388 . S
C10878 C10877 1.366 . S
C10878 C10882 1.385 . S
C10879 H10854 0.951 . S
C10879 C10877 1.388 . S
C10879 C10880 1.366 . S
C10880 C10879 1.366 . S
C10880 C10881 1.414 . S
C10880 C10883 1.499 . S
C10881 H10855 0.950 . S
C10881 C10880 1.414 . S
C10881 C10882 1.374 . S
C10882 H10856 0.950 . S
C10882 C10878 1.385 . S
C10882 C10881 1.374 . S
C10883 C10880 1.499 . S
C10883 C10884 1.373 . S
C10883 C10885 1.389 . S
C10884 H10857 0.950 . S
C10884 C10870 1.377 . S
C10884 C10883 1.373 . S
C10885 C10869 1.377 . S
C10885 C10883 1.389 . S
C10885 C10886 1.524 . S
C10886 C10885 1.524 . S
C10886 C10887 1.397 . S
C10886 C10891 1.363 . S
C10887 H10858 0.950 . S
C10887 C10886 1.397 . S
C10887 C10888 1.334 . S
C10888 H10859 0.950 . S
C10888 C10887 1.334 . S
C10888 C10889 1.287 . S
C10889 C10888 1.287 . S
C10889 C10890 1.524 . S
C10889 H10892 0.999 . S
C10890 H10860 0.950 . S
C10890 C10889 1.524 . S
C10890 C10891 1.415 . S
C10891 H10861 0.950 . S
C10891 C10886 1.363 . S
C10891 C10890 1.415 . S
H10892 C10889 0.999 . S
H10893 C10874 0.913 . S
H10894 C10912 0.951 . S
H10895 C10914 0.951 . S
H10896 C10916 0.950 . S
H10897 C10917 0.950 . S
H10898 C10919 0.950 . S
H10899 C10922 0.950 . S
H10900 C10923 0.950 . S
H10901 C10925 0.950 . S
H10902 C10926 0.950 . S
H10903 C10927 0.951 . S
H10904 C10929 0.951 . S
H10905 C10931 0.950 . S
H10906 C10932 0.950 . S
H10907 C10934 0.950 . S
H10908 C10937 0.950 . S
H10909 C10938 0.950 . S
H10910 C10940 0.950 . S
H10911 C10941 0.950 . S
C10912 H10894 0.951 . S
C10912 C10913 1.366 . S
C10912 C10914 1.388 . S
C10913 C10912 1.366 . S
C10913 C10917 1.385 . S
C10914 H10895 0.951 . S
C10914 C10912 1.388 . S
C10914 C10915 1.366 . S
C10915 C10914 1.366 . S
C10915 C10916 1.414 . S
C10915 C10918 1.499 . S
C10916 H10896 0.950 . S
C10916 C10915 1.414 . S
C10916 C10917 1.374 . S
C10917 H10897 0.950 . S
C10917 C10913 1.385 . S
C10917 C10916 1.374 . S
C10918 C10915 1.499 . S
C10918 C10919 1.373 . S
C10918 C10920 1.389 . S
C10919 H10898 0.950 . S
C10919 C10918 1.373 . S
C10919 C10935 1.377 . S
C10920 C10918 1.389 . S
C10920 C10921 1.524 . S
C10920 C10934 1.377 . S
C10921 C10920 1.524 . S
C10921 C10922 1.397 . S
C10921 C10926 1.363 . S
C10922 H10899 0.950 . S
C10922 C10921 1.397 . S
C10922 C10923 1.334 . S
C10923 H10900 0.950 . S
C10923 C10922 1.334 . S
C10923 C10924 1.287 . S
C10924 C10923 1.287 . S
C10924 C10925 1.524 . S
C10924 H10943 0.913 . S
C10925 H10901 0.950 . S
C10925 C10924 1.524 . S
C10925 C10926 1.415 . S
C10926 H10902 0.950 . S
C10926 C10921 1.363 . S
C10926 C10925 1.415 . S
C10927 H10903 0.951 . S
C10927 C10928 1.366 . S
C10927 C10929 1.388 . S
C10928 C10927 1.366 . S
C10928 C10932 1.385 . S
C10929 H10904 0.951 . S
C10929 C10927 1.388 . S
C10929 C10930 1.366 . S
C10930 C10929 1.366 . S
C10930 C10931 1.414 . S
C10930 C10933 1.499 . S
C10931 H10905 0.950 . S
C10931 C10930 1.414 . S
C10931 C10932 1.374 . S
C10932 H10906 0.950 . S
C10932 C10928 1.385 . S
C10932 C10931 1.374 . S
C10933 C10930 1.499 . S
C10933 C10934 1.373 . S
C10933 C10935 1.389 . S
C10934 H10907 0.950 . S
C10934 C10920 1.377 . S
C10934 C10933 1.373 . S
C10935 C10919 1.377 . S
C10935 C10933 1.389 . S
C10935 C10936 1.524 . S
C10936 C10935 1.524 . S
C10936 C10937 1.397 . S
C10936 C10941 1.363 . S
C10937 H10908 0.950 . S
C10937 C10936 1.397 . S
C10937 C10938 1.334 . S
C10938 H10909 0.950 . S
C10938 C10937 1.334 . S
C10938 C10939 1.287 . S
C10939 C10938 1.287 . S
C10939 C10940 1.524 . S
C10939 H10942 0.999 . S
C10940 H10910 0.950 . S
C10940 C10939 1.524 . S
C10940 C10941 1.415 . S
C10941 H10911 0.950 . S
C10941 C10936 1.363 . S
C10941 C10940 1.415 . S
H10942 C10939 0.999 . S
H10943 C10924 0.913 . S
C1363 C12 0.800 . S
C1378 C452 0.804 . S
C1413 C802 0.804 . S
C1428 C26 0.800 . S
C1463 C480 0.805 . S
C1478 C40 0.798 . S
C1513 C54 0.797 . S
C1528 C830 0.806 . S
C1563 C68 0.799 . S
C1578 C508 0.804 . S
C1613 C82 0.797 . S
C1628 C858 0.806 . S
C1663 C96 0.798 . S
C1678 C536 0.805 . S
C1713 C110 0.798 . S
C1728 C886 0.805 . S
C1763 C900 0.806 . S
C1778 C124 0.797 . S
C1813 C998 0.805 . S
C1828 C138 0.798 . S
C1863 C152 0.799 . S
C1878 C1306 0.804 . S
C1913 C166 0.799 . S
C1928 C984 0.805 . S
C1963 C242 0.804 . S
C1978 C180 0.800 . S
C2013 C194 0.798 . S
C2028 C256 0.806 . S
C2063 C208 0.800 . S
C2078 C270 0.804 . S
C2113 C1292 0.804 . S
C2128 C222 0.799 . S
C2163 C1012 0.804 . S
C2178 C236 0.800 . S
C2213 C250 0.799 . S
C2228 C396 0.805 . S
C2263 C746 0.804 . S
C2278 C264 0.799 . S
C2313 C278 0.799 . S
C2328 C424 0.805 . S
C2363 C438 0.805 . S
C2378 C292 0.799 . S
C2413 C704 0.806 . S
C2428 C306 0.797 . S
C2463 C46 0.805 . S
C2478 C320 0.798 . S
C2513 C18 0.804 . S
C2528 C334 0.800 . S
C2563 C348 0.798 . S
C2578 C116 0.805 . S
C2613 C1138 0.804 . S
C2628 C362 0.800 . S
C2663 C144 0.806 . S
C2678 C376 0.798 . S
C2713 C390 0.799 . S
C2728 C1166 0.805 . S
C2763 C404 0.797 . S
C2778 C172 0.806 . S
C2813 C1194 0.804 . S
C2828 C418 0.799 . S
C2863 C432 0.800 . S
C2878 C200 0.804 . S
C2913 C1222 0.805 . S
C2928 C446 0.798 . S
C2963 C1236 0.806 . S
C2978 C460 0.797 . S
C3013 C474 0.799 . S
C3028 C1334 0.804 . S
C3063 C970 0.805 . S
C3078 C488 0.798 . S
C3113 C1320 0.805 . S
C3128 C502 0.798 . S
C3163 C516 0.800 . S
C3178 C578 0.804 . S
C3213 C592 0.805 . S
C3228 C530 0.799 . S
C3263 C606 0.806 . S
C3278 C544 0.797 . S
C3313 C558 0.800 . S
C3328 C956 0.804 . S
C3363 C676 0.804 . S
C3378 C572 0.800 . S
C3413 C586 0.798 . S
C3428 C60 0.806 . S
C3463 C1082 0.806 . S
C3478 C600 0.798 . S
C3513 C88 0.805 . S
C3528 C614 0.798 . S
C3563 C628 0.799 . S
C3578 C102 0.805 . S
C3613 C1040 0.805 . S
C3628 C642 0.798 . S
C3663 C382 0.806 . S
C3678 C656 0.797 . S
C3713 C354 0.805 . S
C3728 C670 0.798 . S
C3763 C1124 0.804 . S
C3778 C684 0.800 . S
C3813 C130 0.805 . S
C3828 C698 0.799 . S
C3863 C1152 0.805 . S
C3878 C712 0.798 . S
C3913 C726 0.800 . S
C3928 C158 0.804 . S
C3963 C1180 0.804 . S
C3978 C740 0.800 . S
C4013 C754 0.799 . S
C4028 C186 0.805 . S
C4063 C768 0.799 . S
C4078 C1208 0.804 . S
C4113 C782 0.798 . S
C4128 C214 0.805 . S
C4163 C228 0.806 . S
C4178 C796 0.797 . S
C4213 C810 0.799 . S
C4228 C326 0.804 . S
C4263 C824 0.800 . S
C4278 C634 0.804 . S
C4313 C312 0.806 . S
C4328 C838 0.797 . S
C4363 C852 0.800 . S
C4378 C914 0.804 . S
C4413 C928 0.806 . S
C4428 C866 0.797 . S
C4463 C942 0.806 . S
C4478 C880 0.798 . S
C4513 C894 0.800 . S
C4528 C620 0.804 . S
C4563 C908 0.799 . S
C4578 C340 0.805 . S
C4613 C1068 0.805 . S
C4628 C922 0.798 . S
C4663 C936 0.798 . S
C4678 C74 0.806 . S
C4713 C950 0.798 . S
C4728 C1096 0.805 . S
C4763 C1110 0.805 . S
C4778 C964 0.798 . S
C4813 C32 0.805 . S
C4828 C978 0.799 . S
C4863 C992 0.798 . S
C4878 C718 0.806 . S
C4913 C1006 0.800 . S
C4928 C690 0.804 . S
C4963 C788 0.805 . S
C4978 C1020 0.799 . S
C5013 C466 0.806 . S
C5028 C1034 0.798 . S
C5063 C816 0.806 . S
C5078 C1048 0.798 . S
C5113 C1062 0.800 . S
C5128 C494 0.804 . S
C5163 C1076 0.798 . S
C5178 C844 0.806 . S
C5213 C522 0.805 . S
C5228 C1090 0.798 . S
C5263 C872 0.806 . S
C5278 C1104 0.798 . S
C5313 C550 0.804 . S
C5328 C1118 0.800 . S
C5363 C1132 0.799 . S
C5378 C564 0.805 . S
C5413 C662 0.805 . S
C5428 C1146 0.798 . S
C5463 C298 0.805 . S
C5478 C1160 0.798 . S
C5513 C1174 0.799 . S
C5528 C648 0.804 . S
C5563 C1250 0.804 . S
C5578 C1188 0.799 . S
C5613 C1264 0.805 . S
C5628 C1202 0.798 . S
C5663 C1216 0.799 . S
C5678 C1278 0.805 . S
C5713 C1230 0.800 . S
C5728 C284 0.804 . S
C5763 C4 0.805 . S
C5778 C1244 0.799 . S
C5813 C732 0.805 . S
C5828 C1258 0.798 . S
C5863 C1272 0.800 . S
C5878 C410 0.804 . S
C5913 C1286 0.799 . S
C5928 C760 0.804 . S
C5963 C774 0.805 . S
C5978 C1300 0.798 . S
C6013 C368 0.804 . S
C6028 C1314 0.800 . S
C6063 C1054 0.804 . S
C6078 C1328 0.800 . S
C6113 C1026 0.805 . S
C6128 C1342 0.798 . S
C6163 C1229 1.126 . S
C6178 C11 1.126 . S
C6213 C25 1.125 . S
C6228 C1187 1.127 . S
C6263 C39 1.125 . S
C6278 C1201 1.127 . S
C6313 C53 1.125 . S
C6328 C1215 1.127 . S
C6363 C137 1.127 . S
C6378 C67 1.125 . S
C6413 C81 1.125 . S
C6428 C151 1.127 . S
C6463 C95 1.126 . S
C6478 C165 1.126 . S
C6513 C109 1.127 . S
C6528 C123 1.126 . S
C6563 C179 1.125 . S
C6578 C1033 1.127 . S
C6613 C193 1.127 . S
C6628 C1047 1.125 . S
C6663 C207 1.127 . S
C6678 C1061 1.125 . S
C6713 C1019 1.127 . S
C6728 C221 1.126 . S
C6763 C1299 1.126 . S
C6778 C235 1.127 . S
C6813 C249 1.127 . S
C6828 C1341 1.125 . S
C6863 C263 1.127 . S
C6878 C641 1.126 . S
C6913 C1327 1.126 . S
C6928 C277 1.126 . S
C6963 C291 1.125 . S
C6978 C1243 1.127 . S
C7013 C305 1.127 . S
C7028 C599 1.125 . S
C7063 C319 1.126 . S
C7078 C1285 1.127 . S
C7113 C333 1.125 . S
C7128 C1257 1.127 . S
C7163 C893 1.127 . S
C7178 C347 1.126 . S
C7213 C361 1.127 . S
C7228 C851 1.125 . S
C7263 C865 1.127 . S
C7278 C375 1.125 . S
C7313 C389 1.126 . S
C7328 C879 1.126 . S
C7363 C403 1.127 . S
C7378 C473 1.125 . S
C7413 C417 1.127 . S
C7428 C487 1.126 . S
C7463 C501 1.127 . S
C7478 C431 1.126 . S
C7513 C445 1.127 . S
C7528 C459 1.126 . S
C7563 C697 1.127 . S
C7578 C515 1.126 . S
C7613 C711 1.126 . S
C7628 C529 1.127 . S
C7663 C725 1.125 . S
C7678 C543 1.127 . S
C7713 C683 1.127 . S
C7728 C557 1.126 . S
C7763 C571 1.127 . S
C7778 C963 1.126 . S
C7813 C585 1.125 . S
C7828 C1005 1.127 . S
C7863 C991 1.127 . S
C7878 C613 1.125 . S
C7913 C627 1.125 . S
C7928 C907 1.127 . S
C7963 C655 1.127 . S
C7978 C949 1.127 . S
C8013 C669 1.126 . S
C8028 C921 1.127 . S
C8063 C739 1.126 . S
C8078 C809 1.127 . S
C8113 C753 1.127 . S
C8128 C823 1.126 . S
C8163 C767 1.127 . S
C8178 C837 1.126 . S
C8213 C781 1.125 . S
C8228 C795 1.127 . S
C8263 C1313 1.127 . S
C8278 C935 1.125 . S
C8313 C1271 1.127 . S
C8328 C977 1.126 . S
C8363 C1075 1.125 . S
C8378 C1145 1.127 . S
C8413 C1089 1.125 . S
C8428 C1159 1.127 . S
C8463 C1173 1.127 . S
C8478 C1103 1.125 . S
C8513 C1117 1.126 . S
C8528 C1131 1.127 . S
C8563 C369 1.463 . S
C8578 C5 1.462 . S
C8613 C19 1.463 . S
C8628 C719 1.463 . S
C8663 C33 1.463 . S
C8678 C341 1.463 . S
C8713 C691 1.463 . S
C8728 C47 1.462 . S
C8763 C61 1.463 . S
C8778 C425 1.463 . S
C8813 C75 1.463 . S
C8828 C775 1.463 . S
C8863 C89 1.463 . S
C8878 C397 1.463 . S
C8913 C103 1.463 . S
C8928 C747 1.463 . S
C8963 C117 1.463 . S
C8978 C173 1.463 . S
C9013 C187 1.463 . S
C9028 C131 1.463 . S
C9063 C145 1.463 . S
C9078 C201 1.463 . S
C9113 C159 1.463 . S
C9128 C215 1.463 . S
C9163 C229 1.463 . S
C9178 C1279 1.463 . S
C9213 C971 1.463 . S
C9228 C243 1.463 . S
C9263 C313 1.463 . S
C9278 C257 1.462 . S
C9313 C1237 1.463 . S
C9328 C271 1.463 . S
C9363 C1335 1.463 . S
C9378 C285 1.463 . S
C9413 C299 1.463 . S
C9428 C915 1.463 . S
C9463 C1293 1.463 . S
C9478 C327 1.463 . S
C9513 C355 1.463 . S
C9528 C1055 1.462 . S
C9563 C1027 1.463 . S
C9578 C383 1.463 . S
C9613 C411 1.463 . S
C9628 C1111 1.463 . S
C9663 C439 1.463 . S
C9678 C1083 1.463 . S
C9713 C509 1.463 . S
C9728 C453 1.463 . S
C9763 C523 1.463 . S
C9778 C467 1.463 . S
C9813 C537 1.463 . S
C9828 C481 1.463 . S
C9863 C551 1.463 . S
C9878 C495 1.463 . S
C9913 C943 1.462 . S
C9928 C565 1.462 . S
C9963 C1307 1.463 . S
C9978 C579 1.463 . S
C10013 C593 1.463 . S
C10028 C649 1.463 . S
C10063 C607 1.463 . S
C10078 C901 1.463 . S
C10113 C621 1.463 . S
C10128 C999 1.463 . S
C10163 C635 1.463 . S
C10178 C1251 1.463 . S
C10213 C663 1.462 . S
C10228 C957 1.462 . S
C10263 C1041 1.463 . S
C10278 C677 1.463 . S
C10313 C705 1.463 . S
C10328 C1013 1.463 . S
C10363 C1097 1.462 . S
C10378 C733 1.463 . S
C10413 C1069 1.463 . S
C10428 C761 1.462 . S
C10463 C845 1.463 . S
C10478 C789 1.463 . S
C10513 C803 1.463 . S
C10528 C859 1.463 . S
C10563 C817 1.462 . S
C10578 C873 1.462 . S
C10613 C887 1.463 . S
C10628 C831 1.463 . S
C10663 C985 1.463 . S
C10678 C929 1.463 . S
C10713 C1125 1.463 . S
C10728 C1181 1.463 . S
C10763 C1139 1.463 . S
C10778 C1195 1.463 . S
C10813 C1153 1.463 . S
C10828 C1209 1.463 . S
C10863 C1223 1.463 . S
C10878 C1167 1.463 . S
C10913 C1321 1.463 . S
C10928 C1265 1.463 . S
