# Generated by pormake.
# Topology msp, (4)-cn, num edge types: 1
# Building blocks:
#     Node 0, Type 0, BuildingBlock: MUDLON_clean_sbu_0, # of connection points: 4
#     Node 1, Type 0, BuildingBlock: MUDLON_clean_sbu_0, # of connection points: 4
#     Node 2, Type 0, BuildingBlock: MUDLON_clean_sbu_0, # of connection points: 4
#     Node 3, Type 0, BuildingBlock: MUDLON_clean_sbu_0, # of connection points: 4
#     Node 4, Type 0, BuildingBlock: MUDLON_clean_sbu_0, # of connection points: 4
#     Node 5, Type 0, BuildingBlock: MUDLON_clean_sbu_0, # of connection points: 4
#     Node 6, Type 0, BuildingBlock: MUDLON_clean_sbu_0, # of connection points: 4
#     Node 7, Type 0, BuildingBlock: MUDLON_clean_sbu_0, # of connection points: 4
#     Edge 8, Type (0, 0), BuildingBlock: XUDNAN_clean_linker_2, # of connection points: 2
#     Edge 9, Type (0, 0), BuildingBlock: XUDNAN_clean_linker_2, # of connection points: 2
#     Edge 10, Type (0, 0), BuildingBlock: XUDNAN_clean_linker_2, # of connection points: 2
#     Edge 11, Type (0, 0), BuildingBlock: XUDNAN_clean_linker_2, # of connection points: 2
#     Edge 12, Type (0, 0), BuildingBlock: XUDNAN_clean_linker_2, # of connection points: 2
#     Edge 13, Type (0, 0), BuildingBlock: XUDNAN_clean_linker_2, # of connection points: 2
#     Edge 14, Type (0, 0), BuildingBlock: XUDNAN_clean_linker_2, # of connection points: 2
#     Edge 15, Type (0, 0), BuildingBlock: XUDNAN_clean_linker_2, # of connection points: 2
#     Edge 16, Type (0, 0), BuildingBlock: XUDNAN_clean_linker_2, # of connection points: 2
#     Edge 17, Type (0, 0), BuildingBlock: XUDNAN_clean_linker_2, # of connection points: 2
#     Edge 18, Type (0, 0), BuildingBlock: XUDNAN_clean_linker_2, # of connection points: 2
#     Edge 19, Type (0, 0), BuildingBlock: XUDNAN_clean_linker_2, # of connection points: 2
#     Edge 20, Type (0, 0), BuildingBlock: XUDNAN_clean_linker_2, # of connection points: 2
#     Edge 21, Type (0, 0), BuildingBlock: XUDNAN_clean_linker_2, # of connection points: 2
#     Edge 22, Type (0, 0), BuildingBlock: XUDNAN_clean_linker_2, # of connection points: 2
#     Edge 23, Type (0, 0), BuildingBlock: XUDNAN_clean_linker_2, # of connection points: 2
# Relax obj value: 0.165
# Max RMSD: 0.252
# Mean RMSD: 0.252
data_MOF--net-msp--node1-MUDLON_clean_sbu_0--edge1-XUDNAN_clean_linker_2
_symmetry_space_group_name_H-M    P1
_symmetry_Int_Tables_number       1
_symmetry_cell_setting            triclinic
loop_
_symmetry_equiv_pos_as_xyz
'x, y, z'
_cell_length_a     24.460871
_cell_length_b     24.463529
_cell_length_c     41.786767
_cell_angle_alpha  90.35962
_cell_angle_beta   100.82306
_cell_angle_gamma 89.978792
loop_
_atom_site_label
_atom_site_type_symbol
_atom_site_fract_x
_atom_site_fract_y
_atom_site_fract_z
_atom_type_partial_charge
Mg0 Mg 0.05772 0.32744 0.38949 0.0
C1 C 0.11634 0.30947 0.33379 0.0
O2 O 0.08048 0.26895 0.33057 0.0
C3 C 1.01254 0.37537 0.4424 0.0
O4 O 1.0008 0.32288 0.44154 0.0
C5 C 0.96756 0.24485 0.35623 0.0
O6 O 1.00362 0.20862 0.37048 0.0
O7 O 0.97902 0.29539 0.36068 0.0
O8 O 0.11488 0.345 0.35609 0.0
O9 O 0.1064 0.27617 0.4276 0.0
C10 C 0.15417 0.25733 0.42544 0.0
O11 O 0.17058 0.25939 0.39732 0.0
O12 O 0.03669 0.39432 0.42032 0.0
Mg13 Mg 0.50586 0.26269 0.64082 0.0
C14 C 0.4292 0.21188 0.68035 0.0
O15 O 0.46188 0.17084 0.67618 0.0
C16 C 0.53799 0.34313 0.59316 0.0
O17 O 0.58717 0.32419 0.6066 0.0
C18 C 0.58343 0.29021 0.70502 0.0
O19 O 0.53512 0.30383 0.71214 0.0
O20 O 0.58462 0.27278 0.67636 0.0
O21 O 0.43729 0.25787 0.66793 0.0
O22 O 0.51221 0.18567 0.61505 0.0
C23 C 0.48499 0.16433 0.58889 0.0
O24 O 0.50301 0.11779 0.57894 0.0
O25 O 0.49533 0.32624 0.60357 0.0
Mg26 Mg 0.96195 0.71009 0.67402 0.0
C27 C 0.89571 0.731 0.7283 0.0
O28 O 0.91449 0.78085 0.72595 0.0
C29 C 0.97702 0.64339 0.61505 0.0
O30 O 0.98076 0.69312 0.60399 0.0
C31 C 0.08463 0.74181 0.68399 0.0
O32 O 0.07444 0.73501 0.65222 0.0
O33 O 0.0449 0.73588 0.69943 0.0
O34 O 0.90948 0.69345 0.71005 0.0
O35 O 0.91899 0.76688 0.63762 0.0
C36 C 0.86776 0.77813 0.63613 0.0
O37 O 0.84298 0.7619 0.65967 0.0
O38 O 0.97002 0.63722 0.64433 0.0
Mg39 Mg 0.57092 0.69118 0.36954 0.0
C40 C 0.64936 0.72141 0.32572 0.0
O41 O 0.62125 0.76696 0.32677 0.0
C42 C 0.5839 0.59879 0.41888 0.0
O43 O 0.63377 0.6205 0.42665 0.0
C44 C 0.44846 0.72072 0.34063 0.0
O45 O 0.44049 0.71233 0.37044 0.0
O46 O 0.49743 0.71692 0.33461 0.0
O47 O 0.63683 0.68008 0.34133 0.0
O48 O 0.60249 0.74881 0.40885 0.0
C49 C 0.65508 0.75012 0.41851 0.0
O50 O 0.68654 0.72142 0.40243 0.0
O51 O 0.54997 0.61792 0.39466 0.0
Mg52 Mg 0.5222 0.77506 0.89843 0.0
C53 C 0.60582 0.72665 0.86353 0.0
O54 O 0.57521 0.68494 0.86912 0.0
C55 C 0.49184 0.83097 0.95621 0.0
O56 O 0.46547 0.78398 0.95479 0.0
C57 C 0.4481 0.78453 0.83186 0.0
O58 O 0.49697 0.79531 0.82468 0.0
O59 O 0.44521 0.77508 0.86144 0.0
O60 O 0.59387 0.77385 0.87329 0.0
O61 O 0.52616 0.69843 0.9258 0.0
C62 C 0.56216 0.67701 0.94841 0.0
O63 O 0.55058 0.62892 0.9593 0.0
O64 O 0.52021 0.84127 0.93429 0.0
Mg65 Mg 0.99149 0.82126 0.14365 0.0
C66 C 0.93529 0.77378 0.19107 0.0
O67 O 0.96193 0.73467 0.17868 0.0
C68 C 0.03852 0.8788 0.09608 0.0
O69 O 0.05245 0.82695 0.09546 0.0
C70 C 0.08999 0.79259 0.19514 0.0
O71 O 0.05941 0.82103 0.21192 0.0
O72 O 0.07135 0.78363 0.16498 0.0
O73 O 0.93991 0.82246 0.18117 0.0
O74 O 0.93759 0.77792 0.10393 0.0
C75 C 0.9024 0.81119 0.08834 0.0
O76 O 0.90363 0.86242 0.09805 0.0
O77 O 1.01206 0.89437 0.11806 0.0
Mg78 Mg 0.49847 0.21703 0.16569 0.0
C79 C 0.40203 0.21153 0.20557 0.0
O80 O 0.38748 0.16609 0.18926 0.0
C81 C 0.51119 0.12814 0.1191 0.0
O82 O 0.53916 0.16904 0.10977 0.0
C83 C 0.60759 0.18571 0.20588 0.0
O84 O 0.57767 0.14076 0.20361 0.0
O85 O 0.58581 0.22803 0.19097 0.0
O86 O 0.44525 0.23708 0.20102 0.0
O87 O 0.46633 0.26705 0.12286 0.0
C88 C 0.41471 0.25783 0.11236 0.0
O89 O 0.389 0.22389 0.12876 0.0
O90 O 0.489 0.13476 0.14416 0.0
Mg91 Mg 0.06854 0.21818 0.8667 0.0
C92 C 0.13288 0.23013 0.81067 0.0
O93 O 0.11031 0.27903 0.80886 0.0
C94 C 0.04787 0.15123 0.92403 0.0
O95 O 0.0402 0.20052 0.93503 0.0
C96 C 0.94773 0.26095 0.8544 0.0
O97 O 0.95771 0.26314 0.88639 0.0
O98 O 0.98667 0.24582 0.83996 0.0
O99 O 0.12168 0.19668 0.83179 0.0
O100 O 0.11613 0.27173 0.9043 0.0
C101 C 0.16514 0.28776 0.90276 0.0
O102 O 0.18381 0.28012 0.87562 0.0
O103 O 0.05803 0.14576 0.89534 0.0
H104 H 1.02449 0.48777 0.45256 0.0
H105 H 0.97642 0.33872 0.49609 0.0
H106 H 0.96222 0.39068 0.5443 0.0
H107 H 0.09849 0.54895 0.52607 0.0
H108 H 0.07456 0.61749 0.51592 0.0
H109 H 0.08016 0.56916 0.484 0.0
H110 H 0.97647 0.58495 0.45832 0.0
H111 H 0.97064 0.6335 0.49012 0.0
H112 H 0.92398 0.57588 0.4829 0.0
H113 H 0.95682 0.45716 0.58915 0.0
H114 H 0.95537 0.53588 0.62631 0.0
H115 H 1.00361 0.64309 0.55394 0.0
C116 C 1.01067 0.4662 0.47216 0.0
C117 C 1.00172 0.40898 0.47038 0.0
C118 C 0.98356 0.38243 0.49664 0.0
C119 C 0.97541 0.41158 0.52429 0.0
C120 C 0.98504 0.46761 0.52546 0.0
C121 C 1.0017 0.49492 0.50003 0.0
C122 C 1.00868 0.55558 0.50769 0.0
C123 C 0.06907 0.57385 0.50847 0.0
C124 C 0.96749 0.58947 0.48331 0.0
C125 C 0.99415 0.55765 0.54147 0.0
C126 C 0.98075 0.50639 0.55125 0.0
C127 C 0.96691 0.49764 0.58172 0.0
C128 C 0.96637 0.54258 0.60272 0.0
C129 C 0.97928 0.59572 0.59313 0.0
C130 C 0.99335 0.60306 0.56203 0.0
H131 H 0.64848 0.54474 0.46971 0.0
H132 H 0.47836 0.55857 0.41708 0.0
H133 H 0.44761 0.49472 0.45583 0.0
H134 H 0.64192 0.40015 0.48873 0.0
H135 H 0.68562 0.408 0.52833 0.0
H136 H 0.69394 0.45328 0.49575 0.0
H137 H 0.67982 0.53664 0.53189 0.0
H138 H 0.67096 0.49164 0.56446 0.0
H139 H 0.61776 0.54089 0.5492 0.0
H140 H 0.43496 0.43255 0.50257 0.0
H141 H 0.44264 0.37275 0.55078 0.0
H142 H 0.62135 0.39872 0.57173 0.0
C143 C 0.6048 0.53401 0.46608 0.0
C144 C 0.56586 0.55677 0.44027 0.0
C145 C 0.50907 0.54155 0.43652 0.0
C146 C 0.49116 0.50544 0.45851 0.0
C147 C 0.53055 0.48452 0.484 0.0
C148 C 0.5863 0.49783 0.48763 0.0
C149 C 0.62033 0.47002 0.51709 0.0
C150 C 0.66296 0.43051 0.50685 0.0
C151 C 0.64888 0.51233 0.54213 0.0
C152 C 0.575 0.43938 0.52972 0.0
C153 C 0.52344 0.44834 0.51041 0.0
C154 C 0.47521 0.42506 0.51773 0.0
C155 C 0.47993 0.39135 0.54526 0.0
C156 C 0.53256 0.38098 0.56508 0.0
C157 C 0.58051 0.4056 0.55707 0.0
H158 H 0.5541 0.10385 0.06452 0.0
H159 H 0.4507 0.03673 0.12854 0.0
H160 H 0.43536 0.95359 0.09399 0.0
H161 H 0.47332 0.05469 0.98983 0.0
H162 H 0.53255 0.03984 0.97129 0.0
H163 H 0.5368 0.09325 1.00151 0.0
H164 H 0.62325 0.04675 0.03594 0.0
H165 H 0.61942 0.99328 1.00575 0.0
H166 H 0.61901 0.97628 0.04762 0.0
H167 H 0.42953 0.87888 0.05168 0.0
H168 H 0.4347 0.81697 1.0057 0.0
H169 H 0.54232 0.93243 0.96886 0.0
C170 C 0.52846 0.07159 0.07147 0.0
C171 C 0.50363 0.07691 0.09939 0.0
C172 C 0.47028 0.03365 0.10741 0.0
C173 C 0.46129 0.98629 0.08788 0.0
C174 C 0.48602 0.98269 0.06042 0.0
C175 C 0.51912 0.02409 0.05228 0.0
C176 C 0.54044 0.0103 0.02132 0.0
C177 C 0.51951 0.052 0.9944 0.0
C178 C 0.60432 0.00642 0.02807 0.0
C179 C 0.51388 0.9547 1.01312 0.0
C180 C 0.48272 0.93961 0.03604 0.0
C181 C 0.45392 0.89027 0.03367 0.0
C182 C 0.45713 0.85535 1.00734 0.0
C183 C 0.48892 0.86965 0.9835 0.0
C184 C 0.51764 0.9202 0.98657 0.0
H185 H 1.01053 0.98848 0.08514 0.0
H186 H 0.08734 0.85002 0.04523 0.0
H187 H 0.09678 0.90412 0.99738 0.0
H188 H 0.93299 0.0372 1.00983 0.0
H189 H 0.94429 0.10873 0.01944 0.0
H190 H 0.94449 0.0601 0.05165 0.0
H191 H 0.04287 0.09253 0.07954 0.0
H192 H 0.04271 0.14164 0.04756 0.0
H193 H 0.09839 0.09262 0.05661 0.0
H194 H 0.09349 0.97011 0.95217 0.0
H195 H 0.08536 0.04812 0.91445 0.0
H196 H 1.01449 0.14636 0.98339 0.0
C197 C 0.02988 0.96984 0.0665 0.0
C198 C 0.04799 0.91477 0.06908 0.0
C199 C 0.07298 0.89197 0.04402 0.0
C200 C 0.07851 0.92235 1.01656 0.0
C201 C 0.05941 0.97593 1.01443 0.0
C202 C 0.03633 -5e-05 0.03883 0.0
C203 C 1.01964 0.05863 0.0302 0.0
C204 C 0.95661 0.06661 0.02763 0.0
C205 C 0.05289 0.09872 0.05495 0.0
C206 C 0.03634 0.06325 0.99707 0.0
C207 C 0.0589 0.01488 0.98844 0.0
C208 C 0.07628 0.00843 0.95872 0.0
C209 C 0.07124 0.05292 0.93737 0.0
C210 C 0.04941 0.10343 0.9459 0.0
C211 C 0.03154 0.10837 0.97616 0.0
H212 H 0.67489 0.27434 0.23045 0.0
H213 H 0.66883 0.0969 0.22885 0.0
H214 H 0.75934 0.09363 0.26606 0.0
H215 H 0.8257 0.28623 0.23429 0.0
H216 H 0.83326 0.34401 0.26175 0.0
H217 H 0.76865 0.33316 0.23363 0.0
H218 H 0.71554 0.33432 0.2817 0.0
H219 H 0.78 0.34485 0.30997 0.0
H220 H 0.7359 0.28782 0.31512 0.0
H221 H 0.84854 0.10811 0.30476 0.0
H222 H 0.9329 0.13992 0.34194 0.0
H223 H 0.88404 0.30833 0.32006 0.0
C224 C 0.693 0.23487 0.23763 0.0
C225 C 0.66443 0.18584 0.22654 0.0
C226 C 0.68947 0.13507 0.23691 0.0
C227 C 0.74109 0.1327 0.25811 0.0
C228 C 0.76768 0.18145 0.269 0.0
C229 C 0.74484 0.23167 0.25911 0.0
C230 C 0.78216 0.27771 0.27532 0.0
C231 C 0.80372 0.31232 0.24972 0.0
C232 C 0.75156 0.31327 0.2968 0.0
C233 C 0.82909 0.24536 0.29589 0.0
C234 C 0.8197 0.1899 0.29172 0.0
C235 C 0.85649 0.15147 0.30816 0.0
C236 C 0.90439 0.17003 0.32934 0.0
C237 C 0.91548 0.22666 0.3341 0.0
C238 C 0.87697 0.26475 0.31706 0.0
H239 H 0.69208 0.26075 0.70121 0.0
H240 H 0.59108 0.326 0.76762 0.0
H241 H 0.67337 0.32845 0.81161 0.0
H242 H 0.77709 0.17409 0.75889 0.0
H243 H 0.84038 0.18631 0.74385 0.0
H244 H 0.77405 0.19151 0.71673 0.0
H245 H 0.79801 0.29011 0.70186 0.0
H246 H 0.86448 0.28519 0.72894 0.0
H247 H 0.81755 0.34013 0.73383 0.0
H248 H 0.76488 0.32088 0.84928 0.0
H249 H 0.86063 0.30428 0.87831 0.0
H250 H 0.90522 0.24469 0.78852 0.0
C251 C 0.68739 0.27596 0.72493 0.0
C252 C 0.63473 0.29327 0.73077 0.0
C253 C 0.63063 0.31257 0.76231 0.0
C254 C 0.67728 0.31418 0.78758 0.0
C255 C 0.72827 0.29656 0.78113 0.0
C256 C 0.73387 0.27797 0.75062 0.0
C257 C 0.79362 0.26048 0.75067 0.0
C258 C 0.79643 0.19947 0.74203 0.0
C259 C 0.81997 0.29611 0.72745 0.0
C260 C 0.82031 0.27148 0.78605 0.0
C261 C 0.7817 0.29248 0.80305 0.0
C262 C 0.79559 0.30477 0.83618 0.0
C263 C 0.85025 0.2951 0.8525 0.0
C264 C 0.89085 0.27334 0.83582 0.0
C265 C 0.87547 0.26179 0.80199 0.0
H266 H 0.12507 0.74545 0.75054 0.0
H267 H 0.1754 0.76323 0.65684 0.0
H268 H 0.27228 0.77804 0.68469 0.0
H269 H 0.22029 0.848 0.79395 0.0
H270 H 0.23461 0.80946 0.83121 0.0
H271 H 0.16835 0.80237 0.80412 0.0
H272 H 0.18331 0.69775 0.80144 0.0
H273 H 0.24965 0.70453 0.82844 0.0
H274 H 0.24537 0.67181 0.78927 0.0
H275 H 0.3638 0.78874 0.72199 0.0
H276 H 0.44504 0.79434 0.7666 0.0
H277 H 0.33768 0.76867 0.83701 0.0
C278 C 0.15638 0.75298 0.7359 0.0
C279 C 0.14235 0.75333 0.7014 0.0
C280 C 0.18482 0.76283 0.68322 0.0
C281 C 0.2401 0.77134 0.69883 0.0
C282 C 0.25259 0.77026 0.73273 0.0
C283 C 0.21209 0.76142 0.75114 0.0
C284 C 0.23733 0.76107 0.78728 0.0
C285 C 0.21374 0.80802 0.80519 0.0
C286 C 0.22838 0.70547 0.80249 0.0
C287 C 0.29836 0.77048 0.7862 0.0
C288 C 0.30596 0.77599 0.75444 0.0
C289 C 0.35837 0.78468 0.74698 0.0
C290 C 0.40435 0.78781 0.77259 0.0
C291 C 0.39801 0.78202 0.80544 0.0
C292 C 0.34405 0.7733 0.81222 0.0
H293 H 0.34075 0.74684 0.34526 0.0
H294 H 0.44727 0.71587 0.27494 0.0
H295 H 0.36667 0.72719 0.23006 0.0
H296 H 0.21905 0.67776 0.30214 0.0
H297 H 0.17102 0.72734 0.31299 0.0
H298 H 0.23689 0.71602 0.33967 0.0
H299 H 0.26036 0.8191 0.33772 0.0
H300 H 0.1944 0.83079 0.31125 0.0
H301 H 0.25797 0.85144 0.29883 0.0
H302 H 0.27317 0.73957 0.19258 0.0
H303 H 0.17639 0.76042 0.16573 0.0
H304 H 0.13227 0.78672 0.26049 0.0
C305 C 0.34719 0.74249 0.32043 0.0
C306 C 0.40042 0.73028 0.31369 0.0
C307 C 0.407 0.72532 0.28079 0.0
C308 C 0.36137 0.73143 0.25509 0.0
C309 C 0.3094 0.74294 0.26259 0.0
C310 C 0.30223 0.74905 0.29446 0.0
C311 C 0.24239 0.76307 0.29593 0.0
C312 C 0.21579 0.71838 0.31373 0.0
C313 C 0.23858 0.81945 0.31187 0.0
C314 C 0.21704 0.76392 0.25993 0.0
C315 C 0.25617 0.75162 0.24107 0.0
C316 C 0.24224 0.74945 0.20713 0.0
C317 C 0.18711 0.7611 0.19208 0.0
C318 C 0.14677 0.77535 0.21096 0.0
C319 C 0.16214 0.7762 0.24533 0.0
H320 H 0.30127 0.17328 0.21638 0.0
H321 H 0.42122 0.30404 0.24362 0.0
H322 H 0.3601 0.34557 0.27789 0.0
H323 H 0.17864 0.25618 0.21135 0.0
H324 H 0.13971 0.20446 0.22795 0.0
H325 H 0.19306 0.18485 0.20574 0.0
H326 H 0.24221 0.12815 0.25504 0.0
H327 H 0.18877 0.14723 0.27729 0.0
H328 H 0.2608 0.16061 0.29445 0.0
H329 H 0.28508 0.37279 0.30975 0.0
H330 H 0.20438 0.38116 0.33747 0.0
H331 H 0.13371 0.23334 0.28845 0.0
C332 C 0.31491 0.21052 0.22963 0.0
C333 C 0.36625 0.23525 0.22727 0.0
C334 C 0.38219 0.28417 0.24499 0.0
C335 C 0.34765 0.3082 0.2645 0.0
C336 C 0.29711 0.283 0.26604 0.0
C337 C 0.28089 0.23515 0.24913 0.0
C338 C 0.22472 0.21604 0.25501 0.0
C339 C 0.18149 0.21537 0.22311 0.0
C340 C 0.22943 0.15968 0.27143 0.0
C341 C 0.21196 0.26042 0.27798 0.0
C342 C 0.25407 0.29881 0.28404 0.0
C343 C 0.25179 0.34301 0.30507 0.0
C344 C 0.20568 0.34756 0.32063 0.0
C345 C 0.16245 0.30814 0.3151 0.0
C346 C 0.16572 0.26447 0.29314 0.0
H347 H 0.35569 0.28854 0.6967 0.0
H348 H 0.40082 0.11698 0.70712 0.0
H349 H 0.32788 0.10255 0.73957 0.0
H350 H 0.32893 0.30726 0.7773 0.0
H351 H 0.27067 0.35253 0.76522 0.0
H352 H 0.32517 0.3493 0.74168 0.0
H353 H 0.25233 0.32665 0.68982 0.0
H354 H 0.19759 0.32977 0.71323 0.0
H355 H 0.20632 0.26914 0.68997 0.0
H356 H 0.2525 0.10682 0.77259 0.0
H357 H 0.17948 0.12987 0.80394 0.0
H358 H 0.18182 0.29827 0.77198 0.0
C359 C 0.35001 0.24789 0.70565 0.0
C360 C 0.38415 0.20391 0.69928 0.0
C361 C 0.37539 0.1514 0.71161 0.0
C362 C 0.33393 0.1427 0.73007 0.0
C363 C 0.30126 0.18684 0.73603 0.0
C364 C 0.30867 0.23841 0.72419 0.0
C365 C 0.26855 0.279 0.73482 0.0
C366 C 0.30023 0.32471 0.75602 0.0
C367 C 0.22884 0.30251 0.70519 0.0
C368 C 0.23786 0.24223 0.75466 0.0
C369 C 0.25735 0.18921 0.75497 0.0
C370 C 0.23664 0.14814 0.77238 0.0
C371 C 0.19516 0.16166 0.79015 0.0
C372 C 0.17463 0.2158 0.79037 0.0
C373 C 0.19616 0.25638 0.7721 0.0
H374 H 0.67107 0.80362 0.83962 0.0
H375 H 0.64515 0.62877 0.84643 0.0
H376 H 0.71843 0.6113 0.81468 0.0
H377 H 0.69366 0.80211 0.75767 0.0
H378 H 0.7469 0.85406 0.76407 0.0
H379 H 0.69411 0.85346 0.78886 0.0
H380 H 0.77041 0.8505 0.841 0.0
H381 H 0.82346 0.85119 0.81635 0.0
H382 H 0.82225 0.79729 0.84543 0.0
H383 H 0.79101 0.61189 0.77997 0.0
H384 H 0.85975 0.6311 0.74515 0.0
H385 H 0.84075 0.80518 0.7608 0.0
C386 C 0.68122 0.7617 0.83468 0.0
C387 C 0.65212 0.71762 0.84558 0.0
C388 C 0.66652 0.66334 0.83836 0.0
C389 C 0.70828 0.65288 0.82034 0.0
C390 C 0.73566 0.69705 0.80965 0.0
C391 C 0.72299 0.7504 0.81659 0.0
C392 C 0.75799 0.79026 0.80129 0.0
C393 C 0.72095 0.82714 0.7765 0.0
C394 C 0.79577 0.82432 0.82759 0.0
C395 C 0.79174 0.75091 0.7845 0.0
C396 C 0.77817 0.69735 0.78971 0.0
C397 C 0.80233 0.65368 0.77589 0.0
C398 C 0.84129 0.665 0.75608 0.0
C399 C 0.85596 0.71957 0.75031 0.0
C400 C 0.83094 0.76297 0.76496 0.0
H401 H 0.85371 0.83594 0.21219 0.0
H402 H 0.93586 0.67794 0.2235 0.0
H403 H 0.87327 0.64844 0.2597 0.0
H404 H 0.82843 0.84636 0.29599 0.0
H405 H 0.76115 0.87778 0.28374 0.0
H406 H 0.81455 0.8881 0.25997 0.0
H407 H 0.74775 0.8522 0.20859 0.0
H408 H 0.69432 0.84143 0.23223 0.0
H409 H 0.71645 0.78562 0.20934 0.0
H410 H 0.79948 0.63356 0.29257 0.0
H411 H 0.72034 0.63594 0.32156 0.0
H412 H 0.68497 0.80293 0.28946 0.0
C413 C 0.85898 0.79549 0.22269 0.0
C414 C 0.89982 0.75933 0.21495 0.0
C415 C 0.90489 0.70643 0.22891 0.0
C416 C 0.86953 0.68918 0.24959 0.0
C417 C 0.8291 0.72522 0.25625 0.0
C418 C 0.8237 0.77737 0.24343 0.0
C419 C 0.77549 0.80719 0.25392 0.0
C420 C 0.79616 0.85785 0.27464 0.0
C421 C 0.73087 0.82249 0.22425 0.0
C422 C 0.75455 0.76341 0.27426 0.0
C423 C 0.7862 0.71652 0.27532 0.0
C424 C 0.77449 0.67017 0.29209 0.0
C425 C 0.72934 0.67184 0.30842 0.0
C426 C 0.69635 0.71953 0.30785 0.0
C427 C 0.70935 0.76581 0.29045 0.0
H428 H 0.44639 0.15235 0.52374 0.0
H429 H 0.40721 0.23026 0.60992 0.0
H430 H 0.31643 0.26006 0.57821 0.0
H431 H 0.38258 0.25656 0.4665 0.0
H432 H 0.35898 0.2072 0.4347 0.0
H433 H 0.42098 0.19414 0.46444 0.0
H434 H 0.3788 0.10224 0.4786 0.0
H435 H 0.31625 0.11544 0.44934 0.0
H436 H 0.31222 0.10201 0.4912 0.0
H437 H 0.2261 0.27481 0.53702 0.0
H438 H 0.15085 0.28539 0.48884 0.0
H439 H 0.25182 0.20063 0.42931 0.0
C440 C 0.41901 0.17624 0.53592 0.0
C441 C 0.43397 0.18908 0.56948 0.0
C442 C 0.39703 0.22055 0.58434 0.0
C443 C 0.3451 0.23716 0.56648 0.0
C444 C 0.33107 0.22247 0.53361 0.0
C445 C 0.36759 0.19368 0.51835 0.0
C446 C 0.34332 0.18373 0.48269 0.0
C447 C 0.37855 0.21211 0.46079 0.0
C448 C 0.3373 0.1222 0.47503 0.0
C449 C 0.28702 0.21076 0.48024 0.0
C450 C 0.28038 0.2324 0.50992 0.0
C451 C 0.23115 0.25838 0.51365 0.0
C452 C 0.18839 0.26375 0.48617 0.0
C453 C 0.19533 0.24381 0.45525 0.0
C454 C 0.24514 0.21633 0.45256 0.0
H455 H 0.8915 0.77023 0.57487 0.0
H456 H 0.7647 0.82503 0.6276 0.0
H457 H 0.69951 0.83852 0.57547 0.0
H458 H 0.84849 0.85777 0.50006 0.0
H459 H 0.86316 0.80307 0.47384 0.0
H460 H 0.90336 0.80974 0.51451 0.0
H461 H 0.87852 0.71 0.52665 0.0
H462 H 0.83798 0.70314 0.48629 0.0
H463 H 0.80637 0.69009 0.52114 0.0
H464 H 0.64363 0.83114 0.5187 0.0
H465 H 0.60218 0.80303 0.46243 0.0
H466 H 0.76511 0.75152 0.44702 0.0
C467 C 0.85084 0.78733 0.57541 0.0
C468 C 0.8334 0.79733 0.60527 0.0
C469 C 0.77909 0.81766 0.60497 0.0
C470 C 0.7418 0.82554 0.57546 0.0
C471 C 0.75945 0.81297 0.54644 0.0
C472 C 0.81293 0.79469 0.54618 0.0
C473 C 0.8194 0.77711 0.51228 0.0
C474 C 0.86107 0.81415 0.49941 0.0
C475 C 0.83654 0.71652 0.51158 0.0
C476 C 0.76067 0.78612 0.49379 0.0
C477 C 0.72692 0.80781 0.51372 0.0
C478 C 0.66992 0.81522 0.50268 0.0
C479 C 0.64668 0.79909 0.47068 0.0
C480 C 0.68034 0.77531 0.45021 0.0
C481 C 0.73826 0.77019 0.46184 0.0
H482 H 0.84647 0.71273 0.07775 0.0
H483 H 0.85961 0.8735 0.03664 0.0
H484 H 0.77834 0.85366 0.99366 0.0
H485 H 0.79509 0.63963 0.99868 0.0
H486 H 0.74797 0.59756 1.01619 0.0
H487 H 0.81209 0.62101 0.04106 0.0
H488 H 0.75642 0.66357 0.08197 0.0
H489 H 0.6922 0.64083 0.0571 0.0
H490 H 0.70202 0.71218 0.06764 0.0
H491 H 0.69038 0.8218 0.9594 0.0
H492 H 0.60291 0.77817 0.93444 0.0
H493 H 0.64411 0.63725 0.99667 0.0
C494 C 0.83317 0.74288 0.05904 0.0
C495 C 0.85949 0.79445 0.06026 0.0
C496 C 0.84004 0.83368 0.03602 0.0
C497 C 0.79399 0.82278 1.01147 0.0
C498 C 0.76768 0.7724 1.01147 0.0
C499 C 0.78662 0.7328 0.03438 0.0
C500 C 0.74768 0.6839 0.03022 0.0
C501 C 0.77749 0.63248 0.02098 0.0
C502 C 0.72314 0.67461 0.06106 0.0
C503 C 0.70345 0.703 1.00202 0.0
C504 C 0.7162 0.75391 0.99147 0.0
C505 C 0.68041 0.7814 0.96703 0.0
C506 C 0.63028 0.75612 0.95283 0.0
C507 C 0.61594 0.70383 0.9629 0.0
C508 C 0.65357 0.67705 0.9879 0.0
H509 H 0.30357 0.24899 0.08798 0.0
H510 H 0.4565 0.31451 0.06522 0.0
H511 H 0.40538 0.34074 1.01051 0.0
H512 H 0.25542 0.1882 1.01321 0.0
H513 H 0.1829 0.20283 1.01226 0.0
H514 H 0.22979 0.19639 0.05069 0.0
H515 H 0.20146 0.2928 0.06778 0.0
H516 H 0.15438 0.29953 0.02928 0.0
H517 H 0.2074 0.35045 0.04198 0.0
H518 H 0.33951 0.34904 0.95601 0.0
H519 H 0.26591 0.33859 0.90703 0.0
H520 H 0.15608 0.26877 0.96625 0.0
C521 C 0.3263 0.26988 0.07181 0.0
C522 C 0.38415 0.27987 0.08099 0.0
C523 C 0.41218 0.30683 0.05888 0.0
C524 C 0.38341 0.32187 0.02775 0.0
C525 C 0.32656 0.31021 0.01928 0.0
C526 C 0.2983 0.28516 0.04085 0.0
C527 C 0.23837 0.27325 0.02524 0.0
C528 C 0.22594 0.21152 0.02535 0.0
C529 C 0.19802 0.30598 0.04207 0.0
C530 C 0.23758 0.29379 0.99106 0.0
C531 C 0.28863 0.31554 0.98816 0.0
C532 C 0.29915 0.33303 0.95821 0.0
C533 C 0.25703 0.32693 0.93049 0.0
C534 C 0.20492 0.30348 0.9328 0.0
C535 C 0.19486 0.28808 0.96373 0.0
loop_
_geom_bond_atom_site_label_1
_geom_bond_atom_site_label_2
_geom_bond_distance
_geom_bond_site_symmetry_2
_ccdc_geom_bond_type
Mg0 O7 2.141 1_455 S
Mg0 O8 2.048 . S
Mg0 O9 2.048 . S
Mg0 O12 2.141 . S
C1 O2 1.313 . S
C1 O8 1.195 . S
O2 C1 1.313 . S
C3 O4 1.245 . S
C3 O12 1.289 1_655 S
O4 C3 1.245 . S
C5 O6 1.245 . S
C5 O7 1.289 . S
O6 C5 1.245 . S
O7 Mg0 2.141 1_655 S
O7 C5 1.289 . S
O8 Mg0 2.048 . S
O8 C1 1.195 . S
O9 Mg0 2.048 . S
O9 C10 1.195 . S
C10 O9 1.195 . S
C10 O11 1.313 . S
O11 C10 1.313 . S
O12 Mg0 2.141 . S
O12 C3 1.289 1_455 S
Mg13 O20 2.141 . S
Mg13 O21 2.048 . S
Mg13 O22 2.048 . S
Mg13 O25 2.141 . S
C14 O15 1.313 . S
C14 O21 1.195 . S
O15 C14 1.313 . S
C16 O17 1.245 . S
C16 O25 1.289 . S
O17 C16 1.245 . S
C18 O19 1.245 . S
C18 O20 1.289 . S
O19 C18 1.245 . S
O20 Mg13 2.141 . S
O20 C18 1.289 . S
O21 Mg13 2.048 . S
O21 C14 1.195 . S
O22 Mg13 2.048 . S
O22 C23 1.195 . S
C23 O22 1.195 . S
C23 O24 1.313 . S
O24 C23 1.313 . S
O25 Mg13 2.141 . S
O25 C16 1.289 . S
Mg26 O33 2.141 1_655 S
Mg26 O34 2.048 . S
Mg26 O35 2.048 . S
Mg26 O38 2.134 1_655 S
C27 O28 1.313 . S
C27 O34 1.195 . S
O28 C27 1.313 . S
C29 O30 1.245 1_455 S
C29 O38 1.291 . S
O30 C29 1.245 1_655 S
C31 O32 1.245 . S
C31 O33 1.289 . S
O32 C31 1.245 . S
O33 Mg26 2.141 1_455 S
O33 C31 1.289 . S
O34 Mg26 2.048 . S
O34 C27 1.195 . S
O35 Mg26 2.048 . S
O35 C36 1.195 . S
C36 O35 1.195 . S
C36 O37 1.313 . S
O37 C36 1.313 . S
O38 Mg26 2.134 1_455 S
O38 C29 1.291 . S
Mg39 O46 2.141 . S
Mg39 O47 2.048 . S
Mg39 O48 2.048 . S
Mg39 O51 2.141 . S
C40 O41 1.313 . S
C40 O47 1.195 . S
O41 C40 1.313 . S
C42 O43 1.245 . S
C42 O51 1.289 . S
O43 C42 1.245 . S
C44 O45 1.245 . S
C44 O46 1.289 . S
O45 C44 1.245 . S
O46 Mg39 2.141 . S
O46 C44 1.289 . S
O47 Mg39 2.048 . S
O47 C40 1.195 . S
O48 Mg39 2.048 . S
O48 C49 1.195 . S
C49 O48 1.195 . S
C49 O50 1.313 . S
O50 C49 1.313 . S
O51 Mg39 2.141 . S
O51 C42 1.289 . S
Mg52 O59 2.141 . S
Mg52 O60 2.048 . S
Mg52 O61 2.048 . S
Mg52 O64 2.141 . S
C53 O54 1.313 . S
C53 O60 1.195 . S
O54 C53 1.313 . S
C55 O56 1.245 . S
C55 O64 1.289 . S
O56 C55 1.245 . S
C57 O58 1.245 . S
C57 O59 1.289 . S
O58 C57 1.245 . S
O59 Mg52 2.141 . S
O59 C57 1.289 . S
O60 Mg52 2.048 . S
O60 C53 1.195 . S
O61 Mg52 2.048 . S
O61 C62 1.195 . S
C62 O61 1.195 . S
C62 O63 1.313 . S
O63 C62 1.313 . S
O64 Mg52 2.141 . S
O64 C55 1.289 . S
Mg65 O72 2.141 1_655 S
Mg65 O73 2.048 . S
Mg65 O74 2.048 . S
Mg65 O77 2.141 . S
C66 O67 1.313 . S
C66 O73 1.195 . S
O67 C66 1.313 . S
C68 O69 1.245 . S
C68 O77 1.289 1_455 S
O69 C68 1.245 . S
C70 O71 1.245 . S
C70 O72 1.289 . S
O71 C70 1.245 . S
O72 Mg65 2.141 1_455 S
O72 C70 1.289 . S
O73 Mg65 2.048 . S
O73 C66 1.195 . S
O74 Mg65 2.048 . S
O74 C75 1.195 . S
C75 O74 1.195 . S
C75 O76 1.313 . S
O76 C75 1.313 . S
O77 Mg65 2.141 . S
O77 C68 1.289 1_655 S
Mg78 O85 2.141 . S
Mg78 O86 2.048 . S
Mg78 O87 2.048 . S
Mg78 O90 2.141 . S
C79 O80 1.313 . S
C79 O86 1.195 . S
O80 C79 1.313 . S
C81 O82 1.245 . S
C81 O90 1.289 . S
O82 C81 1.245 . S
C83 O84 1.245 . S
C83 O85 1.289 . S
O84 C83 1.245 . S
O85 Mg78 2.141 . S
O85 C83 1.289 . S
O86 Mg78 2.048 . S
O86 C79 1.195 . S
O87 Mg78 2.048 . S
O87 C88 1.195 . S
C88 O87 1.195 . S
C88 O89 1.313 . S
O89 C88 1.313 . S
O90 Mg78 2.141 . S
O90 C81 1.289 . S
Mg91 O98 2.141 1_455 S
Mg91 O99 2.048 . S
Mg91 O100 2.048 . S
Mg91 O103 2.134 1_455 S
C92 O93 1.313 . S
C92 O99 1.195 . S
O93 C92 1.313 . S
C94 O95 1.245 1_655 S
C94 O103 1.291 . S
O95 C94 1.245 1_455 S
C96 O97 1.245 . S
C96 O98 1.289 . S
O97 C96 1.245 . S
O98 Mg91 2.141 1_655 S
O98 C96 1.289 . S
O99 Mg91 2.048 . S
O99 C92 1.195 . S
O100 Mg91 2.048 . S
O100 C101 1.195 . S
C101 O100 1.195 . S
C101 O102 1.313 . S
O102 C101 1.313 . S
O103 Mg91 2.134 1_655 S
O103 C94 1.291 . S
H104 C116 0.930 . S
H105 C118 0.930 . S
H106 C119 0.930 . S
H107 C123 0.959 . S
H108 C123 0.959 . S
H109 C123 0.961 . S
H110 C124 0.960 . S
H111 C124 0.961 . S
H112 C124 0.959 . S
H113 C127 0.929 . S
H114 C128 0.931 . S
H115 C130 0.930 . S
C116 H104 0.930 . S
C116 C117 1.399 . S
C116 C121 1.399 . S
C117 C116 1.399 . S
C117 C118 1.376 1_655 S
C118 H105 0.930 . S
C118 C117 1.376 1_455 S
C118 C119 1.388 . S
C119 H106 0.930 . S
C119 C118 1.388 . S
C119 C120 1.390 . S
C120 C119 1.390 . S
C120 C121 1.394 1_455 S
C120 C126 1.465 . S
C121 C116 1.399 . S
C121 C120 1.394 1_655 S
C121 C122 1.516 . S
C122 C121 1.516 . S
C122 C123 1.502 . S
C122 C124 1.561 . S
C122 C125 1.526 . S
C123 H107 0.959 . S
C123 H108 0.959 . S
C123 H109 0.961 . S
C123 C122 1.502 . S
C124 H110 0.960 . S
C124 H111 0.961 . S
C124 H112 0.959 . S
C124 C122 1.561 . S
C125 C122 1.526 . S
C125 C126 1.396 1_655 S
C125 C130 1.390 . S
C126 C120 1.465 . S
C126 C125 1.396 1_455 S
C126 C127 1.399 . S
C127 H113 0.929 . S
C127 C126 1.399 . S
C127 C128 1.385 . S
C128 H114 0.931 . S
C128 C127 1.385 . S
C128 C129 1.389 . S
C129 C128 1.389 . S
C129 C130 1.387 1_455 S
C130 H115 0.930 . S
C130 C125 1.390 . S
C130 C129 1.387 1_655 S
H131 C143 0.930 . S
H132 C145 0.930 . S
H133 C146 0.930 . S
H134 C150 0.959 . S
H135 C150 0.959 . S
H136 C150 0.961 . S
H137 C151 0.960 . S
H138 C151 0.961 . S
H139 C151 0.959 . S
H140 C154 0.929 . S
H141 C155 0.931 . S
H142 C157 0.930 . S
C143 H131 0.930 . S
C143 C144 1.399 . S
C143 C148 1.399 . S
C144 C143 1.399 . S
C144 C145 1.376 . S
C145 H132 0.930 . S
C145 C144 1.376 . S
C145 C146 1.388 . S
C146 H133 0.930 . S
C146 C145 1.388 . S
C146 C147 1.390 . S
C147 C146 1.390 . S
C147 C148 1.394 . S
C147 C153 1.465 . S
C148 C143 1.399 . S
C148 C147 1.394 . S
C148 C149 1.516 . S
C149 C148 1.516 . S
C149 C150 1.502 . S
C149 C151 1.561 . S
C149 C152 1.526 . S
C150 H134 0.959 . S
C150 H135 0.959 . S
C150 H136 0.961 . S
C150 C149 1.502 . S
C151 H137 0.960 . S
C151 H138 0.961 . S
C151 H139 0.959 . S
C151 C149 1.561 . S
C152 C149 1.526 . S
C152 C153 1.396 . S
C152 C157 1.390 . S
C153 C147 1.465 . S
C153 C152 1.396 . S
C153 C154 1.399 . S
C154 H140 0.929 . S
C154 C153 1.399 . S
C154 C155 1.385 . S
C155 H141 0.931 . S
C155 C154 1.385 . S
C155 C156 1.389 . S
C156 C155 1.389 . S
C156 C157 1.387 . S
C157 H142 0.930 . S
C157 C152 1.390 . S
C157 C156 1.387 . S
H158 C170 0.930 . S
H159 C172 0.930 . S
H160 C173 0.930 1_565 S
H161 C177 0.959 . S
H162 C177 0.959 . S
H163 C177 0.961 . S
H164 C178 0.960 . S
H165 C178 0.961 . S
H166 C178 0.959 . S
H167 C181 0.929 . S
H168 C182 0.931 . S
H169 C184 0.930 . S
C170 H158 0.930 . S
C170 C171 1.399 . S
C170 C175 1.399 . S
C171 C170 1.399 . S
C171 C172 1.376 . S
C172 H159 0.930 . S
C172 C171 1.376 . S
C172 C173 1.388 . S
C173 H160 0.930 1_545 S
C173 C172 1.388 . S
C173 C174 1.390 . S
C174 C173 1.390 . S
C174 C175 1.394 . S
C174 C180 1.465 1_545 S
C175 C170 1.399 . S
C175 C174 1.394 . S
C175 C176 1.516 1_554 S
C176 C175 1.516 1_556 S
C176 C177 1.502 . S
C176 C178 1.561 . S
C176 C179 1.526 1_545 S
C177 H161 0.959 . S
C177 H162 0.959 . S
C177 H163 0.961 . S
C177 C176 1.502 . S
C178 H164 0.960 . S
C178 H165 0.961 . S
C178 H166 0.959 . S
C178 C176 1.561 . S
C179 C176 1.526 1_565 S
C179 C180 1.396 1_556 S
C179 C184 1.390 . S
C180 C174 1.465 1_565 S
C180 C179 1.396 1_554 S
C180 C181 1.399 . S
C181 H167 0.929 . S
C181 C180 1.399 . S
C181 C182 1.385 1_554 S
C182 H168 0.931 . S
C182 C181 1.385 1_556 S
C182 C183 1.389 . S
C183 C182 1.389 . S
C183 C184 1.387 . S
C184 H169 0.930 . S
C184 C179 1.390 . S
C184 C183 1.387 . S
H185 C197 0.930 . S
H186 C199 0.930 . S
H187 C200 0.930 . S
H188 C204 0.959 . S
H189 C204 0.959 . S
H190 C204 0.961 . S
H191 C205 0.960 . S
H192 C205 0.961 . S
H193 C205 0.959 . S
H194 C208 0.929 1_565 S
H195 C209 0.931 . S
H196 C211 0.930 . S
C197 H185 0.930 . S
C197 C198 1.399 1_655 S
C197 C202 1.399 . S
C198 C197 1.399 1_455 S
C198 C199 1.376 . S
C199 H186 0.930 . S
C199 C198 1.376 . S
C199 C200 1.388 1_554 S
C200 H187 0.930 . S
C200 C199 1.388 1_556 S
C200 C201 1.390 1_556 S
C201 C200 1.390 1_554 S
C201 C202 1.394 1_455 S
C201 C207 1.465 1_564 S
C202 C197 1.399 . S
C202 C201 1.394 1_655 S
C202 C203 1.516 1_565 S
C203 C202 1.516 1_545 S
C203 C204 1.502 . S
C203 C205 1.561 1_655 S
C203 C206 1.526 1_554 S
C204 H188 0.959 . S
C204 H189 0.959 . S
C204 H190 0.961 . S
C204 C203 1.502 . S
C205 H191 0.960 . S
C205 H192 0.961 . S
C205 H193 0.959 . S
C205 C203 1.561 1_455 S
C206 C203 1.526 1_556 S
C206 C207 1.396 1_655 S
C206 C211 1.390 . S
C207 C201 1.465 1_546 S
C207 C206 1.396 1_455 S
C207 C208 1.399 . S
C208 H194 0.929 1_545 S
C208 C207 1.399 . S
C208 C209 1.385 . S
C209 H195 0.931 . S
C209 C208 1.385 . S
C209 C210 1.389 1_455 S
C210 C209 1.389 1_655 S
C210 C211 1.387 . S
C211 H196 0.930 . S
C211 C206 1.390 . S
C211 C210 1.387 . S
H212 C224 0.930 . S
H213 C226 0.930 . S
H214 C227 0.930 . S
H215 C231 0.959 . S
H216 C231 0.959 . S
H217 C231 0.961 . S
H218 C232 0.960 . S
H219 C232 0.961 . S
H220 C232 0.959 . S
H221 C235 0.929 . S
H222 C236 0.931 . S
H223 C238 0.930 . S
C224 H212 0.930 . S
C224 C225 1.399 . S
C224 C229 1.399 . S
C225 C224 1.399 . S
C225 C226 1.376 . S
C226 H213 0.930 . S
C226 C225 1.376 . S
C226 C227 1.388 . S
C227 H214 0.930 . S
C227 C226 1.388 . S
C227 C228 1.390 . S
C228 C227 1.390 . S
C228 C229 1.394 . S
C228 C234 1.465 . S
C229 C224 1.399 . S
C229 C228 1.394 . S
C229 C230 1.516 . S
C230 C229 1.516 . S
C230 C231 1.502 . S
C230 C232 1.561 . S
C230 C233 1.526 . S
C231 H215 0.959 . S
C231 H216 0.959 . S
C231 H217 0.961 . S
C231 C230 1.502 . S
C232 H218 0.960 . S
C232 H219 0.961 . S
C232 H220 0.959 . S
C232 C230 1.561 . S
C233 C230 1.526 . S
C233 C234 1.396 . S
C233 C238 1.390 . S
C234 C228 1.465 . S
C234 C233 1.396 . S
C234 C235 1.399 . S
C235 H221 0.929 . S
C235 C234 1.399 . S
C235 C236 1.385 . S
C236 H222 0.931 . S
C236 C235 1.385 . S
C236 C237 1.389 . S
C237 C236 1.389 . S
C237 C238 1.387 . S
C238 H223 0.930 . S
C238 C233 1.390 . S
C238 C237 1.387 . S
H239 C251 0.930 . S
H240 C253 0.930 . S
H241 C254 0.930 . S
H242 C258 0.959 . S
H243 C258 0.959 . S
H244 C258 0.961 . S
H245 C259 0.960 . S
H246 C259 0.961 . S
H247 C259 0.959 . S
H248 C262 0.929 . S
H249 C263 0.931 . S
H250 C265 0.930 . S
C251 H239 0.930 . S
C251 C252 1.399 . S
C251 C256 1.399 . S
C252 C251 1.399 . S
C252 C253 1.376 . S
C253 H240 0.930 . S
C253 C252 1.376 . S
C253 C254 1.388 . S
C254 H241 0.930 . S
C254 C253 1.388 . S
C254 C255 1.390 . S
C255 C254 1.390 . S
C255 C256 1.394 . S
C255 C261 1.465 . S
C256 C251 1.399 . S
C256 C255 1.394 . S
C256 C257 1.516 . S
C257 C256 1.516 . S
C257 C258 1.502 . S
C257 C259 1.561 . S
C257 C260 1.526 . S
C258 H242 0.959 . S
C258 H243 0.959 . S
C258 H244 0.961 . S
C258 C257 1.502 . S
C259 H245 0.960 . S
C259 H246 0.961 . S
C259 H247 0.959 . S
C259 C257 1.561 . S
C260 C257 1.526 . S
C260 C261 1.396 . S
C260 C265 1.390 . S
C261 C255 1.465 . S
C261 C260 1.396 . S
C261 C262 1.399 . S
C262 H248 0.929 . S
C262 C261 1.399 . S
C262 C263 1.385 . S
C263 H249 0.931 . S
C263 C262 1.385 . S
C263 C264 1.389 . S
C264 C263 1.389 . S
C264 C265 1.387 . S
C265 H250 0.930 . S
C265 C260 1.390 . S
C265 C264 1.387 . S
H266 C278 0.930 . S
H267 C280 0.930 . S
H268 C281 0.930 . S
H269 C285 0.959 . S
H270 C285 0.959 . S
H271 C285 0.961 . S
H272 C286 0.960 . S
H273 C286 0.961 . S
H274 C286 0.959 . S
H275 C289 0.929 . S
H276 C290 0.931 . S
H277 C292 0.930 . S
C278 H266 0.930 . S
C278 C279 1.399 . S
C278 C283 1.399 . S
C279 C278 1.399 . S
C279 C280 1.376 . S
C280 H267 0.930 . S
C280 C279 1.376 . S
C280 C281 1.388 . S
C281 H268 0.930 . S
C281 C280 1.388 . S
C281 C282 1.390 . S
C282 C281 1.390 . S
C282 C283 1.394 . S
C282 C288 1.465 . S
C283 C278 1.399 . S
C283 C282 1.394 . S
C283 C284 1.516 . S
C284 C283 1.516 . S
C284 C285 1.502 . S
C284 C286 1.561 . S
C284 C287 1.526 . S
C285 H269 0.959 . S
C285 H270 0.959 . S
C285 H271 0.961 . S
C285 C284 1.502 . S
C286 H272 0.960 . S
C286 H273 0.961 . S
C286 H274 0.959 . S
C286 C284 1.561 . S
C287 C284 1.526 . S
C287 C288 1.396 . S
C287 C292 1.390 . S
C288 C282 1.465 . S
C288 C287 1.396 . S
C288 C289 1.399 . S
C289 H275 0.929 . S
C289 C288 1.399 . S
C289 C290 1.385 . S
C290 H276 0.931 . S
C290 C289 1.385 . S
C290 C291 1.389 . S
C291 C290 1.389 . S
C291 C292 1.387 . S
C292 H277 0.930 . S
C292 C287 1.390 . S
C292 C291 1.387 . S
H293 C305 0.930 . S
H294 C307 0.930 . S
H295 C308 0.930 . S
H296 C312 0.959 . S
H297 C312 0.959 . S
H298 C312 0.961 . S
H299 C313 0.960 . S
H300 C313 0.961 . S
H301 C313 0.959 . S
H302 C316 0.929 . S
H303 C317 0.931 . S
H304 C319 0.930 . S
C305 H293 0.930 . S
C305 C306 1.399 . S
C305 C310 1.399 . S
C306 C305 1.399 . S
C306 C307 1.376 . S
C307 H294 0.930 . S
C307 C306 1.376 . S
C307 C308 1.388 . S
C308 H295 0.930 . S
C308 C307 1.388 . S
C308 C309 1.390 . S
C309 C308 1.390 . S
C309 C310 1.394 . S
C309 C315 1.465 . S
C310 C305 1.399 . S
C310 C309 1.394 . S
C310 C311 1.516 . S
C311 C310 1.516 . S
C311 C312 1.502 . S
C311 C313 1.561 . S
C311 C314 1.526 . S
C312 H296 0.959 . S
C312 H297 0.959 . S
C312 H298 0.961 . S
C312 C311 1.502 . S
C313 H299 0.960 . S
C313 H300 0.961 . S
C313 H301 0.959 . S
C313 C311 1.561 . S
C314 C311 1.526 . S
C314 C315 1.396 . S
C314 C319 1.390 . S
C315 C309 1.465 . S
C315 C314 1.396 . S
C315 C316 1.399 . S
C316 H302 0.929 . S
C316 C315 1.399 . S
C316 C317 1.385 . S
C317 H303 0.931 . S
C317 C316 1.385 . S
C317 C318 1.389 . S
C318 C317 1.389 . S
C318 C319 1.387 . S
C319 H304 0.930 . S
C319 C314 1.390 . S
C319 C318 1.387 . S
H320 C332 0.930 . S
H321 C334 0.930 . S
H322 C335 0.930 . S
H323 C339 0.959 . S
H324 C339 0.959 . S
H325 C339 0.961 . S
H326 C340 0.960 . S
H327 C340 0.961 . S
H328 C340 0.959 . S
H329 C343 0.929 . S
H330 C344 0.931 . S
H331 C346 0.930 . S
C332 H320 0.930 . S
C332 C333 1.399 . S
C332 C337 1.399 . S
C333 C332 1.399 . S
C333 C334 1.376 . S
C334 H321 0.930 . S
C334 C333 1.376 . S
C334 C335 1.388 . S
C335 H322 0.930 . S
C335 C334 1.388 . S
C335 C336 1.390 . S
C336 C335 1.390 . S
C336 C337 1.394 . S
C336 C342 1.465 . S
C337 C332 1.399 . S
C337 C336 1.394 . S
C337 C338 1.516 . S
C338 C337 1.516 . S
C338 C339 1.502 . S
C338 C340 1.561 . S
C338 C341 1.526 . S
C339 H323 0.959 . S
C339 H324 0.959 . S
C339 H325 0.961 . S
C339 C338 1.502 . S
C340 H326 0.960 . S
C340 H327 0.961 . S
C340 H328 0.959 . S
C340 C338 1.561 . S
C341 C338 1.526 . S
C341 C342 1.396 . S
C341 C346 1.390 . S
C342 C336 1.465 . S
C342 C341 1.396 . S
C342 C343 1.399 . S
C343 H329 0.929 . S
C343 C342 1.399 . S
C343 C344 1.385 . S
C344 H330 0.931 . S
C344 C343 1.385 . S
C344 C345 1.389 . S
C345 C344 1.389 . S
C345 C346 1.387 . S
C346 H331 0.930 . S
C346 C341 1.390 . S
C346 C345 1.387 . S
H347 C359 0.930 . S
H348 C361 0.930 . S
H349 C362 0.930 . S
H350 C366 0.959 . S
H351 C366 0.959 . S
H352 C366 0.961 . S
H353 C367 0.960 . S
H354 C367 0.961 . S
H355 C367 0.959 . S
H356 C370 0.929 . S
H357 C371 0.931 . S
H358 C373 0.930 . S
C359 H347 0.930 . S
C359 C360 1.399 . S
C359 C364 1.399 . S
C360 C359 1.399 . S
C360 C361 1.376 . S
C361 H348 0.930 . S
C361 C360 1.376 . S
C361 C362 1.388 . S
C362 H349 0.930 . S
C362 C361 1.388 . S
C362 C363 1.390 . S
C363 C362 1.390 . S
C363 C364 1.394 . S
C363 C369 1.465 . S
C364 C359 1.399 . S
C364 C363 1.394 . S
C364 C365 1.516 . S
C365 C364 1.516 . S
C365 C366 1.502 . S
C365 C367 1.561 . S
C365 C368 1.526 . S
C366 H350 0.959 . S
C366 H351 0.959 . S
C366 H352 0.961 . S
C366 C365 1.502 . S
C367 H353 0.960 . S
C367 H354 0.961 . S
C367 H355 0.959 . S
C367 C365 1.561 . S
C368 C365 1.526 . S
C368 C369 1.396 . S
C368 C373 1.390 . S
C369 C363 1.465 . S
C369 C368 1.396 . S
C369 C370 1.399 . S
C370 H356 0.929 . S
C370 C369 1.399 . S
C370 C371 1.385 . S
C371 H357 0.931 . S
C371 C370 1.385 . S
C371 C372 1.389 . S
C372 C371 1.389 . S
C372 C373 1.387 . S
C373 H358 0.930 . S
C373 C368 1.390 . S
C373 C372 1.387 . S
H374 C386 0.930 . S
H375 C388 0.930 . S
H376 C389 0.930 . S
H377 C393 0.959 . S
H378 C393 0.959 . S
H379 C393 0.961 . S
H380 C394 0.960 . S
H381 C394 0.961 . S
H382 C394 0.959 . S
H383 C397 0.929 . S
H384 C398 0.931 . S
H385 C400 0.930 . S
C386 H374 0.930 . S
C386 C387 1.399 . S
C386 C391 1.399 . S
C387 C386 1.399 . S
C387 C388 1.376 . S
C388 H375 0.930 . S
C388 C387 1.376 . S
C388 C389 1.388 . S
C389 H376 0.930 . S
C389 C388 1.388 . S
C389 C390 1.390 . S
C390 C389 1.390 . S
C390 C391 1.394 . S
C390 C396 1.465 . S
C391 C386 1.399 . S
C391 C390 1.394 . S
C391 C392 1.516 . S
C392 C391 1.516 . S
C392 C393 1.502 . S
C392 C394 1.561 . S
C392 C395 1.526 . S
C393 H377 0.959 . S
C393 H378 0.959 . S
C393 H379 0.961 . S
C393 C392 1.502 . S
C394 H380 0.960 . S
C394 H381 0.961 . S
C394 H382 0.959 . S
C394 C392 1.561 . S
C395 C392 1.526 . S
C395 C396 1.396 . S
C395 C400 1.390 . S
C396 C390 1.465 . S
C396 C395 1.396 . S
C396 C397 1.399 . S
C397 H383 0.929 . S
C397 C396 1.399 . S
C397 C398 1.385 . S
C398 H384 0.931 . S
C398 C397 1.385 . S
C398 C399 1.389 . S
C399 C398 1.389 . S
C399 C400 1.387 . S
C400 H385 0.930 . S
C400 C395 1.390 . S
C400 C399 1.387 . S
H401 C413 0.930 . S
H402 C415 0.930 . S
H403 C416 0.930 . S
H404 C420 0.959 . S
H405 C420 0.959 . S
H406 C420 0.961 . S
H407 C421 0.960 . S
H408 C421 0.961 . S
H409 C421 0.959 . S
H410 C424 0.929 . S
H411 C425 0.931 . S
H412 C427 0.930 . S
C413 H401 0.930 . S
C413 C414 1.399 . S
C413 C418 1.399 . S
C414 C413 1.399 . S
C414 C415 1.376 . S
C415 H402 0.930 . S
C415 C414 1.376 . S
C415 C416 1.388 . S
C416 H403 0.930 . S
C416 C415 1.388 . S
C416 C417 1.390 . S
C417 C416 1.390 . S
C417 C418 1.394 . S
C417 C423 1.465 . S
C418 C413 1.399 . S
C418 C417 1.394 . S
C418 C419 1.516 . S
C419 C418 1.516 . S
C419 C420 1.502 . S
C419 C421 1.561 . S
C419 C422 1.526 . S
C420 H404 0.959 . S
C420 H405 0.959 . S
C420 H406 0.961 . S
C420 C419 1.502 . S
C421 H407 0.960 . S
C421 H408 0.961 . S
C421 H409 0.959 . S
C421 C419 1.561 . S
C422 C419 1.526 . S
C422 C423 1.396 . S
C422 C427 1.390 . S
C423 C417 1.465 . S
C423 C422 1.396 . S
C423 C424 1.399 . S
C424 H410 0.929 . S
C424 C423 1.399 . S
C424 C425 1.385 . S
C425 H411 0.931 . S
C425 C424 1.385 . S
C425 C426 1.389 . S
C426 C425 1.389 . S
C426 C427 1.387 . S
C427 H412 0.930 . S
C427 C422 1.390 . S
C427 C426 1.387 . S
H428 C440 0.930 . S
H429 C442 0.930 . S
H430 C443 0.930 . S
H431 C447 0.959 . S
H432 C447 0.959 . S
H433 C447 0.961 . S
H434 C448 0.960 . S
H435 C448 0.961 . S
H436 C448 0.959 . S
H437 C451 0.929 . S
H438 C452 0.931 . S
H439 C454 0.930 . S
C440 H428 0.930 . S
C440 C441 1.399 . S
C440 C445 1.399 . S
C441 C440 1.399 . S
C441 C442 1.376 . S
C442 H429 0.930 . S
C442 C441 1.376 . S
C442 C443 1.388 . S
C443 H430 0.930 . S
C443 C442 1.388 . S
C443 C444 1.390 . S
C444 C443 1.390 . S
C444 C445 1.394 . S
C444 C450 1.465 . S
C445 C440 1.399 . S
C445 C444 1.394 . S
C445 C446 1.516 . S
C446 C445 1.516 . S
C446 C447 1.502 . S
C446 C448 1.561 . S
C446 C449 1.526 . S
C447 H431 0.959 . S
C447 H432 0.959 . S
C447 H433 0.961 . S
C447 C446 1.502 . S
C448 H434 0.960 . S
C448 H435 0.961 . S
C448 H436 0.959 . S
C448 C446 1.561 . S
C449 C446 1.526 . S
C449 C450 1.396 . S
C449 C454 1.390 . S
C450 C444 1.465 . S
C450 C449 1.396 . S
C450 C451 1.399 . S
C451 H437 0.929 . S
C451 C450 1.399 . S
C451 C452 1.385 . S
C452 H438 0.931 . S
C452 C451 1.385 . S
C452 C453 1.389 . S
C453 C452 1.389 . S
C453 C454 1.387 . S
C454 H439 0.930 . S
C454 C449 1.390 . S
C454 C453 1.387 . S
H455 C467 0.930 . S
H456 C469 0.930 . S
H457 C470 0.930 . S
H458 C474 0.959 . S
H459 C474 0.959 . S
H460 C474 0.961 . S
H461 C475 0.960 . S
H462 C475 0.961 . S
H463 C475 0.959 . S
H464 C478 0.929 . S
H465 C479 0.931 . S
H466 C481 0.930 . S
C467 H455 0.930 . S
C467 C468 1.399 . S
C467 C472 1.399 . S
C468 C467 1.399 . S
C468 C469 1.376 . S
C469 H456 0.930 . S
C469 C468 1.376 . S
C469 C470 1.388 . S
C470 H457 0.930 . S
C470 C469 1.388 . S
C470 C471 1.390 . S
C471 C470 1.390 . S
C471 C472 1.394 . S
C471 C477 1.465 . S
C472 C467 1.399 . S
C472 C471 1.394 . S
C472 C473 1.516 . S
C473 C472 1.516 . S
C473 C474 1.502 . S
C473 C475 1.561 . S
C473 C476 1.526 . S
C474 H458 0.959 . S
C474 H459 0.959 . S
C474 H460 0.961 . S
C474 C473 1.502 . S
C475 H461 0.960 . S
C475 H462 0.961 . S
C475 H463 0.959 . S
C475 C473 1.561 . S
C476 C473 1.526 . S
C476 C477 1.396 . S
C476 C481 1.390 . S
C477 C471 1.465 . S
C477 C476 1.396 . S
C477 C478 1.399 . S
C478 H464 0.929 . S
C478 C477 1.399 . S
C478 C479 1.385 . S
C479 H465 0.931 . S
C479 C478 1.385 . S
C479 C480 1.389 . S
C480 C479 1.389 . S
C480 C481 1.387 . S
C481 H466 0.930 . S
C481 C476 1.390 . S
C481 C480 1.387 . S
H482 C494 0.930 . S
H483 C496 0.930 . S
H484 C497 0.930 . S
H485 C501 0.959 . S
H486 C501 0.959 . S
H487 C501 0.961 1_554 S
H488 C502 0.960 . S
H489 C502 0.961 . S
H490 C502 0.959 . S
H491 C505 0.929 . S
H492 C506 0.931 . S
H493 C508 0.930 . S
C494 H482 0.930 . S
C494 C495 1.399 . S
C494 C499 1.399 . S
C495 C494 1.399 . S
C495 C496 1.376 . S
C496 H483 0.930 . S
C496 C495 1.376 . S
C496 C497 1.388 . S
C497 H484 0.930 . S
C497 C496 1.388 . S
C497 C498 1.390 . S
C498 C497 1.390 . S
C498 C499 1.394 . S
C498 C504 1.465 1_554 S
C499 C494 1.399 . S
C499 C498 1.394 . S
C499 C500 1.516 . S
C500 C499 1.516 . S
C500 C501 1.502 1_554 S
C500 C502 1.561 . S
C500 C503 1.526 1_554 S
C501 H485 0.959 . S
C501 H486 0.959 . S
C501 H487 0.961 1_556 S
C501 C500 1.502 1_556 S
C502 H488 0.960 . S
C502 H489 0.961 . S
C502 H490 0.959 . S
C502 C500 1.561 . S
C503 C500 1.526 1_556 S
C503 C504 1.396 . S
C503 C508 1.390 . S
C504 C498 1.465 1_556 S
C504 C503 1.396 . S
C504 C505 1.399 . S
C505 H491 0.929 . S
C505 C504 1.399 . S
C505 C506 1.385 . S
C506 H492 0.931 . S
C506 C505 1.385 . S
C506 C507 1.389 . S
C507 C506 1.389 . S
C507 C508 1.387 . S
C508 H493 0.930 . S
C508 C503 1.390 . S
C508 C507 1.387 . S
H509 C521 0.930 . S
H510 C523 0.930 . S
H511 C524 0.930 . S
H512 C528 0.959 . S
H513 C528 0.959 . S
H514 C528 0.961 . S
H515 C529 0.960 1_554 S
H516 C529 0.961 . S
H517 C529 0.959 . S
H518 C532 0.929 . S
H519 C533 0.931 . S
H520 C535 0.930 . S
C521 H509 0.930 . S
C521 C522 1.399 . S
C521 C526 1.399 . S
C522 C521 1.399 . S
C522 C523 1.376 . S
C523 H510 0.930 . S
C523 C522 1.376 . S
C523 C524 1.388 . S
C524 H511 0.930 . S
C524 C523 1.388 . S
C524 C525 1.390 . S
C525 C524 1.390 . S
C525 C526 1.394 . S
C525 C531 1.465 1_554 S
C526 C521 1.399 . S
C526 C525 1.394 . S
C526 C527 1.516 . S
C527 C526 1.516 . S
C527 C528 1.502 . S
C527 C529 1.561 1_554 S
C527 C530 1.526 1_554 S
C528 H512 0.959 . S
C528 H513 0.959 . S
C528 H514 0.961 . S
C528 C527 1.502 . S
C529 H515 0.960 1_556 S
C529 H516 0.961 . S
C529 H517 0.959 . S
C529 C527 1.561 1_556 S
C530 C527 1.526 1_556 S
C530 C531 1.396 . S
C530 C535 1.390 . S
C531 C525 1.465 1_556 S
C531 C530 1.396 . S
C531 C532 1.399 . S
C532 H518 0.929 . S
C532 C531 1.399 . S
C532 C533 1.385 . S
C533 H519 0.931 . S
C533 C532 1.385 . S
C533 C534 1.389 . S
C534 C533 1.389 . S
C534 C535 1.387 . S
C535 H520 0.930 . S
C535 C530 1.390 . S
C535 C534 1.387 . S
C117 C3 1.940 . S
C129 C29 1.810 . S
C144 C42 1.797 . S
C156 C16 1.953 . S
C171 C81 1.804 . S
C183 C55 1.943 . S
C198 C68 1.965 . S
C210 C94 1.770 . S
C225 C83 2.029 . S
C237 C5 1.958 . S
C252 C18 1.969 . S
C264 C96 2.021 . S
C279 C31 2.027 . S
C291 C57 1.957 . S
C306 C44 2.031 . S
C318 C70 1.986 . S
C333 C79 2.179 . S
C345 C1 2.237 . S
C360 C14 2.266 . S
C372 C92 2.128 . S
C387 C53 2.261 . S
C399 C27 2.133 . S
C414 C66 2.273 . S
C426 C40 2.122 . S
C441 C23 0.632 . S
C453 C10 0.559 . S
C468 C36 0.586 . S
C480 C49 0.551 . S
C495 C75 0.607 . S
C507 C62 0.600 . S
C522 C88 0.481 . S
C534 C101 0.537 . S
