# Generated by pormake.
# Topology unc, (4)-cn, num edge types: 1
# Building blocks:
#     Node 0, Type 0, BuildingBlock: UXUYUI_clean_sbu_0, # of connection points: 4
#     Node 1, Type 0, BuildingBlock: UXUYUI_clean_sbu_0, # of connection points: 4
#     Node 2, Type 0, BuildingBlock: UXUYUI_clean_sbu_0, # of connection points: 4
#     Node 3, Type 0, BuildingBlock: UXUYUI_clean_sbu_0, # of connection points: 4
#     Edge 4, Type (0, 0), BuildingBlock: XIVTED_clean_linker_0, # of connection points: 2
#     Edge 5, Type (0, 0), BuildingBlock: XIVTED_clean_linker_0, # of connection points: 2
#     Edge 6, Type (0, 0), BuildingBlock: XIVTED_clean_linker_0, # of connection points: 2
#     Edge 7, Type (0, 0), BuildingBlock: XIVTED_clean_linker_0, # of connection points: 2
#     Edge 8, Type (0, 0), BuildingBlock: XIVTED_clean_linker_0, # of connection points: 2
#     Edge 9, Type (0, 0), BuildingBlock: XIVTED_clean_linker_0, # of connection points: 2
#     Edge 10, Type (0, 0), BuildingBlock: XIVTED_clean_linker_0, # of connection points: 2
#     Edge 11, Type (0, 0), BuildingBlock: XIVTED_clean_linker_0, # of connection points: 2
# Relax obj value: 0.184
# Max RMSD: 0.213
# Mean RMSD: 0.213
data_MOF--net-unc--node1-UXUYUI_clean_sbu_0--edge1-XIVTED_clean_linker_0
_symmetry_space_group_name_H-M    P1
_symmetry_Int_Tables_number       1
_symmetry_cell_setting            triclinic
loop_
_symmetry_equiv_pos_as_xyz
'x, y, z'
_cell_length_a     43.33779
_cell_length_b     43.322876
_cell_length_c     32.743047
_cell_angle_alpha  90.039855
_cell_angle_beta   90.074955
_cell_angle_gamma 90.04562
loop_
_atom_site_label
_atom_site_type_symbol
_atom_site_fract_x
_atom_site_fract_y
_atom_site_fract_z
_atom_type_partial_charge
Li0 Li 0.01899 0.67708 0.02029 0.0
Li1 Li 0.98249 0.63526 0.03372 0.0
Li2 Li 0.01046 0.63988 0.96699 0.0
Li3 Li 0.96807 0.67505 0.98318 0.0
C4 C 0.05449 0.62953 0.04327 0.0
N5 N 0.10917 0.62581 0.0865 0.0
C6 C 0.05468 0.61783 0.08304 0.0
C7 C 0.08218 0.63892 0.02529 0.0
C8 C 0.08254 0.61622 0.10444 0.0
C9 C 0.10956 0.63699 0.0477 0.0
C10 C 0.95712 0.68849 0.07352 0.0
C11 C 0.90573 0.69603 0.09997 0.0
N12 N 0.91792 0.70584 0.13601 0.0
C13 C 0.96912 0.69913 0.11061 0.0
C14 C 0.92515 0.68733 0.06797 0.0
C15 C 0.94894 0.70759 0.14191 0.0
C16 C 0.06017 0.72738 0.02297 0.0
N17 N 0.04814 0.70386 0.04532 0.0
C18 C 0.0777 0.71898 0.10365 0.0
C19 C 0.05625 0.69948 0.08502 0.0
C20 C 0.0905 0.7435 0.08134 0.0
C21 C 0.08147 0.74763 0.0405 0.0
H22 H 0.05311 0.73048 0.99157 0.0
H23 H 0.04597 0.6809 0.10229 0.0
C24 C 0.95792 0.57887 0.06185 0.0
N25 N 0.96784 0.60724 0.07386 0.0
C26 C 0.94867 0.55712 0.0908 0.0
C27 C 0.96034 0.59409 0.14395 0.0
C28 C 0.96923 0.61512 0.11397 0.0
C29 C 0.95009 0.56453 0.13255 0.0
H30 H 0.95769 0.57292 0.02977 0.0
H31 H 0.97835 0.63732 0.12283 0.0
C32 C 0.022 0.69072 0.92412 0.0
N33 N 0.04662 0.69975 0.84724 0.0
C34 C 0.00273 0.69797 0.89124 0.0
C35 C 0.05383 0.68849 0.91802 0.0
C36 C 0.01561 0.70235 0.85258 0.0
C37 C 0.06582 0.693 0.87889 0.0
C38 C 0.93824 0.61737 0.96752 0.0
C39 C 0.93352 0.60315 0.92967 0.0
C40 C 0.91404 0.61867 0.99563 0.0
C41 C 0.90447 0.59105 0.92028 0.0
C42 C 0.88535 0.60628 0.98513 0.0
N43 N 0.88117 0.59288 0.94795 0.0
C44 C 0.05252 0.5979 0.93079 0.0
C45 C 0.01476 0.61876 0.88624 0.0
C46 C 0.06389 0.57912 0.89957 0.0
N47 N 0.02822 0.61697 0.92365 0.0
C48 C 0.02545 0.60055 0.85415 0.0
C49 C 0.05002 0.58001 0.86078 0.0
H50 H 0.06253 0.59663 0.96097 0.0
H51 H 0.9951 0.63368 0.88166 0.0
C52 C 0.9311 0.72774 0.9776 0.0
N53 N 0.93536 0.69914 0.96155 0.0
C54 C 0.90786 0.74688 0.96252 0.0
C55 C 0.89398 0.70685 0.91441 0.0
C56 C 0.91758 0.68855 0.93031 0.0
C57 C 0.88889 0.7365 0.93046 0.0
H58 H 0.94597 0.73574 0.00198 0.0
H59 H 0.92195 0.66612 0.91726 0.0
O60 O 0.02737 0.63159 0.02202 0.0
O61 O 0.97663 0.68033 0.04247 0.0
O62 O 0.00977 0.686 0.9621 0.0
O63 O 0.96656 0.62943 0.97708 0.0
H64 H 0.03354 0.61019 0.09731 0.0
H65 H 0.08249 0.64777 0.99445 0.0
H66 H 0.083 0.60738 0.13532 0.0
H67 H 0.13111 0.6444 0.03426 0.0
H68 H 0.88095 0.69514 0.09608 0.0
H69 H 0.99375 0.70064 0.11533 0.0
H70 H 0.91536 0.68021 0.03913 0.0
H71 H 0.95794 0.71559 0.17088 0.0
H72 H 0.08374 0.71528 0.13538 0.0
H73 H 0.09097 0.76615 0.02219 0.0
H74 H 0.94082 0.53467 0.0806 0.0
H75 H 0.96263 0.60056 0.17577 0.0
H76 H 0.97808 0.69996 0.89543 0.0
H77 H 0.0691 0.68325 0.94319 0.0
H78 H 0.00095 0.70777 0.82681 0.0
H79 H 0.0904 0.69115 0.87369 0.0
H80 H 0.95204 0.60157 0.90769 0.0
H81 H 0.91749 0.62867 0.02548 0.0
H82 H 0.90047 0.58017 0.891 0.0
H83 H 0.86643 0.60717 0.00663 0.0
H84 H 0.08294 0.56367 0.9059 0.0
H85 H 0.01366 0.60155 0.82499 0.0
H86 H 0.90524 0.76978 0.9753 0.0
H87 H 0.87985 0.69779 0.88987 0.0
Li88 Li 0.35594 0.99008 0.26796 0.0
Li89 Li 0.31332 0.02308 0.25533 0.0
Li90 Li 0.31256 0.97019 0.23394 0.0
Li91 Li 0.34771 0.00614 0.19908 0.0
C92 C 0.31286 0.99485 0.33032 0.0
N93 N 0.3108 0.01321 0.41112 0.0
C94 C 0.33119 0.0194 0.34389 0.0
C95 C 0.29348 0.97969 0.35785 0.0
C96 C 0.32981 0.02832 0.38484 0.0
C97 C 0.29276 0.9893 0.39858 0.0
C98 C 0.36235 0.06219 0.23394 0.0
C99 C 0.34737 0.10568 0.19246 0.0
N100 N 0.37132 0.12223 0.20806 0.0
C101 C 0.38685 0.07961 0.24949 0.0
C102 C 0.34244 0.0753 0.20512 0.0
C103 C 0.39098 0.10992 0.23606 0.0
C104 C 0.41566 0.99692 0.29711 0.0
N105 N 0.38876 0.98198 0.30488 0.0
C106 C 0.40985 0.95968 0.36545 0.0
C107 C 0.3855 0.96321 0.33786 0.0
C108 C 0.43763 0.97568 0.35891 0.0
C109 C 0.44054 0.99406 0.3238 0.0
H110 H 0.41762 0.01137 0.27032 0.0
H111 H 0.36384 0.95146 0.3431 0.0
C112 C 0.25737 0.04985 0.27782 0.0
N113 N 0.28823 0.05524 0.27673 0.0
C114 C 0.23736 0.07195 0.29388 0.0
C115 C 0.2814 0.10442 0.30853 0.0
C116 C 0.30053 0.08165 0.29228 0.0
C117 C 0.24932 0.09977 0.30936 0.0
H118 H 0.24837 0.02811 0.26678 0.0
H119 H 0.3252 0.08501 0.29261 0.0
C120 C 0.3773 0.94255 0.22966 0.0
N121 N 0.42137 0.90103 0.25595 0.0
C122 C 0.40776 0.94518 0.21617 0.0
C123 C 0.36918 0.91871 0.2563 0.0
C124 C 0.42973 0.92399 0.22989 0.0
C125 C 0.39181 0.89796 0.26928 0.0
C126 C 0.28135 0.99548 0.17309 0.0
C127 C 0.29134 0.97353 0.14473 0.0
C128 C 0.25024 0.00393 0.1741 0.0
C129 C 0.26995 0.96009 0.11816 0.0
C130 C 0.22956 0.98996 0.147 0.0
N131 N 0.23975 0.96849 0.11988 0.0
C132 C 0.25577 0.93972 0.23767 0.0
C133 C 0.29494 0.91141 0.2037 0.0
C134 C 0.23372 0.91775 0.22668 0.0
N135 N 0.28551 0.93644 0.22538 0.0
C136 C 0.2737 0.88873 0.19236 0.0
C137 C 0.24253 0.89213 0.20313 0.0
H138 H 0.24899 0.96009 0.25455 0.0
H139 H 0.31864 0.90977 0.19365 0.0
C140 C 0.39902 0.02282 0.1543 0.0
N141 N 0.36815 0.01815 0.15064 0.0
C142 C 0.41656 0.03068 0.12023 0.0
C143 C 0.37003 0.02961 0.07937 0.0
C144 C 0.35331 0.02209 0.11442 0.0
C145 C 0.40212 0.03364 0.08204 0.0
H146 H 0.41004 0.02003 0.18373 0.0
H147 H 0.32861 0.0192 0.11258 0.0
O148 O 0.31357 0.98556 0.29035 0.0
O149 O 0.35833 0.03239 0.24676 0.0
O150 O 0.35561 0.96352 0.21746 0.0
O151 O 0.30181 0.00804 0.20033 0.0
H152 H 0.34639 0.03145 0.3232 0.0
H153 H 0.27912 0.96067 0.34781 0.0
H154 H 0.34388 0.04725 0.39574 0.0
H155 H 0.27787 0.97775 0.42022 0.0
H156 H 0.33213 0.11612 0.17022 0.0
H157 H 0.40248 0.0698 0.27178 0.0
H158 H 0.32336 0.06229 0.19263 0.0
H159 H 0.40983 0.12368 0.24789 0.0
H160 H 0.40658 0.94546 0.39229 0.0
H161 H 0.46172 0.00636 0.31724 0.0
H162 H 0.21287 0.06704 0.29486 0.0
H163 H 0.29164 0.1255 0.32006 0.0
H164 H 0.41442 0.96348 0.19553 0.0
H165 H 0.34574 0.91655 0.26733 0.0
H166 H 0.45343 0.92582 0.21986 0.0
H167 H 0.38591 0.87951 0.29011 0.0
H168 H 0.3153 0.96651 0.14379 0.0
H169 H 0.24211 0.02104 0.19555 0.0
H170 H 0.27733 0.94286 0.09635 0.0
H171 H 0.20539 0.99618 0.14757 0.0
H172 H 0.20994 0.92106 0.23583 0.0
H173 H 0.28132 0.86952 0.17374 0.0
H174 H 0.44129 0.03337 0.12349 0.0
H175 H 0.35806 0.03208 0.05049 0.0
Li176 Li 0.01666 0.35934 0.53518 0.0
Li177 Li 0.97999 0.31789 0.52215 0.0
Li178 Li 0.02936 0.31983 0.4869 0.0
Li179 Li 0.98831 0.35634 0.47098 0.0
C180 C 0.03447 0.31472 0.58367 0.0
N181 N 0.05909 0.31797 0.66144 0.0
C182 C 0.01601 0.30838 0.61763 0.0
C183 C 0.06548 0.32258 0.58926 0.0
C184 C 0.0289 0.31015 0.6567 0.0
C185 C 0.07748 0.32417 0.62882 0.0
C186 C 0.95149 0.38602 0.52047 0.0
C187 C 0.90404 0.40586 0.49224 0.0
N188 N 0.91222 0.43476 0.5044 0.0
C189 C 0.9594 0.41591 0.53276 0.0
C190 C 0.92355 0.38091 0.50016 0.0
C191 C 0.93923 0.44024 0.52434 0.0
C192 C 0.05611 0.40534 0.56926 0.0
N193 N 0.03155 0.3865 0.57605 0.0
C194 C 0.02513 0.40676 0.64324 0.0
C195 C 0.01594 0.38697 0.61198 0.0
C196 C 0.05032 0.42662 0.63719 0.0
C197 C 0.06592 0.42581 0.59963 0.0
H198 H 0.06779 0.40476 0.54014 0.0
H199 H 0.99607 0.37219 0.61608 0.0
C200 C 0.96162 0.26186 0.55653 0.0
N201 N 0.95138 0.29052 0.54665 0.0
C202 C 0.94171 0.24054 0.57445 0.0
C203 C 0.90107 0.27871 0.57177 0.0
C204 C 0.92185 0.29936 0.55405 0.0
C205 C 0.91092 0.24882 0.58221 0.0
H206 H 0.98536 0.25564 0.55055 0.0
H207 H 0.9144 0.32236 0.54609 0.0
C208 C 0.05773 0.36725 0.45487 0.0
N209 N 0.10837 0.36864 0.40373 0.0
C210 C 0.05378 0.37169 0.41291 0.0
C211 C 0.08744 0.36368 0.47086 0.0
C212 C 0.07968 0.37232 0.38756 0.0
C213 C 0.11274 0.36438 0.44448 0.0
C214 C 0.97149 0.28536 0.45645 0.0
C215 C 0.98603 0.25658 0.45724 0.0
C216 C 0.93955 0.28701 0.45086 0.0
C217 C 0.9683 0.22986 0.45262 0.0
C218 C 0.92263 0.25975 0.44644 0.0
N219 N 0.93723 0.23198 0.44741 0.0
C220 C 0.08052 0.27917 0.4878 0.0
C221 C 0.0616 0.29256 0.4222 0.0
C222 C 0.10237 0.25949 0.47049 0.0
N223 N 0.06076 0.29515 0.46353 0.0
C224 C 0.08314 0.27327 0.40358 0.0
C225 C 0.10372 0.25616 0.42781 0.0
H226 H 0.07884 0.28112 0.5206 0.0
H227 H 0.04518 0.30517 0.40375 0.0
C228 C 0.97715 0.41119 0.42891 0.0
N229 N 0.97105 0.38044 0.42845 0.0
C230 C 0.96715 0.42993 0.39697 0.0
C231 C 0.94482 0.38495 0.36456 0.0
C232 C 0.9551 0.36708 0.39736 0.0
C233 C 0.95113 0.41677 0.36395 0.0
H234 H 0.99053 0.42099 0.45363 0.0
H235 H 0.95106 0.34247 0.39748 0.0
O236 O 0.02214 0.3137 0.5452 0.0
O237 O 0.97114 0.36196 0.52785 0.0
O238 O 0.03264 0.366 0.48013 0.0
O239 O 0.98832 0.31175 0.46206 0.0
H240 H 0.9919 0.30256 0.61395 0.0
H241 H 0.08003 0.32782 0.56336 0.0
H242 H 0.01485 0.30545 0.68326 0.0
H243 H 0.10138 0.33042 0.6336 0.0
H244 H 0.88247 0.40227 0.47629 0.0
H245 H 0.98098 0.42037 0.54827 0.0
H246 H 0.91723 0.35801 0.48996 0.0
H247 H 0.9451 0.46351 0.53354 0.0
H248 H 0.01207 0.40714 0.67143 0.0
H249 H 0.08542 0.44082 0.59382 0.0
H250 H 0.95048 0.21797 0.58259 0.0
H251 H 0.87747 0.28598 0.57672 0.0
H252 H 0.03098 0.3743 0.39994 0.0
H253 H 0.0909 0.36005 0.50321 0.0
H254 H 0.07696 0.3756 0.35501 0.0
H255 H 0.13584 0.36146 0.4564 0.0
H256 H 0.01068 0.25484 0.46188 0.0
H257 H 0.92789 0.30908 0.45059 0.0
H258 H 0.97922 0.20742 0.45337 0.0
H259 H 0.89787 0.26067 0.44239 0.0
H260 H 0.11738 0.24632 0.49038 0.0
H261 H 0.08354 0.27167 0.37058 0.0
H262 H 0.97307 0.45422 0.39733 0.0
H263 H 0.9325 0.37395 0.3397 0.0
Li264 Li 0.64152 0.00799 0.77457 0.0
Li265 Li 0.6798 0.96938 0.76057 0.0
Li266 Li 0.68743 0.02426 0.73741 0.0
Li267 Li 0.64898 0.98903 0.70555 0.0
C268 C 0.69 0.02368 0.82894 0.0
N269 N 0.70063 0.05628 0.90018 0.0
C270 C 0.69129 0.00827 0.8664 0.0
C271 C 0.69435 0.05565 0.82769 0.0
C272 C 0.69661 0.02517 0.90209 0.0
C273 C 0.69964 0.07172 0.86405 0.0
C274 C 0.62834 0.93767 0.7695 0.0
C275 C 0.62888 0.88213 0.76458 0.0
N276 N 0.61693 0.88024 0.80289 0.0
C277 C 0.61596 0.9352 0.80877 0.0
C278 C 0.63473 0.91095 0.74712 0.0
C279 C 0.61038 0.90594 0.82512 0.0
C280 C 0.58058 0.01064 0.7981 0.0
N281 N 0.60896 0.02018 0.81055 0.0
C282 C 0.58734 0.04248 0.87083 0.0
C283 C 0.61266 0.03638 0.8458 0.0
C284 C 0.55781 0.03219 0.85923 0.0
C285 C 0.55459 0.01663 0.82181 0.0
H286 H 0.57822 -0.00201 0.76978 0.0
H287 H 0.63513 0.04424 0.85509 0.0
C288 C 0.72471 0.92248 0.75908 0.0
N289 N 0.70153 0.93483 0.78167 0.0
C290 C 0.74258 0.89847 0.77479 0.0
C291 C 0.71202 0.9 0.83646 0.0
C292 C 0.69492 0.92413 0.81967 0.0
C293 C 0.73652 0.88708 0.81417 0.0
H294 H 0.72985 0.9318 0.72925 0.0
H295 H 0.67663 0.93461 0.83721 0.0
C296 C 0.62009 0.0524 0.7272 0.0
N297 N 0.57038 0.09137 0.73831 0.0
C298 C 0.592 0.04619 0.70783 0.0
C299 C 0.62298 0.07853 0.75196 0.0
C300 C 0.56713 0.06617 0.71388 0.0
C301 C 0.59756 0.09791 0.75728 0.0
C302 C 0.70136 0.97736 0.66769 0.0
C303 C 0.71345 -0.00034 0.64134 0.0
C304 C 0.69548 0.94759 0.65314 0.0
C305 C 0.71916 0.99185 0.60064 0.0
C306 C 0.70146 0.94071 0.61223 0.0
N307 N 0.71307 0.9628 0.58704 0.0
C308 C 0.74696 0.04919 0.73209 0.0
C309 C 0.7069 0.08253 0.70993 0.0
C310 C 0.76926 0.07079 0.72075 0.0
N311 N 0.71656 0.05535 0.72614 0.0
C312 C 0.72838 0.10488 0.69844 0.0
C313 C 0.76003 0.09894 0.70331 0.0
H314 H 0.75383 0.0272 0.74482 0.0
H315 H 0.68256 0.08653 0.70502 0.0
C316 C 0.60707 0.95792 0.65341 0.0
N317 N 0.62857 0.98069 0.65568 0.0
C318 C 0.58945 0.95422 0.618 0.0
C319 C 0.61714 0.99694 0.58772 0.0
C320 C 0.63397 -3e-05 0.62379 0.0
C321 C 0.59402 0.97426 0.58478 0.0
H322 H 0.60275 0.94341 0.67962 0.0
H323 H 0.65075 0.01831 0.62687 0.0
O324 O 0.68521 0.00741 0.79369 0.0
O325 O 0.63416 0.96609 0.75303 0.0
O326 O 0.64449 0.03273 0.72244 0.0
O327 O 0.69519 0.98467 0.70748 0.0
H328 H 0.68813 0.98355 0.86797 0.0
H329 H 0.69342 0.06801 0.7991 0.0
H330 H 0.69755 0.01356 0.9313 0.0
H331 H 0.70292 0.09647 0.86354 0.0
H332 H 0.63386 0.86126 0.74769 0.0
H333 H 0.61109 0.95559 0.82668 0.0
H334 H 0.6443 0.91246 0.7167 0.0
H335 H 0.60096 0.90367 0.85555 0.0
H336 H 0.59113 0.05426 0.89957 0.0
H337 H 0.53228 0.00882 0.81105 0.0
H338 H 0.76156 0.88967 0.75676 0.0
H339 H 0.70624 0.89175 0.86671 0.0
H340 H 0.58931 0.026 0.68871 0.0
H341 H 0.64453 0.08361 0.76727 0.0
H342 H 0.5452 0.06157 0.69926 0.0
H343 H 0.5994 0.1181 0.77658 0.0
H344 H 0.71811 0.02282 0.65206 0.0
H345 H 0.6862 0.93007 0.67318 0.0
H346 H 0.72836 0.00891 0.57984 0.0
H347 H 0.69686 0.91782 0.60049 0.0
H348 H 0.79343 0.06545 0.72526 0.0
H349 H 0.72035 0.12611 0.68458 0.0
H350 H 0.57155 0.93679 0.61742 0.0
H351 H 0.62174 0.01265 0.56276 0.0
H352 H 0.92018 0.57266 0.20571 0.0
H353 H 0.95774 0.40181 0.28324 0.0
H354 H 0.96415 0.50283 0.13182 0.0
H355 H 0.92731 0.47538 0.36243 0.0
H356 H 0.95105 0.43588 0.22452 0.0
H357 H 0.91421 0.53484 0.26049 0.0
C358 C 0.92844 0.54935 0.2009 0.0
C359 C 0.94302 0.54104 0.16422 0.0
C360 C 0.94553 0.44448 0.25469 0.0
C361 C 0.93601 0.49759 0.22669 0.0
C362 C 0.94911 0.42496 0.28822 0.0
C363 C 0.94334 0.43588 0.32784 0.0
C364 C 0.93611 0.47515 0.26081 0.0
C365 C 0.93253 0.46622 0.33246 0.0
C366 C 0.92489 0.52775 0.23212 0.0
C367 C 0.95261 0.51029 0.1594 0.0
N368 N 0.92949 0.48487 0.29938 0.0
N369 N 0.94918 0.48978 0.1904 0.0
H370 H 0.47283 0.02371 0.38626 0.0
H371 H 0.56968 0.92315 0.54623 0.0
H372 H 0.45954 0.92566 0.40177 0.0
H373 H 0.57061 0.02277 0.54119 0.0
H374 H 0.53302 0.92252 0.48925 0.0
H375 H 0.51297 0.02255 0.43829 0.0
C376 C 0.4786 0.00183 0.40032 0.0
C377 C 0.46282 0.97472 0.38958 0.0
C378 C 0.54143 0.94447 0.50055 0.0
C379 C 0.50857 0.97331 0.44982 0.0
C380 C 0.56226 0.94487 0.53316 0.0
C381 C 0.57333 0.97306 0.54859 0.0
C382 C 0.53164 0.97245 0.48323 0.0
C383 C 0.56321 0.00045 0.53 0.0
C384 C 0.50139 0.00123 0.43029 0.0
C385 C 0.47091 0.94715 0.40943 0.0
N386 N 0.54294 -0.00057 0.49844 0.0
N387 N 0.49324 0.94714 0.43866 0.0
H388 H 0.06326 0.5186 0.86896 0.0
H389 H 0.06392 0.48798 0.62832 0.0
H390 H 0.05689 0.5909 0.7787 0.0
H391 H 0.05604 0.41638 0.71924 0.0
H392 H 0.07169 0.52587 0.68285 0.0
H393 H 0.07121 0.48111 0.81436 0.0
C394 C 0.06413 0.5267 0.8377 0.0
C395 C 0.05909 0.55791 0.82835 0.0
C396 C 0.06861 0.50182 0.69083 0.0
C397 C 0.06764 0.51497 0.76562 0.0
C398 C 0.06437 0.48017 0.65973 0.0
C399 C 0.05897 0.44907 0.66936 0.0
C400 C 0.06754 0.49225 0.73179 0.0
C401 C 0.05956 0.44023 0.71056 0.0
C402 C 0.06842 0.50522 0.8065 0.0
C403 C 0.06011 0.56697 0.78721 0.0
N404 N 0.0635 0.46175 0.74028 0.0
N405 N 0.064 0.54556 0.75732 0.0
H406 H 0.44912 0.07513 0.07108 0.0
H407 H 0.50976 0.99202 0.87172 0.0
H408 H 0.39819 0.00341 0.00911 0.0
H409 H 0.54462 0.08074 0.91087 0.0
H410 H 0.46817 0.99656 0.92105 0.0
H411 H 0.48403 0.07843 0.0125 0.0
C412 C 0.44514 0.06031 0.04493 0.0
C413 C 0.42092 0.03881 0.04498 0.0
C414 C 0.48472 0.0152 0.91856 0.0
C415 C 0.46076 0.04227 0.97819 0.0
C416 C 0.50847 0.01274 0.89014 0.0
C417 C 0.53098 0.03598 0.88707 0.0
C418 C 0.48361 0.04085 0.94468 0.0
C419 C 0.52825 0.06192 0.91264 0.0
C420 C 0.46496 0.06229 0.01148 0.0
C421 C 0.41652 0.02039 0.01022 0.0
N422 N 0.5052 0.0635 0.94068 0.0
N423 N 0.43652 0.02224 0.97843 0.0
H424 H 0.18643 0.90546 0.16951 0.0
H425 H 0.13975 0.72918 0.1303 0.0
H426 H 0.24548 0.82889 0.20089 0.0
H427 H 0.09188 0.8065 0.07664 0.0
H428 H 0.17625 0.76512 0.16206 0.0
H429 H 0.14882 0.8692 0.14134 0.0
C430 C 0.19131 0.88096 0.17086 0.0
C431 C 0.21906 0.87013 0.18767 0.0
C432 C 0.15777 0.7742 0.14331 0.0
C433 C 0.17628 0.82852 0.15507 0.0
C434 C 0.13687 0.75374 0.12537 0.0
C435 C 0.11282 0.7649 0.10073 0.0
C436 C 0.15441 0.80607 0.13688 0.0
C437 C 0.11031 0.7969 0.09501 0.0
C438 C 0.16996 0.8603 0.15448 0.0
C439 C 0.22445 0.83819 0.18795 0.0
N440 N 0.13079 0.81636 0.11303 0.0
N441 N 0.20322 0.81848 0.17194 0.0
H442 H 0.25855 0.13596 0.37714 0.0
H443 H 0.09352 0.21759 0.36279 0.0
H444 H 0.19261 0.11794 0.28104 0.0
H445 H 0.16372 0.24408 0.44975 0.0
H446 H 0.1293 0.18049 0.33303 0.0
H447 H 0.22388 0.17506 0.40494 0.0
C448 C 0.23688 0.14036 0.36169 0.0
C449 C 0.22851 0.12361 0.32664 0.0
C450 C 0.13694 0.19449 0.35854 0.0
C451 C 0.18851 0.1681 0.35869 0.0
C452 C 0.11657 0.21585 0.3754 0.0
C453 C 0.12561 0.23407 0.40882 0.0
C454 C 0.16659 0.19115 0.37526 0.0
C455 C 0.15559 0.23027 0.42436 0.0
C456 C 0.21703 0.1626 0.37772 0.0
C457 C 0.19986 0.12995 0.30842 0.0
N458 N 0.17498 0.20919 0.4075 0.0
N459 N 0.1809 0.15166 0.32467 0.0
H460 H 0.76022 0.16183 0.71246 0.0
H461 H 0.90659 0.18656 0.56804 0.0
H462 H 0.81235 0.08701 0.6596 0.0
H463 H 0.8658 0.25984 0.63927 0.0
H464 H 0.87109 0.15 0.59959 0.0
H465 H 0.79742 0.1985 0.68404 0.0
C466 C 0.77953 0.15315 0.69492 0.0
C467 C 0.78323 0.12135 0.68836 0.0
C468 C 0.86996 0.17407 0.60841 0.0
C469 C 0.82578 0.16308 0.65574 0.0
C470 C 0.89034 0.19497 0.59053 0.0
C471 C 0.88927 0.22638 0.60103 0.0
C472 C 0.84816 0.18461 0.63685 0.0
C473 C 0.86721 0.23595 0.62978 0.0
C474 C 0.80081 0.17405 0.67886 0.0
C475 C 0.80882 0.1113 0.66577 0.0
N476 N 0.8475 0.21516 0.64662 0.0
N477 N 0.82902 0.13211 0.65007 0.0
H478 H 0.75631 0.88256 0.89359 0.0
H479 H 0.87158 0.74306 0.85021 0.0
H480 H 0.7628 0.83672 0.77672 0.0
H481 H 0.85054 0.77635 0.97138 0.0
H482 H 0.83238 0.77759 0.82249 0.0
H483 H 0.79118 0.84424 0.92249 0.0
C484 C 0.76473 0.86424 0.87406 0.0
C485 C 0.75655 0.86296 0.83256 0.0
C486 C 0.83624 0.77722 0.85516 0.0
C487 C 0.79713 0.81929 0.86543 0.0
C488 C 0.85853 0.75738 0.87109 0.0
C489 C 0.86448 0.75678 0.91326 0.0
C490 C 0.81987 0.79683 0.88151 0.0
C491 C 0.84717 0.77636 0.93863 0.0
C492 C 0.78483 0.84245 0.89058 0.0
C493 C 0.76881 0.83897 0.80868 0.0
N494 N 0.82576 0.79566 0.92234 0.0
N495 N 0.78859 0.81819 0.82541 0.0
loop_
_geom_bond_atom_site_label_1
_geom_bond_atom_site_label_2
_geom_bond_distance
_geom_bond_site_symmetry_2
_ccdc_geom_bond_type
Li0 N17 1.990 . S
Li0 O60 1.956 . S
Li0 O61 1.970 1_455 S
Li0 O62 1.961 1_554 S
Li1 N25 1.990 . S
Li1 O60 1.970 1_655 S
Li1 O61 1.956 . S
Li1 O63 1.961 1_554 S
Li2 N47 1.990 . S
Li2 O60 1.961 1_556 S
Li2 O62 1.956 . S
Li2 O63 1.970 1_455 S
Li3 N53 1.990 . S
Li3 O61 1.961 1_556 S
Li3 O62 1.970 1_655 S
Li3 O63 1.956 . S
C4 C6 1.348 . S
C4 C7 1.356 1_554 S
C4 O60 1.325 . S
N5 C8 1.314 . S
N5 C9 1.279 . S
C6 C4 1.348 . S
C6 C8 1.353 . S
C6 H64 0.929 . S
C7 C4 1.356 1_556 S
C7 C9 1.358 1_556 S
C7 H65 0.930 . S
C8 N5 1.314 . S
C8 C6 1.353 . S
C8 H66 0.930 . S
C9 N5 1.279 . S
C9 C7 1.358 1_554 S
C9 H67 0.930 1_554 S
C10 C13 1.348 1_655 S
C10 C14 1.356 . S
C10 O61 1.325 . S
C11 N12 1.279 . S
C11 C14 1.358 . S
C11 H68 0.930 . S
N12 C11 1.279 . S
N12 C15 1.314 . S
C13 C10 1.348 1_455 S
C13 C15 1.353 1_455 S
C13 H69 0.929 . S
C14 C10 1.356 . S
C14 C11 1.358 . S
C14 H70 0.930 . S
C15 N12 1.314 . S
C15 C13 1.353 1_655 S
C15 H71 0.930 1_655 S
C16 N17 1.314 . S
C16 C21 1.353 . S
C16 H22 0.930 1_554 S
N17 Li0 1.990 . S
N17 C16 1.314 . S
N17 C19 1.279 . S
C18 C19 1.358 . S
C18 C20 1.356 . S
C18 H72 0.930 . S
C19 N17 1.279 . S
C19 C18 1.358 . S
C19 H23 0.930 . S
C20 C18 1.356 . S
C20 C21 1.348 . S
C21 C16 1.353 . S
C21 C20 1.348 . S
C21 H73 0.929 . S
H22 C16 0.930 1_556 S
H23 C19 0.930 . S
C24 N25 1.314 . S
C24 C26 1.353 . S
C24 H30 0.930 . S
N25 Li1 1.990 . S
N25 C24 1.314 . S
N25 C28 1.279 . S
C26 C24 1.353 . S
C26 C29 1.348 . S
C26 H74 0.929 . S
C27 C28 1.358 . S
C27 C29 1.356 . S
C27 H75 0.930 . S
C28 N25 1.279 . S
C28 C27 1.358 . S
C28 H31 0.930 . S
C29 C26 1.348 . S
C29 C27 1.356 . S
H30 C24 0.930 . S
H31 C28 0.930 . S
C32 C34 1.348 1_455 S
C32 C35 1.356 . S
C32 O62 1.325 . S
N33 C36 1.314 . S
N33 C37 1.279 . S
C34 C32 1.348 1_655 S
C34 C36 1.353 1_655 S
C34 H76 0.929 . S
C35 C32 1.356 . S
C35 C37 1.358 . S
C35 H77 0.930 . S
C36 N33 1.314 . S
C36 C34 1.353 1_455 S
C36 H78 0.930 1_455 S
C37 N33 1.279 . S
C37 C35 1.358 . S
C37 H79 0.930 . S
C38 C39 1.348 . S
C38 C40 1.356 1_556 S
C38 O63 1.325 . S
C39 C38 1.348 . S
C39 C41 1.353 . S
C39 H80 0.929 . S
C40 C38 1.356 1_554 S
C40 C42 1.358 1_554 S
C40 H81 0.930 . S
C41 C39 1.353 . S
C41 N43 1.314 . S
C41 H82 0.930 . S
C42 C40 1.358 1_556 S
C42 N43 1.279 . S
C42 H83 0.930 1_556 S
N43 C41 1.314 . S
N43 C42 1.279 . S
C44 C46 1.353 . S
C44 N47 1.314 . S
C44 H50 0.930 . S
C45 N47 1.279 . S
C45 C48 1.358 . S
C45 H51 0.930 . S
C46 C44 1.353 . S
C46 C49 1.348 . S
C46 H84 0.929 . S
N47 Li2 1.990 . S
N47 C44 1.314 . S
N47 C45 1.279 . S
C48 C45 1.358 . S
C48 C49 1.356 . S
C48 H85 0.930 . S
C49 C46 1.348 . S
C49 C48 1.356 . S
H50 C44 0.930 . S
H51 C45 0.930 . S
C52 N53 1.314 . S
C52 C54 1.353 . S
C52 H58 0.930 1_556 S
N53 Li3 1.990 . S
N53 C52 1.314 . S
N53 C56 1.279 . S
C54 C52 1.353 . S
C54 C57 1.348 . S
C54 H86 0.929 . S
C55 C56 1.358 . S
C55 C57 1.356 . S
C55 H87 0.930 . S
C56 N53 1.279 . S
C56 C55 1.358 . S
C56 H59 0.930 . S
C57 C54 1.348 . S
C57 C55 1.356 . S
H58 C52 0.930 1_554 S
H59 C56 0.930 . S
O60 Li0 1.956 . S
O60 Li1 1.970 1_455 S
O60 Li2 1.961 1_554 S
O60 C4 1.325 . S
O61 Li0 1.970 1_655 S
O61 Li1 1.956 . S
O61 Li3 1.961 1_554 S
O61 C10 1.325 . S
O62 Li0 1.961 1_556 S
O62 Li2 1.956 . S
O62 Li3 1.970 1_455 S
O62 C32 1.325 . S
O63 Li1 1.961 1_556 S
O63 Li2 1.970 1_655 S
O63 Li3 1.956 . S
O63 C38 1.325 . S
H64 C6 0.929 . S
H65 C7 0.930 . S
H66 C8 0.930 . S
H67 C9 0.930 1_556 S
H68 C11 0.930 . S
H69 C13 0.929 . S
H70 C14 0.930 . S
H71 C15 0.930 1_455 S
H72 C18 0.930 . S
H73 C21 0.929 . S
H74 C26 0.929 . S
H75 C27 0.930 . S
H76 C34 0.929 . S
H77 C35 0.930 . S
H78 C36 0.930 1_655 S
H79 C37 0.930 . S
H80 C39 0.929 . S
H81 C40 0.930 . S
H82 C41 0.930 . S
H83 C42 0.930 1_554 S
H84 C46 0.929 . S
H85 C48 0.930 . S
H86 C54 0.929 . S
H87 C55 0.930 . S
Li88 N105 1.990 . S
Li88 O148 1.956 . S
Li88 O149 1.970 1_565 S
Li88 O150 1.961 . S
Li89 N113 1.990 . S
Li89 O148 1.970 1_545 S
Li89 O149 1.956 . S
Li89 O151 1.961 . S
Li90 N135 1.990 . S
Li90 O148 1.961 . S
Li90 O150 1.956 . S
Li90 O151 1.970 1_565 S
Li91 N141 1.990 . S
Li91 O149 1.961 . S
Li91 O150 1.970 1_545 S
Li91 O151 1.956 . S
C92 C94 1.348 1_565 S
C92 C95 1.356 . S
C92 O148 1.325 . S
N93 C96 1.314 . S
N93 C97 1.279 . S
C94 C92 1.348 1_545 S
C94 C96 1.353 1_545 S
C94 H152 0.929 . S
C95 C92 1.356 . S
C95 C97 1.358 . S
C95 H153 0.930 . S
C96 N93 1.314 . S
C96 C94 1.353 1_565 S
C96 H154 0.930 1_565 S
C97 N93 1.279 . S
C97 C95 1.358 . S
C97 H155 0.930 . S
C98 C101 1.348 . S
C98 C102 1.356 . S
C98 O149 1.325 . S
C99 N100 1.279 . S
C99 C102 1.358 . S
C99 H156 0.930 . S
N100 C99 1.279 . S
N100 C103 1.314 . S
C101 C98 1.348 . S
C101 C103 1.353 . S
C101 H157 0.929 . S
C102 C98 1.356 . S
C102 C99 1.358 . S
C102 H158 0.930 . S
C103 N100 1.314 . S
C103 C101 1.353 . S
C103 H159 0.930 . S
C104 N105 1.314 . S
C104 C109 1.353 . S
C104 H110 0.930 . S
N105 Li88 1.990 . S
N105 C104 1.314 . S
N105 C107 1.279 . S
C106 C107 1.358 . S
C106 C108 1.356 . S
C106 H160 0.930 . S
C107 N105 1.279 . S
C107 C106 1.358 . S
C107 H111 0.930 . S
C108 C106 1.356 . S
C108 C109 1.348 . S
C109 C104 1.353 . S
C109 C108 1.348 . S
C109 H161 0.929 . S
H110 C104 0.930 . S
H111 C107 0.930 . S
C112 N113 1.314 . S
C112 C114 1.353 . S
C112 H118 0.930 . S
N113 Li89 1.990 . S
N113 C112 1.314 . S
N113 C116 1.279 . S
C114 C112 1.353 . S
C114 C117 1.348 . S
C114 H162 0.929 . S
C115 C116 1.358 . S
C115 C117 1.356 . S
C115 H163 0.930 . S
C116 N113 1.279 . S
C116 C115 1.358 . S
C116 H119 0.930 . S
C117 C114 1.348 . S
C117 C115 1.356 . S
H118 C112 0.930 . S
H119 C116 0.930 . S
C120 C122 1.348 . S
C120 C123 1.356 . S
C120 O150 1.325 . S
N121 C124 1.314 . S
N121 C125 1.279 . S
C122 C120 1.348 . S
C122 C124 1.353 . S
C122 H164 0.929 . S
C123 C120 1.356 . S
C123 C125 1.358 . S
C123 H165 0.930 . S
C124 N121 1.314 . S
C124 C122 1.353 . S
C124 H166 0.930 . S
C125 N121 1.279 . S
C125 C123 1.358 . S
C125 H167 0.930 . S
C126 C127 1.348 1_545 S
C126 C128 1.356 . S
C126 O151 1.325 . S
C127 C126 1.348 1_565 S
C127 C129 1.353 1_565 S
C127 H168 0.929 . S
C128 C126 1.356 . S
C128 C130 1.358 . S
C128 H169 0.930 . S
C129 C127 1.353 1_545 S
C129 N131 1.314 . S
C129 H170 0.930 1_545 S
C130 C128 1.358 . S
C130 N131 1.279 . S
C130 H171 0.930 . S
N131 C129 1.314 . S
N131 C130 1.279 . S
C132 C134 1.353 . S
C132 N135 1.314 . S
C132 H138 0.930 . S
C133 N135 1.279 . S
C133 C136 1.358 . S
C133 H139 0.930 . S
C134 C132 1.353 . S
C134 C137 1.348 . S
C134 H172 0.929 . S
N135 Li90 1.990 . S
N135 C132 1.314 . S
N135 C133 1.279 . S
C136 C133 1.358 . S
C136 C137 1.356 . S
C136 H173 0.930 . S
C137 C134 1.348 . S
C137 C136 1.356 . S
H138 C132 0.930 . S
H139 C133 0.930 . S
C140 N141 1.314 . S
C140 C142 1.353 . S
C140 H146 0.930 . S
N141 Li91 1.990 . S
N141 C140 1.314 . S
N141 C144 1.279 . S
C142 C140 1.353 . S
C142 C145 1.348 . S
C142 H174 0.929 . S
C143 C144 1.358 . S
C143 C145 1.356 . S
C143 H175 0.930 . S
C144 N141 1.279 . S
C144 C143 1.358 . S
C144 H147 0.930 . S
C145 C142 1.348 . S
C145 C143 1.356 . S
H146 C140 0.930 . S
H147 C144 0.930 . S
O148 Li88 1.956 . S
O148 Li89 1.970 1_565 S
O148 Li90 1.961 . S
O148 C92 1.325 . S
O149 Li88 1.970 1_545 S
O149 Li89 1.956 . S
O149 Li91 1.961 . S
O149 C98 1.325 . S
O150 Li88 1.961 . S
O150 Li90 1.956 . S
O150 Li91 1.970 1_565 S
O150 C120 1.325 . S
O151 Li89 1.961 . S
O151 Li90 1.970 1_545 S
O151 Li91 1.956 . S
O151 C126 1.325 . S
H152 C94 0.929 . S
H153 C95 0.930 . S
H154 C96 0.930 1_545 S
H155 C97 0.930 . S
H156 C99 0.930 . S
H157 C101 0.929 . S
H158 C102 0.930 . S
H159 C103 0.930 . S
H160 C106 0.930 . S
H161 C109 0.929 . S
H162 C114 0.929 . S
H163 C115 0.930 . S
H164 C122 0.929 . S
H165 C123 0.930 . S
H166 C124 0.930 . S
H167 C125 0.930 . S
H168 C127 0.929 . S
H169 C128 0.930 . S
H170 C129 0.930 1_565 S
H171 C130 0.930 . S
H172 C134 0.929 . S
H173 C136 0.930 . S
H174 C142 0.929 . S
H175 C143 0.930 . S
Li176 N193 1.990 . S
Li176 O236 1.956 . S
Li176 O237 1.970 1_455 S
Li176 O238 1.961 . S
Li177 N201 1.990 . S
Li177 O236 1.970 1_655 S
Li177 O237 1.956 . S
Li177 O239 1.961 . S
Li178 N223 1.990 . S
Li178 O236 1.961 . S
Li178 O238 1.956 . S
Li178 O239 1.970 1_455 S
Li179 N229 1.990 . S
Li179 O237 1.961 . S
Li179 O238 1.970 1_655 S
Li179 O239 1.956 . S
C180 C182 1.348 1_455 S
C180 C183 1.356 . S
C180 O236 1.325 . S
N181 C184 1.314 . S
N181 C185 1.279 . S
C182 C180 1.348 1_655 S
C182 C184 1.353 1_655 S
C182 H240 0.929 . S
C183 C180 1.356 . S
C183 C185 1.358 . S
C183 H241 0.930 . S
C184 N181 1.314 . S
C184 C182 1.353 1_455 S
C184 H242 0.930 1_455 S
C185 N181 1.279 . S
C185 C183 1.358 . S
C185 H243 0.930 . S
C186 C189 1.348 . S
C186 C190 1.356 . S
C186 O237 1.325 . S
C187 N188 1.279 . S
C187 C190 1.358 . S
C187 H244 0.930 . S
N188 C187 1.279 . S
N188 C191 1.314 . S
C189 C186 1.348 . S
C189 C191 1.353 . S
C189 H245 0.929 . S
C190 C186 1.356 . S
C190 C187 1.358 . S
C190 H246 0.930 . S
C191 N188 1.314 . S
C191 C189 1.353 . S
C191 H247 0.930 . S
C192 N193 1.314 . S
C192 C197 1.353 . S
C192 H198 0.930 . S
N193 Li176 1.990 . S
N193 C192 1.314 . S
N193 C195 1.279 . S
C194 C195 1.358 . S
C194 C196 1.356 . S
C194 H248 0.930 . S
C195 N193 1.279 . S
C195 C194 1.358 . S
C195 H199 0.930 . S
C196 C194 1.356 . S
C196 C197 1.348 . S
C197 C192 1.353 . S
C197 C196 1.348 . S
C197 H249 0.929 . S
H198 C192 0.930 . S
H199 C195 0.930 . S
C200 N201 1.314 . S
C200 C202 1.353 . S
C200 H206 0.930 . S
N201 Li177 1.990 . S
N201 C200 1.314 . S
N201 C204 1.279 . S
C202 C200 1.353 . S
C202 C205 1.348 . S
C202 H250 0.929 . S
C203 C204 1.358 . S
C203 C205 1.356 . S
C203 H251 0.930 . S
C204 N201 1.279 . S
C204 C203 1.358 . S
C204 H207 0.930 . S
C205 C202 1.348 . S
C205 C203 1.356 . S
H206 C200 0.930 . S
H207 C204 0.930 . S
C208 C210 1.348 . S
C208 C211 1.356 . S
C208 O238 1.325 . S
N209 C212 1.314 . S
N209 C213 1.279 . S
C210 C208 1.348 . S
C210 C212 1.353 . S
C210 H252 0.929 . S
C211 C208 1.356 . S
C211 C213 1.358 . S
C211 H253 0.930 . S
C212 N209 1.314 . S
C212 C210 1.353 . S
C212 H254 0.930 . S
C213 N209 1.279 . S
C213 C211 1.358 . S
C213 H255 0.930 . S
C214 C215 1.348 1_655 S
C214 C216 1.356 . S
C214 O239 1.325 . S
C215 C214 1.348 1_455 S
C215 C217 1.353 1_455 S
C215 H256 0.929 . S
C216 C214 1.356 . S
C216 C218 1.358 . S
C216 H257 0.930 . S
C217 C215 1.353 1_655 S
C217 N219 1.314 . S
C217 H258 0.930 1_655 S
C218 C216 1.358 . S
C218 N219 1.279 . S
C218 H259 0.930 . S
N219 C217 1.314 . S
N219 C218 1.279 . S
C220 C222 1.353 . S
C220 N223 1.314 . S
C220 H226 0.930 . S
C221 N223 1.279 . S
C221 C224 1.358 . S
C221 H227 0.930 . S
C222 C220 1.353 . S
C222 C225 1.348 . S
C222 H260 0.929 . S
N223 Li178 1.990 . S
N223 C220 1.314 . S
N223 C221 1.279 . S
C224 C221 1.358 . S
C224 C225 1.356 . S
C224 H261 0.930 . S
C225 C222 1.348 . S
C225 C224 1.356 . S
H226 C220 0.930 . S
H227 C221 0.930 . S
C228 N229 1.314 . S
C228 C230 1.353 . S
C228 H234 0.930 . S
N229 Li179 1.990 . S
N229 C228 1.314 . S
N229 C232 1.279 . S
C230 C228 1.353 . S
C230 C233 1.348 . S
C230 H262 0.929 . S
C231 C232 1.358 . S
C231 C233 1.356 . S
C231 H263 0.930 . S
C232 N229 1.279 . S
C232 C231 1.358 . S
C232 H235 0.930 . S
C233 C230 1.348 . S
C233 C231 1.356 . S
H234 C228 0.930 . S
H235 C232 0.930 . S
O236 Li176 1.956 . S
O236 Li177 1.970 1_455 S
O236 Li178 1.961 . S
O236 C180 1.325 . S
O237 Li176 1.970 1_655 S
O237 Li177 1.956 . S
O237 Li179 1.961 . S
O237 C186 1.325 . S
O238 Li176 1.961 . S
O238 Li178 1.956 . S
O238 Li179 1.970 1_455 S
O238 C208 1.325 . S
O239 Li177 1.961 . S
O239 Li178 1.970 1_655 S
O239 Li179 1.956 . S
O239 C214 1.325 . S
H240 C182 0.929 . S
H241 C183 0.930 . S
H242 C184 0.930 1_655 S
H243 C185 0.930 . S
H244 C187 0.930 . S
H245 C189 0.929 . S
H246 C190 0.930 . S
H247 C191 0.930 . S
H248 C194 0.930 . S
H249 C197 0.929 . S
H250 C202 0.929 . S
H251 C203 0.930 . S
H252 C210 0.929 . S
H253 C211 0.930 . S
H254 C212 0.930 . S
H255 C213 0.930 . S
H256 C215 0.929 . S
H257 C216 0.930 . S
H258 C217 0.930 1_455 S
H259 C218 0.930 . S
H260 C222 0.929 . S
H261 C224 0.930 . S
H262 C230 0.929 . S
H263 C231 0.930 . S
Li264 N281 1.990 . S
Li264 O324 1.956 . S
Li264 O325 1.970 1_545 S
Li264 O326 1.961 . S
Li265 N289 1.990 . S
Li265 O324 1.970 1_565 S
Li265 O325 1.956 . S
Li265 O327 1.961 . S
Li266 N311 1.990 . S
Li266 O324 1.961 . S
Li266 O326 1.956 . S
Li266 O327 1.970 1_545 S
Li267 N317 1.990 . S
Li267 O325 1.961 . S
Li267 O326 1.970 1_565 S
Li267 O327 1.956 . S
C268 C270 1.348 1_545 S
C268 C271 1.356 . S
C268 O324 1.325 . S
N269 C272 1.314 . S
N269 C273 1.279 . S
C270 C268 1.348 1_565 S
C270 C272 1.353 1_565 S
C270 H328 0.929 . S
C271 C268 1.356 . S
C271 C273 1.358 . S
C271 H329 0.930 . S
C272 N269 1.314 . S
C272 C270 1.353 1_545 S
C272 H330 0.930 1_545 S
C273 N269 1.279 . S
C273 C271 1.358 . S
C273 H331 0.930 . S
C274 C277 1.348 . S
C274 C278 1.356 . S
C274 O325 1.325 . S
C275 N276 1.279 . S
C275 C278 1.358 . S
C275 H332 0.930 . S
N276 C275 1.279 . S
N276 C279 1.314 . S
C277 C274 1.348 . S
C277 C279 1.353 . S
C277 H333 0.929 . S
C278 C274 1.356 . S
C278 C275 1.358 . S
C278 H334 0.930 . S
C279 N276 1.314 . S
C279 C277 1.353 . S
C279 H335 0.930 . S
C280 N281 1.314 . S
C280 C285 1.353 . S
C280 H286 0.930 . S
N281 Li264 1.990 . S
N281 C280 1.314 . S
N281 C283 1.279 . S
C282 C283 1.358 . S
C282 C284 1.356 . S
C282 H336 0.930 . S
C283 N281 1.279 . S
C283 C282 1.358 . S
C283 H287 0.930 . S
C284 C282 1.356 . S
C284 C285 1.348 . S
C285 C280 1.353 . S
C285 C284 1.348 . S
C285 H337 0.929 . S
H286 C280 0.930 . S
H287 C283 0.930 . S
C288 N289 1.314 . S
C288 C290 1.353 . S
C288 H294 0.930 . S
N289 Li265 1.990 . S
N289 C288 1.314 . S
N289 C292 1.279 . S
C290 C288 1.353 . S
C290 C293 1.348 . S
C290 H338 0.929 . S
C291 C292 1.358 . S
C291 C293 1.356 . S
C291 H339 0.930 . S
C292 N289 1.279 . S
C292 C291 1.358 . S
C292 H295 0.930 . S
C293 C290 1.348 . S
C293 C291 1.356 . S
H294 C288 0.930 . S
H295 C292 0.930 . S
C296 C298 1.348 . S
C296 C299 1.356 . S
C296 O326 1.325 . S
N297 C300 1.314 . S
N297 C301 1.279 . S
C298 C296 1.348 . S
C298 C300 1.353 . S
C298 H340 0.929 . S
C299 C296 1.356 . S
C299 C301 1.358 . S
C299 H341 0.930 . S
C300 N297 1.314 . S
C300 C298 1.353 . S
C300 H342 0.930 . S
C301 N297 1.279 . S
C301 C299 1.358 . S
C301 H343 0.930 . S
C302 C303 1.348 1_565 S
C302 C304 1.356 . S
C302 O327 1.325 . S
C303 C302 1.348 1_545 S
C303 C305 1.353 1_545 S
C303 H344 0.929 . S
C304 C302 1.356 . S
C304 C306 1.358 . S
C304 H345 0.930 . S
C305 C303 1.353 1_565 S
C305 N307 1.314 . S
C305 H346 0.930 1_565 S
C306 C304 1.358 . S
C306 N307 1.279 . S
C306 H347 0.930 . S
N307 C305 1.314 . S
N307 C306 1.279 . S
C308 C310 1.353 . S
C308 N311 1.314 . S
C308 H314 0.930 . S
C309 N311 1.279 . S
C309 C312 1.358 . S
C309 H315 0.930 . S
C310 C308 1.353 . S
C310 C313 1.348 . S
C310 H348 0.929 . S
N311 Li266 1.990 . S
N311 C308 1.314 . S
N311 C309 1.279 . S
C312 C309 1.358 . S
C312 C313 1.356 . S
C312 H349 0.930 . S
C313 C310 1.348 . S
C313 C312 1.356 . S
H314 C308 0.930 . S
H315 C309 0.930 . S
C316 N317 1.314 . S
C316 C318 1.353 . S
C316 H322 0.930 . S
N317 Li267 1.990 . S
N317 C316 1.314 . S
N317 C320 1.279 . S
C318 C316 1.353 . S
C318 C321 1.348 . S
C318 H350 0.929 . S
C319 C320 1.358 . S
C319 C321 1.356 . S
C319 H351 0.930 . S
C320 N317 1.279 . S
C320 C319 1.358 . S
C320 H323 0.930 . S
C321 C318 1.348 . S
C321 C319 1.356 . S
H322 C316 0.930 . S
H323 C320 0.930 . S
O324 Li264 1.956 . S
O324 Li265 1.970 1_545 S
O324 Li266 1.961 . S
O324 C268 1.325 . S
O325 Li264 1.970 1_565 S
O325 Li265 1.956 . S
O325 Li267 1.961 . S
O325 C274 1.325 . S
O326 Li264 1.961 . S
O326 Li266 1.956 . S
O326 Li267 1.970 1_545 S
O326 C296 1.325 . S
O327 Li265 1.961 . S
O327 Li266 1.970 1_565 S
O327 Li267 1.956 . S
O327 C302 1.325 . S
H328 C270 0.929 . S
H329 C271 0.930 . S
H330 C272 0.930 1_565 S
H331 C273 0.930 . S
H332 C275 0.930 . S
H333 C277 0.929 . S
H334 C278 0.930 . S
H335 C279 0.930 . S
H336 C282 0.930 . S
H337 C285 0.929 . S
H338 C290 0.929 . S
H339 C291 0.930 . S
H340 C298 0.929 . S
H341 C299 0.930 . S
H342 C300 0.930 . S
H343 C301 0.930 . S
H344 C303 0.929 . S
H345 C304 0.930 . S
H346 C305 0.930 1_545 S
H347 C306 0.930 . S
H348 C310 0.929 . S
H349 C312 0.930 . S
H350 C318 0.929 . S
H351 C319 0.930 . S
H352 C358 0.930 . S
H353 C362 0.930 1_455 S
H354 C367 0.929 1_455 S
H355 C365 0.929 . S
H356 C360 0.929 1_455 S
H357 C366 0.929 . S
C358 H352 0.930 . S
C358 C359 1.367 . S
C358 C366 1.378 . S
C359 C358 1.367 . S
C359 C367 1.433 . S
C360 H356 0.929 1_655 S
C360 C362 1.378 . S
C360 C364 1.350 . S
C361 C364 1.463 . S
C361 C366 1.350 . S
C361 N369 1.427 . S
C362 H353 0.930 1_655 S
C362 C360 1.378 . S
C362 C363 1.367 . S
C363 C362 1.367 . S
C363 C365 1.433 . S
C364 C360 1.350 . S
C364 C361 1.463 . S
C364 N368 1.427 . S
C365 H355 0.929 . S
C365 C363 1.433 . S
C365 N368 1.384 . S
C366 H357 0.929 . S
C366 C358 1.378 . S
C366 C361 1.350 . S
C367 H354 0.929 1_655 S
C367 C359 1.433 . S
C367 N369 1.384 . S
N368 C364 1.427 . S
N368 C365 1.384 . S
N369 C361 1.427 . S
N369 C367 1.384 . S
H370 C376 0.930 1_545 S
H371 C380 0.930 . S
H372 C385 0.929 . S
H373 C383 0.929 1_545 S
H374 C378 0.929 . S
H375 C384 0.929 1_545 S
C376 H370 0.930 1_565 S
C376 C377 1.367 . S
C376 C384 1.378 . S
C377 C376 1.367 . S
C377 C385 1.433 . S
C378 H374 0.929 . S
C378 C380 1.378 . S
C378 C382 1.350 . S
C379 C382 1.463 . S
C379 C384 1.350 . S
C379 N387 1.427 . S
C380 H371 0.930 . S
C380 C378 1.378 . S
C380 C381 1.367 . S
C381 C380 1.367 . S
C381 C383 1.433 . S
C382 C378 1.350 . S
C382 C379 1.463 . S
C382 N386 1.427 . S
C383 H373 0.929 1_565 S
C383 C381 1.433 . S
C383 N386 1.384 . S
C384 H375 0.929 1_565 S
C384 C376 1.378 . S
C384 C379 1.350 . S
C385 H372 0.929 . S
C385 C377 1.433 . S
C385 N387 1.384 . S
N386 C382 1.427 . S
N386 C383 1.384 . S
N387 C379 1.427 . S
N387 C385 1.384 . S
H388 C394 0.930 . S
H389 C398 0.930 . S
H390 C403 0.929 . S
H391 C401 0.929 . S
H392 C396 0.929 . S
H393 C402 0.929 . S
C394 H388 0.930 . S
C394 C395 1.367 . S
C394 C402 1.378 . S
C395 C394 1.367 . S
C395 C403 1.433 . S
C396 H392 0.929 . S
C396 C398 1.378 . S
C396 C400 1.350 . S
C397 C400 1.463 . S
C397 C402 1.350 . S
C397 N405 1.427 . S
C398 H389 0.930 . S
C398 C396 1.378 . S
C398 C399 1.367 . S
C399 C398 1.367 . S
C399 C401 1.433 . S
C400 C396 1.350 . S
C400 C397 1.463 . S
C400 N404 1.427 . S
C401 H391 0.929 . S
C401 C399 1.433 . S
C401 N404 1.384 . S
C402 H393 0.929 . S
C402 C394 1.378 . S
C402 C397 1.350 . S
C403 H390 0.929 . S
C403 C395 1.433 . S
C403 N405 1.384 . S
N404 C400 1.427 . S
N404 C401 1.384 . S
N405 C397 1.427 . S
N405 C403 1.384 . S
H406 C412 0.930 . S
H407 C416 0.930 1_565 S
H408 C421 0.929 1_565 S
H409 C419 0.929 . S
H410 C414 0.929 1_565 S
H411 C420 0.929 . S
C412 H406 0.930 . S
C412 C413 1.367 . S
C412 C420 1.378 . S
C413 C412 1.367 . S
C413 C421 1.433 . S
C414 H410 0.929 1_545 S
C414 C416 1.378 . S
C414 C418 1.350 . S
C415 C418 1.463 1_554 S
C415 C420 1.350 . S
C415 N423 1.427 . S
C416 H407 0.930 1_545 S
C416 C414 1.378 . S
C416 C417 1.367 . S
C417 C416 1.367 . S
C417 C419 1.433 . S
C418 C414 1.350 . S
C418 C415 1.463 1_556 S
C418 N422 1.427 . S
C419 H409 0.929 . S
C419 C417 1.433 . S
C419 N422 1.384 . S
C420 H411 0.929 . S
C420 C412 1.378 . S
C420 C415 1.350 . S
C421 H408 0.929 1_545 S
C421 C413 1.433 . S
C421 N423 1.384 . S
N422 C418 1.427 . S
N422 C419 1.384 . S
N423 C415 1.427 . S
N423 C421 1.384 . S
H424 C430 0.930 . S
H425 C434 0.930 . S
H426 C439 0.929 . S
H427 C437 0.929 . S
H428 C432 0.929 . S
H429 C438 0.929 . S
C430 H424 0.930 . S
C430 C431 1.367 . S
C430 C438 1.378 . S
C431 C430 1.367 . S
C431 C439 1.433 . S
C432 H428 0.929 . S
C432 C434 1.378 . S
C432 C436 1.350 . S
C433 C436 1.463 . S
C433 C438 1.350 . S
C433 N441 1.427 . S
C434 H425 0.930 . S
C434 C432 1.378 . S
C434 C435 1.367 . S
C435 C434 1.367 . S
C435 C437 1.433 . S
C436 C432 1.350 . S
C436 C433 1.463 . S
C436 N440 1.427 . S
C437 H427 0.929 . S
C437 C435 1.433 . S
C437 N440 1.384 . S
C438 H429 0.929 . S
C438 C430 1.378 . S
C438 C433 1.350 . S
C439 H426 0.929 . S
C439 C431 1.433 . S
C439 N441 1.384 . S
N440 C436 1.427 . S
N440 C437 1.384 . S
N441 C433 1.427 . S
N441 C439 1.384 . S
H442 C448 0.930 . S
H443 C452 0.930 . S
H444 C457 0.929 . S
H445 C455 0.929 . S
H446 C450 0.929 . S
H447 C456 0.929 . S
C448 H442 0.930 . S
C448 C449 1.367 . S
C448 C456 1.378 . S
C449 C448 1.367 . S
C449 C457 1.433 . S
C450 H446 0.929 . S
C450 C452 1.378 . S
C450 C454 1.350 . S
C451 C454 1.463 . S
C451 C456 1.350 . S
C451 N459 1.427 . S
C452 H443 0.930 . S
C452 C450 1.378 . S
C452 C453 1.367 . S
C453 C452 1.367 . S
C453 C455 1.433 . S
C454 C450 1.350 . S
C454 C451 1.463 . S
C454 N458 1.427 . S
C455 H445 0.929 . S
C455 C453 1.433 . S
C455 N458 1.384 . S
C456 H447 0.929 . S
C456 C448 1.378 . S
C456 C451 1.350 . S
C457 H444 0.929 . S
C457 C449 1.433 . S
C457 N459 1.384 . S
N458 C454 1.427 . S
N458 C455 1.384 . S
N459 C451 1.427 . S
N459 C457 1.384 . S
H460 C466 0.930 . S
H461 C470 0.930 . S
H462 C475 0.929 . S
H463 C473 0.929 . S
H464 C468 0.929 . S
H465 C474 0.929 . S
C466 H460 0.930 . S
C466 C467 1.367 . S
C466 C474 1.378 . S
C467 C466 1.367 . S
C467 C475 1.433 . S
C468 H464 0.929 . S
C468 C470 1.378 . S
C468 C472 1.350 . S
C469 C472 1.463 . S
C469 C474 1.350 . S
C469 N477 1.427 . S
C470 H461 0.930 . S
C470 C468 1.378 . S
C470 C471 1.367 . S
C471 C470 1.367 . S
C471 C473 1.433 . S
C472 C468 1.350 . S
C472 C469 1.463 . S
C472 N476 1.427 . S
C473 H463 0.929 . S
C473 C471 1.433 . S
C473 N476 1.384 . S
C474 H465 0.929 . S
C474 C466 1.378 . S
C474 C469 1.350 . S
C475 H462 0.929 . S
C475 C467 1.433 . S
C475 N477 1.384 . S
N476 C472 1.427 . S
N476 C473 1.384 . S
N477 C469 1.427 . S
N477 C475 1.384 . S
H478 C484 0.930 . S
H479 C488 0.930 . S
H480 C493 0.929 . S
H481 C491 0.929 . S
H482 C486 0.929 . S
H483 C492 0.929 . S
C484 H478 0.930 . S
C484 C485 1.367 . S
C484 C492 1.378 . S
C485 C484 1.367 . S
C485 C493 1.433 . S
C486 H482 0.929 . S
C486 C488 1.378 . S
C486 C490 1.350 . S
C487 C490 1.463 . S
C487 C492 1.350 . S
C487 N495 1.427 . S
C488 H479 0.930 . S
C488 C486 1.378 . S
C488 C489 1.367 . S
C489 C488 1.367 . S
C489 C491 1.433 . S
C490 C486 1.350 . S
C490 C487 1.463 . S
C490 N494 1.427 . S
C491 H481 0.929 . S
C491 C489 1.433 . S
C491 N494 1.384 . S
C492 H483 0.929 . S
C492 C484 1.378 . S
C492 C487 1.350 . S
C493 H480 0.929 . S
C493 C485 1.433 . S
C493 N495 1.384 . S
N494 C490 1.427 . S
N494 C491 1.384 . S
N495 C487 1.427 . S
N495 C493 1.384 . S
C359 C29 0.873 . S
C363 C233 0.864 . S
C377 C108 0.863 . S
C381 C321 0.871 . S
C395 C49 0.864 . S
C399 C196 0.867 . S
C413 C145 0.870 . S
C417 C284 0.862 . S
C431 C137 1.648 . S
C435 C20 1.649 . S
C449 C117 1.646 . S
C453 C225 1.641 . S
C467 C313 1.656 . S
C471 C205 1.654 . S
C485 C293 1.646 . S
C489 C57 1.653 . S
