# Generated by pormake.
# Topology uoj, (4)-cn, num edge types: 1
# Building blocks:
#     Node 0, Type 0, BuildingBlock: KUFVIS_clean_sbu_0, # of connection points: 4
#     Node 1, Type 0, BuildingBlock: KUFVIS_clean_sbu_0, # of connection points: 4
#     Node 2, Type 0, BuildingBlock: KUFVIS_clean_sbu_0, # of connection points: 4
#     Node 3, Type 0, BuildingBlock: KUFVIS_clean_sbu_0, # of connection points: 4
#     Node 4, Type 0, BuildingBlock: KUFVIS_clean_sbu_0, # of connection points: 4
#     Node 5, Type 0, BuildingBlock: KUFVIS_clean_sbu_0, # of connection points: 4
#     Node 6, Type 0, BuildingBlock: KUFVIS_clean_sbu_0, # of connection points: 4
#     Node 7, Type 0, BuildingBlock: KUFVIS_clean_sbu_0, # of connection points: 4
#     Edge 8, Type (0, 0), BuildingBlock: EZIPEK_clean_linker_0, # of connection points: 2
#     Edge 9, Type (0, 0), BuildingBlock: EZIPEK_clean_linker_0, # of connection points: 2
#     Edge 10, Type (0, 0), BuildingBlock: EZIPEK_clean_linker_0, # of connection points: 2
#     Edge 11, Type (0, 0), BuildingBlock: EZIPEK_clean_linker_0, # of connection points: 2
#     Edge 12, Type (0, 0), BuildingBlock: EZIPEK_clean_linker_0, # of connection points: 2
#     Edge 13, Type (0, 0), BuildingBlock: EZIPEK_clean_linker_0, # of connection points: 2
#     Edge 14, Type (0, 0), BuildingBlock: EZIPEK_clean_linker_0, # of connection points: 2
#     Edge 15, Type (0, 0), BuildingBlock: EZIPEK_clean_linker_0, # of connection points: 2
#     Edge 16, Type (0, 0), BuildingBlock: EZIPEK_clean_linker_0, # of connection points: 2
#     Edge 17, Type (0, 0), BuildingBlock: EZIPEK_clean_linker_0, # of connection points: 2
#     Edge 18, Type (0, 0), BuildingBlock: EZIPEK_clean_linker_0, # of connection points: 2
#     Edge 19, Type (0, 0), BuildingBlock: EZIPEK_clean_linker_0, # of connection points: 2
#     Edge 20, Type (0, 0), BuildingBlock: EZIPEK_clean_linker_0, # of connection points: 2
#     Edge 21, Type (0, 0), BuildingBlock: EZIPEK_clean_linker_0, # of connection points: 2
#     Edge 22, Type (0, 0), BuildingBlock: EZIPEK_clean_linker_0, # of connection points: 2
#     Edge 23, Type (0, 0), BuildingBlock: EZIPEK_clean_linker_0, # of connection points: 2
# Relax obj value: 0.135
# Max RMSD: 0.157
# Mean RMSD: 0.157
data_MOF--net-uoj--node1-KUFVIS_clean_sbu_0--edge1-EZIPEK_clean_linker_0
_symmetry_space_group_name_H-M    P1
_symmetry_Int_Tables_number       1
_symmetry_cell_setting            triclinic
loop_
_symmetry_equiv_pos_as_xyz
'x, y, z'
_cell_length_a     24.011164
_cell_length_b     24.171456
_cell_length_c     26.451545
_cell_angle_alpha  90.328708
_cell_angle_beta   90.104778
_cell_angle_gamma 90.08919
loop_
_atom_site_label
_atom_site_type_symbol
_atom_site_fract_x
_atom_site_fract_y
_atom_site_fract_z
_atom_type_partial_charge
Mn0 Mn 0.04758 0.31272 0.42667 0.0
Mn1 Mn 0.06873 0.31485 0.55855 0.0
C2 C 0.07377 0.40745 0.48471 0.0
C3 C 0.08286 0.31927 0.34621 0.0
C4 C 0.97183 0.2558 0.50757 0.0
O5 O 0.10312 0.25096 0.44538 0.0
O6 O 0.11185 0.25375 0.52977 0.0
C7 C 0.18843 0.34472 0.56186 0.0
N8 N 0.13486 0.35463 0.57602 0.0
C9 C 0.16379 0.424 0.63592 0.0
C10 C 0.21938 0.4148 0.62201 0.0
C11 C 0.2317 0.37529 0.58447 0.0
C12 C 0.12245 0.39334 0.61109 0.0
H13 H 0.19799 0.31348 0.53383 0.0
C14 C 0.12169 0.23189 0.48701 0.0
O15 O 0.04426 0.28242 0.35661 0.0
O16 O 0.1024 0.34957 0.38323 0.0
N17 N 0.0299 0.37129 0.59419 0.0
C18 C 0.97408 0.37765 0.60026 0.0
C19 C 0.95439 0.41297 0.63823 0.0
C20 C 0.99256 0.44167 0.6688 0.0
C21 C 0.04983 0.43829 0.65891 0.0
C22 C 0.06683 0.40147 0.62132 0.0
H23 H 0.94505 0.35573 0.57637 0.0
O24 O 0.0614 0.35718 0.49054 0.0
O25 O 0.06126 0.35619 0.49196 0.0
O26 O 0.98442 0.26797 0.46167 0.0
O27 O 0.00013 0.27218 0.54564 0.0
C28 C 0.09083 0.46859 0.68553 0.0
C29 C 0.14767 0.46207 0.67357 0.0
H30 H 0.25287 0.43778 0.63989 0.0
H31 H 0.27447 0.36788 0.57354 0.0
H32 H 0.9101 0.41704 0.64478 0.0
H33 H 0.97711 0.46511 0.70028 0.0
H34 H 0.07942 0.4973 0.71505 0.0
H35 H 0.17861 0.48613 0.6939 0.0
Mn36 Mn 0.3075 0.95234 0.58042 0.0
Mn37 Mn 0.30517 0.92876 0.4548 0.0
C38 C 0.388 0.97518 0.53608 0.0
C39 C 0.32394 0.91754 0.66194 0.0
C40 C 0.24951 0.02847 0.50281 0.0
O41 O 0.2395 0.90277 0.57163 0.0
O42 O 0.24457 0.88792 0.4884 0.0
C43 C 0.33743 0.81097 0.46151 0.0
N44 N 0.34345 0.8617 0.44011 0.0
C45 C 0.40604 0.82599 0.3773 0.0
C46 C 0.40049 0.77312 0.39837 0.0
C47 C 0.36627 0.76566 0.44089 0.0
C48 C 0.37665 0.86949 0.3998 0.0
H49 H 0.31054 0.80527 0.4938 0.0
C50 C 0.22118 0.88127 0.53095 0.0
O51 O 0.29143 0.9598 0.65495 0.0
O52 O 0.34525 0.89497 0.62209 0.0
N53 N 0.35759 0.96302 0.4113 0.0
C54 C 0.36212 0.01731 0.3988 0.0
C55 C 0.39242 0.03218 0.35566 0.0
C56 C 0.41932 0.99126 0.32697 0.0
C57 C 0.41531 0.93552 0.34125 0.0
C58 C 0.38205 0.92305 0.38301 0.0
H59 H 0.34368 0.04889 0.42224 0.0
O60 O 0.37615 -0.00354 0.57964 0.0
O61 O 0.35092 0.93965 0.5179 0.0
O62 O 0.26386 0.0176 0.54852 0.0
O63 O 0.26376 -0.00179 0.46543 0.0
C64 C 0.44483 0.89219 0.31751 0.0
C65 C 0.4403 0.83754 0.33552 0.0
H66 H 0.42259 0.7381 0.38246 0.0
H67 H 0.36184 0.72506 0.45747 0.0
H68 H 0.39605 0.07523 0.3451 0.0
H69 H 0.44407 0.00372 0.29505 0.0
H70 H 0.47256 0.90043 0.28642 0.0
H71 H 0.46388 0.80487 0.31734 0.0
Mn72 Mn 0.943 0.68596 0.44399 0.0
Mn73 Mn 0.9231 0.6896 0.56972 0.0
C74 C 0.97412 0.61225 0.49177 0.0
C75 C 0.90554 0.66401 0.36395 0.0
C76 C 0.01933 0.74891 0.52015 0.0
O77 O 0.89028 0.75083 0.4527 0.0
O78 O 0.88119 0.74987 0.53687 0.0
C79 C 0.80461 0.65662 0.56242 0.0
N80 N 0.85641 0.64907 0.58224 0.0
C81 C 0.82276 0.57993 0.63936 0.0
C82 C 0.76892 0.58684 0.61976 0.0
C83 C 0.75992 0.625 0.5807 0.0
C84 C 0.86589 0.61106 0.61823 0.0
H85 H 0.79747 0.68675 0.53313 0.0
C86 C 0.87177 0.7711 0.49379 0.0
O87 O 0.94619 0.69935 0.36878 0.0
O88 O 0.88608 0.6431 0.40514 0.0
N89 N 0.95927 0.63544 0.60997 0.0
C90 C 0.01354 0.63417 0.62463 0.0
C91 C 0.02903 0.60259 0.66645 0.0
C92 C 0.98833 0.57289 0.69274 0.0
C93 C 0.93316 0.57197 0.67536 0.0
C94 C 0.92018 0.60506 0.63399 0.0
H95 H 0.04447 0.6581 0.60531 0.0
O96 O 0.99139 0.61995 0.44607 0.0
O97 O 0.93568 0.64665 0.50763 0.0
O98 O 0.00672 0.73455 0.47447 0.0
O99 O 0.99204 0.73233 0.55867 0.0
C100 C 0.89015 0.54119 0.69833 0.0
C101 C 0.83524 0.54424 0.67963 0.0
H102 H 0.7342 0.56333 0.63456 0.0
H103 H 0.71853 0.63065 0.56534 0.0
H104 H 0.07187 0.60235 0.67924 0.0
H105 H 0.00016 0.55095 0.72624 0.0
H106 H 0.89858 0.51456 0.73005 0.0
H107 H 0.80277 0.51988 0.6972 0.0
Mn108 Mn 0.67674 0.05452 0.56327 0.0
Mn109 Mn 0.69918 0.07249 0.43177 0.0
C110 C 0.59528 0.06851 0.47973 0.0
C111 C 0.65873 0.09234 0.64161 0.0
C112 C 0.74629 0.97651 0.49216 0.0
O113 O 0.74361 0.10774 0.55258 0.0
O114 O 0.75547 0.115 0.46839 0.0
C115 C 0.67272 0.19162 0.42163 0.0
N116 N 0.66319 0.13803 0.40793 0.0
C117 C 0.59229 0.16514 0.34874 0.0
C118 C 0.60165 0.22067 0.36188 0.0
C119 C 0.64199 0.23394 0.39855 0.0
C120 C 0.62459 0.12477 0.37259 0.0
H121 H 0.70345 0.20194 0.45003 0.0
C122 C 0.76989 0.12524 0.5137 0.0
O123 O 0.69492 0.05201 0.63647 0.0
O124 O 0.63475 0.11142 0.60084 0.0
N125 N 0.64637 0.03311 0.39056 0.0
C126 C 0.6354 0.97788 0.38895 0.0
C127 C 0.5965 0.95734 0.35399 0.0
C128 C 0.56682 -0.00576 0.32337 0.0
C129 C 0.5748 0.05141 0.32924 0.0
C130 C 0.61608 0.06921 0.36301 0.0
H131 H 0.65512 0.95003 0.41505 0.0
O132 O 0.64582 0.06832 0.49369 0.0
O133 O 0.64701 0.06876 0.49162 0.0
O134 O 0.7267 0.99045 0.53561 0.0
O135 O 0.73764 0.00412 0.45197 0.0
C136 C 0.54232 0.09144 0.3043 0.0
C137 C 0.55116 0.1482 0.3139 0.0
H138 H 0.57768 0.2534 0.34449 0.0
H139 H 0.64921 0.27667 0.40913 0.0
H140 H 0.58831 0.91336 0.35155 0.0
H141 H 0.53671 0.97804 0.2969 0.0
H142 H 0.50927 0.07927 0.27878 0.0
H143 H 0.52532 0.17845 0.29503 0.0
Mn144 Mn 0.4454 0.8004 0.92857 0.0
Mn145 Mn 0.43357 0.78764 0.0551 0.0
C146 C 0.47952 0.87028 0.98118 0.0
C147 C 0.40621 0.82897 0.8515 0.0
C148 C 0.52548 0.73279 0.99567 0.0
O149 O 0.39022 0.73664 0.93459 0.0
O150 O 0.38698 0.73216 0.01929 0.0
C151 C 0.31623 0.82437 0.05944 0.0
N152 N 0.36993 0.82921 0.07536 0.0
C153 C 0.34468 0.89772 0.13711 0.0
C154 C 0.289 0.89355 0.12149 0.0
C155 C 0.2748 0.85703 0.08205 0.0
C156 C 0.38444 0.86583 0.11164 0.0
H157 H 0.30525 0.79574 0.02988 0.0
C158 C 0.37301 0.71495 0.9754 0.0
O159 O 0.4458 0.79237 0.8528 0.0
O160 O 0.38861 0.84769 0.89448 0.0
N161 N 0.47548 0.83655 0.0972 0.0
C162 C 0.52977 0.83095 0.11142 0.0
C163 C 0.55024 0.86138 0.15262 0.0
C164 C 0.51407 0.89522 0.18035 0.0
C165 C 0.45803 0.89968 0.16576 0.0
C166 C 0.44019 0.86885 0.12397 0.0
H167 H 0.55688 0.80167 0.09287 0.0
O168 O 0.49566 0.86542 0.93471 0.0
O169 O 0.44166 0.83491 0.99558 0.0
O170 O 0.50937 0.74817 0.95157 0.0
O171 O 0.50035 0.74569 0.03652 0.0
C172 C 0.41842 0.9309 0.19269 0.0
C173 C 0.3621 0.93101 0.17784 0.0
H174 H 0.25682 0.91778 0.13976 0.0
H175 H 0.23195 0.85342 0.06968 0.0
H176 H 0.59319 0.85688 0.16434 0.0
H177 H 0.52966 0.91558 0.21396 0.0
H178 H 0.43066 0.95526 0.22484 0.0
H179 H 0.33241 0.95577 0.19882 0.0
Mn180 Mn 0.80663 0.53604 0.09609 0.0
Mn181 Mn 0.79897 0.53897 0.96269 0.0
C182 C 0.89728 0.55382 0.03129 0.0
C183 C 0.82061 0.58022 0.17189 0.0
C184 C 0.7428 0.45232 0.02742 0.0
O185 O 0.74556 0.59156 0.07538 0.0
O186 O 0.74272 0.58997 0.99046 0.0
C187 C 0.8335 0.65385 0.93999 0.0
N188 N 0.84098 0.59838 0.9344 0.0
C189 C 0.90771 0.61237 0.86813 0.0
C190 C 0.90153 0.66974 0.8738 0.0
C191 C 0.86443 0.69059 0.91016 0.0
C192 C 0.87724 0.57788 0.90023 0.0
H193 H 0.80383 0.66974 0.96661 0.0
C194 C 0.72503 0.60671 0.03318 0.0
O195 O 0.78184 0.54206 0.16731 0.0
O196 O 0.8484 0.59454 0.13164 0.0
N197 N 0.84963 0.49101 0.92866 0.0
C198 C 0.84806 0.43468 0.92567 0.0
C199 C 0.88068 0.40727 0.88958 0.0
C200 C 0.91284 0.43812 0.85573 0.0
C201 C 0.91367 0.49601 0.85946 0.0
C202 C 0.88126 0.52103 0.89679 0.0
H203 H 0.82135 0.41076 0.95001 0.0
O204 O 0.84667 0.54011 0.0288 0.0
O205 O 0.84562 0.53976 0.02742 0.0
O206 O 0.75781 0.47003 0.07119 0.0
O207 O 0.7552 0.47591 0.98611 0.0
C208 C 0.94309 0.52993 0.82592 0.0
C209 C 0.94126 0.58797 0.83071 0.0
H210 H 0.92442 0.69808 0.84998 0.0
H211 H 0.85888 0.73478 0.9145 0.0
H212 H 0.87952 0.3626 0.88669 0.0
H213 H 0.93522 0.41684 0.82613 0.0
H214 H 0.96598 0.51156 0.79543 0.0
H215 H 0.96443 0.61337 0.80448 0.0
Mn216 Mn 0.54771 0.17272 0.92061 0.0
Mn217 Mn 0.55774 0.17035 0.05311 0.0
C218 C 0.56954 0.07768 0.97845 0.0
C219 C 0.58853 0.16695 0.84223 0.0
C220 C 0.46981 0.23449 0.99428 0.0
O221 O 0.60048 0.2354 0.94611 0.0
O222 O 0.61429 0.22259 0.02946 0.0
C223 C 0.66933 0.12614 0.07754 0.0
N224 N 0.61285 0.12214 0.08053 0.0
C225 C 0.6192 0.05569 0.14751 0.0
C226 C 0.67744 0.05774 0.14415 0.0
C227 C 0.70262 0.09291 0.10875 0.0
C228 C 0.58823 0.08796 0.11394 0.0
H229 H 0.68869 0.15473 0.05183 0.0
C230 C 0.62307 0.24833 0.98849 0.0
O231 O 0.54972 0.20391 0.85147 0.0
O232 O 0.60676 0.13736 0.88003 0.0
N233 N 0.50446 0.12168 0.08239 0.0
C234 C 0.44786 0.12379 0.08005 0.0
C235 C 0.41623 0.09327 0.11453 0.0
C236 C 0.44328 0.06158 0.15134 0.0
C237 C 0.5016 0.05791 0.15128 0.0
C238 C 0.5308 0.08829 0.11533 0.0
H239 H 0.42708 0.14913 0.05246 0.0
O240 O 0.55595 0.12761 0.98448 0.0
O241 O 0.55566 0.12862 0.98586 0.0
O242 O 0.47982 0.21456 0.95028 0.0
O243 O 0.49955 0.22286 0.03244 0.0
C244 C 0.53202 0.02731 0.18678 0.0
C245 C 0.59063 0.025 0.18436 0.0
H246 H 0.7032 0.03332 0.16917 0.0
H247 H 0.74754 0.09541 0.10641 0.0
H248 H 0.37122 0.09555 0.11375 0.0
H249 H 0.41873 0.04101 0.17976 0.0
H250 H 0.51058 0.00638 0.21679 0.0
H251 H 0.61332 0.00081 0.21189 0.0
Mn252 Mn 0.18185 0.43318 0.07074 0.0
Mn253 Mn 0.18801 0.42939 0.94307 0.0
C254 C 0.106 0.46516 0.02348 0.0
C255 C 0.1612 0.38945 0.14814 0.0
C256 C 0.24417 0.51853 0.00697 0.0
O257 O 0.25052 0.385 0.05639 0.0
O258 O 0.24358 0.37902 0.97196 0.0
C259 C 0.14886 0.31408 0.93151 0.0
N260 N 0.14429 0.36867 0.9197 0.0
C261 C 0.07583 0.34919 0.85601 0.0
C262 C 0.07957 0.2927 0.86729 0.0
C263 C 0.11576 0.27514 0.90574 0.0
C264 C 0.10753 0.38634 0.8849 0.0
H265 H 0.17779 0.3004 0.96013 0.0
C266 C 0.26784 0.36778 0.01337 0.0
O267 O 0.19551 0.43089 0.14562 0.0
O268 O 0.14108 0.37146 0.10557 0.0
N269 N 0.13805 0.47515 0.90614 0.0
C270 C 0.1448 0.52989 0.89554 0.0
C271 C 0.11383 0.55394 0.8566 0.0
C272 C 0.07918 0.52074 0.82653 0.0
C273 C 0.07477 0.4639 0.83628 0.0
C274 C 0.10506 0.44264 0.8769 0.0
H275 H 0.17512 0.55482 0.91545 0.0
O276 O 0.11189 0.47774 0.07084 0.0
O277 O 0.14358 0.4317 0.00522 0.0
O278 O 0.22738 0.50175 0.0501 0.0
O279 O 0.2334 0.49372 0.96521 0.0
C280 C 0.04449 0.4269 0.80537 0.0
C281 C 0.04379 0.36988 0.81591 0.0
H282 H 0.05539 0.26244 0.84629 0.0
H283 H 0.11905 0.23163 0.91468 0.0
H284 H 0.11868 0.59746 0.84825 0.0
H285 H 0.05805 0.53931 0.79491 0.0
H286 H 0.02163 0.44155 0.77316 0.0
H287 H 0.01971 0.3422 0.79202 0.0
C288 C 0.10371 0.40393 0.22669 0.0
C289 C 0.13947 0.36919 0.19779 0.0
C290 C 0.13577 0.29889 0.26516 0.0
C291 C 0.09883 0.3331 0.29316 0.0
N292 N 0.03868 0.41267 0.29651 0.0
N293 N 0.18334 0.28059 0.18558 0.0
C294 C 0.08034 0.38409 0.2727 0.0
C295 C 0.15335 0.31555 0.21577 0.0
N296 N 0.09227 0.45633 0.21039 0.0
N297 N 0.15577 0.25164 0.28672 0.0
H298 H 0.19874 0.29235 0.15042 0.0
H299 H 0.19013 0.23909 0.19376 0.0
H300 H 0.14276 0.23794 0.32213 0.0
H301 H 0.18747 0.22772 0.27115 0.0
H302 H 0.07291 0.48626 0.23265 0.0
H303 H 0.10495 0.47141 0.17543 0.0
H304 H 0.01878 0.4469 0.28112 0.0
H305 H 0.02019 0.3993 0.32996 0.0
C306 C 0.3186 0.84749 0.73174 0.0
C307 C 0.34063 0.89791 0.71303 0.0
C308 C 0.40293 0.90467 0.78677 0.0
C309 C 0.38434 0.85189 0.80321 0.0
N310 N 0.32767 0.77075 0.79038 0.0
N311 N 0.40793 0.97176 0.71897 0.0
C312 C 0.34302 0.82261 0.77536 0.0
C313 C 0.38368 0.92596 0.73972 0.0
N314 N 0.2733 0.82433 0.70838 0.0
N315 N 0.43864 0.93479 0.81646 0.0
H316 H 0.39388 0.98976 0.68557 0.0
H317 H 0.44414 0.98998 0.73296 0.0
H318 H 0.45593 0.91968 0.84982 0.0
H319 H 0.44852 0.97608 0.80992 0.0
H320 H 0.25163 0.79036 0.72224 0.0
H321 H 0.25438 0.84204 0.67685 0.0
H322 H 0.30206 0.74462 0.76927 0.0
H323 H 0.34345 0.75218 0.8229 0.0
C324 C 0.85261 0.6787 0.28223 0.0
C325 C 0.8849 0.64374 0.31384 0.0
C326 C 0.874 0.56726 0.25257 0.0
C327 C 0.83912 0.60115 0.22236 0.0
N328 N 0.79056 0.68681 0.20952 0.0
N329 N 0.92249 0.55335 0.33196 0.0
C330 C 0.8273 0.65639 0.23744 0.0
C331 C 0.89424 0.58757 0.29985 0.0
N332 N 0.8462 0.73317 0.29517 0.0
N333 N 0.89016 0.51647 0.23479 0.0
H334 H 0.94249 0.56725 0.36465 0.0
H335 H 0.92397 0.51054 0.32771 0.0
H336 H 0.87547 0.49937 0.20101 0.0
H337 H 0.92112 0.4926 0.25146 0.0
H338 H 0.82787 0.76255 0.27191 0.0
H339 H 0.86204 0.75007 0.32861 0.0
H340 H 0.77578 0.72557 0.22014 0.0
H341 H 0.77162 0.67147 0.17676 0.0
C342 C 0.66253 0.15905 0.77409 0.0
C343 C 0.60607 0.15267 0.78931 0.0
C344 C 0.58565 0.10398 0.70907 0.0
C345 C 0.64125 0.11306 0.69269 0.0
N346 N 0.73059 0.15606 0.70592 0.0
N347 N 0.51208 0.12405 0.76911 0.0
C348 C 0.67924 0.14234 0.72431 0.0
C349 C 0.56706 0.12709 0.75589 0.0
N350 N 0.70031 0.18078 0.80746 0.0
N351 N 0.55136 0.07033 0.68114 0.0
H352 H 0.49695 0.13572 0.80445 0.0
H353 H 0.48049 0.11298 0.74401 0.0
H354 H 0.5634 0.05193 0.64718 0.0
H355 H 0.51262 0.05654 0.69334 0.0
H356 H 0.74314 0.18062 0.80145 0.0
H357 H 0.68898 0.19672 0.8427 0.0
H358 H 0.75834 0.18229 0.72455 0.0
H359 H 0.74404 0.14446 0.66991 0.0
C360 C 0.22105 0.11472 0.45294 0.0
C361 C 0.21116 0.0766 0.49306 0.0
C362 C 0.13206 0.13463 0.51923 0.0
C363 C 0.15151 0.17795 0.48744 0.0
N364 N 0.22084 0.21107 0.42903 0.0
N365 N 0.15069 0.04784 0.56111 0.0
C366 C 0.19796 0.16863 0.45586 0.0
C367 C 0.16494 0.08613 0.52555 0.0
N368 N 0.24766 0.09888 0.40976 0.0
N369 N 0.08048 0.13816 0.54089 0.0
H370 H 0.1665 0.00771 0.56139 0.0
H371 H 0.12353 0.05625 0.59083 0.0
H372 H 0.05379 0.17149 0.53543 0.0
H373 H 0.06144 0.10559 0.55983 0.0
H374 H 0.25328 0.12527 0.37915 0.0
H375 H 0.25388 0.0577 0.40011 0.0
H376 H 0.25813 0.20694 0.40921 0.0
H377 H 0.20579 0.25149 0.4307 0.0
C378 C 0.12284 0.86816 0.50011 0.0
C379 C 0.16764 0.85043 0.53133 0.0
C380 C 0.10684 0.78051 0.56794 0.0
C381 C 0.06681 0.78883 0.52869 0.0
N382 N 0.03375 0.84745 0.4612 0.0
N383 N 0.20466 0.78312 0.58926 0.0
C384 C 0.07419 0.83454 0.49559 0.0
C385 C 0.16044 0.80453 0.56342 0.0
N386 N 0.12538 0.91866 0.47713 0.0
N387 N 0.09308 0.75463 0.61185 0.0
H388 H 0.24495 0.79898 0.58638 0.0
H389 H 0.20204 0.74628 0.60947 0.0
H390 H 0.05214 0.7482 0.62288 0.0
H391 H 0.12102 0.75001 0.64174 0.0
H392 H 0.09194 0.93663 0.4583 0.0
H393 H 0.15919 0.94542 0.48103 0.0
H394 H 0.0402 0.87428 0.4311 0.0
H395 H 0.99365 0.83095 0.46243 0.0
C396 C 0.82659 0.91885 0.52486 0.0
C397 C 0.78346 0.92671 0.48858 0.0
C398 C 0.79613 0.83125 0.45879 0.0
C399 C 0.84112 0.82434 0.49254 0.0
N400 N 0.90927 0.86742 0.54764 0.0
N401 N 0.75004 0.89667 0.40568 0.0
C402 C 0.85916 0.86969 0.52305 0.0
C403 C 0.77462 0.88499 0.4509 0.0
N404 N 0.83823 0.95907 0.55987 0.0
N405 N 0.77322 0.78664 0.43449 0.0
H406 H 0.74399 0.93665 0.39283 0.0
H407 H 0.74559 0.86736 0.37688 0.0
H408 H 0.78688 0.7462 0.44017 0.0
H409 H 0.73686 0.78946 0.41303 0.0
H410 H 0.86308 0.9522 0.59154 0.0
H411 H 0.82216 -0.00097 0.5581 0.0
H412 H 0.92735 0.90131 0.56583 0.0
H413 H 0.93593 0.83358 0.54545 0.0
C414 C 0.87123 0.13363 0.493 0.0
C415 C 0.82408 0.15428 0.5196 0.0
C416 C 0.88197 0.22881 0.55344 0.0
C417 C 0.92414 0.21681 0.51691 0.0
N418 N 0.96094 0.15222 0.45525 0.0
N419 N 0.78318 0.22626 0.57092 0.0
C420 C 0.91923 0.1676 0.48749 0.0
C421 C 0.82897 0.20321 0.54869 0.0
N422 N 0.87113 0.08045 0.47508 0.0
N423 N 0.89292 0.26079 0.5949 0.0
H424 H 0.74345 0.20904 0.56815 0.0
H425 H 0.7841 0.26517 0.58814 0.0
H426 H 0.93307 0.2707 0.60627 0.0
H427 H 0.86364 0.26816 0.62318 0.0
H428 H 0.9061 0.06105 0.46 0.0
H429 H 0.83778 0.05349 0.48029 0.0
H430 H 0.95607 0.12175 0.42757 0.0
H431 H 0.0002 0.17066 0.45523 0.0
C432 C 0.33566 0.5645 0.98984 0.0
C433 C 0.27893 0.5693 1.00388 0.0
C434 C 0.28149 0.6686 0.98679 0.0
C435 C 0.33834 0.66432 0.97387 0.0
N436 N 0.4177 0.60799 0.95358 0.0
N437 N 0.20447 0.62822 0.03229 0.0
C438 C 0.36495 0.61203 0.97252 0.0
C439 C 0.25348 0.622 0.00692 0.0
N440 N 0.36236 0.51539 0.99739 0.0
N441 N 0.25375 0.71671 0.97749 0.0
H442 H 0.18615 0.59581 0.05208 0.0
H443 H 0.18606 0.6665 0.03919 0.0
H444 H 0.27294 0.74988 0.9593 0.0
H445 H 0.21092 0.72119 0.98213 0.0
H446 H 0.40472 0.50918 0.99156 0.0
H447 H 0.34273 0.48207 0.0149 0.0
H448 H 0.43829 0.57072 0.94745 0.0
H449 H 0.43959 0.64221 0.9402 0.0
C450 C 0.67774 0.69565 0.0126 0.0
C451 C 0.67408 0.64159 0.03226 0.0
C452 C 0.57198 0.64686 0.02811 0.0
C453 C 0.57627 0.69815 1.00197 0.0
N454 N 0.63466 0.76713 0.96249 0.0
N455 N 0.61827 0.56483 0.06011 0.0
C456 C 0.62959 0.72117 0.99193 0.0
C457 C 0.62125 0.61708 0.0408 0.0
N458 N 0.72682 0.72387 0.01669 0.0
N459 N 0.52067 0.62681 0.04108 0.0
H460 H 0.65313 0.54349 0.07308 0.0
H461 H 0.58191 0.5414 0.0613 0.0
H462 H 0.48355 0.64483 0.02918 0.0
H463 H 0.51449 0.59375 0.06546 0.0
H464 H 0.73133 0.76539 0.00715 0.0
H465 H 0.76107 0.70728 0.03566 0.0
H466 H 0.67293 0.78229 0.95025 0.0
H467 H 0.60078 0.78725 0.94634 0.0
C468 C 0.65597 0.40221 1.00059 0.0
C469 C 0.71027 0.40024 0.02195 0.0
C470 C 0.71132 0.29933 0.00949 0.0
C471 C 0.65493 0.30089 0.99366 0.0
N472 N 0.56996 0.35332 0.98471 0.0
N473 N 0.78742 0.34595 0.05268 0.0
C474 C 0.62627 0.35222 0.99195 0.0
C475 C 0.73716 0.3484 0.02851 0.0
N476 N 0.63285 0.45179 0.9876 0.0
N477 N 0.74068 0.25126 0.00447 0.0
H478 H 0.80785 0.38086 0.06667 0.0
H479 H 0.80656 0.30902 0.06283 0.0
H480 H 0.72324 0.2156 0.98858 0.0
H481 H 0.78334 0.24822 0.01095 0.0
H482 H 0.59634 0.45508 0.96648 0.0
H483 H 0.65227 0.48966 0.99435 0.0
H484 H 0.54594 0.38888 0.98916 0.0
H485 H 0.54646 0.31776 0.9788 0.0
C486 C 0.38608 0.2696 0.04559 0.0
C487 C 0.42139 0.27341 1.00196 0.0
C488 C 0.36061 0.34817 0.97132 0.0
C489 C 0.32054 0.33538 0.00936 0.0
N490 N 0.29048 0.27151 0.0734 0.0
N491 N 0.43983 0.31912 0.92205 0.0
C492 C 0.3318 0.29234 0.0436 0.0
C493 C 0.40757 0.31307 0.96422 0.0
N494 N 0.40393 0.24778 0.09031 0.0
N495 N 0.3561 0.39557 0.94358 0.0
H496 H 0.47953 0.30262 0.918 0.0
H497 H 0.42617 0.34004 0.88999 0.0
H498 H 0.32382 0.42386 0.94735 0.0
H499 H 0.38773 0.41026 0.9203 0.0
H500 H 0.37928 0.24804 0.12273 0.0
H501 H 0.44487 0.23777 0.09857 0.0
H502 H 0.29607 0.23656 0.09581 0.0
H503 H 0.24924 0.28465 0.07089 0.0
C504 C 0.96098 0.51432 0.51716 0.0
C505 C 0.99512 0.56197 0.51803 0.0
C506 C 0.07775 0.50186 0.52204 0.0
C507 C 0.04439 0.45521 0.50936 0.0
N508 N 0.95204 0.41998 0.48844 0.0
N509 N 0.0868 0.60178 0.52172 0.0
C510 C 0.98518 0.46164 0.50662 0.0
C511 C 0.05371 0.55573 0.52238 0.0
N512 N 0.90481 0.5199 0.52262 0.0
N513 N 0.13337 0.49501 0.53096 0.0
H514 H 0.07039 0.64169 0.52212 0.0
H515 H 0.12993 0.60072 0.51799 0.0
H516 H 0.15323 0.45692 0.52704 0.0
H517 H 0.15882 0.52593 0.546 0.0
H518 H 0.87812 0.48637 0.5278 0.0
H519 H 0.8859 0.55838 0.52664 0.0
H520 H 0.91025 0.42553 0.47916 0.0
H521 H 0.96605 0.38066 0.47919 0.0
C522 C 0.54517 0.00112 0.54437 0.0
C523 C 0.54665 0.04201 0.50525 0.0
C524 C 0.46213 0.00181 0.47447 0.0
C525 C 0.44793 0.97971 0.52095 0.0
N526 N 0.48454 0.9515 0.6023 0.0
N527 N 0.48979 0.0901 0.44328 0.0
C528 C 0.49206 0.97764 0.55737 0.0
C529 C 0.4973 0.0479 0.4764 0.0
N530 N 0.5923 0.97958 0.56433 0.0
N531 N 0.47482 0.96465 0.43789 0.0
H532 H 0.51617 0.12446 0.44216 0.0
H533 H 0.45471 0.09165 0.42015 0.0
H534 H 0.46869 0.92226 0.44331 0.0
H535 H 0.49723 0.97641 0.40596 0.0
H536 H 0.59201 0.94832 0.59133 0.0
H537 H 0.63015 0.98549 0.54698 0.0
H538 H 0.5139 0.95338 0.63138 0.0
H539 H 0.44845 0.92914 0.61017 0.0
C540 C 0.4833 0.02037 0.99912 0.0
C541 C 0.542 0.02954 1.00342 0.0
C542 C 0.55543 0.92966 0.01574 0.0
C543 C 0.4975 0.92079 0.00939 0.0
N544 N 0.40531 0.95865 0.01346 0.0
N545 N 0.632 -0.00601 0.02681 0.0
C546 C 0.46126 0.96674 0.00882 0.0
C547 C 0.57704 0.98456 0.0166 0.0
N548 N 0.44903 0.05998 0.97953 0.0
N549 N 0.59031 0.88514 0.01596 0.0
H550 H 0.65022 0.03288 0.02324 0.0
H551 H 0.65843 0.96435 0.04214 0.0
H552 H 0.57513 0.84476 0.01591 0.0
H553 H 0.6335 0.8879 0.01377 0.0
H554 H 0.40781 0.05223 0.96932 0.0
H555 H 0.46175 0.09959 0.96994 0.0
H556 H 0.3772 0.99106 0.01839 0.0
H557 H 0.38799 0.9194 0.01725 0.0
C558 C 0.04448 0.5408 0.99183 0.0
C559 C 0.05407 0.48335 0.9973 0.0
C560 C 0.95381 0.46799 0.00709 0.0
C561 C 0.94419 0.52629 1.00388 0.0
N562 N 0.97899 0.61569 0.97969 0.0
N563 N 0.01699 0.39141 0.99154 0.0
C564 C 0.98908 0.56144 0.9905 0.0
C565 C 0.00816 0.44679 0.99734 0.0
N566 N 0.08871 0.57614 0.99246 0.0
N567 N 0.91374 0.43322 0.02518 0.0
H568 H 0.05677 0.37504 0.98675 0.0
H569 H 0.98473 0.363 0.98647 0.0
H570 H 0.8733 0.44529 0.03323 0.0
H571 H 0.92158 0.39224 0.03485 0.0
H572 H 0.0853 0.61898 0.99528 0.0
H573 H 0.12936 0.5614 0.99232 0.0
H574 H 0.00885 0.64215 0.9646 0.0
H575 H 0.93934 0.63293 0.98201 0.0
loop_
_geom_bond_atom_site_label_1
_geom_bond_atom_site_label_2
_geom_bond_distance
_geom_bond_site_symmetry_2
_ccdc_geom_bond_type
Mn0 O5 2.095 . S
Mn0 O15 2.162 . S
Mn0 O16 2.297 . S
Mn0 O24 2.385 . S
Mn0 O25 2.209 . S
Mn0 O26 2.094 1_455 S
Mn1 O6 2.121 . S
Mn1 N8 2.257 . S
Mn1 N17 2.282 1_455 S
Mn1 O25 2.215 . S
Mn1 O27 2.117 1_455 S
C2 O24 1.234 . S
C2 O25 1.283 . S
C3 O15 1.281 . S
C3 O16 1.236 . S
C4 O26 1.240 . S
C4 O27 1.264 . S
O5 Mn0 2.095 . S
O5 C14 1.250 . S
O6 Mn1 2.121 . S
O6 C14 1.258 . S
C7 N8 1.326 . S
C7 C11 1.460 . S
C7 H13 0.929 . S
N8 Mn1 2.257 . S
N8 C7 1.326 . S
N8 C12 1.362 . S
C9 C10 1.258 . S
C9 C12 1.431 . S
C9 C29 1.449 . S
C10 C9 1.258 . S
C10 C11 1.477 . S
C10 H30 0.931 . S
C11 C7 1.460 . S
C11 C10 1.477 . S
C11 H31 0.930 . S
C12 N8 1.362 . S
C12 C9 1.431 . S
C12 C22 1.476 . S
H13 C7 0.929 . S
C14 O5 1.250 . S
C14 O6 1.258 . S
O15 Mn0 2.162 . S
O15 C3 1.281 . S
O16 Mn0 2.297 . S
O16 C3 1.236 . S
N17 Mn1 2.282 1_655 S
N17 C18 1.328 . S
N17 C22 1.318 1_655 S
C18 N17 1.328 . S
C18 C19 1.457 . S
C18 H23 0.929 . S
C19 C18 1.457 . S
C19 C20 1.291 . S
C19 H32 0.931 . S
C20 C19 1.291 . S
C20 C21 1.373 . S
C20 H33 0.929 . S
C21 C20 1.373 . S
C21 C22 1.396 1_655 S
C21 C28 1.403 1_655 S
C22 C12 1.476 . S
C22 N17 1.318 1_455 S
C22 C21 1.396 1_455 S
H23 C18 0.929 . S
O24 Mn0 2.385 . S
O24 C2 1.234 . S
O25 Mn0 2.209 . S
O25 Mn1 2.215 . S
O25 C2 1.283 . S
O26 Mn0 2.094 1_655 S
O26 C4 1.240 . S
O27 Mn1 2.117 1_655 S
O27 C4 1.264 . S
C28 C21 1.403 1_455 S
C28 C29 1.399 . S
C28 H34 0.929 1_455 S
C29 C9 1.449 . S
C29 C28 1.399 . S
C29 H35 0.930 . S
H30 C10 0.931 . S
H31 C11 0.930 . S
H32 C19 0.931 . S
H33 C20 0.929 . S
H34 C28 0.929 1_655 S
H35 C29 0.930 . S
Mn36 O41 2.095 . S
Mn36 O51 2.162 . S
Mn36 O52 2.297 . S
Mn36 O60 2.385 . S
Mn36 O61 2.209 . S
Mn36 O62 2.094 1_565 S
Mn37 O42 2.121 . S
Mn37 N44 2.257 . S
Mn37 N53 2.282 1_565 S
Mn37 O61 2.215 . S
Mn37 O63 2.117 1_565 S
C38 O60 1.234 . S
C38 O61 1.283 . S
C39 O51 1.281 . S
C39 O52 1.236 . S
C40 O62 1.240 . S
C40 O63 1.264 . S
O41 Mn36 2.095 . S
O41 C50 1.250 . S
O42 Mn37 2.121 . S
O42 C50 1.258 . S
C43 N44 1.326 . S
C43 C47 1.460 . S
C43 H49 0.929 . S
N44 Mn37 2.257 . S
N44 C43 1.326 . S
N44 C48 1.362 . S
C45 C46 1.258 . S
C45 C48 1.431 . S
C45 C65 1.449 . S
C46 C45 1.258 . S
C46 C47 1.477 . S
C46 H66 0.931 . S
C47 C43 1.460 . S
C47 C46 1.477 . S
C47 H67 0.930 . S
C48 N44 1.362 . S
C48 C45 1.431 . S
C48 C58 1.476 . S
H49 C43 0.929 . S
C50 O41 1.250 . S
C50 O42 1.258 . S
O51 Mn36 2.162 . S
O51 C39 1.281 . S
O52 Mn36 2.297 . S
O52 C39 1.236 . S
N53 Mn37 2.282 1_545 S
N53 C54 1.328 . S
N53 C58 1.318 1_545 S
C54 N53 1.328 . S
C54 C55 1.457 . S
C54 H59 0.929 . S
C55 C54 1.457 . S
C55 C56 1.291 . S
C55 H68 0.931 . S
C56 C55 1.291 . S
C56 C57 1.373 . S
C56 H69 0.929 . S
C57 C56 1.373 . S
C57 C58 1.396 1_545 S
C57 C64 1.403 1_545 S
C58 C48 1.476 . S
C58 N53 1.318 1_565 S
C58 C57 1.396 1_565 S
H59 C54 0.929 . S
O60 Mn36 2.385 . S
O60 C38 1.234 . S
O61 Mn36 2.209 . S
O61 Mn37 2.215 . S
O61 C38 1.283 . S
O62 Mn36 2.094 1_545 S
O62 C40 1.240 . S
O63 Mn37 2.117 1_545 S
O63 C40 1.264 . S
C64 C57 1.403 1_565 S
C64 C65 1.399 . S
C64 H70 0.929 1_565 S
C65 C45 1.449 . S
C65 C64 1.399 . S
C65 H71 0.930 . S
H66 C46 0.931 . S
H67 C47 0.930 . S
H68 C55 0.931 . S
H69 C56 0.929 . S
H70 C64 0.929 1_545 S
H71 C65 0.930 . S
Mn72 O77 2.095 . S
Mn72 O87 2.162 . S
Mn72 O88 2.297 . S
Mn72 O96 2.385 . S
Mn72 O97 2.209 . S
Mn72 O98 2.094 1_655 S
Mn73 O78 2.121 . S
Mn73 N80 2.257 . S
Mn73 N89 2.282 1_655 S
Mn73 O97 2.215 . S
Mn73 O99 2.117 1_655 S
C74 O96 1.234 . S
C74 O97 1.283 . S
C75 O87 1.281 . S
C75 O88 1.236 . S
C76 O98 1.240 . S
C76 O99 1.264 . S
O77 Mn72 2.095 . S
O77 C86 1.250 . S
O78 Mn73 2.121 . S
O78 C86 1.258 . S
C79 N80 1.326 . S
C79 C83 1.460 . S
C79 H85 0.929 . S
N80 Mn73 2.257 . S
N80 C79 1.326 . S
N80 C84 1.362 . S
C81 C82 1.258 . S
C81 C84 1.431 . S
C81 C101 1.449 . S
C82 C81 1.258 . S
C82 C83 1.477 . S
C82 H102 0.931 . S
C83 C79 1.460 . S
C83 C82 1.477 . S
C83 H103 0.930 . S
C84 N80 1.362 . S
C84 C81 1.431 . S
C84 C94 1.476 . S
H85 C79 0.929 . S
C86 O77 1.250 . S
C86 O78 1.258 . S
O87 Mn72 2.162 . S
O87 C75 1.281 . S
O88 Mn72 2.297 . S
O88 C75 1.236 . S
N89 Mn73 2.282 1_455 S
N89 C90 1.328 . S
N89 C94 1.318 1_455 S
C90 N89 1.328 . S
C90 C91 1.457 . S
C90 H95 0.929 . S
C91 C90 1.457 . S
C91 C92 1.291 . S
C91 H104 0.931 . S
C92 C91 1.291 . S
C92 C93 1.373 . S
C92 H105 0.929 . S
C93 C92 1.373 . S
C93 C94 1.396 1_455 S
C93 C100 1.403 1_455 S
C94 C84 1.476 . S
C94 N89 1.318 1_655 S
C94 C93 1.396 1_655 S
H95 C90 0.929 . S
O96 Mn72 2.385 . S
O96 C74 1.234 . S
O97 Mn72 2.209 . S
O97 Mn73 2.215 . S
O97 C74 1.283 . S
O98 Mn72 2.094 1_455 S
O98 C76 1.240 . S
O99 Mn73 2.117 1_455 S
O99 C76 1.264 . S
C100 C93 1.403 1_655 S
C100 C101 1.399 . S
C100 H106 0.929 1_655 S
C101 C81 1.449 . S
C101 C100 1.399 . S
C101 H107 0.930 . S
H102 C82 0.931 . S
H103 C83 0.930 . S
H104 C91 0.931 . S
H105 C92 0.929 . S
H106 C100 0.929 1_455 S
H107 C101 0.930 . S
Mn108 O113 2.095 . S
Mn108 O123 2.162 . S
Mn108 O124 2.297 . S
Mn108 O132 2.385 . S
Mn108 O133 2.209 . S
Mn108 O134 2.094 1_545 S
Mn109 O114 2.121 . S
Mn109 N116 2.257 . S
Mn109 N125 2.282 1_545 S
Mn109 O133 2.215 . S
Mn109 O135 2.117 1_545 S
C110 O132 1.234 . S
C110 O133 1.283 . S
C111 O123 1.281 . S
C111 O124 1.236 . S
C112 O134 1.240 . S
C112 O135 1.264 . S
O113 Mn108 2.095 . S
O113 C122 1.250 . S
O114 Mn109 2.121 . S
O114 C122 1.258 . S
C115 N116 1.326 . S
C115 C119 1.460 . S
C115 H121 0.929 . S
N116 Mn109 2.257 . S
N116 C115 1.326 . S
N116 C120 1.362 . S
C117 C118 1.258 . S
C117 C120 1.431 . S
C117 C137 1.449 . S
C118 C117 1.258 . S
C118 C119 1.477 . S
C118 H138 0.931 . S
C119 C115 1.460 . S
C119 C118 1.477 . S
C119 H139 0.930 . S
C120 N116 1.362 . S
C120 C117 1.431 . S
C120 C130 1.476 . S
H121 C115 0.929 . S
C122 O113 1.250 . S
C122 O114 1.258 . S
O123 Mn108 2.162 . S
O123 C111 1.281 . S
O124 Mn108 2.297 . S
O124 C111 1.236 . S
N125 Mn109 2.282 1_565 S
N125 C126 1.328 . S
N125 C130 1.318 1_565 S
C126 N125 1.328 . S
C126 C127 1.457 . S
C126 H131 0.929 . S
C127 C126 1.457 . S
C127 C128 1.291 . S
C127 H140 0.931 . S
C128 C127 1.291 . S
C128 C129 1.373 . S
C128 H141 0.929 . S
C129 C128 1.373 . S
C129 C130 1.396 1_565 S
C129 C136 1.403 1_565 S
C130 C120 1.476 . S
C130 N125 1.318 1_545 S
C130 C129 1.396 1_545 S
H131 C126 0.929 . S
O132 Mn108 2.385 . S
O132 C110 1.234 . S
O133 Mn108 2.209 . S
O133 Mn109 2.215 . S
O133 C110 1.283 . S
O134 Mn108 2.094 1_565 S
O134 C112 1.240 . S
O135 Mn109 2.117 1_565 S
O135 C112 1.264 . S
C136 C129 1.403 1_545 S
C136 C137 1.399 . S
C136 H142 0.929 1_545 S
C137 C117 1.449 . S
C137 C136 1.399 . S
C137 H143 0.930 . S
H138 C118 0.931 . S
H139 C119 0.930 . S
H140 C127 0.931 . S
H141 C128 0.929 . S
H142 C136 0.929 1_565 S
H143 C137 0.930 . S
Mn144 O149 2.095 . S
Mn144 O159 2.162 . S
Mn144 O160 2.297 . S
Mn144 O168 2.385 . S
Mn144 O169 2.209 . S
Mn144 O170 2.094 . S
Mn145 O150 2.121 . S
Mn145 N152 2.257 . S
Mn145 N161 2.282 . S
Mn145 O169 2.215 1_554 S
Mn145 O171 2.117 . S
C146 O168 1.234 . S
C146 O169 1.283 . S
C147 O159 1.281 . S
C147 O160 1.236 . S
C148 O170 1.240 . S
C148 O171 1.264 1_556 S
O149 Mn144 2.095 . S
O149 C158 1.250 1_556 S
O150 Mn145 2.121 . S
O150 C158 1.258 . S
C151 N152 1.326 . S
C151 C155 1.460 . S
C151 H157 0.929 . S
N152 Mn145 2.257 . S
N152 C151 1.326 . S
N152 C156 1.362 . S
C153 C154 1.258 . S
C153 C156 1.431 . S
C153 C173 1.449 . S
C154 C153 1.258 . S
C154 C155 1.477 . S
C154 H174 0.931 . S
C155 C151 1.460 . S
C155 C154 1.477 . S
C155 H175 0.930 . S
C156 N152 1.362 . S
C156 C153 1.431 . S
C156 C166 1.476 . S
H157 C151 0.929 . S
C158 O149 1.250 1_554 S
C158 O150 1.258 . S
O159 Mn144 2.162 . S
O159 C147 1.281 . S
O160 Mn144 2.297 . S
O160 C147 1.236 . S
N161 Mn145 2.282 . S
N161 C162 1.328 . S
N161 C166 1.318 . S
C162 N161 1.328 . S
C162 C163 1.457 . S
C162 H167 0.929 . S
C163 C162 1.457 . S
C163 C164 1.291 . S
C163 H176 0.931 . S
C164 C163 1.291 . S
C164 C165 1.373 . S
C164 H177 0.929 . S
C165 C164 1.373 . S
C165 C166 1.396 . S
C165 C172 1.403 . S
C166 C156 1.476 . S
C166 N161 1.318 . S
C166 C165 1.396 . S
H167 C162 0.929 . S
O168 Mn144 2.385 . S
O168 C146 1.234 . S
O169 Mn144 2.209 . S
O169 Mn145 2.215 1_556 S
O169 C146 1.283 . S
O170 Mn144 2.094 . S
O170 C148 1.240 . S
O171 Mn145 2.117 . S
O171 C148 1.264 1_554 S
C172 C165 1.403 . S
C172 C173 1.399 . S
C172 H178 0.929 1_565 S
C173 C153 1.449 . S
C173 C172 1.399 . S
C173 H179 0.930 1_565 S
H174 C154 0.931 . S
H175 C155 0.930 . S
H176 C163 0.931 . S
H177 C164 0.929 . S
H178 C172 0.929 1_545 S
H179 C173 0.930 1_545 S
Mn180 O185 2.095 . S
Mn180 O195 2.162 . S
Mn180 O196 2.297 . S
Mn180 O204 2.385 . S
Mn180 O205 2.209 . S
Mn180 O206 2.094 . S
Mn181 O186 2.121 . S
Mn181 N188 2.257 . S
Mn181 N197 2.282 . S
Mn181 O205 2.215 1_556 S
Mn181 O207 2.117 . S
C182 O204 1.234 . S
C182 O205 1.283 . S
C183 O195 1.281 . S
C183 O196 1.236 . S
C184 O206 1.240 . S
C184 O207 1.264 1_554 S
O185 Mn180 2.095 . S
O185 C194 1.250 1_554 S
O186 Mn181 2.121 . S
O186 C194 1.258 . S
C187 N188 1.326 . S
C187 C191 1.460 . S
C187 H193 0.929 . S
N188 Mn181 2.257 . S
N188 C187 1.326 . S
N188 C192 1.362 . S
C189 C190 1.258 . S
C189 C192 1.431 . S
C189 C209 1.449 . S
C190 C189 1.258 . S
C190 C191 1.477 . S
C190 H210 0.931 . S
C191 C187 1.460 . S
C191 C190 1.477 . S
C191 H211 0.930 . S
C192 N188 1.362 . S
C192 C189 1.431 . S
C192 C202 1.476 . S
H193 C187 0.929 . S
C194 O185 1.250 1_556 S
C194 O186 1.258 . S
O195 Mn180 2.162 . S
O195 C183 1.281 . S
O196 Mn180 2.297 . S
O196 C183 1.236 . S
N197 Mn181 2.282 . S
N197 C198 1.328 . S
N197 C202 1.318 . S
C198 N197 1.328 . S
C198 C199 1.457 . S
C198 H203 0.929 . S
C199 C198 1.457 . S
C199 C200 1.291 . S
C199 H212 0.931 . S
C200 C199 1.291 . S
C200 C201 1.373 . S
C200 H213 0.929 . S
C201 C200 1.373 . S
C201 C202 1.396 . S
C201 C208 1.403 . S
C202 C192 1.476 . S
C202 N197 1.318 . S
C202 C201 1.396 . S
H203 C198 0.929 . S
O204 Mn180 2.385 . S
O204 C182 1.234 . S
O205 Mn180 2.209 . S
O205 Mn181 2.215 1_554 S
O205 C182 1.283 . S
O206 Mn180 2.094 . S
O206 C184 1.240 . S
O207 Mn181 2.117 . S
O207 C184 1.264 1_556 S
C208 C201 1.403 . S
C208 C209 1.399 . S
C208 H214 0.929 1_655 S
C209 C189 1.449 . S
C209 C208 1.399 . S
C209 H215 0.930 1_655 S
H210 C190 0.931 . S
H211 C191 0.930 . S
H212 C199 0.931 . S
H213 C200 0.929 . S
H214 C208 0.929 1_455 S
H215 C209 0.930 1_455 S
Mn216 O221 2.095 . S
Mn216 O231 2.162 . S
Mn216 O232 2.297 . S
Mn216 O240 2.385 . S
Mn216 O241 2.209 . S
Mn216 O242 2.094 . S
Mn217 O222 2.121 . S
Mn217 N224 2.257 . S
Mn217 N233 2.282 . S
Mn217 O241 2.215 1_554 S
Mn217 O243 2.117 . S
C218 O240 1.234 . S
C218 O241 1.283 . S
C219 O231 1.281 . S
C219 O232 1.236 . S
C220 O242 1.240 . S
C220 O243 1.264 1_556 S
O221 Mn216 2.095 . S
O221 C230 1.250 1_556 S
O222 Mn217 2.121 . S
O222 C230 1.258 . S
C223 N224 1.326 . S
C223 C227 1.460 . S
C223 H229 0.929 . S
N224 Mn217 2.257 . S
N224 C223 1.326 . S
N224 C228 1.362 . S
C225 C226 1.258 . S
C225 C228 1.431 . S
C225 C245 1.449 . S
C226 C225 1.258 . S
C226 C227 1.477 . S
C226 H246 0.931 . S
C227 C223 1.460 . S
C227 C226 1.477 . S
C227 H247 0.930 . S
C228 N224 1.362 . S
C228 C225 1.431 . S
C228 C238 1.476 . S
H229 C223 0.929 . S
C230 O221 1.250 1_554 S
C230 O222 1.258 . S
O231 Mn216 2.162 . S
O231 C219 1.281 . S
O232 Mn216 2.297 . S
O232 C219 1.236 . S
N233 Mn217 2.282 . S
N233 C234 1.328 . S
N233 C238 1.318 . S
C234 N233 1.328 . S
C234 C235 1.457 . S
C234 H239 0.929 . S
C235 C234 1.457 . S
C235 C236 1.291 . S
C235 H248 0.931 . S
C236 C235 1.291 . S
C236 C237 1.373 . S
C236 H249 0.929 . S
C237 C236 1.373 . S
C237 C238 1.396 . S
C237 C244 1.403 . S
C238 C228 1.476 . S
C238 N233 1.318 . S
C238 C237 1.396 . S
H239 C234 0.929 . S
O240 Mn216 2.385 . S
O240 C218 1.234 . S
O241 Mn216 2.209 . S
O241 Mn217 2.215 1_556 S
O241 C218 1.283 . S
O242 Mn216 2.094 . S
O242 C220 1.240 . S
O243 Mn217 2.117 . S
O243 C220 1.264 1_554 S
C244 C237 1.403 . S
C244 C245 1.399 . S
C244 H250 0.929 1_545 S
C245 C225 1.449 . S
C245 C244 1.399 . S
C245 H251 0.930 1_545 S
H246 C226 0.931 . S
H247 C227 0.930 . S
H248 C235 0.931 . S
H249 C236 0.929 . S
H250 C244 0.929 1_565 S
H251 C245 0.930 1_565 S
Mn252 O257 2.095 . S
Mn252 O267 2.162 . S
Mn252 O268 2.297 . S
Mn252 O276 2.385 . S
Mn252 O277 2.209 . S
Mn252 O278 2.094 . S
Mn253 O258 2.121 . S
Mn253 N260 2.257 . S
Mn253 N269 2.282 . S
Mn253 O277 2.215 1_556 S
Mn253 O279 2.117 . S
C254 O276 1.234 . S
C254 O277 1.283 . S
C255 O267 1.281 . S
C255 O268 1.236 . S
C256 O278 1.240 . S
C256 O279 1.264 1_554 S
O257 Mn252 2.095 . S
O257 C266 1.250 1_554 S
O258 Mn253 2.121 . S
O258 C266 1.258 . S
C259 N260 1.326 . S
C259 C263 1.460 . S
C259 H265 0.929 . S
N260 Mn253 2.257 . S
N260 C259 1.326 . S
N260 C264 1.362 . S
C261 C262 1.258 . S
C261 C264 1.431 . S
C261 C281 1.449 . S
C262 C261 1.258 . S
C262 C263 1.477 . S
C262 H282 0.931 . S
C263 C259 1.460 . S
C263 C262 1.477 . S
C263 H283 0.930 . S
C264 N260 1.362 . S
C264 C261 1.431 . S
C264 C274 1.476 . S
H265 C259 0.929 . S
C266 O257 1.250 1_556 S
C266 O258 1.258 . S
O267 Mn252 2.162 . S
O267 C255 1.281 . S
O268 Mn252 2.297 . S
O268 C255 1.236 . S
N269 Mn253 2.282 . S
N269 C270 1.328 . S
N269 C274 1.318 . S
C270 N269 1.328 . S
C270 C271 1.457 . S
C270 H275 0.929 . S
C271 C270 1.457 . S
C271 C272 1.291 . S
C271 H284 0.931 . S
C272 C271 1.291 . S
C272 C273 1.373 . S
C272 H285 0.929 . S
C273 C272 1.373 . S
C273 C274 1.396 . S
C273 C280 1.403 . S
C274 C264 1.476 . S
C274 N269 1.318 . S
C274 C273 1.396 . S
H275 C270 0.929 . S
O276 Mn252 2.385 . S
O276 C254 1.234 . S
O277 Mn252 2.209 . S
O277 Mn253 2.215 1_554 S
O277 C254 1.283 . S
O278 Mn252 2.094 . S
O278 C256 1.240 . S
O279 Mn253 2.117 . S
O279 C256 1.264 1_556 S
C280 C273 1.403 . S
C280 C281 1.399 . S
C280 H286 0.929 1_455 S
C281 C261 1.449 . S
C281 C280 1.399 . S
C281 H287 0.930 1_455 S
H282 C262 0.931 . S
H283 C263 0.930 . S
H284 C271 0.931 . S
H285 C272 0.929 . S
H286 C280 0.929 1_655 S
H287 C281 0.930 1_655 S
C288 C289 1.363 . S
C288 C294 1.379 . S
C288 N296 1.356 . S
C289 C288 1.363 . S
C289 C295 1.363 . S
C290 C291 1.363 . S
C290 C295 1.379 . S
C290 N297 1.356 . S
C291 C290 1.363 . S
C291 C294 1.363 . S
N292 C294 1.356 . S
N292 H304 0.984 . S
N292 H305 0.985 . S
N293 C295 1.356 . S
N293 H298 0.984 . S
N293 H299 0.985 . S
C294 C288 1.379 . S
C294 C291 1.363 . S
C294 N292 1.356 . S
C295 C289 1.363 . S
C295 C290 1.379 . S
C295 N293 1.356 . S
N296 C288 1.356 . S
N296 H302 0.984 . S
N296 H303 0.984 . S
N297 C290 1.356 . S
N297 H300 0.984 . S
N297 H301 0.985 . S
H298 N293 0.984 . S
H299 N293 0.985 . S
H300 N297 0.984 . S
H301 N297 0.985 . S
H302 N296 0.984 . S
H303 N296 0.984 . S
H304 N292 0.984 . S
H305 N292 0.985 . S
C306 C307 1.363 . S
C306 C312 1.379 . S
C306 N314 1.356 . S
C307 C306 1.363 . S
C307 C313 1.363 . S
C308 C309 1.363 . S
C308 C313 1.379 . S
C308 N315 1.356 . S
C309 C308 1.363 . S
C309 C312 1.363 . S
N310 C312 1.356 . S
N310 H322 0.984 . S
N310 H323 0.985 . S
N311 C313 1.356 . S
N311 H316 0.984 . S
N311 H317 0.985 . S
C312 C306 1.379 . S
C312 C309 1.363 . S
C312 N310 1.356 . S
C313 C307 1.363 . S
C313 C308 1.379 . S
C313 N311 1.356 . S
N314 C306 1.356 . S
N314 H320 0.984 . S
N314 H321 0.984 . S
N315 C308 1.356 . S
N315 H318 0.984 . S
N315 H319 0.985 . S
H316 N311 0.984 . S
H317 N311 0.985 . S
H318 N315 0.984 . S
H319 N315 0.985 . S
H320 N314 0.984 . S
H321 N314 0.984 . S
H322 N310 0.984 . S
H323 N310 0.985 . S
C324 C325 1.363 . S
C324 C330 1.379 . S
C324 N332 1.356 . S
C325 C324 1.363 . S
C325 C331 1.363 . S
C326 C327 1.363 . S
C326 C331 1.379 . S
C326 N333 1.356 . S
C327 C326 1.363 . S
C327 C330 1.363 . S
N328 C330 1.356 . S
N328 H340 0.984 . S
N328 H341 0.985 . S
N329 C331 1.356 . S
N329 H334 0.984 . S
N329 H335 0.985 . S
C330 C324 1.379 . S
C330 C327 1.363 . S
C330 N328 1.356 . S
C331 C325 1.363 . S
C331 C326 1.379 . S
C331 N329 1.356 . S
N332 C324 1.356 . S
N332 H338 0.984 . S
N332 H339 0.984 . S
N333 C326 1.356 . S
N333 H336 0.984 . S
N333 H337 0.985 . S
H334 N329 0.984 . S
H335 N329 0.985 . S
H336 N333 0.984 . S
H337 N333 0.985 . S
H338 N332 0.984 . S
H339 N332 0.984 . S
H340 N328 0.984 . S
H341 N328 0.985 . S
C342 C343 1.363 . S
C342 C348 1.379 . S
C342 N350 1.356 . S
C343 C342 1.363 . S
C343 C349 1.363 . S
C344 C345 1.363 . S
C344 C349 1.379 . S
C344 N351 1.356 . S
C345 C344 1.363 . S
C345 C348 1.363 . S
N346 C348 1.356 . S
N346 H358 0.984 . S
N346 H359 0.985 . S
N347 C349 1.356 . S
N347 H352 0.984 . S
N347 H353 0.985 . S
C348 C342 1.379 . S
C348 C345 1.363 . S
C348 N346 1.356 . S
C349 C343 1.363 . S
C349 C344 1.379 . S
C349 N347 1.356 . S
N350 C342 1.356 . S
N350 H356 0.984 . S
N350 H357 0.984 . S
N351 C344 1.356 . S
N351 H354 0.984 . S
N351 H355 0.985 . S
H352 N347 0.984 . S
H353 N347 0.985 . S
H354 N351 0.984 . S
H355 N351 0.985 . S
H356 N350 0.984 . S
H357 N350 0.984 . S
H358 N346 0.984 . S
H359 N346 0.985 . S
C360 C361 1.363 . S
C360 C366 1.379 . S
C360 N368 1.356 . S
C361 C360 1.363 . S
C361 C367 1.363 . S
C362 C363 1.363 . S
C362 C367 1.379 . S
C362 N369 1.356 . S
C363 C362 1.363 . S
C363 C366 1.363 . S
N364 C366 1.356 . S
N364 H376 0.984 . S
N364 H377 0.985 . S
N365 C367 1.356 . S
N365 H370 0.984 . S
N365 H371 0.985 . S
C366 C360 1.379 . S
C366 C363 1.363 . S
C366 N364 1.356 . S
C367 C361 1.363 . S
C367 C362 1.379 . S
C367 N365 1.356 . S
N368 C360 1.356 . S
N368 H374 0.984 . S
N368 H375 0.984 . S
N369 C362 1.356 . S
N369 H372 0.984 . S
N369 H373 0.985 . S
H370 N365 0.984 . S
H371 N365 0.985 . S
H372 N369 0.984 . S
H373 N369 0.985 . S
H374 N368 0.984 . S
H375 N368 0.984 . S
H376 N364 0.984 . S
H377 N364 0.985 . S
C378 C379 1.363 . S
C378 C384 1.379 . S
C378 N386 1.356 . S
C379 C378 1.363 . S
C379 C385 1.363 . S
C380 C381 1.363 . S
C380 C385 1.379 . S
C380 N387 1.356 . S
C381 C380 1.363 . S
C381 C384 1.363 . S
N382 C384 1.356 . S
N382 H394 0.984 . S
N382 H395 0.985 . S
N383 C385 1.356 . S
N383 H388 0.984 . S
N383 H389 0.985 . S
C384 C378 1.379 . S
C384 C381 1.363 . S
C384 N382 1.356 . S
C385 C379 1.363 . S
C385 C380 1.379 . S
C385 N383 1.356 . S
N386 C378 1.356 . S
N386 H392 0.984 . S
N386 H393 0.984 . S
N387 C380 1.356 . S
N387 H390 0.984 . S
N387 H391 0.985 . S
H388 N383 0.984 . S
H389 N383 0.985 . S
H390 N387 0.984 . S
H391 N387 0.985 . S
H392 N386 0.984 . S
H393 N386 0.984 . S
H394 N382 0.984 . S
H395 N382 0.985 . S
C396 C397 1.363 . S
C396 C402 1.379 . S
C396 N404 1.356 . S
C397 C396 1.363 . S
C397 C403 1.363 . S
C398 C399 1.363 . S
C398 C403 1.379 . S
C398 N405 1.356 . S
C399 C398 1.363 . S
C399 C402 1.363 . S
N400 C402 1.356 . S
N400 H412 0.984 . S
N400 H413 0.985 . S
N401 C403 1.356 . S
N401 H406 0.984 . S
N401 H407 0.985 . S
C402 C396 1.379 . S
C402 C399 1.363 . S
C402 N400 1.356 . S
C403 C397 1.363 . S
C403 C398 1.379 . S
C403 N401 1.356 . S
N404 C396 1.356 . S
N404 H410 0.984 . S
N404 H411 0.984 . S
N405 C398 1.356 . S
N405 H408 0.984 . S
N405 H409 0.985 . S
H406 N401 0.984 . S
H407 N401 0.985 . S
H408 N405 0.984 . S
H409 N405 0.985 . S
H410 N404 0.984 . S
H411 N404 0.984 . S
H412 N400 0.984 . S
H413 N400 0.985 . S
C414 C415 1.363 . S
C414 C420 1.379 . S
C414 N422 1.356 . S
C415 C414 1.363 . S
C415 C421 1.363 . S
C416 C417 1.363 . S
C416 C421 1.379 . S
C416 N423 1.356 . S
C417 C416 1.363 . S
C417 C420 1.363 . S
N418 C420 1.356 . S
N418 H430 0.984 . S
N418 H431 0.985 . S
N419 C421 1.356 . S
N419 H424 0.984 . S
N419 H425 0.985 . S
C420 C414 1.379 . S
C420 C417 1.363 . S
C420 N418 1.356 . S
C421 C415 1.363 . S
C421 C416 1.379 . S
C421 N419 1.356 . S
N422 C414 1.356 . S
N422 H428 0.984 . S
N422 H429 0.984 . S
N423 C416 1.356 . S
N423 H426 0.984 . S
N423 H427 0.985 . S
H424 N419 0.984 . S
H425 N419 0.985 . S
H426 N423 0.984 . S
H427 N423 0.985 . S
H428 N422 0.984 . S
H429 N422 0.984 . S
H430 N418 0.984 . S
H431 N418 0.985 . S
C432 C433 1.363 1_556 S
C432 C438 1.379 . S
C432 N440 1.356 . S
C433 C432 1.363 1_554 S
C433 C439 1.363 . S
C434 C435 1.363 . S
C434 C439 1.379 . S
C434 N441 1.356 . S
C435 C434 1.363 . S
C435 C438 1.363 1_554 S
N436 C438 1.356 . S
N436 H448 0.984 . S
N436 H449 0.985 . S
N437 C439 1.356 . S
N437 H442 0.984 . S
N437 H443 0.985 . S
C438 C432 1.379 . S
C438 C435 1.363 1_556 S
C438 N436 1.356 . S
C439 C433 1.363 . S
C439 C434 1.379 . S
C439 N437 1.356 . S
N440 C432 1.356 . S
N440 H446 0.984 . S
N440 H447 0.984 . S
N441 C434 1.356 . S
N441 H444 0.984 . S
N441 H445 0.985 . S
H442 N437 0.984 . S
H443 N437 0.985 . S
H444 N441 0.984 . S
H445 N441 0.985 . S
H446 N440 0.984 . S
H447 N440 0.984 . S
H448 N436 0.984 . S
H449 N436 0.985 . S
C450 C451 1.363 . S
C450 C456 1.379 . S
C450 N458 1.356 . S
C451 C450 1.363 . S
C451 C457 1.363 1_556 S
C452 C453 1.363 1_554 S
C452 C457 1.379 . S
C452 N459 1.356 . S
C453 C452 1.363 1_556 S
C453 C456 1.363 . S
N454 C456 1.356 . S
N454 H466 0.984 . S
N454 H467 0.985 . S
N455 C457 1.356 . S
N455 H460 0.984 . S
N455 H461 0.985 . S
C456 C450 1.379 . S
C456 C453 1.363 . S
C456 N454 1.356 . S
C457 C451 1.363 1_554 S
C457 C452 1.379 . S
C457 N455 1.356 . S
N458 C450 1.356 . S
N458 H464 0.984 . S
N458 H465 0.984 . S
N459 C452 1.356 . S
N459 H462 0.984 . S
N459 H463 0.985 . S
H460 N455 0.984 . S
H461 N455 0.985 . S
H462 N459 0.984 . S
H463 N459 0.985 . S
H464 N458 0.984 . S
H465 N458 0.984 . S
H466 N454 0.984 . S
H467 N454 0.985 . S
C468 C469 1.363 1_556 S
C468 C474 1.379 . S
C468 N476 1.356 . S
C469 C468 1.363 1_554 S
C469 C475 1.363 . S
C470 C471 1.363 . S
C470 C475 1.379 . S
C470 N477 1.356 . S
C471 C470 1.363 . S
C471 C474 1.363 1_554 S
N472 C474 1.356 . S
N472 H484 0.984 . S
N472 H485 0.985 . S
N473 C475 1.356 . S
N473 H478 0.984 . S
N473 H479 0.985 . S
C474 C468 1.379 . S
C474 C471 1.363 1_556 S
C474 N472 1.356 . S
C475 C469 1.363 . S
C475 C470 1.379 . S
C475 N473 1.356 . S
N476 C468 1.356 . S
N476 H482 0.984 . S
N476 H483 0.984 . S
N477 C470 1.356 . S
N477 H480 0.984 . S
N477 H481 0.985 . S
H478 N473 0.984 . S
H479 N473 0.985 . S
H480 N477 0.984 . S
H481 N477 0.985 . S
H482 N476 0.984 . S
H483 N476 0.984 . S
H484 N472 0.984 . S
H485 N472 0.985 . S
C486 C487 1.363 1_554 S
C486 C492 1.379 . S
C486 N494 1.356 . S
C487 C486 1.363 1_556 S
C487 C493 1.363 . S
C488 C489 1.363 . S
C488 C493 1.379 . S
C488 N495 1.356 . S
C489 C488 1.363 . S
C489 C492 1.363 1_556 S
N490 C492 1.356 . S
N490 H502 0.984 . S
N490 H503 0.985 . S
N491 C493 1.356 . S
N491 H496 0.984 . S
N491 H497 0.985 . S
C492 C486 1.379 . S
C492 C489 1.363 1_554 S
C492 N490 1.356 . S
C493 C487 1.363 . S
C493 C488 1.379 . S
C493 N491 1.356 . S
N494 C486 1.356 . S
N494 H500 0.984 . S
N494 H501 0.984 . S
N495 C488 1.356 . S
N495 H498 0.984 . S
N495 H499 0.985 . S
H496 N491 0.984 . S
H497 N491 0.985 . S
H498 N495 0.984 . S
H499 N495 0.985 . S
H500 N494 0.984 . S
H501 N494 0.984 . S
H502 N490 0.984 . S
H503 N490 0.985 . S
C504 C505 1.363 . S
C504 C510 1.379 . S
C504 N512 1.356 . S
C505 C504 1.363 . S
C505 C511 1.363 1_655 S
C506 C507 1.363 . S
C506 C511 1.379 . S
C506 N513 1.356 . S
C507 C506 1.363 . S
C507 C510 1.363 1_455 S
N508 C510 1.358 . S
N508 H520 0.993 . S
N508 H521 0.974 1_655 S
N509 C511 1.358 . S
N509 H514 0.974 1_455 S
N509 H515 0.993 . S
C510 C504 1.379 . S
C510 C507 1.363 1_655 S
C510 N508 1.358 . S
C511 C505 1.363 1_455 S
C511 C506 1.379 . S
C511 N509 1.358 . S
N512 C504 1.356 . S
N512 H518 0.984 . S
N512 H519 0.984 . S
N513 C506 1.356 . S
N513 H516 0.984 . S
N513 H517 0.985 . S
H514 N509 0.974 1_655 S
H515 N509 0.993 . S
H516 N513 0.984 . S
H517 N513 0.985 . S
H518 N512 0.984 . S
H519 N512 0.984 . S
H520 N508 0.993 . S
H521 N508 0.974 1_455 S
C522 C523 1.363 1_565 S
C522 C528 1.379 . S
C522 N530 1.358 . S
C523 C522 1.363 1_545 S
C523 C529 1.363 . S
C524 C525 1.363 1_545 S
C524 C529 1.379 . S
C524 N531 1.358 . S
C525 C524 1.363 1_565 S
C525 C528 1.363 . S
N526 C528 1.356 . S
N526 H538 0.984 . S
N526 H539 0.985 . S
N527 C529 1.356 . S
N527 H532 0.984 . S
N527 H533 0.985 . S
C528 C522 1.379 . S
C528 C525 1.363 . S
C528 N526 1.356 . S
C529 C523 1.363 . S
C529 C524 1.379 . S
C529 N527 1.356 . S
N530 C522 1.358 . S
N530 H536 0.993 . S
N530 H537 0.974 1_565 S
N531 C524 1.358 . S
N531 H534 0.974 1_545 S
N531 H535 0.993 . S
H532 N527 0.984 . S
H533 N527 0.985 . S
H534 N531 0.974 1_565 S
H535 N531 0.993 . S
H536 N530 0.993 . S
H537 N530 0.974 1_545 S
H538 N526 0.984 . S
H539 N526 0.985 . S
C540 C541 1.363 . S
C540 C546 1.379 1_545 S
C540 N548 1.356 . S
C541 C540 1.363 . S
C541 C547 1.363 1_556 S
C542 C543 1.363 1_554 S
C542 C547 1.379 1_565 S
C542 N549 1.356 . S
C543 C542 1.363 1_556 S
C543 C546 1.363 . S
N544 C546 1.356 . S
N544 H556 0.984 . S
N544 H557 0.985 . S
N545 C547 1.356 . S
N545 H550 0.984 . S
N545 H551 0.985 . S
C546 C540 1.379 1_565 S
C546 C543 1.363 . S
C546 N544 1.356 . S
C547 C541 1.363 1_554 S
C547 C542 1.379 1_545 S
C547 N545 1.356 . S
N548 C540 1.356 . S
N548 H554 0.984 . S
N548 H555 0.984 . S
N549 C542 1.356 . S
N549 H552 0.984 . S
N549 H553 0.985 . S
H550 N545 0.984 . S
H551 N545 0.985 . S
H552 N549 0.984 . S
H553 N549 0.985 . S
H554 N548 0.984 . S
H555 N548 0.984 . S
H556 N544 0.984 . S
H557 N544 0.985 . S
C558 C559 1.363 1_556 S
C558 C564 1.379 1_455 S
C558 N566 1.356 . S
C559 C558 1.363 1_554 S
C559 C565 1.363 . S
C560 C561 1.363 . S
C560 C565 1.379 1_655 S
C560 N567 1.356 . S
C561 C560 1.363 . S
C561 C564 1.363 1_554 S
N562 C564 1.356 . S
N562 H574 0.984 . S
N562 H575 0.985 . S
N563 C565 1.356 . S
N563 H568 0.984 . S
N563 H569 0.985 . S
C564 C558 1.379 1_655 S
C564 C561 1.363 1_556 S
C564 N562 1.356 . S
C565 C559 1.363 . S
C565 C560 1.379 1_455 S
C565 N563 1.356 . S
N566 C558 1.356 . S
N566 H572 0.984 . S
N566 H573 0.984 . S
N567 C560 1.356 . S
N567 H570 0.984 . S
N567 H571 0.985 . S
H568 N563 0.984 . S
H569 N563 0.985 . S
H570 N567 0.984 . S
H571 N567 0.985 . S
H572 N566 0.984 . S
H573 N566 0.984 . S
H574 N562 0.984 . S
H575 N562 0.985 . S
C289 C255 1.539 . S
C291 C3 1.539 . S
C307 C39 1.539 . S
C309 C147 1.539 . S
C325 C75 1.539 . S
C327 C183 1.539 . S
C343 C219 1.539 . S
C345 C111 1.539 . S
C361 C40 1.529 . S
C363 C14 1.468 . S
C379 C50 1.468 . S
C381 C76 1.529 . S
C397 C112 1.529 . S
C399 C86 1.468 . S
C415 C122 1.468 . S
C417 C4 1.529 . S
C433 C256 1.529 . S
C435 C158 1.468 . S
C451 C194 1.468 . S
C453 C148 1.529 . S
C469 C184 1.529 . S
C471 C230 1.468 . S
C487 C220 1.529 . S
C489 C266 1.468 . S
C505 C74 1.110 . S
C507 C2 1.110 . S
C523 C110 1.110 . S
C525 C38 1.110 . S
C541 C218 1.110 . S
C543 C146 1.110 . S
C559 C254 1.110 . S
C561 C182 1.110 . S
