# Generated by pormake.
# Topology why, (6)-cn, num edge types: 1
# Building blocks:
#     Node 0, Type 0, BuildingBlock: PAMTOO_clean_sbu_0, # of connection points: 6
#     Node 1, Type 0, BuildingBlock: PAMTOO_clean_sbu_0, # of connection points: 6
#     Node 2, Type 0, BuildingBlock: PAMTOO_clean_sbu_0, # of connection points: 6
#     Node 3, Type 0, BuildingBlock: PAMTOO_clean_sbu_0, # of connection points: 6
#     Node 4, Type 0, BuildingBlock: PAMTOO_clean_sbu_0, # of connection points: 6
#     Node 5, Type 0, BuildingBlock: PAMTOO_clean_sbu_0, # of connection points: 6
#     Node 6, Type 0, BuildingBlock: PAMTOO_clean_sbu_0, # of connection points: 6
#     Node 7, Type 0, BuildingBlock: PAMTOO_clean_sbu_0, # of connection points: 6
#     Node 8, Type 0, BuildingBlock: PAMTOO_clean_sbu_0, # of connection points: 6
#     Node 9, Type 0, BuildingBlock: PAMTOO_clean_sbu_0, # of connection points: 6
#     Node 10, Type 0, BuildingBlock: PAMTOO_clean_sbu_0, # of connection points: 6
#     Node 11, Type 0, BuildingBlock: PAMTOO_clean_sbu_0, # of connection points: 6
#     Node 12, Type 0, BuildingBlock: PAMTOO_clean_sbu_0, # of connection points: 6
#     Node 13, Type 0, BuildingBlock: PAMTOO_clean_sbu_0, # of connection points: 6
#     Node 14, Type 0, BuildingBlock: PAMTOO_clean_sbu_0, # of connection points: 6
#     Node 15, Type 0, BuildingBlock: PAMTOO_clean_sbu_0, # of connection points: 6
#     Edge 16, Type (0, 0), BuildingBlock: KIFKEQ_clean_linker_1, # of connection points: 2
#     Edge 17, Type (0, 0), BuildingBlock: KIFKEQ_clean_linker_1, # of connection points: 2
#     Edge 18, Type (0, 0), BuildingBlock: KIFKEQ_clean_linker_1, # of connection points: 2
#     Edge 19, Type (0, 0), BuildingBlock: KIFKEQ_clean_linker_1, # of connection points: 2
#     Edge 20, Type (0, 0), BuildingBlock: KIFKEQ_clean_linker_1, # of connection points: 2
#     Edge 21, Type (0, 0), BuildingBlock: KIFKEQ_clean_linker_1, # of connection points: 2
#     Edge 22, Type (0, 0), BuildingBlock: KIFKEQ_clean_linker_1, # of connection points: 2
#     Edge 23, Type (0, 0), BuildingBlock: KIFKEQ_clean_linker_1, # of connection points: 2
#     Edge 24, Type (0, 0), BuildingBlock: KIFKEQ_clean_linker_1, # of connection points: 2
#     Edge 25, Type (0, 0), BuildingBlock: KIFKEQ_clean_linker_1, # of connection points: 2
#     Edge 26, Type (0, 0), BuildingBlock: KIFKEQ_clean_linker_1, # of connection points: 2
#     Edge 27, Type (0, 0), BuildingBlock: KIFKEQ_clean_linker_1, # of connection points: 2
#     Edge 28, Type (0, 0), BuildingBlock: KIFKEQ_clean_linker_1, # of connection points: 2
#     Edge 29, Type (0, 0), BuildingBlock: KIFKEQ_clean_linker_1, # of connection points: 2
#     Edge 30, Type (0, 0), BuildingBlock: KIFKEQ_clean_linker_1, # of connection points: 2
#     Edge 31, Type (0, 0), BuildingBlock: KIFKEQ_clean_linker_1, # of connection points: 2
#     Edge 32, Type (0, 0), BuildingBlock: KIFKEQ_clean_linker_1, # of connection points: 2
#     Edge 33, Type (0, 0), BuildingBlock: KIFKEQ_clean_linker_1, # of connection points: 2
#     Edge 34, Type (0, 0), BuildingBlock: KIFKEQ_clean_linker_1, # of connection points: 2
#     Edge 35, Type (0, 0), BuildingBlock: KIFKEQ_clean_linker_1, # of connection points: 2
#     Edge 36, Type (0, 0), BuildingBlock: KIFKEQ_clean_linker_1, # of connection points: 2
#     Edge 37, Type (0, 0), BuildingBlock: KIFKEQ_clean_linker_1, # of connection points: 2
#     Edge 38, Type (0, 0), BuildingBlock: KIFKEQ_clean_linker_1, # of connection points: 2
#     Edge 39, Type (0, 0), BuildingBlock: KIFKEQ_clean_linker_1, # of connection points: 2
#     Edge 40, Type (0, 0), BuildingBlock: KIFKEQ_clean_linker_1, # of connection points: 2
#     Edge 41, Type (0, 0), BuildingBlock: KIFKEQ_clean_linker_1, # of connection points: 2
#     Edge 42, Type (0, 0), BuildingBlock: KIFKEQ_clean_linker_1, # of connection points: 2
#     Edge 43, Type (0, 0), BuildingBlock: KIFKEQ_clean_linker_1, # of connection points: 2
#     Edge 44, Type (0, 0), BuildingBlock: KIFKEQ_clean_linker_1, # of connection points: 2
#     Edge 45, Type (0, 0), BuildingBlock: KIFKEQ_clean_linker_1, # of connection points: 2
#     Edge 46, Type (0, 0), BuildingBlock: KIFKEQ_clean_linker_1, # of connection points: 2
#     Edge 47, Type (0, 0), BuildingBlock: KIFKEQ_clean_linker_1, # of connection points: 2
#     Edge 48, Type (0, 0), BuildingBlock: KIFKEQ_clean_linker_1, # of connection points: 2
#     Edge 49, Type (0, 0), BuildingBlock: KIFKEQ_clean_linker_1, # of connection points: 2
#     Edge 50, Type (0, 0), BuildingBlock: KIFKEQ_clean_linker_1, # of connection points: 2
#     Edge 51, Type (0, 0), BuildingBlock: KIFKEQ_clean_linker_1, # of connection points: 2
#     Edge 52, Type (0, 0), BuildingBlock: KIFKEQ_clean_linker_1, # of connection points: 2
#     Edge 53, Type (0, 0), BuildingBlock: KIFKEQ_clean_linker_1, # of connection points: 2
#     Edge 54, Type (0, 0), BuildingBlock: KIFKEQ_clean_linker_1, # of connection points: 2
#     Edge 55, Type (0, 0), BuildingBlock: KIFKEQ_clean_linker_1, # of connection points: 2
#     Edge 56, Type (0, 0), BuildingBlock: KIFKEQ_clean_linker_1, # of connection points: 2
#     Edge 57, Type (0, 0), BuildingBlock: KIFKEQ_clean_linker_1, # of connection points: 2
#     Edge 58, Type (0, 0), BuildingBlock: KIFKEQ_clean_linker_1, # of connection points: 2
#     Edge 59, Type (0, 0), BuildingBlock: KIFKEQ_clean_linker_1, # of connection points: 2
#     Edge 60, Type (0, 0), BuildingBlock: KIFKEQ_clean_linker_1, # of connection points: 2
#     Edge 61, Type (0, 0), BuildingBlock: KIFKEQ_clean_linker_1, # of connection points: 2
#     Edge 62, Type (0, 0), BuildingBlock: KIFKEQ_clean_linker_1, # of connection points: 2
#     Edge 63, Type (0, 0), BuildingBlock: KIFKEQ_clean_linker_1, # of connection points: 2
# Relax obj value: 0.357
# Max RMSD: 0.211
# Mean RMSD: 0.211
data_MOF--net-why--node1-PAMTOO_clean_sbu_0--edge1-KIFKEQ_clean_linker_1
_symmetry_space_group_name_H-M    P1
_symmetry_Int_Tables_number       1
_symmetry_cell_setting            triclinic
loop_
_symmetry_equiv_pos_as_xyz
'x, y, z'
_cell_length_a     46.98048
_cell_length_b     46.63433
_cell_length_c     41.059618
_cell_angle_alpha  89.701377
_cell_angle_beta   90.138463
_cell_angle_gamma 90.162152
loop_
_atom_site_label
_atom_site_type_symbol
_atom_site_fract_x
_atom_site_fract_y
_atom_site_fract_z
_atom_type_partial_charge
Dy0 Dy 0.47877 0.26929 0.0854 0.0
Dy1 Dy 0.51824 0.23091 0.03917 0.0
C2 C 0.50013 0.20806 0.11034 0.0
O3 O 0.52068 0.29284 0.09045 0.0
O4 O 0.54929 0.26448 0.05844 0.0
O5 O 0.44977 0.26873 0.1258 0.0
O6 O 0.45891 0.3088 0.10094 0.0
O7 O 0.51715 0.27233 0.01244 0.0
O8 O 0.47821 0.29234 0.03738 0.0
O9 O 0.47686 0.2336 0.01123 0.0
O10 O 0.44755 0.24464 0.05361 0.0
O11 O 0.52206 0.20103 -0.0004 0.0
O12 O 0.55869 0.21054 0.0299 0.0
C13 C 0.54543 0.2876 0.07653 0.0
O14 O 0.49713 0.23506 0.11847 0.0
O15 O 0.50324 0.20157 0.07954 0.0
C16 C 0.41188 0.30073 0.11872 0.0
C17 C 0.35247 0.30774 0.12006 0.0
C18 C 0.36446 0.28436 0.10371 0.0
C19 C 0.39398 0.28096 0.10289 0.0
C20 C 0.40009 0.32487 0.13343 0.0
C21 C 0.37064 0.32841 0.13406 0.0
C22 C 0.44255 0.29546 0.12166 0.0
C23 C 0.49732 0.29201 0.01401 0.0
C24 C 0.45107 0.23746 0.02283 0.0
C25 C 0.56601 0.2032 0.97353 0.0
C26 C 0.59177 0.21432 0.91288 0.0
C27 C 0.59268 0.23493 0.93781 0.0
C28 C 0.57971 0.22951 0.96778 0.0
C29 C 0.56563 0.18234 0.94912 0.0
C30 C 0.57832 0.18785 0.91903 0.0
C31 C 0.54945 0.19839 0.00329 0.0
H32 H 0.35099 0.26817 0.09269 0.0
H33 H 0.40274 0.26226 0.0911 0.0
H34 H 0.41359 0.34036 0.14563 0.0
H35 H 0.36208 0.34642 0.14736 0.0
H36 H 0.60326 0.25534 0.93415 0.0
H37 H 0.5799 0.24609 0.98617 0.0
H38 H 0.55474 0.1621 0.95301 0.0
H39 H 0.57683 0.17166 0.90028 0.0
Dy40 Dy 0.71888 0.72677 0.34023 0.0
Dy41 Dy 0.7575 0.76573 0.29347 0.0
C42 C 0.78052 0.74724 0.36402 0.0
O43 O 0.69539 0.76878 0.34196 0.0
O44 O 0.72552 0.79818 0.31306 0.0
O45 O 0.67853 0.71287 0.35961 0.0
O46 O 0.71774 0.69489 0.37857 0.0
O47 O 0.71613 0.76434 0.26705 0.0
O48 O 0.69656 0.72465 0.29203 0.0
O49 O 0.75597 0.72332 0.26702 0.0
O50 O 0.74037 0.69372 0.30811 0.0
O51 O 0.78505 0.77031 0.25192 0.0
O52 O 0.78026 0.80552 0.28568 0.0
C53 C 0.70156 0.79407 0.32941 0.0
O54 O 0.75364 0.74525 0.37237 0.0
O55 O 0.78681 0.74958 0.33307 0.0
C56 C 0.6816 0.70666 0.4157 0.0
C57 C 0.66112 0.72686 0.4756 0.0
C58 C 0.64709 0.7044 0.4592 0.0
C59 C 0.65723 0.69444 0.42947 0.0
C60 C 0.69578 0.72902 0.43196 0.0
C61 C 0.68574 0.7389 0.46186 0.0
C62 C 0.69043 0.69819 0.38297 0.0
C63 C 0.69684 0.74394 0.26852 0.0
C64 C 0.75005 0.69741 0.27815 0.0
C65 C 0.78597 0.81636 0.22987 0.0
C66 C 0.77606 0.84721 0.17207 0.0
C67 C 0.75431 0.84406 0.19527 0.0
C68 C 0.75917 0.82855 0.22391 0.0
C69 C 0.80791 0.82015 0.20724 0.0
C70 C 0.803 0.83543 0.17848 0.0
C71 C 0.79041 0.7972 0.25772 0.0
H72 H 0.62842 0.69423 0.46959 0.0
H73 H 0.64588 0.67743 0.41705 0.0
H74 H 0.71438 0.73909 0.42133 0.0
H75 H 0.69696 0.75614 0.474 0.0
H76 H 0.73328 0.85271 0.19074 0.0
H77 H 0.74184 0.82539 0.24094 0.0
H78 H 0.82862 0.81061 0.21141 0.0
H79 H 0.82017 0.83781 0.1611 0.0
Dy80 Dy 0.26409 0.97183 0.59192 0.0
Dy81 Dy 0.22486 1.00875 0.54384 0.0
C82 C 0.24498 1.03541 0.6116 0.0
O83 O 0.22171 0.94825 0.59393 0.0
O84 O 0.19409 0.9733 0.55744 0.0
O85 O 0.26416 0.95597 0.64122 0.0
O86 O 0.30158 0.95075 0.61091 0.0
O87 O 0.23344 0.96955 0.51488 0.0
O88 O 0.26098 0.94194 0.54973 0.0
O89 O 0.26952 1.01228 0.52165 0.0
O90 O 0.29709 0.98381 0.55503 0.0
O91 O 0.2225 1.04498 0.51084 0.0
O92 O 0.18434 1.02165 0.5239 0.0
C93 C 0.19777 0.95137 0.57739 0.0
O94 O 0.26637 1.01766 0.60931 0.0
O95 O 0.22319 1.03198 0.59205 0.0
C96 C 0.30892 0.96494 0.66563 0.0
C97 C 0.3426 0.9933 0.71254 0.0
C98 C 0.3128 0.99418 0.71447 0.0
C99 C 0.29611 0.9802 0.69122 0.0
C100 C 0.33871 0.96456 0.66341 0.0
C101 C 0.35536 0.97867 0.68652 0.0
C102 C 0.29143 0.95059 0.64051 0.0
C103 C 0.24785 0.9461 0.52171 0.0
C104 C 0.29414 0.99977 0.52873 0.0
C105 C 0.18729 1.03885 0.47052 0.0
C106 C 0.16687 1.03089 0.40668 0.0
C107 C 0.18882 1.01349 0.41908 0.0
C108 C 0.19892 1.01742 0.45079 0.0
C109 C 0.16603 1.05678 0.45803 0.0
C110 C 0.15591 1.05288 0.42633 0.0
C111 C 0.19551 1.04102 0.50487 0.0
H112 H 0.30243 1.00513 0.73437 0.0
H113 H 0.27318 0.98117 0.69357 0.0
H114 H 0.34918 0.95306 0.64398 0.0
H115 H 0.3783 0.97698 0.68484 0.0
H116 H 0.19792 0.99658 0.40446 0.0
H117 H 0.21532 1.00331 0.46017 0.0
H118 H 0.15668 1.07325 0.4731 0.0
H119 H 0.13871 1.06638 0.41772 0.0
Dy120 Dy 1.02129 0.51282 0.84043 0.0
Dy121 Dy 0.98156 0.47486 0.79342 0.0
C122 C 0.95947 0.49282 0.86478 0.0
O123 O 1.04292 0.4698 0.8442 0.0
O124 O 1.01512 0.44268 0.80993 0.0
O125 O 1.06218 0.52618 0.85878 0.0
O126 O 1.02357 0.54467 0.87835 0.0
O127 O 1.02205 0.47706 0.76566 0.0
O128 O 1.04353 0.51475 0.79224 0.0
O129 O 0.98294 0.51744 0.76729 0.0
O130 O 0.99993 0.54631 0.80812 0.0
O131 O 0.95247 0.47132 0.75306 0.0
O132 O 0.95951 0.43483 0.78497 0.0
C133 C 1.03782 0.44563 0.82877 0.0
O134 O 0.98633 0.49553 0.87309 0.0
O135 O 0.9529 0.48982 0.83396 0.0
C136 C 1.06093 0.53386 0.91468 0.0
C137 C 1.08321 0.51632 0.97514 0.0
C138 C 1.09646 0.53831 0.95701 0.0
C139 C 1.08541 0.54697 0.92702 0.0
C140 C 1.04755 0.51187 0.93257 0.0
C141 C 1.0585 0.50331 0.96278 0.0
C142 C 1.051 0.54139 0.88193 0.0
C143 C 1.04212 0.4966 0.76784 0.0
C144 C 0.98961 0.54307 0.77834 0.0
C145 C 0.95341 0.42646 0.7288 0.0
C146 C 0.96458 0.39976 0.66909 0.0
C147 C 0.98632 0.40282 0.69239 0.0
C148 C 0.98081 0.41625 0.72198 0.0
C149 C 0.93151 0.42278 0.706 0.0
C150 C 0.93705 0.40953 0.67629 0.0
C151 C 0.94841 0.44397 0.75764 0.0
H152 H 1.11517 0.54922 0.96628 0.0
H153 H 1.09612 0.56373 0.91334 0.0
H154 H 1.02884 0.50116 0.92304 0.0
H155 H 1.04786 0.4864 0.97628 0.0
H156 H 1.00778 0.39573 0.68728 0.0
H157 H 0.99811 0.41944 0.7391 0.0
H158 H 0.91035 0.43089 0.71081 0.0
H159 H 0.9199 0.40717 0.65883 0.0
Dy160 Dy 0.72215 1.01626 0.9348 0.0
Dy161 Dy 0.76339 0.97633 0.89094 0.0
C162 C 0.74359 0.9563 0.96374 0.0
O163 O 0.76558 1.01783 0.96031 0.0
O164 O 0.79562 0.99785 0.92272 0.0
O165 O 0.71935 1.05284 0.9667 0.0
O166 O 0.68101 1.03163 0.95012 0.0
O167 O 0.76535 1.01995 0.86641 0.0
O168 O 0.72438 1.03896 0.88614 0.0
O169 O 0.71992 0.95595 0.88376 0.0
O170 O 0.6922 0.98021 0.92057 0.0
O171 O 0.77807 0.96467 0.84293 0.0
O172 O 0.79328 0.94182 0.88554 0.0
C173 C 0.79144 1.01011 0.95104 0.0
O174 O 0.72598 0.97791 0.96631 0.0
O175 O 0.76028 0.9527 0.93842 0.0
C176 C 0.68114 1.04888 0.00353 0.0
C177 C 0.6569 1.04231 0.06578 0.0
C178 C 0.68109 1.02644 0.05706 0.0
C179 C 0.69304 1.0296 0.0261 0.0
C180 C 0.65757 1.06536 0.01244 0.0
C181 C 0.64552 1.06211 0.04332 0.0
C182 C 0.69185 1.05038 0.97002 0.0
C183 C 0.74552 1.03976 0.86531 0.0
C184 C 0.69589 0.9588 0.90009 0.0
C185 C 0.82628 0.95116 0.84489 0.0
C186 C 0.88435 0.95827 0.8306 0.0
C187 C 0.87055 0.93189 0.82491 0.0
C188 C 0.84178 0.92837 0.83207 0.0
C189 C 0.83984 0.97753 0.85082 0.0
C190 C 0.86869 0.98112 0.84353 0.0
C191 C 0.7967 0.94659 0.85458 0.0
H192 H 0.69009 1.01078 0.07369 0.0
H193 H 0.71111 1.01649 0.01949 0.0
H194 H 0.64809 1.08025 0.99525 0.0
H195 H 0.62704 1.07479 0.04949 0.0
H196 H 0.88185 0.91407 0.81419 0.0
H197 H 0.83165 0.90784 0.8277 0.0
H198 H 0.82814 0.99522 0.86126 0.0
H199 H 0.87874 1.00166 0.84806 0.0
Dy200 Dy 0.48472 0.47988 0.68233 0.0
Dy201 Dy 0.52317 0.51877 0.63462 0.0
C202 C 0.5453 0.50266 0.70724 0.0
O203 O 0.48299 0.52238 0.70839 0.0
O204 O 0.50423 0.55089 0.66964 0.0
O205 O 0.45606 0.47386 0.7226 0.0
O206 O 0.46412 0.4388 0.68944 0.0
O207 O 0.48821 0.50117 0.60236 0.0
O208 O 0.45542 0.49457 0.64191 0.0
O209 O 0.54647 0.47678 0.63015 0.0
O210 O 0.5202 0.44956 0.66623 0.0
O211 O 0.52104 0.55335 0.59972 0.0
O212 O 0.56177 0.53396 0.6118 0.0
C213 C 0.49181 0.54773 0.69823 0.0
O214 O 0.52463 0.48394 0.71097 0.0
O215 O 0.54712 0.51975 0.68174 0.0
C216 C 0.45738 0.42806 0.74514 0.0
C217 C 0.46728 0.39891 0.80409 0.0
C218 C 0.48986 0.40442 0.78252 0.0
C219 C 0.48497 0.41906 0.75331 0.0
C220 C 0.4347 0.42191 0.76611 0.0
C221 C 0.4396 0.40745 0.79542 0.0
C222 C 0.45257 0.44665 0.71688 0.0
C223 C 0.46153 0.49797 0.61101 0.0
C224 C 0.54246 0.4528 0.64671 0.0
C225 C 0.55958 0.58453 0.6066 0.0
C226 C 0.57776 0.64029 0.62246 0.0
C227 C 0.56038 0.6355 0.59507 0.0
C228 C 0.55148 0.60787 0.58717 0.0
C229 C 0.57605 0.58932 0.63475 0.0
C230 C 0.58535 0.61699 0.64241 0.0
C231 C 0.54869 0.55583 0.59861 0.0
H232 H 0.51143 0.39831 0.78877 0.0
H233 H 0.50281 0.42411 0.73758 0.0
H234 H 0.41334 0.42901 0.76025 0.0
H235 H 0.42179 0.40319 0.81147 0.0
H236 H 0.55477 0.65297 0.5788 0.0
H237 H 0.53841 0.60468 0.5657 0.0
H238 H 0.58198 0.57172 0.65067 0.0
H239 H 0.59895 0.62013 0.66344 0.0
Dy240 Dy 1.01944 0.23705 0.43254 0.0
Dy241 Dy 0.97761 0.27564 0.38749 0.0
C242 C 0.99805 0.29803 0.45862 0.0
O243 O 0.97763 0.23991 0.46017 0.0
O244 O 0.94718 0.24945 0.41806 0.0
O245 O 1.02324 0.20313 0.46836 0.0
O246 O 1.06103 0.22228 0.4474 0.0
O247 O 0.98801 0.23825 0.35471 0.0
O248 O 1.00766 0.20717 0.39155 0.0
O249 O 1.01784 0.30206 0.3907 0.0
O250 O 1.05004 0.26847 0.40803 0.0
O251 O 0.93693 0.29483 0.37693 0.0
O252 O 0.97212 0.30036 0.34332 0.0
C253 C 0.95145 0.24289 0.44893 0.0
O254 O 1.01669 0.27722 0.46108 0.0
O255 O 0.97995 0.30008 0.43422 0.0
C256 C 1.06233 0.20965 0.50325 0.0
C257 C 1.08196 0.21732 0.56763 0.0
C258 C 1.08283 0.24011 0.54503 0.0
C259 C 1.07292 0.23638 0.51325 0.0
C260 C 1.06142 0.18686 0.5256 0.0
C261 C 1.07106 0.19066 0.55752 0.0
C262 C 1.0508 0.20569 0.47023 0.0
C263 C 0.99746 0.21254 0.36231 0.0
C264 C 1.04422 0.29467 0.39748 0.0
C265 C 0.94281 0.34009 0.35216 0.0
C266 C 0.93548 0.39993 0.35166 0.0
C267 C 0.93521 0.38427 0.3224 0.0
C268 C 0.93883 0.35463 0.32269 0.0
C269 C 0.94391 0.35562 0.38143 0.0
C270 C 0.94002 0.38534 0.3812 0.0
C271 C 0.94683 0.30892 0.35187 0.0
H272 H 1.09149 0.26081 0.5517 0.0
H273 H 1.07351 0.25443 0.49654 0.0
H274 H 1.05294 0.16619 0.51844 0.0
H275 H 1.06963 0.17276 0.57436 0.0
H276 H 0.93107 0.39476 0.29928 0.0
H277 H 0.93818 0.34302 0.2999 0.0
H278 H 0.94746 0.34477 0.40446 0.0
H279 H 0.94023 0.39685 0.40405 0.0
Dy280 Dy 0.25879 0.77385 0.1833 0.0
Dy281 Dy 0.22345 0.73126 0.13758 0.0
C282 C 0.19941 0.74711 0.20863 0.0
O283 O 0.25769 0.73297 0.21319 0.0
O284 O 0.24777 0.70185 0.17189 0.0
O285 O 0.29471 0.78044 0.21523 0.0
O286 O 0.26895 0.8165 0.20025 0.0
O287 O 0.25631 0.75155 0.10444 0.0
O288 O 0.2891 0.76027 0.14354 0.0
O289 O 0.19633 0.77117 0.13529 0.0
O290 O 0.22758 0.80368 0.15742 0.0
O291 O 0.22735 0.69595 0.10419 0.0
O292 O 0.18584 0.71399 0.1145 0.0
C293 C 0.25486 0.70653 0.2025 0.0
O294 O 0.2185 0.76767 0.21117 0.0
O295 O 0.19951 0.72869 0.18448 0.0
C296 C 0.28604 0.816 0.25389 0.0
C297 C 0.27912 0.83375 0.31876 0.0
C298 C 0.26338 0.81044 0.30659 0.0
C299 C 0.26677 0.80168 0.27439 0.0
C300 C 0.30211 0.83893 0.26594 0.0
C301 C 0.29869 0.84777 0.29815 0.0
C302 C 0.28885 0.80738 0.21982 0.0
C303 C 0.28297 0.75594 0.11277 0.0
C304 C 0.20253 0.7976 0.14422 0.0
C305 C 0.1895 0.66352 0.10968 0.0
C306 C 0.17039 0.60746 0.12312 0.0
C307 C 0.18931 0.6128 0.09728 0.0
C308 C 0.19867 0.64058 0.09057 0.0
C309 C 0.17166 0.65814 0.13652 0.0
C310 C 0.16196 0.63033 0.14299 0.0
C311 C 0.19986 0.69257 0.10208 0.0
H312 H 0.24836 0.79902 0.32191 0.0
H313 H 0.25421 0.78386 0.26541 0.0
H314 H 0.31698 0.85023 0.25031 0.0
H315 H 0.31079 0.86608 0.30662 0.0
H316 H 0.19569 0.59572 0.08109 0.0
H317 H 0.21273 0.64424 0.07007 0.0
H318 H 0.1648 0.67544 0.15213 0.0
H319 H 0.14727 0.62678 0.16291 0.0
Dy320 Dy 0.97778 0.77507 0.59066 0.0
Dy321 Dy 1.01578 0.73498 0.54274 0.0
C322 C 0.99387 0.70994 0.61263 0.0
O323 O 1.02191 0.79449 0.59387 0.0
O324 O 1.04764 0.76976 0.55575 0.0
O325 O 0.94661 0.80739 0.60278 0.0
O326 O 0.97127 0.7865 0.64076 0.0
O327 O 1.01186 0.77499 0.51364 0.0
O328 O 0.98116 0.80153 0.54536 0.0
O329 O 0.9709 0.73329 0.52143 0.0
O330 O 0.94325 0.75805 0.55802 0.0
O331 O 1.01649 0.70377 0.50399 0.0
O332 O 1.05541 0.71511 0.5291 0.0
C333 C 1.04522 0.79112 0.57653 0.0
O334 O 0.97587 0.73136 0.61452 0.0
O335 O 1.013 0.70926 0.58937 0.0
C336 C 0.96249 0.83577 0.64652 0.0
C337 C 0.97718 0.88824 0.67575 0.0
C338 C 0.94852 0.88146 0.66892 0.0
C339 C 0.94128 0.85546 0.65443 0.0
C340 C 0.99123 0.84291 0.65194 0.0
C341 C 0.99851 0.86892 0.66655 0.0
C342 C 0.95441 0.80772 0.63325 0.0
C343 C 0.99613 0.79775 0.51871 0.0
C344 C 0.94601 0.7438 0.53056 0.0
C345 C 1.05819 0.70615 0.47281 0.0
C346 C 1.08403 0.71435 0.41156 0.0
C347 C 1.0809 0.73745 0.43319 0.0
C348 C 1.06796 0.73342 0.46344 0.0
C349 C 1.06112 0.68307 0.45141 0.0
C350 C 1.07389 0.68712 0.42101 0.0
C351 C 1.04413 0.70183 0.50435 0.0
H352 H 0.93147 0.89556 0.67632 0.0
H353 H 0.91905 0.85037 0.6503 0.0
H354 H 1.00802 0.82807 0.64575 0.0
H355 H 1.02071 0.87355 0.67146 0.0
H356 H 1.0888 0.75861 0.42697 0.0
H357 H 1.06564 0.75159 0.47956 0.0
H358 H 1.05337 0.66196 0.45814 0.0
H359 H 1.07552 0.66897 0.40479 0.0
Dy360 Dy 0.21792 0.22983 0.84319 0.0
Dy361 Dy 0.25572 0.26648 0.79395 0.0
C362 C 0.28231 0.24583 0.86165 0.0
O363 O 0.20002 0.27483 0.84828 0.0
O364 O 0.21842 0.29628 0.80264 0.0
O365 O 0.2036 0.229 0.89307 0.0
O366 O 0.1946 0.19311 0.86121 0.0
O367 O 0.21649 0.25788 0.76487 0.0
O368 O 0.18708 0.23503 0.80209 0.0
O369 O 0.26302 0.22029 0.77811 0.0
O370 O 0.22617 0.19739 0.80406 0.0
O371 O 0.28558 0.26763 0.75409 0.0
O372 O 0.27524 0.30659 0.77988 0.0
C373 C 0.19999 0.29602 0.82683 0.0
O374 O 0.26347 0.22514 0.86018 0.0
O375 O 0.27966 0.26771 0.84175 0.0
C376 C 0.20985 0.1831 0.91497 0.0
C377 C 0.23849 0.14904 0.96127 0.0
C378 C 0.24413 0.14574 0.92796 0.0
C379 C 0.23014 0.16285 0.90499 0.0
C380 C 0.20468 0.18684 0.94823 0.0
C381 C 0.21894 0.17002 0.97121 0.0
C382 C 0.19594 0.20217 0.8912 0.0
C383 C 0.19208 0.24589 0.77297 0.0
C384 C 0.24599 0.19783 0.78146 0.0
C385 C 0.28232 0.30975 0.72331 0.0
C386 C 0.27186 0.33498 0.66222 0.0
C387 C 0.24954 0.3311 0.68454 0.0
C388 C 0.2547 0.3184 0.7148 0.0
C389 C 0.30463 0.31349 0.70112 0.0
C390 C 0.29943 0.32597 0.6707 0.0
C391 C 0.28766 0.29546 0.75455 0.0
H392 H 0.25898 0.12961 0.91973 0.0
H393 H 0.2351 0.1601 0.87944 0.0
H394 H 0.18952 0.2027 0.95643 0.0
H395 H 0.21374 0.17259 -0.00328 0.0
H396 H 0.22804 0.33757 0.67843 0.0
H397 H 0.23711 0.3152 0.73148 0.0
H398 H 0.326 0.30664 0.70728 0.0
H399 H 0.31701 0.32894 0.65398 0.0
Dy400 Dy 0.76284 0.46595 0.09336 0.0
Dy401 Dy 0.72712 0.50551 0.04387 0.0
C402 C 0.74534 0.53043 0.11418 0.0
O403 O 0.71775 0.44869 0.09813 0.0
O404 O 0.69719 0.46791 0.05236 0.0
O405 O 0.7622 0.44046 0.13738 0.0
O406 O 0.80219 0.44964 0.11346 0.0
O407 O 0.73576 0.46671 0.0142 0.0
O408 O 0.75873 0.43657 0.05068 0.0
O409 O 0.773 0.51203 0.02764 0.0
O410 O 0.79544 0.47519 0.05454 0.0
O411 O 0.72664 0.53697 0.00508 0.0
O412 O 0.68735 0.52446 0.02873 0.0
C413 C 0.69694 0.4491 0.07648 0.0
O414 O 0.76449 0.5101 0.11553 0.0
O415 O 0.72583 0.52993 0.09128 0.0
C416 C 0.8012 0.45417 0.17052 0.0
C417 C 0.8236 0.48168 0.22598 0.0
C418 C 0.79405 0.47914 0.22181 0.0
C419 C 0.78293 0.46567 0.19424 0.0
C420 C 0.83071 0.45694 0.17463 0.0
C421 C 0.8418 0.47067 0.20199 0.0
C422 C 0.78983 0.44139 0.14031 0.0
C423 C 0.7479 0.44213 0.02168 0.0
C424 C 0.79537 0.49522 0.03182 0.0
C425 C 0.68567 0.53497 0.97257 0.0
C426 C 0.6613 0.5286 0.91031 0.0
C427 C 0.67151 0.55546 0.92065 0.0
C428 C 0.68353 0.5586 0.95156 0.0
C429 C 0.67592 0.50803 0.96231 0.0
C430 C 0.66369 0.5049 0.93152 0.0
C431 C 0.69898 0.5385 0.00462 0.0
H432 H 0.7796 0.48724 0.2401 0.0
H433 H 0.76002 0.46429 0.19162 0.0
H434 H 0.84525 0.44847 0.15666 0.0
H435 H 0.8647 0.47167 0.20498 0.0
H436 H 0.67045 0.57404 0.90476 0.0
H437 H 0.69131 0.57947 0.95901 0.0
H438 H 0.67769 0.48944 0.97814 0.0
H439 H 0.65571 0.484 0.92457 0.0
Dy440 Dy 0.52307 1.01486 0.34192 0.0
Dy441 Dy 0.48634 0.97441 0.29545 0.0
C442 C 0.46044 0.99422 0.36429 0.0
O443 O 0.5513 0.97609 0.33773 0.0
O444 O 0.51802 0.94385 0.31986 0.0
O445 O 0.55196 1.02004 0.3824 0.0
O446 O 0.53204 1.05724 0.3604 0.0
O447 O 0.5257 0.98121 0.26624 0.0
O448 O 0.5496 1.01532 0.29657 0.0
O449 O 0.48791 1.01611 0.26708 0.0
O450 O 0.50091 1.04636 0.30828 0.0
O451 O 0.45312 0.96887 0.25958 0.0
O452 O 0.47279 0.93179 0.28198 0.0
C453 C 0.54412 0.94963 0.33027 0.0
O454 O 0.48686 0.9986 0.37342 0.0
O455 O 0.45504 0.98882 0.33362 0.0
C456 C 0.5345 1.05599 0.41752 0.0
C457 C 0.51156 1.07381 0.47739 0.0
C458 C 0.5146 1.0445 0.47072 0.0
C459 C 0.52575 1.03564 0.44093 0.0
C460 C 0.53088 1.08523 0.42395 0.0
C461 C 0.51941 1.09406 0.45354 0.0
C462 C 0.54564 1.04709 0.38561 0.0
C463 C 0.54695 0.99933 0.27031 0.0
C464 C 0.4927 1.04225 0.27791 0.0
C465 C 0.46011 0.92893 0.22636 0.0
C466 C 0.46782 0.90861 0.16251 0.0
C467 C 0.4907 0.90905 0.18469 0.0
C468 C 0.48694 0.91931 0.21624 0.0
C469 C 0.43723 0.92846 0.20445 0.0
C470 C 0.44103 0.91848 0.17277 0.0
C471 C 0.4561 0.94116 0.25887 0.0
H472 H 0.50887 1.02852 0.48881 0.0
H473 H 0.52772 1.01287 0.43641 0.0
H474 H 0.53715 1.10127 0.40615 0.0
H475 H 0.51788 1.11683 0.45833 0.0
H476 H 0.5115 0.9012 0.17784 0.0
H477 H 0.50504 0.91985 0.23264 0.0
H478 H 0.41648 0.93621 0.21173 0.0
H479 H 0.42307 0.9189 0.1562 0.0
Dy480 Dy 0.2259 0.51135 0.43346 0.0
Dy481 Dy 0.26356 0.47178 0.38525 0.0
C482 C 0.24536 0.44845 0.45684 0.0
O483 O 0.27103 0.51398 0.45397 0.0
O484 O 0.29814 0.48718 0.41869 0.0
O485 O 0.22479 0.54113 0.47358 0.0
O486 O 0.1865 0.53222 0.446 0.0
O487 O 0.26754 0.51664 0.36446 0.0
O488 O 0.22796 0.53657 0.3865 0.0
O489 O 0.21881 0.45409 0.37984 0.0
O490 O 0.19484 0.47554 0.42172 0.0
O491 O 0.2916 0.43687 0.37227 0.0
O492 O 0.27327 0.46415 0.3349 0.0
C493 C 0.29565 0.50241 0.44548 0.0
O494 O 0.22921 0.47092 0.46173 0.0
O495 O 0.26096 0.44513 0.43058 0.0
C496 C 0.18197 0.53874 0.50253 0.0
C497 C 0.15445 0.52831 0.56224 0.0
C498 C 0.15883 0.50585 0.54012 0.0
C499 C 0.17261 0.511 0.51057 0.0
C500 C 0.1777 0.5612 0.52449 0.0
C501 C 0.16408 0.55603 0.55419 0.0
C502 C 0.19726 0.54406 0.47198 0.0
C503 C 0.24863 0.53732 0.36508 0.0
C504 C 0.19643 0.45564 0.39907 0.0
C505 C 0.27706 0.41512 0.3233 0.0
C506 C 0.2596 0.36953 0.28328 0.0
C507 C 0.28825 0.37225 0.29309 0.0
C508 C 0.29688 0.39488 0.31289 0.0
C509 C 0.24816 0.4116 0.3152 0.0
C510 C 0.2395 0.38903 0.29523 0.0
C511 C 0.28687 0.44044 0.34125 0.0
H512 H 0.15196 0.48422 0.54587 0.0
H513 H 0.17612 0.49329 0.49409 0.0
H514 H 0.185 0.58269 0.51872 0.0
H515 H 0.16079 0.57376 0.57069 0.0
H516 H 0.3044 0.35791 0.28384 0.0
H517 H 0.31922 0.3972 0.31904 0.0
H518 H 0.23243 0.42691 0.32326 0.0
H519 H 0.21733 0.38742 0.28816 0.0
Dy520 Dy 0.98664 0.97769 0.18106 0.0
Dy521 Dy 1.0252 1.01903 0.13516 0.0
C522 C 1.04796 0.99886 0.20673 0.0
O523 O 0.98876 1.02013 0.20782 0.0
O524 O 1.0018 1.05073 0.1666 0.0
O525 O 0.95417 0.97397 0.218 0.0
O526 O 0.97015 0.93598 0.19428 0.0
O527 O 0.98622 1.01151 0.10374 0.0
O528 O 0.95653 0.98969 0.14032 0.0
O529 O 1.05023 0.97777 0.13684 0.0
O530 O 1.01823 0.94615 0.15911 0.0
O531 O 1.04646 1.05897 0.12426 0.0
O532 O 1.04813 1.02378 0.08994 0.0
C533 C 0.99341 1.04639 0.19685 0.0
O534 O 1.02619 0.98142 0.21059 0.0
O535 O 1.05076 1.01564 0.18107 0.0
C536 C 0.95919 0.93278 0.25025 0.0
C537 C 0.96748 0.91011 0.31326 0.0
C538 C 0.98992 0.91057 0.29063 0.0
C539 C 0.98588 0.92199 0.2595 0.0
C540 C 0.93674 0.93236 0.27261 0.0
C541 C 0.94083 0.92121 0.30389 0.0
C542 C 0.95499 0.94609 0.21815 0.0
C543 C 0.96092 1.0015 0.11165 0.0
C544 C 1.0434 0.95156 0.14604 0.0
C545 C 1.09058 1.04926 0.09894 0.0
C546 C 0.15052 1.04957 0.09839 0.0
C547 C 0.13505 1.04176 0.07042 0.0
C548 C 1.10537 1.04174 0.07068 0.0
C549 C 1.10602 1.05605 0.12734 0.0
C550 C 0.13575 1.05643 0.12695 0.0
C551 C 1.05925 1.04815 0.09898 0.0
H552 H 1.01059 0.90182 0.2968 0.0
H553 H 1.00365 0.92247 0.24272 0.0
H554 H 0.91612 0.94101 0.26599 0.0
H555 H 0.92322 0.92165 0.32084 0.0
H556 H 0.14588 1.03701 0.04783 0.0
H557 H 1.09393 1.0361 0.04866 0.0
H558 H 1.09519 1.06137 0.14975 0.0
H559 H 0.1472 1.06272 0.14872 0.0
Dy560 Dy 0.51643 0.73983 0.93062 0.0
Dy561 Dy 0.47714 0.77907 0.88357 0.0
C562 C 0.49591 0.80199 0.95497 0.0
O563 O 0.47195 0.73735 0.95323 0.0
O564 O 0.44374 0.76387 0.91847 0.0
O565 O 0.51788 0.70694 0.96795 0.0
O566 O 0.55665 0.72131 0.94471 0.0
O567 O 0.47482 0.73488 0.86112 0.0
O568 O 0.51516 0.71593 0.88286 0.0
O569 O 0.52025 0.80113 0.88196 0.0
O570 O 0.54772 0.77517 0.91775 0.0
O571 O 0.44053 0.80386 0.86932 0.0
O572 O 0.47529 0.7977 0.83535 0.0
C573 C 0.44703 0.74884 0.94543 0.0
O574 O 0.51204 0.77942 0.95992 0.0
O575 O 0.48057 0.8057 0.92845 0.0
C576 C 0.55872 0.71077 0.00062 0.0
C577 C 0.58413 0.71891 0.06199 0.0
C578 C 0.57799 0.74254 0.04182 0.0
C579 C 0.56526 0.73852 0.01145 0.0
C580 C 0.56444 0.68716 0.02079 0.0
C581 C 0.577 0.69119 0.05135 0.0
C582 C 0.54559 0.70653 0.96856 0.0
C583 C 0.49446 0.71491 0.86139 0.0
C584 C 0.54424 0.79744 0.89821 0.0
C585 C 0.45447 0.84321 0.83732 0.0
C586 C 0.45722 0.90294 0.82825 0.0
C587 C 0.44949 0.88474 0.80237 0.0
C588 C 0.44811 0.85513 0.80691 0.0
C589 C 0.46325 0.8611 0.86295 0.0
C590 C 0.46438 0.89082 0.85852 0.0
C591 C 0.45232 0.81214 0.84212 0.0
H592 H 0.58292 0.76416 0.0496 0.0
H593 H 0.56066 0.75706 -0.00367 0.0
H594 H 0.55934 0.66563 0.01284 0.0
H595 H 0.58169 0.67261 0.06634 0.0
H596 H 0.44324 0.89346 0.77893 0.0
H597 H 0.44155 0.84159 0.78687 0.0
H598 H 0.46872 0.85214 0.88653 0.0
H599 H 0.47034 0.90432 0.87882 0.0
Dy600 Dy 0.76127 0.27272 0.6823 0.0
Dy601 Dy 0.71989 0.23721 0.63414 0.0
C602 C 0.69918 0.25269 0.70718 0.0
O603 O 0.76665 0.22641 0.69924 0.0
O604 O 0.72823 0.20523 0.67437 0.0
O605 O 0.79612 0.27325 0.71659 0.0
O606 O 0.7776 0.31316 0.70007 0.0
O607 O 0.76298 0.23472 0.6099 0.0
O608 O 0.78449 0.27295 0.63408 0.0
O609 O 0.70601 0.28336 0.6273 0.0
O610 O 0.72384 0.30287 0.67401 0.0
O611 O 0.70351 0.19772 0.61425 0.0
O612 O 0.69037 0.23845 0.5938 0.0
C613 C 0.74873 0.20463 0.6963 0.0
O614 O 0.72436 0.26328 0.71426 0.0
O615 O 0.69241 0.24314 0.67805 0.0
C616 C 0.79118 0.30996 0.75497 0.0
C617 C 0.78264 0.32938 0.81904 0.0
C618 C 0.76645 0.30646 0.80669 0.0
C619 C 0.77064 0.29689 0.77493 0.0
C620 C 0.80774 0.33245 0.76726 0.0
C621 C 0.80354 0.3421 0.79907 0.0
C622 C 0.7945 0.30083 0.72106 0.0
C623 C 0.78411 0.25322 0.6113 0.0
C624 C 0.70573 0.30374 0.6494 0.0
C625 C 0.65572 0.20262 0.59804 0.0
C626 C 0.59793 0.18734 0.60281 0.0
C627 C 0.61059 0.19237 0.57222 0.0
C628 C 0.63921 0.19996 0.5699 0.0
C629 C 0.64318 0.19829 0.62873 0.0
C630 C 0.61448 0.19052 0.6311 0.0
C631 C 0.68567 0.21096 0.5951 0.0
H632 H 0.75042 0.29599 0.82153 0.0
H633 H 0.75764 0.27945 0.76585 0.0
H634 H 0.82357 0.34286 0.75207 0.0
H635 H 0.81607 0.36006 0.80767 0.0
H636 H 0.59866 0.18941 0.54988 0.0
H637 H 0.64854 0.20345 0.54608 0.0
H638 H 0.65563 0.20065 0.65079 0.0
H639 H 0.60534 0.18672 0.65493 0.0
H640 H 0.59013 0.29739 0.03428 0.0
H641 H 0.5539 0.3298 0.12308 0.0
H642 H 0.62545 0.33618 0.03473 0.0
H643 H 0.58978 0.3682 0.12397 0.0
H644 H 0.67925 0.41577 0.12896 0.0
H645 H 0.64359 0.37714 0.13008 0.0
H646 H 0.62718 0.39054 0.02783 0.0
H647 H 0.66222 0.42957 0.02688 0.0
C648 C 0.58989 0.31246 0.05427 0.0
C649 C 0.56898 0.30996 0.07879 0.0
C650 C 0.61012 0.33502 0.05435 0.0
C651 C 0.61075 0.35572 0.07934 0.0
C652 C 0.59031 0.35279 0.10434 0.0
C653 C 0.56961 0.33063 0.10383 0.0
C654 C 0.66787 0.41075 0.10673 0.0
C655 C 0.67375 0.42631 0.0779 0.0
C656 C 0.64727 0.38847 0.10738 0.0
C657 C 0.63227 0.38029 0.07902 0.0
C658 C 0.63825 0.39582 0.05019 0.0
C659 C 0.65831 0.41853 0.04972 0.0
H660 H 0.6472 0.79106 0.35471 0.0
H661 H 0.70446 0.85104 0.30848 0.0
H662 H 0.60999 0.8274 0.35535 0.0
H663 H 0.66706 0.88761 0.30917 0.0
H664 H 0.60167 0.95569 0.34213 0.0
H665 H 0.63904 0.9195 0.34257 0.0
H666 H 0.5766 0.85408 0.32194 0.0
H667 H 0.53903 0.89051 0.32149 0.0
C668 C 0.6521 0.81208 0.34484 0.0
C669 C 0.67938 0.81776 0.33174 0.0
C670 C 0.63041 0.83305 0.34494 0.0
C671 C 0.63497 0.86086 0.33223 0.0
C672 C 0.66241 0.86674 0.31955 0.0
C673 C 0.68407 0.8456 0.31911 0.0
C674 C 0.59566 0.9336 0.33785 0.0
C675 C 0.56684 0.9264 0.33199 0.0
C676 C 0.61739 0.91267 0.33781 0.0
C677 C 0.61136 0.88342 0.33223 0.0
C678 C 0.58246 0.87613 0.32671 0.0
C679 C 0.5607 0.89718 0.32637 0.0
H680 H 0.20337 0.8951 0.59778 0.0
H681 H 0.14054 0.95416 0.56081 0.0
H682 H 0.16774 0.85661 0.59797 0.0
H683 H 1.10472 0.91577 0.56174 0.0
H684 H 1.04132 0.84616 0.6002 0.0
H685 H 1.07726 0.88412 0.60105 0.0
H686 H 0.13819 0.82654 0.5585 0.0
H687 H 1.1019 0.78849 0.55704 0.0
C688 C 0.18188 0.90009 0.59003 0.0
C689 C 0.17508 0.92815 0.57951 0.0
C690 C 0.16139 0.87779 0.58989 0.0
C691 C 0.13305 0.88273 0.57987 0.0
C692 C 0.12612 0.91091 0.56987 0.0
C693 C 0.14679 0.93307 0.5693 0.0
C694 C 1.06241 0.84131 0.59125 0.0
C695 C 1.06844 0.81378 0.57882 0.0
C696 C 1.0831 0.86337 0.59147 0.0
C697 C 1.11093 0.85877 0.57983 0.0
C698 C 1.11719 0.83109 0.56792 0.0
C699 C 1.09626 0.80914 0.56705 0.0
H700 H 1.04815 0.40206 0.78485 0.0
H701 H 1.07907 0.43588 0.87584 0.0
H702 H 1.087 0.36703 0.78474 0.0
H703 H 1.11753 0.40044 0.87608 0.0
H704 H 0.16665 0.31229 0.87928 0.0
H705 H 0.12764 0.34717 0.88064 0.0
H706 H 0.14057 0.36556 0.77876 0.0
H707 H 0.17992 0.3312 0.77757 0.0
C708 C 1.06288 0.4018 0.80518 0.0
C709 C 1.05997 0.42195 0.8305 0.0
C710 C 1.0855 0.38177 0.80494 0.0
C711 C 1.10582 0.38063 0.83036 0.0
C712 C 1.10243 0.40029 0.85611 0.0
C713 C 1.08021 0.42075 0.85597 0.0
C714 C 0.16144 0.32394 0.85719 0.0
C715 C 0.17697 0.31882 0.82839 0.0
C716 C 0.13893 0.34409 0.85797 0.0
C717 C 0.1305 0.35942 0.82978 0.0
C718 C 0.146 0.35421 0.80098 0.0
C719 C 0.16892 0.33456 0.80038 0.0
H720 H 0.63891 0.9608 0.9179 0.0
H721 H 0.70085 0.90362 0.87649 0.0
H722 H 0.60315 0.92238 0.91624 0.0
H723 H 0.6653 0.86512 0.8755 0.0
H724 H 0.60154 0.79472 0.91522 0.0
H725 H 0.63735 0.83319 0.91417 0.0
H726 H 0.57435 0.89205 0.87726 0.0
H727 H 0.5388 0.85359 0.87761 0.0
C728 C 0.64497 0.94016 0.90821 0.0
C729 C 0.67303 0.93578 0.89706 0.0
C730 C 0.62432 0.91797 0.90723 0.0
C731 C 0.63104 0.89025 0.89582 0.0
C732 C 0.65911 0.8859 0.88472 0.0
C733 C 0.67956 0.90824 0.88503 0.0
C734 C 0.59531 0.81576 0.90656 0.0
C735 C 0.56703 0.82061 0.89623 0.0
C736 C 0.61598 0.83797 0.9059 0.0
C737 C 0.60905 0.86611 0.89568 0.0
C738 C 0.58073 0.87093 0.88553 0.0
C739 C 0.56026 0.84862 0.88549 0.0
H740 H 0.58373 0.44356 0.5997 0.0
H741 H 0.554 0.4096 0.69135 0.0
H742 H 0.62258 0.40856 0.59975 0.0
H743 H 0.59319 0.37498 0.69173 0.0
H744 H 0.68577 0.33848 0.69877 0.0
H745 H 0.64643 0.3729 0.69754 0.0
H746 H 0.63354 0.35591 0.59549 0.0
H747 H 0.67254 0.32105 0.59687 0.0
C748 C 0.58523 0.42852 0.61981 0.0
C749 C 0.56516 0.42957 0.64535 0.0
C750 C 0.60769 0.40829 0.61983 0.0
C751 C 0.61152 0.38866 0.64581 0.0
C752 C 0.5914 0.38969 0.67134 0.0
C753 C 0.56858 0.40951 0.67096 0.0
C754 C 0.6748 0.34219 0.67591 0.0
C755 C 0.68289 0.32683 0.64786 0.0
C756 C 0.65187 0.36187 0.67528 0.0
C757 C 0.63634 0.36751 0.64642 0.0
C758 C 0.64483 0.35256 0.61821 0.0
C759 C 0.66736 0.33241 0.61901 0.0
H760 H 1.1034 0.28957 0.40177 0.0
H761 H 1.03745 0.35291 0.38978 0.0
H762 H 0.13943 0.32792 0.40111 0.0
H763 H 1.07316 0.39092 0.38951 0.0
H764 H 0.14252 0.45452 0.42667 0.0
H765 H 1.10692 0.41604 0.42549 0.0
H766 H 0.16274 0.36509 0.36616 0.0
H767 H 0.19817 0.40363 0.36704 0.0
C768 C 1.09647 0.31155 0.3988 0.0
C769 C 1.06718 0.3177 0.39561 0.0
C770 C 1.11725 0.33371 0.39837 0.0
C771 C 1.10953 0.36294 0.39538 0.0
C772 C 1.08025 0.36896 0.39222 0.0
C773 C 1.05961 0.34689 0.39211 0.0
C774 C 0.14719 0.43529 0.41304 0.0
C775 C 0.17343 0.43273 0.39666 0.0
C776 C 0.12662 0.41304 0.41233 0.0
C777 C 0.13161 0.38702 0.39575 0.0
C778 C 0.15791 0.38446 0.37946 0.0
C779 C 0.17826 0.40689 0.3797 0.0
H780 H 0.20613 0.85601 0.15742 0.0
H781 H 0.14602 0.79179 0.12602 0.0
H782 H 0.16822 0.8919 0.15714 0.0
H783 H 1.10818 0.82761 0.12561 0.0
H784 H 1.03968 0.893 0.16032 0.0
H785 H 1.0774 0.85675 0.15877 0.0
H786 H 0.13681 0.92089 0.12493 0.0
H787 H 1.09938 0.95689 0.12658 0.0
C788 C 0.18496 0.84947 0.15006 0.0
C789 C 0.17966 0.82065 0.14148 0.0
C790 C 0.16297 0.87024 0.14985 0.0
C791 C 0.13458 0.86311 0.14142 0.0
C792 C 0.12938 0.83429 0.13268 0.0
C793 C 0.1514 0.81361 0.13259 0.0
C794 C 1.0607 0.8994 0.15228 0.0
C795 C 1.06597 0.92824 0.14343 0.0
C796 C 1.08254 0.87844 0.1513 0.0
C797 C 1.11071 0.88544 0.14181 0.0
C798 C 1.11582 0.91428 0.13284 0.0
C799 C 1.094 0.9351 0.13352 0.0
H800 H 0.28825 0.21073 0.91576 0.0
H801 H 0.33229 0.27728 0.86259 0.0
H802 H 0.32785 0.20814 0.95467 0.0
H803 H 0.37202 0.2744 0.90118 0.0
H804 H 0.45129 0.23964 0.95586 0.0
H805 H 0.4111 0.24163 0.91809 0.0
H806 H 0.35282 0.23606 -0.00116 0.0
H807 H 0.39323 0.23445 0.03687 0.0
C808 C 0.30637 0.22482 0.91222 0.0
C809 C 0.3068 0.24422 0.88569 0.0
C810 C 0.32914 0.22343 0.93478 0.0
C811 C 0.3535 0.24098 0.93135 0.0
C812 C 0.35394 0.26027 0.90471 0.0
C813 C 0.33096 0.26205 0.88252 0.0
C814 C 0.42996 0.23857 0.96575 0.0
C815 C 0.42585 0.23662 -0.00025 0.0
C816 C 0.40674 0.24 0.94392 0.0
C817 C 0.37837 0.23909 0.95507 0.0
C818 C 0.3742 0.23662 0.98906 0.0
C819 C 0.39749 0.23573 0.011 0.0
H820 H 0.77421 0.5329 0.17291 0.0
H821 H 0.71825 0.583 0.11185 0.0
H822 H 0.77591 0.57201 0.21249 0.0
H823 H 0.72022 0.6222 0.15122 0.0
H824 H 0.75452 0.69852 0.21132 0.0
H825 H 0.75329 0.65872 0.17297 0.0
H826 H 0.74668 0.59888 0.253 0.0
H827 H 0.74759 0.63892 0.29159 0.0
C828 C 0.76224 0.55223 0.1678 0.0
C829 C 0.74609 0.55451 0.13883 0.0
C830 C 0.76311 0.57474 0.19073 0.0
C831 C 0.7483 0.60065 0.18535 0.0
C832 C 0.73221 0.6029 0.15634 0.0
C833 C 0.73093 0.58021 0.13369 0.0
C834 C 0.75305 0.67691 0.22097 0.0
C835 C 0.75137 0.67227 0.25493 0.0
C836 C 0.75206 0.65393 0.19876 0.0
C837 C 0.74977 0.62524 0.20952 0.0
C838 C 0.74865 0.6205 0.24353 0.0
C839 C 0.74914 0.64359 0.26579 0.0
H840 H 0.40257 0.98805 0.35372 0.0
H841 H 0.46294 1.00412 0.43081 0.0
H842 H 0.36353 0.99085 0.39273 0.0
H843 H 0.42387 1.00727 0.46986 0.0
H844 H 0.34948 0.98167 0.53789 0.0
H845 H 0.38871 0.98084 0.49921 0.0
H846 H 0.33521 1.02103 0.42676 0.0
H847 H 0.29569 1.02153 0.46556 0.0
C848 C 0.40765 0.99221 0.37899 0.0
C849 C 0.43629 0.99568 0.38876 0.0
C850 C 0.38503 0.99407 0.40154 0.0
C851 C 0.39004 0.99935 0.43493 0.0
C852 C 0.41875 1.0028 0.44467 0.0
C853 C 0.44137 1.00109 0.42207 0.0
C854 C 0.34598 0.99062 0.51383 0.0
C855 C 0.31904 1.00181 0.5053 0.0
C856 C 0.36876 0.99023 0.49145 0.0
C857 C 0.36563 1.0008 0.45936 0.0
C858 C 0.33874 1.0123 0.4509 0.0
C859 C 0.31596 1.01288 0.47343 0.0
H860 H 1.01909 0.65657 0.61013 0.0
H861 H 0.96607 0.70824 0.67205 0.0
H862 H 1.01723 0.61756 0.65008 0.0
H863 H 0.96446 0.66921 0.71225 0.0
H864 H 0.99398 0.60149 0.79128 0.0
H865 H 0.99453 0.64161 0.75225 0.0
H866 H 0.9837 0.5821 0.67314 0.0
H867 H 0.98285 0.5423 0.71184 0.0
C868 C 1.00702 0.65974 0.63226 0.0
C869 C 0.99268 0.68584 0.63748 0.0
C870 C 1.00583 0.63716 0.65526 0.0
C871 C 0.99063 0.63989 0.6847 0.0
C872 C 0.97657 0.66614 0.69014 0.0
C873 C 0.97736 0.68858 0.66686 0.0
C874 C 0.99143 0.59694 0.7656 0.0
C875 C 0.98815 0.56835 0.75508 0.0
C876 C 0.9917 0.62006 0.7431 0.0
C877 C 0.9893 0.61538 0.70921 0.0
C878 C 0.98593 0.5868 0.69882 0.0
C879 C 0.98518 0.56383 0.72126 0.0
H880 H 0.84837 1.00122 0.93835 0.0
H881 H 0.79193 1.02321 0.01697 0.0
H882 H 0.88838 0.99984 0.9762 0.0
H883 H 0.83217 1.0222 0.05499 0.0
H884 H 0.90438 0.98704 0.1209 0.0
H885 H 0.86449 0.99091 0.08298 0.0
H886 H 0.92084 1.02573 0.00989 0.0
H887 H 0.96086 1.02153 0.04782 0.0
C888 C 0.84443 1.00619 0.96366 0.0
C889 C 0.81654 1.01252 0.9742 0.0
C890 C 0.86762 1.00548 0.98558 0.0
C891 C 0.864 1.01081 0.01913 0.0
C892 C 0.83615 1.01756 0.02961 0.0
C893 C 0.81292 1.01848 0.00759 0.0
C894 C 0.90843 0.99552 0.09676 0.0
C895 C 0.93627 1.00385 0.08777 0.0
C896 C 0.88528 0.99798 0.07488 0.0
C897 C 0.88893 1.00873 0.04293 0.0
C898 C 0.91682 1.01702 0.03393 0.0
C899 C 0.93997 1.01473 0.05592 0.0
H900 H 0.44811 0.69363 0.82737 0.0
H901 H 0.53835 0.68081 0.83967 0.0
H902 H 0.44647 0.65385 0.78839 0.0
H903 H 0.53682 0.64173 0.79998 0.0
H904 H 0.52592 0.59576 0.69898 0.0
H905 H 0.52634 0.63545 0.73782 0.0
H906 H 0.45496 0.59776 0.78816 0.0
H907 H 0.45508 0.55741 0.74982 0.0
C908 C 0.46767 0.6825 0.8217 0.0
C909 C 0.49338 0.69071 0.83695 0.0
C910 C 0.46668 0.65951 0.79937 0.0
C911 C 0.49151 0.64438 0.79076 0.0
C912 C 0.51726 0.65283 0.8057 0.0
C913 C 0.51811 0.67529 0.82866 0.0
C914 C 0.51009 0.59593 0.71812 0.0
C915 C 0.4903 0.57321 0.72085 0.0
C916 C 0.5105 0.6187 0.74065 0.0
C917 C 0.49069 0.62005 0.76636 0.0
C918 C 0.47047 0.59769 0.76869 0.0
C919 C 0.47054 0.57446 0.74664 0.0
H920 H 0.78749 0.22133 0.55468 0.0
H921 H 0.83618 0.28112 0.61221 0.0
H922 H 0.82689 0.21794 0.51598 0.0
H923 H 0.87558 0.27767 0.57361 0.0
H924 H 0.9525 0.24321 0.51613 0.0
H925 H 0.91274 0.24559 0.55425 0.0
H926 H 0.8536 0.24402 0.47377 0.0
H927 H 0.89351 0.24175 0.43554 0.0
C928 C 0.80653 0.23384 0.55917 0.0
C929 C 0.80828 0.25155 0.58691 0.0
C930 C 0.82925 0.23199 0.53672 0.0
C931 C 0.85485 0.24743 0.54132 0.0
C932 C 0.85658 0.2651 0.56911 0.0
C933 C 0.83373 0.26725 0.59131 0.0
C934 C 0.93105 0.24307 0.5064 0.0
C935 C 0.92657 0.24203 0.47241 0.0
C936 C 0.90807 0.24474 0.52843 0.0
C937 C 0.87955 0.24512 0.51748 0.0
C938 C 0.87504 0.24354 0.48349 0.0
C939 C 0.89808 0.24227 0.46139 0.0
H940 H 0.22036 0.58914 0.36627 0.0
H941 H 0.28117 0.54215 0.30911 0.0
H942 H 0.22313 0.62917 0.32771 0.0
H943 H 0.2838 0.5822 0.27032 0.0
H944 H 0.25679 0.64833 0.18953 0.0
H945 H 0.25603 0.60808 0.22811 0.0
H946 H 0.25484 0.66755 0.30817 0.0
H947 H 0.25578 0.70772 0.26968 0.0
C948 C 0.23437 0.58724 0.3455 0.0
C949 C 0.25054 0.56209 0.34114 0.0
C950 C 0.23609 0.61043 0.32332 0.0
C951 C 0.25375 0.6093 0.29558 0.0
C952 C 0.26977 0.58404 0.29108 0.0
C953 C 0.26837 0.561 0.31356 0.0
C954 C 0.2567 0.65292 0.21536 0.0
C955 C 0.25662 0.6816 0.22618 0.0
C956 C 0.2563 0.62969 0.23763 0.0
C957 C 0.25529 0.63421 0.27159 0.0
C958 C 0.25533 0.66292 0.28237 0.0
C959 C 0.25615 0.68612 0.26014 0.0
H960 H 0.77668 0.74168 0.43132 0.0
H961 H 0.83853 0.7506 0.35452 0.0
H962 H 0.81522 0.73924 0.47152 0.0
H963 H 0.87691 0.74872 0.39446 0.0
H964 H 0.94318 0.71977 0.46906 0.0
H965 H 0.90363 0.71985 0.43042 0.0
H966 H 0.85153 0.76424 0.50025 0.0
H967 H 0.89097 0.76366 0.53909 0.0
C968 C 0.79846 0.74327 0.42289 0.0
C969 C 0.80414 0.74635 0.38931 0.0
C970 C 0.82076 0.742 0.44613 0.0
C971 C 0.8497 0.74363 0.43674 0.0
C972 C 0.85523 0.74681 0.40311 0.0
C973 C 0.83299 0.74815 0.37995 0.0
C974 C 0.92323 0.7293 0.47647 0.0
C975 C 0.92065 0.74157 0.50767 0.0
C976 C 0.9004 0.72963 0.45396 0.0
C977 C 0.87392 0.74226 0.4616 0.0
C978 C 0.87118 0.754 0.49311 0.0
C979 C 0.89405 0.75373 0.51559 0.0
H980 H 0.28849 0.18412 0.73708 0.0
H981 H 0.20625 0.15546 0.77074 0.0
H982 H 0.28873 0.14548 0.69665 0.0
H983 H 0.20637 1.1173 0.73032 0.0
H984 H 0.20164 1.07192 0.63013 0.0
H985 H 0.20272 1.11012 0.67081 0.0
H986 H 0.29112 1.0921 0.69029 0.0
H987 H 0.28997 1.05367 0.64987 0.0
C988 C 0.27053 0.16954 0.73613 0.0
C989 C 0.24748 0.1731 0.75771 0.0
C990 C 0.27067 0.14723 0.71285 0.0
C991 C 0.24749 0.12802 0.70979 0.0
C992 C 0.22452 0.13162 0.73142 0.0
C993 C 0.2246 0.15353 0.755 0.0
C994 C 0.22137 1.07604 0.643 0.0
C995 C 0.2457 1.05943 0.63634 0.0
C996 C 0.22196 1.09799 0.66661 0.0
C997 C 0.24702 1.10453 0.6842 0.0
C998 C 0.27145 1.08812 0.67725 0.0
C999 C 0.27074 1.06586 0.65401 0.0
H1000 H 0.80007 0.52525 0.9736 0.0
H1001 H 0.84804 0.46928 0.03696 0.0
H1002 H 0.83938 0.52533 0.93458 0.0
H1003 H 0.88726 0.46928 -0.00201 0.0
H1004 H 0.96382 0.49448 0.93228 0.0
H1005 H 0.92552 0.49648 0.97266 0.0
H1006 H 0.8632 0.49536 0.89535 0.0
H1007 H 0.90133 0.49345 0.85519 0.0
C1008 C 0.81908 0.51316 0.97951 0.0
C1009 C 0.82057 0.49737 0.00887 0.0
C1010 C 0.84168 0.51297 0.95681 0.0
C1011 C 0.86688 0.49721 0.96265 0.0
C1012 C 0.86858 0.48196 0.99238 0.0
C1013 C 0.84586 0.48188 0.0149 0.0
C1014 C 0.94195 0.49462 0.9238 0.0
C1015 C 0.93601 0.49373 0.89011 0.0
C1016 C 0.91982 0.49566 0.94713 0.0
C1017 C 0.89084 0.49619 0.93769 0.0
C1018 C 0.88501 0.49541 0.90396 0.0
C1019 C 0.90707 0.49409 0.88071 0.0
H1020 H 0.50673 1.09917 0.2886 0.0
H1021 H 0.47653 1.04269 0.21315 0.0
H1022 H 0.50873 0.1387 0.24944 0.0
H1023 H 0.47767 1.08226 0.17419 0.0
H1024 H 0.50896 0.15014 0.10214 0.0
H1025 H 0.50655 1.11157 0.1422 0.0
H1026 H 0.48552 0.17293 0.21671 0.0
H1027 H 0.4888 0.2117 0.17653 0.0
C1028 C 0.50007 1.09517 0.26378 0.0
C1029 C 0.49136 1.0674 0.25443 0.0
C1030 C 0.50114 1.11806 0.24109 0.0
C1031 C 0.49354 1.11418 0.20806 0.0
C1032 C 0.48432 1.08646 0.19897 0.0
C1033 C 0.48333 1.06358 0.22161 0.0
C1034 C 0.50389 0.15556 0.12707 0.0
C1035 C 0.49913 0.18439 0.13575 0.0
C1036 C 0.50223 0.13318 0.15026 0.0
C1037 C 0.49559 0.13856 0.18322 0.0
C1038 C 0.49102 0.1675 0.19193 0.0
C1039 C 0.49278 0.18994 0.16868 0.0
H1040 H 0.35052 0.48242 0.43678 0.0
H1041 H 0.29857 0.5264 0.507 0.0
H1042 H 0.38999 0.48163 0.47552 0.0
H1043 H 0.33818 0.52603 0.54562 0.0
H1044 H 0.40357 0.49392 0.62093 0.0
H1045 H 0.36497 0.4962 0.58123 0.0
H1046 H 0.42623 0.50729 0.50401 0.0
H1047 H 0.46496 0.50456 0.54387 0.0
C1048 C 0.3475 0.49232 0.46031 0.0
C1049 C 0.32099 0.50459 0.46832 0.0
C1050 C 0.37039 0.49193 0.48272 0.0
C1051 C 0.36772 0.50362 0.51423 0.0
C1052 C 0.34132 0.51632 0.52201 0.0
C1053 C 0.31848 0.51683 0.49954 0.0
C1054 C 0.40897 0.4968 0.5955 0.0
C1055 C 0.43775 0.49897 0.58597 0.0
C1056 C 0.3866 0.49836 0.57253 0.0
C1057 C 0.39199 0.50209 0.53893 0.0
C1058 C 0.42084 0.5041 0.52938 0.0
C1059 C 0.44324 0.50265 0.55243 0.0
H1060 H 0.97934 0.21442 0.29791 0.0
H1061 H 1.01311 0.15581 0.36971 0.0
H1062 H 0.97702 0.17546 0.2583 0.0
H1063 H 1.01124 1.11706 0.33015 0.0
H1064 H 0.98095 1.04561 0.26256 0.0
H1065 H 0.98127 1.08514 0.30119 0.0
H1066 H 1.00315 0.14394 0.22366 0.0
H1067 H 1.0024 1.10433 0.18487 0.0
C1068 C 0.9864 0.19329 0.30536 0.0
C1069 C 0.9964 0.18863 0.3374 0.0
C1070 C 0.98521 0.17078 0.28241 0.0
C1071 C 0.99383 0.14262 0.29058 0.0
C1072 C 1.00389 0.13807 0.32265 0.0
C1073 C 1.00519 0.16056 0.3455 0.0
C1074 C 0.98558 1.06697 0.25352 0.0
C1075 C 0.99151 1.07141 0.22019 0.0
C1076 C 0.98606 1.08982 0.27595 0.0
C1077 C 0.99243 1.11819 0.26607 0.0
C1078 C 0.99784 1.12271 0.23257 0.0
C1079 C 0.99748 1.09979 0.21012 0.0
H1080 H 0.341 0.76147 0.1221 0.0
H1081 H 0.27919 0.74746 0.04601 0.0
H1082 H 0.37937 0.75847 0.08231 0.0
H1083 H 0.31762 0.74403 0.00614 0.0
H1084 H 0.39174 0.76752 0.93679 0.0
H1085 H 0.35296 0.76911 0.97603 0.0
H1086 H 0.40664 0.72827 0.04785 0.0
H1087 H 0.44569 0.72711 0.00856 0.0
C1088 C 0.33546 0.75775 0.09687 0.0
C1089 C 0.30661 0.75485 0.08764 0.0
C1090 C 0.35769 0.75575 0.07386 0.0
C1091 C 0.35211 0.75086 0.04051 0.0
C1092 C 0.32319 0.74813 0.03127 0.0
C1093 C 0.30095 0.75001 0.05435 0.0
C1094 C 0.39535 0.75856 0.96081 0.0
C1095 C 0.42222 0.74702 0.96903 0.0
C1096 C 0.37284 0.7594 0.98354 0.0
C1097 C 0.37617 0.74893 0.01565 0.0
C1098 C 0.40296 0.737 0.02374 0.0
C1099 C 0.42547 0.73602 0.00091 0.0
H1100 H 0.70774 0.16364 0.70797 0.0
H1101 H 0.79184 0.18862 0.73939 0.0
H1102 H 0.70763 1.12463 0.74774 0.0
H1103 H 0.79183 0.14911 0.77924 0.0
H1104 H 0.79059 1.0564 0.82578 0.0
H1105 H 0.79243 1.09543 0.78547 0.0
H1106 H 0.70519 1.11654 0.8069 0.0
H1107 H 0.70345 1.0779 0.84726 0.0
C1108 C 0.72643 0.16074 0.7231 0.0
C1109 C 0.7499 0.17954 0.71994 0.0
C1110 C 0.72625 0.13832 0.74631 0.0
C1111 C 0.74967 0.13338 0.76714 0.0
C1112 C 0.77341 0.15185 0.76365 0.0
C1113 C 0.7734 0.17469 0.74072 0.0
C1114 C 0.77175 1.06933 0.82195 0.0
C1115 C 0.74684 1.06362 0.84008 0.0
C1116 C 0.77287 1.09195 0.79883 0.0
C1117 C 0.74895 1.10943 0.79249 0.0
C1118 C 0.72403 1.10358 0.81055 0.0
C1119 C 0.72307 1.08133 0.83399 0.0
H1120 H 0.6207 0.17763 0.87294 0.0
H1121 H 0.59121 0.26522 0.8792 0.0
H1122 H 0.64205 0.1883 0.82019 0.0
H1123 H 0.61358 0.27596 0.82695 0.0
H1124 H 0.69584 0.28541 0.7615 0.0
H1125 H 0.66629 0.27684 0.80934 0.0
H1126 H 0.62728 0.20426 0.76177 0.0
H1127 H 0.65678 0.21294 0.71357 0.0
C1128 C 0.61847 0.19905 0.86297 0.0
C1129 C 0.60437 0.22061 0.88047 0.0
C1130 C 0.6307 0.20512 0.83276 0.0
C1131 C 0.62937 0.23291 0.81961 0.0
C1132 C 0.61502 0.2544 0.83676 0.0
C1133 C 0.60246 0.24827 0.86678 0.0
C1134 C 0.68062 0.26791 0.76105 0.0
C1135 C 0.67859 0.24978 0.73393 0.0
C1136 C 0.66365 0.26311 0.78833 0.0
C1137 C 0.64465 0.23984 0.78918 0.0
C1138 C 0.64191 0.22225 0.76167 0.0
C1139 C 0.65859 0.22735 0.73409 0.0
H1140 H 0.74961 0.89851 0.1624 0.0
H1141 H 0.78953 0.82873 0.11127 0.0
H1142 H 0.74054 0.9228 0.11071 0.0
H1143 H 0.77982 0.85253 0.05941 0.0
H1144 H 0.7878 0.92056 0.97822 0.0
H1145 H 0.79486 0.89308 0.02815 0.0
H1146 H 0.71229 0.92009 0.06252 0.0
H1147 H 0.7057 0.94835 0.01313 0.0
C1148 C 0.75617 0.88828 0.14002 0.0
C1149 C 0.77038 0.86187 0.14076 0.0
C1150 C 0.75086 0.90207 0.11039 0.0
C1151 C 0.75938 0.88956 0.08088 0.0
C1152 C 0.77338 0.86297 0.0817 0.0
C1153 C 0.77892 0.84933 0.11135 0.0
C1154 C 0.77099 0.92029 -0.00375 0.0
C1155 C 0.74627 0.93671 0.99185 0.0
C1156 C 0.77501 0.90449 0.02486 0.0
C1157 C 0.75424 0.90459 0.04948 0.0
C1158 C 0.72898 0.92006 0.04438 0.0
C1159 C 0.7251 0.93608 0.01595 0.0
H1160 H 1.09516 1.03344 0.20954 0.0
H1161 H 1.04883 0.96906 0.26424 0.0
H1162 H 0.12767 1.03966 0.25535 0.0
H1163 H 1.08095 0.97572 0.31004 0.0
H1164 H 0.15427 0.97877 0.38001 0.0
H1165 H 0.12951 0.96918 0.329 0.0
H1166 H 0.12444 1.06021 0.30978 0.0
H1167 H 0.15023 1.06976 0.36018 0.0
C1168 C 1.092 1.02047 0.23119 0.0
C1169 C 1.06924 1.00088 0.23326 0.0
C1170 C 1.11056 1.02416 0.2575 0.0
C1171 C 1.10682 1.0083 0.28639 0.0
C1172 C 1.08465 0.98804 0.28801 0.0
C1173 C 1.0661 0.98436 0.26176 0.0
C1174 C 0.14845 0.99672 0.36456 0.0
C1175 C 0.15411 1.02505 0.37424 0.0
C1176 C 0.13397 0.99122 0.3355 0.0
C1177 C 0.1248 1.01393 0.31546 0.0
C1178 C 0.1314 1.04221 0.32453 0.0
C1179 C 0.14588 1.04771 0.3536 0.0
H1180 H 1.03765 0.30878 0.50558 0.0
H1181 H 0.95293 0.33205 0.47398 0.0
H1182 H 1.03126 0.33643 0.5551 0.0
H1183 H 0.94616 0.35892 0.52402 0.0
H1184 H 0.94921 0.42028 0.60933 0.0
H1185 H 0.95967 0.39951 0.55625 0.0
H1186 H 1.00415 0.32978 0.60377 0.0
H1187 H 0.99422 0.35096 0.65661 0.0
C1188 C 1.01774 0.32001 0.50911 0.0
C1189 C 0.99569 0.31807 0.48606 0.0
C1190 C 1.01401 0.33568 0.53758 0.0
C1191 C 0.98804 0.34949 0.54376 0.0
C1192 C 0.96651 0.34872 0.51992 0.0
C1193 C 0.97035 0.33327 0.49125 0.0
C1194 C 0.96115 0.40046 0.60831 0.0
C1195 C 0.97084 0.38712 0.63699 0.0
C1196 C 0.96715 0.38859 0.57796 0.0
C1197 C 0.9828 0.36304 0.57576 0.0
C1198 C 0.99255 0.3498 0.60454 0.0
C1199 C 0.98674 0.3618 0.63483 0.0
H1200 H 0.68097 1.03657 0.12643 0.0
H1201 H 0.60015 1.03525 0.07607 0.0
H1202 H 0.65669 1.02508 0.17773 0.0
H1203 H 0.57605 1.02418 0.12708 0.0
H1204 H 0.54714 0.97074 0.21255 0.0
H1205 H 0.57542 0.98121 0.16454 0.0
H1206 H 0.62006 1.0478 0.21666 0.0
H1207 H 0.59159 1.03742 0.26523 0.0
C1208 C 0.65806 1.03391 0.12637 0.0
C1209 C 0.64243 1.03684 0.09728 0.0
C1210 C 0.6442 1.02753 0.15569 0.0
C1211 C 0.61455 1.02354 0.15628 0.0
C1212 C 0.59897 1.0268 0.12726 0.0
C1213 C 0.61273 1.03344 0.09813 0.0
C1214 C 0.56313 0.98746 0.21409 0.0
C1215 C 0.56687 1.00345 0.24275 0.0
C1216 C 0.57925 0.99352 0.18644 0.0
C1217 C 0.59962 1.01557 0.18676 0.0
C1218 C 0.60447 1.03066 0.2158 0.0
C1219 C 0.58815 1.02472 0.24356 0.0
H1220 H 0.44744 0.41539 0.86342 0.0
H1221 H 0.49949 0.35157 0.81667 0.0
H1222 H 0.45633 0.39277 0.91616 0.0
H1223 H 0.50795 0.32853 0.8692 0.0
H1224 H 0.538 0.30648 0.96972 0.0
H1225 H 0.53194 0.33481 0.92023 0.0
H1226 H 0.44398 0.34989 0.94552 0.0
H1227 H 0.45032 0.32229 0.99551 0.0
C1228 C 0.46059 0.39636 0.86445 0.0
C1229 C 0.47269 0.38512 0.836 0.0
C1230 C 0.46569 0.38342 0.89462 0.0
C1231 C 0.48287 0.35887 0.89692 0.0
C1232 C 0.49506 0.34773 0.8684 0.0
C1233 C 0.49012 0.36081 0.83828 0.0
C1234 C 0.51748 0.31618 0.9649 0.0
C1235 C 0.49459 0.31209 0.98638 0.0
C1236 C 0.51395 0.33224 0.93644 0.0
C1237 C 0.48739 0.3443 0.9287 0.0
C1238 C 0.46481 0.34114 0.95088 0.0
C1239 C 0.46841 0.32529 0.97953 0.0
H1240 H 0.15173 0.20416 0.76557 0.0
H1241 H 0.18354 0.28257 0.72241 0.0
H1242 H 1.12025 0.19728 0.7185 0.0
H1243 H 0.15207 0.27582 0.67574 0.0
H1244 H 1.07735 0.26477 0.60658 0.0
H1245 H 1.09943 0.27267 0.65965 0.0
H1246 H 0.13285 0.18658 0.65862 0.0
H1247 H 1.11177 0.17886 0.60513 0.0
C1248 C 0.15149 0.22022 0.7464 0.0
C1249 C 0.1701 0.24381 0.74746 0.0
C1250 C 0.13367 0.21618 0.71945 0.0
C1251 C 0.13384 0.23598 0.69351 0.0
C1252 C 0.15135 0.26036 0.6955 0.0
C1253 C 0.16946 0.26412 0.7221 0.0
C1254 C 1.08948 0.24753 0.61756 0.0
C1255 C 1.09303 0.22127 0.60131 0.0
C1256 C 1.10191 0.25202 0.64805 0.0
C1257 C 1.1178 0.23023 0.66317 0.0
C1258 C 1.12036 0.2036 0.64768 0.0
C1259 C 1.10824 0.19921 0.61702 0.0
H1260 H 0.28517 0.90105 0.51796 0.0
H1261 H 0.21593 0.94234 0.46657 0.0
H1262 H 0.29183 0.86872 0.47185 0.0
H1263 H 0.22291 0.91063 0.42074 0.0
H1264 H 0.22815 0.83949 0.34988 0.0
H1265 H 0.21928 0.86109 0.40271 0.0
H1266 H 0.30954 0.87512 0.41552 0.0
H1267 H 0.31857 0.8524 0.36318 0.0
C1268 C 0.27115 0.90298 0.49709 0.0
C1269 C 0.25017 0.92437 0.49583 0.0
C1270 C 0.27509 0.88461 0.47064 0.0
C1271 C 0.25793 0.88718 0.44267 0.0
C1272 C 0.23624 0.90782 0.44207 0.0
C1273 C 0.23241 0.9262 0.4683 0.0
C1274 C 0.24618 0.84653 0.36428 0.0
C1275 C 0.27406 0.84445 0.35221 0.0
C1276 C 0.24106 0.85915 0.39443 0.0
C1277 C 0.26368 0.87003 0.41313 0.0
C1278 C 0.29168 0.86676 0.40178 0.0
C1279 C 0.29681 0.8541 0.37161 0.0
H1280 H 1.12074 0.67803 0.38056 0.0
H1281 H 1.07956 0.76039 0.37002 0.0
H1282 H 0.14555 0.68596 0.32923 0.0
H1283 H 1.10503 0.7685 0.31908 0.0
H1284 H 0.18681 0.78473 0.25716 0.0
H1285 H 0.15651 0.77644 0.30438 0.0
H1286 H 0.13604 0.69181 0.26896 0.0
H1287 H 0.16645 0.69997 0.22161 0.0
C1288 C 1.11666 0.69765 0.36713 0.0
C1289 C 1.09822 0.71862 0.37955 0.0
C1290 C 0.13092 0.70218 0.33774 0.0
C1291 C 0.12725 0.72787 0.32024 0.0
C1292 C 1.1085 0.74865 0.33229 0.0
C1293 C 1.09404 0.74402 0.36154 0.0
C1294 C 0.17564 0.76444 0.25923 0.0
C1295 C 0.17907 0.74299 0.23566 0.0
C1296 C 0.15817 0.75978 0.2862 0.0
C1297 C 0.14399 0.73347 0.29034 0.0
C1298 C 0.14693 0.71221 0.26647 0.0
C1299 C 0.16418 0.71698 0.23928 0.0
H1300 H 0.28922 0.31742 0.6021 0.0
H1301 H 0.24243 0.38408 0.65091 0.0
H1302 H 0.28058 0.34108 0.54975 0.0
H1303 H 0.23447 0.40818 0.59906 0.0
H1304 H 0.20468 0.43588 0.50158 0.0
H1305 H 0.20924 0.40504 0.54926 0.0
H1306 H 0.29474 0.38288 0.51999 0.0
H1307 H 0.28961 0.41288 0.4715 0.0
C1308 C 0.27721 0.33721 0.60157 0.0
C1309 C 0.26643 0.34894 0.63044 0.0
C1310 C 0.27229 0.35078 0.57166 0.0
C1311 C 0.25672 0.37646 0.57015 0.0
C1312 C 0.24596 0.38808 0.59916 0.0
C1313 C 0.25062 0.37439 0.62893 0.0
C1314 C 0.22429 0.42406 0.50513 0.0
C1315 C 0.2469 0.4269 0.48306 0.0
C1316 C 0.22699 0.40655 0.53255 0.0
C1317 C 0.25255 0.39188 0.53879 0.0
C1318 C 0.27468 0.39368 0.51583 0.0
C1319 C 0.2718 0.41091 0.48808 0.0
H1320 H 0.57976 0.54857 0.71991 0.0
H1321 H 0.55771 0.46376 0.75486 0.0
H1322 H 0.6111 0.55509 0.76693 0.0
H1323 H 0.58895 0.47038 0.80172 0.0
H1324 H 0.66601 0.48371 0.8678 0.0
H1325 H 0.64095 0.4772 0.81621 0.0
H1326 H 0.60121 0.5599 0.82744 0.0
H1327 H 0.62553 0.56619 0.87937 0.0
C1328 C 0.58191 0.53119 0.73737 0.0
C1329 C 0.5662 0.50571 0.73383 0.0
C1330 C 0.59969 0.53501 0.76432 0.0
C1331 C 0.60235 0.51327 0.78793 0.0
C1332 C 0.58747 0.48739 0.78373 0.0
C1333 C 0.56945 0.4837 0.75703 0.0
C1334 C 0.65183 0.50045 0.85937 0.0
C1335 C 0.64764 0.52539 0.87787 0.0
C1336 C 0.63763 0.49676 0.82977 0.0
C1337 C 0.6192 0.51805 0.8179 0.0
C1338 C 0.61563 0.54333 0.83583 0.0
C1339 C 0.6296 0.54692 0.86557 0.0
H1340 H 0.4532 0.8404 0.96531 0.0
H1341 H 0.5335 0.8109 0.00453 0.0
H1342 H 0.4466 0.8706 0.0132 0.0
H1343 H 0.52688 0.84117 0.05214 0.0
H1344 H 0.51409 0.91552 0.12253 0.0
H1345 H 0.5219 0.89393 0.06927 0.0
H1346 H 0.4382 0.85568 0.07297 0.0
H1347 H 0.43063 0.87625 0.12661 0.0
C1348 C 0.46967 0.84079 0.98382 0.0
C1349 C 0.49375 0.82315 0.98136 0.0
C1350 C 0.4658 0.85793 0.01123 0.0
C1351 C 0.48617 0.85804 0.03632 0.0
C1352 C 0.51096 0.84159 0.03301 0.0
C1353 C 0.51464 0.82416 0.00587 0.0
C1354 C 0.49738 0.90239 0.1121 0.0
C1355 C 0.47181 0.89742 0.12904 0.0
C1356 C 0.50182 0.89025 0.08153 0.0
C1357 C 0.48062 0.87326 0.0671 0.0
C1358 C 0.45471 0.86908 0.0834 0.0
C1359 C 0.4504 0.8809 0.11413 0.0
H1360 H 1.10575 0.49763 0.57194 0.0
H1361 H 0.16976 0.54666 0.62295 0.0
H1362 H 1.08083 0.48908 0.62298 0.0
H1363 H 0.14521 0.53759 0.67436 0.0
H1364 H 1.07422 0.54347 0.75168 0.0
H1365 H 1.10276 0.55045 0.70279 0.0
H1366 H 1.0839 0.46359 0.6732 0.0
H1367 H 1.05463 0.457 0.72149 0.0
C1368 C 1.11467 0.50627 0.59419 0.0
C1369 C 0.13966 0.52282 0.59349 0.0
C1370 C 1.10047 0.50128 0.6235 0.0
C1371 C 1.11107 0.51252 0.65287 0.0
C1372 C 0.13623 0.52893 0.65216 0.0
C1373 C 0.15032 0.53411 0.62275 0.0
C1374 C 1.07649 0.52577 0.73493 0.0
C1375 C 1.06205 0.49976 0.74032 0.0
C1376 C 1.09291 0.52972 0.70692 0.0
C1377 C 1.09544 0.50766 0.68387 0.0
C1378 C 1.08191 0.48125 0.69004 0.0
C1379 C 1.06528 0.47741 0.71784 0.0
H1380 H 1.0147 0.91417 0.35245 0.0
H1381 H 0.92998 0.87772 0.34888 0.0
H1382 H 1.02278 0.89067 0.40493 0.0
H1383 H 0.93786 0.85523 0.40176 0.0
H1384 H 0.9541 0.8372 0.50904 0.0
H1385 H 0.94757 0.86832 0.46155 0.0
H1386 H 1.02646 0.83747 0.42115 0.0
H1387 H 1.03304 0.80628 0.46843 0.0
C1388 C 0.99779 0.90124 0.36282 0.0
C1389 C 0.97175 0.89766 0.34627 0.0
C1390 C 1.00239 0.88798 0.39294 0.0
C1391 C 0.98092 0.87125 0.40731 0.0
C1392 C 0.95461 0.86839 0.39138 0.0
C1393 C 0.95011 0.88133 0.3611 0.0
C1394 C 0.9703 0.83743 0.4903 0.0
C1395 C 0.99399 0.81918 0.49231 0.0
C1396 C 0.96645 0.85511 0.46309 0.0
C1397 C 0.98644 0.85513 0.43773 0.0
C1398 C 1.01083 0.83797 0.44051 0.0
C1399 C 1.01449 0.82001 0.46746 0.0
H1400 H 0.63047 0.7523 0.07413 0.0
H1401 H 0.57073 0.69509 0.12105 0.0
H1402 H 0.65525 0.75894 0.12561 0.0
H1403 H 0.5951 0.70225 0.17305 0.0
H1404 H 0.66757 0.69623 0.24932 0.0
H1405 H 0.63862 0.69068 0.20039 0.0
H1406 H 0.65101 0.78047 0.17754 0.0
H1407 H 0.68076 0.78567 0.22576 0.0
C1408 C 0.62242 0.74146 0.09563 0.0
C1409 C 0.59867 0.72322 0.09364 0.0
C1410 C 0.63653 0.74534 0.1252 0.0
C1411 C 0.62708 0.73128 0.15359 0.0
C1412 C 0.60316 0.71314 0.1516 0.0
C1413 C 0.58917 0.70906 0.12188 0.0
C1414 C 0.66377 0.71483 0.23404 0.0
C1415 C 0.67657 0.74132 0.24121 0.0
C1416 C 0.64711 0.7117 0.20602 0.0
C1417 C 0.6427 0.73507 0.18481 0.0
C1418 C 0.65451 0.76186 0.19289 0.0
C1419 C 0.67141 0.76489 0.22065 0.0
H1420 H 0.71779 0.4402 0.96512 0.0
H1421 H 0.78378 0.39588 0.01876 0.0
H1422 H 0.72544 0.40902 0.91889 0.0
H1423 H 0.79112 0.3641 0.97226 0.0
H1424 H 0.8211 0.34732 0.86501 0.0
H1425 H 0.81103 0.37053 0.91685 0.0
H1426 H 0.72086 0.35988 0.89976 0.0
H1427 H 0.73084 0.33775 0.84747 0.0
C1428 C 0.73369 0.42352 0.96722 0.0
C1429 C 0.75035 0.42066 0.99552 0.0
C1430 C 0.73791 0.40546 0.94076 0.0
C1431 C 0.75894 0.38413 0.94189 0.0
C1432 C 0.77495 0.38055 0.97061 0.0
C1433 C 0.77059 0.39858 -0.00272 0.0
C1434 C 0.79914 0.34991 0.87236 0.0
C1435 C 0.77678 0.34092 0.85197 0.0
C1436 C 0.79338 0.36286 0.90225 0.0
C1437 C 0.76514 0.36713 0.91231 0.0
C1438 C 0.74283 0.35715 0.8925 0.0
C1439 C 0.74858 0.34422 0.86267 0.0
H1440 H 0.3186 0.26355 0.14064 0.0
H1441 H 0.31683 0.35382 0.11704 0.0
H1442 H 0.27573 0.26895 0.17312 0.0
H1443 H 0.27502 0.35963 0.15048 0.0
H1444 H 0.22686 0.38006 0.22944 0.0
H1445 H 0.23104 0.35511 0.17782 0.0
H1446 H 0.28146 0.28954 0.22522 0.0
H1447 H 0.27601 0.31371 0.27672 0.0
C1448 C 0.30835 0.28432 0.14117 0.0
C1449 C 0.32166 0.30858 0.12751 0.0
C1450 C 0.28383 0.28745 0.16001 0.0
C1451 C 0.2727 0.31492 0.16583 0.0
C1452 C 0.28311 0.33813 0.14719 0.0
C1453 C 0.30742 0.33495 0.12819 0.0
C1454 C 0.23751 0.3595 0.22915 0.0
C1455 C 0.25223 0.34941 0.25675 0.0
C1456 C 0.24006 0.34526 0.19944 0.0
C1457 C 0.25778 0.32112 0.19693 0.0
C1458 C 0.26802 0.30834 0.22583 0.0
C1459 C 0.26525 0.32241 0.25551 0.0
H1460 H 0.60654 0.73807 0.49323 0.0
H1461 H 0.69229 0.73662 0.53099 0.0
H1462 H 0.58797 0.73513 0.54771 0.0
H1463 H 0.67379 0.73533 0.58638 0.0
H1464 H 0.55323 0.69361 0.62277 0.0
H1465 H 0.57695 0.73664 0.60237 0.0
H1466 H 0.65765 0.69235 0.60746 0.0
H1467 H 0.63418 0.65058 0.62912 0.0
C1468 C 0.62142 0.73822 0.51344 0.0
C1469 C 0.65074 0.73595 0.50793 0.0
C1470 C 0.6108 0.73701 0.54502 0.0
C1471 C 0.6294 0.73337 0.57173 0.0
C1472 C 0.65883 0.73676 0.56633 0.0
C1473 C 0.66948 0.73764 0.53456 0.0
C1474 C 0.57624 0.69382 0.62111 0.0
C1475 C 0.59181 0.66849 0.62595 0.0
C1476 C 0.58988 0.7184 0.60927 0.0
C1477 C 0.6189 0.71731 0.60085 0.0
C1478 C 0.63512 0.69399 0.61248 0.0
C1479 C 0.62159 0.66969 0.62494 0.0
H1480 H 0.39216 1.02463 0.71035 0.0
H1481 H 0.33372 0.98364 0.77693 0.0
H1482 H 0.42929 1.02313 0.75196 0.0
H1483 H 0.3704 0.98112 0.81768 0.0
H1484 H 0.4313 0.94053 0.86954 0.0
H1485 H 0.40911 0.9853 0.8526 0.0
H1486 H 0.45236 0.97972 0.75993 0.0
H1487 H 0.47544 0.93627 0.77769 0.0
C1488 C 0.38699 1.01624 0.73427 0.0
C1489 C 0.36053 1.00309 0.74002 0.0
C1490 C 0.40824 1.01536 0.75815 0.0
C1491 C 0.40349 1.00045 0.78755 0.0
C1492 C 0.37536 0.99228 0.79523 0.0
C1493 C 0.35408 0.99356 0.7716 0.0
C1494 C 0.43721 0.94978 0.84625 0.0
C1495 C 0.45392 0.9343 0.82416 0.0
C1496 C 0.42431 0.97539 0.83641 0.0
C1497 C 0.42739 0.98522 0.80412 0.0
C1498 C 0.44863 0.97265 0.7847 0.0
C1499 C 0.46176 0.94734 0.79468 0.0
H1500 H 0.19404 0.55372 0.12212 0.0
H1501 H 1.11362 0.59787 0.12706 0.0
H1502 H 0.16993 0.51136 0.10084 0.0
H1503 H 1.0898 0.5567 0.10473 0.0
H1504 H 0.13835 0.50683 0.99222 0.0
H1505 H 0.15806 0.51242 0.04604 0.0
H1506 H 1.0731 0.51275 0.08662 0.0
H1507 H 1.05341 0.50876 0.03183 0.0
C1508 C 0.17106 0.55392 0.11987 0.0
C1509 C 0.15579 0.57937 0.12484 0.0
C1510 C 0.15721 0.52972 0.10756 0.0
C1511 C 0.12819 0.53115 0.09904 0.0
C1512 C 1.11226 0.55472 0.11014 0.0
C1513 C 0.12601 0.57866 0.12296 0.0
C1514 C 0.12392 0.50733 0.01275 0.0
C1515 C 1.09443 0.50886 0.0078 0.0
C1516 C 0.13521 0.5101 0.04395 0.0
C1517 C 1.11714 0.51447 0.07082 0.0
C1518 C 1.08763 0.51064 0.06634 0.0
C1519 C 1.07631 0.50819 0.03494 0.0
H1520 H 0.90772 1.00363 0.79731 0.0
H1521 H 0.92872 0.92166 0.8401 0.0
H1522 H 0.95027 1.0014 0.76373 0.0
H1523 H 0.96987 0.91833 0.80548 0.0
H1524 H 0.95519 0.94228 0.67153 0.0
H1525 H 0.94906 0.97377 0.71729 0.0
H1526 H 1.00955 0.92362 0.77298 0.0
H1527 H 1.01404 0.89085 0.72747 0.0
C1528 C 0.92196 0.98559 0.8004 0.0
C1529 C 0.91423 0.96208 0.82001 0.0
C1530 C 0.94631 0.98419 0.78096 0.0
C1531 C 0.96265 0.95893 0.78024 0.0
C1532 C 0.95765 0.93795 0.80443 0.0
C1533 C 0.93365 0.93956 0.82413 0.0
C1534 C 0.96784 0.9385 0.69322 0.0
C1535 C 0.98373 0.91325 0.69663 0.0
C1536 C 0.96468 0.95687 0.7196 0.0
C1537 C 0.97749 0.95025 0.74979 0.0
C1538 C 0.99821 0.92849 0.75065 0.0
C1539 C 1.00099 0.90978 0.72437 0.0
H1540 H 0.80793 0.46499 0.28663 0.0
H1541 H 0.86711 0.52004 0.23586 0.0
H1542 H 0.83866 0.46435 0.33347 0.0
H1543 H 0.89786 0.52074 0.28381 0.0
H1544 H 0.95481 0.44152 0.31034 0.0
H1545 H 0.92718 0.48225 0.29304 0.0
H1546 H 0.87085 0.47006 0.37524 0.0
H1547 H 0.89784 0.42779 0.39121 0.0
C1548 C 0.82689 0.47827 0.28617 0.0
C1549 C 0.83584 0.49147 0.25721 0.0
C1550 C 0.8447 0.47811 0.31334 0.0
C1551 C 0.87181 0.49115 0.3119 0.0
C1552 C 0.87787 0.5092 0.28518 0.0
C1553 C 0.86025 0.5089 0.2577 0.0
C1554 C 0.93705 0.44812 0.32531 0.0
C1555 C 0.92743 0.43059 0.35087 0.0
C1556 C 0.9212 0.47189 0.31565 0.0
C1557 C 0.89545 0.47843 0.33151 0.0
C1558 C 0.88965 0.46465 0.3614 0.0
C1559 C 0.90529 0.4405 0.37076 0.0
H1560 H 0.26393 0.15913 0.02032 0.0
H1561 H 0.23616 1.09125 0.9567 0.0
H1562 H 0.26334 1.12589 0.06639 0.0
H1563 H 0.23386 1.05867 0.00211 0.0
H1564 H 0.19186 1.01477 0.07307 0.0
H1565 H 0.23608 1.03203 0.04879 0.0
H1566 H 0.22122 1.11544 0.09126 0.0
H1567 H 0.1786 1.09765 0.11651 0.0
C1568 C 0.25861 0.13684 0.01608 0.0
C1569 C 0.24897 0.12792 0.98536 0.0
C1570 C 0.25811 1.11777 0.04245 0.0
C1571 C 0.24674 1.08999 0.03861 0.0
C1572 C 0.24216 1.07993 0.00667 0.0
C1573 C 0.2433 1.09878 0.98027 0.0
C1574 C 0.19897 1.03639 0.07832 0.0
C1575 C 0.18135 1.05529 0.09545 0.0
C1576 C 0.22421 1.04639 0.06429 0.0
C1577 C 0.23138 1.0757 0.06608 0.0
C1578 C 0.2164 1.0929 0.08838 0.0
C1579 C 0.19159 1.08272 0.10296 0.0
H1580 H 0.57786 0.1431 0.64062 0.0
H1581 H 0.5515 0.20493 0.56816 0.0
H1582 H 0.53722 1.11302 0.62702 0.0
H1583 H 0.51245 0.17434 0.55277 0.0
H1584 H 0.4729 1.11454 0.49582 0.0
H1585 H 0.47591 0.14255 0.54574 0.0
H1586 H 0.54004 1.08408 0.58232 0.0
H1587 H 0.53564 1.05582 0.53378 0.0
C1588 C 0.56283 0.15079 0.62257 0.0
C1589 C 0.56862 0.17557 0.60414 0.0
C1590 C 0.53961 0.13337 0.6145 0.0
C1591 C 0.52259 0.14009 0.58722 0.0
C1592 C 0.52534 0.16766 0.57329 0.0
C1593 C 0.54814 0.18526 0.58179 0.0
C1594 C 0.48663 1.10714 0.51535 0.0
C1595 C 0.50486 1.08375 0.5106 0.0
C1596 C 0.48851 1.12322 0.54391 0.0
C1597 C 0.50951 1.11676 0.56737 0.0
C1598 C 0.52395 1.09039 0.56483 0.0
C1599 C 0.52159 1.07402 0.53667 0.0
loop_
_geom_bond_atom_site_label_1
_geom_bond_atom_site_label_2
_geom_bond_distance
_geom_bond_site_symmetry_2
_ccdc_geom_bond_type
Dy0 O3 2.307 . S
Dy0 O5 2.395 . S
Dy0 O6 2.379 . S
Dy0 O8 2.339 . S
Dy0 O10 2.298 . S
Dy0 O14 2.275 . S
Dy0 C22 2.738 . S
Dy1 O4 2.298 1_556 S
Dy1 O7 2.275 . S
Dy1 O9 2.307 1_556 S
Dy1 O11 2.395 . S
Dy1 O12 2.379 . S
Dy1 O15 2.339 1_556 S
Dy1 C31 2.738 . S
C2 O14 1.254 . S
C2 O15 1.257 . S
O3 Dy0 2.307 . S
O3 C13 1.266 . S
O4 Dy1 2.298 1_554 S
O4 C13 1.236 . S
O5 Dy0 2.395 . S
O5 C22 1.255 . S
O6 Dy0 2.379 . S
O6 C22 1.249 . S
O7 Dy1 2.275 . S
O7 C23 1.254 . S
O8 Dy0 2.339 . S
O8 C23 1.257 1_554 S
O9 Dy1 2.307 1_554 S
O9 C24 1.266 . S
O10 Dy0 2.298 . S
O10 C24 1.236 . S
O11 Dy1 2.395 . S
O11 C31 1.255 . S
O12 Dy1 2.379 . S
O12 C31 1.249 . S
C13 O3 1.266 . S
C13 O4 1.236 . S
O14 Dy0 2.275 . S
O14 C2 1.254 . S
O15 Dy1 2.339 1_554 S
O15 C2 1.257 . S
C16 C19 1.344 . S
C16 C20 1.328 . S
C16 C22 1.516 . S
C17 C18 1.304 . S
C17 C21 1.323 . S
C18 C17 1.304 . S
C18 C19 1.371 . S
C18 H32 0.930 . S
C19 C16 1.344 . S
C19 C18 1.371 . S
C19 H33 0.931 . S
C20 C16 1.328 . S
C20 C21 1.433 . S
C20 H34 0.931 . S
C21 C17 1.323 . S
C21 C20 1.433 . S
C21 H35 0.933 . S
C22 Dy0 2.738 . S
C22 O5 1.255 . S
C22 O6 1.249 . S
C22 C16 1.516 . S
C23 O7 1.254 . S
C23 O8 1.257 1_556 S
C24 O9 1.266 . S
C24 O10 1.236 . S
C25 C28 1.344 . S
C25 C29 1.328 . S
C25 C31 1.516 . S
C26 C27 1.304 . S
C26 C30 1.323 . S
C27 C26 1.304 . S
C27 C28 1.371 . S
C27 H36 0.930 . S
C28 C25 1.344 . S
C28 C27 1.371 . S
C28 H37 0.931 . S
C29 C25 1.328 . S
C29 C30 1.433 . S
C29 H38 0.931 . S
C30 C26 1.323 . S
C30 C29 1.433 . S
C30 H39 0.933 . S
C31 Dy1 2.738 . S
C31 O11 1.255 . S
C31 O12 1.249 . S
C31 C25 1.516 . S
H32 C18 0.930 . S
H33 C19 0.931 . S
H34 C20 0.931 . S
H35 C21 0.933 . S
H36 C27 0.930 . S
H37 C28 0.931 . S
H38 C29 0.931 . S
H39 C30 0.933 . S
Dy40 O43 2.307 . S
Dy40 O45 2.395 . S
Dy40 O46 2.379 . S
Dy40 O48 2.339 . S
Dy40 O50 2.298 . S
Dy40 O54 2.275 . S
Dy40 C62 2.738 . S
Dy41 O44 2.298 . S
Dy41 O47 2.275 . S
Dy41 O49 2.307 . S
Dy41 O51 2.395 . S
Dy41 O52 2.379 . S
Dy41 O55 2.339 . S
Dy41 C71 2.738 . S
C42 O54 1.254 . S
C42 O55 1.257 . S
O43 Dy40 2.307 . S
O43 C53 1.266 . S
O44 Dy41 2.298 . S
O44 C53 1.236 . S
O45 Dy40 2.395 . S
O45 C62 1.255 . S
O46 Dy40 2.379 . S
O46 C62 1.249 . S
O47 Dy41 2.275 . S
O47 C63 1.254 . S
O48 Dy40 2.339 . S
O48 C63 1.257 . S
O49 Dy41 2.307 . S
O49 C64 1.266 . S
O50 Dy40 2.298 . S
O50 C64 1.236 . S
O51 Dy41 2.395 . S
O51 C71 1.255 . S
O52 Dy41 2.379 . S
O52 C71 1.249 . S
C53 O43 1.266 . S
C53 O44 1.236 . S
O54 Dy40 2.275 . S
O54 C42 1.254 . S
O55 Dy41 2.339 . S
O55 C42 1.257 . S
C56 C59 1.344 . S
C56 C60 1.328 . S
C56 C62 1.516 . S
C57 C58 1.304 . S
C57 C61 1.323 . S
C58 C57 1.304 . S
C58 C59 1.371 . S
C58 H72 0.930 . S
C59 C56 1.344 . S
C59 C58 1.371 . S
C59 H73 0.931 . S
C60 C56 1.328 . S
C60 C61 1.433 . S
C60 H74 0.931 . S
C61 C57 1.323 . S
C61 C60 1.433 . S
C61 H75 0.933 . S
C62 Dy40 2.738 . S
C62 O45 1.255 . S
C62 O46 1.249 . S
C62 C56 1.516 . S
C63 O47 1.254 . S
C63 O48 1.257 . S
C64 O49 1.266 . S
C64 O50 1.236 . S
C65 C68 1.344 . S
C65 C69 1.328 . S
C65 C71 1.516 . S
C66 C67 1.304 . S
C66 C70 1.323 . S
C67 C66 1.304 . S
C67 C68 1.371 . S
C67 H76 0.930 . S
C68 C65 1.344 . S
C68 C67 1.371 . S
C68 H77 0.931 . S
C69 C65 1.328 . S
C69 C70 1.433 . S
C69 H78 0.931 . S
C70 C66 1.323 . S
C70 C69 1.433 . S
C70 H79 0.933 . S
C71 Dy41 2.738 . S
C71 O51 1.255 . S
C71 O52 1.249 . S
C71 C65 1.516 . S
H72 C58 0.930 . S
H73 C59 0.931 . S
H74 C60 0.931 . S
H75 C61 0.933 . S
H76 C67 0.930 . S
H77 C68 0.931 . S
H78 C69 0.931 . S
H79 C70 0.933 . S
Dy80 O83 2.307 . S
Dy80 O85 2.395 . S
Dy80 O86 2.379 . S
Dy80 O88 2.339 . S
Dy80 O90 2.298 . S
Dy80 O94 2.275 . S
Dy80 C102 2.738 . S
Dy81 O84 2.298 . S
Dy81 O87 2.275 . S
Dy81 O89 2.307 . S
Dy81 O91 2.395 . S
Dy81 O92 2.379 . S
Dy81 O95 2.339 . S
Dy81 C111 2.738 . S
C82 O94 1.254 . S
C82 O95 1.257 . S
O83 Dy80 2.307 . S
O83 C93 1.266 . S
O84 Dy81 2.298 . S
O84 C93 1.236 . S
O85 Dy80 2.395 . S
O85 C102 1.255 . S
O86 Dy80 2.379 . S
O86 C102 1.249 . S
O87 Dy81 2.275 . S
O87 C103 1.254 . S
O88 Dy80 2.339 . S
O88 C103 1.257 . S
O89 Dy81 2.307 . S
O89 C104 1.266 . S
O90 Dy80 2.298 . S
O90 C104 1.236 . S
O91 Dy81 2.395 . S
O91 C111 1.255 . S
O92 Dy81 2.379 . S
O92 C111 1.249 . S
C93 O83 1.266 . S
C93 O84 1.236 . S
O94 Dy80 2.275 . S
O94 C82 1.254 . S
O95 Dy81 2.339 . S
O95 C82 1.257 . S
C96 C99 1.344 . S
C96 C100 1.328 . S
C96 C102 1.516 . S
C97 C98 1.304 . S
C97 C101 1.323 . S
C98 C97 1.304 . S
C98 C99 1.371 . S
C98 H112 0.930 . S
C99 C96 1.344 . S
C99 C98 1.371 . S
C99 H113 0.931 . S
C100 C96 1.328 . S
C100 C101 1.433 . S
C100 H114 0.931 . S
C101 C97 1.323 . S
C101 C100 1.433 . S
C101 H115 0.933 . S
C102 Dy80 2.738 . S
C102 O85 1.255 . S
C102 O86 1.249 . S
C102 C96 1.516 . S
C103 O87 1.254 . S
C103 O88 1.257 . S
C104 O89 1.266 . S
C104 O90 1.236 . S
C105 C108 1.344 . S
C105 C109 1.328 . S
C105 C111 1.516 . S
C106 C107 1.304 . S
C106 C110 1.323 . S
C107 C106 1.304 . S
C107 C108 1.371 . S
C107 H116 0.930 . S
C108 C105 1.344 . S
C108 C107 1.371 . S
C108 H117 0.931 . S
C109 C105 1.328 . S
C109 C110 1.433 . S
C109 H118 0.931 . S
C110 C106 1.323 . S
C110 C109 1.433 . S
C110 H119 0.933 . S
C111 Dy81 2.738 . S
C111 O91 1.255 . S
C111 O92 1.249 . S
C111 C105 1.516 . S
H112 C98 0.930 . S
H113 C99 0.931 . S
H114 C100 0.931 . S
H115 C101 0.933 . S
H116 C107 0.930 . S
H117 C108 0.931 . S
H118 C109 0.931 . S
H119 C110 0.933 . S
Dy120 O123 2.307 . S
Dy120 O125 2.395 . S
Dy120 O126 2.379 . S
Dy120 O128 2.339 . S
Dy120 O130 2.298 . S
Dy120 O134 2.275 . S
Dy120 C142 2.738 . S
Dy121 O124 2.298 . S
Dy121 O127 2.275 . S
Dy121 O129 2.307 . S
Dy121 O131 2.395 . S
Dy121 O132 2.379 . S
Dy121 O135 2.339 . S
Dy121 C151 2.738 . S
C122 O134 1.254 . S
C122 O135 1.257 . S
O123 Dy120 2.307 . S
O123 C133 1.266 . S
O124 Dy121 2.298 . S
O124 C133 1.236 . S
O125 Dy120 2.395 . S
O125 C142 1.255 . S
O126 Dy120 2.379 . S
O126 C142 1.249 . S
O127 Dy121 2.275 . S
O127 C143 1.254 . S
O128 Dy120 2.339 . S
O128 C143 1.257 . S
O129 Dy121 2.307 . S
O129 C144 1.266 . S
O130 Dy120 2.298 . S
O130 C144 1.236 . S
O131 Dy121 2.395 . S
O131 C151 1.255 . S
O132 Dy121 2.379 . S
O132 C151 1.249 . S
C133 O123 1.266 . S
C133 O124 1.236 . S
O134 Dy120 2.275 . S
O134 C122 1.254 . S
O135 Dy121 2.339 . S
O135 C122 1.257 . S
C136 C139 1.344 . S
C136 C140 1.328 . S
C136 C142 1.516 . S
C137 C138 1.304 . S
C137 C141 1.323 . S
C138 C137 1.304 . S
C138 C139 1.371 . S
C138 H152 0.930 . S
C139 C136 1.344 . S
C139 C138 1.371 . S
C139 H153 0.931 . S
C140 C136 1.328 . S
C140 C141 1.433 . S
C140 H154 0.931 . S
C141 C137 1.323 . S
C141 C140 1.433 . S
C141 H155 0.933 . S
C142 Dy120 2.738 . S
C142 O125 1.255 . S
C142 O126 1.249 . S
C142 C136 1.516 . S
C143 O127 1.254 . S
C143 O128 1.257 . S
C144 O129 1.266 . S
C144 O130 1.236 . S
C145 C148 1.344 . S
C145 C149 1.328 . S
C145 C151 1.516 . S
C146 C147 1.304 . S
C146 C150 1.323 . S
C147 C146 1.304 . S
C147 C148 1.371 . S
C147 H156 0.930 . S
C148 C145 1.344 . S
C148 C147 1.371 . S
C148 H157 0.931 . S
C149 C145 1.328 . S
C149 C150 1.433 . S
C149 H158 0.931 . S
C150 C146 1.323 . S
C150 C149 1.433 . S
C150 H159 0.933 . S
C151 Dy121 2.738 . S
C151 O131 1.255 . S
C151 O132 1.249 . S
C151 C145 1.516 . S
H152 C138 0.930 . S
H153 C139 0.931 . S
H154 C140 0.931 . S
H155 C141 0.933 . S
H156 C147 0.930 . S
H157 C148 0.931 . S
H158 C149 0.931 . S
H159 C150 0.933 . S
Dy160 O163 2.307 1_554 S
Dy160 O165 2.395 . S
Dy160 O166 2.379 . S
Dy160 O168 2.339 1_554 S
Dy160 O170 2.298 1_554 S
Dy160 O174 2.275 . S
Dy160 C182 2.738 . S
Dy161 O164 2.298 . S
Dy161 O167 2.275 . S
Dy161 O169 2.307 . S
Dy161 O171 2.395 . S
Dy161 O172 2.379 . S
Dy161 O175 2.339 . S
Dy161 C191 2.738 . S
C162 O174 1.254 . S
C162 O175 1.257 1_554 S
O163 Dy160 2.307 1_556 S
O163 C173 1.266 . S
O164 Dy161 2.298 . S
O164 C173 1.236 . S
O165 Dy160 2.395 . S
O165 C182 1.255 . S
O166 Dy160 2.379 . S
O166 C182 1.249 . S
O167 Dy161 2.275 . S
O167 C183 1.254 . S
O168 Dy160 2.339 1_556 S
O168 C183 1.257 . S
O169 Dy161 2.307 . S
O169 C184 1.266 . S
O170 Dy160 2.298 1_556 S
O170 C184 1.236 . S
O171 Dy161 2.395 . S
O171 C191 1.255 . S
O172 Dy161 2.379 . S
O172 C191 1.249 . S
C173 O163 1.266 . S
C173 O164 1.236 . S
O174 Dy160 2.275 . S
O174 C162 1.254 . S
O175 Dy161 2.339 . S
O175 C162 1.257 1_556 S
C176 C179 1.344 . S
C176 C180 1.328 . S
C176 C182 1.516 . S
C177 C178 1.304 . S
C177 C181 1.323 . S
C178 C177 1.304 . S
C178 C179 1.371 . S
C178 H192 0.930 . S
C179 C176 1.344 . S
C179 C178 1.371 . S
C179 H193 0.931 . S
C180 C176 1.328 . S
C180 C181 1.433 . S
C180 H194 0.931 . S
C181 C177 1.323 . S
C181 C180 1.433 . S
C181 H195 0.933 . S
C182 Dy160 2.738 . S
C182 O165 1.255 . S
C182 O166 1.249 . S
C182 C176 1.516 . S
C183 O167 1.254 . S
C183 O168 1.257 . S
C184 O169 1.266 . S
C184 O170 1.236 . S
C185 C188 1.344 . S
C185 C189 1.328 . S
C185 C191 1.516 . S
C186 C187 1.304 . S
C186 C190 1.323 . S
C187 C186 1.304 . S
C187 C188 1.371 . S
C187 H196 0.930 . S
C188 C185 1.344 . S
C188 C187 1.371 . S
C188 H197 0.931 . S
C189 C185 1.328 . S
C189 C190 1.433 . S
C189 H198 0.931 . S
C190 C186 1.323 . S
C190 C189 1.433 . S
C190 H199 0.933 . S
C191 Dy161 2.738 . S
C191 O171 1.255 . S
C191 O172 1.249 . S
C191 C185 1.516 . S
H192 C178 0.930 . S
H193 C179 0.931 . S
H194 C180 0.931 . S
H195 C181 0.933 . S
H196 C187 0.930 . S
H197 C188 0.931 . S
H198 C189 0.931 . S
H199 C190 0.933 . S
Dy200 O203 2.307 . S
Dy200 O205 2.395 . S
Dy200 O206 2.379 . S
Dy200 O208 2.339 . S
Dy200 O210 2.298 . S
Dy200 O214 2.275 . S
Dy200 C222 2.738 . S
Dy201 O204 2.298 . S
Dy201 O207 2.275 . S
Dy201 O209 2.307 . S
Dy201 O211 2.395 . S
Dy201 O212 2.379 . S
Dy201 O215 2.339 . S
Dy201 C231 2.738 . S
C202 O214 1.254 . S
C202 O215 1.257 . S
O203 Dy200 2.307 . S
O203 C213 1.266 . S
O204 Dy201 2.298 . S
O204 C213 1.236 . S
O205 Dy200 2.395 . S
O205 C222 1.255 . S
O206 Dy200 2.379 . S
O206 C222 1.249 . S
O207 Dy201 2.275 . S
O207 C223 1.254 . S
O208 Dy200 2.339 . S
O208 C223 1.257 . S
O209 Dy201 2.307 . S
O209 C224 1.266 . S
O210 Dy200 2.298 . S
O210 C224 1.236 . S
O211 Dy201 2.395 . S
O211 C231 1.255 . S
O212 Dy201 2.379 . S
O212 C231 1.249 . S
C213 O203 1.266 . S
C213 O204 1.236 . S
O214 Dy200 2.275 . S
O214 C202 1.254 . S
O215 Dy201 2.339 . S
O215 C202 1.257 . S
C216 C219 1.344 . S
C216 C220 1.328 . S
C216 C222 1.516 . S
C217 C218 1.304 . S
C217 C221 1.323 . S
C218 C217 1.304 . S
C218 C219 1.371 . S
C218 H232 0.930 . S
C219 C216 1.344 . S
C219 C218 1.371 . S
C219 H233 0.931 . S
C220 C216 1.328 . S
C220 C221 1.433 . S
C220 H234 0.931 . S
C221 C217 1.323 . S
C221 C220 1.433 . S
C221 H235 0.933 . S
C222 Dy200 2.738 . S
C222 O205 1.255 . S
C222 O206 1.249 . S
C222 C216 1.516 . S
C223 O207 1.254 . S
C223 O208 1.257 . S
C224 O209 1.266 . S
C224 O210 1.236 . S
C225 C228 1.344 . S
C225 C229 1.328 . S
C225 C231 1.516 . S
C226 C227 1.304 . S
C226 C230 1.323 . S
C227 C226 1.304 . S
C227 C228 1.371 . S
C227 H236 0.930 . S
C228 C225 1.344 . S
C228 C227 1.371 . S
C228 H237 0.931 . S
C229 C225 1.328 . S
C229 C230 1.433 . S
C229 H238 0.931 . S
C230 C226 1.323 . S
C230 C229 1.433 . S
C230 H239 0.933 . S
C231 Dy201 2.738 . S
C231 O211 1.255 . S
C231 O212 1.249 . S
C231 C225 1.516 . S
H232 C218 0.930 . S
H233 C219 0.931 . S
H234 C220 0.931 . S
H235 C221 0.933 . S
H236 C227 0.930 . S
H237 C228 0.931 . S
H238 C229 0.931 . S
H239 C230 0.933 . S
Dy240 O243 2.307 . S
Dy240 O245 2.395 . S
Dy240 O246 2.379 . S
Dy240 O248 2.339 . S
Dy240 O250 2.298 . S
Dy240 O254 2.275 . S
Dy240 C262 2.738 . S
Dy241 O244 2.298 . S
Dy241 O247 2.275 . S
Dy241 O249 2.307 . S
Dy241 O251 2.395 . S
Dy241 O252 2.379 . S
Dy241 O255 2.339 . S
Dy241 C271 2.738 . S
C242 O254 1.254 . S
C242 O255 1.257 . S
O243 Dy240 2.307 . S
O243 C253 1.266 . S
O244 Dy241 2.298 . S
O244 C253 1.236 . S
O245 Dy240 2.395 . S
O245 C262 1.255 . S
O246 Dy240 2.379 . S
O246 C262 1.249 . S
O247 Dy241 2.275 . S
O247 C263 1.254 . S
O248 Dy240 2.339 . S
O248 C263 1.257 . S
O249 Dy241 2.307 . S
O249 C264 1.266 . S
O250 Dy240 2.298 . S
O250 C264 1.236 . S
O251 Dy241 2.395 . S
O251 C271 1.255 . S
O252 Dy241 2.379 . S
O252 C271 1.249 . S
C253 O243 1.266 . S
C253 O244 1.236 . S
O254 Dy240 2.275 . S
O254 C242 1.254 . S
O255 Dy241 2.339 . S
O255 C242 1.257 . S
C256 C259 1.344 . S
C256 C260 1.328 . S
C256 C262 1.516 . S
C257 C258 1.304 . S
C257 C261 1.323 . S
C258 C257 1.304 . S
C258 C259 1.371 . S
C258 H272 0.930 . S
C259 C256 1.344 . S
C259 C258 1.371 . S
C259 H273 0.931 . S
C260 C256 1.328 . S
C260 C261 1.433 . S
C260 H274 0.931 . S
C261 C257 1.323 . S
C261 C260 1.433 . S
C261 H275 0.933 . S
C262 Dy240 2.738 . S
C262 O245 1.255 . S
C262 O246 1.249 . S
C262 C256 1.516 . S
C263 O247 1.254 . S
C263 O248 1.257 . S
C264 O249 1.266 . S
C264 O250 1.236 . S
C265 C268 1.344 . S
C265 C269 1.328 . S
C265 C271 1.516 . S
C266 C267 1.304 . S
C266 C270 1.323 . S
C267 C266 1.304 . S
C267 C268 1.371 . S
C267 H276 0.930 . S
C268 C265 1.344 . S
C268 C267 1.371 . S
C268 H277 0.931 . S
C269 C265 1.328 . S
C269 C270 1.433 . S
C269 H278 0.931 . S
C270 C266 1.323 . S
C270 C269 1.433 . S
C270 H279 0.933 . S
C271 Dy241 2.738 . S
C271 O251 1.255 . S
C271 O252 1.249 . S
C271 C265 1.516 . S
H272 C258 0.930 . S
H273 C259 0.931 . S
H274 C260 0.931 . S
H275 C261 0.933 . S
H276 C267 0.930 . S
H277 C268 0.931 . S
H278 C269 0.931 . S
H279 C270 0.933 . S
Dy280 O283 2.307 . S
Dy280 O285 2.395 . S
Dy280 O286 2.379 . S
Dy280 O288 2.339 . S
Dy280 O290 2.298 . S
Dy280 O294 2.275 . S
Dy280 C302 2.738 . S
Dy281 O284 2.298 . S
Dy281 O287 2.275 . S
Dy281 O289 2.307 . S
Dy281 O291 2.395 . S
Dy281 O292 2.379 . S
Dy281 O295 2.339 . S
Dy281 C311 2.738 . S
C282 O294 1.254 . S
C282 O295 1.257 . S
O283 Dy280 2.307 . S
O283 C293 1.266 . S
O284 Dy281 2.298 . S
O284 C293 1.236 . S
O285 Dy280 2.395 . S
O285 C302 1.255 . S
O286 Dy280 2.379 . S
O286 C302 1.249 . S
O287 Dy281 2.275 . S
O287 C303 1.254 . S
O288 Dy280 2.339 . S
O288 C303 1.257 . S
O289 Dy281 2.307 . S
O289 C304 1.266 . S
O290 Dy280 2.298 . S
O290 C304 1.236 . S
O291 Dy281 2.395 . S
O291 C311 1.255 . S
O292 Dy281 2.379 . S
O292 C311 1.249 . S
C293 O283 1.266 . S
C293 O284 1.236 . S
O294 Dy280 2.275 . S
O294 C282 1.254 . S
O295 Dy281 2.339 . S
O295 C282 1.257 . S
C296 C299 1.344 . S
C296 C300 1.328 . S
C296 C302 1.516 . S
C297 C298 1.304 . S
C297 C301 1.323 . S
C298 C297 1.304 . S
C298 C299 1.371 . S
C298 H312 0.930 . S
C299 C296 1.344 . S
C299 C298 1.371 . S
C299 H313 0.931 . S
C300 C296 1.328 . S
C300 C301 1.433 . S
C300 H314 0.931 . S
C301 C297 1.323 . S
C301 C300 1.433 . S
C301 H315 0.933 . S
C302 Dy280 2.738 . S
C302 O285 1.255 . S
C302 O286 1.249 . S
C302 C296 1.516 . S
C303 O287 1.254 . S
C303 O288 1.257 . S
C304 O289 1.266 . S
C304 O290 1.236 . S
C305 C308 1.344 . S
C305 C309 1.328 . S
C305 C311 1.516 . S
C306 C307 1.304 . S
C306 C310 1.323 . S
C307 C306 1.304 . S
C307 C308 1.371 . S
C307 H316 0.930 . S
C308 C305 1.344 . S
C308 C307 1.371 . S
C308 H317 0.931 . S
C309 C305 1.328 . S
C309 C310 1.433 . S
C309 H318 0.931 . S
C310 C306 1.323 . S
C310 C309 1.433 . S
C310 H319 0.933 . S
C311 Dy281 2.738 . S
C311 O291 1.255 . S
C311 O292 1.249 . S
C311 C305 1.516 . S
H312 C298 0.930 . S
H313 C299 0.931 . S
H314 C300 0.931 . S
H315 C301 0.933 . S
H316 C307 0.930 . S
H317 C308 0.931 . S
H318 C309 0.931 . S
H319 C310 0.933 . S
Dy320 O323 2.307 . S
Dy320 O325 2.395 . S
Dy320 O326 2.379 . S
Dy320 O328 2.339 . S
Dy320 O330 2.298 . S
Dy320 O334 2.275 . S
Dy320 C342 2.738 . S
Dy321 O324 2.298 . S
Dy321 O327 2.275 . S
Dy321 O329 2.307 . S
Dy321 O331 2.395 . S
Dy321 O332 2.379 . S
Dy321 O335 2.339 . S
Dy321 C351 2.738 . S
C322 O334 1.254 . S
C322 O335 1.257 . S
O323 Dy320 2.307 . S
O323 C333 1.266 . S
O324 Dy321 2.298 . S
O324 C333 1.236 . S
O325 Dy320 2.395 . S
O325 C342 1.255 . S
O326 Dy320 2.379 . S
O326 C342 1.249 . S
O327 Dy321 2.275 . S
O327 C343 1.254 . S
O328 Dy320 2.339 . S
O328 C343 1.257 . S
O329 Dy321 2.307 . S
O329 C344 1.266 . S
O330 Dy320 2.298 . S
O330 C344 1.236 . S
O331 Dy321 2.395 . S
O331 C351 1.255 . S
O332 Dy321 2.379 . S
O332 C351 1.249 . S
C333 O323 1.266 . S
C333 O324 1.236 . S
O334 Dy320 2.275 . S
O334 C322 1.254 . S
O335 Dy321 2.339 . S
O335 C322 1.257 . S
C336 C339 1.344 . S
C336 C340 1.328 . S
C336 C342 1.516 . S
C337 C338 1.304 . S
C337 C341 1.323 . S
C338 C337 1.304 . S
C338 C339 1.371 . S
C338 H352 0.930 . S
C339 C336 1.344 . S
C339 C338 1.371 . S
C339 H353 0.931 . S
C340 C336 1.328 . S
C340 C341 1.433 . S
C340 H354 0.931 . S
C341 C337 1.323 . S
C341 C340 1.433 . S
C341 H355 0.933 . S
C342 Dy320 2.738 . S
C342 O325 1.255 . S
C342 O326 1.249 . S
C342 C336 1.516 . S
C343 O327 1.254 . S
C343 O328 1.257 . S
C344 O329 1.266 . S
C344 O330 1.236 . S
C345 C348 1.344 . S
C345 C349 1.328 . S
C345 C351 1.516 . S
C346 C347 1.304 . S
C346 C350 1.323 . S
C347 C346 1.304 . S
C347 C348 1.371 . S
C347 H356 0.930 . S
C348 C345 1.344 . S
C348 C347 1.371 . S
C348 H357 0.931 . S
C349 C345 1.328 . S
C349 C350 1.433 . S
C349 H358 0.931 . S
C350 C346 1.323 . S
C350 C349 1.433 . S
C350 H359 0.933 . S
C351 Dy321 2.738 . S
C351 O331 1.255 . S
C351 O332 1.249 . S
C351 C345 1.516 . S
H352 C338 0.930 . S
H353 C339 0.931 . S
H354 C340 0.931 . S
H355 C341 0.933 . S
H356 C347 0.930 . S
H357 C348 0.931 . S
H358 C349 0.931 . S
H359 C350 0.933 . S
Dy360 O363 2.307 . S
Dy360 O365 2.395 . S
Dy360 O366 2.379 . S
Dy360 O368 2.339 . S
Dy360 O370 2.298 . S
Dy360 O374 2.275 . S
Dy360 C382 2.738 . S
Dy361 O364 2.298 . S
Dy361 O367 2.275 . S
Dy361 O369 2.307 . S
Dy361 O371 2.395 . S
Dy361 O372 2.379 . S
Dy361 O375 2.339 . S
Dy361 C391 2.738 . S
C362 O374 1.254 . S
C362 O375 1.257 . S
O363 Dy360 2.307 . S
O363 C373 1.266 . S
O364 Dy361 2.298 . S
O364 C373 1.236 . S
O365 Dy360 2.395 . S
O365 C382 1.255 . S
O366 Dy360 2.379 . S
O366 C382 1.249 . S
O367 Dy361 2.275 . S
O367 C383 1.254 . S
O368 Dy360 2.339 . S
O368 C383 1.257 . S
O369 Dy361 2.307 . S
O369 C384 1.266 . S
O370 Dy360 2.298 . S
O370 C384 1.236 . S
O371 Dy361 2.395 . S
O371 C391 1.255 . S
O372 Dy361 2.379 . S
O372 C391 1.249 . S
C373 O363 1.266 . S
C373 O364 1.236 . S
O374 Dy360 2.275 . S
O374 C362 1.254 . S
O375 Dy361 2.339 . S
O375 C362 1.257 . S
C376 C379 1.344 . S
C376 C380 1.328 . S
C376 C382 1.516 . S
C377 C378 1.304 . S
C377 C381 1.323 . S
C378 C377 1.304 . S
C378 C379 1.371 . S
C378 H392 0.930 . S
C379 C376 1.344 . S
C379 C378 1.371 . S
C379 H393 0.931 . S
C380 C376 1.328 . S
C380 C381 1.433 . S
C380 H394 0.931 . S
C381 C377 1.323 . S
C381 C380 1.433 . S
C381 H395 0.933 . S
C382 Dy360 2.738 . S
C382 O365 1.255 . S
C382 O366 1.249 . S
C382 C376 1.516 . S
C383 O367 1.254 . S
C383 O368 1.257 . S
C384 O369 1.266 . S
C384 O370 1.236 . S
C385 C388 1.344 . S
C385 C389 1.328 . S
C385 C391 1.516 . S
C386 C387 1.304 . S
C386 C390 1.323 . S
C387 C386 1.304 . S
C387 C388 1.371 . S
C387 H396 0.930 . S
C388 C385 1.344 . S
C388 C387 1.371 . S
C388 H397 0.931 . S
C389 C385 1.328 . S
C389 C390 1.433 . S
C389 H398 0.931 . S
C390 C386 1.323 . S
C390 C389 1.433 . S
C390 H399 0.933 . S
C391 Dy361 2.738 . S
C391 O371 1.255 . S
C391 O372 1.249 . S
C391 C385 1.516 . S
H392 C378 0.930 . S
H393 C379 0.931 . S
H394 C380 0.931 . S
H395 C381 0.933 . S
H396 C387 0.930 . S
H397 C388 0.931 . S
H398 C389 0.931 . S
H399 C390 0.933 . S
Dy400 O403 2.307 . S
Dy400 O405 2.395 . S
Dy400 O406 2.379 . S
Dy400 O408 2.339 . S
Dy400 O410 2.298 . S
Dy400 O414 2.275 . S
Dy400 C422 2.738 . S
Dy401 O404 2.298 1_556 S
Dy401 O407 2.275 . S
Dy401 O409 2.307 1_556 S
Dy401 O411 2.395 . S
Dy401 O412 2.379 . S
Dy401 O415 2.339 1_556 S
Dy401 C431 2.738 . S
C402 O414 1.254 . S
C402 O415 1.257 . S
O403 Dy400 2.307 . S
O403 C413 1.266 . S
O404 Dy401 2.298 1_554 S
O404 C413 1.236 . S
O405 Dy400 2.395 . S
O405 C422 1.255 . S
O406 Dy400 2.379 . S
O406 C422 1.249 . S
O407 Dy401 2.275 . S
O407 C423 1.254 . S
O408 Dy400 2.339 . S
O408 C423 1.257 1_554 S
O409 Dy401 2.307 1_554 S
O409 C424 1.266 . S
O410 Dy400 2.298 . S
O410 C424 1.236 . S
O411 Dy401 2.395 . S
O411 C431 1.255 . S
O412 Dy401 2.379 . S
O412 C431 1.249 . S
C413 O403 1.266 . S
C413 O404 1.236 . S
O414 Dy400 2.275 . S
O414 C402 1.254 . S
O415 Dy401 2.339 1_554 S
O415 C402 1.257 . S
C416 C419 1.344 . S
C416 C420 1.328 . S
C416 C422 1.516 . S
C417 C418 1.304 . S
C417 C421 1.323 . S
C418 C417 1.304 . S
C418 C419 1.371 . S
C418 H432 0.930 . S
C419 C416 1.344 . S
C419 C418 1.371 . S
C419 H433 0.931 . S
C420 C416 1.328 . S
C420 C421 1.433 . S
C420 H434 0.931 . S
C421 C417 1.323 . S
C421 C420 1.433 . S
C421 H435 0.933 . S
C422 Dy400 2.738 . S
C422 O405 1.255 . S
C422 O406 1.249 . S
C422 C416 1.516 . S
C423 O407 1.254 . S
C423 O408 1.257 1_556 S
C424 O409 1.266 . S
C424 O410 1.236 . S
C425 C428 1.344 . S
C425 C429 1.328 . S
C425 C431 1.516 . S
C426 C427 1.304 . S
C426 C430 1.323 . S
C427 C426 1.304 . S
C427 C428 1.371 . S
C427 H436 0.930 . S
C428 C425 1.344 . S
C428 C427 1.371 . S
C428 H437 0.931 . S
C429 C425 1.328 . S
C429 C430 1.433 . S
C429 H438 0.931 . S
C430 C426 1.323 . S
C430 C429 1.433 . S
C430 H439 0.933 . S
C431 Dy401 2.738 . S
C431 O411 1.255 . S
C431 O412 1.249 . S
C431 C425 1.516 . S
H432 C418 0.930 . S
H433 C419 0.931 . S
H434 C420 0.931 . S
H435 C421 0.933 . S
H436 C427 0.930 . S
H437 C428 0.931 . S
H438 C429 0.931 . S
H439 C430 0.933 . S
Dy440 O443 2.307 . S
Dy440 O445 2.395 . S
Dy440 O446 2.379 . S
Dy440 O448 2.339 . S
Dy440 O450 2.298 . S
Dy440 O454 2.275 . S
Dy440 C462 2.738 . S
Dy441 O444 2.298 . S
Dy441 O447 2.275 . S
Dy441 O449 2.307 . S
Dy441 O451 2.395 . S
Dy441 O452 2.379 . S
Dy441 O455 2.339 . S
Dy441 C471 2.738 . S
C442 O454 1.254 . S
C442 O455 1.257 . S
O443 Dy440 2.307 . S
O443 C453 1.266 . S
O444 Dy441 2.298 . S
O444 C453 1.236 . S
O445 Dy440 2.395 . S
O445 C462 1.255 . S
O446 Dy440 2.379 . S
O446 C462 1.249 . S
O447 Dy441 2.275 . S
O447 C463 1.254 . S
O448 Dy440 2.339 . S
O448 C463 1.257 . S
O449 Dy441 2.307 . S
O449 C464 1.266 . S
O450 Dy440 2.298 . S
O450 C464 1.236 . S
O451 Dy441 2.395 . S
O451 C471 1.255 . S
O452 Dy441 2.379 . S
O452 C471 1.249 . S
C453 O443 1.266 . S
C453 O444 1.236 . S
O454 Dy440 2.275 . S
O454 C442 1.254 . S
O455 Dy441 2.339 . S
O455 C442 1.257 . S
C456 C459 1.344 . S
C456 C460 1.328 . S
C456 C462 1.516 . S
C457 C458 1.304 . S
C457 C461 1.323 . S
C458 C457 1.304 . S
C458 C459 1.371 . S
C458 H472 0.930 . S
C459 C456 1.344 . S
C459 C458 1.371 . S
C459 H473 0.931 . S
C460 C456 1.328 . S
C460 C461 1.433 . S
C460 H474 0.931 . S
C461 C457 1.323 . S
C461 C460 1.433 . S
C461 H475 0.933 . S
C462 Dy440 2.738 . S
C462 O445 1.255 . S
C462 O446 1.249 . S
C462 C456 1.516 . S
C463 O447 1.254 . S
C463 O448 1.257 . S
C464 O449 1.266 . S
C464 O450 1.236 . S
C465 C468 1.344 . S
C465 C469 1.328 . S
C465 C471 1.516 . S
C466 C467 1.304 . S
C466 C470 1.323 . S
C467 C466 1.304 . S
C467 C468 1.371 . S
C467 H476 0.930 . S
C468 C465 1.344 . S
C468 C467 1.371 . S
C468 H477 0.931 . S
C469 C465 1.328 . S
C469 C470 1.433 . S
C469 H478 0.931 . S
C470 C466 1.323 . S
C470 C469 1.433 . S
C470 H479 0.933 . S
C471 Dy441 2.738 . S
C471 O451 1.255 . S
C471 O452 1.249 . S
C471 C465 1.516 . S
H472 C458 0.930 . S
H473 C459 0.931 . S
H474 C460 0.931 . S
H475 C461 0.933 . S
H476 C467 0.930 . S
H477 C468 0.931 . S
H478 C469 0.931 . S
H479 C470 0.933 . S
Dy480 O483 2.307 . S
Dy480 O485 2.395 . S
Dy480 O486 2.379 . S
Dy480 O488 2.339 . S
Dy480 O490 2.298 . S
Dy480 O494 2.275 . S
Dy480 C502 2.738 . S
Dy481 O484 2.298 . S
Dy481 O487 2.275 . S
Dy481 O489 2.307 . S
Dy481 O491 2.395 . S
Dy481 O492 2.379 . S
Dy481 O495 2.339 . S
Dy481 C511 2.738 . S
C482 O494 1.254 . S
C482 O495 1.257 . S
O483 Dy480 2.307 . S
O483 C493 1.266 . S
O484 Dy481 2.298 . S
O484 C493 1.236 . S
O485 Dy480 2.395 . S
O485 C502 1.255 . S
O486 Dy480 2.379 . S
O486 C502 1.249 . S
O487 Dy481 2.275 . S
O487 C503 1.254 . S
O488 Dy480 2.339 . S
O488 C503 1.257 . S
O489 Dy481 2.307 . S
O489 C504 1.266 . S
O490 Dy480 2.298 . S
O490 C504 1.236 . S
O491 Dy481 2.395 . S
O491 C511 1.255 . S
O492 Dy481 2.379 . S
O492 C511 1.249 . S
C493 O483 1.266 . S
C493 O484 1.236 . S
O494 Dy480 2.275 . S
O494 C482 1.254 . S
O495 Dy481 2.339 . S
O495 C482 1.257 . S
C496 C499 1.344 . S
C496 C500 1.328 . S
C496 C502 1.516 . S
C497 C498 1.304 . S
C497 C501 1.323 . S
C498 C497 1.304 . S
C498 C499 1.371 . S
C498 H512 0.930 . S
C499 C496 1.344 . S
C499 C498 1.371 . S
C499 H513 0.931 . S
C500 C496 1.328 . S
C500 C501 1.433 . S
C500 H514 0.931 . S
C501 C497 1.323 . S
C501 C500 1.433 . S
C501 H515 0.933 . S
C502 Dy480 2.738 . S
C502 O485 1.255 . S
C502 O486 1.249 . S
C502 C496 1.516 . S
C503 O487 1.254 . S
C503 O488 1.257 . S
C504 O489 1.266 . S
C504 O490 1.236 . S
C505 C508 1.344 . S
C505 C509 1.328 . S
C505 C511 1.516 . S
C506 C507 1.304 . S
C506 C510 1.323 . S
C507 C506 1.304 . S
C507 C508 1.371 . S
C507 H516 0.930 . S
C508 C505 1.344 . S
C508 C507 1.371 . S
C508 H517 0.931 . S
C509 C505 1.328 . S
C509 C510 1.433 . S
C509 H518 0.931 . S
C510 C506 1.323 . S
C510 C509 1.433 . S
C510 H519 0.933 . S
C511 Dy481 2.738 . S
C511 O491 1.255 . S
C511 O492 1.249 . S
C511 C505 1.516 . S
H512 C498 0.930 . S
H513 C499 0.931 . S
H514 C500 0.931 . S
H515 C501 0.933 . S
H516 C507 0.930 . S
H517 C508 0.931 . S
H518 C509 0.931 . S
H519 C510 0.933 . S
Dy520 O523 2.307 . S
Dy520 O525 2.395 . S
Dy520 O526 2.379 . S
Dy520 O528 2.339 . S
Dy520 O530 2.298 . S
Dy520 O534 2.275 . S
Dy520 C542 2.738 . S
Dy521 O524 2.298 . S
Dy521 O527 2.275 . S
Dy521 O529 2.307 . S
Dy521 O531 2.395 . S
Dy521 O532 2.379 . S
Dy521 O535 2.339 . S
Dy521 C551 2.738 . S
C522 O534 1.254 . S
C522 O535 1.257 . S
O523 Dy520 2.307 . S
O523 C533 1.266 . S
O524 Dy521 2.298 . S
O524 C533 1.236 . S
O525 Dy520 2.395 . S
O525 C542 1.255 . S
O526 Dy520 2.379 . S
O526 C542 1.249 . S
O527 Dy521 2.275 . S
O527 C543 1.254 . S
O528 Dy520 2.339 . S
O528 C543 1.257 . S
O529 Dy521 2.307 . S
O529 C544 1.266 . S
O530 Dy520 2.298 . S
O530 C544 1.236 . S
O531 Dy521 2.395 . S
O531 C551 1.255 . S
O532 Dy521 2.379 . S
O532 C551 1.249 . S
C533 O523 1.266 . S
C533 O524 1.236 . S
O534 Dy520 2.275 . S
O534 C522 1.254 . S
O535 Dy521 2.339 . S
O535 C522 1.257 . S
C536 C539 1.344 . S
C536 C540 1.328 . S
C536 C542 1.516 . S
C537 C538 1.304 . S
C537 C541 1.323 . S
C538 C537 1.304 . S
C538 C539 1.371 . S
C538 H552 0.930 . S
C539 C536 1.344 . S
C539 C538 1.371 . S
C539 H553 0.931 . S
C540 C536 1.328 . S
C540 C541 1.433 . S
C540 H554 0.931 . S
C541 C537 1.323 . S
C541 C540 1.433 . S
C541 H555 0.933 . S
C542 Dy520 2.738 . S
C542 O525 1.255 . S
C542 O526 1.249 . S
C542 C536 1.516 . S
C543 O527 1.254 . S
C543 O528 1.257 . S
C544 O529 1.266 . S
C544 O530 1.236 . S
C545 C548 1.344 . S
C545 C549 1.328 . S
C545 C551 1.516 . S
C546 C547 1.304 . S
C546 C550 1.323 . S
C547 C546 1.304 . S
C547 C548 1.371 . S
C547 H556 0.930 . S
C548 C545 1.344 . S
C548 C547 1.371 . S
C548 H557 0.931 . S
C549 C545 1.328 . S
C549 C550 1.433 . S
C549 H558 0.931 . S
C550 C546 1.323 . S
C550 C549 1.433 . S
C550 H559 0.933 . S
C551 Dy521 2.738 . S
C551 O531 1.255 . S
C551 O532 1.249 . S
C551 C545 1.516 . S
H552 C538 0.930 . S
H553 C539 0.931 . S
H554 C540 0.931 . S
H555 C541 0.933 . S
H556 C547 0.930 . S
H557 C548 0.931 . S
H558 C549 0.931 . S
H559 C550 0.933 . S
Dy560 O563 2.307 1_554 S
Dy560 O565 2.395 . S
Dy560 O566 2.379 . S
Dy560 O568 2.339 1_554 S
Dy560 O570 2.298 1_554 S
Dy560 O574 2.275 . S
Dy560 C582 2.738 . S
Dy561 O564 2.298 . S
Dy561 O567 2.275 . S
Dy561 O569 2.307 . S
Dy561 O571 2.395 . S
Dy561 O572 2.379 . S
Dy561 O575 2.339 . S
Dy561 C591 2.738 . S
C562 O574 1.254 . S
C562 O575 1.257 1_554 S
O563 Dy560 2.307 1_556 S
O563 C573 1.266 . S
O564 Dy561 2.298 . S
O564 C573 1.236 . S
O565 Dy560 2.395 . S
O565 C582 1.255 . S
O566 Dy560 2.379 . S
O566 C582 1.249 . S
O567 Dy561 2.275 . S
O567 C583 1.254 . S
O568 Dy560 2.339 1_556 S
O568 C583 1.257 . S
O569 Dy561 2.307 . S
O569 C584 1.266 . S
O570 Dy560 2.298 1_556 S
O570 C584 1.236 . S
O571 Dy561 2.395 . S
O571 C591 1.255 . S
O572 Dy561 2.379 . S
O572 C591 1.249 . S
C573 O563 1.266 . S
C573 O564 1.236 . S
O574 Dy560 2.275 . S
O574 C562 1.254 . S
O575 Dy561 2.339 . S
O575 C562 1.257 1_556 S
C576 C579 1.344 . S
C576 C580 1.328 . S
C576 C582 1.516 . S
C577 C578 1.304 . S
C577 C581 1.323 . S
C578 C577 1.304 . S
C578 C579 1.371 . S
C578 H592 0.930 . S
C579 C576 1.344 . S
C579 C578 1.371 . S
C579 H593 0.931 . S
C580 C576 1.328 . S
C580 C581 1.433 . S
C580 H594 0.931 . S
C581 C577 1.323 . S
C581 C580 1.433 . S
C581 H595 0.933 . S
C582 Dy560 2.738 . S
C582 O565 1.255 . S
C582 O566 1.249 . S
C582 C576 1.516 . S
C583 O567 1.254 . S
C583 O568 1.257 . S
C584 O569 1.266 . S
C584 O570 1.236 . S
C585 C588 1.344 . S
C585 C589 1.328 . S
C585 C591 1.516 . S
C586 C587 1.304 . S
C586 C590 1.323 . S
C587 C586 1.304 . S
C587 C588 1.371 . S
C587 H596 0.930 . S
C588 C585 1.344 . S
C588 C587 1.371 . S
C588 H597 0.931 . S
C589 C585 1.328 . S
C589 C590 1.433 . S
C589 H598 0.931 . S
C590 C586 1.323 . S
C590 C589 1.433 . S
C590 H599 0.933 . S
C591 Dy561 2.738 . S
C591 O571 1.255 . S
C591 O572 1.249 . S
C591 C585 1.516 . S
H592 C578 0.930 . S
H593 C579 0.931 . S
H594 C580 0.931 . S
H595 C581 0.933 . S
H596 C587 0.930 . S
H597 C588 0.931 . S
H598 C589 0.931 . S
H599 C590 0.933 . S
Dy600 O603 2.307 . S
Dy600 O605 2.395 . S
Dy600 O606 2.379 . S
Dy600 O608 2.339 . S
Dy600 O610 2.298 . S
Dy600 O614 2.275 . S
Dy600 C622 2.738 . S
Dy601 O604 2.298 . S
Dy601 O607 2.275 . S
Dy601 O609 2.307 . S
Dy601 O611 2.395 . S
Dy601 O612 2.379 . S
Dy601 O615 2.339 . S
Dy601 C631 2.738 . S
C602 O614 1.254 . S
C602 O615 1.257 . S
O603 Dy600 2.307 . S
O603 C613 1.266 . S
O604 Dy601 2.298 . S
O604 C613 1.236 . S
O605 Dy600 2.395 . S
O605 C622 1.255 . S
O606 Dy600 2.379 . S
O606 C622 1.249 . S
O607 Dy601 2.275 . S
O607 C623 1.254 . S
O608 Dy600 2.339 . S
O608 C623 1.257 . S
O609 Dy601 2.307 . S
O609 C624 1.266 . S
O610 Dy600 2.298 . S
O610 C624 1.236 . S
O611 Dy601 2.395 . S
O611 C631 1.255 . S
O612 Dy601 2.379 . S
O612 C631 1.249 . S
C613 O603 1.266 . S
C613 O604 1.236 . S
O614 Dy600 2.275 . S
O614 C602 1.254 . S
O615 Dy601 2.339 . S
O615 C602 1.257 . S
C616 C619 1.344 . S
C616 C620 1.328 . S
C616 C622 1.516 . S
C617 C618 1.304 . S
C617 C621 1.323 . S
C618 C617 1.304 . S
C618 C619 1.371 . S
C618 H632 0.930 . S
C619 C616 1.344 . S
C619 C618 1.371 . S
C619 H633 0.931 . S
C620 C616 1.328 . S
C620 C621 1.433 . S
C620 H634 0.931 . S
C621 C617 1.323 . S
C621 C620 1.433 . S
C621 H635 0.933 . S
C622 Dy600 2.738 . S
C622 O605 1.255 . S
C622 O606 1.249 . S
C622 C616 1.516 . S
C623 O607 1.254 . S
C623 O608 1.257 . S
C624 O609 1.266 . S
C624 O610 1.236 . S
C625 C628 1.344 . S
C625 C629 1.328 . S
C625 C631 1.516 . S
C626 C627 1.304 . S
C626 C630 1.323 . S
C627 C626 1.304 . S
C627 C628 1.371 . S
C627 H636 0.930 . S
C628 C625 1.344 . S
C628 C627 1.371 . S
C628 H637 0.931 . S
C629 C625 1.328 . S
C629 C630 1.433 . S
C629 H638 0.931 . S
C630 C626 1.323 . S
C630 C629 1.433 . S
C630 H639 0.933 . S
C631 Dy601 2.738 . S
C631 O611 1.255 . S
C631 O612 1.249 . S
C631 C625 1.516 . S
H632 C618 0.930 . S
H633 C619 0.931 . S
H634 C620 0.931 . S
H635 C621 0.933 . S
H636 C627 0.930 . S
H637 C628 0.931 . S
H638 C629 0.931 . S
H639 C630 0.933 . S
H640 C648 0.950 . S
H641 C653 0.950 . S
H642 C650 0.950 . S
H643 C652 0.950 . S
H644 C654 0.950 . S
H645 C656 0.950 . S
H646 C658 0.950 . S
H647 C659 0.950 . S
C648 H640 0.950 . S
C648 C649 1.386 . S
C648 C650 1.391 . S
C649 C648 1.386 . S
C649 C653 1.393 . S
C650 H642 0.950 . S
C650 C648 1.391 . S
C650 C651 1.400 . S
C651 C650 1.400 . S
C651 C652 1.398 . S
C651 C657 1.491 . S
C652 H643 0.950 . S
C652 C651 1.398 . S
C652 C653 1.391 . S
C653 H641 0.950 . S
C653 C649 1.393 . S
C653 C652 1.391 . S
C654 H644 0.950 . S
C654 C655 1.386 . S
C654 C656 1.391 . S
C655 C654 1.386 . S
C655 C659 1.393 . S
C656 H645 0.950 . S
C656 C654 1.391 . S
C656 C657 1.400 . S
C657 C651 1.491 . S
C657 C656 1.400 . S
C657 C658 1.398 . S
C658 H646 0.950 . S
C658 C657 1.398 . S
C658 C659 1.391 . S
C659 H647 0.950 . S
C659 C655 1.393 . S
C659 C658 1.391 . S
H660 C668 0.950 . S
H661 C673 0.950 . S
H662 C670 0.950 . S
H663 C672 0.950 . S
H664 C674 0.950 . S
H665 C676 0.950 . S
H666 C678 0.950 . S
H667 C679 0.950 . S
C668 H660 0.950 . S
C668 C669 1.386 . S
C668 C670 1.391 . S
C669 C668 1.386 . S
C669 C673 1.393 . S
C670 H662 0.950 . S
C670 C668 1.391 . S
C670 C671 1.400 . S
C671 C670 1.400 . S
C671 C672 1.398 . S
C671 C677 1.491 . S
C672 H663 0.950 . S
C672 C671 1.398 . S
C672 C673 1.391 . S
C673 H661 0.950 . S
C673 C669 1.393 . S
C673 C672 1.391 . S
C674 H664 0.950 . S
C674 C675 1.386 . S
C674 C676 1.391 . S
C675 C674 1.386 . S
C675 C679 1.393 . S
C676 H665 0.950 . S
C676 C674 1.391 . S
C676 C677 1.400 . S
C677 C671 1.491 . S
C677 C676 1.400 . S
C677 C678 1.398 . S
C678 H666 0.950 . S
C678 C677 1.398 . S
C678 C679 1.391 . S
C679 H667 0.950 . S
C679 C675 1.393 . S
C679 C678 1.391 . S
H680 C688 0.950 . S
H681 C693 0.950 . S
H682 C690 0.950 . S
H683 C692 0.950 1_655 S
H684 C694 0.950 . S
H685 C696 0.950 . S
H686 C698 0.950 1_455 S
H687 C699 0.950 . S
C688 H680 0.950 . S
C688 C689 1.386 . S
C688 C690 1.391 . S
C689 C688 1.386 . S
C689 C693 1.393 . S
C690 H682 0.950 . S
C690 C688 1.391 . S
C690 C691 1.400 . S
C691 C690 1.400 . S
C691 C692 1.398 . S
C691 C697 1.491 1_455 S
C692 H683 0.950 1_455 S
C692 C691 1.398 . S
C692 C693 1.391 . S
C693 H681 0.950 . S
C693 C689 1.393 . S
C693 C692 1.391 . S
C694 H684 0.950 . S
C694 C695 1.386 . S
C694 C696 1.391 . S
C695 C694 1.386 . S
C695 C699 1.393 . S
C696 H685 0.950 . S
C696 C694 1.391 . S
C696 C697 1.400 . S
C697 C691 1.491 1_655 S
C697 C696 1.400 . S
C697 C698 1.398 . S
C698 H686 0.950 1_655 S
C698 C697 1.398 . S
C698 C699 1.391 . S
C699 H687 0.950 . S
C699 C695 1.393 . S
C699 C698 1.391 . S
H700 C708 0.950 . S
H701 C713 0.950 . S
H702 C710 0.950 . S
H703 C712 0.950 . S
H704 C714 0.950 . S
H705 C716 0.950 . S
H706 C718 0.950 . S
H707 C719 0.950 . S
C708 H700 0.950 . S
C708 C709 1.386 . S
C708 C710 1.391 . S
C709 C708 1.386 . S
C709 C713 1.393 . S
C710 H702 0.950 . S
C710 C708 1.391 . S
C710 C711 1.400 . S
C711 C710 1.400 . S
C711 C712 1.398 . S
C711 C717 1.491 1_655 S
C712 H703 0.950 . S
C712 C711 1.398 . S
C712 C713 1.391 . S
C713 H701 0.950 . S
C713 C709 1.393 . S
C713 C712 1.391 . S
C714 H704 0.950 . S
C714 C715 1.386 . S
C714 C716 1.391 . S
C715 C714 1.386 . S
C715 C719 1.393 . S
C716 H705 0.950 . S
C716 C714 1.391 . S
C716 C717 1.400 . S
C717 C711 1.491 1_455 S
C717 C716 1.400 . S
C717 C718 1.398 . S
C718 H706 0.950 . S
C718 C717 1.398 . S
C718 C719 1.391 . S
C719 H707 0.950 . S
C719 C715 1.393 . S
C719 C718 1.391 . S
H720 C728 0.950 . S
H721 C733 0.950 . S
H722 C730 0.950 . S
H723 C732 0.950 . S
H724 C734 0.950 . S
H725 C736 0.950 . S
H726 C738 0.950 . S
H727 C739 0.950 . S
C728 H720 0.950 . S
C728 C729 1.386 . S
C728 C730 1.391 . S
C729 C728 1.386 . S
C729 C733 1.393 . S
C730 H722 0.950 . S
C730 C728 1.391 . S
C730 C731 1.400 . S
C731 C730 1.400 . S
C731 C732 1.398 . S
C731 C737 1.491 . S
C732 H723 0.950 . S
C732 C731 1.398 . S
C732 C733 1.391 . S
C733 H721 0.950 . S
C733 C729 1.393 . S
C733 C732 1.391 . S
C734 H724 0.950 . S
C734 C735 1.386 . S
C734 C736 1.391 . S
C735 C734 1.386 . S
C735 C739 1.393 . S
C736 H725 0.950 . S
C736 C734 1.391 . S
C736 C737 1.400 . S
C737 C731 1.491 . S
C737 C736 1.400 . S
C737 C738 1.398 . S
C738 H726 0.950 . S
C738 C737 1.398 . S
C738 C739 1.391 . S
C739 H727 0.950 . S
C739 C735 1.393 . S
C739 C738 1.391 . S
H740 C748 0.950 . S
H741 C753 0.950 . S
H742 C750 0.950 . S
H743 C752 0.950 . S
H744 C754 0.950 . S
H745 C756 0.950 . S
H746 C758 0.950 . S
H747 C759 0.950 . S
C748 H740 0.950 . S
C748 C749 1.386 . S
C748 C750 1.391 . S
C749 C748 1.386 . S
C749 C753 1.393 . S
C750 H742 0.950 . S
C750 C748 1.391 . S
C750 C751 1.400 . S
C751 C750 1.400 . S
C751 C752 1.398 . S
C751 C757 1.491 . S
C752 H743 0.950 . S
C752 C751 1.398 . S
C752 C753 1.391 . S
C753 H741 0.950 . S
C753 C749 1.393 . S
C753 C752 1.391 . S
C754 H744 0.950 . S
C754 C755 1.386 . S
C754 C756 1.391 . S
C755 C754 1.386 . S
C755 C759 1.393 . S
C756 H745 0.950 . S
C756 C754 1.391 . S
C756 C757 1.400 . S
C757 C751 1.491 . S
C757 C756 1.400 . S
C757 C758 1.398 . S
C758 H746 0.950 . S
C758 C757 1.398 . S
C758 C759 1.391 . S
C759 H747 0.950 . S
C759 C755 1.393 . S
C759 C758 1.391 . S
H760 C768 0.950 . S
H761 C773 0.950 . S
H762 C770 0.950 1_455 S
H763 C772 0.950 . S
H764 C774 0.950 . S
H765 C776 0.950 1_655 S
H766 C778 0.950 . S
H767 C779 0.950 . S
C768 H760 0.950 . S
C768 C769 1.386 . S
C768 C770 1.391 . S
C769 C768 1.386 . S
C769 C773 1.393 . S
C770 H762 0.950 1_655 S
C770 C768 1.391 . S
C770 C771 1.400 . S
C771 C770 1.400 . S
C771 C772 1.398 . S
C771 C777 1.491 1_655 S
C772 H763 0.950 . S
C772 C771 1.398 . S
C772 C773 1.391 . S
C773 H761 0.950 . S
C773 C769 1.393 . S
C773 C772 1.391 . S
C774 H764 0.950 . S
C774 C775 1.386 . S
C774 C776 1.391 . S
C775 C774 1.386 . S
C775 C779 1.393 . S
C776 H765 0.950 1_455 S
C776 C774 1.391 . S
C776 C777 1.400 . S
C777 C771 1.491 1_455 S
C777 C776 1.400 . S
C777 C778 1.398 . S
C778 H766 0.950 . S
C778 C777 1.398 . S
C778 C779 1.391 . S
C779 H767 0.950 . S
C779 C775 1.393 . S
C779 C778 1.391 . S
H780 C788 0.950 . S
H781 C793 0.950 . S
H782 C790 0.950 . S
H783 C792 0.950 1_655 S
H784 C794 0.950 . S
H785 C796 0.950 . S
H786 C798 0.950 1_455 S
H787 C799 0.950 . S
C788 H780 0.950 . S
C788 C789 1.386 . S
C788 C790 1.391 . S
C789 C788 1.386 . S
C789 C793 1.393 . S
C790 H782 0.950 . S
C790 C788 1.391 . S
C790 C791 1.400 . S
C791 C790 1.400 . S
C791 C792 1.398 . S
C791 C797 1.491 1_455 S
C792 H783 0.950 1_455 S
C792 C791 1.398 . S
C792 C793 1.391 . S
C793 H781 0.950 . S
C793 C789 1.393 . S
C793 C792 1.391 . S
C794 H784 0.950 . S
C794 C795 1.386 . S
C794 C796 1.391 . S
C795 C794 1.386 . S
C795 C799 1.393 . S
C796 H785 0.950 . S
C796 C794 1.391 . S
C796 C797 1.400 . S
C797 C791 1.491 1_655 S
C797 C796 1.400 . S
C797 C798 1.398 . S
C798 H786 0.950 1_655 S
C798 C797 1.398 . S
C798 C799 1.391 . S
C799 H787 0.950 . S
C799 C795 1.393 . S
C799 C798 1.391 . S
H800 C808 0.950 . S
H801 C813 0.950 . S
H802 C810 0.950 . S
H803 C812 0.950 . S
H804 C814 0.950 . S
H805 C816 0.950 . S
H806 C818 0.950 . S
H807 C819 0.924 1_554 S
C808 H800 0.950 . S
C808 C809 1.386 . S
C808 C810 1.391 . S
C809 C808 1.386 . S
C809 C813 1.393 . S
C810 H802 0.950 . S
C810 C808 1.391 . S
C810 C811 1.400 . S
C811 C810 1.400 . S
C811 C812 1.398 . S
C811 C817 1.491 . S
C812 H803 0.950 . S
C812 C811 1.398 . S
C812 C813 1.391 . S
C813 H801 0.950 . S
C813 C809 1.393 . S
C813 C812 1.391 . S
C814 H804 0.950 . S
C814 C815 1.386 . S
C814 C816 1.391 . S
C815 C814 1.386 . S
C815 C819 1.393 . S
C816 H805 0.950 . S
C816 C814 1.391 . S
C816 C817 1.400 . S
C817 C811 1.491 . S
C817 C816 1.400 . S
C817 C818 1.398 . S
C818 H806 0.950 . S
C818 C817 1.398 . S
C818 C819 1.391 . S
C819 H807 0.924 1_556 S
C819 C815 1.393 . S
C819 C818 1.391 . S
H820 C828 0.950 . S
H821 C833 0.950 . S
H822 C830 0.950 . S
H823 C832 0.950 . S
H824 C834 0.950 . S
H825 C836 0.950 . S
H826 C838 0.950 . S
H827 C839 0.950 . S
C828 H820 0.950 . S
C828 C829 1.386 . S
C828 C830 1.391 . S
C829 C828 1.386 . S
C829 C833 1.393 . S
C830 H822 0.950 . S
C830 C828 1.391 . S
C830 C831 1.400 . S
C831 C830 1.400 . S
C831 C832 1.398 . S
C831 C837 1.491 . S
C832 H823 0.950 . S
C832 C831 1.398 . S
C832 C833 1.391 . S
C833 H821 0.950 . S
C833 C829 1.393 . S
C833 C832 1.391 . S
C834 H824 0.950 . S
C834 C835 1.386 . S
C834 C836 1.391 . S
C835 C834 1.386 . S
C835 C839 1.393 . S
C836 H825 0.950 . S
C836 C834 1.391 . S
C836 C837 1.400 . S
C837 C831 1.491 . S
C837 C836 1.400 . S
C837 C838 1.398 . S
C838 H826 0.950 . S
C838 C837 1.398 . S
C838 C839 1.391 . S
C839 H827 0.950 . S
C839 C835 1.393 . S
C839 C838 1.391 . S
H840 C848 0.950 . S
H841 C853 0.950 . S
H842 C850 0.950 . S
H843 C852 0.950 . S
H844 C854 0.950 . S
H845 C856 0.950 . S
H846 C858 0.950 . S
H847 C859 0.950 . S
C848 H840 0.950 . S
C848 C849 1.386 . S
C848 C850 1.391 . S
C849 C848 1.386 . S
C849 C853 1.393 . S
C850 H842 0.950 . S
C850 C848 1.391 . S
C850 C851 1.400 . S
C851 C850 1.400 . S
C851 C852 1.398 . S
C851 C857 1.491 . S
C852 H843 0.950 . S
C852 C851 1.398 . S
C852 C853 1.391 . S
C853 H841 0.950 . S
C853 C849 1.393 . S
C853 C852 1.391 . S
C854 H844 0.950 . S
C854 C855 1.386 . S
C854 C856 1.391 . S
C855 C854 1.386 . S
C855 C859 1.393 . S
C856 H845 0.950 . S
C856 C854 1.391 . S
C856 C857 1.400 . S
C857 C851 1.491 . S
C857 C856 1.400 . S
C857 C858 1.398 . S
C858 H846 0.950 . S
C858 C857 1.398 . S
C858 C859 1.391 . S
C859 H847 0.950 . S
C859 C855 1.393 . S
C859 C858 1.391 . S
H860 C868 0.950 . S
H861 C873 0.950 . S
H862 C870 0.950 . S
H863 C872 0.950 . S
H864 C874 0.950 . S
H865 C876 0.950 . S
H866 C878 0.950 . S
H867 C879 0.950 . S
C868 H860 0.950 . S
C868 C869 1.386 . S
C868 C870 1.391 . S
C869 C868 1.386 . S
C869 C873 1.393 . S
C870 H862 0.950 . S
C870 C868 1.391 . S
C870 C871 1.400 . S
C871 C870 1.400 . S
C871 C872 1.398 . S
C871 C877 1.491 . S
C872 H863 0.950 . S
C872 C871 1.398 . S
C872 C873 1.391 . S
C873 H861 0.950 . S
C873 C869 1.393 . S
C873 C872 1.391 . S
C874 H864 0.950 . S
C874 C875 1.386 . S
C874 C876 1.391 . S
C875 C874 1.386 . S
C875 C879 1.393 . S
C876 H865 0.950 . S
C876 C874 1.391 . S
C876 C877 1.400 . S
C877 C871 1.491 . S
C877 C876 1.400 . S
C877 C878 1.398 . S
C878 H866 0.950 . S
C878 C877 1.398 . S
C878 C879 1.391 . S
C879 H867 0.950 . S
C879 C875 1.393 . S
C879 C878 1.391 . S
H880 C888 0.950 1_556 S
H881 C893 0.950 . S
H882 C890 0.950 . S
H883 C892 0.950 . S
H884 C894 0.950 . S
H885 C896 0.950 . S
H886 C898 0.950 . S
H887 C899 0.950 . S
C888 H880 0.950 1_554 S
C888 C889 1.386 . S
C888 C890 1.391 . S
C889 C888 1.386 . S
C889 C893 1.393 . S
C890 H882 0.950 . S
C890 C888 1.391 . S
C890 C891 1.400 . S
C891 C890 1.400 . S
C891 C892 1.398 . S
C891 C897 1.491 . S
C892 H883 0.950 . S
C892 C891 1.398 . S
C892 C893 1.391 . S
C893 H881 0.950 . S
C893 C889 1.393 . S
C893 C892 1.391 . S
C894 H884 0.950 . S
C894 C895 1.386 . S
C894 C896 1.391 . S
C895 C894 1.386 . S
C895 C899 1.393 . S
C896 H885 0.950 . S
C896 C894 1.391 . S
C896 C897 1.400 . S
C897 C891 1.491 . S
C897 C896 1.400 . S
C897 C898 1.398 . S
C898 H886 0.950 . S
C898 C897 1.398 . S
C898 C899 1.391 . S
C899 H887 0.950 . S
C899 C895 1.393 . S
C899 C898 1.391 . S
H900 C908 0.950 . S
H901 C913 0.950 . S
H902 C910 0.950 . S
H903 C912 0.950 . S
H904 C914 0.950 . S
H905 C916 0.950 . S
H906 C918 0.950 . S
H907 C919 0.950 . S
C908 H900 0.950 . S
C908 C909 1.386 . S
C908 C910 1.391 . S
C909 C908 1.386 . S
C909 C913 1.393 . S
C910 H902 0.950 . S
C910 C908 1.391 . S
C910 C911 1.400 . S
C911 C910 1.400 . S
C911 C912 1.398 . S
C911 C917 1.491 . S
C912 H903 0.950 . S
C912 C911 1.398 . S
C912 C913 1.391 . S
C913 H901 0.950 . S
C913 C909 1.393 . S
C913 C912 1.391 . S
C914 H904 0.950 . S
C914 C915 1.386 . S
C914 C916 1.391 . S
C915 C914 1.386 . S
C915 C919 1.393 . S
C916 H905 0.950 . S
C916 C914 1.391 . S
C916 C917 1.400 . S
C917 C911 1.491 . S
C917 C916 1.400 . S
C917 C918 1.398 . S
C918 H906 0.950 . S
C918 C917 1.398 . S
C918 C919 1.391 . S
C919 H907 0.950 . S
C919 C915 1.393 . S
C919 C918 1.391 . S
H920 C928 0.950 . S
H921 C933 0.950 . S
H922 C930 0.950 . S
H923 C932 0.950 . S
H924 C934 0.950 . S
H925 C936 0.950 . S
H926 C938 0.950 . S
H927 C939 0.950 . S
C928 H920 0.950 . S
C928 C929 1.386 . S
C928 C930 1.391 . S
C929 C928 1.386 . S
C929 C933 1.393 . S
C930 H922 0.950 . S
C930 C928 1.391 . S
C930 C931 1.400 . S
C931 C930 1.400 . S
C931 C932 1.398 . S
C931 C937 1.491 . S
C932 H923 0.950 . S
C932 C931 1.398 . S
C932 C933 1.391 . S
C933 H921 0.950 . S
C933 C929 1.393 . S
C933 C932 1.391 . S
C934 H924 0.950 . S
C934 C935 1.386 . S
C934 C936 1.391 . S
C935 C934 1.386 . S
C935 C939 1.393 . S
C936 H925 0.950 . S
C936 C934 1.391 . S
C936 C937 1.400 . S
C937 C931 1.491 . S
C937 C936 1.400 . S
C937 C938 1.398 . S
C938 H926 0.950 . S
C938 C937 1.398 . S
C938 C939 1.391 . S
C939 H927 0.950 . S
C939 C935 1.393 . S
C939 C938 1.391 . S
H940 C948 0.950 . S
H941 C953 0.950 . S
H942 C950 0.950 . S
H943 C952 0.950 . S
H944 C954 0.950 . S
H945 C956 0.950 . S
H946 C958 0.950 . S
H947 C959 0.950 . S
C948 H940 0.950 . S
C948 C949 1.386 . S
C948 C950 1.391 . S
C949 C948 1.386 . S
C949 C953 1.393 . S
C950 H942 0.950 . S
C950 C948 1.391 . S
C950 C951 1.400 . S
C951 C950 1.400 . S
C951 C952 1.398 . S
C951 C957 1.491 . S
C952 H943 0.950 . S
C952 C951 1.398 . S
C952 C953 1.391 . S
C953 H941 0.950 . S
C953 C949 1.393 . S
C953 C952 1.391 . S
C954 H944 0.950 . S
C954 C955 1.386 . S
C954 C956 1.391 . S
C955 C954 1.386 . S
C955 C959 1.393 . S
C956 H945 0.950 . S
C956 C954 1.391 . S
C956 C957 1.400 . S
C957 C951 1.491 . S
C957 C956 1.400 . S
C957 C958 1.398 . S
C958 H946 0.950 . S
C958 C957 1.398 . S
C958 C959 1.391 . S
C959 H947 0.950 . S
C959 C955 1.393 . S
C959 C958 1.391 . S
H960 C968 0.950 . S
H961 C973 0.950 . S
H962 C970 0.950 . S
H963 C972 0.950 . S
H964 C974 0.950 . S
H965 C976 0.950 . S
H966 C978 0.950 . S
H967 C979 0.950 . S
C968 H960 0.950 . S
C968 C969 1.386 . S
C968 C970 1.391 . S
C969 C968 1.386 . S
C969 C973 1.393 . S
C970 H962 0.950 . S
C970 C968 1.391 . S
C970 C971 1.400 . S
C971 C970 1.400 . S
C971 C972 1.398 . S
C971 C977 1.491 . S
C972 H963 0.950 . S
C972 C971 1.398 . S
C972 C973 1.391 . S
C973 H961 0.950 . S
C973 C969 1.393 . S
C973 C972 1.391 . S
C974 H964 0.950 . S
C974 C975 1.386 . S
C974 C976 1.391 . S
C975 C974 1.386 . S
C975 C979 1.393 . S
C976 H965 0.950 . S
C976 C974 1.391 . S
C976 C977 1.400 . S
C977 C971 1.491 . S
C977 C976 1.400 . S
C977 C978 1.398 . S
C978 H966 0.950 . S
C978 C977 1.398 . S
C978 C979 1.391 . S
C979 H967 0.950 . S
C979 C975 1.393 . S
C979 C978 1.391 . S
H980 C988 0.950 . S
H981 C993 0.950 . S
H982 C990 0.948 1_565 S
H983 C992 0.950 . S
H984 C994 0.950 . S
H985 C996 0.950 . S
H986 C998 0.950 . S
H987 C999 0.950 . S
C988 H980 0.950 . S
C988 C989 1.386 . S
C988 C990 1.391 . S
C989 C988 1.386 . S
C989 C993 1.393 . S
C990 H982 0.948 1_545 S
C990 C988 1.391 . S
C990 C991 1.400 1_545 S
C991 C990 1.400 1_565 S
C991 C992 1.398 . S
C991 C997 1.491 . S
C992 H983 0.950 . S
C992 C991 1.398 . S
C992 C993 1.391 1_565 S
C993 H981 0.950 . S
C993 C989 1.393 . S
C993 C992 1.391 1_545 S
C994 H984 0.950 . S
C994 C995 1.386 . S
C994 C996 1.391 . S
C995 C994 1.386 . S
C995 C999 1.393 . S
C996 H985 0.950 . S
C996 C994 1.391 . S
C996 C997 1.400 . S
C997 C991 1.491 . S
C997 C996 1.400 . S
C997 C998 1.398 . S
C998 H986 0.950 . S
C998 C997 1.398 . S
C998 C999 1.391 . S
C999 H987 0.950 . S
C999 C995 1.393 . S
C999 C998 1.391 . S
H1000 C1008 0.950 . S
H1001 C1013 0.950 1_554 S
H1002 C1010 0.950 . S
H1003 C1012 0.950 . S
H1004 C1014 0.950 . S
H1005 C1016 0.950 . S
H1006 C1018 0.950 . S
H1007 C1019 0.950 . S
C1008 H1000 0.950 . S
C1008 C1009 1.386 . S
C1008 C1010 1.391 . S
C1009 C1008 1.386 . S
C1009 C1013 1.393 . S
C1010 H1002 0.950 . S
C1010 C1008 1.391 . S
C1010 C1011 1.400 . S
C1011 C1010 1.400 . S
C1011 C1012 1.398 . S
C1011 C1017 1.491 . S
C1012 H1003 0.950 . S
C1012 C1011 1.398 . S
C1012 C1013 1.391 . S
C1013 H1001 0.950 1_556 S
C1013 C1009 1.393 . S
C1013 C1012 1.391 . S
C1014 H1004 0.950 . S
C1014 C1015 1.386 . S
C1014 C1016 1.391 . S
C1015 C1014 1.386 . S
C1015 C1019 1.393 . S
C1016 H1005 0.950 . S
C1016 C1014 1.391 . S
C1016 C1017 1.400 . S
C1017 C1011 1.491 . S
C1017 C1016 1.400 . S
C1017 C1018 1.398 . S
C1018 H1006 0.950 . S
C1018 C1017 1.398 . S
C1018 C1019 1.391 . S
C1019 H1007 0.950 . S
C1019 C1015 1.393 . S
C1019 C1018 1.391 . S
H1020 C1028 0.950 . S
H1021 C1033 0.950 . S
H1022 C1030 0.950 . S
H1023 C1032 0.950 . S
H1024 C1034 0.950 . S
H1025 C1036 0.950 . S
H1026 C1038 0.950 . S
H1027 C1039 0.950 . S
C1028 H1020 0.950 . S
C1028 C1029 1.386 . S
C1028 C1030 1.391 1_565 S
C1029 C1028 1.386 . S
C1029 C1033 1.393 . S
C1030 H1022 0.950 . S
C1030 C1028 1.391 1_545 S
C1030 C1031 1.400 . S
C1031 C1030 1.400 . S
C1031 C1032 1.398 1_545 S
C1031 C1037 1.491 . S
C1032 H1023 0.950 . S
C1032 C1031 1.398 1_565 S
C1032 C1033 1.391 . S
C1033 H1021 0.950 . S
C1033 C1029 1.393 . S
C1033 C1032 1.391 . S
C1034 H1024 0.950 . S
C1034 C1035 1.386 . S
C1034 C1036 1.391 . S
C1035 C1034 1.386 . S
C1035 C1039 1.393 . S
C1036 H1025 0.950 . S
C1036 C1034 1.391 . S
C1036 C1037 1.400 . S
C1037 C1031 1.491 . S
C1037 C1036 1.400 . S
C1037 C1038 1.398 . S
C1038 H1026 0.950 . S
C1038 C1037 1.398 . S
C1038 C1039 1.391 . S
C1039 H1027 0.950 . S
C1039 C1035 1.393 . S
C1039 C1038 1.391 . S
H1040 C1048 0.950 . S
H1041 C1053 0.950 . S
H1042 C1050 0.950 . S
H1043 C1052 0.950 . S
H1044 C1054 0.950 . S
H1045 C1056 0.950 . S
H1046 C1058 0.950 . S
H1047 C1059 0.950 . S
C1048 H1040 0.950 . S
C1048 C1049 1.386 . S
C1048 C1050 1.391 . S
C1049 C1048 1.386 . S
C1049 C1053 1.393 . S
C1050 H1042 0.950 . S
C1050 C1048 1.391 . S
C1050 C1051 1.400 . S
C1051 C1050 1.400 . S
C1051 C1052 1.398 . S
C1051 C1057 1.491 . S
C1052 H1043 0.950 . S
C1052 C1051 1.398 . S
C1052 C1053 1.391 . S
C1053 H1041 0.950 . S
C1053 C1049 1.393 . S
C1053 C1052 1.391 . S
C1054 H1044 0.950 . S
C1054 C1055 1.386 . S
C1054 C1056 1.391 . S
C1055 C1054 1.386 . S
C1055 C1059 1.393 . S
C1056 H1045 0.950 . S
C1056 C1054 1.391 . S
C1056 C1057 1.400 . S
C1057 C1051 1.491 . S
C1057 C1056 1.400 . S
C1057 C1058 1.398 . S
C1058 H1046 0.950 . S
C1058 C1057 1.398 . S
C1058 C1059 1.391 . S
C1059 H1047 0.950 . S
C1059 C1055 1.393 . S
C1059 C1058 1.391 . S
H1060 C1068 0.950 . S
H1061 C1073 0.950 . S
H1062 C1070 0.950 . S
H1063 C1072 0.950 . S
H1064 C1074 0.950 . S
H1065 C1076 0.950 . S
H1066 C1078 0.950 . S
H1067 C1079 0.950 . S
C1068 H1060 0.950 . S
C1068 C1069 1.386 . S
C1068 C1070 1.391 . S
C1069 C1068 1.386 . S
C1069 C1073 1.393 . S
C1070 H1062 0.950 . S
C1070 C1068 1.391 . S
C1070 C1071 1.400 . S
C1071 C1070 1.400 . S
C1071 C1072 1.398 . S
C1071 C1077 1.491 . S
C1072 H1063 0.950 . S
C1072 C1071 1.398 . S
C1072 C1073 1.391 . S
C1073 H1061 0.950 . S
C1073 C1069 1.393 . S
C1073 C1072 1.391 . S
C1074 H1064 0.950 . S
C1074 C1075 1.386 . S
C1074 C1076 1.391 . S
C1075 C1074 1.386 . S
C1075 C1079 1.393 . S
C1076 H1065 0.950 . S
C1076 C1074 1.391 . S
C1076 C1077 1.400 1_565 S
C1077 C1071 1.491 . S
C1077 C1076 1.400 1_545 S
C1077 C1078 1.398 . S
C1078 H1066 0.950 . S
C1078 C1077 1.398 . S
C1078 C1079 1.391 1_545 S
C1079 H1067 0.950 . S
C1079 C1075 1.393 . S
C1079 C1078 1.391 1_565 S
H1080 C1088 0.950 . S
H1081 C1093 0.950 . S
H1082 C1090 0.950 . S
H1083 C1092 0.950 . S
H1084 C1094 0.950 . S
H1085 C1096 0.950 . S
H1086 C1098 0.950 . S
H1087 C1099 0.950 . S
C1088 H1080 0.950 . S
C1088 C1089 1.386 . S
C1088 C1090 1.391 . S
C1089 C1088 1.386 . S
C1089 C1093 1.393 . S
C1090 H1082 0.950 . S
C1090 C1088 1.391 . S
C1090 C1091 1.400 . S
C1091 C1090 1.400 . S
C1091 C1092 1.398 . S
C1091 C1097 1.491 . S
C1092 H1083 0.950 . S
C1092 C1091 1.398 . S
C1092 C1093 1.391 . S
C1093 H1081 0.950 . S
C1093 C1089 1.393 . S
C1093 C1092 1.391 . S
C1094 H1084 0.950 . S
C1094 C1095 1.386 . S
C1094 C1096 1.391 . S
C1095 C1094 1.386 . S
C1095 C1099 1.393 . S
C1096 H1085 0.950 . S
C1096 C1094 1.391 . S
C1096 C1097 1.400 . S
C1097 C1091 1.491 . S
C1097 C1096 1.400 . S
C1097 C1098 1.398 . S
C1098 H1086 0.950 . S
C1098 C1097 1.398 . S
C1098 C1099 1.391 . S
C1099 H1087 0.950 . S
C1099 C1095 1.393 . S
C1099 C1098 1.391 . S
H1100 C1108 0.950 . S
H1101 C1113 0.950 . S
H1102 C1110 0.950 . S
H1103 C1112 0.950 1_565 S
H1104 C1114 0.950 . S
H1105 C1116 0.950 . S
H1106 C1118 0.950 . S
H1107 C1119 0.950 . S
C1108 H1100 0.950 . S
C1108 C1109 1.386 . S
C1108 C1110 1.391 1_545 S
C1109 C1108 1.386 . S
C1109 C1113 1.393 . S
C1110 H1102 0.950 . S
C1110 C1108 1.391 1_565 S
C1110 C1111 1.400 . S
C1111 C1110 1.400 . S
C1111 C1112 1.398 1_565 S
C1111 C1117 1.491 . S
C1112 H1103 0.950 1_545 S
C1112 C1111 1.398 1_545 S
C1112 C1113 1.391 . S
C1113 H1101 0.950 . S
C1113 C1109 1.393 . S
C1113 C1112 1.391 . S
C1114 H1104 0.950 . S
C1114 C1115 1.386 . S
C1114 C1116 1.391 . S
C1115 C1114 1.386 . S
C1115 C1119 1.393 . S
C1116 H1105 0.950 . S
C1116 C1114 1.391 . S
C1116 C1117 1.400 . S
C1117 C1111 1.491 . S
C1117 C1116 1.400 . S
C1117 C1118 1.398 . S
C1118 H1106 0.950 . S
C1118 C1117 1.398 . S
C1118 C1119 1.391 . S
C1119 H1107 0.950 . S
C1119 C1115 1.393 . S
C1119 C1118 1.391 . S
H1120 C1128 0.950 . S
H1121 C1133 0.950 . S
H1122 C1130 0.950 . S
H1123 C1132 0.950 . S
H1124 C1134 0.950 . S
H1125 C1136 0.950 . S
H1126 C1138 0.950 . S
H1127 C1139 0.950 . S
C1128 H1120 0.950 . S
C1128 C1129 1.386 . S
C1128 C1130 1.391 . S
C1129 C1128 1.386 . S
C1129 C1133 1.393 . S
C1130 H1122 0.950 . S
C1130 C1128 1.391 . S
C1130 C1131 1.400 . S
C1131 C1130 1.400 . S
C1131 C1132 1.398 . S
C1131 C1137 1.491 . S
C1132 H1123 0.950 . S
C1132 C1131 1.398 . S
C1132 C1133 1.391 . S
C1133 H1121 0.950 . S
C1133 C1129 1.393 . S
C1133 C1132 1.391 . S
C1134 H1124 0.950 . S
C1134 C1135 1.386 . S
C1134 C1136 1.391 . S
C1135 C1134 1.386 . S
C1135 C1139 1.393 . S
C1136 H1125 0.950 . S
C1136 C1134 1.391 . S
C1136 C1137 1.400 . S
C1137 C1131 1.491 . S
C1137 C1136 1.400 . S
C1137 C1138 1.398 . S
C1138 H1126 0.950 . S
C1138 C1137 1.398 . S
C1138 C1139 1.391 . S
C1139 H1127 0.950 . S
C1139 C1135 1.393 . S
C1139 C1138 1.391 . S
H1140 C1148 0.950 . S
H1141 C1153 0.950 . S
H1142 C1150 0.950 . S
H1143 C1152 0.950 . S
H1144 C1154 0.950 . S
H1145 C1156 0.950 . S
H1146 C1158 0.950 . S
H1147 C1159 0.950 . S
C1148 H1140 0.950 . S
C1148 C1149 1.386 . S
C1148 C1150 1.391 . S
C1149 C1148 1.386 . S
C1149 C1153 1.393 . S
C1150 H1142 0.950 . S
C1150 C1148 1.391 . S
C1150 C1151 1.400 . S
C1151 C1150 1.400 . S
C1151 C1152 1.398 . S
C1151 C1157 1.491 . S
C1152 H1143 0.950 . S
C1152 C1151 1.398 . S
C1152 C1153 1.391 . S
C1153 H1141 0.950 . S
C1153 C1149 1.393 . S
C1153 C1152 1.391 . S
C1154 H1144 0.950 . S
C1154 C1155 1.386 . S
C1154 C1156 1.391 . S
C1155 C1154 1.386 . S
C1155 C1159 1.393 . S
C1156 H1145 0.950 . S
C1156 C1154 1.391 . S
C1156 C1157 1.400 . S
C1157 C1151 1.491 . S
C1157 C1156 1.400 . S
C1157 C1158 1.398 . S
C1158 H1146 0.950 . S
C1158 C1157 1.398 . S
C1158 C1159 1.391 . S
C1159 H1147 0.950 . S
C1159 C1155 1.393 . S
C1159 C1158 1.391 . S
H1160 C1168 0.950 . S
H1161 C1173 0.950 . S
H1162 C1170 0.950 . S
H1163 C1172 0.950 . S
H1164 C1174 0.950 . S
H1165 C1176 0.950 . S
H1166 C1178 0.950 . S
H1167 C1179 0.950 . S
C1168 H1160 0.950 . S
C1168 C1169 1.386 . S
C1168 C1170 1.391 . S
C1169 C1168 1.386 . S
C1169 C1173 1.393 . S
C1170 H1162 0.950 . S
C1170 C1168 1.391 . S
C1170 C1171 1.400 . S
C1171 C1170 1.400 . S
C1171 C1172 1.398 . S
C1171 C1177 1.491 . S
C1172 H1163 0.950 . S
C1172 C1171 1.398 . S
C1172 C1173 1.391 . S
C1173 H1161 0.950 . S
C1173 C1169 1.393 . S
C1173 C1172 1.391 . S
C1174 H1164 0.950 . S
C1174 C1175 1.386 1_655 S
C1174 C1176 1.391 . S
C1175 C1174 1.386 1_455 S
C1175 C1179 1.393 . S
C1176 H1165 0.950 . S
C1176 C1174 1.391 . S
C1176 C1177 1.400 . S
C1177 C1171 1.491 . S
C1177 C1176 1.400 . S
C1177 C1178 1.398 1_655 S
C1178 H1166 0.950 . S
C1178 C1177 1.398 1_455 S
C1178 C1179 1.391 . S
C1179 H1167 0.950 . S
C1179 C1175 1.393 . S
C1179 C1178 1.391 . S
H1180 C1188 0.950 . S
H1181 C1193 0.950 . S
H1182 C1190 0.950 . S
H1183 C1192 0.950 . S
H1184 C1194 0.950 . S
H1185 C1196 0.950 . S
H1186 C1198 0.950 . S
H1187 C1199 0.950 . S
C1188 H1180 0.950 . S
C1188 C1189 1.386 . S
C1188 C1190 1.391 . S
C1189 C1188 1.386 . S
C1189 C1193 1.393 . S
C1190 H1182 0.950 . S
C1190 C1188 1.391 . S
C1190 C1191 1.400 . S
C1191 C1190 1.400 . S
C1191 C1192 1.398 . S
C1191 C1197 1.491 . S
C1192 H1183 0.950 . S
C1192 C1191 1.398 . S
C1192 C1193 1.391 . S
C1193 H1181 0.950 . S
C1193 C1189 1.393 . S
C1193 C1192 1.391 . S
C1194 H1184 0.950 . S
C1194 C1195 1.386 . S
C1194 C1196 1.391 . S
C1195 C1194 1.386 . S
C1195 C1199 1.393 . S
C1196 H1185 0.950 . S
C1196 C1194 1.391 . S
C1196 C1197 1.400 . S
C1197 C1191 1.491 . S
C1197 C1196 1.400 . S
C1197 C1198 1.398 . S
C1198 H1186 0.950 . S
C1198 C1197 1.398 . S
C1198 C1199 1.391 . S
C1199 H1187 0.950 . S
C1199 C1195 1.393 . S
C1199 C1198 1.391 . S
H1200 C1208 0.950 . S
H1201 C1213 0.950 . S
H1202 C1210 0.950 . S
H1203 C1212 0.950 . S
H1204 C1214 0.950 . S
H1205 C1216 0.950 . S
H1206 C1218 0.950 . S
H1207 C1219 0.950 . S
C1208 H1200 0.950 . S
C1208 C1209 1.386 . S
C1208 C1210 1.391 . S
C1209 C1208 1.386 . S
C1209 C1213 1.393 . S
C1210 H1202 0.950 . S
C1210 C1208 1.391 . S
C1210 C1211 1.400 . S
C1211 C1210 1.400 . S
C1211 C1212 1.398 . S
C1211 C1217 1.491 . S
C1212 H1203 0.950 . S
C1212 C1211 1.398 . S
C1212 C1213 1.391 . S
C1213 H1201 0.950 . S
C1213 C1209 1.393 . S
C1213 C1212 1.391 . S
C1214 H1204 0.950 . S
C1214 C1215 1.386 . S
C1214 C1216 1.391 . S
C1215 C1214 1.386 . S
C1215 C1219 1.393 . S
C1216 H1205 0.950 . S
C1216 C1214 1.391 . S
C1216 C1217 1.400 . S
C1217 C1211 1.491 . S
C1217 C1216 1.400 . S
C1217 C1218 1.398 . S
C1218 H1206 0.950 . S
C1218 C1217 1.398 . S
C1218 C1219 1.391 . S
C1219 H1207 0.950 . S
C1219 C1215 1.393 . S
C1219 C1218 1.391 . S
H1220 C1228 0.950 . S
H1221 C1233 0.950 . S
H1222 C1230 0.950 . S
H1223 C1232 0.950 . S
H1224 C1234 0.950 . S
H1225 C1236 0.950 . S
H1226 C1238 0.950 . S
H1227 C1239 0.950 1_554 S
C1228 H1220 0.950 . S
C1228 C1229 1.386 . S
C1228 C1230 1.391 . S
C1229 C1228 1.386 . S
C1229 C1233 1.393 . S
C1230 H1222 0.950 . S
C1230 C1228 1.391 . S
C1230 C1231 1.400 . S
C1231 C1230 1.400 . S
C1231 C1232 1.398 . S
C1231 C1237 1.491 . S
C1232 H1223 0.950 . S
C1232 C1231 1.398 . S
C1232 C1233 1.391 . S
C1233 H1221 0.950 . S
C1233 C1229 1.393 . S
C1233 C1232 1.391 . S
C1234 H1224 0.950 . S
C1234 C1235 1.386 . S
C1234 C1236 1.391 . S
C1235 C1234 1.386 . S
C1235 C1239 1.393 . S
C1236 H1225 0.950 . S
C1236 C1234 1.391 . S
C1236 C1237 1.400 . S
C1237 C1231 1.491 . S
C1237 C1236 1.400 . S
C1237 C1238 1.398 . S
C1238 H1226 0.950 . S
C1238 C1237 1.398 . S
C1238 C1239 1.391 . S
C1239 H1227 0.950 1_556 S
C1239 C1235 1.393 . S
C1239 C1238 1.391 . S
H1240 C1248 0.950 . S
H1241 C1253 0.950 . S
H1242 C1250 0.950 . S
H1243 C1252 0.950 . S
H1244 C1254 0.950 . S
H1245 C1256 0.950 . S
H1246 C1258 0.950 . S
H1247 C1259 0.950 . S
C1248 H1240 0.950 . S
C1248 C1249 1.386 . S
C1248 C1250 1.391 . S
C1249 C1248 1.386 . S
C1249 C1253 1.393 . S
C1250 H1242 0.950 . S
C1250 C1248 1.391 . S
C1250 C1251 1.400 . S
C1251 C1250 1.400 . S
C1251 C1252 1.398 . S
C1251 C1257 1.491 . S
C1252 H1243 0.950 . S
C1252 C1251 1.398 . S
C1252 C1253 1.391 . S
C1253 H1241 0.950 . S
C1253 C1249 1.393 . S
C1253 C1252 1.391 . S
C1254 H1244 0.950 . S
C1254 C1255 1.386 . S
C1254 C1256 1.391 . S
C1255 C1254 1.386 . S
C1255 C1259 1.393 1_655 S
C1256 H1245 0.950 . S
C1256 C1254 1.391 . S
C1256 C1257 1.400 1_655 S
C1257 C1251 1.491 . S
C1257 C1256 1.400 1_455 S
C1257 C1258 1.398 . S
C1258 H1246 0.950 . S
C1258 C1257 1.398 . S
C1258 C1259 1.391 . S
C1259 H1247 0.950 . S
C1259 C1255 1.393 1_455 S
C1259 C1258 1.391 . S
H1260 C1268 0.950 . S
H1261 C1273 0.950 . S
H1262 C1270 0.950 . S
H1263 C1272 0.950 . S
H1264 C1274 0.950 . S
H1265 C1276 0.950 . S
H1266 C1278 0.950 . S
H1267 C1279 0.950 . S
C1268 H1260 0.950 . S
C1268 C1269 1.386 . S
C1268 C1270 1.391 . S
C1269 C1268 1.386 . S
C1269 C1273 1.393 . S
C1270 H1262 0.950 . S
C1270 C1268 1.391 . S
C1270 C1271 1.400 . S
C1271 C1270 1.400 . S
C1271 C1272 1.398 . S
C1271 C1277 1.491 . S
C1272 H1263 0.950 . S
C1272 C1271 1.398 . S
C1272 C1273 1.391 . S
C1273 H1261 0.950 . S
C1273 C1269 1.393 . S
C1273 C1272 1.391 . S
C1274 H1264 0.950 . S
C1274 C1275 1.386 . S
C1274 C1276 1.391 . S
C1275 C1274 1.386 . S
C1275 C1279 1.393 . S
C1276 H1265 0.950 . S
C1276 C1274 1.391 . S
C1276 C1277 1.400 . S
C1277 C1271 1.491 . S
C1277 C1276 1.400 . S
C1277 C1278 1.398 . S
C1278 H1266 0.950 . S
C1278 C1277 1.398 . S
C1278 C1279 1.391 . S
C1279 H1267 0.950 . S
C1279 C1275 1.393 . S
C1279 C1278 1.391 . S
H1280 C1288 0.950 . S
H1281 C1293 0.950 . S
H1282 C1290 0.950 . S
H1283 C1292 0.949 1_655 S
H1284 C1294 0.950 . S
H1285 C1296 0.950 . S
H1286 C1298 0.950 . S
H1287 C1299 0.950 . S
C1288 H1280 0.950 . S
C1288 C1289 1.386 1_455 S
C1288 C1290 1.391 . S
C1289 C1288 1.386 1_655 S
C1289 C1293 1.393 . S
C1290 H1282 0.950 . S
C1290 C1288 1.391 . S
C1290 C1291 1.400 . S
C1291 C1290 1.400 . S
C1291 C1292 1.398 . S
C1291 C1297 1.491 . S
C1292 H1283 0.949 1_455 S
C1292 C1291 1.398 . S
C1292 C1293 1.391 1_455 S
C1293 H1281 0.950 . S
C1293 C1289 1.393 . S
C1293 C1292 1.391 1_655 S
C1294 H1284 0.950 . S
C1294 C1295 1.386 . S
C1294 C1296 1.391 . S
C1295 C1294 1.386 . S
C1295 C1299 1.393 . S
C1296 H1285 0.950 . S
C1296 C1294 1.391 . S
C1296 C1297 1.400 . S
C1297 C1291 1.491 . S
C1297 C1296 1.400 . S
C1297 C1298 1.398 . S
C1298 H1286 0.950 . S
C1298 C1297 1.398 . S
C1298 C1299 1.391 . S
C1299 H1287 0.950 . S
C1299 C1295 1.393 . S
C1299 C1298 1.391 . S
H1300 C1308 0.950 . S
H1301 C1313 0.950 . S
H1302 C1310 0.950 . S
H1303 C1312 0.950 . S
H1304 C1314 0.950 . S
H1305 C1316 0.950 . S
H1306 C1318 0.950 . S
H1307 C1319 0.950 . S
C1308 H1300 0.950 . S
C1308 C1309 1.386 . S
C1308 C1310 1.391 . S
C1309 C1308 1.386 . S
C1309 C1313 1.393 . S
C1310 H1302 0.950 . S
C1310 C1308 1.391 . S
C1310 C1311 1.400 . S
C1311 C1310 1.400 . S
C1311 C1312 1.398 . S
C1311 C1317 1.491 . S
C1312 H1303 0.950 . S
C1312 C1311 1.398 . S
C1312 C1313 1.391 . S
C1313 H1301 0.950 . S
C1313 C1309 1.393 . S
C1313 C1312 1.391 . S
C1314 H1304 0.950 . S
C1314 C1315 1.386 . S
C1314 C1316 1.391 . S
C1315 C1314 1.386 . S
C1315 C1319 1.393 . S
C1316 H1305 0.950 . S
C1316 C1314 1.391 . S
C1316 C1317 1.400 . S
C1317 C1311 1.491 . S
C1317 C1316 1.400 . S
C1317 C1318 1.398 . S
C1318 H1306 0.950 . S
C1318 C1317 1.398 . S
C1318 C1319 1.391 . S
C1319 H1307 0.950 . S
C1319 C1315 1.393 . S
C1319 C1318 1.391 . S
H1320 C1328 0.950 . S
H1321 C1333 0.950 . S
H1322 C1330 0.950 . S
H1323 C1332 0.950 . S
H1324 C1334 0.950 . S
H1325 C1336 0.950 . S
H1326 C1338 0.950 . S
H1327 C1339 0.950 . S
C1328 H1320 0.950 . S
C1328 C1329 1.386 . S
C1328 C1330 1.391 . S
C1329 C1328 1.386 . S
C1329 C1333 1.393 . S
C1330 H1322 0.950 . S
C1330 C1328 1.391 . S
C1330 C1331 1.400 . S
C1331 C1330 1.400 . S
C1331 C1332 1.398 . S
C1331 C1337 1.491 . S
C1332 H1323 0.950 . S
C1332 C1331 1.398 . S
C1332 C1333 1.391 . S
C1333 H1321 0.950 . S
C1333 C1329 1.393 . S
C1333 C1332 1.391 . S
C1334 H1324 0.950 . S
C1334 C1335 1.386 . S
C1334 C1336 1.391 . S
C1335 C1334 1.386 . S
C1335 C1339 1.393 . S
C1336 H1325 0.950 . S
C1336 C1334 1.391 . S
C1336 C1337 1.400 . S
C1337 C1331 1.491 . S
C1337 C1336 1.400 . S
C1337 C1338 1.398 . S
C1338 H1326 0.950 . S
C1338 C1337 1.398 . S
C1338 C1339 1.391 . S
C1339 H1327 0.950 . S
C1339 C1335 1.393 . S
C1339 C1338 1.391 . S
H1340 C1348 0.950 . S
H1341 C1353 0.950 . S
H1342 C1350 0.950 . S
H1343 C1352 0.950 . S
H1344 C1354 0.950 . S
H1345 C1356 0.950 . S
H1346 C1358 0.950 . S
H1347 C1359 0.950 . S
C1348 H1340 0.950 . S
C1348 C1349 1.386 . S
C1348 C1350 1.391 . S
C1349 C1348 1.386 . S
C1349 C1353 1.393 . S
C1350 H1342 0.950 . S
C1350 C1348 1.391 . S
C1350 C1351 1.400 . S
C1351 C1350 1.400 . S
C1351 C1352 1.398 . S
C1351 C1357 1.491 . S
C1352 H1343 0.950 . S
C1352 C1351 1.398 . S
C1352 C1353 1.391 . S
C1353 H1341 0.950 . S
C1353 C1349 1.393 . S
C1353 C1352 1.391 . S
C1354 H1344 0.950 . S
C1354 C1355 1.386 . S
C1354 C1356 1.391 . S
C1355 C1354 1.386 . S
C1355 C1359 1.393 . S
C1356 H1345 0.950 . S
C1356 C1354 1.391 . S
C1356 C1357 1.400 . S
C1357 C1351 1.491 . S
C1357 C1356 1.400 . S
C1357 C1358 1.398 . S
C1358 H1346 0.950 . S
C1358 C1357 1.398 . S
C1358 C1359 1.391 . S
C1359 H1347 0.950 . S
C1359 C1355 1.393 . S
C1359 C1358 1.391 . S
H1360 C1368 0.950 . S
H1361 C1373 0.950 . S
H1362 C1370 0.950 . S
H1363 C1372 0.950 . S
H1364 C1374 0.950 . S
H1365 C1376 0.950 . S
H1366 C1378 0.950 . S
H1367 C1379 0.950 . S
C1368 H1360 0.950 . S
C1368 C1369 1.386 1_655 S
C1368 C1370 1.391 . S
C1369 C1368 1.386 1_455 S
C1369 C1373 1.393 . S
C1370 H1362 0.950 . S
C1370 C1368 1.391 . S
C1370 C1371 1.400 . S
C1371 C1370 1.400 . S
C1371 C1372 1.398 1_655 S
C1371 C1377 1.491 . S
C1372 H1363 0.950 . S
C1372 C1371 1.398 1_455 S
C1372 C1373 1.391 . S
C1373 H1361 0.950 . S
C1373 C1369 1.393 . S
C1373 C1372 1.391 . S
C1374 H1364 0.950 . S
C1374 C1375 1.386 . S
C1374 C1376 1.391 . S
C1375 C1374 1.386 . S
C1375 C1379 1.393 . S
C1376 H1365 0.950 . S
C1376 C1374 1.391 . S
C1376 C1377 1.400 . S
C1377 C1371 1.491 . S
C1377 C1376 1.400 . S
C1377 C1378 1.398 . S
C1378 H1366 0.950 . S
C1378 C1377 1.398 . S
C1378 C1379 1.391 . S
C1379 H1367 0.950 . S
C1379 C1375 1.393 . S
C1379 C1378 1.391 . S
H1380 C1388 0.950 . S
H1381 C1393 0.950 . S
H1382 C1390 0.950 . S
H1383 C1392 0.950 . S
H1384 C1394 0.950 . S
H1385 C1396 0.950 . S
H1386 C1398 0.950 . S
H1387 C1399 0.950 . S
C1388 H1380 0.950 . S
C1388 C1389 1.386 . S
C1388 C1390 1.391 . S
C1389 C1388 1.386 . S
C1389 C1393 1.393 . S
C1390 H1382 0.950 . S
C1390 C1388 1.391 . S
C1390 C1391 1.400 . S
C1391 C1390 1.400 . S
C1391 C1392 1.398 . S
C1391 C1397 1.491 . S
C1392 H1383 0.950 . S
C1392 C1391 1.398 . S
C1392 C1393 1.391 . S
C1393 H1381 0.950 . S
C1393 C1389 1.393 . S
C1393 C1392 1.391 . S
C1394 H1384 0.950 . S
C1394 C1395 1.386 . S
C1394 C1396 1.391 . S
C1395 C1394 1.386 . S
C1395 C1399 1.393 . S
C1396 H1385 0.950 . S
C1396 C1394 1.391 . S
C1396 C1397 1.400 . S
C1397 C1391 1.491 . S
C1397 C1396 1.400 . S
C1397 C1398 1.398 . S
C1398 H1386 0.950 . S
C1398 C1397 1.398 . S
C1398 C1399 1.391 . S
C1399 H1387 0.950 . S
C1399 C1395 1.393 . S
C1399 C1398 1.391 . S
H1400 C1408 0.950 . S
H1401 C1413 0.950 . S
H1402 C1410 0.950 . S
H1403 C1412 0.950 . S
H1404 C1414 0.950 . S
H1405 C1416 0.950 . S
H1406 C1418 0.950 . S
H1407 C1419 0.950 . S
C1408 H1400 0.950 . S
C1408 C1409 1.386 . S
C1408 C1410 1.391 . S
C1409 C1408 1.386 . S
C1409 C1413 1.393 . S
C1410 H1402 0.950 . S
C1410 C1408 1.391 . S
C1410 C1411 1.400 . S
C1411 C1410 1.400 . S
C1411 C1412 1.398 . S
C1411 C1417 1.491 . S
C1412 H1403 0.950 . S
C1412 C1411 1.398 . S
C1412 C1413 1.391 . S
C1413 H1401 0.950 . S
C1413 C1409 1.393 . S
C1413 C1412 1.391 . S
C1414 H1404 0.950 . S
C1414 C1415 1.386 . S
C1414 C1416 1.391 . S
C1415 C1414 1.386 . S
C1415 C1419 1.393 . S
C1416 H1405 0.950 . S
C1416 C1414 1.391 . S
C1416 C1417 1.400 . S
C1417 C1411 1.491 . S
C1417 C1416 1.400 . S
C1417 C1418 1.398 . S
C1418 H1406 0.950 . S
C1418 C1417 1.398 . S
C1418 C1419 1.391 . S
C1419 H1407 0.950 . S
C1419 C1415 1.393 . S
C1419 C1418 1.391 . S
H1420 C1428 0.950 . S
H1421 C1433 0.950 1_554 S
H1422 C1430 0.950 . S
H1423 C1432 0.950 . S
H1424 C1434 0.950 . S
H1425 C1436 0.950 . S
H1426 C1438 0.950 . S
H1427 C1439 0.950 . S
C1428 H1420 0.950 . S
C1428 C1429 1.386 . S
C1428 C1430 1.391 . S
C1429 C1428 1.386 . S
C1429 C1433 1.393 . S
C1430 H1422 0.950 . S
C1430 C1428 1.391 . S
C1430 C1431 1.400 . S
C1431 C1430 1.400 . S
C1431 C1432 1.398 . S
C1431 C1437 1.491 . S
C1432 H1423 0.950 . S
C1432 C1431 1.398 . S
C1432 C1433 1.391 . S
C1433 H1421 0.950 1_556 S
C1433 C1429 1.393 . S
C1433 C1432 1.391 . S
C1434 H1424 0.950 . S
C1434 C1435 1.386 . S
C1434 C1436 1.391 . S
C1435 C1434 1.386 . S
C1435 C1439 1.393 . S
C1436 H1425 0.950 . S
C1436 C1434 1.391 . S
C1436 C1437 1.400 . S
C1437 C1431 1.491 . S
C1437 C1436 1.400 . S
C1437 C1438 1.398 . S
C1438 H1426 0.950 . S
C1438 C1437 1.398 . S
C1438 C1439 1.391 . S
C1439 H1427 0.950 . S
C1439 C1435 1.393 . S
C1439 C1438 1.391 . S
H1440 C1448 0.950 . S
H1441 C1453 0.950 . S
H1442 C1450 0.950 . S
H1443 C1452 0.950 . S
H1444 C1454 0.950 . S
H1445 C1456 0.950 . S
H1446 C1458 0.950 . S
H1447 C1459 0.950 . S
C1448 H1440 0.950 . S
C1448 C1449 1.386 . S
C1448 C1450 1.391 . S
C1449 C1448 1.386 . S
C1449 C1453 1.393 . S
C1450 H1442 0.950 . S
C1450 C1448 1.391 . S
C1450 C1451 1.400 . S
C1451 C1450 1.400 . S
C1451 C1452 1.398 . S
C1451 C1457 1.491 . S
C1452 H1443 0.950 . S
C1452 C1451 1.398 . S
C1452 C1453 1.391 . S
C1453 H1441 0.950 . S
C1453 C1449 1.393 . S
C1453 C1452 1.391 . S
C1454 H1444 0.950 . S
C1454 C1455 1.386 . S
C1454 C1456 1.391 . S
C1455 C1454 1.386 . S
C1455 C1459 1.393 . S
C1456 H1445 0.950 . S
C1456 C1454 1.391 . S
C1456 C1457 1.400 . S
C1457 C1451 1.491 . S
C1457 C1456 1.400 . S
C1457 C1458 1.398 . S
C1458 H1446 0.950 . S
C1458 C1457 1.398 . S
C1458 C1459 1.391 . S
C1459 H1447 0.950 . S
C1459 C1455 1.393 . S
C1459 C1458 1.391 . S
H1460 C1468 0.950 . S
H1461 C1473 0.950 . S
H1462 C1470 0.950 . S
H1463 C1472 0.950 . S
H1464 C1474 0.950 . S
H1465 C1476 0.950 . S
H1466 C1478 0.950 . S
H1467 C1479 0.950 . S
C1468 H1460 0.950 . S
C1468 C1469 1.386 . S
C1468 C1470 1.391 . S
C1469 C1468 1.386 . S
C1469 C1473 1.393 . S
C1470 H1462 0.950 . S
C1470 C1468 1.391 . S
C1470 C1471 1.400 . S
C1471 C1470 1.400 . S
C1471 C1472 1.398 . S
C1471 C1477 1.491 . S
C1472 H1463 0.950 . S
C1472 C1471 1.398 . S
C1472 C1473 1.391 . S
C1473 H1461 0.950 . S
C1473 C1469 1.393 . S
C1473 C1472 1.391 . S
C1474 H1464 0.950 . S
C1474 C1475 1.386 . S
C1474 C1476 1.391 . S
C1475 C1474 1.386 . S
C1475 C1479 1.393 . S
C1476 H1465 0.950 . S
C1476 C1474 1.391 . S
C1476 C1477 1.400 . S
C1477 C1471 1.491 . S
C1477 C1476 1.400 . S
C1477 C1478 1.398 . S
C1478 H1466 0.950 . S
C1478 C1477 1.398 . S
C1478 C1479 1.391 . S
C1479 H1467 0.950 . S
C1479 C1475 1.393 . S
C1479 C1478 1.391 . S
H1480 C1488 0.950 . S
H1481 C1493 0.950 . S
H1482 C1490 0.950 . S
H1483 C1492 0.950 . S
H1484 C1494 0.950 . S
H1485 C1496 0.950 . S
H1486 C1498 0.950 . S
H1487 C1499 0.950 . S
C1488 H1480 0.950 . S
C1488 C1489 1.386 . S
C1488 C1490 1.391 . S
C1489 C1488 1.386 . S
C1489 C1493 1.393 . S
C1490 H1482 0.950 . S
C1490 C1488 1.391 . S
C1490 C1491 1.400 . S
C1491 C1490 1.400 . S
C1491 C1492 1.398 . S
C1491 C1497 1.491 . S
C1492 H1483 0.950 . S
C1492 C1491 1.398 . S
C1492 C1493 1.391 . S
C1493 H1481 0.950 . S
C1493 C1489 1.393 . S
C1493 C1492 1.391 . S
C1494 H1484 0.950 . S
C1494 C1495 1.386 . S
C1494 C1496 1.391 . S
C1495 C1494 1.386 . S
C1495 C1499 1.393 . S
C1496 H1485 0.950 . S
C1496 C1494 1.391 . S
C1496 C1497 1.400 . S
C1497 C1491 1.491 . S
C1497 C1496 1.400 . S
C1497 C1498 1.398 . S
C1498 H1486 0.950 . S
C1498 C1497 1.398 . S
C1498 C1499 1.391 . S
C1499 H1487 0.950 . S
C1499 C1495 1.393 . S
C1499 C1498 1.391 . S
H1500 C1508 0.950 . S
H1501 C1513 0.950 . S
H1502 C1510 0.950 . S
H1503 C1512 0.950 1_655 S
H1504 C1514 0.950 . S
H1505 C1516 0.950 . S
H1506 C1518 0.950 1_455 S
H1507 C1519 0.950 . S
C1508 H1500 0.950 . S
C1508 C1509 1.386 . S
C1508 C1510 1.391 . S
C1509 C1508 1.386 . S
C1509 C1513 1.393 . S
C1510 H1502 0.950 . S
C1510 C1508 1.391 . S
C1510 C1511 1.400 . S
C1511 C1510 1.400 . S
C1511 C1512 1.398 . S
C1511 C1517 1.491 1_454 S
C1512 H1503 0.950 1_455 S
C1512 C1511 1.398 . S
C1512 C1513 1.391 . S
C1513 H1501 0.950 . S
C1513 C1509 1.393 . S
C1513 C1512 1.391 . S
C1514 H1504 0.950 . S
C1514 C1515 1.386 . S
C1514 C1516 1.391 . S
C1515 C1514 1.386 . S
C1515 C1519 1.393 . S
C1516 H1505 0.950 . S
C1516 C1514 1.391 . S
C1516 C1517 1.400 . S
C1517 C1511 1.491 1_656 S
C1517 C1516 1.400 . S
C1517 C1518 1.398 . S
C1518 H1506 0.950 1_655 S
C1518 C1517 1.398 . S
C1518 C1519 1.391 . S
C1519 H1507 0.950 . S
C1519 C1515 1.393 . S
C1519 C1518 1.391 . S
H1520 C1528 0.950 . S
H1521 C1533 0.950 . S
H1522 C1530 0.950 . S
H1523 C1532 0.950 . S
H1524 C1534 0.950 . S
H1525 C1536 0.950 . S
H1526 C1538 0.950 . S
H1527 C1539 0.950 . S
C1528 H1520 0.950 . S
C1528 C1529 1.386 . S
C1528 C1530 1.391 . S
C1529 C1528 1.386 . S
C1529 C1533 1.393 . S
C1530 H1522 0.950 . S
C1530 C1528 1.391 . S
C1530 C1531 1.400 . S
C1531 C1530 1.400 . S
C1531 C1532 1.398 . S
C1531 C1537 1.491 . S
C1532 H1523 0.950 . S
C1532 C1531 1.398 . S
C1532 C1533 1.391 . S
C1533 H1521 0.950 . S
C1533 C1529 1.393 . S
C1533 C1532 1.391 . S
C1534 H1524 0.950 . S
C1534 C1535 1.386 . S
C1534 C1536 1.391 . S
C1535 C1534 1.386 . S
C1535 C1539 1.393 . S
C1536 H1525 0.950 . S
C1536 C1534 1.391 . S
C1536 C1537 1.400 . S
C1537 C1531 1.491 . S
C1537 C1536 1.400 . S
C1537 C1538 1.398 . S
C1538 H1526 0.950 . S
C1538 C1537 1.398 . S
C1538 C1539 1.391 . S
C1539 H1527 0.950 . S
C1539 C1535 1.393 . S
C1539 C1538 1.391 . S
H1540 C1548 0.950 . S
H1541 C1553 0.950 . S
H1542 C1550 0.950 . S
H1543 C1552 0.950 . S
H1544 C1554 0.950 . S
H1545 C1556 0.950 . S
H1546 C1558 0.950 . S
H1547 C1559 0.950 . S
C1548 H1540 0.950 . S
C1548 C1549 1.386 . S
C1548 C1550 1.391 . S
C1549 C1548 1.386 . S
C1549 C1553 1.393 . S
C1550 H1542 0.950 . S
C1550 C1548 1.391 . S
C1550 C1551 1.400 . S
C1551 C1550 1.400 . S
C1551 C1552 1.398 . S
C1551 C1557 1.491 . S
C1552 H1543 0.950 . S
C1552 C1551 1.398 . S
C1552 C1553 1.391 . S
C1553 H1541 0.950 . S
C1553 C1549 1.393 . S
C1553 C1552 1.391 . S
C1554 H1544 0.950 . S
C1554 C1555 1.386 . S
C1554 C1556 1.391 . S
C1555 C1554 1.386 . S
C1555 C1559 1.393 . S
C1556 H1545 0.950 . S
C1556 C1554 1.391 . S
C1556 C1557 1.400 . S
C1557 C1551 1.491 . S
C1557 C1556 1.400 . S
C1557 C1558 1.398 . S
C1558 H1546 0.950 . S
C1558 C1557 1.398 . S
C1558 C1559 1.391 . S
C1559 H1547 0.950 . S
C1559 C1555 1.393 . S
C1559 C1558 1.391 . S
H1560 C1568 0.950 . S
H1561 C1573 0.950 . S
H1562 C1570 0.950 1_554 S
H1563 C1572 0.950 1_655 S
H1564 C1574 0.950 . S
H1565 C1576 0.950 1_556 S
H1566 C1578 0.950 1_455 S
H1567 C1579 0.950 . S
C1568 H1560 0.950 . S
C1568 C1569 1.386 . S
C1568 C1570 1.391 . S
C1569 C1568 1.386 . S
C1569 C1573 1.393 1_545 S
C1570 H1562 0.950 1_556 S
C1570 C1568 1.391 . S
C1570 C1571 1.400 . S
C1571 C1570 1.400 . S
C1571 C1572 1.398 1_545 S
C1571 C1577 1.491 1_446 S
C1572 H1563 0.950 1_455 S
C1572 C1571 1.398 1_565 S
C1572 C1573 1.391 . S
C1573 H1561 0.950 . S
C1573 C1569 1.393 1_565 S
C1573 C1572 1.391 . S
C1574 H1564 0.950 . S
C1574 C1575 1.386 . S
C1574 C1576 1.391 . S
C1575 C1574 1.386 . S
C1575 C1579 1.393 1_565 S
C1576 H1565 0.950 1_554 S
C1576 C1574 1.391 . S
C1576 C1577 1.400 . S
C1577 C1571 1.491 1_664 S
C1577 C1576 1.400 . S
C1577 C1578 1.398 1_565 S
C1578 H1566 0.950 1_655 S
C1578 C1577 1.398 1_545 S
C1578 C1579 1.391 . S
C1579 H1567 0.950 . S
C1579 C1575 1.393 1_545 S
C1579 C1578 1.391 . S
H1580 C1588 0.950 . S
H1581 C1593 0.950 . S
H1582 C1590 0.950 . S
H1583 C1592 0.950 . S
H1584 C1594 0.950 . S
H1585 C1596 0.950 . S
H1586 C1598 0.950 . S
H1587 C1599 0.950 . S
C1588 H1580 0.950 . S
C1588 C1589 1.386 1_565 S
C1588 C1590 1.391 . S
C1589 C1588 1.386 1_545 S
C1589 C1593 1.393 . S
C1590 H1582 0.950 . S
C1590 C1588 1.391 . S
C1590 C1591 1.400 1_565 S
C1591 C1590 1.400 1_545 S
C1591 C1592 1.398 . S
C1591 C1597 1.491 1_545 S
C1592 H1583 0.950 . S
C1592 C1591 1.398 . S
C1592 C1593 1.391 . S
C1593 H1581 0.950 . S
C1593 C1589 1.393 . S
C1593 C1592 1.391 . S
C1594 H1584 0.950 . S
C1594 C1595 1.386 1_545 S
C1594 C1596 1.391 . S
C1595 C1594 1.386 1_565 S
C1595 C1599 1.393 . S
C1596 H1585 0.950 . S
C1596 C1594 1.391 . S
C1596 C1597 1.400 1_545 S
C1597 C1591 1.491 1_565 S
C1597 C1596 1.400 1_565 S
C1597 C1598 1.398 . S
C1598 H1586 0.950 . S
C1598 C1597 1.398 . S
C1598 C1599 1.391 . S
C1599 H1587 0.950 . S
C1599 C1595 1.393 . S
C1599 C1598 1.391 . S
C649 C13 3.130 . S
C655 C413 3.131 . S
C669 C53 3.138 . S
C675 C453 3.136 . S
C689 C93 3.137 . S
C695 C333 3.135 . S
C709 C133 3.130 . S
C715 C373 3.130 . S
C729 C184 3.135 . S
C735 C584 3.132 . S
C749 C224 3.132 . S
C755 C624 3.130 . S
C769 C264 3.132 . S
C775 C504 3.130 . S
C789 C304 3.132 . S
C795 C544 3.130 . S
C809 C362 3.697 . S
C815 C24 3.655 1_556 S
C829 C402 3.696 . S
C835 C64 3.657 . S
C849 C442 3.699 . S
C855 C104 3.654 . S
C869 C322 3.695 . S
C875 C144 3.659 . S
C889 C173 3.658 1_554 S
C895 C543 3.695 . S
C909 C583 3.702 . S
C915 C213 3.650 . S
C929 C623 3.694 . S
C935 C253 3.659 . S
C949 C503 3.701 . S
C955 C293 3.650 . S
C969 C42 3.697 . S
C975 C344 3.655 . S
C989 C384 3.659 . S
C995 C82 3.694 . S
C1009 C424 3.656 1_556 S
C1015 C122 3.697 . S
C1029 C464 3.648 . S
C1035 C2 3.703 . S
C1049 C493 3.659 . S
C1055 C223 3.694 . S
C1069 C263 3.697 . S
C1075 C533 3.656 . S
C1089 C303 3.703 . S
C1095 C573 3.648 1_554 S
C1109 C613 3.659 . S
C1115 C183 3.694 . S
C1129 C26 0.404 . S
C1135 C602 0.298 . S
C1149 C66 0.434 . S
C1155 C162 0.275 . S
C1169 C522 0.236 . S
C1175 C106 0.366 . S
C1189 C242 0.311 . S
C1195 C146 0.460 . S
C1209 C177 0.443 . S
C1215 C463 0.325 . S
C1229 C217 0.462 . S
C1235 C23 0.315 . S
C1249 C383 0.252 . S
C1255 C257 0.410 . S
C1269 C103 0.328 . S
C1275 C297 0.453 . S
C1289 C346 0.405 . S
C1295 C282 0.299 . S
C1309 C386 0.371 . S
C1315 C482 0.258 . S
C1329 C202 0.235 . S
C1335 C426 0.385 . S
C1349 C562 0.307 . S
C1355 C466 0.415 . S
C1369 C497 0.366 . S
C1375 C143 0.247 . S
C1389 C537 0.424 . S
C1395 C343 0.314 . S
C1409 C577 0.370 . S
C1415 C63 0.257 . S
C1429 C423 0.234 . S
C1435 C617 0.368 . S
C1449 C17 1.453 . S
C1455 C506 1.453 . S
C1469 C57 1.465 . S
C1475 C226 1.465 . S
C1489 C97 1.484 . S
C1495 C586 1.484 . S
C1509 C306 1.471 . S
C1515 C137 1.471 . S
C1529 C186 1.477 . S
C1535 C337 1.477 . S
C1549 C417 1.463 . S
C1555 C266 1.463 . S
C1569 C377 1.454 . S
C1575 C546 1.454 . S
C1589 C626 1.453 . S
C1595 C457 1.453 . S
