# Generated by pormake.
# Topology bcu-i, (5)-cn, num edge types: 1
# Building blocks:
#     Node 0, Type 0, BuildingBlock: XOMCOT_clean_sbu_1, # of connection points: 5
#     Node 1, Type 0, BuildingBlock: XOMCOT_clean_sbu_1, # of connection points: 5
#     Node 2, Type 0, BuildingBlock: XOMCOT_clean_sbu_1, # of connection points: 5
#     Node 3, Type 0, BuildingBlock: XOMCOT_clean_sbu_1, # of connection points: 5
#     Node 4, Type 0, BuildingBlock: XOMCOT_clean_sbu_1, # of connection points: 5
#     Node 5, Type 0, BuildingBlock: XOMCOT_clean_sbu_1, # of connection points: 5
#     Node 6, Type 0, BuildingBlock: XOMCOT_clean_sbu_1, # of connection points: 5
#     Node 7, Type 0, BuildingBlock: XOMCOT_clean_sbu_1, # of connection points: 5
#     Node 8, Type 0, BuildingBlock: XOMCOT_clean_sbu_1, # of connection points: 5
#     Node 9, Type 0, BuildingBlock: XOMCOT_clean_sbu_1, # of connection points: 5
#     Node 10, Type 0, BuildingBlock: XOMCOT_clean_sbu_1, # of connection points: 5
#     Node 11, Type 0, BuildingBlock: XOMCOT_clean_sbu_1, # of connection points: 5
#     Node 12, Type 0, BuildingBlock: XOMCOT_clean_sbu_1, # of connection points: 5
#     Node 13, Type 0, BuildingBlock: XOMCOT_clean_sbu_1, # of connection points: 5
#     Node 14, Type 0, BuildingBlock: XOMCOT_clean_sbu_1, # of connection points: 5
#     Node 15, Type 0, BuildingBlock: XOMCOT_clean_sbu_1, # of connection points: 5
#     Edge 16, Type (0, 0), BuildingBlock: OJICUG_clean_linker_0, # of connection points: 2
#     Edge 17, Type (0, 0), BuildingBlock: OJICUG_clean_linker_0, # of connection points: 2
#     Edge 18, Type (0, 0), BuildingBlock: OJICUG_clean_linker_0, # of connection points: 2
#     Edge 19, Type (0, 0), BuildingBlock: OJICUG_clean_linker_0, # of connection points: 2
#     Edge 20, Type (0, 0), BuildingBlock: OJICUG_clean_linker_0, # of connection points: 2
#     Edge 21, Type (0, 0), BuildingBlock: OJICUG_clean_linker_0, # of connection points: 2
#     Edge 22, Type (0, 0), BuildingBlock: OJICUG_clean_linker_0, # of connection points: 2
#     Edge 23, Type (0, 0), BuildingBlock: OJICUG_clean_linker_0, # of connection points: 2
#     Edge 24, Type (0, 0), BuildingBlock: OJICUG_clean_linker_0, # of connection points: 2
#     Edge 25, Type (0, 0), BuildingBlock: OJICUG_clean_linker_0, # of connection points: 2
#     Edge 26, Type (0, 0), BuildingBlock: OJICUG_clean_linker_0, # of connection points: 2
#     Edge 27, Type (0, 0), BuildingBlock: OJICUG_clean_linker_0, # of connection points: 2
#     Edge 28, Type (0, 0), BuildingBlock: OJICUG_clean_linker_0, # of connection points: 2
#     Edge 29, Type (0, 0), BuildingBlock: OJICUG_clean_linker_0, # of connection points: 2
#     Edge 30, Type (0, 0), BuildingBlock: OJICUG_clean_linker_0, # of connection points: 2
#     Edge 31, Type (0, 0), BuildingBlock: OJICUG_clean_linker_0, # of connection points: 2
#     Edge 32, Type (0, 0), BuildingBlock: OJICUG_clean_linker_0, # of connection points: 2
#     Edge 33, Type (0, 0), BuildingBlock: OJICUG_clean_linker_0, # of connection points: 2
#     Edge 34, Type (0, 0), BuildingBlock: OJICUG_clean_linker_0, # of connection points: 2
#     Edge 35, Type (0, 0), BuildingBlock: OJICUG_clean_linker_0, # of connection points: 2
#     Edge 36, Type (0, 0), BuildingBlock: OJICUG_clean_linker_0, # of connection points: 2
#     Edge 37, Type (0, 0), BuildingBlock: OJICUG_clean_linker_0, # of connection points: 2
#     Edge 38, Type (0, 0), BuildingBlock: OJICUG_clean_linker_0, # of connection points: 2
#     Edge 39, Type (0, 0), BuildingBlock: OJICUG_clean_linker_0, # of connection points: 2
#     Edge 40, Type (0, 0), BuildingBlock: OJICUG_clean_linker_0, # of connection points: 2
#     Edge 41, Type (0, 0), BuildingBlock: OJICUG_clean_linker_0, # of connection points: 2
#     Edge 42, Type (0, 0), BuildingBlock: OJICUG_clean_linker_0, # of connection points: 2
#     Edge 43, Type (0, 0), BuildingBlock: OJICUG_clean_linker_0, # of connection points: 2
#     Edge 44, Type (0, 0), BuildingBlock: OJICUG_clean_linker_0, # of connection points: 2
#     Edge 45, Type (0, 0), BuildingBlock: OJICUG_clean_linker_0, # of connection points: 2
#     Edge 46, Type (0, 0), BuildingBlock: OJICUG_clean_linker_0, # of connection points: 2
#     Edge 47, Type (0, 0), BuildingBlock: OJICUG_clean_linker_0, # of connection points: 2
#     Edge 48, Type (0, 0), BuildingBlock: OJICUG_clean_linker_0, # of connection points: 2
#     Edge 49, Type (0, 0), BuildingBlock: OJICUG_clean_linker_0, # of connection points: 2
#     Edge 50, Type (0, 0), BuildingBlock: OJICUG_clean_linker_0, # of connection points: 2
#     Edge 51, Type (0, 0), BuildingBlock: OJICUG_clean_linker_0, # of connection points: 2
#     Edge 52, Type (0, 0), BuildingBlock: OJICUG_clean_linker_0, # of connection points: 2
#     Edge 53, Type (0, 0), BuildingBlock: OJICUG_clean_linker_0, # of connection points: 2
#     Edge 54, Type (0, 0), BuildingBlock: OJICUG_clean_linker_0, # of connection points: 2
#     Edge 55, Type (0, 0), BuildingBlock: OJICUG_clean_linker_0, # of connection points: 2
# Relax obj value: 0.561
# Max RMSD: 0.213
# Mean RMSD: 0.213
data_MOF--net-bcu-i--node1-XOMCOT_clean_sbu_1--edge1-OJICUG_clean_linker_0
_symmetry_space_group_name_H-M    P1
_symmetry_Int_Tables_number       1
_symmetry_cell_setting            triclinic
loop_
_symmetry_equiv_pos_as_xyz
'x, y, z'
_cell_length_a     39.81258
_cell_length_b     39.801898
_cell_length_c     31.833558
_cell_angle_alpha  89.981367
_cell_angle_beta   89.997589
_cell_angle_gamma 90.030585
loop_
_atom_site_label
_atom_site_type_symbol
_atom_site_fract_x
_atom_site_fract_y
_atom_site_fract_z
_atom_type_partial_charge
C0 C 0.14043 0.08284 0.28652 0.0
C1 C 0.10879 0.09477 0.27763 0.0
N2 N 0.09404 0.10347 0.31414 0.0
N3 N 0.14549 0.08435 0.32831 0.0
C4 C 0.11669 0.09667 0.34432 0.0
H5 H 0.15892 0.0744 0.26398 0.0
Co6 Co 0.18498 0.07387 0.35539 0.0
C7 C 0.18258 0.1127 0.43451 0.0
O8 O 0.21428 0.12086 0.42896 0.0
N9 N 0.22517 0.06203 0.38271 0.0
C10 C 0.27666 0.04569 0.40157 0.0
C11 C 0.25765 0.06036 0.37022 0.0
C12 C 0.22521 0.04792 0.42118 0.0
N13 N 0.256 0.0384 0.43367 0.0
O14 O 0.16675 0.03157 0.36945 0.0
H15 H 0.26711 0.06789 0.33991 0.0
H16 H 0.20261 0.0434 0.43924 0.0
O17 O 0.16787 0.09375 0.4078 0.0
C18 C 0.17519 0.01135 0.34036 0.0
O19 O 0.19567 0.02219 0.31092 0.0
N20 N 0.20246 0.11437 0.33663 0.0
C21 C 0.22331 0.1688 0.28895 0.0
C22 C 0.20194 0.17369 0.32327 0.0
C23 C 0.1908 0.14583 0.34598 0.0
C24 C 0.22222 0.10935 0.30237 0.0
C25 C 0.23335 0.13622 0.2784 0.0
H26 H 0.17159 0.14961 0.36936 0.0
H27 H 0.22801 0.08408 0.29236 0.0
H28 H 0.11272 0.10197 0.37724 0.0
H29 H 0.09771 0.09729 0.24674 0.0
H30 H 0.30328 0.04021 0.40056 0.0
H31 H 0.19305 0.19857 0.3314 0.0
H32 H 0.24959 0.13152 0.25173 0.0
C33 C 0.89458 0.13828 0.28682 0.0
C34 C 0.88151 0.107 0.27848 0.0
N35 N 0.87353 0.09241 0.31536 0.0
N36 N 0.89449 0.1433 0.32867 0.0
C37 C 0.88189 0.1148 0.34523 0.0
H38 H 0.90271 0.15662 0.2639 0.0
Co39 Co 0.9065 0.18268 0.35501 0.0
C40 C 0.87018 0.1807 0.43618 0.0
O41 O 0.86258 0.21264 0.43156 0.0
N42 N 0.91983 0.2228 0.38139 0.0
C43 C 0.93654 0.27448 0.39907 0.0
C44 C 0.92137 0.25517 0.36839 0.0
C45 C 0.93471 0.22315 0.41939 0.0
N46 N 0.94438 0.25408 0.43121 0.0
O47 O 0.94878 0.16382 0.36723 0.0
H48 H 0.91314 0.26443 0.33827 0.0
H49 H 0.93931 0.20073 0.43779 0.0
O50 O 0.888 0.16592 0.40836 0.0
C51 C 0.96838 0.17068 0.33686 0.0
O52 O 0.9574 0.19059 0.3069 0.0
N53 N 0.86569 0.20072 0.33831 0.0
C54 C 0.80977 0.22307 0.29479 0.0
C55 C 0.80588 0.20172 0.32929 0.0
C56 C 0.83442 0.18976 0.34983 0.0
C57 C 0.86966 0.22031 0.30367 0.0
C58 C 0.84204 0.23218 0.28172 0.0
H59 H 0.83117 0.17054 0.37332 0.0
H60 H 0.89459 0.22549 0.2919 0.0
H61 H 0.87741 0.11092 0.37837 0.0
H62 H 0.87766 0.09607 0.24772 0.0
H63 H 0.94169 0.30116 0.39773 0.0
H64 H 0.78119 0.19347 0.33921 0.0
H65 H 0.84588 0.24829 0.25469 0.0
C66 C 0.83794 0.89753 0.28513 0.0
C67 C 0.8696 0.88599 0.27567 0.0
N68 N 0.88444 0.87631 0.31175 0.0
N69 N 0.83294 0.89486 0.32684 0.0
C70 C 0.86177 0.88214 0.34226 0.0
H71 H 0.81948 0.90673 0.26303 0.0
Co72 Co 0.79361 0.90549 0.3541 0.0
C73 C 0.79501 0.86636 0.43284 0.0
O74 O 0.76329 0.85872 0.42642 0.0
N75 N 0.75352 0.9176 0.38152 0.0
C76 C 0.70207 0.93356 0.40109 0.0
C77 C 0.72092 0.91904 0.36948 0.0
C78 C 0.75371 0.93175 0.41995 0.0
N79 N 0.72296 0.941 0.43288 0.0
O80 O 0.81226 0.9475 0.36843 0.0
H81 H 0.71121 0.91126 0.33939 0.0
H82 H 0.77642 0.93624 0.43782 0.0
O83 O 0.81046 0.88516 0.40655 0.0
C84 C 0.80432 0.96797 0.33938 0.0
O85 O 0.78355 0.95771 0.30995 0.0
N86 N 0.77585 0.86521 0.33512 0.0
C87 C 0.75513 0.81085 0.28731 0.0
C88 C 0.77672 0.80597 0.3214 0.0
C89 C 0.78776 0.83378 0.34419 0.0
C90 C 0.75593 0.87027 0.30102 0.0
C91 C 0.74483 0.84342 0.277 0.0
H92 H 0.80711 0.83001 0.3674 0.0
H93 H 0.74999 0.89556 0.29118 0.0
H94 H 0.86578 0.87611 0.37499 0.0
H95 H 0.88072 0.88464 0.24469 0.0
H96 H 0.67537 0.93866 0.40054 0.0
H97 H 0.78584 0.78113 0.32933 0.0
H98 H 0.72841 0.84812 0.2505 0.0
C99 C 0.08906 0.8392 0.28658 0.0
C100 C 0.10307 0.87014 0.27869 0.0
N101 N 0.10979 0.88491 0.31584 0.0
N102 N 0.08726 0.83455 0.32843 0.0
C103 C 0.09978 0.86293 0.34543 0.0
H104 H 0.08131 0.82093 0.26338 0.0
Co105 Co 0.07249 0.79592 0.35438 0.0
C106 C 0.10282 0.79742 0.43913 0.0
O107 O 0.1076 0.7648 0.4373 0.0
N108 N 0.05657 0.75627 0.38044 0.0
C109 C 0.04581 0.70442 0.40397 0.0
C110 C 0.06535 0.72345 0.37717 0.0
C111 C 0.03169 0.75625 0.40919 0.0
N112 N 0.02446 0.7253 0.42348 0.0
O113 O 0.03049 0.81677 0.36272 0.0
H114 H 0.08504 0.71356 0.35746 0.0
H115 H 0.0196 0.77875 0.42076 0.0
O116 O 0.08857 0.81255 0.40858 0.0
C117 C 0.01154 0.81113 0.33136 0.0
O118 O 0.02261 0.79143 0.30127 0.0
N119 N 0.11322 0.77631 0.34122 0.0
C120 C 0.16982 0.7529 0.3002 0.0
C121 C 0.17317 0.7728 0.33615 0.0
C122 C 0.14433 0.78526 0.3556 0.0
C123 C 0.10982 0.75757 0.30577 0.0
C124 C 0.13778 0.74527 0.28497 0.0
H125 H 0.14733 0.80337 0.38046 0.0
H126 H 0.08504 0.75283 0.29314 0.0
H127 H 0.10269 0.86709 0.37879 0.0
H128 H 0.10813 0.88083 0.24806 0.0
H129 H 0.04712 0.67752 0.40871 0.0
H130 H 0.19775 0.77965 0.34798 0.0
H131 H 0.13439 0.72993 0.25718 0.0
C132 C 0.13956 0.89041 0.70986 0.0
C133 C 0.10852 0.87675 0.71808 0.0
N134 N 0.09373 0.86952 0.6811 0.0
N135 N 0.14424 0.89147 0.66797 0.0
C136 C 0.11579 0.87885 0.65128 0.0
H137 H 0.15787 0.89843 0.73286 0.0
Co138 Co 0.18298 0.90556 0.64174 0.0
C139 C 0.18091 0.87478 0.55731 0.0
O140 O 0.21346 0.8696 0.55913 0.0
N141 N 0.22277 0.92081 0.61538 0.0
C142 C 0.27473 0.93115 0.59196 0.0
C143 C 0.2555 0.91172 0.61869 0.0
C144 C 0.22304 0.9457 0.58664 0.0
N145 N 0.25405 0.95271 0.57246 0.0
O146 O 0.1627 0.94786 0.63316 0.0
H147 H 0.26519 0.89199 0.63849 0.0
H148 H 0.20068 0.95809 0.57511 0.0
O149 O 0.166 0.8894 0.58774 0.0
C150 C 0.16947 0.967 0.664 0.0
O151 O 0.18949 0.95571 0.69364 0.0
N152 N 0.20209 0.86465 0.65522 0.0
C153 C 0.22534 0.80811 0.69656 0.0
C154 C 0.20533 0.80468 0.66071 0.0
C155 C 0.19295 0.83351 0.6411 0.0
C156 C 0.2209 0.86811 0.6906 0.0
C157 C 0.23311 0.84018 0.71156 0.0
H158 H 0.17481 0.8305 0.61627 0.0
H159 H 0.22583 0.89294 0.703 0.0
H160 H 0.11163 0.87537 0.618 0.0
H161 H 0.09779 0.87228 0.74882 0.0
H162 H 0.30163 0.92971 0.58739 0.0
H163 H 0.1984 0.78007 0.64905 0.0
H164 H 0.24853 0.84363 0.73928 0.0
C165 C 0.08635 0.14185 0.71196 0.0
C166 C 0.09898 0.11053 0.72097 0.0
N167 N 0.10736 0.09559 0.68447 0.0
N168 N 0.087 0.14654 0.67007 0.0
C169 C 0.0997 0.11788 0.65412 0.0
H170 H 0.07759 0.16023 0.73444 0.0
Co171 Co 0.07366 0.18528 0.64334 0.0
C172 C 0.10696 0.18454 0.56068 0.0
O173 O 0.11227 0.21697 0.56459 0.0
N174 N 0.05896 0.22506 0.61652 0.0
C175 C 0.04773 0.27689 0.59324 0.0
C176 C 0.06665 0.25808 0.62102 0.0
C177 C 0.03548 0.22474 0.58602 0.0
N178 N 0.02793 0.25561 0.57191 0.0
O179 O 0.03159 0.16493 0.63307 0.0
H180 H 0.08489 0.26827 0.64258 0.0
H181 H 0.02432 0.20207 0.57347 0.0
O182 O 0.09136 0.16865 0.58965 0.0
C183 C 0.01175 0.17238 0.66297 0.0
O184 O 0.02244 0.19298 0.69234 0.0
N185 N 0.11415 0.2044 0.6586 0.0
C186 C 0.1696 0.22607 0.70354 0.0
C187 C 0.17386 0.20581 0.66804 0.0
C188 C 0.14554 0.19429 0.64657 0.0
C189 C 0.10981 0.22352 0.69356 0.0
C190 C 0.13719 0.235 0.71624 0.0
H191 H 0.149 0.1759 0.62211 0.0
H192 H 0.08469 0.22905 0.70449 0.0
H193 H 0.10416 0.11366 0.62103 0.0
H194 H 0.10174 0.09964 0.75193 0.0
H195 H 0.04811 0.30392 0.58945 0.0
H196 H 0.19866 0.19797 0.65808 0.0
H197 H 0.13303 0.25069 0.74356 0.0
C198 C 0.83788 0.08753 0.71121 0.0
C199 C 0.86887 0.10102 0.71999 0.0
N200 N 0.88386 0.10882 0.68331 0.0
N201 N 0.83343 0.08705 0.66928 0.0
C202 C 0.86193 0.09996 0.65307 0.0
H203 H 0.81951 0.07903 0.73388 0.0
Co204 Co 0.79492 0.07259 0.64295 0.0
C205 C 0.79617 0.10316 0.55846 0.0
O206 O 0.76354 0.10767 0.56088 0.0
N207 N 0.75529 0.05684 0.61674 0.0
C208 C 0.70343 0.04578 0.59352 0.0
C209 C 0.7224 0.06526 0.62044 0.0
C210 C 0.75535 0.03221 0.58765 0.0
N211 N 0.72441 0.02481 0.57353 0.0
O212 O 0.81564 0.03051 0.63448 0.0
H213 H 0.71243 0.08459 0.64062 0.0
H214 H 0.7779 0.02037 0.57581 0.0
O215 O 0.81173 0.0889 0.58872 0.0
C216 C 0.80951 0.01128 0.66545 0.0
O217 O 0.78937 0.0221 0.69523 0.0
N218 N 0.77548 0.11338 0.65619 0.0
C219 C 0.75268 0.17017 0.69733 0.0
C220 C 0.77271 0.17338 0.6615 0.0
C221 C 0.78486 0.14445 0.64199 0.0
C222 C 0.7566 0.11011 0.69154 0.0
C223 C 0.74459 0.13818 0.7124 0.0
H224 H 0.80311 0.14732 0.61726 0.0
H225 H 0.75158 0.08535 0.7041 0.0
H226 H 0.86626 0.10377 0.61988 0.0
H227 H 0.87949 0.10481 0.75092 0.0
H228 H 0.67649 0.04681 0.58911 0.0
H229 H 0.77991 0.19792 0.6498 0.0
H230 H 0.72913 0.1349 0.74012 0.0
C231 C 0.89625 0.83787 0.7121 0.0
C232 C 0.8845 0.86947 0.72153 0.0
N233 N 0.8751 0.88439 0.68539 0.0
N234 N 0.89397 0.83299 0.67033 0.0
C235 C 0.88129 0.86183 0.65486 0.0
H236 H 0.90526 0.81935 0.73425 0.0
Co237 Co 0.90472 0.79371 0.643 0.0
C238 C 0.86576 0.79527 0.56413 0.0
O239 O 0.85815 0.76351 0.57039 0.0
N240 N 0.91692 0.75368 0.61547 0.0
C241 C 0.93297 0.70231 0.59569 0.0
C242 C 0.91837 0.72103 0.62736 0.0
C243 C 0.93114 0.75402 0.57708 0.0
N244 N 0.94044 0.72332 0.56402 0.0
O245 O 0.94682 0.81238 0.62887 0.0
H246 H 0.91054 0.71122 0.65738 0.0
H247 H 0.93565 0.7768 0.55934 0.0
O248 O 0.8845 0.81066 0.59054 0.0
C249 C 0.9672 0.80401 0.65783 0.0
O250 O 0.95663 0.78334 0.68722 0.0
N251 N 0.86443 0.77583 0.6618 0.0
C252 C 0.8101 0.75449 0.70926 0.0
C253 C 0.80515 0.77615 0.67524 0.0
C254 C 0.83295 0.78752 0.65264 0.0
C255 C 0.86953 0.75583 0.69584 0.0
C256 C 0.84271 0.74444 0.71969 0.0
H257 H 0.8291 0.8069 0.62947 0.0
H258 H 0.89483 0.75001 0.70573 0.0
H259 H 0.8755 0.86592 0.62208 0.0
H260 H 0.88279 0.88048 0.75254 0.0
H261 H 0.9381 0.6756 0.59612 0.0
H262 H 0.78026 0.78507 0.66723 0.0
H263 H 0.84746 0.72799 0.74615 0.0
C264 C 0.63927 0.5877 0.78772 0.0
C265 C 0.60842 0.60184 0.77979 0.0
N266 N 0.59385 0.60902 0.81693 0.0
N267 N 0.64406 0.58627 0.82957 0.0
C268 C 0.61584 0.59914 0.84654 0.0
H269 H 0.65744 0.5797 0.76453 0.0
Co270 Co 0.68281 0.57188 0.85549 0.0
C271 C 0.68123 0.60266 0.94001 0.0
O272 O 0.71381 0.60771 0.93809 0.0
N273 N 0.72263 0.55637 0.88154 0.0
C274 C 0.7746 0.54647 0.90519 0.0
C275 C 0.75529 0.56583 0.87852 0.0
C276 C 0.72304 0.53128 0.91001 0.0
N277 N 0.75407 0.52456 0.92436 0.0
O278 O 0.66218 0.52975 0.86421 0.0
H279 H 0.76485 0.5859 0.85915 0.0
H280 H 0.70075 0.51867 0.9214 0.0
O281 O 0.6662 0.5881 0.90962 0.0
C282 C 0.66782 0.51075 0.83289 0.0
O283 O 0.68753 0.52181 0.80278 0.0
N284 N 0.70215 0.61267 0.84191 0.0
C285 C 0.72507 0.66919 0.80017 0.0
C286 C 0.70526 0.67263 0.83618 0.0
C287 C 0.69305 0.64382 0.85601 0.0
C288 C 0.72082 0.60917 0.80641 0.0
C289 C 0.73287 0.6371 0.78525 0.0
H290 H 0.675 0.64684 0.88094 0.0
H291 H 0.7257 0.58434 0.79404 0.0
H292 H 0.61185 0.60251 0.87986 0.0
H293 H 0.5977 0.60678 0.74916 0.0
H294 H 0.80144 0.54832 0.91012 0.0
H295 H 0.69829 0.69724 0.84779 0.0
H296 H 0.74818 0.63363 0.75744 0.0
C297 C 0.39885 0.64149 0.78616 0.0
C298 C 0.38748 0.60977 0.77661 0.0
N299 N 0.3774 0.59498 0.81256 0.0
N300 N 0.39568 0.64658 0.82779 0.0
C301 C 0.38283 0.61775 0.84308 0.0
H302 H 0.40825 0.65995 0.76416 0.0
Co303 Co 0.40582 0.68602 0.85513 0.0
C304 C 0.36628 0.68418 0.93352 0.0
O305 O 0.3584 0.71585 0.92707 0.0
N306 N 0.41743 0.72622 0.88268 0.0
C307 C 0.43345 0.77767 0.90222 0.0
C308 C 0.41901 0.7588 0.87055 0.0
C309 C 0.43136 0.72607 0.92123 0.0
N310 N 0.44066 0.75681 0.93414 0.0
O311 O 0.44795 0.66779 0.8698 0.0
H312 H 0.41153 0.76845 0.84031 0.0
H313 H 0.43585 0.70336 0.93912 0.0
O314 O 0.38537 0.66895 0.90739 0.0
C315 C 0.46857 0.67641 0.84122 0.0
O316 O 0.45822 0.69726 0.81191 0.0
N317 N 0.36549 0.70343 0.83579 0.0
C318 C 0.31123 0.72398 0.78767 0.0
C319 C 0.30632 0.70227 0.82167 0.0
C320 C 0.33409 0.69132 0.8446 0.0
C321 C 0.37058 0.72346 0.80178 0.0
C322 C 0.34378 0.73447 0.77761 0.0
H323 H 0.33032 0.67191 0.86776 0.0
H324 H 0.39587 0.7296 0.79214 0.0
H325 H 0.37637 0.61379 0.8757 0.0
H326 H 0.38647 0.59859 0.74565 0.0
H327 H 0.43879 0.80434 0.90156 0.0
H328 H 0.28149 0.693 0.82941 0.0
H329 H 0.34852 0.75098 0.75119 0.0
C330 C 0.33923 0.39107 0.78557 0.0
C331 C 0.37007 0.37688 0.77767 0.0
N332 N 0.38476 0.37001 0.81482 0.0
N333 N 0.33459 0.39279 0.82744 0.0
C334 C 0.36287 0.3801 0.84441 0.0
H335 H 0.32097 0.39885 0.76239 0.0
Co336 Co 0.29591 0.40716 0.85355 0.0
C337 C 0.29713 0.37519 0.93735 0.0
O338 O 0.2646 0.37004 0.93489 0.0
N339 N 0.25621 0.42266 0.87987 0.0
C340 C 0.20435 0.43291 0.90365 0.0
C341 C 0.22344 0.41363 0.87667 0.0
C342 C 0.25608 0.44741 0.9088 0.0
N343 N 0.22512 0.45435 0.92322 0.0
O344 O 0.31679 0.44906 0.86288 0.0
H345 H 0.21364 0.39391 0.85693 0.0
H346 H 0.27851 0.45963 0.92041 0.0
O347 O 0.31235 0.39025 0.90748 0.0
C348 C 0.31134 0.46819 0.83161 0.0
O349 O 0.29171 0.45728 0.80134 0.0
N350 N 0.27634 0.36665 0.83928 0.0
C351 C 0.25421 0.31078 0.79551 0.0
C352 C 0.27408 0.30681 0.83141 0.0
C353 C 0.28585 0.33531 0.85229 0.0
C354 C 0.25752 0.37069 0.804 0.0
C355 C 0.24583 0.34311 0.78188 0.0
H356 H 0.304 0.33197 0.87705 0.0
H357 H 0.25238 0.39572 0.79242 0.0
H358 H 0.36698 0.377 0.87775 0.0
H359 H 0.38068 0.37168 0.74704 0.0
H360 H 0.17748 0.43138 0.90847 0.0
H361 H 0.28148 0.28205 0.8421 0.0
H362 H 0.23043 0.34704 0.75425 0.0
C363 C 0.57964 0.33811 0.78563 0.0
C364 C 0.59123 0.36982 0.77645 0.0
N365 N 0.60138 0.38427 0.81257 0.0
N366 N 0.58275 0.33268 0.82721 0.0
C367 C 0.59578 0.36131 0.84283 0.0
H368 H 0.57018 0.31986 0.76341 0.0
Co369 Co 0.57252 0.293 0.85402 0.0
C370 C 0.61161 0.29439 0.93274 0.0
O371 O 0.6195 0.26274 0.9262 0.0
N372 N 0.56083 0.25256 0.88102 0.0
C373 C 0.5447 0.2009 0.89966 0.0
C374 C 0.55927 0.2201 0.86838 0.0
C375 C 0.54674 0.25231 0.91949 0.0
N376 N 0.53738 0.22143 0.93185 0.0
O377 O 0.53031 0.31102 0.86853 0.0
H378 H 0.56685 0.21077 0.83802 0.0
H379 H 0.54218 0.27483 0.9377 0.0
O380 O 0.59264 0.30973 0.90658 0.0
C381 C 0.50985 0.30247 0.83976 0.0
O382 O 0.52036 0.28177 0.81039 0.0
N383 N 0.61297 0.27584 0.83489 0.0
C384 C 0.66753 0.25549 0.78729 0.0
C385 C 0.67223 0.27699 0.82151 0.0
C386 C 0.64431 0.28786 0.84418 0.0
C387 C 0.60808 0.25609 0.8006 0.0
C388 C 0.63504 0.24518 0.77667 0.0
H389 H 0.64794 0.30711 0.86755 0.0
H390 H 0.58285 0.25007 0.7906 0.0
H391 H 0.60228 0.36497 0.87548 0.0
H392 H 0.59236 0.38123 0.74561 0.0
H393 H 0.53935 0.17425 0.89855 0.0
H394 H 0.69703 0.2861 0.82968 0.0
H395 H 0.63048 0.22883 0.75006 0.0
C396 C 0.63965 0.39622 0.21037 0.0
C397 C 0.60797 0.38449 0.21943 0.0
N398 N 0.59345 0.37477 0.18317 0.0
N399 N 0.64499 0.39364 0.16872 0.0
C400 C 0.61633 0.38076 0.15294 0.0
H401 H 0.65792 0.40546 0.23271 0.0
Co402 Co 0.68455 0.40438 0.142 0.0
C403 C 0.68329 0.3661 0.06262 0.0
O404 O 0.71503 0.35845 0.0689 0.0
N405 N 0.72488 0.41658 0.11515 0.0
C406 C 0.7765 0.43271 0.0964 0.0
C407 C 0.75738 0.418 0.12765 0.0
C408 C 0.72502 0.43096 0.07684 0.0
N409 N 0.75588 0.44028 0.06439 0.0
O410 O 0.66631 0.44669 0.12816 0.0
H411 H 0.7668 0.41012 0.15784 0.0
H412 H 0.70247 0.43558 0.05871 0.0
O413 O 0.66786 0.38467 0.08915 0.0
C414 C 0.67482 0.46695 0.15718 0.0
O415 O 0.69535 0.45617 0.18658 0.0
N416 N 0.702 0.3638 0.16043 0.0
C417 C 0.72366 0.3087 0.20611 0.0
C418 C 0.70196 0.30427 0.17204 0.0
C419 C 0.69039 0.33244 0.1504 0.0
C420 C 0.72185 0.36838 0.1947 0.0
C421 C 0.73339 0.34115 0.2177 0.0
H422 H 0.67103 0.32893 0.12713 0.0
H423 H 0.72759 0.39353 0.20529 0.0
H424 H 0.6126 0.3747 0.12017 0.0
H425 H 0.59663 0.38302 0.25027 0.0
H426 H 0.80319 0.43785 0.09733 0.0
H427 H 0.69327 0.27946 0.16321 0.0
H428 H 0.74982 0.34544 0.24431 0.0
C429 C 0.58907 0.63929 0.21026 0.0
C430 C 0.60294 0.60833 0.21826 0.0
N431 N 0.60977 0.59354 0.18116 0.0
N432 N 0.58745 0.64393 0.16839 0.0
C433 C 0.59996 0.61552 0.15149 0.0
H434 H 0.5813 0.6576 0.23339 0.0
Co435 Co 0.57303 0.68264 0.14238 0.0
C436 C 0.60341 0.68082 0.05761 0.0
O437 O 0.60836 0.71342 0.05925 0.0
N438 N 0.55748 0.72243 0.11629 0.0
C439 C 0.54742 0.77443 0.09281 0.0
C440 C 0.56688 0.75511 0.11934 0.0
C441 C 0.5323 0.72284 0.08794 0.0
N442 N 0.52549 0.7539 0.0737 0.0
O443 O 0.53088 0.66205 0.13395 0.0
H444 H 0.58696 0.76468 0.13866 0.0
H445 H 0.51968 0.70054 0.0766 0.0
O446 O 0.58905 0.66586 0.08823 0.0
C447 C 0.51192 0.6677 0.1653 0.0
O448 O 0.52304 0.68737 0.19541 0.0
N449 N 0.61387 0.70196 0.15561 0.0
C450 C 0.67055 0.72511 0.19672 0.0
C451 C 0.67384 0.70527 0.16072 0.0
C452 C 0.64496 0.69294 0.14121 0.0
C453 C 0.61054 0.72063 0.19112 0.0
C454 C 0.63854 0.73279 0.21198 0.0
H455 H 0.64789 0.67489 0.11627 0.0
H456 H 0.58577 0.72546 0.20372 0.0
H457 H 0.60303 0.61135 0.11816 0.0
H458 H 0.60785 0.59765 0.24892 0.0
H459 H 0.54919 0.80129 0.08798 0.0
H460 H 0.6984 0.6984 0.14885 0.0
H461 H 0.6352 0.74811 0.23981 0.0
C462 C 0.33849 0.58081 0.2118 0.0
C463 C 0.37017 0.59236 0.2212 0.0
N464 N 0.38494 0.60216 0.18512 0.0
N465 N 0.33341 0.5836 0.17011 0.0
C466 C 0.3622 0.5964 0.15466 0.0
H467 H 0.32006 0.57156 0.23392 0.0
Co468 Co 0.29399 0.57316 0.14289 0.0
C469 C 0.29542 0.61265 0.06441 0.0
O470 O 0.26372 0.62029 0.07092 0.0
N471 N 0.25382 0.56126 0.11545 0.0
C472 C 0.20237 0.54521 0.09594 0.0
C473 C 0.22124 0.55965 0.12759 0.0
C474 C 0.25396 0.5473 0.07691 0.0
N475 N 0.22321 0.53799 0.06402 0.0
O476 O 0.31242 0.5311 0.12825 0.0
H477 H 0.2116 0.5672 0.1578 0.0
H478 H 0.27664 0.5429 0.05897 0.0
O479 O 0.31084 0.59368 0.09054 0.0
C480 C 0.30394 0.51056 0.157 0.0
O481 O 0.2833 0.52102 0.18647 0.0
N482 N 0.27636 0.6134 0.16217 0.0
C483 C 0.25522 0.66758 0.20997 0.0
C484 C 0.27692 0.67262 0.17601 0.0
C485 C 0.28818 0.64489 0.15324 0.0
C486 C 0.2564 0.60818 0.19621 0.0
C487 C 0.2451 0.63494 0.22023 0.0
H488 H 0.30755 0.64879 0.13008 0.0
H489 H 0.25051 0.58285 0.20595 0.0
H490 H 0.36615 0.60256 0.12195 0.0
H491 H 0.38135 0.59366 0.25215 0.0
H492 H 0.17569 0.53995 0.09656 0.0
H493 H 0.2859 0.69753 0.16814 0.0
H494 H 0.22862 0.63011 0.24664 0.0
C495 C 0.39011 0.33808 0.20841 0.0
C496 C 0.37649 0.3691 0.2167 0.0
N497 N 0.36937 0.38401 0.17975 0.0
N498 N 0.39127 0.33352 0.1665 0.0
C499 C 0.37875 0.36204 0.14987 0.0
H500 H 0.398 0.31967 0.23137 0.0
Co501 Co 0.40526 0.2948 0.14018 0.0
C502 C 0.374 0.29689 0.05596 0.0
O503 O 0.36869 0.26435 0.05787 0.0
N504 N 0.4204 0.255 0.11374 0.0
C505 C 0.43011 0.20303 0.08995 0.0
C506 C 0.4108 0.22237 0.11663 0.0
C507 C 0.4455 0.25455 0.08528 0.0
N508 N 0.45213 0.22351 0.07089 0.0
O509 O 0.44747 0.31525 0.13129 0.0
H510 H 0.39071 0.21284 0.136 0.0
H511 H 0.45826 0.27681 0.07404 0.0
O512 O 0.38883 0.31177 0.08627 0.0
C513 C 0.46656 0.30921 0.16242 0.0
O514 O 0.45548 0.28933 0.19235 0.0
N515 N 0.36443 0.27563 0.154 0.0
C516 C 0.30809 0.25315 0.19649 0.0
C517 C 0.30451 0.27307 0.16057 0.0
C518 C 0.33325 0.28504 0.14035 0.0
C519 C 0.36807 0.25679 0.18934 0.0
C520 C 0.34023 0.24496 0.21087 0.0
H521 H 0.33018 0.30318 0.11552 0.0
H522 H 0.39296 0.25164 0.20136 0.0
H523 H 0.37536 0.3663 0.1166 0.0
H524 H 0.37192 0.37973 0.24747 0.0
H525 H 0.42822 0.17619 0.08503 0.0
H526 H 0.27987 0.28031 0.14934 0.0
H527 H 0.34382 0.22956 0.23859 0.0
C528 C 0.16696 0.95828 0.30059 0.0
C529 C 0.15957 0.97798 0.33603 0.0
H530 H 0.15684 0.91323 0.26645 0.0
C531 C 0.13593 0.96631 0.36531 0.0
H532 H 0.18513 0.96651 0.27744 0.0
C533 C 0.11961 0.93564 0.35879 0.0
C534 C 0.12654 0.91636 0.3228 0.0
H535 H 0.12967 0.98103 0.39282 0.0
H536 H 0.1011 0.92735 0.38144 0.0
C537 C 0.15053 0.92788 0.29398 0.0
C538 C 0.04993 0.14171 0.28896 0.0
C539 C 0.06228 0.1199 0.31988 0.0
H540 H 0.01095 0.17528 0.27048 0.0
C541 C 0.04386 0.11538 0.35717 0.0
H542 H 0.06388 0.14612 0.2603 0.0
C543 C 0.01347 0.13222 0.36322 0.0
C544 C 0.00116 0.154 0.33216 0.0
H545 H 0.05276 0.09853 0.38142 0.0
H546 H -0.00044 0.12801 0.39199 0.0
C547 C 0.01977 0.15868 0.29509 0.0
C548 C 0.84433 0.0121 0.36485 0.0
C549 C 0.82113 0.00072 0.33487 0.0
H550 H 0.87968 0.05037 0.38174 0.0
C551 C 0.81537 0.02007 0.29863 0.0
H552 H 0.84937 -0.00238 0.39297 0.0
C553 C 0.83285 0.04989 0.29208 0.0
C554 C 0.85625 0.06119 0.32177 0.0
H555 H 0.79763 0.01201 0.27487 0.0
H556 H 0.82771 0.06435 0.26401 0.0
C557 C 0.86166 0.0422 0.35841 0.0
C558 C 0.93478 0.86392 0.35429 0.0
C559 C 0.91661 0.8605 0.31665 0.0
H560 H 0.9792 0.85093 0.38862 0.0
C561 C 0.9298 0.84056 0.2843 0.0
H562 H 0.92531 0.87937 0.37963 0.0
C563 C 0.96046 0.82427 0.28946 0.0
C564 C 0.9787 0.82773 0.32699 0.0
H565 H 0.91613 0.83703 0.25525 0.0
H566 H 0.96989 0.80905 0.26385 0.0
C567 C 0.96562 0.84773 0.3594 0.0
C568 C 0.14389 0.05026 0.71035 0.0
C569 C 0.12292 0.06334 0.67897 0.0
H570 H 0.17529 0.00982 0.72997 0.0
C571 C 0.11779 0.04473 0.64196 0.0
H572 H 0.14876 0.06426 0.73885 0.0
C573 C 0.13313 0.01346 0.63668 0.0
C574 C 0.15397 0.0004 0.66827 0.0
H575 H 0.10152 0.0541 0.61737 0.0
H576 H 0.12853 -0.00051 0.60806 0.0
C577 C 0.15932 0.01918 0.70503 0.0
C578 C 0.93496 0.11916 0.6412 0.0
C579 C 0.91577 0.12501 0.67756 0.0
H580 H 0.98059 0.1296 0.6079 0.0
C581 C 0.92798 0.14721 0.70815 0.0
H582 H 0.92621 0.10199 0.61722 0.0
C583 C 0.95888 0.163 0.70281 0.0
C584 C 0.97836 0.15679 0.66684 0.0
H585 H 0.91349 0.15268 0.73609 0.0
H586 H 0.96759 0.17985 0.72721 0.0
C587 C 0.96608 0.13486 0.63592 0.0
C588 C 0.83871 0.92939 0.71244 0.0
C589 C 0.85914 0.91649 0.6804 0.0
H590 H 0.8067 0.96921 0.73255 0.0
C591 C 0.86292 0.93485 0.64295 0.0
H592 H 0.8349 0.91556 0.74132 0.0
C593 C 0.84662 0.96564 0.63774 0.0
C594 C 0.82615 0.97844 0.66985 0.0
H595 H 0.87874 0.92559 0.61785 0.0
H596 H 0.85012 0.97939 0.60869 0.0
C597 C 0.8223 0.95999 0.70717 0.0
C598 C 0.01221 0.84305 0.63225 0.0
C599 C 0.0005 0.81978 0.66198 0.0
H600 H 0.05126 0.87755 0.61539 0.0
C601 C 0.02017 0.81284 0.6976 0.0
H602 H -0.00249 0.84896 0.60458 0.0
C603 C 0.05059 0.82929 0.70389 0.0
C604 C 0.06218 0.85284 0.67455 0.0
H605 H 0.0119 0.79498 0.72112 0.0
H606 H 0.06522 0.8233 0.73155 0.0
C607 C 0.04291 0.85937 0.63842 0.0
C608 C 0.63106 0.46486 0.86087 0.0
C609 C 0.65099 0.47801 0.82842 0.0
H610 H 0.59917 0.42464 0.88096 0.0
C611 C 0.65406 0.46 0.79065 0.0
H612 H 0.62817 0.47826 0.89027 0.0
C613 C 0.63742 0.42952 0.7853 0.0
C614 C 0.61754 0.41627 0.81768 0.0
H615 H 0.6692 0.46949 0.76499 0.0
H616 H 0.64062 0.41604 0.75606 0.0
C617 C 0.61455 0.43418 0.85558 0.0
C618 C 0.52156 0.6674 0.80158 0.0
C619 C 0.5017 0.66036 0.83702 0.0
H620 H 0.5664 0.65647 0.76744 0.0
C621 C 0.51295 0.63653 0.86633 0.0
H622 H 0.51365 0.68569 0.77839 0.0
C623 C 0.54331 0.61971 0.85985 0.0
C624 C 0.5627 0.62627 0.82383 0.0
H625 H 0.4981 0.63053 0.89385 0.0
H626 H 0.55129 0.60108 0.88253 0.0
C627 C 0.55164 0.65044 0.79498 0.0
C628 C 0.34801 0.51395 0.86004 0.0
C629 C 0.32819 0.50094 0.82741 0.0
H630 H 0.3797 0.55417 0.88058 0.0
C631 C 0.32519 0.51913 0.78976 0.0
H632 H 0.35085 0.50041 0.88934 0.0
C633 C 0.34172 0.54969 0.78472 0.0
C634 C 0.36144 0.56284 0.8173 0.0
H635 H 0.31014 0.50973 0.76396 0.0
H636 H 0.33854 0.56333 0.75558 0.0
C637 C 0.36442 0.54472 0.85506 0.0
C638 C 0.43529 0.35947 0.85777 0.0
C639 C 0.41589 0.35274 0.82183 0.0
H640 H 0.48044 0.34872 0.8919 0.0
C641 C 0.42686 0.32834 0.79324 0.0
H642 H 0.42739 0.37828 0.88024 0.0
C643 C 0.45688 0.31132 0.80003 0.0
C644 C 0.47674 0.31853 0.8354 0.0
H645 H 0.41206 0.32218 0.76578 0.0
H646 H 0.46472 0.29285 0.77705 0.0
C647 C 0.46558 0.34257 0.86445 0.0
C648 C 0.61954 0.54273 0.13837 0.0
C649 C 0.62645 0.56205 0.17434 0.0
H650 H 0.62951 0.49726 0.1045 0.0
C651 C 0.65034 0.55054 0.20327 0.0
H652 H 0.6011 0.55102 0.11564 0.0
C653 C 0.66669 0.5201 0.1968 0.0
C654 C 0.6593 0.50034 0.16139 0.0
H655 H 0.65664 0.56523 0.23077 0.0
H656 H 0.68478 0.51187 0.22002 0.0
C657 C 0.63576 0.51202 0.132 0.0
C658 C 0.46599 0.63106 0.13729 0.0
C659 C 0.47908 0.65105 0.1697 0.0
H660 H 0.42569 0.59933 0.11712 0.0
C661 C 0.46091 0.65441 0.2073 0.0
H662 H 0.47952 0.62794 0.10803 0.0
C663 C 0.43029 0.63801 0.21252 0.0
C664 C 0.41708 0.61808 0.18017 0.0
H665 H 0.47036 0.66961 0.23292 0.0
H666 H 0.41667 0.64145 0.24162 0.0
C667 C 0.43518 0.61478 0.14246 0.0
C668 C 0.34302 0.4657 0.13127 0.0
C669 C 0.31963 0.47722 0.16093 0.0
H670 H 0.37762 0.42678 0.11438 0.0
C671 C 0.31253 0.45735 0.19635 0.0
H672 H 0.34905 0.48056 0.10376 0.0
C673 C 0.32898 0.42692 0.20252 0.0
C674 C 0.35268 0.41554 0.17329 0.0
H675 H 0.29457 0.46546 0.2198 0.0
H676 H 0.32288 0.41214 0.23003 0.0
C677 C 0.35933 0.43499 0.13734 0.0
C678 C 0.5126 0.34594 0.13472 0.0
C679 C 0.49944 0.32577 0.16693 0.0
H680 H 0.55293 0.37781 0.11494 0.0
C681 C 0.51757 0.32219 0.20454 0.0
H682 H 0.49912 0.34922 0.10545 0.0
C683 C 0.54816 0.33858 0.21 0.0
C684 C 0.5614 0.35874 0.17788 0.0
H685 H 0.50808 0.30683 0.23002 0.0
H686 H 0.56171 0.335 0.23912 0.0
C687 C 0.5434 0.36221 0.14011 0.0
C688 C 0.13311 0.11646 0.48356 0.0
C689 C 0.16287 0.13025 0.46713 0.0
H690 H 0.09212 0.12265 0.52693 0.0
C691 C 0.17347 0.16196 0.48114 0.0
H692 H 0.12435 0.09207 0.47316 0.0
C693 C 0.15472 0.17968 0.51068 0.0
C694 C 0.12525 0.16586 0.52771 0.0
H695 H 0.19609 0.17342 0.46876 0.0
H696 H 0.16376 0.20406 0.52076 0.0
C697 C 0.11469 0.13393 0.51416 0.0
C698 C 0.82016 0.17093 0.48124 0.0
C699 C 0.85218 0.16065 0.46806 0.0
H700 H 0.77721 0.16037 0.51912 0.0
C701 C 0.86567 0.13064 0.48414 0.0
H702 H 0.80891 0.1937 0.46901 0.0
C703 C 0.84759 0.11166 0.51365 0.0
C704 C 0.81534 0.12186 0.5263 0.0
H705 H 0.89028 0.12212 0.47428 0.0
H706 H 0.85866 0.08894 0.52628 0.0
C707 C 0.80181 0.15158 0.5096 0.0
C708 C 0.81832 0.80124 0.51388 0.0
C709 C 0.84851 0.81391 0.53025 0.0
H710 H 0.7777 0.80811 0.47105 0.0
C711 C 0.86114 0.84446 0.5146 0.0
H712 H 0.80774 0.77793 0.52548 0.0
C713 C 0.844 0.86168 0.48263 0.0
C714 C 0.81357 0.84902 0.46672 0.0
H715 H 0.88436 0.85481 0.52674 0.0
H716 H 0.85433 0.88499 0.47068 0.0
C717 C 0.80092 0.81871 0.48285 0.0
C718 C 0.11028 0.84887 0.48398 0.0
C719 C 0.12168 0.81727 0.4704 0.0
H720 H 0.11996 0.89187 0.52312 0.0
C721 C 0.15277 0.80534 0.48489 0.0
H722 H 0.08648 0.8587 0.47297 0.0
C723 C 0.17229 0.82468 0.51201 0.0
C724 C 0.16081 0.85603 0.52619 0.0
H725 H 0.16245 0.78131 0.47449 0.0
H726 H 0.19613 0.81467 0.52263 0.0
C727 C 0.12944 0.86786 0.51235 0.0
C728 C 0.67286 0.65296 0.98505 0.0
C729 C 0.66125 0.62159 0.97108 0.0
H730 H 0.66317 0.69654 0.02225 0.0
C731 C 0.62981 0.60994 0.98495 0.0
H732 H 0.69676 0.66283 0.9744 0.0
C733 C 0.6107 0.62912 0.01315 0.0
C734 C 0.62223 0.66075 0.02652 0.0
H735 H 0.62022 0.58592 0.97432 0.0
H736 H 0.58684 0.61944 0.02418 0.0
C737 C 0.6534 0.67249 0.01201 0.0
C738 C 0.36174 0.63497 0.98303 0.0
C739 C 0.34899 0.66543 0.96729 0.0
H740 H 0.35498 0.5944 0.0269 0.0
C741 C 0.31866 0.6779 0.98347 0.0
H742 H 0.38506 0.62478 0.97105 0.0
C743 C 0.30124 0.66031 0.01441 0.0
C744 C 0.31399 0.6301 0.03061 0.0
H745 H 0.30799 0.70113 0.97181 0.0
H746 H 0.27791 0.67077 0.02605 0.0
C747 C 0.34456 0.61763 0.01489 0.0
C748 C 0.30501 0.32497 0.98277 0.0
C749 C 0.31689 0.3562 0.96863 0.0
H750 H 0.31423 0.28149 0.02037 0.0
C751 C 0.34832 0.36772 0.9827 0.0
H752 H 0.2811 0.3152 0.97201 0.0
C753 C 0.36717 0.34853 0.0112 0.0
C754 C 0.35538 0.31703 0.02472 0.0
H755 H 0.35812 0.39164 0.972 0.0
H756 H 0.39104 0.35811 0.02232 0.0
C757 C 0.32421 0.30544 0.01004 0.0
C758 C 0.61643 0.34361 0.9821 0.0
C759 C 0.62909 0.31314 0.96632 0.0
H760 H 0.62348 0.38426 0.02574 0.0
C761 C 0.6596 0.30076 0.9821 0.0
H762 H 0.59299 0.35374 0.97039 0.0
C763 C 0.67726 0.31844 0.0127 0.0
C764 C 0.66458 0.34866 0.02897 0.0
H765 H 0.67021 0.27753 0.97035 0.0
H766 H 0.7007 0.30805 0.02407 0.0
C767 C 0.63385 0.36104 0.01365 0.0
C768 C 0.23624 0.19628 0.22071 0.0
C769 C 0.23672 0.19723 0.26482 0.0
H770 H 0.25866 0.21442 0.16392 0.0
C771 C 0.25543 0.22202 0.2855 0.0
H772 H 0.22165 0.17742 0.20428 0.0
C773 C 0.27661 0.24295 0.26252 0.0
C774 C 0.27889 0.23944 0.21873 0.0
H775 H 0.25612 0.22309 0.3195 0.0
H776 H 0.29315 0.26001 0.27915 0.0
C777 C 0.25716 0.21746 0.1977 0.0
C778 C 0.75727 0.25646 0.2069 0.0
C779 C 0.73776 0.27992 0.22878 0.0
H780 H 0.7959 0.21926 0.2115 0.0
C781 C 0.73706 0.27936 0.27287 0.0
H782 H 0.75814 0.25663 0.17288 0.0
C783 C 0.75834 0.25789 0.29487 0.0
C784 C 0.78069 0.23721 0.27284 0.0
H785 H 0.72192 0.29725 0.29017 0.0
H786 H 0.75951 0.25969 0.3288 0.0
C787 C 0.77886 0.23529 0.22888 0.0
C788 C 0.72411 0.75696 0.28431 0.0
C789 C 0.74176 0.78236 0.26328 0.0
H790 H 0.68728 0.71804 0.27876 0.0
C791 C 0.74139 0.78356 0.21918 0.0
H792 H 0.7241 0.75566 0.31831 0.0
C793 C 0.72059 0.76196 0.19663 0.0
C794 C 0.69987 0.7393 0.21813 0.0
H795 H 0.7552 0.80284 0.20246 0.0
H796 H 0.71836 0.76514 0.16293 0.0
C797 C 0.70307 0.7356 0.26179 0.0
C798 C 0.22002 0.71628 0.30041 0.0
C799 C 0.19913 0.73868 0.2788 0.0
H800 H 0.25505 0.67576 0.29479 0.0
C801 C 0.2023 0.74226 0.23511 0.0
H802 H 0.21782 0.7132 0.33412 0.0
C803 C 0.22358 0.72108 0.21272 0.0
C804 C 0.2415 0.69596 0.23387 0.0
H805 H 0.18639 0.75963 0.21805 0.0
H806 H 0.2236 0.7223 0.17871 0.0
C807 C 0.24106 0.69484 0.27797 0.0
C808 C 0.2841 0.73763 0.7194 0.0
C809 C 0.28278 0.73725 0.76349 0.0
H810 H 0.26569 0.7605 0.66303 0.0
C811 C 0.25726 0.7548 0.78438 0.0
H812 H 0.30348 0.7239 0.70279 0.0
C813 C 0.23587 0.77571 0.76174 0.0
C814 C 0.23963 0.77887 0.71807 0.0
H815 H 0.25587 0.75482 0.81837 0.0
H816 H 0.2182 0.79143 0.7786 0.0
C817 C 0.26245 0.75828 0.69671 0.0
C818 C 0.21998 0.25884 0.79378 0.0
C819 C 0.24066 0.28178 0.77268 0.0
H820 H 0.18088 0.22229 0.78756 0.0
C821 C 0.24304 0.28064 0.72868 0.0
H822 H 0.21786 0.25938 0.82771 0.0
C823 C 0.22208 0.25945 0.7058 0.0
C824 C 0.19843 0.23952 0.72681 0.0
H825 H 0.25918 0.29804 0.71197 0.0
H826 H 0.22214 0.26103 0.67182 0.0
C827 C 0.19881 0.23785 0.77089 0.0
C828 C 0.72103 0.22392 0.78483 0.0
C829 C 0.69612 0.24206 0.76358 0.0
H830 H 0.75932 0.18647 0.77957 0.0
C831 C 0.69528 0.24188 0.71947 0.0
H832 H 0.72203 0.22376 0.81884 0.0
C833 C 0.71669 0.2208 0.69708 0.0
C834 C 0.73876 0.1996 0.71875 0.0
H835 H 0.67636 0.25605 0.7026 0.0
H836 H 0.71375 0.21875 0.66333 0.0
C837 C 0.74218 0.2026 0.76247 0.0
C838 C 0.76129 0.71974 0.79988 0.0
C839 C 0.73912 0.69847 0.77844 0.0
H840 H 0.80159 0.75502 0.79399 0.0
C841 C 0.73566 0.70127 0.73469 0.0
H842 H 0.76428 0.71783 0.83363 0.0
C843 C 0.75677 0.72254 0.71212 0.0
C844 C 0.78169 0.74082 0.73317 0.0
H845 H 0.71846 0.68508 0.71776 0.0
H846 H 0.75568 0.72228 0.67811 0.0
C847 C 0.78265 0.74076 0.77727 0.0
C848 C 0.24571 0.03003 0.50854 0.0
C849 C 0.26303 0.02085 0.47196 0.0
H850 H 0.22977 0.01523 0.56989 0.0
C851 C 0.2826 -0.00852 0.47191 0.0
H852 H 0.23088 0.05283 0.50936 0.0
C853 C 0.28201 0.96992 0.50673 0.0
C854 C 0.26182 0.97769 0.54156 0.0
H855 H 0.29602 0.98394 0.44389 0.0
H856 H 0.29504 0.94609 0.50511 0.0
C857 C 0.24505 0.00862 0.54299 0.0
C858 C 0.95188 0.24509 0.50646 0.0
C859 C 0.96147 0.2618 0.4696 0.0
H860 H 0.96582 0.23065 0.56869 0.0
C861 C -0.00943 0.2818 0.46967 0.0
H862 H 0.92925 0.22999 0.5072 0.0
C863 C 0.01152 0.28226 0.50507 0.0
C864 C 0.00336 0.26272 0.54034 0.0
H865 H -0.00162 0.29479 0.44142 0.0
H866 H 0.03523 0.29555 0.50368 0.0
C867 C 0.97266 0.24552 0.54149 0.0
C868 C 0.7338 0.94863 0.50776 0.0
C869 C 0.71604 0.958 0.47158 0.0
H870 H 0.74988 0.96283 0.56927 0.0
C871 C 0.69595 0.987 0.47237 0.0
H872 H 0.749 0.92607 0.50796 0.0
C873 C 0.69639 0.00807 0.50764 0.0
C874 C 0.71696 0.00018 0.5421 0.0
H875 H 0.68217 -0.00532 0.44467 0.0
H876 H 0.68291 0.03167 0.5067 0.0
C877 C 0.73431 0.96956 0.54266 0.0
C878 C 0.94819 0.73442 0.48921 0.0
C879 C 0.95753 0.71656 0.52533 0.0
H880 H 0.96244 0.75071 0.42779 0.0
C881 C 0.98657 0.69654 0.52452 0.0
H882 H 0.9256 0.74958 0.48902 0.0
C883 C 0.00769 0.69713 0.4893 0.0
C884 C -0.00019 0.71778 0.4549 0.0
H885 H -0.00578 0.68268 0.55218 0.0
H886 H 0.0313 0.68367 0.49025 0.0
C887 C 0.96917 0.73508 0.45435 0.0
C888 C 0.74537 0.46884 0.95454 0.0
C889 C 0.76192 0.4999 0.95562 0.0
H890 H 0.73129 0.42486 0.98875 0.0
C891 C 0.78192 0.50814 0.99048 0.0
H892 H 0.73024 0.46186 0.92763 0.0
C893 C 0.78249 0.48692 0.02562 0.0
C894 C 0.76309 0.45743 0.02587 0.0
H895 H 0.79478 0.53209 0.99185 0.0
H896 H 0.79572 0.49482 0.05364 0.0
C897 C 0.746 0.44777 0.98931 0.0
C898 C 0.48731 0.78319 0.97312 0.0
C899 C 0.45793 0.76363 0.97269 0.0
H900 H 0.53251 0.79536 0.00681 0.0
C901 C 0.44854 0.746 0.00898 0.0
H902 H 0.49502 0.79683 0.94531 0.0
C903 C 0.46976 0.74505 0.04359 0.0
C904 C 0.50071 0.76182 0.04262 0.0
H905 H 0.42572 0.73117 0.00943 0.0
H906 H 0.46297 0.72956 0.07026 0.0
C907 C 0.50867 0.78231 0.00809 0.0
C908 C 0.2339 0.53059 0.98907 0.0
C909 C 0.2163 0.521 0.0253 0.0
H910 H 0.25 0.51662 0.9275 0.0
C911 C 0.19651 0.49178 0.02454 0.0
H912 H 0.24889 0.55331 0.98886 0.0
C913 C 0.1971 0.47074 0.98925 0.0
C914 C 0.21752 0.47888 0.95473 0.0
H915 H 0.18288 0.48392 0.05229 0.0
H916 H 0.18385 0.44699 0.99023 0.0
C917 C 0.23455 0.50969 0.95415 0.0
C918 C 0.52943 0.23127 0.00686 0.0
C919 C 0.51997 0.21422 0.97019 0.0
H920 H 0.51493 0.24711 0.06836 0.0
C921 C 0.49041 0.19494 0.9701 0.0
H922 H 0.55238 0.24589 0.00769 0.0
C923 C 0.46893 0.1956 0.00498 0.0
C924 C 0.47697 0.21558 0.03992 0.0
H925 H 0.48265 0.18175 0.94199 0.0
H926 H 0.44494 0.18283 0.00333 0.0
C927 C 0.5081 0.232 0.04138 0.0
loop_
_geom_bond_atom_site_label_1
_geom_bond_atom_site_label_2
_geom_bond_distance
_geom_bond_site_symmetry_2
_ccdc_geom_bond_type
C0 C1 1.351 . S
C0 N3 1.368 . S
C0 H5 0.931 . S
C1 C0 1.351 . S
C1 N2 1.373 . S
C1 H29 0.930 . S
N2 C1 1.373 . S
N2 C4 1.340 . S
N3 C0 1.368 . S
N3 C4 1.321 . S
N3 Co6 2.135 . S
C4 N2 1.340 . S
C4 N3 1.321 . S
C4 H28 0.930 . S
H5 C0 0.931 . S
Co6 N3 2.135 . S
Co6 N9 2.121 . S
Co6 O14 2.055 . S
Co6 O17 2.039 . S
Co6 N20 2.140 . S
C7 O8 1.227 . S
C7 O17 1.265 . S
O8 C7 1.227 . S
N9 Co6 2.121 . S
N9 C11 1.375 . S
N9 C12 1.313 . S
C10 C11 1.338 . S
C10 N13 1.377 . S
C10 H30 0.930 . S
C11 N9 1.375 . S
C11 C10 1.338 . S
C11 H15 0.931 . S
C12 N9 1.313 . S
C12 N13 1.344 . S
C12 H16 0.930 . S
N13 C10 1.377 . S
N13 C12 1.344 . S
O14 Co6 2.055 . S
O14 C18 1.253 . S
H15 C11 0.931 . S
H16 C12 0.930 . S
O17 Co6 2.039 . S
O17 C7 1.265 . S
C18 O14 1.253 . S
C18 O19 1.227 . S
O19 C18 1.227 . S
N20 Co6 2.140 . S
N20 C23 1.346 . S
N20 C24 1.345 . S
C21 C22 1.387 . S
C21 C25 1.391 . S
C22 C21 1.387 . S
C22 C23 1.369 . S
C22 H31 0.929 . S
C23 N20 1.346 . S
C23 C22 1.369 . S
C23 H26 0.928 . S
C24 N20 1.345 . S
C24 C25 1.371 . S
C24 H27 0.931 . S
C25 C21 1.391 . S
C25 C24 1.371 . S
C25 H32 0.930 . S
H26 C23 0.928 . S
H27 C24 0.931 . S
H28 C4 0.930 . S
H29 C1 0.930 . S
H30 C10 0.930 . S
H31 C22 0.929 . S
H32 C25 0.930 . S
C33 C34 1.351 . S
C33 N36 1.368 . S
C33 H38 0.931 . S
C34 C33 1.351 . S
C34 N35 1.373 . S
C34 H62 0.930 . S
N35 C34 1.373 . S
N35 C37 1.340 . S
N36 C33 1.368 . S
N36 C37 1.321 . S
N36 Co39 2.135 . S
C37 N35 1.340 . S
C37 N36 1.321 . S
C37 H61 0.930 . S
H38 C33 0.931 . S
Co39 N36 2.135 . S
Co39 N42 2.121 . S
Co39 O47 2.055 . S
Co39 O50 2.039 . S
Co39 N53 2.140 . S
C40 O41 1.227 . S
C40 O50 1.265 . S
O41 C40 1.227 . S
N42 Co39 2.121 . S
N42 C44 1.375 . S
N42 C45 1.313 . S
C43 C44 1.338 . S
C43 N46 1.377 . S
C43 H63 0.930 . S
C44 N42 1.375 . S
C44 C43 1.338 . S
C44 H48 0.931 . S
C45 N42 1.313 . S
C45 N46 1.344 . S
C45 H49 0.930 . S
N46 C43 1.377 . S
N46 C45 1.344 . S
O47 Co39 2.055 . S
O47 C51 1.253 . S
H48 C44 0.931 . S
H49 C45 0.930 . S
O50 Co39 2.039 . S
O50 C40 1.265 . S
C51 O47 1.253 . S
C51 O52 1.227 . S
O52 C51 1.227 . S
N53 Co39 2.140 . S
N53 C56 1.346 . S
N53 C57 1.345 . S
C54 C55 1.387 . S
C54 C58 1.391 . S
C55 C54 1.387 . S
C55 C56 1.369 . S
C55 H64 0.929 . S
C56 N53 1.346 . S
C56 C55 1.369 . S
C56 H59 0.928 . S
C57 N53 1.345 . S
C57 C58 1.371 . S
C57 H60 0.931 . S
C58 C54 1.391 . S
C58 C57 1.371 . S
C58 H65 0.930 . S
H59 C56 0.928 . S
H60 C57 0.931 . S
H61 C37 0.930 . S
H62 C34 0.930 . S
H63 C43 0.930 . S
H64 C55 0.929 . S
H65 C58 0.930 . S
C66 C67 1.351 . S
C66 N69 1.368 . S
C66 H71 0.931 . S
C67 C66 1.351 . S
C67 N68 1.373 . S
C67 H95 0.930 . S
N68 C67 1.373 . S
N68 C70 1.340 . S
N69 C66 1.368 . S
N69 C70 1.321 . S
N69 Co72 2.135 . S
C70 N68 1.340 . S
C70 N69 1.321 . S
C70 H94 0.930 . S
H71 C66 0.931 . S
Co72 N69 2.135 . S
Co72 N75 2.121 . S
Co72 O80 2.055 . S
Co72 O83 2.039 . S
Co72 N86 2.140 . S
C73 O74 1.227 . S
C73 O83 1.265 . S
O74 C73 1.227 . S
N75 Co72 2.121 . S
N75 C77 1.375 . S
N75 C78 1.313 . S
C76 C77 1.338 . S
C76 N79 1.377 . S
C76 H96 0.930 . S
C77 N75 1.375 . S
C77 C76 1.338 . S
C77 H81 0.931 . S
C78 N75 1.313 . S
C78 N79 1.344 . S
C78 H82 0.930 . S
N79 C76 1.377 . S
N79 C78 1.344 . S
O80 Co72 2.055 . S
O80 C84 1.253 . S
H81 C77 0.931 . S
H82 C78 0.930 . S
O83 Co72 2.039 . S
O83 C73 1.265 . S
C84 O80 1.253 . S
C84 O85 1.227 . S
O85 C84 1.227 . S
N86 Co72 2.140 . S
N86 C89 1.346 . S
N86 C90 1.345 . S
C87 C88 1.387 . S
C87 C91 1.391 . S
C88 C87 1.387 . S
C88 C89 1.369 . S
C88 H97 0.929 . S
C89 N86 1.346 . S
C89 C88 1.369 . S
C89 H92 0.928 . S
C90 N86 1.345 . S
C90 C91 1.371 . S
C90 H93 0.931 . S
C91 C87 1.391 . S
C91 C90 1.371 . S
C91 H98 0.930 . S
H92 C89 0.928 . S
H93 C90 0.931 . S
H94 C70 0.930 . S
H95 C67 0.930 . S
H96 C76 0.930 . S
H97 C88 0.929 . S
H98 C91 0.930 . S
C99 C100 1.351 . S
C99 N102 1.368 . S
C99 H104 0.931 . S
C100 C99 1.351 . S
C100 N101 1.373 . S
C100 H128 0.930 . S
N101 C100 1.373 . S
N101 C103 1.340 . S
N102 C99 1.368 . S
N102 C103 1.321 . S
N102 Co105 2.135 . S
C103 N101 1.340 . S
C103 N102 1.321 . S
C103 H127 0.930 . S
H104 C99 0.931 . S
Co105 N102 2.135 . S
Co105 N108 2.121 . S
Co105 O113 2.055 . S
Co105 O116 2.039 . S
Co105 N119 2.140 . S
C106 O107 1.227 . S
C106 O116 1.265 . S
O107 C106 1.227 . S
N108 Co105 2.121 . S
N108 C110 1.375 . S
N108 C111 1.313 . S
C109 C110 1.338 . S
C109 N112 1.377 . S
C109 H129 0.930 . S
C110 N108 1.375 . S
C110 C109 1.338 . S
C110 H114 0.931 . S
C111 N108 1.313 . S
C111 N112 1.344 . S
C111 H115 0.930 . S
N112 C109 1.377 . S
N112 C111 1.344 . S
O113 Co105 2.055 . S
O113 C117 1.253 . S
H114 C110 0.931 . S
H115 C111 0.930 . S
O116 Co105 2.039 . S
O116 C106 1.265 . S
C117 O113 1.253 . S
C117 O118 1.227 . S
O118 C117 1.227 . S
N119 Co105 2.140 . S
N119 C122 1.346 . S
N119 C123 1.345 . S
C120 C121 1.387 . S
C120 C124 1.391 . S
C121 C120 1.387 . S
C121 C122 1.369 . S
C121 H130 0.929 . S
C122 N119 1.346 . S
C122 C121 1.369 . S
C122 H125 0.928 . S
C123 N119 1.345 . S
C123 C124 1.371 . S
C123 H126 0.931 . S
C124 C120 1.391 . S
C124 C123 1.371 . S
C124 H131 0.930 . S
H125 C122 0.928 . S
H126 C123 0.931 . S
H127 C103 0.930 . S
H128 C100 0.930 . S
H129 C109 0.930 . S
H130 C121 0.929 . S
H131 C124 0.930 . S
C132 C133 1.351 . S
C132 N135 1.368 . S
C132 H137 0.931 . S
C133 C132 1.351 . S
C133 N134 1.373 . S
C133 H161 0.930 . S
N134 C133 1.373 . S
N134 C136 1.340 . S
N135 C132 1.368 . S
N135 C136 1.321 . S
N135 Co138 2.135 . S
C136 N134 1.340 . S
C136 N135 1.321 . S
C136 H160 0.930 . S
H137 C132 0.931 . S
Co138 N135 2.135 . S
Co138 N141 2.121 . S
Co138 O146 2.055 . S
Co138 O149 2.039 . S
Co138 N152 2.140 . S
C139 O140 1.227 . S
C139 O149 1.265 . S
O140 C139 1.227 . S
N141 Co138 2.121 . S
N141 C143 1.375 . S
N141 C144 1.313 . S
C142 C143 1.338 . S
C142 N145 1.377 . S
C142 H162 0.930 . S
C143 N141 1.375 . S
C143 C142 1.338 . S
C143 H147 0.931 . S
C144 N141 1.313 . S
C144 N145 1.344 . S
C144 H148 0.930 . S
N145 C142 1.377 . S
N145 C144 1.344 . S
O146 Co138 2.055 . S
O146 C150 1.253 . S
H147 C143 0.931 . S
H148 C144 0.930 . S
O149 Co138 2.039 . S
O149 C139 1.265 . S
C150 O146 1.253 . S
C150 O151 1.227 . S
O151 C150 1.227 . S
N152 Co138 2.140 . S
N152 C155 1.346 . S
N152 C156 1.345 . S
C153 C154 1.387 . S
C153 C157 1.391 . S
C154 C153 1.387 . S
C154 C155 1.369 . S
C154 H163 0.929 . S
C155 N152 1.346 . S
C155 C154 1.369 . S
C155 H158 0.928 . S
C156 N152 1.345 . S
C156 C157 1.371 . S
C156 H159 0.931 . S
C157 C153 1.391 . S
C157 C156 1.371 . S
C157 H164 0.930 . S
H158 C155 0.928 . S
H159 C156 0.931 . S
H160 C136 0.930 . S
H161 C133 0.930 . S
H162 C142 0.930 . S
H163 C154 0.929 . S
H164 C157 0.930 . S
C165 C166 1.351 . S
C165 N168 1.368 . S
C165 H170 0.931 . S
C166 C165 1.351 . S
C166 N167 1.373 . S
C166 H194 0.930 . S
N167 C166 1.373 . S
N167 C169 1.340 . S
N168 C165 1.368 . S
N168 C169 1.321 . S
N168 Co171 2.135 . S
C169 N167 1.340 . S
C169 N168 1.321 . S
C169 H193 0.930 . S
H170 C165 0.931 . S
Co171 N168 2.135 . S
Co171 N174 2.121 . S
Co171 O179 2.055 . S
Co171 O182 2.039 . S
Co171 N185 2.140 . S
C172 O173 1.227 . S
C172 O182 1.265 . S
O173 C172 1.227 . S
N174 Co171 2.121 . S
N174 C176 1.375 . S
N174 C177 1.313 . S
C175 C176 1.338 . S
C175 N178 1.377 . S
C175 H195 0.930 . S
C176 N174 1.375 . S
C176 C175 1.338 . S
C176 H180 0.931 . S
C177 N174 1.313 . S
C177 N178 1.344 . S
C177 H181 0.930 . S
N178 C175 1.377 . S
N178 C177 1.344 . S
O179 Co171 2.055 . S
O179 C183 1.253 . S
H180 C176 0.931 . S
H181 C177 0.930 . S
O182 Co171 2.039 . S
O182 C172 1.265 . S
C183 O179 1.253 . S
C183 O184 1.227 . S
O184 C183 1.227 . S
N185 Co171 2.140 . S
N185 C188 1.346 . S
N185 C189 1.345 . S
C186 C187 1.387 . S
C186 C190 1.391 . S
C187 C186 1.387 . S
C187 C188 1.369 . S
C187 H196 0.929 . S
C188 N185 1.346 . S
C188 C187 1.369 . S
C188 H191 0.928 . S
C189 N185 1.345 . S
C189 C190 1.371 . S
C189 H192 0.931 . S
C190 C186 1.391 . S
C190 C189 1.371 . S
C190 H197 0.930 . S
H191 C188 0.928 . S
H192 C189 0.931 . S
H193 C169 0.930 . S
H194 C166 0.930 . S
H195 C175 0.930 . S
H196 C187 0.929 . S
H197 C190 0.930 . S
C198 C199 1.351 . S
C198 N201 1.368 . S
C198 H203 0.931 . S
C199 C198 1.351 . S
C199 N200 1.373 . S
C199 H227 0.930 . S
N200 C199 1.373 . S
N200 C202 1.340 . S
N201 C198 1.368 . S
N201 C202 1.321 . S
N201 Co204 2.135 . S
C202 N200 1.340 . S
C202 N201 1.321 . S
C202 H226 0.930 . S
H203 C198 0.931 . S
Co204 N201 2.135 . S
Co204 N207 2.121 . S
Co204 O212 2.055 . S
Co204 O215 2.039 . S
Co204 N218 2.140 . S
C205 O206 1.227 . S
C205 O215 1.265 . S
O206 C205 1.227 . S
N207 Co204 2.121 . S
N207 C209 1.375 . S
N207 C210 1.313 . S
C208 C209 1.338 . S
C208 N211 1.377 . S
C208 H228 0.930 . S
C209 N207 1.375 . S
C209 C208 1.338 . S
C209 H213 0.931 . S
C210 N207 1.313 . S
C210 N211 1.344 . S
C210 H214 0.930 . S
N211 C208 1.377 . S
N211 C210 1.344 . S
O212 Co204 2.055 . S
O212 C216 1.253 . S
H213 C209 0.931 . S
H214 C210 0.930 . S
O215 Co204 2.039 . S
O215 C205 1.265 . S
C216 O212 1.253 . S
C216 O217 1.227 . S
O217 C216 1.227 . S
N218 Co204 2.140 . S
N218 C221 1.346 . S
N218 C222 1.345 . S
C219 C220 1.387 . S
C219 C223 1.391 . S
C220 C219 1.387 . S
C220 C221 1.369 . S
C220 H229 0.929 . S
C221 N218 1.346 . S
C221 C220 1.369 . S
C221 H224 0.928 . S
C222 N218 1.345 . S
C222 C223 1.371 . S
C222 H225 0.931 . S
C223 C219 1.391 . S
C223 C222 1.371 . S
C223 H230 0.930 . S
H224 C221 0.928 . S
H225 C222 0.931 . S
H226 C202 0.930 . S
H227 C199 0.930 . S
H228 C208 0.930 . S
H229 C220 0.929 . S
H230 C223 0.930 . S
C231 C232 1.351 . S
C231 N234 1.368 . S
C231 H236 0.931 . S
C232 C231 1.351 . S
C232 N233 1.373 . S
C232 H260 0.930 . S
N233 C232 1.373 . S
N233 C235 1.340 . S
N234 C231 1.368 . S
N234 C235 1.321 . S
N234 Co237 2.135 . S
C235 N233 1.340 . S
C235 N234 1.321 . S
C235 H259 0.930 . S
H236 C231 0.931 . S
Co237 N234 2.135 . S
Co237 N240 2.121 . S
Co237 O245 2.055 . S
Co237 O248 2.039 . S
Co237 N251 2.140 . S
C238 O239 1.227 . S
C238 O248 1.265 . S
O239 C238 1.227 . S
N240 Co237 2.121 . S
N240 C242 1.375 . S
N240 C243 1.313 . S
C241 C242 1.338 . S
C241 N244 1.377 . S
C241 H261 0.930 . S
C242 N240 1.375 . S
C242 C241 1.338 . S
C242 H246 0.931 . S
C243 N240 1.313 . S
C243 N244 1.344 . S
C243 H247 0.930 . S
N244 C241 1.377 . S
N244 C243 1.344 . S
O245 Co237 2.055 . S
O245 C249 1.253 . S
H246 C242 0.931 . S
H247 C243 0.930 . S
O248 Co237 2.039 . S
O248 C238 1.265 . S
C249 O245 1.253 . S
C249 O250 1.227 . S
O250 C249 1.227 . S
N251 Co237 2.140 . S
N251 C254 1.346 . S
N251 C255 1.345 . S
C252 C253 1.387 . S
C252 C256 1.391 . S
C253 C252 1.387 . S
C253 C254 1.369 . S
C253 H262 0.929 . S
C254 N251 1.346 . S
C254 C253 1.369 . S
C254 H257 0.928 . S
C255 N251 1.345 . S
C255 C256 1.371 . S
C255 H258 0.931 . S
C256 C252 1.391 . S
C256 C255 1.371 . S
C256 H263 0.930 . S
H257 C254 0.928 . S
H258 C255 0.931 . S
H259 C235 0.930 . S
H260 C232 0.930 . S
H261 C241 0.930 . S
H262 C253 0.929 . S
H263 C256 0.930 . S
C264 C265 1.351 . S
C264 N267 1.368 . S
C264 H269 0.931 . S
C265 C264 1.351 . S
C265 N266 1.373 . S
C265 H293 0.930 . S
N266 C265 1.373 . S
N266 C268 1.340 . S
N267 C264 1.368 . S
N267 C268 1.321 . S
N267 Co270 2.135 . S
C268 N266 1.340 . S
C268 N267 1.321 . S
C268 H292 0.930 . S
H269 C264 0.931 . S
Co270 N267 2.135 . S
Co270 N273 2.121 . S
Co270 O278 2.055 . S
Co270 O281 2.039 . S
Co270 N284 2.140 . S
C271 O272 1.227 . S
C271 O281 1.265 . S
O272 C271 1.227 . S
N273 Co270 2.121 . S
N273 C275 1.375 . S
N273 C276 1.313 . S
C274 C275 1.338 . S
C274 N277 1.377 . S
C274 H294 0.930 . S
C275 N273 1.375 . S
C275 C274 1.338 . S
C275 H279 0.931 . S
C276 N273 1.313 . S
C276 N277 1.344 . S
C276 H280 0.930 . S
N277 C274 1.377 . S
N277 C276 1.344 . S
O278 Co270 2.055 . S
O278 C282 1.253 . S
H279 C275 0.931 . S
H280 C276 0.930 . S
O281 Co270 2.039 . S
O281 C271 1.265 . S
C282 O278 1.253 . S
C282 O283 1.227 . S
O283 C282 1.227 . S
N284 Co270 2.140 . S
N284 C287 1.346 . S
N284 C288 1.345 . S
C285 C286 1.387 . S
C285 C289 1.391 . S
C286 C285 1.387 . S
C286 C287 1.369 . S
C286 H295 0.929 . S
C287 N284 1.346 . S
C287 C286 1.369 . S
C287 H290 0.928 . S
C288 N284 1.345 . S
C288 C289 1.371 . S
C288 H291 0.931 . S
C289 C285 1.391 . S
C289 C288 1.371 . S
C289 H296 0.930 . S
H290 C287 0.928 . S
H291 C288 0.931 . S
H292 C268 0.930 . S
H293 C265 0.930 . S
H294 C274 0.930 . S
H295 C286 0.929 . S
H296 C289 0.930 . S
C297 C298 1.351 . S
C297 N300 1.368 . S
C297 H302 0.931 . S
C298 C297 1.351 . S
C298 N299 1.373 . S
C298 H326 0.930 . S
N299 C298 1.373 . S
N299 C301 1.340 . S
N300 C297 1.368 . S
N300 C301 1.321 . S
N300 Co303 2.135 . S
C301 N299 1.340 . S
C301 N300 1.321 . S
C301 H325 0.930 . S
H302 C297 0.931 . S
Co303 N300 2.135 . S
Co303 N306 2.121 . S
Co303 O311 2.055 . S
Co303 O314 2.039 . S
Co303 N317 2.140 . S
C304 O305 1.227 . S
C304 O314 1.265 . S
O305 C304 1.227 . S
N306 Co303 2.121 . S
N306 C308 1.375 . S
N306 C309 1.313 . S
C307 C308 1.338 . S
C307 N310 1.377 . S
C307 H327 0.930 . S
C308 N306 1.375 . S
C308 C307 1.338 . S
C308 H312 0.931 . S
C309 N306 1.313 . S
C309 N310 1.344 . S
C309 H313 0.930 . S
N310 C307 1.377 . S
N310 C309 1.344 . S
O311 Co303 2.055 . S
O311 C315 1.253 . S
H312 C308 0.931 . S
H313 C309 0.930 . S
O314 Co303 2.039 . S
O314 C304 1.265 . S
C315 O311 1.253 . S
C315 O316 1.227 . S
O316 C315 1.227 . S
N317 Co303 2.140 . S
N317 C320 1.346 . S
N317 C321 1.345 . S
C318 C319 1.387 . S
C318 C322 1.391 . S
C319 C318 1.387 . S
C319 C320 1.369 . S
C319 H328 0.929 . S
C320 N317 1.346 . S
C320 C319 1.369 . S
C320 H323 0.928 . S
C321 N317 1.345 . S
C321 C322 1.371 . S
C321 H324 0.931 . S
C322 C318 1.391 . S
C322 C321 1.371 . S
C322 H329 0.930 . S
H323 C320 0.928 . S
H324 C321 0.931 . S
H325 C301 0.930 . S
H326 C298 0.930 . S
H327 C307 0.930 . S
H328 C319 0.929 . S
H329 C322 0.930 . S
C330 C331 1.351 . S
C330 N333 1.368 . S
C330 H335 0.931 . S
C331 C330 1.351 . S
C331 N332 1.373 . S
C331 H359 0.930 . S
N332 C331 1.373 . S
N332 C334 1.340 . S
N333 C330 1.368 . S
N333 C334 1.321 . S
N333 Co336 2.135 . S
C334 N332 1.340 . S
C334 N333 1.321 . S
C334 H358 0.930 . S
H335 C330 0.931 . S
Co336 N333 2.135 . S
Co336 N339 2.121 . S
Co336 O344 2.055 . S
Co336 O347 2.039 . S
Co336 N350 2.140 . S
C337 O338 1.227 . S
C337 O347 1.265 . S
O338 C337 1.227 . S
N339 Co336 2.121 . S
N339 C341 1.375 . S
N339 C342 1.313 . S
C340 C341 1.338 . S
C340 N343 1.377 . S
C340 H360 0.930 . S
C341 N339 1.375 . S
C341 C340 1.338 . S
C341 H345 0.931 . S
C342 N339 1.313 . S
C342 N343 1.344 . S
C342 H346 0.930 . S
N343 C340 1.377 . S
N343 C342 1.344 . S
O344 Co336 2.055 . S
O344 C348 1.253 . S
H345 C341 0.931 . S
H346 C342 0.930 . S
O347 Co336 2.039 . S
O347 C337 1.265 . S
C348 O344 1.253 . S
C348 O349 1.227 . S
O349 C348 1.227 . S
N350 Co336 2.140 . S
N350 C353 1.346 . S
N350 C354 1.345 . S
C351 C352 1.387 . S
C351 C355 1.391 . S
C352 C351 1.387 . S
C352 C353 1.369 . S
C352 H361 0.929 . S
C353 N350 1.346 . S
C353 C352 1.369 . S
C353 H356 0.928 . S
C354 N350 1.345 . S
C354 C355 1.371 . S
C354 H357 0.931 . S
C355 C351 1.391 . S
C355 C354 1.371 . S
C355 H362 0.930 . S
H356 C353 0.928 . S
H357 C354 0.931 . S
H358 C334 0.930 . S
H359 C331 0.930 . S
H360 C340 0.930 . S
H361 C352 0.929 . S
H362 C355 0.930 . S
C363 C364 1.351 . S
C363 N366 1.368 . S
C363 H368 0.931 . S
C364 C363 1.351 . S
C364 N365 1.373 . S
C364 H392 0.930 . S
N365 C364 1.373 . S
N365 C367 1.340 . S
N366 C363 1.368 . S
N366 C367 1.321 . S
N366 Co369 2.135 . S
C367 N365 1.340 . S
C367 N366 1.321 . S
C367 H391 0.930 . S
H368 C363 0.931 . S
Co369 N366 2.135 . S
Co369 N372 2.121 . S
Co369 O377 2.055 . S
Co369 O380 2.039 . S
Co369 N383 2.140 . S
C370 O371 1.227 . S
C370 O380 1.265 . S
O371 C370 1.227 . S
N372 Co369 2.121 . S
N372 C374 1.375 . S
N372 C375 1.313 . S
C373 C374 1.338 . S
C373 N376 1.377 . S
C373 H393 0.930 . S
C374 N372 1.375 . S
C374 C373 1.338 . S
C374 H378 0.931 . S
C375 N372 1.313 . S
C375 N376 1.344 . S
C375 H379 0.930 . S
N376 C373 1.377 . S
N376 C375 1.344 . S
O377 Co369 2.055 . S
O377 C381 1.253 . S
H378 C374 0.931 . S
H379 C375 0.930 . S
O380 Co369 2.039 . S
O380 C370 1.265 . S
C381 O377 1.253 . S
C381 O382 1.227 . S
O382 C381 1.227 . S
N383 Co369 2.140 . S
N383 C386 1.346 . S
N383 C387 1.345 . S
C384 C385 1.387 . S
C384 C388 1.391 . S
C385 C384 1.387 . S
C385 C386 1.369 . S
C385 H394 0.929 . S
C386 N383 1.346 . S
C386 C385 1.369 . S
C386 H389 0.928 . S
C387 N383 1.345 . S
C387 C388 1.371 . S
C387 H390 0.931 . S
C388 C384 1.391 . S
C388 C387 1.371 . S
C388 H395 0.930 . S
H389 C386 0.928 . S
H390 C387 0.931 . S
H391 C367 0.930 . S
H392 C364 0.930 . S
H393 C373 0.930 . S
H394 C385 0.929 . S
H395 C388 0.930 . S
C396 C397 1.351 . S
C396 N399 1.368 . S
C396 H401 0.931 . S
C397 C396 1.351 . S
C397 N398 1.373 . S
C397 H425 0.930 . S
N398 C397 1.373 . S
N398 C400 1.340 . S
N399 C396 1.368 . S
N399 C400 1.321 . S
N399 Co402 2.135 . S
C400 N398 1.340 . S
C400 N399 1.321 . S
C400 H424 0.930 . S
H401 C396 0.931 . S
Co402 N399 2.135 . S
Co402 N405 2.121 . S
Co402 O410 2.055 . S
Co402 O413 2.039 . S
Co402 N416 2.140 . S
C403 O404 1.227 . S
C403 O413 1.265 . S
O404 C403 1.227 . S
N405 Co402 2.121 . S
N405 C407 1.375 . S
N405 C408 1.313 . S
C406 C407 1.338 . S
C406 N409 1.377 . S
C406 H426 0.930 . S
C407 N405 1.375 . S
C407 C406 1.338 . S
C407 H411 0.931 . S
C408 N405 1.313 . S
C408 N409 1.344 . S
C408 H412 0.930 . S
N409 C406 1.377 . S
N409 C408 1.344 . S
O410 Co402 2.055 . S
O410 C414 1.253 . S
H411 C407 0.931 . S
H412 C408 0.930 . S
O413 Co402 2.039 . S
O413 C403 1.265 . S
C414 O410 1.253 . S
C414 O415 1.227 . S
O415 C414 1.227 . S
N416 Co402 2.140 . S
N416 C419 1.346 . S
N416 C420 1.345 . S
C417 C418 1.387 . S
C417 C421 1.391 . S
C418 C417 1.387 . S
C418 C419 1.369 . S
C418 H427 0.929 . S
C419 N416 1.346 . S
C419 C418 1.369 . S
C419 H422 0.928 . S
C420 N416 1.345 . S
C420 C421 1.371 . S
C420 H423 0.931 . S
C421 C417 1.391 . S
C421 C420 1.371 . S
C421 H428 0.930 . S
H422 C419 0.928 . S
H423 C420 0.931 . S
H424 C400 0.930 . S
H425 C397 0.930 . S
H426 C406 0.930 . S
H427 C418 0.929 . S
H428 C421 0.930 . S
C429 C430 1.351 . S
C429 N432 1.368 . S
C429 H434 0.931 . S
C430 C429 1.351 . S
C430 N431 1.373 . S
C430 H458 0.930 . S
N431 C430 1.373 . S
N431 C433 1.340 . S
N432 C429 1.368 . S
N432 C433 1.321 . S
N432 Co435 2.135 . S
C433 N431 1.340 . S
C433 N432 1.321 . S
C433 H457 0.930 . S
H434 C429 0.931 . S
Co435 N432 2.135 . S
Co435 N438 2.121 . S
Co435 O443 2.055 . S
Co435 O446 2.039 . S
Co435 N449 2.140 . S
C436 O437 1.227 . S
C436 O446 1.265 . S
O437 C436 1.227 . S
N438 Co435 2.121 . S
N438 C440 1.375 . S
N438 C441 1.313 . S
C439 C440 1.338 . S
C439 N442 1.377 . S
C439 H459 0.930 . S
C440 N438 1.375 . S
C440 C439 1.338 . S
C440 H444 0.931 . S
C441 N438 1.313 . S
C441 N442 1.344 . S
C441 H445 0.930 . S
N442 C439 1.377 . S
N442 C441 1.344 . S
O443 Co435 2.055 . S
O443 C447 1.253 . S
H444 C440 0.931 . S
H445 C441 0.930 . S
O446 Co435 2.039 . S
O446 C436 1.265 . S
C447 O443 1.253 . S
C447 O448 1.227 . S
O448 C447 1.227 . S
N449 Co435 2.140 . S
N449 C452 1.346 . S
N449 C453 1.345 . S
C450 C451 1.387 . S
C450 C454 1.391 . S
C451 C450 1.387 . S
C451 C452 1.369 . S
C451 H460 0.929 . S
C452 N449 1.346 . S
C452 C451 1.369 . S
C452 H455 0.928 . S
C453 N449 1.345 . S
C453 C454 1.371 . S
C453 H456 0.931 . S
C454 C450 1.391 . S
C454 C453 1.371 . S
C454 H461 0.930 . S
H455 C452 0.928 . S
H456 C453 0.931 . S
H457 C433 0.930 . S
H458 C430 0.930 . S
H459 C439 0.930 . S
H460 C451 0.929 . S
H461 C454 0.930 . S
C462 C463 1.351 . S
C462 N465 1.368 . S
C462 H467 0.931 . S
C463 C462 1.351 . S
C463 N464 1.373 . S
C463 H491 0.930 . S
N464 C463 1.373 . S
N464 C466 1.340 . S
N465 C462 1.368 . S
N465 C466 1.321 . S
N465 Co468 2.135 . S
C466 N464 1.340 . S
C466 N465 1.321 . S
C466 H490 0.930 . S
H467 C462 0.931 . S
Co468 N465 2.135 . S
Co468 N471 2.121 . S
Co468 O476 2.055 . S
Co468 O479 2.039 . S
Co468 N482 2.140 . S
C469 O470 1.227 . S
C469 O479 1.265 . S
O470 C469 1.227 . S
N471 Co468 2.121 . S
N471 C473 1.375 . S
N471 C474 1.313 . S
C472 C473 1.338 . S
C472 N475 1.377 . S
C472 H492 0.930 . S
C473 N471 1.375 . S
C473 C472 1.338 . S
C473 H477 0.931 . S
C474 N471 1.313 . S
C474 N475 1.344 . S
C474 H478 0.930 . S
N475 C472 1.377 . S
N475 C474 1.344 . S
O476 Co468 2.055 . S
O476 C480 1.253 . S
H477 C473 0.931 . S
H478 C474 0.930 . S
O479 Co468 2.039 . S
O479 C469 1.265 . S
C480 O476 1.253 . S
C480 O481 1.227 . S
O481 C480 1.227 . S
N482 Co468 2.140 . S
N482 C485 1.346 . S
N482 C486 1.345 . S
C483 C484 1.387 . S
C483 C487 1.391 . S
C484 C483 1.387 . S
C484 C485 1.369 . S
C484 H493 0.929 . S
C485 N482 1.346 . S
C485 C484 1.369 . S
C485 H488 0.928 . S
C486 N482 1.345 . S
C486 C487 1.371 . S
C486 H489 0.931 . S
C487 C483 1.391 . S
C487 C486 1.371 . S
C487 H494 0.930 . S
H488 C485 0.928 . S
H489 C486 0.931 . S
H490 C466 0.930 . S
H491 C463 0.930 . S
H492 C472 0.930 . S
H493 C484 0.929 . S
H494 C487 0.930 . S
C495 C496 1.351 . S
C495 N498 1.368 . S
C495 H500 0.931 . S
C496 C495 1.351 . S
C496 N497 1.373 . S
C496 H524 0.930 . S
N497 C496 1.373 . S
N497 C499 1.340 . S
N498 C495 1.368 . S
N498 C499 1.321 . S
N498 Co501 2.135 . S
C499 N497 1.340 . S
C499 N498 1.321 . S
C499 H523 0.930 . S
H500 C495 0.931 . S
Co501 N498 2.135 . S
Co501 N504 2.121 . S
Co501 O509 2.055 . S
Co501 O512 2.039 . S
Co501 N515 2.140 . S
C502 O503 1.227 . S
C502 O512 1.265 . S
O503 C502 1.227 . S
N504 Co501 2.121 . S
N504 C506 1.375 . S
N504 C507 1.313 . S
C505 C506 1.338 . S
C505 N508 1.377 . S
C505 H525 0.930 . S
C506 N504 1.375 . S
C506 C505 1.338 . S
C506 H510 0.931 . S
C507 N504 1.313 . S
C507 N508 1.344 . S
C507 H511 0.930 . S
N508 C505 1.377 . S
N508 C507 1.344 . S
O509 Co501 2.055 . S
O509 C513 1.253 . S
H510 C506 0.931 . S
H511 C507 0.930 . S
O512 Co501 2.039 . S
O512 C502 1.265 . S
C513 O509 1.253 . S
C513 O514 1.227 . S
O514 C513 1.227 . S
N515 Co501 2.140 . S
N515 C518 1.346 . S
N515 C519 1.345 . S
C516 C517 1.387 . S
C516 C520 1.391 . S
C517 C516 1.387 . S
C517 C518 1.369 . S
C517 H526 0.929 . S
C518 N515 1.346 . S
C518 C517 1.369 . S
C518 H521 0.928 . S
C519 N515 1.345 . S
C519 C520 1.371 . S
C519 H522 0.931 . S
C520 C516 1.391 . S
C520 C519 1.371 . S
C520 H527 0.930 . S
H521 C518 0.928 . S
H522 C519 0.931 . S
H523 C499 0.930 . S
H524 C496 0.930 . S
H525 C505 0.930 . S
H526 C517 0.929 . S
H527 C520 0.930 . S
C528 C529 1.387 . S
C528 H532 0.950 . S
C528 C537 1.390 . S
C529 C528 1.387 . S
C529 C531 1.387 . S
H530 C537 0.950 . S
C531 C529 1.387 . S
C531 C533 1.390 . S
C531 H535 0.950 . S
H532 C528 0.950 . S
C533 C531 1.390 . S
C533 C534 1.387 . S
C533 H536 0.950 . S
C534 C533 1.387 . S
C534 C537 1.387 . S
H535 C531 0.950 . S
H536 C533 0.950 . S
C537 C528 1.390 . S
C537 H530 0.950 . S
C537 C534 1.387 . S
C538 C539 1.387 . S
C538 H542 0.950 . S
C538 C547 1.390 . S
C539 C538 1.387 . S
C539 C541 1.387 . S
H540 C547 0.950 . S
C541 C539 1.387 . S
C541 C543 1.390 . S
C541 H545 0.950 . S
H542 C538 0.950 . S
C543 C541 1.390 . S
C543 C544 1.387 . S
C543 H546 0.950 . S
C544 C543 1.387 . S
C544 C547 1.387 . S
H545 C541 0.950 . S
H546 C543 0.950 . S
C547 C538 1.390 . S
C547 H540 0.950 . S
C547 C544 1.387 . S
C548 C549 1.387 . S
C548 H552 0.950 . S
C548 C557 1.390 . S
C549 C548 1.387 . S
C549 C551 1.387 . S
H550 C557 0.950 . S
C551 C549 1.387 . S
C551 C553 1.390 . S
C551 H555 0.950 . S
H552 C548 0.950 . S
C553 C551 1.390 . S
C553 C554 1.387 . S
C553 H556 0.950 . S
C554 C553 1.387 . S
C554 C557 1.387 . S
H555 C551 0.950 . S
H556 C553 0.950 . S
C557 C548 1.390 . S
C557 H550 0.950 . S
C557 C554 1.387 . S
C558 C559 1.387 . S
C558 H562 0.950 . S
C558 C567 1.390 . S
C559 C558 1.387 . S
C559 C561 1.387 . S
H560 C567 0.950 . S
C561 C559 1.387 . S
C561 C563 1.390 . S
C561 H565 0.950 . S
H562 C558 0.950 . S
C563 C561 1.390 . S
C563 C564 1.387 . S
C563 H566 0.950 . S
C564 C563 1.387 . S
C564 C567 1.387 . S
H565 C561 0.950 . S
H566 C563 0.950 . S
C567 C558 1.390 . S
C567 H560 0.950 . S
C567 C564 1.387 . S
C568 C569 1.387 . S
C568 H572 0.950 . S
C568 C577 1.390 . S
C569 C568 1.387 . S
C569 C571 1.387 . S
H570 C577 0.950 . S
C571 C569 1.387 . S
C571 C573 1.390 . S
C571 H575 0.950 . S
H572 C568 0.950 . S
C573 C571 1.390 . S
C573 C574 1.387 . S
C573 H576 0.950 . S
C574 C573 1.387 . S
C574 C577 1.387 . S
H575 C571 0.950 . S
H576 C573 0.950 . S
C577 C568 1.390 . S
C577 H570 0.950 . S
C577 C574 1.387 . S
C578 C579 1.387 . S
C578 H582 0.950 . S
C578 C587 1.390 . S
C579 C578 1.387 . S
C579 C581 1.387 . S
H580 C587 0.950 . S
C581 C579 1.387 . S
C581 C583 1.390 . S
C581 H585 0.950 . S
H582 C578 0.950 . S
C583 C581 1.390 . S
C583 C584 1.387 . S
C583 H586 0.950 . S
C584 C583 1.387 . S
C584 C587 1.387 . S
H585 C581 0.950 . S
H586 C583 0.950 . S
C587 C578 1.390 . S
C587 H580 0.950 . S
C587 C584 1.387 . S
C588 C589 1.387 . S
C588 H592 0.950 . S
C588 C597 1.390 . S
C589 C588 1.387 . S
C589 C591 1.387 . S
H590 C597 0.950 . S
C591 C589 1.387 . S
C591 C593 1.390 . S
C591 H595 0.950 . S
H592 C588 0.950 . S
C593 C591 1.390 . S
C593 C594 1.387 . S
C593 H596 0.950 . S
C594 C593 1.387 . S
C594 C597 1.387 . S
H595 C591 0.950 . S
H596 C593 0.950 . S
C597 C588 1.390 . S
C597 H590 0.950 . S
C597 C594 1.387 . S
C598 C599 1.387 . S
C598 H602 0.950 . S
C598 C607 1.390 . S
C599 C598 1.387 . S
C599 C601 1.387 . S
H600 C607 0.950 . S
C601 C599 1.387 . S
C601 C603 1.390 . S
C601 H605 0.950 . S
H602 C598 0.950 . S
C603 C601 1.390 . S
C603 C604 1.387 . S
C603 H606 0.950 . S
C604 C603 1.387 . S
C604 C607 1.387 . S
H605 C601 0.950 . S
H606 C603 0.950 . S
C607 C598 1.390 . S
C607 H600 0.950 . S
C607 C604 1.387 . S
C608 C609 1.387 . S
C608 H612 0.950 . S
C608 C617 1.390 . S
C609 C608 1.387 . S
C609 C611 1.387 . S
H610 C617 0.950 . S
C611 C609 1.387 . S
C611 C613 1.390 . S
C611 H615 0.950 . S
H612 C608 0.950 . S
C613 C611 1.390 . S
C613 C614 1.387 . S
C613 H616 0.950 . S
C614 C613 1.387 . S
C614 C617 1.387 . S
H615 C611 0.950 . S
H616 C613 0.950 . S
C617 C608 1.390 . S
C617 H610 0.950 . S
C617 C614 1.387 . S
C618 C619 1.387 . S
C618 H622 0.950 . S
C618 C627 1.390 . S
C619 C618 1.387 . S
C619 C621 1.387 . S
H620 C627 0.950 . S
C621 C619 1.387 . S
C621 C623 1.390 . S
C621 H625 0.950 . S
H622 C618 0.950 . S
C623 C621 1.390 . S
C623 C624 1.387 . S
C623 H626 0.950 . S
C624 C623 1.387 . S
C624 C627 1.387 . S
H625 C621 0.950 . S
H626 C623 0.950 . S
C627 C618 1.390 . S
C627 H620 0.950 . S
C627 C624 1.387 . S
C628 C629 1.387 . S
C628 H632 0.950 . S
C628 C637 1.390 . S
C629 C628 1.387 . S
C629 C631 1.387 . S
H630 C637 0.950 . S
C631 C629 1.387 . S
C631 C633 1.390 . S
C631 H635 0.950 . S
H632 C628 0.950 . S
C633 C631 1.390 . S
C633 C634 1.387 . S
C633 H636 0.950 . S
C634 C633 1.387 . S
C634 C637 1.387 . S
H635 C631 0.950 . S
H636 C633 0.950 . S
C637 C628 1.390 . S
C637 H630 0.950 . S
C637 C634 1.387 . S
C638 C639 1.387 . S
C638 H642 0.950 . S
C638 C647 1.390 . S
C639 C638 1.387 . S
C639 C641 1.387 . S
H640 C647 0.950 . S
C641 C639 1.387 . S
C641 C643 1.390 . S
C641 H645 0.950 . S
H642 C638 0.950 . S
C643 C641 1.390 . S
C643 C644 1.387 . S
C643 H646 0.950 . S
C644 C643 1.387 . S
C644 C647 1.387 . S
H645 C641 0.950 . S
H646 C643 0.950 . S
C647 C638 1.390 . S
C647 H640 0.950 . S
C647 C644 1.387 . S
C648 C649 1.387 . S
C648 H652 0.950 . S
C648 C657 1.390 . S
C649 C648 1.387 . S
C649 C651 1.387 . S
H650 C657 0.950 . S
C651 C649 1.387 . S
C651 C653 1.390 . S
C651 H655 0.950 . S
H652 C648 0.950 . S
C653 C651 1.390 . S
C653 C654 1.387 . S
C653 H656 0.950 . S
C654 C653 1.387 . S
C654 C657 1.387 . S
H655 C651 0.950 . S
H656 C653 0.950 . S
C657 C648 1.390 . S
C657 H650 0.950 . S
C657 C654 1.387 . S
C658 C659 1.387 . S
C658 H662 0.950 . S
C658 C667 1.390 . S
C659 C658 1.387 . S
C659 C661 1.387 . S
H660 C667 0.950 . S
C661 C659 1.387 . S
C661 C663 1.390 . S
C661 H665 0.950 . S
H662 C658 0.950 . S
C663 C661 1.390 . S
C663 C664 1.387 . S
C663 H666 0.950 . S
C664 C663 1.387 . S
C664 C667 1.387 . S
H665 C661 0.950 . S
H666 C663 0.950 . S
C667 C658 1.390 . S
C667 H660 0.950 . S
C667 C664 1.387 . S
C668 C669 1.387 . S
C668 H672 0.950 . S
C668 C677 1.390 . S
C669 C668 1.387 . S
C669 C671 1.387 . S
H670 C677 0.950 . S
C671 C669 1.387 . S
C671 C673 1.390 . S
C671 H675 0.950 . S
H672 C668 0.950 . S
C673 C671 1.390 . S
C673 C674 1.387 . S
C673 H676 0.950 . S
C674 C673 1.387 . S
C674 C677 1.387 . S
H675 C671 0.950 . S
H676 C673 0.950 . S
C677 C668 1.390 . S
C677 H670 0.950 . S
C677 C674 1.387 . S
C678 C679 1.387 . S
C678 H682 0.950 . S
C678 C687 1.390 . S
C679 C678 1.387 . S
C679 C681 1.387 . S
H680 C687 0.950 . S
C681 C679 1.387 . S
C681 C683 1.390 . S
C681 H685 0.950 . S
H682 C678 0.950 . S
C683 C681 1.390 . S
C683 C684 1.387 . S
C683 H686 0.950 . S
C684 C683 1.387 . S
C684 C687 1.387 . S
H685 C681 0.950 . S
H686 C683 0.950 . S
C687 C678 1.390 . S
C687 H680 0.950 . S
C687 C684 1.387 . S
C688 C689 1.387 . S
C688 H692 0.950 . S
C688 C697 1.390 . S
C689 C688 1.387 . S
C689 C691 1.387 . S
H690 C697 0.950 . S
C691 C689 1.387 . S
C691 C693 1.390 . S
C691 H695 0.950 . S
H692 C688 0.950 . S
C693 C691 1.390 . S
C693 C694 1.387 . S
C693 H696 0.950 . S
C694 C693 1.387 . S
C694 C697 1.387 . S
H695 C691 0.950 . S
H696 C693 0.950 . S
C697 C688 1.390 . S
C697 H690 0.950 . S
C697 C694 1.387 . S
C698 C699 1.387 . S
C698 H702 0.950 . S
C698 C707 1.390 . S
C699 C698 1.387 . S
C699 C701 1.387 . S
H700 C707 0.950 . S
C701 C699 1.387 . S
C701 C703 1.390 . S
C701 H705 0.950 . S
H702 C698 0.950 . S
C703 C701 1.390 . S
C703 C704 1.387 . S
C703 H706 0.950 . S
C704 C703 1.387 . S
C704 C707 1.387 . S
H705 C701 0.950 . S
H706 C703 0.950 . S
C707 C698 1.390 . S
C707 H700 0.950 . S
C707 C704 1.387 . S
C708 C709 1.387 . S
C708 H712 0.950 . S
C708 C717 1.390 . S
C709 C708 1.387 . S
C709 C711 1.387 . S
H710 C717 0.950 . S
C711 C709 1.387 . S
C711 C713 1.390 . S
C711 H715 0.950 . S
H712 C708 0.950 . S
C713 C711 1.390 . S
C713 C714 1.387 . S
C713 H716 0.950 . S
C714 C713 1.387 . S
C714 C717 1.387 . S
H715 C711 0.950 . S
H716 C713 0.950 . S
C717 C708 1.390 . S
C717 H710 0.950 . S
C717 C714 1.387 . S
C718 C719 1.387 . S
C718 H722 0.950 . S
C718 C727 1.390 . S
C719 C718 1.387 . S
C719 C721 1.387 . S
H720 C727 0.950 . S
C721 C719 1.387 . S
C721 C723 1.390 . S
C721 H725 0.950 . S
H722 C718 0.950 . S
C723 C721 1.390 . S
C723 C724 1.387 . S
C723 H726 0.950 . S
C724 C723 1.387 . S
C724 C727 1.387 . S
H725 C721 0.950 . S
H726 C723 0.950 . S
C727 C718 1.390 . S
C727 H720 0.950 . S
C727 C724 1.387 . S
C728 C729 1.387 . S
C728 H732 0.950 . S
C728 C737 1.390 . S
C729 C728 1.387 . S
C729 C731 1.387 1_556 S
H730 C737 0.950 . S
C731 C729 1.387 1_554 S
C731 C733 1.390 . S
C731 H735 0.950 . S
H732 C728 0.950 . S
C733 C731 1.390 . S
C733 C734 1.387 . S
C733 H736 0.950 . S
C734 C733 1.387 . S
C734 C737 1.387 1_554 S
H735 C731 0.950 . S
H736 C733 0.950 . S
C737 C728 1.390 . S
C737 H730 0.950 . S
C737 C734 1.387 1_556 S
C738 C739 1.387 . S
C738 H742 0.950 . S
C738 C747 1.390 1_556 S
C739 C738 1.387 . S
C739 C741 1.387 . S
H740 C747 0.950 . S
C741 C739 1.387 . S
C741 C743 1.390 1_556 S
C741 H745 0.950 . S
H742 C738 0.950 . S
C743 C741 1.390 1_554 S
C743 C744 1.387 . S
C743 H746 0.950 . S
C744 C743 1.387 . S
C744 C747 1.387 . S
H745 C741 0.950 . S
H746 C743 0.950 . S
C747 C738 1.390 1_554 S
C747 H740 0.950 . S
C747 C744 1.387 . S
C748 C749 1.387 1_554 S
C748 H752 0.950 . S
C748 C757 1.390 . S
C749 C748 1.387 1_556 S
C749 C751 1.387 . S
H750 C757 0.950 . S
C751 C749 1.387 . S
C751 C753 1.390 . S
C751 H755 0.950 . S
H752 C748 0.950 . S
C753 C751 1.390 . S
C753 C754 1.387 1_556 S
C753 H756 0.950 . S
C754 C753 1.387 1_554 S
C754 C757 1.387 . S
H755 C751 0.950 . S
H756 C753 0.950 . S
C757 C748 1.390 . S
C757 H750 0.950 . S
C757 C754 1.387 . S
C758 C759 1.387 1_554 S
C758 H762 0.950 . S
C758 C767 1.390 . S
C759 C758 1.387 1_556 S
C759 C761 1.387 . S
H760 C767 0.950 . S
C761 C759 1.387 . S
C761 C763 1.390 . S
C761 H765 0.950 . S
H762 C758 0.950 . S
C763 C761 1.390 . S
C763 C764 1.387 1_556 S
C763 H766 0.950 . S
C764 C763 1.387 1_554 S
C764 C767 1.387 . S
H765 C761 0.950 . S
H766 C763 0.950 . S
C767 C758 1.390 . S
C767 H760 0.950 . S
C767 C764 1.387 . S
C768 C769 1.387 . S
C768 H772 0.950 . S
C768 C777 1.390 . S
C769 C768 1.387 . S
C769 C771 1.387 . S
H770 C777 0.950 . S
C771 C769 1.387 . S
C771 C773 1.390 . S
C771 H775 0.950 . S
H772 C768 0.950 . S
C773 C771 1.390 . S
C773 C774 1.387 . S
C773 H776 0.950 . S
C774 C773 1.387 . S
C774 C777 1.387 . S
H775 C771 0.950 . S
H776 C773 0.950 . S
C777 C768 1.390 . S
C777 H770 0.950 . S
C777 C774 1.387 . S
C778 C779 1.387 . S
C778 H782 0.950 . S
C778 C787 1.390 . S
C779 C778 1.387 . S
C779 C781 1.387 . S
H780 C787 0.950 . S
C781 C779 1.387 . S
C781 C783 1.390 . S
C781 H785 0.950 . S
H782 C778 0.950 . S
C783 C781 1.390 . S
C783 C784 1.387 . S
C783 H786 0.950 . S
C784 C783 1.387 . S
C784 C787 1.387 . S
H785 C781 0.950 . S
H786 C783 0.950 . S
C787 C778 1.390 . S
C787 H780 0.950 . S
C787 C784 1.387 . S
C788 C789 1.387 . S
C788 H792 0.950 . S
C788 C797 1.390 . S
C789 C788 1.387 . S
C789 C791 1.387 . S
H790 C797 0.950 . S
C791 C789 1.387 . S
C791 C793 1.390 . S
C791 H795 0.950 . S
H792 C788 0.950 . S
C793 C791 1.390 . S
C793 C794 1.387 . S
C793 H796 0.950 . S
C794 C793 1.387 . S
C794 C797 1.387 . S
H795 C791 0.950 . S
H796 C793 0.950 . S
C797 C788 1.390 . S
C797 H790 0.950 . S
C797 C794 1.387 . S
C798 C799 1.387 . S
C798 H802 0.950 . S
C798 C807 1.390 . S
C799 C798 1.387 . S
C799 C801 1.387 . S
H800 C807 0.950 . S
C801 C799 1.387 . S
C801 C803 1.390 . S
C801 H805 0.950 . S
H802 C798 0.950 . S
C803 C801 1.390 . S
C803 C804 1.387 . S
C803 H806 0.950 . S
C804 C803 1.387 . S
C804 C807 1.387 . S
H805 C801 0.950 . S
H806 C803 0.950 . S
C807 C798 1.390 . S
C807 H800 0.950 . S
C807 C804 1.387 . S
C808 C809 1.387 . S
C808 H812 0.950 . S
C808 C817 1.390 . S
C809 C808 1.387 . S
C809 C811 1.387 . S
H810 C817 0.950 . S
C811 C809 1.387 . S
C811 C813 1.390 . S
C811 H815 0.950 . S
H812 C808 0.950 . S
C813 C811 1.390 . S
C813 C814 1.387 . S
C813 H816 0.950 . S
C814 C813 1.387 . S
C814 C817 1.387 . S
H815 C811 0.950 . S
H816 C813 0.950 . S
C817 C808 1.390 . S
C817 H810 0.950 . S
C817 C814 1.387 . S
C818 C819 1.387 . S
C818 H822 0.950 . S
C818 C827 1.390 . S
C819 C818 1.387 . S
C819 C821 1.387 . S
H820 C827 0.950 . S
C821 C819 1.387 . S
C821 C823 1.390 . S
C821 H825 0.950 . S
H822 C818 0.950 . S
C823 C821 1.390 . S
C823 C824 1.387 . S
C823 H826 0.950 . S
C824 C823 1.387 . S
C824 C827 1.387 . S
H825 C821 0.950 . S
H826 C823 0.950 . S
C827 C818 1.390 . S
C827 H820 0.950 . S
C827 C824 1.387 . S
C828 C829 1.387 . S
C828 H832 0.950 . S
C828 C837 1.390 . S
C829 C828 1.387 . S
C829 C831 1.387 . S
H830 C837 0.950 . S
C831 C829 1.387 . S
C831 C833 1.390 . S
C831 H835 0.950 . S
H832 C828 0.950 . S
C833 C831 1.390 . S
C833 C834 1.387 . S
C833 H836 0.950 . S
C834 C833 1.387 . S
C834 C837 1.387 . S
H835 C831 0.950 . S
H836 C833 0.950 . S
C837 C828 1.390 . S
C837 H830 0.950 . S
C837 C834 1.387 . S
C838 C839 1.387 . S
C838 H842 0.950 . S
C838 C847 1.390 . S
C839 C838 1.387 . S
C839 C841 1.387 . S
H840 C847 0.950 . S
C841 C839 1.387 . S
C841 C843 1.390 . S
C841 H845 0.950 . S
H842 C838 0.950 . S
C843 C841 1.390 . S
C843 C844 1.387 . S
C843 H846 0.950 . S
C844 C843 1.387 . S
C844 C847 1.387 . S
H845 C841 0.950 . S
H846 C843 0.950 . S
C847 C838 1.390 . S
C847 H840 0.950 . S
C847 C844 1.387 . S
C848 C849 1.387 . S
C848 H852 0.950 . S
C848 C857 1.390 1_545 S
C849 C848 1.387 . S
C849 C851 1.387 . S
H850 C857 0.950 . S
C851 C849 1.387 . S
C851 C853 1.390 1_545 S
C851 H855 0.950 . S
H852 C848 0.950 . S
C853 C851 1.390 1_565 S
C853 C854 1.387 . S
C853 H856 0.950 . S
C854 C853 1.387 . S
C854 C857 1.387 . S
H855 C851 0.950 . S
H856 C853 0.950 . S
C857 C848 1.390 1_565 S
C857 H850 0.950 . S
C857 C854 1.387 . S
C858 C859 1.387 . S
C858 H862 0.950 . S
C858 C867 1.390 1_655 S
C859 C858 1.387 . S
C859 C861 1.387 . S
H860 C867 0.950 . S
C861 C859 1.387 . S
C861 C863 1.390 1_655 S
C861 H865 0.950 . S
H862 C858 0.950 . S
C863 C861 1.390 1_455 S
C863 C864 1.387 . S
C863 H866 0.950 . S
C864 C863 1.387 . S
C864 C867 1.387 . S
H865 C861 0.950 . S
H866 C863 0.950 . S
C867 C858 1.390 1_455 S
C867 H860 0.950 . S
C867 C864 1.387 . S
C868 C869 1.387 . S
C868 H872 0.950 . S
C868 C877 1.390 1_565 S
C869 C868 1.387 . S
C869 C871 1.387 . S
H870 C877 0.950 . S
C871 C869 1.387 . S
C871 C873 1.390 1_565 S
C871 H875 0.950 . S
H872 C868 0.950 . S
C873 C871 1.390 1_545 S
C873 C874 1.387 . S
C873 H876 0.950 . S
C874 C873 1.387 . S
C874 C877 1.387 . S
H875 C871 0.950 . S
H876 C873 0.950 . S
C877 C868 1.390 1_545 S
C877 H870 0.950 . S
C877 C874 1.387 . S
C878 C879 1.387 . S
C878 H882 0.950 . S
C878 C887 1.390 1_655 S
C879 C878 1.387 . S
C879 C881 1.387 . S
H880 C887 0.950 . S
C881 C879 1.387 . S
C881 C883 1.390 1_655 S
C881 H885 0.950 . S
H882 C878 0.950 . S
C883 C881 1.390 1_455 S
C883 C884 1.387 . S
C883 H886 0.950 . S
C884 C883 1.387 . S
C884 C887 1.387 . S
H885 C881 0.950 . S
H886 C883 0.950 . S
C887 C878 1.390 1_455 S
C887 H880 0.950 . S
C887 C884 1.387 . S
C888 C889 1.387 . S
C888 H892 0.950 . S
C888 C897 1.390 1_556 S
C889 C888 1.387 . S
C889 C891 1.387 . S
H890 C897 0.950 . S
C891 C889 1.387 . S
C891 C893 1.390 1_556 S
C891 H895 0.950 . S
H892 C888 0.950 . S
C893 C891 1.390 1_554 S
C893 C894 1.387 . S
C893 H896 0.950 . S
C894 C893 1.387 . S
C894 C897 1.387 . S
H895 C891 0.950 . S
H896 C893 0.950 . S
C897 C888 1.390 1_554 S
C897 H890 0.950 . S
C897 C894 1.387 . S
C898 C899 1.387 . S
C898 H902 0.950 . S
C898 C907 1.390 1_556 S
C899 C898 1.387 . S
C899 C901 1.387 . S
H900 C907 0.950 . S
C901 C899 1.387 . S
C901 C903 1.390 1_556 S
C901 H905 0.950 . S
H902 C898 0.950 . S
C903 C901 1.390 1_554 S
C903 C904 1.387 . S
C903 H906 0.950 . S
C904 C903 1.387 . S
C904 C907 1.387 . S
H905 C901 0.950 . S
H906 C903 0.950 . S
C907 C898 1.390 1_554 S
C907 H900 0.950 . S
C907 C904 1.387 . S
C908 C909 1.387 . S
C908 H912 0.950 . S
C908 C917 1.390 1_554 S
C909 C908 1.387 . S
C909 C911 1.387 . S
H910 C917 0.950 . S
C911 C909 1.387 . S
C911 C913 1.390 1_554 S
C911 H915 0.950 . S
H912 C908 0.950 . S
C913 C911 1.390 1_556 S
C913 C914 1.387 . S
C913 H916 0.950 . S
C914 C913 1.387 . S
C914 C917 1.387 . S
H915 C911 0.950 . S
H916 C913 0.950 . S
C917 C908 1.390 1_556 S
C917 H910 0.950 . S
C917 C914 1.387 . S
C918 C919 1.387 . S
C918 H922 0.950 . S
C918 C927 1.390 1_556 S
C919 C918 1.387 . S
C919 C921 1.387 . S
H920 C927 0.950 . S
C921 C919 1.387 . S
C921 C923 1.390 1_556 S
C921 H925 0.950 . S
H922 C918 0.950 . S
C923 C921 1.390 1_554 S
C923 C924 1.387 . S
C923 H926 0.950 . S
C924 C923 1.387 . S
C924 C927 1.387 . S
H925 C921 0.950 . S
H926 C923 0.950 . S
C927 C918 1.390 1_554 S
C927 H920 0.950 . S
C927 C924 1.387 . S
C529 C18 1.900 1_565 S
C534 N101 1.724 . S
C539 N2 1.722 . S
C544 C51 1.899 1_455 S
C549 C84 1.899 1_545 S
C554 N35 1.720 . S
C559 N68 1.721 . S
C564 C117 1.899 1_655 S
C569 N167 1.724 . S
C574 C150 1.900 1_545 S
C579 N200 1.721 . S
C584 C183 1.899 1_655 S
C589 N233 1.724 . S
C594 C216 1.900 1_565 S
C599 C249 1.899 1_455 S
C604 N134 1.720 . S
C609 C282 1.899 . S
C614 N365 1.722 . S
C619 C315 1.899 . S
C624 N266 1.722 . S
C629 C348 1.899 . S
C634 N299 1.721 . S
C639 N332 1.721 . S
C644 C381 1.899 . S
C649 N431 1.722 . S
C654 C414 1.899 . S
C659 C447 1.899 . S
C664 N464 1.721 . S
C669 C480 1.899 . S
C674 N497 1.721 . S
C679 C513 1.899 . S
C684 N398 1.720 . S
C689 C7 1.216 . S
C694 C172 1.216 . S
C699 C40 1.216 . S
C704 C205 1.217 . S
C709 C238 1.217 . S
C714 C73 1.217 . S
C719 C106 1.216 . S
C724 C139 1.216 . S
C729 C271 1.217 . S
C734 C436 1.217 . S
C739 C304 1.216 . S
C744 C469 1.216 . S
C749 C337 1.216 . S
C754 C502 1.217 . S
C759 C370 1.216 . S
C764 C403 1.217 . S
C769 C21 0.734 . S
C774 C516 0.732 . S
C779 C417 0.735 . S
C784 C54 0.735 . S
C789 C87 0.733 . S
C794 C450 0.735 . S
C799 C120 0.732 . S
C804 C483 0.734 . S
C809 C318 0.735 . S
C814 C153 0.733 . S
C819 C351 0.732 . S
C824 C186 0.735 . S
C829 C384 0.734 . S
C834 C219 0.735 . S
C839 C285 0.734 . S
C844 C252 0.735 . S
C849 N13 1.076 . S
C854 N145 1.076 . S
C859 N46 1.076 . S
C864 N178 1.076 . S
C869 N79 1.076 . S
C874 N211 1.076 . S
C879 N244 1.076 . S
C884 N112 1.076 . S
C889 N277 1.076 . S
C894 N409 1.076 . S
C899 N310 1.082 . S
C904 N442 1.082 . S
C909 N475 1.076 . S
C914 N343 1.076 . S
C919 N376 1.076 . S
C924 N508 1.076 . S
