# Generated by pormake.
# Topology neb, (4)-cn, num edge types: 1
# Building blocks:
#     Node 0, Type 0, BuildingBlock: NAHDIM_clean_sbu_0, # of connection points: 4
#     Node 1, Type 0, BuildingBlock: NAHDIM_clean_sbu_0, # of connection points: 4
#     Node 2, Type 0, BuildingBlock: NAHDIM_clean_sbu_0, # of connection points: 4
#     Node 3, Type 0, BuildingBlock: NAHDIM_clean_sbu_0, # of connection points: 4
#     Node 4, Type 0, BuildingBlock: NAHDIM_clean_sbu_0, # of connection points: 4
#     Node 5, Type 0, BuildingBlock: NAHDIM_clean_sbu_0, # of connection points: 4
#     Node 6, Type 0, BuildingBlock: NAHDIM_clean_sbu_0, # of connection points: 4
#     Node 7, Type 0, BuildingBlock: NAHDIM_clean_sbu_0, # of connection points: 4
#     Node 8, Type 0, BuildingBlock: NAHDIM_clean_sbu_0, # of connection points: 4
#     Node 9, Type 0, BuildingBlock: NAHDIM_clean_sbu_0, # of connection points: 4
#     Node 10, Type 0, BuildingBlock: NAHDIM_clean_sbu_0, # of connection points: 4
#     Node 11, Type 0, BuildingBlock: NAHDIM_clean_sbu_0, # of connection points: 4
#     Node 12, Type 0, BuildingBlock: NAHDIM_clean_sbu_0, # of connection points: 4
#     Node 13, Type 0, BuildingBlock: NAHDIM_clean_sbu_0, # of connection points: 4
#     Node 14, Type 0, BuildingBlock: NAHDIM_clean_sbu_0, # of connection points: 4
#     Node 15, Type 0, BuildingBlock: NAHDIM_clean_sbu_0, # of connection points: 4
#     Edge 16, Type (0, 0), BuildingBlock: XIVTED_clean_linker_0, # of connection points: 2
#     Edge 17, Type (0, 0), BuildingBlock: XIVTED_clean_linker_0, # of connection points: 2
#     Edge 18, Type (0, 0), BuildingBlock: XIVTED_clean_linker_0, # of connection points: 2
#     Edge 19, Type (0, 0), BuildingBlock: XIVTED_clean_linker_0, # of connection points: 2
#     Edge 20, Type (0, 0), BuildingBlock: XIVTED_clean_linker_0, # of connection points: 2
#     Edge 21, Type (0, 0), BuildingBlock: XIVTED_clean_linker_0, # of connection points: 2
#     Edge 22, Type (0, 0), BuildingBlock: XIVTED_clean_linker_0, # of connection points: 2
#     Edge 23, Type (0, 0), BuildingBlock: XIVTED_clean_linker_0, # of connection points: 2
#     Edge 24, Type (0, 0), BuildingBlock: XIVTED_clean_linker_0, # of connection points: 2
#     Edge 25, Type (0, 0), BuildingBlock: XIVTED_clean_linker_0, # of connection points: 2
#     Edge 26, Type (0, 0), BuildingBlock: XIVTED_clean_linker_0, # of connection points: 2
#     Edge 27, Type (0, 0), BuildingBlock: XIVTED_clean_linker_0, # of connection points: 2
#     Edge 28, Type (0, 0), BuildingBlock: XIVTED_clean_linker_0, # of connection points: 2
#     Edge 29, Type (0, 0), BuildingBlock: XIVTED_clean_linker_0, # of connection points: 2
#     Edge 30, Type (0, 0), BuildingBlock: XIVTED_clean_linker_0, # of connection points: 2
#     Edge 31, Type (0, 0), BuildingBlock: XIVTED_clean_linker_0, # of connection points: 2
#     Edge 32, Type (0, 0), BuildingBlock: XIVTED_clean_linker_0, # of connection points: 2
#     Edge 33, Type (0, 0), BuildingBlock: XIVTED_clean_linker_0, # of connection points: 2
#     Edge 34, Type (0, 0), BuildingBlock: XIVTED_clean_linker_0, # of connection points: 2
#     Edge 35, Type (0, 0), BuildingBlock: XIVTED_clean_linker_0, # of connection points: 2
#     Edge 36, Type (0, 0), BuildingBlock: XIVTED_clean_linker_0, # of connection points: 2
#     Edge 37, Type (0, 0), BuildingBlock: XIVTED_clean_linker_0, # of connection points: 2
#     Edge 38, Type (0, 0), BuildingBlock: XIVTED_clean_linker_0, # of connection points: 2
#     Edge 39, Type (0, 0), BuildingBlock: XIVTED_clean_linker_0, # of connection points: 2
#     Edge 40, Type (0, 0), BuildingBlock: XIVTED_clean_linker_0, # of connection points: 2
#     Edge 41, Type (0, 0), BuildingBlock: XIVTED_clean_linker_0, # of connection points: 2
#     Edge 42, Type (0, 0), BuildingBlock: XIVTED_clean_linker_0, # of connection points: 2
#     Edge 43, Type (0, 0), BuildingBlock: XIVTED_clean_linker_0, # of connection points: 2
#     Edge 44, Type (0, 0), BuildingBlock: XIVTED_clean_linker_0, # of connection points: 2
#     Edge 45, Type (0, 0), BuildingBlock: XIVTED_clean_linker_0, # of connection points: 2
#     Edge 46, Type (0, 0), BuildingBlock: XIVTED_clean_linker_0, # of connection points: 2
#     Edge 47, Type (0, 0), BuildingBlock: XIVTED_clean_linker_0, # of connection points: 2
# Relax obj value: 0.078
# Max RMSD: 0.133
# Mean RMSD: 0.133
data_MOF--net-neb--node1-NAHDIM_clean_sbu_0--edge1-XIVTED_clean_linker_0
_symmetry_space_group_name_H-M    P1
_symmetry_Int_Tables_number       1
_symmetry_cell_setting            triclinic
loop_
_symmetry_equiv_pos_as_xyz
'x, y, z'
_cell_length_a     46.239556
_cell_length_b     22.146896
_cell_length_c     72.559422
_cell_angle_alpha  89.93814
_cell_angle_beta   93.842212
_cell_angle_gamma 89.876324
loop_
_atom_site_label
_atom_site_type_symbol
_atom_site_fract_x
_atom_site_fract_y
_atom_site_fract_z
_atom_type_partial_charge
C0 C 0.07759 0.07817 0.45531 0.0
O1 O 0.10352 0.05391 0.45504 0.0
O2 O 0.13639 0.19168 0.45092 0.0
Zn3 Zn 0.10423 0.16423 0.43292 0.0
O4 O 0.11994 0.10204 0.41592 0.0
C5 C 0.09106 0.28911 0.42337 0.0
O6 O 0.0993 0.29962 0.44075 0.0
O7 O 0.07232 0.12726 0.44662 0.0
C8 C 0.1271 0.11634 0.39986 0.0
O9 O 0.1242 0.17258 0.39427 0.0
C10 C 0.16081 0.2053 0.44503 0.0
O11 O 0.16453 0.2008 0.4273 0.0
O12 O 0.08999 0.23503 0.41757 0.0
C13 C 0.17193 0.07602 0.78786 0.0
O14 O 0.14969 0.04275 0.79183 0.0
O15 O 0.10777 0.19635 0.79095 0.0
Zn16 Zn 0.14104 0.16493 0.80747 0.0
O17 O 0.12622 0.10082 0.82398 0.0
C18 C 0.15822 0.28621 0.81797 0.0
O19 O 0.15318 0.29761 0.80027 0.0
O20 O 0.17287 0.13095 0.79294 0.0
C21 C 0.1122 0.11557 0.83777 0.0
O22 O 0.10743 0.17297 0.841 0.0
C23 C 0.08734 0.16144 0.78525 0.0
O24 O 0.089 0.10376 0.78944 0.0
O25 O 0.15571 0.23251 0.82378 0.0
C26 C 0.92256 0.88873 0.52655 0.0
O27 O 0.89751 0.91627 0.52749 0.0
O28 O 0.85948 0.79498 0.53355 0.0
Zn29 Zn 0.89436 0.81408 0.55071 0.0
O30 O 0.88614 0.8824 0.56784 0.0
C31 C 0.88379 0.70447 0.56925 0.0
O32 O 0.85812 0.71483 0.561 0.0
O33 O 0.92715 0.84015 0.53565 0.0
C34 C 0.86689 0.88162 0.57956 0.0
O35 O 0.84999 0.83428 0.58053 0.0
C36 C 0.83724 0.82844 0.53091 0.0
O37 O 0.83675 0.8816 0.53889 0.0
O38 O 0.90438 0.74075 0.56656 0.0
C39 C 0.82213 0.89148 0.21263 0.0
O40 O 0.84599 0.92153 0.21004 0.0
O41 O 0.88751 0.79278 0.21047 0.0
Zn42 Zn 0.85303 0.80767 0.1926 0.0
O43 O 0.86089 0.87037 0.17355 0.0
C44 C 0.86579 0.69912 0.17483 0.0
O45 O 0.89169 0.71715 0.18098 0.0
O46 O 0.81956 0.83796 0.2064 0.0
C47 C 0.88316 0.87506 0.16429 0.0
O48 O 0.90498 0.83756 0.1674 0.0
C49 C 0.90856 0.82843 0.21424 0.0
O50 O 0.90837 0.88245 0.20675 0.0
O51 O 0.84386 0.73032 0.17868 0.0
C52 C 0.07669 0.57708 0.96022 0.0
O53 O 0.09909 0.54455 0.95601 0.0
O54 O 0.13947 0.69619 0.95515 0.0
Zn55 Zn 0.10548 0.66522 0.93928 0.0
O56 O 0.11957 0.60046 0.92276 0.0
C57 C 0.08861 0.78672 0.92837 0.0
O58 O 0.09514 0.79918 0.94586 0.0
O59 O 0.07466 0.6315 0.95466 0.0
C60 C 0.13303 0.61428 0.90866 0.0
O61 O 0.13758 0.67144 0.90496 0.0
C62 C 0.1599 0.66063 0.96058 0.0
O63 O 0.15784 0.60304 0.95639 0.0
O64 O 0.0901 0.73244 0.9229 0.0
C65 C 0.16932 0.58256 0.27743 0.0
O66 O 0.14448 0.5556 0.27955 0.0
O67 O 0.10998 0.69699 0.28569 0.0
Zn68 Zn 0.14455 0.66677 0.30137 0.0
O69 O 0.13167 0.60303 0.31876 0.0
C70 C 0.16049 0.78924 0.31053 0.0
O71 O 0.15302 0.79883 0.29298 0.0
O72 O 0.17459 0.63254 0.28554 0.0
C73 C 0.11955 0.61843 0.33326 0.0
O74 O 0.11575 0.67603 0.3367 0.0
C75 C 0.08703 0.66577 0.28331 0.0
O76 O 0.08625 0.61156 0.29062 0.0
O77 O 0.1602 0.73571 0.31678 0.0
C78 C 0.92 0.3874 0.02992 0.0
O79 O 0.89729 0.42024 0.03337 0.0
O80 O 0.85291 0.29346 0.03237 0.0
Zn81 Zn 0.88789 0.3061 0.04997 0.0
O82 O 0.88127 0.36964 0.06902 0.0
C83 C 0.87398 0.19849 0.06779 0.0
O84 O 0.84823 0.21853 0.06195 0.0
O85 O 0.92143 0.33321 0.03573 0.0
C86 C 0.85887 0.37679 0.07803 0.0
O87 O 0.8363 0.34162 0.07468 0.0
C88 C 0.83283 0.33119 0.02811 0.0
O89 O 0.83437 0.38605 0.03495 0.0
O90 O 0.89623 0.22822 0.06382 0.0
C91 C 0.82181 0.34924 0.72483 0.0
O92 O 0.84328 0.32552 0.7352 0.0
O93 O 0.89033 0.29421 0.71113 0.0
Zn94 Zn 0.85573 0.31397 0.69389 0.0
O95 O 0.86471 0.37801 0.67546 0.0
C96 C 0.86853 0.22172 0.67066 0.0
O97 O 0.89288 0.2517 0.6736 0.0
O98 O 0.82211 0.34589 0.70735 0.0
C99 C 0.88896 0.39767 0.67074 0.0
O100 O 0.91318 0.37689 0.67889 0.0
C101 C 0.90703 0.33107 0.71998 0.0
O102 O 0.90169 0.38928 0.71881 0.0
O103 O 0.84646 0.23902 0.67882 0.0
C104 C 0.57226 0.09407 0.95617 0.0
O105 O 0.59492 0.06331 0.95145 0.0
O106 O 0.63403 0.2123 0.95238 0.0
Zn107 Zn 0.59969 0.18576 0.9359 0.0
O108 O 0.61347 0.12458 0.91796 0.0
C109 C 0.58873 0.31079 0.92733 0.0
O110 O 0.60161 0.31844 0.94385 0.0
O111 O 0.56937 0.14878 0.95103 0.0
C112 C 0.6249 0.14058 0.90327 0.0
O113 O 0.62707 0.19831 0.89943 0.0
C114 C 0.65572 0.17778 0.95575 0.0
O115 O 0.65521 0.12286 0.94892 0.0
O116 O 0.58406 0.25751 0.9214 0.0
C117 C 0.66281 0.09722 0.2762 0.0
O118 O 0.63878 0.06726 0.27838 0.0
O119 O 0.5975 0.19327 0.27974 0.0
Zn120 Zn 0.63214 0.17736 0.29741 0.0
O121 O 0.62495 0.11137 0.31558 0.0
C122 C 0.619 0.28297 0.31665 0.0
O123 O 0.5931 0.2651 0.31043 0.0
O124 O 0.66564 0.14976 0.28315 0.0
C125 C 0.60361 0.10559 0.3256 0.0
O126 O 0.58217 0.14464 0.32412 0.0
C127 C 0.57648 0.15743 0.27611 0.0
O128 O 0.57682 0.10361 0.28375 0.0
O129 O 0.64099 0.25297 0.31227 0.0
C130 C 0.42588 0.89374 0.03195 0.0
O131 O 0.4054 0.92679 0.03861 0.0
O132 O 0.36063 0.77779 0.03378 0.0
Zn133 Zn 0.39549 0.80165 0.05017 0.0
O134 O 0.3845 0.861 0.06949 0.0
C135 C 0.40573 0.67483 0.05817 0.0
O136 O 0.39526 0.66697 0.04107 0.0
O137 O 0.42644 0.83726 0.03516 0.0
C138 C 0.35886 0.87015 0.07418 0.0
O139 O 0.33706 0.84131 0.06568 0.0
C140 C 0.34396 0.81433 0.02468 0.0
O141 O 0.34951 0.87246 0.02539 0.0
O142 O 0.40938 0.72816 0.06432 0.0
C143 C 0.33518 0.90245 0.72028 0.0
O144 O 0.35678 0.93706 0.716 0.0
O145 O 0.40193 0.80688 0.71041 0.0
Zn146 Zn 0.3638 0.82465 0.69661 0.0
O147 O 0.36719 0.89176 0.67825 0.0
C148 C 0.33958 0.74764 0.66711 0.0
O149 O 0.33052 0.79864 0.65945 0.0
O150 O 0.33361 0.84907 0.71388 0.0
C151 C 0.38605 0.89562 0.66636 0.0
O152 O 0.40616 0.85379 0.66577 0.0
C153 C 0.42244 0.84384 0.71416 0.0
O154 O 0.41919 0.90086 0.70945 0.0
O155 O 0.35272 0.7485 0.68305 0.0
C156 C 0.5737 0.59807 0.46464 0.0
O157 O 0.59751 0.56709 0.46252 0.0
O158 O 0.63878 0.69393 0.45876 0.0
Zn159 Zn 0.60344 0.67606 0.44191 0.0
O160 O 0.61028 0.60978 0.4237 0.0
C161 C 0.61535 0.77977 0.42166 0.0
O162 O 0.64147 0.76063 0.42703 0.0
O163 O 0.57073 0.64961 0.457 0.0
C164 C 0.63244 0.60244 0.41446 0.0
O165 O 0.65466 0.63898 0.41706 0.0
C166 C 0.65973 0.65832 0.46304 0.0
O167 O 0.65887 0.60254 0.45689 0.0
O168 O 0.59356 0.75115 0.42694 0.0
C169 C 0.68505 0.64177 0.77914 0.0
O170 O 0.67011 0.68063 0.76862 0.0
O171 O 0.61803 0.7146 0.79049 0.0
Zn172 Zn 0.65045 0.68727 0.80851 0.0
O173 O 0.63494 0.63544 0.82841 0.0
C174 C 0.66461 0.81331 0.81506 0.0
O175 O 0.65477 0.82038 0.79778 0.0
O176 O 0.68081 0.63891 0.79625 0.0
C177 C 0.60922 0.616 0.82927 0.0
O178 O 0.58951 0.62848 0.81594 0.0
C179 C 0.60422 0.68054 0.77893 0.0
O180 O 0.61132 0.62318 0.77806 0.0
O181 O 0.66671 0.76036 0.82178 0.0
C182 C 0.41219 0.41473 0.5315 0.0
O183 O 0.38726 0.44297 0.5322 0.0
O184 O 0.34817 0.3164 0.53277 0.0
Zn185 Zn 0.38092 0.33253 0.55186 0.0
O186 O 0.36867 0.39708 0.56923 0.0
C187 C 0.36864 0.23597 0.57497 0.0
O188 O 0.34375 0.2648 0.57331 0.0
O189 O 0.41534 0.36331 0.5392 0.0
C190 C 0.37768 0.3981 0.58615 0.0
O191 O 0.39604 0.35655 0.59254 0.0
C192 C 0.3224 0.33308 0.53529 0.0
O193 O 0.31713 0.3622 0.55047 0.0
O194 O 0.38971 0.2561 0.5664 0.0
C195 C 0.31967 0.39107 0.20265 0.0
O196 O 0.34458 0.4179 0.20064 0.0
O197 O 0.3806 0.28109 0.19785 0.0
Zn198 Zn 0.34622 0.30366 0.18072 0.0
O199 O 0.35901 0.36425 0.16227 0.0
C200 C 0.34015 0.17729 0.17247 0.0
O201 O 0.35511 0.17192 0.18843 0.0
O202 O 0.31494 0.33986 0.19517 0.0
C203 C 0.36997 0.34737 0.14751 0.0
O204 O 0.37243 0.28942 0.14409 0.0
C205 C 0.40335 0.31312 0.19975 0.0
O206 O 0.40443 0.36458 0.19081 0.0
O207 O 0.33224 0.22947 0.16683 0.0
H208 H 0.26425 0.3451 0.53904 0.0
H209 H 0.21763 0.22156 0.43801 0.0
H210 H 0.32579 0.28536 0.50068 0.0
H211 H 0.15855 0.23627 0.48142 0.0
H212 H 0.25709 0.25509 0.45967 0.0
H213 H 0.22473 0.31593 0.51685 0.0
C214 C 0.26947 0.32608 0.52592 0.0
C215 C 0.29837 0.31747 0.52173 0.0
C216 C 0.23548 0.25092 0.46444 0.0
C217 C 0.25323 0.2841 0.49628 0.0
C218 C 0.21294 0.23194 0.45209 0.0
C219 C 0.18478 0.22594 0.45795 0.0
C220 C 0.22977 0.26456 0.48274 0.0
C221 C 0.17996 0.23999 0.47634 0.0
C222 C 0.24688 0.30924 0.51329 0.0
C223 C 0.30382 0.29255 0.50452 0.0
N224 N 0.20223 0.25879 0.48808 0.0
N225 N 0.28144 0.2768 0.4924 0.0
H226 H 0.91864 0.99115 0.50558 0.0
H227 H 0.0817 0.97298 0.47523 0.0
H228 H 0.9778 0.84715 0.52234 0.0
H229 H 0.02178 0.11602 0.45881 0.0
H230 H 0.04397 0.92528 0.49222 0.0
H231 H 0.95611 0.0363 0.48798 0.0
C232 C 0.93951 0.96889 0.50554 0.0
C233 C 0.94509 0.91527 0.51549 0.0
C234 C 0.03907 0.96707 0.48488 0.0
C235 C 0.98824 0.96701 0.49533 0.0
C236 C 0.06061 0.99438 0.47518 0.0
C237 C 0.05492 0.04867 0.46559 0.0
C238 C 0.01161 0.99422 0.48501 0.0
C239 C 0.02717 0.07424 0.46601 0.0
C240 C 0.96094 0.99478 0.49547 0.0
C241 C 0.97256 0.88852 0.51488 0.0
N242 N 0.00659 0.04682 0.47557 0.0
N243 N 0.99314 0.91475 0.505 0.0
H244 H 0.33176 0.0153 0.73519 0.0
H245 H 0.17677 0.96024 0.7752 0.0
H246 H 0.28589 0.84583 0.7304 0.0
H247 H 0.22189 0.1308 0.77833 0.0
H248 H 0.21696 0.91665 0.75948 0.0
H249 H 0.29238 0.05711 0.75196 0.0
C250 C 0.31346 0.98673 0.73773 0.0
C251 C 0.31211 0.92697 0.73133 0.0
C252 C 0.21807 0.9636 0.76361 0.0
C253 C 0.2668 0.97478 0.75049 0.0
C254 C 0.1951 0.98859 0.77257 0.0
C255 C 0.19592 0.04933 0.77808 0.0
C256 C 0.24208 -0.00042 0.76013 0.0
C257 C 0.22028 0.0838 0.77432 0.0
C258 C 0.29093 0.01072 0.74729 0.0
C259 C 0.28784 0.89215 0.73506 0.0
N260 N 0.24237 0.05843 0.76558 0.0
N261 N 0.2661 0.91663 0.74436 0.0
H262 H 0.04039 0.0993 0.77039 0.0
H263 H 0.95168 0.39566 0.73729 0.0
H264 H 0.07434 0.27993 0.77733 0.0
H265 H 0.92226 0.21343 0.7264 0.0
H266 H 0.99595 0.35495 0.75316 0.0
H267 H 0.99628 0.14112 0.755 0.0
C268 C 0.03862 0.14777 0.76862 0.0
C269 C 0.06111 0.18614 0.77515 0.0
C270 C 0.97975 0.32397 0.74731 0.0
C271 C 0.01052 0.23447 0.75763 0.0
C272 C 0.95444 0.34717 0.73831 0.0
C273 C 0.93325 0.30793 0.73047 0.0
C274 C 0.98381 0.26112 0.7485 0.0
C275 C 0.93801 0.24547 0.73218 0.0
C276 C 0.01339 0.17166 0.75984 0.0
C277 C 0.05757 0.24863 0.77247 0.0
N278 N 0.96276 0.22408 0.74098 0.0
N279 N 0.03271 0.27087 0.76395 0.0
H280 H 0.78547 0.88617 0.52275 0.0
H281 H 0.71074 0.59888 0.4724 0.0
H282 H 0.82977 0.71718 0.51496 0.0
H283 H 0.66812 0.77108 0.47769 0.0
H284 H 0.75426 0.64056 0.48864 0.0
H285 H 0.74205 0.84436 0.50651 0.0
C286 C 0.78613 0.8404 0.51755 0.0
C287 C 0.8113 0.80516 0.52022 0.0
C288 C 0.73535 0.66916 0.48627 0.0
C289 C 0.76162 0.75683 0.50174 0.0
C290 C 0.71047 0.64532 0.47706 0.0
C291 C 0.68575 0.68152 0.47367 0.0
C292 C 0.73549 0.72961 0.49216 0.0
C293 C 0.68667 0.74146 0.47998 0.0
C294 C 0.7613 0.81649 0.50831 0.0
C295 C 0.81086 0.74606 0.5132 0.0
N296 N 0.71112 0.76361 0.48889 0.0
N297 N 0.7864 0.72372 0.50433 0.0
H298 H 0.71614 0.14405 0.26965 0.0
H299 H 0.76895 0.84477 0.21948 0.0
H300 H 0.6632 0.98509 0.26061 0.0
H301 H 0.82141 0.00488 0.22741 0.0
H302 H 0.73002 0.89532 0.23473 0.0
H303 H 0.75504 0.09395 0.2542 0.0
C304 C 0.71266 0.09872 0.26438 0.0
C305 C 0.68638 0.06873 0.26644 0.0
C306 C 0.75006 0.91938 0.23314 0.0
C307 C 0.73081 0.01104 0.24881 0.0
C308 C 0.77231 0.89048 0.22446 0.0
C309 C 0.79849 0.92061 0.22216 0.0
C310 C 0.754 0.97884 0.23958 0.0
C311 C 0.80161 0.97987 0.22886 0.0
C312 C 0.73489 0.07009 0.25558 0.0
C313 C 0.68309 0.00998 0.25935 0.0
N314 N 0.77964 0.00702 0.23726 0.0
N315 N 0.70504 0.98308 0.25089 0.0
H316 H 0.91518 0.71995 0.23196 0.0
H317 H 0.08041 0.77775 0.26738 0.0
H318 H 0.96023 0.88657 0.22247 0.0
H319 H 0.03427 0.61208 0.2763 0.0
H320 H 0.03662 0.81949 0.25136 0.0
H321 H 0.95841 0.68135 0.24906 0.0
C322 C 0.93413 0.74863 0.23355 0.0
C323 C 0.93409 0.80659 0.22571 0.0
C324 C 0.0361 0.77401 0.25683 0.0
C325 C 0.98388 0.76231 0.24523 0.0
C326 C 0.06111 0.75008 0.26593 0.0
C327 C 0.06102 0.69124 0.27317 0.0
C328 C 0.01083 0.73887 0.25494 0.0
C329 C 0.03537 0.65757 0.27093 0.0
C330 C 0.95887 0.72644 0.2433 0.0
C331 C 0.9593 0.84163 0.22827 0.0
N332 N 0.01134 0.68188 0.26202 0.0
N333 N 0.98324 0.81883 0.23776 0.0
H334 H 0.3279 0.69683 0.01901 0.0
H335 H 0.1736 0.77852 0.96856 0.0
H336 H 0.29935 0.87966 0.00758 0.0
H337 H 0.20681 0.59678 0.97496 0.0
H338 H 0.21862 0.81664 0.98384 0.0
H339 H 0.28298 0.65962 0.00363 0.0
C340 C 0.31222 0.72921 0.01321 0.0
C341 C 0.31739 0.79151 0.0146 0.0
C342 C 0.21603 0.76843 0.98191 0.0
C343 C 0.26575 0.74908 -0.00297 0.0
C344 C 0.1903 0.7466 0.97325 0.0
C345 C 0.18644 0.68433 0.97047 0.0
C346 C 0.23802 0.72771 0.98789 0.0
C347 C 0.20884 0.64512 0.97679 0.0
C348 C 0.28654 0.70788 0.00442 0.0
C349 C 0.29628 0.83127 0.00679 0.0
N350 N 0.23365 0.66748 0.9852 0.0
N351 N 0.27132 0.80937 -0.00161 0.0
H352 H 0.02699 0.63054 0.97087 0.0
H353 H 0.97036 0.33349 0.02025 0.0
H354 H 0.07415 0.46194 0.97378 0.0
H355 H 0.92321 0.50201 0.01635 0.0
H356 H 0.00891 0.37961 0.00351 0.0
H357 H 0.98904 0.5842 0.98793 0.0
C358 C 0.0294 0.5838 0.97512 0.0
C359 C 0.05379 0.55007 0.97087 0.0
C360 C 0.99011 0.40645 0.00632 0.0
C361 C 0.01036 0.49663 0.99039 0.0
C362 C 0.9681 0.38013 0.01587 0.0
C363 C 0.94351 0.41392 0.0197 0.0
C364 C 0.98752 0.46698 0.00058 0.0
C365 C 0.94174 0.47419 0.0137 0.0
C366 C 0.0077 0.55732 0.98485 0.0
C367 C 0.05573 0.48967 0.97674 0.0
N368 N 0.96343 0.49873 0.00446 0.0
N369 N 0.03429 0.46487 0.98618 0.0
H370 H 0.32318 0.49981 0.22051 0.0
H371 H 0.16506 0.47555 0.25863 0.0
H372 H 0.26573 0.34878 0.2095 0.0
H373 H 0.22301 0.62541 0.27024 0.0
H374 H 0.20138 0.42912 0.24022 0.0
H375 H 0.2865 0.54709 0.23844 0.0
C376 C 0.30285 0.47655 0.22185 0.0
C377 C 0.29754 0.42018 0.21349 0.0
C378 C 0.20616 0.47218 0.24677 0.0
C379 C 0.2554 0.47416 0.23403 0.0
C380 C 0.18541 0.49877 0.25729 0.0
C381 C 0.191 0.55446 0.26602 0.0
C382 C 0.23273 0.50144 0.24494 0.0
C383 C 0.21776 0.58242 0.26378 0.0
C384 C 0.28189 0.50362 0.2321 0.0
C385 C 0.27077 0.39224 0.21571 0.0
N386 N 0.23763 0.55558 0.25347 0.0
N387 N 0.25071 0.41951 0.22577 0.0
H388 H 0.70595 0.11646 0.9651 0.0
H389 H 0.78356 0.39593 0.01795 0.0
H390 H 0.66498 0.29024 0.97077 0.0
H391 H 0.82316 0.22078 0.01218 0.0
H392 H 0.74023 0.35937 0.00018 0.0
H393 H 0.74929 0.1549 0.98213 0.0
C394 C 0.70603 0.16268 0.96997 0.0
C395 C 0.68177 0.20014 0.96652 0.0
C396 C 0.75846 0.32906 0.00277 0.0
C397 C 0.73145 0.24463 0.98599 0.0
C398 C 0.78322 0.34995 0.01287 0.0
C399 C 0.80702 0.31136 0.01659 0.0
C400 C 0.75752 0.26919 -0.00364 0.0
C401 C 0.80535 0.25217 0.00969 0.0
C402 C 0.73083 0.18468 0.97967 0.0
C403 C 0.68317 0.25972 0.97314 0.0
N404 N 0.78103 0.23293 -4e-05 0.0
N405 N 0.7076 0.28014 0.98255 0.0
H406 H 0.69446 0.62539 0.74259 0.0
H407 H 0.81452 0.36782 0.76161 0.0
H408 H 0.72114 0.55927 0.79711 0.0
H409 H 0.77883 0.41723 0.70715 0.0
H410 H 0.7808 0.43797 0.77497 0.0
H411 H 0.72627 0.55106 0.72941 0.0
C412 C 0.70709 0.59544 0.75181 0.0
C413 C 0.70513 0.59868 0.771 0.0
C414 C 0.78023 0.43316 0.7601 0.0
C415 C 0.74153 0.51318 0.75598 0.0
C416 C 0.79944 0.39298 0.75245 0.0
C417 C 0.79961 0.38672 0.73321 0.0
C418 C 0.76117 0.46767 0.74842 0.0
C419 C 0.77954 0.42056 0.72205 0.0
C420 C 0.72515 0.55278 0.74426 0.0
C421 C 0.72195 0.55845 0.78224 0.0
N422 N 0.7613 0.45983 0.72981 0.0
N423 N 0.73946 0.51747 0.77457 0.0
H424 H 0.52391 0.14539 0.96957 0.0
H425 H 0.47244 0.8403 0.01689 0.0
H426 H 0.5709 0.97695 0.96816 0.0
H427 H 0.42915 0.01203 0.02151 0.0
H428 H 0.50812 0.88883 -0.00161 0.0
H429 H 0.48829 0.09655 0.98799 0.0
C430 C 0.52674 0.09813 0.97312 0.0
C431 C 0.55045 0.06523 0.96731 0.0
C432 C 0.49082 0.91589 0.00347 0.0
C433 C 0.50971 0.00899 0.9884 0.0
C434 C 0.47043 0.88819 0.01403 0.0
C435 C 0.44776 0.92214 0.02078 0.0
C436 C 0.4885 0.97796 -0.00041 0.0
C437 C 0.44626 0.98405 0.01662 0.0
C438 C 0.5064 0.07027 0.98366 0.0
C439 C 0.55299 0.00411 0.97234 0.0
N440 N 0.46631 0.00991 0.00629 0.0
N441 N 0.53287 0.97797 0.98258 0.0
H442 H 0.4553 0.37011 0.20713 0.0
H443 H 0.52577 0.09687 0.2672 0.0
H444 H 0.40961 0.20562 0.21831 0.0
H445 H 0.56938 0.26549 0.25813 0.0
H446 H 0.48344 0.13444 0.24859 0.0
H447 H 0.49768 0.33142 0.22531 0.0
C448 C 0.45414 0.32592 0.21345 0.0
C449 C 0.42885 0.2911 0.21121 0.0
C450 C 0.50231 0.16314 0.25065 0.0
C451 C 0.47736 0.24635 0.23198 0.0
C452 C 0.52651 0.14165 0.26123 0.0
C453 C 0.55115 0.17809 0.26425 0.0
C454 C 0.50278 0.22144 0.24302 0.0
C455 C 0.55086 0.2358 0.2562 0.0
C456 C 0.47837 0.3038 0.22381 0.0
C457 C 0.42863 0.2341 0.2197 0.0
N458 N 0.52706 0.25567 0.24599 0.0
N459 N 0.45253 0.21347 0.22969 0.0
H460 H 0.4694 0.90986 0.72768 0.0
H461 H 0.56373 0.61763 0.75744 0.0
H462 H 0.43859 0.72678 0.72086 0.0
H463 H 0.58689 0.79833 0.77506 0.0
H464 H 0.5202 0.65804 0.7408 0.0
H465 H 0.51496 0.87076 0.74229 0.0
C466 C 0.4722 0.86152 0.72924 0.0
C467 C 0.4501 0.82158 0.72311 0.0
C468 C 0.53487 0.68886 0.74827 0.0
C469 C 0.50215 0.77661 0.73965 0.0
C470 C 0.55978 0.66583 0.75771 0.0
C471 C 0.57888 0.7046 0.76774 0.0
C472 C 0.5291 0.75114 0.74877 0.0
C473 C 0.57265 0.76672 0.7676 0.0
C474 C 0.49818 0.83925 0.73758 0.0
C475 C 0.45494 0.75933 0.72547 0.0
N476 N 0.54827 0.78806 0.75829 0.0
N477 N 0.48043 0.73881 0.73352 0.0
H478 H 0.41226 0.52451 0.51423 0.0
H479 H 0.57406 0.48983 0.48276 0.0
H480 H 0.46652 0.36916 0.52706 0.0
H481 H 0.52041 0.64655 0.4706 0.0
H482 H 0.53514 0.44567 0.49939 0.0
H483 H 0.45173 0.57035 0.49848 0.0
C484 C 0.43248 0.49998 0.51375 0.0
C485 C 0.43606 0.44281 0.52197 0.0
C486 C 0.53187 0.48976 0.49313 0.0
C487 C 0.48141 0.49519 0.50393 0.0
C488 C 0.55411 0.51508 0.48362 0.0
C489 C 0.55048 0.57199 0.47523 0.0
C490 C 0.50573 0.52146 0.49426 0.0
C491 C 0.52415 0.60256 0.47684 0.0
C492 C 0.45503 0.52627 0.50475 0.0
C493 C 0.46278 0.41327 0.52091 0.0
N494 N 0.50276 0.57684 0.48613 0.0
N495 N 0.48441 0.43978 0.51203 0.0
H496 H 0.15791 0.9104 0.30272 0.0
H497 H 0.1403 -0.00181 0.40779 0.0
H498 H 0.16998 0.78458 0.34811 0.0
H499 H 0.13822 0.12881 0.36349 0.0
H500 H 0.155 0.9208 0.38637 0.0
H501 H 0.15518 0.99277 0.32492 0.0
C502 C 0.16043 0.90017 0.31734 0.0
C503 C 0.16377 0.84039 0.32356 0.0
C504 C 0.15157 0.96649 0.38136 0.0
C505 C 0.16031 0.93428 0.34902 0.0
C506 C 0.14307 0.01067 0.39357 0.0
C507 C 0.13772 0.0699 0.38737 0.0
C508 C 0.15449 0.98149 0.36275 0.0
C509 C 0.14192 0.08361 0.36884 0.0
C510 C 0.1588 0.94722 0.33002 0.0
C511 C 0.16708 0.82988 0.34267 0.0
N512 N 0.14978 0.03959 0.35714 0.0
N513 N 0.16489 0.87625 0.35472 0.0
H514 H 0.08115 0.2817 0.38587 0.0
H515 H 0.10358 0.63457 0.36859 0.0
H516 H 0.09445 0.41091 0.43016 0.0
H517 H 0.11479 0.49679 0.32762 0.0
H518 H 0.09104 0.55608 0.39046 0.0
H519 H 0.08346 0.36361 0.36356 0.0
C520 C 0.08417 0.3274 0.39094 0.0
C521 C 0.08799 0.33935 0.40994 0.0
C522 C 0.09609 0.54319 0.37665 0.0
C523 C 0.09079 0.43329 0.38439 0.0
C524 C 0.1032 0.58789 0.36415 0.0
C525 C 0.1105 0.57208 0.34632 0.0
C526 C 0.09598 0.48241 0.37118 0.0
C527 C 0.10961 0.51094 0.34129 0.0
C528 C 0.08562 0.3741 0.37816 0.0
C529 C 0.09166 0.39957 0.41564 0.0
N530 N 0.10254 0.46833 0.35367 0.0
N531 N 0.0932 0.44432 0.4029 0.0
H532 H 0.16111 0.4079 0.81107 0.0
H533 H 0.13574 0.49292 0.91513 0.0
H534 H 0.16356 0.27811 0.85561 0.0
H535 H 0.15131 0.62696 0.87372 0.0
H536 H 0.14789 0.41392 0.89357 0.0
H537 H 0.16015 0.48939 0.83377 0.0
C538 C 0.16185 0.39653 0.82561 0.0
C539 C 0.16204 0.33607 0.83143 0.0
C540 C 0.14892 0.46061 0.88922 0.0
C541 C 0.16063 0.42891 0.85741 0.0
C542 C 0.14186 0.50574 0.90151 0.0
C543 C 0.14226 0.56654 0.89614 0.0
C544 C 0.15608 0.47627 0.87133 0.0
C545 C 0.15062 0.58058 0.87839 0.0
C546 C 0.16128 0.44308 0.83856 0.0
C547 C 0.16314 0.32402 0.85046 0.0
N548 N 0.15689 0.53569 0.86652 0.0
N549 N 0.16203 0.36998 0.86274 0.0
H550 H 0.08102 0.77626 0.89083 0.0
H551 H 0.09268 0.13097 0.87228 0.0
H552 H 0.08681 0.90894 0.93449 0.0
H553 H 0.11031 0.99356 0.83236 0.0
H554 H 0.08071 0.05175 0.89406 0.0
H555 H 0.08127 0.85748 0.86814 0.0
C556 C 0.08195 0.82252 0.89567 0.0
C557 C 0.08431 0.83577 0.91463 0.0
C558 C 0.087 0.03908 0.88048 0.0
C559 C 0.08475 0.92895 0.88866 0.0
C560 C 0.09377 0.0842 0.86803 0.0
C561 C 0.1028 0.06875 0.85056 0.0
C562 C 0.089 0.97822 0.87532 0.0
C563 C 0.10376 0.00747 0.84577 0.0
C564 C 0.08221 0.86885 0.88268 0.0
C565 C 0.08526 0.89662 0.92003 0.0
N566 N 0.09705 0.96445 0.85811 0.0
N567 N 0.08573 0.94103 0.9071 0.0
H568 H 0.91032 0.18698 0.64834 0.0
H569 H 0.82698 0.89938 0.60554 0.0
H570 H 0.82389 0.14116 0.66265 0.0
H571 H 0.90219 0.97986 0.58329 0.0
H572 H 0.82597 0.98254 0.62785 0.0
H573 H 0.90857 0.10532 0.62607 0.0
C574 C 0.89091 0.15962 0.64684 0.0
C575 C 0.86718 0.17103 0.65739 0.0
C576 C 0.84256 0.98196 0.618 0.0
C577 C 0.86505 0.07688 0.63171 0.0
C578 C 0.84319 0.93456 0.60529 0.0
C579 C 0.86478 0.93253 0.59257 0.0
C580 C 0.86384 0.02711 0.61805 0.0
C581 C 0.88517 0.97936 0.59283 0.0
C582 C 0.8899 0.11301 0.63401 0.0
C583 C 0.84265 0.13395 0.65476 0.0
N584 N 0.88427 0.0244 0.60542 0.0
N585 N 0.84223 0.08825 0.64218 0.0
H586 H 0.84328 0.43488 0.6479 0.0
H587 H 0.93165 0.67592 0.59238 0.0
H588 H 0.93554 0.45958 0.65838 0.0
H589 H 0.84389 0.61997 0.57714 0.0
H590 H 0.93447 0.59855 0.61672 0.0
H591 H 0.84372 0.50557 0.62237 0.0
C592 C 0.8637 0.4553 0.64486 0.0
C593 C 0.88942 0.44135 0.65535 0.0
C594 C 0.91472 0.60307 0.60792 0.0
C595 C 0.89007 0.52276 0.62592 0.0
C596 C 0.91311 0.64707 0.59402 0.0
C597 C 0.88741 0.65475 0.58281 0.0
C598 C 0.89041 0.56696 0.6106 0.0
C599 C 0.86407 0.61614 0.58552 0.0
C600 C 0.86395 0.49557 0.63018 0.0
C601 C 0.91521 0.46911 0.65064 0.0
N602 N 0.86608 0.57433 0.59919 0.0
N603 N 0.91488 0.50882 0.63629 0.0
H604 H 0.9051 0.4413 0.09237 0.0
H605 H 0.81609 0.64969 0.15799 0.0
H606 H 0.81326 0.41727 0.09723 0.0
H607 H 0.90924 0.63008 0.16257 0.0
H608 H 0.81336 0.56854 0.13488 0.0
H609 H 0.90584 0.51618 0.11685 0.0
C610 C 0.88502 0.45187 0.09857 0.0
C611 C 0.85906 0.42296 0.09272 0.0
C612 C 0.83432 0.58186 0.14109 0.0
C613 C 0.85979 0.50902 0.12089 0.0
C614 C 0.8359 0.62808 0.15427 0.0
C615 C 0.86295 0.64699 0.16214 0.0
C616 C 0.85998 0.55505 0.13569 0.0
C617 C 0.88791 0.61736 0.15683 0.0
C618 C 0.8855 0.49449 0.11264 0.0
C619 C 0.83376 0.43845 0.10134 0.0
N620 N 0.88582 0.57332 0.14386 0.0
N621 N 0.83471 0.48075 0.11497 0.0
H622 H 0.92908 0.91159 0.14476 0.0
H623 H 0.82999 0.13001 0.07946 0.0
H624 H 0.83773 0.94233 0.14995 0.0
H625 H 0.92324 0.14647 0.08453 0.0
H626 H 0.83315 0.04875 0.10202 0.0
H627 H 0.92799 0.98714 0.11987 0.0
C628 C 0.90885 0.93414 0.14068 0.0
C629 C 0.88348 0.9208 0.14948 0.0
C630 C 0.85297 0.06997 0.09819 0.0
C631 C 0.88205 0.00619 0.12103 0.0
C632 C 0.8512 0.11632 0.08523 0.0
C633 C 0.87638 0.14556 0.08022 0.0
C634 C 0.88011 0.0523 0.10622 0.0
C635 C 0.90327 0.12536 0.0881 0.0
C636 C 0.90827 0.97717 0.12652 0.0
C637 C 0.85786 0.95131 0.14365 0.0
N638 N 0.90445 0.07999 0.10081 0.0
N639 N 0.85781 0.99232 0.12978 0.0
H640 H 0.65739 0.93343 0.80646 0.0
H641 H 0.635 0.02112 0.91045 0.0
H642 H 0.67662 0.8128 0.85247 0.0
H643 H 0.63927 0.15519 0.8675 0.0
H644 H 0.65093 0.94459 0.88918 0.0
H645 H 0.65243 0.01647 0.82826 0.0
C646 C 0.66106 0.92456 0.82111 0.0
C647 C 0.66702 0.86584 0.82764 0.0
C648 C 0.64863 0.99082 0.88443 0.0
C649 C 0.66094 0.96034 0.85262 0.0
C650 C 0.63935 0.03448 0.89654 0.0
C651 C 0.63558 0.0945 0.89068 0.0
C652 C 0.65379 0.00702 0.86622 0.0
C653 C 0.64182 0.10936 0.87255 0.0
C654 C 0.65817 0.97198 0.83355 0.0
C655 C 0.6717 0.85713 0.84678 0.0
N656 N 0.65032 0.06574 0.86088 0.0
N657 N 0.66813 0.90364 0.85859 0.0
H658 H 0.55893 0.3137 0.89339 0.0
H659 H 0.63842 0.60828 0.86308 0.0
H660 H 0.60983 0.42532 0.93197 0.0
H661 H 0.56362 0.53798 0.83142 0.0
H662 H 0.62822 0.54087 0.88845 0.0
H663 H 0.55945 0.39485 0.8705 0.0
C664 C 0.56983 0.35559 0.89715 0.0
C665 C 0.58465 0.36251 0.91454 0.0
C666 C 0.61383 0.5406 0.87604 0.0
C667 C 0.58568 0.4549 0.88837 0.0
C668 C 0.61975 0.57879 0.86151 0.0
C669 C 0.60197 0.57826 0.84507 0.0
C670 C 0.59029 0.50073 0.87401 0.0
C671 C 0.57791 0.53963 0.84385 0.0
C672 C 0.57009 0.40187 0.88408 0.0
C673 C 0.59827 0.41785 0.9187 0.0
N674 N 0.57298 0.50168 0.85805 0.0
N675 N 0.59887 0.46156 0.90559 0.0
H676 H 0.57546 0.34775 0.33062 0.0
H677 H 0.67729 0.56449 0.39421 0.0
H678 H 0.66881 0.33356 0.33293 0.0
H679 H 0.58666 0.53343 0.40169 0.0
H680 H 0.67504 0.48847 0.36954 0.0
H681 H 0.57959 0.42617 0.35404 0.0
C682 C 0.59689 0.36134 0.33598 0.0
C683 C 0.62184 0.3337 0.32987 0.0
C684 C 0.65573 0.49834 0.37666 0.0
C685 C 0.62668 0.42373 0.35685 0.0
C686 C 0.65698 0.54166 0.39071 0.0
C687 C 0.63213 0.55532 0.40004 0.0
C688 C 0.62937 0.46922 0.37181 0.0
C689 C 0.60639 0.52435 0.39495 0.0
C690 C 0.59921 0.40603 0.34944 0.0
C691 C 0.64901 0.35351 0.33731 0.0
N692 N 0.60567 0.48307 0.38114 0.0
N693 N 0.65073 0.39739 0.35047 0.0
H694 H 0.56504 0.83541 0.40779 0.0
H695 H 0.64815 0.0288 0.33522 0.0
H696 H 0.65808 0.8395 0.40531 0.0
H697 H 0.56046 0.07146 0.34783 0.0
H698 H 0.65 0.95124 0.35895 0.0
H699 H 0.56094 0.91578 0.38434 0.0
C700 C 0.58456 0.85334 0.40241 0.0
C701 C 0.61194 0.83056 0.40847 0.0
C702 C 0.63033 0.97754 0.35658 0.0
C703 C 0.60736 0.92145 0.38165 0.0
C704 C 0.62919 0.02174 0.34294 0.0
C705 C 0.60412 0.05688 0.33956 0.0
C706 C 0.60616 0.96777 0.3669 0.0
C707 C 0.58026 0.04552 0.35005 0.0
C708 C 0.58219 0.89912 0.38906 0.0
C709 C 0.63651 0.85545 0.40106 0.0
N710 N 0.58182 0.00173 0.36327 0.0
N711 N 0.6336 0.89916 0.38799 0.0
H712 H 0.30504 0.16638 0.14066 0.0
H713 H 0.39754 0.90264 0.10231 0.0
H714 H 0.36983 0.07074 0.17504 0.0
H715 H 0.30903 0.93068 0.08119 0.0
H716 H 0.38946 0.97144 0.12775 0.0
H717 H 0.30685 0.08612 0.11749 0.0
C718 C 0.31931 0.12813 0.14345 0.0
C719 C 0.33747 0.1254 0.15973 0.0
C720 C 0.37175 0.96221 0.11761 0.0
C721 C 0.34002 0.03465 0.13323 0.0
C722 C 0.3764 0.92339 0.10303 0.0
C723 C 0.35393 0.91124 0.08962 0.0
C724 C 0.34464 0.99012 0.11859 0.0
C725 C 0.32689 0.93891 0.09129 0.0
C726 C 0.3203 0.08245 0.13025 0.0
C727 C 0.3555 0.07479 0.16268 0.0
N728 N 0.32306 0.97779 0.10542 0.0
N729 N 0.35668 0.0319 0.14941 0.0
H730 H 0.38309 0.32983 0.11164 0.0
H731 H 0.41927 0.67791 0.09543 0.0
H732 H 0.37918 0.46778 0.15339 0.0
H733 H 0.39673 0.55455 0.05072 0.0
H734 H 0.41497 0.5955 0.11737 0.0
H735 H 0.39742 0.40676 0.08973 0.0
C736 C 0.38542 0.37619 0.11623 0.0
C737 C 0.37968 0.39259 0.13431 0.0
C738 C 0.41123 0.58636 0.10275 0.0
C739 C 0.39632 0.48034 0.10944 0.0
C740 C 0.41383 0.63331 0.09018 0.0
C741 C 0.40796 0.62333 0.07119 0.0
C742 C 0.40284 0.52887 0.09632 0.0
C743 C 0.40117 0.56442 0.06524 0.0
C744 C 0.39355 0.41998 0.10372 0.0
C745 C 0.38308 0.45326 0.13953 0.0
N746 N 0.39856 0.51942 0.07778 0.0
N747 N 0.39116 0.49492 0.12715 0.0
H748 H 0.35811 0.63549 0.67851 0.0
H749 H 0.3427 0.49494 0.57691 0.0
H750 H 0.31992 0.73101 0.63096 0.0
H751 H 0.39003 0.41027 0.62337 0.0
H752 H 0.32835 0.57592 0.59726 0.0
H753 H 0.36341 0.54639 0.65933 0.0
C754 C 0.35051 0.63756 0.66408 0.0
C755 C 0.33888 0.69112 0.65628 0.0
C756 C 0.34176 0.53947 0.60301 0.0
C757 C 0.34514 0.58923 0.6342 0.0
C758 C 0.34999 0.49322 0.59141 0.0
C759 C 0.36785 0.44606 0.59842 0.0
C760 C 0.35139 0.53848 0.62178 0.0
C761 C 0.37647 0.446 0.61733 0.0
C762 C 0.35364 0.58665 0.65312 0.0
C763 C 0.32921 0.69088 0.63753 0.0
N764 N 0.36826 0.49165 0.62833 0.0
N765 N 0.33281 0.64088 0.62707 0.0
H766 H 0.41657 0.16313 0.58184 0.0
H767 H 0.3435 0.98059 0.66163 0.0
H768 H 0.3287 0.18972 0.59696 0.0
H769 H 0.42431 0.92486 0.64026 0.0
H770 H 0.33977 0.06177 0.63905 0.0
H771 H 0.42165 0.07909 0.60394 0.0
C772 C 0.39835 0.15121 0.58974 0.0
C773 C 0.37219 0.18359 0.58757 0.0
C774 C 0.35834 0.03184 0.63924 0.0
C775 C 0.37792 0.08816 0.61287 0.0
C776 C 0.36055 0.98548 0.6522 0.0
C777 C 0.38426 0.94574 0.65285 0.0
C778 C 0.38007 0.03908 0.62681 0.0
C779 C 0.40563 0.95442 0.64023 0.0
C780 C 0.40126 0.1033 0.60232 0.0
C781 C 0.34929 0.16621 0.59815 0.0
N782 N 0.40307 0.00031 0.62771 0.0
N783 N 0.35275 0.11996 0.61035 0.0
loop_
_geom_bond_atom_site_label_1
_geom_bond_atom_site_label_2
_geom_bond_distance
_geom_bond_site_symmetry_2
_ccdc_geom_bond_type
C0 O1 1.160 . S
C0 O7 1.185 . S
O1 C0 1.160 . S
O2 Zn3 1.899 . S
O2 C10 1.284 . S
Zn3 O2 1.899 . S
Zn3 O4 2.032 . S
Zn3 O7 2.086 . S
Zn3 O12 1.977 . S
O4 Zn3 2.032 . S
O4 C8 1.278 . S
C5 O6 1.203 . S
C5 O12 1.267 . S
O6 C5 1.203 . S
O7 C0 1.185 . S
O7 Zn3 2.086 . S
C8 O4 1.278 . S
C8 O9 1.211 . S
O9 C8 1.211 . S
C10 O2 1.284 . S
C10 O11 1.273 . S
O11 C10 1.273 . S
O12 Zn3 1.977 . S
O12 C5 1.267 . S
C13 O14 1.160 . S
C13 O20 1.185 . S
O14 C13 1.160 . S
O15 Zn16 1.899 . S
O15 C23 1.284 . S
Zn16 O15 1.899 . S
Zn16 O17 2.032 . S
Zn16 O20 2.086 . S
Zn16 O25 1.977 . S
O17 Zn16 2.032 . S
O17 C21 1.278 . S
C18 O19 1.203 . S
C18 O25 1.267 . S
O19 C18 1.203 . S
O20 C13 1.185 . S
O20 Zn16 2.086 . S
C21 O17 1.278 . S
C21 O22 1.211 . S
O22 C21 1.211 . S
C23 O15 1.284 . S
C23 O24 1.273 . S
O24 C23 1.273 . S
O25 Zn16 1.977 . S
O25 C18 1.267 . S
C26 O27 1.160 . S
C26 O33 1.185 . S
O27 C26 1.160 . S
O28 Zn29 1.899 . S
O28 C36 1.284 . S
Zn29 O28 1.899 . S
Zn29 O30 2.032 . S
Zn29 O33 2.086 . S
Zn29 O38 1.977 . S
O30 Zn29 2.032 . S
O30 C34 1.278 . S
C31 O32 1.203 . S
C31 O38 1.267 . S
O32 C31 1.203 . S
O33 C26 1.185 . S
O33 Zn29 2.086 . S
C34 O30 1.278 . S
C34 O35 1.211 . S
O35 C34 1.211 . S
C36 O28 1.284 . S
C36 O37 1.273 . S
O37 C36 1.273 . S
O38 Zn29 1.977 . S
O38 C31 1.267 . S
C39 O40 1.160 . S
C39 O46 1.185 . S
O40 C39 1.160 . S
O41 Zn42 1.899 . S
O41 C49 1.284 . S
Zn42 O41 1.899 . S
Zn42 O43 2.032 . S
Zn42 O46 2.086 . S
Zn42 O51 1.977 . S
O43 Zn42 2.032 . S
O43 C47 1.278 . S
C44 O45 1.203 . S
C44 O51 1.267 . S
O45 C44 1.203 . S
O46 C39 1.185 . S
O46 Zn42 2.086 . S
C47 O43 1.278 . S
C47 O48 1.211 . S
O48 C47 1.211 . S
C49 O41 1.284 . S
C49 O50 1.273 . S
O50 C49 1.273 . S
O51 Zn42 1.977 . S
O51 C44 1.267 . S
C52 O53 1.160 . S
C52 O59 1.185 . S
O53 C52 1.160 . S
O54 Zn55 1.899 . S
O54 C62 1.284 . S
Zn55 O54 1.899 . S
Zn55 O56 2.032 . S
Zn55 O59 2.086 . S
Zn55 O64 1.977 . S
O56 Zn55 2.032 . S
O56 C60 1.278 . S
C57 O58 1.203 . S
C57 O64 1.267 . S
O58 C57 1.203 . S
O59 C52 1.185 . S
O59 Zn55 2.086 . S
C60 O56 1.278 . S
C60 O61 1.211 . S
O61 C60 1.211 . S
C62 O54 1.284 . S
C62 O63 1.273 . S
O63 C62 1.273 . S
O64 Zn55 1.977 . S
O64 C57 1.267 . S
C65 O66 1.160 . S
C65 O72 1.185 . S
O66 C65 1.160 . S
O67 Zn68 1.899 . S
O67 C75 1.284 . S
Zn68 O67 1.899 . S
Zn68 O69 2.032 . S
Zn68 O72 2.086 . S
Zn68 O77 1.977 . S
O69 Zn68 2.032 . S
O69 C73 1.278 . S
C70 O71 1.203 . S
C70 O77 1.267 . S
O71 C70 1.203 . S
O72 C65 1.185 . S
O72 Zn68 2.086 . S
C73 O69 1.278 . S
C73 O74 1.211 . S
O74 C73 1.211 . S
C75 O67 1.284 . S
C75 O76 1.273 . S
O76 C75 1.273 . S
O77 Zn68 1.977 . S
O77 C70 1.267 . S
C78 O79 1.160 . S
C78 O85 1.185 . S
O79 C78 1.160 . S
O80 Zn81 1.899 . S
O80 C88 1.284 . S
Zn81 O80 1.899 . S
Zn81 O82 2.032 . S
Zn81 O85 2.086 . S
Zn81 O90 1.977 . S
O82 Zn81 2.032 . S
O82 C86 1.278 . S
C83 O84 1.203 . S
C83 O90 1.267 . S
O84 C83 1.203 . S
O85 C78 1.185 . S
O85 Zn81 2.086 . S
C86 O82 1.278 . S
C86 O87 1.211 . S
O87 C86 1.211 . S
C88 O80 1.284 . S
C88 O89 1.273 . S
O89 C88 1.273 . S
O90 Zn81 1.977 . S
O90 C83 1.267 . S
C91 O92 1.160 . S
C91 O98 1.185 . S
O92 C91 1.160 . S
O93 Zn94 1.899 . S
O93 C101 1.284 . S
Zn94 O93 1.899 . S
Zn94 O95 2.032 . S
Zn94 O98 2.086 . S
Zn94 O103 1.977 . S
O95 Zn94 2.032 . S
O95 C99 1.278 . S
C96 O97 1.203 . S
C96 O103 1.267 . S
O97 C96 1.203 . S
O98 C91 1.185 . S
O98 Zn94 2.086 . S
C99 O95 1.278 . S
C99 O100 1.211 . S
O100 C99 1.211 . S
C101 O93 1.284 . S
C101 O102 1.273 . S
O102 C101 1.273 . S
O103 Zn94 1.977 . S
O103 C96 1.267 . S
C104 O105 1.160 . S
C104 O111 1.185 . S
O105 C104 1.160 . S
O106 Zn107 1.899 . S
O106 C114 1.284 . S
Zn107 O106 1.899 . S
Zn107 O108 2.032 . S
Zn107 O111 2.086 . S
Zn107 O116 1.977 . S
O108 Zn107 2.032 . S
O108 C112 1.278 . S
C109 O110 1.203 . S
C109 O116 1.267 . S
O110 C109 1.203 . S
O111 C104 1.185 . S
O111 Zn107 2.086 . S
C112 O108 1.278 . S
C112 O113 1.211 . S
O113 C112 1.211 . S
C114 O106 1.284 . S
C114 O115 1.273 . S
O115 C114 1.273 . S
O116 Zn107 1.977 . S
O116 C109 1.267 . S
C117 O118 1.160 . S
C117 O124 1.185 . S
O118 C117 1.160 . S
O119 Zn120 1.899 . S
O119 C127 1.284 . S
Zn120 O119 1.899 . S
Zn120 O121 2.032 . S
Zn120 O124 2.086 . S
Zn120 O129 1.977 . S
O121 Zn120 2.032 . S
O121 C125 1.278 . S
C122 O123 1.203 . S
C122 O129 1.267 . S
O123 C122 1.203 . S
O124 C117 1.185 . S
O124 Zn120 2.086 . S
C125 O121 1.278 . S
C125 O126 1.211 . S
O126 C125 1.211 . S
C127 O119 1.284 . S
C127 O128 1.273 . S
O128 C127 1.273 . S
O129 Zn120 1.977 . S
O129 C122 1.267 . S
C130 O131 1.160 . S
C130 O137 1.185 . S
O131 C130 1.160 . S
O132 Zn133 1.899 . S
O132 C140 1.284 . S
Zn133 O132 1.899 . S
Zn133 O134 2.032 . S
Zn133 O137 2.086 . S
Zn133 O142 1.977 . S
O134 Zn133 2.032 . S
O134 C138 1.278 . S
C135 O136 1.203 . S
C135 O142 1.267 . S
O136 C135 1.203 . S
O137 C130 1.185 . S
O137 Zn133 2.086 . S
C138 O134 1.278 . S
C138 O139 1.211 . S
O139 C138 1.211 . S
C140 O132 1.284 . S
C140 O141 1.273 . S
O141 C140 1.273 . S
O142 Zn133 1.977 . S
O142 C135 1.267 . S
C143 O144 1.160 . S
C143 O150 1.185 . S
O144 C143 1.160 . S
O145 Zn146 1.899 . S
O145 C153 1.284 . S
Zn146 O145 1.899 . S
Zn146 O147 2.032 . S
Zn146 O150 2.086 . S
Zn146 O155 1.977 . S
O147 Zn146 2.032 . S
O147 C151 1.278 . S
C148 O149 1.203 . S
C148 O155 1.267 . S
O149 C148 1.203 . S
O150 C143 1.185 . S
O150 Zn146 2.086 . S
C151 O147 1.278 . S
C151 O152 1.211 . S
O152 C151 1.211 . S
C153 O145 1.284 . S
C153 O154 1.273 . S
O154 C153 1.273 . S
O155 Zn146 1.977 . S
O155 C148 1.267 . S
C156 O157 1.160 . S
C156 O163 1.185 . S
O157 C156 1.160 . S
O158 Zn159 1.899 . S
O158 C166 1.284 . S
Zn159 O158 1.899 . S
Zn159 O160 2.032 . S
Zn159 O163 2.086 . S
Zn159 O168 1.977 . S
O160 Zn159 2.032 . S
O160 C164 1.278 . S
C161 O162 1.203 . S
C161 O168 1.267 . S
O162 C161 1.203 . S
O163 C156 1.185 . S
O163 Zn159 2.086 . S
C164 O160 1.278 . S
C164 O165 1.211 . S
O165 C164 1.211 . S
C166 O158 1.284 . S
C166 O167 1.273 . S
O167 C166 1.273 . S
O168 Zn159 1.977 . S
O168 C161 1.267 . S
C169 O170 1.160 . S
C169 O176 1.185 . S
O170 C169 1.160 . S
O171 Zn172 1.899 . S
O171 C179 1.284 . S
Zn172 O171 1.899 . S
Zn172 O173 2.032 . S
Zn172 O176 2.086 . S
Zn172 O181 1.977 . S
O173 Zn172 2.032 . S
O173 C177 1.278 . S
C174 O175 1.203 . S
C174 O181 1.267 . S
O175 C174 1.203 . S
O176 C169 1.185 . S
O176 Zn172 2.086 . S
C177 O173 1.278 . S
C177 O178 1.211 . S
O178 C177 1.211 . S
C179 O171 1.284 . S
C179 O180 1.273 . S
O180 C179 1.273 . S
O181 Zn172 1.977 . S
O181 C174 1.267 . S
C182 O183 1.160 . S
C182 O189 1.185 . S
O183 C182 1.160 . S
O184 Zn185 1.899 . S
O184 C192 1.284 . S
Zn185 O184 1.899 . S
Zn185 O186 2.032 . S
Zn185 O189 2.086 . S
Zn185 O194 1.977 . S
O186 Zn185 2.032 . S
O186 C190 1.278 . S
C187 O188 1.203 . S
C187 O194 1.267 . S
O188 C187 1.203 . S
O189 C182 1.185 . S
O189 Zn185 2.086 . S
C190 O186 1.278 . S
C190 O191 1.211 . S
O191 C190 1.211 . S
C192 O184 1.284 . S
C192 O193 1.273 . S
O193 C192 1.273 . S
O194 Zn185 1.977 . S
O194 C187 1.267 . S
C195 O196 1.160 . S
C195 O202 1.185 . S
O196 C195 1.160 . S
O197 Zn198 1.899 . S
O197 C205 1.284 . S
Zn198 O197 1.899 . S
Zn198 O199 2.032 . S
Zn198 O202 2.086 . S
Zn198 O207 1.977 . S
O199 Zn198 2.032 . S
O199 C203 1.278 . S
C200 O201 1.203 . S
C200 O207 1.267 . S
O201 C200 1.203 . S
O202 C195 1.185 . S
O202 Zn198 2.086 . S
C203 O199 1.278 . S
C203 O204 1.211 . S
O204 C203 1.211 . S
C205 O197 1.284 . S
C205 O206 1.273 . S
O206 C205 1.273 . S
O207 Zn198 1.977 . S
O207 C200 1.267 . S
H208 C214 0.930 . S
H209 C218 0.930 . S
H210 C223 0.929 . S
H211 C221 0.929 . S
H212 C216 0.929 . S
H213 C222 0.929 . S
C214 H208 0.930 . S
C214 C215 1.367 . S
C214 C222 1.378 . S
C215 C214 1.367 . S
C215 C223 1.433 . S
C216 H212 0.929 . S
C216 C218 1.378 . S
C216 C220 1.350 . S
C217 C220 1.463 . S
C217 C222 1.350 . S
C217 N225 1.427 . S
C218 H209 0.930 . S
C218 C216 1.378 . S
C218 C219 1.367 . S
C219 C218 1.367 . S
C219 C221 1.433 . S
C220 C216 1.350 . S
C220 C217 1.463 . S
C220 N224 1.427 . S
C221 H211 0.929 . S
C221 C219 1.433 . S
C221 N224 1.384 . S
C222 H213 0.929 . S
C222 C214 1.378 . S
C222 C217 1.350 . S
C223 H210 0.929 . S
C223 C215 1.433 . S
C223 N225 1.384 . S
N224 C220 1.427 . S
N224 C221 1.384 . S
N225 C217 1.427 . S
N225 C223 1.384 . S
H226 C232 0.930 1_545 S
H227 C236 0.930 1_565 S
H228 C241 0.929 . S
H229 C239 0.929 . S
H230 C234 0.929 . S
H231 C240 0.929 . S
C232 H226 0.930 1_565 S
C232 C233 1.367 . S
C232 C240 1.378 1_565 S
C233 C232 1.367 . S
C233 C241 1.433 . S
C234 H230 0.929 . S
C234 C236 1.378 1_565 S
C234 C238 1.350 1_565 S
C235 C238 1.463 1_665 S
C235 C240 1.350 1_565 S
C235 N243 1.427 . S
C236 H227 0.930 1_545 S
C236 C234 1.378 1_545 S
C236 C237 1.367 . S
C237 C236 1.367 . S
C237 C239 1.433 . S
C238 C234 1.350 1_545 S
C238 C235 1.463 1_445 S
C238 N242 1.427 . S
C239 H229 0.929 . S
C239 C237 1.433 . S
C239 N242 1.384 . S
C240 H231 0.929 . S
C240 C232 1.378 1_545 S
C240 C235 1.350 1_545 S
C241 H228 0.929 . S
C241 C233 1.433 . S
C241 N243 1.384 . S
N242 C238 1.427 . S
N242 C239 1.384 . S
N243 C235 1.427 . S
N243 C241 1.384 . S
H244 C250 0.930 1_545 S
H245 C254 0.930 1_565 S
H246 C259 0.929 . S
H247 C257 0.929 . S
H248 C252 0.929 . S
H249 C258 0.929 . S
C250 H244 0.930 1_565 S
C250 C251 1.367 . S
C250 C258 1.378 1_565 S
C251 C250 1.367 . S
C251 C259 1.433 . S
C252 H248 0.929 . S
C252 C254 1.378 1_565 S
C252 C256 1.350 1_565 S
C253 C256 1.463 1_565 S
C253 C258 1.350 1_565 S
C253 N261 1.427 . S
C254 H245 0.930 1_545 S
C254 C252 1.378 1_545 S
C254 C255 1.367 . S
C255 C254 1.367 . S
C255 C257 1.433 . S
C256 C252 1.350 1_545 S
C256 C253 1.463 1_545 S
C256 N260 1.427 . S
C257 H247 0.929 . S
C257 C255 1.433 . S
C257 N260 1.384 . S
C258 H249 0.929 . S
C258 C250 1.378 1_545 S
C258 C253 1.350 1_545 S
C259 H246 0.929 . S
C259 C251 1.433 . S
C259 N261 1.384 . S
N260 C256 1.427 . S
N260 C257 1.384 . S
N261 C253 1.427 . S
N261 C259 1.384 . S
H262 C268 0.930 . S
H263 C272 0.930 . S
H264 C277 0.929 . S
H265 C275 0.929 . S
H266 C270 0.929 1_455 S
H267 C276 0.929 1_655 S
C268 H262 0.930 . S
C268 C269 1.367 . S
C268 C276 1.378 . S
C269 C268 1.367 . S
C269 C277 1.433 . S
C270 H266 0.929 1_655 S
C270 C272 1.378 . S
C270 C274 1.350 . S
C271 C274 1.463 1_455 S
C271 C276 1.350 . S
C271 N279 1.427 . S
C272 H263 0.930 . S
C272 C270 1.378 . S
C272 C273 1.367 . S
C273 C272 1.367 . S
C273 C275 1.433 . S
C274 C270 1.350 . S
C274 C271 1.463 1_655 S
C274 N278 1.427 . S
C275 H265 0.929 . S
C275 C273 1.433 . S
C275 N278 1.384 . S
C276 H267 0.929 1_455 S
C276 C268 1.378 . S
C276 C271 1.350 . S
C277 H264 0.929 . S
C277 C269 1.433 . S
C277 N279 1.384 . S
N278 C274 1.427 . S
N278 C275 1.384 . S
N279 C271 1.427 . S
N279 C277 1.384 . S
H280 C286 0.930 . S
H281 C290 0.930 . S
H282 C295 0.929 . S
H283 C293 0.929 . S
H284 C288 0.929 . S
H285 C294 0.929 . S
C286 H280 0.930 . S
C286 C287 1.367 . S
C286 C294 1.378 . S
C287 C286 1.367 . S
C287 C295 1.433 . S
C288 H284 0.929 . S
C288 C290 1.378 . S
C288 C292 1.350 . S
C289 C292 1.463 . S
C289 C294 1.350 . S
C289 N297 1.427 . S
C290 H281 0.930 . S
C290 C288 1.378 . S
C290 C291 1.367 . S
C291 C290 1.367 . S
C291 C293 1.433 . S
C292 C288 1.350 . S
C292 C289 1.463 . S
C292 N296 1.427 . S
C293 H283 0.929 . S
C293 C291 1.433 . S
C293 N296 1.384 . S
C294 H285 0.929 . S
C294 C286 1.378 . S
C294 C289 1.350 . S
C295 H282 0.929 . S
C295 C287 1.433 . S
C295 N297 1.384 . S
N296 C292 1.427 . S
N296 C293 1.384 . S
N297 C289 1.427 . S
N297 C295 1.384 . S
H298 C304 0.930 . S
H299 C308 0.930 . S
H300 C313 0.929 1_565 S
H301 C311 0.929 1_545 S
H302 C306 0.929 . S
H303 C312 0.929 . S
C304 H298 0.930 . S
C304 C305 1.367 . S
C304 C312 1.378 . S
C305 C304 1.367 . S
C305 C313 1.433 . S
C306 H302 0.929 . S
C306 C308 1.378 . S
C306 C310 1.350 . S
C307 C310 1.463 1_545 S
C307 C312 1.350 . S
C307 N315 1.427 1_545 S
C308 H299 0.930 . S
C308 C306 1.378 . S
C308 C309 1.367 . S
C309 C308 1.367 . S
C309 C311 1.433 . S
C310 C306 1.350 . S
C310 C307 1.463 1_565 S
C310 N314 1.427 1_565 S
C311 H301 0.929 1_565 S
C311 C309 1.433 . S
C311 N314 1.384 1_565 S
C312 H303 0.929 . S
C312 C304 1.378 . S
C312 C307 1.350 . S
C313 H300 0.929 1_545 S
C313 C305 1.433 . S
C313 N315 1.384 1_545 S
N314 C310 1.427 1_545 S
N314 C311 1.384 1_545 S
N315 C307 1.427 1_565 S
N315 C313 1.384 1_565 S
H316 C322 0.930 . S
H317 C326 0.930 . S
H318 C331 0.929 . S
H319 C329 0.929 . S
H320 C324 0.929 . S
H321 C330 0.929 . S
C322 H316 0.930 . S
C322 C323 1.367 . S
C322 C330 1.378 . S
C323 C322 1.367 . S
C323 C331 1.433 . S
C324 H320 0.929 . S
C324 C326 1.378 . S
C324 C328 1.350 . S
C325 C328 1.463 1_655 S
C325 C330 1.350 . S
C325 N333 1.427 . S
C326 H317 0.930 . S
C326 C324 1.378 . S
C326 C327 1.367 . S
C327 C326 1.367 . S
C327 C329 1.433 . S
C328 C324 1.350 . S
C328 C325 1.463 1_455 S
C328 N332 1.427 . S
C329 H319 0.929 . S
C329 C327 1.433 . S
C329 N332 1.384 . S
C330 H321 0.929 . S
C330 C322 1.378 . S
C330 C325 1.350 . S
C331 H318 0.929 . S
C331 C323 1.433 . S
C331 N333 1.384 . S
N332 C328 1.427 . S
N332 C329 1.384 . S
N333 C325 1.427 . S
N333 C331 1.384 . S
H334 C340 0.930 . S
H335 C344 0.930 . S
H336 C349 0.929 . S
H337 C347 0.929 . S
H338 C342 0.929 . S
H339 C348 0.929 . S
C340 H334 0.930 . S
C340 C341 1.367 . S
C340 C348 1.378 . S
C341 C340 1.367 . S
C341 C349 1.433 . S
C342 H338 0.929 . S
C342 C344 1.378 . S
C342 C346 1.350 . S
C343 C346 1.463 1_554 S
C343 C348 1.350 . S
C343 N351 1.426 . S
C344 H335 0.930 . S
C344 C342 1.378 . S
C344 C345 1.367 . S
C345 C344 1.367 . S
C345 C347 1.433 . S
C346 C342 1.350 . S
C346 C343 1.463 1_556 S
C346 N350 1.426 . S
C347 H337 0.929 . S
C347 C345 1.433 . S
C347 N350 1.382 . S
C348 H339 0.929 . S
C348 C340 1.378 . S
C348 C343 1.350 . S
C349 H336 0.929 . S
C349 C341 1.433 . S
C349 N351 1.382 . S
N350 C346 1.426 . S
N350 C347 1.382 . S
N351 C343 1.426 . S
N351 C349 1.382 . S
H352 C358 0.930 . S
H353 C362 0.930 . S
H354 C367 0.929 . S
H355 C365 0.929 . S
H356 C360 0.929 1_456 S
H357 C366 0.929 1_654 S
C358 H352 0.930 . S
C358 C359 1.367 . S
C358 C366 1.378 . S
C359 C358 1.367 . S
C359 C367 1.433 . S
C360 H356 0.929 1_654 S
C360 C362 1.378 . S
C360 C364 1.350 . S
C361 C364 1.463 1_456 S
C361 C366 1.350 . S
C361 N369 1.427 . S
C362 H353 0.930 . S
C362 C360 1.378 . S
C362 C363 1.367 . S
C363 C362 1.367 . S
C363 C365 1.433 . S
C364 C360 1.350 . S
C364 C361 1.463 1_654 S
C364 N368 1.427 . S
C365 H355 0.929 . S
C365 C363 1.433 . S
C365 N368 1.384 . S
C366 H357 0.929 1_456 S
C366 C358 1.378 . S
C366 C361 1.350 . S
C367 H354 0.929 . S
C367 C359 1.433 . S
C367 N369 1.384 . S
N368 C364 1.427 . S
N368 C365 1.384 . S
N369 C361 1.427 . S
N369 C367 1.384 . S
H370 C376 0.930 . S
H371 C380 0.930 . S
H372 C385 0.929 . S
H373 C383 0.929 . S
H374 C378 0.929 . S
H375 C384 0.929 . S
C376 H370 0.930 . S
C376 C377 1.367 . S
C376 C384 1.378 . S
C377 C376 1.367 . S
C377 C385 1.433 . S
C378 H374 0.929 . S
C378 C380 1.378 . S
C378 C382 1.350 . S
C379 C382 1.463 . S
C379 C384 1.350 . S
C379 N387 1.427 . S
C380 H371 0.930 . S
C380 C378 1.378 . S
C380 C381 1.367 . S
C381 C380 1.367 . S
C381 C383 1.433 . S
C382 C378 1.350 . S
C382 C379 1.463 . S
C382 N386 1.427 . S
C383 H373 0.929 . S
C383 C381 1.433 . S
C383 N386 1.384 . S
C384 H375 0.929 . S
C384 C376 1.378 . S
C384 C379 1.350 . S
C385 H372 0.929 . S
C385 C377 1.433 . S
C385 N387 1.384 . S
N386 C382 1.427 . S
N386 C383 1.384 . S
N387 C379 1.427 . S
N387 C385 1.384 . S
H388 C394 0.930 . S
H389 C398 0.930 . S
H390 C403 0.929 . S
H391 C401 0.929 . S
H392 C396 0.929 . S
H393 C402 0.929 . S
C394 H388 0.930 . S
C394 C395 1.367 . S
C394 C402 1.378 . S
C395 C394 1.367 . S
C395 C403 1.433 . S
C396 H392 0.929 . S
C396 C398 1.378 . S
C396 C400 1.350 . S
C397 C400 1.463 1_556 S
C397 C402 1.350 . S
C397 N405 1.427 . S
C398 H389 0.930 . S
C398 C396 1.378 . S
C398 C399 1.367 . S
C399 C398 1.367 . S
C399 C401 1.433 . S
C400 C396 1.350 . S
C400 C397 1.463 1_554 S
C400 N404 1.427 . S
C401 H391 0.929 . S
C401 C399 1.433 . S
C401 N404 1.384 . S
C402 H393 0.929 . S
C402 C394 1.378 . S
C402 C397 1.350 . S
C403 H390 0.929 . S
C403 C395 1.433 . S
C403 N405 1.384 . S
N404 C400 1.427 . S
N404 C401 1.384 . S
N405 C397 1.427 . S
N405 C403 1.384 . S
H406 C412 0.930 . S
H407 C416 0.930 . S
H408 C421 0.929 . S
H409 C419 0.929 . S
H410 C414 0.929 . S
H411 C420 0.929 . S
C412 H406 0.930 . S
C412 C413 1.367 . S
C412 C420 1.378 . S
C413 C412 1.367 . S
C413 C421 1.433 . S
C414 H410 0.929 . S
C414 C416 1.378 . S
C414 C418 1.350 . S
C415 C418 1.463 . S
C415 C420 1.350 . S
C415 N423 1.427 . S
C416 H407 0.930 . S
C416 C414 1.378 . S
C416 C417 1.367 . S
C417 C416 1.367 . S
C417 C419 1.433 . S
C418 C414 1.350 . S
C418 C415 1.463 . S
C418 N422 1.427 . S
C419 H409 0.929 . S
C419 C417 1.433 . S
C419 N422 1.384 . S
C420 H411 0.929 . S
C420 C412 1.378 . S
C420 C415 1.350 . S
C421 H408 0.929 . S
C421 C413 1.433 . S
C421 N423 1.384 . S
N422 C418 1.427 . S
N422 C419 1.384 . S
N423 C415 1.427 . S
N423 C421 1.384 . S
H424 C430 0.930 . S
H425 C434 0.930 . S
H426 C439 0.929 . S
H427 C437 0.929 . S
H428 C432 0.929 . S
H429 C438 0.929 . S
C430 H424 0.930 . S
C430 C431 1.367 . S
C430 C438 1.378 . S
C431 C430 1.367 . S
C431 C439 1.433 . S
C432 H428 0.929 . S
C432 C434 1.378 . S
C432 C436 1.350 . S
C433 C436 1.463 1_546 S
C433 C438 1.350 . S
C433 N441 1.414 1_556 S
C434 H425 0.930 . S
C434 C432 1.378 . S
C434 C435 1.367 . S
C435 C434 1.367 . S
C435 C437 1.433 . S
C436 C432 1.350 . S
C436 C433 1.463 1_564 S
C436 N440 1.414 1_554 S
C437 H427 0.929 . S
C437 C435 1.433 . S
C437 N440 1.354 1_554 S
C438 H429 0.929 . S
C438 C430 1.378 . S
C438 C433 1.350 . S
C439 H426 0.929 . S
C439 C431 1.433 . S
C439 N441 1.354 1_556 S
N440 C436 1.414 1_556 S
N440 C437 1.354 1_556 S
N441 C433 1.414 1_554 S
N441 C439 1.354 1_554 S
H442 C448 0.930 . S
H443 C452 0.930 . S
H444 C457 0.929 . S
H445 C455 0.929 . S
H446 C450 0.929 . S
H447 C456 0.929 . S
C448 H442 0.930 . S
C448 C449 1.367 . S
C448 C456 1.378 . S
C449 C448 1.367 . S
C449 C457 1.433 . S
C450 H446 0.929 . S
C450 C452 1.378 . S
C450 C454 1.350 . S
C451 C454 1.463 . S
C451 C456 1.350 . S
C451 N459 1.427 . S
C452 H443 0.930 . S
C452 C450 1.378 . S
C452 C453 1.367 . S
C453 C452 1.367 . S
C453 C455 1.433 . S
C454 C450 1.350 . S
C454 C451 1.463 . S
C454 N458 1.427 . S
C455 H445 0.929 . S
C455 C453 1.433 . S
C455 N458 1.384 . S
C456 H447 0.929 . S
C456 C448 1.378 . S
C456 C451 1.350 . S
C457 H444 0.929 . S
C457 C449 1.433 . S
C457 N459 1.384 . S
N458 C454 1.427 . S
N458 C455 1.384 . S
N459 C451 1.427 . S
N459 C457 1.384 . S
H460 C466 0.930 . S
H461 C470 0.930 . S
H462 C475 0.929 . S
H463 C473 0.929 . S
H464 C468 0.929 . S
H465 C474 0.929 . S
C466 H460 0.930 . S
C466 C467 1.367 . S
C466 C474 1.378 . S
C467 C466 1.367 . S
C467 C475 1.433 . S
C468 H464 0.929 . S
C468 C470 1.378 . S
C468 C472 1.350 . S
C469 C472 1.463 . S
C469 C474 1.350 . S
C469 N477 1.427 . S
C470 H461 0.930 . S
C470 C468 1.378 . S
C470 C471 1.367 . S
C471 C470 1.367 . S
C471 C473 1.433 . S
C472 C468 1.350 . S
C472 C469 1.463 . S
C472 N476 1.427 . S
C473 H463 0.929 . S
C473 C471 1.433 . S
C473 N476 1.384 . S
C474 H465 0.929 . S
C474 C466 1.378 . S
C474 C469 1.350 . S
C475 H462 0.929 . S
C475 C467 1.433 . S
C475 N477 1.384 . S
N476 C472 1.427 . S
N476 C473 1.384 . S
N477 C469 1.427 . S
N477 C475 1.384 . S
H478 C484 0.930 . S
H479 C488 0.930 . S
H480 C493 0.929 . S
H481 C491 0.929 . S
H482 C486 0.929 . S
H483 C492 0.929 . S
C484 H478 0.930 . S
C484 C485 1.367 . S
C484 C492 1.378 . S
C485 C484 1.367 . S
C485 C493 1.433 . S
C486 H482 0.929 . S
C486 C488 1.378 . S
C486 C490 1.350 . S
C487 C490 1.463 . S
C487 C492 1.350 . S
C487 N495 1.427 . S
C488 H479 0.930 . S
C488 C486 1.378 . S
C488 C489 1.367 . S
C489 C488 1.367 . S
C489 C491 1.433 . S
C490 C486 1.350 . S
C490 C487 1.463 . S
C490 N494 1.427 . S
C491 H481 0.929 . S
C491 C489 1.433 . S
C491 N494 1.384 . S
C492 H483 0.929 . S
C492 C484 1.378 . S
C492 C487 1.350 . S
C493 H480 0.929 . S
C493 C485 1.433 . S
C493 N495 1.384 . S
N494 C490 1.427 . S
N494 C491 1.384 . S
N495 C487 1.427 . S
N495 C493 1.384 . S
H496 C502 0.930 . S
H497 C506 0.930 . S
H498 C511 0.929 . S
H499 C509 0.929 . S
H500 C504 0.929 . S
H501 C510 0.929 . S
C502 H496 0.930 . S
C502 C503 1.367 . S
C502 C510 1.378 . S
C503 C502 1.367 . S
C503 C511 1.433 . S
C504 H500 0.929 . S
C504 C506 1.378 . S
C504 C508 1.350 . S
C505 C508 1.463 . S
C505 C510 1.350 . S
C505 N513 1.427 . S
C506 H497 0.930 . S
C506 C504 1.378 . S
C506 C507 1.367 1_565 S
C507 C506 1.367 1_545 S
C507 C509 1.433 . S
C508 C504 1.350 . S
C508 C505 1.463 . S
C508 N512 1.427 . S
C509 H499 0.929 . S
C509 C507 1.433 . S
C509 N512 1.384 1_545 S
C510 H501 0.929 . S
C510 C502 1.378 . S
C510 C505 1.350 . S
C511 H498 0.929 . S
C511 C503 1.433 . S
C511 N513 1.384 . S
N512 C508 1.427 . S
N512 C509 1.384 1_565 S
N513 C505 1.427 . S
N513 C511 1.384 . S
H514 C520 0.930 . S
H515 C524 0.930 . S
H516 C529 0.929 . S
H517 C527 0.929 . S
H518 C522 0.929 . S
H519 C528 0.929 . S
C520 H514 0.930 . S
C520 C521 1.367 . S
C520 C528 1.378 . S
C521 C520 1.367 . S
C521 C529 1.433 . S
C522 H518 0.929 . S
C522 C524 1.378 . S
C522 C526 1.350 . S
C523 C526 1.463 . S
C523 C528 1.350 . S
C523 N531 1.427 . S
C524 H515 0.930 . S
C524 C522 1.378 . S
C524 C525 1.367 . S
C525 C524 1.367 . S
C525 C527 1.433 . S
C526 C522 1.350 . S
C526 C523 1.463 . S
C526 N530 1.427 . S
C527 H517 0.929 . S
C527 C525 1.433 . S
C527 N530 1.384 . S
C528 H519 0.929 . S
C528 C520 1.378 . S
C528 C523 1.350 . S
C529 H516 0.929 . S
C529 C521 1.433 . S
C529 N531 1.384 . S
N530 C526 1.427 . S
N530 C527 1.384 . S
N531 C523 1.427 . S
N531 C529 1.384 . S
H532 C538 0.930 . S
H533 C542 0.930 . S
H534 C547 0.929 . S
H535 C545 0.929 . S
H536 C540 0.929 . S
H537 C546 0.929 . S
C538 H532 0.930 . S
C538 C539 1.367 . S
C538 C546 1.378 . S
C539 C538 1.367 . S
C539 C547 1.433 . S
C540 H536 0.929 . S
C540 C542 1.378 . S
C540 C544 1.350 . S
C541 C544 1.463 . S
C541 C546 1.350 . S
C541 N549 1.427 . S
C542 H533 0.930 . S
C542 C540 1.378 . S
C542 C543 1.367 . S
C543 C542 1.367 . S
C543 C545 1.433 . S
C544 C540 1.350 . S
C544 C541 1.463 . S
C544 N548 1.427 . S
C545 H535 0.929 . S
C545 C543 1.433 . S
C545 N548 1.384 . S
C546 H537 0.929 . S
C546 C538 1.378 . S
C546 C541 1.350 . S
C547 H534 0.929 . S
C547 C539 1.433 . S
C547 N549 1.384 . S
N548 C544 1.427 . S
N548 C545 1.384 . S
N549 C541 1.427 . S
N549 C547 1.384 . S
H550 C556 0.930 . S
H551 C560 0.930 . S
H552 C565 0.929 . S
H553 C563 0.929 . S
H554 C558 0.929 . S
H555 C564 0.929 . S
C556 H550 0.930 . S
C556 C557 1.367 . S
C556 C564 1.378 . S
C557 C556 1.367 . S
C557 C565 1.433 . S
C558 H554 0.929 . S
C558 C560 1.378 1_565 S
C558 C562 1.350 . S
C559 C562 1.463 . S
C559 C564 1.350 . S
C559 N567 1.427 . S
C560 H551 0.930 . S
C560 C558 1.378 1_545 S
C560 C561 1.367 . S
C561 C560 1.367 . S
C561 C563 1.433 1_545 S
C562 C558 1.350 . S
C562 C559 1.463 . S
C562 N566 1.427 . S
C563 H553 0.929 . S
C563 C561 1.433 1_565 S
C563 N566 1.384 . S
C564 H555 0.929 . S
C564 C556 1.378 . S
C564 C559 1.350 . S
C565 H552 0.929 . S
C565 C557 1.433 . S
C565 N567 1.384 . S
N566 C562 1.427 . S
N566 C563 1.384 . S
N567 C559 1.427 . S
N567 C565 1.384 . S
H568 C574 0.930 . S
H569 C578 0.930 . S
H570 C583 0.929 . S
H571 C581 0.929 . S
H572 C576 0.929 . S
H573 C582 0.929 . S
C574 H568 0.930 . S
C574 C575 1.367 . S
C574 C582 1.378 . S
C575 C574 1.367 . S
C575 C583 1.433 . S
C576 H572 0.929 . S
C576 C578 1.378 1_545 S
C576 C580 1.350 . S
C577 C580 1.463 . S
C577 C582 1.350 . S
C577 N585 1.427 . S
C578 H569 0.930 . S
C578 C576 1.378 1_565 S
C578 C579 1.367 . S
C579 C578 1.367 . S
C579 C581 1.433 1_565 S
C580 C576 1.350 . S
C580 C577 1.463 . S
C580 N584 1.427 . S
C581 H571 0.929 . S
C581 C579 1.433 1_545 S
C581 N584 1.384 . S
C582 H573 0.929 . S
C582 C574 1.378 . S
C582 C577 1.350 . S
C583 H570 0.929 . S
C583 C575 1.433 . S
C583 N585 1.384 . S
N584 C580 1.427 . S
N584 C581 1.384 . S
N585 C577 1.427 . S
N585 C583 1.384 . S
H586 C592 0.930 . S
H587 C596 0.930 . S
H588 C601 0.929 . S
H589 C599 0.929 . S
H590 C594 0.929 . S
H591 C600 0.929 . S
C592 H586 0.930 . S
C592 C593 1.367 . S
C592 C600 1.378 . S
C593 C592 1.367 . S
C593 C601 1.433 . S
C594 H590 0.929 . S
C594 C596 1.378 . S
C594 C598 1.350 . S
C595 C598 1.463 . S
C595 C600 1.350 . S
C595 N603 1.427 . S
C596 H587 0.930 . S
C596 C594 1.378 . S
C596 C597 1.367 . S
C597 C596 1.367 . S
C597 C599 1.433 . S
C598 C594 1.350 . S
C598 C595 1.463 . S
C598 N602 1.427 . S
C599 H589 0.929 . S
C599 C597 1.433 . S
C599 N602 1.384 . S
C600 H591 0.929 . S
C600 C592 1.378 . S
C600 C595 1.350 . S
C601 H588 0.929 . S
C601 C593 1.433 . S
C601 N603 1.384 . S
N602 C598 1.427 . S
N602 C599 1.384 . S
N603 C595 1.427 . S
N603 C601 1.384 . S
H604 C610 0.930 . S
H605 C614 0.930 . S
H606 C619 0.929 . S
H607 C617 0.929 . S
H608 C612 0.929 . S
H609 C618 0.929 . S
C610 H604 0.930 . S
C610 C611 1.367 . S
C610 C618 1.378 . S
C611 C610 1.367 . S
C611 C619 1.433 . S
C612 H608 0.929 . S
C612 C614 1.378 . S
C612 C616 1.350 . S
C613 C616 1.463 . S
C613 C618 1.350 . S
C613 N621 1.427 . S
C614 H605 0.930 . S
C614 C612 1.378 . S
C614 C615 1.367 . S
C615 C614 1.367 . S
C615 C617 1.433 . S
C616 C612 1.350 . S
C616 C613 1.463 . S
C616 N620 1.427 . S
C617 H607 0.929 . S
C617 C615 1.433 . S
C617 N620 1.384 . S
C618 H609 0.929 . S
C618 C610 1.378 . S
C618 C613 1.350 . S
C619 H606 0.929 . S
C619 C611 1.433 . S
C619 N621 1.384 . S
N620 C616 1.427 . S
N620 C617 1.384 . S
N621 C613 1.427 . S
N621 C619 1.384 . S
H622 C628 0.930 . S
H623 C632 0.930 . S
H624 C637 0.929 . S
H625 C635 0.929 . S
H626 C630 0.929 . S
H627 C636 0.929 . S
C628 H622 0.930 . S
C628 C629 1.367 1_545 S
C628 C636 1.378 . S
C629 C628 1.367 1_565 S
C629 C637 1.433 . S
C630 H626 0.929 . S
C630 C632 1.378 . S
C630 C634 1.350 . S
C631 C634 1.463 . S
C631 C636 1.350 . S
C631 N639 1.427 . S
C632 H623 0.930 . S
C632 C630 1.378 . S
C632 C633 1.367 . S
C633 C632 1.367 . S
C633 C635 1.433 . S
C634 C630 1.350 . S
C634 C631 1.463 . S
C634 N638 1.427 . S
C635 H625 0.929 . S
C635 C633 1.433 . S
C635 N638 1.384 . S
C636 H627 0.929 . S
C636 C628 1.378 . S
C636 C631 1.350 . S
C637 H624 0.929 . S
C637 C629 1.433 . S
C637 N639 1.384 1_565 S
N638 C634 1.427 . S
N638 C635 1.384 . S
N639 C631 1.427 . S
N639 C637 1.384 1_545 S
H640 C646 0.930 . S
H641 C650 0.930 . S
H642 C655 0.929 . S
H643 C653 0.929 . S
H644 C648 0.929 . S
H645 C654 0.929 . S
C646 H640 0.930 . S
C646 C647 1.367 . S
C646 C654 1.378 . S
C647 C646 1.367 . S
C647 C655 1.433 . S
C648 H644 0.929 . S
C648 C650 1.378 . S
C648 C652 1.350 . S
C649 C652 1.463 . S
C649 C654 1.350 . S
C649 N657 1.427 . S
C650 H641 0.930 . S
C650 C648 1.378 . S
C650 C651 1.367 1_565 S
C651 C650 1.367 1_545 S
C651 C653 1.433 . S
C652 C648 1.350 . S
C652 C649 1.463 . S
C652 N656 1.427 . S
C653 H643 0.929 . S
C653 C651 1.433 . S
C653 N656 1.384 1_545 S
C654 H645 0.929 . S
C654 C646 1.378 . S
C654 C649 1.350 . S
C655 H642 0.929 . S
C655 C647 1.433 . S
C655 N657 1.384 . S
N656 C652 1.427 . S
N656 C653 1.384 1_565 S
N657 C649 1.427 . S
N657 C655 1.384 . S
H658 C664 0.930 . S
H659 C668 0.930 . S
H660 C673 0.929 . S
H661 C671 0.929 . S
H662 C666 0.929 . S
H663 C672 0.929 . S
C664 H658 0.930 . S
C664 C665 1.367 . S
C664 C672 1.378 . S
C665 C664 1.367 . S
C665 C673 1.433 . S
C666 H662 0.929 . S
C666 C668 1.378 . S
C666 C670 1.350 . S
C667 C670 1.463 . S
C667 C672 1.350 . S
C667 N675 1.427 . S
C668 H659 0.930 . S
C668 C666 1.378 . S
C668 C669 1.367 . S
C669 C668 1.367 . S
C669 C671 1.433 . S
C670 C666 1.350 . S
C670 C667 1.463 . S
C670 N674 1.427 . S
C671 H661 0.929 . S
C671 C669 1.433 . S
C671 N674 1.384 . S
C672 H663 0.929 . S
C672 C664 1.378 . S
C672 C667 1.350 . S
C673 H660 0.929 . S
C673 C665 1.433 . S
C673 N675 1.384 . S
N674 C670 1.427 . S
N674 C671 1.384 . S
N675 C667 1.427 . S
N675 C673 1.384 . S
H676 C682 0.930 . S
H677 C686 0.930 . S
H678 C691 0.929 . S
H679 C689 0.929 . S
H680 C684 0.929 . S
H681 C690 0.929 . S
C682 H676 0.930 . S
C682 C683 1.367 . S
C682 C690 1.378 . S
C683 C682 1.367 . S
C683 C691 1.433 . S
C684 H680 0.929 . S
C684 C686 1.378 . S
C684 C688 1.350 . S
C685 C688 1.463 . S
C685 C690 1.350 . S
C685 N693 1.427 . S
C686 H677 0.930 . S
C686 C684 1.378 . S
C686 C687 1.367 . S
C687 C686 1.367 . S
C687 C689 1.433 . S
C688 C684 1.350 . S
C688 C685 1.463 . S
C688 N692 1.427 . S
C689 H679 0.929 . S
C689 C687 1.433 . S
C689 N692 1.384 . S
C690 H681 0.929 . S
C690 C682 1.378 . S
C690 C685 1.350 . S
C691 H678 0.929 . S
C691 C683 1.433 . S
C691 N693 1.384 . S
N692 C688 1.427 . S
N692 C689 1.384 . S
N693 C685 1.427 . S
N693 C691 1.384 . S
H694 C700 0.930 . S
H695 C704 0.930 . S
H696 C709 0.929 . S
H697 C707 0.929 1_545 S
H698 C702 0.929 . S
H699 C708 0.929 . S
C700 H694 0.930 . S
C700 C701 1.367 . S
C700 C708 1.378 . S
C701 C700 1.367 . S
C701 C709 1.433 . S
C702 H698 0.929 . S
C702 C704 1.378 . S
C702 C706 1.350 . S
C703 C706 1.463 . S
C703 C708 1.350 . S
C703 N711 1.427 . S
C704 H695 0.930 . S
C704 C702 1.378 . S
C704 C705 1.367 1_565 S
C705 C704 1.367 1_545 S
C705 C707 1.433 1_545 S
C706 C702 1.350 . S
C706 C703 1.463 . S
C706 N710 1.427 . S
C707 H697 0.929 1_565 S
C707 C705 1.433 1_565 S
C707 N710 1.384 . S
C708 H699 0.929 . S
C708 C700 1.378 . S
C708 C703 1.350 . S
C709 H696 0.929 . S
C709 C701 1.433 . S
C709 N711 1.384 . S
N710 C706 1.427 . S
N710 C707 1.384 . S
N711 C703 1.427 . S
N711 C709 1.384 . S
H712 C718 0.930 . S
H713 C722 0.930 . S
H714 C727 0.929 . S
H715 C725 0.929 . S
H716 C720 0.929 . S
H717 C726 0.929 . S
C718 H712 0.930 . S
C718 C719 1.367 . S
C718 C726 1.378 . S
C719 C718 1.367 . S
C719 C727 1.433 . S
C720 H716 0.929 . S
C720 C722 1.378 . S
C720 C724 1.350 . S
C721 C724 1.463 . S
C721 C726 1.350 . S
C721 N729 1.427 . S
C722 H713 0.930 . S
C722 C720 1.378 . S
C722 C723 1.367 1_545 S
C723 C722 1.367 1_565 S
C723 C725 1.433 . S
C724 C720 1.350 . S
C724 C721 1.463 . S
C724 N728 1.427 . S
C725 H715 0.929 . S
C725 C723 1.433 . S
C725 N728 1.384 1_565 S
C726 H717 0.929 . S
C726 C718 1.378 . S
C726 C721 1.350 . S
C727 H714 0.929 . S
C727 C719 1.433 . S
C727 N729 1.384 . S
N728 C724 1.427 . S
N728 C725 1.384 1_545 S
N729 C721 1.427 . S
N729 C727 1.384 . S
H730 C736 0.930 . S
H731 C740 0.930 . S
H732 C745 0.929 . S
H733 C743 0.929 . S
H734 C738 0.929 . S
H735 C744 0.929 . S
C736 H730 0.930 . S
C736 C737 1.367 . S
C736 C744 1.378 . S
C737 C736 1.367 . S
C737 C745 1.433 . S
C738 H734 0.929 . S
C738 C740 1.378 . S
C738 C742 1.350 . S
C739 C742 1.463 . S
C739 C744 1.350 . S
C739 N747 1.427 . S
C740 H731 0.930 . S
C740 C738 1.378 . S
C740 C741 1.367 . S
C741 C740 1.367 . S
C741 C743 1.433 . S
C742 C738 1.350 . S
C742 C739 1.463 . S
C742 N746 1.427 . S
C743 H733 0.929 . S
C743 C741 1.433 . S
C743 N746 1.384 . S
C744 H735 0.929 . S
C744 C736 1.378 . S
C744 C739 1.350 . S
C745 H732 0.929 . S
C745 C737 1.433 . S
C745 N747 1.384 . S
N746 C742 1.427 . S
N746 C743 1.384 . S
N747 C739 1.427 . S
N747 C745 1.384 . S
H748 C754 0.930 . S
H749 C758 0.930 . S
H750 C763 0.929 . S
H751 C761 0.929 . S
H752 C756 0.929 . S
H753 C762 0.929 . S
C754 H748 0.930 . S
C754 C755 1.367 . S
C754 C762 1.378 . S
C755 C754 1.367 . S
C755 C763 1.433 . S
C756 H752 0.929 . S
C756 C758 1.378 . S
C756 C760 1.350 . S
C757 C760 1.463 . S
C757 C762 1.350 . S
C757 N765 1.427 . S
C758 H749 0.930 . S
C758 C756 1.378 . S
C758 C759 1.367 . S
C759 C758 1.367 . S
C759 C761 1.433 . S
C760 C756 1.350 . S
C760 C757 1.463 . S
C760 N764 1.427 . S
C761 H751 0.929 . S
C761 C759 1.433 . S
C761 N764 1.384 . S
C762 H753 0.929 . S
C762 C754 1.378 . S
C762 C757 1.350 . S
C763 H750 0.929 . S
C763 C755 1.433 . S
C763 N765 1.384 . S
N764 C760 1.427 . S
N764 C761 1.384 . S
N765 C757 1.427 . S
N765 C763 1.384 . S
H766 C772 0.930 . S
H767 C776 0.930 . S
H768 C781 0.929 . S
H769 C779 0.929 . S
H770 C774 0.929 . S
H771 C780 0.929 . S
C772 H766 0.930 . S
C772 C773 1.367 . S
C772 C780 1.378 . S
C773 C772 1.367 . S
C773 C781 1.433 . S
C774 H770 0.929 . S
C774 C776 1.378 . S
C774 C778 1.350 . S
C775 C778 1.463 . S
C775 C780 1.350 . S
C775 N783 1.427 . S
C776 H767 0.930 . S
C776 C774 1.378 . S
C776 C777 1.367 1_545 S
C777 C776 1.367 1_565 S
C777 C779 1.433 . S
C778 C774 1.350 . S
C778 C775 1.463 . S
C778 N782 1.427 . S
C779 H769 0.929 . S
C779 C777 1.433 . S
C779 N782 1.384 1_565 S
C780 H771 0.929 . S
C780 C772 1.378 . S
C780 C775 1.350 . S
C781 H768 0.929 . S
C781 C773 1.433 . S
C781 N783 1.384 . S
N782 C778 1.427 . S
N782 C779 1.384 1_545 S
N783 C775 1.427 . S
N783 C781 1.384 . S
C215 C192 1.516 . S
C219 C10 1.516 . S
C233 C26 1.491 . S
C237 C0 1.491 . S
C251 C143 1.488 . S
C255 C13 1.488 . S
C269 C23 1.517 . S
C273 C101 1.517 . S
C287 C36 1.516 . S
C291 C166 1.516 . S
C305 C117 1.493 . S
C309 C39 1.493 . S
C323 C49 1.520 . S
C327 C75 1.520 . S
C341 C140 1.516 . S
C345 C62 1.516 . S
C359 C52 1.493 . S
C363 C78 1.493 . S
C377 C195 1.488 . S
C381 C65 1.488 . S
C395 C114 1.518 . S
C399 C88 1.518 . S
C413 C169 1.485 . S
C417 C91 1.485 . S
C431 C104 1.498 . S
C435 C130 1.498 . S
C449 C205 1.516 . S
C453 C127 1.516 . S
C467 C153 1.519 . S
C471 C179 1.519 . S
C485 C182 1.488 . S
C489 C156 1.488 . S
C503 C70 1.154 . S
C507 C8 1.163 . S
C521 C5 1.157 . S
C525 C73 1.147 . S
C539 C18 1.150 . S
C543 C60 1.163 . S
C557 C57 1.155 . S
C561 C21 1.146 . S
C575 C96 1.146 . S
C579 C34 1.147 . S
C593 C99 1.147 . S
C597 C31 1.157 . S
C611 C86 1.146 . S
C615 C44 1.156 . S
C629 C47 1.160 . S
C633 C83 1.146 . S
C647 C174 1.150 . S
C651 C112 1.163 . S
C665 C109 1.158 . S
C669 C177 1.148 . S
C683 C122 1.146 . S
C687 C164 1.161 . S
C701 C161 1.161 . S
C705 C125 1.155 . S
C719 C200 1.159 . S
C723 C138 1.160 . S
C737 C203 1.146 . S
C741 C135 1.155 . S
C755 C148 1.157 . S
C759 C190 1.162 . S
C773 C187 1.158 . S
C777 C151 1.161 . S
