# Generated by pormake.
# Topology ukx, (4)-cn, num edge types: 1
# Building blocks:
#     Node 0, Type 0, BuildingBlock: QUQFOY_clean_sbu_1, # of connection points: 4
#     Node 1, Type 0, BuildingBlock: QUQFOY_clean_sbu_1, # of connection points: 4
#     Node 2, Type 0, BuildingBlock: QUQFOY_clean_sbu_1, # of connection points: 4
#     Node 3, Type 0, BuildingBlock: QUQFOY_clean_sbu_1, # of connection points: 4
#     Node 4, Type 0, BuildingBlock: QUQFOY_clean_sbu_1, # of connection points: 4
#     Node 5, Type 0, BuildingBlock: QUQFOY_clean_sbu_1, # of connection points: 4
#     Node 6, Type 0, BuildingBlock: QUQFOY_clean_sbu_1, # of connection points: 4
#     Node 7, Type 0, BuildingBlock: QUQFOY_clean_sbu_1, # of connection points: 4
#     Node 8, Type 0, BuildingBlock: QUQFOY_clean_sbu_1, # of connection points: 4
#     Node 9, Type 0, BuildingBlock: QUQFOY_clean_sbu_1, # of connection points: 4
#     Node 10, Type 0, BuildingBlock: QUQFOY_clean_sbu_1, # of connection points: 4
#     Node 11, Type 0, BuildingBlock: QUQFOY_clean_sbu_1, # of connection points: 4
#     Node 12, Type 0, BuildingBlock: QUQFOY_clean_sbu_1, # of connection points: 4
#     Node 13, Type 0, BuildingBlock: QUQFOY_clean_sbu_1, # of connection points: 4
#     Node 14, Type 0, BuildingBlock: QUQFOY_clean_sbu_1, # of connection points: 4
#     Node 15, Type 0, BuildingBlock: QUQFOY_clean_sbu_1, # of connection points: 4
#     Node 16, Type 0, BuildingBlock: QUQFOY_clean_sbu_1, # of connection points: 4
#     Node 17, Type 0, BuildingBlock: QUQFOY_clean_sbu_1, # of connection points: 4
#     Node 18, Type 0, BuildingBlock: QUQFOY_clean_sbu_1, # of connection points: 4
#     Node 19, Type 0, BuildingBlock: QUQFOY_clean_sbu_1, # of connection points: 4
#     Node 20, Type 0, BuildingBlock: QUQFOY_clean_sbu_1, # of connection points: 4
#     Node 21, Type 0, BuildingBlock: QUQFOY_clean_sbu_1, # of connection points: 4
#     Node 22, Type 0, BuildingBlock: QUQFOY_clean_sbu_1, # of connection points: 4
#     Node 23, Type 0, BuildingBlock: QUQFOY_clean_sbu_1, # of connection points: 4
#     Node 24, Type 0, BuildingBlock: QUQFOY_clean_sbu_1, # of connection points: 4
#     Node 25, Type 0, BuildingBlock: QUQFOY_clean_sbu_1, # of connection points: 4
#     Node 26, Type 0, BuildingBlock: QUQFOY_clean_sbu_1, # of connection points: 4
#     Node 27, Type 0, BuildingBlock: QUQFOY_clean_sbu_1, # of connection points: 4
#     Node 28, Type 0, BuildingBlock: QUQFOY_clean_sbu_1, # of connection points: 4
#     Node 29, Type 0, BuildingBlock: QUQFOY_clean_sbu_1, # of connection points: 4
#     Node 30, Type 0, BuildingBlock: QUQFOY_clean_sbu_1, # of connection points: 4
#     Node 31, Type 0, BuildingBlock: QUQFOY_clean_sbu_1, # of connection points: 4
#     Node 32, Type 0, BuildingBlock: QUQFOY_clean_sbu_1, # of connection points: 4
#     Node 33, Type 0, BuildingBlock: QUQFOY_clean_sbu_1, # of connection points: 4
#     Node 34, Type 0, BuildingBlock: QUQFOY_clean_sbu_1, # of connection points: 4
#     Node 35, Type 0, BuildingBlock: QUQFOY_clean_sbu_1, # of connection points: 4
#     Node 36, Type 0, BuildingBlock: QUQFOY_clean_sbu_1, # of connection points: 4
#     Node 37, Type 0, BuildingBlock: QUQFOY_clean_sbu_1, # of connection points: 4
#     Node 38, Type 0, BuildingBlock: QUQFOY_clean_sbu_1, # of connection points: 4
#     Node 39, Type 0, BuildingBlock: QUQFOY_clean_sbu_1, # of connection points: 4
#     Node 40, Type 0, BuildingBlock: QUQFOY_clean_sbu_1, # of connection points: 4
#     Node 41, Type 0, BuildingBlock: QUQFOY_clean_sbu_1, # of connection points: 4
#     Node 42, Type 0, BuildingBlock: QUQFOY_clean_sbu_1, # of connection points: 4
#     Node 43, Type 0, BuildingBlock: QUQFOY_clean_sbu_1, # of connection points: 4
#     Node 44, Type 0, BuildingBlock: QUQFOY_clean_sbu_1, # of connection points: 4
#     Node 45, Type 0, BuildingBlock: QUQFOY_clean_sbu_1, # of connection points: 4
#     Node 46, Type 0, BuildingBlock: QUQFOY_clean_sbu_1, # of connection points: 4
#     Node 47, Type 0, BuildingBlock: QUQFOY_clean_sbu_1, # of connection points: 4
#     Node 48, Type 0, BuildingBlock: QUQFOY_clean_sbu_1, # of connection points: 4
#     Node 49, Type 0, BuildingBlock: QUQFOY_clean_sbu_1, # of connection points: 4
#     Node 50, Type 0, BuildingBlock: QUQFOY_clean_sbu_1, # of connection points: 4
#     Node 51, Type 0, BuildingBlock: QUQFOY_clean_sbu_1, # of connection points: 4
#     Node 52, Type 0, BuildingBlock: QUQFOY_clean_sbu_1, # of connection points: 4
#     Node 53, Type 0, BuildingBlock: QUQFOY_clean_sbu_1, # of connection points: 4
#     Node 54, Type 0, BuildingBlock: QUQFOY_clean_sbu_1, # of connection points: 4
#     Node 55, Type 0, BuildingBlock: QUQFOY_clean_sbu_1, # of connection points: 4
#     Node 56, Type 0, BuildingBlock: QUQFOY_clean_sbu_1, # of connection points: 4
#     Node 57, Type 0, BuildingBlock: QUQFOY_clean_sbu_1, # of connection points: 4
#     Node 58, Type 0, BuildingBlock: QUQFOY_clean_sbu_1, # of connection points: 4
#     Node 59, Type 0, BuildingBlock: QUQFOY_clean_sbu_1, # of connection points: 4
#     Node 60, Type 0, BuildingBlock: QUQFOY_clean_sbu_1, # of connection points: 4
#     Node 61, Type 0, BuildingBlock: QUQFOY_clean_sbu_1, # of connection points: 4
#     Node 62, Type 0, BuildingBlock: QUQFOY_clean_sbu_1, # of connection points: 4
#     Node 63, Type 0, BuildingBlock: QUQFOY_clean_sbu_1, # of connection points: 4
#     Node 64, Type 0, BuildingBlock: QUQFOY_clean_sbu_1, # of connection points: 4
#     Node 65, Type 0, BuildingBlock: QUQFOY_clean_sbu_1, # of connection points: 4
#     Node 66, Type 0, BuildingBlock: QUQFOY_clean_sbu_1, # of connection points: 4
#     Node 67, Type 0, BuildingBlock: QUQFOY_clean_sbu_1, # of connection points: 4
#     Node 68, Type 0, BuildingBlock: QUQFOY_clean_sbu_1, # of connection points: 4
#     Node 69, Type 0, BuildingBlock: QUQFOY_clean_sbu_1, # of connection points: 4
#     Node 70, Type 0, BuildingBlock: QUQFOY_clean_sbu_1, # of connection points: 4
#     Node 71, Type 0, BuildingBlock: QUQFOY_clean_sbu_1, # of connection points: 4
#     Node 72, Type 0, BuildingBlock: QUQFOY_clean_sbu_1, # of connection points: 4
#     Node 73, Type 0, BuildingBlock: QUQFOY_clean_sbu_1, # of connection points: 4
#     Node 74, Type 0, BuildingBlock: QUQFOY_clean_sbu_1, # of connection points: 4
#     Node 75, Type 0, BuildingBlock: QUQFOY_clean_sbu_1, # of connection points: 4
#     Node 76, Type 0, BuildingBlock: QUQFOY_clean_sbu_1, # of connection points: 4
#     Node 77, Type 0, BuildingBlock: QUQFOY_clean_sbu_1, # of connection points: 4
#     Node 78, Type 0, BuildingBlock: QUQFOY_clean_sbu_1, # of connection points: 4
#     Node 79, Type 0, BuildingBlock: QUQFOY_clean_sbu_1, # of connection points: 4
#     Node 80, Type 0, BuildingBlock: QUQFOY_clean_sbu_1, # of connection points: 4
#     Node 81, Type 0, BuildingBlock: QUQFOY_clean_sbu_1, # of connection points: 4
#     Node 82, Type 0, BuildingBlock: QUQFOY_clean_sbu_1, # of connection points: 4
#     Node 83, Type 0, BuildingBlock: QUQFOY_clean_sbu_1, # of connection points: 4
#     Node 84, Type 0, BuildingBlock: QUQFOY_clean_sbu_1, # of connection points: 4
#     Node 85, Type 0, BuildingBlock: QUQFOY_clean_sbu_1, # of connection points: 4
#     Node 86, Type 0, BuildingBlock: QUQFOY_clean_sbu_1, # of connection points: 4
#     Node 87, Type 0, BuildingBlock: QUQFOY_clean_sbu_1, # of connection points: 4
#     Node 88, Type 0, BuildingBlock: QUQFOY_clean_sbu_1, # of connection points: 4
#     Node 89, Type 0, BuildingBlock: QUQFOY_clean_sbu_1, # of connection points: 4
#     Node 90, Type 0, BuildingBlock: QUQFOY_clean_sbu_1, # of connection points: 4
#     Node 91, Type 0, BuildingBlock: QUQFOY_clean_sbu_1, # of connection points: 4
#     Node 92, Type 0, BuildingBlock: QUQFOY_clean_sbu_1, # of connection points: 4
#     Node 93, Type 0, BuildingBlock: QUQFOY_clean_sbu_1, # of connection points: 4
#     Node 94, Type 0, BuildingBlock: QUQFOY_clean_sbu_1, # of connection points: 4
#     Node 95, Type 0, BuildingBlock: QUQFOY_clean_sbu_1, # of connection points: 4
#     Edge 96, Type (0, 0), BuildingBlock: KIFKEQ_clean_linker_1, # of connection points: 2
#     Edge 97, Type (0, 0), BuildingBlock: KIFKEQ_clean_linker_1, # of connection points: 2
#     Edge 98, Type (0, 0), BuildingBlock: KIFKEQ_clean_linker_1, # of connection points: 2
#     Edge 99, Type (0, 0), BuildingBlock: KIFKEQ_clean_linker_1, # of connection points: 2
#     Edge 100, Type (0, 0), BuildingBlock: KIFKEQ_clean_linker_1, # of connection points: 2
#     Edge 101, Type (0, 0), BuildingBlock: KIFKEQ_clean_linker_1, # of connection points: 2
#     Edge 102, Type (0, 0), BuildingBlock: KIFKEQ_clean_linker_1, # of connection points: 2
#     Edge 103, Type (0, 0), BuildingBlock: KIFKEQ_clean_linker_1, # of connection points: 2
#     Edge 104, Type (0, 0), BuildingBlock: KIFKEQ_clean_linker_1, # of connection points: 2
#     Edge 105, Type (0, 0), BuildingBlock: KIFKEQ_clean_linker_1, # of connection points: 2
#     Edge 106, Type (0, 0), BuildingBlock: KIFKEQ_clean_linker_1, # of connection points: 2
#     Edge 107, Type (0, 0), BuildingBlock: KIFKEQ_clean_linker_1, # of connection points: 2
#     Edge 108, Type (0, 0), BuildingBlock: KIFKEQ_clean_linker_1, # of connection points: 2
#     Edge 109, Type (0, 0), BuildingBlock: KIFKEQ_clean_linker_1, # of connection points: 2
#     Edge 110, Type (0, 0), BuildingBlock: KIFKEQ_clean_linker_1, # of connection points: 2
#     Edge 111, Type (0, 0), BuildingBlock: KIFKEQ_clean_linker_1, # of connection points: 2
#     Edge 112, Type (0, 0), BuildingBlock: KIFKEQ_clean_linker_1, # of connection points: 2
#     Edge 113, Type (0, 0), BuildingBlock: KIFKEQ_clean_linker_1, # of connection points: 2
#     Edge 114, Type (0, 0), BuildingBlock: KIFKEQ_clean_linker_1, # of connection points: 2
#     Edge 115, Type (0, 0), BuildingBlock: KIFKEQ_clean_linker_1, # of connection points: 2
#     Edge 116, Type (0, 0), BuildingBlock: KIFKEQ_clean_linker_1, # of connection points: 2
#     Edge 117, Type (0, 0), BuildingBlock: KIFKEQ_clean_linker_1, # of connection points: 2
#     Edge 118, Type (0, 0), BuildingBlock: KIFKEQ_clean_linker_1, # of connection points: 2
#     Edge 119, Type (0, 0), BuildingBlock: KIFKEQ_clean_linker_1, # of connection points: 2
#     Edge 120, Type (0, 0), BuildingBlock: KIFKEQ_clean_linker_1, # of connection points: 2
#     Edge 121, Type (0, 0), BuildingBlock: KIFKEQ_clean_linker_1, # of connection points: 2
#     Edge 122, Type (0, 0), BuildingBlock: KIFKEQ_clean_linker_1, # of connection points: 2
#     Edge 123, Type (0, 0), BuildingBlock: KIFKEQ_clean_linker_1, # of connection points: 2
#     Edge 124, Type (0, 0), BuildingBlock: KIFKEQ_clean_linker_1, # of connection points: 2
#     Edge 125, Type (0, 0), BuildingBlock: KIFKEQ_clean_linker_1, # of connection points: 2
#     Edge 126, Type (0, 0), BuildingBlock: KIFKEQ_clean_linker_1, # of connection points: 2
#     Edge 127, Type (0, 0), BuildingBlock: KIFKEQ_clean_linker_1, # of connection points: 2
#     Edge 128, Type (0, 0), BuildingBlock: KIFKEQ_clean_linker_1, # of connection points: 2
#     Edge 129, Type (0, 0), BuildingBlock: KIFKEQ_clean_linker_1, # of connection points: 2
#     Edge 130, Type (0, 0), BuildingBlock: KIFKEQ_clean_linker_1, # of connection points: 2
#     Edge 131, Type (0, 0), BuildingBlock: KIFKEQ_clean_linker_1, # of connection points: 2
#     Edge 132, Type (0, 0), BuildingBlock: KIFKEQ_clean_linker_1, # of connection points: 2
#     Edge 133, Type (0, 0), BuildingBlock: KIFKEQ_clean_linker_1, # of connection points: 2
#     Edge 134, Type (0, 0), BuildingBlock: KIFKEQ_clean_linker_1, # of connection points: 2
#     Edge 135, Type (0, 0), BuildingBlock: KIFKEQ_clean_linker_1, # of connection points: 2
#     Edge 136, Type (0, 0), BuildingBlock: KIFKEQ_clean_linker_1, # of connection points: 2
#     Edge 137, Type (0, 0), BuildingBlock: KIFKEQ_clean_linker_1, # of connection points: 2
#     Edge 138, Type (0, 0), BuildingBlock: KIFKEQ_clean_linker_1, # of connection points: 2
#     Edge 139, Type (0, 0), BuildingBlock: KIFKEQ_clean_linker_1, # of connection points: 2
#     Edge 140, Type (0, 0), BuildingBlock: KIFKEQ_clean_linker_1, # of connection points: 2
#     Edge 141, Type (0, 0), BuildingBlock: KIFKEQ_clean_linker_1, # of connection points: 2
#     Edge 142, Type (0, 0), BuildingBlock: KIFKEQ_clean_linker_1, # of connection points: 2
#     Edge 143, Type (0, 0), BuildingBlock: KIFKEQ_clean_linker_1, # of connection points: 2
#     Edge 144, Type (0, 0), BuildingBlock: KIFKEQ_clean_linker_1, # of connection points: 2
#     Edge 145, Type (0, 0), BuildingBlock: KIFKEQ_clean_linker_1, # of connection points: 2
#     Edge 146, Type (0, 0), BuildingBlock: KIFKEQ_clean_linker_1, # of connection points: 2
#     Edge 147, Type (0, 0), BuildingBlock: KIFKEQ_clean_linker_1, # of connection points: 2
#     Edge 148, Type (0, 0), BuildingBlock: KIFKEQ_clean_linker_1, # of connection points: 2
#     Edge 149, Type (0, 0), BuildingBlock: KIFKEQ_clean_linker_1, # of connection points: 2
#     Edge 150, Type (0, 0), BuildingBlock: KIFKEQ_clean_linker_1, # of connection points: 2
#     Edge 151, Type (0, 0), BuildingBlock: KIFKEQ_clean_linker_1, # of connection points: 2
#     Edge 152, Type (0, 0), BuildingBlock: KIFKEQ_clean_linker_1, # of connection points: 2
#     Edge 153, Type (0, 0), BuildingBlock: KIFKEQ_clean_linker_1, # of connection points: 2
#     Edge 154, Type (0, 0), BuildingBlock: KIFKEQ_clean_linker_1, # of connection points: 2
#     Edge 155, Type (0, 0), BuildingBlock: KIFKEQ_clean_linker_1, # of connection points: 2
#     Edge 156, Type (0, 0), BuildingBlock: KIFKEQ_clean_linker_1, # of connection points: 2
#     Edge 157, Type (0, 0), BuildingBlock: KIFKEQ_clean_linker_1, # of connection points: 2
#     Edge 158, Type (0, 0), BuildingBlock: KIFKEQ_clean_linker_1, # of connection points: 2
#     Edge 159, Type (0, 0), BuildingBlock: KIFKEQ_clean_linker_1, # of connection points: 2
#     Edge 160, Type (0, 0), BuildingBlock: KIFKEQ_clean_linker_1, # of connection points: 2
#     Edge 161, Type (0, 0), BuildingBlock: KIFKEQ_clean_linker_1, # of connection points: 2
#     Edge 162, Type (0, 0), BuildingBlock: KIFKEQ_clean_linker_1, # of connection points: 2
#     Edge 163, Type (0, 0), BuildingBlock: KIFKEQ_clean_linker_1, # of connection points: 2
#     Edge 164, Type (0, 0), BuildingBlock: KIFKEQ_clean_linker_1, # of connection points: 2
#     Edge 165, Type (0, 0), BuildingBlock: KIFKEQ_clean_linker_1, # of connection points: 2
#     Edge 166, Type (0, 0), BuildingBlock: KIFKEQ_clean_linker_1, # of connection points: 2
#     Edge 167, Type (0, 0), BuildingBlock: KIFKEQ_clean_linker_1, # of connection points: 2
#     Edge 168, Type (0, 0), BuildingBlock: KIFKEQ_clean_linker_1, # of connection points: 2
#     Edge 169, Type (0, 0), BuildingBlock: KIFKEQ_clean_linker_1, # of connection points: 2
#     Edge 170, Type (0, 0), BuildingBlock: KIFKEQ_clean_linker_1, # of connection points: 2
#     Edge 171, Type (0, 0), BuildingBlock: KIFKEQ_clean_linker_1, # of connection points: 2
#     Edge 172, Type (0, 0), BuildingBlock: KIFKEQ_clean_linker_1, # of connection points: 2
#     Edge 173, Type (0, 0), BuildingBlock: KIFKEQ_clean_linker_1, # of connection points: 2
#     Edge 174, Type (0, 0), BuildingBlock: KIFKEQ_clean_linker_1, # of connection points: 2
#     Edge 175, Type (0, 0), BuildingBlock: KIFKEQ_clean_linker_1, # of connection points: 2
#     Edge 176, Type (0, 0), BuildingBlock: KIFKEQ_clean_linker_1, # of connection points: 2
#     Edge 177, Type (0, 0), BuildingBlock: KIFKEQ_clean_linker_1, # of connection points: 2
#     Edge 178, Type (0, 0), BuildingBlock: KIFKEQ_clean_linker_1, # of connection points: 2
#     Edge 179, Type (0, 0), BuildingBlock: KIFKEQ_clean_linker_1, # of connection points: 2
#     Edge 180, Type (0, 0), BuildingBlock: KIFKEQ_clean_linker_1, # of connection points: 2
#     Edge 181, Type (0, 0), BuildingBlock: KIFKEQ_clean_linker_1, # of connection points: 2
#     Edge 182, Type (0, 0), BuildingBlock: KIFKEQ_clean_linker_1, # of connection points: 2
#     Edge 183, Type (0, 0), BuildingBlock: KIFKEQ_clean_linker_1, # of connection points: 2
#     Edge 184, Type (0, 0), BuildingBlock: KIFKEQ_clean_linker_1, # of connection points: 2
#     Edge 185, Type (0, 0), BuildingBlock: KIFKEQ_clean_linker_1, # of connection points: 2
#     Edge 186, Type (0, 0), BuildingBlock: KIFKEQ_clean_linker_1, # of connection points: 2
#     Edge 187, Type (0, 0), BuildingBlock: KIFKEQ_clean_linker_1, # of connection points: 2
#     Edge 188, Type (0, 0), BuildingBlock: KIFKEQ_clean_linker_1, # of connection points: 2
#     Edge 189, Type (0, 0), BuildingBlock: KIFKEQ_clean_linker_1, # of connection points: 2
#     Edge 190, Type (0, 0), BuildingBlock: KIFKEQ_clean_linker_1, # of connection points: 2
#     Edge 191, Type (0, 0), BuildingBlock: KIFKEQ_clean_linker_1, # of connection points: 2
#     Edge 192, Type (0, 0), BuildingBlock: KIFKEQ_clean_linker_1, # of connection points: 2
#     Edge 193, Type (0, 0), BuildingBlock: KIFKEQ_clean_linker_1, # of connection points: 2
#     Edge 194, Type (0, 0), BuildingBlock: KIFKEQ_clean_linker_1, # of connection points: 2
#     Edge 195, Type (0, 0), BuildingBlock: KIFKEQ_clean_linker_1, # of connection points: 2
#     Edge 196, Type (0, 0), BuildingBlock: KIFKEQ_clean_linker_1, # of connection points: 2
#     Edge 197, Type (0, 0), BuildingBlock: KIFKEQ_clean_linker_1, # of connection points: 2
#     Edge 198, Type (0, 0), BuildingBlock: KIFKEQ_clean_linker_1, # of connection points: 2
#     Edge 199, Type (0, 0), BuildingBlock: KIFKEQ_clean_linker_1, # of connection points: 2
#     Edge 200, Type (0, 0), BuildingBlock: KIFKEQ_clean_linker_1, # of connection points: 2
#     Edge 201, Type (0, 0), BuildingBlock: KIFKEQ_clean_linker_1, # of connection points: 2
#     Edge 202, Type (0, 0), BuildingBlock: KIFKEQ_clean_linker_1, # of connection points: 2
#     Edge 203, Type (0, 0), BuildingBlock: KIFKEQ_clean_linker_1, # of connection points: 2
#     Edge 204, Type (0, 0), BuildingBlock: KIFKEQ_clean_linker_1, # of connection points: 2
#     Edge 205, Type (0, 0), BuildingBlock: KIFKEQ_clean_linker_1, # of connection points: 2
#     Edge 206, Type (0, 0), BuildingBlock: KIFKEQ_clean_linker_1, # of connection points: 2
#     Edge 207, Type (0, 0), BuildingBlock: KIFKEQ_clean_linker_1, # of connection points: 2
#     Edge 208, Type (0, 0), BuildingBlock: KIFKEQ_clean_linker_1, # of connection points: 2
#     Edge 209, Type (0, 0), BuildingBlock: KIFKEQ_clean_linker_1, # of connection points: 2
#     Edge 210, Type (0, 0), BuildingBlock: KIFKEQ_clean_linker_1, # of connection points: 2
#     Edge 211, Type (0, 0), BuildingBlock: KIFKEQ_clean_linker_1, # of connection points: 2
#     Edge 212, Type (0, 0), BuildingBlock: KIFKEQ_clean_linker_1, # of connection points: 2
#     Edge 213, Type (0, 0), BuildingBlock: KIFKEQ_clean_linker_1, # of connection points: 2
#     Edge 214, Type (0, 0), BuildingBlock: KIFKEQ_clean_linker_1, # of connection points: 2
#     Edge 215, Type (0, 0), BuildingBlock: KIFKEQ_clean_linker_1, # of connection points: 2
#     Edge 216, Type (0, 0), BuildingBlock: KIFKEQ_clean_linker_1, # of connection points: 2
#     Edge 217, Type (0, 0), BuildingBlock: KIFKEQ_clean_linker_1, # of connection points: 2
#     Edge 218, Type (0, 0), BuildingBlock: KIFKEQ_clean_linker_1, # of connection points: 2
#     Edge 219, Type (0, 0), BuildingBlock: KIFKEQ_clean_linker_1, # of connection points: 2
#     Edge 220, Type (0, 0), BuildingBlock: KIFKEQ_clean_linker_1, # of connection points: 2
#     Edge 221, Type (0, 0), BuildingBlock: KIFKEQ_clean_linker_1, # of connection points: 2
#     Edge 222, Type (0, 0), BuildingBlock: KIFKEQ_clean_linker_1, # of connection points: 2
#     Edge 223, Type (0, 0), BuildingBlock: KIFKEQ_clean_linker_1, # of connection points: 2
#     Edge 224, Type (0, 0), BuildingBlock: KIFKEQ_clean_linker_1, # of connection points: 2
#     Edge 225, Type (0, 0), BuildingBlock: KIFKEQ_clean_linker_1, # of connection points: 2
#     Edge 226, Type (0, 0), BuildingBlock: KIFKEQ_clean_linker_1, # of connection points: 2
#     Edge 227, Type (0, 0), BuildingBlock: KIFKEQ_clean_linker_1, # of connection points: 2
#     Edge 228, Type (0, 0), BuildingBlock: KIFKEQ_clean_linker_1, # of connection points: 2
#     Edge 229, Type (0, 0), BuildingBlock: KIFKEQ_clean_linker_1, # of connection points: 2
#     Edge 230, Type (0, 0), BuildingBlock: KIFKEQ_clean_linker_1, # of connection points: 2
#     Edge 231, Type (0, 0), BuildingBlock: KIFKEQ_clean_linker_1, # of connection points: 2
#     Edge 232, Type (0, 0), BuildingBlock: KIFKEQ_clean_linker_1, # of connection points: 2
#     Edge 233, Type (0, 0), BuildingBlock: KIFKEQ_clean_linker_1, # of connection points: 2
#     Edge 234, Type (0, 0), BuildingBlock: KIFKEQ_clean_linker_1, # of connection points: 2
#     Edge 235, Type (0, 0), BuildingBlock: KIFKEQ_clean_linker_1, # of connection points: 2
#     Edge 236, Type (0, 0), BuildingBlock: KIFKEQ_clean_linker_1, # of connection points: 2
#     Edge 237, Type (0, 0), BuildingBlock: KIFKEQ_clean_linker_1, # of connection points: 2
#     Edge 238, Type (0, 0), BuildingBlock: KIFKEQ_clean_linker_1, # of connection points: 2
#     Edge 239, Type (0, 0), BuildingBlock: KIFKEQ_clean_linker_1, # of connection points: 2
#     Edge 240, Type (0, 0), BuildingBlock: KIFKEQ_clean_linker_1, # of connection points: 2
#     Edge 241, Type (0, 0), BuildingBlock: KIFKEQ_clean_linker_1, # of connection points: 2
#     Edge 242, Type (0, 0), BuildingBlock: KIFKEQ_clean_linker_1, # of connection points: 2
#     Edge 243, Type (0, 0), BuildingBlock: KIFKEQ_clean_linker_1, # of connection points: 2
#     Edge 244, Type (0, 0), BuildingBlock: KIFKEQ_clean_linker_1, # of connection points: 2
#     Edge 245, Type (0, 0), BuildingBlock: KIFKEQ_clean_linker_1, # of connection points: 2
#     Edge 246, Type (0, 0), BuildingBlock: KIFKEQ_clean_linker_1, # of connection points: 2
#     Edge 247, Type (0, 0), BuildingBlock: KIFKEQ_clean_linker_1, # of connection points: 2
#     Edge 248, Type (0, 0), BuildingBlock: KIFKEQ_clean_linker_1, # of connection points: 2
#     Edge 249, Type (0, 0), BuildingBlock: KIFKEQ_clean_linker_1, # of connection points: 2
#     Edge 250, Type (0, 0), BuildingBlock: KIFKEQ_clean_linker_1, # of connection points: 2
#     Edge 251, Type (0, 0), BuildingBlock: KIFKEQ_clean_linker_1, # of connection points: 2
#     Edge 252, Type (0, 0), BuildingBlock: KIFKEQ_clean_linker_1, # of connection points: 2
#     Edge 253, Type (0, 0), BuildingBlock: KIFKEQ_clean_linker_1, # of connection points: 2
#     Edge 254, Type (0, 0), BuildingBlock: KIFKEQ_clean_linker_1, # of connection points: 2
#     Edge 255, Type (0, 0), BuildingBlock: KIFKEQ_clean_linker_1, # of connection points: 2
#     Edge 256, Type (0, 0), BuildingBlock: KIFKEQ_clean_linker_1, # of connection points: 2
#     Edge 257, Type (0, 0), BuildingBlock: KIFKEQ_clean_linker_1, # of connection points: 2
#     Edge 258, Type (0, 0), BuildingBlock: KIFKEQ_clean_linker_1, # of connection points: 2
#     Edge 259, Type (0, 0), BuildingBlock: KIFKEQ_clean_linker_1, # of connection points: 2
#     Edge 260, Type (0, 0), BuildingBlock: KIFKEQ_clean_linker_1, # of connection points: 2
#     Edge 261, Type (0, 0), BuildingBlock: KIFKEQ_clean_linker_1, # of connection points: 2
#     Edge 262, Type (0, 0), BuildingBlock: KIFKEQ_clean_linker_1, # of connection points: 2
#     Edge 263, Type (0, 0), BuildingBlock: KIFKEQ_clean_linker_1, # of connection points: 2
#     Edge 264, Type (0, 0), BuildingBlock: KIFKEQ_clean_linker_1, # of connection points: 2
#     Edge 265, Type (0, 0), BuildingBlock: KIFKEQ_clean_linker_1, # of connection points: 2
#     Edge 266, Type (0, 0), BuildingBlock: KIFKEQ_clean_linker_1, # of connection points: 2
#     Edge 267, Type (0, 0), BuildingBlock: KIFKEQ_clean_linker_1, # of connection points: 2
#     Edge 268, Type (0, 0), BuildingBlock: KIFKEQ_clean_linker_1, # of connection points: 2
#     Edge 269, Type (0, 0), BuildingBlock: KIFKEQ_clean_linker_1, # of connection points: 2
#     Edge 270, Type (0, 0), BuildingBlock: KIFKEQ_clean_linker_1, # of connection points: 2
#     Edge 271, Type (0, 0), BuildingBlock: KIFKEQ_clean_linker_1, # of connection points: 2
#     Edge 272, Type (0, 0), BuildingBlock: KIFKEQ_clean_linker_1, # of connection points: 2
#     Edge 273, Type (0, 0), BuildingBlock: KIFKEQ_clean_linker_1, # of connection points: 2
#     Edge 274, Type (0, 0), BuildingBlock: KIFKEQ_clean_linker_1, # of connection points: 2
#     Edge 275, Type (0, 0), BuildingBlock: KIFKEQ_clean_linker_1, # of connection points: 2
#     Edge 276, Type (0, 0), BuildingBlock: KIFKEQ_clean_linker_1, # of connection points: 2
#     Edge 277, Type (0, 0), BuildingBlock: KIFKEQ_clean_linker_1, # of connection points: 2
#     Edge 278, Type (0, 0), BuildingBlock: KIFKEQ_clean_linker_1, # of connection points: 2
#     Edge 279, Type (0, 0), BuildingBlock: KIFKEQ_clean_linker_1, # of connection points: 2
#     Edge 280, Type (0, 0), BuildingBlock: KIFKEQ_clean_linker_1, # of connection points: 2
#     Edge 281, Type (0, 0), BuildingBlock: KIFKEQ_clean_linker_1, # of connection points: 2
#     Edge 282, Type (0, 0), BuildingBlock: KIFKEQ_clean_linker_1, # of connection points: 2
#     Edge 283, Type (0, 0), BuildingBlock: KIFKEQ_clean_linker_1, # of connection points: 2
#     Edge 284, Type (0, 0), BuildingBlock: KIFKEQ_clean_linker_1, # of connection points: 2
#     Edge 285, Type (0, 0), BuildingBlock: KIFKEQ_clean_linker_1, # of connection points: 2
#     Edge 286, Type (0, 0), BuildingBlock: KIFKEQ_clean_linker_1, # of connection points: 2
#     Edge 287, Type (0, 0), BuildingBlock: KIFKEQ_clean_linker_1, # of connection points: 2
# Relax obj value: 0.105
# Max RMSD: 0.079
# Mean RMSD: 0.079
data_MOF--net-ukx--node1-QUQFOY_clean_sbu_1--edge1-KIFKEQ_clean_linker_1
_symmetry_space_group_name_H-M    P1
_symmetry_Int_Tables_number       1
_symmetry_cell_setting            triclinic
loop_
_symmetry_equiv_pos_as_xyz
'x, y, z'
_cell_length_a     85.556462
_cell_length_b     85.507168
_cell_length_c     85.511913
_cell_angle_alpha  90.012952
_cell_angle_beta   89.987643
_cell_angle_gamma 90.05353
loop_
_atom_site_label
_atom_site_type_symbol
_atom_site_fract_x
_atom_site_fract_y
_atom_site_fract_z
_atom_type_partial_charge
O0 O 0.06621 0.17203 0.35181 0.0
Cd1 Cd 0.05753 0.14973 0.35324 0.0
Cd2 Cd 0.03723 0.16204 0.33037 0.0
O3 O 0.05171 0.18159 0.33266 0.0
O4 O 0.07375 0.13851 0.36568 0.0
O5 O 0.0692 0.13335 0.34077 0.0
C6 C 0.07749 0.13101 0.35317 0.0
C7 C 0.02781 0.15302 0.30609 0.0
C8 C 0.06262 0.18319 0.34269 0.0
C9 C 0.02372 0.15225 0.36187 0.0
O10 O 0.02171 0.15831 0.34845 0.0
O11 O 0.0371 0.1474 0.36614 0.0
O12 O 0.02312 0.16603 0.31208 0.0
O13 O 0.03864 0.14548 0.31345 0.0
O14 O 0.08697 0.8149 0.5968 0.0
Cd15 Cd 0.109 0.80572 0.59932 0.0
Cd16 Cd 0.09606 0.78598 0.57527 0.0
O17 O 0.07722 0.80134 0.57702 0.0
O18 O 0.11888 0.82096 0.61405 0.0
O19 O 0.12662 0.81826 0.58958 0.0
C20 C 0.12768 0.82557 0.60276 0.0
C21 C 0.10571 0.77623 0.55134 0.0
C22 C 0.07593 0.81208 0.58728 0.0
C23 C 0.10442 0.77172 0.60697 0.0
O24 O 0.09827 0.77038 0.5935 0.0
O25 O 0.11032 0.78467 0.61137 0.0
O26 O 0.09231 0.77199 0.55679 0.0
O27 O 0.11332 0.7868 0.55902 0.0
O28 O 0.44539 0.83922 0.85106 0.0
Cd29 Cd 0.45427 0.86151 0.85123 0.0
Cd30 Cd 0.47373 0.8477 0.8287 0.0
O31 O 0.45869 0.82868 0.83156 0.0
O32 O 0.43842 0.87329 0.86364 0.0
O33 O 0.4423 0.87738 0.83842 0.0
C34 C 0.43434 0.88024 0.85093 0.0
C35 C 0.48337 0.85628 0.80435 0.0
C36 C 0.44825 0.82769 0.84215 0.0
C37 C 0.48794 0.85815 0.85969 0.0
O38 O 0.48936 0.85107 0.8467 0.0
O39 O 0.47497 0.86427 0.8636 0.0
O40 O 0.48768 0.84317 0.81041 0.0
O41 O 0.47274 0.86415 0.81166 0.0
O42 O 0.42643 0.18874 0.10104 0.0
Cd43 Cd 0.40494 0.19944 0.10224 0.0
Cd44 Cd 0.41922 0.21743 0.08022 0.0
O45 O 0.43593 0.19983 0.07976 0.0
O46 O 0.3926 0.18437 0.11513 0.0
O47 O 0.38764 0.18867 0.09015 0.0
C48 C 0.38484 0.18079 0.10273 0.0
C49 C 0.40722 0.22867 0.05818 0.0
C50 C 0.4371 0.18986 0.09076 0.0
C51 C 0.41408 0.23132 0.11229 0.0
O52 O 0.42145 0.23185 0.09938 0.0
O53 O 0.40471 0.2201 0.11512 0.0
O54 O 0.42181 0.23098 0.0612 0.0
O55 O 0.39956 0.2193 0.06725 0.0
O56 O 0.06411 0.84006 0.16132 0.0
Cd57 Cd 0.05415 0.86176 0.15951 0.0
Cd58 Cd 0.03578 0.84644 0.18328 0.0
O59 O 0.05232 0.82862 0.18125 0.0
O60 O 0.06857 0.8709 0.14365 0.0
O61 O 0.06743 0.87971 0.16782 0.0
C62 C 0.07414 0.87994 0.15429 0.0
C63 C 0.02616 0.85608 0.20718 0.0
C64 C 0.06267 0.82852 0.17054 0.0
C65 C 0.02046 0.85545 0.15223 0.0
O66 O 0.01991 0.8482 0.16521 0.0
O67 O 0.03277 0.8627 0.14807 0.0
O68 O 0.02241 0.84238 0.2021 0.0
O69 O 0.03624 0.86399 0.19915 0.0
O70 O 0.4249 0.81554 0.42022 0.0
Cd71 Cd 0.40337 0.80659 0.41485 0.0
Cd72 Cd 0.41696 0.78598 0.43961 0.0
O73 O 0.43543 0.80192 0.43942 0.0
O74 O 0.39955 0.8217 0.39761 0.0
O75 O 0.38476 0.82113 0.41867 0.0
C76 C 0.38863 0.82795 0.40578 0.0
C77 C 0.40544 0.77604 0.46251 0.0
C78 C 0.43604 0.81317 0.4297 0.0
C79 C 0.40936 0.77259 0.40717 0.0
O80 O 0.41557 0.77114 0.42063 0.0
O81 O 0.40305 0.7854 0.40295 0.0
O82 O 0.41941 0.77214 0.45841 0.0
O83 O 0.39824 0.78629 0.45404 0.0
O84 O 0.44451 0.16913 0.65571 0.0
Cd85 Cd 0.45472 0.14752 0.65628 0.0
Cd86 Cd 0.47244 0.16314 0.67832 0.0
O87 O 0.45576 0.18083 0.67578 0.0
O88 O 0.4396 0.13465 0.64402 0.0
O89 O 0.44327 0.13149 0.66939 0.0
C90 C 0.43551 0.12802 0.6569 0.0
C91 C 0.48181 0.15338 0.70228 0.0
C92 C 0.44579 0.18087 0.6647 0.0
C93 C 0.4878 0.15362 0.64764 0.0
O94 O 0.48842 0.16139 0.66032 0.0
O95 O 0.47559 0.14589 0.64408 0.0
O96 O 0.48553 0.16716 0.69737 0.0
O97 O 0.47186 0.14549 0.69407 0.0
O98 O 0.08375 0.19132 0.9106 0.0
Cd99 Cd 0.10443 0.20357 0.91179 0.0
Cd100 Cd 0.08747 0.218 0.93402 0.0
O101 O 0.07245 0.19897 0.93248 0.0
O102 O 0.11828 0.19065 0.89817 0.0
O103 O 0.12154 0.19245 0.92373 0.0
C104 C 0.12538 0.18603 0.91061 0.0
C105 C 0.09936 0.22752 0.95681 0.0
C106 C 0.07271 0.19016 0.92048 0.0
C107 C 0.09377 0.23563 0.90431 0.0
O108 O 0.08498 0.23403 0.9162 0.0
O109 O 0.10437 0.22558 0.90143 0.0
O110 O 0.08458 0.22938 0.95433 0.0
O111 O 0.10724 0.21944 0.94674 0.0
O112 O 0.35107 0.02775 0.17155 0.0
Cd113 Cd 0.333 0.04331 0.1682 0.0
Cd114 Cd 0.3552 0.05758 0.15134 0.0
O115 O 0.36627 0.03595 0.15239 0.0
O116 O 0.31283 0.03167 0.17102 0.0
O117 O 0.32075 0.04103 0.14821 0.0
C118 C 0.31065 0.03302 0.15613 0.0
C119 C 0.35561 0.07471 0.13002 0.0
C120 C 0.36331 0.02619 0.16324 0.0
C121 C 0.34583 0.07172 0.18245 0.0
O122 O 0.35593 0.0704 0.17164 0.0
O123 O 0.33394 0.06277 0.18273 0.0
O124 O 0.36826 0.07065 0.13708 0.0
O125 O 0.34277 0.06784 0.13406 0.0
O126 O 0.19474 0.10667 0.41791 0.0
Cd127 Cd 0.20481 0.10597 0.39619 0.0
Cd128 Cd 0.22165 0.08317 0.41112 0.0
O129 O 0.20547 0.08606 0.42915 0.0
O130 O 0.18995 0.11845 0.38326 0.0
O131 O 0.19316 0.09297 0.38025 0.0
C132 C 0.18566 0.10559 0.37668 0.0
C133 C 0.22983 0.05914 0.40068 0.0
C134 C 0.19588 0.09746 0.4295 0.0
C135 C 0.23829 0.11317 0.40185 0.0
O136 O 0.23842 0.10039 0.40945 0.0
O137 O 0.22614 0.11738 0.39438 0.0
O138 O 0.23397 0.06356 0.4145 0.0
O139 O 0.22006 0.06789 0.39317 0.0
O140 O 0.15986 0.989 0.662 0.0
Cd141 Cd 0.17986 0.97595 0.66551 0.0
Cd142 Cd 0.15952 0.95285 0.6514 0.0
O143 O 0.14492 0.97206 0.64934 0.0
O144 O 0.19672 0.99191 0.66925 0.0
O145 O 0.1966 0.97626 0.64873 0.0
C146 C 0.20301 0.98775 0.65619 0.0
C147 C 0.158 0.9321 0.6334 0.0
C148 C 0.14707 0.98557 0.65522 0.0
C149 C 0.17028 0.94869 0.68537 0.0
O150 O 0.16212 0.94452 0.67369 0.0
O151 O 0.17902 0.96075 0.68465 0.0
O152 O 0.14626 0.93609 0.64188 0.0
O153 O 0.17055 0.94041 0.63439 0.0
O154 O 0.3149 0.90453 0.91646 0.0
Cd155 Cd 0.30602 0.90379 0.89422 0.0
Cd156 Cd 0.28569 0.92583 0.90792 0.0
O157 O 0.30069 0.92341 0.92696 0.0
O158 O 0.32212 0.89142 0.88273 0.0
O159 O 0.31777 0.91643 0.87798 0.0
C160 C 0.32596 0.90401 0.87542 0.0
C161 C 0.27536 0.95004 0.89979 0.0
C162 C 0.31157 0.91329 0.92799 0.0
C163 C 0.27259 0.89423 0.89779 0.0
O164 O 0.27062 0.90733 0.90455 0.0
O165 O 0.28575 0.89066 0.89185 0.0
O166 O 0.27127 0.94365 0.91281 0.0
O167 O 0.28607 0.94311 0.89169 0.0
O168 O 0.34272 0.98735 0.33219 0.0
Cd169 Cd 0.32327 0.97315 0.33303 0.0
Cd170 Cd 0.34632 0.95399 0.34922 0.0
O171 O 0.35833 0.97521 0.34888 0.0
O172 O 0.30484 0.98736 0.33056 0.0
O173 O 0.3094 0.97387 0.35213 0.0
C174 C 0.30097 0.98404 0.34477 0.0
C175 C 0.35508 0.9339 0.36594 0.0
C176 C 0.35542 0.98672 0.3399 0.0
C177 C 0.33267 0.94468 0.31659 0.0
O178 O 0.34202 0.94337 0.32803 0.0
O179 O 0.32279 0.95578 0.31615 0.0
O180 O 0.36365 0.93965 0.35506 0.0
O181 O 0.34178 0.94051 0.3685 0.0
O182 O 0.31924 0.10717 0.58995 0.0
Cd183 Cd 0.30864 0.10816 0.61136 0.0
Cd184 Cd 0.2894 0.08684 0.59622 0.0
O185 O 0.30626 0.08799 0.57851 0.0
O186 O 0.32428 0.12002 0.624 0.0
O187 O 0.31886 0.09512 0.62826 0.0
C188 C 0.32731 0.10725 0.63137 0.0
C189 C 0.27868 0.06355 0.60636 0.0
C190 C 0.31719 0.09814 0.57835 0.0
C191 C 0.2762 0.11883 0.60455 0.0
O192 O 0.27456 0.10585 0.59746 0.0
O193 O 0.28869 0.12189 0.61202 0.0
O194 O 0.27528 0.06844 0.5925 0.0
O195 O 0.28897 0.07141 0.61419 0.0
O196 O 0.15607 0.02428 0.85047 0.0
Cd197 Cd 0.17517 0.03859 0.84709 0.0
Cd198 Cd 0.15335 0.06046 0.85948 0.0
O199 O 0.13931 0.04073 0.86128 0.0
O200 O 0.19239 0.02333 0.84253 0.0
O201 O 0.19248 0.03858 0.86332 0.0
C202 C 0.19899 0.02747 0.85542 0.0
C203 C 0.1527 0.08047 0.87829 0.0
C204 C 0.14268 0.02715 0.85623 0.0
C205 C 0.16431 0.06458 0.82595 0.0
O206 O 0.1556 0.06893 0.83717 0.0
O207 O 0.17362 0.05306 0.82756 0.0
O208 O 0.14064 0.07698 0.87001 0.0
O209 O 0.16511 0.07207 0.87653 0.0
O210 O 0.19752 0.91135 0.08747 0.0
Cd211 Cd 0.20564 0.90873 0.10987 0.0
Cd212 Cd 0.227 0.93149 0.09706 0.0
O213 O 0.21236 0.9301 0.07765 0.0
O214 O 0.18962 0.8937 0.11768 0.0
O215 O 0.19186 0.91748 0.12725 0.0
C216 C 0.18432 0.90441 0.12677 0.0
C217 C 0.23688 0.95516 0.10709 0.0
C218 C 0.20119 0.92034 0.07625 0.0
C219 C 0.23941 0.89938 0.10632 0.0
O220 O 0.2417 0.91263 0.09994 0.0
O221 O 0.2261 0.89581 0.11195 0.0
O222 O 0.24118 0.94991 0.09363 0.0
O223 O 0.22631 0.94738 0.1146 0.0
O224 O 0.16628 0.35182 0.0659 0.0
Cd225 Cd 0.14479 0.35071 0.0554 0.0
Cd226 Cd 0.16026 0.32767 0.03925 0.0
O227 O 0.1776 0.33077 0.05615 0.0
O228 O 0.13159 0.36361 0.06968 0.0
O229 O 0.12869 0.33804 0.06723 0.0
C230 C 0.125 0.35087 0.07431 0.0
C231 C 0.1496 0.30371 0.03116 0.0
C232 C 0.17779 0.34247 0.06538 0.0
C233 C 0.15141 0.35722 0.02185 0.0
O234 O 0.15935 0.34466 0.02221 0.0
O235 O 0.14335 0.3614 0.03364 0.0
O236 O 0.16383 0.30749 0.02785 0.0
O237 O 0.14173 0.31307 0.04006 0.0
O238 O 0.66878 0.15819 0.94419 0.0
Cd239 Cd 0.64687 0.15828 0.95393 0.0
Cd240 Cd 0.66108 0.18174 0.9716 0.0
O241 O 0.67922 0.17891 0.95558 0.0
O242 O 0.63482 0.14467 0.9393 0.0
O243 O 0.63045 0.17003 0.94162 0.0
C244 C 0.62759 0.15698 0.93455 0.0
C245 C 0.6513 0.20599 0.98005 0.0
C246 C 0.68009 0.16766 0.94583 0.0
C247 C 0.65207 0.15147 0.98782 0.0
O248 O 0.65939 0.16442 0.98825 0.0
O249 O 0.64504 0.14716 0.97543 0.0
O250 O 0.6652 0.20144 0.98369 0.0
O251 O 0.64323 0.19719 0.97077 0.0
O252 O 0.09403 0.4129 0.23372 0.0
Cd253 Cd 0.07661 0.4143 0.21713 0.0
Cd254 Cd 0.09956 0.39859 0.20044 0.0
O255 O 0.11087 0.3973 0.22187 0.0
O256 O 0.05744 0.41901 0.22975 0.0
O257 O 0.06057 0.39689 0.21679 0.0
C258 C 0.05236 0.40521 0.22638 0.0
C259 C 0.0994 0.37864 0.18168 0.0
C260 C 0.10673 0.40518 0.2338 0.0
C261 C 0.09101 0.43166 0.19058 0.0
O262 O 0.10025 0.42007 0.18986 0.0
O263 O 0.07957 0.43161 0.20015 0.0
O264 O 0.11218 0.3854 0.1859 0.0
O265 O 0.08674 0.38229 0.18904 0.0
O266 O 0.84029 0.85268 0.44068 0.0
Cd267 Cd 0.8612 0.85092 0.45219 0.0
Cd268 Cd 0.84455 0.82791 0.46694 0.0
O269 O 0.82839 0.83133 0.44897 0.0
O270 O 0.87525 0.864 0.43893 0.0
O271 O 0.87763 0.83834 0.44079 0.0
C272 C 0.88183 0.8513 0.43425 0.0
C273 C 0.85469 0.80386 0.47529 0.0
C274 C 0.82877 0.84333 0.44014 0.0
C275 C 0.85296 0.85689 0.48543 0.0
O276 O 0.84462 0.84461 0.48432 0.0
O277 O 0.86186 0.86102 0.47423 0.0
O278 O 0.84027 0.80753 0.47774 0.0
O279 O 0.86309 0.81337 0.46704 0.0
O280 O 0.91158 0.09707 0.23716 0.0
Cd281 Cd 0.92922 0.09431 0.22099 0.0
Cd282 Cd 0.90644 0.10819 0.20237 0.0
O283 O 0.89452 0.11069 0.22339 0.0
O284 O 0.94801 0.09003 0.2343 0.0
O285 O 0.94567 0.1113 0.21987 0.0
C286 C 0.9535 0.10345 0.23013 0.0
C287 C 0.90693 0.12751 0.18301 0.0
C288 C 0.89864 0.10429 0.23618 0.0
C289 C 0.91569 0.07469 0.19529 0.0
O290 O 0.90648 0.0861 0.19293 0.0
O291 O 0.92647 0.07565 0.20553 0.0
O292 O 0.89415 0.12059 0.18693 0.0
O293 O 0.91943 0.12423 0.19082 0.0
O294 O 0.3343 0.65536 0.57163 0.0
Cd295 Cd 0.35515 0.65671 0.55968 0.0
Cd296 Cd 0.33876 0.67898 0.54529 0.0
O297 O 0.32343 0.67747 0.56407 0.0
O298 O 0.36934 0.64382 0.573 0.0
O299 O 0.37178 0.66944 0.57067 0.0
C300 C 0.376 0.6566 0.57741 0.0
C301 C 0.35149 0.70149 0.53624 0.0
C302 C 0.32336 0.66535 0.57272 0.0
C303 C 0.34489 0.64941 0.52745 0.0
O304 O 0.33618 0.66135 0.52907 0.0
O305 O 0.35537 0.64638 0.53759 0.0
O306 O 0.33667 0.69949 0.53411 0.0
O307 O 0.35891 0.69112 0.54436 0.0
O308 O 0.09205 0.59757 0.27581 0.0
Cd309 Cd 0.07544 0.59696 0.29324 0.0
Cd310 Cd 0.09859 0.61321 0.30833 0.0
O311 O 0.10853 0.61452 0.28624 0.0
O312 O 0.05507 0.5929 0.28235 0.0
O313 O 0.06082 0.61543 0.2937 0.0
C314 C 0.05135 0.60724 0.2852 0.0
C315 C 0.09922 0.63331 0.32691 0.0
C316 C 0.10431 0.60593 0.27484 0.0
C317 C 0.09122 0.58028 0.31927 0.0
O318 O 0.10049 0.59188 0.31906 0.0
O319 O 0.0791 0.58018 0.3106 0.0
O320 O 0.11184 0.62681 0.32191 0.0
O321 O 0.08618 0.62932 0.32041 0.0
O322 O 0.41581 0.42296 0.77514 0.0
Cd323 Cd 0.43458 0.42187 0.79018 0.0
Cd324 Cd 0.41215 0.40486 0.80701 0.0
O325 O 0.40081 0.40463 0.78548 0.0
O326 O 0.45353 0.42535 0.77685 0.0
O327 O 0.44886 0.40309 0.78913 0.0
C328 C 0.4575 0.41105 0.7796 0.0
C329 C 0.40701 0.38563 0.82606 0.0
C330 C 0.40357 0.41452 0.77469 0.0
C331 C 0.42249 0.43766 0.81803 0.0
O332 O 0.4131 0.42615 0.81822 0.0
O333 O 0.43365 0.43811 0.80819 0.0
O334 O 0.39628 0.39465 0.82069 0.0
O335 O 0.42064 0.38651 0.81964 0.0
O336 O 0.94133 0.83957 0.65596 0.0
Cd337 Cd 0.9537 0.86019 0.65672 0.0
Cd338 Cd 0.96862 0.84328 0.67838 0.0
O339 O 0.94971 0.82803 0.67744 0.0
O340 O 0.93995 0.87446 0.64442 0.0
O341 O 0.94364 0.87707 0.66986 0.0
C342 C 0.93629 0.88126 0.65735 0.0
C343 C 0.97914 0.85488 0.70095 0.0
C344 C 0.94052 0.8284 0.66573 0.0
C345 C 0.98498 0.84918 0.64764 0.0
O346 O 0.98383 0.8408 0.65987 0.0
O347 O 0.97498 0.85986 0.64495 0.0
O348 O 0.98134 0.84027 0.69783 0.0
O349 O 0.97014 0.86273 0.69167 0.0
O350 O 0.91762 0.19535 0.40447 0.0
Cd351 Cd 0.89618 0.20567 0.40792 0.0
Cd352 Cd 0.91341 0.21933 0.42973 0.0
O353 O 0.92881 0.20066 0.42705 0.0
O354 O 0.88188 0.19184 0.39563 0.0
O355 O 0.88123 0.19327 0.42142 0.0
C356 C 0.87644 0.18667 0.4087 0.0
C357 C 0.90327 0.22921 0.45329 0.0
C358 C 0.92889 0.1935 0.41398 0.0
C359 C 0.90513 0.23767 0.40071 0.0
O360 O 0.91471 0.23552 0.41187 0.0
O361 O 0.89415 0.2279 0.39833 0.0
O362 O 0.91767 0.23147 0.44935 0.0
O363 O 0.89486 0.22038 0.44433 0.0
O364 O 0.57318 0.1711 0.15687 0.0
Cd365 Cd 0.5627 0.14941 0.15813 0.0
Cd366 Cd 0.54662 0.16479 0.18034 0.0
O367 O 0.5643 0.18131 0.17883 0.0
O368 O 0.57707 0.13597 0.14559 0.0
O369 O 0.57428 0.13342 0.17115 0.0
C370 C 0.58144 0.12947 0.15845 0.0
C371 C 0.53689 0.15388 0.20355 0.0
C372 C 0.5731 0.18212 0.16685 0.0
C373 C 0.53012 0.15747 0.15013 0.0
O374 O 0.53082 0.16609 0.16223 0.0
O375 O 0.54099 0.14773 0.14723 0.0
O376 O 0.53453 0.16838 0.20011 0.0
O377 O 0.54554 0.14573 0.19421 0.0
O378 O 0.58819 0.81688 0.90919 0.0
Cd379 Cd 0.60892 0.80471 0.90957 0.0
Cd380 Cd 0.59209 0.78973 0.93195 0.0
O381 O 0.57677 0.80854 0.93079 0.0
O382 O 0.62244 0.81825 0.89613 0.0
O383 O 0.62617 0.81564 0.92155 0.0
C384 C 0.6297 0.82257 0.9086 0.0
C385 C 0.60325 0.77933 0.9548 0.0
C386 C 0.57711 0.8177 0.91905 0.0
C387 C 0.59806 0.77294 0.9014 0.0
O388 O 0.58975 0.77422 0.91365 0.0
O389 O 0.60857 0.78306 0.89838 0.0
O390 O 0.58872 0.77708 0.95141 0.0
O391 O 0.61128 0.78832 0.94565 0.0
O392 O 0.93886 0.16948 0.85562 0.0
Cd393 Cd 0.94754 0.14708 0.85586 0.0
Cd394 Cd 0.96616 0.15973 0.83258 0.0
O395 O 0.95154 0.17905 0.83522 0.0
O396 O 0.93179 0.1351 0.86822 0.0
O397 O 0.93568 0.13119 0.84295 0.0
C398 C 0.9278 0.12812 0.85547 0.0
C399 C 0.97472 0.14987 0.80836 0.0
C400 C 0.94158 0.18065 0.84619 0.0
C401 C 0.98145 0.15018 0.86323 0.0
O402 O 0.98247 0.15692 0.85003 0.0
O403 O 0.96854 0.14428 0.86772 0.0
O404 O 0.9794 0.16322 0.81357 0.0
O405 O 0.96427 0.14251 0.81643 0.0
O406 O 0.58874 0.19365 0.59783 0.0
Cd407 Cd 0.60982 0.20489 0.5993 0.0
Cd408 Cd 0.59432 0.22158 0.57526 0.0
O409 O 0.57742 0.20404 0.57711 0.0
O410 O 0.61998 0.19129 0.61524 0.0
O411 O 0.62836 0.19258 0.59092 0.0
C412 C 0.62914 0.18607 0.60452 0.0
C413 C 0.60554 0.23045 0.55183 0.0
C414 C 0.57745 0.19413 0.58822 0.0
C415 C 0.60141 0.23829 0.60585 0.0
O416 O 0.59423 0.23813 0.59282 0.0
O417 O 0.60946 0.22656 0.61024 0.0
O418 O 0.59115 0.2334 0.55525 0.0
O419 O 0.61333 0.22157 0.56127 0.0
O420 O 0.56857 0.83874 0.35845 0.0
Cd421 Cd 0.55759 0.85997 0.35923 0.0
Cd422 Cd 0.53887 0.8444 0.33772 0.0
O423 O 0.5559 0.82696 0.33927 0.0
O424 O 0.57286 0.87302 0.37114 0.0
O425 O 0.56761 0.87699 0.34616 0.0
C426 C 0.57587 0.88037 0.35835 0.0
C427 C 0.52859 0.85407 0.31409 0.0
C428 C 0.56676 0.82705 0.34948 0.0
C429 C 0.52497 0.85288 0.36938 0.0
O430 O 0.52362 0.8457 0.35641 0.0
O431 O 0.53738 0.86042 0.37263 0.0
O432 O 0.5252 0.84025 0.31911 0.0
O433 O 0.5386 0.86213 0.32205 0.0
O434 O 0.91738 0.81767 0.10209 0.0
Cd435 Cd 0.8962 0.80627 0.10095 0.0
Cd436 Cd 0.91327 0.79095 0.07892 0.0
O437 O 0.9291 0.80931 0.08067 0.0
O438 O 0.88285 0.82001 0.1143 0.0
O439 O 0.87951 0.81785 0.08879 0.0
C440 C 0.87589 0.82464 0.10179 0.0
C441 C 0.90292 0.78054 0.05566 0.0
C442 C 0.92879 0.81825 0.09259 0.0
C443 C 0.90594 0.7743 0.10927 0.0
O444 O 0.91466 0.77546 0.09729 0.0
O445 O 0.89553 0.78458 0.11198 0.0
O446 O 0.91726 0.77811 0.0597 0.0
O447 O 0.89467 0.78972 0.06439 0.0
O448 O 0.6599 0.93781 0.83779 0.0
Cd449 Cd 0.65898 0.94815 0.85955 0.0
Cd450 Cd 0.68187 0.96553 0.8452 0.0
O451 O 0.68151 0.94821 0.8282 0.0
O452 O 0.64565 0.9332 0.8716 0.0
O453 O 0.67075 0.93664 0.87658 0.0
C454 C 0.65794 0.92908 0.87923 0.0
C455 C 0.70463 0.97666 0.85603 0.0
C456 C 0.67014 0.93865 0.82706 0.0
C457 C 0.65028 0.98051 0.8511 0.0
O458 O 0.66312 0.98049 0.84363 0.0
O459 O 0.64693 0.96932 0.86034 0.0
O460 O 0.70051 0.97937 0.84178 0.0
O461 O 0.69628 0.96685 0.86395 0.0
O462 O 0.81952 0.90455 0.59282 0.0
Cd463 Cd 0.80958 0.90652 0.61451 0.0
Cd464 Cd 0.79338 0.9291 0.5987 0.0
O465 O 0.80988 0.92541 0.58109 0.0
O466 O 0.82428 0.89449 0.62803 0.0
O467 O 0.8215 0.92014 0.62972 0.0
C468 C 0.82882 0.9076 0.63391 0.0
C469 C 0.78507 0.95361 0.60789 0.0
C470 C 0.81891 0.91356 0.58103 0.0
C471 C 0.7761 0.89972 0.60888 0.0
O472 O 0.77638 0.91211 0.60067 0.0
O473 O 0.78801 0.89566 0.61681 0.0
O474 O 0.78129 0.94861 0.59416 0.0
O475 O 0.79459 0.94514 0.61602 0.0
O476 O 0.84863 0.07092 0.34075 0.0
Cd477 Cd 0.8474 0.0602 0.3623 0.0
Cd478 Cd 0.82534 0.04439 0.34556 0.0
O479 O 0.82715 0.06234 0.32932 0.0
O480 O 0.86071 0.07436 0.37532 0.0
O481 O 0.8352 0.07228 0.37863 0.0
C482 C 0.84818 0.07918 0.38211 0.0
C483 C 0.80203 0.03394 0.35572 0.0
C484 C 0.83911 0.07121 0.32934 0.0
C485 C 0.85555 0.02788 0.35353 0.0
O486 O 0.84371 0.02889 0.34463 0.0
O487 O 0.85823 0.03842 0.36372 0.0
O488 O 0.80626 0.0314 0.34146 0.0
O489 O 0.81058 0.04328 0.364 0.0
O490 O 0.69299 0.10158 0.08958 0.0
Cd491 Cd 0.70521 0.09995 0.11024 0.0
Cd492 Cd 0.71915 0.07781 0.09286 0.0
O493 O 0.70031 0.07989 0.07769 0.0
O494 O 0.6921 0.11295 0.12451 0.0
O495 O 0.69426 0.08733 0.12698 0.0
C496 C 0.68762 0.10022 0.13121 0.0
C497 C 0.72877 0.05452 0.10374 0.0
C498 C 0.6917 0.09202 0.07827 0.0
C499 C 0.73698 0.10761 0.09943 0.0
O500 O 0.73521 0.09566 0.09076 0.0
O501 O 0.72711 0.11057 0.11018 0.0
O502 O 0.73108 0.05798 0.08922 0.0
O503 O 0.72015 0.06389 0.1119 0.0
O504 O 0.66412 0.06675 0.67336 0.0
Cd505 Cd 0.66281 0.05734 0.65134 0.0
Cd506 Cd 0.68628 0.03856 0.66662 0.0
O507 O 0.68365 0.05447 0.68493 0.0
O508 O 0.64727 0.07204 0.64212 0.0
O509 O 0.67159 0.07087 0.6338 0.0
C510 C 0.65812 0.07765 0.63336 0.0
C511 C 0.71048 0.02918 0.65756 0.0
C512 C 0.67299 0.06485 0.6851 0.0
C513 C 0.65554 0.02339 0.65639 0.0
O514 O 0.66838 0.02265 0.66385 0.0
O515 O 0.65144 0.03595 0.64954 0.0
O516 O 0.70494 0.02511 0.67098 0.0
O517 O 0.70274 0.03946 0.64964 0.0
O518 O 0.69377 0.9069 0.41935 0.0
Cd519 Cd 0.70332 0.90888 0.39749 0.0
Cd520 Cd 0.72015 0.93135 0.41361 0.0
O521 O 0.70384 0.9274 0.4314 0.0
O522 O 0.68852 0.89635 0.38451 0.0
O523 O 0.6908 0.92199 0.3823 0.0
C524 C 0.68361 0.90925 0.3785 0.0
C525 C 0.72883 0.95599 0.40496 0.0
C526 C 0.69466 0.91565 0.43132 0.0
C527 C 0.73687 0.9019 0.40257 0.0
O528 O 0.73685 0.91418 0.41097 0.0
O529 O 0.72481 0.89803 0.39477 0.0
O530 O 0.73272 0.95055 0.41848 0.0
O531 O 0.71902 0.94792 0.39676 0.0
O532 O 0.84659 0.93952 0.17395 0.0
Cd533 Cd 0.84701 0.94982 0.15214 0.0
Cd534 Cd 0.82434 0.96697 0.16683 0.0
O535 O 0.82505 0.94975 0.18387 0.0
O536 O 0.86024 0.93502 0.13983 0.0
O537 O 0.83504 0.93825 0.13528 0.0
C538 C 0.84786 0.93084 0.13236 0.0
C539 C 0.80147 0.97791 0.15615 0.0
C540 C 0.83652 0.94031 0.18487 0.0
C541 C 0.85562 0.98226 0.16036 0.0
O542 O 0.84297 0.9821 0.16815 0.0
O543 O 0.85884 0.97112 0.15102 0.0
O544 O 0.80567 0.98067 0.17037 0.0
O545 O 0.80979 0.96811 0.14819 0.0
O546 O 0.81557 0.09879 0.92217 0.0
Cd547 Cd 0.80347 0.09741 0.90141 0.0
Cd548 Cd 0.78866 0.07577 0.91905 0.0
O549 O 0.80745 0.07752 0.93433 0.0
O550 O 0.81682 0.11058 0.88752 0.0
O551 O 0.81454 0.08503 0.88456 0.0
C552 C 0.82127 0.09797 0.88062 0.0
C553 C 0.77848 0.05263 0.90827 0.0
C554 C 0.81648 0.08936 0.93362 0.0
C555 C 0.77175 0.10588 0.91183 0.0
O556 O 0.77311 0.09408 0.92076 0.0
O557 O 0.7818 0.10841 0.90115 0.0
O558 O 0.77614 0.05628 0.92274 0.0
O559 O 0.78744 0.0617 0.90012 0.0
O560 O 0.8376 0.66007 0.94169 0.0
Cd561 Cd 0.85842 0.66053 0.95373 0.0
Cd562 Cd 0.84136 0.68277 0.96897 0.0
O563 O 0.82598 0.68148 0.95021 0.0
O564 O 0.87181 0.64701 0.94018 0.0
O565 O 0.87569 0.67241 0.94269 0.0
C566 C 0.87915 0.65941 0.93582 0.0
C567 C 0.85198 0.70576 0.9797 0.0
C568 C 0.82638 0.66978 0.941 0.0
C569 C 0.84777 0.65217 0.98553 0.0
O570 O 0.83932 0.66433 0.98434 0.0
O571 O 0.85827 0.64931 0.97536 0.0
O572 O 0.83752 0.70201 0.98183 0.0
O573 O 0.86024 0.6969 0.97064 0.0
O574 O 0.33669 0.84526 0.06502 0.0
Cd575 Cd 0.35724 0.84532 0.05251 0.0
Cd576 Cd 0.33993 0.82243 0.03808 0.0
O577 O 0.3249 0.82373 0.0571 0.0
O578 O 0.36857 0.86167 0.06463 0.0
O579 O 0.37602 0.83704 0.06455 0.0
C580 C 0.37756 0.85098 0.07014 0.0
C581 C 0.35234 0.79996 0.02855 0.0
C582 C 0.32553 0.83553 0.06614 0.0
C583 C 0.34559 0.85238 0.02053 0.0
O584 O 0.33709 0.84028 0.02216 0.0
O585 O 0.35624 0.85549 0.03045 0.0
O586 O 0.33752 0.80213 0.02661 0.0
O587 O 0.35996 0.81016 0.03673 0.0
O588 O 0.90899 0.58797 0.82089 0.0
Cd589 Cd 0.90921 0.60979 0.81064 0.0
Cd590 Cd 0.9319 0.59505 0.79396 0.0
O591 O 0.93098 0.57829 0.81149 0.0
O592 O 0.89591 0.62234 0.82519 0.0
O593 O 0.92129 0.62634 0.82253 0.0
C594 C 0.90837 0.62949 0.8297 0.0
C595 C 0.9547 0.60639 0.78358 0.0
C596 C 0.91917 0.57717 0.8205 0.0
C597 C 0.90113 0.60151 0.77807 0.0
O598 O 0.91355 0.59338 0.77853 0.0
O599 O 0.898 0.61109 0.78904 0.0
O600 O 0.95138 0.59185 0.78126 0.0
O601 O 0.94552 0.61433 0.79261 0.0
O602 O 0.17771 0.17091 0.56555 0.0
Cd603 Cd 0.15632 0.16549 0.55625 0.0
Cd604 Cd 0.17034 0.19 0.53565 0.0
O605 O 0.18885 0.18948 0.5515 0.0
O606 O 0.15196 0.14838 0.57134 0.0
O607 O 0.13729 0.16948 0.57019 0.0
C608 C 0.14081 0.15657 0.57714 0.0
C609 C 0.15964 0.21318 0.52547 0.0
C610 C 0.18908 0.18009 0.56303 0.0
C611 C 0.1624 0.15755 0.52237 0.0
O612 O 0.16844 0.17107 0.52083 0.0
O613 O 0.15629 0.15328 0.53526 0.0
O614 O 0.17324 0.20824 0.52123 0.0
O615 O 0.15242 0.20541 0.53625 0.0
O616 O 0.09359 0.92726 0.81835 0.0
Cd617 Cd 0.09898 0.90596 0.80884 0.0
Cd618 Cd 0.07596 0.91946 0.78703 0.0
O619 O 0.07564 0.93786 0.8031 0.0
O620 O 0.11467 0.89928 0.82469 0.0
O621 O 0.09239 0.88683 0.82153 0.0
C622 C 0.1052 0.88856 0.8293 0.0
C623 C 0.05329 0.90882 0.77551 0.0
C624 C 0.08439 0.93843 0.81514 0.0
C625 C 0.1092 0.91247 0.77566 0.0
O626 O 0.09564 0.91802 0.77313 0.0
O627 O 0.11271 0.90649 0.78883 0.0
O628 O 0.05843 0.92249 0.77173 0.0
O629 O 0.06055 0.90145 0.78653 0.0
O630 O 0.6707 0.3532 0.44227 0.0
Cd631 Cd 0.65017 0.35007 0.45438 0.0
Cd632 Cd 0.66796 0.32856 0.46751 0.0
O633 O 0.68267 0.33122 0.44835 0.0
O634 O 0.63503 0.36221 0.44145 0.0
O635 O 0.63439 0.33643 0.4433 0.0
C636 C 0.62929 0.34907 0.43678 0.0
C637 C 0.65625 0.30551 0.47655 0.0
C638 C 0.68203 0.34379 0.44039 0.0
C639 C 0.66085 0.3574 0.48617 0.0
O640 O 0.67021 0.34607 0.4839 0.0
O641 O 0.64972 0.35991 0.47662 0.0
O642 O 0.67105 0.308 0.47835 0.0
O643 O 0.64829 0.3157 0.46871 0.0
O644 O 0.90616 0.41864 0.69002 0.0
Cd645 Cd 0.90692 0.39672 0.69967 0.0
Cd646 Cd 0.92993 0.41225 0.71717 0.0
O647 O 0.92662 0.43011 0.70086 0.0
O648 O 0.89408 0.38416 0.6847 0.0
O649 O 0.91953 0.38084 0.68746 0.0
C650 C 0.90677 0.37749 0.6801 0.0
C651 C 0.95435 0.40391 0.72668 0.0
C652 C 0.91522 0.43036 0.69127 0.0
C653 C 0.89984 0.40193 0.73337 0.0
O654 O 0.91245 0.40981 0.73356 0.0
O655 O 0.89574 0.3945 0.72113 0.0
O656 O 0.94871 0.41744 0.7302 0.0
O657 O 0.94663 0.39549 0.71677 0.0
O658 O 0.60199 0.58899 0.1915 0.0
Cd659 Cd 0.60301 0.61137 0.20013 0.0
Cd660 Cd 0.57981 0.5982 0.21992 0.0
O661 O 0.58215 0.57913 0.20486 0.0
O662 O 0.61596 0.62256 0.18422 0.0
O663 O 0.59092 0.62764 0.18789 0.0
C664 C 0.60358 0.62999 0.18 0.0
C665 C 0.55576 0.60691 0.23025 0.0
C666 C 0.59271 0.57776 0.19443 0.0
C667 C 0.61117 0.60796 0.23397 0.0
O668 O 0.59799 0.60124 0.23538 0.0
O669 O 0.61532 0.61388 0.22096 0.0
O670 O 0.56178 0.59369 0.23426 0.0
O671 O 0.56287 0.6148 0.21949 0.0
O672 O 0.56502 0.66903 0.8497 0.0
Cd673 Cd 0.55616 0.64671 0.84983 0.0
Cd674 Cd 0.53683 0.66066 0.82709 0.0
O675 O 0.55193 0.67963 0.83008 0.0
O676 O 0.57177 0.63507 0.86266 0.0
O677 O 0.56843 0.63073 0.83741 0.0
C678 C 0.57611 0.62797 0.85011 0.0
C679 C 0.52718 0.65199 0.80276 0.0
C680 C 0.56229 0.68058 0.84076 0.0
C681 C 0.52235 0.65 0.85789 0.0
O682 O 0.52109 0.65724 0.84498 0.0
O683 O 0.53527 0.64382 0.86187 0.0
O684 O 0.52292 0.66516 0.80874 0.0
O685 O 0.53782 0.64416 0.81009 0.0
O686 O 0.59019 0.31968 0.1019 0.0
Cd687 Cd 0.61158 0.30889 0.09935 0.0
Cd688 Cd 0.59429 0.29381 0.07785 0.0
O689 O 0.5784 0.31194 0.08032 0.0
O690 O 0.62543 0.3226 0.11224 0.0
O691 O 0.62728 0.32113 0.08652 0.0
C692 C 0.63155 0.32768 0.09945 0.0
C693 C 0.60499 0.28434 0.05448 0.0
C694 C 0.57864 0.32036 0.09259 0.0
C695 C 0.60296 0.27639 0.10704 0.0
O696 O 0.59339 0.27778 0.09576 0.0
O697 O 0.6134 0.28676 0.10936 0.0
O698 O 0.59046 0.28209 0.0579 0.0
O699 O 0.61324 0.29286 0.06389 0.0
O700 O 0.93937 0.34118 0.34862 0.0
Cd701 Cd 0.94998 0.36283 0.34713 0.0
Cd702 Cd 0.96623 0.34656 0.32533 0.0
O703 O 0.94875 0.32989 0.32739 0.0
O704 O 0.93576 0.37623 0.35985 0.0
O705 O 0.93833 0.37892 0.33428 0.0
C706 C 0.93133 0.38284 0.34708 0.0
C707 C 0.97632 0.35636 0.3017 0.0
C708 C 0.93965 0.3297 0.33918 0.0
C709 C 0.98248 0.35501 0.35551 0.0
O710 O 0.98187 0.34616 0.34359 0.0
O711 O 0.97156 0.36474 0.3582 0.0
O712 O 0.97918 0.34227 0.30628 0.0
O713 O 0.9669 0.36466 0.31012 0.0
O714 O 0.9162 0.69339 0.60208 0.0
Cd715 Cd 0.8944 0.70331 0.60176 0.0
Cd716 Cd 0.90877 0.72069 0.57828 0.0
O717 O 0.92679 0.70459 0.58134 0.0
O718 O 0.88199 0.68873 0.6151 0.0
O719 O 0.87803 0.69123 0.58969 0.0
C720 C 0.87491 0.6841 0.60264 0.0
C721 C 0.8993 0.72902 0.55386 0.0
C722 C 0.92756 0.69491 0.59264 0.0
C723 C 0.8998 0.73719 0.60842 0.0
O724 O 0.90709 0.73751 0.59546 0.0
O725 O 0.89272 0.72486 0.61283 0.0
O726 O 0.91318 0.7326 0.55854 0.0
O727 O 0.89106 0.71988 0.56264 0.0
O728 O 0.56646 0.34381 0.65533 0.0
Cd729 Cd 0.55649 0.36552 0.65659 0.0
Cd730 Cd 0.5396 0.34985 0.67913 0.0
O731 O 0.55603 0.33208 0.67584 0.0
O732 O 0.57138 0.37861 0.64426 0.0
O733 O 0.56831 0.3812 0.66978 0.0
C734 C 0.57579 0.38493 0.65719 0.0
C735 C 0.53077 0.35926 0.70341 0.0
C736 C 0.56549 0.33202 0.66431 0.0
C737 C 0.52312 0.35976 0.64919 0.0
O738 O 0.52303 0.35182 0.66176 0.0
O739 O 0.53518 0.36752 0.64522 0.0
O740 O 0.52696 0.34555 0.6984 0.0
O741 O 0.54059 0.36725 0.69513 0.0
O742 O 0.92361 0.32101 0.91098 0.0
Cd743 Cd 0.90264 0.30916 0.91194 0.0
Cd744 Cd 0.92004 0.29393 0.93391 0.0
O745 O 0.93549 0.3126 0.93228 0.0
O746 O 0.88918 0.32255 0.89833 0.0
O747 O 0.8856 0.32055 0.92382 0.0
C748 C 0.88199 0.32715 0.91072 0.0
C749 C 0.90947 0.2834 0.95697 0.0
C750 C 0.93498 0.32172 0.92052 0.0
C751 C 0.91263 0.27702 0.90386 0.0
O752 O 0.92161 0.27835 0.91562 0.0
O753 O 0.90215 0.28726 0.90123 0.0
O754 O 0.92393 0.28124 0.95322 0.0
O755 O 0.90123 0.29245 0.94809 0.0
O756 O 0.94012 0.67171 0.16062 0.0
Cd757 Cd 0.95059 0.65016 0.16038 0.0
Cd758 Cd 0.96794 0.66433 0.18385 0.0
O759 O 0.95147 0.68215 0.18136 0.0
O760 O 0.93614 0.63754 0.14711 0.0
O761 O 0.93924 0.63326 0.17241 0.0
C762 C 0.93197 0.63012 0.15954 0.0
C763 C 0.97643 0.65409 0.2079 0.0
C764 C 0.94158 0.68293 0.17024 0.0
C765 C 0.98426 0.65641 0.15337 0.0
O766 O 0.98464 0.66338 0.16651 0.0
O767 O 0.97199 0.64924 0.14895 0.0
O768 O 0.97983 0.66818 0.20372 0.0
O769 O 0.96737 0.64606 0.19884 0.0
O770 O 0.59136 0.69023 0.41251 0.0
Cd771 Cd 0.613 0.70053 0.41183 0.0
Cd772 Cd 0.59914 0.71821 0.43556 0.0
O773 O 0.58116 0.70186 0.43321 0.0
O774 O 0.6251 0.68605 0.3981 0.0
O775 O 0.63016 0.68894 0.42327 0.0
C776 C 0.63288 0.68177 0.41026 0.0
C777 C 0.60937 0.72713 0.45948 0.0
C778 C 0.58022 0.69188 0.42217 0.0
C779 C 0.60688 0.73426 0.40486 0.0
O780 O 0.60014 0.73476 0.4181 0.0
O781 O 0.61385 0.72191 0.40034 0.0
O782 O 0.59529 0.73043 0.45524 0.0
O783 O 0.61738 0.71788 0.4506 0.0
O784 O 0.84429 0.5245 0.66557 0.0
Cd785 Cd 0.82696 0.54114 0.6669 0.0
Cd786 Cd 0.85006 0.55871 0.65286 0.0
O787 O 0.86154 0.53736 0.65125 0.0
O788 O 0.8072 0.52906 0.6706 0.0
O789 O 0.81201 0.54181 0.64863 0.0
C790 C 0.80305 0.53254 0.65653 0.0
C791 C 0.84978 0.57746 0.63296 0.0
C792 C 0.85727 0.52498 0.65833 0.0
C793 C 0.8406 0.56724 0.68584 0.0
O794 O 0.85017 0.56887 0.6746 0.0
O795 O 0.82946 0.55738 0.68492 0.0
O796 O 0.86255 0.57356 0.63991 0.0
O797 O 0.83719 0.5699 0.63651 0.0
O798 O 0.69389 0.60138 0.91863 0.0
Cd799 Cd 0.70314 0.60204 0.89649 0.0
Cd800 Cd 0.72236 0.57915 0.91011 0.0
O801 O 0.70705 0.58167 0.92895 0.0
O802 O 0.68757 0.61482 0.88474 0.0
O803 O 0.69138 0.5897 0.88006 0.0
C804 C 0.68356 0.60232 0.87736 0.0
C805 C 0.73201 0.55493 0.90114 0.0
C806 C 0.69658 0.59223 0.93001 0.0
C807 C 0.73683 0.61032 0.90051 0.0
O808 O 0.73812 0.59717 0.90733 0.0
O809 O 0.72393 0.61438 0.89432 0.0
O810 O 0.73617 0.5607 0.91444 0.0
O811 O 0.72152 0.56245 0.89329 0.0
O812 O 0.66326 0.48201 0.16998 0.0
Cd813 Cd 0.68141 0.46634 0.16791 0.0
Cd814 Cd 0.65932 0.4516 0.1509 0.0
O815 O 0.64846 0.47338 0.1507 0.0
O816 O 0.7009 0.4788 0.17167 0.0
O817 O 0.69538 0.46783 0.14892 0.0
C818 C 0.70447 0.47669 0.15715 0.0
C819 C 0.65906 0.43383 0.13004 0.0
C820 C 0.65129 0.48347 0.16129 0.0
C821 C 0.6679 0.43871 0.18296 0.0
O822 O 0.65815 0.43966 0.17178 0.0
O823 O 0.67988 0.44755 0.18322 0.0
O824 O 0.64637 0.43809 0.13691 0.0
O825 O 0.6719 0.44069 0.13408 0.0
O826 O 0.81735 0.40961 0.41834 0.0
Cd827 Cd 0.80701 0.41053 0.39669 0.0
Cd828 Cd 0.79037 0.43369 0.41128 0.0
O829 O 0.80664 0.43048 0.42914 0.0
O830 O 0.82134 0.39785 0.38338 0.0
O831 O 0.81846 0.42337 0.38047 0.0
C832 C 0.82558 0.41062 0.37661 0.0
C833 C 0.78275 0.45797 0.40097 0.0
C834 C 0.81612 0.41901 0.42978 0.0
C835 C 0.77321 0.40402 0.40242 0.0
O836 O 0.77319 0.41684 0.40996 0.0
O837 O 0.78537 0.39965 0.39503 0.0
O838 O 0.77907 0.45391 0.41502 0.0
O839 O 0.79164 0.44866 0.39305 0.0
O840 O 0.84742 0.48228 0.84113 0.0
Cd841 Cd 0.82892 0.46687 0.84187 0.0
Cd842 Cd 0.85044 0.45093 0.85922 0.0
O843 O 0.8613 0.47271 0.86065 0.0
O844 O 0.80987 0.47985 0.83767 0.0
O845 O 0.81414 0.46804 0.86026 0.0
C846 C 0.80561 0.47735 0.85194 0.0
C847 C 0.85116 0.43236 0.87941 0.0
C848 C 0.859 0.48324 0.85039 0.0
C849 C 0.84248 0.43954 0.82627 0.0
O850 O 0.85182 0.43984 0.83784 0.0
O851 O 0.83072 0.44865 0.82592 0.0
O852 O 0.8637 0.43707 0.87255 0.0
O853 O 0.83817 0.43909 0.8757 0.0
O854 O 0.8154 0.60083 0.08944 0.0
Cd855 Cd 0.80616 0.60139 0.11158 0.0
Cd856 Cd 0.78696 0.57852 0.09786 0.0
O857 O 0.80222 0.58118 0.07899 0.0
O858 O 0.82164 0.6143 0.12334 0.0
O859 O 0.81801 0.58914 0.12801 0.0
C860 C 0.82572 0.60184 0.13074 0.0
C861 C 0.77744 0.55425 0.10682 0.0
C862 C 0.81268 0.59175 0.07799 0.0
C863 C 0.77244 0.60956 0.10762 0.0
O864 O 0.77115 0.59644 0.10075 0.0
O865 O 0.78534 0.61364 0.11381 0.0
O866 O 0.77319 0.56001 0.09356 0.0
O867 O 0.78795 0.56179 0.11463 0.0
O868 O 0.66917 0.52626 0.34204 0.0
Cd869 Cd 0.68575 0.54373 0.34177 0.0
Cd870 Cd 0.66274 0.55878 0.35798 0.0
O871 O 0.65267 0.5367 0.35894 0.0
O872 O 0.70625 0.53298 0.33815 0.0
O873 O 0.69991 0.54421 0.3606 0.0
C874 C 0.70961 0.5358 0.3526 0.0
C875 C 0.66262 0.57672 0.37863 0.0
C876 C 0.65688 0.5253 0.35035 0.0
C877 C 0.67052 0.57032 0.32538 0.0
O878 O 0.66115 0.57012 0.3369 0.0
O879 O 0.6824 0.56134 0.32519 0.0
O880 O 0.64985 0.57219 0.37205 0.0
O881 O 0.6755 0.5701 0.37434 0.0
O882 O 0.69326 0.40746 0.59079 0.0
Cd883 Cd 0.70323 0.40792 0.61258 0.0
Cd884 Cd 0.72043 0.43113 0.59855 0.0
O885 O 0.70428 0.42845 0.58051 0.0
O886 O 0.68825 0.39555 0.6255 0.0
O887 O 0.69174 0.42099 0.62856 0.0
C888 C 0.68411 0.40844 0.63212 0.0
C889 C 0.72862 0.45522 0.6089 0.0
C890 C 0.69469 0.41707 0.57956 0.0
C891 C 0.73691 0.40092 0.60704 0.0
O892 O 0.73721 0.4139 0.59978 0.0
O893 O 0.72464 0.39659 0.61427 0.0
O894 O 0.73224 0.45107 0.59486 0.0
O895 O 0.7195 0.4461 0.6168 0.0
O896 O 0.67188 0.85199 0.57027 0.0
Cd897 Cd 0.65097 0.85065 0.55872 0.0
Cd898 Cd 0.6672 0.82769 0.54352 0.0
O899 O 0.68356 0.83076 0.56141 0.0
O900 O 0.63692 0.86338 0.57232 0.0
O901 O 0.63445 0.83778 0.56971 0.0
C902 C 0.63027 0.85056 0.57661 0.0
C903 C 0.65658 0.80379 0.53519 0.0
C904 C 0.68334 0.84257 0.57051 0.0
C905 C 0.65929 0.85715 0.52556 0.0
O906 O 0.66728 0.84464 0.52636 0.0
O907 O 0.65056 0.86127 0.5369 0.0
O908 O 0.67102 0.8073 0.53255 0.0
O909 O 0.64842 0.8134 0.54354 0.0
O910 O 0.17297 0.65736 0.43836 0.0
Cd911 Cd 0.15208 0.65911 0.45026 0.0
Cd912 Cd 0.16932 0.68066 0.46502 0.0
O913 O 0.18487 0.67877 0.44647 0.0
O914 O 0.13761 0.64672 0.43675 0.0
O915 O 0.13573 0.67235 0.43948 0.0
C916 C 0.13118 0.65969 0.43261 0.0
C917 C 0.1582 0.70373 0.47485 0.0
C918 C 0.1844 0.66684 0.43757 0.0
C919 C 0.16183 0.65097 0.48234 0.0
O920 O 0.17091 0.66265 0.48091 0.0
O921 O 0.15133 0.64837 0.47212 0.0
O922 O 0.17271 0.70034 0.47728 0.0
O923 O 0.15023 0.69447 0.46592 0.0
O924 O 0.5992 0.9159 0.73261 0.0
Cd925 Cd 0.58092 0.91517 0.71698 0.0
Cd926 Cd 0.60218 0.89779 0.70164 0.0
O927 O 0.613 0.89618 0.72338 0.0
O928 O 0.56168 0.91938 0.72966 0.0
O929 O 0.56612 0.89678 0.7179 0.0
C930 C 0.55745 0.90511 0.72709 0.0
C931 C 0.60175 0.87765 0.68306 0.0
C932 C 0.61071 0.9066 0.73377 0.0
C933 C 0.59516 0.93076 0.69011 0.0
O934 O 0.60438 0.91912 0.69062 0.0
O935 O 0.58312 0.93115 0.69886 0.0
O936 O 0.61467 0.88387 0.68766 0.0
O937 O 0.58902 0.88194 0.68996 0.0
O938 O 0.33627 0.34658 0.94305 0.0
Cd939 Cd 0.35767 0.34994 0.95347 0.0
Cd940 Cd 0.34349 0.32686 0.97249 0.0
O941 O 0.32655 0.32595 0.95515 0.0
O942 O 0.36605 0.36587 0.93864 0.0
O943 O 0.3766 0.34254 0.94095 0.0
C944 C 0.37607 0.3558 0.93377 0.0
C945 C 0.35543 0.30481 0.98385 0.0
C946 C 0.32557 0.33641 0.9446 0.0
C947 C 0.34807 0.35953 0.98567 0.0
O948 O 0.34134 0.34628 0.9866 0.0
O949 O 0.35698 0.36271 0.97417 0.0
O950 O 0.34091 0.30804 0.98634 0.0
O951 O 0.36307 0.31373 0.97433 0.0
O952 O 0.41141 0.58953 0.73222 0.0
Cd953 Cd 0.42953 0.5912 0.71644 0.0
Cd954 Cd 0.40737 0.60819 0.70147 0.0
O955 O 0.39655 0.60861 0.7233 0.0
O956 O 0.44904 0.58743 0.72885 0.0
O957 O 0.44372 0.61007 0.71759 0.0
C958 C 0.45277 0.60188 0.7265 0.0
C959 C 0.40665 0.62872 0.68332 0.0
C960 C 0.39943 0.59821 0.73355 0.0
C961 C 0.41586 0.5759 0.689 0.0
O962 O 0.40624 0.58718 0.68976 0.0
O963 O 0.42778 0.57559 0.69791 0.0
O964 O 0.39409 0.62179 0.68791 0.0
O965 O 0.41961 0.62497 0.69008 0.0
O966 O 0.84101 0.15788 0.06582 0.0
Cd967 Cd 0.86303 0.15715 0.05634 0.0
Cd968 Cd 0.84941 0.18036 0.03758 0.0
O969 O 0.8307 0.17785 0.05305 0.0
O970 O 0.87464 0.14389 0.07161 0.0
O971 O 0.87967 0.16902 0.06829 0.0
C972 C 0.88219 0.15621 0.07587 0.0
C973 C 0.85877 0.20461 0.02839 0.0
C974 C 0.82968 0.16715 0.06339 0.0
C975 C 0.85848 0.14931 0.0226 0.0
O976 O 0.85176 0.16252 0.02154 0.0
O977 O 0.86484 0.14507 0.03536 0.0
O978 O 0.84537 0.19915 0.02414 0.0
O979 O 0.86652 0.19674 0.03869 0.0
O980 O 0.59817 0.09489 0.77351 0.0
Cd981 Cd 0.57948 0.09259 0.78855 0.0
Cd982 Cd 0.60188 0.10566 0.80889 0.0
O983 O 0.61522 0.10708 0.78865 0.0
O984 O 0.56136 0.08887 0.77411 0.0
O985 O 0.56333 0.10993 0.78889 0.0
C986 C 0.55589 0.10233 0.77814 0.0
C987 C 0.60236 0.12512 0.82819 0.0
C988 C 0.61151 0.10114 0.77551 0.0
C989 C 0.59076 0.07247 0.81509 0.0
O990 O 0.59995 0.08368 0.81832 0.0
O991 O 0.5809 0.0737 0.80397 0.0
O992 O 0.6146 0.11707 0.82479 0.0
O993 O 0.5899 0.12282 0.81998 0.0
O994 O 0.91012 0.91831 0.27746 0.0
Cd995 Cd 0.92861 0.9178 0.29284 0.0
Cd996 Cd 0.90703 0.90213 0.30973 0.0
O997 O 0.89537 0.90021 0.28844 0.0
O998 O 0.94758 0.92148 0.27959 0.0
O999 O 0.94338 0.89937 0.2923 0.0
C1000 C 0.95188 0.90735 0.28265 0.0
C1001 C 0.90777 0.88208 0.32836 0.0
C1002 C 0.89802 0.90968 0.27727 0.0
C1003 C 0.91568 0.9352 0.31957 0.0
O1004 O 0.90608 0.92386 0.32026 0.0
O1005 O 0.92719 0.93472 0.31014 0.0
O1006 O 0.89485 0.88872 0.32444 0.0
O1007 O 0.92029 0.88604 0.3209 0.0
O1008 O 0.4459 0.32965 0.1693 0.0
Cd1009 Cd 0.45303 0.3521 0.16462 0.0
Cd1010 Cd 0.47544 0.34015 0.18859 0.0
O1011 O 0.46184 0.32003 0.18719 0.0
O1012 O 0.43714 0.35589 0.1481 0.0
O1013 O 0.43781 0.36981 0.16975 0.0
C1014 C 0.43083 0.36632 0.15685 0.0
C1015 C 0.48547 0.34953 0.21247 0.0
C1016 C 0.45019 0.3185 0.17808 0.0
C1017 C 0.48734 0.35025 0.15621 0.0
O1018 O 0.48976 0.34443 0.16969 0.0
O1019 O 0.47372 0.35462 0.1521 0.0
O1020 O 0.49057 0.33684 0.20615 0.0
O1021 O 0.47401 0.35659 0.20561 0.0
O1022 O 0.42166 0.69022 0.90779 0.0
Cd1023 Cd 0.40128 0.70288 0.90924 0.0
Cd1024 Cd 0.41828 0.71648 0.93152 0.0
O1025 O 0.43294 0.69719 0.9299 0.0
O1026 O 0.38676 0.69008 0.89619 0.0
O1027 O 0.38431 0.69228 0.92182 0.0
C1028 C 0.37999 0.68571 0.90891 0.0
C1029 C 0.40588 0.72586 0.95407 0.0
C1030 C 0.43259 0.68864 0.91772 0.0
C1031 C 0.41282 0.73458 0.90194 0.0
O1032 O 0.42142 0.73261 0.9139 0.0
O1033 O 0.40191 0.72491 0.89889 0.0
O1034 O 0.42074 0.7276 0.95202 0.0
O1035 O 0.3982 0.71794 0.94371 0.0
O1036 O 0.0638 0.67064 0.65875 0.0
Cd1037 Cd 0.05176 0.64993 0.66093 0.0
Cd1038 Cd 0.03791 0.66742 0.68293 0.0
O1039 O 0.05685 0.68249 0.68057 0.0
O1040 O 0.06468 0.6356 0.64779 0.0
O1041 O 0.06311 0.63342 0.67348 0.0
C1042 C 0.06949 0.62909 0.66049 0.0
C1043 C 0.02862 0.65602 0.70608 0.0
C1044 C 0.06522 0.68197 0.66827 0.0
C1045 C 0.01981 0.6605 0.65359 0.0
O1046 O 0.0217 0.66955 0.66525 0.0
O1047 O 0.02964 0.64967 0.65084 0.0
O1048 O 0.02676 0.67075 0.70331 0.0
O1049 O 0.03662 0.64793 0.69611 0.0
O1050 O 0.08519 0.322 0.40618 0.0
Cd1051 Cd 0.10642 0.31061 0.40662 0.0
Cd1052 Cd 0.09144 0.29551 0.42949 0.0
O1053 O 0.0751 0.31334 0.4283 0.0
O1054 O 0.12012 0.32453 0.39387 0.0
O1055 O 0.1232 0.32132 0.41934 0.0
C1056 C 0.12711 0.32848 0.40662 0.0
C1057 C 0.10342 0.2862 0.45234 0.0
C1058 C 0.07439 0.32224 0.41639 0.0
C1059 C 0.097 0.27826 0.39924 0.0
O1060 O 0.08916 0.27934 0.41182 0.0
O1061 O 0.10679 0.28888 0.3956 0.0
O1062 O 0.08891 0.28334 0.44934 0.0
O1063 O 0.11093 0.29519 0.44277 0.0
O1064 O 0.44512 0.67018 0.35418 0.0
Cd1065 Cd 0.45631 0.64894 0.35245 0.0
Cd1066 Cd 0.47157 0.66615 0.33067 0.0
O1067 O 0.45352 0.6822 0.33294 0.0
O1068 O 0.44244 0.63522 0.36531 0.0
O1069 O 0.44471 0.6327 0.33971 0.0
C1070 C 0.43783 0.62869 0.35255 0.0
C1071 C 0.4813 0.65599 0.30706 0.0
C1072 C 0.44467 0.68179 0.34491 0.0
C1073 C 0.48847 0.65815 0.36069 0.0
O1074 O 0.48737 0.66704 0.34882 0.0
O1075 O 0.47803 0.64787 0.36336 0.0
O1076 O 0.48402 0.67025 0.31123 0.0
O1077 O 0.47224 0.64771 0.31591 0.0
O1078 O 0.08862 0.69352 0.10481 0.0
Cd1079 Cd 0.10994 0.70438 0.1044 0.0
Cd1080 Cd 0.0944 0.72145 0.08216 0.0
O1081 O 0.07692 0.70453 0.08461 0.0
O1082 O 0.12331 0.68959 0.11647 0.0
O1083 O 0.12631 0.69368 0.09113 0.0
C1084 C 0.13008 0.68591 0.10353 0.0
C1085 C 0.10467 0.73057 0.05835 0.0
C1086 C 0.07695 0.69456 0.0957 0.0
C1087 C 0.10307 0.73737 0.11274 0.0
O1088 O 0.09555 0.73772 0.09993 0.0
O1089 O 0.11092 0.72533 0.11657 0.0
O1090 O 0.09075 0.73424 0.06287 0.0
O1091 O 0.11241 0.72078 0.06687 0.0
O1092 O 0.0666 0.3412 0.85213 0.0
Cd1093 Cd 0.05838 0.36374 0.85223 0.0
Cd1094 Cd 0.03845 0.3503 0.82959 0.0
O1095 O 0.05287 0.33092 0.83277 0.0
O1096 O 0.07448 0.37516 0.86471 0.0
O1097 O 0.07082 0.37939 0.8395 0.0
C1098 C 0.07877 0.38208 0.85205 0.0
C1099 C 0.02886 0.35832 0.805 0.0
C1100 C 0.06329 0.32969 0.84335 0.0
C1101 C 0.02452 0.36127 0.86057 0.0
O1102 O 0.0229 0.3543 0.84753 0.0
O1103 O 0.03768 0.36697 0.86454 0.0
O1104 O 0.02434 0.34548 0.81148 0.0
O1105 O 0.03963 0.36625 0.81206 0.0
O1106 O 0.4202 0.31915 0.60131 0.0
Cd1107 Cd 0.39931 0.30743 0.60096 0.0
Cd1108 Cd 0.41553 0.29153 0.57784 0.0
O1109 O 0.43218 0.30917 0.58073 0.0
O1110 O 0.38577 0.32112 0.61411 0.0
O1111 O 0.38215 0.31809 0.58871 0.0
C1112 C 0.37846 0.3251 0.60157 0.0
C1113 C 0.4061 0.28253 0.55362 0.0
C1114 C 0.43179 0.31888 0.59204 0.0
C1115 C 0.40744 0.27432 0.60793 0.0
O1116 O 0.41496 0.27468 0.59511 0.0
O1117 O 0.39922 0.28595 0.61221 0.0
O1118 O 0.4201 0.27944 0.55829 0.0
O1119 O 0.39773 0.29169 0.56227 0.0
O1120 O 0.15561 0.44263 0.3386 0.0
Cd1121 Cd 0.15704 0.45323 0.36005 0.0
Cd1122 Cd 0.17968 0.46953 0.34383 0.0
O1123 O 0.17615 0.45261 0.32655 0.0
O1124 O 0.14428 0.43904 0.37347 0.0
O1125 O 0.16985 0.44152 0.37611 0.0
C1126 C 0.15705 0.43451 0.38001 0.0
C1127 C 0.20412 0.47798 0.35318 0.0
C1128 C 0.16458 0.4432 0.32677 0.0
C1129 C 0.15017 0.4867 0.35368 0.0
O1130 O 0.1626 0.48646 0.34552 0.0
O1131 O 0.14617 0.47483 0.36171 0.0
O1132 O 0.19928 0.4816 0.33935 0.0
O1133 O 0.19553 0.46858 0.36135 0.0
O1134 O 0.31231 0.41664 0.08178 0.0
Cd1135 Cd 0.30397 0.41138 0.10365 0.0
Cd1136 Cd 0.28243 0.4359 0.09143 0.0
O1137 O 0.29687 0.43483 0.07188 0.0
O1138 O 0.3192 0.39435 0.10782 0.0
O1139 O 0.31845 0.41567 0.1222 0.0
C1140 C 0.32524 0.40264 0.11879 0.0
C1141 C 0.27259 0.45967 0.10127 0.0
C1142 C 0.30856 0.42572 0.07067 0.0
C1143 C 0.26968 0.4034 0.09975 0.0
O1144 O 0.2676 0.41712 0.09439 0.0
O1145 O 0.28306 0.39902 0.10457 0.0
O1146 O 0.26782 0.45392 0.08818 0.0
O1147 O 0.28361 0.45229 0.10851 0.0
O1148 O 0.35003 0.56849 0.83902 0.0
Cd1149 Cd 0.35121 0.5595 0.86123 0.0
Cd1150 Cd 0.32875 0.53929 0.848 0.0
O1151 O 0.33042 0.55479 0.82921 0.0
O1152 O 0.36416 0.57537 0.87247 0.0
O1153 O 0.33922 0.57141 0.87785 0.0
C1154 C 0.35186 0.57936 0.88015 0.0
C1155 C 0.30511 0.52905 0.85777 0.0
C1156 C 0.34073 0.56548 0.82785 0.0
C1157 C 0.36043 0.52594 0.85699 0.0
O1158 O 0.34732 0.52412 0.85022 0.0
O1159 O 0.36401 0.53897 0.86326 0.0
O1160 O 0.31016 0.52544 0.84404 0.0
O1161 O 0.31298 0.53926 0.86568 0.0
O1162 O 0.18783 0.60174 0.58962 0.0
Cd1163 Cd 0.19619 0.60181 0.61215 0.0
Cd1164 Cd 0.21509 0.57827 0.59902 0.0
O1165 O 0.20046 0.58144 0.57979 0.0
O1166 O 0.18053 0.61465 0.62376 0.0
O1167 O 0.18367 0.58934 0.62791 0.0
C1168 C 0.17606 0.60207 0.63074 0.0
C1169 C 0.22431 0.5537 0.60739 0.0
C1170 C 0.19056 0.59247 0.57833 0.0
C1171 C 0.2303 0.60879 0.60954 0.0
O1172 O 0.23127 0.59572 0.60254 0.0
O1173 O 0.21737 0.61331 0.61535 0.0
O1174 O 0.22865 0.55975 0.59429 0.0
O1175 O 0.21382 0.56111 0.61535 0.0
O1176 O 0.1512 0.57015 0.16829 0.0
Cd1177 Cd 0.15312 0.55953 0.14691 0.0
Cd1178 Cd 0.17571 0.544 0.16284 0.0
O1179 O 0.17228 0.56102 0.18 0.0
O1180 O 0.14136 0.57391 0.13285 0.0
O1181 O 0.16698 0.57082 0.13149 0.0
C1182 C 0.15457 0.57816 0.12699 0.0
C1183 C 0.19991 0.5357 0.15302 0.0
C1184 C 0.16039 0.56999 0.17995 0.0
C1185 C 0.14647 0.52621 0.15345 0.0
O1186 O 0.15885 0.52681 0.16165 0.0
O1187 O 0.14234 0.53787 0.14518 0.0
O1188 O 0.19548 0.53222 0.16702 0.0
O1189 O 0.19109 0.54497 0.14497 0.0
O1190 O 0.19237 0.40538 0.91876 0.0
Cd1191 Cd 0.20441 0.40733 0.89806 0.0
Cd1192 Cd 0.21902 0.42874 0.91559 0.0
O1193 O 0.19991 0.42704 0.93054 0.0
O1194 O 0.19092 0.39488 0.88362 0.0
O1195 O 0.19352 0.42052 0.88175 0.0
C1196 C 0.18659 0.40784 0.87731 0.0
C1197 C 0.22913 0.45174 0.90453 0.0
C1198 C 0.19119 0.41497 0.93005 0.0
C1199 C 0.23598 0.39868 0.90862 0.0
O1200 O 0.23455 0.41041 0.91767 0.0
O1201 O 0.22608 0.39635 0.89775 0.0
O1202 O 0.23081 0.44873 0.91923 0.0
O1203 O 0.22093 0.44208 0.89625 0.0
O1204 O 0.34882 0.44212 0.67116 0.0
Cd1205 Cd 0.3486 0.45089 0.64881 0.0
Cd1206 Cd 0.32584 0.47 0.66274 0.0
O1207 O 0.32926 0.45524 0.68182 0.0
O1208 O 0.36146 0.43541 0.637 0.0
O1209 O 0.33615 0.4385 0.63291 0.0
C1210 C 0.34891 0.43098 0.62998 0.0
C1211 C 0.30118 0.47897 0.65445 0.0
C1212 C 0.34002 0.44498 0.68278 0.0
C1213 C 0.35632 0.48486 0.65186 0.0
O1214 O 0.34338 0.48608 0.65906 0.0
O1215 O 0.36044 0.47189 0.64584 0.0
O1216 O 0.30727 0.48348 0.66748 0.0
O1217 O 0.30865 0.46851 0.6465 0.0
O1218 O 0.3178 0.59984 0.42045 0.0
Cd1219 Cd 0.30981 0.60031 0.3978 0.0
Cd1220 Cd 0.29006 0.57694 0.41075 0.0
O1221 O 0.30446 0.57993 0.43022 0.0
O1222 O 0.32575 0.61345 0.38686 0.0
O1223 O 0.3227 0.58826 0.38199 0.0
C1224 C 0.33038 0.60107 0.37966 0.0
C1225 C 0.28041 0.55254 0.40222 0.0
C1226 C 0.31465 0.59071 0.43174 0.0
C1227 C 0.27575 0.60787 0.4001 0.0
O1228 O 0.27437 0.59477 0.40699 0.0
O1229 O 0.28885 0.61216 0.39449 0.0
O1230 O 0.27596 0.55872 0.41523 0.0
O1231 O 0.29122 0.55971 0.39447 0.0
O1232 O 0.34263 0.16017 0.44025 0.0
Cd1233 Cd 0.36381 0.16019 0.45141 0.0
Cd1234 Cd 0.34807 0.1834 0.46806 0.0
O1235 O 0.33099 0.18067 0.45081 0.0
O1236 O 0.37683 0.14696 0.43728 0.0
O1237 O 0.3809 0.17229 0.44038 0.0
C1238 C 0.38423 0.15943 0.4332 0.0
C1239 C 0.3573 0.20757 0.4774 0.0
C1240 C 0.33109 0.16947 0.44096 0.0
C1241 C 0.35645 0.15301 0.48468 0.0
O1242 O 0.34908 0.16592 0.48465 0.0
O1243 O 0.36428 0.14873 0.47277 0.0
O1244 O 0.34342 0.20263 0.48062 0.0
O1245 O 0.36563 0.19926 0.46792 0.0
O1246 O 0.83909 0.35144 0.56567 0.0
Cd1247 Cd 0.86014 0.34981 0.55412 0.0
Cd1248 Cd 0.84269 0.32798 0.53918 0.0
O1249 O 0.82715 0.32996 0.55777 0.0
O1250 O 0.87394 0.36275 0.56785 0.0
O1251 O 0.87647 0.33715 0.56564 0.0
C1252 C 0.88046 0.35001 0.5725 0.0
C1253 C 0.85294 0.30466 0.52882 0.0
C1254 C 0.82765 0.34199 0.56655 0.0
C1255 C 0.85033 0.35803 0.52217 0.0
O1256 O 0.84133 0.34628 0.52357 0.0
O1257 O 0.86093 0.36061 0.5323 0.0
O1258 O 0.83857 0.30867 0.52651 0.0
O1259 O 0.86128 0.31345 0.53789 0.0
O1260 O 0.41154 0.09023 0.3151 0.0
Cd1261 Cd 0.41232 0.11268 0.3066 0.0
Cd1262 Cd 0.43487 0.09886 0.28759 0.0
O1263 O 0.43141 0.07976 0.30233 0.0
O1264 O 0.39969 0.12466 0.32215 0.0
O1265 O 0.4251 0.12817 0.31916 0.0
C1266 C 0.4124 0.13134 0.32667 0.0
C1267 C 0.45935 0.10795 0.27904 0.0
C1268 C 0.4204 0.07865 0.31231 0.0
C1269 C 0.4047 0.10985 0.27259 0.0
O1270 O 0.41744 0.1023 0.2714 0.0
O1271 O 0.40076 0.11607 0.28553 0.0
O1272 O 0.45404 0.09449 0.27479 0.0
O1273 O 0.45123 0.11588 0.28902 0.0
O1274 O 0.67161 0.6592 0.06678 0.0
Cd1275 Cd 0.65075 0.65983 0.05482 0.0
Cd1276 Cd 0.66763 0.68216 0.03988 0.0
O1277 O 0.68307 0.68084 0.05859 0.0
O1278 O 0.63728 0.6464 0.06838 0.0
O1279 O 0.63371 0.67186 0.06597 0.0
C1280 C 0.63015 0.65888 0.07284 0.0
C1281 C 0.65657 0.70506 0.0295 0.0
C1282 C 0.68276 0.66899 0.06762 0.0
C1283 C 0.6613 0.65174 0.02298 0.0
O1284 O 0.66977 0.66389 0.02432 0.0
O1285 O 0.65078 0.64879 0.0331 0.0
O1286 O 0.67108 0.7016 0.02722 0.0
O1287 O 0.64853 0.69597 0.03853 0.0
O1288 O 0.6093 0.41656 0.32012 0.0
Cd1289 Cd 0.60679 0.39483 0.31029 0.0
Cd1290 Cd 0.58409 0.41044 0.29475 0.0
O1291 O 0.58815 0.42816 0.31101 0.0
O1292 O 0.61844 0.38089 0.32489 0.0
O1293 O 0.59276 0.37995 0.32211 0.0
C1294 C 0.60517 0.37532 0.32937 0.0
C1295 C 0.55954 0.40087 0.28718 0.0
C1296 C 0.60027 0.42834 0.31967 0.0
C1297 C 0.6128 0.40014 0.27665 0.0
O1298 O 0.60052 0.40848 0.27725 0.0
O1299 O 0.6171 0.39223 0.28848 0.0
O1300 O 0.56419 0.41468 0.28323 0.0
O1301 O 0.56838 0.39291 0.2965 0.0
O1302 O 0.17502 0.84508 0.9424 0.0
Cd1303 Cd 0.1545 0.84794 0.95463 0.0
Cd1304 Cd 0.17109 0.82495 0.9716 0.0
O1305 O 0.1866 0.82458 0.95294 0.0
O1306 O 0.14524 0.86462 0.94128 0.0
O1307 O 0.13496 0.84108 0.94278 0.0
C1308 C 0.13506 0.85473 0.93636 0.0
C1309 C 0.15923 0.80279 0.98272 0.0
C1310 C 0.18609 0.83519 0.94253 0.0
C1311 C 0.16606 0.85676 0.98644 0.0
O1312 O 0.17369 0.844 0.98618 0.0
O1313 O 0.15609 0.8598 0.97582 0.0
O1314 O 0.17378 0.806 0.98513 0.0
O1315 O 0.15155 0.81179 0.97331 0.0
O1316 O 0.41419 0.92259 0.19306 0.0
Cd1317 Cd 0.40932 0.90016 0.20003 0.0
Cd1318 Cd 0.43083 0.91157 0.22454 0.0
O1319 O 0.4307 0.93168 0.21076 0.0
O1320 O 0.39476 0.89451 0.18273 0.0
O1321 O 0.41709 0.8823 0.18616 0.0
C1322 C 0.40467 0.88434 0.17786 0.0
C1323 C 0.45374 0.90232 0.23688 0.0
C1324 C 0.42261 0.93358 0.19841 0.0
C1325 C 0.39722 0.90265 0.23316 0.0
O1326 O 0.41059 0.90785 0.23712 0.0
O1327 O 0.3945 0.89837 0.21917 0.0
O1328 O 0.447 0.91507 0.24122 0.0
O1329 O 0.44789 0.89507 0.22497 0.0
O1330 O 0.0874 0.07976 0.69133 0.0
Cd1331 Cd 0.09151 0.10118 0.70148 0.0
Cd1332 Cd 0.06847 0.08469 0.7209 0.0
O1333 O 0.06842 0.06753 0.70379 0.0
O1334 O 0.10916 0.10626 0.68724 0.0
O1335 O 0.08763 0.12025 0.68747 0.0
C1336 C 0.10095 0.1172 0.68112 0.0
C1337 C 0.04597 0.09588 0.73195 0.0
C1338 C 0.07836 0.06807 0.69275 0.0
C1339 C 0.10064 0.09225 0.73424 0.0
O1340 O 0.088 0.08444 0.73497 0.0
O1341 O 0.10346 0.10118 0.72266 0.0
O1342 O 0.05022 0.08179 0.73529 0.0
O1343 O 0.0541 0.10341 0.72166 0.0
H1344 H 0.05001 0.21219 0.33811 0.0
H1345 H 0.09175 0.18886 0.35419 0.0
H1346 H 0.0597 0.23685 0.34904 0.0
H1347 H 0.1015 0.21353 0.36485 0.0
H1348 H 0.11575 0.26523 0.37642 0.0
H1349 H 0.10896 0.24352 0.35872 0.0
H1350 H 0.06303 0.24109 0.37943 0.0
H1351 H 0.0698 0.26224 0.39718 0.0
C1352 C 0.06148 0.21244 0.34345 0.0
C1353 C 0.07005 0.19858 0.34544 0.0
C1354 C 0.06699 0.22652 0.34977 0.0
C1355 C 0.08129 0.22702 0.35789 0.0
C1356 C 0.09049 0.21348 0.35859 0.0
C1357 C 0.08487 0.19936 0.35255 0.0
C1358 C 0.10422 0.26004 0.37712 0.0
C1359 C 0.09338 0.26532 0.3883 0.0
C1360 C 0.10034 0.24769 0.367 0.0
C1361 C 0.0854 0.2408 0.3676 0.0
C1362 C 0.07453 0.24635 0.37854 0.0
C1363 C 0.0785 0.25834 0.38884 0.0
H1364 H 0.99753 0.86779 0.62443 0.0
H1365 H 0.99975 0.82138 0.64426 0.0
H1366 H 0.01788 0.86047 0.60541 0.0
H1367 H 0.01955 0.8141 0.62526 0.0
H1368 H 0.04647 0.80037 0.58331 0.0
H1369 H 0.02251 0.81083 0.595 0.0
H1370 H 0.04755 0.85217 0.60954 0.0
H1371 H 0.07151 0.84165 0.59811 0.0
C1372 C 1.00227 0.85605 0.62467 0.0
C1373 C 0.99717 0.84523 0.63596 0.0
C1374 C 0.01383 0.85186 0.61378 0.0
C1375 C 0.02011 0.83666 0.61375 0.0
C1376 C 0.01473 0.82581 0.62482 0.0
C1377 C 1.00352 0.83007 0.63585 0.0
C1378 C 0.04671 0.81193 0.58848 0.0
C1379 C 0.06087 0.82013 0.58994 0.0
C1380 C 0.03304 0.81787 0.59526 0.0
C1381 C 0.03325 0.83222 0.60332 0.0
C1382 C 0.04704 0.84112 0.60337 0.0
C1383 C 0.06075 0.83506 0.59686 0.0
H1384 H 0.44061 0.74958 0.8989 0.0
H1385 H 0.39382 0.74846 0.87992 0.0
H1386 H 0.44758 0.77034 0.88075 0.0
H1387 H 0.40083 0.76971 0.86182 0.0
H1388 H 0.41946 0.8232 0.85492 0.0
H1389 H 0.40948 0.7992 0.8668 0.0
H1390 H 0.45012 0.77423 0.85042 0.0
H1391 H 0.46003 0.79823 0.83828 0.0
C1392 C 0.43177 0.75381 0.89088 0.0
C1393 C 0.4166 0.74744 0.89094 0.0
C1394 C 0.43584 0.76558 0.88035 0.0
C1395 C 0.4248 0.7715 0.86977 0.0
C1396 C 0.40958 0.76526 0.86981 0.0
C1397 C 0.40557 0.75316 0.88018 0.0
C1398 C 0.42603 0.81247 0.85343 0.0
C1399 C 0.44058 0.8126 0.84576 0.0
C1400 C 0.42028 0.79874 0.8602 0.0
C1401 C 0.42911 0.78493 0.85966 0.0
C1402 C 0.44314 0.78478 0.85107 0.0
C1403 C 0.44875 0.79847 0.84403 0.0
H1404 H 0.51707 0.13674 0.12911 0.0
H1405 H 0.51459 0.18454 0.14525 0.0
H1406 H 0.49566 0.14205 0.11055 0.0
H1407 H 0.49383 0.18985 0.12658 0.0
H1408 H 0.46668 0.19919 0.08328 0.0
H1409 H 0.49085 0.18928 0.09493 0.0
H1410 H 0.46513 0.15171 0.11665 0.0
H1411 H 0.44089 0.16177 0.10531 0.0
C1412 C 0.51206 0.14835 0.12861 0.0
C1413 C 0.51738 0.16018 0.13874 0.0
C1414 C 0.4999 0.15139 0.11799 0.0
C1415 C 0.4933 0.16641 0.11703 0.0
C1416 C 0.49888 0.17824 0.12692 0.0
C1417 C 0.51065 0.17513 0.13774 0.0
C1418 C 0.46626 0.18848 0.09003 0.0
C1419 C 0.45189 0.18134 0.09351 0.0
C1420 C 0.48008 0.18286 0.09675 0.0
C1421 C 0.47978 0.16982 0.10676 0.0
C1422 C 0.46567 0.16173 0.10891 0.0
C1423 C 0.45182 0.16752 0.10245 0.0
H1424 H 0.09091 0.82795 0.15625 0.0
H1425 H 0.05631 0.79758 0.17706 0.0
H1426 H 0.1039 0.80543 0.14476 0.0
H1427 H 0.06948 0.77485 0.16543 0.0
H1428 H 0.10279 0.7368 0.14481 0.0
H1429 H 0.09562 0.75841 0.1624 0.0
H1430 H 0.09198 0.78929 0.12263 0.0
H1431 H 0.0988 0.76784 0.10521 0.0
C1432 C 0.08628 0.81641 0.15869 0.0
C1433 C 0.07241 0.81456 0.16734 0.0
C1434 C 0.09374 0.80352 0.15208 0.0
C1435 C 0.08754 0.78844 0.15396 0.0
C1436 C 0.07452 0.78637 0.16382 0.0
C1437 C 0.06699 0.79936 0.17048 0.0
C1438 C 0.10077 0.74831 0.13993 0.0
C1439 C 0.10138 0.75068 0.12365 0.0
C1440 C 0.09655 0.7606 0.14996 0.0
C1441 C 0.09328 0.77552 0.14389 0.0
C1442 C 0.0946 0.77797 0.12769 0.0
C1443 C 0.09847 0.76569 0.11769 0.0
H1444 H 0.46676 0.80469 0.43422 0.0
H1445 H 0.43751 0.84295 0.41916 0.0
H1446 H 0.48949 0.81759 0.42228 0.0
H1447 H 0.46003 0.85564 0.40725 0.0
H1448 H 0.49388 0.84999 0.36393 0.0
H1449 H 0.47346 0.84331 0.38267 0.0
H1450 H 0.5073 0.84387 0.42009 0.0
H1451 H 0.52784 0.85102 0.40124 0.0
C1452 C 0.4653 0.81612 0.42896 0.0
C1453 C 0.45032 0.8227 0.42743 0.0
C1454 C 0.47828 0.82348 0.42208 0.0
C1455 C 0.47641 0.83747 0.4136 0.0
C1456 C 0.46175 0.84477 0.41352 0.0
C1457 C 0.44887 0.8375 0.4204 0.0
C1458 C 0.49691 0.84903 0.37619 0.0
C1459 C 0.51241 0.85111 0.38114 0.0
C1460 C 0.48523 0.84523 0.38693 0.0
C1461 C 0.48881 0.8431 0.40283 0.0
C1462 C 0.50425 0.84547 0.4079 0.0
C1463 C 0.51594 0.84967 0.39715 0.0
H1464 H 0.41363 0.2445 0.59912 0.0
H1465 H 0.40616 0.27321 0.63999 0.0
H1466 H 0.42011 0.22236 0.61579 0.0
H1467 H 0.41295 0.2509 0.65682 0.0
H1468 H 0.45147 0.21164 0.67264 0.0
H1469 H 0.43913 0.23474 0.66089 0.0
H1470 H 0.40691 0.20485 0.63608 0.0
H1471 H 0.41906 0.18195 0.6477 0.0
C1472 C 0.41317 0.24601 0.6117 0.0
C1473 C 0.40934 0.26056 0.61825 0.0
C1474 C 0.41684 0.23332 0.62125 0.0
C1475 C 0.41702 0.23491 0.63761 0.0
C1476 C 0.41292 0.24938 0.64425 0.0
C1477 C 0.40892 0.26207 0.63463 0.0
C1478 C 0.44146 0.21006 0.66506 0.0
C1479 C 0.43643 0.19496 0.66089 0.0
C1480 C 0.4344 0.22327 0.65833 0.0
C1481 C 0.42225 0.22154 0.64737 0.0
C1482 C 0.41642 0.20651 0.64428 0.0
C1483 C 0.4234 0.1934 0.65097 0.0
H1484 H 0.07371 0.16375 0.90291 0.0
H1485 H 0.04194 0.19283 0.92922 0.0
H1486 H 0.05168 0.14973 0.89159 0.0
H1487 H 0.01975 0.17902 0.91752 0.0
H1488 H 0.9819 0.14897 0.89536 0.0
H1489 H 1.00417 0.1549 0.91246 0.0
H1490 H 0.03387 0.15934 0.87184 0.0
H1491 H 0.01189 0.15336 0.85498 0.0
C1492 C 0.06199 0.16694 0.90651 0.0
C1493 C 0.05953 0.17956 0.91676 0.0
C1494 C 0.04936 0.15895 0.89997 0.0
C1495 C 0.03395 0.16348 0.90336 0.0
C1496 C 0.03148 0.1752 0.91467 0.0
C1497 C 0.04418 0.18314 0.92137 0.0
C1498 C 0.9933 0.15081 0.89017 0.0
C1499 C 0.99514 0.15076 0.87382 0.0
C1500 C 0.006 0.15434 0.89995 0.0
C1501 C 0.0208 0.15764 0.89354 0.0
C1502 C 0.02273 0.15667 0.87723 0.0
C1503 C 0.01008 0.15333 0.86752 0.0
H1504 H 0.33721 0.06914 0.21326 0.0
H1505 H 0.36288 0.09844 0.18113 0.0
H1506 H 0.34925 0.08289 0.23529 0.0
H1507 H 0.3746 0.11235 0.20303 0.0
H1508 H 0.41226 0.10674 0.24195 0.0
H1509 H 0.39472 0.10166 0.22024 0.0
H1510 H 0.35494 0.10719 0.25087 0.0
H1511 H 0.3727 0.1123 0.27283 0.0
C1512 C 0.34494 0.0789 0.21091 0.0
C1513 C 0.34933 0.08253 0.1955 0.0
C1514 C 0.35184 0.0868 0.22353 0.0
C1515 C 0.36314 0.09849 0.22089 0.0
C1516 C 0.36621 0.10316 0.20544 0.0
C1517 C 0.35945 0.09522 0.1929 0.0
C1518 C 0.39977 0.10723 0.24401 0.0
C1519 C 0.39387 0.10985 0.2591 0.0
C1520 C 0.38968 0.10441 0.23153 0.0
C1521 C 0.3734 0.10399 0.23382 0.0
C1522 C 0.36743 0.10735 0.24877 0.0
C1523 C 0.37758 0.1104 0.26129 0.0
H1524 H 0.16512 0.16475 0.49159 0.0
H1525 H 0.16262 0.12541 0.52316 0.0
H1526 H 0.17019 0.14712 0.4699 0.0
H1527 H 0.16783 0.10758 0.50123 0.0
H1528 H 0.20299 0.09046 0.4601 0.0
H1529 H 0.19168 0.10286 0.48336 0.0
H1530 H 0.15752 0.12599 0.45432 0.0
H1531 H 0.16882 0.11383 0.43123 0.0
C1532 C 0.16544 0.15229 0.49385 0.0
C1533 C 0.16348 0.14648 0.50908 0.0
C1534 C 0.16826 0.14216 0.4814 0.0
C1535 C 0.16937 0.12594 0.48385 0.0
C1536 C 0.16706 0.12003 0.49902 0.0
C1537 C 0.16397 0.13021 0.51152 0.0
C1538 C 0.19277 0.0978 0.45877 0.0
C1539 C 0.18697 0.1014 0.44382 0.0
C1540 C 0.18629 0.1049 0.47208 0.0
C1541 C 0.17392 0.11565 0.4706 0.0
C1542 C 0.16725 0.11803 0.45579 0.0
C1543 C 0.17372 0.11102 0.44257 0.0
H1544 H 0.17302 0.95981 0.71546 0.0
H1545 H 0.16082 0.91863 0.68887 0.0
H1546 H 0.16104 0.94812 0.73879 0.0
H1547 H 0.14892 0.9071 0.71201 0.0
H1548 H 0.10465 0.91211 0.74428 0.0
H1549 H 0.12351 0.91833 0.72385 0.0
H1550 H 0.15964 0.92391 0.75864 0.0
H1551 H 0.14068 0.9173 0.77924 0.0
C1552 C 0.16834 0.94806 0.71473 0.0
C1553 C 0.16762 0.94025 0.70028 0.0
C1554 C 0.16146 0.94138 0.72807 0.0
C1555 C 0.1538 0.92684 0.72709 0.0
C1556 C 0.15452 0.91843 0.71302 0.0
C1557 C 0.16138 0.92504 0.69979 0.0
C1558 C 0.11668 0.91436 0.74756 0.0
C1559 C 0.12121 0.91416 0.76333 0.0
C1560 C 0.1275 0.91787 0.73587 0.0
C1561 C 0.14305 0.92157 0.73967 0.0
C1562 C 0.14773 0.92109 0.75541 0.0
C1563 C 0.13692 0.9172 0.76715 0.0
H1564 H 0.34065 0.90137 0.93291 0.0
H1565 H 0.29908 0.91653 0.95721 0.0
H1566 H 0.35025 0.88919 0.95689 0.0
H1567 H 0.30863 0.90409 0.98116 0.0
H1568 H 0.31826 0.8551 1.00466 0.0
H1569 H 0.31159 0.87366 0.98417 0.0
H1570 H 0.3579 0.89352 0.98676 0.0
H1571 H 0.36459 0.87502 0.00773 0.0
C1572 C 0.33379 0.9025 0.94351 0.0
C1573 C 0.31906 0.9098 0.94318 0.0
C1574 C 0.33931 0.89555 0.95723 0.0
C1575 C 0.33009 0.89555 0.97079 0.0
C1576 C 0.3159 0.90386 0.97079 0.0
C1577 C 0.3105 0.91107 0.95713 0.0
C1578 C 0.32706 0.8634 1.00091 0.0
C1579 C 0.342 0.86351 0.00775 0.0
C1580 C 0.32316 0.87416 0.9893 0.0
C1581 C 0.33417 0.88513 0.98403 0.0
C1582 C 0.34918 0.88523 0.99072 0.0
C1583 C 0.35301 0.87463 1.00264 0.0
H1584 H 0.34245 0.91459 0.31741 0.0
H1585 H 0.32958 0.95138 0.28536 0.0
H1586 H 0.35475 0.90023 0.29612 0.0
H1587 H 0.34218 0.93708 0.26399 0.0
H1588 H 0.36588 0.90638 0.22757 0.0
H1589 H 0.34569 0.91315 0.24679 0.0
H1590 H 0.3796 0.90827 0.28387 0.0
H1591 H 0.3996 0.90165 0.26482 0.0
C1592 C 0.34182 0.91937 0.30569 0.0
C1593 C 0.33524 0.9342 0.30307 0.0
C1594 C 0.34895 0.91118 0.29351 0.0
C1595 C 0.34978 0.91769 0.27846 0.0
C1596 C 0.34173 0.93174 0.27547 0.0
C1597 C 0.33447 0.93994 0.2877 0.0
C1598 C 0.36887 0.90634 0.23988 0.0
C1599 C 0.38434 0.90352 0.2447 0.0
C1600 C 0.35735 0.91034 0.25085 0.0
C1601 C 0.36103 0.91127 0.26684 0.0
C1602 C 0.37628 0.90748 0.27167 0.0
C1603 C 0.3878 0.90374 0.26074 0.0
H1604 H 0.34534 0.11271 0.57691 0.0
H1605 H 0.31051 0.09065 0.5477 0.0
H1606 H 0.35795 0.12356 0.55384 0.0
H1607 H 0.32331 0.1016 0.52444 0.0
H1608 H 0.35621 0.12093 0.4853 0.0
H1609 H 0.34931 0.10413 0.50763 0.0
H1610 H 0.34566 0.14502 0.53701 0.0
H1611 H 0.3522 0.16167 0.51486 0.0
C1612 C 0.34057 0.10985 0.56552 0.0
C1613 C 0.32674 0.10105 0.56416 0.0
C1614 C 0.34781 0.1161 0.55232 0.0
C1615 C 0.34146 0.11365 0.5374 0.0
C1616 C 0.32847 0.10365 0.53583 0.0
C1617 C 0.32114 0.09738 0.54913 0.0
C1618 C 0.35423 0.12624 0.49663 0.0
C1619 C 0.35476 0.1426 0.49838 0.0
C1620 C 0.35017 0.11665 0.50933 0.0
C1621 C 0.34699 0.12327 0.52404 0.0
C1622 C 0.34821 0.13956 0.52587 0.0
C1623 C 0.35191 0.14911 0.51317 0.0
H1624 H 0.16751 0.0504 0.79753 0.0
H1625 H 0.1534 0.09376 0.81923 0.0
H1626 H 0.15483 0.05851 0.77322 0.0
H1627 H 0.14098 0.10193 0.79484 0.0
H1628 H 0.12454 0.11189 0.74333 0.0
H1629 H 0.14431 0.10689 0.76365 0.0
H1630 H 0.12389 0.06153 0.77219 0.0
H1631 H 0.1041 0.06656 0.75243 0.0
C1632 C 0.1623 0.06192 0.79693 0.0
C1633 C 0.16129 0.07137 0.81033 0.0
C1634 C 0.15496 0.06651 0.78305 0.0
C1635 C 0.14679 0.08075 0.78227 0.0
C1636 C 0.14723 0.09092 0.79513 0.0
C1637 C 0.15432 0.08622 0.80909 0.0
C1638 C 0.12433 0.10087 0.74957 0.0
C1639 C 0.11268 0.08969 0.7464 0.0
C1640 C 0.13564 0.09801 0.76111 0.0
C1641 C 0.13572 0.08374 0.76928 0.0
C1642 C 0.12425 0.07252 0.76588 0.0
C1643 C 0.1128 0.0755 0.75469 0.0
H1644 H 0.21473 0.92182 0.04737 0.0
H1645 H 0.17135 0.91089 0.07074 0.0
H1646 H 0.2051 0.90892 0.02367 0.0
H1647 H 0.16166 0.89827 0.04701 0.0
H1648 H 0.1482 0.88147 0.99682 0.0
H1649 H 0.1554 0.90104 0.01666 0.0
H1650 H 0.2002 0.87862 0.02239 0.0
H1651 H 0.19301 0.85904 1.00304 0.0
C1652 C 0.2029 0.91727 0.04724 0.0
C1653 C 0.19382 0.91727 0.06091 0.0
C1654 C 0.19745 0.90977 0.03373 0.0
C1655 C 0.18271 0.90245 0.0336 0.0
C1656 C 0.17303 0.90385 0.04677 0.0
C1657 C 0.17859 0.91107 0.06035 0.0
C1658 C 0.15957 0.88076 1.00234 0.0
C1659 C 0.16997 0.86862 0.99847 0.0
C1660 C 0.16369 0.89197 0.01362 0.0
C1661 C 0.17844 0.89145 0.02087 0.0
C1662 C 0.18887 0.87947 0.01679 0.0
C1663 C 0.18465 0.86813 0.00585 0.0
H1664 H 0.2387 0.4102 0.09827 0.0
H1665 H 0.27083 0.37127 0.09901 0.0
H1666 H 0.2172 0.39241 0.0931 0.0
H1667 H 0.24907 0.35327 0.09383 0.0
H1668 H 0.17882 0.35893 0.09246 0.0
H1669 H 0.20158 0.37121 0.10431 0.0
H1670 H 0.23145 0.34833 0.07065 0.0
H1671 H 0.20854 0.33572 0.05891 0.0
C1672 C 0.24114 0.39778 0.0976 0.0
C1673 C 0.25649 0.39217 0.09902 0.0
C1674 C 0.22877 0.38754 0.09473 0.0
C1675 C 0.23141 0.37139 0.09306 0.0
C1676 C 0.24669 0.36566 0.09498 0.0
C1677 C 0.25911 0.37594 0.09807 0.0
C1678 C 0.19028 0.3562 0.08781 0.0
C1679 C 0.19188 0.34655 0.0746 0.0
C1680 C 0.20331 0.36329 0.09457 0.0
C1681 C 0.21828 0.36104 0.08821 0.0
C1682 C 0.22007 0.3503 0.07584 0.0
C1683 C 0.20696 0.34307 0.0691 0.0
H1684 H 0.68373 0.1533 0.91767 0.0
H1685 H 0.70986 0.17297 0.95614 0.0
H1686 H 0.70755 0.14115 0.90761 0.0
H1687 H 0.73365 0.16052 0.94619 0.0
H1688 H 0.75719 0.11076 0.93952 0.0
H1689 H 0.73685 0.12963 0.94568 0.0
H1690 H 0.73729 0.14595 0.89794 0.0
H1691 H 0.75819 0.12715 0.89174 0.0
C1692 C 0.69466 0.15541 0.92371 0.0
C1693 C 0.69493 0.16399 0.93775 0.0
C1694 C 0.70829 0.14849 0.91791 0.0
C1695 C 0.72237 0.14979 0.92622 0.0
C1696 C 0.72289 0.15932 0.93962 0.0
C1697 C 0.70931 0.16651 0.94525 0.0
C1698 C 0.75302 0.11837 0.93029 0.0
C1699 C 0.75921 0.11737 0.91509 0.0
C1700 C 0.7415 0.12931 0.93389 0.0
C1701 C 0.73564 0.13935 0.92234 0.0
C1702 C 0.74172 0.13839 0.90708 0.0
C1703 C 0.7536 0.12763 0.90354 0.0
H1704 H 0.082 0.46226 0.19524 0.0
H1705 H 0.10909 0.43269 0.16453 0.0
H1706 H 0.09348 0.48545 0.18281 0.0
H1707 H 0.1204 0.45569 0.15222 0.0
H1708 H 0.15586 0.49656 0.15936 0.0
H1709 H 0.13961 0.47395 0.16523 0.0
H1710 H 0.0981 0.50144 0.15708 0.0
H1711 H 0.11453 0.52425 0.15095 0.0
C1712 C 0.09002 0.46071 0.18557 0.0
C1713 C 0.09485 0.44565 0.18108 0.0
C1714 C 0.09658 0.47397 0.17844 0.0
C1715 C 0.10803 0.47234 0.16673 0.0
C1716 C 0.11181 0.4573 0.16139 0.0
C1717 C 0.1053 0.44412 0.16846 0.0
C1718 C 0.14327 0.49773 0.15852 0.0
C1719 C 0.13647 0.51215 0.15467 0.0
C1720 C 0.13396 0.48476 0.16183 0.0
C1721 C 0.11757 0.48593 0.1616 0.0
C1722 C 0.11069 0.50024 0.15737 0.0
C1723 C 0.12008 0.51322 0.15374 0.0
H1724 H 0.76688 0.91041 0.40813 0.0
H1725 H 0.73795 0.86998 0.39923 0.0
H1726 H 0.78896 0.89346 0.41374 0.0
H1727 H 0.76024 0.85283 0.405 0.0
H1728 H 0.7979 0.83468 0.44318 0.0
H1729 H 0.7755 0.847 0.43022 0.0
H1730 H 0.80701 0.87419 0.40164 0.0
H1731 H 0.82924 0.86211 0.41459 0.0
C1732 C 0.76533 0.89788 0.40708 0.0
C1733 C 0.75069 0.89153 0.40324 0.0
C1734 C 0.77801 0.88814 0.41023 0.0
C1735 C 0.77635 0.87179 0.40982 0.0
C1736 C 0.76184 0.86539 0.40545 0.0
C1737 C 0.74915 0.8752 0.40202 0.0
C1738 C 0.80001 0.84295 0.43382 0.0
C1739 C 0.81532 0.84764 0.43011 0.0
C1740 C 0.78719 0.84999 0.42638 0.0
C1741 C 0.78952 0.86178 0.41512 0.0
C1742 C 0.80485 0.86538 0.41049 0.0
C1743 C 0.81758 0.85842 0.4179 0.0
H1744 H 0.9021 0.07059 0.16677 0.0
H1745 H 0.92095 0.04505 0.20602 0.0
H1746 H 0.89071 0.04646 0.15649 0.0
H1747 H 0.90925 0.02095 0.19583 0.0
H1748 H 0.85942 0.99741 0.18779 0.0
H1749 H 0.87804 0.01789 0.19428 0.0
H1750 H 0.89664 0.01612 0.14741 0.0
H1751 H 0.87809 0.99497 0.14091 0.0
C1752 C 0.90418 0.05973 0.17296 0.0
C1753 C 0.9123 0.05972 0.18728 0.0
C1754 C 0.89772 0.04593 0.16702 0.0
C1755 C 0.89902 0.03191 0.17543 0.0
C1756 C 0.90809 0.03165 0.18915 0.0
C1757 C 0.91483 0.04542 0.19494 0.0
C1758 C 0.8675 1.00129 0.17883 0.0
C1759 C 0.8672 0.99468 0.16378 0.0
C1760 C 0.87828 0.01291 0.18263 0.0
C1761 C 0.88886 0.01845 0.1714 0.0
C1762 C 0.88865 0.01192 0.15629 0.0
C1763 C 0.87805 0.9999 0.15258 0.0
H1764 H 0.23123 0.6409 0.61132 0.0
H1765 H 0.26066 0.60015 0.60688 0.0
H1766 H 0.25391 0.65776 0.60622 0.0
H1767 H 0.28304 0.61676 0.60172 0.0
H1768 H 0.32348 0.64723 0.59877 0.0
H1769 H 0.30096 0.63601 0.61207 0.0
H1770 H 0.27013 0.66305 0.58262 0.0
H1771 H 0.29281 0.67465 0.56956 0.0
C1772 C 0.24258 0.63557 0.60964 0.0
C1773 C 0.24415 0.6192 0.60943 0.0
C1774 C 0.25553 0.64521 0.60659 0.0
C1775 C 0.27029 0.63863 0.60352 0.0
C1776 C 0.27193 0.62228 0.60423 0.0
C1777 C 0.25904 0.61271 0.6071 0.0
C1778 C 0.3119 0.65109 0.5954 0.0
C1779 C 0.3099 0.66163 0.58295 0.0
C1780 C 0.29899 0.6446 0.60298 0.0
C1781 C 0.28374 0.64834 0.59818 0.0
C1782 C 0.28172 0.65993 0.58664 0.0
C1783 C 0.29471 0.66656 0.57913 0.0
H1784 H 0.11107 0.57967 0.344 0.0
H1785 H 0.0822 0.54955 0.31551 0.0
H1786 H 0.12349 0.5569 0.35562 0.0
H1787 H 0.0948 0.52659 0.32721 0.0
H1788 H 0.11835 0.48823 0.35766 0.0
H1789 H 0.10133 0.51076 0.35234 0.0
H1790 H 0.14199 0.53879 0.3418 0.0
H1791 H 0.15882 0.51648 0.34692 0.0
C1792 C 0.10714 0.56816 0.34043 0.0
C1793 C 0.09583 0.56642 0.32862 0.0
C1794 C 0.1143 0.55512 0.34709 0.0
C1795 C 0.11033 0.53999 0.34211 0.0
C1796 C 0.09808 0.53814 0.33128 0.0
C1797 C 0.09087 0.55127 0.32458 0.0
C1798 C 0.12361 0.49931 0.3545 0.0
C1799 C 0.13992 0.50061 0.35271 0.0
C1800 C 0.11388 0.51214 0.35134 0.0
C1801 C 0.12033 0.52654 0.34669 0.0
C1802 C 0.13666 0.52792 0.34554 0.0
C1803 C 0.14632 0.51511 0.34841 0.0
H1804 H 0.39245 0.52806 0.85707 0.0
H1805 H 0.35447 0.49489 0.85424 0.0
H1806 H 0.41111 0.5071 0.851 0.0
H1807 H 0.37293 0.47413 0.84834 0.0
H1808 H 0.40741 0.4369 0.84589 0.0
H1809 H 0.39496 0.45875 0.8592 0.0
H1810 H 0.41599 0.49081 0.82635 0.0
H1811 H 0.42869 0.46883 0.81305 0.0
C1812 C 0.38814 0.51625 0.85554 0.0
C1813 C 0.372 0.5131 0.85611 0.0
C1814 C 0.39879 0.5043 0.85195 0.0
C1815 C 0.3935 0.48897 0.8492 0.0
C1816 C 0.37744 0.48576 0.85059 0.0
C1817 C 0.36682 0.49768 0.8539 0.0
C1818 C 0.40975 0.44865 0.84175 0.0
C1819 C 0.41883 0.45114 0.82827 0.0
C1820 C 0.40256 0.46116 0.84936 0.0
C1821 C 0.40421 0.47646 0.84362 0.0
C1822 C 0.41451 0.47915 0.83105 0.0
C1823 C 0.4218 0.46656 0.82344 0.0
H1824 H 0.9049 0.76735 0.59997 0.0
H1825 H 0.89798 0.738 0.64048 0.0
H1826 H 0.91117 0.78931 0.61687 0.0
H1827 H 0.90437 0.76019 0.65756 0.0
H1828 H 0.94323 0.79757 0.67447 0.0
H1829 H 0.92949 0.77537 0.66264 0.0
H1830 H 0.90032 0.8073 0.63666 0.0
H1831 H 0.9141 0.82936 0.64824 0.0
C1832 C 0.90443 0.76568 0.61252 0.0
C1833 C 0.90097 0.75094 0.61888 0.0
C1834 C 0.90795 0.7783 0.62223 0.0
C1835 C 0.90827 0.7765 0.63858 0.0
C1836 C 0.90427 0.7619 0.64502 0.0
C1837 C 0.90049 0.74926 0.63525 0.0
C1838 C 0.93356 0.79982 0.66662 0.0
C1839 C 0.92993 0.81519 0.66207 0.0
C1840 C 0.92568 0.78711 0.65984 0.0
C1841 C 0.91403 0.7896 0.64848 0.0
C1842 C 0.90946 0.805 0.64512 0.0
C1843 C 0.91733 0.81764 0.6518 0.0
H1844 H 0.02317 0.16648 0.39022 0.0
H1845 H 0.99468 0.1401 0.35812 0.0
H1846 H 0.99993 0.17378 0.40505 0.0
H1847 H 0.97152 0.14614 0.37356 0.0
H1848 H 0.93358 0.18093 0.38525 0.0
H1849 H 0.95633 0.16788 0.3753 0.0
H1850 H 0.97798 0.17048 0.42095 0.0
H1851 H 0.95509 0.18461 0.43081 0.0
C1852 C 0.01196 0.16169 0.38677 0.0
C1853 C 0.01062 0.15282 0.37303 0.0
C1854 C 0.99858 0.16585 0.39528 0.0
C1855 C 0.98364 0.16093 0.39035 0.0
C1856 C 0.98267 0.1507 0.37743 0.0
C1857 C 0.99596 0.147 0.36867 0.0
C1858 C 0.94307 0.17863 0.39331 0.0
C1859 C 0.94247 0.18394 0.40886 0.0
C1860 C 0.95619 0.17089 0.38759 0.0
C1861 C 0.96914 0.16789 0.39727 0.0
C1862 C 0.96836 0.17271 0.41304 0.0
C1863 C 0.9552 0.18074 0.41875 0.0
H1864 H 0.59908 0.18547 0.14866 0.0
H1865 H 0.56558 0.21187 0.17568 0.0
H1866 H 0.60873 0.20971 0.13692 0.0
H1867 H 0.57506 0.23605 0.16364 0.0
H1868 H 0.57575 0.26197 0.11415 0.0
H1869 H 0.57132 0.24055 0.13234 0.0
H1870 H 0.62051 0.2395 0.14336 0.0
H1871 H 0.62499 0.26155 0.12531 0.0
C1872 C 0.5941 0.19649 0.15243 0.0
C1873 C 0.58148 0.19677 0.16299 0.0
C1874 C 0.59967 0.21034 0.14575 0.0
C1875 C 0.59254 0.22468 0.14931 0.0
C1876 C 0.58072 0.2251 0.16072 0.0
C1877 C 0.57535 0.21128 0.16765 0.0
C1878 C 0.58566 0.25726 0.12047 0.0
C1879 C 0.60075 0.26336 0.11822 0.0
C1880 C 0.58307 0.2451 0.13101 0.0
C1881 C 0.59555 0.23851 0.13934 0.0
C1882 C 0.6107 0.2445 0.13713 0.0
C1883 C 0.61325 0.25704 0.12681 0.0
H1884 H 0.5785 0.84497 0.90297 0.0
H1885 H 0.54607 0.81433 0.92661 0.0
H1886 H 0.55678 0.85913 0.89129 0.0
H1887 H 0.5242 0.82835 0.91458 0.0
H1888 H 0.51872 0.85545 0.85263 0.0
H1889 H 0.54004 0.8494 0.87032 0.0
H1890 H 0.50861 0.85282 0.90972 0.0
H1891 H 0.48704 0.85892 0.89179 0.0
C1892 C 0.56669 0.84148 0.90595 0.0
C1893 C 0.56398 0.82839 0.91551 0.0
C1894 C 0.55425 0.84956 0.8992 0.0
C1895 C 0.53878 0.84465 0.90171 0.0
C1896 C 0.53599 0.83245 0.91243 0.0
C1897 C 0.54851 0.8244 0.91932 0.0
C1898 C 0.5164 0.85527 0.86509 0.0
C1899 C 0.5012 0.85762 0.87081 0.0
C1900 C 0.52865 0.85188 0.87528 0.0
C1901 C 0.52603 0.85059 0.89146 0.0
C1902 C 0.51097 0.85365 0.8973 0.0
C1903 C 0.49867 0.85728 0.88706 0.0
H1904 H 0.91403 0.18647 0.8611 0.0
H1905 H 0.95341 0.20962 0.83957 0.0
H1906 H 0.90542 0.21136 0.87217 0.0
H1907 H 0.94489 0.2345 0.85089 0.0
H1908 H 0.93989 0.26179 0.89881 0.0
H1909 H 0.94501 0.24014 0.88108 0.0
H1910 H 0.89687 0.2408 0.86604 0.0
H1911 H 0.89174 0.26297 0.8837 0.0
C1912 C 0.92061 0.19695 0.85839 0.0
C1913 C 0.93447 0.19607 0.84957 0.0
C1914 C 0.91564 0.2112 0.86468 0.0
C1915 C 0.92457 0.2248 0.8625 0.0
C1916 C 0.93783 0.22414 0.85279 0.0
C1917 C 0.94266 0.20993 0.84625 0.0
C1918 C 0.93038 0.25741 0.89169 0.0
C1919 C 0.91537 0.26401 0.89274 0.0
C1920 C 0.93337 0.24512 0.8814 0.0
C1921 C 0.92138 0.2389 0.8721 0.0
C1922 C 0.90634 0.24547 0.87305 0.0
C1923 C 0.9034 0.2581 0.88314 0.0
H1924 H 0.51839 0.15802 0.65464 0.0
H1925 H 0.4868 0.15305 0.61559 0.0
H1926 H 0.53955 0.16451 0.63676 0.0
H1927 H 0.50812 0.15985 0.59753 0.0
H1928 H 0.57776 0.16612 0.60297 0.0
H1929 H 0.55564 0.15274 0.61485 0.0
H1930 H 0.52411 0.1858 0.5935 0.0
H1931 H 0.54641 0.1993 0.58145 0.0
C1932 C 0.51605 0.15803 0.64219 0.0
C1933 C 0.50097 0.15498 0.63651 0.0
C1934 C 0.52818 0.16171 0.63192 0.0
C1935 C 0.52549 0.16268 0.61573 0.0
C1936 C 0.5105 0.1592 0.60996 0.0
C1937 C 0.49837 0.15519 0.62026 0.0
C1938 C 0.56608 0.17032 0.60044 0.0
C1939 C 0.56383 0.18393 0.59148 0.0
C1940 C 0.55343 0.16265 0.60728 0.0
C1941 C 0.5382 0.1684 0.60536 0.0
C1942 C 0.53574 0.18111 0.59517 0.0
C1943 C 0.54849 0.18882 0.58825 0.0
H1944 H 0.56043 0.79627 0.34233 0.0
H1945 H 0.595 0.82616 0.36388 0.0
H1946 H 0.57359 0.7733 0.35334 0.0
H1947 H 0.60804 0.80335 0.37474 0.0
H1948 H 0.60361 0.76469 0.41315 0.0
H1949 H 0.59695 0.78667 0.39638 0.0
H1950 H 0.59898 0.7566 0.35586 0.0
H1951 H 0.60591 0.73444 0.37278 0.0
C1952 C 0.57109 0.79791 0.34896 0.0
C1953 C 0.5765 0.81304 0.35248 0.0
C1954 C 0.57863 0.78477 0.35527 0.0
C1955 C 0.59167 0.78659 0.36514 0.0
C1956 C 0.59785 0.80162 0.36741 0.0
C1957 C 0.59037 0.81468 0.36116 0.0
C1958 C 0.60296 0.76281 0.40064 0.0
C1959 C 0.6053 0.74786 0.39429 0.0
C1960 C 0.59919 0.77542 0.39101 0.0
C1961 C 0.59745 0.77336 0.37479 0.0
C1962 C 0.60022 0.7585 0.36832 0.0
C1963 C 0.6043 0.74588 0.37798 0.0
H1964 H 0.95964 0.81476 0.08414 0.0
H1965 H 0.92855 0.84403 0.11108 0.0
H1966 H 0.98214 0.82732 0.0967 0.0
H1967 H 0.9509 0.85661 0.1234 0.0
H1968 H 0.99025 0.84993 0.16021 0.0
H1969 H 0.96841 0.84434 0.14296 0.0
H1970 H 0.99793 0.85209 0.10272 0.0
H1971 H 0.02001 0.85781 0.12018 0.0
C1972 C 0.95762 0.82421 0.09233 0.0
C1973 C 0.94233 0.82821 0.09683 0.0
C1974 C 0.9705 0.83141 0.09952 0.0
C1975 C 0.96826 0.84274 0.11127 0.0
C1976 C 0.95299 0.8477 0.11464 0.0
C1977 C 0.94019 0.84051 0.10753 0.0
C1978 C 0.99206 0.85071 0.1477 0.0
C1979 C 0.00686 0.8543 0.14157 0.0
C1980 C 0.9795 0.84759 0.13778 0.0
C1981 C 0.98142 0.84779 0.12145 0.0
C1982 C 0.99612 0.8518 0.11525 0.0
C1983 C 0.0087 0.85519 0.12524 0.0
H1984 H 0.67825 0.94734 0.79741 0.0
H1985 H 0.65447 0.91114 0.82339 0.0
H1986 H 0.66669 0.93741 0.77318 0.0
H1987 H 0.64317 0.90109 0.79913 0.0
H1988 H 0.63028 0.88525 0.74801 0.0
H1989 H 0.64879 0.89041 0.76951 0.0
H1990 H 0.63583 0.93917 0.76887 0.0
H1991 H 0.61725 0.93405 0.74799 0.0
C1992 C 0.67109 0.9369 0.79788 0.0
C1993 C 0.66713 0.93012 0.8123 0.0
C1994 C 0.66442 0.93127 0.78403 0.0
C1995 C 0.65395 0.91858 0.78435 0.0
C1996 C 0.65126 0.91084 0.79855 0.0
C1997 C 0.65769 0.91663 0.81243 0.0
C1998 C 0.63147 0.89704 0.75248 0.0
C1999 C 0.6222 0.90921 0.74645 0.0
C2000 C 0.64205 0.89999 0.7647 0.0
C2001 C 0.64385 0.91522 0.77067 0.0
C2002 C 0.63486 0.92737 0.76433 0.0
C2003 C 0.62408 0.92438 0.75249 0.0
H2004 H 0.84454 0.84738 0.51449 0.0
H2005 H 0.85745 0.88857 0.48825 0.0
H2006 H 0.83919 0.86353 0.5373 0.0
H2007 H 0.85182 0.9049 0.51125 0.0
H2008 H 0.81469 0.92328 0.55056 0.0
H2009 H 0.82592 0.91115 0.52708 0.0
H2010 H 0.85419 0.88117 0.55615 0.0
H2011 H 0.84315 0.89314 0.57943 0.0
C2012 C 0.8464 0.85989 0.51365 0.0
C2013 C 0.85144 0.8667 0.4996 0.0
C2014 C 0.84339 0.86914 0.52674 0.0
C2015 C 0.84512 0.88547 0.52605 0.0
C2016 C 0.85038 0.89234 0.51207 0.0
C2017 C 0.8537 0.883 0.49899 0.0
C2018 C 0.82361 0.9144 0.55191 0.0
C2019 C 0.8278 0.90898 0.56685 0.0
C2020 C 0.83004 0.90748 0.53848 0.0
C2021 C 0.84072 0.89505 0.53984 0.0
C2022 C 0.84579 0.89054 0.55477 0.0
C2023 C 0.83944 0.89744 0.5681 0.0
H2024 H 0.83055 0.06674 0.29866 0.0
H2025 H 0.85775 0.09691 0.32868 0.0
H2026 H 0.84306 0.07847 0.2757 0.0
H2027 H 0.86999 0.10872 0.30587 0.0
H2028 H 0.8666 0.10677 0.23653 0.0
H2029 H 0.84917 0.10222 0.25891 0.0
H2030 H 0.88942 0.09616 0.28877 0.0
H2031 H 0.90663 0.10064 0.26665 0.0
C2032 C 0.83879 0.07622 0.30034 0.0
C2033 C 0.84337 0.0807 0.31548 0.0
C2034 C 0.84595 0.08295 0.28719 0.0
C2035 C 0.85775 0.0943 0.289 0.0
C2036 C 0.8612 0.09976 0.3041 0.0
C2037 C 0.85414 0.09302 0.31717 0.0
C2038 C 0.87166 0.1048 0.24796 0.0
C2039 C 0.88799 0.10403 0.24983 0.0
C2040 C 0.8617 0.10208 0.26073 0.0
C2041 C 0.8679 0.09884 0.27561 0.0
C2042 C 0.88423 0.09882 0.27753 0.0
C2043 C 0.89412 0.1013 0.26481 0.0
H2044 H 0.65783 0.15961 0.01796 0.0
H2045 H 0.64935 0.11946 0.98849 0.0
H2046 H 0.66384 0.14243 0.03974 0.0
H2047 H 0.65544 0.10209 0.01051 0.0
H2048 H 0.69377 0.08344 0.04734 0.0
H2049 H 0.68034 0.09598 0.02537 0.0
H2050 H 0.65268 0.12303 0.0578 0.0
H2051 H 0.66618 0.11076 0.07961 0.0
C2052 C 0.65696 0.14709 0.01622 0.0
C2053 C 0.65314 0.1409 1.0015 0.0
C2054 C 0.66033 0.13721 0.02875 0.0
C2055 C 0.66012 0.12087 0.02687 0.0
C2056 C 0.65576 0.11463 0.01229 0.0
C2057 C 0.65215 0.12457 0.99974 0.0
C2058 C 0.68449 0.09172 0.04975 0.0
C2059 C 0.68122 0.09633 0.06518 0.0
C2060 C 0.67679 0.0989 0.03717 0.0
C2061 C 0.66567 0.11073 0.03986 0.0
C2062 C 0.66143 0.11421 0.05534 0.0
C2063 C 0.66914 0.10714 0.06784 0.0
H2064 H 0.67803 0.0569 0.7159 0.0
H2065 H 0.65918 0.09331 0.68646 0.0
H2066 H 0.66555 0.06904 0.73871 0.0
H2067 H 0.6469 0.10538 0.7091 0.0
H2068 H 0.60564 0.09981 0.74437 0.0
H2069 H 0.62397 0.09399 0.72343 0.0
H2070 H 0.66197 0.09334 0.75664 0.0
H2071 H 0.64347 0.09941 0.77778 0.0
C2072 C 0.67171 0.06776 0.71438 0.0
C2073 C 0.66936 0.074 0.69936 0.0
C2074 C 0.66455 0.07471 0.72743 0.0
C2075 C 0.655 0.08799 0.72561 0.0
C2076 C 0.65394 0.095 0.71081 0.0
C2077 C 0.66102 0.08809 0.69786 0.0
C2078 C 0.61794 0.09875 0.74719 0.0
C2079 C 0.62311 0.1001 0.76271 0.0
C2080 C 0.62847 0.09547 0.73518 0.0
C2081 C 0.64443 0.09322 0.73839 0.0
C2082 C 0.64973 0.09499 0.75385 0.0
C2083 C 0.63918 0.09858 0.76589 0.0
H2084 H 0.69945 0.92432 0.46206 0.0
H2085 H 0.66992 0.89579 0.43258 0.0
H2086 H 0.68808 0.91178 0.48528 0.0
H2087 H 0.65876 0.8834 0.45558 0.0
H2088 H 0.66743 0.8482 0.49622 0.0
H2089 H 0.67333 0.86481 0.47387 0.0
H2090 H 0.66199 0.9058 0.50107 0.0
H2091 H 0.6558 0.88902 0.5236 0.0
C2092 C 0.69028 0.91571 0.46054 0.0
C2093 C 0.6858 0.91087 0.44547 0.0
C2094 C 0.68377 0.90854 0.47381 0.0
C2095 C 0.67273 0.89643 0.47218 0.0
C2096 C 0.66743 0.89251 0.45717 0.0
C2097 C 0.67385 0.89964 0.444 0.0
C2098 C 0.66596 0.86074 0.49741 0.0
C2099 C 0.6611 0.8673 0.51165 0.0
C2100 C 0.6693 0.87025 0.48459 0.0
C2101 C 0.66809 0.8866 0.48573 0.0
C2102 C 0.66303 0.89323 0.4999 0.0
C2103 C 0.65939 0.88363 0.51271 0.0
H2104 H 0.82924 0.94946 0.21457 0.0
H2105 H 0.85226 0.91286 0.18851 0.0
H2106 H 0.84146 0.93992 0.23863 0.0
H2107 H 0.86416 0.90316 0.21264 0.0
H2108 H 0.87713 0.88849 0.26474 0.0
H2109 H 0.85823 0.8933 0.24349 0.0
H2110 H 0.87338 0.94138 0.24109 0.0
H2111 H 0.8924 0.93655 0.26167 0.0
C2112 C 0.83635 0.939 0.21407 0.0
C2113 C 0.83991 0.93199 0.19965 0.0
C2114 C 0.8434 0.93359 0.22782 0.0
C2115 C 0.8538 0.92088 0.22741 0.0
C2116 C 0.85611 0.91291 0.21326 0.0
C2117 C 0.84934 0.91851 0.19947 0.0
C2118 C 0.87635 0.90005 0.25964 0.0
C2119 C 0.88634 0.9121 0.26473 0.0
C2120 C 0.86555 0.9028 0.24757 0.0
C2121 C 0.86425 0.91776 0.24085 0.0
C2122 C 0.87399 0.92981 0.24623 0.0
C2123 C 0.885 0.92698 0.2579 0.0
H2124 H 0.85939 0.11719 0.02301 0.0
H2125 H 0.85419 0.15673 0.99204 0.0
H2126 H 0.85264 0.09948 1.00144 0.0
H2127 H 0.84748 0.13923 0.97072 0.0
H2128 H 0.81378 0.08186 0.96478 0.0
H2129 H 0.82781 0.09429 0.98646 0.0
H2130 H 0.85719 0.11869 0.95341 0.0
H2131 H 0.84305 0.10659 0.93189 0.0
C2132 C 0.85719 0.12206 0.01153 0.0
C2133 C 0.85728 0.13836 0.00922 0.0
C2134 C 0.85319 0.11194 0.99924 0.0
C2135 C 0.8495 0.11793 0.98437 0.0
C2136 C 0.85044 0.13417 0.98194 0.0
C2137 C 0.85422 0.14424 0.99421 0.0
C2138 C 0.82353 0.08952 0.96219 0.0
C2139 C 0.82713 0.09347 0.94665 0.0
C2140 C 0.83159 0.09663 0.9746 0.0
C2141 C 0.84341 0.10773 0.97163 0.0
C2142 C 0.84791 0.11048 0.95608 0.0
C2143 C 0.83984 0.10349 0.94375 0.0
H2144 H 0.76752 0.60311 0.90375 0.0
H2145 H 0.73615 0.64244 0.89983 0.0
H2146 H 0.78891 0.62071 0.90994 0.0
H2147 H 0.75778 0.66026 0.90608 0.0
H2148 H 0.79536 0.67736 0.94443 0.0
H2149 H 0.7734 0.66521 0.93061 0.0
H2150 H 0.80579 0.64153 0.89997 0.0
H2151 H 0.8276 0.65336 0.9139 0.0
C2152 C 0.76528 0.61557 0.90389 0.0
C2153 C 0.75014 0.62137 0.90134 0.0
C2154 C 0.77757 0.62571 0.90736 0.0
C2155 C 0.77506 0.64192 0.90852 0.0
C2156 C 0.76005 0.64783 0.90534 0.0
C2157 C 0.74772 0.63764 0.90163 0.0
C2158 C 0.79773 0.66995 0.93443 0.0
C2159 C 0.81319 0.66609 0.93042 0.0
C2160 C 0.78516 0.66299 0.9265 0.0
C2161 C 0.78788 0.65214 0.9144 0.0
C2162 C 0.80332 0.64955 0.90946 0.0
C2163 C 0.81581 0.65638 0.91742 0.0
H2164 H 0.23682 0.86736 0.10688 0.0
H2165 H 0.27057 0.90479 0.10344 0.0
H2166 H 0.25739 0.84831 0.10089 0.0
H2167 H 0.29092 0.88596 0.09748 0.0
H2168 H 0.32762 0.85131 0.09353 0.0
H2169 H 0.30643 0.86417 0.1075 0.0
H2170 H 0.27291 0.84244 0.07659 0.0
H2171 H 0.29423 0.82924 0.06277 0.0
C2172 C 0.24868 0.87148 0.10523 0.0
C2173 C 0.25207 0.88759 0.10558 0.0
C2174 C 0.26042 0.86059 0.10168 0.0
C2175 C 0.27579 0.8656 0.0987 0.0
C2176 C 0.27927 0.88164 0.09992 0.0
C2177 C 0.26756 0.89248 0.10325 0.0
C2178 C 0.31569 0.8489 0.09001 0.0
C2179 C 0.31258 0.83945 0.07692 0.0
C2180 C 0.30355 0.85634 0.09796 0.0
C2181 C 0.28802 0.85463 0.09293 0.0
C2182 C 0.28476 0.84399 0.08078 0.0
C2183 C 0.29696 0.8364 0.07285 0.0
H2184 H 0.8782 0.49739 0.87213 0.0
H2185 H 0.86579 0.49781 0.82317 0.0
H2186 H 0.89656 0.51915 0.8675 0.0
H2187 H 0.88428 0.51895 0.81857 0.0
H2188 H 0.92744 0.54754 0.81192 0.0
H2189 H 0.91545 0.52326 0.82124 0.0
H2190 H 0.89053 0.54903 0.8567 0.0
H2191 H 0.90221 0.57336 0.84721 0.0
C2192 C 0.8795 0.50201 0.86041 0.0
C2193 C 0.87046 0.49602 0.84804 0.0
C2194 C 0.88999 0.51438 0.85777 0.0
C2195 C 0.89194 0.52055 0.84264 0.0
C2196 C 0.88318 0.51426 0.83029 0.0
C2197 C 0.87247 0.50227 0.83298 0.0
C2198 C 0.91985 0.54796 0.82205 0.0
C2199 C 0.91565 0.56236 0.82875 0.0
C2200 C 0.91294 0.53408 0.82732 0.0
C2201 C 0.90201 0.53433 0.83961 0.0
C2202 C 0.89898 0.54851 0.84728 0.0
C2203 C 0.90563 0.56243 0.84181 0.0
H2204 H 0.21998 0.18375 0.55475 0.0
H2205 H 0.19 0.17036 0.59312 0.0
H2206 H 0.24229 0.17169 0.56819 0.0
H2207 H 0.21212 0.15833 0.60634 0.0
H2208 H 0.24497 0.11408 0.60193 0.0
H2209 H 0.22504 0.13315 0.59482 0.0
H2210 H 0.25983 0.16974 0.59456 0.0
H2211 H 0.27987 0.15056 0.60213 0.0
C2212 C 0.21828 0.17884 0.5663 0.0
C2213 C 0.20321 0.17779 0.57277 0.0
C2214 C 0.23103 0.17189 0.57397 0.0
C2215 C 0.22882 0.16384 0.58816 0.0
C2216 C 0.21409 0.16427 0.59533 0.0
C2217 C 0.20145 0.17121 0.58775 0.0
C2218 C 0.24831 0.12624 0.60071 0.0
C2219 C 0.26393 0.13085 0.60268 0.0
C2220 C 0.23691 0.13717 0.59667 0.0
C2221 C 0.2409 0.15293 0.59416 0.0
C2222 C 0.25646 0.15767 0.59644 0.0
C2223 C 0.26786 0.14674 0.60089 0.0
H2224 H 0.09197 0.94013 0.84583 0.0
H2225 H 0.08103 0.96905 0.80594 0.0
H2226 H 0.10268 0.96275 0.85942 0.0
H2227 H 0.09189 0.99181 0.81961 0.0
H2228 H 0.11133 0.03094 0.85102 0.0
H2229 H 0.09251 0.01048 0.84375 0.0
H2230 H 0.12805 0.97543 0.85111 0.0
H2231 H 0.14676 0.99574 0.85805 0.0
C2232 C 0.09139 0.95144 0.84016 0.0
C2233 C 0.08587 0.95278 0.82473 0.0
C2234 C 0.09758 0.96438 0.84794 0.0
C2235 C 0.09842 0.97896 0.84046 0.0
C2236 C 0.09138 0.9807 0.82568 0.0
C2237 C 0.08512 0.96768 0.81785 0.0
C2238 C 0.11495 0.01882 0.85149 0.0
C2239 C 0.1305 0.0149 0.85512 0.0
C2240 C 0.10422 0.00715 0.8472 0.0
C2241 C 0.10879 0.99136 0.84687 0.0
C2242 C 0.1241 0.98746 0.85143 0.0
C2243 C 0.13485 0.99909 0.85537 0.0
H2244 H 0.71282 0.33459 0.4414 0.0
H2245 H 0.68079 0.36452 0.41639 0.0
H2246 H 0.73486 0.34763 0.42854 0.0
H2247 H 0.70267 0.3773 0.40346 0.0
H2248 H 0.7435 0.41246 0.40974 0.0
H2249 H 0.72146 0.39546 0.4154 0.0
H2250 H 0.74938 0.35502 0.40382 0.0
H2251 H 0.77166 0.3722 0.39811 0.0
C2252 C 0.71046 0.34358 0.43281 0.0
C2253 C 0.69509 0.34871 0.43012 0.0
C2254 C 0.72308 0.35105 0.42543 0.0
C2255 C 0.7205 0.36371 0.41522 0.0
C2256 C 0.70505 0.36783 0.41152 0.0
C2257 C 0.69251 0.36046 0.41891 0.0
C2258 C 0.7449 0.39997 0.40813 0.0
C2259 C 0.75934 0.39369 0.40351 0.0
C2260 C 0.73222 0.39021 0.41129 0.0
C2261 C 0.73366 0.37387 0.41005 0.0
C2262 C 0.74795 0.36756 0.40494 0.0
C2263 C 0.76065 0.37739 0.40156 0.0
H2264 H 0.84878 0.49471 0.66249 0.0
H2265 H 0.88933 0.52426 0.65673 0.0
H2266 H 0.86564 0.47238 0.66744 0.0
H2267 H 0.90638 0.50171 0.66189 0.0
H2268 H 0.92333 0.4609 0.69765 0.0
H2269 H 0.91125 0.48437 0.68643 0.0
H2270 H 0.88555 0.45554 0.65393 0.0
H2271 H 0.89743 0.43225 0.66506 0.0
C2272 C 0.86133 0.49638 0.66206 0.0
C2273 C 0.86772 0.51123 0.65921 0.0
C2274 C 0.87101 0.48356 0.66483 0.0
C2275 C 0.88735 0.48529 0.66503 0.0
C2276 C 0.89382 0.50007 0.66183 0.0
C2277 C 0.88408 0.51291 0.65877 0.0
C2278 C 0.91545 0.45964 0.68782 0.0
C2279 C 0.91112 0.4447 0.68244 0.0
C2280 C 0.90855 0.47307 0.68139 0.0
C2281 C 0.89724 0.47173 0.6695 0.0
C2282 C 0.89399 0.4569 0.66327 0.0
C2283 C 0.90084 0.44356 0.66966 0.0
H2284 H 0.60576 0.57261 0.16584 0.0
H2285 H 0.58755 0.54851 0.20631 0.0
H2286 H 0.61703 0.54817 0.15629 0.0
H2287 H 0.59907 0.52407 0.19682 0.0
H2288 H 0.64739 0.49854 0.18887 0.0
H2289 H 0.62928 0.51952 0.19513 0.0
H2290 H 0.61169 0.51865 0.14785 0.0
H2291 H 0.62976 0.49714 0.14155 0.0
C2292 C 0.60378 0.56199 0.17247 0.0
C2293 C 0.59588 0.56249 0.18689 0.0
C2294 C 0.6102 0.548 0.16696 0.0
C2295 C 0.60906 0.53429 0.1759 0.0
C2296 C 0.60018 0.53453 0.18975 0.0
C2297 C 0.59351 0.54848 0.19513 0.0
C2298 C 0.63965 0.50274 0.17977 0.0
C2299 C 0.6401 0.49626 0.16466 0.0
C2300 C 0.62914 0.51464 0.18344 0.0
C2301 C 0.61898 0.52059 0.17203 0.0
C2302 C 0.61936 0.51418 0.15688 0.0
C2303 C 0.6297 0.50194 0.15328 0.0
H2304 H 0.61701 0.75957 0.87894 0.0
H2305 H 0.5703 0.75805 0.89809 0.0
H2306 H 0.60997 0.73853 0.86056 0.0
H2307 H 0.56329 0.73757 0.87966 0.0
H2308 H 0.55069 0.71013 0.83697 0.0
H2309 H 0.56074 0.73405 0.84917 0.0
H2310 H 0.60123 0.70882 0.86547 0.0
H2311 H 0.5911 0.68489 0.85356 0.0
C2312 C 0.60527 0.75484 0.87916 0.0
C2313 C 0.59427 0.76035 0.89007 0.0
C2314 C 0.60124 0.74287 0.86864 0.0
C2315 C 0.58603 0.73658 0.86858 0.0
C2316 C 0.57502 0.74235 0.87927 0.0
C2317 C 0.57912 0.75397 0.88996 0.0
C2318 C 0.56196 0.70981 0.84272 0.0
C2319 C 0.57005 0.69563 0.84442 0.0
C2320 C 0.56767 0.72346 0.84978 0.0
C2321 C 0.5817 0.72322 0.85836 0.0
C2322 C 0.59044 0.70936 0.85887 0.0
C2323 C 0.5846 0.69566 0.85209 0.0
H2324 H 0.51837 0.34877 0.16278 0.0
H2325 H 0.48608 0.35208 0.1241 0.0
H2326 H 0.53984 0.34519 0.14464 0.0
H2327 H 0.50782 0.34863 0.10573 0.0
H2328 H 0.57827 0.3459 0.11146 0.0
H2329 H 0.55573 0.35721 0.12462 0.0
H2330 H 0.52518 0.32648 0.09863 0.0
H2331 H 0.54782 0.31543 0.08511 0.0
C2332 C 0.51589 0.34903 0.15036 0.0
C2333 C 0.50049 0.35062 0.14491 0.0
C2334 C 0.52825 0.34709 0.13991 0.0
C2335 C 0.52558 0.34662 0.12368 0.0
C2336 C 0.51025 0.34884 0.11815 0.0
C2337 C 0.49782 0.35093 0.12867 0.0
C2338 C 0.56671 0.34184 0.10825 0.0
C2339 C 0.56483 0.32961 0.09743 0.0
C2340 C 0.55379 0.34826 0.11585 0.0
C2341 C 0.53867 0.34249 0.11296 0.0
C2342 C 0.53665 0.33122 0.10112 0.0
C2343 C 0.54963 0.32487 0.09337 0.0
H2344 H 0.94706 0.29942 0.33218 0.0
H2345 H 0.91296 0.3276 0.3565 0.0
H2346 H 0.93658 0.27597 0.34485 0.0
H2347 H 0.90233 0.30409 0.36888 0.0
H2348 H 0.88421 0.25306 0.38153 0.0
H2349 H 0.89006 0.27458 0.36324 0.0
H2350 H 0.93873 0.27228 0.37619 0.0
H2351 H 0.93296 0.25138 0.39459 0.0
C2352 C 0.93698 0.30054 0.33976 0.0
C2353 C 0.93092 0.31536 0.34346 0.0
C2354 C 0.93104 0.28714 0.34706 0.0
C2355 C 0.91873 0.28829 0.35789 0.0
C2356 C 0.91176 0.3029 0.36051 0.0
C2357 C 0.9179 0.31634 0.35346 0.0
C2358 C 0.89613 0.2572 0.38044 0.0
C2359 C 0.90809 0.25064 0.38961 0.0
C2360 C 0.89946 0.26943 0.36998 0.0
C2361 C 0.91488 0.27489 0.3682 0.0
C2362 C 0.9268 0.26813 0.37717 0.0
C2363 C 0.92344 0.25628 0.38784 0.0
H2364 H 0.00564 0.64045 0.63267 0.0
H2365 H 0.00516 0.68822 0.64915 0.0
H2366 H 0.98444 0.64674 0.61424 0.0
H2367 H 0.98452 0.69447 0.63064 0.0
H2368 H 0.9574 0.70495 0.58723 0.0
H2369 H 0.98115 0.6949 0.59965 0.0
H2370 H 0.95476 0.6567 0.61942 0.0
H2371 H 0.93097 0.66687 0.60729 0.0
C2372 C 1.00109 0.65226 0.63231 0.0
C2373 C 0.00696 0.66379 0.64246 0.0
C2374 C 0.98904 0.65585 0.62176 0.0
C2375 C 0.98304 0.67114 0.6209 0.0
C2376 C 0.98911 0.68266 0.63088 0.0
C2377 C 1.0008 0.67901 0.64161 0.0
C2378 C 0.95677 0.69413 0.59378 0.0
C2379 C 0.94233 0.68676 0.5964 0.0
C2380 C 0.97033 0.68844 0.60096 0.0
C2381 C 0.96971 0.67511 0.61058 0.0
C2382 C 0.95556 0.66695 0.61201 0.0
C2383 C 0.94196 0.6728 0.6051 0.0
H2384 H 0.55992 0.30131 0.67248 0.0
H2385 H 0.59127 0.33071 0.6459 0.0
H2386 H 0.57145 0.27809 0.66013 0.0
H2387 H 0.60263 0.3077 0.63369 0.0
H2388 H 0.59459 0.26806 0.59725 0.0
H2389 H 0.58862 0.2902 0.6141 0.0
H2390 H 0.59713 0.26174 0.6549 0.0
H2391 H 0.60337 0.23941 0.6379 0.0
C2392 C 0.56954 0.3028 0.66438 0.0
C2393 C 0.57449 0.31786 0.65997 0.0
C2394 C 0.57614 0.28952 0.65731 0.0
C2395 C 0.58773 0.29115 0.64574 0.0
C2396 C 0.59352 0.30612 0.64236 0.0
C2397 C 0.587 0.3193 0.64939 0.0
C2398 C 0.59541 0.26655 0.6098 0.0
C2399 C 0.59948 0.25201 0.61624 0.0
C2400 C 0.59205 0.27925 0.61946 0.0
C2401 C 0.59245 0.2777 0.63582 0.0
C2402 C 0.59672 0.26323 0.64233 0.0
C2403 C 0.60039 0.25053 0.63261 0.0
H2404 H 0.99368 0.35911 0.85353 0.0
H2405 H 0.02542 0.36199 0.89268 0.0
H2406 H 0.97229 0.35321 0.8712 0.0
H2407 H 1.00378 0.35609 0.91059 0.0
H2408 H 0.93376 0.34871 0.9039 0.0
H2409 H 0.95554 0.36265 0.89203 0.0
H2410 H 0.98798 0.332 0.9156 0.0
H2411 H 0.96606 0.31823 0.92785 0.0
C2412 C 0.99601 0.35885 0.86599 0.0
C2413 C 0.01125 0.36097 0.87169 0.0
C2414 C 0.9837 0.35554 0.87616 0.0
C2415 C 0.98631 0.35412 0.89234 0.0
C2416 C 1.00142 0.357 0.89818 0.0
C2417 C 0.01377 0.36052 0.88795 0.0
C2418 C 0.94555 0.34519 0.90688 0.0
C2419 C 0.9482 0.33221 0.91661 0.0
C2420 C 0.95804 0.35315 0.90002 0.0
C2421 C 0.97349 0.34823 0.90258 0.0
C2422 C 0.97622 0.33612 0.91341 0.0
C2423 C 0.96366 0.3282 0.92042 0.0
H2424 H 0.91328 0.68608 0.15605 0.0
H2425 H 0.95113 0.71288 0.17604 0.0
H2426 H 0.90266 0.70984 0.14424 0.0
H2427 H 0.94062 0.73661 0.16394 0.0
H2428 H 0.9337 0.76001 0.11406 0.0
H2429 H 0.94011 0.73971 0.13288 0.0
H2430 H 0.89247 0.73966 0.14943 0.0
H2431 H 0.88601 0.76058 0.13067 0.0
C2432 C 0.91905 0.69714 0.15831 0.0
C2433 C 0.9331 0.69762 0.16686 0.0
C2434 C 0.91293 0.71073 0.1516 0.0
C2435 C 0.92091 0.72499 0.15308 0.0
C2436 C 0.93429 0.72571 0.16262 0.0
C2437 C 0.94025 0.71216 0.1696 0.0
C2438 C 0.92455 0.75575 0.12171 0.0
C2439 C 0.9093 0.76181 0.12078 0.0
C2440 C 0.92829 0.74425 0.13262 0.0
C2441 C 0.91683 0.73826 0.14271 0.0
C2442 C 0.90152 0.7442 0.14183 0.0
C2443 C 0.89784 0.75609 0.1311 0.0
H2444 H 0.50365 0.68552 0.36535 0.0
H2445 H 0.50157 0.63792 0.38216 0.0
H2446 H 0.52398 0.69146 0.38429 0.0
H2447 H 0.52252 0.64389 0.40105 0.0
H2448 H 0.57655 0.6635 0.40821 0.0
H2449 H 0.55268 0.65335 0.39619 0.0
H2450 H 0.52665 0.692 0.41544 0.0
H2451 H 0.55047 0.70204 0.42776 0.0
C2452 C 0.50759 0.67627 0.37306 0.0
C2453 C 0.50109 0.66119 0.37216 0.0
C2454 C 0.51911 0.67975 0.38404 0.0
C2455 C 0.52466 0.66819 0.39425 0.0
C2456 C 0.51831 0.65303 0.39337 0.0
C2457 C 0.50641 0.64962 0.38256 0.0
C2458 C 0.56562 0.66952 0.41035 0.0
C2459 C 0.56538 0.68363 0.41882 0.0
C2460 C 0.55196 0.66367 0.4035 0.0
C2461 C 0.5379 0.67198 0.40478 0.0
C2462 C 0.53739 0.68541 0.41427 0.0
C2463 C 0.551 0.6911 0.42138 0.0
H2464 H 0.87918 0.62138 0.76523 0.0
H2465 H 0.89698 0.57418 0.76275 0.0
H2466 H 0.86058 0.61525 0.74405 0.0
H2467 H 0.87828 0.56806 0.74223 0.0
H2468 H 0.83469 0.55724 0.71559 0.0
H2469 H 0.84668 0.56739 0.73956 0.0
H2470 H 0.86662 0.60572 0.71352 0.0
H2471 H 0.85497 0.59544 0.68951 0.0
C2472 C 0.87904 0.60972 0.76027 0.0
C2473 C 0.88964 0.59832 0.76551 0.0
C2474 C 0.8684 0.60622 0.74824 0.0
C2475 C 0.8679 0.59113 0.74171 0.0
C2476 C 0.87827 0.57971 0.74723 0.0
C2477 C 0.8891 0.58329 0.75886 0.0
C2478 C 0.84117 0.56812 0.71508 0.0
C2479 C 0.84402 0.57547 0.70067 0.0
C2480 C 0.84807 0.57388 0.72877 0.0
C2481 C 0.85762 0.58727 0.72831 0.0
C2482 C 0.85924 0.59544 0.71419 0.0
C2483 C 0.85262 0.58951 0.70045 0.0
H2484 H 0.66784 0.60515 0.9344 0.0
H2485 H 0.70788 0.58753 0.95955 0.0
H2486 H 0.65772 0.61667 0.95851 0.0
H2487 H 0.69782 0.5993 0.98365 0.0
H2488 H 0.68906 0.64807 0.00824 0.0
H2489 H 0.6958 0.62975 0.98758 0.0
H2490 H 0.64878 0.61147 0.98811 0.0
H2491 H 0.64199 0.62975 0.00933 0.0
C2492 C 0.67425 0.60336 0.94518 0.0
C2493 C 0.68872 0.59554 0.94508 0.0
C2494 C 0.66841 0.60991 0.95898 0.0
C2495 C 0.67706 0.609 0.97288 0.0
C2496 C 0.69096 0.60022 0.97304 0.0
C2497 C 0.69667 0.5934 0.95928 0.0
C2498 C 0.68011 0.64014 1.00403 0.0
C2499 C 0.66493 0.64045 0.01034 0.0
C2500 C 0.68406 0.62951 0.99232 0.0
C2501 C 0.67287 0.61909 0.98637 0.0
C2502 C 0.65764 0.61934 0.99259 0.0
C2503 C 0.65376 0.6298 1.00466 0.0
H2504 H 0.64459 0.3964 0.27409 0.0
H2505 H 0.6031 0.4063 0.24712 0.0
H2506 H 0.66082 0.40223 0.25111 0.0
H2507 H 0.61913 0.41199 0.22438 0.0
H2508 H 0.64853 0.41353 0.18271 0.0
H2509 H 0.63725 0.40022 0.20518 0.0
H2510 H 0.66653 0.42739 0.23606 0.0
H2511 H 0.67805 0.44067 0.21343 0.0
C2512 C 0.63894 0.39944 0.26318 0.0
C2513 C 0.62258 0.40092 0.26239 0.0
C2514 C 0.64822 0.40289 0.25008 0.0
C2515 C 0.64127 0.40756 0.23593 0.0
C2516 C 0.62487 0.40824 0.23502 0.0
C2517 C 0.61567 0.40505 0.24809 0.0
C2518 C 0.65285 0.41644 0.19426 0.0
C2519 C 0.664 0.42836 0.19631 0.0
C2520 C 0.64634 0.40882 0.20714 0.0
C2521 C 0.65076 0.41297 0.2224 0.0
C2522 C 0.6629 0.42392 0.22443 0.0
C2523 C 0.66949 0.43155 0.21148 0.0
H2524 H 0.84361 0.40325 0.43294 0.0
H2525 H 0.80694 0.42526 0.45976 0.0
H2526 H 0.85388 0.39127 0.45678 0.0
H2527 H 0.81709 0.41298 0.48356 0.0
H2528 H 0.82252 0.36349 0.50819 0.0
H2529 H 0.81649 0.38198 0.48745 0.0
H2530 H 0.86468 0.39683 0.48634 0.0
H2531 H 0.87077 0.37842 0.50768 0.0
C2532 C 0.83801 0.40587 0.444 0.0
C2533 C 0.8244 0.4151 0.44447 0.0
C2534 C 0.84393 0.39906 0.45763 0.0
C2535 C 0.83619 0.40112 0.47195 0.0
C2536 C 0.82323 0.41121 0.47263 0.0
C2537 C 0.81748 0.41828 0.45903 0.0
C2538 C 0.83187 0.37071 0.5036 0.0
C2539 C 0.84716 0.36941 0.50949 0.0
C2540 C 0.82836 0.38142 0.49185 0.0
C2541 C 0.84008 0.39093 0.48543 0.0
C2542 C 0.85543 0.38968 0.4912 0.0
C2543 C 0.8589 0.37916 0.50334 0.0
H2544 H 0.90858 0.40667 0.76344 0.0
H2545 H 0.86781 0.39957 0.73455 0.0
H2546 H 0.89194 0.41235 0.78573 0.0
H2547 H 0.85095 0.40536 0.75709 0.0
H2548 H 0.83366 0.44293 0.7955 0.0
H2549 H 0.8456 0.43006 0.77286 0.0
H2550 H 0.8727 0.40086 0.80383 0.0
H2551 H 0.86104 0.41379 0.82632 0.0
C2552 C 0.89602 0.40603 0.76194 0.0
C2553 C 0.88952 0.40268 0.74724 0.0
C2554 C 0.88646 0.40921 0.77475 0.0
C2555 C 0.8701 0.40931 0.7732 0.0
C2556 C 0.86351 0.40543 0.75862 0.0
C2557 C 0.87315 0.40198 0.74578 0.0
C2558 C 0.84184 0.43347 0.79745 0.0
C2559 C 0.84662 0.42958 0.81269 0.0
C2560 C 0.84866 0.42607 0.78448 0.0
C2561 C 0.86032 0.41464 0.78657 0.0
C2562 C 0.86401 0.40985 0.80183 0.0
C2563 C 0.85728 0.41724 0.81472 0.0
H2564 H 0.80128 0.58733 0.04845 0.0
H2565 H 0.84145 0.60468 0.07363 0.0
H2566 H 0.81127 0.59935 0.02444 0.0
H2567 H 0.85152 0.61643 0.0496 0.0
H2568 H 0.86707 0.63002 0.99887 0.0
H2569 H 0.86032 0.61153 0.01991 0.0
H2570 H 0.81335 0.62984 0.02083 0.0
H2571 H 0.82006 0.64837 1.00035 0.0
C2572 C 0.8125 0.5932 0.04874 0.0
C2573 C 0.82051 0.59519 0.06293 0.0
C2574 C 0.81817 0.60015 0.03503 0.0
C2575 C 0.83209 0.60892 0.03523 0.0
C2576 C 0.84081 0.60968 0.0491 0.0
C2577 C 0.835 0.603 0.06286 0.0
C2578 C 0.85532 0.63003 1.00358 0.0
C2579 C 0.84416 0.64076 0.99807 0.0
C2580 C 0.85146 0.61945 0.01555 0.0
C2581 C 0.83626 0.61915 0.02183 0.0
C2582 C 0.82508 0.62964 0.01605 0.0
C2583 C 0.829 0.64039 1.00443 0.0
H2584 H 0.64332 0.60838 0.23355 0.0
H2585 H 0.60367 0.6055 0.26467 0.0
H2586 H 0.66087 0.60258 0.25553 0.0
H2587 H 0.62097 0.59971 0.28637 0.0
H2588 H 0.65331 0.59694 0.32554 0.0
H2589 H 0.64145 0.60997 0.30323 0.0
H2590 H 0.66579 0.5787 0.27194 0.0
H2591 H 0.678 0.5658 0.29442 0.0
C2592 C 0.63839 0.6069 0.24513 0.0
C2593 C 0.62211 0.60736 0.24739 0.0
C2594 C 0.64842 0.60344 0.25766 0.0
C2595 C 0.64234 0.60066 0.27271 0.0
C2596 C 0.62612 0.60198 0.27502 0.0
C2597 C 0.61615 0.60522 0.26254 0.0
C2598 C 0.65643 0.59306 0.31389 0.0
C2599 C 0.66639 0.58017 0.31174 0.0
C2600 C 0.64958 0.60051 0.3011 0.0
C2601 C 0.6524 0.59517 0.28582 0.0
C2602 C 0.6634 0.58312 0.28356 0.0
C2603 C 0.67038 0.57571 0.29643 0.0
H2604 H 0.64046 0.37742 0.50109 0.0
H2605 H 0.68869 0.36249 0.50038 0.0
H2606 H 0.64657 0.39556 0.52261 0.0
H2607 H 0.69473 0.3807 0.52137 0.0
H2608 H 0.70446 0.42339 0.54979 0.0
H2609 H 0.6945 0.41135 0.52578 0.0
H2610 H 0.65689 0.39014 0.55188 0.0
H2611 H 0.66695 0.40191 0.57591 0.0
C2612 C 0.65233 0.37807 0.50545 0.0
C2613 C 0.66406 0.36842 0.49916 0.0
C2614 C 0.65581 0.38845 0.51769 0.0
C2615 C 0.67116 0.38965 0.52347 0.0
C2616 C 0.68287 0.3802 0.51697 0.0
C2617 C 0.67934 0.36963 0.50507 0.0
C2618 C 0.69378 0.41659 0.55031 0.0
C2619 C 0.68656 0.41346 0.56473 0.0
C2620 C 0.68814 0.40963 0.5366 0.0
C2621 C 0.67502 0.39972 0.53704 0.0
C2622 C 0.66698 0.39778 0.55121 0.0
C2623 C 0.67278 0.40447 0.56495 0.0
H2624 H 0.74626 0.90861 0.60313 0.0
H2625 H 0.77461 0.86775 0.61169 0.0
H2626 H 0.72399 0.89198 0.59719 0.0
H2627 H 0.75212 0.85092 0.60556 0.0
H2628 H 0.7141 0.83368 0.56715 0.0
H2629 H 0.73673 0.84561 0.58014 0.0
H2630 H 0.70571 0.87274 0.60927 0.0
H2631 H 0.68326 0.86102 0.59632 0.0
C2632 C 0.74764 0.89605 0.60402 0.0
C2633 C 0.76217 0.88949 0.60789 0.0
C2634 C 0.73485 0.8865 0.60068 0.0
C2635 C 0.73629 0.87012 0.60091 0.0
C2636 C 0.75069 0.8635 0.60525 0.0
C2637 C 0.7635 0.87312 0.60889 0.0
C2638 C 0.71215 0.84184 0.57663 0.0
C2639 C 0.69691 0.84662 0.58051 0.0
C2640 C 0.72509 0.84867 0.58409 0.0
C2641 C 0.72297 0.86033 0.59552 0.0
C2642 C 0.70771 0.86402 0.60029 0.0
C2643 C 0.69486 0.85727 0.59288 0.0
H2644 H 0.27572 0.64 0.39863 0.0
H2645 H 0.24513 0.6 0.40257 0.0
H2646 H 0.25354 0.6574 0.40397 0.0
H2647 H 0.22324 0.61715 0.40797 0.0
H2648 H 0.21529 0.67505 0.44081 0.0
H2649 H 0.23755 0.66286 0.42763 0.0
H2650 H 0.20583 0.637 0.39801 0.0
H2651 H 0.1837 0.64883 0.41141 0.0
C2652 C 0.26421 0.63496 0.40024 0.0
C2653 C 0.26218 0.61863 0.40024 0.0
C2654 C 0.25155 0.6449 0.40344 0.0
C2655 C 0.23661 0.63869 0.40645 0.0
C2656 C 0.2345 0.6224 0.40552 0.0
C2657 C 0.2471 0.61252 0.4025 0.0
C2658 C 0.21311 0.6671 0.4312 0.0
C2659 C 0.19776 0.66268 0.42734 0.0
C2660 C 0.22587 0.66012 0.42361 0.0
C2661 C 0.22347 0.6487 0.41197 0.0
C2662 C 0.20809 0.64546 0.40718 0.0
C2663 C 0.1954 0.65229 0.41482 0.0
H2664 H 0.58658 0.96155 0.69369 0.0
H2665 H 0.61471 0.9309 0.66508 0.0
H2666 H 0.59944 0.98425 0.68185 0.0
H2667 H 0.62731 0.95346 0.65317 0.0
H2668 H 0.66356 0.99308 0.66124 0.0
H2669 H 0.64632 0.97099 0.66588 0.0
H2670 H 0.60613 1.00043 0.65783 0.0
H2671 H 0.62357 0.02277 0.65312 0.0
C2672 C 0.59512 0.95967 0.68454 0.0
C2673 C 0.59983 0.94443 0.68053 0.0
C2674 C 0.60248 0.97267 0.67774 0.0
C2675 C 0.61461 0.97063 0.6668 0.0
C2676 C 0.61825 0.95541 0.66181 0.0
C2677 C 0.61098 0.94248 0.66861 0.0
C2678 C 0.65106 0.99482 0.66019 0.0
C2679 C 0.64494 0.00968 0.65685 0.0
C2680 C 0.64116 0.98212 0.66276 0.0
C2681 C 0.62484 0.98394 0.66221 0.0
C2682 C 0.61866 0.99869 0.65838 0.0
C2683 C 0.62863 0.01143 0.65558 0.0
H2684 H 0.32236 0.34848 0.91534 0.0
H2685 H 0.29573 0.33116 0.95458 0.0
H2686 H 0.29885 0.36066 0.90468 0.0
H2687 H 0.27224 0.3436 0.944 0.0
H2688 H 0.25066 0.39394 0.9363 0.0
H2689 H 0.27026 0.37442 0.94272 0.0
H2690 H 0.26901 0.3572 0.89531 0.0
H2691 H 0.24885 0.3767 0.88883 0.0
C2692 C 0.31135 0.34677 0.92137 0.0
C2693 C 0.31089 0.33896 0.93585 0.0
C2694 C 0.2979 0.35374 0.91525 0.0
C2695 C 0.28381 0.35325 0.92364 0.0
C2696 C 0.28302 0.34422 0.93737 0.0
C2697 C 0.29642 0.33699 0.94335 0.0
C2698 C 0.2545 0.38601 0.92719 0.0
C2699 C 0.24828 0.38696 0.912 0.0
C2700 C 0.26559 0.37469 0.93095 0.0
C2701 C 0.27098 0.36417 0.91957 0.0
C2702 C 0.26492 0.36511 0.90431 0.0
C2703 C 0.25347 0.37628 0.90061 0.0
H2704 H 0.38838 0.48471 0.64999 0.0
H2705 H 0.3487 0.5155 0.65488 0.0
H2706 H 0.40603 0.50674 0.65529 0.0
H2707 H 0.36613 0.53728 0.66015 0.0
H2708 H 0.42392 0.54499 0.69248 0.0
H2709 H 0.41159 0.5227 0.67938 0.0
H2710 H 0.38627 0.55442 0.64937 0.0
H2711 H 0.39828 0.57656 0.66261 0.0
C2712 C 0.38345 0.49624 0.6518 0.0
C2713 C 0.36715 0.49838 0.65207 0.0
C2714 C 0.39354 0.5088 0.65496 0.0
C2715 C 0.3875 0.52376 0.65817 0.0
C2716 C 0.37122 0.52599 0.65754 0.0
C2717 C 0.3612 0.51346 0.6546 0.0
C2718 C 0.41609 0.54715 0.68277 0.0
C2719 C 0.41185 0.56251 0.67876 0.0
C2720 C 0.40903 0.53439 0.67524 0.0
C2721 C 0.3977 0.53681 0.66354 0.0
C2722 C 0.39467 0.55217 0.65857 0.0
C2723 C 0.4016 0.56486 0.66613 0.0
H2724 H 0.75094 0.12944 0.1187 0.0
H2725 H 0.75168 0.11114 0.0716 0.0
H2726 H 0.77212 0.1477 0.11175 0.0
H2727 H 0.77231 0.12944 0.06471 0.0
H2728 H 0.80004 0.17183 0.0524 0.0
H2729 H 0.77609 0.15994 0.06268 0.0
H2730 H 0.80165 0.1426 0.10254 0.0
H2731 H 0.82562 0.15422 0.09219 0.0
C2732 C 0.75554 0.12938 0.1069 0.0
C2733 C 0.74975 0.11874 0.09575 0.0
C2734 C 0.76759 0.13983 0.10293 0.0
C2735 C 0.77368 0.1401 0.08764 0.0
C2736 C 0.76767 0.12967 0.0765 0.0
C2737 C 0.75597 0.11905 0.08053 0.0
C2738 C 0.80044 0.16594 0.06361 0.0
C2739 C 0.81471 0.16384 0.07142 0.0
C2740 C 0.78676 0.15906 0.06944 0.0
C2741 C 0.78709 0.15024 0.08333 0.0
C2742 C 0.80106 0.14938 0.09186 0.0
C2743 C 0.81478 0.15599 0.08589 0.0
H2744 H 0.62656 0.99226 0.86966 0.0
H2745 H 0.6476 0.99636 0.82391 0.0
H2746 H 0.60783 0.01304 0.86269 0.0
H2747 H 0.62884 0.01649 0.81695 0.0
H2748 H 0.58657 0.04308 0.80322 0.0
H2749 H 0.59803 0.01895 0.8135 0.0
H2750 H 0.61295 0.04356 0.85494 0.0
H2751 H 0.60178 0.06774 0.84459 0.0
C2752 C 0.62711 0.99748 0.85814 0.0
C2753 C 0.63866 0.99281 0.84741 0.0
C2754 C 0.6164 0.00929 0.85415 0.0
C2755 C 0.61679 0.01619 0.83921 0.0
C2756 C 0.62811 0.01121 0.82844 0.0
C2757 C 0.63897 0.9998 0.83253 0.0
C2758 C 0.59179 0.04322 0.81477 0.0
C2759 C 0.59342 0.05732 0.82303 0.0
C2760 C 0.59841 0.02943 0.82061 0.0
C2761 C 0.60648 0.02946 0.83495 0.0
C2762 C 0.60674 0.0432 0.8439 0.0
C2763 C 0.60039 0.05704 0.83794 0.0
H2764 H 0.86167 0.01404 0.32584 0.0
H2765 H 0.87528 0.01322 0.37447 0.0
H2766 H 0.88003 0.9931 0.3202 0.0
H2767 H 0.89353 0.99162 0.36878 0.0
H2768 H 0.89884 0.93799 0.34652 0.0
H2769 H 0.88719 0.96189 0.35704 0.0
H2770 H 0.91139 0.98907 0.32212 0.0
H2771 H 0.92334 0.96523 0.31174 0.0
C2772 C 0.86858 0.00934 0.33535 0.0
C2773 C 0.86695 0.01519 0.35063 0.0
C2774 C 0.87921 0.99746 0.33207 0.0
C2775 C 0.88828 0.99087 0.34402 0.0
C2776 C 0.88672 0.99663 0.35936 0.0
C2777 C 0.8763 0.00891 0.3626 0.0
C2778 C 0.90208 0.94912 0.34141 0.0
C2779 C 0.9119 0.94972 0.32821 0.0
C2780 C 0.89546 0.96279 0.34749 0.0
C2781 C 0.89833 0.97726 0.34031 0.0
C2782 C 0.90902 0.97802 0.32784 0.0
C2783 C 0.91589 0.96438 0.32195 0.0
H2784 H 0.41984 0.31264 0.17079 0.0
H2785 H 0.46427 0.28987 0.17793 0.0
H2786 H 0.40986 0.28924 0.15777 0.0
H2787 H 0.45433 0.26652 0.16465 0.0
H2788 H 0.44032 0.24902 0.1142 0.0
H2789 H 0.44785 0.26729 0.13459 0.0
H2790 H 0.40452 0.25841 0.15886 0.0
H2791 H 0.39699 0.23958 0.13841 0.0
C2792 C 0.42726 0.3024 0.17011 0.0
C2793 C 0.44286 0.30309 0.17529 0.0
C2794 C 0.42154 0.28901 0.16266 0.0
C2795 C 0.4314 0.27619 0.16001 0.0
C2796 C 0.44653 0.27633 0.16647 0.0
C2797 C 0.45218 0.28963 0.17419 0.0
C2798 C 0.43233 0.2509 0.12384 0.0
C2799 C 0.41797 0.24292 0.12459 0.0
C2800 C 0.43677 0.26123 0.13565 0.0
C2801 C 0.42689 0.26408 0.14842 0.0
C2802 C 0.41242 0.25629 0.14919 0.0
C2803 C 0.40809 0.2456 0.13747 0.0
H2804 H 0.43109 0.66239 0.89998 0.0
H2805 H 0.46347 0.69099 0.9261 0.0
H2806 H 0.45284 0.64853 0.88798 0.0
H2807 H 0.48537 0.67734 0.91373 0.0
H2808 H 0.52264 0.64782 0.88996 0.0
H2809 H 0.50079 0.65322 0.90776 0.0
H2810 H 0.47016 0.65886 0.868 0.0
H2811 H 0.49174 0.65344 0.85044 0.0
C2812 C 0.44288 0.66548 0.90341 0.0
C2813 C 0.44559 0.67794 0.91379 0.0
C2814 C 0.45535 0.65758 0.89648 0.0
C2815 C 0.47084 0.66207 0.89961 0.0
C2816 C 0.47358 0.67357 0.91109 0.0
C2817 C 0.46104 0.68141 0.91817 0.0
C2818 C 0.51113 0.64981 0.8851 0.0
C2819 C 0.50891 0.65027 0.8688 0.0
C2820 C 0.49866 0.65304 0.89527 0.0
C2821 C 0.48373 0.6565 0.88932 0.0
C2822 C 0.48142 0.65604 0.87304 0.0
C2823 C 0.49384 0.65302 0.86293 0.0
H2824 H 0.06254 0.71303 0.67609 0.0
H2825 H 0.09091 0.68066 0.64972 0.0
H2826 H 0.07565 0.73496 0.66312 0.0
H2827 H 0.10419 0.70244 0.6371 0.0
H2828 H 0.09984 0.74115 0.5996 0.0
H2829 H 0.09373 0.71974 0.61717 0.0
H2830 H 0.09974 0.75038 0.65689 0.0
H2831 H 0.1058 0.77207 0.63911 0.0
C2832 C 0.07193 0.71061 0.66794 0.0
C2833 C 0.07552 0.69514 0.66373 0.0
C2834 C 0.07946 0.72317 0.6605 0.0
C2835 C 0.09075 0.72043 0.64882 0.0
C2836 C 0.09529 0.70495 0.64575 0.0
C2837 C 0.08772 0.69247 0.65305 0.0
C2838 C 0.10014 0.74331 0.61209 0.0
C2839 C 0.10327 0.75834 0.61794 0.0
C2840 C 0.09673 0.73098 0.6222 0.0
C2841 C 0.09625 0.73333 0.63848 0.0
C2842 C 0.09993 0.74823 0.64442 0.0
C2843 C 0.10353 0.7606 0.63424 0.0
H2844 H 0.07192 0.34899 0.39926 0.0
H2845 H 0.04442 0.31519 0.4248 0.0
H2846 H 0.04809 0.35953 0.38751 0.0
H2847 H 0.02064 0.32554 0.41271 0.0
H2848 H 0.99719 0.3278 0.36161 0.0
H2849 H 0.0179 0.32276 0.38043 0.0
H2850 H 0.01751 0.37129 0.39424 0.0
H2851 H 0.99611 0.37634 0.37556 0.0
C2852 C 0.06074 0.34416 0.40275 0.0
C2853 C 0.06003 0.33119 0.41285 0.0
C2854 C 0.04712 0.35024 0.39607 0.0
C2855 C 0.03261 0.34327 0.39917 0.0
C2856 C 0.03174 0.33111 0.4102 0.0
C2857 C 0.04533 0.32523 0.41714 0.0
C2858 C 1.00144 0.33743 0.36867 0.0
C2859 C 0.99512 0.3525 0.36703 0.0
C2860 C 0.01317 0.33449 0.37956 0.0
C2861 C 0.01914 0.3466 0.38886 0.0
C2862 C 0.01295 0.36175 0.38726 0.0
C2863 C 1.00081 0.36463 0.37658 0.0
H2864 H 0.41399 0.74196 0.41422 0.0
H2865 H 0.4078 0.77323 0.37504 0.0
H2866 H 0.41919 0.72052 0.39636 0.0
H2867 H 0.41305 0.75153 0.35699 0.0
H2868 H 0.44892 0.71275 0.33731 0.0
H2869 H 0.43699 0.7352 0.35051 0.0
H2870 H 0.40686 0.70393 0.3763 0.0
H2871 H 0.41887 0.68162 0.36337 0.0
C2872 C 0.41352 0.74421 0.40176 0.0
C2873 C 0.41052 0.75932 0.39607 0.0
C2874 C 0.4164 0.73188 0.3915 0.0
C2875 C 0.41649 0.73431 0.37523 0.0
C2876 C 0.4131 0.74932 0.36946 0.0
C2877 C 0.40999 0.7617 0.37979 0.0
C2878 C 0.43942 0.71073 0.34544 0.0
C2879 C 0.43502 0.69542 0.34951 0.0
C2880 C 0.43258 0.72358 0.353 0.0
C2881 C 0.42121 0.7213 0.36469 0.0
C2882 C 0.41584 0.70605 0.36762 0.0
C2883 C 0.42269 0.69327 0.36015 0.0
H2884 H 0.98464 0.65585 0.12127 0.0
H2885 H 0.01453 0.66102 0.16162 0.0
H2886 H 0.00677 0.6623 0.10411 0.0
H2887 H 0.03648 0.66723 0.14463 0.0
H2888 H 0.07616 0.66746 0.11216 0.0
H2889 H 0.05342 0.65504 0.12387 0.0
H2890 H 0.02323 0.68765 0.10002 0.0
H2891 H 0.04615 0.70019 0.08814 0.0
C2892 C 0.99599 0.65801 0.12644 0.0
C2893 C 0.99787 0.65793 0.14279 0.0
C2894 C 0.00859 0.66182 0.11664 0.0
C2895 C 0.02335 0.66524 0.12302 0.0
C2896 C 0.02531 0.66448 0.13933 0.0
C2897 C 0.01272 0.66097 0.14908 0.0
C2898 C 0.06466 0.67181 0.1091 0.0
C2899 C 0.06297 0.685 0.09943 0.0
C2900 C 0.05164 0.66468 0.11585 0.0
C2901 C 0.03659 0.67056 0.1131 0.0
C2902 C 0.03472 0.68287 0.10233 0.0
C2903 C 0.04783 0.69005 0.09553 0.0
H2904 H 0.06671 0.25182 0.90091 0.0
H2905 H 0.11361 0.24855 0.88245 0.0
H2906 H 0.06089 0.27276 0.88256 0.0
H2907 H 0.10778 0.26996 0.86416 0.0
H2908 H 0.0917 0.32412 0.85655 0.0
H2909 H 0.10042 0.29984 0.86883 0.0
H2910 H 0.05894 0.27647 0.85213 0.0
H2911 H 0.05029 0.30072 0.83959 0.0
C2912 C 0.07581 0.25561 0.89296 0.0
C2913 C 0.09067 0.24859 0.89322 0.0
C2914 C 0.0724 0.26748 0.88232 0.0
C2915 C 0.08383 0.27285 0.87184 0.0
C2916 C 0.09874 0.26595 0.87209 0.0
C2917 C 0.10208 0.25376 0.88256 0.0
C2918 C 0.08468 0.31367 0.85508 0.0
C2919 C 0.07026 0.31433 0.8472 0.0
C2920 C 0.0897 0.29978 0.86208 0.0
C2921 C 0.08026 0.28636 0.86156 0.0
C2922 C 0.06637 0.28671 0.85277 0.0
C2923 C 0.06149 0.30054 0.8455 0.0
H2924 H 0.52259 0.36105 0.61713 0.0
H2925 H 0.49294 0.35502 0.65754 0.0
H2926 H 0.50053 0.35425 0.6 0.0
H2927 H 0.47108 0.34844 0.64062 0.0
H2928 H 0.43133 0.34588 0.60867 0.0
H2929 H 0.45351 0.35951 0.62012 0.0
H2930 H 0.48511 0.32857 0.59582 0.0
H2931 H 0.46275 0.31489 0.58415 0.0
C2932 C 0.51128 0.35868 0.62231 0.0
C2933 C 0.50945 0.35857 0.63866 0.0
C2934 C 0.49872 0.35467 0.61253 0.0
C2935 C 0.48408 0.35082 0.61896 0.0
C2936 C 0.48214 0.35152 0.63527 0.0
C2937 C 0.49469 0.35524 0.64499 0.0
C2938 C 0.443 0.34217 0.60546 0.0
C2939 C 0.44529 0.32911 0.59572 0.0
C2940 C 0.45571 0.34998 0.61205 0.0
C2941 C 0.47103 0.34493 0.60911 0.0
C2942 C 0.47342 0.33275 0.59828 0.0
C2943 C 0.46062 0.3249 0.59161 0.0
H2944 H 0.17272 0.44776 0.2959 0.0
H2945 H 0.14637 0.4172 0.32632 0.0
H2946 H 0.16063 0.43523 0.27308 0.0
H2947 H 0.13449 0.40476 0.30369 0.0
H2948 H 0.09807 0.41085 0.26376 0.0
H2949 H 0.1148 0.41706 0.28588 0.0
H2950 H 0.1557 0.40977 0.25722 0.0
H2951 H 0.13878 0.40334 0.23488 0.0
C2952 C 0.16472 0.4381 0.29771 0.0
C2953 C 0.16029 0.43368 0.31292 0.0
C2954 C 0.15781 0.43091 0.28465 0.0
C2955 C 0.1464 0.4192 0.28663 0.0
C2956 C 0.14301 0.41395 0.3018 0.0
C2957 C 0.14986 0.42109 0.31477 0.0
C2958 C 0.11063 0.41028 0.26222 0.0
C2959 C 0.1171 0.40658 0.24759 0.0
C2960 C 0.12023 0.41378 0.27492 0.0
C2961 C 0.13658 0.4139 0.2733 0.0
C2962 C 0.14314 0.40981 0.25878 0.0
C2963 C 0.13347 0.40601 0.24606 0.0
H2964 H 0.36418 0.38647 0.99324 0.0
H2965 H 0.32198 0.36067 1.00364 0.0
H2966 H 0.35589 0.40711 0.01154 0.0
H2967 H 0.31367 0.38129 0.02135 0.0
H2968 H 0.29539 0.42508 0.04167 0.0
H2969 H 0.30627 0.4116 0.01886 0.0
H2970 H 0.35022 0.40615 0.04295 0.0
H2971 H 0.33928 0.41932 0.06584 0.0
C2972 C 0.35318 0.38521 0.99938 0.0
C2973 C 0.34382 0.37186 0.99711 0.0
C2974 C 0.34842 0.39704 0.00974 0.0
C2975 C 0.33402 0.39589 0.0176 0.0
C2976 C 0.32468 0.38261 0.01521 0.0
C2977 C 0.32957 0.3707 0.00522 0.0
C2978 C 0.30758 0.42165 0.04182 0.0
C2979 C 0.31647 0.42317 0.05553 0.0
C2980 C 0.31375 0.41381 0.02884 0.0
C2981 C 0.32901 0.40769 0.02927 0.0
C2982 C 0.33846 0.4108 0.0423 0.0
C2983 C 0.33219 0.41835 0.05538 0.0
H2984 H 0.35355 0.5942 0.82266 0.0
H2985 H 0.33549 0.55361 0.79862 0.0
H2986 H 0.36485 0.60372 0.7982 0.0
H2987 H 0.34703 0.56307 0.77418 0.0
H2988 H 0.39558 0.57083 0.74899 0.0
H2989 H 0.37738 0.56475 0.76995 0.0
H2990 H 0.35963 0.61195 0.76846 0.0
H2991 H 0.3778 0.61806 0.74695 0.0
C2992 C 0.3516 0.58755 0.81205 0.0
C2993 C 0.34374 0.57308 0.81258 0.0
C2994 C 0.35803 0.59304 0.79805 0.0
C2995 C 0.35696 0.58404 0.78436 0.0
C2996 C 0.34809 0.57018 0.78462 0.0
C2997 C 0.3414 0.56482 0.79858 0.0
C2998 C 0.38779 0.57996 0.75305 0.0
C2999 C 0.38823 0.59498 0.74638 0.0
C3000 C 0.37723 0.57639 0.76494 0.0
C3001 C 0.36698 0.58782 0.77071 0.0
C3002 C 0.36736 0.60291 0.76413 0.0
C3003 C 0.37775 0.6064 0.75189 0.0
H3004 H 0.16307 0.60751 0.57265 0.0
H3005 H 0.20244 0.58622 0.54931 0.0
H3006 H 0.15451 0.61888 0.54787 0.0
H3007 H 0.19396 0.59784 0.52456 0.0
H3008 H 0.18903 0.64599 0.49773 0.0
H3009 H 0.1941 0.62814 0.51927 0.0
H3010 H 0.14599 0.61298 0.51832 0.0
H3011 H 0.1409 0.63075 0.49625 0.0
C3012 C 0.16966 0.60492 0.56214 0.0
C3013 C 0.1835 0.59607 0.56294 0.0
C3014 C 0.16471 0.61138 0.54796 0.0
C3015 C 0.17366 0.60935 0.53436 0.0
C3016 C 0.1869 0.59963 0.53492 0.0
C3017 C 0.1917 0.59291 0.54906 0.0
C3018 C 0.17951 0.63883 0.50203 0.0
C3019 C 0.16452 0.63987 0.49537 0.0
C3020 C 0.18248 0.62847 0.51426 0.0
C3021 C 0.17048 0.61908 0.52036 0.0
C3022 C 0.15545 0.62005 0.51375 0.0
C3023 C 0.15255 0.63021 0.50118 0.0
H3024 H 0.0947 0.59835 0.2456 0.0
H3025 H 0.13604 0.60999 0.27215 0.0
H3026 H 0.1108 0.59276 0.22284 0.0
H3027 H 0.15232 0.60418 0.24917 0.0
H3028 H 0.17009 0.56641 0.21048 0.0
H3029 H 0.15819 0.57843 0.23366 0.0
H3030 H 0.12876 0.60657 0.20389 0.0
H3031 H 0.14049 0.59467 0.1809 0.0
C3032 C 0.10724 0.59992 0.2465 0.0
C3033 C 0.11411 0.60462 0.26064 0.0
C3034 C 0.11646 0.59679 0.23343 0.0
C3035 C 0.13282 0.59806 0.23423 0.0
C3036 C 0.13974 0.60308 0.24827 0.0
C3037 C 0.13043 0.60652 0.26134 0.0
C3038 C 0.16139 0.57547 0.20891 0.0
C3039 C 0.15603 0.57936 0.19387 0.0
C3040 C 0.1546 0.58236 0.22217 0.0
C3041 C 0.14237 0.59324 0.22055 0.0
C3042 C 0.13797 0.59803 0.20549 0.0
C3043 C 0.14472 0.59119 0.19232 0.0
H3044 H 0.15845 0.34837 0.99222 0.0
H3045 H 0.14796 0.38912 0.02013 0.0
H3046 H 0.16457 0.36503 0.97005 0.0
H3047 H 0.15423 0.40599 0.99772 0.0
H3048 H 0.19298 0.42436 0.96079 0.0
H3049 H 0.17964 0.41216 0.98305 0.0
H3050 H 0.1527 0.38365 0.95125 0.0
H3051 H 0.16605 0.39561 0.92916 0.0
C3052 C 0.15719 0.36091 0.99353 0.0
C3053 C 0.15274 0.36742 0.00792 0.0
C3054 C 0.16063 0.37048 0.98078 0.0
C3055 C 0.15987 0.38685 0.98212 0.0
C3056 C 0.15496 0.39342 0.99638 0.0
C3057 C 0.15126 0.38377 0.00914 0.0
C3058 C 0.18388 0.41583 0.95857 0.0
C3059 C 0.18077 0.41074 0.94324 0.0
C3060 C 0.17623 0.40885 0.97131 0.0
C3061 C 0.16534 0.39673 0.96889 0.0
C3062 C 0.16126 0.39272 0.9535 0.0
C3063 C 0.1689 0.39962 0.94084 0.0
H3064 H 0.33633 0.45735 0.71201 0.0
H3065 H 0.35358 0.4166 0.6877 0.0
H3066 H 0.34933 0.4485 0.73593 0.0
H3067 H 0.36629 0.40765 0.71169 0.0
H3068 H 0.38111 0.39451 0.76304 0.0
H3069 H 0.36201 0.40011 0.74224 0.0
H3070 H 0.38036 0.44694 0.73811 0.0
H3071 H 0.39953 0.44135 0.75835 0.0
C3072 C 0.34238 0.44623 0.71192 0.0
C3073 C 0.34406 0.43773 0.69796 0.0
C3074 C 0.34989 0.44122 0.72558 0.0
C3075 C 0.3589 0.42747 0.72558 0.0
C3076 C 0.35936 0.41825 0.71201 0.0
C3077 C 0.35213 0.42341 0.69829 0.0
C3078 C 0.38102 0.40598 0.75766 0.0
C3079 C 0.39192 0.41743 0.76222 0.0
C3080 C 0.37009 0.40918 0.74583 0.0
C3081 C 0.36961 0.42402 0.73875 0.0
C3082 C 0.38032 0.43549 0.74354 0.0
C3083 C 0.39141 0.4322 0.75501 0.0
H3084 H 0.31774 0.64595 0.51144 0.0
H3085 H 0.36488 0.62805 0.51394 0.0
H3086 H 0.31202 0.62813 0.49 0.0
H3087 H 0.35914 0.61031 0.49201 0.0
H3088 H 0.34284 0.60432 0.43763 0.0
H3089 H 0.35152 0.61592 0.46227 0.0
H3090 H 0.31044 0.59778 0.48526 0.0
H3091 H 0.30184 0.5859 0.46065 0.0
C3092 C 0.32692 0.63822 0.50738 0.0
C3093 C 0.34181 0.6385 0.51432 0.0
C3094 C 0.32356 0.62789 0.49521 0.0
C3095 C 0.33508 0.61773 0.48946 0.0
C3096 C 0.35003 0.61798 0.49631 0.0
C3097 C 0.35331 0.62813 0.5088 0.0
C3098 C 0.3359 0.6024 0.44806 0.0
C3099 C 0.32161 0.59429 0.4472 0.0
C3100 C 0.3409 0.60901 0.46216 0.0
C3101 C 0.33157 0.60787 0.47561 0.0
C3102 C 0.3178 0.59888 0.47501 0.0
C3103 C 0.31294 0.592 0.46096 0.0
H3104 H 0.30031 0.17757 0.44582 0.0
H3105 H 0.3307 0.15292 0.4139 0.0
H3106 H 0.2775 0.1661 0.43273 0.0
H3107 H 0.30807 0.14166 0.40087 0.0
H3108 H 0.26843 0.10454 0.40622 0.0
H3109 H 0.29057 0.12126 0.41246 0.0
H3110 H 0.26145 0.16215 0.40731 0.0
H3111 H 0.2391 0.14525 0.40085 0.0
C3112 C 0.30211 0.17012 0.43573 0.0
C3113 C 0.3173 0.16592 0.43109 0.0
C3114 C 0.28906 0.16357 0.42822 0.0
C3115 C 0.29104 0.15276 0.41596 0.0
C3116 C 0.30619 0.14972 0.41047 0.0
C3117 C 0.31915 0.1562 0.41794 0.0
C3118 C 0.2668 0.11711 0.40609 0.0
C3119 C 0.25205 0.12358 0.40303 0.0
C3120 C 0.27951 0.12671 0.40962 0.0
C3121 C 0.27775 0.14304 0.41038 0.0
C3122 C 0.26311 0.14961 0.40684 0.0
C3123 C 0.25039 0.13995 0.40302 0.0
H3124 H 0.82869 0.36048 0.5923 0.0
H3125 H 0.79668 0.33362 0.56393 0.0
H3126 H 0.80678 0.3726 0.60576 0.0
H3127 H 0.77459 0.34601 0.57736 0.0
H3128 H 0.73761 0.36885 0.60907 0.0
H3129 H 0.75962 0.35164 0.60249 0.0
H3130 H 0.78875 0.39218 0.59476 0.0
H3131 H 0.76698 0.4092 0.60125 0.0
C3132 C 0.81695 0.35693 0.58914 0.0
C3133 C 0.81441 0.34628 0.57687 0.0
C3134 C 0.80439 0.36392 0.59684 0.0
C3135 C 0.78895 0.36051 0.59241 0.0
C3136 C 0.78636 0.34886 0.58105 0.0
C3137 C 0.799 0.34177 0.57335 0.0
C3138 C 0.74884 0.37403 0.6063 0.0
C3139 C 0.75058 0.39039 0.60566 0.0
C3140 C 0.76137 0.36418 0.60241 0.0
C3141 C 0.77592 0.37053 0.59811 0.0
C3142 C 0.77778 0.38688 0.59821 0.0
C3143 C 0.76526 0.39666 0.60186 0.0
H3144 H 0.37845 0.99697 0.35996 0.0
H3145 H 0.35943 1.00411 0.31371 0.0
H3146 H 0.39781 0.01774 0.35504 0.0
H3147 H 0.37891 0.02431 0.30875 0.0
H3148 H 0.42395 0.04972 0.29927 0.0
H3149 H 0.41052 0.02572 0.30729 0.0
H3150 H 0.39325 0.04905 0.34853 0.0
H3151 H 0.40633 0.07316 0.34037 0.0
C3152 C 0.37849 1.00287 0.34875 0.0
C3153 C 0.36734 0.99902 0.33728 0.0
C3154 C 0.38955 0.01468 0.34594 0.0
C3155 C 0.38993 0.02245 0.33145 0.0
C3156 C 0.379 0.01834 0.31993 0.0
C3157 C 0.36775 0.0069 0.32285 0.0
C3158 C 0.41774 0.04958 0.3103 0.0
C3159 C 0.4161 0.06333 0.31914 0.0
C3160 C 0.40999 0.03588 0.31484 0.0
C3161 C 0.4008 0.03562 0.32847 0.0
C3162 C 0.40033 0.04894 0.33803 0.0
C3163 C 0.40779 0.06273 0.33333 0.0
H3164 H 0.68158 0.65234 0.09456 0.0
H3165 H 0.71377 0.67672 0.06424 0.0
H3166 H 0.70342 0.6405 0.1084 0.0
H3167 H 0.73576 0.66455 0.07796 0.0
H3168 H 0.77306 0.64168 0.10854 0.0
H3169 H 0.75139 0.65947 0.10243 0.0
H3170 H 0.72033 0.61983 0.09827 0.0
H3171 H 0.74175 0.60226 0.10433 0.0
C3172 C 0.69336 0.65544 0.09107 0.0
C3173 C 0.69597 0.66527 0.07815 0.0
C3174 C 0.70587 0.6486 0.09897 0.0
C3175 C 0.72131 0.6513 0.09406 0.0
C3176 C 0.724 0.66225 0.08205 0.0
C3177 C 0.71141 0.66922 0.07418 0.0
C3178 C 0.76149 0.63685 0.1067 0.0
C3179 C 0.7591 0.62057 0.10687 0.0
C3180 C 0.74914 0.64702 0.10308 0.0
C3181 C 0.73414 0.64108 0.09985 0.0
C3182 C 0.73166 0.62485 0.10089 0.0
C3183 C 0.74398 0.61474 0.10428 0.0
H3184 H 0.66652 0.49625 0.34205 0.0
H3185 H 0.62536 0.52207 0.35574 0.0
H3186 H 0.65059 0.4731 0.3376 0.0
H3187 H 0.60926 0.49871 0.35107 0.0
H3188 H 0.58991 0.4586 0.31565 0.0
H3189 H 0.60215 0.48238 0.32606 0.0
H3190 H 0.63398 0.45412 0.35311 0.0
H3191 H 0.6219 0.43052 0.34284 0.0
C3192 C 0.65407 0.49693 0.34426 0.0
C3193 C 0.6472 0.51098 0.34926 0.0
C3194 C 0.64494 0.48364 0.34178 0.0
C3195 C 0.62868 0.48409 0.34403 0.0
C3196 C 0.62177 0.49806 0.34923 0.0
C3197 C 0.63099 0.51136 0.352 0.0
C3198 C 0.59924 0.45748 0.32413 0.0
C3199 C 0.60511 0.44267 0.32819 0.0
C3200 C 0.60623 0.47109 0.3301 0.0
C3201 C 0.61919 0.47006 0.34018 0.0
C3202 C 0.62419 0.45526 0.34515 0.0
C3203 C 0.61724 0.44174 0.33926 0.0
H3204 H 0.18416 0.84758 0.91345 0.0
H3205 H 0.21733 0.82911 0.94667 0.0
H3206 H 0.20546 0.85874 0.8982 0.0
H3207 H 0.23876 0.84057 0.93148 0.0
H3208 H 0.27506 0.86229 0.89918 0.0
H3209 H 0.25434 0.84378 0.90644 0.0
H3210 H 0.22091 0.8816 0.90645 0.0
H3211 H 0.24144 0.8999 0.89935 0.0
C3212 C 0.19606 0.84554 0.91726 0.0
C3213 C 0.19908 0.83768 0.93138 0.0
C3214 C 0.20826 0.85199 0.90855 0.0
C3215 C 0.22376 0.85085 0.91382 0.0
C3216 C 0.22693 0.84163 0.9271 0.0
C3217 C 0.21467 0.83505 0.93581 0.0
C3218 C 0.26318 0.86651 0.9003 0.0
C3219 C 0.25986 0.88255 0.89873 0.0
C3220 C 0.25137 0.85595 0.90458 0.0
C3221 C 0.236 0.86121 0.90705 0.0
C3222 C 0.23257 0.87709 0.90446 0.0
C3223 C 0.24436 0.88762 0.90045 0.0
H3224 H 0.41534 0.94048 0.16821 0.0
H3225 H 0.42405 0.96197 0.21306 0.0
H3226 H 0.40382 0.96478 0.15873 0.0
H3227 H 0.41242 0.98632 0.20356 0.0
H3228 H 0.36468 0.00955 0.19027 0.0
H3229 H 0.38334 0.98951 0.19769 0.0
H3230 H 0.40651 0.99432 0.1531 0.0
H3231 H 0.38778 0.01477 0.14562 0.0
C3232 C 0.4153 0.95058 0.17586 0.0
C3233 C 0.42047 0.94928 0.19143 0.0
C3234 C 0.40871 0.9645 0.17041 0.0
C3235 C 0.40698 0.97734 0.18049 0.0
C3236 C 0.41344 0.97651 0.1956 0.0
C3237 C 0.42025 0.96263 0.20099 0.0
C3238 C 0.37374 0.0064 0.18199 0.0
C3239 C 0.37464 0.0137 0.16728 0.0
C3240 C 0.38457 0.99504 0.18635 0.0
C3241 C 0.39652 0.99048 0.17607 0.0
C3242 C 0.39746 0.99768 0.1613 0.0
C3243 C 0.38672 0.00932 0.15701 0.0
H3244 H 0.07559 0.03691 0.70001 0.0
H3245 H 0.08956 0.06844 0.66314 0.0
H3246 H 0.08964 0.0156 0.68696 0.0
H3247 H 0.10348 0.04726 0.65017 0.0
H3248 H 0.11565 0.97954 0.65647 0.0
H3249 H 0.09471 0.99831 0.66223 0.0
H3250 H 0.12843 0.03589 0.66156 0.0
H3251 H 0.14924 0.01726 0.65612 0.0
C3252 C 0.08104 0.03912 0.68879 0.0
C3253 C 0.08167 0.05437 0.68271 0.0
C3254 C 0.08914 0.02694 0.68134 0.0
C3255 C 0.09793 0.02989 0.66773 0.0
C3256 C 0.09704 0.04473 0.66079 0.0
C3257 C 0.08899 0.05683 0.66818 0.0
C3258 C 0.11848 0.99187 0.65719 0.0
C3259 C 0.13408 0.99696 0.65583 0.0
C3260 C 0.10653 1.00256 0.66059 0.0
C3261 C 0.10992 0.01855 0.66231 0.0
C3262 C 0.1254 0.02368 0.66012 0.0
C3263 C 0.13734 0.013 0.65705 0.0
H3264 H 0.09037 0.11438 0.37699 0.0
H3265 H 0.09784 0.12755 0.32884 0.0
H3266 H 0.11705 0.1043 0.37839 0.0
H3267 H 0.1248 0.11789 0.33043 0.0
H3268 H 0.17351 0.12887 0.35871 0.0
H3269 H 0.14664 0.13081 0.34923 0.0
H3270 H 0.1374 0.08397 0.36554 0.0
H3271 H 0.16449 0.08182 0.37462 0.0
C3272 C 0.09759 0.11471 0.36658 0.0
C3273 C 0.09205 0.12173 0.35281 0.0
C3274 C 0.11284 0.1089 0.36737 0.0
C3275 C 0.12298 0.11036 0.35452 0.0
C3276 C 0.11719 0.1166 0.34047 0.0
C3277 C 0.10176 0.12204 0.33955 0.0
C3278 C 0.16592 0.11878 0.35973 0.0
C3279 C 0.17108 0.10521 0.36741 0.0
C3280 C 0.15055 0.11988 0.35428 0.0
C3281 C 0.13995 0.10756 0.35673 0.0
C3282 C 0.14537 0.09361 0.3635 0.0
C3283 C 0.16088 0.09236 0.36861 0.0
H3284 H 0.14094 0.83677 0.62943 0.0
H3285 H 0.13503 0.84714 0.58038 0.0
H3286 H 0.15189 0.86288 0.63364 0.0
H3287 H 0.1455 0.87353 0.58477 0.0
H3288 H 0.13396 0.92155 0.61557 0.0
H3289 H 0.13046 0.89504 0.60527 0.0
H3290 H 0.17627 0.88244 0.6221 0.0
H3291 H 0.18007 0.90924 0.63182 0.0
C3292 C 0.14234 0.8445 0.61949 0.0
C3293 C 0.13717 0.83993 0.60457 0.0
C3294 C 0.14863 0.85941 0.62189 0.0
C3295 C 0.14952 0.87016 0.60952 0.0
C3296 C 0.145 0.86539 0.59446 0.0
C3297 C 0.13908 0.8503 0.59196 0.0
C3298 C 0.14349 0.91327 0.61655 0.0
C3299 C 0.15733 0.91743 0.62433 0.0
C3300 C 0.1415 0.89814 0.61067 0.0
C3301 C 0.15312 0.88677 0.61289 0.0
C3302 C 0.16721 0.89107 0.62015 0.0
C3303 C 0.16941 0.90638 0.62561 0.0
H3304 H 0.34654 0.92821 0.87248 0.0
H3305 H 0.33868 0.88038 0.85839 0.0
H3306 H 0.37359 0.92649 0.86308 0.0
H3307 H 0.36546 0.87885 0.84858 0.0
H3308 H 0.41348 0.88262 0.82692 0.0
H3309 H 0.38638 0.8918 0.8288 0.0
H3310 H 0.39489 0.90717 0.8761 0.0
H3311 H 0.42174 0.89759 0.87441 0.0
C3312 C 0.3504 0.91756 0.86681 0.0
C3313 C 0.34055 0.9044 0.86618 0.0
C3314 C 0.36587 0.91656 0.86152 0.0
C3315 C 0.37158 0.90254 0.85512 0.0
C3316 C 0.36132 0.88984 0.85331 0.0
C3317 C 0.34601 0.8907 0.85896 0.0
C3318 C 0.4097 0.88844 0.83752 0.0
C3319 C 0.41967 0.88937 0.85055 0.0
C3320 C 0.39419 0.8936 0.83861 0.0
C3321 C 0.38857 0.90017 0.85259 0.0
C3322 C 0.39896 0.90229 0.86513 0.0
C3323 C 0.4143 0.89677 0.86419 0.0
H3324 H 0.3674 0.16932 0.12672 0.0
H3325 H 0.38071 0.15991 0.07896 0.0
H3326 H 0.35636 0.14304 0.12885 0.0
H3327 H 0.3701 0.13334 0.08129 0.0
H3328 H 0.37933 0.08529 0.11157 0.0
H3329 H 0.38216 0.11171 0.10101 0.0
H3330 H 0.33547 0.12289 0.11638 0.0
H3331 H 0.33242 0.09625 0.12653 0.0
C3332 C 0.36754 0.16178 0.11654 0.0
C3333 C 0.37488 0.16665 0.10268 0.0
C3334 C 0.36119 0.14675 0.11774 0.0
C3335 C 0.36242 0.13616 0.10524 0.0
C3336 C 0.36897 0.14131 0.09107 0.0
C3337 C 0.37495 0.15652 0.08973 0.0
C3338 C 0.36944 0.09318 0.11212 0.0
C3339 C 0.35566 0.08872 0.11987 0.0
C3340 C 0.37105 0.1083 0.10606 0.0
C3341 C 0.35906 0.11934 0.10797 0.0
C3342 C 0.34487 0.11457 0.11475 0.0
C3343 C 0.34311 0.09931 0.12046 0.0
H3344 H 0.16714 0.87775 0.12804 0.0
H3345 H 0.16662 0.92606 0.14293 0.0
H3346 H 0.14002 0.87494 0.13603 0.0
H3347 H 0.13921 0.92302 0.15121 0.0
H3348 H 0.09357 0.89419 0.17574 0.0
H3349 H 0.12088 0.90209 0.17133 0.0
H3350 H 0.11588 0.8917 0.12224 0.0
H3351 H 0.08881 0.88407 0.12645 0.0
C3352 C 0.16136 0.88771 0.13332 0.0
C3353 C 0.16903 0.90219 0.13468 0.0
C3354 C 0.1458 0.88608 0.13785 0.0
C3355 C 0.13752 0.89882 0.144 0.0
C3356 C 0.14539 0.91304 0.14645 0.0
C3357 C 0.16105 0.91475 0.14174 0.0
C3358 C 0.09817 0.89408 0.16394 0.0
C3359 C 0.08907 0.88832 0.15147 0.0
C3360 C 0.11378 0.89856 0.16145 0.0
C3361 C 0.12046 0.89724 0.1465 0.0
C3362 C 0.11101 0.89264 0.13391 0.0
C3363 C 0.09549 0.8883 0.13634 0.0
H3364 H 0.35895 0.84047 0.40911 0.0
H3365 H 0.40571 0.85111 0.39351 0.0
H3366 H 0.35034 0.86661 0.40067 0.0
H3367 H 0.39768 0.87718 0.38631 0.0
H3368 H 0.37752 0.91404 0.35619 0.0
H3369 H 0.38433 0.88878 0.36642 0.0
H3370 H 0.35056 0.89446 0.40364 0.0
H3371 H 0.34292 0.91983 0.3925 0.0
C3372 C 0.36737 0.84845 0.404 0.0
C3373 C 0.38287 0.84366 0.40152 0.0
C3374 C 0.36251 0.86346 0.3993 0.0
C3375 C 0.37321 0.874 0.39243 0.0
C3376 C 0.38889 0.8693 0.39089 0.0
C3377 C 0.39356 0.85431 0.3951 0.0
C3378 C 0.3716 0.91008 0.36666 0.0
C3379 C 0.35982 0.9191 0.37364 0.0
C3380 C 0.37559 0.8955 0.37265 0.0
C3381 C 0.36826 0.88955 0.38612 0.0
C3382 C 0.35643 0.89859 0.39322 0.0
C3383 C 0.35217 0.9132 0.38695 0.0
H3384 H 0.41462 0.12626 0.68093 0.0
H3385 H 0.42287 0.11011 0.63383 0.0
H3386 H 0.38734 0.11766 0.67905 0.0
H3387 H 0.39581 0.10111 0.63214 0.0
H3388 H 0.34676 0.08224 0.63489 0.0
H3389 H 0.37365 0.08296 0.6448 0.0
H3390 H 0.36707 0.13085 0.65923 0.0
H3391 H 0.34044 0.1303 0.64893 0.0
C3392 C 0.4108 0.12027 0.67044 0.0
C3393 C 0.42084 0.11889 0.6575 0.0
C3394 C 0.39517 0.11544 0.66934 0.0
C3395 C 0.38947 0.10877 0.65544 0.0
C3396 C 0.39992 0.10609 0.64305 0.0
C3397 C 0.4154 0.11126 0.644 0.0
C3398 C 0.35089 0.09273 0.64068 0.0
C3399 C 0.34155 0.10624 0.64112 0.0
C3400 C 0.36629 0.09315 0.64626 0.0
C3401 C 0.37243 0.10696 0.65275 0.0
C3402 C 0.3626 0.12001 0.65442 0.0
C3403 C 0.34737 0.11971 0.6485 0.0
H3404 H 0.12833 0.09197 0.89502 0.0
H3405 H 0.17638 0.10139 0.88289 0.0
H3406 H 0.12615 0.11799 0.90665 0.0
H3407 H 0.174 0.12777 0.89407 0.0
H3408 H 0.14359 0.17634 0.88634 0.0
H3409 H 0.15409 0.15004 0.88242 0.0
H3410 H 0.13901 0.13706 0.92876 0.0
H3411 H 0.12893 0.16356 0.93292 0.0
C3412 C 0.13854 0.09948 0.89522 0.0
C3413 C 0.15253 0.09468 0.88811 0.0
C3414 C 0.13731 0.11435 0.9019 0.0
C3415 C 0.14991 0.12486 0.90125 0.0
C3416 C 0.16415 0.11983 0.89478 0.0
C3417 C 0.16552 0.10475 0.88847 0.0
C3418 C 0.14309 0.16806 0.89591 0.0
C3419 C 0.13545 0.17199 0.90992 0.0
C3420 C 0.14911 0.15302 0.89368 0.0
C3421 C 0.14727 0.14153 0.90527 0.0
C3422 C 0.14059 0.14574 0.91967 0.0
C3423 C 0.13492 0.16092 0.92207 0.0
H3424 H 0.12298 0.36076 0.16997 0.0
H3425 H 0.07567 0.37551 0.16059 0.0
H3426 H 0.12497 0.35025 0.14348 0.0
H3427 H 0.07785 0.36536 0.13385 0.0
H3428 H 0.10719 0.37462 0.0858 0.0
H3429 H 0.09722 0.37718 0.11245 0.0
H3430 H 0.11274 0.33033 0.12283 0.0
H3431 H 0.12234 0.32758 0.09596 0.0
C3432 C 0.11285 0.36133 0.16239 0.0
C3433 C 0.09918 0.36895 0.16734 0.0
C3434 C 0.11398 0.35529 0.14723 0.0
C3435 C 0.10159 0.35706 0.1366 0.0
C3436 C 0.08756 0.36384 0.14183 0.0
C3437 C 0.0863 0.36955 0.15715 0.0
C3438 C 0.10796 0.36467 0.09359 0.0
C3439 C 0.11554 0.35091 0.0888 0.0
C3440 C 0.10222 0.36612 0.10884 0.0
C3441 C 0.10428 0.35398 0.11972 0.0
C3442 C 0.111 0.33986 0.11467 0.0
C3443 C 0.1164 0.33826 0.09927 0.0
H3444 H 0.62484 0.17942 0.91208 0.0
H3445 H 0.61013 0.1326 0.92391 0.0
H3446 H 0.61544 0.17553 0.88525 0.0
H3447 H 0.60028 0.12894 0.89732 0.0
H3448 H 0.57843 0.12985 0.84874 0.0
H3449 H 0.58055 0.14096 0.87514 0.0
H3450 H 0.62848 0.15366 0.86592 0.0
H3451 H 0.62656 0.1421 0.83984 0.0
C3452 C 0.61902 0.16856 0.90913 0.0
C3453 C 0.61823 0.15629 0.92004 0.0
C3454 C 0.61372 0.16632 0.89378 0.0
C3455 C 0.60715 0.15194 0.88926 0.0
C3456 C 0.60516 0.14019 0.90055 0.0
C3457 C 0.61082 0.14227 0.91575 0.0
C3458 C 0.58925 0.13546 0.8522 0.0
C3459 C 0.60235 0.13512 0.84229 0.0
C3460 C 0.59047 0.14174 0.8673 0.0
C3461 C 0.60466 0.14817 0.87252 0.0
C3462 C 0.61736 0.14892 0.86213 0.0
C3463 C 0.61628 0.14228 0.84723 0.0
H3464 H 0.93164 0.87888 0.34929 0.0
H3465 H 0.88465 0.86331 0.33952 0.0
H3466 H 0.92977 0.86779 0.37568 0.0
H3467 H 0.88295 0.8519 0.36564 0.0
H3468 H 0.88512 0.82841 0.41226 0.0
H3469 H 0.89519 0.83182 0.38565 0.0
H3470 H 0.91053 0.87843 0.39745 0.0
H3471 H 0.90014 0.8752 0.42386 0.0
C3472 C 0.92116 0.87256 0.35256 0.0
C3473 C 0.90826 0.87199 0.3424 0.0
C3474 C 0.92007 0.8663 0.36767 0.0
C3475 C 0.90621 0.85902 0.3727 0.0
C3476 C 0.89383 0.85731 0.36204 0.0
C3477 C 0.89478 0.86388 0.3471 0.0
C3478 C 0.89115 0.83916 0.40933 0.0
C3479 C 0.89178 0.85158 0.4201 0.0
C3480 C 0.89682 0.84114 0.39408 0.0
C3481 C 0.90356 0.85541 0.38948 0.0
C3482 C 0.9055 0.86726 0.4007 0.0
C3483 C 0.89952 0.86542 0.41581 0.0
H3484 H 0.93086 0.13035 0.16211 0.0
H3485 H 0.88366 0.14564 0.1712 0.0
H3486 H 0.92903 0.14068 0.1354 0.0
H3487 H 0.88204 0.15637 0.14477 0.0
H3488 H 0.88577 0.17947 0.0974 0.0
H3489 H 0.89533 0.17643 0.12428 0.0
H3490 H 0.90895 0.12896 0.11401 0.0
H3491 H 0.89897 0.13181 0.08738 0.0
C3492 C 0.92034 0.13647 0.15861 0.0
C3493 C 0.90738 0.13717 0.16868 0.0
C3494 C 0.91928 0.1423 0.14333 0.0
C3495 C 0.9054 0.14931 0.13805 0.0
C3496 C 0.89293 0.15116 0.14858 0.0
C3497 C 0.89384 0.14499 0.16369 0.0
C3498 C 0.89129 0.16858 0.10075 0.0
C3499 C 0.89161 0.15585 0.09035 0.0
C3500 C 0.89667 0.16683 0.11613 0.0
C3501 C 0.90285 0.15247 0.12119 0.0
C3502 C 0.90438 0.1402 0.11037 0.0
C3503 C 0.89864 0.14181 0.09515 0.0
H3504 H 0.38261 0.64675 0.67288 0.0
H3505 H 0.42941 0.63201 0.66121 0.0
H3506 H 0.37936 0.6573 0.64652 0.0
H3507 H 0.42597 0.64219 0.63463 0.0
H3508 H 0.39441 0.63288 0.58802 0.0
H3509 H 0.40564 0.63035 0.61417 0.0
H3510 H 0.39054 0.67718 0.62529 0.0
H3511 H 0.37966 0.6799 0.59891 0.0
C3512 C 0.39237 0.64621 0.66482 0.0
C3513 C 0.40626 0.63857 0.6691 0.0
C3514 C 0.39052 0.65227 0.64974 0.0
C3515 C 0.40239 0.65049 0.63852 0.0
C3516 C 0.41665 0.64371 0.64307 0.0
C3517 C 0.41864 0.63799 0.6583 0.0
C3518 C 0.39399 0.64284 0.59585 0.0
C3519 C 0.38615 0.65657 0.59143 0.0
C3520 C 0.40044 0.6414 0.61081 0.0
C3521 C 0.39888 0.65355 0.62178 0.0
C3522 C 0.3919 0.66765 0.61705 0.0
C3523 C 0.38577 0.66923 0.60193 0.0
H3524 H 0.12324 0.65147 0.33724 0.0
H3525 H 0.07668 0.63623 0.34931 0.0
H3526 H 0.12674 0.66179 0.36363 0.0
H3527 H 0.08035 0.64623 0.37593 0.0
H3528 H 0.11218 0.63643 0.422 0.0
H3529 H 0.10054 0.63439 0.396 0.0
H3530 H 0.11624 0.68113 0.38525 0.0
H3531 H 0.12758 0.68334 0.41149 0.0
C3532 C 0.11358 0.65076 0.3454 0.0
C3533 C 0.09971 0.64302 0.34123 0.0
C3534 C 0.11557 0.65671 0.36051 0.0
C3535 C 0.10385 0.65473 0.37185 0.0
C3536 C 0.08957 0.6479 0.3674 0.0
C3537 C 0.08744 0.64227 0.35215 0.0
C3538 C 0.11265 0.64647 0.41429 0.0
C3539 C 0.12081 0.66003 0.41876 0.0
C3540 C 0.10596 0.64532 0.39942 0.0
C3541 C 0.10757 0.65757 0.38858 0.0
C3542 C 0.11485 0.67152 0.39339 0.0
C3543 C 0.12124 0.67281 0.40842 0.0
H3544 H 0.37895 0.37984 0.83969 0.0
H3545 H 0.42841 0.37142 0.84554 0.0
H3546 H 0.37426 0.37095 0.8663 0.0
H3547 H 0.42351 0.36226 0.87238 0.0
H3548 H 0.39331 0.33517 0.91591 0.0
H3549 H 0.40277 0.33957 0.88907 0.0
H3550 H 0.38749 0.38753 0.89163 0.0
H3551 H 0.37832 0.38337 0.91822 0.0
C3552 C 0.3888 0.37571 0.8465 0.0
C3553 C 0.40409 0.37653 0.84053 0.0
C3554 C 0.38609 0.37065 0.86176 0.0
C3555 C 0.39856 0.36615 0.87139 0.0
C3556 C 0.41373 0.36569 0.86513 0.0
C3557 C 0.41649 0.37089 0.84978 0.0
C3558 C 0.39239 0.34675 0.91089 0.0
C3559 C 0.38491 0.35888 0.91916 0.0
C3560 C 0.39776 0.34923 0.89554 0.0
C3561 C 0.39561 0.36381 0.8883 0.0
C3562 C 0.38911 0.37613 0.89694 0.0
C3563 C 0.3839 0.37373 0.91219 0.0
H3564 H 0.92431 0.8993 0.63401 0.0
H3565 H 0.91614 0.88518 0.68178 0.0
H3566 H 0.89785 0.90987 0.6326 0.0
H3567 H 0.88946 0.89543 0.68021 0.0
H3568 H 0.84095 0.88487 0.65257 0.0
H3569 H 0.86779 0.88314 0.66209 0.0
H3570 H 0.87717 0.92946 0.64438 0.0
H3571 H 0.8501 0.93137 0.63518 0.0
C3572 C 0.91703 0.89892 0.64437 0.0
C3573 C 0.92228 0.89138 0.65798 0.0
C3574 C 0.90188 0.905 0.64358 0.0
C3575 C 0.89156 0.90337 0.65627 0.0
C3576 C 0.89717 0.89682 0.67026 0.0
C3577 C 0.91247 0.89105 0.67118 0.0
C3578 C 0.84857 0.89491 0.65122 0.0
C3579 C 0.84344 0.90824 0.64312 0.0
C3580 C 0.86394 0.89394 0.65671 0.0
C3581 C 0.87459 0.90614 0.65389 0.0
C3582 C 0.86919 0.91989 0.64669 0.0
C3583 C 0.85368 0.92101 0.64152 0.0
H3584 H 0.87257 0.0905 0.39917 0.0
H3585 H 0.82512 0.10096 0.38566 0.0
H3586 H 0.87557 0.11703 0.40935 0.0
H3587 H 0.82827 0.12771 0.39553 0.0
H3588 H 0.85745 0.17541 0.38571 0.0
H3589 H 0.84717 0.14885 0.38341 0.0
H3590 H 0.86495 0.13793 0.42933 0.0
H3591 H 0.87493 0.16469 0.43182 0.0
C3592 C 0.86264 0.09834 0.39879 0.0
C3593 C 0.84862 0.09366 0.39161 0.0
C3594 C 0.86434 0.11352 0.40466 0.0
C3595 C 0.85217 0.12446 0.40316 0.0
C3596 C 0.83783 0.11952 0.39682 0.0
C3597 C 0.836 0.10419 0.39127 0.0
C3598 C 0.8587 0.16751 0.39553 0.0
C3599 C 0.86701 0.17213 0.40893 0.0
C3600 C 0.85278 0.1523 0.39423 0.0
C3601 C 0.85534 0.1413 0.40616 0.0
C3602 C 0.86283 0.14618 0.41996 0.0
C3603 C 0.86845 0.16152 0.42141 0.0
H3604 H 0.66589 0.07711 0.13467 0.0
H3605 H 0.67708 0.12405 0.14953 0.0
H3606 H 0.63932 0.08023 0.14491 0.0
H3607 H 0.65072 0.12699 0.1601 0.0
H3608 H 0.6028 0.12655 0.18197 0.0
H3609 H 0.62934 0.11597 0.17965 0.0
H3610 H 0.61888 0.1001 0.1329 0.0
H3611 H 0.5926 0.11102 0.13504 0.0
C3612 C 0.66289 0.08784 0.1407 0.0
C3613 C 0.67354 0.10037 0.14126 0.0
C3614 C 0.64766 0.08965 0.14646 0.0
C3615 C 0.64295 0.10387 0.15322 0.0
C3616 C 0.65406 0.11586 0.15506 0.0
C3617 C 0.66914 0.11418 0.14898 0.0
C3618 C 0.60602 0.12035 0.17141 0.0
C3619 C 0.59566 0.11964 0.15866 0.0
C3620 C 0.62122 0.11438 0.17006 0.0
C3621 C 0.62617 0.10725 0.15609 0.0
C3622 C 0.61535 0.1054 0.14386 0.0
C3623 C 0.60032 0.11169 0.14506 0.0
H3624 H 0.64752 0.8332 0.88443 0.0
H3625 H 0.63324 0.84446 0.93151 0.0
H3626 H 0.65804 0.85962 0.88129 0.0
H3627 H 0.64333 0.87111 0.92815 0.0
H3628 H 0.63356 0.91775 0.89626 0.0
H3629 H 0.63089 0.8914 0.90705 0.0
H3630 H 0.67832 0.881 0.89349 0.0
H3631 H 0.6812 0.90762 0.88315 0.0
C3632 C 0.64708 0.84117 0.89426 0.0
C3633 C 0.6396 0.83677 0.90821 0.0
C3634 C 0.65311 0.85629 0.89248 0.0
C3635 C 0.65142 0.8674 0.90446 0.0
C3636 C 0.64479 0.86273 0.91875 0.0
C3637 C 0.63913 0.84747 0.92069 0.0
C3638 C 0.64359 0.91002 0.89609 0.0
C3639 C 0.65759 0.91474 0.88891 0.0
C3640 C 0.64207 0.89496 0.90228 0.0
C3641 C 0.65439 0.88417 0.90106 0.0
C3642 C 0.66868 0.88912 0.89461 0.0
C3643 C 0.67034 0.90437 0.88879 0.0
H3644 H 0.83181 0.12191 0.86247 0.0
H3645 H 0.84321 0.07508 0.87742 0.0
H3646 H 0.85834 0.12521 0.85241 0.0
H3647 H 0.86995 0.07858 0.86772 0.0
H3648 H 0.91586 0.11037 0.879 0.0
H3649 H 0.88961 0.09923 0.88054 0.0
H3650 H 0.88046 0.11406 0.8332 0.0
H3651 H 0.90701 0.12483 0.83147 0.0
C3652 C 0.83984 0.11214 0.86312 0.0
C3653 C 0.83546 0.09826 0.87074 0.0
C3654 C 0.85502 0.11402 0.85734 0.0
C3655 C 0.86621 0.10218 0.85939 0.0
C3656 C 0.86153 0.08788 0.86601 0.0
C3657 C 0.84621 0.08585 0.87145 0.0
C3658 C 0.90843 0.11079 0.86875 0.0
C3659 C 0.91346 0.11846 0.85512 0.0
C3660 C 0.89343 0.10436 0.86961 0.0
C3661 C 0.88301 0.10581 0.85699 0.0
C3662 C 0.8883 0.11276 0.84306 0.0
C3663 C 0.90349 0.11884 0.84206 0.0
H3664 H 0.64411 0.16724 0.58306 0.0
H3665 H 0.63421 0.17178 0.63242 0.0
H3666 H 0.65329 0.14035 0.58753 0.0
H3667 H 0.64311 0.1451 0.63667 0.0
H3668 H 0.63061 0.09306 0.62984 0.0
H3669 H 0.62682 0.11992 0.62132 0.0
H3670 H 0.67567 0.12345 0.60947 0.0
H3671 H 0.6797 0.09634 0.61829 0.0
C3672 C 0.64432 0.16271 0.59489 0.0
C3673 C 0.63826 0.1716 0.60736 0.0
C3674 C 0.64954 0.14734 0.5974 0.0
C3675 C 0.64869 0.14069 0.6124 0.0
C3676 C 0.64375 0.14997 0.62499 0.0
C3677 C 0.63868 0.16526 0.62252 0.0
C3678 C 0.64055 0.09936 0.62514 0.0
C3679 C 0.65551 0.09257 0.62491 0.0
C3680 C 0.63835 0.11477 0.6203 0.0
C3681 C 0.65099 0.12373 0.61494 0.0
C3682 C 0.66576 0.11671 0.61358 0.0
C3683 C 0.66803 0.10122 0.61858 0.0
H3684 H 0.67158 0.88605 0.36032 0.0
H3685 H 0.66173 0.93242 0.37764 0.0
H3686 H 0.6445 0.88348 0.35164 0.0
H3687 H 0.63445 0.92966 0.36931 0.0
H3688 H 0.5886 0.89803 0.38155 0.0
H3689 H 0.61491 0.90913 0.38211 0.0
H3690 H 0.62179 0.8954 0.33405 0.0
H3691 H 0.59521 0.88466 0.33333 0.0
C3692 C 0.66374 0.89588 0.36182 0.0
C3693 C 0.66875 0.90942 0.36967 0.0
C3694 C 0.64824 0.89443 0.35682 0.0
C3695 C 0.63736 0.90635 0.35989 0.0
C3696 C 0.64261 0.92031 0.36681 0.0
C3697 C 0.65823 0.92191 0.37148 0.0
C3698 C 0.59552 0.8979 0.37093 0.0
C3699 C 0.58988 0.89048 0.35741 0.0
C3700 C 0.61056 0.90429 0.37124 0.0
C3701 C 0.62041 0.90306 0.35814 0.0
C3702 C 0.61443 0.89651 0.34429 0.0
C3703 C 0.5992 0.89045 0.34387 0.0
H3704 H 0.85783 0.83501 0.12587 0.0
H3705 H 0.87284 0.84692 0.07918 0.0
H3706 H 0.84738 0.8614 0.12925 0.0
H3707 H 0.8628 0.87353 0.08278 0.0
H3708 H 0.87219 0.91979 0.1151 0.0
H3709 H 0.87485 0.8936 0.10395 0.0
H3710 H 0.82746 0.8829 0.11749 0.0
H3711 H 0.8246 0.90937 0.12823 0.0
C3712 C 0.85846 0.84313 0.11616 0.0
C3713 C 0.86613 0.83891 0.10226 0.0
C3714 C 0.85246 0.85822 0.11809 0.0
C3715 C 0.85435 0.86951 0.1063 0.0
C3716 C 0.86118 0.86503 0.09203 0.0
C3717 C 0.86683 0.84979 0.08995 0.0
C3718 C 0.86217 0.91204 0.1152 0.0
C3719 C 0.84819 0.91661 0.12251 0.0
C3720 C 0.86368 0.89707 0.10879 0.0
C3721 C 0.85137 0.88623 0.1099 0.0
C3722 C 0.8371 0.89106 0.11646 0.0
C3723 C 0.83545 0.90622 0.12251 0.0
H3724 H 0.93132 0.63293 0.8516 0.0
H3725 H 0.88419 0.64709 0.84055 0.0
H3726 H 0.9282 0.64339 0.87814 0.0
H3727 H 0.88128 0.65796 0.86684 0.0
H3728 H 0.88308 0.6822 0.91386 0.0
H3729 H 0.89346 0.67868 0.88736 0.0
H3730 H 0.90764 0.63175 0.89918 0.0
H3731 H 0.89684 0.63506 0.92545 0.0
C3732 C 0.92053 0.63881 0.85464 0.0
C3733 C 0.90798 0.63919 0.84403 0.0
C3734 C 0.91873 0.64471 0.86984 0.0
C3735 C 0.90451 0.65147 0.87452 0.0
C3736 C 0.89242 0.65295 0.8635 0.0
C3737 C 0.89407 0.6467 0.84847 0.0
C3738 C 0.8889 0.67133 0.91096 0.0
C3739 C 0.88915 0.65889 0.92171 0.0
C3740 C 0.89474 0.6693 0.89578 0.0
C3741 C 0.90131 0.65494 0.89124 0.0
C3742 C 0.90276 0.64298 0.90241 0.0
C3743 C 0.89657 0.64487 0.91744 0.0
H3744 H 0.38984 0.83025 0.09146 0.0
H3745 H 0.38642 0.87952 0.08082 0.0
H3746 H 0.39881 0.83673 0.11798 0.0
H3747 H 0.39523 0.88585 0.10713 0.0
H3748 H 0.37989 0.88784 0.15843 0.0
H3749 H 0.37711 0.87863 0.13175 0.0
H3750 H 0.42105 0.85419 0.13524 0.0
H3751 H 0.4241 0.86371 0.16228 0.0
C3752 C 0.39154 0.84242 0.09456 0.0
C3753 C 0.38721 0.85438 0.08412 0.0
C3754 C 0.39662 0.8461 0.10975 0.0
C3755 C 0.3974 0.86177 0.11463 0.0
C3756 C 0.3945 0.87367 0.1037 0.0
C3757 C 0.3895 0.87002 0.08862 0.0
C3758 C 0.38895 0.88039 0.15368 0.0
C3759 C 0.40229 0.87663 0.16249 0.0
C3760 C 0.38737 0.87518 0.13833 0.0
C3761 C 0.39899 0.86594 0.13138 0.0
C3762 C 0.41198 0.86139 0.14035 0.0
C3763 C 0.41368 0.8668 0.1558 0.0
H3764 H 0.15534 0.14071 0.59995 0.0
H3765 H 0.11131 0.16273 0.58901 0.0
H3766 H 0.14554 0.13319 0.62529 0.0
H3767 H 0.10084 0.15413 0.61441 0.0
H3768 H 0.09202 0.14532 0.6677 0.0
H3769 H 0.10103 0.15606 0.64256 0.0
H3770 H 0.12909 0.11462 0.63538 0.0
H3771 H 0.12102 0.10467 0.66043 0.0
C3772 C 0.14337 0.14367 0.60288 0.0
C3773 C 0.13398 0.15201 0.59235 0.0
C3774 C 0.13769 0.13928 0.61745 0.0
C3775 C 0.1222 0.14262 0.62185 0.0
C3776 C 0.11282 0.15133 0.61146 0.0
C3777 C 0.11873 0.15614 0.59687 0.0
C3778 C 0.10028 0.13871 0.66075 0.0
C3779 C 0.1061 0.12435 0.66621 0.0
C3780 C 0.10533 0.14476 0.64629 0.0
C3781 C 0.11607 0.13638 0.63698 0.0
C3782 C 0.12133 0.12177 0.64237 0.0
C3783 C 0.11662 0.11598 0.65681 0.0
H3784 H 0.12005 0.83449 0.91627 0.0
H3785 H 0.12954 0.88348 0.92423 0.0
H3786 H 0.11091 0.84069 0.88971 0.0
H3787 H 0.12058 0.88952 0.89793 0.0
H3788 H 0.13201 0.88913 0.8462 0.0
H3789 H 0.13606 0.87974 0.87267 0.0
H3790 H 0.08985 0.85954 0.87294 0.0
H3791 H 0.08557 0.86918 0.84614 0.0
C3792 C 0.11971 0.84659 0.91256 0.0
C3793 C 0.12571 0.85848 0.92227 0.0
C3794 C 0.11454 0.85011 0.89736 0.0
C3795 C 0.11537 0.86553 0.89173 0.0
C3796 C 0.12008 0.8775 0.90192 0.0
C3797 C 0.12515 0.87403 0.91701 0.0
C3798 C 0.12273 0.8825 0.85172 0.0
C3799 C 0.10839 0.88007 0.84409 0.0
C3800 C 0.12505 0.87719 0.86694 0.0
C3801 C 0.11315 0.8692 0.87492 0.0
C3802 C 0.09916 0.86575 0.86702 0.0
C3803 C 0.09676 0.87123 0.8517 0.0
H3804 H 0.6277 0.35646 0.34155 0.0
H3805 H 0.581 0.37346 0.35017 0.0
H3806 H 0.62888 0.34618 0.36813 0.0
H3807 H 0.58232 0.36342 0.37698 0.0
H3808 H 0.61063 0.3722 0.42532 0.0
H3809 H 0.60067 0.3743 0.39867 0.0
H3810 H 0.61681 0.32753 0.38883 0.0
H3811 H 0.62655 0.32528 0.41566 0.0
C3812 C 0.61751 0.35758 0.34899 0.0
C3813 C 0.60429 0.36581 0.3438 0.0
C3814 C 0.61816 0.35164 0.36421 0.0
C3815 C 0.60571 0.35408 0.37466 0.0
C3816 C 0.59208 0.36141 0.36917 0.0
C3817 C 0.5913 0.36707 0.3538 0.0
C3818 C 0.61153 0.36214 0.41765 0.0
C3819 C 0.61945 0.34862 0.42255 0.0
C3820 C 0.60579 0.36333 0.40239 0.0
C3821 C 0.6081 0.35113 0.39163 0.0
C3822 C 0.61494 0.33713 0.39687 0.0
C3823 C 0.62041 0.33582 0.41226 0.0
H3824 H 0.89847 0.37378 0.58375 0.0
H3825 H 0.88316 0.32683 0.59426 0.0
H3826 H 0.90849 0.3765 0.61037 0.0
H3827 H 0.89283 0.32975 0.62109 0.0
H3828 H 0.88294 0.36004 0.66823 0.0
H3829 H 0.88071 0.34976 0.64166 0.0
H3830 H 0.92786 0.36478 0.63184 0.0
H3831 H 0.93026 0.37469 0.65866 0.0
C3832 C 0.89769 0.36387 0.59161 0.0
C3833 C 0.89004 0.3501 0.58692 0.0
C3834 C 0.90344 0.36542 0.60685 0.0
C3835 C 0.90135 0.35336 0.61781 0.0
C3836 C 0.89458 0.33922 0.61286 0.0
C3837 C 0.88915 0.33753 0.59748 0.0
C3838 C 0.89301 0.36067 0.66057 0.0
C3839 C 0.90677 0.36816 0.66552 0.0
C3840 C 0.89175 0.35475 0.64537 0.0
C3841 C 0.9041 0.35652 0.63468 0.0
C3842 C 0.91817 0.36325 0.63986 0.0
C3843 C 0.91957 0.36883 0.65522 0.0
H3844 H 0.6268 0.68179 0.09476 0.0
H3845 H 0.61246 0.63468 0.08366 0.0
H3846 H 0.6171 0.67839 0.12152 0.0
H3847 H 0.60233 0.63149 0.11021 0.0
H3848 H 0.58002 0.63336 0.15873 0.0
H3849 H 0.58243 0.64351 0.13197 0.0
H3850 H 0.62995 0.65741 0.14154 0.0
H3851 H 0.62775 0.64683 0.16801 0.0
C3852 C 0.62098 0.67096 0.09783 0.0
C3853 C 0.6204 0.65848 0.08714 0.0
C3854 C 0.61553 0.669 0.11316 0.0
C3855 C 0.60902 0.65467 0.11792 0.0
C3856 C 0.60719 0.6427 0.10682 0.0
C3857 C 0.61299 0.64451 0.09163 0.0
C3858 C 0.59082 0.63901 0.15524 0.0
C3859 C 0.60372 0.63931 0.16542 0.0
C3860 C 0.5922 0.64473 0.13993 0.0
C3861 C 0.60636 0.65125 0.13473 0.0
C3862 C 0.61886 0.65259 0.1453 0.0
C3863 C 0.61761 0.6465 0.16043 0.0
H3864 H 0.67167 0.62632 0.86023 0.0
H3865 H 0.66255 0.57856 0.87381 0.0
H3866 H 0.64517 0.62841 0.84978 0.0
H3867 H 0.63578 0.58085 0.86377 0.0
H3868 H 0.58787 0.61059 0.87398 0.0
H3869 H 0.61453 0.60063 0.87639 0.0
H3870 H 0.62454 0.6158 0.82932 0.0
H3871 H 0.59762 0.62535 0.82671 0.0
C3872 C 0.66413 0.61613 0.86057 0.0
C3873 C 0.66915 0.60229 0.86782 0.0
C3874 C 0.64899 0.61732 0.85455 0.0
C3875 C 0.63844 0.6048 0.85602 0.0
C3876 C 0.64372 0.59064 0.86247 0.0
C3877 C 0.65904 0.58932 0.86813 0.0
C3878 C 0.5956 0.61129 0.86396 0.0
C3879 C 0.5907 0.61873 0.85016 0.0
C3880 C 0.61083 0.60555 0.86532 0.0
C3881 C 0.62158 0.60749 0.85305 0.0
C3882 C 0.61644 0.61413 0.83892 0.0
C3883 C 0.60104 0.61951 0.83741 0.0
H3884 H 0.68243 0.41251 0.12589 0.0
H3885 H 0.63514 0.42313 0.11195 0.0
H3886 H 0.67969 0.38616 0.11491 0.0
H3887 H 0.63256 0.39702 0.10065 0.0
H3888 H 0.63374 0.35009 0.07682 0.0
H3889 H 0.64376 0.37676 0.08016 0.0
H3890 H 0.66054 0.36466 0.12617 0.0
H3891 H 0.65019 0.33821 0.12302 0.0
C3892 C 0.67168 0.40944 0.11994 0.0
C3893 C 0.65897 0.41985 0.11982 0.0
C3894 C 0.67009 0.39434 0.11375 0.0
C3895 C 0.6559 0.38953 0.10698 0.0
C3896 C 0.64368 0.40043 0.10567 0.0
C3897 C 0.64514 0.41537 0.11217 0.0
C3898 C 0.64004 0.35299 0.08743 0.0
C3899 C 0.64115 0.34209 0.09969 0.0
C3900 C 0.64567 0.36827 0.08936 0.0
C3901 C 0.65288 0.37278 0.10344 0.0
C3902 C 0.65516 0.36149 0.11515 0.0
C3903 C 0.64921 0.34635 0.11336 0.0
H3904 H 0.83639 0.38695 0.35833 0.0
H3905 H 0.84687 0.43413 0.37293 0.0
H3906 H 0.86252 0.38461 0.34709 0.0
H3907 H 0.87325 0.43161 0.36202 0.0
H3908 H 0.92076 0.40143 0.37062 0.0
H3909 H 0.89447 0.41216 0.37339 0.0
H3910 H 0.883 0.39616 0.32692 0.0
H3911 H 0.90954 0.38576 0.32397 0.0
C3912 C 0.84413 0.39698 0.35871 0.0
C3913 C 0.83962 0.4107 0.36653 0.0
C3914 C 0.85908 0.39566 0.35224 0.0
C3915 C 0.86993 0.40791 0.35376 0.0
C3916 C 0.8651 0.42201 0.36069 0.0
C3917 C 0.84998 0.42347 0.36685 0.0
C3918 C 0.91282 0.40072 0.36078 0.0
C3919 C 0.91717 0.39274 0.3471 0.0
C3920 C 0.89778 0.4069 0.36234 0.0
C3921 C 0.88668 0.40491 0.35039 0.0
C3922 C 0.89134 0.39784 0.3363 0.0
C3923 C 0.90654 0.39198 0.33459 0.0
H3924 H 0.87186 0.66208 0.57976 0.0
H3925 H 0.85748 0.67309 0.62687 0.0
H3926 H 0.86227 0.63526 0.58315 0.0
H3927 H 0.8475 0.6465 0.63006 0.0
H3928 H 0.8259 0.59829 0.62945 0.0
H3929 H 0.82786 0.6248 0.61864 0.0
H3930 H 0.87503 0.61518 0.60363 0.0
H3931 H 0.87326 0.58894 0.61482 0.0
C3932 C 0.86608 0.65896 0.59059 0.0
C3933 C 0.86544 0.66964 0.60308 0.0
C3934 C 0.86068 0.6436 0.59255 0.0
C3935 C 0.85418 0.63882 0.60687 0.0
C3936 C 0.85233 0.64991 0.61886 0.0
C3937 C 0.85807 0.66511 0.61704 0.0
C3938 C 0.83649 0.60168 0.62339 0.0
C3939 C 0.84945 0.5916 0.62301 0.0
C3940 C 0.83763 0.61685 0.61729 0.0
C3941 C 0.85159 0.62201 0.61033 0.0
C3942 C 0.86407 0.61146 0.60879 0.0
C3943 C 0.86308 0.59646 0.61523 0.0
H3944 H 0.59688 0.38687 0.68105 0.0
H3945 H 0.58816 0.40288 0.63399 0.0
H3946 H 0.62399 0.39598 0.67907 0.0
H3947 H 0.61505 0.41235 0.63219 0.0
H3948 H 0.66355 0.43265 0.63498 0.0
H3949 H 0.63659 0.43102 0.64458 0.0
H3950 H 0.6448 0.38357 0.65962 0.0
H3951 H 0.67152 0.38503 0.64966 0.0
C3952 C 0.60056 0.3929 0.67053 0.0
C3953 C 0.59044 0.39413 0.65765 0.0
C3954 C 0.61609 0.39802 0.66938 0.0
C3955 C 0.62161 0.40482 0.65547 0.0
C3956 C 0.61108 0.40727 0.6431 0.0
C3957 C 0.5957 0.40183 0.64412 0.0
C3958 C 0.65974 0.42206 0.64081 0.0
C3959 C 0.66961 0.40894 0.64153 0.0
C3960 C 0.6443 0.42112 0.64621 0.0
C3961 C 0.63861 0.40717 0.6528 0.0
C3962 C 0.6489 0.39452 0.65472 0.0
C3963 C 0.66419 0.39534 0.64899 0.0
H3964 H 0.86419 0.33699 0.88624 0.0
H3965 H 0.87781 0.3494 0.93323 0.0
H3966 H 0.85295 0.363 0.88262 0.0
H3967 H 0.86695 0.37565 0.92941 0.0
H3968 H 0.82862 0.40999 0.88274 0.0
H3969 H 0.83215 0.38367 0.89358 0.0
H3970 H 0.8785 0.39631 0.90893 0.0
H3971 H 0.87517 0.42238 0.89772 0.0
C3972 C 0.86435 0.34513 0.89595 0.0
C3973 C 0.87186 0.34116 0.91001 0.0
C3974 C 0.8579 0.36001 0.89389 0.0
C3975 C 0.85914 0.37135 0.90572 0.0
C3976 C 0.86583 0.36711 0.92012 0.0
C3977 C 0.87195 0.35206 0.92233 0.0
C3978 C 0.83935 0.4073 0.88888 0.0
C3979 C 0.85164 0.41822 0.88937 0.0
C3980 C 0.8414 0.39222 0.89499 0.0
C3981 C 0.8556 0.38796 0.90207 0.0
C3982 C 0.86738 0.39931 0.90368 0.0
C3983 C 0.86549 0.41422 0.89723 0.0
H3984 H 0.92114 0.6126 0.13528 0.0
H3985 H 0.91044 0.62613 0.18272 0.0
H3986 H 0.89484 0.6018 0.1324 0.0
H3987 H 0.88389 0.61575 0.17963 0.0
H3988 H 0.83695 0.62581 0.14835 0.0
H3989 H 0.86329 0.62832 0.15912 0.0
H3990 H 0.87383 0.58124 0.14439 0.0
H3991 H 0.8472 0.57851 0.13404 0.0
C3992 C 0.91331 0.61283 0.14524 0.0
C3993 C 0.91782 0.6202 0.15921 0.0
C3994 C 0.89827 0.60662 0.1436 0.0
C3995 C 0.88734 0.60801 0.15578 0.0
C3996 C 0.89213 0.61451 0.17009 0.0
C3997 C 0.90733 0.62037 0.17187 0.0
C3998 C 0.84471 0.61581 0.14791 0.0
C3999 C 0.84005 0.60197 0.14038 0.0
C4000 C 0.85976 0.61723 0.15411 0.0
C4001 C 0.87058 0.60498 0.15254 0.0
C4002 C 0.86567 0.59082 0.14578 0.0
C4003 C 0.85043 0.58925 0.13994 0.0
H4004 H 0.63756 0.65986 0.43296 0.0
H4005 H 0.64988 0.67152 0.38543 0.0
H4006 H 0.64835 0.63354 0.42925 0.0
H4007 H 0.66108 0.64548 0.38191 0.0
H4008 H 0.68544 0.59879 0.38179 0.0
H4009 H 0.68229 0.62506 0.39283 0.0
H4010 H 0.63618 0.61263 0.4091 0.0
H4011 H 0.63912 0.58659 0.39769 0.0
C4012 C 0.64313 0.65701 0.42194 0.0
C4013 C 0.64287 0.6677 0.40946 0.0
C4014 C 0.64921 0.64194 0.41981 0.0
C4015 C 0.65553 0.6375 0.4053 0.0
C4016 C 0.65642 0.64864 0.39326 0.0
C4017 C 0.64998 0.66353 0.39526 0.0
C4018 C 0.67486 0.6015 0.3882 0.0
C4019 C 0.66249 0.59068 0.38885 0.0
C4020 C 0.67303 0.61655 0.39443 0.0
C4021 C 0.65899 0.62086 0.40177 0.0
C4022 C 0.64719 0.60957 0.40362 0.0
C4023 C 0.64885 0.59469 0.39706 0.0
H4024 H 0.57854 0.87535 0.66128 0.0
H4025 H 0.62496 0.85887 0.67208 0.0
H4026 H 0.58122 0.86528 0.63457 0.0
H4027 H 0.62746 0.84848 0.6456 0.0
H4028 H 0.62651 0.82697 0.59779 0.0
H4029 H 0.61588 0.82945 0.62429 0.0
H4030 H 0.60116 0.87657 0.61392 0.0
H4031 H 0.61209 0.87425 0.58765 0.0
C4032 C 0.58905 0.86903 0.65815 0.0
C4033 C 0.60157 0.86794 0.66874 0.0
C4034 C 0.59061 0.86336 0.64284 0.0
C4035 C 0.60456 0.85615 0.638 0.0
C4036 C 0.61652 0.85385 0.64903 0.0
C4037 C 0.61511 0.85983 0.66419 0.0
C4038 C 0.62052 0.83765 0.601 0.0
C4039 C 0.62018 0.85045 0.59068 0.0
C4040 C 0.61453 0.83909 0.61619 0.0
C4041 C 0.60776 0.85322 0.62118 0.0
C4042 C 0.60619 0.8655 0.61037 0.0
C4043 C 0.61249 0.86419 0.59533 0.0
H4044 H 0.34613 0.38268 0.10632 0.0
H4045 H 0.33877 0.41222 0.1466 0.0
H4046 H 0.37141 0.37524 0.11614 0.0
H4047 H 0.36415 0.40389 0.1572 0.0
H4048 H 0.41801 0.39535 0.16314 0.0
H4049 H 0.39213 0.40483 0.15491 0.0
H4050 H 0.38233 0.35944 0.13479 0.0
H4051 H 0.40815 0.35063 0.14194 0.0
C4052 C 0.3498 0.38735 0.11751 0.0
C4053 C 0.34031 0.39785 0.1258 0.0
C4054 C 0.36436 0.38299 0.12324 0.0
C4055 C 0.36981 0.38864 0.1377 0.0
C4056 C 0.36039 0.39932 0.14601 0.0
C4057 C 0.3458 0.40399 0.14003 0.0
C4058 C 0.41026 0.38755 0.15685 0.0
C4059 C 0.4152 0.37242 0.1528 0.0
C4060 C 0.3954 0.39289 0.15224 0.0
C4061 C 0.38518 0.38304 0.14383 0.0
C4062 C 0.39 0.36764 0.14064 0.0
C4063 C 0.40484 0.36252 0.14482 0.0
H4064 H 0.36149 0.6753 0.88514 0.0
H4065 H 0.37646 0.66401 0.932 0.0
H4066 H 0.35079 0.64894 0.8822 0.0
H4067 H 0.36615 0.63745 0.92884 0.0
H4068 H 0.37606 0.59099 0.89713 0.0
H4069 H 0.37846 0.61736 0.90791 0.0
H4070 H 0.33098 0.62732 0.89419 0.0
H4071 H 0.32839 0.60065 0.88384 0.0
C4072 C 0.36202 0.66735 0.89499 0.0
C4073 C 0.36982 0.6717 0.90878 0.0
C4074 C 0.35588 0.65227 0.89331 0.0
C4075 C 0.35774 0.64115 0.90526 0.0
C4076 C 0.36457 0.64582 0.91946 0.0
C4077 C 0.37037 0.66104 0.92129 0.0
C4078 C 0.36597 0.59863 0.89691 0.0
C4079 C 0.35204 0.59379 0.88969 0.0
C4080 C 0.36732 0.6137 0.90311 0.0
C4081 C 0.3549 0.62437 0.90185 0.0
C4082 C 0.34069 0.61929 0.89534 0.0
C4083 C 0.3392 0.60403 0.88951 0.0
H4084 H 0.15465 0.57858 0.63401 0.0
H4085 H 0.16441 0.62609 0.648 0.0
H4086 H 0.12806 0.58098 0.64453 0.0
H4087 H 0.1381 0.62831 0.65889 0.0
H4088 H 0.09165 0.62604 0.6832 0.0
H4089 H 0.11826 0.61608 0.67965 0.0
H4090 H 0.10621 0.60037 0.63325 0.0
H4091 H 0.07979 0.61069 0.63659 0.0
C4092 C 0.1513 0.58932 0.63983 0.0
C4093 C 0.16156 0.60217 0.64017 0.0
C4094 C 0.13608 0.5907 0.64577 0.0
C4095 C 0.13105 0.60482 0.65253 0.0
C4096 C 0.14172 0.61724 0.6539 0.0
C4097 C 0.15676 0.61599 0.64762 0.0
C4098 C 0.09452 0.61996 0.67246 0.0
C4099 C 0.08366 0.61919 0.66014 0.0
C4100 C 0.10977 0.61436 0.67041 0.0
C4101 C 0.11429 0.60753 0.65616 0.0
C4102 C 0.10301 0.60548 0.6444 0.0
C4103 C 0.08789 0.6114 0.6463 0.0
H4104 H 0.13359 0.42373 0.3986 0.0
H4105 H 0.18007 0.41259 0.38247 0.0
H4106 H 0.13079 0.39726 0.40894 0.0
H4107 H 0.17707 0.38588 0.39246 0.0
H4108 H 0.14523 0.33949 0.38287 0.0
H4109 H 0.15659 0.36561 0.38075 0.0
H4110 H 0.14238 0.37572 0.42809 0.0
H4111 H 0.13136 0.34934 0.43039 0.0
C4112 C 0.14339 0.41576 0.39771 0.0
C4113 C 0.15703 0.4202 0.38972 0.0
C4114 C 0.1418 0.40061 0.40366 0.0
C4115 C 0.15369 0.3895 0.40143 0.0
C4116 C 0.16774 0.39423 0.39434 0.0
C4117 C 0.16948 0.40953 0.38872 0.0
C4118 C 0.14504 0.34708 0.39302 0.0
C4119 C 0.13739 0.3424 0.40678 0.0
C4120 C 0.15158 0.36202 0.39182 0.0
C4121 C 0.15029 0.37271 0.40424 0.0
C4122 C 0.14354 0.36769 0.41836 0.0
C4123 C 0.13732 0.35258 0.41969 0.0
H4124 H 0.34234 0.62547 0.36313 0.0
H4125 H 0.35199 0.57778 0.37651 0.0
H4126 H 0.3689 0.62804 0.35293 0.0
H4127 H 0.37883 0.58054 0.36671 0.0
H4128 H 0.4268 0.61043 0.37621 0.0
H4129 H 0.40028 0.60012 0.37892 0.0
H4130 H 0.38931 0.61603 0.33233 0.0
H4131 H 0.41605 0.62596 0.32941 0.0
C4132 C 0.35003 0.61541 0.36352 0.0
C4133 C 0.34511 0.60143 0.37059 0.0
C4134 C 0.36522 0.61687 0.35764 0.0
C4135 C 0.37591 0.60449 0.35905 0.0
C4136 C 0.37078 0.59024 0.36544 0.0
C4137 C 0.35542 0.58864 0.37097 0.0
C4138 C 0.41891 0.6112 0.36633 0.0
C4139 C 0.42349 0.619 0.35261 0.0
C4140 C 0.40374 0.60528 0.36787 0.0
C4141 C 0.39274 0.60737 0.35586 0.0
C4142 C 0.39758 0.61428 0.34175 0.0
C4143 C 0.4129 0.61987 0.34007 0.0
H4144 H 0.13204 0.59043 0.10817 0.0
H4145 H 0.17875 0.59892 0.12526 0.0
H4146 H 0.13072 0.61725 0.09848 0.0
H4147 H 0.17727 0.62595 0.11587 0.0
H4148 H 0.14797 0.67345 0.12668 0.0
H4149 H 0.15811 0.6468 0.12788 0.0
H4150 H 0.14311 0.63885 0.08035 0.0
H4151 H 0.13329 0.66575 0.07901 0.0
C4152 C 0.14221 0.59789 0.1094 0.0
C4153 C 0.15547 0.5926 0.11751 0.0
C4154 C 0.14148 0.61324 0.10381 0.0
C4155 C 0.15386 0.62371 0.10652 0.0
C4156 C 0.16756 0.61811 0.11365 0.0
C4157 C 0.16843 0.60262 0.11893 0.0
C4158 C 0.14737 0.66621 0.11629 0.0
C4159 C 0.13981 0.67165 0.10277 0.0
C4160 C 0.15321 0.65096 0.11696 0.0
C4161 C 0.15131 0.64073 0.10423 0.0
C4162 C 0.14471 0.6465 0.09033 0.0
C4163 C 0.13919 0.66191 0.08954 0.0
H4164 H 0.17511 0.38459 0.85876 0.0
H4165 H 0.16536 0.43147 0.87472 0.0
H4166 H 0.14843 0.38238 0.84881 0.0
H4167 H 0.13849 0.42908 0.86512 0.0
H4168 H 0.09138 0.39908 0.87578 0.0
H4169 H 0.11807 0.40912 0.87749 0.0
H4170 H 0.12668 0.39448 0.82997 0.0
H4171 H 0.09972 0.38481 0.82809 0.0
C4172 C 0.16742 0.39461 0.85968 0.0
C4173 C 0.17231 0.40819 0.86754 0.0
C4174 C 0.15215 0.39335 0.85396 0.0
C4175 C 0.14137 0.40552 0.8563 0.0
C4176 C 0.14657 0.41952 0.86318 0.0
C4177 C 0.16197 0.42092 0.86858 0.0
C4178 C 0.09881 0.39848 0.86553 0.0
C4179 C 0.09349 0.39117 0.85181 0.0
C4180 C 0.11406 0.40427 0.86649 0.0
C4181 C 0.12444 0.40254 0.85387 0.0
C4182 C 0.11889 0.39598 0.83985 0.0
C4183 C 0.10346 0.39053 0.83876 0.0
H4184 H 0.3727 0.41996 0.61206 0.0
H4185 H 0.32583 0.40909 0.62726 0.0
H4186 H 0.37537 0.39359 0.60139 0.0
H4187 H 0.32871 0.38243 0.61698 0.0
H4188 H 0.36052 0.33553 0.62569 0.0
H4189 H 0.34929 0.36164 0.62853 0.0
H4190 H 0.36315 0.37278 0.58131 0.0
H4191 H 0.374 0.34642 0.57829 0.0
C4192 C 0.36282 0.41205 0.61272 0.0
C4193 C 0.34907 0.41654 0.62047 0.0
C4194 C 0.36432 0.39698 0.60657 0.0
C4195 C 0.35225 0.38598 0.6084 0.0
C4196 C 0.33816 0.39072 0.61539 0.0
C4197 C 0.3365 0.40597 0.62119 0.0
C4198 C 0.36063 0.34334 0.61572 0.0
C4199 C 0.36814 0.33896 0.60179 0.0
C4200 C 0.35418 0.35828 0.61733 0.0
C4201 C 0.35544 0.36924 0.60516 0.0
C4202 C 0.36202 0.36452 0.59085 0.0
C4203 C 0.36814 0.34943 0.58911 0.0
H4204 H 0.43563 0.13362 0.34844 0.0
H4205 H 0.38889 0.14945 0.33802 0.0
H4206 H 0.43304 0.14374 0.37518 0.0
H4207 H 0.38652 0.15996 0.36449 0.0
H4208 H 0.38858 0.18273 0.41186 0.0
H4209 H 0.39906 0.17973 0.38534 0.0
H4210 H 0.41255 0.13233 0.39607 0.0
H4211 H 0.40169 0.13515 0.42235 0.0
C4212 C 0.42505 0.13978 0.35168 0.0
C4213 C 0.41243 0.14072 0.3412 0.0
C4214 C 0.42356 0.14549 0.36697 0.0
C4215 C 0.40959 0.15262 0.37187 0.0
C4216 C 0.39748 0.15466 0.36098 0.0
C4217 C 0.39881 0.14861 0.34585 0.0
C4218 C 0.39428 0.17187 0.40872 0.0
C4219 C 0.39429 0.15915 0.41913 0.0
C4220 C 0.40018 0.17013 0.39353 0.0
C4221 C 0.40657 0.15579 0.38867 0.0
C4222 C 0.40782 0.14355 0.39955 0.0
C4223 C 0.40158 0.14515 0.41458 0.0
H4224 H 1.00457 0.16631 0.28871 0.0
H4225 H 0.03286 0.12463 0.29187 0.0
H4226 H 0.98895 0.15422 0.26828 0.0
H4227 H 0.01741 0.1126 0.27105 0.0
H4228 H 0.9716 0.08975 0.25259 0.0
H4229 H 0.99161 0.10194 0.26868 0.0
H4230 H 0.98711 0.14463 0.24205 0.0
H4231 H 0.9667 0.13249 0.22615 0.0
C4232 C 0.00768 0.15466 0.28483 0.0
C4233 C 0.01993 0.14641 0.29205 0.0
C4234 C 0.99874 0.14773 0.27299 0.0
C4235 C 1.00179 0.13235 0.26801 0.0
C4236 C 0.01453 0.12436 0.27474 0.0
C4237 C 0.02348 0.13131 0.28661 0.0
C4238 C 0.97503 0.10167 0.24998 0.0
C4239 C 0.96742 0.11016 0.23813 0.0
C4240 C 0.98662 0.10866 0.25919 0.0
C4241 C 0.99096 0.12436 0.25681 0.0
C4242 C 0.9839 0.13261 0.24442 0.0
C4243 C 0.97227 0.12561 0.2352 0.0
H4244 H 0.17133 0.72312 0.49662 0.0
H4245 H 0.12792 0.71415 0.47249 0.0
H4246 H 0.15833 0.74224 0.51312 0.0
H4247 H 0.11493 0.73375 0.48868 0.0
H4248 H 0.09347 0.75172 0.53488 0.0
H4249 H 0.10601 0.73617 0.51471 0.0
H4250 H 0.14615 0.76687 0.51602 0.0
H4251 H 0.13372 0.78215 0.5367 0.0
C4252 C 0.15906 0.72546 0.4946 0.0
C4253 C 0.15067 0.71698 0.48327 0.0
C4254 C 0.15158 0.73655 0.50405 0.0
C4255 C 0.13548 0.73956 0.5024 0.0
C4256 C 0.12726 0.73157 0.49055 0.0
C4257 C 0.13474 0.7204 0.48114 0.0
C4258 C 0.10489 0.7553 0.53075 0.0
C4259 C 0.11261 0.76816 0.53753 0.0
C4260 C 0.11209 0.74639 0.51905 0.0
C4261 C 0.1272 0.75012 0.51369 0.0
C4262 C 0.13464 0.76342 0.52001 0.0
C4263 C 0.12746 0.77229 0.53181 0.0
H4264 H 0.54565 0.87529 0.72487 0.0
H4265 H 0.53878 0.91917 0.7489 0.0
H4266 H 0.52556 0.86323 0.7412 0.0
H4267 H 0.51914 0.90707 0.7655 0.0
H4268 H 0.47825 0.8842 0.78925 0.0
H4269 H 0.49388 0.89584 0.76835 0.0
H4270 H 0.52312 0.85467 0.76747 0.0
H4271 H 0.50726 0.84294 0.7879 0.0
C4272 C 0.53975 0.88241 0.73352 0.0
C4273 C 0.54391 0.89819 0.73559 0.0
C4274 C 0.5283 0.87546 0.743 0.0
C4275 C 0.52075 0.88408 0.75485 0.0
C4276 C 0.52449 0.90004 0.75643 0.0
C4277 C 0.53588 0.90699 0.74692 0.0
C4278 C 0.48785 0.87754 0.78439 0.0
C4279 C 0.4915 0.86265 0.79033 0.0
C4280 C 0.49692 0.88426 0.77248 0.0
C4281 C 0.50992 0.8763 0.76623 0.0
C4282 C 0.51314 0.86114 0.77177 0.0
C4283 C 0.50405 0.85441 0.78361 0.0
H4284 H 0.34192 0.27886 0.99675 0.0
H4285 H 0.38645 0.30175 0.99084 0.0
H4286 H 0.35422 0.25877 0.01271 0.0
H4287 H 0.39869 0.28241 0.00768 0.0
H4288 H 0.42044 0.24153 0.03205 0.0
H4289 H 0.40805 0.25798 0.01242 0.0
H4290 H 0.36397 0.25346 0.03686 0.0
H4291 H 0.37627 0.23614 0.05573 0.0
C4292 C 0.35438 0.27959 0.9989 0.0
C4293 C 0.3632 0.29189 0.9925 0.0
C4294 C 0.36147 0.26813 0.00823 0.0
C4295 C 0.37755 0.26886 0.01181 0.0
C4296 C 0.38638 0.2811 0.00509 0.0
C4297 C 0.37934 0.29233 0.99545 0.0
C4298 C 0.40804 0.24388 0.03305 0.0
C4299 C 0.39934 0.2375 0.04544 0.0
C4300 C 0.40091 0.25351 0.02186 0.0
C4301 C 0.38492 0.25739 0.02296 0.0
C4302 C 0.3762 0.25066 0.03526 0.0
C4303 C 0.38327 0.24073 0.04622 0.0
H4304 H 0.96406 0.87782 0.28612 0.0
H4305 H 0.97002 0.92056 0.2599 0.0
H4306 H 0.98418 0.8653 0.27019 0.0
H4307 H 0.98966 0.90798 0.24369 0.0
H4308 H 0.03074 0.88487 0.22075 0.0
H4309 H 0.01503 0.89719 0.24116 0.0
H4310 H 0.98674 0.85542 0.24445 0.0
H4311 H 1.00272 0.84302 0.22452 0.0
C4312 C 0.96975 0.88459 0.27705 0.0
C4313 C 0.96535 0.90018 0.27427 0.0
C4314 C 0.98122 0.87737 0.26781 0.0
C4315 C 0.98854 0.88553 0.25549 0.0
C4316 C 0.98451 0.90132 0.25315 0.0
C4317 C 0.97313 0.90854 0.26243 0.0
C4318 C 0.02134 0.87823 0.22603 0.0
C4319 C 0.01798 0.86297 0.22092 0.0
C4320 C 0.01222 0.88535 0.23767 0.0
C4321 C 0.99945 0.87741 0.24444 0.0
C4322 C 0.99654 0.8619 0.23973 0.0
C4323 C 0.0057 0.85478 0.22818 0.0
H4324 H 0.37413 0.77152 0.46679 0.0
H4325 H 0.41893 0.76181 0.48772 0.0
H4326 H 0.36144 0.75488 0.48603 0.0
H4327 H 0.40625 0.74604 0.50775 0.0
H4328 H 0.38233 0.70286 0.52823 0.0
H4329 H 0.39525 0.72219 0.51193 0.0
H4330 H 0.35262 0.74937 0.51055 0.0
H4331 H 0.33951 0.72932 0.52597 0.0
C4332 C 0.38122 0.76616 0.47581 0.0
C4333 C 0.39754 0.76792 0.47567 0.0
C4334 C 0.37393 0.75661 0.48697 0.0
C4335 C 0.38272 0.74883 0.49857 0.0
C4336 C 0.39901 0.75135 0.49885 0.0
C4337 C 0.40633 0.76058 0.48744 0.0
C4338 C 0.37579 0.71307 0.52459 0.0
C4339 C 0.35987 0.71451 0.52834 0.0
C4340 C 0.38323 0.7243 0.51525 0.0
C4341 C 0.37507 0.7375 0.50966 0.0
C4342 C 0.3593 0.73926 0.51415 0.0
C4343 C 0.35177 0.72782 0.52319 0.0
H4344 H 0.47784 0.12412 0.71497 0.0
H4345 H 0.50441 0.1667 0.72057 0.0
H4346 H 0.49348 0.11171 0.73538 0.0
H4347 H 0.52029 0.15424 0.74057 0.0
H4348 H 0.54239 0.13121 0.78238 0.0
H4349 H 0.52233 0.14358 0.76625 0.0
H4350 H 0.51934 0.10178 0.73801 0.0
H4351 H 0.53898 0.08935 0.75433 0.0
C4352 C 0.48689 0.1309 0.72067 0.0
C4353 C 0.48988 0.1464 0.71605 0.0
C4354 C 0.49598 0.12374 0.7323 0.0
C4355 C 0.50832 0.13188 0.7396 0.0
C4356 C 0.51083 0.1476 0.73541 0.0
C4357 C 0.50173 0.15476 0.72383 0.0
C4358 C 0.53726 0.12457 0.77288 0.0
C4359 C 0.54238 0.10929 0.76964 0.0
C4360 C 0.52582 0.13172 0.76353 0.0
C4361 C 0.51922 0.12378 0.75068 0.0
C4362 C 0.52394 0.10826 0.74787 0.0
C4363 C 0.53532 0.10112 0.75722 0.0
H4364 H 0.08618 0.23815 0.98396 0.0
H4365 H 0.13011 0.2357 0.95935 0.0
H4366 H 0.09834 0.25403 1.00424 0.0
H4367 H 0.14211 0.25242 0.97893 0.0
H4368 H 0.16383 0.27784 0.01887 0.0
H4369 H 0.15198 0.25714 1.0033 0.0
H4370 H 0.10672 0.27889 0.00928 0.0
H4371 H 0.11854 0.29885 0.02568 0.0
C4372 C 0.09848 0.24098 0.98292 0.0
C4373 C 0.10717 0.23566 0.97003 0.0
C4374 C 0.10546 0.25027 0.99449 0.0
C4375 C 0.12127 0.25484 0.99331 0.0
C4376 C 0.13003 0.24906 0.98058 0.0
C4377 C 0.12312 0.23948 0.96921 0.0
C4378 C 0.1513 0.27797 0.0171 0.0
C4379 C 0.14213 0.28999 0.02353 0.0
C4380 C 0.14447 0.26618 0.00797 0.0
C4381 C 0.12832 0.26629 1.00467 0.0
C4382 C 0.11912 0.27809 0.01163 0.0
C4383 C 0.12591 0.28966 0.02105 0.0
H4384 H 0.28297 0.02319 0.16881 0.0
H4385 H 0.3094 0.02301 0.12587 0.0
H4386 H 0.26308 0.00676 0.15673 0.0
H4387 H 0.29028 0.00568 0.11405 0.0
H4388 H 0.25107 0.97945 0.09197 0.0
H4389 H 0.26663 1.00042 0.10331 0.0
H4390 H 0.2576 0.98178 0.14951 0.0
H4391 H 0.24113 0.96162 0.13807 0.0
C4392 C 0.2845 0.01964 0.15674 0.0
C4393 C 0.29775 0.02443 0.1483 0.0
C4394 C 0.27316 0.01002 0.14982 0.0
C4395 C 0.27497 1.00454 0.13435 0.0
C4396 C 0.28812 0.00974 0.12583 0.0
C4397 C 0.29923 0.01968 0.13265 0.0
C4398 C 0.25221 0.98006 0.10457 0.0
C4399 C 0.24487 0.96889 0.11412 0.0
C4400 C 0.26132 0.99201 0.11113 0.0
C4401 C 0.26375 0.99287 0.12743 0.0
C4402 C 0.25595 0.98186 0.13697 0.0
C4403 C 0.24651 0.97016 0.1304 0.0
H4404 H 0.25282 0.04052 0.41268 0.0
H4405 H 0.22429 0.04682 0.37152 0.0
H4406 H 0.26806 0.02074 0.39916 0.0
H4407 H 0.23924 0.02655 0.35807 0.0
H4408 H 0.28332 0.00792 0.33304 0.0
H4409 H 0.26434 0.024 0.34674 0.0
H4410 H 0.26994 0.99547 0.38807 0.0
H4411 H 0.28941 0.97966 0.37444 0.0
C4412 C 0.24955 0.03744 0.40083 0.0
C4413 C 0.23737 0.04538 0.39317 0.0
C4414 C 0.25828 0.02598 0.39306 0.0
C4415 C 0.25504 0.02205 0.37741 0.0
C4416 C 0.24232 0.02945 0.37 0.0
C4417 C 0.23363 0.041 0.37776 0.0
C4418 C 0.28039 0.00494 0.345 0.0
C4419 C 0.288 0.99254 0.35266 0.0
C4420 C 0.26938 0.01414 0.35287 0.0
C4421 C 0.26557 0.01116 0.36861 0.0
C4422 C 0.27273 0.99833 0.37606 0.0
C4423 C 0.28384 0.98917 0.3682 0.0
H4424 H 0.21787 0.98337 0.62801 0.0
H4425 H 0.21832 0.01272 0.66911 0.0
H4426 H 0.23801 0.99981 0.61612 0.0
H4427 H 0.23811 0.0293 0.65714 0.0
H4428 H 0.28105 0.05181 0.63619 0.0
H4429 H 0.2647 0.03182 0.64845 0.0
H4430 H 0.23989 0.02549 0.60492 0.0
H4431 H 0.2564 0.04515 0.59264 0.0
C4432 C 0.22235 0.99324 0.63458 0.0
C4433 C 0.2164 0.99672 0.64952 0.0
C4434 C 0.23384 1.00275 0.62771 0.0
C4435 C 0.23969 0.016 0.63559 0.0
C4436 C 0.23409 0.01913 0.65075 0.0
C4437 C 0.22263 0.00963 0.65761 0.0
C4438 C 0.27227 0.04598 0.62918 0.0
C4439 C 0.27004 0.05016 0.61342 0.0
C4440 C 0.26278 0.03458 0.63625 0.0
C4441 C 0.25083 0.02705 0.62775 0.0
C4442 C 0.24904 0.03085 0.61184 0.0
C4443 C 0.25849 0.04223 0.60479 0.0
H4444 H 0.21531 1.00426 0.84079 0.0
H4445 H 0.21384 0.03077 0.88375 0.0
H4446 H 0.23566 0.98766 0.85164 0.0
H4447 H 0.23452 0.01428 0.89457 0.0
H4448 H 0.25284 0.96712 0.91467 0.0
H4449 H 0.23649 0.98768 0.90381 0.0
H4450 H 0.26235 0.98544 0.86048 0.0
H4451 H 0.27858 0.96456 0.8713 0.0
C4452 C 0.21952 0.00673 0.85247 0.0
C4453 C 0.21283 0.01881 0.86142 0.0
C4454 C 0.23131 0.99724 0.85868 0.0
C4455 C 0.23674 0.99953 0.87404 0.0
C4456 C 0.23048 0.01202 0.88278 0.0
C4457 C 0.21869 0.02156 0.87654 0.0
C4458 C 0.25522 0.97114 0.90289 0.0
C4459 C 0.26698 0.96408 0.89383 0.0
C4460 C 0.24586 0.98304 0.89668 0.0
C4461 C 0.24798 0.98821 0.8812 0.0
C4462 C 0.26021 0.98161 0.87236 0.0
C4463 C 0.26961 0.9697 0.8786 0.0
H4464 H 0.59074 0.27359 0.02793 0.0
H4465 H 0.63551 0.27587 0.05096 0.0
H4466 H 0.60196 0.25722 0.00751 0.0
H4467 H 0.64657 0.25861 0.03134 0.0
H4468 H 0.66656 0.23156 0.99168 0.0
H4469 H 0.65566 0.25288 0.00707 0.0
H4470 H 0.60964 0.23232 1.0024 0.0
H4471 H 0.62052 0.21179 0.98607 0.0
C4472 C 0.60303 0.27062 0.02858 0.0
C4473 C 0.61224 0.27604 0.04105 0.0
C4474 C 0.60948 0.26103 0.01694 0.0
C4475 C 0.62523 0.25622 0.01769 0.0
C4476 C 0.63451 0.26213 0.03 0.0
C4477 C 0.62814 0.27203 0.0414 0.0
C4478 C 0.65406 0.23183 0.9937 0.0
C4479 C 0.64441 0.21999 0.98765 0.0
C4480 C 0.64778 0.24398 1.00273 0.0
C4481 C 0.63169 0.24439 0.00637 0.0
C4482 C 0.62201 0.23274 0.99979 0.0
C4483 C 0.62826 0.22083 0.99042 0.0
H4484 H 0.03862 0.37639 0.22246 0.0
H4485 H 0.03481 0.41905 0.2492 0.0
H4486 H 0.01802 0.36461 0.23835 0.0
H4487 H 0.01472 0.40719 0.26539 0.0
H4488 H 0.97304 0.38559 0.28874 0.0
H4489 H 0.98903 0.39749 0.26828 0.0
H4490 H 0.01522 0.35451 0.26391 0.0
H4491 H 0.99893 0.34254 0.28387 0.0
C4492 C 0.03329 0.38332 0.23161 0.0
C4493 C 0.03845 0.39866 0.23456 0.0
C4494 C 0.02154 0.37652 0.24085 0.0
C4495 C 0.01472 0.38484 0.25334 0.0
C4496 C 0.01947 0.40041 0.25581 0.0
C4497 C 0.03112 0.40723 0.24653 0.0
C4498 C 0.98205 0.37861 0.28321 0.0
C4499 C 0.98472 0.36312 0.28802 0.0
C4500 C 0.99133 0.38548 0.27155 0.0
C4501 C 1.00359 0.37706 0.26444 0.0
C4502 C 0.00581 0.36136 0.26888 0.0
C4503 C 0.99649 0.35449 0.28045 0.0
H4504 H 0.83998 0.77738 0.4856 0.0
H4505 H 0.88516 0.79967 0.48359 0.0
H4506 H 0.85079 0.75671 0.50193 0.0
H4507 H 0.89581 0.77982 0.50081 0.0
H4508 H 0.91494 0.74014 0.52831 0.0
H4509 H 0.90444 0.75546 0.50674 0.0
H4510 H 0.85819 0.75161 0.52692 0.0
H4511 H 0.86867 0.73535 0.54771 0.0
C4512 C 0.85228 0.77779 0.48859 0.0
C4513 C 0.86171 0.79015 0.48329 0.0
C4514 C 0.85849 0.76602 0.49817 0.0
C4515 C 0.87422 0.76652 0.50308 0.0
C4516 C 0.88375 0.77867 0.49722 0.0
C4517 C 0.87761 0.7902 0.48733 0.0
C4518 C 0.90247 0.74233 0.5279 0.0
C4519 C 0.89264 0.73653 0.53971 0.0
C4520 C 0.89643 0.75131 0.51561 0.0
C4521 C 0.8804 0.75516 0.51502 0.0
C4522 C 0.87052 0.74883 0.52663 0.0
C4523 C 0.87653 0.7395 0.53869 0.0
H4524 H 0.98298 0.62328 0.21302 0.0
H4525 H 0.98752 0.66894 0.23394 0.0
H4526 H 0.99928 0.61221 0.23345 0.0
H4527 H 1.00289 0.65781 0.25515 0.0
H4528 H 0.04705 0.63796 0.27786 0.0
H4529 H 0.02724 0.64909 0.2609 0.0
H4530 H 1.00437 0.60399 0.25819 0.0
H4531 H 0.025 0.59275 0.27426 0.0
C4532 C 0.98709 0.63088 0.22229 0.0
C4533 C 0.98403 0.647 0.22181 0.0
C4534 C 0.99644 0.62451 0.23415 0.0
C4535 C 1.00272 0.63404 0.24609 0.0
C4536 C 0.99879 0.65006 0.24602 0.0
C4537 C 0.98978 0.65647 0.23393 0.0
C4538 C 0.03764 0.63049 0.27383 0.0
C4539 C 0.03765 0.61446 0.27736 0.0
C4540 C 0.02614 0.63689 0.26409 0.0
C4541 C 0.01406 0.62751 0.25786 0.0
C4542 C 0.01362 0.61161 0.26225 0.0
C4543 C 0.02537 0.60514 0.27168 0.0
H4544 H 0.4693 0.38133 0.7828 0.0
H4545 H 0.47559 0.4241 0.75671 0.0
H4546 H 0.48919 0.36865 0.76672 0.0
H4547 H 0.49498 0.41136 0.74033 0.0
H4548 H 0.53565 0.388 0.717 0.0
H4549 H 0.52016 0.40039 0.73753 0.0
H4550 H 0.49172 0.35874 0.74107 0.0
H4551 H 0.50751 0.34625 0.72104 0.0
C4552 C 0.475 0.38807 0.77372 0.0
C4553 C 0.47077 0.40373 0.77104 0.0
C4554 C 0.48635 0.38076 0.76439 0.0
C4555 C 0.49369 0.38888 0.75206 0.0
C4556 C 0.48981 0.40472 0.74979 0.0
C4557 C 0.47857 0.41204 0.75917 0.0
C4558 C 0.52627 0.38139 0.72238 0.0
C4559 C 0.52282 0.36614 0.7173 0.0
C4560 C 0.51727 0.38856 0.73408 0.0
C4561 C 0.5045 0.38069 0.74094 0.0
C4562 C 0.50152 0.36518 0.73628 0.0
C4563 C 0.51057 0.358 0.72467 0.0
H4564 H 1.00121 0.84207 0.7202 0.0
H4565 H 0.97675 0.88526 0.71112 0.0
H4566 H 0.01749 0.85528 0.73941 0.0
H4567 H 0.99271 0.89843 0.73079 0.0
H4568 H 0.03781 0.92063 0.75019 0.0
H4569 H 0.01859 0.90767 0.73376 0.0
H4570 H 0.01965 0.86738 0.76424 0.0
H4571 H 0.03937 0.88024 0.78042 0.0
C4572 C 0.99909 0.85434 0.72251 0.0
C4573 C 0.98769 0.8626 0.71402 0.0
C4574 C 0.00841 0.86193 0.73365 0.0
C4575 C 0.00656 0.87801 0.73669 0.0
C4576 C 0.99472 0.88613 0.7286 0.0
C4577 C 0.98545 0.87854 0.71739 0.0
C4578 C 0.03384 0.90907 0.75351 0.0
C4579 C 0.04023 0.90147 0.76663 0.0
C4580 C 0.02269 0.90163 0.7441 0.0
C4581 C 0.0175 0.88639 0.74755 0.0
C4582 C 0.02352 0.879 0.76101 0.0
C4583 C 0.03475 0.88642 0.77039 0.0
H4584 H 0.8395 0.28711 0.50573 0.0
H4585 H 0.88226 0.29193 0.53209 0.0
H4586 H 0.85172 0.26745 0.48928 0.0
H4587 H 0.89439 0.27171 0.51602 0.0
H4588 H 0.91685 0.25195 0.4712 0.0
H4589 H 0.90463 0.26841 0.49084 0.0
H4590 H 0.86169 0.24217 0.48604 0.0
H4591 H 0.87383 0.22609 0.46582 0.0
C4592 C 0.85144 0.28374 0.50824 0.0
C4593 C 0.8599 0.29121 0.52021 0.0
C4594 C 0.85847 0.27233 0.49882 0.0
C4595 C 0.87416 0.26792 0.50116 0.0
C4596 C 0.88241 0.27495 0.51359 0.0
C4597 C 0.8754 0.28649 0.52293 0.0
C4598 C 0.90485 0.24954 0.47445 0.0
C4599 C 0.89632 0.23772 0.46682 0.0
C4600 C 0.89782 0.25898 0.48585 0.0
C4601 C 0.88206 0.2568 0.49009 0.0
C4602 C 0.87373 0.24448 0.48292 0.0
C4603 C 0.88074 0.23513 0.47139 0.0
H4604 H 0.46589 0.13869 0.2737 0.0
H4605 H 0.48417 0.09229 0.26644 0.0
H4606 H 0.4862 0.14944 0.25703 0.0
H4607 H 0.50535 0.10301 0.25073 0.0
H4608 H 0.52785 0.12347 0.20677 0.0
H4609 H 0.51084 0.11242 0.22663 0.0
H4610 H 0.51093 0.15672 0.25115 0.0
H4611 H 0.52697 0.16795 0.23048 0.0
C4612 C 0.47459 0.13084 0.26892 0.0
C4613 C 0.47338 0.11465 0.27133 0.0
C4614 C 0.48638 0.137 0.25934 0.0
C4615 C 0.49756 0.12718 0.2522 0.0
C4616 C 0.49681 0.11102 0.25549 0.0
C4617 C 0.48475 0.10483 0.26471 0.0
C4618 C 0.52437 0.13076 0.21653 0.0
C4619 C 0.52869 0.14659 0.21701 0.0
C4620 C 0.51462 0.1244 0.22806 0.0
C4621 C 0.50921 0.1336 0.24066 0.0
C4622 C 0.51434 0.14927 0.24151 0.0
C4623 C 0.52374 0.15572 0.22973 0.0
H4624 H 0.66928 0.72286 0.0062 0.0
H4625 H 0.62696 0.71699 0.03305 0.0
H4626 H 0.65637 0.74211 0.98983 0.0
H4627 H 0.61412 0.73685 0.01708 0.0
H4628 H 0.59056 0.75611 0.97273 0.0
H4629 H 0.60349 0.73987 0.99209 0.0
H4630 H 0.64575 0.76708 0.9866 0.0
H4631 H 0.6329 0.78292 0.96665 0.0
C4632 C 0.65729 0.72592 0.00883 0.0
C4633 C 0.64915 0.71827 0.02092 0.0
C4634 C 0.64985 0.7371 0.99945 0.0
C4635 C 0.63408 0.7411 1.00196 0.0
C4636 C 0.62616 0.7339 0.01451 0.0
C4637 C 0.63356 0.72258 0.0238 0.0
C4638 C 0.60257 0.75876 0.97576 0.0
C4639 C 0.6107 0.7708 0.96803 0.0
C4640 C 0.61001 0.74946 0.987 0.0
C4641 C 0.62578 0.752 0.99098 0.0
C4642 C 0.63371 0.76449 0.98368 0.0
C4643 C 0.6263 0.7737 0.9723 0.0
H4644 H 0.99801 0.16216 0.79028 0.0
H4645 H 0.96901 0.1211 0.79518 0.0
H4646 H 0.01323 0.14911 0.77017 0.0
H4647 H 0.984 0.10811 0.77462 0.0
H4648 H 0.02831 0.08351 0.75556 0.0
H4649 H 0.00928 0.09677 0.77197 0.0
H4650 H 0.01478 0.13876 0.7444 0.0
H4651 H 0.03425 0.12555 0.72822 0.0
C4652 C 0.99465 0.15044 0.78683 0.0
C4653 C 0.98232 0.14266 0.79446 0.0
C4654 C 1.00337 0.14295 0.77518 0.0
C4655 C 0.99998 0.12746 0.77076 0.0
C4656 C 0.98716 0.11993 0.77789 0.0
C4657 C 0.97845 0.12743 0.7896 0.0
C4658 C 0.02534 0.09552 0.75285 0.0
C4659 C 0.03292 0.10348 0.74061 0.0
C4660 C 0.01431 0.10313 0.76224 0.0
C4661 C 0.01047 0.11892 0.75963 0.0
C4662 C 0.0176 0.12669 0.74696 0.0
C4663 C 0.0287 0.11908 0.73759 0.0
H4664 H 0.63662 0.23651 0.5477 0.0
H4665 H 0.59167 0.24268 0.52575 0.0
H4666 H 0.64862 0.25308 0.52796 0.0
H4667 H 0.60372 0.25843 0.50532 0.0
H4668 H 0.62543 0.30263 0.48428 0.0
H4669 H 0.61339 0.28295 0.50084 0.0
H4670 H 0.65738 0.25812 0.50317 0.0
H4671 H 0.66956 0.27849 0.48741 0.0
C4672 C 0.62937 0.24106 0.53837 0.0
C4673 C 0.61318 0.23834 0.53835 0.0
C4674 C 0.63627 0.25057 0.52692 0.0
C4675 C 0.62721 0.25739 0.51494 0.0
C4676 C 0.61111 0.25387 0.51451 0.0
C4677 C 0.60417 0.24465 0.52616 0.0
C4678 C 0.63247 0.29285 0.48817 0.0
C4679 C 0.64848 0.29219 0.48458 0.0
C4680 C 0.62554 0.28143 0.49766 0.0
C4681 C 0.63434 0.26881 0.5036 0.0
C4682 C 0.65021 0.26779 0.49927 0.0
C4683 C 0.65722 0.2794 0.49005 0.0
H4684 H 0.53102 0.88371 0.30192 0.0
H4685 H 0.50684 0.83984 0.29544 0.0
H4686 H 0.51495 0.89554 0.28149 0.0
H4687 H 0.4906 0.85169 0.27531 0.0
H4688 H 0.46899 0.87432 0.23269 0.0
H4689 H 0.48906 0.86273 0.24942 0.0
H4690 H 0.48821 0.9038 0.27883 0.0
H4691 H 0.46848 0.91545 0.262 0.0
C4692 C 0.52241 0.87653 0.29603 0.0
C4693 C 0.5202 0.86083 0.3004 0.0
C4694 C 0.51309 0.88335 0.28438 0.0
C4695 C 0.50134 0.87464 0.27678 0.0
C4696 C 0.49961 0.85876 0.28074 0.0
C4697 C 0.5089 0.85196 0.29238 0.0
C4698 C 0.47325 0.88096 0.2426 0.0
C4699 C 0.46705 0.8958 0.24601 0.0
C4700 C 0.4847 0.87427 0.25227 0.0
C4701 C 0.49026 0.88226 0.26557 0.0
C4702 C 0.48441 0.89734 0.26862 0.0
C4703 C 0.47298 0.904 0.25899 0.0
H4704 H 0.87363 0.78399 0.04291 0.0
H4705 H 0.91619 0.75733 0.03816 0.0
H4706 H 0.8614 0.76801 0.02266 0.0
H4707 H 0.90386 0.74097 0.01848 0.0
H4708 H 0.88159 0.71795 0.97685 0.0
H4709 H 0.89391 0.73792 0.99312 0.0
H4710 H 0.851 0.74285 0.01936 0.0
H4711 H 0.83861 0.72344 1.00272 0.0
C4712 C 0.88042 0.77478 0.03748 0.0
C4713 C 0.8959 0.77195 0.04222 0.0
C4714 C 0.87336 0.76549 0.02594 0.0
C4715 C 0.88153 0.753 0.01891 0.0
C4716 C 0.89719 0.75055 0.02335 0.0
C4717 C 0.90427 0.75992 0.03477 0.0
C4718 C 0.87473 0.72349 0.98595 0.0
C4719 C 0.85911 0.71904 0.98847 0.0
C4720 C 0.88184 0.73487 0.9954 0.0
C4721 C 0.87356 0.74202 0.00775 0.0
C4722 C 0.85777 0.73787 0.0099 0.0
C4723 C 0.85065 0.72661 1.00036 0.0
H4724 H 0.71721 0.97315 0.88542 0.0
H4725 H 0.72156 1.00055 0.84324 0.0
H4726 H 0.73696 0.98949 0.89802 0.0
H4727 H 0.74076 0.0172 0.85591 0.0
H4728 H 0.78182 0.04071 0.87862 0.0
H4729 H 0.76605 0.02051 0.86603 0.0
H4730 H 0.73961 0.01468 0.90872 0.0
H4731 H 0.75575 0.03435 0.92138 0.0
C4732 C 0.72244 0.9826 0.87879 0.0
C4733 C 0.71774 0.98552 0.86332 0.0
C4734 C 0.73371 0.99208 0.88606 0.0
C4735 C 0.74048 1.00484 0.87809 0.0
C4736 C 0.73607 0.00741 0.86244 0.0
C4737 C 0.72493 0.99787 0.85515 0.0
C4738 C 0.77279 0.03494 0.88537 0.0
C4739 C 0.77006 0.03922 0.90101 0.0
C4740 C 0.76362 0.02342 0.87811 0.0
C4741 C 0.75136 0.01596 0.88624 0.0
C4742 C 0.74902 0.01992 0.90206 0.0
C4743 C 0.75826 0.03133 0.90934 0.0
H4744 H 0.78921 0.96663 0.63698 0.0
H4745 H 0.76309 0.97226 0.59415 0.0
H4746 H 0.77373 0.98732 0.64912 0.0
H4747 H 0.74735 0.9925 0.60635 0.0
H4748 H 0.72451 0.03383 0.629 0.0
H4749 H 0.74507 0.01808 0.61696 0.0
H4750 H 0.74786 0.98994 0.65883 0.0
H4751 H 0.72776 0.00592 0.67095 0.0
C4752 C 0.78031 0.97241 0.63008 0.0
C4753 C 0.77736 0.96769 0.61461 0.0
C4754 C 0.77132 0.9842 0.63709 0.0
C4755 C 0.7591 0.99154 0.62882 0.0
C4756 C 0.75671 0.98731 0.61309 0.0
C4757 C 0.76573 0.97558 0.60609 0.0
C4758 C 0.72973 0.02446 0.63573 0.0
C4759 C 0.7244 0.02111 0.65092 0.0
C4760 C 0.74145 0.01533 0.62878 0.0
C4761 C 0.7481 1.00258 0.63682 0.0
C4762 C 0.74322 0.99973 0.65228 0.0
C4763 C 0.73157 0.00888 0.65923 0.0
H4764 H 0.75192 0.97344 0.41854 0.0
H4765 H 0.72394 0.97039 0.37663 0.0
H4766 H 0.76759 0.99396 0.40669 0.0
H4767 H 0.73932 0.9914 0.36488 0.0
H4768 H 0.78396 0.01147 0.3419 0.0
H4769 H 0.76453 0.99469 0.35406 0.0
H4770 H 0.76999 0.01991 0.39753 0.0
H4771 H 0.78992 0.03639 0.38541 0.0
C4772 C 0.74887 0.97739 0.4069 0.0
C4773 C 0.73669 0.97015 0.39852 0.0
C4774 C 0.75785 0.98928 0.40009 0.0
C4775 C 0.75488 0.99437 0.38472 0.0
C4776 C 0.7422 0.98762 0.37662 0.0
C4777 C 0.73325 0.97565 0.38341 0.0
C4778 C 0.78089 0.0136 0.354 0.0
C4779 C 0.78862 0.02525 0.36268 0.0
C4780 C 0.76962 1.00399 0.36099 0.0
C4781 C 0.76566 0.00579 0.37688 0.0
C4782 C 0.7729 0.01793 0.38537 0.0
C4783 C 0.78427 0.0275 0.37838 0.0
H4784 H 0.75103 0.03571 0.09067 0.0
H4785 H 0.72518 0.0428 0.13344 0.0
H4786 H 0.76678 0.01581 0.1034 0.0
H4787 H 0.74053 0.02236 0.1461 0.0
H4788 H 0.78476 1.00193 0.16891 0.0
H4789 H 0.76572 0.01869 0.1562 0.0
H4790 H 0.76907 0.99069 0.11424 0.0
H4791 H 0.78869 0.97426 0.12686 0.0
C4792 C 0.74848 0.03279 0.10273 0.0
C4793 C 0.73688 0.04096 0.11104 0.0
C4794 C 0.75749 0.02125 0.11005 0.0
C4795 C 0.7551 0.01742 0.12589 0.0
C4796 C 0.743 0.02515 0.134 0.0
C4797 C 0.73407 0.03681 0.1267 0.0
C4798 C 0.78132 0.99921 0.15702 0.0
C4799 C 0.78836 0.98676 0.1489 0.0
C4800 C 0.77027 0.00882 0.14972 0.0
C4801 C 0.7658 0.0062 0.13409 0.0
C4802 C 0.77239 0.99332 0.12617 0.0
C4803 C 0.78357 0.98378 0.13345 0.0
H4804 H 0.41865 0.73763 0.98097 0.0
H4805 H 0.37479 0.73275 0.95656 0.0
H4806 H 0.40586 0.75334 1.00099 0.0
H4807 H 0.36211 0.74918 0.97597 0.0
H4808 H 0.33953 0.7732 0.01652 0.0
H4809 H 0.35233 0.75326 1.00071 0.0
H4810 H 0.39617 0.77809 0.0053 0.0
H4811 H 0.38347 0.79741 0.02183 0.0
C4812 C 0.40623 0.73987 0.97992 0.0
C4813 C 0.39775 0.73393 0.96715 0.0
C4814 C 0.39888 0.74905 0.99134 0.0
C4815 C 0.38289 0.75283 0.99016 0.0
C4816 C 0.37435 0.74643 0.97757 0.0
C4817 C 0.38165 0.73702 0.96632 0.0
C4818 C 0.35197 0.77422 0.01435 0.0
C4819 C 0.36047 0.78691 0.02043 0.0
C4820 C 0.35932 0.76285 0.00511 0.0
C4821 C 0.37534 0.76401 1.00142 0.0
C4822 C 0.3839 0.77651 0.00797 0.0
C4823 C 0.3766 0.78771 0.01744 0.0
H4824 H 0.95832 0.63735 0.7765 0.0
H4825 H 0.98047 0.59242 0.77083 0.0
H4826 H 0.97754 0.64911 0.75916 0.0
H4827 H 1.0004 0.60425 0.7543 0.0
H4828 H 0.02094 0.62519 0.70955 0.0
H4829 H 1.00455 0.61346 0.72957 0.0
H4830 H 1.00214 0.65797 0.75353 0.0
H4831 H 0.01772 0.66982 0.73283 0.0
C4832 C 0.96758 0.63006 0.77187 0.0
C4833 C 0.9678 0.61393 0.77499 0.0
C4834 C 0.97873 0.63682 0.76192 0.0
C4835 C 0.99064 0.62771 0.75504 0.0
C4836 C 0.99126 0.61168 0.7589 0.0
C4837 C 0.9799 0.60487 0.76857 0.0
C4838 C 0.01706 0.63242 0.7192 0.0
C4839 C 0.02059 0.64846 0.71954 0.0
C4840 C 0.00766 0.62566 0.73082 0.0
C4841 C 1.00176 0.63469 0.74332 0.0
C4842 C 0.006 0.65062 0.74398 0.0
C4843 C 0.01512 0.65744 0.73217 0.0
H4844 H 0.09138 0.26422 0.47217 0.0
H4845 H 0.13373 0.28987 0.46229 0.0
H4846 H 0.10522 0.24857 0.49139 0.0
H4847 H 0.14755 0.27455 0.48201 0.0
H4848 H 0.17094 0.22957 0.5005 0.0
H4849 H 0.15745 0.24893 0.48472 0.0
H4850 H 0.11778 0.24667 0.51594 0.0
H4851 H 0.13116 0.22679 0.53145 0.0
C4852 C 0.10359 0.26676 0.47433 0.0
C4853 C 0.11145 0.27826 0.46557 0.0
C4854 C 0.11155 0.2578 0.48547 0.0
C4855 C 0.1276 0.26015 0.48827 0.0
C4856 C 0.13529 0.27216 0.48 0.0
C4857 C 0.12733 0.28106 0.46876 0.0
C4858 C 0.15941 0.23333 0.50414 0.0
C4859 C 0.15211 0.22652 0.51721 0.0
C4860 C 0.15167 0.24455 0.49511 0.0
C4861 C 0.13642 0.2494 0.49893 0.0
C4862 C 0.12938 0.24306 0.51243 0.0
C4863 C 0.13711 0.23173 0.52142 0.0
H4864 H 0.96783 0.37486 0.72409 0.0
H4865 H 0.97218 0.41878 0.74866 0.0
H4866 H 0.98819 0.36364 0.74067 0.0
H4867 H 0.99215 0.40751 0.76543 0.0
H4868 H 0.03356 0.38624 0.78974 0.0
H4869 H 0.01802 0.39725 0.76845 0.0
H4870 H 0.99 0.3552 0.76728 0.0
H4871 H 0.00571 0.34413 0.78818 0.0
C4872 C 0.97327 0.3822 0.73287 0.0
C4873 C 0.96828 0.39771 0.73507 0.0
C4874 C 0.98487 0.37572 0.74249 0.0
C4875 C 0.99177 0.38458 0.75455 0.0
C4876 C 0.98729 0.40033 0.7562 0.0
C4877 C 0.97572 0.40679 0.74659 0.0
C4878 C 0.02426 0.37924 0.78474 0.0
C4879 C 0.02087 0.36431 0.79075 0.0
C4880 C 0.01525 0.38561 0.77259 0.0
C4881 C 1.00261 0.3772 0.76615 0.0
C4882 C 0.9997 0.362 0.77175 0.0
C4883 C 0.0087 0.35565 0.78385 0.0
H4884 H 0.47849 0.62626 0.29515 0.0
H4885 H 0.50286 0.66991 0.28798 0.0
H4886 H 0.49409 0.61419 0.27451 0.0
H4887 H 0.51875 0.6578 0.26778 0.0
H4888 H 0.54092 0.6351 0.2259 0.0
H4889 H 0.52071 0.64683 0.24233 0.0
H4890 H 0.5201 0.6053 0.27111 0.0
H4891 H 0.53983 0.59348 0.25446 0.0
C4892 C 0.48707 0.63333 0.28909 0.0
C4893 C 0.48944 0.64905 0.29331 0.0
C4894 C 0.49613 0.62637 0.27731 0.0
C4895 C 0.50786 0.63493 0.26948 0.0
C4896 C 0.50976 0.65083 0.27333 0.0
C4897 C 0.50066 0.65779 0.28504 0.0
C4898 C 0.53626 0.62838 0.23557 0.0
C4899 C 0.54207 0.61336 0.23886 0.0
C4900 C 0.52475 0.63516 0.2451 0.0
C4901 C 0.51879 0.62712 0.25821 0.0
C4902 C 0.52418 0.61184 0.26106 0.0
C4903 C 0.53562 0.60506 0.25152 0.0
H4904 H 0.53241 0.62408 0.78765 0.0
H4905 H 0.50293 0.66502 0.7866 0.0
H4906 H 0.5166 0.6122 0.76703 0.0
H4907 H 0.48688 0.65303 0.76647 0.0
H4908 H 0.46389 0.63196 0.7243 0.0
H4909 H 0.48398 0.64437 0.74036 0.0
H4910 H 0.49157 0.60061 0.76445 0.0
H4911 H 0.47194 0.58817 0.74808 0.0
C4912 C 0.52266 0.63062 0.78291 0.0
C4913 C 0.51894 0.6455 0.78885 0.0
C4914 C 0.51349 0.62375 0.77116 0.0
C4915 C 0.5003 0.63154 0.76509 0.0
C4916 C 0.49701 0.64669 0.77063 0.0
C4917 C 0.50621 0.65357 0.7823 0.0
C4918 C 0.47004 0.62494 0.73285 0.0
C4919 C 0.46622 0.60907 0.73491 0.0
C4920 C 0.48149 0.63209 0.74218 0.0
C4921 C 0.48939 0.62359 0.75389 0.0
C4922 C 0.48596 0.60756 0.75548 0.0
C4923 C 0.47458 0.6004 0.74612 0.0
H4924 H 0.92312 0.2611 0.97535 0.0
H4925 H 0.87945 0.28533 0.96824 0.0
H4926 H 0.91062 0.24397 0.99428 0.0
H4927 H 0.86698 0.26851 0.98766 0.0
H4928 H 0.84599 0.22177 1.00469 0.0
H4929 H 0.85818 0.24241 0.98946 0.0
H4930 H 0.89901 0.24023 0.01911 0.0
H4931 H 0.88693 0.21909 0.03407 0.0
C4932 C 0.9109 0.263 0.97807 0.0
C4933 C 0.90228 0.27455 0.97015 0.0
C4934 C 0.90371 0.25319 0.98904 0.0
C4935 C 0.88769 0.25469 0.99251 0.0
C4936 C 0.87925 0.26675 0.98511 0.0
C4937 C 0.88643 0.27651 0.97404 0.0
C4938 C 0.8575 0.22581 0.00812 0.0
C4939 C 0.8655 0.21866 0.02058 0.0
C4940 C 0.86449 0.23778 0.9994 0.0
C4941 C 0.87968 0.24305 1.00292 0.0
C4942 C 0.88743 0.23633 0.01583 0.0
C4943 C 0.88044 0.22428 0.02452 0.0
H4944 H 0.59458 0.73905 0.48519 0.0
H4945 H 0.6402 0.73368 0.46446 0.0
H4946 H 0.60578 0.75501 0.50594 0.0
H4947 H 0.65135 0.75054 0.48442 0.0
H4948 H 0.6709 0.77717 0.52471 0.0
H4949 H 0.65956 0.75626 0.50903 0.0
H4950 H 0.61468 0.7795 0.51101 0.0
H4951 H 0.6259 0.79964 0.52758 0.0
C4952 C 0.60705 0.74124 0.48513 0.0
C4953 C 0.6165 0.73508 0.47319 0.0
C4954 C 0.6135 0.7506 0.49695 0.0
C4955 C 0.62954 0.75446 0.49693 0.0
C4956 C 0.63904 0.74778 0.48518 0.0
C4957 C 0.63263 0.7381 0.4736 0.0
C4958 C 0.65853 0.77758 0.52204 0.0
C4959 C 0.6493 0.79005 0.52741 0.0
C4960 C 0.65201 0.76567 0.51284 0.0
C4961 C 0.63614 0.7661 0.50838 0.0
C4962 C 0.62684 0.7784 0.51427 0.0
C4963 C 0.6333 0.79009 0.52378 0.0
H4964 H 0.73513 0.46008 0.63973 0.0
H4965 H 0.73944 0.48152 0.59431 0.0
H4966 H 0.75132 0.4805 0.65101 0.0
H4967 H 0.75466 0.50276 0.60566 0.0
H4968 H 0.79866 0.5257 0.62571 0.0
H4969 H 0.77891 0.50874 0.61438 0.0
H4970 H 0.75635 0.50506 0.65955 0.0
H4971 H 0.77694 0.52108 0.67097 0.0
C4972 C 0.73916 0.46948 0.63224 0.0
C4973 C 0.73607 0.46914 0.61612 0.0
C4974 C 0.74844 0.48133 0.63872 0.0
C4975 C 0.75461 0.49343 0.62932 0.0
C4976 C 0.75065 0.49351 0.61331 0.0
C4977 C 0.74171 0.48141 0.60677 0.0
C4978 C 0.78933 0.52144 0.63314 0.0
C4979 C 0.78941 0.52467 0.64924 0.0
C4980 C 0.77786 0.5117 0.62663 0.0
C4981 C 0.7659 0.5052 0.63598 0.0
C4982 C 0.76552 0.50931 0.65196 0.0
C4983 C 0.77724 0.51871 0.65852 0.0
H4984 H 0.7271 0.54034 0.87289 0.0
H4985 H 0.75566 0.53812 0.91445 0.0
H4986 H 0.74266 0.51948 0.86111 0.0
H4987 H 0.77145 0.51773 0.90258 0.0
H4988 H 0.79361 0.47508 0.88167 0.0
H4989 H 0.77369 0.49158 0.89374 0.0
H4990 H 0.76794 0.51638 0.85009 0.0
H4991 H 0.78741 0.4996 0.83798 0.0
C4992 C 0.73659 0.5353 0.87959 0.0
C4993 C 0.74013 0.54098 0.89461 0.0
C4994 C 0.74562 0.52341 0.87278 0.0
C4995 C 0.75847 0.51692 0.88079 0.0
C4996 C 0.76158 0.52222 0.89607 0.0
C4997 C 0.75253 0.53404 0.90288 0.0
C4998 C 0.7879 0.48389 0.87459 0.0
C4999 C 0.79219 0.48603 0.85886 0.0
C5000 C 0.77655 0.49346 0.88155 0.0
C5001 C 0.76923 0.50549 0.87298 0.0
C5002 C 0.77311 0.50717 0.85707 0.0
C5003 C 0.7844 0.49756 0.85011 0.0
H5004 H 0.78298 0.53927 0.13474 0.0
H5005 H 0.75329 0.53777 0.09395 0.0
H5006 H 0.76756 0.51837 0.14667 0.0
H5007 H 0.73762 0.51738 0.10599 0.0
H5008 H 0.71542 0.47479 0.127 0.0
H5009 H 0.73517 0.49124 0.11455 0.0
H5010 H 0.74271 0.51524 0.1584 0.0
H5011 H 0.72343 0.49848 0.17087 0.0
C5012 C 0.77327 0.53439 0.12825 0.0
C5013 C 0.76937 0.54027 0.11339 0.0
C5014 C 0.76431 0.52247 0.13515 0.0
C5015 C 0.75118 0.51618 0.12741 0.0
C5016 C 0.74771 0.52169 0.11229 0.0
C5017 C 0.75669 0.53352 0.10538 0.0
C5018 C 0.72148 0.48341 0.13403 0.0
C5019 C 0.71776 0.48533 0.14993 0.0
C5020 C 0.73275 0.49296 0.12686 0.0
C5021 C 0.74052 0.50475 0.13537 0.0
C5022 C 0.73719 0.50621 0.15144 0.0
C5023 C 0.72601 0.49661 0.15861 0.0
H5024 H 0.77701 0.46327 0.37004 0.0
H5025 H 0.77179 0.48418 0.41563 0.0
H5026 H 0.76122 0.48393 0.35866 0.0
H5027 H 0.75693 0.50559 0.40421 0.0
H5028 H 0.71322 0.52845 0.38341 0.0
H5029 H 0.73275 0.51145 0.39497 0.0
H5030 H 0.75661 0.50878 0.35041 0.0
H5031 H 0.73629 0.52492 0.33872 0.0
C5032 C 0.77287 0.47259 0.37756 0.0
C5033 C 0.77557 0.47203 0.39375 0.0
C5034 C 0.76382 0.48457 0.37102 0.0
C5035 C 0.75749 0.49657 0.38043 0.0
C5036 C 0.76109 0.49643 0.39654 0.0
C5037 C 0.76981 0.48422 0.40312 0.0
C5038 C 0.72279 0.52443 0.37616 0.0
C5039 C 0.72315 0.52798 0.36013 0.0
C5040 C 0.73413 0.51466 0.38281 0.0
C5041 C 0.74638 0.50842 0.37369 0.0
C5042 C 0.74721 0.51285 0.35782 0.0
C5043 C 0.73564 0.52231 0.3511 0.0
H5044 H 0.53977 0.41441 0.26606 0.0
H5045 H 0.54774 0.37124 0.29101 0.0
H5046 H 0.51981 0.40168 0.25034 0.0
H5047 H 0.52738 0.35855 0.27552 0.0
H5048 H 0.50996 0.33723 0.22878 0.0
H5049 H 0.52542 0.34964 0.24911 0.0
H5050 H 0.49462 0.38965 0.24822 0.0
H5051 H 0.47931 0.37731 0.22746 0.0
C5052 C 0.53701 0.40228 0.26846 0.0
C5053 C 0.54549 0.39382 0.27973 0.0
C5054 C 0.52545 0.39497 0.25946 0.0
C5055 C 0.52203 0.379 0.26149 0.0
C5056 C 0.52989 0.37078 0.2734 0.0
C5057 C 0.54149 0.3781 0.2824 0.0
C5058 C 0.50632 0.34859 0.23304 0.0
C5059 C 0.49344 0.35631 0.22637 0.0
C5060 C 0.51516 0.35569 0.24483 0.0
C5061 C 0.51137 0.37073 0.25033 0.0
C5062 C 0.49805 0.37817 0.24413 0.0
C5063 C 0.48919 0.37105 0.23229 0.0
H5064 H 0.09246 0.75426 0.04075 0.0
H5065 H 0.13357 0.72538 0.0453 0.0
H5066 H 0.10557 0.76996 0.02104 0.0
H5067 H 0.14658 0.74075 0.02506 0.0
H5068 H 0.17154 0.78455 0.00588 0.0
H5069 H 0.15815 0.76559 0.02227 0.0
H5070 H 0.11579 0.77248 0.99561 0.0
H5071 H 0.12914 0.79197 0.97956 0.0
C5072 C 0.10421 0.75103 0.0373 0.0
C5073 C 0.11197 0.73858 0.04472 0.0
C5074 C 0.11174 0.76003 0.02587 0.0
C5075 C 0.12725 0.75679 0.02142 0.0
C5076 C 0.13476 0.74386 0.02836 0.0
C5077 C 0.12725 0.73492 0.03989 0.0
C5078 C 0.15941 0.78192 1.00338 0.0
C5079 C 0.15141 0.78989 0.99143 0.0
C5080 C 0.15171 0.77091 0.01276 0.0
C5081 C 0.13579 0.76745 0.01041 0.0
C5082 C 0.12796 0.775 0.99803 0.0
C5083 C 0.13565 0.78612 0.98871 0.0
H5084 H 0.41998 0.2603 0.53537 0.0
H5085 H 0.37705 0.28632 0.54043 0.0
H5086 H 0.40805 0.24437 0.51511 0.0
H5087 H 0.36519 0.27071 0.51966 0.0
H5088 H 0.34346 0.22516 0.50019 0.0
H5089 H 0.35536 0.24515 0.51647 0.0
H5090 H 0.39799 0.2417 0.48958 0.0
H5091 H 0.38618 0.22118 0.4736 0.0
C5092 C 0.40807 0.26287 0.53191 0.0
C5093 C 0.39946 0.27454 0.53965 0.0
C5094 C 0.40122 0.25374 0.52017 0.0
C5095 C 0.38555 0.25608 0.51572 0.0
C5096 C 0.37717 0.26831 0.52294 0.0
C5097 C 0.38402 0.27738 0.53478 0.0
C5098 C 0.35531 0.2288 0.49757 0.0
C5099 C 0.36388 0.22144 0.48562 0.0
C5100 C 0.36214 0.2404 0.50691 0.0
C5101 C 0.37775 0.24507 0.50451 0.0
C5102 C 0.38607 0.23824 0.49202 0.0
C5103 C 0.37925 0.22654 0.48274 0.0
H5104 H 0.28517 0.53774 0.37406 0.0
H5105 H 0.25662 0.53598 0.41566 0.0
H5106 H 0.26915 0.51722 0.36225 0.0
H5107 H 0.2404 0.51591 0.40378 0.0
H5108 H 0.21668 0.47434 0.38254 0.0
H5109 H 0.23745 0.4898 0.39461 0.0
H5110 H 0.24358 0.51521 0.35136 0.0
H5111 H 0.22323 0.4995 0.33925 0.0
C5112 C 0.27561 0.53285 0.38077 0.0
C5113 C 0.27217 0.5386 0.39579 0.0
C5114 C 0.26631 0.52116 0.37394 0.0
C5115 C 0.25332 0.51493 0.38195 0.0
C5116 C 0.25036 0.52021 0.39726 0.0
C5117 C 0.25966 0.53185 0.40408 0.0
C5118 C 0.22267 0.48303 0.37553 0.0
C5119 C 0.21819 0.48571 0.35993 0.0
C5120 C 0.23452 0.49201 0.38249 0.0
C5121 C 0.24217 0.50394 0.37406 0.0
C5122 C 0.23815 0.50607 0.35824 0.0
C5123 C 0.22636 0.49707 0.35128 0.0
H5124 H 0.21168 0.53916 0.12333 0.0
H5125 H 0.21912 0.51402 0.16648 0.0
H5126 H 0.23163 0.5232 0.11062 0.0
H5127 H 0.23863 0.4978 0.15373 0.0
H5128 H 0.27866 0.47409 0.12938 0.0
H5129 H 0.26366 0.49498 0.14183 0.0
H5130 H 0.23325 0.49696 0.10154 0.0
H5131 H 0.24845 0.47652 0.089 0.0
C5132 C 0.21771 0.53038 0.13017 0.0
C5133 C 0.21369 0.52783 0.14591 0.0
C5134 C 0.22908 0.52111 0.12284 0.0
C5135 C 0.23667 0.50901 0.13105 0.0
C5136 C 0.2332 0.50705 0.14702 0.0
C5137 C 0.2219 0.51635 0.15435 0.0
C5138 C 0.26893 0.47918 0.12309 0.0
C5139 C 0.26473 0.47355 0.10821 0.0
C5140 C 0.26024 0.4911 0.13027 0.0
C5141 C 0.24712 0.49766 0.12278 0.0
C5142 C 0.24336 0.49241 0.10764 0.0
C5143 C 0.25205 0.48056 0.10046 0.0
H5144 H 0.2993 0.5232 0.88862 0.0
H5145 H 0.28066 0.51531 0.84245 0.0
H5146 H 0.27966 0.50585 0.89961 0.0
H5147 H 0.26018 0.49886 0.85342 0.0
H5148 H 0.2385 0.45472 0.87417 0.0
H5149 H 0.25536 0.47465 0.86301 0.0
H5150 H 0.25505 0.49947 0.90714 0.0
H5151 H 0.23911 0.47877 0.91848 0.0
C5152 C 0.29068 0.51809 0.88086 0.0
C5153 C 0.29159 0.52058 0.86466 0.0
C5154 C 0.27928 0.50812 0.88718 0.0
C5155 C 0.2682 0.50063 0.87749 0.0
C5156 C 0.26867 0.5039 0.86132 0.0
C5157 C 0.28033 0.51354 0.85499 0.0
C5158 C 0.24191 0.46454 0.88142 0.0
C5159 C 0.23751 0.46511 0.89723 0.0
C5160 C 0.25157 0.47612 0.87499 0.0
C5161 C 0.25684 0.48887 0.88408 0.0
C5162 C 0.25173 0.48975 0.89975 0.0
C5163 C 0.24239 0.47793 0.90627 0.0
H5164 H 0.24683 0.53611 0.59316 0.0
H5165 H 0.22045 0.53968 0.63606 0.0
H5166 H 0.26307 0.51591 0.60474 0.0
H5167 H 0.23652 0.51908 0.64761 0.0
H5168 H 0.28354 0.50155 0.66856 0.0
H5169 H 0.26283 0.51721 0.65706 0.0
H5170 H 0.26562 0.48984 0.61467 0.0
H5171 H 0.28671 0.47436 0.62612 0.0
C5172 C 0.24426 0.53235 0.60497 0.0
C5173 C 0.23238 0.53964 0.6137 0.0
C5174 C 0.25356 0.52064 0.61162 0.0
C5175 C 0.25125 0.51587 0.6272 0.0
C5176 C 0.23883 0.52262 0.63567 0.0
C5177 C 0.22952 0.53435 0.62901 0.0
C5178 C 0.2796 0.49868 0.65687 0.0
C5179 C 0.28692 0.48675 0.64823 0.0
C5180 C 0.2676 0.50764 0.65028 0.0
C5181 C 0.26255 0.50492 0.63485 0.0
C5182 C 0.26936 0.49246 0.62648 0.0
C5183 C 0.28139 0.48349 0.63309 0.0
loop_
_geom_bond_atom_site_label_1
_geom_bond_atom_site_label_2
_geom_bond_distance
_geom_bond_site_symmetry_2
_ccdc_geom_bond_type
O0 Cd1 2.223 . S
O0 C8 1.315 . S
Cd1 O0 2.223 . S
Cd1 O4 2.297 . S
Cd1 O5 2.439 . S
Cd1 O11 2.240 . S
Cd2 O3 2.240 . S
Cd2 O10 2.223 . S
Cd2 O12 2.297 . S
Cd2 O13 2.439 . S
O3 Cd2 2.240 . S
O3 C8 1.279 . S
O4 Cd1 2.297 . S
O4 C6 1.247 . S
O5 Cd1 2.439 . S
O5 C6 1.208 . S
C6 O4 1.247 . S
C6 O5 1.208 . S
C7 O12 1.247 . S
C7 O13 1.208 . S
C8 O0 1.315 . S
C8 O3 1.279 . S
C9 O10 1.315 . S
C9 O11 1.279 . S
O10 Cd2 2.223 . S
O10 C9 1.315 . S
O11 Cd1 2.240 . S
O11 C9 1.279 . S
O12 Cd2 2.297 . S
O12 C7 1.247 . S
O13 Cd2 2.439 . S
O13 C7 1.208 . S
O14 Cd15 2.223 . S
O14 C22 1.315 . S
Cd15 O14 2.223 . S
Cd15 O18 2.297 . S
Cd15 O19 2.439 . S
Cd15 O25 2.240 . S
Cd16 O17 2.240 . S
Cd16 O24 2.223 . S
Cd16 O26 2.297 . S
Cd16 O27 2.439 . S
O17 Cd16 2.240 . S
O17 C22 1.279 . S
O18 Cd15 2.297 . S
O18 C20 1.247 . S
O19 Cd15 2.439 . S
O19 C20 1.208 . S
C20 O18 1.247 . S
C20 O19 1.208 . S
C21 O26 1.247 . S
C21 O27 1.208 . S
C22 O14 1.315 . S
C22 O17 1.279 . S
C23 O24 1.315 . S
C23 O25 1.279 . S
O24 Cd16 2.223 . S
O24 C23 1.315 . S
O25 Cd15 2.240 . S
O25 C23 1.279 . S
O26 Cd16 2.297 . S
O26 C21 1.247 . S
O27 Cd16 2.439 . S
O27 C21 1.208 . S
O28 Cd29 2.223 . S
O28 C36 1.315 . S
Cd29 O28 2.223 . S
Cd29 O32 2.297 . S
Cd29 O33 2.439 . S
Cd29 O39 2.240 . S
Cd30 O31 2.240 . S
Cd30 O38 2.223 . S
Cd30 O40 2.297 . S
Cd30 O41 2.439 . S
O31 Cd30 2.240 . S
O31 C36 1.279 . S
O32 Cd29 2.297 . S
O32 C34 1.247 . S
O33 Cd29 2.439 . S
O33 C34 1.208 . S
C34 O32 1.247 . S
C34 O33 1.208 . S
C35 O40 1.247 . S
C35 O41 1.208 . S
C36 O28 1.315 . S
C36 O31 1.279 . S
C37 O38 1.315 . S
C37 O39 1.279 . S
O38 Cd30 2.223 . S
O38 C37 1.315 . S
O39 Cd29 2.240 . S
O39 C37 1.279 . S
O40 Cd30 2.297 . S
O40 C35 1.247 . S
O41 Cd30 2.439 . S
O41 C35 1.208 . S
O42 Cd43 2.223 . S
O42 C50 1.315 . S
Cd43 O42 2.223 . S
Cd43 O46 2.297 . S
Cd43 O47 2.439 . S
Cd43 O53 2.240 . S
Cd44 O45 2.240 . S
Cd44 O52 2.223 . S
Cd44 O54 2.297 . S
Cd44 O55 2.439 . S
O45 Cd44 2.240 . S
O45 C50 1.279 . S
O46 Cd43 2.297 . S
O46 C48 1.247 . S
O47 Cd43 2.439 . S
O47 C48 1.208 . S
C48 O46 1.247 . S
C48 O47 1.208 . S
C49 O54 1.247 . S
C49 O55 1.208 . S
C50 O42 1.315 . S
C50 O45 1.279 . S
C51 O52 1.315 . S
C51 O53 1.279 . S
O52 Cd44 2.223 . S
O52 C51 1.315 . S
O53 Cd43 2.240 . S
O53 C51 1.279 . S
O54 Cd44 2.297 . S
O54 C49 1.247 . S
O55 Cd44 2.439 . S
O55 C49 1.208 . S
O56 Cd57 2.223 . S
O56 C64 1.315 . S
Cd57 O56 2.223 . S
Cd57 O60 2.297 . S
Cd57 O61 2.439 . S
Cd57 O67 2.240 . S
Cd58 O59 2.240 . S
Cd58 O66 2.223 . S
Cd58 O68 2.297 . S
Cd58 O69 2.439 . S
O59 Cd58 2.240 . S
O59 C64 1.279 . S
O60 Cd57 2.297 . S
O60 C62 1.247 . S
O61 Cd57 2.439 . S
O61 C62 1.208 . S
C62 O60 1.247 . S
C62 O61 1.208 . S
C63 O68 1.247 . S
C63 O69 1.208 . S
C64 O56 1.315 . S
C64 O59 1.279 . S
C65 O66 1.315 . S
C65 O67 1.279 . S
O66 Cd58 2.223 . S
O66 C65 1.315 . S
O67 Cd57 2.240 . S
O67 C65 1.279 . S
O68 Cd58 2.297 . S
O68 C63 1.247 . S
O69 Cd58 2.439 . S
O69 C63 1.208 . S
O70 Cd71 2.223 . S
O70 C78 1.315 . S
Cd71 O70 2.223 . S
Cd71 O74 2.297 . S
Cd71 O75 2.439 . S
Cd71 O81 2.240 . S
Cd72 O73 2.240 . S
Cd72 O80 2.223 . S
Cd72 O82 2.297 . S
Cd72 O83 2.439 . S
O73 Cd72 2.240 . S
O73 C78 1.279 . S
O74 Cd71 2.297 . S
O74 C76 1.247 . S
O75 Cd71 2.439 . S
O75 C76 1.208 . S
C76 O74 1.247 . S
C76 O75 1.208 . S
C77 O82 1.247 . S
C77 O83 1.208 . S
C78 O70 1.315 . S
C78 O73 1.279 . S
C79 O80 1.315 . S
C79 O81 1.279 . S
O80 Cd72 2.223 . S
O80 C79 1.315 . S
O81 Cd71 2.240 . S
O81 C79 1.279 . S
O82 Cd72 2.297 . S
O82 C77 1.247 . S
O83 Cd72 2.439 . S
O83 C77 1.208 . S
O84 Cd85 2.223 . S
O84 C92 1.315 . S
Cd85 O84 2.223 . S
Cd85 O88 2.297 . S
Cd85 O89 2.439 . S
Cd85 O95 2.240 . S
Cd86 O87 2.240 . S
Cd86 O94 2.223 . S
Cd86 O96 2.297 . S
Cd86 O97 2.439 . S
O87 Cd86 2.240 . S
O87 C92 1.279 . S
O88 Cd85 2.297 . S
O88 C90 1.247 . S
O89 Cd85 2.439 . S
O89 C90 1.208 . S
C90 O88 1.247 . S
C90 O89 1.208 . S
C91 O96 1.247 . S
C91 O97 1.208 . S
C92 O84 1.315 . S
C92 O87 1.279 . S
C93 O94 1.315 . S
C93 O95 1.279 . S
O94 Cd86 2.223 . S
O94 C93 1.315 . S
O95 Cd85 2.240 . S
O95 C93 1.279 . S
O96 Cd86 2.297 . S
O96 C91 1.247 . S
O97 Cd86 2.439 . S
O97 C91 1.208 . S
O98 Cd99 2.223 . S
O98 C106 1.315 . S
Cd99 O98 2.223 . S
Cd99 O102 2.297 . S
Cd99 O103 2.439 . S
Cd99 O109 2.240 . S
Cd100 O101 2.240 . S
Cd100 O108 2.223 . S
Cd100 O110 2.297 . S
Cd100 O111 2.439 . S
O101 Cd100 2.240 . S
O101 C106 1.279 . S
O102 Cd99 2.297 . S
O102 C104 1.247 . S
O103 Cd99 2.439 . S
O103 C104 1.208 . S
C104 O102 1.247 . S
C104 O103 1.208 . S
C105 O110 1.247 . S
C105 O111 1.208 . S
C106 O98 1.315 . S
C106 O101 1.279 . S
C107 O108 1.315 . S
C107 O109 1.279 . S
O108 Cd100 2.223 . S
O108 C107 1.315 . S
O109 Cd99 2.240 . S
O109 C107 1.279 . S
O110 Cd100 2.297 . S
O110 C105 1.247 . S
O111 Cd100 2.439 . S
O111 C105 1.208 . S
O112 Cd113 2.223 . S
O112 C120 1.315 . S
Cd113 O112 2.223 . S
Cd113 O116 2.297 . S
Cd113 O117 2.439 . S
Cd113 O123 2.240 . S
Cd114 O115 2.240 . S
Cd114 O122 2.223 . S
Cd114 O124 2.297 . S
Cd114 O125 2.439 . S
O115 Cd114 2.240 . S
O115 C120 1.279 . S
O116 Cd113 2.297 . S
O116 C118 1.247 . S
O117 Cd113 2.439 . S
O117 C118 1.208 . S
C118 O116 1.247 . S
C118 O117 1.208 . S
C119 O124 1.247 . S
C119 O125 1.208 . S
C120 O112 1.315 . S
C120 O115 1.279 . S
C121 O122 1.315 . S
C121 O123 1.279 . S
O122 Cd114 2.223 . S
O122 C121 1.315 . S
O123 Cd113 2.240 . S
O123 C121 1.279 . S
O124 Cd114 2.297 . S
O124 C119 1.247 . S
O125 Cd114 2.439 . S
O125 C119 1.208 . S
O126 Cd127 2.223 . S
O126 C134 1.315 . S
Cd127 O126 2.223 . S
Cd127 O130 2.297 . S
Cd127 O131 2.439 . S
Cd127 O137 2.240 . S
Cd128 O129 2.240 . S
Cd128 O136 2.223 . S
Cd128 O138 2.297 . S
Cd128 O139 2.439 . S
O129 Cd128 2.240 . S
O129 C134 1.279 . S
O130 Cd127 2.297 . S
O130 C132 1.247 . S
O131 Cd127 2.439 . S
O131 C132 1.208 . S
C132 O130 1.247 . S
C132 O131 1.208 . S
C133 O138 1.247 . S
C133 O139 1.208 . S
C134 O126 1.315 . S
C134 O129 1.279 . S
C135 O136 1.315 . S
C135 O137 1.279 . S
O136 Cd128 2.223 . S
O136 C135 1.315 . S
O137 Cd127 2.240 . S
O137 C135 1.279 . S
O138 Cd128 2.297 . S
O138 C133 1.247 . S
O139 Cd128 2.439 . S
O139 C133 1.208 . S
O140 Cd141 2.223 . S
O140 C148 1.315 . S
Cd141 O140 2.223 . S
Cd141 O144 2.297 . S
Cd141 O145 2.439 . S
Cd141 O151 2.240 . S
Cd142 O143 2.240 . S
Cd142 O150 2.223 . S
Cd142 O152 2.297 . S
Cd142 O153 2.439 . S
O143 Cd142 2.240 . S
O143 C148 1.279 . S
O144 Cd141 2.297 . S
O144 C146 1.247 . S
O145 Cd141 2.439 . S
O145 C146 1.208 . S
C146 O144 1.247 . S
C146 O145 1.208 . S
C147 O152 1.247 . S
C147 O153 1.208 . S
C148 O140 1.315 . S
C148 O143 1.279 . S
C149 O150 1.315 . S
C149 O151 1.279 . S
O150 Cd142 2.223 . S
O150 C149 1.315 . S
O151 Cd141 2.240 . S
O151 C149 1.279 . S
O152 Cd142 2.297 . S
O152 C147 1.247 . S
O153 Cd142 2.439 . S
O153 C147 1.208 . S
O154 Cd155 2.223 . S
O154 C162 1.315 . S
Cd155 O154 2.223 . S
Cd155 O158 2.297 . S
Cd155 O159 2.439 . S
Cd155 O165 2.240 . S
Cd156 O157 2.240 . S
Cd156 O164 2.223 . S
Cd156 O166 2.297 . S
Cd156 O167 2.439 . S
O157 Cd156 2.240 . S
O157 C162 1.279 . S
O158 Cd155 2.297 . S
O158 C160 1.247 . S
O159 Cd155 2.439 . S
O159 C160 1.208 . S
C160 O158 1.247 . S
C160 O159 1.208 . S
C161 O166 1.247 . S
C161 O167 1.208 . S
C162 O154 1.315 . S
C162 O157 1.279 . S
C163 O164 1.315 . S
C163 O165 1.279 . S
O164 Cd156 2.223 . S
O164 C163 1.315 . S
O165 Cd155 2.240 . S
O165 C163 1.279 . S
O166 Cd156 2.297 . S
O166 C161 1.247 . S
O167 Cd156 2.439 . S
O167 C161 1.208 . S
O168 Cd169 2.223 . S
O168 C176 1.315 . S
Cd169 O168 2.223 . S
Cd169 O172 2.297 . S
Cd169 O173 2.439 . S
Cd169 O179 2.240 . S
Cd170 O171 2.240 . S
Cd170 O178 2.223 . S
Cd170 O180 2.297 . S
Cd170 O181 2.439 . S
O171 Cd170 2.240 . S
O171 C176 1.279 . S
O172 Cd169 2.297 . S
O172 C174 1.247 . S
O173 Cd169 2.439 . S
O173 C174 1.208 . S
C174 O172 1.247 . S
C174 O173 1.208 . S
C175 O180 1.247 . S
C175 O181 1.208 . S
C176 O168 1.315 . S
C176 O171 1.279 . S
C177 O178 1.315 . S
C177 O179 1.279 . S
O178 Cd170 2.223 . S
O178 C177 1.315 . S
O179 Cd169 2.240 . S
O179 C177 1.279 . S
O180 Cd170 2.297 . S
O180 C175 1.247 . S
O181 Cd170 2.439 . S
O181 C175 1.208 . S
O182 Cd183 2.223 . S
O182 C190 1.315 . S
Cd183 O182 2.223 . S
Cd183 O186 2.297 . S
Cd183 O187 2.439 . S
Cd183 O193 2.240 . S
Cd184 O185 2.240 . S
Cd184 O192 2.223 . S
Cd184 O194 2.297 . S
Cd184 O195 2.439 . S
O185 Cd184 2.240 . S
O185 C190 1.279 . S
O186 Cd183 2.297 . S
O186 C188 1.247 . S
O187 Cd183 2.439 . S
O187 C188 1.208 . S
C188 O186 1.247 . S
C188 O187 1.208 . S
C189 O194 1.247 . S
C189 O195 1.208 . S
C190 O182 1.315 . S
C190 O185 1.279 . S
C191 O192 1.315 . S
C191 O193 1.279 . S
O192 Cd184 2.223 . S
O192 C191 1.315 . S
O193 Cd183 2.240 . S
O193 C191 1.279 . S
O194 Cd184 2.297 . S
O194 C189 1.247 . S
O195 Cd184 2.439 . S
O195 C189 1.208 . S
O196 Cd197 2.223 . S
O196 C204 1.315 . S
Cd197 O196 2.223 . S
Cd197 O200 2.297 . S
Cd197 O201 2.439 . S
Cd197 O207 2.240 . S
Cd198 O199 2.240 . S
Cd198 O206 2.223 . S
Cd198 O208 2.297 . S
Cd198 O209 2.439 . S
O199 Cd198 2.240 . S
O199 C204 1.279 . S
O200 Cd197 2.297 . S
O200 C202 1.247 . S
O201 Cd197 2.439 . S
O201 C202 1.208 . S
C202 O200 1.247 . S
C202 O201 1.208 . S
C203 O208 1.247 . S
C203 O209 1.208 . S
C204 O196 1.315 . S
C204 O199 1.279 . S
C205 O206 1.315 . S
C205 O207 1.279 . S
O206 Cd198 2.223 . S
O206 C205 1.315 . S
O207 Cd197 2.240 . S
O207 C205 1.279 . S
O208 Cd198 2.297 . S
O208 C203 1.247 . S
O209 Cd198 2.439 . S
O209 C203 1.208 . S
O210 Cd211 2.223 . S
O210 C218 1.315 . S
Cd211 O210 2.223 . S
Cd211 O214 2.297 . S
Cd211 O215 2.439 . S
Cd211 O221 2.240 . S
Cd212 O213 2.240 . S
Cd212 O220 2.223 . S
Cd212 O222 2.297 . S
Cd212 O223 2.439 . S
O213 Cd212 2.240 . S
O213 C218 1.279 . S
O214 Cd211 2.297 . S
O214 C216 1.247 . S
O215 Cd211 2.439 . S
O215 C216 1.208 . S
C216 O214 1.247 . S
C216 O215 1.208 . S
C217 O222 1.247 . S
C217 O223 1.208 . S
C218 O210 1.315 . S
C218 O213 1.279 . S
C219 O220 1.315 . S
C219 O221 1.279 . S
O220 Cd212 2.223 . S
O220 C219 1.315 . S
O221 Cd211 2.240 . S
O221 C219 1.279 . S
O222 Cd212 2.297 . S
O222 C217 1.247 . S
O223 Cd212 2.439 . S
O223 C217 1.208 . S
O224 Cd225 2.223 . S
O224 C232 1.315 . S
Cd225 O224 2.223 . S
Cd225 O228 2.297 . S
Cd225 O229 2.439 . S
Cd225 O235 2.240 . S
Cd226 O227 2.240 . S
Cd226 O234 2.223 . S
Cd226 O236 2.297 . S
Cd226 O237 2.439 . S
O227 Cd226 2.240 . S
O227 C232 1.279 . S
O228 Cd225 2.297 . S
O228 C230 1.247 . S
O229 Cd225 2.439 . S
O229 C230 1.208 . S
C230 O228 1.247 . S
C230 O229 1.208 . S
C231 O236 1.247 . S
C231 O237 1.208 . S
C232 O224 1.315 . S
C232 O227 1.279 . S
C233 O234 1.315 . S
C233 O235 1.279 . S
O234 Cd226 2.223 . S
O234 C233 1.315 . S
O235 Cd225 2.240 . S
O235 C233 1.279 . S
O236 Cd226 2.297 . S
O236 C231 1.247 . S
O237 Cd226 2.439 . S
O237 C231 1.208 . S
O238 Cd239 2.223 . S
O238 C246 1.315 . S
Cd239 O238 2.223 . S
Cd239 O242 2.297 . S
Cd239 O243 2.439 . S
Cd239 O249 2.240 . S
Cd240 O241 2.240 . S
Cd240 O248 2.223 . S
Cd240 O250 2.297 . S
Cd240 O251 2.439 . S
O241 Cd240 2.240 . S
O241 C246 1.279 . S
O242 Cd239 2.297 . S
O242 C244 1.247 . S
O243 Cd239 2.439 . S
O243 C244 1.208 . S
C244 O242 1.247 . S
C244 O243 1.208 . S
C245 O250 1.247 . S
C245 O251 1.208 . S
C246 O238 1.315 . S
C246 O241 1.279 . S
C247 O248 1.315 . S
C247 O249 1.279 . S
O248 Cd240 2.223 . S
O248 C247 1.315 . S
O249 Cd239 2.240 . S
O249 C247 1.279 . S
O250 Cd240 2.297 . S
O250 C245 1.247 . S
O251 Cd240 2.439 . S
O251 C245 1.208 . S
O252 Cd253 2.223 . S
O252 C260 1.315 . S
Cd253 O252 2.223 . S
Cd253 O256 2.297 . S
Cd253 O257 2.439 . S
Cd253 O263 2.240 . S
Cd254 O255 2.240 . S
Cd254 O262 2.223 . S
Cd254 O264 2.297 . S
Cd254 O265 2.439 . S
O255 Cd254 2.240 . S
O255 C260 1.279 . S
O256 Cd253 2.297 . S
O256 C258 1.247 . S
O257 Cd253 2.439 . S
O257 C258 1.208 . S
C258 O256 1.247 . S
C258 O257 1.208 . S
C259 O264 1.247 . S
C259 O265 1.208 . S
C260 O252 1.315 . S
C260 O255 1.279 . S
C261 O262 1.315 . S
C261 O263 1.279 . S
O262 Cd254 2.223 . S
O262 C261 1.315 . S
O263 Cd253 2.240 . S
O263 C261 1.279 . S
O264 Cd254 2.297 . S
O264 C259 1.247 . S
O265 Cd254 2.439 . S
O265 C259 1.208 . S
O266 Cd267 2.223 . S
O266 C274 1.315 . S
Cd267 O266 2.223 . S
Cd267 O270 2.297 . S
Cd267 O271 2.439 . S
Cd267 O277 2.240 . S
Cd268 O269 2.240 . S
Cd268 O276 2.223 . S
Cd268 O278 2.297 . S
Cd268 O279 2.439 . S
O269 Cd268 2.240 . S
O269 C274 1.279 . S
O270 Cd267 2.297 . S
O270 C272 1.247 . S
O271 Cd267 2.439 . S
O271 C272 1.208 . S
C272 O270 1.247 . S
C272 O271 1.208 . S
C273 O278 1.247 . S
C273 O279 1.208 . S
C274 O266 1.315 . S
C274 O269 1.279 . S
C275 O276 1.315 . S
C275 O277 1.279 . S
O276 Cd268 2.223 . S
O276 C275 1.315 . S
O277 Cd267 2.240 . S
O277 C275 1.279 . S
O278 Cd268 2.297 . S
O278 C273 1.247 . S
O279 Cd268 2.439 . S
O279 C273 1.208 . S
O280 Cd281 2.223 . S
O280 C288 1.315 . S
Cd281 O280 2.223 . S
Cd281 O284 2.297 . S
Cd281 O285 2.439 . S
Cd281 O291 2.240 . S
Cd282 O283 2.240 . S
Cd282 O290 2.223 . S
Cd282 O292 2.297 . S
Cd282 O293 2.439 . S
O283 Cd282 2.240 . S
O283 C288 1.279 . S
O284 Cd281 2.297 . S
O284 C286 1.247 . S
O285 Cd281 2.439 . S
O285 C286 1.208 . S
C286 O284 1.247 . S
C286 O285 1.208 . S
C287 O292 1.247 . S
C287 O293 1.208 . S
C288 O280 1.315 . S
C288 O283 1.279 . S
C289 O290 1.315 . S
C289 O291 1.279 . S
O290 Cd282 2.223 . S
O290 C289 1.315 . S
O291 Cd281 2.240 . S
O291 C289 1.279 . S
O292 Cd282 2.297 . S
O292 C287 1.247 . S
O293 Cd282 2.439 . S
O293 C287 1.208 . S
O294 Cd295 2.223 . S
O294 C302 1.315 . S
Cd295 O294 2.223 . S
Cd295 O298 2.297 . S
Cd295 O299 2.439 . S
Cd295 O305 2.240 . S
Cd296 O297 2.240 . S
Cd296 O304 2.223 . S
Cd296 O306 2.297 . S
Cd296 O307 2.439 . S
O297 Cd296 2.240 . S
O297 C302 1.279 . S
O298 Cd295 2.297 . S
O298 C300 1.247 . S
O299 Cd295 2.439 . S
O299 C300 1.208 . S
C300 O298 1.247 . S
C300 O299 1.208 . S
C301 O306 1.247 . S
C301 O307 1.208 . S
C302 O294 1.315 . S
C302 O297 1.279 . S
C303 O304 1.315 . S
C303 O305 1.279 . S
O304 Cd296 2.223 . S
O304 C303 1.315 . S
O305 Cd295 2.240 . S
O305 C303 1.279 . S
O306 Cd296 2.297 . S
O306 C301 1.247 . S
O307 Cd296 2.439 . S
O307 C301 1.208 . S
O308 Cd309 2.223 . S
O308 C316 1.315 . S
Cd309 O308 2.223 . S
Cd309 O312 2.297 . S
Cd309 O313 2.439 . S
Cd309 O319 2.240 . S
Cd310 O311 2.240 . S
Cd310 O318 2.223 . S
Cd310 O320 2.297 . S
Cd310 O321 2.439 . S
O311 Cd310 2.240 . S
O311 C316 1.279 . S
O312 Cd309 2.297 . S
O312 C314 1.247 . S
O313 Cd309 2.439 . S
O313 C314 1.208 . S
C314 O312 1.247 . S
C314 O313 1.208 . S
C315 O320 1.247 . S
C315 O321 1.208 . S
C316 O308 1.315 . S
C316 O311 1.279 . S
C317 O318 1.315 . S
C317 O319 1.279 . S
O318 Cd310 2.223 . S
O318 C317 1.315 . S
O319 Cd309 2.240 . S
O319 C317 1.279 . S
O320 Cd310 2.297 . S
O320 C315 1.247 . S
O321 Cd310 2.439 . S
O321 C315 1.208 . S
O322 Cd323 2.223 . S
O322 C330 1.315 . S
Cd323 O322 2.223 . S
Cd323 O326 2.297 . S
Cd323 O327 2.439 . S
Cd323 O333 2.240 . S
Cd324 O325 2.240 . S
Cd324 O332 2.223 . S
Cd324 O334 2.297 . S
Cd324 O335 2.439 . S
O325 Cd324 2.240 . S
O325 C330 1.279 . S
O326 Cd323 2.297 . S
O326 C328 1.247 . S
O327 Cd323 2.439 . S
O327 C328 1.208 . S
C328 O326 1.247 . S
C328 O327 1.208 . S
C329 O334 1.247 . S
C329 O335 1.208 . S
C330 O322 1.315 . S
C330 O325 1.279 . S
C331 O332 1.315 . S
C331 O333 1.279 . S
O332 Cd324 2.223 . S
O332 C331 1.315 . S
O333 Cd323 2.240 . S
O333 C331 1.279 . S
O334 Cd324 2.297 . S
O334 C329 1.247 . S
O335 Cd324 2.439 . S
O335 C329 1.208 . S
O336 Cd337 2.223 . S
O336 C344 1.315 . S
Cd337 O336 2.223 . S
Cd337 O340 2.297 . S
Cd337 O341 2.439 . S
Cd337 O347 2.240 . S
Cd338 O339 2.240 . S
Cd338 O346 2.223 . S
Cd338 O348 2.297 . S
Cd338 O349 2.439 . S
O339 Cd338 2.240 . S
O339 C344 1.279 . S
O340 Cd337 2.297 . S
O340 C342 1.247 . S
O341 Cd337 2.439 . S
O341 C342 1.208 . S
C342 O340 1.247 . S
C342 O341 1.208 . S
C343 O348 1.247 . S
C343 O349 1.208 . S
C344 O336 1.315 . S
C344 O339 1.279 . S
C345 O346 1.315 . S
C345 O347 1.279 . S
O346 Cd338 2.223 . S
O346 C345 1.315 . S
O347 Cd337 2.240 . S
O347 C345 1.279 . S
O348 Cd338 2.297 . S
O348 C343 1.247 . S
O349 Cd338 2.439 . S
O349 C343 1.208 . S
O350 Cd351 2.223 . S
O350 C358 1.315 . S
Cd351 O350 2.223 . S
Cd351 O354 2.297 . S
Cd351 O355 2.439 . S
Cd351 O361 2.240 . S
Cd352 O353 2.240 . S
Cd352 O360 2.223 . S
Cd352 O362 2.297 . S
Cd352 O363 2.439 . S
O353 Cd352 2.240 . S
O353 C358 1.279 . S
O354 Cd351 2.297 . S
O354 C356 1.247 . S
O355 Cd351 2.439 . S
O355 C356 1.208 . S
C356 O354 1.247 . S
C356 O355 1.208 . S
C357 O362 1.247 . S
C357 O363 1.208 . S
C358 O350 1.315 . S
C358 O353 1.279 . S
C359 O360 1.315 . S
C359 O361 1.279 . S
O360 Cd352 2.223 . S
O360 C359 1.315 . S
O361 Cd351 2.240 . S
O361 C359 1.279 . S
O362 Cd352 2.297 . S
O362 C357 1.247 . S
O363 Cd352 2.439 . S
O363 C357 1.208 . S
O364 Cd365 2.223 . S
O364 C372 1.315 . S
Cd365 O364 2.223 . S
Cd365 O368 2.297 . S
Cd365 O369 2.439 . S
Cd365 O375 2.240 . S
Cd366 O367 2.240 . S
Cd366 O374 2.223 . S
Cd366 O376 2.297 . S
Cd366 O377 2.439 . S
O367 Cd366 2.240 . S
O367 C372 1.279 . S
O368 Cd365 2.297 . S
O368 C370 1.247 . S
O369 Cd365 2.439 . S
O369 C370 1.208 . S
C370 O368 1.247 . S
C370 O369 1.208 . S
C371 O376 1.247 . S
C371 O377 1.208 . S
C372 O364 1.315 . S
C372 O367 1.279 . S
C373 O374 1.315 . S
C373 O375 1.279 . S
O374 Cd366 2.223 . S
O374 C373 1.315 . S
O375 Cd365 2.240 . S
O375 C373 1.279 . S
O376 Cd366 2.297 . S
O376 C371 1.247 . S
O377 Cd366 2.439 . S
O377 C371 1.208 . S
O378 Cd379 2.223 . S
O378 C386 1.315 . S
Cd379 O378 2.223 . S
Cd379 O382 2.297 . S
Cd379 O383 2.439 . S
Cd379 O389 2.240 . S
Cd380 O381 2.240 . S
Cd380 O388 2.223 . S
Cd380 O390 2.297 . S
Cd380 O391 2.439 . S
O381 Cd380 2.240 . S
O381 C386 1.279 . S
O382 Cd379 2.297 . S
O382 C384 1.247 . S
O383 Cd379 2.439 . S
O383 C384 1.208 . S
C384 O382 1.247 . S
C384 O383 1.208 . S
C385 O390 1.247 . S
C385 O391 1.208 . S
C386 O378 1.315 . S
C386 O381 1.279 . S
C387 O388 1.315 . S
C387 O389 1.279 . S
O388 Cd380 2.223 . S
O388 C387 1.315 . S
O389 Cd379 2.240 . S
O389 C387 1.279 . S
O390 Cd380 2.297 . S
O390 C385 1.247 . S
O391 Cd380 2.439 . S
O391 C385 1.208 . S
O392 Cd393 2.223 . S
O392 C400 1.315 . S
Cd393 O392 2.223 . S
Cd393 O396 2.297 . S
Cd393 O397 2.439 . S
Cd393 O403 2.240 . S
Cd394 O395 2.240 . S
Cd394 O402 2.223 . S
Cd394 O404 2.297 . S
Cd394 O405 2.439 . S
O395 Cd394 2.240 . S
O395 C400 1.279 . S
O396 Cd393 2.297 . S
O396 C398 1.247 . S
O397 Cd393 2.439 . S
O397 C398 1.208 . S
C398 O396 1.247 . S
C398 O397 1.208 . S
C399 O404 1.247 . S
C399 O405 1.208 . S
C400 O392 1.315 . S
C400 O395 1.279 . S
C401 O402 1.315 . S
C401 O403 1.279 . S
O402 Cd394 2.223 . S
O402 C401 1.315 . S
O403 Cd393 2.240 . S
O403 C401 1.279 . S
O404 Cd394 2.297 . S
O404 C399 1.247 . S
O405 Cd394 2.439 . S
O405 C399 1.208 . S
O406 Cd407 2.223 . S
O406 C414 1.315 . S
Cd407 O406 2.223 . S
Cd407 O410 2.297 . S
Cd407 O411 2.439 . S
Cd407 O417 2.240 . S
Cd408 O409 2.240 . S
Cd408 O416 2.223 . S
Cd408 O418 2.297 . S
Cd408 O419 2.439 . S
O409 Cd408 2.240 . S
O409 C414 1.279 . S
O410 Cd407 2.297 . S
O410 C412 1.247 . S
O411 Cd407 2.439 . S
O411 C412 1.208 . S
C412 O410 1.247 . S
C412 O411 1.208 . S
C413 O418 1.247 . S
C413 O419 1.208 . S
C414 O406 1.315 . S
C414 O409 1.279 . S
C415 O416 1.315 . S
C415 O417 1.279 . S
O416 Cd408 2.223 . S
O416 C415 1.315 . S
O417 Cd407 2.240 . S
O417 C415 1.279 . S
O418 Cd408 2.297 . S
O418 C413 1.247 . S
O419 Cd408 2.439 . S
O419 C413 1.208 . S
O420 Cd421 2.223 . S
O420 C428 1.315 . S
Cd421 O420 2.223 . S
Cd421 O424 2.297 . S
Cd421 O425 2.439 . S
Cd421 O431 2.240 . S
Cd422 O423 2.240 . S
Cd422 O430 2.223 . S
Cd422 O432 2.297 . S
Cd422 O433 2.439 . S
O423 Cd422 2.240 . S
O423 C428 1.279 . S
O424 Cd421 2.297 . S
O424 C426 1.247 . S
O425 Cd421 2.439 . S
O425 C426 1.208 . S
C426 O424 1.247 . S
C426 O425 1.208 . S
C427 O432 1.247 . S
C427 O433 1.208 . S
C428 O420 1.315 . S
C428 O423 1.279 . S
C429 O430 1.315 . S
C429 O431 1.279 . S
O430 Cd422 2.223 . S
O430 C429 1.315 . S
O431 Cd421 2.240 . S
O431 C429 1.279 . S
O432 Cd422 2.297 . S
O432 C427 1.247 . S
O433 Cd422 2.439 . S
O433 C427 1.208 . S
O434 Cd435 2.223 . S
O434 C442 1.315 . S
Cd435 O434 2.223 . S
Cd435 O438 2.297 . S
Cd435 O439 2.439 . S
Cd435 O445 2.240 . S
Cd436 O437 2.240 . S
Cd436 O444 2.223 . S
Cd436 O446 2.297 . S
Cd436 O447 2.439 . S
O437 Cd436 2.240 . S
O437 C442 1.279 . S
O438 Cd435 2.297 . S
O438 C440 1.247 . S
O439 Cd435 2.439 . S
O439 C440 1.208 . S
C440 O438 1.247 . S
C440 O439 1.208 . S
C441 O446 1.247 . S
C441 O447 1.208 . S
C442 O434 1.315 . S
C442 O437 1.279 . S
C443 O444 1.315 . S
C443 O445 1.279 . S
O444 Cd436 2.223 . S
O444 C443 1.315 . S
O445 Cd435 2.240 . S
O445 C443 1.279 . S
O446 Cd436 2.297 . S
O446 C441 1.247 . S
O447 Cd436 2.439 . S
O447 C441 1.208 . S
O448 Cd449 2.223 . S
O448 C456 1.315 . S
Cd449 O448 2.223 . S
Cd449 O452 2.297 . S
Cd449 O453 2.439 . S
Cd449 O459 2.240 . S
Cd450 O451 2.240 . S
Cd450 O458 2.223 . S
Cd450 O460 2.297 . S
Cd450 O461 2.439 . S
O451 Cd450 2.240 . S
O451 C456 1.279 . S
O452 Cd449 2.297 . S
O452 C454 1.247 . S
O453 Cd449 2.439 . S
O453 C454 1.208 . S
C454 O452 1.247 . S
C454 O453 1.208 . S
C455 O460 1.247 . S
C455 O461 1.208 . S
C456 O448 1.315 . S
C456 O451 1.279 . S
C457 O458 1.315 . S
C457 O459 1.279 . S
O458 Cd450 2.223 . S
O458 C457 1.315 . S
O459 Cd449 2.240 . S
O459 C457 1.279 . S
O460 Cd450 2.297 . S
O460 C455 1.247 . S
O461 Cd450 2.439 . S
O461 C455 1.208 . S
O462 Cd463 2.223 . S
O462 C470 1.315 . S
Cd463 O462 2.223 . S
Cd463 O466 2.297 . S
Cd463 O467 2.439 . S
Cd463 O473 2.240 . S
Cd464 O465 2.240 . S
Cd464 O472 2.223 . S
Cd464 O474 2.297 . S
Cd464 O475 2.439 . S
O465 Cd464 2.240 . S
O465 C470 1.279 . S
O466 Cd463 2.297 . S
O466 C468 1.247 . S
O467 Cd463 2.439 . S
O467 C468 1.208 . S
C468 O466 1.247 . S
C468 O467 1.208 . S
C469 O474 1.247 . S
C469 O475 1.208 . S
C470 O462 1.315 . S
C470 O465 1.279 . S
C471 O472 1.315 . S
C471 O473 1.279 . S
O472 Cd464 2.223 . S
O472 C471 1.315 . S
O473 Cd463 2.240 . S
O473 C471 1.279 . S
O474 Cd464 2.297 . S
O474 C469 1.247 . S
O475 Cd464 2.439 . S
O475 C469 1.208 . S
O476 Cd477 2.223 . S
O476 C484 1.315 . S
Cd477 O476 2.223 . S
Cd477 O480 2.297 . S
Cd477 O481 2.439 . S
Cd477 O487 2.240 . S
Cd478 O479 2.240 . S
Cd478 O486 2.223 . S
Cd478 O488 2.297 . S
Cd478 O489 2.439 . S
O479 Cd478 2.240 . S
O479 C484 1.279 . S
O480 Cd477 2.297 . S
O480 C482 1.247 . S
O481 Cd477 2.439 . S
O481 C482 1.208 . S
C482 O480 1.247 . S
C482 O481 1.208 . S
C483 O488 1.247 . S
C483 O489 1.208 . S
C484 O476 1.315 . S
C484 O479 1.279 . S
C485 O486 1.315 . S
C485 O487 1.279 . S
O486 Cd478 2.223 . S
O486 C485 1.315 . S
O487 Cd477 2.240 . S
O487 C485 1.279 . S
O488 Cd478 2.297 . S
O488 C483 1.247 . S
O489 Cd478 2.439 . S
O489 C483 1.208 . S
O490 Cd491 2.223 . S
O490 C498 1.315 . S
Cd491 O490 2.223 . S
Cd491 O494 2.297 . S
Cd491 O495 2.439 . S
Cd491 O501 2.240 . S
Cd492 O493 2.240 . S
Cd492 O500 2.223 . S
Cd492 O502 2.297 . S
Cd492 O503 2.439 . S
O493 Cd492 2.240 . S
O493 C498 1.279 . S
O494 Cd491 2.297 . S
O494 C496 1.247 . S
O495 Cd491 2.439 . S
O495 C496 1.208 . S
C496 O494 1.247 . S
C496 O495 1.208 . S
C497 O502 1.247 . S
C497 O503 1.208 . S
C498 O490 1.315 . S
C498 O493 1.279 . S
C499 O500 1.315 . S
C499 O501 1.279 . S
O500 Cd492 2.223 . S
O500 C499 1.315 . S
O501 Cd491 2.240 . S
O501 C499 1.279 . S
O502 Cd492 2.297 . S
O502 C497 1.247 . S
O503 Cd492 2.439 . S
O503 C497 1.208 . S
O504 Cd505 2.223 . S
O504 C512 1.315 . S
Cd505 O504 2.223 . S
Cd505 O508 2.297 . S
Cd505 O509 2.439 . S
Cd505 O515 2.240 . S
Cd506 O507 2.240 . S
Cd506 O514 2.223 . S
Cd506 O516 2.297 . S
Cd506 O517 2.439 . S
O507 Cd506 2.240 . S
O507 C512 1.279 . S
O508 Cd505 2.297 . S
O508 C510 1.247 . S
O509 Cd505 2.439 . S
O509 C510 1.208 . S
C510 O508 1.247 . S
C510 O509 1.208 . S
C511 O516 1.247 . S
C511 O517 1.208 . S
C512 O504 1.315 . S
C512 O507 1.279 . S
C513 O514 1.315 . S
C513 O515 1.279 . S
O514 Cd506 2.223 . S
O514 C513 1.315 . S
O515 Cd505 2.240 . S
O515 C513 1.279 . S
O516 Cd506 2.297 . S
O516 C511 1.247 . S
O517 Cd506 2.439 . S
O517 C511 1.208 . S
O518 Cd519 2.223 . S
O518 C526 1.315 . S
Cd519 O518 2.223 . S
Cd519 O522 2.297 . S
Cd519 O523 2.439 . S
Cd519 O529 2.240 . S
Cd520 O521 2.240 . S
Cd520 O528 2.223 . S
Cd520 O530 2.297 . S
Cd520 O531 2.439 . S
O521 Cd520 2.240 . S
O521 C526 1.279 . S
O522 Cd519 2.297 . S
O522 C524 1.247 . S
O523 Cd519 2.439 . S
O523 C524 1.208 . S
C524 O522 1.247 . S
C524 O523 1.208 . S
C525 O530 1.247 . S
C525 O531 1.208 . S
C526 O518 1.315 . S
C526 O521 1.279 . S
C527 O528 1.315 . S
C527 O529 1.279 . S
O528 Cd520 2.223 . S
O528 C527 1.315 . S
O529 Cd519 2.240 . S
O529 C527 1.279 . S
O530 Cd520 2.297 . S
O530 C525 1.247 . S
O531 Cd520 2.439 . S
O531 C525 1.208 . S
O532 Cd533 2.223 . S
O532 C540 1.315 . S
Cd533 O532 2.223 . S
Cd533 O536 2.297 . S
Cd533 O537 2.439 . S
Cd533 O543 2.240 . S
Cd534 O535 2.240 . S
Cd534 O542 2.223 . S
Cd534 O544 2.297 . S
Cd534 O545 2.439 . S
O535 Cd534 2.240 . S
O535 C540 1.279 . S
O536 Cd533 2.297 . S
O536 C538 1.247 . S
O537 Cd533 2.439 . S
O537 C538 1.208 . S
C538 O536 1.247 . S
C538 O537 1.208 . S
C539 O544 1.247 . S
C539 O545 1.208 . S
C540 O532 1.315 . S
C540 O535 1.279 . S
C541 O542 1.315 . S
C541 O543 1.279 . S
O542 Cd534 2.223 . S
O542 C541 1.315 . S
O543 Cd533 2.240 . S
O543 C541 1.279 . S
O544 Cd534 2.297 . S
O544 C539 1.247 . S
O545 Cd534 2.439 . S
O545 C539 1.208 . S
O546 Cd547 2.223 . S
O546 C554 1.315 . S
Cd547 O546 2.223 . S
Cd547 O550 2.297 . S
Cd547 O551 2.439 . S
Cd547 O557 2.240 . S
Cd548 O549 2.240 . S
Cd548 O556 2.223 . S
Cd548 O558 2.297 . S
Cd548 O559 2.439 . S
O549 Cd548 2.240 . S
O549 C554 1.279 . S
O550 Cd547 2.297 . S
O550 C552 1.247 . S
O551 Cd547 2.439 . S
O551 C552 1.208 . S
C552 O550 1.247 . S
C552 O551 1.208 . S
C553 O558 1.247 . S
C553 O559 1.208 . S
C554 O546 1.315 . S
C554 O549 1.279 . S
C555 O556 1.315 . S
C555 O557 1.279 . S
O556 Cd548 2.223 . S
O556 C555 1.315 . S
O557 Cd547 2.240 . S
O557 C555 1.279 . S
O558 Cd548 2.297 . S
O558 C553 1.247 . S
O559 Cd548 2.439 . S
O559 C553 1.208 . S
O560 Cd561 2.223 . S
O560 C568 1.315 . S
Cd561 O560 2.223 . S
Cd561 O564 2.297 . S
Cd561 O565 2.439 . S
Cd561 O571 2.240 . S
Cd562 O563 2.240 . S
Cd562 O570 2.223 . S
Cd562 O572 2.297 . S
Cd562 O573 2.439 . S
O563 Cd562 2.240 . S
O563 C568 1.279 . S
O564 Cd561 2.297 . S
O564 C566 1.247 . S
O565 Cd561 2.439 . S
O565 C566 1.208 . S
C566 O564 1.247 . S
C566 O565 1.208 . S
C567 O572 1.247 . S
C567 O573 1.208 . S
C568 O560 1.315 . S
C568 O563 1.279 . S
C569 O570 1.315 . S
C569 O571 1.279 . S
O570 Cd562 2.223 . S
O570 C569 1.315 . S
O571 Cd561 2.240 . S
O571 C569 1.279 . S
O572 Cd562 2.297 . S
O572 C567 1.247 . S
O573 Cd562 2.439 . S
O573 C567 1.208 . S
O574 Cd575 2.223 . S
O574 C582 1.315 . S
Cd575 O574 2.223 . S
Cd575 O578 2.297 . S
Cd575 O579 2.439 . S
Cd575 O585 2.240 . S
Cd576 O577 2.240 . S
Cd576 O584 2.223 . S
Cd576 O586 2.297 . S
Cd576 O587 2.439 . S
O577 Cd576 2.240 . S
O577 C582 1.279 . S
O578 Cd575 2.297 . S
O578 C580 1.247 . S
O579 Cd575 2.439 . S
O579 C580 1.208 . S
C580 O578 1.247 . S
C580 O579 1.208 . S
C581 O586 1.247 . S
C581 O587 1.208 . S
C582 O574 1.315 . S
C582 O577 1.279 . S
C583 O584 1.315 . S
C583 O585 1.279 . S
O584 Cd576 2.223 . S
O584 C583 1.315 . S
O585 Cd575 2.240 . S
O585 C583 1.279 . S
O586 Cd576 2.297 . S
O586 C581 1.247 . S
O587 Cd576 2.439 . S
O587 C581 1.208 . S
O588 Cd589 2.223 . S
O588 C596 1.315 . S
Cd589 O588 2.223 . S
Cd589 O592 2.297 . S
Cd589 O593 2.439 . S
Cd589 O599 2.240 . S
Cd590 O591 2.240 . S
Cd590 O598 2.223 . S
Cd590 O600 2.297 . S
Cd590 O601 2.439 . S
O591 Cd590 2.240 . S
O591 C596 1.279 . S
O592 Cd589 2.297 . S
O592 C594 1.247 . S
O593 Cd589 2.439 . S
O593 C594 1.208 . S
C594 O592 1.247 . S
C594 O593 1.208 . S
C595 O600 1.247 . S
C595 O601 1.208 . S
C596 O588 1.315 . S
C596 O591 1.279 . S
C597 O598 1.315 . S
C597 O599 1.279 . S
O598 Cd590 2.223 . S
O598 C597 1.315 . S
O599 Cd589 2.240 . S
O599 C597 1.279 . S
O600 Cd590 2.297 . S
O600 C595 1.247 . S
O601 Cd590 2.439 . S
O601 C595 1.208 . S
O602 Cd603 2.223 . S
O602 C610 1.315 . S
Cd603 O602 2.223 . S
Cd603 O606 2.297 . S
Cd603 O607 2.439 . S
Cd603 O613 2.240 . S
Cd604 O605 2.240 . S
Cd604 O612 2.223 . S
Cd604 O614 2.297 . S
Cd604 O615 2.439 . S
O605 Cd604 2.240 . S
O605 C610 1.279 . S
O606 Cd603 2.297 . S
O606 C608 1.247 . S
O607 Cd603 2.439 . S
O607 C608 1.208 . S
C608 O606 1.247 . S
C608 O607 1.208 . S
C609 O614 1.247 . S
C609 O615 1.208 . S
C610 O602 1.315 . S
C610 O605 1.279 . S
C611 O612 1.315 . S
C611 O613 1.279 . S
O612 Cd604 2.223 . S
O612 C611 1.315 . S
O613 Cd603 2.240 . S
O613 C611 1.279 . S
O614 Cd604 2.297 . S
O614 C609 1.247 . S
O615 Cd604 2.439 . S
O615 C609 1.208 . S
O616 Cd617 2.223 . S
O616 C624 1.315 . S
Cd617 O616 2.223 . S
Cd617 O620 2.297 . S
Cd617 O621 2.439 . S
Cd617 O627 2.240 . S
Cd618 O619 2.240 . S
Cd618 O626 2.223 . S
Cd618 O628 2.297 . S
Cd618 O629 2.439 . S
O619 Cd618 2.240 . S
O619 C624 1.279 . S
O620 Cd617 2.297 . S
O620 C622 1.247 . S
O621 Cd617 2.439 . S
O621 C622 1.208 . S
C622 O620 1.247 . S
C622 O621 1.208 . S
C623 O628 1.247 . S
C623 O629 1.208 . S
C624 O616 1.315 . S
C624 O619 1.279 . S
C625 O626 1.315 . S
C625 O627 1.279 . S
O626 Cd618 2.223 . S
O626 C625 1.315 . S
O627 Cd617 2.240 . S
O627 C625 1.279 . S
O628 Cd618 2.297 . S
O628 C623 1.247 . S
O629 Cd618 2.439 . S
O629 C623 1.208 . S
O630 Cd631 2.223 . S
O630 C638 1.315 . S
Cd631 O630 2.223 . S
Cd631 O634 2.297 . S
Cd631 O635 2.439 . S
Cd631 O641 2.240 . S
Cd632 O633 2.240 . S
Cd632 O640 2.223 . S
Cd632 O642 2.297 . S
Cd632 O643 2.439 . S
O633 Cd632 2.240 . S
O633 C638 1.279 . S
O634 Cd631 2.297 . S
O634 C636 1.247 . S
O635 Cd631 2.439 . S
O635 C636 1.208 . S
C636 O634 1.247 . S
C636 O635 1.208 . S
C637 O642 1.247 . S
C637 O643 1.208 . S
C638 O630 1.315 . S
C638 O633 1.279 . S
C639 O640 1.315 . S
C639 O641 1.279 . S
O640 Cd632 2.223 . S
O640 C639 1.315 . S
O641 Cd631 2.240 . S
O641 C639 1.279 . S
O642 Cd632 2.297 . S
O642 C637 1.247 . S
O643 Cd632 2.439 . S
O643 C637 1.208 . S
O644 Cd645 2.223 . S
O644 C652 1.315 . S
Cd645 O644 2.223 . S
Cd645 O648 2.297 . S
Cd645 O649 2.439 . S
Cd645 O655 2.240 . S
Cd646 O647 2.240 . S
Cd646 O654 2.223 . S
Cd646 O656 2.297 . S
Cd646 O657 2.439 . S
O647 Cd646 2.240 . S
O647 C652 1.279 . S
O648 Cd645 2.297 . S
O648 C650 1.247 . S
O649 Cd645 2.439 . S
O649 C650 1.208 . S
C650 O648 1.247 . S
C650 O649 1.208 . S
C651 O656 1.247 . S
C651 O657 1.208 . S
C652 O644 1.315 . S
C652 O647 1.279 . S
C653 O654 1.315 . S
C653 O655 1.279 . S
O654 Cd646 2.223 . S
O654 C653 1.315 . S
O655 Cd645 2.240 . S
O655 C653 1.279 . S
O656 Cd646 2.297 . S
O656 C651 1.247 . S
O657 Cd646 2.439 . S
O657 C651 1.208 . S
O658 Cd659 2.223 . S
O658 C666 1.315 . S
Cd659 O658 2.223 . S
Cd659 O662 2.297 . S
Cd659 O663 2.439 . S
Cd659 O669 2.240 . S
Cd660 O661 2.240 . S
Cd660 O668 2.223 . S
Cd660 O670 2.297 . S
Cd660 O671 2.439 . S
O661 Cd660 2.240 . S
O661 C666 1.279 . S
O662 Cd659 2.297 . S
O662 C664 1.247 . S
O663 Cd659 2.439 . S
O663 C664 1.208 . S
C664 O662 1.247 . S
C664 O663 1.208 . S
C665 O670 1.247 . S
C665 O671 1.208 . S
C666 O658 1.315 . S
C666 O661 1.279 . S
C667 O668 1.315 . S
C667 O669 1.279 . S
O668 Cd660 2.223 . S
O668 C667 1.315 . S
O669 Cd659 2.240 . S
O669 C667 1.279 . S
O670 Cd660 2.297 . S
O670 C665 1.247 . S
O671 Cd660 2.439 . S
O671 C665 1.208 . S
O672 Cd673 2.223 . S
O672 C680 1.315 . S
Cd673 O672 2.223 . S
Cd673 O676 2.297 . S
Cd673 O677 2.439 . S
Cd673 O683 2.240 . S
Cd674 O675 2.240 . S
Cd674 O682 2.223 . S
Cd674 O684 2.297 . S
Cd674 O685 2.439 . S
O675 Cd674 2.240 . S
O675 C680 1.279 . S
O676 Cd673 2.297 . S
O676 C678 1.247 . S
O677 Cd673 2.439 . S
O677 C678 1.208 . S
C678 O676 1.247 . S
C678 O677 1.208 . S
C679 O684 1.247 . S
C679 O685 1.208 . S
C680 O672 1.315 . S
C680 O675 1.279 . S
C681 O682 1.315 . S
C681 O683 1.279 . S
O682 Cd674 2.223 . S
O682 C681 1.315 . S
O683 Cd673 2.240 . S
O683 C681 1.279 . S
O684 Cd674 2.297 . S
O684 C679 1.247 . S
O685 Cd674 2.439 . S
O685 C679 1.208 . S
O686 Cd687 2.223 . S
O686 C694 1.315 . S
Cd687 O686 2.223 . S
Cd687 O690 2.297 . S
Cd687 O691 2.439 . S
Cd687 O697 2.240 . S
Cd688 O689 2.240 . S
Cd688 O696 2.223 . S
Cd688 O698 2.297 . S
Cd688 O699 2.439 . S
O689 Cd688 2.240 . S
O689 C694 1.279 . S
O690 Cd687 2.297 . S
O690 C692 1.247 . S
O691 Cd687 2.439 . S
O691 C692 1.208 . S
C692 O690 1.247 . S
C692 O691 1.208 . S
C693 O698 1.247 . S
C693 O699 1.208 . S
C694 O686 1.315 . S
C694 O689 1.279 . S
C695 O696 1.315 . S
C695 O697 1.279 . S
O696 Cd688 2.223 . S
O696 C695 1.315 . S
O697 Cd687 2.240 . S
O697 C695 1.279 . S
O698 Cd688 2.297 . S
O698 C693 1.247 . S
O699 Cd688 2.439 . S
O699 C693 1.208 . S
O700 Cd701 2.223 . S
O700 C708 1.315 . S
Cd701 O700 2.223 . S
Cd701 O704 2.297 . S
Cd701 O705 2.439 . S
Cd701 O711 2.240 . S
Cd702 O703 2.240 . S
Cd702 O710 2.223 . S
Cd702 O712 2.297 . S
Cd702 O713 2.439 . S
O703 Cd702 2.240 . S
O703 C708 1.279 . S
O704 Cd701 2.297 . S
O704 C706 1.247 . S
O705 Cd701 2.439 . S
O705 C706 1.208 . S
C706 O704 1.247 . S
C706 O705 1.208 . S
C707 O712 1.247 . S
C707 O713 1.208 . S
C708 O700 1.315 . S
C708 O703 1.279 . S
C709 O710 1.315 . S
C709 O711 1.279 . S
O710 Cd702 2.223 . S
O710 C709 1.315 . S
O711 Cd701 2.240 . S
O711 C709 1.279 . S
O712 Cd702 2.297 . S
O712 C707 1.247 . S
O713 Cd702 2.439 . S
O713 C707 1.208 . S
O714 Cd715 2.223 . S
O714 C722 1.315 . S
Cd715 O714 2.223 . S
Cd715 O718 2.297 . S
Cd715 O719 2.439 . S
Cd715 O725 2.240 . S
Cd716 O717 2.240 . S
Cd716 O724 2.223 . S
Cd716 O726 2.297 . S
Cd716 O727 2.439 . S
O717 Cd716 2.240 . S
O717 C722 1.279 . S
O718 Cd715 2.297 . S
O718 C720 1.247 . S
O719 Cd715 2.439 . S
O719 C720 1.208 . S
C720 O718 1.247 . S
C720 O719 1.208 . S
C721 O726 1.247 . S
C721 O727 1.208 . S
C722 O714 1.315 . S
C722 O717 1.279 . S
C723 O724 1.315 . S
C723 O725 1.279 . S
O724 Cd716 2.223 . S
O724 C723 1.315 . S
O725 Cd715 2.240 . S
O725 C723 1.279 . S
O726 Cd716 2.297 . S
O726 C721 1.247 . S
O727 Cd716 2.439 . S
O727 C721 1.208 . S
O728 Cd729 2.223 . S
O728 C736 1.315 . S
Cd729 O728 2.223 . S
Cd729 O732 2.297 . S
Cd729 O733 2.439 . S
Cd729 O739 2.240 . S
Cd730 O731 2.240 . S
Cd730 O738 2.223 . S
Cd730 O740 2.297 . S
Cd730 O741 2.439 . S
O731 Cd730 2.240 . S
O731 C736 1.279 . S
O732 Cd729 2.297 . S
O732 C734 1.247 . S
O733 Cd729 2.439 . S
O733 C734 1.208 . S
C734 O732 1.247 . S
C734 O733 1.208 . S
C735 O740 1.247 . S
C735 O741 1.208 . S
C736 O728 1.315 . S
C736 O731 1.279 . S
C737 O738 1.315 . S
C737 O739 1.279 . S
O738 Cd730 2.223 . S
O738 C737 1.315 . S
O739 Cd729 2.240 . S
O739 C737 1.279 . S
O740 Cd730 2.297 . S
O740 C735 1.247 . S
O741 Cd730 2.439 . S
O741 C735 1.208 . S
O742 Cd743 2.223 . S
O742 C750 1.315 . S
Cd743 O742 2.223 . S
Cd743 O746 2.297 . S
Cd743 O747 2.439 . S
Cd743 O753 2.240 . S
Cd744 O745 2.240 . S
Cd744 O752 2.223 . S
Cd744 O754 2.297 . S
Cd744 O755 2.439 . S
O745 Cd744 2.240 . S
O745 C750 1.279 . S
O746 Cd743 2.297 . S
O746 C748 1.247 . S
O747 Cd743 2.439 . S
O747 C748 1.208 . S
C748 O746 1.247 . S
C748 O747 1.208 . S
C749 O754 1.247 . S
C749 O755 1.208 . S
C750 O742 1.315 . S
C750 O745 1.279 . S
C751 O752 1.315 . S
C751 O753 1.279 . S
O752 Cd744 2.223 . S
O752 C751 1.315 . S
O753 Cd743 2.240 . S
O753 C751 1.279 . S
O754 Cd744 2.297 . S
O754 C749 1.247 . S
O755 Cd744 2.439 . S
O755 C749 1.208 . S
O756 Cd757 2.223 . S
O756 C764 1.315 . S
Cd757 O756 2.223 . S
Cd757 O760 2.297 . S
Cd757 O761 2.439 . S
Cd757 O767 2.240 . S
Cd758 O759 2.240 . S
Cd758 O766 2.223 . S
Cd758 O768 2.297 . S
Cd758 O769 2.439 . S
O759 Cd758 2.240 . S
O759 C764 1.279 . S
O760 Cd757 2.297 . S
O760 C762 1.247 . S
O761 Cd757 2.439 . S
O761 C762 1.208 . S
C762 O760 1.247 . S
C762 O761 1.208 . S
C763 O768 1.247 . S
C763 O769 1.208 . S
C764 O756 1.315 . S
C764 O759 1.279 . S
C765 O766 1.315 . S
C765 O767 1.279 . S
O766 Cd758 2.223 . S
O766 C765 1.315 . S
O767 Cd757 2.240 . S
O767 C765 1.279 . S
O768 Cd758 2.297 . S
O768 C763 1.247 . S
O769 Cd758 2.439 . S
O769 C763 1.208 . S
O770 Cd771 2.223 . S
O770 C778 1.315 . S
Cd771 O770 2.223 . S
Cd771 O774 2.297 . S
Cd771 O775 2.439 . S
Cd771 O781 2.240 . S
Cd772 O773 2.240 . S
Cd772 O780 2.223 . S
Cd772 O782 2.297 . S
Cd772 O783 2.439 . S
O773 Cd772 2.240 . S
O773 C778 1.279 . S
O774 Cd771 2.297 . S
O774 C776 1.247 . S
O775 Cd771 2.439 . S
O775 C776 1.208 . S
C776 O774 1.247 . S
C776 O775 1.208 . S
C777 O782 1.247 . S
C777 O783 1.208 . S
C778 O770 1.315 . S
C778 O773 1.279 . S
C779 O780 1.315 . S
C779 O781 1.279 . S
O780 Cd772 2.223 . S
O780 C779 1.315 . S
O781 Cd771 2.240 . S
O781 C779 1.279 . S
O782 Cd772 2.297 . S
O782 C777 1.247 . S
O783 Cd772 2.439 . S
O783 C777 1.208 . S
O784 Cd785 2.223 . S
O784 C792 1.315 . S
Cd785 O784 2.223 . S
Cd785 O788 2.297 . S
Cd785 O789 2.439 . S
Cd785 O795 2.240 . S
Cd786 O787 2.240 . S
Cd786 O794 2.223 . S
Cd786 O796 2.297 . S
Cd786 O797 2.439 . S
O787 Cd786 2.240 . S
O787 C792 1.279 . S
O788 Cd785 2.297 . S
O788 C790 1.247 . S
O789 Cd785 2.439 . S
O789 C790 1.208 . S
C790 O788 1.247 . S
C790 O789 1.208 . S
C791 O796 1.247 . S
C791 O797 1.208 . S
C792 O784 1.315 . S
C792 O787 1.279 . S
C793 O794 1.315 . S
C793 O795 1.279 . S
O794 Cd786 2.223 . S
O794 C793 1.315 . S
O795 Cd785 2.240 . S
O795 C793 1.279 . S
O796 Cd786 2.297 . S
O796 C791 1.247 . S
O797 Cd786 2.439 . S
O797 C791 1.208 . S
O798 Cd799 2.223 . S
O798 C806 1.315 . S
Cd799 O798 2.223 . S
Cd799 O802 2.297 . S
Cd799 O803 2.439 . S
Cd799 O809 2.240 . S
Cd800 O801 2.240 . S
Cd800 O808 2.223 . S
Cd800 O810 2.297 . S
Cd800 O811 2.439 . S
O801 Cd800 2.240 . S
O801 C806 1.279 . S
O802 Cd799 2.297 . S
O802 C804 1.247 . S
O803 Cd799 2.439 . S
O803 C804 1.208 . S
C804 O802 1.247 . S
C804 O803 1.208 . S
C805 O810 1.247 . S
C805 O811 1.208 . S
C806 O798 1.315 . S
C806 O801 1.279 . S
C807 O808 1.315 . S
C807 O809 1.279 . S
O808 Cd800 2.223 . S
O808 C807 1.315 . S
O809 Cd799 2.240 . S
O809 C807 1.279 . S
O810 Cd800 2.297 . S
O810 C805 1.247 . S
O811 Cd800 2.439 . S
O811 C805 1.208 . S
O812 Cd813 2.223 . S
O812 C820 1.315 . S
Cd813 O812 2.223 . S
Cd813 O816 2.297 . S
Cd813 O817 2.439 . S
Cd813 O823 2.240 . S
Cd814 O815 2.240 . S
Cd814 O822 2.223 . S
Cd814 O824 2.297 . S
Cd814 O825 2.439 . S
O815 Cd814 2.240 . S
O815 C820 1.279 . S
O816 Cd813 2.297 . S
O816 C818 1.247 . S
O817 Cd813 2.439 . S
O817 C818 1.208 . S
C818 O816 1.247 . S
C818 O817 1.208 . S
C819 O824 1.247 . S
C819 O825 1.208 . S
C820 O812 1.315 . S
C820 O815 1.279 . S
C821 O822 1.315 . S
C821 O823 1.279 . S
O822 Cd814 2.223 . S
O822 C821 1.315 . S
O823 Cd813 2.240 . S
O823 C821 1.279 . S
O824 Cd814 2.297 . S
O824 C819 1.247 . S
O825 Cd814 2.439 . S
O825 C819 1.208 . S
O826 Cd827 2.223 . S
O826 C834 1.315 . S
Cd827 O826 2.223 . S
Cd827 O830 2.297 . S
Cd827 O831 2.439 . S
Cd827 O837 2.240 . S
Cd828 O829 2.240 . S
Cd828 O836 2.223 . S
Cd828 O838 2.297 . S
Cd828 O839 2.439 . S
O829 Cd828 2.240 . S
O829 C834 1.279 . S
O830 Cd827 2.297 . S
O830 C832 1.247 . S
O831 Cd827 2.439 . S
O831 C832 1.208 . S
C832 O830 1.247 . S
C832 O831 1.208 . S
C833 O838 1.247 . S
C833 O839 1.208 . S
C834 O826 1.315 . S
C834 O829 1.279 . S
C835 O836 1.315 . S
C835 O837 1.279 . S
O836 Cd828 2.223 . S
O836 C835 1.315 . S
O837 Cd827 2.240 . S
O837 C835 1.279 . S
O838 Cd828 2.297 . S
O838 C833 1.247 . S
O839 Cd828 2.439 . S
O839 C833 1.208 . S
O840 Cd841 2.223 . S
O840 C848 1.315 . S
Cd841 O840 2.223 . S
Cd841 O844 2.297 . S
Cd841 O845 2.439 . S
Cd841 O851 2.240 . S
Cd842 O843 2.240 . S
Cd842 O850 2.223 . S
Cd842 O852 2.297 . S
Cd842 O853 2.439 . S
O843 Cd842 2.240 . S
O843 C848 1.279 . S
O844 Cd841 2.297 . S
O844 C846 1.247 . S
O845 Cd841 2.439 . S
O845 C846 1.208 . S
C846 O844 1.247 . S
C846 O845 1.208 . S
C847 O852 1.247 . S
C847 O853 1.208 . S
C848 O840 1.315 . S
C848 O843 1.279 . S
C849 O850 1.315 . S
C849 O851 1.279 . S
O850 Cd842 2.223 . S
O850 C849 1.315 . S
O851 Cd841 2.240 . S
O851 C849 1.279 . S
O852 Cd842 2.297 . S
O852 C847 1.247 . S
O853 Cd842 2.439 . S
O853 C847 1.208 . S
O854 Cd855 2.223 . S
O854 C862 1.315 . S
Cd855 O854 2.223 . S
Cd855 O858 2.297 . S
Cd855 O859 2.439 . S
Cd855 O865 2.240 . S
Cd856 O857 2.240 . S
Cd856 O864 2.223 . S
Cd856 O866 2.297 . S
Cd856 O867 2.439 . S
O857 Cd856 2.240 . S
O857 C862 1.279 . S
O858 Cd855 2.297 . S
O858 C860 1.247 . S
O859 Cd855 2.439 . S
O859 C860 1.208 . S
C860 O858 1.247 . S
C860 O859 1.208 . S
C861 O866 1.247 . S
C861 O867 1.208 . S
C862 O854 1.315 . S
C862 O857 1.279 . S
C863 O864 1.315 . S
C863 O865 1.279 . S
O864 Cd856 2.223 . S
O864 C863 1.315 . S
O865 Cd855 2.240 . S
O865 C863 1.279 . S
O866 Cd856 2.297 . S
O866 C861 1.247 . S
O867 Cd856 2.439 . S
O867 C861 1.208 . S
O868 Cd869 2.223 . S
O868 C876 1.315 . S
Cd869 O868 2.223 . S
Cd869 O872 2.297 . S
Cd869 O873 2.439 . S
Cd869 O879 2.240 . S
Cd870 O871 2.240 . S
Cd870 O878 2.223 . S
Cd870 O880 2.297 . S
Cd870 O881 2.439 . S
O871 Cd870 2.240 . S
O871 C876 1.279 . S
O872 Cd869 2.297 . S
O872 C874 1.247 . S
O873 Cd869 2.439 . S
O873 C874 1.208 . S
C874 O872 1.247 . S
C874 O873 1.208 . S
C875 O880 1.247 . S
C875 O881 1.208 . S
C876 O868 1.315 . S
C876 O871 1.279 . S
C877 O878 1.315 . S
C877 O879 1.279 . S
O878 Cd870 2.223 . S
O878 C877 1.315 . S
O879 Cd869 2.240 . S
O879 C877 1.279 . S
O880 Cd870 2.297 . S
O880 C875 1.247 . S
O881 Cd870 2.439 . S
O881 C875 1.208 . S
O882 Cd883 2.223 . S
O882 C890 1.315 . S
Cd883 O882 2.223 . S
Cd883 O886 2.297 . S
Cd883 O887 2.439 . S
Cd883 O893 2.240 . S
Cd884 O885 2.240 . S
Cd884 O892 2.223 . S
Cd884 O894 2.297 . S
Cd884 O895 2.439 . S
O885 Cd884 2.240 . S
O885 C890 1.279 . S
O886 Cd883 2.297 . S
O886 C888 1.247 . S
O887 Cd883 2.439 . S
O887 C888 1.208 . S
C888 O886 1.247 . S
C888 O887 1.208 . S
C889 O894 1.247 . S
C889 O895 1.208 . S
C890 O882 1.315 . S
C890 O885 1.279 . S
C891 O892 1.315 . S
C891 O893 1.279 . S
O892 Cd884 2.223 . S
O892 C891 1.315 . S
O893 Cd883 2.240 . S
O893 C891 1.279 . S
O894 Cd884 2.297 . S
O894 C889 1.247 . S
O895 Cd884 2.439 . S
O895 C889 1.208 . S
O896 Cd897 2.223 . S
O896 C904 1.315 . S
Cd897 O896 2.223 . S
Cd897 O900 2.297 . S
Cd897 O901 2.439 . S
Cd897 O907 2.240 . S
Cd898 O899 2.240 . S
Cd898 O906 2.223 . S
Cd898 O908 2.297 . S
Cd898 O909 2.439 . S
O899 Cd898 2.240 . S
O899 C904 1.279 . S
O900 Cd897 2.297 . S
O900 C902 1.247 . S
O901 Cd897 2.439 . S
O901 C902 1.208 . S
C902 O900 1.247 . S
C902 O901 1.208 . S
C903 O908 1.247 . S
C903 O909 1.208 . S
C904 O896 1.315 . S
C904 O899 1.279 . S
C905 O906 1.315 . S
C905 O907 1.279 . S
O906 Cd898 2.223 . S
O906 C905 1.315 . S
O907 Cd897 2.240 . S
O907 C905 1.279 . S
O908 Cd898 2.297 . S
O908 C903 1.247 . S
O909 Cd898 2.439 . S
O909 C903 1.208 . S
O910 Cd911 2.223 . S
O910 C918 1.315 . S
Cd911 O910 2.223 . S
Cd911 O914 2.297 . S
Cd911 O915 2.439 . S
Cd911 O921 2.240 . S
Cd912 O913 2.240 . S
Cd912 O920 2.223 . S
Cd912 O922 2.297 . S
Cd912 O923 2.439 . S
O913 Cd912 2.240 . S
O913 C918 1.279 . S
O914 Cd911 2.297 . S
O914 C916 1.247 . S
O915 Cd911 2.439 . S
O915 C916 1.208 . S
C916 O914 1.247 . S
C916 O915 1.208 . S
C917 O922 1.247 . S
C917 O923 1.208 . S
C918 O910 1.315 . S
C918 O913 1.279 . S
C919 O920 1.315 . S
C919 O921 1.279 . S
O920 Cd912 2.223 . S
O920 C919 1.315 . S
O921 Cd911 2.240 . S
O921 C919 1.279 . S
O922 Cd912 2.297 . S
O922 C917 1.247 . S
O923 Cd912 2.439 . S
O923 C917 1.208 . S
O924 Cd925 2.223 . S
O924 C932 1.315 . S
Cd925 O924 2.223 . S
Cd925 O928 2.297 . S
Cd925 O929 2.439 . S
Cd925 O935 2.240 . S
Cd926 O927 2.240 . S
Cd926 O934 2.223 . S
Cd926 O936 2.297 . S
Cd926 O937 2.439 . S
O927 Cd926 2.240 . S
O927 C932 1.279 . S
O928 Cd925 2.297 . S
O928 C930 1.247 . S
O929 Cd925 2.439 . S
O929 C930 1.208 . S
C930 O928 1.247 . S
C930 O929 1.208 . S
C931 O936 1.247 . S
C931 O937 1.208 . S
C932 O924 1.315 . S
C932 O927 1.279 . S
C933 O934 1.315 . S
C933 O935 1.279 . S
O934 Cd926 2.223 . S
O934 C933 1.315 . S
O935 Cd925 2.240 . S
O935 C933 1.279 . S
O936 Cd926 2.297 . S
O936 C931 1.247 . S
O937 Cd926 2.439 . S
O937 C931 1.208 . S
O938 Cd939 2.223 . S
O938 C946 1.315 . S
Cd939 O938 2.223 . S
Cd939 O942 2.297 . S
Cd939 O943 2.439 . S
Cd939 O949 2.240 . S
Cd940 O941 2.240 . S
Cd940 O948 2.223 . S
Cd940 O950 2.297 . S
Cd940 O951 2.439 . S
O941 Cd940 2.240 . S
O941 C946 1.279 . S
O942 Cd939 2.297 . S
O942 C944 1.247 . S
O943 Cd939 2.439 . S
O943 C944 1.208 . S
C944 O942 1.247 . S
C944 O943 1.208 . S
C945 O950 1.247 . S
C945 O951 1.208 . S
C946 O938 1.315 . S
C946 O941 1.279 . S
C947 O948 1.315 . S
C947 O949 1.279 . S
O948 Cd940 2.223 . S
O948 C947 1.315 . S
O949 Cd939 2.240 . S
O949 C947 1.279 . S
O950 Cd940 2.297 . S
O950 C945 1.247 . S
O951 Cd940 2.439 . S
O951 C945 1.208 . S
O952 Cd953 2.223 . S
O952 C960 1.315 . S
Cd953 O952 2.223 . S
Cd953 O956 2.297 . S
Cd953 O957 2.439 . S
Cd953 O963 2.240 . S
Cd954 O955 2.240 . S
Cd954 O962 2.223 . S
Cd954 O964 2.297 . S
Cd954 O965 2.439 . S
O955 Cd954 2.240 . S
O955 C960 1.279 . S
O956 Cd953 2.297 . S
O956 C958 1.247 . S
O957 Cd953 2.439 . S
O957 C958 1.208 . S
C958 O956 1.247 . S
C958 O957 1.208 . S
C959 O964 1.247 . S
C959 O965 1.208 . S
C960 O952 1.315 . S
C960 O955 1.279 . S
C961 O962 1.315 . S
C961 O963 1.279 . S
O962 Cd954 2.223 . S
O962 C961 1.315 . S
O963 Cd953 2.240 . S
O963 C961 1.279 . S
O964 Cd954 2.297 . S
O964 C959 1.247 . S
O965 Cd954 2.439 . S
O965 C959 1.208 . S
O966 Cd967 2.223 . S
O966 C974 1.315 . S
Cd967 O966 2.223 . S
Cd967 O970 2.297 . S
Cd967 O971 2.439 . S
Cd967 O977 2.240 . S
Cd968 O969 2.240 . S
Cd968 O976 2.223 . S
Cd968 O978 2.297 . S
Cd968 O979 2.439 . S
O969 Cd968 2.240 . S
O969 C974 1.279 . S
O970 Cd967 2.297 . S
O970 C972 1.247 . S
O971 Cd967 2.439 . S
O971 C972 1.208 . S
C972 O970 1.247 . S
C972 O971 1.208 . S
C973 O978 1.247 . S
C973 O979 1.208 . S
C974 O966 1.315 . S
C974 O969 1.279 . S
C975 O976 1.315 . S
C975 O977 1.279 . S
O976 Cd968 2.223 . S
O976 C975 1.315 . S
O977 Cd967 2.240 . S
O977 C975 1.279 . S
O978 Cd968 2.297 . S
O978 C973 1.247 . S
O979 Cd968 2.439 . S
O979 C973 1.208 . S
O980 Cd981 2.223 . S
O980 C988 1.315 . S
Cd981 O980 2.223 . S
Cd981 O984 2.297 . S
Cd981 O985 2.439 . S
Cd981 O991 2.240 . S
Cd982 O983 2.240 . S
Cd982 O990 2.223 . S
Cd982 O992 2.297 . S
Cd982 O993 2.439 . S
O983 Cd982 2.240 . S
O983 C988 1.279 . S
O984 Cd981 2.297 . S
O984 C986 1.247 . S
O985 Cd981 2.439 . S
O985 C986 1.208 . S
C986 O984 1.247 . S
C986 O985 1.208 . S
C987 O992 1.247 . S
C987 O993 1.208 . S
C988 O980 1.315 . S
C988 O983 1.279 . S
C989 O990 1.315 . S
C989 O991 1.279 . S
O990 Cd982 2.223 . S
O990 C989 1.315 . S
O991 Cd981 2.240 . S
O991 C989 1.279 . S
O992 Cd982 2.297 . S
O992 C987 1.247 . S
O993 Cd982 2.439 . S
O993 C987 1.208 . S
O994 Cd995 2.223 . S
O994 C1002 1.315 . S
Cd995 O994 2.223 . S
Cd995 O998 2.297 . S
Cd995 O999 2.439 . S
Cd995 O1005 2.240 . S
Cd996 O997 2.240 . S
Cd996 O1004 2.223 . S
Cd996 O1006 2.297 . S
Cd996 O1007 2.439 . S
O997 Cd996 2.240 . S
O997 C1002 1.279 . S
O998 Cd995 2.297 . S
O998 C1000 1.247 . S
O999 Cd995 2.439 . S
O999 C1000 1.208 . S
C1000 O998 1.247 . S
C1000 O999 1.208 . S
C1001 O1006 1.247 . S
C1001 O1007 1.208 . S
C1002 O994 1.315 . S
C1002 O997 1.279 . S
C1003 O1004 1.315 . S
C1003 O1005 1.279 . S
O1004 Cd996 2.223 . S
O1004 C1003 1.315 . S
O1005 Cd995 2.240 . S
O1005 C1003 1.279 . S
O1006 Cd996 2.297 . S
O1006 C1001 1.247 . S
O1007 Cd996 2.439 . S
O1007 C1001 1.208 . S
O1008 Cd1009 2.223 . S
O1008 C1016 1.315 . S
Cd1009 O1008 2.223 . S
Cd1009 O1012 2.297 . S
Cd1009 O1013 2.439 . S
Cd1009 O1019 2.240 . S
Cd1010 O1011 2.240 . S
Cd1010 O1018 2.223 . S
Cd1010 O1020 2.297 . S
Cd1010 O1021 2.439 . S
O1011 Cd1010 2.240 . S
O1011 C1016 1.279 . S
O1012 Cd1009 2.297 . S
O1012 C1014 1.247 . S
O1013 Cd1009 2.439 . S
O1013 C1014 1.208 . S
C1014 O1012 1.247 . S
C1014 O1013 1.208 . S
C1015 O1020 1.247 . S
C1015 O1021 1.208 . S
C1016 O1008 1.315 . S
C1016 O1011 1.279 . S
C1017 O1018 1.315 . S
C1017 O1019 1.279 . S
O1018 Cd1010 2.223 . S
O1018 C1017 1.315 . S
O1019 Cd1009 2.240 . S
O1019 C1017 1.279 . S
O1020 Cd1010 2.297 . S
O1020 C1015 1.247 . S
O1021 Cd1010 2.439 . S
O1021 C1015 1.208 . S
O1022 Cd1023 2.223 . S
O1022 C1030 1.315 . S
Cd1023 O1022 2.223 . S
Cd1023 O1026 2.297 . S
Cd1023 O1027 2.439 . S
Cd1023 O1033 2.240 . S
Cd1024 O1025 2.240 . S
Cd1024 O1032 2.223 . S
Cd1024 O1034 2.297 . S
Cd1024 O1035 2.439 . S
O1025 Cd1024 2.240 . S
O1025 C1030 1.279 . S
O1026 Cd1023 2.297 . S
O1026 C1028 1.247 . S
O1027 Cd1023 2.439 . S
O1027 C1028 1.208 . S
C1028 O1026 1.247 . S
C1028 O1027 1.208 . S
C1029 O1034 1.247 . S
C1029 O1035 1.208 . S
C1030 O1022 1.315 . S
C1030 O1025 1.279 . S
C1031 O1032 1.315 . S
C1031 O1033 1.279 . S
O1032 Cd1024 2.223 . S
O1032 C1031 1.315 . S
O1033 Cd1023 2.240 . S
O1033 C1031 1.279 . S
O1034 Cd1024 2.297 . S
O1034 C1029 1.247 . S
O1035 Cd1024 2.439 . S
O1035 C1029 1.208 . S
O1036 Cd1037 2.223 . S
O1036 C1044 1.315 . S
Cd1037 O1036 2.223 . S
Cd1037 O1040 2.297 . S
Cd1037 O1041 2.439 . S
Cd1037 O1047 2.240 . S
Cd1038 O1039 2.240 . S
Cd1038 O1046 2.223 . S
Cd1038 O1048 2.297 . S
Cd1038 O1049 2.439 . S
O1039 Cd1038 2.240 . S
O1039 C1044 1.279 . S
O1040 Cd1037 2.297 . S
O1040 C1042 1.247 . S
O1041 Cd1037 2.439 . S
O1041 C1042 1.208 . S
C1042 O1040 1.247 . S
C1042 O1041 1.208 . S
C1043 O1048 1.247 . S
C1043 O1049 1.208 . S
C1044 O1036 1.315 . S
C1044 O1039 1.279 . S
C1045 O1046 1.315 . S
C1045 O1047 1.279 . S
O1046 Cd1038 2.223 . S
O1046 C1045 1.315 . S
O1047 Cd1037 2.240 . S
O1047 C1045 1.279 . S
O1048 Cd1038 2.297 . S
O1048 C1043 1.247 . S
O1049 Cd1038 2.439 . S
O1049 C1043 1.208 . S
O1050 Cd1051 2.223 . S
O1050 C1058 1.315 . S
Cd1051 O1050 2.223 . S
Cd1051 O1054 2.297 . S
Cd1051 O1055 2.439 . S
Cd1051 O1061 2.240 . S
Cd1052 O1053 2.240 . S
Cd1052 O1060 2.223 . S
Cd1052 O1062 2.297 . S
Cd1052 O1063 2.439 . S
O1053 Cd1052 2.240 . S
O1053 C1058 1.279 . S
O1054 Cd1051 2.297 . S
O1054 C1056 1.247 . S
O1055 Cd1051 2.439 . S
O1055 C1056 1.208 . S
C1056 O1054 1.247 . S
C1056 O1055 1.208 . S
C1057 O1062 1.247 . S
C1057 O1063 1.208 . S
C1058 O1050 1.315 . S
C1058 O1053 1.279 . S
C1059 O1060 1.315 . S
C1059 O1061 1.279 . S
O1060 Cd1052 2.223 . S
O1060 C1059 1.315 . S
O1061 Cd1051 2.240 . S
O1061 C1059 1.279 . S
O1062 Cd1052 2.297 . S
O1062 C1057 1.247 . S
O1063 Cd1052 2.439 . S
O1063 C1057 1.208 . S
O1064 Cd1065 2.223 . S
O1064 C1072 1.315 . S
Cd1065 O1064 2.223 . S
Cd1065 O1068 2.297 . S
Cd1065 O1069 2.439 . S
Cd1065 O1075 2.240 . S
Cd1066 O1067 2.240 . S
Cd1066 O1074 2.223 . S
Cd1066 O1076 2.297 . S
Cd1066 O1077 2.439 . S
O1067 Cd1066 2.240 . S
O1067 C1072 1.279 . S
O1068 Cd1065 2.297 . S
O1068 C1070 1.247 . S
O1069 Cd1065 2.439 . S
O1069 C1070 1.208 . S
C1070 O1068 1.247 . S
C1070 O1069 1.208 . S
C1071 O1076 1.247 . S
C1071 O1077 1.208 . S
C1072 O1064 1.315 . S
C1072 O1067 1.279 . S
C1073 O1074 1.315 . S
C1073 O1075 1.279 . S
O1074 Cd1066 2.223 . S
O1074 C1073 1.315 . S
O1075 Cd1065 2.240 . S
O1075 C1073 1.279 . S
O1076 Cd1066 2.297 . S
O1076 C1071 1.247 . S
O1077 Cd1066 2.439 . S
O1077 C1071 1.208 . S
O1078 Cd1079 2.223 . S
O1078 C1086 1.315 . S
Cd1079 O1078 2.223 . S
Cd1079 O1082 2.297 . S
Cd1079 O1083 2.439 . S
Cd1079 O1089 2.240 . S
Cd1080 O1081 2.240 . S
Cd1080 O1088 2.223 . S
Cd1080 O1090 2.297 . S
Cd1080 O1091 2.439 . S
O1081 Cd1080 2.240 . S
O1081 C1086 1.279 . S
O1082 Cd1079 2.297 . S
O1082 C1084 1.247 . S
O1083 Cd1079 2.439 . S
O1083 C1084 1.208 . S
C1084 O1082 1.247 . S
C1084 O1083 1.208 . S
C1085 O1090 1.247 . S
C1085 O1091 1.208 . S
C1086 O1078 1.315 . S
C1086 O1081 1.279 . S
C1087 O1088 1.315 . S
C1087 O1089 1.279 . S
O1088 Cd1080 2.223 . S
O1088 C1087 1.315 . S
O1089 Cd1079 2.240 . S
O1089 C1087 1.279 . S
O1090 Cd1080 2.297 . S
O1090 C1085 1.247 . S
O1091 Cd1080 2.439 . S
O1091 C1085 1.208 . S
O1092 Cd1093 2.223 . S
O1092 C1100 1.315 . S
Cd1093 O1092 2.223 . S
Cd1093 O1096 2.297 . S
Cd1093 O1097 2.439 . S
Cd1093 O1103 2.240 . S
Cd1094 O1095 2.240 . S
Cd1094 O1102 2.223 . S
Cd1094 O1104 2.297 . S
Cd1094 O1105 2.439 . S
O1095 Cd1094 2.240 . S
O1095 C1100 1.279 . S
O1096 Cd1093 2.297 . S
O1096 C1098 1.247 . S
O1097 Cd1093 2.439 . S
O1097 C1098 1.208 . S
C1098 O1096 1.247 . S
C1098 O1097 1.208 . S
C1099 O1104 1.247 . S
C1099 O1105 1.208 . S
C1100 O1092 1.315 . S
C1100 O1095 1.279 . S
C1101 O1102 1.315 . S
C1101 O1103 1.279 . S
O1102 Cd1094 2.223 . S
O1102 C1101 1.315 . S
O1103 Cd1093 2.240 . S
O1103 C1101 1.279 . S
O1104 Cd1094 2.297 . S
O1104 C1099 1.247 . S
O1105 Cd1094 2.439 . S
O1105 C1099 1.208 . S
O1106 Cd1107 2.223 . S
O1106 C1114 1.315 . S
Cd1107 O1106 2.223 . S
Cd1107 O1110 2.297 . S
Cd1107 O1111 2.439 . S
Cd1107 O1117 2.240 . S
Cd1108 O1109 2.240 . S
Cd1108 O1116 2.223 . S
Cd1108 O1118 2.297 . S
Cd1108 O1119 2.439 . S
O1109 Cd1108 2.240 . S
O1109 C1114 1.279 . S
O1110 Cd1107 2.297 . S
O1110 C1112 1.247 . S
O1111 Cd1107 2.439 . S
O1111 C1112 1.208 . S
C1112 O1110 1.247 . S
C1112 O1111 1.208 . S
C1113 O1118 1.247 . S
C1113 O1119 1.208 . S
C1114 O1106 1.315 . S
C1114 O1109 1.279 . S
C1115 O1116 1.315 . S
C1115 O1117 1.279 . S
O1116 Cd1108 2.223 . S
O1116 C1115 1.315 . S
O1117 Cd1107 2.240 . S
O1117 C1115 1.279 . S
O1118 Cd1108 2.297 . S
O1118 C1113 1.247 . S
O1119 Cd1108 2.439 . S
O1119 C1113 1.208 . S
O1120 Cd1121 2.223 . S
O1120 C1128 1.315 . S
Cd1121 O1120 2.223 . S
Cd1121 O1124 2.297 . S
Cd1121 O1125 2.439 . S
Cd1121 O1131 2.240 . S
Cd1122 O1123 2.240 . S
Cd1122 O1130 2.223 . S
Cd1122 O1132 2.297 . S
Cd1122 O1133 2.439 . S
O1123 Cd1122 2.240 . S
O1123 C1128 1.279 . S
O1124 Cd1121 2.297 . S
O1124 C1126 1.247 . S
O1125 Cd1121 2.439 . S
O1125 C1126 1.208 . S
C1126 O1124 1.247 . S
C1126 O1125 1.208 . S
C1127 O1132 1.247 . S
C1127 O1133 1.208 . S
C1128 O1120 1.315 . S
C1128 O1123 1.279 . S
C1129 O1130 1.315 . S
C1129 O1131 1.279 . S
O1130 Cd1122 2.223 . S
O1130 C1129 1.315 . S
O1131 Cd1121 2.240 . S
O1131 C1129 1.279 . S
O1132 Cd1122 2.297 . S
O1132 C1127 1.247 . S
O1133 Cd1122 2.439 . S
O1133 C1127 1.208 . S
O1134 Cd1135 2.223 . S
O1134 C1142 1.315 . S
Cd1135 O1134 2.223 . S
Cd1135 O1138 2.297 . S
Cd1135 O1139 2.439 . S
Cd1135 O1145 2.240 . S
Cd1136 O1137 2.240 . S
Cd1136 O1144 2.223 . S
Cd1136 O1146 2.297 . S
Cd1136 O1147 2.439 . S
O1137 Cd1136 2.240 . S
O1137 C1142 1.279 . S
O1138 Cd1135 2.297 . S
O1138 C1140 1.247 . S
O1139 Cd1135 2.439 . S
O1139 C1140 1.208 . S
C1140 O1138 1.247 . S
C1140 O1139 1.208 . S
C1141 O1146 1.247 . S
C1141 O1147 1.208 . S
C1142 O1134 1.315 . S
C1142 O1137 1.279 . S
C1143 O1144 1.315 . S
C1143 O1145 1.279 . S
O1144 Cd1136 2.223 . S
O1144 C1143 1.315 . S
O1145 Cd1135 2.240 . S
O1145 C1143 1.279 . S
O1146 Cd1136 2.297 . S
O1146 C1141 1.247 . S
O1147 Cd1136 2.439 . S
O1147 C1141 1.208 . S
O1148 Cd1149 2.223 . S
O1148 C1156 1.315 . S
Cd1149 O1148 2.223 . S
Cd1149 O1152 2.297 . S
Cd1149 O1153 2.439 . S
Cd1149 O1159 2.240 . S
Cd1150 O1151 2.240 . S
Cd1150 O1158 2.223 . S
Cd1150 O1160 2.297 . S
Cd1150 O1161 2.439 . S
O1151 Cd1150 2.240 . S
O1151 C1156 1.279 . S
O1152 Cd1149 2.297 . S
O1152 C1154 1.247 . S
O1153 Cd1149 2.439 . S
O1153 C1154 1.208 . S
C1154 O1152 1.247 . S
C1154 O1153 1.208 . S
C1155 O1160 1.247 . S
C1155 O1161 1.208 . S
C1156 O1148 1.315 . S
C1156 O1151 1.279 . S
C1157 O1158 1.315 . S
C1157 O1159 1.279 . S
O1158 Cd1150 2.223 . S
O1158 C1157 1.315 . S
O1159 Cd1149 2.240 . S
O1159 C1157 1.279 . S
O1160 Cd1150 2.297 . S
O1160 C1155 1.247 . S
O1161 Cd1150 2.439 . S
O1161 C1155 1.208 . S
O1162 Cd1163 2.223 . S
O1162 C1170 1.315 . S
Cd1163 O1162 2.223 . S
Cd1163 O1166 2.297 . S
Cd1163 O1167 2.439 . S
Cd1163 O1173 2.240 . S
Cd1164 O1165 2.240 . S
Cd1164 O1172 2.223 . S
Cd1164 O1174 2.297 . S
Cd1164 O1175 2.439 . S
O1165 Cd1164 2.240 . S
O1165 C1170 1.279 . S
O1166 Cd1163 2.297 . S
O1166 C1168 1.247 . S
O1167 Cd1163 2.439 . S
O1167 C1168 1.208 . S
C1168 O1166 1.247 . S
C1168 O1167 1.208 . S
C1169 O1174 1.247 . S
C1169 O1175 1.208 . S
C1170 O1162 1.315 . S
C1170 O1165 1.279 . S
C1171 O1172 1.315 . S
C1171 O1173 1.279 . S
O1172 Cd1164 2.223 . S
O1172 C1171 1.315 . S
O1173 Cd1163 2.240 . S
O1173 C1171 1.279 . S
O1174 Cd1164 2.297 . S
O1174 C1169 1.247 . S
O1175 Cd1164 2.439 . S
O1175 C1169 1.208 . S
O1176 Cd1177 2.223 . S
O1176 C1184 1.315 . S
Cd1177 O1176 2.223 . S
Cd1177 O1180 2.297 . S
Cd1177 O1181 2.439 . S
Cd1177 O1187 2.240 . S
Cd1178 O1179 2.240 . S
Cd1178 O1186 2.223 . S
Cd1178 O1188 2.297 . S
Cd1178 O1189 2.439 . S
O1179 Cd1178 2.240 . S
O1179 C1184 1.279 . S
O1180 Cd1177 2.297 . S
O1180 C1182 1.247 . S
O1181 Cd1177 2.439 . S
O1181 C1182 1.208 . S
C1182 O1180 1.247 . S
C1182 O1181 1.208 . S
C1183 O1188 1.247 . S
C1183 O1189 1.208 . S
C1184 O1176 1.315 . S
C1184 O1179 1.279 . S
C1185 O1186 1.315 . S
C1185 O1187 1.279 . S
O1186 Cd1178 2.223 . S
O1186 C1185 1.315 . S
O1187 Cd1177 2.240 . S
O1187 C1185 1.279 . S
O1188 Cd1178 2.297 . S
O1188 C1183 1.247 . S
O1189 Cd1178 2.439 . S
O1189 C1183 1.208 . S
O1190 Cd1191 2.223 . S
O1190 C1198 1.315 . S
Cd1191 O1190 2.223 . S
Cd1191 O1194 2.297 . S
Cd1191 O1195 2.439 . S
Cd1191 O1201 2.240 . S
Cd1192 O1193 2.240 . S
Cd1192 O1200 2.223 . S
Cd1192 O1202 2.297 . S
Cd1192 O1203 2.439 . S
O1193 Cd1192 2.240 . S
O1193 C1198 1.279 . S
O1194 Cd1191 2.297 . S
O1194 C1196 1.247 . S
O1195 Cd1191 2.439 . S
O1195 C1196 1.208 . S
C1196 O1194 1.247 . S
C1196 O1195 1.208 . S
C1197 O1202 1.247 . S
C1197 O1203 1.208 . S
C1198 O1190 1.315 . S
C1198 O1193 1.279 . S
C1199 O1200 1.315 . S
C1199 O1201 1.279 . S
O1200 Cd1192 2.223 . S
O1200 C1199 1.315 . S
O1201 Cd1191 2.240 . S
O1201 C1199 1.279 . S
O1202 Cd1192 2.297 . S
O1202 C1197 1.247 . S
O1203 Cd1192 2.439 . S
O1203 C1197 1.208 . S
O1204 Cd1205 2.223 . S
O1204 C1212 1.315 . S
Cd1205 O1204 2.223 . S
Cd1205 O1208 2.297 . S
Cd1205 O1209 2.439 . S
Cd1205 O1215 2.240 . S
Cd1206 O1207 2.240 . S
Cd1206 O1214 2.223 . S
Cd1206 O1216 2.297 . S
Cd1206 O1217 2.439 . S
O1207 Cd1206 2.240 . S
O1207 C1212 1.279 . S
O1208 Cd1205 2.297 . S
O1208 C1210 1.247 . S
O1209 Cd1205 2.439 . S
O1209 C1210 1.208 . S
C1210 O1208 1.247 . S
C1210 O1209 1.208 . S
C1211 O1216 1.247 . S
C1211 O1217 1.208 . S
C1212 O1204 1.315 . S
C1212 O1207 1.279 . S
C1213 O1214 1.315 . S
C1213 O1215 1.279 . S
O1214 Cd1206 2.223 . S
O1214 C1213 1.315 . S
O1215 Cd1205 2.240 . S
O1215 C1213 1.279 . S
O1216 Cd1206 2.297 . S
O1216 C1211 1.247 . S
O1217 Cd1206 2.439 . S
O1217 C1211 1.208 . S
O1218 Cd1219 2.223 . S
O1218 C1226 1.315 . S
Cd1219 O1218 2.223 . S
Cd1219 O1222 2.297 . S
Cd1219 O1223 2.439 . S
Cd1219 O1229 2.240 . S
Cd1220 O1221 2.240 . S
Cd1220 O1228 2.223 . S
Cd1220 O1230 2.297 . S
Cd1220 O1231 2.439 . S
O1221 Cd1220 2.240 . S
O1221 C1226 1.279 . S
O1222 Cd1219 2.297 . S
O1222 C1224 1.247 . S
O1223 Cd1219 2.439 . S
O1223 C1224 1.208 . S
C1224 O1222 1.247 . S
C1224 O1223 1.208 . S
C1225 O1230 1.247 . S
C1225 O1231 1.208 . S
C1226 O1218 1.315 . S
C1226 O1221 1.279 . S
C1227 O1228 1.315 . S
C1227 O1229 1.279 . S
O1228 Cd1220 2.223 . S
O1228 C1227 1.315 . S
O1229 Cd1219 2.240 . S
O1229 C1227 1.279 . S
O1230 Cd1220 2.297 . S
O1230 C1225 1.247 . S
O1231 Cd1220 2.439 . S
O1231 C1225 1.208 . S
O1232 Cd1233 2.223 . S
O1232 C1240 1.315 . S
Cd1233 O1232 2.223 . S
Cd1233 O1236 2.297 . S
Cd1233 O1237 2.439 . S
Cd1233 O1243 2.240 . S
Cd1234 O1235 2.240 . S
Cd1234 O1242 2.223 . S
Cd1234 O1244 2.297 . S
Cd1234 O1245 2.439 . S
O1235 Cd1234 2.240 . S
O1235 C1240 1.279 . S
O1236 Cd1233 2.297 . S
O1236 C1238 1.247 . S
O1237 Cd1233 2.439 . S
O1237 C1238 1.208 . S
C1238 O1236 1.247 . S
C1238 O1237 1.208 . S
C1239 O1244 1.247 . S
C1239 O1245 1.208 . S
C1240 O1232 1.315 . S
C1240 O1235 1.279 . S
C1241 O1242 1.315 . S
C1241 O1243 1.279 . S
O1242 Cd1234 2.223 . S
O1242 C1241 1.315 . S
O1243 Cd1233 2.240 . S
O1243 C1241 1.279 . S
O1244 Cd1234 2.297 . S
O1244 C1239 1.247 . S
O1245 Cd1234 2.439 . S
O1245 C1239 1.208 . S
O1246 Cd1247 2.223 . S
O1246 C1254 1.315 . S
Cd1247 O1246 2.223 . S
Cd1247 O1250 2.297 . S
Cd1247 O1251 2.439 . S
Cd1247 O1257 2.240 . S
Cd1248 O1249 2.240 . S
Cd1248 O1256 2.223 . S
Cd1248 O1258 2.297 . S
Cd1248 O1259 2.439 . S
O1249 Cd1248 2.240 . S
O1249 C1254 1.279 . S
O1250 Cd1247 2.297 . S
O1250 C1252 1.247 . S
O1251 Cd1247 2.439 . S
O1251 C1252 1.208 . S
C1252 O1250 1.247 . S
C1252 O1251 1.208 . S
C1253 O1258 1.247 . S
C1253 O1259 1.208 . S
C1254 O1246 1.315 . S
C1254 O1249 1.279 . S
C1255 O1256 1.315 . S
C1255 O1257 1.279 . S
O1256 Cd1248 2.223 . S
O1256 C1255 1.315 . S
O1257 Cd1247 2.240 . S
O1257 C1255 1.279 . S
O1258 Cd1248 2.297 . S
O1258 C1253 1.247 . S
O1259 Cd1248 2.439 . S
O1259 C1253 1.208 . S
O1260 Cd1261 2.223 . S
O1260 C1268 1.315 . S
Cd1261 O1260 2.223 . S
Cd1261 O1264 2.297 . S
Cd1261 O1265 2.439 . S
Cd1261 O1271 2.240 . S
Cd1262 O1263 2.240 . S
Cd1262 O1270 2.223 . S
Cd1262 O1272 2.297 . S
Cd1262 O1273 2.439 . S
O1263 Cd1262 2.240 . S
O1263 C1268 1.279 . S
O1264 Cd1261 2.297 . S
O1264 C1266 1.247 . S
O1265 Cd1261 2.439 . S
O1265 C1266 1.208 . S
C1266 O1264 1.247 . S
C1266 O1265 1.208 . S
C1267 O1272 1.247 . S
C1267 O1273 1.208 . S
C1268 O1260 1.315 . S
C1268 O1263 1.279 . S
C1269 O1270 1.315 . S
C1269 O1271 1.279 . S
O1270 Cd1262 2.223 . S
O1270 C1269 1.315 . S
O1271 Cd1261 2.240 . S
O1271 C1269 1.279 . S
O1272 Cd1262 2.297 . S
O1272 C1267 1.247 . S
O1273 Cd1262 2.439 . S
O1273 C1267 1.208 . S
O1274 Cd1275 2.223 . S
O1274 C1282 1.315 . S
Cd1275 O1274 2.223 . S
Cd1275 O1278 2.297 . S
Cd1275 O1279 2.439 . S
Cd1275 O1285 2.240 . S
Cd1276 O1277 2.240 . S
Cd1276 O1284 2.223 . S
Cd1276 O1286 2.297 . S
Cd1276 O1287 2.439 . S
O1277 Cd1276 2.240 . S
O1277 C1282 1.279 . S
O1278 Cd1275 2.297 . S
O1278 C1280 1.247 . S
O1279 Cd1275 2.439 . S
O1279 C1280 1.208 . S
C1280 O1278 1.247 . S
C1280 O1279 1.208 . S
C1281 O1286 1.247 . S
C1281 O1287 1.208 . S
C1282 O1274 1.315 . S
C1282 O1277 1.279 . S
C1283 O1284 1.315 . S
C1283 O1285 1.279 . S
O1284 Cd1276 2.223 . S
O1284 C1283 1.315 . S
O1285 Cd1275 2.240 . S
O1285 C1283 1.279 . S
O1286 Cd1276 2.297 . S
O1286 C1281 1.247 . S
O1287 Cd1276 2.439 . S
O1287 C1281 1.208 . S
O1288 Cd1289 2.223 . S
O1288 C1296 1.315 . S
Cd1289 O1288 2.223 . S
Cd1289 O1292 2.297 . S
Cd1289 O1293 2.439 . S
Cd1289 O1299 2.240 . S
Cd1290 O1291 2.240 . S
Cd1290 O1298 2.223 . S
Cd1290 O1300 2.297 . S
Cd1290 O1301 2.439 . S
O1291 Cd1290 2.240 . S
O1291 C1296 1.279 . S
O1292 Cd1289 2.297 . S
O1292 C1294 1.247 . S
O1293 Cd1289 2.439 . S
O1293 C1294 1.208 . S
C1294 O1292 1.247 . S
C1294 O1293 1.208 . S
C1295 O1300 1.247 . S
C1295 O1301 1.208 . S
C1296 O1288 1.315 . S
C1296 O1291 1.279 . S
C1297 O1298 1.315 . S
C1297 O1299 1.279 . S
O1298 Cd1290 2.223 . S
O1298 C1297 1.315 . S
O1299 Cd1289 2.240 . S
O1299 C1297 1.279 . S
O1300 Cd1290 2.297 . S
O1300 C1295 1.247 . S
O1301 Cd1290 2.439 . S
O1301 C1295 1.208 . S
O1302 Cd1303 2.223 . S
O1302 C1310 1.315 . S
Cd1303 O1302 2.223 . S
Cd1303 O1306 2.297 . S
Cd1303 O1307 2.439 . S
Cd1303 O1313 2.240 . S
Cd1304 O1305 2.240 . S
Cd1304 O1312 2.223 . S
Cd1304 O1314 2.297 . S
Cd1304 O1315 2.439 . S
O1305 Cd1304 2.240 . S
O1305 C1310 1.279 . S
O1306 Cd1303 2.297 . S
O1306 C1308 1.247 . S
O1307 Cd1303 2.439 . S
O1307 C1308 1.208 . S
C1308 O1306 1.247 . S
C1308 O1307 1.208 . S
C1309 O1314 1.247 . S
C1309 O1315 1.208 . S
C1310 O1302 1.315 . S
C1310 O1305 1.279 . S
C1311 O1312 1.315 . S
C1311 O1313 1.279 . S
O1312 Cd1304 2.223 . S
O1312 C1311 1.315 . S
O1313 Cd1303 2.240 . S
O1313 C1311 1.279 . S
O1314 Cd1304 2.297 . S
O1314 C1309 1.247 . S
O1315 Cd1304 2.439 . S
O1315 C1309 1.208 . S
O1316 Cd1317 2.223 . S
O1316 C1324 1.315 . S
Cd1317 O1316 2.223 . S
Cd1317 O1320 2.297 . S
Cd1317 O1321 2.439 . S
Cd1317 O1327 2.240 . S
Cd1318 O1319 2.240 . S
Cd1318 O1326 2.223 . S
Cd1318 O1328 2.297 . S
Cd1318 O1329 2.439 . S
O1319 Cd1318 2.240 . S
O1319 C1324 1.279 . S
O1320 Cd1317 2.297 . S
O1320 C1322 1.247 . S
O1321 Cd1317 2.439 . S
O1321 C1322 1.208 . S
C1322 O1320 1.247 . S
C1322 O1321 1.208 . S
C1323 O1328 1.247 . S
C1323 O1329 1.208 . S
C1324 O1316 1.315 . S
C1324 O1319 1.279 . S
C1325 O1326 1.315 . S
C1325 O1327 1.279 . S
O1326 Cd1318 2.223 . S
O1326 C1325 1.315 . S
O1327 Cd1317 2.240 . S
O1327 C1325 1.279 . S
O1328 Cd1318 2.297 . S
O1328 C1323 1.247 . S
O1329 Cd1318 2.439 . S
O1329 C1323 1.208 . S
O1330 Cd1331 2.223 . S
O1330 C1338 1.315 . S
Cd1331 O1330 2.223 . S
Cd1331 O1334 2.297 . S
Cd1331 O1335 2.439 . S
Cd1331 O1341 2.240 . S
Cd1332 O1333 2.240 . S
Cd1332 O1340 2.223 . S
Cd1332 O1342 2.297 . S
Cd1332 O1343 2.439 . S
O1333 Cd1332 2.240 . S
O1333 C1338 1.279 . S
O1334 Cd1331 2.297 . S
O1334 C1336 1.247 . S
O1335 Cd1331 2.439 . S
O1335 C1336 1.208 . S
C1336 O1334 1.247 . S
C1336 O1335 1.208 . S
C1337 O1342 1.247 . S
C1337 O1343 1.208 . S
C1338 O1330 1.315 . S
C1338 O1333 1.279 . S
C1339 O1340 1.315 . S
C1339 O1341 1.279 . S
O1340 Cd1332 2.223 . S
O1340 C1339 1.315 . S
O1341 Cd1331 2.240 . S
O1341 C1339 1.279 . S
O1342 Cd1332 2.297 . S
O1342 C1337 1.247 . S
O1343 Cd1332 2.439 . S
O1343 C1337 1.208 . S
H1344 C1352 0.950 . S
H1345 C1357 0.950 . S
H1346 C1354 0.950 . S
H1347 C1356 0.950 . S
H1348 C1358 0.950 . S
H1349 C1360 0.950 . S
H1350 C1362 0.950 . S
H1351 C1363 0.950 . S
C1352 H1344 0.950 . S
C1352 C1353 1.386 . S
C1352 C1354 1.391 . S
C1353 C1352 1.386 . S
C1353 C1357 1.393 . S
C1354 H1346 0.950 . S
C1354 C1352 1.391 . S
C1354 C1355 1.400 . S
C1355 C1354 1.400 . S
C1355 C1356 1.398 . S
C1355 C1361 1.491 . S
C1356 H1347 0.950 . S
C1356 C1355 1.398 . S
C1356 C1357 1.391 . S
C1357 H1345 0.950 . S
C1357 C1353 1.393 . S
C1357 C1356 1.391 . S
C1358 H1348 0.950 . S
C1358 C1359 1.386 . S
C1358 C1360 1.391 . S
C1359 C1358 1.386 . S
C1359 C1363 1.393 . S
C1360 H1349 0.950 . S
C1360 C1358 1.391 . S
C1360 C1361 1.400 . S
C1361 C1355 1.491 . S
C1361 C1360 1.400 . S
C1361 C1362 1.398 . S
C1362 H1350 0.950 . S
C1362 C1361 1.398 . S
C1362 C1363 1.391 . S
C1363 H1351 0.950 . S
C1363 C1359 1.393 . S
C1363 C1362 1.391 . S
H1364 C1372 0.950 . S
H1365 C1377 0.950 . S
H1366 C1374 0.950 . S
H1367 C1376 0.950 . S
H1368 C1378 0.950 . S
H1369 C1380 0.950 . S
H1370 C1382 0.950 . S
H1371 C1383 0.950 . S
C1372 H1364 0.950 . S
C1372 C1373 1.386 . S
C1372 C1374 1.391 1_655 S
C1373 C1372 1.386 . S
C1373 C1377 1.393 1_655 S
C1374 H1366 0.950 . S
C1374 C1372 1.391 1_455 S
C1374 C1375 1.400 . S
C1375 C1374 1.400 . S
C1375 C1376 1.398 . S
C1375 C1381 1.491 . S
C1376 H1367 0.950 . S
C1376 C1375 1.398 . S
C1376 C1377 1.391 . S
C1377 H1365 0.950 . S
C1377 C1373 1.393 1_455 S
C1377 C1376 1.391 . S
C1378 H1368 0.950 . S
C1378 C1379 1.386 . S
C1378 C1380 1.391 . S
C1379 C1378 1.386 . S
C1379 C1383 1.393 . S
C1380 H1369 0.950 . S
C1380 C1378 1.391 . S
C1380 C1381 1.400 . S
C1381 C1375 1.491 . S
C1381 C1380 1.400 . S
C1381 C1382 1.398 . S
C1382 H1370 0.950 . S
C1382 C1381 1.398 . S
C1382 C1383 1.391 . S
C1383 H1371 0.950 . S
C1383 C1379 1.393 . S
C1383 C1382 1.391 . S
H1384 C1392 0.950 . S
H1385 C1397 0.950 . S
H1386 C1394 0.950 . S
H1387 C1396 0.950 . S
H1388 C1398 0.950 . S
H1389 C1400 0.950 . S
H1390 C1402 0.950 . S
H1391 C1403 0.950 . S
C1392 H1384 0.950 . S
C1392 C1393 1.386 . S
C1392 C1394 1.391 . S
C1393 C1392 1.386 . S
C1393 C1397 1.393 . S
C1394 H1386 0.950 . S
C1394 C1392 1.391 . S
C1394 C1395 1.400 . S
C1395 C1394 1.400 . S
C1395 C1396 1.398 . S
C1395 C1401 1.491 . S
C1396 H1387 0.950 . S
C1396 C1395 1.398 . S
C1396 C1397 1.391 . S
C1397 H1385 0.950 . S
C1397 C1393 1.393 . S
C1397 C1396 1.391 . S
C1398 H1388 0.950 . S
C1398 C1399 1.386 . S
C1398 C1400 1.391 . S
C1399 C1398 1.386 . S
C1399 C1403 1.393 . S
C1400 H1389 0.950 . S
C1400 C1398 1.391 . S
C1400 C1401 1.400 . S
C1401 C1395 1.491 . S
C1401 C1400 1.400 . S
C1401 C1402 1.398 . S
C1402 H1390 0.950 . S
C1402 C1401 1.398 . S
C1402 C1403 1.391 . S
C1403 H1391 0.950 . S
C1403 C1399 1.393 . S
C1403 C1402 1.391 . S
H1404 C1412 0.950 . S
H1405 C1417 0.950 . S
H1406 C1414 0.950 . S
H1407 C1416 0.950 . S
H1408 C1418 0.950 . S
H1409 C1420 0.950 . S
H1410 C1422 0.950 . S
H1411 C1423 0.950 . S
C1412 H1404 0.950 . S
C1412 C1413 1.386 . S
C1412 C1414 1.391 . S
C1413 C1412 1.386 . S
C1413 C1417 1.393 . S
C1414 H1406 0.950 . S
C1414 C1412 1.391 . S
C1414 C1415 1.400 . S
C1415 C1414 1.400 . S
C1415 C1416 1.398 . S
C1415 C1421 1.491 . S
C1416 H1407 0.950 . S
C1416 C1415 1.398 . S
C1416 C1417 1.391 . S
C1417 H1405 0.950 . S
C1417 C1413 1.393 . S
C1417 C1416 1.391 . S
C1418 H1408 0.950 . S
C1418 C1419 1.386 . S
C1418 C1420 1.391 . S
C1419 C1418 1.386 . S
C1419 C1423 1.393 . S
C1420 H1409 0.950 . S
C1420 C1418 1.391 . S
C1420 C1421 1.400 . S
C1421 C1415 1.491 . S
C1421 C1420 1.400 . S
C1421 C1422 1.398 . S
C1422 H1410 0.950 . S
C1422 C1421 1.398 . S
C1422 C1423 1.391 . S
C1423 H1411 0.950 . S
C1423 C1419 1.393 . S
C1423 C1422 1.391 . S
H1424 C1432 0.950 . S
H1425 C1437 0.950 . S
H1426 C1434 0.950 . S
H1427 C1436 0.950 . S
H1428 C1438 0.950 . S
H1429 C1440 0.950 . S
H1430 C1442 0.950 . S
H1431 C1443 0.950 . S
C1432 H1424 0.950 . S
C1432 C1433 1.386 . S
C1432 C1434 1.391 . S
C1433 C1432 1.386 . S
C1433 C1437 1.393 . S
C1434 H1426 0.950 . S
C1434 C1432 1.391 . S
C1434 C1435 1.400 . S
C1435 C1434 1.400 . S
C1435 C1436 1.398 . S
C1435 C1441 1.491 . S
C1436 H1427 0.950 . S
C1436 C1435 1.398 . S
C1436 C1437 1.391 . S
C1437 H1425 0.950 . S
C1437 C1433 1.393 . S
C1437 C1436 1.391 . S
C1438 H1428 0.950 . S
C1438 C1439 1.386 . S
C1438 C1440 1.391 . S
C1439 C1438 1.386 . S
C1439 C1443 1.393 . S
C1440 H1429 0.950 . S
C1440 C1438 1.391 . S
C1440 C1441 1.400 . S
C1441 C1435 1.491 . S
C1441 C1440 1.400 . S
C1441 C1442 1.398 . S
C1442 H1430 0.950 . S
C1442 C1441 1.398 . S
C1442 C1443 1.391 . S
C1443 H1431 0.950 . S
C1443 C1439 1.393 . S
C1443 C1442 1.391 . S
H1444 C1452 0.950 . S
H1445 C1457 0.950 . S
H1446 C1454 0.950 . S
H1447 C1456 0.950 . S
H1448 C1458 0.950 . S
H1449 C1460 0.950 . S
H1450 C1462 0.950 . S
H1451 C1463 0.950 . S
C1452 H1444 0.950 . S
C1452 C1453 1.386 . S
C1452 C1454 1.391 . S
C1453 C1452 1.386 . S
C1453 C1457 1.393 . S
C1454 H1446 0.950 . S
C1454 C1452 1.391 . S
C1454 C1455 1.400 . S
C1455 C1454 1.400 . S
C1455 C1456 1.398 . S
C1455 C1461 1.491 . S
C1456 H1447 0.950 . S
C1456 C1455 1.398 . S
C1456 C1457 1.391 . S
C1457 H1445 0.950 . S
C1457 C1453 1.393 . S
C1457 C1456 1.391 . S
C1458 H1448 0.950 . S
C1458 C1459 1.386 . S
C1458 C1460 1.391 . S
C1459 C1458 1.386 . S
C1459 C1463 1.393 . S
C1460 H1449 0.950 . S
C1460 C1458 1.391 . S
C1460 C1461 1.400 . S
C1461 C1455 1.491 . S
C1461 C1460 1.400 . S
C1461 C1462 1.398 . S
C1462 H1450 0.950 . S
C1462 C1461 1.398 . S
C1462 C1463 1.391 . S
C1463 H1451 0.950 . S
C1463 C1459 1.393 . S
C1463 C1462 1.391 . S
H1464 C1472 0.950 . S
H1465 C1477 0.950 . S
H1466 C1474 0.950 . S
H1467 C1476 0.950 . S
H1468 C1478 0.950 . S
H1469 C1480 0.950 . S
H1470 C1482 0.950 . S
H1471 C1483 0.950 . S
C1472 H1464 0.950 . S
C1472 C1473 1.386 . S
C1472 C1474 1.391 . S
C1473 C1472 1.386 . S
C1473 C1477 1.393 . S
C1474 H1466 0.950 . S
C1474 C1472 1.391 . S
C1474 C1475 1.400 . S
C1475 C1474 1.400 . S
C1475 C1476 1.398 . S
C1475 C1481 1.491 . S
C1476 H1467 0.950 . S
C1476 C1475 1.398 . S
C1476 C1477 1.391 . S
C1477 H1465 0.950 . S
C1477 C1473 1.393 . S
C1477 C1476 1.391 . S
C1478 H1468 0.950 . S
C1478 C1479 1.386 . S
C1478 C1480 1.391 . S
C1479 C1478 1.386 . S
C1479 C1483 1.393 . S
C1480 H1469 0.950 . S
C1480 C1478 1.391 . S
C1480 C1481 1.400 . S
C1481 C1475 1.491 . S
C1481 C1480 1.400 . S
C1481 C1482 1.398 . S
C1482 H1470 0.950 . S
C1482 C1481 1.398 . S
C1482 C1483 1.391 . S
C1483 H1471 0.950 . S
C1483 C1479 1.393 . S
C1483 C1482 1.391 . S
H1484 C1492 0.950 . S
H1485 C1497 0.950 . S
H1486 C1494 0.950 . S
H1487 C1496 0.950 . S
H1488 C1498 0.950 . S
H1489 C1500 0.958 . S
H1490 C1502 0.950 . S
H1491 C1503 0.950 . S
C1492 H1484 0.950 . S
C1492 C1493 1.386 . S
C1492 C1494 1.391 . S
C1493 C1492 1.386 . S
C1493 C1497 1.393 . S
C1494 H1486 0.950 . S
C1494 C1492 1.391 . S
C1494 C1495 1.400 . S
C1495 C1494 1.400 . S
C1495 C1496 1.398 . S
C1495 C1501 1.491 . S
C1496 H1487 0.950 . S
C1496 C1495 1.398 . S
C1496 C1497 1.391 . S
C1497 H1485 0.950 . S
C1497 C1493 1.393 . S
C1497 C1496 1.391 . S
C1498 H1488 0.950 . S
C1498 C1499 1.386 . S
C1498 C1500 1.418 . S
C1499 C1498 1.386 . S
C1499 C1503 1.393 1_655 S
C1500 H1489 0.958 . S
C1500 C1498 1.418 . S
C1500 C1501 1.366 1_655 S
C1501 C1495 1.491 . S
C1501 C1500 1.366 1_455 S
C1501 C1502 1.398 . S
C1502 H1490 0.950 . S
C1502 C1501 1.398 . S
C1502 C1503 1.391 . S
C1503 H1491 0.950 . S
C1503 C1499 1.393 1_455 S
C1503 C1502 1.391 . S
H1504 C1512 0.950 . S
H1505 C1517 0.950 . S
H1506 C1514 0.950 . S
H1507 C1516 0.950 . S
H1508 C1518 0.950 . S
H1509 C1520 0.950 . S
H1510 C1522 0.950 . S
H1511 C1523 0.950 . S
C1512 H1504 0.950 . S
C1512 C1513 1.386 . S
C1512 C1514 1.391 . S
C1513 C1512 1.386 . S
C1513 C1517 1.393 . S
C1514 H1506 0.950 . S
C1514 C1512 1.391 . S
C1514 C1515 1.400 . S
C1515 C1514 1.400 . S
C1515 C1516 1.398 . S
C1515 C1521 1.491 . S
C1516 H1507 0.950 . S
C1516 C1515 1.398 . S
C1516 C1517 1.391 . S
C1517 H1505 0.950 . S
C1517 C1513 1.393 . S
C1517 C1516 1.391 . S
C1518 H1508 0.950 . S
C1518 C1519 1.386 . S
C1518 C1520 1.391 . S
C1519 C1518 1.386 . S
C1519 C1523 1.393 . S
C1520 H1509 0.950 . S
C1520 C1518 1.391 . S
C1520 C1521 1.400 . S
C1521 C1515 1.491 . S
C1521 C1520 1.400 . S
C1521 C1522 1.398 . S
C1522 H1510 0.950 . S
C1522 C1521 1.398 . S
C1522 C1523 1.391 . S
C1523 H1511 0.950 . S
C1523 C1519 1.393 . S
C1523 C1522 1.391 . S
H1524 C1532 0.950 . S
H1525 C1537 0.950 . S
H1526 C1534 0.950 . S
H1527 C1536 0.950 . S
H1528 C1538 0.950 . S
H1529 C1540 0.950 . S
H1530 C1542 0.950 . S
H1531 C1543 0.950 . S
C1532 H1524 0.950 . S
C1532 C1533 1.386 . S
C1532 C1534 1.391 . S
C1533 C1532 1.386 . S
C1533 C1537 1.393 . S
C1534 H1526 0.950 . S
C1534 C1532 1.391 . S
C1534 C1535 1.400 . S
C1535 C1534 1.400 . S
C1535 C1536 1.398 . S
C1535 C1541 1.491 . S
C1536 H1527 0.950 . S
C1536 C1535 1.398 . S
C1536 C1537 1.391 . S
C1537 H1525 0.950 . S
C1537 C1533 1.393 . S
C1537 C1536 1.391 . S
C1538 H1528 0.950 . S
C1538 C1539 1.386 . S
C1538 C1540 1.391 . S
C1539 C1538 1.386 . S
C1539 C1543 1.393 . S
C1540 H1529 0.950 . S
C1540 C1538 1.391 . S
C1540 C1541 1.400 . S
C1541 C1535 1.491 . S
C1541 C1540 1.400 . S
C1541 C1542 1.398 . S
C1542 H1530 0.950 . S
C1542 C1541 1.398 . S
C1542 C1543 1.391 . S
C1543 H1531 0.950 . S
C1543 C1539 1.393 . S
C1543 C1542 1.391 . S
H1544 C1552 0.950 . S
H1545 C1557 0.950 . S
H1546 C1554 0.950 . S
H1547 C1556 0.950 . S
H1548 C1558 0.950 . S
H1549 C1560 0.950 . S
H1550 C1562 0.950 . S
H1551 C1563 0.950 . S
C1552 H1544 0.950 . S
C1552 C1553 1.386 . S
C1552 C1554 1.391 . S
C1553 C1552 1.386 . S
C1553 C1557 1.393 . S
C1554 H1546 0.950 . S
C1554 C1552 1.391 . S
C1554 C1555 1.400 . S
C1555 C1554 1.400 . S
C1555 C1556 1.398 . S
C1555 C1561 1.491 . S
C1556 H1547 0.950 . S
C1556 C1555 1.398 . S
C1556 C1557 1.391 . S
C1557 H1545 0.950 . S
C1557 C1553 1.393 . S
C1557 C1556 1.391 . S
C1558 H1548 0.950 . S
C1558 C1559 1.386 . S
C1558 C1560 1.391 . S
C1559 C1558 1.386 . S
C1559 C1563 1.393 . S
C1560 H1549 0.950 . S
C1560 C1558 1.391 . S
C1560 C1561 1.400 . S
C1561 C1555 1.491 . S
C1561 C1560 1.400 . S
C1561 C1562 1.398 . S
C1562 H1550 0.950 . S
C1562 C1561 1.398 . S
C1562 C1563 1.391 . S
C1563 H1551 0.950 . S
C1563 C1559 1.393 . S
C1563 C1562 1.391 . S
H1564 C1572 0.950 . S
H1565 C1577 0.950 . S
H1566 C1574 0.950 . S
H1567 C1576 0.950 . S
H1568 C1578 0.950 . S
H1569 C1580 0.950 . S
H1570 C1582 0.950 . S
H1571 C1583 0.950 . S
C1572 H1564 0.950 . S
C1572 C1573 1.386 . S
C1572 C1574 1.391 . S
C1573 C1572 1.386 . S
C1573 C1577 1.393 . S
C1574 H1566 0.950 . S
C1574 C1572 1.391 . S
C1574 C1575 1.400 . S
C1575 C1574 1.400 . S
C1575 C1576 1.398 . S
C1575 C1581 1.491 . S
C1576 H1567 0.950 . S
C1576 C1575 1.398 . S
C1576 C1577 1.391 . S
C1577 H1565 0.950 . S
C1577 C1573 1.393 . S
C1577 C1576 1.391 . S
C1578 H1568 0.950 . S
C1578 C1579 1.386 . S
C1578 C1580 1.391 1_554 S
C1579 C1578 1.386 . S
C1579 C1583 1.393 1_554 S
C1580 H1569 0.950 . S
C1580 C1578 1.391 1_556 S
C1580 C1581 1.400 . S
C1581 C1575 1.491 . S
C1581 C1580 1.400 . S
C1581 C1582 1.398 . S
C1582 H1570 0.950 . S
C1582 C1581 1.398 . S
C1582 C1583 1.391 . S
C1583 H1571 0.950 . S
C1583 C1579 1.393 1_556 S
C1583 C1582 1.391 . S
H1584 C1592 0.950 . S
H1585 C1597 0.950 . S
H1586 C1594 0.950 . S
H1587 C1596 0.950 . S
H1588 C1598 0.950 . S
H1589 C1600 0.950 . S
H1590 C1602 0.950 . S
H1591 C1603 0.950 . S
C1592 H1584 0.950 . S
C1592 C1593 1.386 . S
C1592 C1594 1.391 . S
C1593 C1592 1.386 . S
C1593 C1597 1.393 . S
C1594 H1586 0.950 . S
C1594 C1592 1.391 . S
C1594 C1595 1.400 . S
C1595 C1594 1.400 . S
C1595 C1596 1.398 . S
C1595 C1601 1.491 . S
C1596 H1587 0.950 . S
C1596 C1595 1.398 . S
C1596 C1597 1.391 . S
C1597 H1585 0.950 . S
C1597 C1593 1.393 . S
C1597 C1596 1.391 . S
C1598 H1588 0.950 . S
C1598 C1599 1.386 . S
C1598 C1600 1.391 . S
C1599 C1598 1.386 . S
C1599 C1603 1.393 . S
C1600 H1589 0.950 . S
C1600 C1598 1.391 . S
C1600 C1601 1.400 . S
C1601 C1595 1.491 . S
C1601 C1600 1.400 . S
C1601 C1602 1.398 . S
C1602 H1590 0.950 . S
C1602 C1601 1.398 . S
C1602 C1603 1.391 . S
C1603 H1591 0.950 . S
C1603 C1599 1.393 . S
C1603 C1602 1.391 . S
H1604 C1612 0.950 . S
H1605 C1617 0.950 . S
H1606 C1614 0.950 . S
H1607 C1616 0.950 . S
H1608 C1618 0.950 . S
H1609 C1620 0.950 . S
H1610 C1622 0.950 . S
H1611 C1623 0.950 . S
C1612 H1604 0.950 . S
C1612 C1613 1.386 . S
C1612 C1614 1.391 . S
C1613 C1612 1.386 . S
C1613 C1617 1.393 . S
C1614 H1606 0.950 . S
C1614 C1612 1.391 . S
C1614 C1615 1.400 . S
C1615 C1614 1.400 . S
C1615 C1616 1.398 . S
C1615 C1621 1.491 . S
C1616 H1607 0.950 . S
C1616 C1615 1.398 . S
C1616 C1617 1.391 . S
C1617 H1605 0.950 . S
C1617 C1613 1.393 . S
C1617 C1616 1.391 . S
C1618 H1608 0.950 . S
C1618 C1619 1.386 . S
C1618 C1620 1.391 . S
C1619 C1618 1.386 . S
C1619 C1623 1.393 . S
C1620 H1609 0.950 . S
C1620 C1618 1.391 . S
C1620 C1621 1.400 . S
C1621 C1615 1.491 . S
C1621 C1620 1.400 . S
C1621 C1622 1.398 . S
C1622 H1610 0.950 . S
C1622 C1621 1.398 . S
C1622 C1623 1.391 . S
C1623 H1611 0.950 . S
C1623 C1619 1.393 . S
C1623 C1622 1.391 . S
H1624 C1632 0.950 . S
H1625 C1637 0.950 . S
H1626 C1634 0.950 . S
H1627 C1636 0.950 . S
H1628 C1638 0.950 . S
H1629 C1640 0.950 . S
H1630 C1642 0.950 . S
H1631 C1643 0.950 . S
C1632 H1624 0.950 . S
C1632 C1633 1.386 . S
C1632 C1634 1.391 . S
C1633 C1632 1.386 . S
C1633 C1637 1.393 . S
C1634 H1626 0.950 . S
C1634 C1632 1.391 . S
C1634 C1635 1.400 . S
C1635 C1634 1.400 . S
C1635 C1636 1.398 . S
C1635 C1641 1.491 . S
C1636 H1627 0.950 . S
C1636 C1635 1.398 . S
C1636 C1637 1.391 . S
C1637 H1625 0.950 . S
C1637 C1633 1.393 . S
C1637 C1636 1.391 . S
C1638 H1628 0.950 . S
C1638 C1639 1.386 . S
C1638 C1640 1.391 . S
C1639 C1638 1.386 . S
C1639 C1643 1.393 . S
C1640 H1629 0.950 . S
C1640 C1638 1.391 . S
C1640 C1641 1.400 . S
C1641 C1635 1.491 . S
C1641 C1640 1.400 . S
C1641 C1642 1.398 . S
C1642 H1630 0.950 . S
C1642 C1641 1.398 . S
C1642 C1643 1.391 . S
C1643 H1631 0.950 . S
C1643 C1639 1.393 . S
C1643 C1642 1.391 . S
H1644 C1652 0.950 . S
H1645 C1657 0.950 . S
H1646 C1654 0.950 . S
H1647 C1656 0.950 . S
H1648 C1658 0.950 . S
H1649 C1660 0.950 . S
H1650 C1662 0.950 . S
H1651 C1663 0.950 . S
C1652 H1644 0.950 . S
C1652 C1653 1.386 . S
C1652 C1654 1.391 . S
C1653 C1652 1.386 . S
C1653 C1657 1.393 . S
C1654 H1646 0.950 . S
C1654 C1652 1.391 . S
C1654 C1655 1.400 . S
C1655 C1654 1.400 . S
C1655 C1656 1.398 . S
C1655 C1661 1.491 . S
C1656 H1647 0.950 . S
C1656 C1655 1.398 . S
C1656 C1657 1.391 . S
C1657 H1645 0.950 . S
C1657 C1653 1.393 . S
C1657 C1656 1.391 . S
C1658 H1648 0.950 . S
C1658 C1659 1.386 . S
C1658 C1660 1.391 1_556 S
C1659 C1658 1.386 . S
C1659 C1663 1.393 . S
C1660 H1649 0.950 . S
C1660 C1658 1.391 1_554 S
C1660 C1661 1.400 . S
C1661 C1655 1.491 . S
C1661 C1660 1.400 . S
C1661 C1662 1.398 . S
C1662 H1650 0.950 . S
C1662 C1661 1.398 . S
C1662 C1663 1.391 1_554 S
C1663 H1651 0.950 . S
C1663 C1659 1.393 . S
C1663 C1662 1.391 1_556 S
H1664 C1672 0.950 . S
H1665 C1677 0.950 . S
H1666 C1674 0.950 . S
H1667 C1676 0.950 . S
H1668 C1678 0.950 . S
H1669 C1680 0.950 . S
H1670 C1682 0.950 . S
H1671 C1683 0.950 . S
C1672 H1664 0.950 . S
C1672 C1673 1.386 . S
C1672 C1674 1.391 . S
C1673 C1672 1.386 . S
C1673 C1677 1.393 . S
C1674 H1666 0.950 . S
C1674 C1672 1.391 . S
C1674 C1675 1.400 . S
C1675 C1674 1.400 . S
C1675 C1676 1.398 . S
C1675 C1681 1.491 . S
C1676 H1667 0.950 . S
C1676 C1675 1.398 . S
C1676 C1677 1.391 . S
C1677 H1665 0.950 . S
C1677 C1673 1.393 . S
C1677 C1676 1.391 . S
C1678 H1668 0.950 . S
C1678 C1679 1.386 . S
C1678 C1680 1.391 . S
C1679 C1678 1.386 . S
C1679 C1683 1.393 . S
C1680 H1669 0.950 . S
C1680 C1678 1.391 . S
C1680 C1681 1.400 . S
C1681 C1675 1.491 . S
C1681 C1680 1.400 . S
C1681 C1682 1.398 . S
C1682 H1670 0.950 . S
C1682 C1681 1.398 . S
C1682 C1683 1.391 . S
C1683 H1671 0.950 . S
C1683 C1679 1.393 . S
C1683 C1682 1.391 . S
H1684 C1692 0.950 . S
H1685 C1697 0.950 . S
H1686 C1694 0.950 . S
H1687 C1696 0.950 . S
H1688 C1698 0.950 . S
H1689 C1700 0.950 . S
H1690 C1702 0.950 . S
H1691 C1703 0.950 . S
C1692 H1684 0.950 . S
C1692 C1693 1.386 . S
C1692 C1694 1.391 . S
C1693 C1692 1.386 . S
C1693 C1697 1.393 . S
C1694 H1686 0.950 . S
C1694 C1692 1.391 . S
C1694 C1695 1.400 . S
C1695 C1694 1.400 . S
C1695 C1696 1.398 . S
C1695 C1701 1.491 . S
C1696 H1687 0.950 . S
C1696 C1695 1.398 . S
C1696 C1697 1.391 . S
C1697 H1685 0.950 . S
C1697 C1693 1.393 . S
C1697 C1696 1.391 . S
C1698 H1688 0.950 . S
C1698 C1699 1.386 . S
C1698 C1700 1.391 . S
C1699 C1698 1.386 . S
C1699 C1703 1.393 . S
C1700 H1689 0.950 . S
C1700 C1698 1.391 . S
C1700 C1701 1.400 . S
C1701 C1695 1.491 . S
C1701 C1700 1.400 . S
C1701 C1702 1.398 . S
C1702 H1690 0.950 . S
C1702 C1701 1.398 . S
C1702 C1703 1.391 . S
C1703 H1691 0.950 . S
C1703 C1699 1.393 . S
C1703 C1702 1.391 . S
H1704 C1712 0.950 . S
H1705 C1717 0.950 . S
H1706 C1714 0.950 . S
H1707 C1716 0.950 . S
H1708 C1718 0.950 . S
H1709 C1720 0.950 . S
H1710 C1722 0.950 . S
H1711 C1723 0.950 . S
C1712 H1704 0.950 . S
C1712 C1713 1.386 . S
C1712 C1714 1.391 . S
C1713 C1712 1.386 . S
C1713 C1717 1.393 . S
C1714 H1706 0.950 . S
C1714 C1712 1.391 . S
C1714 C1715 1.400 . S
C1715 C1714 1.400 . S
C1715 C1716 1.398 . S
C1715 C1721 1.491 . S
C1716 H1707 0.950 . S
C1716 C1715 1.398 . S
C1716 C1717 1.391 . S
C1717 H1705 0.950 . S
C1717 C1713 1.393 . S
C1717 C1716 1.391 . S
C1718 H1708 0.950 . S
C1718 C1719 1.386 . S
C1718 C1720 1.391 . S
C1719 C1718 1.386 . S
C1719 C1723 1.393 . S
C1720 H1709 0.950 . S
C1720 C1718 1.391 . S
C1720 C1721 1.400 . S
C1721 C1715 1.491 . S
C1721 C1720 1.400 . S
C1721 C1722 1.398 . S
C1722 H1710 0.950 . S
C1722 C1721 1.398 . S
C1722 C1723 1.391 . S
C1723 H1711 0.950 . S
C1723 C1719 1.393 . S
C1723 C1722 1.391 . S
H1724 C1732 0.950 . S
H1725 C1737 0.950 . S
H1726 C1734 0.950 . S
H1727 C1736 0.950 . S
H1728 C1738 0.950 . S
H1729 C1740 0.950 . S
H1730 C1742 0.950 . S
H1731 C1743 0.950 . S
C1732 H1724 0.950 . S
C1732 C1733 1.386 . S
C1732 C1734 1.391 . S
C1733 C1732 1.386 . S
C1733 C1737 1.393 . S
C1734 H1726 0.950 . S
C1734 C1732 1.391 . S
C1734 C1735 1.400 . S
C1735 C1734 1.400 . S
C1735 C1736 1.398 . S
C1735 C1741 1.491 . S
C1736 H1727 0.950 . S
C1736 C1735 1.398 . S
C1736 C1737 1.391 . S
C1737 H1725 0.950 . S
C1737 C1733 1.393 . S
C1737 C1736 1.391 . S
C1738 H1728 0.950 . S
C1738 C1739 1.386 . S
C1738 C1740 1.391 . S
C1739 C1738 1.386 . S
C1739 C1743 1.393 . S
C1740 H1729 0.950 . S
C1740 C1738 1.391 . S
C1740 C1741 1.400 . S
C1741 C1735 1.491 . S
C1741 C1740 1.400 . S
C1741 C1742 1.398 . S
C1742 H1730 0.950 . S
C1742 C1741 1.398 . S
C1742 C1743 1.391 . S
C1743 H1731 0.950 . S
C1743 C1739 1.393 . S
C1743 C1742 1.391 . S
H1744 C1752 0.950 . S
H1745 C1757 0.950 . S
H1746 C1754 0.950 . S
H1747 C1756 0.950 . S
H1748 C1758 0.950 . S
H1749 C1760 0.950 . S
H1750 C1762 0.950 . S
H1751 C1763 0.950 . S
C1752 H1744 0.950 . S
C1752 C1753 1.386 . S
C1752 C1754 1.391 . S
C1753 C1752 1.386 . S
C1753 C1757 1.393 . S
C1754 H1746 0.950 . S
C1754 C1752 1.391 . S
C1754 C1755 1.400 . S
C1755 C1754 1.400 . S
C1755 C1756 1.398 . S
C1755 C1761 1.491 . S
C1756 H1747 0.950 . S
C1756 C1755 1.398 . S
C1756 C1757 1.391 . S
C1757 H1745 0.950 . S
C1757 C1753 1.393 . S
C1757 C1756 1.391 . S
C1758 H1748 0.950 . S
C1758 C1759 1.386 . S
C1758 C1760 1.391 1_565 S
C1759 C1758 1.386 . S
C1759 C1763 1.393 . S
C1760 H1749 0.950 . S
C1760 C1758 1.391 1_545 S
C1760 C1761 1.400 . S
C1761 C1755 1.491 . S
C1761 C1760 1.400 . S
C1761 C1762 1.398 . S
C1762 H1750 0.950 . S
C1762 C1761 1.398 . S
C1762 C1763 1.391 1_545 S
C1763 H1751 0.950 . S
C1763 C1759 1.393 . S
C1763 C1762 1.391 1_565 S
H1764 C1772 0.950 . S
H1765 C1777 0.950 . S
H1766 C1774 0.950 . S
H1767 C1776 0.950 . S
H1768 C1778 0.950 . S
H1769 C1780 0.950 . S
H1770 C1782 0.950 . S
H1771 C1783 0.950 . S
C1772 H1764 0.950 . S
C1772 C1773 1.386 . S
C1772 C1774 1.391 . S
C1773 C1772 1.386 . S
C1773 C1777 1.393 . S
C1774 H1766 0.950 . S
C1774 C1772 1.391 . S
C1774 C1775 1.400 . S
C1775 C1774 1.400 . S
C1775 C1776 1.398 . S
C1775 C1781 1.491 . S
C1776 H1767 0.950 . S
C1776 C1775 1.398 . S
C1776 C1777 1.391 . S
C1777 H1765 0.950 . S
C1777 C1773 1.393 . S
C1777 C1776 1.391 . S
C1778 H1768 0.950 . S
C1778 C1779 1.386 . S
C1778 C1780 1.391 . S
C1779 C1778 1.386 . S
C1779 C1783 1.393 . S
C1780 H1769 0.950 . S
C1780 C1778 1.391 . S
C1780 C1781 1.400 . S
C1781 C1775 1.491 . S
C1781 C1780 1.400 . S
C1781 C1782 1.398 . S
C1782 H1770 0.950 . S
C1782 C1781 1.398 . S
C1782 C1783 1.391 . S
C1783 H1771 0.950 . S
C1783 C1779 1.393 . S
C1783 C1782 1.391 . S
H1784 C1792 0.950 . S
H1785 C1797 0.950 . S
H1786 C1794 0.950 . S
H1787 C1796 0.950 . S
H1788 C1798 0.950 . S
H1789 C1800 0.950 . S
H1790 C1802 0.950 . S
H1791 C1803 0.950 . S
C1792 H1784 0.950 . S
C1792 C1793 1.386 . S
C1792 C1794 1.391 . S
C1793 C1792 1.386 . S
C1793 C1797 1.393 . S
C1794 H1786 0.950 . S
C1794 C1792 1.391 . S
C1794 C1795 1.400 . S
C1795 C1794 1.400 . S
C1795 C1796 1.398 . S
C1795 C1801 1.491 . S
C1796 H1787 0.950 . S
C1796 C1795 1.398 . S
C1796 C1797 1.391 . S
C1797 H1785 0.950 . S
C1797 C1793 1.393 . S
C1797 C1796 1.391 . S
C1798 H1788 0.950 . S
C1798 C1799 1.386 . S
C1798 C1800 1.391 . S
C1799 C1798 1.386 . S
C1799 C1803 1.393 . S
C1800 H1789 0.950 . S
C1800 C1798 1.391 . S
C1800 C1801 1.400 . S
C1801 C1795 1.491 . S
C1801 C1800 1.400 . S
C1801 C1802 1.398 . S
C1802 H1790 0.950 . S
C1802 C1801 1.398 . S
C1802 C1803 1.391 . S
C1803 H1791 0.950 . S
C1803 C1799 1.393 . S
C1803 C1802 1.391 . S
H1804 C1812 0.950 . S
H1805 C1817 0.950 . S
H1806 C1814 0.950 . S
H1807 C1816 0.950 . S
H1808 C1818 0.950 . S
H1809 C1820 0.950 . S
H1810 C1822 0.950 . S
H1811 C1823 0.950 . S
C1812 H1804 0.950 . S
C1812 C1813 1.386 . S
C1812 C1814 1.391 . S
C1813 C1812 1.386 . S
C1813 C1817 1.393 . S
C1814 H1806 0.950 . S
C1814 C1812 1.391 . S
C1814 C1815 1.400 . S
C1815 C1814 1.400 . S
C1815 C1816 1.398 . S
C1815 C1821 1.491 . S
C1816 H1807 0.950 . S
C1816 C1815 1.398 . S
C1816 C1817 1.391 . S
C1817 H1805 0.950 . S
C1817 C1813 1.393 . S
C1817 C1816 1.391 . S
C1818 H1808 0.950 . S
C1818 C1819 1.386 . S
C1818 C1820 1.391 . S
C1819 C1818 1.386 . S
C1819 C1823 1.393 . S
C1820 H1809 0.950 . S
C1820 C1818 1.391 . S
C1820 C1821 1.400 . S
C1821 C1815 1.491 . S
C1821 C1820 1.400 . S
C1821 C1822 1.398 . S
C1822 H1810 0.950 . S
C1822 C1821 1.398 . S
C1822 C1823 1.391 . S
C1823 H1811 0.950 . S
C1823 C1819 1.393 . S
C1823 C1822 1.391 . S
H1824 C1832 0.950 . S
H1825 C1837 0.950 . S
H1826 C1834 0.950 . S
H1827 C1836 0.950 . S
H1828 C1838 0.950 . S
H1829 C1840 0.950 . S
H1830 C1842 0.950 . S
H1831 C1843 0.950 . S
C1832 H1824 0.950 . S
C1832 C1833 1.386 . S
C1832 C1834 1.391 . S
C1833 C1832 1.386 . S
C1833 C1837 1.393 . S
C1834 H1826 0.950 . S
C1834 C1832 1.391 . S
C1834 C1835 1.400 . S
C1835 C1834 1.400 . S
C1835 C1836 1.398 . S
C1835 C1841 1.491 . S
C1836 H1827 0.950 . S
C1836 C1835 1.398 . S
C1836 C1837 1.391 . S
C1837 H1825 0.950 . S
C1837 C1833 1.393 . S
C1837 C1836 1.391 . S
C1838 H1828 0.950 . S
C1838 C1839 1.386 . S
C1838 C1840 1.391 . S
C1839 C1838 1.386 . S
C1839 C1843 1.393 . S
C1840 H1829 0.950 . S
C1840 C1838 1.391 . S
C1840 C1841 1.400 . S
C1841 C1835 1.491 . S
C1841 C1840 1.400 . S
C1841 C1842 1.398 . S
C1842 H1830 0.950 . S
C1842 C1841 1.398 . S
C1842 C1843 1.391 . S
C1843 H1831 0.950 . S
C1843 C1839 1.393 . S
C1843 C1842 1.391 . S
H1844 C1852 0.950 . S
H1845 C1857 0.950 . S
H1846 C1854 0.949 . S
H1847 C1856 0.950 . S
H1848 C1858 0.950 . S
H1849 C1860 0.950 . S
H1850 C1862 0.950 . S
H1851 C1863 0.950 . S
C1852 H1844 0.950 . S
C1852 C1853 1.386 . S
C1852 C1854 1.391 1_455 S
C1853 C1852 1.386 . S
C1853 C1857 1.393 1_455 S
C1854 H1846 0.949 . S
C1854 C1852 1.391 1_655 S
C1854 C1855 1.400 . S
C1855 C1854 1.400 . S
C1855 C1856 1.398 . S
C1855 C1861 1.491 . S
C1856 H1847 0.950 . S
C1856 C1855 1.398 . S
C1856 C1857 1.391 . S
C1857 H1845 0.950 . S
C1857 C1853 1.393 1_655 S
C1857 C1856 1.391 . S
C1858 H1848 0.950 . S
C1858 C1859 1.386 . S
C1858 C1860 1.391 . S
C1859 C1858 1.386 . S
C1859 C1863 1.393 . S
C1860 H1849 0.950 . S
C1860 C1858 1.391 . S
C1860 C1861 1.400 . S
C1861 C1855 1.491 . S
C1861 C1860 1.400 . S
C1861 C1862 1.398 . S
C1862 H1850 0.950 . S
C1862 C1861 1.398 . S
C1862 C1863 1.391 . S
C1863 H1851 0.950 . S
C1863 C1859 1.393 . S
C1863 C1862 1.391 . S
H1864 C1872 0.950 . S
H1865 C1877 0.950 . S
H1866 C1874 0.950 . S
H1867 C1876 0.950 . S
H1868 C1878 0.950 . S
H1869 C1880 0.950 . S
H1870 C1882 0.950 . S
H1871 C1883 0.950 . S
C1872 H1864 0.950 . S
C1872 C1873 1.386 . S
C1872 C1874 1.391 . S
C1873 C1872 1.386 . S
C1873 C1877 1.393 . S
C1874 H1866 0.950 . S
C1874 C1872 1.391 . S
C1874 C1875 1.400 . S
C1875 C1874 1.400 . S
C1875 C1876 1.398 . S
C1875 C1881 1.491 . S
C1876 H1867 0.950 . S
C1876 C1875 1.398 . S
C1876 C1877 1.391 . S
C1877 H1865 0.950 . S
C1877 C1873 1.393 . S
C1877 C1876 1.391 . S
C1878 H1868 0.950 . S
C1878 C1879 1.386 . S
C1878 C1880 1.391 . S
C1879 C1878 1.386 . S
C1879 C1883 1.393 . S
C1880 H1869 0.950 . S
C1880 C1878 1.391 . S
C1880 C1881 1.400 . S
C1881 C1875 1.491 . S
C1881 C1880 1.400 . S
C1881 C1882 1.398 . S
C1882 H1870 0.950 . S
C1882 C1881 1.398 . S
C1882 C1883 1.391 . S
C1883 H1871 0.950 . S
C1883 C1879 1.393 . S
C1883 C1882 1.391 . S
H1884 C1892 0.950 . S
H1885 C1897 0.950 . S
H1886 C1894 0.950 . S
H1887 C1896 0.950 . S
H1888 C1898 0.950 . S
H1889 C1900 0.950 . S
H1890 C1902 0.950 . S
H1891 C1903 0.950 . S
C1892 H1884 0.950 . S
C1892 C1893 1.386 . S
C1892 C1894 1.391 . S
C1893 C1892 1.386 . S
C1893 C1897 1.393 . S
C1894 H1886 0.950 . S
C1894 C1892 1.391 . S
C1894 C1895 1.400 . S
C1895 C1894 1.400 . S
C1895 C1896 1.398 . S
C1895 C1901 1.491 . S
C1896 H1887 0.950 . S
C1896 C1895 1.398 . S
C1896 C1897 1.391 . S
C1897 H1885 0.950 . S
C1897 C1893 1.393 . S
C1897 C1896 1.391 . S
C1898 H1888 0.950 . S
C1898 C1899 1.386 . S
C1898 C1900 1.391 . S
C1899 C1898 1.386 . S
C1899 C1903 1.393 . S
C1900 H1889 0.950 . S
C1900 C1898 1.391 . S
C1900 C1901 1.400 . S
C1901 C1895 1.491 . S
C1901 C1900 1.400 . S
C1901 C1902 1.398 . S
C1902 H1890 0.950 . S
C1902 C1901 1.398 . S
C1902 C1903 1.391 . S
C1903 H1891 0.950 . S
C1903 C1899 1.393 . S
C1903 C1902 1.391 . S
H1904 C1912 0.950 . S
H1905 C1917 0.950 . S
H1906 C1914 0.950 . S
H1907 C1916 0.950 . S
H1908 C1918 0.950 . S
H1909 C1920 0.950 . S
H1910 C1922 0.950 . S
H1911 C1923 0.950 . S
C1912 H1904 0.950 . S
C1912 C1913 1.386 . S
C1912 C1914 1.391 . S
C1913 C1912 1.386 . S
C1913 C1917 1.393 . S
C1914 H1906 0.950 . S
C1914 C1912 1.391 . S
C1914 C1915 1.400 . S
C1915 C1914 1.400 . S
C1915 C1916 1.398 . S
C1915 C1921 1.491 . S
C1916 H1907 0.950 . S
C1916 C1915 1.398 . S
C1916 C1917 1.391 . S
C1917 H1905 0.950 . S
C1917 C1913 1.393 . S
C1917 C1916 1.391 . S
C1918 H1908 0.950 . S
C1918 C1919 1.386 . S
C1918 C1920 1.391 . S
C1919 C1918 1.386 . S
C1919 C1923 1.393 . S
C1920 H1909 0.950 . S
C1920 C1918 1.391 . S
C1920 C1921 1.400 . S
C1921 C1915 1.491 . S
C1921 C1920 1.400 . S
C1921 C1922 1.398 . S
C1922 H1910 0.950 . S
C1922 C1921 1.398 . S
C1922 C1923 1.391 . S
C1923 H1911 0.950 . S
C1923 C1919 1.393 . S
C1923 C1922 1.391 . S
H1924 C1932 0.950 . S
H1925 C1937 0.950 . S
H1926 C1934 0.950 . S
H1927 C1936 0.950 . S
H1928 C1938 0.950 . S
H1929 C1940 0.950 . S
H1930 C1942 0.950 . S
H1931 C1943 0.950 . S
C1932 H1924 0.950 . S
C1932 C1933 1.386 . S
C1932 C1934 1.391 . S
C1933 C1932 1.386 . S
C1933 C1937 1.393 . S
C1934 H1926 0.950 . S
C1934 C1932 1.391 . S
C1934 C1935 1.400 . S
C1935 C1934 1.400 . S
C1935 C1936 1.398 . S
C1935 C1941 1.491 . S
C1936 H1927 0.950 . S
C1936 C1935 1.398 . S
C1936 C1937 1.391 . S
C1937 H1925 0.950 . S
C1937 C1933 1.393 . S
C1937 C1936 1.391 . S
C1938 H1928 0.950 . S
C1938 C1939 1.386 . S
C1938 C1940 1.391 . S
C1939 C1938 1.386 . S
C1939 C1943 1.393 . S
C1940 H1929 0.950 . S
C1940 C1938 1.391 . S
C1940 C1941 1.400 . S
C1941 C1935 1.491 . S
C1941 C1940 1.400 . S
C1941 C1942 1.398 . S
C1942 H1930 0.950 . S
C1942 C1941 1.398 . S
C1942 C1943 1.391 . S
C1943 H1931 0.950 . S
C1943 C1939 1.393 . S
C1943 C1942 1.391 . S
H1944 C1952 0.950 . S
H1945 C1957 0.950 . S
H1946 C1954 0.950 . S
H1947 C1956 0.950 . S
H1948 C1958 0.950 . S
H1949 C1960 0.950 . S
H1950 C1962 0.950 . S
H1951 C1963 0.950 . S
C1952 H1944 0.950 . S
C1952 C1953 1.386 . S
C1952 C1954 1.391 . S
C1953 C1952 1.386 . S
C1953 C1957 1.393 . S
C1954 H1946 0.950 . S
C1954 C1952 1.391 . S
C1954 C1955 1.400 . S
C1955 C1954 1.400 . S
C1955 C1956 1.398 . S
C1955 C1961 1.491 . S
C1956 H1947 0.950 . S
C1956 C1955 1.398 . S
C1956 C1957 1.391 . S
C1957 H1945 0.950 . S
C1957 C1953 1.393 . S
C1957 C1956 1.391 . S
C1958 H1948 0.950 . S
C1958 C1959 1.386 . S
C1958 C1960 1.391 . S
C1959 C1958 1.386 . S
C1959 C1963 1.393 . S
C1960 H1949 0.950 . S
C1960 C1958 1.391 . S
C1960 C1961 1.400 . S
C1961 C1955 1.491 . S
C1961 C1960 1.400 . S
C1961 C1962 1.398 . S
C1962 H1950 0.950 . S
C1962 C1961 1.398 . S
C1962 C1963 1.391 . S
C1963 H1951 0.950 . S
C1963 C1959 1.393 . S
C1963 C1962 1.391 . S
H1964 C1972 0.950 . S
H1965 C1977 0.950 . S
H1966 C1974 0.950 . S
H1967 C1976 0.950 . S
H1968 C1978 0.950 . S
H1969 C1980 0.950 . S
H1970 C1982 0.954 . S
H1971 C1983 0.950 . S
C1972 H1964 0.950 . S
C1972 C1973 1.386 . S
C1972 C1974 1.391 . S
C1973 C1972 1.386 . S
C1973 C1977 1.393 . S
C1974 H1966 0.950 . S
C1974 C1972 1.391 . S
C1974 C1975 1.400 . S
C1975 C1974 1.400 . S
C1975 C1976 1.398 . S
C1975 C1981 1.491 . S
C1976 H1967 0.950 . S
C1976 C1975 1.398 . S
C1976 C1977 1.391 . S
C1977 H1965 0.950 . S
C1977 C1973 1.393 . S
C1977 C1976 1.391 . S
C1978 H1968 0.950 . S
C1978 C1979 1.386 1_655 S
C1978 C1980 1.391 . S
C1979 C1978 1.386 1_455 S
C1979 C1983 1.393 . S
C1980 H1969 0.950 . S
C1980 C1978 1.391 . S
C1980 C1981 1.400 . S
C1981 C1975 1.491 . S
C1981 C1980 1.400 . S
C1981 C1982 1.380 1_655 S
C1982 H1970 0.954 . S
C1982 C1981 1.380 1_455 S
C1982 C1983 1.406 . S
C1983 H1971 0.950 . S
C1983 C1979 1.393 . S
C1983 C1982 1.406 . S
H1984 C1992 0.950 . S
H1985 C1997 0.950 . S
H1986 C1994 0.950 . S
H1987 C1996 0.950 . S
H1988 C1998 0.950 . S
H1989 C2000 0.950 . S
H1990 C2002 0.950 . S
H1991 C2003 0.950 . S
C1992 H1984 0.950 . S
C1992 C1993 1.386 . S
C1992 C1994 1.391 . S
C1993 C1992 1.386 . S
C1993 C1997 1.393 . S
C1994 H1986 0.950 . S
C1994 C1992 1.391 . S
C1994 C1995 1.400 . S
C1995 C1994 1.400 . S
C1995 C1996 1.398 . S
C1995 C2001 1.491 . S
C1996 H1987 0.950 . S
C1996 C1995 1.398 . S
C1996 C1997 1.391 . S
C1997 H1985 0.950 . S
C1997 C1993 1.393 . S
C1997 C1996 1.391 . S
C1998 H1988 0.950 . S
C1998 C1999 1.386 . S
C1998 C2000 1.391 . S
C1999 C1998 1.386 . S
C1999 C2003 1.393 . S
C2000 H1989 0.950 . S
C2000 C1998 1.391 . S
C2000 C2001 1.400 . S
C2001 C1995 1.491 . S
C2001 C2000 1.400 . S
C2001 C2002 1.398 . S
C2002 H1990 0.950 . S
C2002 C2001 1.398 . S
C2002 C2003 1.391 . S
C2003 H1991 0.950 . S
C2003 C1999 1.393 . S
C2003 C2002 1.391 . S
H2004 C2012 0.950 . S
H2005 C2017 0.950 . S
H2006 C2014 0.950 . S
H2007 C2016 0.950 . S
H2008 C2018 0.950 . S
H2009 C2020 0.950 . S
H2010 C2022 0.950 . S
H2011 C2023 0.950 . S
C2012 H2004 0.950 . S
C2012 C2013 1.386 . S
C2012 C2014 1.391 . S
C2013 C2012 1.386 . S
C2013 C2017 1.393 . S
C2014 H2006 0.950 . S
C2014 C2012 1.391 . S
C2014 C2015 1.400 . S
C2015 C2014 1.400 . S
C2015 C2016 1.398 . S
C2015 C2021 1.491 . S
C2016 H2007 0.950 . S
C2016 C2015 1.398 . S
C2016 C2017 1.391 . S
C2017 H2005 0.950 . S
C2017 C2013 1.393 . S
C2017 C2016 1.391 . S
C2018 H2008 0.950 . S
C2018 C2019 1.386 . S
C2018 C2020 1.391 . S
C2019 C2018 1.386 . S
C2019 C2023 1.393 . S
C2020 H2009 0.950 . S
C2020 C2018 1.391 . S
C2020 C2021 1.400 . S
C2021 C2015 1.491 . S
C2021 C2020 1.400 . S
C2021 C2022 1.398 . S
C2022 H2010 0.950 . S
C2022 C2021 1.398 . S
C2022 C2023 1.391 . S
C2023 H2011 0.950 . S
C2023 C2019 1.393 . S
C2023 C2022 1.391 . S
H2024 C2032 0.950 . S
H2025 C2037 0.950 . S
H2026 C2034 0.950 . S
H2027 C2036 0.950 . S
H2028 C2038 0.950 . S
H2029 C2040 0.950 . S
H2030 C2042 0.950 . S
H2031 C2043 0.950 . S
C2032 H2024 0.950 . S
C2032 C2033 1.386 . S
C2032 C2034 1.391 . S
C2033 C2032 1.386 . S
C2033 C2037 1.393 . S
C2034 H2026 0.950 . S
C2034 C2032 1.391 . S
C2034 C2035 1.400 . S
C2035 C2034 1.400 . S
C2035 C2036 1.398 . S
C2035 C2041 1.491 . S
C2036 H2027 0.950 . S
C2036 C2035 1.398 . S
C2036 C2037 1.391 . S
C2037 H2025 0.950 . S
C2037 C2033 1.393 . S
C2037 C2036 1.391 . S
C2038 H2028 0.950 . S
C2038 C2039 1.386 . S
C2038 C2040 1.391 . S
C2039 C2038 1.386 . S
C2039 C2043 1.393 . S
C2040 H2029 0.950 . S
C2040 C2038 1.391 . S
C2040 C2041 1.400 . S
C2041 C2035 1.491 . S
C2041 C2040 1.400 . S
C2041 C2042 1.398 . S
C2042 H2030 0.950 . S
C2042 C2041 1.398 . S
C2042 C2043 1.391 . S
C2043 H2031 0.950 . S
C2043 C2039 1.393 . S
C2043 C2042 1.391 . S
H2044 C2052 0.950 . S
H2045 C2057 0.950 . S
H2046 C2054 0.950 . S
H2047 C2056 0.952 . S
H2048 C2058 0.950 . S
H2049 C2060 0.950 . S
H2050 C2062 0.950 . S
H2051 C2063 0.950 . S
C2052 H2044 0.950 . S
C2052 C2053 1.386 1_554 S
C2052 C2054 1.391 . S
C2053 C2052 1.386 1_556 S
C2053 C2057 1.393 . S
C2054 H2046 0.950 . S
C2054 C2052 1.391 . S
C2054 C2055 1.400 . S
C2055 C2054 1.400 . S
C2055 C2056 1.388 1_554 S
C2055 C2061 1.491 . S
C2056 H2047 0.952 . S
C2056 C2055 1.388 1_556 S
C2056 C2057 1.399 . S
C2057 H2045 0.950 . S
C2057 C2053 1.393 . S
C2057 C2056 1.399 . S
C2058 H2048 0.950 . S
C2058 C2059 1.386 . S
C2058 C2060 1.391 . S
C2059 C2058 1.386 . S
C2059 C2063 1.393 . S
C2060 H2049 0.950 . S
C2060 C2058 1.391 . S
C2060 C2061 1.400 . S
C2061 C2055 1.491 . S
C2061 C2060 1.400 . S
C2061 C2062 1.398 . S
C2062 H2050 0.950 . S
C2062 C2061 1.398 . S
C2062 C2063 1.391 . S
C2063 H2051 0.950 . S
C2063 C2059 1.393 . S
C2063 C2062 1.391 . S
H2064 C2072 0.950 . S
H2065 C2077 0.950 . S
H2066 C2074 0.950 . S
H2067 C2076 0.950 . S
H2068 C2078 0.950 . S
H2069 C2080 0.950 . S
H2070 C2082 0.950 . S
H2071 C2083 0.950 . S
C2072 H2064 0.950 . S
C2072 C2073 1.386 . S
C2072 C2074 1.391 . S
C2073 C2072 1.386 . S
C2073 C2077 1.393 . S
C2074 H2066 0.950 . S
C2074 C2072 1.391 . S
C2074 C2075 1.400 . S
C2075 C2074 1.400 . S
C2075 C2076 1.398 . S
C2075 C2081 1.491 . S
C2076 H2067 0.950 . S
C2076 C2075 1.398 . S
C2076 C2077 1.391 . S
C2077 H2065 0.950 . S
C2077 C2073 1.393 . S
C2077 C2076 1.391 . S
C2078 H2068 0.950 . S
C2078 C2079 1.386 . S
C2078 C2080 1.391 . S
C2079 C2078 1.386 . S
C2079 C2083 1.393 . S
C2080 H2069 0.950 . S
C2080 C2078 1.391 . S
C2080 C2081 1.400 . S
C2081 C2075 1.491 . S
C2081 C2080 1.400 . S
C2081 C2082 1.398 . S
C2082 H2070 0.950 . S
C2082 C2081 1.398 . S
C2082 C2083 1.391 . S
C2083 H2071 0.950 . S
C2083 C2079 1.393 . S
C2083 C2082 1.391 . S
H2084 C2092 0.950 . S
H2085 C2097 0.950 . S
H2086 C2094 0.950 . S
H2087 C2096 0.950 . S
H2088 C2098 0.950 . S
H2089 C2100 0.950 . S
H2090 C2102 0.950 . S
H2091 C2103 0.950 . S
C2092 H2084 0.950 . S
C2092 C2093 1.386 . S
C2092 C2094 1.391 . S
C2093 C2092 1.386 . S
C2093 C2097 1.393 . S
C2094 H2086 0.950 . S
C2094 C2092 1.391 . S
C2094 C2095 1.400 . S
C2095 C2094 1.400 . S
C2095 C2096 1.398 . S
C2095 C2101 1.491 . S
C2096 H2087 0.950 . S
C2096 C2095 1.398 . S
C2096 C2097 1.391 . S
C2097 H2085 0.950 . S
C2097 C2093 1.393 . S
C2097 C2096 1.391 . S
C2098 H2088 0.950 . S
C2098 C2099 1.386 . S
C2098 C2100 1.391 . S
C2099 C2098 1.386 . S
C2099 C2103 1.393 . S
C2100 H2089 0.950 . S
C2100 C2098 1.391 . S
C2100 C2101 1.400 . S
C2101 C2095 1.491 . S
C2101 C2100 1.400 . S
C2101 C2102 1.398 . S
C2102 H2090 0.950 . S
C2102 C2101 1.398 . S
C2102 C2103 1.391 . S
C2103 H2091 0.950 . S
C2103 C2099 1.393 . S
C2103 C2102 1.391 . S
H2104 C2112 0.950 . S
H2105 C2117 0.950 . S
H2106 C2114 0.950 . S
H2107 C2116 0.950 . S
H2108 C2118 0.950 . S
H2109 C2120 0.950 . S
H2110 C2122 0.950 . S
H2111 C2123 0.950 . S
C2112 H2104 0.950 . S
C2112 C2113 1.386 . S
C2112 C2114 1.391 . S
C2113 C2112 1.386 . S
C2113 C2117 1.393 . S
C2114 H2106 0.950 . S
C2114 C2112 1.391 . S
C2114 C2115 1.400 . S
C2115 C2114 1.400 . S
C2115 C2116 1.398 . S
C2115 C2121 1.491 . S
C2116 H2107 0.950 . S
C2116 C2115 1.398 . S
C2116 C2117 1.391 . S
C2117 H2105 0.950 . S
C2117 C2113 1.393 . S
C2117 C2116 1.391 . S
C2118 H2108 0.950 . S
C2118 C2119 1.386 . S
C2118 C2120 1.391 . S
C2119 C2118 1.386 . S
C2119 C2123 1.393 . S
C2120 H2109 0.950 . S
C2120 C2118 1.391 . S
C2120 C2121 1.400 . S
C2121 C2115 1.491 . S
C2121 C2120 1.400 . S
C2121 C2122 1.398 . S
C2122 H2110 0.950 . S
C2122 C2121 1.398 . S
C2122 C2123 1.391 . S
C2123 H2111 0.950 . S
C2123 C2119 1.393 . S
C2123 C2122 1.391 . S
H2124 C2132 0.950 . S
H2125 C2137 0.950 . S
H2126 C2134 0.950 . S
H2127 C2136 0.950 . S
H2128 C2138 0.950 . S
H2129 C2140 0.950 . S
H2130 C2142 0.950 . S
H2131 C2143 0.950 . S
C2132 H2124 0.950 . S
C2132 C2133 1.386 . S
C2132 C2134 1.391 1_554 S
C2133 C2132 1.386 . S
C2133 C2137 1.393 1_554 S
C2134 H2126 0.950 . S
C2134 C2132 1.391 1_556 S
C2134 C2135 1.400 . S
C2135 C2134 1.400 . S
C2135 C2136 1.398 . S
C2135 C2141 1.491 . S
C2136 H2127 0.950 . S
C2136 C2135 1.398 . S
C2136 C2137 1.391 . S
C2137 H2125 0.950 . S
C2137 C2133 1.393 1_556 S
C2137 C2136 1.391 . S
C2138 H2128 0.950 . S
C2138 C2139 1.386 . S
C2138 C2140 1.391 . S
C2139 C2138 1.386 . S
C2139 C2143 1.393 . S
C2140 H2129 0.950 . S
C2140 C2138 1.391 . S
C2140 C2141 1.400 . S
C2141 C2135 1.491 . S
C2141 C2140 1.400 . S
C2141 C2142 1.398 . S
C2142 H2130 0.950 . S
C2142 C2141 1.398 . S
C2142 C2143 1.391 . S
C2143 H2131 0.950 . S
C2143 C2139 1.393 . S
C2143 C2142 1.391 . S
H2144 C2152 0.950 . S
H2145 C2157 0.950 . S
H2146 C2154 0.950 . S
H2147 C2156 0.950 . S
H2148 C2158 0.950 . S
H2149 C2160 0.950 . S
H2150 C2162 0.950 . S
H2151 C2163 0.950 . S
C2152 H2144 0.950 . S
C2152 C2153 1.386 . S
C2152 C2154 1.391 . S
C2153 C2152 1.386 . S
C2153 C2157 1.393 . S
C2154 H2146 0.950 . S
C2154 C2152 1.391 . S
C2154 C2155 1.400 . S
C2155 C2154 1.400 . S
C2155 C2156 1.398 . S
C2155 C2161 1.491 . S
C2156 H2147 0.950 . S
C2156 C2155 1.398 . S
C2156 C2157 1.391 . S
C2157 H2145 0.950 . S
C2157 C2153 1.393 . S
C2157 C2156 1.391 . S
C2158 H2148 0.950 . S
C2158 C2159 1.386 . S
C2158 C2160 1.391 . S
C2159 C2158 1.386 . S
C2159 C2163 1.393 . S
C2160 H2149 0.950 . S
C2160 C2158 1.391 . S
C2160 C2161 1.400 . S
C2161 C2155 1.491 . S
C2161 C2160 1.400 . S
C2161 C2162 1.398 . S
C2162 H2150 0.950 . S
C2162 C2161 1.398 . S
C2162 C2163 1.391 . S
C2163 H2151 0.950 . S
C2163 C2159 1.393 . S
C2163 C2162 1.391 . S
H2164 C2172 0.950 . S
H2165 C2177 0.950 . S
H2166 C2174 0.950 . S
H2167 C2176 0.950 . S
H2168 C2178 0.950 . S
H2169 C2180 0.950 . S
H2170 C2182 0.950 . S
H2171 C2183 0.950 . S
C2172 H2164 0.950 . S
C2172 C2173 1.386 . S
C2172 C2174 1.391 . S
C2173 C2172 1.386 . S
C2173 C2177 1.393 . S
C2174 H2166 0.950 . S
C2174 C2172 1.391 . S
C2174 C2175 1.400 . S
C2175 C2174 1.400 . S
C2175 C2176 1.398 . S
C2175 C2181 1.491 . S
C2176 H2167 0.950 . S
C2176 C2175 1.398 . S
C2176 C2177 1.391 . S
C2177 H2165 0.950 . S
C2177 C2173 1.393 . S
C2177 C2176 1.391 . S
C2178 H2168 0.950 . S
C2178 C2179 1.386 . S
C2178 C2180 1.391 . S
C2179 C2178 1.386 . S
C2179 C2183 1.393 . S
C2180 H2169 0.950 . S
C2180 C2178 1.391 . S
C2180 C2181 1.400 . S
C2181 C2175 1.491 . S
C2181 C2180 1.400 . S
C2181 C2182 1.398 . S
C2182 H2170 0.950 . S
C2182 C2181 1.398 . S
C2182 C2183 1.391 . S
C2183 H2171 0.950 . S
C2183 C2179 1.393 . S
C2183 C2182 1.391 . S
H2184 C2192 0.950 . S
H2185 C2197 0.950 . S
H2186 C2194 0.950 . S
H2187 C2196 0.950 . S
H2188 C2198 0.950 . S
H2189 C2200 0.950 . S
H2190 C2202 0.950 . S
H2191 C2203 0.950 . S
C2192 H2184 0.950 . S
C2192 C2193 1.386 . S
C2192 C2194 1.391 . S
C2193 C2192 1.386 . S
C2193 C2197 1.393 . S
C2194 H2186 0.950 . S
C2194 C2192 1.391 . S
C2194 C2195 1.400 . S
C2195 C2194 1.400 . S
C2195 C2196 1.398 . S
C2195 C2201 1.491 . S
C2196 H2187 0.950 . S
C2196 C2195 1.398 . S
C2196 C2197 1.391 . S
C2197 H2185 0.950 . S
C2197 C2193 1.393 . S
C2197 C2196 1.391 . S
C2198 H2188 0.950 . S
C2198 C2199 1.386 . S
C2198 C2200 1.391 . S
C2199 C2198 1.386 . S
C2199 C2203 1.393 . S
C2200 H2189 0.950 . S
C2200 C2198 1.391 . S
C2200 C2201 1.400 . S
C2201 C2195 1.491 . S
C2201 C2200 1.400 . S
C2201 C2202 1.398 . S
C2202 H2190 0.950 . S
C2202 C2201 1.398 . S
C2202 C2203 1.391 . S
C2203 H2191 0.950 . S
C2203 C2199 1.393 . S
C2203 C2202 1.391 . S
H2204 C2212 0.950 . S
H2205 C2217 0.950 . S
H2206 C2214 0.950 . S
H2207 C2216 0.950 . S
H2208 C2218 0.950 . S
H2209 C2220 0.950 . S
H2210 C2222 0.950 . S
H2211 C2223 0.950 . S
C2212 H2204 0.950 . S
C2212 C2213 1.386 . S
C2212 C2214 1.391 . S
C2213 C2212 1.386 . S
C2213 C2217 1.393 . S
C2214 H2206 0.950 . S
C2214 C2212 1.391 . S
C2214 C2215 1.400 . S
C2215 C2214 1.400 . S
C2215 C2216 1.398 . S
C2215 C2221 1.491 . S
C2216 H2207 0.950 . S
C2216 C2215 1.398 . S
C2216 C2217 1.391 . S
C2217 H2205 0.950 . S
C2217 C2213 1.393 . S
C2217 C2216 1.391 . S
C2218 H2208 0.950 . S
C2218 C2219 1.386 . S
C2218 C2220 1.391 . S
C2219 C2218 1.386 . S
C2219 C2223 1.393 . S
C2220 H2209 0.950 . S
C2220 C2218 1.391 . S
C2220 C2221 1.400 . S
C2221 C2215 1.491 . S
C2221 C2220 1.400 . S
C2221 C2222 1.398 . S
C2222 H2210 0.950 . S
C2222 C2221 1.398 . S
C2222 C2223 1.391 . S
C2223 H2211 0.950 . S
C2223 C2219 1.393 . S
C2223 C2222 1.391 . S
H2224 C2232 0.950 . S
H2225 C2237 0.950 . S
H2226 C2234 0.950 . S
H2227 C2236 0.950 . S
H2228 C2238 0.950 . S
H2229 C2240 0.956 . S
H2230 C2242 0.950 . S
H2231 C2243 0.950 . S
C2232 H2224 0.950 . S
C2232 C2233 1.386 . S
C2232 C2234 1.391 . S
C2233 C2232 1.386 . S
C2233 C2237 1.393 . S
C2234 H2226 0.950 . S
C2234 C2232 1.391 . S
C2234 C2235 1.400 . S
C2235 C2234 1.400 . S
C2235 C2236 1.398 . S
C2235 C2241 1.491 . S
C2236 H2227 0.950 . S
C2236 C2235 1.398 . S
C2236 C2237 1.391 . S
C2237 H2225 0.950 . S
C2237 C2233 1.393 . S
C2237 C2236 1.391 . S
C2238 H2228 0.950 . S
C2238 C2239 1.386 . S
C2238 C2240 1.412 . S
C2239 C2238 1.386 . S
C2239 C2243 1.393 1_545 S
C2240 H2229 0.956 . S
C2240 C2238 1.412 . S
C2240 C2241 1.375 1_545 S
C2241 C2235 1.491 . S
C2241 C2240 1.375 1_565 S
C2241 C2242 1.398 . S
C2242 H2230 0.950 . S
C2242 C2241 1.398 . S
C2242 C2243 1.391 . S
C2243 H2231 0.950 . S
C2243 C2239 1.393 1_565 S
C2243 C2242 1.391 . S
H2244 C2252 0.950 . S
H2245 C2257 0.950 . S
H2246 C2254 0.950 . S
H2247 C2256 0.950 . S
H2248 C2258 0.950 . S
H2249 C2260 0.950 . S
H2250 C2262 0.950 . S
H2251 C2263 0.950 . S
C2252 H2244 0.950 . S
C2252 C2253 1.386 . S
C2252 C2254 1.391 . S
C2253 C2252 1.386 . S
C2253 C2257 1.393 . S
C2254 H2246 0.950 . S
C2254 C2252 1.391 . S
C2254 C2255 1.400 . S
C2255 C2254 1.400 . S
C2255 C2256 1.398 . S
C2255 C2261 1.491 . S
C2256 H2247 0.950 . S
C2256 C2255 1.398 . S
C2256 C2257 1.391 . S
C2257 H2245 0.950 . S
C2257 C2253 1.393 . S
C2257 C2256 1.391 . S
C2258 H2248 0.950 . S
C2258 C2259 1.386 . S
C2258 C2260 1.391 . S
C2259 C2258 1.386 . S
C2259 C2263 1.393 . S
C2260 H2249 0.950 . S
C2260 C2258 1.391 . S
C2260 C2261 1.400 . S
C2261 C2255 1.491 . S
C2261 C2260 1.400 . S
C2261 C2262 1.398 . S
C2262 H2250 0.950 . S
C2262 C2261 1.398 . S
C2262 C2263 1.391 . S
C2263 H2251 0.950 . S
C2263 C2259 1.393 . S
C2263 C2262 1.391 . S
H2264 C2272 0.950 . S
H2265 C2277 0.950 . S
H2266 C2274 0.950 . S
H2267 C2276 0.950 . S
H2268 C2278 0.950 . S
H2269 C2280 0.950 . S
H2270 C2282 0.950 . S
H2271 C2283 0.950 . S
C2272 H2264 0.950 . S
C2272 C2273 1.386 . S
C2272 C2274 1.391 . S
C2273 C2272 1.386 . S
C2273 C2277 1.393 . S
C2274 H2266 0.950 . S
C2274 C2272 1.391 . S
C2274 C2275 1.400 . S
C2275 C2274 1.400 . S
C2275 C2276 1.398 . S
C2275 C2281 1.491 . S
C2276 H2267 0.950 . S
C2276 C2275 1.398 . S
C2276 C2277 1.391 . S
C2277 H2265 0.950 . S
C2277 C2273 1.393 . S
C2277 C2276 1.391 . S
C2278 H2268 0.950 . S
C2278 C2279 1.386 . S
C2278 C2280 1.391 . S
C2279 C2278 1.386 . S
C2279 C2283 1.393 . S
C2280 H2269 0.950 . S
C2280 C2278 1.391 . S
C2280 C2281 1.400 . S
C2281 C2275 1.491 . S
C2281 C2280 1.400 . S
C2281 C2282 1.398 . S
C2282 H2270 0.950 . S
C2282 C2281 1.398 . S
C2282 C2283 1.391 . S
C2283 H2271 0.950 . S
C2283 C2279 1.393 . S
C2283 C2282 1.391 . S
H2284 C2292 0.950 . S
H2285 C2297 0.950 . S
H2286 C2294 0.950 . S
H2287 C2296 0.950 . S
H2288 C2298 0.950 . S
H2289 C2300 0.950 . S
H2290 C2302 0.950 . S
H2291 C2303 0.950 . S
C2292 H2284 0.950 . S
C2292 C2293 1.386 . S
C2292 C2294 1.391 . S
C2293 C2292 1.386 . S
C2293 C2297 1.393 . S
C2294 H2286 0.950 . S
C2294 C2292 1.391 . S
C2294 C2295 1.400 . S
C2295 C2294 1.400 . S
C2295 C2296 1.398 . S
C2295 C2301 1.491 . S
C2296 H2287 0.950 . S
C2296 C2295 1.398 . S
C2296 C2297 1.391 . S
C2297 H2285 0.950 . S
C2297 C2293 1.393 . S
C2297 C2296 1.391 . S
C2298 H2288 0.950 . S
C2298 C2299 1.386 . S
C2298 C2300 1.391 . S
C2299 C2298 1.386 . S
C2299 C2303 1.393 . S
C2300 H2289 0.950 . S
C2300 C2298 1.391 . S
C2300 C2301 1.400 . S
C2301 C2295 1.491 . S
C2301 C2300 1.400 . S
C2301 C2302 1.398 . S
C2302 H2290 0.950 . S
C2302 C2301 1.398 . S
C2302 C2303 1.391 . S
C2303 H2291 0.950 . S
C2303 C2299 1.393 . S
C2303 C2302 1.391 . S
H2304 C2312 0.950 . S
H2305 C2317 0.950 . S
H2306 C2314 0.950 . S
H2307 C2316 0.950 . S
H2308 C2318 0.950 . S
H2309 C2320 0.950 . S
H2310 C2322 0.950 . S
H2311 C2323 0.950 . S
C2312 H2304 0.950 . S
C2312 C2313 1.386 . S
C2312 C2314 1.391 . S
C2313 C2312 1.386 . S
C2313 C2317 1.393 . S
C2314 H2306 0.950 . S
C2314 C2312 1.391 . S
C2314 C2315 1.400 . S
C2315 C2314 1.400 . S
C2315 C2316 1.398 . S
C2315 C2321 1.491 . S
C2316 H2307 0.950 . S
C2316 C2315 1.398 . S
C2316 C2317 1.391 . S
C2317 H2305 0.950 . S
C2317 C2313 1.393 . S
C2317 C2316 1.391 . S
C2318 H2308 0.950 . S
C2318 C2319 1.386 . S
C2318 C2320 1.391 . S
C2319 C2318 1.386 . S
C2319 C2323 1.393 . S
C2320 H2309 0.950 . S
C2320 C2318 1.391 . S
C2320 C2321 1.400 . S
C2321 C2315 1.491 . S
C2321 C2320 1.400 . S
C2321 C2322 1.398 . S
C2322 H2310 0.950 . S
C2322 C2321 1.398 . S
C2322 C2323 1.391 . S
C2323 H2311 0.950 . S
C2323 C2319 1.393 . S
C2323 C2322 1.391 . S
H2324 C2332 0.950 . S
H2325 C2337 0.950 . S
H2326 C2334 0.950 . S
H2327 C2336 0.950 . S
H2328 C2338 0.950 . S
H2329 C2340 0.950 . S
H2330 C2342 0.950 . S
H2331 C2343 0.950 . S
C2332 H2324 0.950 . S
C2332 C2333 1.386 . S
C2332 C2334 1.391 . S
C2333 C2332 1.386 . S
C2333 C2337 1.393 . S
C2334 H2326 0.950 . S
C2334 C2332 1.391 . S
C2334 C2335 1.400 . S
C2335 C2334 1.400 . S
C2335 C2336 1.398 . S
C2335 C2341 1.491 . S
C2336 H2327 0.950 . S
C2336 C2335 1.398 . S
C2336 C2337 1.391 . S
C2337 H2325 0.950 . S
C2337 C2333 1.393 . S
C2337 C2336 1.391 . S
C2338 H2328 0.950 . S
C2338 C2339 1.386 . S
C2338 C2340 1.391 . S
C2339 C2338 1.386 . S
C2339 C2343 1.393 . S
C2340 H2329 0.950 . S
C2340 C2338 1.391 . S
C2340 C2341 1.400 . S
C2341 C2335 1.491 . S
C2341 C2340 1.400 . S
C2341 C2342 1.398 . S
C2342 H2330 0.950 . S
C2342 C2341 1.398 . S
C2342 C2343 1.391 . S
C2343 H2331 0.950 . S
C2343 C2339 1.393 . S
C2343 C2342 1.391 . S
H2344 C2352 0.950 . S
H2345 C2357 0.950 . S
H2346 C2354 0.950 . S
H2347 C2356 0.950 . S
H2348 C2358 0.950 . S
H2349 C2360 0.950 . S
H2350 C2362 0.950 . S
H2351 C2363 0.950 . S
C2352 H2344 0.950 . S
C2352 C2353 1.386 . S
C2352 C2354 1.391 . S
C2353 C2352 1.386 . S
C2353 C2357 1.393 . S
C2354 H2346 0.950 . S
C2354 C2352 1.391 . S
C2354 C2355 1.400 . S
C2355 C2354 1.400 . S
C2355 C2356 1.398 . S
C2355 C2361 1.491 . S
C2356 H2347 0.950 . S
C2356 C2355 1.398 . S
C2356 C2357 1.391 . S
C2357 H2345 0.950 . S
C2357 C2353 1.393 . S
C2357 C2356 1.391 . S
C2358 H2348 0.950 . S
C2358 C2359 1.386 . S
C2358 C2360 1.391 . S
C2359 C2358 1.386 . S
C2359 C2363 1.393 . S
C2360 H2349 0.950 . S
C2360 C2358 1.391 . S
C2360 C2361 1.400 . S
C2361 C2355 1.491 . S
C2361 C2360 1.400 . S
C2361 C2362 1.398 . S
C2362 H2350 0.950 . S
C2362 C2361 1.398 . S
C2362 C2363 1.391 . S
C2363 H2351 0.950 . S
C2363 C2359 1.393 . S
C2363 C2362 1.391 . S
H2364 C2372 0.952 . S
H2365 C2377 0.950 . S
H2366 C2374 0.950 . S
H2367 C2376 0.950 . S
H2368 C2378 0.950 . S
H2369 C2380 0.950 . S
H2370 C2382 0.950 . S
H2371 C2383 0.950 . S
C2372 H2364 0.952 . S
C2372 C2373 1.393 . S
C2372 C2374 1.381 1_455 S
C2373 C2372 1.393 . S
C2373 C2377 1.393 . S
C2374 H2366 0.950 . S
C2374 C2372 1.381 1_655 S
C2374 C2375 1.400 . S
C2375 C2374 1.400 . S
C2375 C2376 1.398 . S
C2375 C2381 1.491 . S
C2376 H2367 0.950 . S
C2376 C2375 1.398 . S
C2376 C2377 1.391 1_655 S
C2377 H2365 0.950 . S
C2377 C2373 1.393 . S
C2377 C2376 1.391 1_455 S
C2378 H2368 0.950 . S
C2378 C2379 1.386 . S
C2378 C2380 1.391 . S
C2379 C2378 1.386 . S
C2379 C2383 1.393 . S
C2380 H2369 0.950 . S
C2380 C2378 1.391 . S
C2380 C2381 1.400 . S
C2381 C2375 1.491 . S
C2381 C2380 1.400 . S
C2381 C2382 1.398 . S
C2382 H2370 0.950 . S
C2382 C2381 1.398 . S
C2382 C2383 1.391 . S
C2383 H2371 0.950 . S
C2383 C2379 1.393 . S
C2383 C2382 1.391 . S
H2384 C2392 0.950 . S
H2385 C2397 0.950 . S
H2386 C2394 0.950 . S
H2387 C2396 0.950 . S
H2388 C2398 0.950 . S
H2389 C2400 0.950 . S
H2390 C2402 0.950 . S
H2391 C2403 0.950 . S
C2392 H2384 0.950 . S
C2392 C2393 1.386 . S
C2392 C2394 1.391 . S
C2393 C2392 1.386 . S
C2393 C2397 1.393 . S
C2394 H2386 0.950 . S
C2394 C2392 1.391 . S
C2394 C2395 1.400 . S
C2395 C2394 1.400 . S
C2395 C2396 1.398 . S
C2395 C2401 1.491 . S
C2396 H2387 0.950 . S
C2396 C2395 1.398 . S
C2396 C2397 1.391 . S
C2397 H2385 0.950 . S
C2397 C2393 1.393 . S
C2397 C2396 1.391 . S
C2398 H2388 0.950 . S
C2398 C2399 1.386 . S
C2398 C2400 1.391 . S
C2399 C2398 1.386 . S
C2399 C2403 1.393 . S
C2400 H2389 0.950 . S
C2400 C2398 1.391 . S
C2400 C2401 1.400 . S
C2401 C2395 1.491 . S
C2401 C2400 1.400 . S
C2401 C2402 1.398 . S
C2402 H2390 0.950 . S
C2402 C2401 1.398 . S
C2402 C2403 1.391 . S
C2403 H2391 0.950 . S
C2403 C2399 1.393 . S
C2403 C2402 1.391 . S
H2404 C2412 0.950 . S
H2405 C2417 0.950 . S
H2406 C2414 0.950 . S
H2407 C2416 0.951 . S
H2408 C2418 0.950 . S
H2409 C2420 0.950 . S
H2410 C2422 0.950 . S
H2411 C2423 0.950 . S
C2412 H2404 0.950 . S
C2412 C2413 1.386 1_655 S
C2412 C2414 1.391 . S
C2413 C2412 1.386 1_455 S
C2413 C2417 1.393 . S
C2414 H2406 0.950 . S
C2414 C2412 1.391 . S
C2414 C2415 1.400 . S
C2415 C2414 1.400 . S
C2415 C2416 1.398 . S
C2415 C2421 1.491 . S
C2416 H2407 0.951 . S
C2416 C2415 1.398 . S
C2416 C2417 1.391 1_655 S
C2417 H2405 0.950 . S
C2417 C2413 1.393 . S
C2417 C2416 1.391 1_455 S
C2418 H2408 0.950 . S
C2418 C2419 1.386 . S
C2418 C2420 1.391 . S
C2419 C2418 1.386 . S
C2419 C2423 1.393 . S
C2420 H2409 0.950 . S
C2420 C2418 1.391 . S
C2420 C2421 1.400 . S
C2421 C2415 1.491 . S
C2421 C2420 1.400 . S
C2421 C2422 1.398 . S
C2422 H2410 0.950 . S
C2422 C2421 1.398 . S
C2422 C2423 1.391 . S
C2423 H2411 0.950 . S
C2423 C2419 1.393 . S
C2423 C2422 1.391 . S
H2424 C2432 0.950 . S
H2425 C2437 0.950 . S
H2426 C2434 0.950 . S
H2427 C2436 0.950 . S
H2428 C2438 0.950 . S
H2429 C2440 0.950 . S
H2430 C2442 0.950 . S
H2431 C2443 0.950 . S
C2432 H2424 0.950 . S
C2432 C2433 1.386 . S
C2432 C2434 1.391 . S
C2433 C2432 1.386 . S
C2433 C2437 1.393 . S
C2434 H2426 0.950 . S
C2434 C2432 1.391 . S
C2434 C2435 1.400 . S
C2435 C2434 1.400 . S
C2435 C2436 1.398 . S
C2435 C2441 1.491 . S
C2436 H2427 0.950 . S
C2436 C2435 1.398 . S
C2436 C2437 1.391 . S
C2437 H2425 0.950 . S
C2437 C2433 1.393 . S
C2437 C2436 1.391 . S
C2438 H2428 0.950 . S
C2438 C2439 1.386 . S
C2438 C2440 1.391 . S
C2439 C2438 1.386 . S
C2439 C2443 1.393 . S
C2440 H2429 0.950 . S
C2440 C2438 1.391 . S
C2440 C2441 1.400 . S
C2441 C2435 1.491 . S
C2441 C2440 1.400 . S
C2441 C2442 1.398 . S
C2442 H2430 0.950 . S
C2442 C2441 1.398 . S
C2442 C2443 1.391 . S
C2443 H2431 0.950 . S
C2443 C2439 1.393 . S
C2443 C2442 1.391 . S
H2444 C2452 0.950 . S
H2445 C2457 0.950 . S
H2446 C2454 0.950 . S
H2447 C2456 0.950 . S
H2448 C2458 0.950 . S
H2449 C2460 0.950 . S
H2450 C2462 0.950 . S
H2451 C2463 0.950 . S
C2452 H2444 0.950 . S
C2452 C2453 1.386 . S
C2452 C2454 1.391 . S
C2453 C2452 1.386 . S
C2453 C2457 1.393 . S
C2454 H2446 0.950 . S
C2454 C2452 1.391 . S
C2454 C2455 1.400 . S
C2455 C2454 1.400 . S
C2455 C2456 1.398 . S
C2455 C2461 1.491 . S
C2456 H2447 0.950 . S
C2456 C2455 1.398 . S
C2456 C2457 1.391 . S
C2457 H2445 0.950 . S
C2457 C2453 1.393 . S
C2457 C2456 1.391 . S
C2458 H2448 0.950 . S
C2458 C2459 1.386 . S
C2458 C2460 1.391 . S
C2459 C2458 1.386 . S
C2459 C2463 1.393 . S
C2460 H2449 0.950 . S
C2460 C2458 1.391 . S
C2460 C2461 1.400 . S
C2461 C2455 1.491 . S
C2461 C2460 1.400 . S
C2461 C2462 1.398 . S
C2462 H2450 0.950 . S
C2462 C2461 1.398 . S
C2462 C2463 1.391 . S
C2463 H2451 0.950 . S
C2463 C2459 1.393 . S
C2463 C2462 1.391 . S
H2464 C2472 0.950 . S
H2465 C2477 0.950 . S
H2466 C2474 0.950 . S
H2467 C2476 0.950 . S
H2468 C2478 0.950 . S
H2469 C2480 0.950 . S
H2470 C2482 0.950 . S
H2471 C2483 0.950 . S
C2472 H2464 0.950 . S
C2472 C2473 1.386 . S
C2472 C2474 1.391 . S
C2473 C2472 1.386 . S
C2473 C2477 1.393 . S
C2474 H2466 0.950 . S
C2474 C2472 1.391 . S
C2474 C2475 1.400 . S
C2475 C2474 1.400 . S
C2475 C2476 1.398 . S
C2475 C2481 1.491 . S
C2476 H2467 0.950 . S
C2476 C2475 1.398 . S
C2476 C2477 1.391 . S
C2477 H2465 0.950 . S
C2477 C2473 1.393 . S
C2477 C2476 1.391 . S
C2478 H2468 0.950 . S
C2478 C2479 1.386 . S
C2478 C2480 1.391 . S
C2479 C2478 1.386 . S
C2479 C2483 1.393 . S
C2480 H2469 0.950 . S
C2480 C2478 1.391 . S
C2480 C2481 1.400 . S
C2481 C2475 1.491 . S
C2481 C2480 1.400 . S
C2481 C2482 1.398 . S
C2482 H2470 0.950 . S
C2482 C2481 1.398 . S
C2482 C2483 1.391 . S
C2483 H2471 0.950 . S
C2483 C2479 1.393 . S
C2483 C2482 1.391 . S
H2484 C2492 0.950 . S
H2485 C2497 0.950 . S
H2486 C2494 0.950 . S
H2487 C2496 0.950 . S
H2488 C2498 0.950 . S
H2489 C2500 0.950 . S
H2490 C2502 0.950 . S
H2491 C2503 0.950 . S
C2492 H2484 0.950 . S
C2492 C2493 1.386 . S
C2492 C2494 1.391 . S
C2493 C2492 1.386 . S
C2493 C2497 1.393 . S
C2494 H2486 0.950 . S
C2494 C2492 1.391 . S
C2494 C2495 1.400 . S
C2495 C2494 1.400 . S
C2495 C2496 1.398 . S
C2495 C2501 1.491 . S
C2496 H2487 0.950 . S
C2496 C2495 1.398 . S
C2496 C2497 1.391 . S
C2497 H2485 0.950 . S
C2497 C2493 1.393 . S
C2497 C2496 1.391 . S
C2498 H2488 0.950 . S
C2498 C2499 1.386 . S
C2498 C2500 1.391 1_554 S
C2499 C2498 1.386 . S
C2499 C2503 1.393 . S
C2500 H2489 0.950 . S
C2500 C2498 1.391 1_556 S
C2500 C2501 1.400 . S
C2501 C2495 1.491 . S
C2501 C2500 1.400 . S
C2501 C2502 1.398 . S
C2502 H2490 0.950 . S
C2502 C2501 1.398 . S
C2502 C2503 1.391 1_556 S
C2503 H2491 0.950 . S
C2503 C2499 1.393 . S
C2503 C2502 1.391 1_554 S
H2504 C2512 0.950 . S
H2505 C2517 0.950 . S
H2506 C2514 0.950 . S
H2507 C2516 0.950 . S
H2508 C2518 0.950 . S
H2509 C2520 0.950 . S
H2510 C2522 0.950 . S
H2511 C2523 0.950 . S
C2512 H2504 0.950 . S
C2512 C2513 1.386 . S
C2512 C2514 1.391 . S
C2513 C2512 1.386 . S
C2513 C2517 1.393 . S
C2514 H2506 0.950 . S
C2514 C2512 1.391 . S
C2514 C2515 1.400 . S
C2515 C2514 1.400 . S
C2515 C2516 1.398 . S
C2515 C2521 1.491 . S
C2516 H2507 0.950 . S
C2516 C2515 1.398 . S
C2516 C2517 1.391 . S
C2517 H2505 0.950 . S
C2517 C2513 1.393 . S
C2517 C2516 1.391 . S
C2518 H2508 0.950 . S
C2518 C2519 1.386 . S
C2518 C2520 1.391 . S
C2519 C2518 1.386 . S
C2519 C2523 1.393 . S
C2520 H2509 0.950 . S
C2520 C2518 1.391 . S
C2520 C2521 1.400 . S
C2521 C2515 1.491 . S
C2521 C2520 1.400 . S
C2521 C2522 1.398 . S
C2522 H2510 0.950 . S
C2522 C2521 1.398 . S
C2522 C2523 1.391 . S
C2523 H2511 0.950 . S
C2523 C2519 1.393 . S
C2523 C2522 1.391 . S
H2524 C2532 0.950 . S
H2525 C2537 0.950 . S
H2526 C2534 0.950 . S
H2527 C2536 0.950 . S
H2528 C2538 0.950 . S
H2529 C2540 0.950 . S
H2530 C2542 0.950 . S
H2531 C2543 0.950 . S
C2532 H2524 0.950 . S
C2532 C2533 1.386 . S
C2532 C2534 1.391 . S
C2533 C2532 1.386 . S
C2533 C2537 1.393 . S
C2534 H2526 0.950 . S
C2534 C2532 1.391 . S
C2534 C2535 1.400 . S
C2535 C2534 1.400 . S
C2535 C2536 1.398 . S
C2535 C2541 1.491 . S
C2536 H2527 0.950 . S
C2536 C2535 1.398 . S
C2536 C2537 1.391 . S
C2537 H2525 0.950 . S
C2537 C2533 1.393 . S
C2537 C2536 1.391 . S
C2538 H2528 0.950 . S
C2538 C2539 1.386 . S
C2538 C2540 1.391 . S
C2539 C2538 1.386 . S
C2539 C2543 1.393 . S
C2540 H2529 0.950 . S
C2540 C2538 1.391 . S
C2540 C2541 1.400 . S
C2541 C2535 1.491 . S
C2541 C2540 1.400 . S
C2541 C2542 1.398 . S
C2542 H2530 0.950 . S
C2542 C2541 1.398 . S
C2542 C2543 1.391 . S
C2543 H2531 0.950 . S
C2543 C2539 1.393 . S
C2543 C2542 1.391 . S
H2544 C2552 0.950 . S
H2545 C2557 0.950 . S
H2546 C2554 0.950 . S
H2547 C2556 0.950 . S
H2548 C2558 0.950 . S
H2549 C2560 0.950 . S
H2550 C2562 0.950 . S
H2551 C2563 0.950 . S
C2552 H2544 0.950 . S
C2552 C2553 1.386 . S
C2552 C2554 1.391 . S
C2553 C2552 1.386 . S
C2553 C2557 1.393 . S
C2554 H2546 0.950 . S
C2554 C2552 1.391 . S
C2554 C2555 1.400 . S
C2555 C2554 1.400 . S
C2555 C2556 1.398 . S
C2555 C2561 1.491 . S
C2556 H2547 0.950 . S
C2556 C2555 1.398 . S
C2556 C2557 1.391 . S
C2557 H2545 0.950 . S
C2557 C2553 1.393 . S
C2557 C2556 1.391 . S
C2558 H2548 0.950 . S
C2558 C2559 1.386 . S
C2558 C2560 1.391 . S
C2559 C2558 1.386 . S
C2559 C2563 1.393 . S
C2560 H2549 0.950 . S
C2560 C2558 1.391 . S
C2560 C2561 1.400 . S
C2561 C2555 1.491 . S
C2561 C2560 1.400 . S
C2561 C2562 1.398 . S
C2562 H2550 0.950 . S
C2562 C2561 1.398 . S
C2562 C2563 1.391 . S
C2563 H2551 0.950 . S
C2563 C2559 1.393 . S
C2563 C2562 1.391 . S
H2564 C2572 0.950 . S
H2565 C2577 0.950 . S
H2566 C2574 0.950 . S
H2567 C2576 0.950 . S
H2568 C2578 0.950 . S
H2569 C2580 0.950 . S
H2570 C2582 0.956 . S
H2571 C2583 0.950 . S
C2572 H2564 0.950 . S
C2572 C2573 1.386 . S
C2572 C2574 1.391 . S
C2573 C2572 1.386 . S
C2573 C2577 1.393 . S
C2574 H2566 0.950 . S
C2574 C2572 1.391 . S
C2574 C2575 1.400 . S
C2575 C2574 1.400 . S
C2575 C2576 1.398 . S
C2575 C2581 1.491 . S
C2576 H2567 0.950 . S
C2576 C2575 1.398 . S
C2576 C2577 1.391 . S
C2577 H2565 0.950 . S
C2577 C2573 1.393 . S
C2577 C2576 1.391 . S
C2578 H2568 0.950 . S
C2578 C2579 1.386 1_554 S
C2578 C2580 1.391 . S
C2579 C2578 1.386 1_556 S
C2579 C2583 1.393 . S
C2580 H2569 0.950 . S
C2580 C2578 1.391 . S
C2580 C2581 1.400 . S
C2581 C2575 1.491 . S
C2581 C2580 1.400 . S
C2581 C2582 1.398 . S
C2582 H2570 0.956 . S
C2582 C2581 1.398 . S
C2582 C2583 1.391 1_554 S
C2583 H2571 0.950 . S
C2583 C2579 1.393 . S
C2583 C2582 1.391 1_556 S
H2584 C2592 0.950 . S
H2585 C2597 0.950 . S
H2586 C2594 0.950 . S
H2587 C2596 0.950 . S
H2588 C2598 0.950 . S
H2589 C2600 0.950 . S
H2590 C2602 0.950 . S
H2591 C2603 0.950 . S
C2592 H2584 0.950 . S
C2592 C2593 1.386 . S
C2592 C2594 1.391 . S
C2593 C2592 1.386 . S
C2593 C2597 1.393 . S
C2594 H2586 0.950 . S
C2594 C2592 1.391 . S
C2594 C2595 1.400 . S
C2595 C2594 1.400 . S
C2595 C2596 1.398 . S
C2595 C2601 1.491 . S
C2596 H2587 0.950 . S
C2596 C2595 1.398 . S
C2596 C2597 1.391 . S
C2597 H2585 0.950 . S
C2597 C2593 1.393 . S
C2597 C2596 1.391 . S
C2598 H2588 0.950 . S
C2598 C2599 1.386 . S
C2598 C2600 1.391 . S
C2599 C2598 1.386 . S
C2599 C2603 1.393 . S
C2600 H2589 0.950 . S
C2600 C2598 1.391 . S
C2600 C2601 1.400 . S
C2601 C2595 1.491 . S
C2601 C2600 1.400 . S
C2601 C2602 1.398 . S
C2602 H2590 0.950 . S
C2602 C2601 1.398 . S
C2602 C2603 1.391 . S
C2603 H2591 0.950 . S
C2603 C2599 1.393 . S
C2603 C2602 1.391 . S
H2604 C2612 0.950 . S
H2605 C2617 0.950 . S
H2606 C2614 0.950 . S
H2607 C2616 0.950 . S
H2608 C2618 0.950 . S
H2609 C2620 0.950 . S
H2610 C2622 0.950 . S
H2611 C2623 0.950 . S
C2612 H2604 0.950 . S
C2612 C2613 1.386 . S
C2612 C2614 1.391 . S
C2613 C2612 1.386 . S
C2613 C2617 1.393 . S
C2614 H2606 0.950 . S
C2614 C2612 1.391 . S
C2614 C2615 1.400 . S
C2615 C2614 1.400 . S
C2615 C2616 1.398 . S
C2615 C2621 1.491 . S
C2616 H2607 0.950 . S
C2616 C2615 1.398 . S
C2616 C2617 1.391 . S
C2617 H2605 0.950 . S
C2617 C2613 1.393 . S
C2617 C2616 1.391 . S
C2618 H2608 0.950 . S
C2618 C2619 1.386 . S
C2618 C2620 1.391 . S
C2619 C2618 1.386 . S
C2619 C2623 1.393 . S
C2620 H2609 0.950 . S
C2620 C2618 1.391 . S
C2620 C2621 1.400 . S
C2621 C2615 1.491 . S
C2621 C2620 1.400 . S
C2621 C2622 1.398 . S
C2622 H2610 0.950 . S
C2622 C2621 1.398 . S
C2622 C2623 1.391 . S
C2623 H2611 0.950 . S
C2623 C2619 1.393 . S
C2623 C2622 1.391 . S
H2624 C2632 0.950 . S
H2625 C2637 0.950 . S
H2626 C2634 0.950 . S
H2627 C2636 0.950 . S
H2628 C2638 0.950 . S
H2629 C2640 0.950 . S
H2630 C2642 0.950 . S
H2631 C2643 0.950 . S
C2632 H2624 0.950 . S
C2632 C2633 1.386 . S
C2632 C2634 1.391 . S
C2633 C2632 1.386 . S
C2633 C2637 1.393 . S
C2634 H2626 0.950 . S
C2634 C2632 1.391 . S
C2634 C2635 1.400 . S
C2635 C2634 1.400 . S
C2635 C2636 1.398 . S
C2635 C2641 1.491 . S
C2636 H2627 0.950 . S
C2636 C2635 1.398 . S
C2636 C2637 1.391 . S
C2637 H2625 0.950 . S
C2637 C2633 1.393 . S
C2637 C2636 1.391 . S
C2638 H2628 0.950 . S
C2638 C2639 1.386 . S
C2638 C2640 1.391 . S
C2639 C2638 1.386 . S
C2639 C2643 1.393 . S
C2640 H2629 0.950 . S
C2640 C2638 1.391 . S
C2640 C2641 1.400 . S
C2641 C2635 1.491 . S
C2641 C2640 1.400 . S
C2641 C2642 1.398 . S
C2642 H2630 0.950 . S
C2642 C2641 1.398 . S
C2642 C2643 1.391 . S
C2643 H2631 0.950 . S
C2643 C2639 1.393 . S
C2643 C2642 1.391 . S
H2644 C2652 0.950 . S
H2645 C2657 0.950 . S
H2646 C2654 0.950 . S
H2647 C2656 0.950 . S
H2648 C2658 0.950 . S
H2649 C2660 0.950 . S
H2650 C2662 0.950 . S
H2651 C2663 0.950 . S
C2652 H2644 0.950 . S
C2652 C2653 1.386 . S
C2652 C2654 1.391 . S
C2653 C2652 1.386 . S
C2653 C2657 1.393 . S
C2654 H2646 0.950 . S
C2654 C2652 1.391 . S
C2654 C2655 1.400 . S
C2655 C2654 1.400 . S
C2655 C2656 1.398 . S
C2655 C2661 1.491 . S
C2656 H2647 0.950 . S
C2656 C2655 1.398 . S
C2656 C2657 1.391 . S
C2657 H2645 0.950 . S
C2657 C2653 1.393 . S
C2657 C2656 1.391 . S
C2658 H2648 0.950 . S
C2658 C2659 1.386 . S
C2658 C2660 1.391 . S
C2659 C2658 1.386 . S
C2659 C2663 1.393 . S
C2660 H2649 0.950 . S
C2660 C2658 1.391 . S
C2660 C2661 1.400 . S
C2661 C2655 1.491 . S
C2661 C2660 1.400 . S
C2661 C2662 1.398 . S
C2662 H2650 0.950 . S
C2662 C2661 1.398 . S
C2662 C2663 1.391 . S
C2663 H2651 0.950 . S
C2663 C2659 1.393 . S
C2663 C2662 1.391 . S
H2664 C2672 0.950 . S
H2665 C2677 0.950 . S
H2666 C2674 0.950 . S
H2667 C2676 0.950 . S
H2668 C2678 0.950 . S
H2669 C2680 0.950 . S
H2670 C2682 0.951 . S
H2671 C2683 0.950 . S
C2672 H2664 0.950 . S
C2672 C2673 1.386 . S
C2672 C2674 1.391 . S
C2673 C2672 1.386 . S
C2673 C2677 1.393 . S
C2674 H2666 0.950 . S
C2674 C2672 1.391 . S
C2674 C2675 1.400 . S
C2675 C2674 1.400 . S
C2675 C2676 1.398 . S
C2675 C2681 1.491 . S
C2676 H2667 0.950 . S
C2676 C2675 1.398 . S
C2676 C2677 1.391 . S
C2677 H2665 0.950 . S
C2677 C2673 1.393 . S
C2677 C2676 1.391 . S
C2678 H2668 0.950 . S
C2678 C2679 1.386 1_565 S
C2678 C2680 1.391 . S
C2679 C2678 1.386 1_545 S
C2679 C2683 1.393 . S
C2680 H2669 0.950 . S
C2680 C2678 1.391 . S
C2680 C2681 1.400 . S
C2681 C2675 1.491 . S
C2681 C2680 1.400 . S
C2681 C2682 1.395 1_565 S
C2682 H2670 0.951 . S
C2682 C2681 1.395 1_545 S
C2682 C2683 1.394 . S
C2683 H2671 0.950 . S
C2683 C2679 1.393 . S
C2683 C2682 1.394 . S
H2684 C2692 0.950 . S
H2685 C2697 0.950 . S
H2686 C2694 0.950 . S
H2687 C2696 0.950 . S
H2688 C2698 0.950 . S
H2689 C2700 0.950 . S
H2690 C2702 0.950 . S
H2691 C2703 0.950 . S
C2692 H2684 0.950 . S
C2692 C2693 1.386 . S
C2692 C2694 1.391 . S
C2693 C2692 1.386 . S
C2693 C2697 1.393 . S
C2694 H2686 0.950 . S
C2694 C2692 1.391 . S
C2694 C2695 1.400 . S
C2695 C2694 1.400 . S
C2695 C2696 1.398 . S
C2695 C2701 1.491 . S
C2696 H2687 0.950 . S
C2696 C2695 1.398 . S
C2696 C2697 1.391 . S
C2697 H2685 0.950 . S
C2697 C2693 1.393 . S
C2697 C2696 1.391 . S
C2698 H2688 0.950 . S
C2698 C2699 1.386 . S
C2698 C2700 1.391 . S
C2699 C2698 1.386 . S
C2699 C2703 1.393 . S
C2700 H2689 0.950 . S
C2700 C2698 1.391 . S
C2700 C2701 1.400 . S
C2701 C2695 1.491 . S
C2701 C2700 1.400 . S
C2701 C2702 1.398 . S
C2702 H2690 0.950 . S
C2702 C2701 1.398 . S
C2702 C2703 1.391 . S
C2703 H2691 0.950 . S
C2703 C2699 1.393 . S
C2703 C2702 1.391 . S
H2704 C2712 0.950 . S
H2705 C2717 0.950 . S
H2706 C2714 0.950 . S
H2707 C2716 0.950 . S
H2708 C2718 0.950 . S
H2709 C2720 0.950 . S
H2710 C2722 0.950 . S
H2711 C2723 0.950 . S
C2712 H2704 0.950 . S
C2712 C2713 1.386 . S
C2712 C2714 1.391 . S
C2713 C2712 1.386 . S
C2713 C2717 1.393 . S
C2714 H2706 0.950 . S
C2714 C2712 1.391 . S
C2714 C2715 1.400 . S
C2715 C2714 1.400 . S
C2715 C2716 1.398 . S
C2715 C2721 1.491 . S
C2716 H2707 0.950 . S
C2716 C2715 1.398 . S
C2716 C2717 1.391 . S
C2717 H2705 0.950 . S
C2717 C2713 1.393 . S
C2717 C2716 1.391 . S
C2718 H2708 0.950 . S
C2718 C2719 1.386 . S
C2718 C2720 1.391 . S
C2719 C2718 1.386 . S
C2719 C2723 1.393 . S
C2720 H2709 0.950 . S
C2720 C2718 1.391 . S
C2720 C2721 1.400 . S
C2721 C2715 1.491 . S
C2721 C2720 1.400 . S
C2721 C2722 1.398 . S
C2722 H2710 0.950 . S
C2722 C2721 1.398 . S
C2722 C2723 1.391 . S
C2723 H2711 0.950 . S
C2723 C2719 1.393 . S
C2723 C2722 1.391 . S
H2724 C2732 0.950 . S
H2725 C2737 0.950 . S
H2726 C2734 0.950 . S
H2727 C2736 0.950 . S
H2728 C2738 0.950 . S
H2729 C2740 0.950 . S
H2730 C2742 0.950 . S
H2731 C2743 0.950 . S
C2732 H2724 0.950 . S
C2732 C2733 1.386 . S
C2732 C2734 1.391 . S
C2733 C2732 1.386 . S
C2733 C2737 1.393 . S
C2734 H2726 0.950 . S
C2734 C2732 1.391 . S
C2734 C2735 1.400 . S
C2735 C2734 1.400 . S
C2735 C2736 1.398 . S
C2735 C2741 1.491 . S
C2736 H2727 0.950 . S
C2736 C2735 1.398 . S
C2736 C2737 1.391 . S
C2737 H2725 0.950 . S
C2737 C2733 1.393 . S
C2737 C2736 1.391 . S
C2738 H2728 0.950 . S
C2738 C2739 1.386 . S
C2738 C2740 1.391 . S
C2739 C2738 1.386 . S
C2739 C2743 1.393 . S
C2740 H2729 0.950 . S
C2740 C2738 1.391 . S
C2740 C2741 1.400 . S
C2741 C2735 1.491 . S
C2741 C2740 1.400 . S
C2741 C2742 1.398 . S
C2742 H2730 0.950 . S
C2742 C2741 1.398 . S
C2742 C2743 1.391 . S
C2743 H2731 0.950 . S
C2743 C2739 1.393 . S
C2743 C2742 1.391 . S
H2744 C2752 0.950 . S
H2745 C2757 0.952 . S
H2746 C2754 0.950 . S
H2747 C2756 0.950 . S
H2748 C2758 0.950 . S
H2749 C2760 0.950 . S
H2750 C2762 0.950 . S
H2751 C2763 0.950 . S
C2752 H2744 0.950 . S
C2752 C2753 1.386 . S
C2752 C2754 1.391 1_565 S
C2753 C2752 1.386 . S
C2753 C2757 1.398 . S
C2754 H2746 0.950 . S
C2754 C2752 1.391 1_545 S
C2754 C2755 1.400 . S
C2755 C2754 1.400 . S
C2755 C2756 1.398 . S
C2755 C2761 1.491 . S
C2756 H2747 0.950 . S
C2756 C2755 1.398 . S
C2756 C2757 1.383 1_545 S
C2757 H2745 0.952 . S
C2757 C2753 1.398 . S
C2757 C2756 1.383 1_565 S
C2758 H2748 0.950 . S
C2758 C2759 1.386 . S
C2758 C2760 1.391 . S
C2759 C2758 1.386 . S
C2759 C2763 1.393 . S
C2760 H2749 0.950 . S
C2760 C2758 1.391 . S
C2760 C2761 1.400 . S
C2761 C2755 1.491 . S
C2761 C2760 1.400 . S
C2761 C2762 1.398 . S
C2762 H2750 0.950 . S
C2762 C2761 1.398 . S
C2762 C2763 1.391 . S
C2763 H2751 0.950 . S
C2763 C2759 1.393 . S
C2763 C2762 1.391 . S
H2764 C2772 0.950 . S
H2765 C2777 0.950 . S
H2766 C2774 0.953 . S
H2767 C2776 0.950 . S
H2768 C2778 0.950 . S
H2769 C2780 0.950 . S
H2770 C2782 0.950 . S
H2771 C2783 0.950 . S
C2772 H2764 0.950 . S
C2772 C2773 1.386 . S
C2772 C2774 1.391 1_545 S
C2773 C2772 1.386 . S
C2773 C2777 1.393 1_545 S
C2774 H2766 0.953 . S
C2774 C2772 1.391 1_565 S
C2774 C2775 1.400 . S
C2775 C2774 1.400 . S
C2775 C2776 1.398 . S
C2775 C2781 1.491 . S
C2776 H2767 0.950 . S
C2776 C2775 1.398 . S
C2776 C2777 1.391 . S
C2777 H2765 0.950 . S
C2777 C2773 1.393 1_565 S
C2777 C2776 1.391 . S
C2778 H2768 0.950 . S
C2778 C2779 1.386 . S
C2778 C2780 1.391 . S
C2779 C2778 1.386 . S
C2779 C2783 1.393 . S
C2780 H2769 0.950 . S
C2780 C2778 1.391 . S
C2780 C2781 1.400 . S
C2781 C2775 1.491 . S
C2781 C2780 1.400 . S
C2781 C2782 1.398 . S
C2782 H2770 0.950 . S
C2782 C2781 1.398 . S
C2782 C2783 1.391 . S
C2783 H2771 0.950 . S
C2783 C2779 1.393 . S
C2783 C2782 1.391 . S
H2784 C2792 0.950 . S
H2785 C2797 0.950 . S
H2786 C2794 0.950 . S
H2787 C2796 0.950 . S
H2788 C2798 0.950 . S
H2789 C2800 0.950 . S
H2790 C2802 0.950 . S
H2791 C2803 0.950 . S
C2792 H2784 0.950 . S
C2792 C2793 1.386 . S
C2792 C2794 1.391 . S
C2793 C2792 1.386 . S
C2793 C2797 1.393 . S
C2794 H2786 0.950 . S
C2794 C2792 1.391 . S
C2794 C2795 1.400 . S
C2795 C2794 1.400 . S
C2795 C2796 1.398 . S
C2795 C2801 1.491 . S
C2796 H2787 0.950 . S
C2796 C2795 1.398 . S
C2796 C2797 1.391 . S
C2797 H2785 0.950 . S
C2797 C2793 1.393 . S
C2797 C2796 1.391 . S
C2798 H2788 0.950 . S
C2798 C2799 1.386 . S
C2798 C2800 1.391 . S
C2799 C2798 1.386 . S
C2799 C2803 1.393 . S
C2800 H2789 0.950 . S
C2800 C2798 1.391 . S
C2800 C2801 1.400 . S
C2801 C2795 1.491 . S
C2801 C2800 1.400 . S
C2801 C2802 1.398 . S
C2802 H2790 0.950 . S
C2802 C2801 1.398 . S
C2802 C2803 1.391 . S
C2803 H2791 0.950 . S
C2803 C2799 1.393 . S
C2803 C2802 1.391 . S
H2804 C2812 0.950 . S
H2805 C2817 0.950 . S
H2806 C2814 0.950 . S
H2807 C2816 0.950 . S
H2808 C2818 0.950 . S
H2809 C2820 0.950 . S
H2810 C2822 0.950 . S
H2811 C2823 0.950 . S
C2812 H2804 0.950 . S
C2812 C2813 1.386 . S
C2812 C2814 1.391 . S
C2813 C2812 1.386 . S
C2813 C2817 1.393 . S
C2814 H2806 0.950 . S
C2814 C2812 1.391 . S
C2814 C2815 1.400 . S
C2815 C2814 1.400 . S
C2815 C2816 1.398 . S
C2815 C2821 1.491 . S
C2816 H2807 0.950 . S
C2816 C2815 1.398 . S
C2816 C2817 1.391 . S
C2817 H2805 0.950 . S
C2817 C2813 1.393 . S
C2817 C2816 1.391 . S
C2818 H2808 0.950 . S
C2818 C2819 1.386 . S
C2818 C2820 1.391 . S
C2819 C2818 1.386 . S
C2819 C2823 1.393 . S
C2820 H2809 0.950 . S
C2820 C2818 1.391 . S
C2820 C2821 1.400 . S
C2821 C2815 1.491 . S
C2821 C2820 1.400 . S
C2821 C2822 1.398 . S
C2822 H2810 0.950 . S
C2822 C2821 1.398 . S
C2822 C2823 1.391 . S
C2823 H2811 0.950 . S
C2823 C2819 1.393 . S
C2823 C2822 1.391 . S
H2824 C2832 0.950 . S
H2825 C2837 0.950 . S
H2826 C2834 0.950 . S
H2827 C2836 0.950 . S
H2828 C2838 0.950 . S
H2829 C2840 0.950 . S
H2830 C2842 0.950 . S
H2831 C2843 0.950 . S
C2832 H2824 0.950 . S
C2832 C2833 1.386 . S
C2832 C2834 1.391 . S
C2833 C2832 1.386 . S
C2833 C2837 1.393 . S
C2834 H2826 0.950 . S
C2834 C2832 1.391 . S
C2834 C2835 1.400 . S
C2835 C2834 1.400 . S
C2835 C2836 1.398 . S
C2835 C2841 1.491 . S
C2836 H2827 0.950 . S
C2836 C2835 1.398 . S
C2836 C2837 1.391 . S
C2837 H2825 0.950 . S
C2837 C2833 1.393 . S
C2837 C2836 1.391 . S
C2838 H2828 0.950 . S
C2838 C2839 1.386 . S
C2838 C2840 1.391 . S
C2839 C2838 1.386 . S
C2839 C2843 1.393 . S
C2840 H2829 0.950 . S
C2840 C2838 1.391 . S
C2840 C2841 1.400 . S
C2841 C2835 1.491 . S
C2841 C2840 1.400 . S
C2841 C2842 1.398 . S
C2842 H2830 0.950 . S
C2842 C2841 1.398 . S
C2842 C2843 1.391 . S
C2843 H2831 0.950 . S
C2843 C2839 1.393 . S
C2843 C2842 1.391 . S
H2844 C2852 0.950 . S
H2845 C2857 0.950 . S
H2846 C2854 0.950 . S
H2847 C2856 0.950 . S
H2848 C2858 0.950 . S
H2849 C2860 0.950 . S
H2850 C2862 0.950 . S
H2851 C2863 0.950 . S
C2852 H2844 0.950 . S
C2852 C2853 1.386 . S
C2852 C2854 1.391 . S
C2853 C2852 1.386 . S
C2853 C2857 1.393 . S
C2854 H2846 0.950 . S
C2854 C2852 1.391 . S
C2854 C2855 1.400 . S
C2855 C2854 1.400 . S
C2855 C2856 1.398 . S
C2855 C2861 1.491 . S
C2856 H2847 0.950 . S
C2856 C2855 1.398 . S
C2856 C2857 1.391 . S
C2857 H2845 0.950 . S
C2857 C2853 1.393 . S
C2857 C2856 1.391 . S
C2858 H2848 0.950 . S
C2858 C2859 1.386 . S
C2858 C2860 1.391 1_655 S
C2859 C2858 1.386 . S
C2859 C2863 1.393 . S
C2860 H2849 0.950 . S
C2860 C2858 1.391 1_455 S
C2860 C2861 1.400 . S
C2861 C2855 1.491 . S
C2861 C2860 1.400 . S
C2861 C2862 1.398 . S
C2862 H2850 0.950 . S
C2862 C2861 1.398 . S
C2862 C2863 1.391 1_455 S
C2863 H2851 0.950 . S
C2863 C2859 1.393 . S
C2863 C2862 1.391 1_655 S
H2864 C2872 0.950 . S
H2865 C2877 0.950 . S
H2866 C2874 0.950 . S
H2867 C2876 0.950 . S
H2868 C2878 0.950 . S
H2869 C2880 0.950 . S
H2870 C2882 0.950 . S
H2871 C2883 0.950 . S
C2872 H2864 0.950 . S
C2872 C2873 1.386 . S
C2872 C2874 1.391 . S
C2873 C2872 1.386 . S
C2873 C2877 1.393 . S
C2874 H2866 0.950 . S
C2874 C2872 1.391 . S
C2874 C2875 1.400 . S
C2875 C2874 1.400 . S
C2875 C2876 1.398 . S
C2875 C2881 1.491 . S
C2876 H2867 0.950 . S
C2876 C2875 1.398 . S
C2876 C2877 1.391 . S
C2877 H2865 0.950 . S
C2877 C2873 1.393 . S
C2877 C2876 1.391 . S
C2878 H2868 0.950 . S
C2878 C2879 1.386 . S
C2878 C2880 1.391 . S
C2879 C2878 1.386 . S
C2879 C2883 1.393 . S
C2880 H2869 0.950 . S
C2880 C2878 1.391 . S
C2880 C2881 1.400 . S
C2881 C2875 1.491 . S
C2881 C2880 1.400 . S
C2881 C2882 1.398 . S
C2882 H2870 0.950 . S
C2882 C2881 1.398 . S
C2882 C2883 1.391 . S
C2883 H2871 0.950 . S
C2883 C2879 1.393 . S
C2883 C2882 1.391 . S
H2884 C2892 0.950 . S
H2885 C2897 0.950 . S
H2886 C2894 0.945 1_655 S
H2887 C2896 0.950 . S
H2888 C2898 0.950 . S
H2889 C2900 0.950 . S
H2890 C2902 0.950 . S
H2891 C2903 0.950 . S
C2892 H2884 0.950 . S
C2892 C2893 1.386 . S
C2892 C2894 1.366 1_655 S
C2893 C2892 1.386 . S
C2893 C2897 1.393 1_655 S
C2894 H2886 0.945 1_455 S
C2894 C2892 1.366 1_455 S
C2894 C2895 1.432 . S
C2895 C2894 1.432 . S
C2895 C2896 1.398 . S
C2895 C2901 1.491 . S
C2896 H2887 0.950 . S
C2896 C2895 1.398 . S
C2896 C2897 1.391 . S
C2897 H2885 0.950 . S
C2897 C2893 1.393 1_455 S
C2897 C2896 1.391 . S
C2898 H2888 0.950 . S
C2898 C2899 1.386 . S
C2898 C2900 1.391 . S
C2899 C2898 1.386 . S
C2899 C2903 1.393 . S
C2900 H2889 0.950 . S
C2900 C2898 1.391 . S
C2900 C2901 1.400 . S
C2901 C2895 1.491 . S
C2901 C2900 1.400 . S
C2901 C2902 1.398 . S
C2902 H2890 0.950 . S
C2902 C2901 1.398 . S
C2902 C2903 1.391 . S
C2903 H2891 0.950 . S
C2903 C2899 1.393 . S
C2903 C2902 1.391 . S
H2904 C2912 0.950 . S
H2905 C2917 0.950 . S
H2906 C2914 0.950 . S
H2907 C2916 0.950 . S
H2908 C2918 0.950 . S
H2909 C2920 0.950 . S
H2910 C2922 0.950 . S
H2911 C2923 0.950 . S
C2912 H2904 0.950 . S
C2912 C2913 1.386 . S
C2912 C2914 1.391 . S
C2913 C2912 1.386 . S
C2913 C2917 1.393 . S
C2914 H2906 0.950 . S
C2914 C2912 1.391 . S
C2914 C2915 1.400 . S
C2915 C2914 1.400 . S
C2915 C2916 1.398 . S
C2915 C2921 1.491 . S
C2916 H2907 0.950 . S
C2916 C2915 1.398 . S
C2916 C2917 1.391 . S
C2917 H2905 0.950 . S
C2917 C2913 1.393 . S
C2917 C2916 1.391 . S
C2918 H2908 0.950 . S
C2918 C2919 1.386 . S
C2918 C2920 1.391 . S
C2919 C2918 1.386 . S
C2919 C2923 1.393 . S
C2920 H2909 0.950 . S
C2920 C2918 1.391 . S
C2920 C2921 1.400 . S
C2921 C2915 1.491 . S
C2921 C2920 1.400 . S
C2921 C2922 1.398 . S
C2922 H2910 0.950 . S
C2922 C2921 1.398 . S
C2922 C2923 1.391 . S
C2923 H2911 0.950 . S
C2923 C2919 1.393 . S
C2923 C2922 1.391 . S
H2924 C2932 0.950 . S
H2925 C2937 0.950 . S
H2926 C2934 0.950 . S
H2927 C2936 0.950 . S
H2928 C2938 0.950 . S
H2929 C2940 0.950 . S
H2930 C2942 0.950 . S
H2931 C2943 0.950 . S
C2932 H2924 0.950 . S
C2932 C2933 1.386 . S
C2932 C2934 1.391 . S
C2933 C2932 1.386 . S
C2933 C2937 1.393 . S
C2934 H2926 0.950 . S
C2934 C2932 1.391 . S
C2934 C2935 1.400 . S
C2935 C2934 1.400 . S
C2935 C2936 1.398 . S
C2935 C2941 1.491 . S
C2936 H2927 0.950 . S
C2936 C2935 1.398 . S
C2936 C2937 1.391 . S
C2937 H2925 0.950 . S
C2937 C2933 1.393 . S
C2937 C2936 1.391 . S
C2938 H2928 0.950 . S
C2938 C2939 1.386 . S
C2938 C2940 1.391 . S
C2939 C2938 1.386 . S
C2939 C2943 1.393 . S
C2940 H2929 0.950 . S
C2940 C2938 1.391 . S
C2940 C2941 1.400 . S
C2941 C2935 1.491 . S
C2941 C2940 1.400 . S
C2941 C2942 1.398 . S
C2942 H2930 0.950 . S
C2942 C2941 1.398 . S
C2942 C2943 1.391 . S
C2943 H2931 0.950 . S
C2943 C2939 1.393 . S
C2943 C2942 1.391 . S
H2944 C2952 0.950 . S
H2945 C2957 0.950 . S
H2946 C2954 0.950 . S
H2947 C2956 0.950 . S
H2948 C2958 0.950 . S
H2949 C2960 0.950 . S
H2950 C2962 0.950 . S
H2951 C2963 0.950 . S
C2952 H2944 0.950 . S
C2952 C2953 1.386 . S
C2952 C2954 1.391 . S
C2953 C2952 1.386 . S
C2953 C2957 1.393 . S
C2954 H2946 0.950 . S
C2954 C2952 1.391 . S
C2954 C2955 1.400 . S
C2955 C2954 1.400 . S
C2955 C2956 1.398 . S
C2955 C2961 1.491 . S
C2956 H2947 0.950 . S
C2956 C2955 1.398 . S
C2956 C2957 1.391 . S
C2957 H2945 0.950 . S
C2957 C2953 1.393 . S
C2957 C2956 1.391 . S
C2958 H2948 0.950 . S
C2958 C2959 1.386 . S
C2958 C2960 1.391 . S
C2959 C2958 1.386 . S
C2959 C2963 1.393 . S
C2960 H2949 0.950 . S
C2960 C2958 1.391 . S
C2960 C2961 1.400 . S
C2961 C2955 1.491 . S
C2961 C2960 1.400 . S
C2961 C2962 1.398 . S
C2962 H2950 0.950 . S
C2962 C2961 1.398 . S
C2962 C2963 1.391 . S
C2963 H2951 0.950 . S
C2963 C2959 1.393 . S
C2963 C2962 1.391 . S
H2964 C2972 0.950 . S
H2965 C2977 0.950 . S
H2966 C2974 0.950 . S
H2967 C2976 0.950 . S
H2968 C2978 0.950 . S
H2969 C2980 0.950 . S
H2970 C2982 0.950 . S
H2971 C2983 0.950 . S
C2972 H2964 0.950 . S
C2972 C2973 1.386 1_554 S
C2972 C2974 1.391 . S
C2973 C2972 1.386 1_556 S
C2973 C2977 1.393 . S
C2974 H2966 0.950 . S
C2974 C2972 1.391 . S
C2974 C2975 1.400 . S
C2975 C2974 1.400 . S
C2975 C2976 1.398 . S
C2975 C2981 1.491 . S
C2976 H2967 0.950 . S
C2976 C2975 1.398 . S
C2976 C2977 1.391 1_554 S
C2977 H2965 0.950 . S
C2977 C2973 1.393 . S
C2977 C2976 1.391 1_556 S
C2978 H2968 0.950 . S
C2978 C2979 1.386 . S
C2978 C2980 1.391 . S
C2979 C2978 1.386 . S
C2979 C2983 1.393 . S
C2980 H2969 0.950 . S
C2980 C2978 1.391 . S
C2980 C2981 1.400 . S
C2981 C2975 1.491 . S
C2981 C2980 1.400 . S
C2981 C2982 1.398 . S
C2982 H2970 0.950 . S
C2982 C2981 1.398 . S
C2982 C2983 1.391 . S
C2983 H2971 0.950 . S
C2983 C2979 1.393 . S
C2983 C2982 1.391 . S
H2984 C2992 0.950 . S
H2985 C2997 0.950 . S
H2986 C2994 0.950 . S
H2987 C2996 0.950 . S
H2988 C2998 0.950 . S
H2989 C3000 0.950 . S
H2990 C3002 0.950 . S
H2991 C3003 0.950 . S
C2992 H2984 0.950 . S
C2992 C2993 1.386 . S
C2992 C2994 1.391 . S
C2993 C2992 1.386 . S
C2993 C2997 1.393 . S
C2994 H2986 0.950 . S
C2994 C2992 1.391 . S
C2994 C2995 1.400 . S
C2995 C2994 1.400 . S
C2995 C2996 1.398 . S
C2995 C3001 1.491 . S
C2996 H2987 0.950 . S
C2996 C2995 1.398 . S
C2996 C2997 1.391 . S
C2997 H2985 0.950 . S
C2997 C2993 1.393 . S
C2997 C2996 1.391 . S
C2998 H2988 0.950 . S
C2998 C2999 1.386 . S
C2998 C3000 1.391 . S
C2999 C2998 1.386 . S
C2999 C3003 1.393 . S
C3000 H2989 0.950 . S
C3000 C2998 1.391 . S
C3000 C3001 1.400 . S
C3001 C2995 1.491 . S
C3001 C3000 1.400 . S
C3001 C3002 1.398 . S
C3002 H2990 0.950 . S
C3002 C3001 1.398 . S
C3002 C3003 1.391 . S
C3003 H2991 0.950 . S
C3003 C2999 1.393 . S
C3003 C3002 1.391 . S
H3004 C3012 0.950 . S
H3005 C3017 0.950 . S
H3006 C3014 0.950 . S
H3007 C3016 0.950 . S
H3008 C3018 0.950 . S
H3009 C3020 0.950 . S
H3010 C3022 0.950 . S
H3011 C3023 0.950 . S
C3012 H3004 0.950 . S
C3012 C3013 1.386 . S
C3012 C3014 1.391 . S
C3013 C3012 1.386 . S
C3013 C3017 1.393 . S
C3014 H3006 0.950 . S
C3014 C3012 1.391 . S
C3014 C3015 1.400 . S
C3015 C3014 1.400 . S
C3015 C3016 1.398 . S
C3015 C3021 1.491 . S
C3016 H3007 0.950 . S
C3016 C3015 1.398 . S
C3016 C3017 1.391 . S
C3017 H3005 0.950 . S
C3017 C3013 1.393 . S
C3017 C3016 1.391 . S
C3018 H3008 0.950 . S
C3018 C3019 1.386 . S
C3018 C3020 1.391 . S
C3019 C3018 1.386 . S
C3019 C3023 1.393 . S
C3020 H3009 0.950 . S
C3020 C3018 1.391 . S
C3020 C3021 1.400 . S
C3021 C3015 1.491 . S
C3021 C3020 1.400 . S
C3021 C3022 1.398 . S
C3022 H3010 0.950 . S
C3022 C3021 1.398 . S
C3022 C3023 1.391 . S
C3023 H3011 0.950 . S
C3023 C3019 1.393 . S
C3023 C3022 1.391 . S
H3024 C3032 0.950 . S
H3025 C3037 0.950 . S
H3026 C3034 0.950 . S
H3027 C3036 0.950 . S
H3028 C3038 0.950 . S
H3029 C3040 0.950 . S
H3030 C3042 0.950 . S
H3031 C3043 0.950 . S
C3032 H3024 0.950 . S
C3032 C3033 1.386 . S
C3032 C3034 1.391 . S
C3033 C3032 1.386 . S
C3033 C3037 1.393 . S
C3034 H3026 0.950 . S
C3034 C3032 1.391 . S
C3034 C3035 1.400 . S
C3035 C3034 1.400 . S
C3035 C3036 1.398 . S
C3035 C3041 1.491 . S
C3036 H3027 0.950 . S
C3036 C3035 1.398 . S
C3036 C3037 1.391 . S
C3037 H3025 0.950 . S
C3037 C3033 1.393 . S
C3037 C3036 1.391 . S
C3038 H3028 0.950 . S
C3038 C3039 1.386 . S
C3038 C3040 1.391 . S
C3039 C3038 1.386 . S
C3039 C3043 1.393 . S
C3040 H3029 0.950 . S
C3040 C3038 1.391 . S
C3040 C3041 1.400 . S
C3041 C3035 1.491 . S
C3041 C3040 1.400 . S
C3041 C3042 1.398 . S
C3042 H3030 0.950 . S
C3042 C3041 1.398 . S
C3042 C3043 1.391 . S
C3043 H3031 0.950 . S
C3043 C3039 1.393 . S
C3043 C3042 1.391 . S
H3044 C3052 0.950 . S
H3045 C3057 0.950 . S
H3046 C3054 0.950 . S
H3047 C3056 0.949 1_554 S
H3048 C3058 0.950 . S
H3049 C3060 0.950 . S
H3050 C3062 0.950 . S
H3051 C3063 0.950 . S
C3052 H3044 0.950 . S
C3052 C3053 1.386 1_556 S
C3052 C3054 1.391 . S
C3053 C3052 1.386 1_554 S
C3053 C3057 1.393 . S
C3054 H3046 0.950 . S
C3054 C3052 1.391 . S
C3054 C3055 1.400 . S
C3055 C3054 1.400 . S
C3055 C3056 1.403 . S
C3055 C3061 1.491 . S
C3056 H3047 0.949 1_556 S
C3056 C3055 1.403 . S
C3056 C3057 1.387 1_556 S
C3057 H3045 0.950 . S
C3057 C3053 1.393 . S
C3057 C3056 1.387 1_554 S
C3058 H3048 0.950 . S
C3058 C3059 1.386 . S
C3058 C3060 1.391 . S
C3059 C3058 1.386 . S
C3059 C3063 1.393 . S
C3060 H3049 0.950 . S
C3060 C3058 1.391 . S
C3060 C3061 1.400 . S
C3061 C3055 1.491 . S
C3061 C3060 1.400 . S
C3061 C3062 1.398 . S
C3062 H3050 0.950 . S
C3062 C3061 1.398 . S
C3062 C3063 1.391 . S
C3063 H3051 0.950 . S
C3063 C3059 1.393 . S
C3063 C3062 1.391 . S
H3064 C3072 0.950 . S
H3065 C3077 0.950 . S
H3066 C3074 0.950 . S
H3067 C3076 0.950 . S
H3068 C3078 0.950 . S
H3069 C3080 0.950 . S
H3070 C3082 0.950 . S
H3071 C3083 0.950 . S
C3072 H3064 0.950 . S
C3072 C3073 1.386 . S
C3072 C3074 1.391 . S
C3073 C3072 1.386 . S
C3073 C3077 1.393 . S
C3074 H3066 0.950 . S
C3074 C3072 1.391 . S
C3074 C3075 1.400 . S
C3075 C3074 1.400 . S
C3075 C3076 1.398 . S
C3075 C3081 1.491 . S
C3076 H3067 0.950 . S
C3076 C3075 1.398 . S
C3076 C3077 1.391 . S
C3077 H3065 0.950 . S
C3077 C3073 1.393 . S
C3077 C3076 1.391 . S
C3078 H3068 0.950 . S
C3078 C3079 1.386 . S
C3078 C3080 1.391 . S
C3079 C3078 1.386 . S
C3079 C3083 1.393 . S
C3080 H3069 0.950 . S
C3080 C3078 1.391 . S
C3080 C3081 1.400 . S
C3081 C3075 1.491 . S
C3081 C3080 1.400 . S
C3081 C3082 1.398 . S
C3082 H3070 0.950 . S
C3082 C3081 1.398 . S
C3082 C3083 1.391 . S
C3083 H3071 0.950 . S
C3083 C3079 1.393 . S
C3083 C3082 1.391 . S
H3084 C3092 0.950 . S
H3085 C3097 0.950 . S
H3086 C3094 0.950 . S
H3087 C3096 0.950 . S
H3088 C3098 0.950 . S
H3089 C3100 0.950 . S
H3090 C3102 0.950 . S
H3091 C3103 0.950 . S
C3092 H3084 0.950 . S
C3092 C3093 1.386 . S
C3092 C3094 1.391 . S
C3093 C3092 1.386 . S
C3093 C3097 1.393 . S
C3094 H3086 0.950 . S
C3094 C3092 1.391 . S
C3094 C3095 1.400 . S
C3095 C3094 1.400 . S
C3095 C3096 1.398 . S
C3095 C3101 1.491 . S
C3096 H3087 0.950 . S
C3096 C3095 1.398 . S
C3096 C3097 1.391 . S
C3097 H3085 0.950 . S
C3097 C3093 1.393 . S
C3097 C3096 1.391 . S
C3098 H3088 0.950 . S
C3098 C3099 1.386 . S
C3098 C3100 1.391 . S
C3099 C3098 1.386 . S
C3099 C3103 1.393 . S
C3100 H3089 0.950 . S
C3100 C3098 1.391 . S
C3100 C3101 1.400 . S
C3101 C3095 1.491 . S
C3101 C3100 1.400 . S
C3101 C3102 1.398 . S
C3102 H3090 0.950 . S
C3102 C3101 1.398 . S
C3102 C3103 1.391 . S
C3103 H3091 0.950 . S
C3103 C3099 1.393 . S
C3103 C3102 1.391 . S
H3104 C3112 0.950 . S
H3105 C3117 0.950 . S
H3106 C3114 0.950 . S
H3107 C3116 0.950 . S
H3108 C3118 0.950 . S
H3109 C3120 0.950 . S
H3110 C3122 0.950 . S
H3111 C3123 0.950 . S
C3112 H3104 0.950 . S
C3112 C3113 1.386 . S
C3112 C3114 1.391 . S
C3113 C3112 1.386 . S
C3113 C3117 1.393 . S
C3114 H3106 0.950 . S
C3114 C3112 1.391 . S
C3114 C3115 1.400 . S
C3115 C3114 1.400 . S
C3115 C3116 1.398 . S
C3115 C3121 1.491 . S
C3116 H3107 0.950 . S
C3116 C3115 1.398 . S
C3116 C3117 1.391 . S
C3117 H3105 0.950 . S
C3117 C3113 1.393 . S
C3117 C3116 1.391 . S
C3118 H3108 0.950 . S
C3118 C3119 1.386 . S
C3118 C3120 1.391 . S
C3119 C3118 1.386 . S
C3119 C3123 1.393 . S
C3120 H3109 0.950 . S
C3120 C3118 1.391 . S
C3120 C3121 1.400 . S
C3121 C3115 1.491 . S
C3121 C3120 1.400 . S
C3121 C3122 1.398 . S
C3122 H3110 0.950 . S
C3122 C3121 1.398 . S
C3122 C3123 1.391 . S
C3123 H3111 0.950 . S
C3123 C3119 1.393 . S
C3123 C3122 1.391 . S
H3124 C3132 0.950 . S
H3125 C3137 0.950 . S
H3126 C3134 0.950 . S
H3127 C3136 0.950 . S
H3128 C3138 0.950 . S
H3129 C3140 0.950 . S
H3130 C3142 0.950 . S
H3131 C3143 0.950 . S
C3132 H3124 0.950 . S
C3132 C3133 1.386 . S
C3132 C3134 1.391 . S
C3133 C3132 1.386 . S
C3133 C3137 1.393 . S
C3134 H3126 0.950 . S
C3134 C3132 1.391 . S
C3134 C3135 1.400 . S
C3135 C3134 1.400 . S
C3135 C3136 1.398 . S
C3135 C3141 1.491 . S
C3136 H3127 0.950 . S
C3136 C3135 1.398 . S
C3136 C3137 1.391 . S
C3137 H3125 0.950 . S
C3137 C3133 1.393 . S
C3137 C3136 1.391 . S
C3138 H3128 0.950 . S
C3138 C3139 1.386 . S
C3138 C3140 1.391 . S
C3139 C3138 1.386 . S
C3139 C3143 1.393 . S
C3140 H3129 0.950 . S
C3140 C3138 1.391 . S
C3140 C3141 1.400 . S
C3141 C3135 1.491 . S
C3141 C3140 1.400 . S
C3141 C3142 1.398 . S
C3142 H3130 0.950 . S
C3142 C3141 1.398 . S
C3142 C3143 1.391 . S
C3143 H3131 0.950 . S
C3143 C3139 1.393 . S
C3143 C3142 1.391 . S
H3144 C3152 0.950 . S
H3145 C3157 0.950 . S
H3146 C3154 0.950 . S
H3147 C3156 0.950 . S
H3148 C3158 0.950 . S
H3149 C3160 0.950 . S
H3150 C3162 0.950 . S
H3151 C3163 0.950 . S
C3152 H3144 0.950 . S
C3152 C3153 1.386 . S
C3152 C3154 1.391 1_565 S
C3153 C3152 1.386 . S
C3153 C3157 1.393 . S
C3154 H3146 0.950 . S
C3154 C3152 1.391 1_545 S
C3154 C3155 1.400 . S
C3155 C3154 1.400 . S
C3155 C3156 1.398 . S
C3155 C3161 1.491 . S
C3156 H3147 0.950 . S
C3156 C3155 1.398 . S
C3156 C3157 1.391 1_545 S
C3157 H3145 0.950 . S
C3157 C3153 1.393 . S
C3157 C3156 1.391 1_565 S
C3158 H3148 0.950 . S
C3158 C3159 1.386 . S
C3158 C3160 1.391 . S
C3159 C3158 1.386 . S
C3159 C3163 1.393 . S
C3160 H3149 0.950 . S
C3160 C3158 1.391 . S
C3160 C3161 1.400 . S
C3161 C3155 1.491 . S
C3161 C3160 1.400 . S
C3161 C3162 1.398 . S
C3162 H3150 0.950 . S
C3162 C3161 1.398 . S
C3162 C3163 1.391 . S
C3163 H3151 0.950 . S
C3163 C3159 1.393 . S
C3163 C3162 1.391 . S
H3164 C3172 0.950 . S
H3165 C3177 0.950 . S
H3166 C3174 0.950 . S
H3167 C3176 0.950 . S
H3168 C3178 0.950 . S
H3169 C3180 0.950 . S
H3170 C3182 0.950 . S
H3171 C3183 0.950 . S
C3172 H3164 0.950 . S
C3172 C3173 1.386 . S
C3172 C3174 1.391 . S
C3173 C3172 1.386 . S
C3173 C3177 1.393 . S
C3174 H3166 0.950 . S
C3174 C3172 1.391 . S
C3174 C3175 1.400 . S
C3175 C3174 1.400 . S
C3175 C3176 1.398 . S
C3175 C3181 1.491 . S
C3176 H3167 0.950 . S
C3176 C3175 1.398 . S
C3176 C3177 1.391 . S
C3177 H3165 0.950 . S
C3177 C3173 1.393 . S
C3177 C3176 1.391 . S
C3178 H3168 0.950 . S
C3178 C3179 1.386 . S
C3178 C3180 1.391 . S
C3179 C3178 1.386 . S
C3179 C3183 1.393 . S
C3180 H3169 0.950 . S
C3180 C3178 1.391 . S
C3180 C3181 1.400 . S
C3181 C3175 1.491 . S
C3181 C3180 1.400 . S
C3181 C3182 1.398 . S
C3182 H3170 0.950 . S
C3182 C3181 1.398 . S
C3182 C3183 1.391 . S
C3183 H3171 0.950 . S
C3183 C3179 1.393 . S
C3183 C3182 1.391 . S
H3184 C3192 0.950 . S
H3185 C3197 0.950 . S
H3186 C3194 0.950 . S
H3187 C3196 0.950 . S
H3188 C3198 0.950 . S
H3189 C3200 0.950 . S
H3190 C3202 0.950 . S
H3191 C3203 0.950 . S
C3192 H3184 0.950 . S
C3192 C3193 1.386 . S
C3192 C3194 1.391 . S
C3193 C3192 1.386 . S
C3193 C3197 1.393 . S
C3194 H3186 0.950 . S
C3194 C3192 1.391 . S
C3194 C3195 1.400 . S
C3195 C3194 1.400 . S
C3195 C3196 1.398 . S
C3195 C3201 1.491 . S
C3196 H3187 0.950 . S
C3196 C3195 1.398 . S
C3196 C3197 1.391 . S
C3197 H3185 0.950 . S
C3197 C3193 1.393 . S
C3197 C3196 1.391 . S
C3198 H3188 0.950 . S
C3198 C3199 1.386 . S
C3198 C3200 1.391 . S
C3199 C3198 1.386 . S
C3199 C3203 1.393 . S
C3200 H3189 0.950 . S
C3200 C3198 1.391 . S
C3200 C3201 1.400 . S
C3201 C3195 1.491 . S
C3201 C3200 1.400 . S
C3201 C3202 1.398 . S
C3202 H3190 0.950 . S
C3202 C3201 1.398 . S
C3202 C3203 1.391 . S
C3203 H3191 0.950 . S
C3203 C3199 1.393 . S
C3203 C3202 1.391 . S
H3204 C3212 0.950 . S
H3205 C3217 0.950 . S
H3206 C3214 0.950 . S
H3207 C3216 0.950 . S
H3208 C3218 0.950 . S
H3209 C3220 0.950 . S
H3210 C3222 0.950 . S
H3211 C3223 0.950 . S
C3212 H3204 0.950 . S
C3212 C3213 1.386 . S
C3212 C3214 1.391 . S
C3213 C3212 1.386 . S
C3213 C3217 1.393 . S
C3214 H3206 0.950 . S
C3214 C3212 1.391 . S
C3214 C3215 1.400 . S
C3215 C3214 1.400 . S
C3215 C3216 1.398 . S
C3215 C3221 1.491 . S
C3216 H3207 0.950 . S
C3216 C3215 1.398 . S
C3216 C3217 1.391 . S
C3217 H3205 0.950 . S
C3217 C3213 1.393 . S
C3217 C3216 1.391 . S
C3218 H3208 0.950 . S
C3218 C3219 1.386 . S
C3218 C3220 1.391 . S
C3219 C3218 1.386 . S
C3219 C3223 1.393 . S
C3220 H3209 0.950 . S
C3220 C3218 1.391 . S
C3220 C3221 1.400 . S
C3221 C3215 1.491 . S
C3221 C3220 1.400 . S
C3221 C3222 1.398 . S
C3222 H3210 0.950 . S
C3222 C3221 1.398 . S
C3222 C3223 1.391 . S
C3223 H3211 0.950 . S
C3223 C3219 1.393 . S
C3223 C3222 1.391 . S
H3224 C3232 0.950 . S
H3225 C3237 0.950 . S
H3226 C3234 0.950 . S
H3227 C3236 0.950 . S
H3228 C3238 0.958 . S
H3229 C3240 0.950 . S
H3230 C3242 0.950 . S
H3231 C3243 0.950 . S
C3232 H3224 0.950 . S
C3232 C3233 1.386 . S
C3232 C3234 1.391 . S
C3233 C3232 1.386 . S
C3233 C3237 1.393 . S
C3234 H3226 0.950 . S
C3234 C3232 1.391 . S
C3234 C3235 1.400 . S
C3235 C3234 1.400 . S
C3235 C3236 1.398 . S
C3235 C3241 1.491 . S
C3236 H3227 0.950 . S
C3236 C3235 1.398 . S
C3236 C3237 1.391 . S
C3237 H3225 0.950 . S
C3237 C3233 1.393 . S
C3237 C3236 1.391 . S
C3238 H3228 0.958 . S
C3238 C3239 1.410 . S
C3238 C3240 1.360 1_545 S
C3239 C3238 1.410 . S
C3239 C3243 1.393 . S
C3240 H3229 0.950 . S
C3240 C3238 1.360 1_565 S
C3240 C3241 1.400 . S
C3241 C3235 1.491 . S
C3241 C3240 1.400 . S
C3241 C3242 1.398 . S
C3242 H3230 0.950 . S
C3242 C3241 1.398 . S
C3242 C3243 1.391 1_565 S
C3243 H3231 0.950 . S
C3243 C3239 1.393 . S
C3243 C3242 1.391 1_545 S
H3244 C3252 0.950 . S
H3245 C3257 0.950 . S
H3246 C3254 0.950 . S
H3247 C3256 0.950 . S
H3248 C3258 0.950 . S
H3249 C3260 0.950 . S
H3250 C3262 0.950 . S
H3251 C3263 0.950 . S
C3252 H3244 0.950 . S
C3252 C3253 1.386 . S
C3252 C3254 1.391 . S
C3253 C3252 1.386 . S
C3253 C3257 1.393 . S
C3254 H3246 0.950 . S
C3254 C3252 1.391 . S
C3254 C3255 1.400 . S
C3255 C3254 1.400 . S
C3255 C3256 1.398 . S
C3255 C3261 1.491 . S
C3256 H3247 0.950 . S
C3256 C3255 1.398 . S
C3256 C3257 1.391 . S
C3257 H3245 0.950 . S
C3257 C3253 1.393 . S
C3257 C3256 1.391 . S
C3258 H3248 0.950 . S
C3258 C3259 1.386 . S
C3258 C3260 1.391 1_565 S
C3259 C3258 1.386 . S
C3259 C3263 1.393 1_565 S
C3260 H3249 0.950 . S
C3260 C3258 1.391 1_545 S
C3260 C3261 1.400 . S
C3261 C3255 1.491 . S
C3261 C3260 1.400 . S
C3261 C3262 1.398 . S
C3262 H3250 0.950 . S
C3262 C3261 1.398 . S
C3262 C3263 1.391 . S
C3263 H3251 0.950 . S
C3263 C3259 1.393 1_545 S
C3263 C3262 1.391 . S
H3264 C3272 0.950 . S
H3265 C3277 0.950 . S
H3266 C3274 0.950 . S
H3267 C3276 0.950 . S
H3268 C3278 0.950 . S
H3269 C3280 0.950 . S
H3270 C3282 0.950 . S
H3271 C3283 0.950 . S
C3272 H3264 0.950 . S
C3272 C3273 1.386 . S
C3272 C3274 1.391 . S
C3273 C3272 1.386 . S
C3273 C3277 1.393 . S
C3274 H3266 0.950 . S
C3274 C3272 1.391 . S
C3274 C3275 1.400 . S
C3275 C3274 1.400 . S
C3275 C3276 1.398 . S
C3275 C3281 1.491 . S
C3276 H3267 0.950 . S
C3276 C3275 1.398 . S
C3276 C3277 1.391 . S
C3277 H3265 0.950 . S
C3277 C3273 1.393 . S
C3277 C3276 1.391 . S
C3278 H3268 0.950 . S
C3278 C3279 1.386 . S
C3278 C3280 1.391 . S
C3279 C3278 1.386 . S
C3279 C3283 1.393 . S
C3280 H3269 0.950 . S
C3280 C3278 1.391 . S
C3280 C3281 1.400 . S
C3281 C3275 1.491 . S
C3281 C3280 1.400 . S
C3281 C3282 1.398 . S
C3282 H3270 0.950 . S
C3282 C3281 1.398 . S
C3282 C3283 1.391 . S
C3283 H3271 0.950 . S
C3283 C3279 1.393 . S
C3283 C3282 1.391 . S
H3284 C3292 0.950 . S
H3285 C3297 0.950 . S
H3286 C3294 0.950 . S
H3287 C3296 0.950 . S
H3288 C3298 0.950 . S
H3289 C3300 0.950 . S
H3290 C3302 0.950 . S
H3291 C3303 0.950 . S
C3292 H3284 0.950 . S
C3292 C3293 1.386 . S
C3292 C3294 1.391 . S
C3293 C3292 1.386 . S
C3293 C3297 1.393 . S
C3294 H3286 0.950 . S
C3294 C3292 1.391 . S
C3294 C3295 1.400 . S
C3295 C3294 1.400 . S
C3295 C3296 1.398 . S
C3295 C3301 1.491 . S
C3296 H3287 0.950 . S
C3296 C3295 1.398 . S
C3296 C3297 1.391 . S
C3297 H3285 0.950 . S
C3297 C3293 1.393 . S
C3297 C3296 1.391 . S
C3298 H3288 0.950 . S
C3298 C3299 1.386 . S
C3298 C3300 1.391 . S
C3299 C3298 1.386 . S
C3299 C3303 1.393 . S
C3300 H3289 0.950 . S
C3300 C3298 1.391 . S
C3300 C3301 1.400 . S
C3301 C3295 1.491 . S
C3301 C3300 1.400 . S
C3301 C3302 1.398 . S
C3302 H3290 0.950 . S
C3302 C3301 1.398 . S
C3302 C3303 1.391 . S
C3303 H3291 0.950 . S
C3303 C3299 1.393 . S
C3303 C3302 1.391 . S
H3304 C3312 0.950 . S
H3305 C3317 0.950 . S
H3306 C3314 0.950 . S
H3307 C3316 0.950 . S
H3308 C3318 0.950 . S
H3309 C3320 0.950 . S
H3310 C3322 0.950 . S
H3311 C3323 0.950 . S
C3312 H3304 0.950 . S
C3312 C3313 1.386 . S
C3312 C3314 1.391 . S
C3313 C3312 1.386 . S
C3313 C3317 1.393 . S
C3314 H3306 0.950 . S
C3314 C3312 1.391 . S
C3314 C3315 1.400 . S
C3315 C3314 1.400 . S
C3315 C3316 1.398 . S
C3315 C3321 1.491 . S
C3316 H3307 0.950 . S
C3316 C3315 1.398 . S
C3316 C3317 1.391 . S
C3317 H3305 0.950 . S
C3317 C3313 1.393 . S
C3317 C3316 1.391 . S
C3318 H3308 0.950 . S
C3318 C3319 1.386 . S
C3318 C3320 1.391 . S
C3319 C3318 1.386 . S
C3319 C3323 1.393 . S
C3320 H3309 0.950 . S
C3320 C3318 1.391 . S
C3320 C3321 1.400 . S
C3321 C3315 1.491 . S
C3321 C3320 1.400 . S
C3321 C3322 1.398 . S
C3322 H3310 0.950 . S
C3322 C3321 1.398 . S
C3322 C3323 1.391 . S
C3323 H3311 0.950 . S
C3323 C3319 1.393 . S
C3323 C3322 1.391 . S
H3324 C3332 0.950 . S
H3325 C3337 0.950 . S
H3326 C3334 0.950 . S
H3327 C3336 0.950 . S
H3328 C3338 0.950 . S
H3329 C3340 0.950 . S
H3330 C3342 0.950 . S
H3331 C3343 0.950 . S
C3332 H3324 0.950 . S
C3332 C3333 1.386 . S
C3332 C3334 1.391 . S
C3333 C3332 1.386 . S
C3333 C3337 1.393 . S
C3334 H3326 0.950 . S
C3334 C3332 1.391 . S
C3334 C3335 1.400 . S
C3335 C3334 1.400 . S
C3335 C3336 1.398 . S
C3335 C3341 1.491 . S
C3336 H3327 0.950 . S
C3336 C3335 1.398 . S
C3336 C3337 1.391 . S
C3337 H3325 0.950 . S
C3337 C3333 1.393 . S
C3337 C3336 1.391 . S
C3338 H3328 0.950 . S
C3338 C3339 1.386 . S
C3338 C3340 1.391 . S
C3339 C3338 1.386 . S
C3339 C3343 1.393 . S
C3340 H3329 0.950 . S
C3340 C3338 1.391 . S
C3340 C3341 1.400 . S
C3341 C3335 1.491 . S
C3341 C3340 1.400 . S
C3341 C3342 1.398 . S
C3342 H3330 0.950 . S
C3342 C3341 1.398 . S
C3342 C3343 1.391 . S
C3343 H3331 0.950 . S
C3343 C3339 1.393 . S
C3343 C3342 1.391 . S
H3344 C3352 0.950 . S
H3345 C3357 0.950 . S
H3346 C3354 0.950 . S
H3347 C3356 0.950 . S
H3348 C3358 0.950 . S
H3349 C3360 0.950 . S
H3350 C3362 0.950 . S
H3351 C3363 0.950 . S
C3352 H3344 0.950 . S
C3352 C3353 1.386 . S
C3352 C3354 1.391 . S
C3353 C3352 1.386 . S
C3353 C3357 1.393 . S
C3354 H3346 0.950 . S
C3354 C3352 1.391 . S
C3354 C3355 1.400 . S
C3355 C3354 1.400 . S
C3355 C3356 1.398 . S
C3355 C3361 1.491 . S
C3356 H3347 0.950 . S
C3356 C3355 1.398 . S
C3356 C3357 1.391 . S
C3357 H3345 0.950 . S
C3357 C3353 1.393 . S
C3357 C3356 1.391 . S
C3358 H3348 0.950 . S
C3358 C3359 1.386 . S
C3358 C3360 1.391 . S
C3359 C3358 1.386 . S
C3359 C3363 1.393 . S
C3360 H3349 0.950 . S
C3360 C3358 1.391 . S
C3360 C3361 1.400 . S
C3361 C3355 1.491 . S
C3361 C3360 1.400 . S
C3361 C3362 1.398 . S
C3362 H3350 0.950 . S
C3362 C3361 1.398 . S
C3362 C3363 1.391 . S
C3363 H3351 0.950 . S
C3363 C3359 1.393 . S
C3363 C3362 1.391 . S
H3364 C3372 0.950 . S
H3365 C3377 0.950 . S
H3366 C3374 0.950 . S
H3367 C3376 0.950 . S
H3368 C3378 0.950 . S
H3369 C3380 0.950 . S
H3370 C3382 0.950 . S
H3371 C3383 0.950 . S
C3372 H3364 0.950 . S
C3372 C3373 1.386 . S
C3372 C3374 1.391 . S
C3373 C3372 1.386 . S
C3373 C3377 1.393 . S
C3374 H3366 0.950 . S
C3374 C3372 1.391 . S
C3374 C3375 1.400 . S
C3375 C3374 1.400 . S
C3375 C3376 1.398 . S
C3375 C3381 1.491 . S
C3376 H3367 0.950 . S
C3376 C3375 1.398 . S
C3376 C3377 1.391 . S
C3377 H3365 0.950 . S
C3377 C3373 1.393 . S
C3377 C3376 1.391 . S
C3378 H3368 0.950 . S
C3378 C3379 1.386 . S
C3378 C3380 1.391 . S
C3379 C3378 1.386 . S
C3379 C3383 1.393 . S
C3380 H3369 0.950 . S
C3380 C3378 1.391 . S
C3380 C3381 1.400 . S
C3381 C3375 1.491 . S
C3381 C3380 1.400 . S
C3381 C3382 1.398 . S
C3382 H3370 0.950 . S
C3382 C3381 1.398 . S
C3382 C3383 1.391 . S
C3383 H3371 0.950 . S
C3383 C3379 1.393 . S
C3383 C3382 1.391 . S
H3384 C3392 0.950 . S
H3385 C3397 0.950 . S
H3386 C3394 0.950 . S
H3387 C3396 0.950 . S
H3388 C3398 0.950 . S
H3389 C3400 0.950 . S
H3390 C3402 0.950 . S
H3391 C3403 0.950 . S
C3392 H3384 0.950 . S
C3392 C3393 1.386 . S
C3392 C3394 1.391 . S
C3393 C3392 1.386 . S
C3393 C3397 1.393 . S
C3394 H3386 0.950 . S
C3394 C3392 1.391 . S
C3394 C3395 1.400 . S
C3395 C3394 1.400 . S
C3395 C3396 1.398 . S
C3395 C3401 1.491 . S
C3396 H3387 0.950 . S
C3396 C3395 1.398 . S
C3396 C3397 1.391 . S
C3397 H3385 0.950 . S
C3397 C3393 1.393 . S
C3397 C3396 1.391 . S
C3398 H3388 0.950 . S
C3398 C3399 1.386 . S
C3398 C3400 1.391 . S
C3399 C3398 1.386 . S
C3399 C3403 1.393 . S
C3400 H3389 0.950 . S
C3400 C3398 1.391 . S
C3400 C3401 1.400 . S
C3401 C3395 1.491 . S
C3401 C3400 1.400 . S
C3401 C3402 1.398 . S
C3402 H3390 0.950 . S
C3402 C3401 1.398 . S
C3402 C3403 1.391 . S
C3403 H3391 0.950 . S
C3403 C3399 1.393 . S
C3403 C3402 1.391 . S
H3404 C3412 0.950 . S
H3405 C3417 0.950 . S
H3406 C3414 0.950 . S
H3407 C3416 0.950 . S
H3408 C3418 0.950 . S
H3409 C3420 0.950 . S
H3410 C3422 0.950 . S
H3411 C3423 0.950 . S
C3412 H3404 0.950 . S
C3412 C3413 1.386 . S
C3412 C3414 1.391 . S
C3413 C3412 1.386 . S
C3413 C3417 1.393 . S
C3414 H3406 0.950 . S
C3414 C3412 1.391 . S
C3414 C3415 1.400 . S
C3415 C3414 1.400 . S
C3415 C3416 1.398 . S
C3415 C3421 1.491 . S
C3416 H3407 0.950 . S
C3416 C3415 1.398 . S
C3416 C3417 1.391 . S
C3417 H3405 0.950 . S
C3417 C3413 1.393 . S
C3417 C3416 1.391 . S
C3418 H3408 0.950 . S
C3418 C3419 1.386 . S
C3418 C3420 1.391 . S
C3419 C3418 1.386 . S
C3419 C3423 1.393 . S
C3420 H3409 0.950 . S
C3420 C3418 1.391 . S
C3420 C3421 1.400 . S
C3421 C3415 1.491 . S
C3421 C3420 1.400 . S
C3421 C3422 1.398 . S
C3422 H3410 0.950 . S
C3422 C3421 1.398 . S
C3422 C3423 1.391 . S
C3423 H3411 0.950 . S
C3423 C3419 1.393 . S
C3423 C3422 1.391 . S
H3424 C3432 0.950 . S
H3425 C3437 0.950 . S
H3426 C3434 0.950 . S
H3427 C3436 0.950 . S
H3428 C3438 0.950 . S
H3429 C3440 0.950 . S
H3430 C3442 0.950 . S
H3431 C3443 0.950 . S
C3432 H3424 0.950 . S
C3432 C3433 1.386 . S
C3432 C3434 1.391 . S
C3433 C3432 1.386 . S
C3433 C3437 1.393 . S
C3434 H3426 0.950 . S
C3434 C3432 1.391 . S
C3434 C3435 1.400 . S
C3435 C3434 1.400 . S
C3435 C3436 1.398 . S
C3435 C3441 1.491 . S
C3436 H3427 0.950 . S
C3436 C3435 1.398 . S
C3436 C3437 1.391 . S
C3437 H3425 0.950 . S
C3437 C3433 1.393 . S
C3437 C3436 1.391 . S
C3438 H3428 0.950 . S
C3438 C3439 1.386 . S
C3438 C3440 1.391 . S
C3439 C3438 1.386 . S
C3439 C3443 1.393 . S
C3440 H3429 0.950 . S
C3440 C3438 1.391 . S
C3440 C3441 1.400 . S
C3441 C3435 1.491 . S
C3441 C3440 1.400 . S
C3441 C3442 1.398 . S
C3442 H3430 0.950 . S
C3442 C3441 1.398 . S
C3442 C3443 1.391 . S
C3443 H3431 0.950 . S
C3443 C3439 1.393 . S
C3443 C3442 1.391 . S
H3444 C3452 0.950 . S
H3445 C3457 0.950 . S
H3446 C3454 0.950 . S
H3447 C3456 0.950 . S
H3448 C3458 0.950 . S
H3449 C3460 0.950 . S
H3450 C3462 0.950 . S
H3451 C3463 0.950 . S
C3452 H3444 0.950 . S
C3452 C3453 1.386 . S
C3452 C3454 1.391 . S
C3453 C3452 1.386 . S
C3453 C3457 1.393 . S
C3454 H3446 0.950 . S
C3454 C3452 1.391 . S
C3454 C3455 1.400 . S
C3455 C3454 1.400 . S
C3455 C3456 1.398 . S
C3455 C3461 1.491 . S
C3456 H3447 0.950 . S
C3456 C3455 1.398 . S
C3456 C3457 1.391 . S
C3457 H3445 0.950 . S
C3457 C3453 1.393 . S
C3457 C3456 1.391 . S
C3458 H3448 0.950 . S
C3458 C3459 1.386 . S
C3458 C3460 1.391 . S
C3459 C3458 1.386 . S
C3459 C3463 1.393 . S
C3460 H3449 0.950 . S
C3460 C3458 1.391 . S
C3460 C3461 1.400 . S
C3461 C3455 1.491 . S
C3461 C3460 1.400 . S
C3461 C3462 1.398 . S
C3462 H3450 0.950 . S
C3462 C3461 1.398 . S
C3462 C3463 1.391 . S
C3463 H3451 0.950 . S
C3463 C3459 1.393 . S
C3463 C3462 1.391 . S
H3464 C3472 0.950 . S
H3465 C3477 0.950 . S
H3466 C3474 0.950 . S
H3467 C3476 0.950 . S
H3468 C3478 0.950 . S
H3469 C3480 0.950 . S
H3470 C3482 0.950 . S
H3471 C3483 0.950 . S
C3472 H3464 0.950 . S
C3472 C3473 1.386 . S
C3472 C3474 1.391 . S
C3473 C3472 1.386 . S
C3473 C3477 1.393 . S
C3474 H3466 0.950 . S
C3474 C3472 1.391 . S
C3474 C3475 1.400 . S
C3475 C3474 1.400 . S
C3475 C3476 1.398 . S
C3475 C3481 1.491 . S
C3476 H3467 0.950 . S
C3476 C3475 1.398 . S
C3476 C3477 1.391 . S
C3477 H3465 0.950 . S
C3477 C3473 1.393 . S
C3477 C3476 1.391 . S
C3478 H3468 0.950 . S
C3478 C3479 1.386 . S
C3478 C3480 1.391 . S
C3479 C3478 1.386 . S
C3479 C3483 1.393 . S
C3480 H3469 0.950 . S
C3480 C3478 1.391 . S
C3480 C3481 1.400 . S
C3481 C3475 1.491 . S
C3481 C3480 1.400 . S
C3481 C3482 1.398 . S
C3482 H3470 0.950 . S
C3482 C3481 1.398 . S
C3482 C3483 1.391 . S
C3483 H3471 0.950 . S
C3483 C3479 1.393 . S
C3483 C3482 1.391 . S
H3484 C3492 0.950 . S
H3485 C3497 0.950 . S
H3486 C3494 0.950 . S
H3487 C3496 0.950 . S
H3488 C3498 0.950 . S
H3489 C3500 0.950 . S
H3490 C3502 0.950 . S
H3491 C3503 0.950 . S
C3492 H3484 0.950 . S
C3492 C3493 1.386 . S
C3492 C3494 1.391 . S
C3493 C3492 1.386 . S
C3493 C3497 1.393 . S
C3494 H3486 0.950 . S
C3494 C3492 1.391 . S
C3494 C3495 1.400 . S
C3495 C3494 1.400 . S
C3495 C3496 1.398 . S
C3495 C3501 1.491 . S
C3496 H3487 0.950 . S
C3496 C3495 1.398 . S
C3496 C3497 1.391 . S
C3497 H3485 0.950 . S
C3497 C3493 1.393 . S
C3497 C3496 1.391 . S
C3498 H3488 0.950 . S
C3498 C3499 1.386 . S
C3498 C3500 1.391 . S
C3499 C3498 1.386 . S
C3499 C3503 1.393 . S
C3500 H3489 0.950 . S
C3500 C3498 1.391 . S
C3500 C3501 1.400 . S
C3501 C3495 1.491 . S
C3501 C3500 1.400 . S
C3501 C3502 1.398 . S
C3502 H3490 0.950 . S
C3502 C3501 1.398 . S
C3502 C3503 1.391 . S
C3503 H3491 0.950 . S
C3503 C3499 1.393 . S
C3503 C3502 1.391 . S
H3504 C3512 0.950 . S
H3505 C3517 0.950 . S
H3506 C3514 0.950 . S
H3507 C3516 0.950 . S
H3508 C3518 0.950 . S
H3509 C3520 0.950 . S
H3510 C3522 0.950 . S
H3511 C3523 0.950 . S
C3512 H3504 0.950 . S
C3512 C3513 1.386 . S
C3512 C3514 1.391 . S
C3513 C3512 1.386 . S
C3513 C3517 1.393 . S
C3514 H3506 0.950 . S
C3514 C3512 1.391 . S
C3514 C3515 1.400 . S
C3515 C3514 1.400 . S
C3515 C3516 1.398 . S
C3515 C3521 1.491 . S
C3516 H3507 0.950 . S
C3516 C3515 1.398 . S
C3516 C3517 1.391 . S
C3517 H3505 0.950 . S
C3517 C3513 1.393 . S
C3517 C3516 1.391 . S
C3518 H3508 0.950 . S
C3518 C3519 1.386 . S
C3518 C3520 1.391 . S
C3519 C3518 1.386 . S
C3519 C3523 1.393 . S
C3520 H3509 0.950 . S
C3520 C3518 1.391 . S
C3520 C3521 1.400 . S
C3521 C3515 1.491 . S
C3521 C3520 1.400 . S
C3521 C3522 1.398 . S
C3522 H3510 0.950 . S
C3522 C3521 1.398 . S
C3522 C3523 1.391 . S
C3523 H3511 0.950 . S
C3523 C3519 1.393 . S
C3523 C3522 1.391 . S
H3524 C3532 0.950 . S
H3525 C3537 0.950 . S
H3526 C3534 0.950 . S
H3527 C3536 0.950 . S
H3528 C3538 0.950 . S
H3529 C3540 0.950 . S
H3530 C3542 0.950 . S
H3531 C3543 0.950 . S
C3532 H3524 0.950 . S
C3532 C3533 1.386 . S
C3532 C3534 1.391 . S
C3533 C3532 1.386 . S
C3533 C3537 1.393 . S
C3534 H3526 0.950 . S
C3534 C3532 1.391 . S
C3534 C3535 1.400 . S
C3535 C3534 1.400 . S
C3535 C3536 1.398 . S
C3535 C3541 1.491 . S
C3536 H3527 0.950 . S
C3536 C3535 1.398 . S
C3536 C3537 1.391 . S
C3537 H3525 0.950 . S
C3537 C3533 1.393 . S
C3537 C3536 1.391 . S
C3538 H3528 0.950 . S
C3538 C3539 1.386 . S
C3538 C3540 1.391 . S
C3539 C3538 1.386 . S
C3539 C3543 1.393 . S
C3540 H3529 0.950 . S
C3540 C3538 1.391 . S
C3540 C3541 1.400 . S
C3541 C3535 1.491 . S
C3541 C3540 1.400 . S
C3541 C3542 1.398 . S
C3542 H3530 0.950 . S
C3542 C3541 1.398 . S
C3542 C3543 1.391 . S
C3543 H3531 0.950 . S
C3543 C3539 1.393 . S
C3543 C3542 1.391 . S
H3544 C3552 0.950 . S
H3545 C3557 0.950 . S
H3546 C3554 0.950 . S
H3547 C3556 0.950 . S
H3548 C3558 0.950 . S
H3549 C3560 0.950 . S
H3550 C3562 0.950 . S
H3551 C3563 0.950 . S
C3552 H3544 0.950 . S
C3552 C3553 1.386 . S
C3552 C3554 1.391 . S
C3553 C3552 1.386 . S
C3553 C3557 1.393 . S
C3554 H3546 0.950 . S
C3554 C3552 1.391 . S
C3554 C3555 1.400 . S
C3555 C3554 1.400 . S
C3555 C3556 1.398 . S
C3555 C3561 1.491 . S
C3556 H3547 0.950 . S
C3556 C3555 1.398 . S
C3556 C3557 1.391 . S
C3557 H3545 0.950 . S
C3557 C3553 1.393 . S
C3557 C3556 1.391 . S
C3558 H3548 0.950 . S
C3558 C3559 1.386 . S
C3558 C3560 1.391 . S
C3559 C3558 1.386 . S
C3559 C3563 1.393 . S
C3560 H3549 0.950 . S
C3560 C3558 1.391 . S
C3560 C3561 1.400 . S
C3561 C3555 1.491 . S
C3561 C3560 1.400 . S
C3561 C3562 1.398 . S
C3562 H3550 0.950 . S
C3562 C3561 1.398 . S
C3562 C3563 1.391 . S
C3563 H3551 0.950 . S
C3563 C3559 1.393 . S
C3563 C3562 1.391 . S
H3564 C3572 0.950 . S
H3565 C3577 0.950 . S
H3566 C3574 0.950 . S
H3567 C3576 0.950 . S
H3568 C3578 0.950 . S
H3569 C3580 0.950 . S
H3570 C3582 0.950 . S
H3571 C3583 0.950 . S
C3572 H3564 0.950 . S
C3572 C3573 1.386 . S
C3572 C3574 1.391 . S
C3573 C3572 1.386 . S
C3573 C3577 1.393 . S
C3574 H3566 0.950 . S
C3574 C3572 1.391 . S
C3574 C3575 1.400 . S
C3575 C3574 1.400 . S
C3575 C3576 1.398 . S
C3575 C3581 1.491 . S
C3576 H3567 0.950 . S
C3576 C3575 1.398 . S
C3576 C3577 1.391 . S
C3577 H3565 0.950 . S
C3577 C3573 1.393 . S
C3577 C3576 1.391 . S
C3578 H3568 0.950 . S
C3578 C3579 1.386 . S
C3578 C3580 1.391 . S
C3579 C3578 1.386 . S
C3579 C3583 1.393 . S
C3580 H3569 0.950 . S
C3580 C3578 1.391 . S
C3580 C3581 1.400 . S
C3581 C3575 1.491 . S
C3581 C3580 1.400 . S
C3581 C3582 1.398 . S
C3582 H3570 0.950 . S
C3582 C3581 1.398 . S
C3582 C3583 1.391 . S
C3583 H3571 0.950 . S
C3583 C3579 1.393 . S
C3583 C3582 1.391 . S
H3584 C3592 0.950 . S
H3585 C3597 0.950 . S
H3586 C3594 0.950 . S
H3587 C3596 0.950 . S
H3588 C3598 0.950 . S
H3589 C3600 0.950 . S
H3590 C3602 0.950 . S
H3591 C3603 0.950 . S
C3592 H3584 0.950 . S
C3592 C3593 1.386 . S
C3592 C3594 1.391 . S
C3593 C3592 1.386 . S
C3593 C3597 1.393 . S
C3594 H3586 0.950 . S
C3594 C3592 1.391 . S
C3594 C3595 1.400 . S
C3595 C3594 1.400 . S
C3595 C3596 1.398 . S
C3595 C3601 1.491 . S
C3596 H3587 0.950 . S
C3596 C3595 1.398 . S
C3596 C3597 1.391 . S
C3597 H3585 0.950 . S
C3597 C3593 1.393 . S
C3597 C3596 1.391 . S
C3598 H3588 0.950 . S
C3598 C3599 1.386 . S
C3598 C3600 1.391 . S
C3599 C3598 1.386 . S
C3599 C3603 1.393 . S
C3600 H3589 0.950 . S
C3600 C3598 1.391 . S
C3600 C3601 1.400 . S
C3601 C3595 1.491 . S
C3601 C3600 1.400 . S
C3601 C3602 1.398 . S
C3602 H3590 0.950 . S
C3602 C3601 1.398 . S
C3602 C3603 1.391 . S
C3603 H3591 0.950 . S
C3603 C3599 1.393 . S
C3603 C3602 1.391 . S
H3604 C3612 0.950 . S
H3605 C3617 0.950 . S
H3606 C3614 0.950 . S
H3607 C3616 0.950 . S
H3608 C3618 0.950 . S
H3609 C3620 0.950 . S
H3610 C3622 0.950 . S
H3611 C3623 0.950 . S
C3612 H3604 0.950 . S
C3612 C3613 1.386 . S
C3612 C3614 1.391 . S
C3613 C3612 1.386 . S
C3613 C3617 1.393 . S
C3614 H3606 0.950 . S
C3614 C3612 1.391 . S
C3614 C3615 1.400 . S
C3615 C3614 1.400 . S
C3615 C3616 1.398 . S
C3615 C3621 1.491 . S
C3616 H3607 0.950 . S
C3616 C3615 1.398 . S
C3616 C3617 1.391 . S
C3617 H3605 0.950 . S
C3617 C3613 1.393 . S
C3617 C3616 1.391 . S
C3618 H3608 0.950 . S
C3618 C3619 1.386 . S
C3618 C3620 1.391 . S
C3619 C3618 1.386 . S
C3619 C3623 1.393 . S
C3620 H3609 0.950 . S
C3620 C3618 1.391 . S
C3620 C3621 1.400 . S
C3621 C3615 1.491 . S
C3621 C3620 1.400 . S
C3621 C3622 1.398 . S
C3622 H3610 0.950 . S
C3622 C3621 1.398 . S
C3622 C3623 1.391 . S
C3623 H3611 0.950 . S
C3623 C3619 1.393 . S
C3623 C3622 1.391 . S
H3624 C3632 0.950 . S
H3625 C3637 0.950 . S
H3626 C3634 0.950 . S
H3627 C3636 0.950 . S
H3628 C3638 0.950 . S
H3629 C3640 0.950 . S
H3630 C3642 0.950 . S
H3631 C3643 0.950 . S
C3632 H3624 0.950 . S
C3632 C3633 1.386 . S
C3632 C3634 1.391 . S
C3633 C3632 1.386 . S
C3633 C3637 1.393 . S
C3634 H3626 0.950 . S
C3634 C3632 1.391 . S
C3634 C3635 1.400 . S
C3635 C3634 1.400 . S
C3635 C3636 1.398 . S
C3635 C3641 1.491 . S
C3636 H3627 0.950 . S
C3636 C3635 1.398 . S
C3636 C3637 1.391 . S
C3637 H3625 0.950 . S
C3637 C3633 1.393 . S
C3637 C3636 1.391 . S
C3638 H3628 0.950 . S
C3638 C3639 1.386 . S
C3638 C3640 1.391 . S
C3639 C3638 1.386 . S
C3639 C3643 1.393 . S
C3640 H3629 0.950 . S
C3640 C3638 1.391 . S
C3640 C3641 1.400 . S
C3641 C3635 1.491 . S
C3641 C3640 1.400 . S
C3641 C3642 1.398 . S
C3642 H3630 0.950 . S
C3642 C3641 1.398 . S
C3642 C3643 1.391 . S
C3643 H3631 0.950 . S
C3643 C3639 1.393 . S
C3643 C3642 1.391 . S
H3644 C3652 0.950 . S
H3645 C3657 0.950 . S
H3646 C3654 0.950 . S
H3647 C3656 0.950 . S
H3648 C3658 0.950 . S
H3649 C3660 0.950 . S
H3650 C3662 0.950 . S
H3651 C3663 0.950 . S
C3652 H3644 0.950 . S
C3652 C3653 1.386 . S
C3652 C3654 1.391 . S
C3653 C3652 1.386 . S
C3653 C3657 1.393 . S
C3654 H3646 0.950 . S
C3654 C3652 1.391 . S
C3654 C3655 1.400 . S
C3655 C3654 1.400 . S
C3655 C3656 1.398 . S
C3655 C3661 1.491 . S
C3656 H3647 0.950 . S
C3656 C3655 1.398 . S
C3656 C3657 1.391 . S
C3657 H3645 0.950 . S
C3657 C3653 1.393 . S
C3657 C3656 1.391 . S
C3658 H3648 0.950 . S
C3658 C3659 1.386 . S
C3658 C3660 1.391 . S
C3659 C3658 1.386 . S
C3659 C3663 1.393 . S
C3660 H3649 0.950 . S
C3660 C3658 1.391 . S
C3660 C3661 1.400 . S
C3661 C3655 1.491 . S
C3661 C3660 1.400 . S
C3661 C3662 1.398 . S
C3662 H3650 0.950 . S
C3662 C3661 1.398 . S
C3662 C3663 1.391 . S
C3663 H3651 0.950 . S
C3663 C3659 1.393 . S
C3663 C3662 1.391 . S
H3664 C3672 0.950 . S
H3665 C3677 0.950 . S
H3666 C3674 0.950 . S
H3667 C3676 0.950 . S
H3668 C3678 0.950 . S
H3669 C3680 0.950 . S
H3670 C3682 0.950 . S
H3671 C3683 0.950 . S
C3672 H3664 0.950 . S
C3672 C3673 1.386 . S
C3672 C3674 1.391 . S
C3673 C3672 1.386 . S
C3673 C3677 1.393 . S
C3674 H3666 0.950 . S
C3674 C3672 1.391 . S
C3674 C3675 1.400 . S
C3675 C3674 1.400 . S
C3675 C3676 1.398 . S
C3675 C3681 1.491 . S
C3676 H3667 0.950 . S
C3676 C3675 1.398 . S
C3676 C3677 1.391 . S
C3677 H3665 0.950 . S
C3677 C3673 1.393 . S
C3677 C3676 1.391 . S
C3678 H3668 0.950 . S
C3678 C3679 1.386 . S
C3678 C3680 1.391 . S
C3679 C3678 1.386 . S
C3679 C3683 1.393 . S
C3680 H3669 0.950 . S
C3680 C3678 1.391 . S
C3680 C3681 1.400 . S
C3681 C3675 1.491 . S
C3681 C3680 1.400 . S
C3681 C3682 1.398 . S
C3682 H3670 0.950 . S
C3682 C3681 1.398 . S
C3682 C3683 1.391 . S
C3683 H3671 0.950 . S
C3683 C3679 1.393 . S
C3683 C3682 1.391 . S
H3684 C3692 0.950 . S
H3685 C3697 0.950 . S
H3686 C3694 0.950 . S
H3687 C3696 0.950 . S
H3688 C3698 0.950 . S
H3689 C3700 0.950 . S
H3690 C3702 0.950 . S
H3691 C3703 0.950 . S
C3692 H3684 0.950 . S
C3692 C3693 1.386 . S
C3692 C3694 1.391 . S
C3693 C3692 1.386 . S
C3693 C3697 1.393 . S
C3694 H3686 0.950 . S
C3694 C3692 1.391 . S
C3694 C3695 1.400 . S
C3695 C3694 1.400 . S
C3695 C3696 1.398 . S
C3695 C3701 1.491 . S
C3696 H3687 0.950 . S
C3696 C3695 1.398 . S
C3696 C3697 1.391 . S
C3697 H3685 0.950 . S
C3697 C3693 1.393 . S
C3697 C3696 1.391 . S
C3698 H3688 0.950 . S
C3698 C3699 1.386 . S
C3698 C3700 1.391 . S
C3699 C3698 1.386 . S
C3699 C3703 1.393 . S
C3700 H3689 0.950 . S
C3700 C3698 1.391 . S
C3700 C3701 1.400 . S
C3701 C3695 1.491 . S
C3701 C3700 1.400 . S
C3701 C3702 1.398 . S
C3702 H3690 0.950 . S
C3702 C3701 1.398 . S
C3702 C3703 1.391 . S
C3703 H3691 0.950 . S
C3703 C3699 1.393 . S
C3703 C3702 1.391 . S
H3704 C3712 0.950 . S
H3705 C3717 0.950 . S
H3706 C3714 0.950 . S
H3707 C3716 0.950 . S
H3708 C3718 0.950 . S
H3709 C3720 0.950 . S
H3710 C3722 0.950 . S
H3711 C3723 0.950 . S
C3712 H3704 0.950 . S
C3712 C3713 1.386 . S
C3712 C3714 1.391 . S
C3713 C3712 1.386 . S
C3713 C3717 1.393 . S
C3714 H3706 0.950 . S
C3714 C3712 1.391 . S
C3714 C3715 1.400 . S
C3715 C3714 1.400 . S
C3715 C3716 1.398 . S
C3715 C3721 1.491 . S
C3716 H3707 0.950 . S
C3716 C3715 1.398 . S
C3716 C3717 1.391 . S
C3717 H3705 0.950 . S
C3717 C3713 1.393 . S
C3717 C3716 1.391 . S
C3718 H3708 0.950 . S
C3718 C3719 1.386 . S
C3718 C3720 1.391 . S
C3719 C3718 1.386 . S
C3719 C3723 1.393 . S
C3720 H3709 0.950 . S
C3720 C3718 1.391 . S
C3720 C3721 1.400 . S
C3721 C3715 1.491 . S
C3721 C3720 1.400 . S
C3721 C3722 1.398 . S
C3722 H3710 0.950 . S
C3722 C3721 1.398 . S
C3722 C3723 1.391 . S
C3723 H3711 0.950 . S
C3723 C3719 1.393 . S
C3723 C3722 1.391 . S
H3724 C3732 0.950 . S
H3725 C3737 0.950 . S
H3726 C3734 0.950 . S
H3727 C3736 0.950 . S
H3728 C3738 0.950 . S
H3729 C3740 0.950 . S
H3730 C3742 0.950 . S
H3731 C3743 0.950 . S
C3732 H3724 0.950 . S
C3732 C3733 1.386 . S
C3732 C3734 1.391 . S
C3733 C3732 1.386 . S
C3733 C3737 1.393 . S
C3734 H3726 0.950 . S
C3734 C3732 1.391 . S
C3734 C3735 1.400 . S
C3735 C3734 1.400 . S
C3735 C3736 1.398 . S
C3735 C3741 1.491 . S
C3736 H3727 0.950 . S
C3736 C3735 1.398 . S
C3736 C3737 1.391 . S
C3737 H3725 0.950 . S
C3737 C3733 1.393 . S
C3737 C3736 1.391 . S
C3738 H3728 0.950 . S
C3738 C3739 1.386 . S
C3738 C3740 1.391 . S
C3739 C3738 1.386 . S
C3739 C3743 1.393 . S
C3740 H3729 0.950 . S
C3740 C3738 1.391 . S
C3740 C3741 1.400 . S
C3741 C3735 1.491 . S
C3741 C3740 1.400 . S
C3741 C3742 1.398 . S
C3742 H3730 0.950 . S
C3742 C3741 1.398 . S
C3742 C3743 1.391 . S
C3743 H3731 0.950 . S
C3743 C3739 1.393 . S
C3743 C3742 1.391 . S
H3744 C3752 0.950 . S
H3745 C3757 0.950 . S
H3746 C3754 0.950 . S
H3747 C3756 0.950 . S
H3748 C3758 0.950 . S
H3749 C3760 0.950 . S
H3750 C3762 0.950 . S
H3751 C3763 0.950 . S
C3752 H3744 0.950 . S
C3752 C3753 1.386 . S
C3752 C3754 1.391 . S
C3753 C3752 1.386 . S
C3753 C3757 1.393 . S
C3754 H3746 0.950 . S
C3754 C3752 1.391 . S
C3754 C3755 1.400 . S
C3755 C3754 1.400 . S
C3755 C3756 1.398 . S
C3755 C3761 1.491 . S
C3756 H3747 0.950 . S
C3756 C3755 1.398 . S
C3756 C3757 1.391 . S
C3757 H3745 0.950 . S
C3757 C3753 1.393 . S
C3757 C3756 1.391 . S
C3758 H3748 0.950 . S
C3758 C3759 1.386 . S
C3758 C3760 1.391 . S
C3759 C3758 1.386 . S
C3759 C3763 1.393 . S
C3760 H3749 0.950 . S
C3760 C3758 1.391 . S
C3760 C3761 1.400 . S
C3761 C3755 1.491 . S
C3761 C3760 1.400 . S
C3761 C3762 1.398 . S
C3762 H3750 0.950 . S
C3762 C3761 1.398 . S
C3762 C3763 1.391 . S
C3763 H3751 0.950 . S
C3763 C3759 1.393 . S
C3763 C3762 1.391 . S
H3764 C3772 0.950 . S
H3765 C3777 0.950 . S
H3766 C3774 0.950 . S
H3767 C3776 0.950 . S
H3768 C3778 0.950 . S
H3769 C3780 0.950 . S
H3770 C3782 0.950 . S
H3771 C3783 0.950 . S
C3772 H3764 0.950 . S
C3772 C3773 1.386 . S
C3772 C3774 1.391 . S
C3773 C3772 1.386 . S
C3773 C3777 1.393 . S
C3774 H3766 0.950 . S
C3774 C3772 1.391 . S
C3774 C3775 1.400 . S
C3775 C3774 1.400 . S
C3775 C3776 1.398 . S
C3775 C3781 1.491 . S
C3776 H3767 0.950 . S
C3776 C3775 1.398 . S
C3776 C3777 1.391 . S
C3777 H3765 0.950 . S
C3777 C3773 1.393 . S
C3777 C3776 1.391 . S
C3778 H3768 0.950 . S
C3778 C3779 1.386 . S
C3778 C3780 1.391 . S
C3779 C3778 1.386 . S
C3779 C3783 1.393 . S
C3780 H3769 0.950 . S
C3780 C3778 1.391 . S
C3780 C3781 1.400 . S
C3781 C3775 1.491 . S
C3781 C3780 1.400 . S
C3781 C3782 1.398 . S
C3782 H3770 0.950 . S
C3782 C3781 1.398 . S
C3782 C3783 1.391 . S
C3783 H3771 0.950 . S
C3783 C3779 1.393 . S
C3783 C3782 1.391 . S
H3784 C3792 0.950 . S
H3785 C3797 0.950 . S
H3786 C3794 0.950 . S
H3787 C3796 0.950 . S
H3788 C3798 0.950 . S
H3789 C3800 0.950 . S
H3790 C3802 0.950 . S
H3791 C3803 0.950 . S
C3792 H3784 0.950 . S
C3792 C3793 1.386 . S
C3792 C3794 1.391 . S
C3793 C3792 1.386 . S
C3793 C3797 1.393 . S
C3794 H3786 0.950 . S
C3794 C3792 1.391 . S
C3794 C3795 1.400 . S
C3795 C3794 1.400 . S
C3795 C3796 1.398 . S
C3795 C3801 1.491 . S
C3796 H3787 0.950 . S
C3796 C3795 1.398 . S
C3796 C3797 1.391 . S
C3797 H3785 0.950 . S
C3797 C3793 1.393 . S
C3797 C3796 1.391 . S
C3798 H3788 0.950 . S
C3798 C3799 1.386 . S
C3798 C3800 1.391 . S
C3799 C3798 1.386 . S
C3799 C3803 1.393 . S
C3800 H3789 0.950 . S
C3800 C3798 1.391 . S
C3800 C3801 1.400 . S
C3801 C3795 1.491 . S
C3801 C3800 1.400 . S
C3801 C3802 1.398 . S
C3802 H3790 0.950 . S
C3802 C3801 1.398 . S
C3802 C3803 1.391 . S
C3803 H3791 0.950 . S
C3803 C3799 1.393 . S
C3803 C3802 1.391 . S
H3804 C3812 0.950 . S
H3805 C3817 0.950 . S
H3806 C3814 0.950 . S
H3807 C3816 0.950 . S
H3808 C3818 0.950 . S
H3809 C3820 0.950 . S
H3810 C3822 0.950 . S
H3811 C3823 0.950 . S
C3812 H3804 0.950 . S
C3812 C3813 1.386 . S
C3812 C3814 1.391 . S
C3813 C3812 1.386 . S
C3813 C3817 1.393 . S
C3814 H3806 0.950 . S
C3814 C3812 1.391 . S
C3814 C3815 1.400 . S
C3815 C3814 1.400 . S
C3815 C3816 1.398 . S
C3815 C3821 1.491 . S
C3816 H3807 0.950 . S
C3816 C3815 1.398 . S
C3816 C3817 1.391 . S
C3817 H3805 0.950 . S
C3817 C3813 1.393 . S
C3817 C3816 1.391 . S
C3818 H3808 0.950 . S
C3818 C3819 1.386 . S
C3818 C3820 1.391 . S
C3819 C3818 1.386 . S
C3819 C3823 1.393 . S
C3820 H3809 0.950 . S
C3820 C3818 1.391 . S
C3820 C3821 1.400 . S
C3821 C3815 1.491 . S
C3821 C3820 1.400 . S
C3821 C3822 1.398 . S
C3822 H3810 0.950 . S
C3822 C3821 1.398 . S
C3822 C3823 1.391 . S
C3823 H3811 0.950 . S
C3823 C3819 1.393 . S
C3823 C3822 1.391 . S
H3824 C3832 0.950 . S
H3825 C3837 0.950 . S
H3826 C3834 0.950 . S
H3827 C3836 0.950 . S
H3828 C3838 0.950 . S
H3829 C3840 0.950 . S
H3830 C3842 0.950 . S
H3831 C3843 0.950 . S
C3832 H3824 0.950 . S
C3832 C3833 1.386 . S
C3832 C3834 1.391 . S
C3833 C3832 1.386 . S
C3833 C3837 1.393 . S
C3834 H3826 0.950 . S
C3834 C3832 1.391 . S
C3834 C3835 1.400 . S
C3835 C3834 1.400 . S
C3835 C3836 1.398 . S
C3835 C3841 1.491 . S
C3836 H3827 0.950 . S
C3836 C3835 1.398 . S
C3836 C3837 1.391 . S
C3837 H3825 0.950 . S
C3837 C3833 1.393 . S
C3837 C3836 1.391 . S
C3838 H3828 0.950 . S
C3838 C3839 1.386 . S
C3838 C3840 1.391 . S
C3839 C3838 1.386 . S
C3839 C3843 1.393 . S
C3840 H3829 0.950 . S
C3840 C3838 1.391 . S
C3840 C3841 1.400 . S
C3841 C3835 1.491 . S
C3841 C3840 1.400 . S
C3841 C3842 1.398 . S
C3842 H3830 0.950 . S
C3842 C3841 1.398 . S
C3842 C3843 1.391 . S
C3843 H3831 0.950 . S
C3843 C3839 1.393 . S
C3843 C3842 1.391 . S
H3844 C3852 0.950 . S
H3845 C3857 0.950 . S
H3846 C3854 0.950 . S
H3847 C3856 0.950 . S
H3848 C3858 0.950 . S
H3849 C3860 0.950 . S
H3850 C3862 0.950 . S
H3851 C3863 0.950 . S
C3852 H3844 0.950 . S
C3852 C3853 1.386 . S
C3852 C3854 1.391 . S
C3853 C3852 1.386 . S
C3853 C3857 1.393 . S
C3854 H3846 0.950 . S
C3854 C3852 1.391 . S
C3854 C3855 1.400 . S
C3855 C3854 1.400 . S
C3855 C3856 1.398 . S
C3855 C3861 1.491 . S
C3856 H3847 0.950 . S
C3856 C3855 1.398 . S
C3856 C3857 1.391 . S
C3857 H3845 0.950 . S
C3857 C3853 1.393 . S
C3857 C3856 1.391 . S
C3858 H3848 0.950 . S
C3858 C3859 1.386 . S
C3858 C3860 1.391 . S
C3859 C3858 1.386 . S
C3859 C3863 1.393 . S
C3860 H3849 0.950 . S
C3860 C3858 1.391 . S
C3860 C3861 1.400 . S
C3861 C3855 1.491 . S
C3861 C3860 1.400 . S
C3861 C3862 1.398 . S
C3862 H3850 0.950 . S
C3862 C3861 1.398 . S
C3862 C3863 1.391 . S
C3863 H3851 0.950 . S
C3863 C3859 1.393 . S
C3863 C3862 1.391 . S
H3864 C3872 0.950 . S
H3865 C3877 0.950 . S
H3866 C3874 0.950 . S
H3867 C3876 0.950 . S
H3868 C3878 0.950 . S
H3869 C3880 0.950 . S
H3870 C3882 0.950 . S
H3871 C3883 0.950 . S
C3872 H3864 0.950 . S
C3872 C3873 1.386 . S
C3872 C3874 1.391 . S
C3873 C3872 1.386 . S
C3873 C3877 1.393 . S
C3874 H3866 0.950 . S
C3874 C3872 1.391 . S
C3874 C3875 1.400 . S
C3875 C3874 1.400 . S
C3875 C3876 1.398 . S
C3875 C3881 1.491 . S
C3876 H3867 0.950 . S
C3876 C3875 1.398 . S
C3876 C3877 1.391 . S
C3877 H3865 0.950 . S
C3877 C3873 1.393 . S
C3877 C3876 1.391 . S
C3878 H3868 0.950 . S
C3878 C3879 1.386 . S
C3878 C3880 1.391 . S
C3879 C3878 1.386 . S
C3879 C3883 1.393 . S
C3880 H3869 0.950 . S
C3880 C3878 1.391 . S
C3880 C3881 1.400 . S
C3881 C3875 1.491 . S
C3881 C3880 1.400 . S
C3881 C3882 1.398 . S
C3882 H3870 0.950 . S
C3882 C3881 1.398 . S
C3882 C3883 1.391 . S
C3883 H3871 0.950 . S
C3883 C3879 1.393 . S
C3883 C3882 1.391 . S
H3884 C3892 0.950 . S
H3885 C3897 0.950 . S
H3886 C3894 0.950 . S
H3887 C3896 0.950 . S
H3888 C3898 0.950 . S
H3889 C3900 0.950 . S
H3890 C3902 0.950 . S
H3891 C3903 0.950 . S
C3892 H3884 0.950 . S
C3892 C3893 1.386 . S
C3892 C3894 1.391 . S
C3893 C3892 1.386 . S
C3893 C3897 1.393 . S
C3894 H3886 0.950 . S
C3894 C3892 1.391 . S
C3894 C3895 1.400 . S
C3895 C3894 1.400 . S
C3895 C3896 1.398 . S
C3895 C3901 1.491 . S
C3896 H3887 0.950 . S
C3896 C3895 1.398 . S
C3896 C3897 1.391 . S
C3897 H3885 0.950 . S
C3897 C3893 1.393 . S
C3897 C3896 1.391 . S
C3898 H3888 0.950 . S
C3898 C3899 1.386 . S
C3898 C3900 1.391 . S
C3899 C3898 1.386 . S
C3899 C3903 1.393 . S
C3900 H3889 0.950 . S
C3900 C3898 1.391 . S
C3900 C3901 1.400 . S
C3901 C3895 1.491 . S
C3901 C3900 1.400 . S
C3901 C3902 1.398 . S
C3902 H3890 0.950 . S
C3902 C3901 1.398 . S
C3902 C3903 1.391 . S
C3903 H3891 0.950 . S
C3903 C3899 1.393 . S
C3903 C3902 1.391 . S
H3904 C3912 0.950 . S
H3905 C3917 0.950 . S
H3906 C3914 0.950 . S
H3907 C3916 0.950 . S
H3908 C3918 0.950 . S
H3909 C3920 0.950 . S
H3910 C3922 0.950 . S
H3911 C3923 0.950 . S
C3912 H3904 0.950 . S
C3912 C3913 1.386 . S
C3912 C3914 1.391 . S
C3913 C3912 1.386 . S
C3913 C3917 1.393 . S
C3914 H3906 0.950 . S
C3914 C3912 1.391 . S
C3914 C3915 1.400 . S
C3915 C3914 1.400 . S
C3915 C3916 1.398 . S
C3915 C3921 1.491 . S
C3916 H3907 0.950 . S
C3916 C3915 1.398 . S
C3916 C3917 1.391 . S
C3917 H3905 0.950 . S
C3917 C3913 1.393 . S
C3917 C3916 1.391 . S
C3918 H3908 0.950 . S
C3918 C3919 1.386 . S
C3918 C3920 1.391 . S
C3919 C3918 1.386 . S
C3919 C3923 1.393 . S
C3920 H3909 0.950 . S
C3920 C3918 1.391 . S
C3920 C3921 1.400 . S
C3921 C3915 1.491 . S
C3921 C3920 1.400 . S
C3921 C3922 1.398 . S
C3922 H3910 0.950 . S
C3922 C3921 1.398 . S
C3922 C3923 1.391 . S
C3923 H3911 0.950 . S
C3923 C3919 1.393 . S
C3923 C3922 1.391 . S
H3924 C3932 0.950 . S
H3925 C3937 0.950 . S
H3926 C3934 0.950 . S
H3927 C3936 0.950 . S
H3928 C3938 0.950 . S
H3929 C3940 0.950 . S
H3930 C3942 0.950 . S
H3931 C3943 0.950 . S
C3932 H3924 0.950 . S
C3932 C3933 1.386 . S
C3932 C3934 1.391 . S
C3933 C3932 1.386 . S
C3933 C3937 1.393 . S
C3934 H3926 0.950 . S
C3934 C3932 1.391 . S
C3934 C3935 1.400 . S
C3935 C3934 1.400 . S
C3935 C3936 1.398 . S
C3935 C3941 1.491 . S
C3936 H3927 0.950 . S
C3936 C3935 1.398 . S
C3936 C3937 1.391 . S
C3937 H3925 0.950 . S
C3937 C3933 1.393 . S
C3937 C3936 1.391 . S
C3938 H3928 0.950 . S
C3938 C3939 1.386 . S
C3938 C3940 1.391 . S
C3939 C3938 1.386 . S
C3939 C3943 1.393 . S
C3940 H3929 0.950 . S
C3940 C3938 1.391 . S
C3940 C3941 1.400 . S
C3941 C3935 1.491 . S
C3941 C3940 1.400 . S
C3941 C3942 1.398 . S
C3942 H3930 0.950 . S
C3942 C3941 1.398 . S
C3942 C3943 1.391 . S
C3943 H3931 0.950 . S
C3943 C3939 1.393 . S
C3943 C3942 1.391 . S
H3944 C3952 0.950 . S
H3945 C3957 0.950 . S
H3946 C3954 0.950 . S
H3947 C3956 0.950 . S
H3948 C3958 0.950 . S
H3949 C3960 0.950 . S
H3950 C3962 0.950 . S
H3951 C3963 0.950 . S
C3952 H3944 0.950 . S
C3952 C3953 1.386 . S
C3952 C3954 1.391 . S
C3953 C3952 1.386 . S
C3953 C3957 1.393 . S
C3954 H3946 0.950 . S
C3954 C3952 1.391 . S
C3954 C3955 1.400 . S
C3955 C3954 1.400 . S
C3955 C3956 1.398 . S
C3955 C3961 1.491 . S
C3956 H3947 0.950 . S
C3956 C3955 1.398 . S
C3956 C3957 1.391 . S
C3957 H3945 0.950 . S
C3957 C3953 1.393 . S
C3957 C3956 1.391 . S
C3958 H3948 0.950 . S
C3958 C3959 1.386 . S
C3958 C3960 1.391 . S
C3959 C3958 1.386 . S
C3959 C3963 1.393 . S
C3960 H3949 0.950 . S
C3960 C3958 1.391 . S
C3960 C3961 1.400 . S
C3961 C3955 1.491 . S
C3961 C3960 1.400 . S
C3961 C3962 1.398 . S
C3962 H3950 0.950 . S
C3962 C3961 1.398 . S
C3962 C3963 1.391 . S
C3963 H3951 0.950 . S
C3963 C3959 1.393 . S
C3963 C3962 1.391 . S
H3964 C3972 0.950 . S
H3965 C3977 0.950 . S
H3966 C3974 0.950 . S
H3967 C3976 0.950 . S
H3968 C3978 0.950 . S
H3969 C3980 0.950 . S
H3970 C3982 0.950 . S
H3971 C3983 0.950 . S
C3972 H3964 0.950 . S
C3972 C3973 1.386 . S
C3972 C3974 1.391 . S
C3973 C3972 1.386 . S
C3973 C3977 1.393 . S
C3974 H3966 0.950 . S
C3974 C3972 1.391 . S
C3974 C3975 1.400 . S
C3975 C3974 1.400 . S
C3975 C3976 1.398 . S
C3975 C3981 1.491 . S
C3976 H3967 0.950 . S
C3976 C3975 1.398 . S
C3976 C3977 1.391 . S
C3977 H3965 0.950 . S
C3977 C3973 1.393 . S
C3977 C3976 1.391 . S
C3978 H3968 0.950 . S
C3978 C3979 1.386 . S
C3978 C3980 1.391 . S
C3979 C3978 1.386 . S
C3979 C3983 1.393 . S
C3980 H3969 0.950 . S
C3980 C3978 1.391 . S
C3980 C3981 1.400 . S
C3981 C3975 1.491 . S
C3981 C3980 1.400 . S
C3981 C3982 1.398 . S
C3982 H3970 0.950 . S
C3982 C3981 1.398 . S
C3982 C3983 1.391 . S
C3983 H3971 0.950 . S
C3983 C3979 1.393 . S
C3983 C3982 1.391 . S
H3984 C3992 0.950 . S
H3985 C3997 0.950 . S
H3986 C3994 0.950 . S
H3987 C3996 0.950 . S
H3988 C3998 0.950 . S
H3989 C4000 0.950 . S
H3990 C4002 0.950 . S
H3991 C4003 0.950 . S
C3992 H3984 0.950 . S
C3992 C3993 1.386 . S
C3992 C3994 1.391 . S
C3993 C3992 1.386 . S
C3993 C3997 1.393 . S
C3994 H3986 0.950 . S
C3994 C3992 1.391 . S
C3994 C3995 1.400 . S
C3995 C3994 1.400 . S
C3995 C3996 1.398 . S
C3995 C4001 1.491 . S
C3996 H3987 0.950 . S
C3996 C3995 1.398 . S
C3996 C3997 1.391 . S
C3997 H3985 0.950 . S
C3997 C3993 1.393 . S
C3997 C3996 1.391 . S
C3998 H3988 0.950 . S
C3998 C3999 1.386 . S
C3998 C4000 1.391 . S
C3999 C3998 1.386 . S
C3999 C4003 1.393 . S
C4000 H3989 0.950 . S
C4000 C3998 1.391 . S
C4000 C4001 1.400 . S
C4001 C3995 1.491 . S
C4001 C4000 1.400 . S
C4001 C4002 1.398 . S
C4002 H3990 0.950 . S
C4002 C4001 1.398 . S
C4002 C4003 1.391 . S
C4003 H3991 0.950 . S
C4003 C3999 1.393 . S
C4003 C4002 1.391 . S
H4004 C4012 0.950 . S
H4005 C4017 0.950 . S
H4006 C4014 0.950 . S
H4007 C4016 0.950 . S
H4008 C4018 0.950 . S
H4009 C4020 0.950 . S
H4010 C4022 0.950 . S
H4011 C4023 0.950 . S
C4012 H4004 0.950 . S
C4012 C4013 1.386 . S
C4012 C4014 1.391 . S
C4013 C4012 1.386 . S
C4013 C4017 1.393 . S
C4014 H4006 0.950 . S
C4014 C4012 1.391 . S
C4014 C4015 1.400 . S
C4015 C4014 1.400 . S
C4015 C4016 1.398 . S
C4015 C4021 1.491 . S
C4016 H4007 0.950 . S
C4016 C4015 1.398 . S
C4016 C4017 1.391 . S
C4017 H4005 0.950 . S
C4017 C4013 1.393 . S
C4017 C4016 1.391 . S
C4018 H4008 0.950 . S
C4018 C4019 1.386 . S
C4018 C4020 1.391 . S
C4019 C4018 1.386 . S
C4019 C4023 1.393 . S
C4020 H4009 0.950 . S
C4020 C4018 1.391 . S
C4020 C4021 1.400 . S
C4021 C4015 1.491 . S
C4021 C4020 1.400 . S
C4021 C4022 1.398 . S
C4022 H4010 0.950 . S
C4022 C4021 1.398 . S
C4022 C4023 1.391 . S
C4023 H4011 0.950 . S
C4023 C4019 1.393 . S
C4023 C4022 1.391 . S
H4024 C4032 0.950 . S
H4025 C4037 0.950 . S
H4026 C4034 0.950 . S
H4027 C4036 0.950 . S
H4028 C4038 0.950 . S
H4029 C4040 0.950 . S
H4030 C4042 0.950 . S
H4031 C4043 0.950 . S
C4032 H4024 0.950 . S
C4032 C4033 1.386 . S
C4032 C4034 1.391 . S
C4033 C4032 1.386 . S
C4033 C4037 1.393 . S
C4034 H4026 0.950 . S
C4034 C4032 1.391 . S
C4034 C4035 1.400 . S
C4035 C4034 1.400 . S
C4035 C4036 1.398 . S
C4035 C4041 1.491 . S
C4036 H4027 0.950 . S
C4036 C4035 1.398 . S
C4036 C4037 1.391 . S
C4037 H4025 0.950 . S
C4037 C4033 1.393 . S
C4037 C4036 1.391 . S
C4038 H4028 0.950 . S
C4038 C4039 1.386 . S
C4038 C4040 1.391 . S
C4039 C4038 1.386 . S
C4039 C4043 1.393 . S
C4040 H4029 0.950 . S
C4040 C4038 1.391 . S
C4040 C4041 1.400 . S
C4041 C4035 1.491 . S
C4041 C4040 1.400 . S
C4041 C4042 1.398 . S
C4042 H4030 0.950 . S
C4042 C4041 1.398 . S
C4042 C4043 1.391 . S
C4043 H4031 0.950 . S
C4043 C4039 1.393 . S
C4043 C4042 1.391 . S
H4044 C4052 0.950 . S
H4045 C4057 0.950 . S
H4046 C4054 0.950 . S
H4047 C4056 0.950 . S
H4048 C4058 0.950 . S
H4049 C4060 0.950 . S
H4050 C4062 0.950 . S
H4051 C4063 0.950 . S
C4052 H4044 0.950 . S
C4052 C4053 1.386 . S
C4052 C4054 1.391 . S
C4053 C4052 1.386 . S
C4053 C4057 1.393 . S
C4054 H4046 0.950 . S
C4054 C4052 1.391 . S
C4054 C4055 1.400 . S
C4055 C4054 1.400 . S
C4055 C4056 1.398 . S
C4055 C4061 1.491 . S
C4056 H4047 0.950 . S
C4056 C4055 1.398 . S
C4056 C4057 1.391 . S
C4057 H4045 0.950 . S
C4057 C4053 1.393 . S
C4057 C4056 1.391 . S
C4058 H4048 0.950 . S
C4058 C4059 1.386 . S
C4058 C4060 1.391 . S
C4059 C4058 1.386 . S
C4059 C4063 1.393 . S
C4060 H4049 0.950 . S
C4060 C4058 1.391 . S
C4060 C4061 1.400 . S
C4061 C4055 1.491 . S
C4061 C4060 1.400 . S
C4061 C4062 1.398 . S
C4062 H4050 0.950 . S
C4062 C4061 1.398 . S
C4062 C4063 1.391 . S
C4063 H4051 0.950 . S
C4063 C4059 1.393 . S
C4063 C4062 1.391 . S
H4064 C4072 0.950 . S
H4065 C4077 0.950 . S
H4066 C4074 0.950 . S
H4067 C4076 0.950 . S
H4068 C4078 0.950 . S
H4069 C4080 0.950 . S
H4070 C4082 0.950 . S
H4071 C4083 0.950 . S
C4072 H4064 0.950 . S
C4072 C4073 1.386 . S
C4072 C4074 1.391 . S
C4073 C4072 1.386 . S
C4073 C4077 1.393 . S
C4074 H4066 0.950 . S
C4074 C4072 1.391 . S
C4074 C4075 1.400 . S
C4075 C4074 1.400 . S
C4075 C4076 1.398 . S
C4075 C4081 1.491 . S
C4076 H4067 0.950 . S
C4076 C4075 1.398 . S
C4076 C4077 1.391 . S
C4077 H4065 0.950 . S
C4077 C4073 1.393 . S
C4077 C4076 1.391 . S
C4078 H4068 0.950 . S
C4078 C4079 1.386 . S
C4078 C4080 1.391 . S
C4079 C4078 1.386 . S
C4079 C4083 1.393 . S
C4080 H4069 0.950 . S
C4080 C4078 1.391 . S
C4080 C4081 1.400 . S
C4081 C4075 1.491 . S
C4081 C4080 1.400 . S
C4081 C4082 1.398 . S
C4082 H4070 0.950 . S
C4082 C4081 1.398 . S
C4082 C4083 1.391 . S
C4083 H4071 0.950 . S
C4083 C4079 1.393 . S
C4083 C4082 1.391 . S
H4084 C4092 0.950 . S
H4085 C4097 0.950 . S
H4086 C4094 0.950 . S
H4087 C4096 0.950 . S
H4088 C4098 0.950 . S
H4089 C4100 0.950 . S
H4090 C4102 0.950 . S
H4091 C4103 0.950 . S
C4092 H4084 0.950 . S
C4092 C4093 1.386 . S
C4092 C4094 1.391 . S
C4093 C4092 1.386 . S
C4093 C4097 1.393 . S
C4094 H4086 0.950 . S
C4094 C4092 1.391 . S
C4094 C4095 1.400 . S
C4095 C4094 1.400 . S
C4095 C4096 1.398 . S
C4095 C4101 1.491 . S
C4096 H4087 0.950 . S
C4096 C4095 1.398 . S
C4096 C4097 1.391 . S
C4097 H4085 0.950 . S
C4097 C4093 1.393 . S
C4097 C4096 1.391 . S
C4098 H4088 0.950 . S
C4098 C4099 1.386 . S
C4098 C4100 1.391 . S
C4099 C4098 1.386 . S
C4099 C4103 1.393 . S
C4100 H4089 0.950 . S
C4100 C4098 1.391 . S
C4100 C4101 1.400 . S
C4101 C4095 1.491 . S
C4101 C4100 1.400 . S
C4101 C4102 1.398 . S
C4102 H4090 0.950 . S
C4102 C4101 1.398 . S
C4102 C4103 1.391 . S
C4103 H4091 0.950 . S
C4103 C4099 1.393 . S
C4103 C4102 1.391 . S
H4104 C4112 0.950 . S
H4105 C4117 0.950 . S
H4106 C4114 0.950 . S
H4107 C4116 0.950 . S
H4108 C4118 0.950 . S
H4109 C4120 0.950 . S
H4110 C4122 0.950 . S
H4111 C4123 0.950 . S
C4112 H4104 0.950 . S
C4112 C4113 1.386 . S
C4112 C4114 1.391 . S
C4113 C4112 1.386 . S
C4113 C4117 1.393 . S
C4114 H4106 0.950 . S
C4114 C4112 1.391 . S
C4114 C4115 1.400 . S
C4115 C4114 1.400 . S
C4115 C4116 1.398 . S
C4115 C4121 1.491 . S
C4116 H4107 0.950 . S
C4116 C4115 1.398 . S
C4116 C4117 1.391 . S
C4117 H4105 0.950 . S
C4117 C4113 1.393 . S
C4117 C4116 1.391 . S
C4118 H4108 0.950 . S
C4118 C4119 1.386 . S
C4118 C4120 1.391 . S
C4119 C4118 1.386 . S
C4119 C4123 1.393 . S
C4120 H4109 0.950 . S
C4120 C4118 1.391 . S
C4120 C4121 1.400 . S
C4121 C4115 1.491 . S
C4121 C4120 1.400 . S
C4121 C4122 1.398 . S
C4122 H4110 0.950 . S
C4122 C4121 1.398 . S
C4122 C4123 1.391 . S
C4123 H4111 0.950 . S
C4123 C4119 1.393 . S
C4123 C4122 1.391 . S
H4124 C4132 0.950 . S
H4125 C4137 0.950 . S
H4126 C4134 0.950 . S
H4127 C4136 0.950 . S
H4128 C4138 0.950 . S
H4129 C4140 0.950 . S
H4130 C4142 0.950 . S
H4131 C4143 0.950 . S
C4132 H4124 0.950 . S
C4132 C4133 1.386 . S
C4132 C4134 1.391 . S
C4133 C4132 1.386 . S
C4133 C4137 1.393 . S
C4134 H4126 0.950 . S
C4134 C4132 1.391 . S
C4134 C4135 1.400 . S
C4135 C4134 1.400 . S
C4135 C4136 1.398 . S
C4135 C4141 1.491 . S
C4136 H4127 0.950 . S
C4136 C4135 1.398 . S
C4136 C4137 1.391 . S
C4137 H4125 0.950 . S
C4137 C4133 1.393 . S
C4137 C4136 1.391 . S
C4138 H4128 0.950 . S
C4138 C4139 1.386 . S
C4138 C4140 1.391 . S
C4139 C4138 1.386 . S
C4139 C4143 1.393 . S
C4140 H4129 0.950 . S
C4140 C4138 1.391 . S
C4140 C4141 1.400 . S
C4141 C4135 1.491 . S
C4141 C4140 1.400 . S
C4141 C4142 1.398 . S
C4142 H4130 0.950 . S
C4142 C4141 1.398 . S
C4142 C4143 1.391 . S
C4143 H4131 0.950 . S
C4143 C4139 1.393 . S
C4143 C4142 1.391 . S
H4144 C4152 0.950 . S
H4145 C4157 0.950 . S
H4146 C4154 0.950 . S
H4147 C4156 0.950 . S
H4148 C4158 0.950 . S
H4149 C4160 0.950 . S
H4150 C4162 0.950 . S
H4151 C4163 0.950 . S
C4152 H4144 0.950 . S
C4152 C4153 1.386 . S
C4152 C4154 1.391 . S
C4153 C4152 1.386 . S
C4153 C4157 1.393 . S
C4154 H4146 0.950 . S
C4154 C4152 1.391 . S
C4154 C4155 1.400 . S
C4155 C4154 1.400 . S
C4155 C4156 1.398 . S
C4155 C4161 1.491 . S
C4156 H4147 0.950 . S
C4156 C4155 1.398 . S
C4156 C4157 1.391 . S
C4157 H4145 0.950 . S
C4157 C4153 1.393 . S
C4157 C4156 1.391 . S
C4158 H4148 0.950 . S
C4158 C4159 1.386 . S
C4158 C4160 1.391 . S
C4159 C4158 1.386 . S
C4159 C4163 1.393 . S
C4160 H4149 0.950 . S
C4160 C4158 1.391 . S
C4160 C4161 1.400 . S
C4161 C4155 1.491 . S
C4161 C4160 1.400 . S
C4161 C4162 1.398 . S
C4162 H4150 0.950 . S
C4162 C4161 1.398 . S
C4162 C4163 1.391 . S
C4163 H4151 0.950 . S
C4163 C4159 1.393 . S
C4163 C4162 1.391 . S
H4164 C4172 0.950 . S
H4165 C4177 0.950 . S
H4166 C4174 0.950 . S
H4167 C4176 0.950 . S
H4168 C4178 0.950 . S
H4169 C4180 0.950 . S
H4170 C4182 0.950 . S
H4171 C4183 0.950 . S
C4172 H4164 0.950 . S
C4172 C4173 1.386 . S
C4172 C4174 1.391 . S
C4173 C4172 1.386 . S
C4173 C4177 1.393 . S
C4174 H4166 0.950 . S
C4174 C4172 1.391 . S
C4174 C4175 1.400 . S
C4175 C4174 1.400 . S
C4175 C4176 1.398 . S
C4175 C4181 1.491 . S
C4176 H4167 0.950 . S
C4176 C4175 1.398 . S
C4176 C4177 1.391 . S
C4177 H4165 0.950 . S
C4177 C4173 1.393 . S
C4177 C4176 1.391 . S
C4178 H4168 0.950 . S
C4178 C4179 1.386 . S
C4178 C4180 1.391 . S
C4179 C4178 1.386 . S
C4179 C4183 1.393 . S
C4180 H4169 0.950 . S
C4180 C4178 1.391 . S
C4180 C4181 1.400 . S
C4181 C4175 1.491 . S
C4181 C4180 1.400 . S
C4181 C4182 1.398 . S
C4182 H4170 0.950 . S
C4182 C4181 1.398 . S
C4182 C4183 1.391 . S
C4183 H4171 0.950 . S
C4183 C4179 1.393 . S
C4183 C4182 1.391 . S
H4184 C4192 0.950 . S
H4185 C4197 0.950 . S
H4186 C4194 0.950 . S
H4187 C4196 0.950 . S
H4188 C4198 0.950 . S
H4189 C4200 0.950 . S
H4190 C4202 0.950 . S
H4191 C4203 0.950 . S
C4192 H4184 0.950 . S
C4192 C4193 1.386 . S
C4192 C4194 1.391 . S
C4193 C4192 1.386 . S
C4193 C4197 1.393 . S
C4194 H4186 0.950 . S
C4194 C4192 1.391 . S
C4194 C4195 1.400 . S
C4195 C4194 1.400 . S
C4195 C4196 1.398 . S
C4195 C4201 1.491 . S
C4196 H4187 0.950 . S
C4196 C4195 1.398 . S
C4196 C4197 1.391 . S
C4197 H4185 0.950 . S
C4197 C4193 1.393 . S
C4197 C4196 1.391 . S
C4198 H4188 0.950 . S
C4198 C4199 1.386 . S
C4198 C4200 1.391 . S
C4199 C4198 1.386 . S
C4199 C4203 1.393 . S
C4200 H4189 0.950 . S
C4200 C4198 1.391 . S
C4200 C4201 1.400 . S
C4201 C4195 1.491 . S
C4201 C4200 1.400 . S
C4201 C4202 1.398 . S
C4202 H4190 0.950 . S
C4202 C4201 1.398 . S
C4202 C4203 1.391 . S
C4203 H4191 0.950 . S
C4203 C4199 1.393 . S
C4203 C4202 1.391 . S
H4204 C4212 0.950 . S
H4205 C4217 0.950 . S
H4206 C4214 0.950 . S
H4207 C4216 0.950 . S
H4208 C4218 0.950 . S
H4209 C4220 0.950 . S
H4210 C4222 0.950 . S
H4211 C4223 0.950 . S
C4212 H4204 0.950 . S
C4212 C4213 1.386 . S
C4212 C4214 1.391 . S
C4213 C4212 1.386 . S
C4213 C4217 1.393 . S
C4214 H4206 0.950 . S
C4214 C4212 1.391 . S
C4214 C4215 1.400 . S
C4215 C4214 1.400 . S
C4215 C4216 1.398 . S
C4215 C4221 1.491 . S
C4216 H4207 0.950 . S
C4216 C4215 1.398 . S
C4216 C4217 1.391 . S
C4217 H4205 0.950 . S
C4217 C4213 1.393 . S
C4217 C4216 1.391 . S
C4218 H4208 0.950 . S
C4218 C4219 1.386 . S
C4218 C4220 1.391 . S
C4219 C4218 1.386 . S
C4219 C4223 1.393 . S
C4220 H4209 0.950 . S
C4220 C4218 1.391 . S
C4220 C4221 1.400 . S
C4221 C4215 1.491 . S
C4221 C4220 1.400 . S
C4221 C4222 1.398 . S
C4222 H4210 0.950 . S
C4222 C4221 1.398 . S
C4222 C4223 1.391 . S
C4223 H4211 0.950 . S
C4223 C4219 1.393 . S
C4223 C4222 1.391 . S
H4224 C4232 0.937 1_655 S
H4225 C4237 0.950 . S
H4226 C4234 0.950 . S
H4227 C4236 0.950 . S
H4228 C4238 0.950 . S
H4229 C4240 0.885 1_455 S
H4230 C4242 0.950 . S
H4231 C4243 0.950 . S
C4232 H4224 0.937 1_455 S
C4232 C4233 1.386 . S
C4232 C4234 1.391 1_455 S
C4233 C4232 1.386 . S
C4233 C4237 1.393 . S
C4234 H4226 0.950 . S
C4234 C4232 1.391 1_655 S
C4234 C4235 1.400 . S
C4235 C4234 1.400 . S
C4235 C4236 1.398 1_655 S
C4235 C4241 1.491 . S
C4236 H4227 0.950 . S
C4236 C4235 1.398 1_455 S
C4236 C4237 1.391 . S
C4237 H4225 0.950 . S
C4237 C4233 1.393 . S
C4237 C4236 1.391 . S
C4238 H4228 0.950 . S
C4238 C4239 1.386 . S
C4238 C4240 1.391 . S
C4239 C4238 1.386 . S
C4239 C4243 1.393 . S
C4240 H4229 0.885 1_655 S
C4240 C4238 1.391 . S
C4240 C4241 1.400 . S
C4241 C4235 1.491 . S
C4241 C4240 1.400 . S
C4241 C4242 1.398 . S
C4242 H4230 0.950 . S
C4242 C4241 1.398 . S
C4242 C4243 1.391 . S
C4243 H4231 0.950 . S
C4243 C4239 1.393 . S
C4243 C4242 1.391 . S
H4244 C4252 0.950 . S
H4245 C4257 0.950 . S
H4246 C4254 0.950 . S
H4247 C4256 0.950 . S
H4248 C4258 0.950 . S
H4249 C4260 0.950 . S
H4250 C4262 0.950 . S
H4251 C4263 0.950 . S
C4252 H4244 0.950 . S
C4252 C4253 1.386 . S
C4252 C4254 1.391 . S
C4253 C4252 1.386 . S
C4253 C4257 1.393 . S
C4254 H4246 0.950 . S
C4254 C4252 1.391 . S
C4254 C4255 1.400 . S
C4255 C4254 1.400 . S
C4255 C4256 1.398 . S
C4255 C4261 1.491 . S
C4256 H4247 0.950 . S
C4256 C4255 1.398 . S
C4256 C4257 1.391 . S
C4257 H4245 0.950 . S
C4257 C4253 1.393 . S
C4257 C4256 1.391 . S
C4258 H4248 0.950 . S
C4258 C4259 1.386 . S
C4258 C4260 1.391 . S
C4259 C4258 1.386 . S
C4259 C4263 1.393 . S
C4260 H4249 0.950 . S
C4260 C4258 1.391 . S
C4260 C4261 1.400 . S
C4261 C4255 1.491 . S
C4261 C4260 1.400 . S
C4261 C4262 1.398 . S
C4262 H4250 0.950 . S
C4262 C4261 1.398 . S
C4262 C4263 1.391 . S
C4263 H4251 0.950 . S
C4263 C4259 1.393 . S
C4263 C4262 1.391 . S
H4264 C4272 0.950 . S
H4265 C4277 0.950 . S
H4266 C4274 0.950 . S
H4267 C4276 0.950 . S
H4268 C4278 0.950 . S
H4269 C4280 0.950 . S
H4270 C4282 0.950 . S
H4271 C4283 0.950 . S
C4272 H4264 0.950 . S
C4272 C4273 1.386 . S
C4272 C4274 1.391 . S
C4273 C4272 1.386 . S
C4273 C4277 1.393 . S
C4274 H4266 0.950 . S
C4274 C4272 1.391 . S
C4274 C4275 1.400 . S
C4275 C4274 1.400 . S
C4275 C4276 1.398 . S
C4275 C4281 1.491 . S
C4276 H4267 0.950 . S
C4276 C4275 1.398 . S
C4276 C4277 1.391 . S
C4277 H4265 0.950 . S
C4277 C4273 1.393 . S
C4277 C4276 1.391 . S
C4278 H4268 0.950 . S
C4278 C4279 1.386 . S
C4278 C4280 1.391 . S
C4279 C4278 1.386 . S
C4279 C4283 1.393 . S
C4280 H4269 0.950 . S
C4280 C4278 1.391 . S
C4280 C4281 1.400 . S
C4281 C4275 1.491 . S
C4281 C4280 1.400 . S
C4281 C4282 1.398 . S
C4282 H4270 0.950 . S
C4282 C4281 1.398 . S
C4282 C4283 1.391 . S
C4283 H4271 0.950 . S
C4283 C4279 1.393 . S
C4283 C4282 1.391 . S
H4284 C4292 0.950 . S
H4285 C4297 0.950 . S
H4286 C4294 0.950 . S
H4287 C4296 0.950 . S
H4288 C4298 0.950 . S
H4289 C4300 0.950 . S
H4290 C4302 0.950 . S
H4291 C4303 0.950 . S
C4292 H4284 0.950 . S
C4292 C4293 1.386 . S
C4292 C4294 1.391 1_556 S
C4293 C4292 1.386 . S
C4293 C4297 1.393 . S
C4294 H4286 0.950 . S
C4294 C4292 1.391 1_554 S
C4294 C4295 1.400 . S
C4295 C4294 1.400 . S
C4295 C4296 1.398 1_554 S
C4295 C4301 1.491 . S
C4296 H4287 0.950 . S
C4296 C4295 1.398 1_556 S
C4296 C4297 1.391 . S
C4297 H4285 0.950 . S
C4297 C4293 1.393 . S
C4297 C4296 1.391 . S
C4298 H4288 0.950 . S
C4298 C4299 1.386 . S
C4298 C4300 1.391 . S
C4299 C4298 1.386 . S
C4299 C4303 1.393 . S
C4300 H4289 0.950 . S
C4300 C4298 1.391 . S
C4300 C4301 1.400 . S
C4301 C4295 1.491 . S
C4301 C4300 1.400 . S
C4301 C4302 1.398 . S
C4302 H4290 0.950 . S
C4302 C4301 1.398 . S
C4302 C4303 1.391 . S
C4303 H4291 0.950 . S
C4303 C4299 1.393 . S
C4303 C4302 1.391 . S
H4304 C4312 0.950 . S
H4305 C4317 0.950 . S
H4306 C4314 0.950 . S
H4307 C4316 0.950 . S
H4308 C4318 0.950 . S
H4309 C4320 0.950 . S
H4310 C4322 0.950 . S
H4311 C4323 0.950 . S
C4312 H4304 0.950 . S
C4312 C4313 1.386 . S
C4312 C4314 1.391 . S
C4313 C4312 1.386 . S
C4313 C4317 1.393 . S
C4314 H4306 0.950 . S
C4314 C4312 1.391 . S
C4314 C4315 1.400 . S
C4315 C4314 1.400 . S
C4315 C4316 1.398 . S
C4315 C4321 1.491 . S
C4316 H4307 0.950 . S
C4316 C4315 1.398 . S
C4316 C4317 1.391 . S
C4317 H4305 0.950 . S
C4317 C4313 1.393 . S
C4317 C4316 1.391 . S
C4318 H4308 0.950 . S
C4318 C4319 1.386 . S
C4318 C4320 1.391 1_455 S
C4319 C4318 1.386 . S
C4319 C4323 1.393 . S
C4320 H4309 0.950 . S
C4320 C4318 1.391 1_655 S
C4320 C4321 1.400 . S
C4321 C4315 1.491 . S
C4321 C4320 1.400 . S
C4321 C4322 1.398 1_655 S
C4322 H4310 0.950 . S
C4322 C4321 1.398 1_455 S
C4322 C4323 1.391 . S
C4323 H4311 0.950 . S
C4323 C4319 1.393 . S
C4323 C4322 1.391 . S
H4324 C4332 0.950 . S
H4325 C4337 0.950 . S
H4326 C4334 0.950 . S
H4327 C4336 0.950 . S
H4328 C4338 0.950 . S
H4329 C4340 0.950 . S
H4330 C4342 0.950 . S
H4331 C4343 0.950 . S
C4332 H4324 0.950 . S
C4332 C4333 1.386 . S
C4332 C4334 1.391 . S
C4333 C4332 1.386 . S
C4333 C4337 1.393 . S
C4334 H4326 0.950 . S
C4334 C4332 1.391 . S
C4334 C4335 1.400 . S
C4335 C4334 1.400 . S
C4335 C4336 1.398 . S
C4335 C4341 1.491 . S
C4336 H4327 0.950 . S
C4336 C4335 1.398 . S
C4336 C4337 1.391 . S
C4337 H4325 0.950 . S
C4337 C4333 1.393 . S
C4337 C4336 1.391 . S
C4338 H4328 0.950 . S
C4338 C4339 1.386 . S
C4338 C4340 1.391 . S
C4339 C4338 1.386 . S
C4339 C4343 1.393 . S
C4340 H4329 0.950 . S
C4340 C4338 1.391 . S
C4340 C4341 1.400 . S
C4341 C4335 1.491 . S
C4341 C4340 1.400 . S
C4341 C4342 1.398 . S
C4342 H4330 0.950 . S
C4342 C4341 1.398 . S
C4342 C4343 1.391 . S
C4343 H4331 0.950 . S
C4343 C4339 1.393 . S
C4343 C4342 1.391 . S
H4344 C4352 0.950 . S
H4345 C4357 0.950 . S
H4346 C4354 0.950 . S
H4347 C4356 0.950 . S
H4348 C4358 0.950 . S
H4349 C4360 0.950 . S
H4350 C4362 0.950 . S
H4351 C4363 0.950 . S
C4352 H4344 0.950 . S
C4352 C4353 1.386 . S
C4352 C4354 1.391 . S
C4353 C4352 1.386 . S
C4353 C4357 1.393 . S
C4354 H4346 0.950 . S
C4354 C4352 1.391 . S
C4354 C4355 1.400 . S
C4355 C4354 1.400 . S
C4355 C4356 1.398 . S
C4355 C4361 1.491 . S
C4356 H4347 0.950 . S
C4356 C4355 1.398 . S
C4356 C4357 1.391 . S
C4357 H4345 0.950 . S
C4357 C4353 1.393 . S
C4357 C4356 1.391 . S
C4358 H4348 0.950 . S
C4358 C4359 1.386 . S
C4358 C4360 1.391 . S
C4359 C4358 1.386 . S
C4359 C4363 1.393 . S
C4360 H4349 0.950 . S
C4360 C4358 1.391 . S
C4360 C4361 1.400 . S
C4361 C4355 1.491 . S
C4361 C4360 1.400 . S
C4361 C4362 1.398 . S
C4362 H4350 0.950 . S
C4362 C4361 1.398 . S
C4362 C4363 1.391 . S
C4363 H4351 0.950 . S
C4363 C4359 1.393 . S
C4363 C4362 1.391 . S
H4364 C4372 0.950 . S
H4365 C4377 0.950 . S
H4366 C4374 0.950 . S
H4367 C4376 0.950 . S
H4368 C4378 0.950 . S
H4369 C4380 0.950 . S
H4370 C4382 0.950 . S
H4371 C4383 0.950 . S
C4372 H4364 0.950 . S
C4372 C4373 1.386 . S
C4372 C4374 1.391 . S
C4373 C4372 1.386 . S
C4373 C4377 1.393 . S
C4374 H4366 0.950 . S
C4374 C4372 1.391 . S
C4374 C4375 1.400 . S
C4375 C4374 1.400 . S
C4375 C4376 1.398 . S
C4375 C4381 1.491 . S
C4376 H4367 0.950 . S
C4376 C4375 1.398 . S
C4376 C4377 1.391 . S
C4377 H4365 0.950 . S
C4377 C4373 1.393 . S
C4377 C4376 1.391 . S
C4378 H4368 0.950 . S
C4378 C4379 1.386 . S
C4378 C4380 1.391 1_554 S
C4379 C4378 1.386 . S
C4379 C4383 1.393 . S
C4380 H4369 0.950 . S
C4380 C4378 1.391 1_556 S
C4380 C4381 1.400 . S
C4381 C4375 1.491 . S
C4381 C4380 1.400 . S
C4381 C4382 1.398 1_556 S
C4382 H4370 0.950 . S
C4382 C4381 1.398 1_554 S
C4382 C4383 1.391 . S
C4383 H4371 0.950 . S
C4383 C4379 1.393 . S
C4383 C4382 1.391 . S
H4384 C4392 0.950 . S
H4385 C4397 0.950 . S
H4386 C4394 0.950 . S
H4387 C4396 0.950 . S
H4388 C4398 0.950 . S
H4389 C4400 0.950 . S
H4390 C4402 0.950 . S
H4391 C4403 0.950 . S
C4392 H4384 0.950 . S
C4392 C4393 1.386 . S
C4392 C4394 1.391 1_545 S
C4393 C4392 1.386 . S
C4393 C4397 1.393 . S
C4394 H4386 0.950 . S
C4394 C4392 1.391 1_565 S
C4394 C4395 1.400 . S
C4395 C4394 1.400 . S
C4395 C4396 1.398 1_565 S
C4395 C4401 1.491 . S
C4396 H4387 0.950 . S
C4396 C4395 1.398 1_545 S
C4396 C4397 1.391 . S
C4397 H4385 0.950 . S
C4397 C4393 1.393 . S
C4397 C4396 1.391 . S
C4398 H4388 0.950 . S
C4398 C4399 1.386 . S
C4398 C4400 1.391 . S
C4399 C4398 1.386 . S
C4399 C4403 1.393 . S
C4400 H4389 0.950 . S
C4400 C4398 1.391 . S
C4400 C4401 1.400 . S
C4401 C4395 1.491 . S
C4401 C4400 1.400 . S
C4401 C4402 1.398 . S
C4402 H4390 0.950 . S
C4402 C4401 1.398 . S
C4402 C4403 1.391 . S
C4403 H4391 0.950 . S
C4403 C4399 1.393 . S
C4403 C4402 1.391 . S
H4404 C4412 0.950 . S
H4405 C4417 0.950 . S
H4406 C4414 0.950 . S
H4407 C4416 0.950 . S
H4408 C4418 0.950 . S
H4409 C4420 0.950 . S
H4410 C4422 0.950 . S
H4411 C4423 0.950 . S
C4412 H4404 0.950 . S
C4412 C4413 1.386 . S
C4412 C4414 1.391 . S
C4413 C4412 1.386 . S
C4413 C4417 1.393 . S
C4414 H4406 0.950 . S
C4414 C4412 1.391 . S
C4414 C4415 1.400 . S
C4415 C4414 1.400 . S
C4415 C4416 1.398 . S
C4415 C4421 1.491 . S
C4416 H4407 0.950 . S
C4416 C4415 1.398 . S
C4416 C4417 1.391 . S
C4417 H4405 0.950 . S
C4417 C4413 1.393 . S
C4417 C4416 1.391 . S
C4418 H4408 0.950 . S
C4418 C4419 1.386 . S
C4418 C4420 1.391 . S
C4419 C4418 1.386 . S
C4419 C4423 1.393 . S
C4420 H4409 0.950 . S
C4420 C4418 1.391 . S
C4420 C4421 1.400 1_565 S
C4421 C4415 1.491 . S
C4421 C4420 1.400 1_545 S
C4421 C4422 1.398 . S
C4422 H4410 0.950 . S
C4422 C4421 1.398 . S
C4422 C4423 1.391 1_545 S
C4423 H4411 0.950 . S
C4423 C4419 1.393 . S
C4423 C4422 1.391 1_565 S
H4424 C4432 0.950 . S
H4425 C4437 0.938 1_545 S
H4426 C4434 0.950 . S
H4427 C4436 0.950 . S
H4428 C4438 0.950 . S
H4429 C4440 0.950 . S
H4430 C4442 0.910 1_565 S
H4431 C4443 0.950 . S
C4432 H4424 0.950 . S
C4432 C4433 1.386 . S
C4432 C4434 1.391 . S
C4433 C4432 1.386 . S
C4433 C4437 1.393 . S
C4434 H4426 0.950 . S
C4434 C4432 1.391 . S
C4434 C4435 1.400 1_565 S
C4435 C4434 1.400 1_545 S
C4435 C4436 1.398 . S
C4435 C4441 1.491 . S
C4436 H4427 0.950 . S
C4436 C4435 1.398 . S
C4436 C4437 1.391 1_545 S
C4437 H4425 0.938 1_565 S
C4437 C4433 1.393 . S
C4437 C4436 1.391 1_565 S
C4438 H4428 0.950 . S
C4438 C4439 1.386 . S
C4438 C4440 1.391 . S
C4439 C4438 1.386 . S
C4439 C4443 1.393 . S
C4440 H4429 0.950 . S
C4440 C4438 1.391 . S
C4440 C4441 1.400 . S
C4441 C4435 1.491 . S
C4441 C4440 1.400 . S
C4441 C4442 1.398 . S
C4442 H4430 0.910 1_545 S
C4442 C4441 1.398 . S
C4442 C4443 1.391 . S
C4443 H4431 0.950 . S
C4443 C4439 1.393 . S
C4443 C4442 1.391 . S
H4444 C4452 0.942 1_565 S
H4445 C4457 0.950 . S
H4446 C4454 0.950 . S
H4447 C4456 0.950 . S
H4448 C4458 0.950 . S
H4449 C4460 0.900 1_545 S
H4450 C4462 0.950 . S
H4451 C4463 0.950 . S
C4452 H4444 0.942 1_545 S
C4452 C4453 1.386 . S
C4452 C4454 1.391 1_545 S
C4453 C4452 1.386 . S
C4453 C4457 1.393 . S
C4454 H4446 0.950 . S
C4454 C4452 1.391 1_565 S
C4454 C4455 1.400 . S
C4455 C4454 1.400 . S
C4455 C4456 1.398 1_565 S
C4455 C4461 1.491 . S
C4456 H4447 0.950 . S
C4456 C4455 1.398 1_545 S
C4456 C4457 1.391 . S
C4457 H4445 0.950 . S
C4457 C4453 1.393 . S
C4457 C4456 1.391 . S
C4458 H4448 0.950 . S
C4458 C4459 1.386 . S
C4458 C4460 1.391 . S
C4459 C4458 1.386 . S
C4459 C4463 1.393 . S
C4460 H4449 0.900 1_565 S
C4460 C4458 1.391 . S
C4460 C4461 1.400 . S
C4461 C4455 1.491 . S
C4461 C4460 1.400 . S
C4461 C4462 1.398 . S
C4462 H4450 0.950 . S
C4462 C4461 1.398 . S
C4462 C4463 1.391 . S
C4463 H4451 0.950 . S
C4463 C4459 1.393 . S
C4463 C4462 1.391 . S
H4464 C4472 0.950 . S
H4465 C4477 0.950 . S
H4466 C4474 0.950 . S
H4467 C4476 0.950 . S
H4468 C4478 0.950 . S
H4469 C4480 0.963 . S
H4470 C4482 0.950 . S
H4471 C4483 0.950 . S
C4472 H4464 0.950 . S
C4472 C4473 1.386 . S
C4472 C4474 1.391 . S
C4473 C4472 1.386 . S
C4473 C4477 1.393 . S
C4474 H4466 0.950 . S
C4474 C4472 1.391 . S
C4474 C4475 1.400 . S
C4475 C4474 1.400 . S
C4475 C4476 1.398 . S
C4475 C4481 1.491 . S
C4476 H4467 0.950 . S
C4476 C4475 1.398 . S
C4476 C4477 1.391 . S
C4477 H4465 0.950 . S
C4477 C4473 1.393 . S
C4477 C4476 1.391 . S
C4478 H4468 0.950 . S
C4478 C4479 1.386 . S
C4478 C4480 1.374 1_556 S
C4479 C4478 1.386 . S
C4479 C4483 1.393 . S
C4480 H4469 0.963 . S
C4480 C4478 1.374 1_554 S
C4480 C4481 1.405 . S
C4481 C4475 1.491 . S
C4481 C4480 1.405 . S
C4481 C4482 1.398 1_554 S
C4482 H4470 0.950 . S
C4482 C4481 1.398 1_556 S
C4482 C4483 1.391 . S
C4483 H4471 0.950 . S
C4483 C4479 1.393 . S
C4483 C4482 1.391 . S
H4484 C4492 0.950 . S
H4485 C4497 0.950 . S
H4486 C4494 0.950 . S
H4487 C4496 0.950 . S
H4488 C4498 0.950 . S
H4489 C4500 0.950 . S
H4490 C4502 0.950 . S
H4491 C4503 0.950 . S
C4492 H4484 0.950 . S
C4492 C4493 1.386 . S
C4492 C4494 1.391 . S
C4493 C4492 1.386 . S
C4493 C4497 1.393 . S
C4494 H4486 0.950 . S
C4494 C4492 1.391 . S
C4494 C4495 1.400 . S
C4495 C4494 1.400 . S
C4495 C4496 1.398 . S
C4495 C4501 1.491 . S
C4496 H4487 0.950 . S
C4496 C4495 1.398 . S
C4496 C4497 1.391 . S
C4497 H4485 0.950 . S
C4497 C4493 1.393 . S
C4497 C4496 1.391 . S
C4498 H4488 0.950 . S
C4498 C4499 1.386 . S
C4498 C4500 1.391 1_655 S
C4499 C4498 1.386 . S
C4499 C4503 1.393 . S
C4500 H4489 0.950 . S
C4500 C4498 1.391 1_455 S
C4500 C4501 1.400 . S
C4501 C4495 1.491 . S
C4501 C4500 1.400 . S
C4501 C4502 1.398 1_455 S
C4502 H4490 0.950 . S
C4502 C4501 1.398 1_655 S
C4502 C4503 1.391 . S
C4503 H4491 0.950 . S
C4503 C4499 1.393 . S
C4503 C4502 1.391 . S
H4504 C4512 0.950 . S
H4505 C4517 0.950 . S
H4506 C4514 0.950 . S
H4507 C4516 0.950 . S
H4508 C4518 0.950 . S
H4509 C4520 0.950 . S
H4510 C4522 0.950 . S
H4511 C4523 0.950 . S
C4512 H4504 0.950 . S
C4512 C4513 1.386 . S
C4512 C4514 1.391 . S
C4513 C4512 1.386 . S
C4513 C4517 1.393 . S
C4514 H4506 0.950 . S
C4514 C4512 1.391 . S
C4514 C4515 1.400 . S
C4515 C4514 1.400 . S
C4515 C4516 1.398 . S
C4515 C4521 1.491 . S
C4516 H4507 0.950 . S
C4516 C4515 1.398 . S
C4516 C4517 1.391 . S
C4517 H4505 0.950 . S
C4517 C4513 1.393 . S
C4517 C4516 1.391 . S
C4518 H4508 0.950 . S
C4518 C4519 1.386 . S
C4518 C4520 1.391 . S
C4519 C4518 1.386 . S
C4519 C4523 1.393 . S
C4520 H4509 0.950 . S
C4520 C4518 1.391 . S
C4520 C4521 1.400 . S
C4521 C4515 1.491 . S
C4521 C4520 1.400 . S
C4521 C4522 1.398 . S
C4522 H4510 0.950 . S
C4522 C4521 1.398 . S
C4522 C4523 1.391 . S
C4523 H4511 0.950 . S
C4523 C4519 1.393 . S
C4523 C4522 1.391 . S
H4524 C4532 0.950 . S
H4525 C4537 0.950 . S
H4526 C4534 0.950 . S
H4527 C4536 0.950 . S
H4528 C4538 0.950 . S
H4529 C4540 0.950 . S
H4530 C4542 0.950 . S
H4531 C4543 0.950 . S
C4532 H4524 0.950 . S
C4532 C4533 1.386 . S
C4532 C4534 1.391 . S
C4533 C4532 1.386 . S
C4533 C4537 1.393 . S
C4534 H4526 0.950 . S
C4534 C4532 1.391 . S
C4534 C4535 1.400 1_655 S
C4535 C4534 1.400 1_455 S
C4535 C4536 1.398 . S
C4535 C4541 1.491 . S
C4536 H4527 0.950 . S
C4536 C4535 1.398 . S
C4536 C4537 1.391 1_455 S
C4537 H4525 0.950 . S
C4537 C4533 1.393 . S
C4537 C4536 1.391 1_655 S
C4538 H4528 0.950 . S
C4538 C4539 1.386 . S
C4538 C4540 1.391 . S
C4539 C4538 1.386 . S
C4539 C4543 1.393 . S
C4540 H4529 0.950 . S
C4540 C4538 1.391 . S
C4540 C4541 1.400 . S
C4541 C4535 1.491 . S
C4541 C4540 1.400 . S
C4541 C4542 1.398 . S
C4542 H4530 0.950 . S
C4542 C4541 1.398 . S
C4542 C4543 1.391 . S
C4543 H4531 0.950 . S
C4543 C4539 1.393 . S
C4543 C4542 1.391 . S
H4544 C4552 0.950 . S
H4545 C4557 0.950 . S
H4546 C4554 0.950 . S
H4547 C4556 0.950 . S
H4548 C4558 0.950 . S
H4549 C4560 0.950 . S
H4550 C4562 0.950 . S
H4551 C4563 0.950 . S
C4552 H4544 0.950 . S
C4552 C4553 1.386 . S
C4552 C4554 1.391 . S
C4553 C4552 1.386 . S
C4553 C4557 1.393 . S
C4554 H4546 0.950 . S
C4554 C4552 1.391 . S
C4554 C4555 1.400 . S
C4555 C4554 1.400 . S
C4555 C4556 1.398 . S
C4555 C4561 1.491 . S
C4556 H4547 0.950 . S
C4556 C4555 1.398 . S
C4556 C4557 1.391 . S
C4557 H4545 0.950 . S
C4557 C4553 1.393 . S
C4557 C4556 1.391 . S
C4558 H4548 0.950 . S
C4558 C4559 1.386 . S
C4558 C4560 1.391 . S
C4559 C4558 1.386 . S
C4559 C4563 1.393 . S
C4560 H4549 0.950 . S
C4560 C4558 1.391 . S
C4560 C4561 1.400 . S
C4561 C4555 1.491 . S
C4561 C4560 1.400 . S
C4561 C4562 1.398 . S
C4562 H4550 0.950 . S
C4562 C4561 1.398 . S
C4562 C4563 1.391 . S
C4563 H4551 0.950 . S
C4563 C4559 1.393 . S
C4563 C4562 1.391 . S
H4564 C4572 0.954 . S
H4565 C4577 0.950 . S
H4566 C4574 0.950 . S
H4567 C4576 0.950 . S
H4568 C4578 0.950 . S
H4569 C4580 0.952 1_655 S
H4570 C4582 0.950 . S
H4571 C4583 0.950 . S
C4572 H4564 0.954 . S
C4572 C4573 1.386 . S
C4572 C4574 1.391 1_655 S
C4573 C4572 1.386 . S
C4573 C4577 1.393 . S
C4574 H4566 0.950 . S
C4574 C4572 1.391 1_455 S
C4574 C4575 1.400 . S
C4575 C4574 1.400 . S
C4575 C4576 1.398 1_455 S
C4575 C4581 1.491 . S
C4576 H4567 0.950 . S
C4576 C4575 1.398 1_655 S
C4576 C4577 1.391 . S
C4577 H4565 0.950 . S
C4577 C4573 1.393 . S
C4577 C4576 1.391 . S
C4578 H4568 0.950 . S
C4578 C4579 1.386 . S
C4578 C4580 1.391 . S
C4579 C4578 1.386 . S
C4579 C4583 1.393 . S
C4580 H4569 0.952 1_455 S
C4580 C4578 1.391 . S
C4580 C4581 1.400 . S
C4581 C4575 1.491 . S
C4581 C4580 1.400 . S
C4581 C4582 1.398 . S
C4582 H4570 0.950 . S
C4582 C4581 1.398 . S
C4582 C4583 1.391 . S
C4583 H4571 0.950 . S
C4583 C4579 1.393 . S
C4583 C4582 1.391 . S
H4584 C4592 0.950 . S
H4585 C4597 0.950 . S
H4586 C4594 0.950 . S
H4587 C4596 0.950 . S
H4588 C4598 0.950 . S
H4589 C4600 0.950 . S
H4590 C4602 0.950 . S
H4591 C4603 0.950 . S
C4592 H4584 0.950 . S
C4592 C4593 1.386 . S
C4592 C4594 1.391 . S
C4593 C4592 1.386 . S
C4593 C4597 1.393 . S
C4594 H4586 0.950 . S
C4594 C4592 1.391 . S
C4594 C4595 1.400 . S
C4595 C4594 1.400 . S
C4595 C4596 1.398 . S
C4595 C4601 1.491 . S
C4596 H4587 0.950 . S
C4596 C4595 1.398 . S
C4596 C4597 1.391 . S
C4597 H4585 0.950 . S
C4597 C4593 1.393 . S
C4597 C4596 1.391 . S
C4598 H4588 0.950 . S
C4598 C4599 1.386 . S
C4598 C4600 1.391 . S
C4599 C4598 1.386 . S
C4599 C4603 1.393 . S
C4600 H4589 0.950 . S
C4600 C4598 1.391 . S
C4600 C4601 1.400 . S
C4601 C4595 1.491 . S
C4601 C4600 1.400 . S
C4601 C4602 1.398 . S
C4602 H4590 0.950 . S
C4602 C4601 1.398 . S
C4602 C4603 1.391 . S
C4603 H4591 0.950 . S
C4603 C4599 1.393 . S
C4603 C4602 1.391 . S
H4604 C4612 0.950 . S
H4605 C4617 0.950 . S
H4606 C4614 0.950 . S
H4607 C4616 0.950 . S
H4608 C4618 0.950 . S
H4609 C4620 0.950 . S
H4610 C4622 0.950 . S
H4611 C4623 0.950 . S
C4612 H4604 0.950 . S
C4612 C4613 1.386 . S
C4612 C4614 1.391 . S
C4613 C4612 1.386 . S
C4613 C4617 1.393 . S
C4614 H4606 0.950 . S
C4614 C4612 1.391 . S
C4614 C4615 1.400 . S
C4615 C4614 1.400 . S
C4615 C4616 1.398 . S
C4615 C4621 1.491 . S
C4616 H4607 0.950 . S
C4616 C4615 1.398 . S
C4616 C4617 1.391 . S
C4617 H4605 0.950 . S
C4617 C4613 1.393 . S
C4617 C4616 1.391 . S
C4618 H4608 0.950 . S
C4618 C4619 1.386 . S
C4618 C4620 1.391 . S
C4619 C4618 1.386 . S
C4619 C4623 1.393 . S
C4620 H4609 0.950 . S
C4620 C4618 1.391 . S
C4620 C4621 1.400 . S
C4621 C4615 1.491 . S
C4621 C4620 1.400 . S
C4621 C4622 1.398 . S
C4622 H4610 0.950 . S
C4622 C4621 1.398 . S
C4622 C4623 1.391 . S
C4623 H4611 0.950 . S
C4623 C4619 1.393 . S
C4623 C4622 1.391 . S
H4624 C4632 0.950 . S
H4625 C4637 0.953 . S
H4626 C4634 0.950 . S
H4627 C4636 0.950 . S
H4628 C4638 0.950 . S
H4629 C4640 0.950 . S
H4630 C4642 0.953 1_554 S
H4631 C4643 0.950 . S
C4632 H4624 0.950 . S
C4632 C4633 1.386 . S
C4632 C4634 1.391 . S
C4633 C4632 1.386 . S
C4633 C4637 1.393 . S
C4634 H4626 0.950 . S
C4634 C4632 1.391 . S
C4634 C4635 1.400 1_554 S
C4635 C4634 1.400 1_556 S
C4635 C4636 1.398 . S
C4635 C4641 1.491 . S
C4636 H4627 0.950 . S
C4636 C4635 1.398 . S
C4636 C4637 1.391 1_556 S
C4637 H4625 0.953 . S
C4637 C4633 1.393 . S
C4637 C4636 1.391 1_554 S
C4638 H4628 0.950 . S
C4638 C4639 1.386 . S
C4638 C4640 1.391 . S
C4639 C4638 1.386 . S
C4639 C4643 1.393 . S
C4640 H4629 0.950 . S
C4640 C4638 1.391 . S
C4640 C4641 1.400 . S
C4641 C4635 1.491 . S
C4641 C4640 1.400 . S
C4641 C4642 1.398 . S
C4642 H4630 0.953 1_556 S
C4642 C4641 1.398 . S
C4642 C4643 1.391 . S
C4643 H4631 0.950 . S
C4643 C4639 1.393 . S
C4643 C4642 1.391 . S
H4644 C4652 0.950 . S
H4645 C4657 0.950 . S
H4646 C4654 0.950 . S
H4647 C4656 0.950 . S
H4648 C4658 0.950 . S
H4649 C4660 0.950 . S
H4650 C4662 0.950 . S
H4651 C4663 0.950 . S
C4652 H4644 0.950 . S
C4652 C4653 1.386 . S
C4652 C4654 1.391 . S
C4653 C4652 1.386 . S
C4653 C4657 1.393 . S
C4654 H4646 0.950 . S
C4654 C4652 1.391 . S
C4654 C4655 1.400 1_655 S
C4655 C4654 1.400 1_455 S
C4655 C4656 1.398 . S
C4655 C4661 1.491 . S
C4656 H4647 0.950 . S
C4656 C4655 1.398 . S
C4656 C4657 1.391 1_455 S
C4657 H4645 0.950 . S
C4657 C4653 1.393 . S
C4657 C4656 1.391 1_655 S
C4658 H4648 0.950 . S
C4658 C4659 1.386 . S
C4658 C4660 1.391 . S
C4659 C4658 1.386 . S
C4659 C4663 1.393 . S
C4660 H4649 0.950 . S
C4660 C4658 1.391 . S
C4660 C4661 1.400 . S
C4661 C4655 1.491 . S
C4661 C4660 1.400 . S
C4661 C4662 1.398 . S
C4662 H4650 0.950 . S
C4662 C4661 1.398 . S
C4662 C4663 1.391 . S
C4663 H4651 0.950 . S
C4663 C4659 1.393 . S
C4663 C4662 1.391 . S
H4664 C4672 0.950 . S
H4665 C4677 0.950 . S
H4666 C4674 0.950 . S
H4667 C4676 0.950 . S
H4668 C4678 0.950 . S
H4669 C4680 0.950 . S
H4670 C4682 0.950 . S
H4671 C4683 0.950 . S
C4672 H4664 0.950 . S
C4672 C4673 1.386 . S
C4672 C4674 1.391 . S
C4673 C4672 1.386 . S
C4673 C4677 1.393 . S
C4674 H4666 0.950 . S
C4674 C4672 1.391 . S
C4674 C4675 1.400 . S
C4675 C4674 1.400 . S
C4675 C4676 1.398 . S
C4675 C4681 1.491 . S
C4676 H4667 0.950 . S
C4676 C4675 1.398 . S
C4676 C4677 1.391 . S
C4677 H4665 0.950 . S
C4677 C4673 1.393 . S
C4677 C4676 1.391 . S
C4678 H4668 0.950 . S
C4678 C4679 1.386 . S
C4678 C4680 1.391 . S
C4679 C4678 1.386 . S
C4679 C4683 1.393 . S
C4680 H4669 0.950 . S
C4680 C4678 1.391 . S
C4680 C4681 1.400 . S
C4681 C4675 1.491 . S
C4681 C4680 1.400 . S
C4681 C4682 1.398 . S
C4682 H4670 0.950 . S
C4682 C4681 1.398 . S
C4682 C4683 1.391 . S
C4683 H4671 0.950 . S
C4683 C4679 1.393 . S
C4683 C4682 1.391 . S
H4684 C4692 0.950 . S
H4685 C4697 0.950 . S
H4686 C4694 0.950 . S
H4687 C4696 0.950 . S
H4688 C4698 0.950 . S
H4689 C4700 0.950 . S
H4690 C4702 0.950 . S
H4691 C4703 0.950 . S
C4692 H4684 0.950 . S
C4692 C4693 1.386 . S
C4692 C4694 1.391 . S
C4693 C4692 1.386 . S
C4693 C4697 1.393 . S
C4694 H4686 0.950 . S
C4694 C4692 1.391 . S
C4694 C4695 1.400 . S
C4695 C4694 1.400 . S
C4695 C4696 1.398 . S
C4695 C4701 1.491 . S
C4696 H4687 0.950 . S
C4696 C4695 1.398 . S
C4696 C4697 1.391 . S
C4697 H4685 0.950 . S
C4697 C4693 1.393 . S
C4697 C4696 1.391 . S
C4698 H4688 0.950 . S
C4698 C4699 1.386 . S
C4698 C4700 1.391 . S
C4699 C4698 1.386 . S
C4699 C4703 1.393 . S
C4700 H4689 0.950 . S
C4700 C4698 1.391 . S
C4700 C4701 1.400 . S
C4701 C4695 1.491 . S
C4701 C4700 1.400 . S
C4701 C4702 1.398 . S
C4702 H4690 0.950 . S
C4702 C4701 1.398 . S
C4702 C4703 1.391 . S
C4703 H4691 0.950 . S
C4703 C4699 1.393 . S
C4703 C4702 1.391 . S
H4704 C4712 0.950 . S
H4705 C4717 0.950 . S
H4706 C4714 0.950 . S
H4707 C4716 0.950 . S
H4708 C4718 0.950 . S
H4709 C4720 0.950 . S
H4710 C4722 0.950 . S
H4711 C4723 0.950 . S
C4712 H4704 0.950 . S
C4712 C4713 1.386 . S
C4712 C4714 1.391 . S
C4713 C4712 1.386 . S
C4713 C4717 1.393 . S
C4714 H4706 0.950 . S
C4714 C4712 1.391 . S
C4714 C4715 1.400 . S
C4715 C4714 1.400 . S
C4715 C4716 1.398 . S
C4715 C4721 1.491 . S
C4716 H4707 0.950 . S
C4716 C4715 1.398 . S
C4716 C4717 1.391 . S
C4717 H4705 0.950 . S
C4717 C4713 1.393 . S
C4717 C4716 1.391 . S
C4718 H4708 0.950 . S
C4718 C4719 1.386 . S
C4718 C4720 1.391 1_556 S
C4719 C4718 1.386 . S
C4719 C4723 1.393 . S
C4720 H4709 0.950 . S
C4720 C4718 1.391 1_554 S
C4720 C4721 1.400 . S
C4721 C4715 1.491 . S
C4721 C4720 1.400 . S
C4721 C4722 1.398 1_554 S
C4722 H4710 0.950 . S
C4722 C4721 1.398 1_556 S
C4722 C4723 1.391 . S
C4723 H4711 0.950 . S
C4723 C4719 1.393 . S
C4723 C4722 1.391 . S
H4724 C4732 0.950 . S
H4725 C4737 0.950 . S
H4726 C4734 0.929 1_545 S
H4727 C4736 0.951 1_545 S
H4728 C4738 0.950 . S
H4729 C4740 0.950 . S
H4730 C4742 0.950 . S
H4731 C4743 0.950 . S
C4732 H4724 0.950 . S
C4732 C4733 1.386 . S
C4732 C4734 1.391 . S
C4733 C4732 1.386 . S
C4733 C4737 1.393 . S
C4734 H4726 0.929 1_565 S
C4734 C4732 1.391 . S
C4734 C4735 1.400 1_565 S
C4735 C4734 1.400 1_545 S
C4735 C4736 1.398 1_545 S
C4735 C4741 1.491 . S
C4736 H4727 0.951 1_565 S
C4736 C4735 1.398 1_565 S
C4736 C4737 1.391 . S
C4737 H4725 0.950 . S
C4737 C4733 1.393 . S
C4737 C4736 1.391 . S
C4738 H4728 0.950 . S
C4738 C4739 1.386 . S
C4738 C4740 1.391 . S
C4739 C4738 1.386 . S
C4739 C4743 1.393 . S
C4740 H4729 0.950 . S
C4740 C4738 1.391 . S
C4740 C4741 1.400 . S
C4741 C4735 1.491 . S
C4741 C4740 1.400 . S
C4741 C4742 1.398 . S
C4742 H4730 0.950 . S
C4742 C4741 1.398 . S
C4742 C4743 1.391 . S
C4743 H4731 0.950 . S
C4743 C4739 1.393 . S
C4743 C4742 1.391 . S
H4744 C4752 0.950 . S
H4745 C4757 0.950 . S
H4746 C4754 0.950 . S
H4747 C4756 0.950 . S
H4748 C4758 0.950 . S
H4749 C4760 0.950 . S
H4750 C4762 0.950 . S
H4751 C4763 0.950 . S
C4752 H4744 0.950 . S
C4752 C4753 1.386 . S
C4752 C4754 1.391 . S
C4753 C4752 1.386 . S
C4753 C4757 1.393 . S
C4754 H4746 0.950 . S
C4754 C4752 1.391 . S
C4754 C4755 1.400 . S
C4755 C4754 1.400 . S
C4755 C4756 1.398 . S
C4755 C4761 1.491 . S
C4756 H4747 0.950 . S
C4756 C4755 1.398 . S
C4756 C4757 1.391 . S
C4757 H4745 0.950 . S
C4757 C4753 1.393 . S
C4757 C4756 1.391 . S
C4758 H4748 0.950 . S
C4758 C4759 1.386 . S
C4758 C4760 1.391 . S
C4759 C4758 1.386 . S
C4759 C4763 1.393 . S
C4760 H4749 0.950 . S
C4760 C4758 1.391 . S
C4760 C4761 1.400 1_545 S
C4761 C4755 1.491 . S
C4761 C4760 1.400 1_565 S
C4761 C4762 1.398 . S
C4762 H4750 0.950 . S
C4762 C4761 1.398 . S
C4762 C4763 1.391 1_565 S
C4763 H4751 0.950 . S
C4763 C4759 1.393 . S
C4763 C4762 1.391 1_545 S
H4764 C4772 0.950 . S
H4765 C4777 0.950 . S
H4766 C4774 0.887 1_545 S
H4767 C4776 0.950 . S
H4768 C4778 0.936 1_565 S
H4769 C4780 0.950 . S
H4770 C4782 0.950 . S
H4771 C4783 0.950 . S
C4772 H4764 0.950 . S
C4772 C4773 1.386 . S
C4772 C4774 1.391 . S
C4773 C4772 1.386 . S
C4773 C4777 1.393 . S
C4774 H4766 0.887 1_565 S
C4774 C4772 1.391 . S
C4774 C4775 1.400 . S
C4775 C4774 1.400 . S
C4775 C4776 1.398 . S
C4775 C4781 1.491 . S
C4776 H4767 0.950 . S
C4776 C4775 1.398 . S
C4776 C4777 1.391 . S
C4777 H4765 0.950 . S
C4777 C4773 1.393 . S
C4777 C4776 1.391 . S
C4778 H4768 0.936 1_545 S
C4778 C4779 1.386 . S
C4778 C4780 1.391 1_545 S
C4779 C4778 1.386 . S
C4779 C4783 1.393 . S
C4780 H4769 0.950 . S
C4780 C4778 1.391 1_565 S
C4780 C4781 1.400 . S
C4781 C4775 1.491 . S
C4781 C4780 1.400 . S
C4781 C4782 1.398 1_565 S
C4782 H4770 0.950 . S
C4782 C4781 1.398 1_545 S
C4782 C4783 1.391 . S
C4783 H4771 0.950 . S
C4783 C4779 1.393 . S
C4783 C4782 1.391 . S
H4784 C4792 0.950 . S
H4785 C4797 0.950 . S
H4786 C4794 1.013 . S
H4787 C4796 0.950 . S
H4788 C4798 0.950 . S
H4789 C4800 0.950 . S
H4790 C4802 0.950 . S
H4791 C4803 0.950 . S
C4792 H4784 0.950 . S
C4792 C4793 1.386 . S
C4792 C4794 1.391 . S
C4793 C4792 1.386 . S
C4793 C4797 1.393 . S
C4794 H4786 1.013 . S
C4794 C4792 1.391 . S
C4794 C4795 1.400 . S
C4795 C4794 1.400 . S
C4795 C4796 1.398 . S
C4795 C4801 1.491 . S
C4796 H4787 0.950 . S
C4796 C4795 1.398 . S
C4796 C4797 1.391 . S
C4797 H4785 0.950 . S
C4797 C4793 1.393 . S
C4797 C4796 1.391 . S
C4798 H4788 0.950 . S
C4798 C4799 1.386 . S
C4798 C4800 1.391 1_565 S
C4799 C4798 1.386 . S
C4799 C4803 1.393 . S
C4800 H4789 0.950 . S
C4800 C4798 1.391 1_545 S
C4800 C4801 1.400 . S
C4801 C4795 1.491 . S
C4801 C4800 1.400 . S
C4801 C4802 1.398 1_545 S
C4802 H4790 0.950 . S
C4802 C4801 1.398 1_565 S
C4802 C4803 1.391 . S
C4803 H4791 0.950 . S
C4803 C4799 1.393 . S
C4803 C4802 1.391 . S
H4804 C4812 0.950 . S
H4805 C4817 0.950 . S
H4806 C4814 0.950 . S
H4807 C4816 0.950 . S
H4808 C4818 0.950 . S
H4809 C4820 0.950 . S
H4810 C4822 0.950 . S
H4811 C4823 0.950 . S
C4812 H4804 0.950 . S
C4812 C4813 1.386 . S
C4812 C4814 1.391 . S
C4813 C4812 1.386 . S
C4813 C4817 1.393 . S
C4814 H4806 0.950 . S
C4814 C4812 1.391 . S
C4814 C4815 1.400 . S
C4815 C4814 1.400 . S
C4815 C4816 1.398 . S
C4815 C4821 1.491 . S
C4816 H4807 0.950 . S
C4816 C4815 1.398 . S
C4816 C4817 1.391 . S
C4817 H4805 0.950 . S
C4817 C4813 1.393 . S
C4817 C4816 1.391 . S
C4818 H4808 0.950 . S
C4818 C4819 1.386 . S
C4818 C4820 1.391 1_554 S
C4819 C4818 1.386 . S
C4819 C4823 1.393 . S
C4820 H4809 0.950 . S
C4820 C4818 1.391 1_556 S
C4820 C4821 1.400 . S
C4821 C4815 1.491 . S
C4821 C4820 1.400 . S
C4821 C4822 1.398 1_556 S
C4822 H4810 0.950 . S
C4822 C4821 1.398 1_554 S
C4822 C4823 1.391 . S
C4823 H4811 0.950 . S
C4823 C4819 1.393 . S
C4823 C4822 1.391 . S
H4824 C4832 0.950 . S
H4825 C4837 0.950 . S
H4826 C4834 0.950 . S
H4827 C4836 0.950 . S
H4828 C4838 0.950 . S
H4829 C4840 0.950 . S
H4830 C4842 0.950 . S
H4831 C4843 0.950 . S
C4832 H4824 0.950 . S
C4832 C4833 1.386 . S
C4832 C4834 1.391 . S
C4833 C4832 1.386 . S
C4833 C4837 1.393 . S
C4834 H4826 0.950 . S
C4834 C4832 1.391 . S
C4834 C4835 1.400 . S
C4835 C4834 1.400 . S
C4835 C4836 1.398 . S
C4835 C4841 1.491 . S
C4836 H4827 0.950 . S
C4836 C4835 1.398 . S
C4836 C4837 1.391 . S
C4837 H4825 0.950 . S
C4837 C4833 1.393 . S
C4837 C4836 1.391 . S
C4838 H4828 0.950 . S
C4838 C4839 1.386 . S
C4838 C4840 1.391 . S
C4839 C4838 1.386 . S
C4839 C4843 1.393 . S
C4840 H4829 0.950 . S
C4840 C4838 1.391 . S
C4840 C4841 1.400 1_455 S
C4841 C4835 1.491 . S
C4841 C4840 1.400 1_655 S
C4841 C4842 1.398 . S
C4842 H4830 0.950 . S
C4842 C4841 1.398 . S
C4842 C4843 1.391 1_655 S
C4843 H4831 0.950 . S
C4843 C4839 1.393 . S
C4843 C4842 1.391 1_455 S
H4844 C4852 0.950 . S
H4845 C4857 0.950 . S
H4846 C4854 0.950 . S
H4847 C4856 0.950 . S
H4848 C4858 0.950 . S
H4849 C4860 0.950 . S
H4850 C4862 0.950 . S
H4851 C4863 0.950 . S
C4852 H4844 0.950 . S
C4852 C4853 1.386 . S
C4852 C4854 1.391 . S
C4853 C4852 1.386 . S
C4853 C4857 1.393 . S
C4854 H4846 0.950 . S
C4854 C4852 1.391 . S
C4854 C4855 1.400 . S
C4855 C4854 1.400 . S
C4855 C4856 1.398 . S
C4855 C4861 1.491 . S
C4856 H4847 0.950 . S
C4856 C4855 1.398 . S
C4856 C4857 1.391 . S
C4857 H4845 0.950 . S
C4857 C4853 1.393 . S
C4857 C4856 1.391 . S
C4858 H4848 0.950 . S
C4858 C4859 1.386 . S
C4858 C4860 1.391 . S
C4859 C4858 1.386 . S
C4859 C4863 1.393 . S
C4860 H4849 0.950 . S
C4860 C4858 1.391 . S
C4860 C4861 1.400 . S
C4861 C4855 1.491 . S
C4861 C4860 1.400 . S
C4861 C4862 1.398 . S
C4862 H4850 0.950 . S
C4862 C4861 1.398 . S
C4862 C4863 1.391 . S
C4863 H4851 0.950 . S
C4863 C4859 1.393 . S
C4863 C4862 1.391 . S
H4864 C4872 0.950 . S
H4865 C4877 0.950 . S
H4866 C4874 0.950 . S
H4867 C4876 0.950 . S
H4868 C4878 0.950 . S
H4869 C4880 0.950 . S
H4870 C4882 0.950 . S
H4871 C4883 0.950 . S
C4872 H4864 0.950 . S
C4872 C4873 1.386 . S
C4872 C4874 1.391 . S
C4873 C4872 1.386 . S
C4873 C4877 1.393 . S
C4874 H4866 0.950 . S
C4874 C4872 1.391 . S
C4874 C4875 1.400 . S
C4875 C4874 1.400 . S
C4875 C4876 1.398 . S
C4875 C4881 1.491 . S
C4876 H4867 0.950 . S
C4876 C4875 1.398 . S
C4876 C4877 1.391 . S
C4877 H4865 0.950 . S
C4877 C4873 1.393 . S
C4877 C4876 1.391 . S
C4878 H4868 0.950 . S
C4878 C4879 1.386 . S
C4878 C4880 1.391 1_455 S
C4879 C4878 1.386 . S
C4879 C4883 1.393 . S
C4880 H4869 0.950 . S
C4880 C4878 1.391 1_655 S
C4880 C4881 1.400 . S
C4881 C4875 1.491 . S
C4881 C4880 1.400 . S
C4881 C4882 1.398 1_655 S
C4882 H4870 0.950 . S
C4882 C4881 1.398 1_455 S
C4882 C4883 1.391 . S
C4883 H4871 0.950 . S
C4883 C4879 1.393 . S
C4883 C4882 1.391 . S
H4884 C4892 0.950 . S
H4885 C4897 0.950 . S
H4886 C4894 0.950 . S
H4887 C4896 0.950 . S
H4888 C4898 0.950 . S
H4889 C4900 0.950 . S
H4890 C4902 0.950 . S
H4891 C4903 0.950 . S
C4892 H4884 0.950 . S
C4892 C4893 1.386 . S
C4892 C4894 1.391 . S
C4893 C4892 1.386 . S
C4893 C4897 1.393 . S
C4894 H4886 0.950 . S
C4894 C4892 1.391 . S
C4894 C4895 1.400 . S
C4895 C4894 1.400 . S
C4895 C4896 1.398 . S
C4895 C4901 1.491 . S
C4896 H4887 0.950 . S
C4896 C4895 1.398 . S
C4896 C4897 1.391 . S
C4897 H4885 0.950 . S
C4897 C4893 1.393 . S
C4897 C4896 1.391 . S
C4898 H4888 0.950 . S
C4898 C4899 1.386 . S
C4898 C4900 1.391 . S
C4899 C4898 1.386 . S
C4899 C4903 1.393 . S
C4900 H4889 0.950 . S
C4900 C4898 1.391 . S
C4900 C4901 1.400 . S
C4901 C4895 1.491 . S
C4901 C4900 1.400 . S
C4901 C4902 1.398 . S
C4902 H4890 0.950 . S
C4902 C4901 1.398 . S
C4902 C4903 1.391 . S
C4903 H4891 0.950 . S
C4903 C4899 1.393 . S
C4903 C4902 1.391 . S
H4904 C4912 0.950 . S
H4905 C4917 0.950 . S
H4906 C4914 0.950 . S
H4907 C4916 0.950 . S
H4908 C4918 0.950 . S
H4909 C4920 0.950 . S
H4910 C4922 0.950 . S
H4911 C4923 0.950 . S
C4912 H4904 0.950 . S
C4912 C4913 1.386 . S
C4912 C4914 1.391 . S
C4913 C4912 1.386 . S
C4913 C4917 1.393 . S
C4914 H4906 0.950 . S
C4914 C4912 1.391 . S
C4914 C4915 1.400 . S
C4915 C4914 1.400 . S
C4915 C4916 1.398 . S
C4915 C4921 1.491 . S
C4916 H4907 0.950 . S
C4916 C4915 1.398 . S
C4916 C4917 1.391 . S
C4917 H4905 0.950 . S
C4917 C4913 1.393 . S
C4917 C4916 1.391 . S
C4918 H4908 0.950 . S
C4918 C4919 1.386 . S
C4918 C4920 1.391 . S
C4919 C4918 1.386 . S
C4919 C4923 1.393 . S
C4920 H4909 0.950 . S
C4920 C4918 1.391 . S
C4920 C4921 1.400 . S
C4921 C4915 1.491 . S
C4921 C4920 1.400 . S
C4921 C4922 1.398 . S
C4922 H4910 0.950 . S
C4922 C4921 1.398 . S
C4922 C4923 1.391 . S
C4923 H4911 0.950 . S
C4923 C4919 1.393 . S
C4923 C4922 1.391 . S
H4924 C4932 0.950 . S
H4925 C4937 0.950 . S
H4926 C4934 0.908 1_554 S
H4927 C4936 0.950 . S
H4928 C4938 0.941 1_556 S
H4929 C4940 0.950 . S
H4930 C4942 0.950 . S
H4931 C4943 0.950 . S
C4932 H4924 0.950 . S
C4932 C4933 1.386 . S
C4932 C4934 1.391 . S
C4933 C4932 1.386 . S
C4933 C4937 1.393 . S
C4934 H4926 0.908 1_556 S
C4934 C4932 1.391 . S
C4934 C4935 1.400 . S
C4935 C4934 1.400 . S
C4935 C4936 1.398 . S
C4935 C4941 1.491 . S
C4936 H4927 0.950 . S
C4936 C4935 1.398 . S
C4936 C4937 1.391 . S
C4937 H4925 0.950 . S
C4937 C4933 1.393 . S
C4937 C4936 1.391 . S
C4938 H4928 0.941 1_554 S
C4938 C4939 1.386 . S
C4938 C4940 1.391 1_554 S
C4939 C4938 1.386 . S
C4939 C4943 1.393 . S
C4940 H4929 0.950 . S
C4940 C4938 1.391 1_556 S
C4940 C4941 1.400 . S
C4941 C4935 1.491 . S
C4941 C4940 1.400 . S
C4941 C4942 1.398 1_556 S
C4942 H4930 0.950 . S
C4942 C4941 1.398 1_554 S
C4942 C4943 1.391 . S
C4943 H4931 0.950 . S
C4943 C4939 1.393 . S
C4943 C4942 1.391 . S
H4944 C4952 0.950 . S
H4945 C4957 0.950 . S
H4946 C4954 0.950 . S
H4947 C4956 0.950 . S
H4948 C4958 0.950 . S
H4949 C4960 0.950 . S
H4950 C4962 0.950 . S
H4951 C4963 0.950 . S
C4952 H4944 0.950 . S
C4952 C4953 1.386 . S
C4952 C4954 1.391 . S
C4953 C4952 1.386 . S
C4953 C4957 1.393 . S
C4954 H4946 0.950 . S
C4954 C4952 1.391 . S
C4954 C4955 1.400 . S
C4955 C4954 1.400 . S
C4955 C4956 1.398 . S
C4955 C4961 1.491 . S
C4956 H4947 0.950 . S
C4956 C4955 1.398 . S
C4956 C4957 1.391 . S
C4957 H4945 0.950 . S
C4957 C4953 1.393 . S
C4957 C4956 1.391 . S
C4958 H4948 0.950 . S
C4958 C4959 1.386 . S
C4958 C4960 1.391 . S
C4959 C4958 1.386 . S
C4959 C4963 1.393 . S
C4960 H4949 0.950 . S
C4960 C4958 1.391 . S
C4960 C4961 1.400 . S
C4961 C4955 1.491 . S
C4961 C4960 1.400 . S
C4961 C4962 1.398 . S
C4962 H4950 0.950 . S
C4962 C4961 1.398 . S
C4962 C4963 1.391 . S
C4963 H4951 0.950 . S
C4963 C4959 1.393 . S
C4963 C4962 1.391 . S
H4964 C4972 0.950 . S
H4965 C4977 0.950 . S
H4966 C4974 0.950 . S
H4967 C4976 0.950 . S
H4968 C4978 0.950 . S
H4969 C4980 0.950 . S
H4970 C4982 0.950 . S
H4971 C4983 0.950 . S
C4972 H4964 0.950 . S
C4972 C4973 1.386 . S
C4972 C4974 1.391 . S
C4973 C4972 1.386 . S
C4973 C4977 1.393 . S
C4974 H4966 0.950 . S
C4974 C4972 1.391 . S
C4974 C4975 1.400 . S
C4975 C4974 1.400 . S
C4975 C4976 1.398 . S
C4975 C4981 1.491 . S
C4976 H4967 0.950 . S
C4976 C4975 1.398 . S
C4976 C4977 1.391 . S
C4977 H4965 0.950 . S
C4977 C4973 1.393 . S
C4977 C4976 1.391 . S
C4978 H4968 0.950 . S
C4978 C4979 1.386 . S
C4978 C4980 1.391 . S
C4979 C4978 1.386 . S
C4979 C4983 1.393 . S
C4980 H4969 0.950 . S
C4980 C4978 1.391 . S
C4980 C4981 1.400 . S
C4981 C4975 1.491 . S
C4981 C4980 1.400 . S
C4981 C4982 1.398 . S
C4982 H4970 0.950 . S
C4982 C4981 1.398 . S
C4982 C4983 1.391 . S
C4983 H4971 0.950 . S
C4983 C4979 1.393 . S
C4983 C4982 1.391 . S
H4984 C4992 0.950 . S
H4985 C4997 0.950 . S
H4986 C4994 0.950 . S
H4987 C4996 0.950 . S
H4988 C4998 0.950 . S
H4989 C5000 0.950 . S
H4990 C5002 0.950 . S
H4991 C5003 0.950 . S
C4992 H4984 0.950 . S
C4992 C4993 1.386 . S
C4992 C4994 1.391 . S
C4993 C4992 1.386 . S
C4993 C4997 1.393 . S
C4994 H4986 0.950 . S
C4994 C4992 1.391 . S
C4994 C4995 1.400 . S
C4995 C4994 1.400 . S
C4995 C4996 1.398 . S
C4995 C5001 1.491 . S
C4996 H4987 0.950 . S
C4996 C4995 1.398 . S
C4996 C4997 1.391 . S
C4997 H4985 0.950 . S
C4997 C4993 1.393 . S
C4997 C4996 1.391 . S
C4998 H4988 0.950 . S
C4998 C4999 1.386 . S
C4998 C5000 1.391 . S
C4999 C4998 1.386 . S
C4999 C5003 1.393 . S
C5000 H4989 0.950 . S
C5000 C4998 1.391 . S
C5000 C5001 1.400 . S
C5001 C4995 1.491 . S
C5001 C5000 1.400 . S
C5001 C5002 1.398 . S
C5002 H4990 0.950 . S
C5002 C5001 1.398 . S
C5002 C5003 1.391 . S
C5003 H4991 0.950 . S
C5003 C4999 1.393 . S
C5003 C5002 1.391 . S
H5004 C5012 0.950 . S
H5005 C5017 0.950 . S
H5006 C5014 0.950 . S
H5007 C5016 0.950 . S
H5008 C5018 0.950 . S
H5009 C5020 0.950 . S
H5010 C5022 0.950 . S
H5011 C5023 0.950 . S
C5012 H5004 0.950 . S
C5012 C5013 1.386 . S
C5012 C5014 1.391 . S
C5013 C5012 1.386 . S
C5013 C5017 1.393 . S
C5014 H5006 0.950 . S
C5014 C5012 1.391 . S
C5014 C5015 1.400 . S
C5015 C5014 1.400 . S
C5015 C5016 1.398 . S
C5015 C5021 1.491 . S
C5016 H5007 0.950 . S
C5016 C5015 1.398 . S
C5016 C5017 1.391 . S
C5017 H5005 0.950 . S
C5017 C5013 1.393 . S
C5017 C5016 1.391 . S
C5018 H5008 0.950 . S
C5018 C5019 1.386 . S
C5018 C5020 1.391 . S
C5019 C5018 1.386 . S
C5019 C5023 1.393 . S
C5020 H5009 0.950 . S
C5020 C5018 1.391 . S
C5020 C5021 1.400 . S
C5021 C5015 1.491 . S
C5021 C5020 1.400 . S
C5021 C5022 1.398 . S
C5022 H5010 0.950 . S
C5022 C5021 1.398 . S
C5022 C5023 1.391 . S
C5023 H5011 0.950 . S
C5023 C5019 1.393 . S
C5023 C5022 1.391 . S
H5024 C5032 0.950 . S
H5025 C5037 0.950 . S
H5026 C5034 0.950 . S
H5027 C5036 0.950 . S
H5028 C5038 0.950 . S
H5029 C5040 0.950 . S
H5030 C5042 0.950 . S
H5031 C5043 0.950 . S
C5032 H5024 0.950 . S
C5032 C5033 1.386 . S
C5032 C5034 1.391 . S
C5033 C5032 1.386 . S
C5033 C5037 1.393 . S
C5034 H5026 0.950 . S
C5034 C5032 1.391 . S
C5034 C5035 1.400 . S
C5035 C5034 1.400 . S
C5035 C5036 1.398 . S
C5035 C5041 1.491 . S
C5036 H5027 0.950 . S
C5036 C5035 1.398 . S
C5036 C5037 1.391 . S
C5037 H5025 0.950 . S
C5037 C5033 1.393 . S
C5037 C5036 1.391 . S
C5038 H5028 0.950 . S
C5038 C5039 1.386 . S
C5038 C5040 1.391 . S
C5039 C5038 1.386 . S
C5039 C5043 1.393 . S
C5040 H5029 0.950 . S
C5040 C5038 1.391 . S
C5040 C5041 1.400 . S
C5041 C5035 1.491 . S
C5041 C5040 1.400 . S
C5041 C5042 1.398 . S
C5042 H5030 0.950 . S
C5042 C5041 1.398 . S
C5042 C5043 1.391 . S
C5043 H5031 0.950 . S
C5043 C5039 1.393 . S
C5043 C5042 1.391 . S
H5044 C5052 0.950 . S
H5045 C5057 0.950 . S
H5046 C5054 0.950 . S
H5047 C5056 0.950 . S
H5048 C5058 0.950 . S
H5049 C5060 0.950 . S
H5050 C5062 0.950 . S
H5051 C5063 0.950 . S
C5052 H5044 0.950 . S
C5052 C5053 1.386 . S
C5052 C5054 1.391 . S
C5053 C5052 1.386 . S
C5053 C5057 1.393 . S
C5054 H5046 0.950 . S
C5054 C5052 1.391 . S
C5054 C5055 1.400 . S
C5055 C5054 1.400 . S
C5055 C5056 1.398 . S
C5055 C5061 1.491 . S
C5056 H5047 0.950 . S
C5056 C5055 1.398 . S
C5056 C5057 1.391 . S
C5057 H5045 0.950 . S
C5057 C5053 1.393 . S
C5057 C5056 1.391 . S
C5058 H5048 0.950 . S
C5058 C5059 1.386 . S
C5058 C5060 1.391 . S
C5059 C5058 1.386 . S
C5059 C5063 1.393 . S
C5060 H5049 0.950 . S
C5060 C5058 1.391 . S
C5060 C5061 1.400 . S
C5061 C5055 1.491 . S
C5061 C5060 1.400 . S
C5061 C5062 1.398 . S
C5062 H5050 0.950 . S
C5062 C5061 1.398 . S
C5062 C5063 1.391 . S
C5063 H5051 0.950 . S
C5063 C5059 1.393 . S
C5063 C5062 1.391 . S
H5064 C5072 0.950 . S
H5065 C5077 0.950 . S
H5066 C5074 0.947 . S
H5067 C5076 0.950 . S
H5068 C5078 0.957 . S
H5069 C5080 0.950 . S
H5070 C5082 0.950 . S
H5071 C5083 0.950 . S
C5072 H5064 0.950 . S
C5072 C5073 1.386 . S
C5072 C5074 1.391 . S
C5073 C5072 1.386 . S
C5073 C5077 1.393 . S
C5074 H5066 0.947 . S
C5074 C5072 1.391 . S
C5074 C5075 1.400 . S
C5075 C5074 1.400 . S
C5075 C5076 1.398 . S
C5075 C5081 1.491 . S
C5076 H5067 0.950 . S
C5076 C5075 1.398 . S
C5076 C5077 1.391 . S
C5077 H5065 0.950 . S
C5077 C5073 1.393 . S
C5077 C5076 1.391 . S
C5078 H5068 0.957 . S
C5078 C5079 1.386 . S
C5078 C5080 1.391 1_556 S
C5079 C5078 1.386 . S
C5079 C5083 1.393 . S
C5080 H5069 0.950 . S
C5080 C5078 1.391 1_554 S
C5080 C5081 1.400 . S
C5081 C5075 1.491 . S
C5081 C5080 1.400 . S
C5081 C5082 1.398 1_554 S
C5082 H5070 0.950 . S
C5082 C5081 1.398 1_556 S
C5082 C5083 1.391 . S
C5083 H5071 0.950 . S
C5083 C5079 1.393 . S
C5083 C5082 1.391 . S
H5084 C5092 0.950 . S
H5085 C5097 0.950 . S
H5086 C5094 0.950 . S
H5087 C5096 0.950 . S
H5088 C5098 0.950 . S
H5089 C5100 0.950 . S
H5090 C5102 0.950 . S
H5091 C5103 0.950 . S
C5092 H5084 0.950 . S
C5092 C5093 1.386 . S
C5092 C5094 1.391 . S
C5093 C5092 1.386 . S
C5093 C5097 1.393 . S
C5094 H5086 0.950 . S
C5094 C5092 1.391 . S
C5094 C5095 1.400 . S
C5095 C5094 1.400 . S
C5095 C5096 1.398 . S
C5095 C5101 1.491 . S
C5096 H5087 0.950 . S
C5096 C5095 1.398 . S
C5096 C5097 1.391 . S
C5097 H5085 0.950 . S
C5097 C5093 1.393 . S
C5097 C5096 1.391 . S
C5098 H5088 0.950 . S
C5098 C5099 1.386 . S
C5098 C5100 1.391 . S
C5099 C5098 1.386 . S
C5099 C5103 1.393 . S
C5100 H5089 0.950 . S
C5100 C5098 1.391 . S
C5100 C5101 1.400 . S
C5101 C5095 1.491 . S
C5101 C5100 1.400 . S
C5101 C5102 1.398 . S
C5102 H5090 0.950 . S
C5102 C5101 1.398 . S
C5102 C5103 1.391 . S
C5103 H5091 0.950 . S
C5103 C5099 1.393 . S
C5103 C5102 1.391 . S
H5104 C5112 0.950 . S
H5105 C5117 0.950 . S
H5106 C5114 0.950 . S
H5107 C5116 0.950 . S
H5108 C5118 0.950 . S
H5109 C5120 0.950 . S
H5110 C5122 0.950 . S
H5111 C5123 0.950 . S
C5112 H5104 0.950 . S
C5112 C5113 1.386 . S
C5112 C5114 1.391 . S
C5113 C5112 1.386 . S
C5113 C5117 1.393 . S
C5114 H5106 0.950 . S
C5114 C5112 1.391 . S
C5114 C5115 1.400 . S
C5115 C5114 1.400 . S
C5115 C5116 1.398 . S
C5115 C5121 1.491 . S
C5116 H5107 0.950 . S
C5116 C5115 1.398 . S
C5116 C5117 1.391 . S
C5117 H5105 0.950 . S
C5117 C5113 1.393 . S
C5117 C5116 1.391 . S
C5118 H5108 0.950 . S
C5118 C5119 1.386 . S
C5118 C5120 1.391 . S
C5119 C5118 1.386 . S
C5119 C5123 1.393 . S
C5120 H5109 0.950 . S
C5120 C5118 1.391 . S
C5120 C5121 1.400 . S
C5121 C5115 1.491 . S
C5121 C5120 1.400 . S
C5121 C5122 1.398 . S
C5122 H5110 0.950 . S
C5122 C5121 1.398 . S
C5122 C5123 1.391 . S
C5123 H5111 0.950 . S
C5123 C5119 1.393 . S
C5123 C5122 1.391 . S
H5124 C5132 0.950 . S
H5125 C5137 0.950 . S
H5126 C5134 0.950 . S
H5127 C5136 0.950 . S
H5128 C5138 0.950 . S
H5129 C5140 0.950 . S
H5130 C5142 0.950 . S
H5131 C5143 0.950 . S
C5132 H5124 0.950 . S
C5132 C5133 1.386 . S
C5132 C5134 1.391 . S
C5133 C5132 1.386 . S
C5133 C5137 1.393 . S
C5134 H5126 0.950 . S
C5134 C5132 1.391 . S
C5134 C5135 1.400 . S
C5135 C5134 1.400 . S
C5135 C5136 1.398 . S
C5135 C5141 1.491 . S
C5136 H5127 0.950 . S
C5136 C5135 1.398 . S
C5136 C5137 1.391 . S
C5137 H5125 0.950 . S
C5137 C5133 1.393 . S
C5137 C5136 1.391 . S
C5138 H5128 0.950 . S
C5138 C5139 1.386 . S
C5138 C5140 1.391 . S
C5139 C5138 1.386 . S
C5139 C5143 1.393 . S
C5140 H5129 0.950 . S
C5140 C5138 1.391 . S
C5140 C5141 1.400 . S
C5141 C5135 1.491 . S
C5141 C5140 1.400 . S
C5141 C5142 1.398 . S
C5142 H5130 0.950 . S
C5142 C5141 1.398 . S
C5142 C5143 1.391 . S
C5143 H5131 0.950 . S
C5143 C5139 1.393 . S
C5143 C5142 1.391 . S
H5144 C5152 0.950 . S
H5145 C5157 0.950 . S
H5146 C5154 0.950 . S
H5147 C5156 0.950 . S
H5148 C5158 0.950 . S
H5149 C5160 0.950 . S
H5150 C5162 0.950 . S
H5151 C5163 0.950 . S
C5152 H5144 0.950 . S
C5152 C5153 1.386 . S
C5152 C5154 1.391 . S
C5153 C5152 1.386 . S
C5153 C5157 1.393 . S
C5154 H5146 0.950 . S
C5154 C5152 1.391 . S
C5154 C5155 1.400 . S
C5155 C5154 1.400 . S
C5155 C5156 1.398 . S
C5155 C5161 1.491 . S
C5156 H5147 0.950 . S
C5156 C5155 1.398 . S
C5156 C5157 1.391 . S
C5157 H5145 0.950 . S
C5157 C5153 1.393 . S
C5157 C5156 1.391 . S
C5158 H5148 0.950 . S
C5158 C5159 1.386 . S
C5158 C5160 1.391 . S
C5159 C5158 1.386 . S
C5159 C5163 1.393 . S
C5160 H5149 0.950 . S
C5160 C5158 1.391 . S
C5160 C5161 1.400 . S
C5161 C5155 1.491 . S
C5161 C5160 1.400 . S
C5161 C5162 1.398 . S
C5162 H5150 0.950 . S
C5162 C5161 1.398 . S
C5162 C5163 1.391 . S
C5163 H5151 0.950 . S
C5163 C5159 1.393 . S
C5163 C5162 1.391 . S
H5164 C5172 0.950 . S
H5165 C5177 0.950 . S
H5166 C5174 0.950 . S
H5167 C5176 0.950 . S
H5168 C5178 0.950 . S
H5169 C5180 0.950 . S
H5170 C5182 0.950 . S
H5171 C5183 0.950 . S
C5172 H5164 0.950 . S
C5172 C5173 1.386 . S
C5172 C5174 1.391 . S
C5173 C5172 1.386 . S
C5173 C5177 1.393 . S
C5174 H5166 0.950 . S
C5174 C5172 1.391 . S
C5174 C5175 1.400 . S
C5175 C5174 1.400 . S
C5175 C5176 1.398 . S
C5175 C5181 1.491 . S
C5176 H5167 0.950 . S
C5176 C5175 1.398 . S
C5176 C5177 1.391 . S
C5177 H5165 0.950 . S
C5177 C5173 1.393 . S
C5177 C5176 1.391 . S
C5178 H5168 0.950 . S
C5178 C5179 1.386 . S
C5178 C5180 1.391 . S
C5179 C5178 1.386 . S
C5179 C5183 1.393 . S
C5180 H5169 0.950 . S
C5180 C5178 1.391 . S
C5180 C5181 1.400 . S
C5181 C5175 1.491 . S
C5181 C5180 1.400 . S
C5181 C5182 1.398 . S
C5182 H5170 0.950 . S
C5182 C5181 1.398 . S
C5182 C5183 1.391 . S
C5183 H5171 0.950 . S
C5183 C5179 1.393 . S
C5183 C5182 1.391 . S
C1353 C8 1.244 . S
C1359 C1059 1.334 . S
C1373 C345 1.332 . S
C1379 C22 1.273 . S
C1393 C1031 1.333 . S
C1399 C36 1.245 . S
C1413 C373 1.327 . S
C1419 C50 1.278 . S
C1433 C64 1.259 . S
C1439 C1087 1.329 . S
C1453 C78 1.246 . S
C1459 C429 1.337 . S
C1473 C1115 1.326 . S
C1479 C92 1.276 . S
C1493 C106 1.267 . S
C1499 C401 1.327 . S
C1513 C121 1.253 . S
C1519 C1269 1.337 . S
C1533 C611 1.328 . S
C1539 C134 1.260 . S
C1553 C149 1.247 . S
C1559 C625 1.337 . S
C1573 C162 1.279 . S
C1579 C583 1.327 . S
C1593 C177 1.272 . S
C1599 C1325 1.326 . S
C1613 C190 1.278 . S
C1619 C1241 1.326 . S
C1633 C205 1.243 . S
C1639 C1339 1.335 . S
C1653 C218 1.245 . S
C1659 C1311 1.334 . S
C1673 C1143 1.331 . S
C1679 C232 1.250 . S
C1693 C246 1.261 . S
C1699 C555 1.335 . S
C1713 C261 1.255 . S
C1719 C1185 1.336 . S
C1733 C527 1.326 . S
C1739 C274 1.274 . S
C1753 C289 1.279 . S
C1759 C541 1.328 . S
C1773 C1171 1.334 . S
C1779 C302 1.265 . S
C1793 C317 1.274 . S
C1799 C1129 1.326 . S
C1813 C1157 1.336 . S
C1819 C331 1.258 . S
C1833 C723 1.337 . S
C1839 C344 1.248 . S
C1853 C9 1.329 . S
C1859 C358 1.257 . S
C1873 C372 1.243 . S
C1879 C695 1.336 . S
C1893 C386 1.252 . S
C1899 C37 1.331 . S
C1913 C400 1.244 . S
C1919 C751 1.334 . S
C1933 C93 1.335 . S
C1939 C414 1.262 . S
C1953 C428 1.256 . S
C1959 C779 1.329 . S
C1973 C442 1.259 . S
C1979 C65 1.329 . S
C1993 C456 1.270 . S
C1999 C932 1.333 . S
C2013 C275 1.337 . S
C2019 C470 1.249 . S
C2033 C484 1.273 . S
C2039 C288 1.332 . S
C2053 C247 1.336 . S
C2059 C498 1.257 . S
C2073 C512 1.255 . S
C2079 C988 1.330 . S
C2093 C526 1.275 . S
C2099 C905 1.326 . S
C2113 C540 1.280 . S
C2119 C1002 1.328 . S
C2133 C975 1.329 . S
C2139 C554 1.257 . S
C2153 C807 1.337 . S
C2159 C568 1.250 . S
C2173 C219 1.326 . S
C2179 C582 1.272 . S
C2193 C848 1.336 . S
C2199 C596 1.243 . S
C2213 C610 1.254 . S
C2219 C191 1.330 . S
C2233 C624 1.254 . S
C2239 C204 1.336 . S
C2253 C638 1.272 . S
C2259 C835 1.326 . S
C2273 C792 1.337 . S
C2279 C652 1.249 . S
C2293 C666 1.247 . S
C2299 C820 1.337 . S
C2313 C387 1.330 . S
C2319 C680 1.276 . S
C2333 C1017 1.334 . S
C2339 C694 1.245 . S
C2353 C708 1.243 . S
C2359 C359 1.336 . S
C2373 C1045 1.327 . S
C2379 C722 1.279 . S
C2393 C736 1.255 . S
C2399 C415 1.336 . S
C2413 C1101 1.331 . S
C2419 C750 1.252 . S
C2433 C764 1.275 . S
C2439 C443 1.331 . S
C2453 C1073 1.335 . S
C2459 C778 1.243 . S
C2473 C597 1.329 . S
C2479 C793 1.279 . S
C2493 C806 1.279 . S
C2499 C1283 1.329 . S
C2513 C1297 1.337 . S
C2519 C821 1.252 . S
C2533 C834 1.279 . S
C2539 C1255 1.329 . S
C2553 C653 1.326 . S
C2559 C849 1.275 . S
C2573 C862 1.244 . S
C2579 C569 1.337 . S
C2593 C667 1.335 . S
C2599 C877 1.263 . S
C2613 C639 1.326 . S
C2619 C890 1.278 . S
C2633 C471 1.328 . S
C2639 C904 1.260 . S
C2653 C1227 1.331 . S
C2659 C918 1.274 . S
C2673 C933 1.248 . S
C2679 C513 1.337 . S
C2693 C946 1.261 . S
C2699 C1199 1.335 . S
C2713 C1213 1.333 . S
C2719 C961 1.270 . S
C2733 C499 1.333 . S
C2739 C974 1.270 . S
C2753 C457 1.330 . S
C2759 C989 1.278 . S
C2773 C485 1.337 . S
C2779 C1003 1.247 . S
C2793 C1016 1.245 . S
C2799 C51 1.334 . S
C2813 C1030 1.253 . S
C2819 C681 1.337 . S
C2833 C1044 1.263 . S
C2839 C23 1.328 . S
C2853 C1058 1.244 . S
C2859 C709 1.335 . S
C2873 C79 1.337 . S
C2879 C1072 1.249 . S
C2893 C765 1.326 . S
C2899 C1086 1.276 . S
C2913 C107 1.335 . S
C2919 C1100 1.263 . S
C2933 C737 1.326 . S
C2939 C1114 1.278 . S
C2953 C1128 1.260 . S
C2959 C260 1.328 . S
C2973 C947 1.337 . S
C2979 C1142 1.243 . S
C2993 C1156 1.244 . S
C2999 C960 1.337 . S
C3013 C1170 1.244 . S
C3019 C919 1.337 . S
C3033 C316 1.337 . S
C3039 C1184 1.254 . S
C3053 C233 1.336 . S
C3059 C1198 1.259 . S
C3073 C1212 1.279 . S
C3079 C330 1.329 . S
C3093 C303 1.329 . S
C3099 C1226 1.278 . S
C3113 C1240 1.254 . S
C3119 C135 1.330 . S
C3133 C1254 1.258 . S
C3139 C891 1.336 . S
C3153 C176 1.335 . S
C3159 C1268 1.243 . S
C3173 C1282 1.262 . S
C3179 C863 1.335 . S
C3193 C876 1.336 . S
C3199 C1296 1.255 . S
C3213 C1310 1.252 . S
C3219 C163 1.337 . S
C3233 C1324 1.245 . S
C3239 C120 1.333 . S
C3253 C1338 1.272 . S
C3259 C148 1.332 . S
C3273 C6 1.397 . S
C3279 C132 1.373 . S
C3293 C20 1.376 . S
C3299 C147 1.371 . S
C3313 C160 1.386 . S
C3319 C34 1.396 . S
C3333 C48 1.397 . S
C3339 C119 1.372 . S
C3353 C216 1.367 . S
C3359 C62 1.383 . S
C3373 C76 1.390 . S
C3379 C175 1.393 . S
C3393 C90 1.384 . S
C3399 C188 1.397 . S
C3413 C203 1.393 . S
C3419 C104 1.391 . S
C3433 C259 1.397 . S
C3439 C230 1.374 . S
C3453 C244 1.374 . S
C3459 C987 1.372 . S
C3473 C1001 1.371 . S
C3479 C272 1.376 . S
C3493 C287 1.381 . S
C3499 C972 1.398 . S
C3513 C959 1.394 . S
C3519 C300 1.388 . S
C3533 C315 1.397 . S
C3539 C916 1.384 . S
C3553 C329 1.387 . S
C3559 C944 1.367 . S
C3573 C342 1.371 . S
C3579 C468 1.396 . S
C3593 C482 1.387 . S
C3599 C356 1.395 . S
C3613 C496 1.395 . S
C3619 C370 1.370 . S
C3633 C384 1.373 . S
C3639 C454 1.397 . S
C3653 C552 1.379 . S
C3659 C398 1.398 . S
C3673 C412 1.368 . S
C3679 C510 1.381 . S
C3693 C524 1.386 . S
C3699 C426 1.396 . S
C3713 C440 1.381 . S
C3719 C538 1.398 . S
C3733 C594 1.397 . S
C3739 C566 1.383 . S
C3753 C580 1.367 . S
C3759 C1322 1.385 . S
C3773 C608 1.393 . S
C3779 C1336 1.390 . S
C3793 C1308 1.367 . S
C3799 C622 1.389 . S
C3813 C1294 1.380 . S
C3819 C636 1.398 . S
C3833 C1252 1.373 . S
C3839 C650 1.397 . S
C3853 C1280 1.392 . S
C3859 C664 1.368 . S
C3873 C804 1.395 . S
C3879 C678 1.387 . S
C3893 C819 1.374 . S
C3899 C692 1.397 . S
C3913 C832 1.379 . S
C3919 C706 1.369 . S
C3933 C720 1.380 . S
C3939 C791 1.398 . S
C3953 C734 1.386 . S
C3959 C888 1.396 . S
C3973 C748 1.370 . S
C3979 C847 1.377 . S
C3993 C762 1.398 . S
C3999 C860 1.376 . S
C4013 C776 1.378 . S
C4019 C875 1.398 . S
C4033 C931 1.380 . S
C4039 C902 1.398 . S
C4053 C1140 1.392 . S
C4059 C1014 1.391 . S
C4073 C1028 1.377 . S
C4079 C1154 1.398 . S
C4093 C1168 1.398 . S
C4099 C1042 1.375 . S
C4113 C1126 1.379 . S
C4119 C1056 1.398 . S
C4133 C1224 1.369 . S
C4139 C1070 1.394 . S
C4153 C1182 1.391 . S
C4159 C1084 1.393 . S
C4173 C1196 1.369 . S
C4179 C1098 1.394 . S
C4193 C1210 1.370 . S
C4199 C1112 1.378 . S
C4213 C1266 1.374 . S
C4219 C1238 1.373 . S
C4233 C7 1.386 . S
C4239 C286 1.380 . S
C4253 C917 1.387 . S
C4259 C21 1.380 . S
C4273 C930 1.399 . S
C4279 C35 1.404 . S
C4293 C945 1.396 . S
C4299 C49 1.385 . S
C4313 C1000 1.400 . S
C4319 C63 1.404 . S
C4333 C77 1.384 . S
C4339 C301 1.396 . S
C4353 C91 1.401 . S
C4359 C986 1.403 . S
C4373 C105 1.402 . S
C4379 C231 1.391 . S
C4393 C118 1.395 . S
C4399 C217 1.383 . S
C4413 C133 1.387 . S
C4419 C174 1.380 . S
C4433 C146 1.400 . S
C4439 C189 1.404 . S
C4453 C202 1.387 . S
C4459 C161 1.380 . S
C4473 C693 1.398 . S
C4479 C245 1.387 . S
C4493 C258 1.398 . S
C4499 C707 1.404 . S
C4513 C273 1.393 . S
C4519 C721 1.382 . S
C4533 C763 1.387 . S
C4539 C314 1.399 . S
C4553 C328 1.394 . S
C4559 C735 1.403 . S
C4573 C343 1.403 . S
C4579 C623 1.402 . S
C4593 C1253 1.397 . S
C4599 C357 1.404 . S
C4613 C1267 1.393 . S
C4619 C371 1.382 . S
C4633 C1281 1.381 . S
C4639 C385 1.383 . S
C4653 C399 1.382 . S
C4659 C1337 1.392 . S
C4673 C413 1.399 . S
C4679 C637 1.387 . S
C4693 C427 1.404 . S
C4699 C1323 1.397 . S
C4713 C441 1.387 . S
C4719 C567 1.380 . S
C4733 C455 1.400 . S
C4739 C553 1.389 . S
C4753 C469 1.402 . S
C4759 C511 1.392 . S
C4773 C525 1.380 . S
C4779 C483 1.384 . S
C4793 C497 1.381 . S
C4799 C539 1.390 . S
C4813 C1029 1.382 . S
C4819 C581 1.392 . S
C4833 C595 1.400 . S
C4839 C1043 1.388 . S
C4853 C1057 1.400 . S
C4859 C609 1.404 . S
C4873 C651 1.385 . S
C4879 C1099 1.380 . S
C4893 C1071 1.404 . S
C4899 C665 1.400 . S
C4913 C679 1.391 . S
C4919 C958 1.402 . S
C4933 C749 1.404 . S
C4939 C973 1.399 . S
C4953 C777 1.394 . S
C4959 C903 1.383 . S
C4973 C889 1.388 . S
C4979 C790 1.400 . S
C4993 C805 1.381 . S
C4999 C846 1.383 . S
C5013 C861 1.392 . S
C5019 C818 1.402 . S
C5033 C833 1.383 . S
C5039 C874 1.394 . S
C5053 C1295 1.380 . S
C5059 C1015 1.388 . S
C5073 C1085 1.380 . S
C5079 C1309 1.389 . S
C5093 C1113 1.397 . S
C5099 C1239 1.404 . S
C5113 C1225 1.402 . S
C5119 C1127 1.392 . S
C5133 C1183 1.403 . S
C5139 C1141 1.401 . S
C5153 C1155 1.397 . S
C5159 C1197 1.386 . S
C5173 C1169 1.380 . S
C5179 C1211 1.389 . S
