# Generated by pormake.
# Topology zfj, (5)-cn, num edge types: 1
# Building blocks:
#     Node 0, Type 0, BuildingBlock: XOMCOT_clean_sbu_1, # of connection points: 5
#     Node 1, Type 0, BuildingBlock: XOMCOT_clean_sbu_1, # of connection points: 5
#     Node 2, Type 0, BuildingBlock: XOMCOT_clean_sbu_1, # of connection points: 5
#     Node 3, Type 0, BuildingBlock: XOMCOT_clean_sbu_1, # of connection points: 5
#     Node 4, Type 0, BuildingBlock: XOMCOT_clean_sbu_1, # of connection points: 5
#     Node 5, Type 0, BuildingBlock: XOMCOT_clean_sbu_1, # of connection points: 5
#     Node 6, Type 0, BuildingBlock: XOMCOT_clean_sbu_1, # of connection points: 5
#     Node 7, Type 0, BuildingBlock: XOMCOT_clean_sbu_1, # of connection points: 5
#     Node 8, Type 0, BuildingBlock: XOMCOT_clean_sbu_1, # of connection points: 5
#     Node 9, Type 0, BuildingBlock: XOMCOT_clean_sbu_1, # of connection points: 5
#     Node 10, Type 0, BuildingBlock: XOMCOT_clean_sbu_1, # of connection points: 5
#     Node 11, Type 0, BuildingBlock: XOMCOT_clean_sbu_1, # of connection points: 5
#     Node 12, Type 0, BuildingBlock: XOMCOT_clean_sbu_1, # of connection points: 5
#     Node 13, Type 0, BuildingBlock: XOMCOT_clean_sbu_1, # of connection points: 5
#     Node 14, Type 0, BuildingBlock: XOMCOT_clean_sbu_1, # of connection points: 5
#     Node 15, Type 0, BuildingBlock: XOMCOT_clean_sbu_1, # of connection points: 5
#     Edge 16, Type (0, 0), BuildingBlock: AJUNOK_clean_linker_0, # of connection points: 2
#     Edge 17, Type (0, 0), BuildingBlock: AJUNOK_clean_linker_0, # of connection points: 2
#     Edge 18, Type (0, 0), BuildingBlock: AJUNOK_clean_linker_0, # of connection points: 2
#     Edge 19, Type (0, 0), BuildingBlock: AJUNOK_clean_linker_0, # of connection points: 2
#     Edge 20, Type (0, 0), BuildingBlock: AJUNOK_clean_linker_0, # of connection points: 2
#     Edge 21, Type (0, 0), BuildingBlock: AJUNOK_clean_linker_0, # of connection points: 2
#     Edge 22, Type (0, 0), BuildingBlock: AJUNOK_clean_linker_0, # of connection points: 2
#     Edge 23, Type (0, 0), BuildingBlock: AJUNOK_clean_linker_0, # of connection points: 2
#     Edge 24, Type (0, 0), BuildingBlock: AJUNOK_clean_linker_0, # of connection points: 2
#     Edge 25, Type (0, 0), BuildingBlock: AJUNOK_clean_linker_0, # of connection points: 2
#     Edge 26, Type (0, 0), BuildingBlock: AJUNOK_clean_linker_0, # of connection points: 2
#     Edge 27, Type (0, 0), BuildingBlock: AJUNOK_clean_linker_0, # of connection points: 2
#     Edge 28, Type (0, 0), BuildingBlock: AJUNOK_clean_linker_0, # of connection points: 2
#     Edge 29, Type (0, 0), BuildingBlock: AJUNOK_clean_linker_0, # of connection points: 2
#     Edge 30, Type (0, 0), BuildingBlock: AJUNOK_clean_linker_0, # of connection points: 2
#     Edge 31, Type (0, 0), BuildingBlock: AJUNOK_clean_linker_0, # of connection points: 2
#     Edge 32, Type (0, 0), BuildingBlock: AJUNOK_clean_linker_0, # of connection points: 2
#     Edge 33, Type (0, 0), BuildingBlock: AJUNOK_clean_linker_0, # of connection points: 2
#     Edge 34, Type (0, 0), BuildingBlock: AJUNOK_clean_linker_0, # of connection points: 2
#     Edge 35, Type (0, 0), BuildingBlock: AJUNOK_clean_linker_0, # of connection points: 2
#     Edge 36, Type (0, 0), BuildingBlock: AJUNOK_clean_linker_0, # of connection points: 2
#     Edge 37, Type (0, 0), BuildingBlock: AJUNOK_clean_linker_0, # of connection points: 2
#     Edge 38, Type (0, 0), BuildingBlock: AJUNOK_clean_linker_0, # of connection points: 2
#     Edge 39, Type (0, 0), BuildingBlock: AJUNOK_clean_linker_0, # of connection points: 2
#     Edge 40, Type (0, 0), BuildingBlock: AJUNOK_clean_linker_0, # of connection points: 2
#     Edge 41, Type (0, 0), BuildingBlock: AJUNOK_clean_linker_0, # of connection points: 2
#     Edge 42, Type (0, 0), BuildingBlock: AJUNOK_clean_linker_0, # of connection points: 2
#     Edge 43, Type (0, 0), BuildingBlock: AJUNOK_clean_linker_0, # of connection points: 2
#     Edge 44, Type (0, 0), BuildingBlock: AJUNOK_clean_linker_0, # of connection points: 2
#     Edge 45, Type (0, 0), BuildingBlock: AJUNOK_clean_linker_0, # of connection points: 2
#     Edge 46, Type (0, 0), BuildingBlock: AJUNOK_clean_linker_0, # of connection points: 2
#     Edge 47, Type (0, 0), BuildingBlock: AJUNOK_clean_linker_0, # of connection points: 2
#     Edge 48, Type (0, 0), BuildingBlock: AJUNOK_clean_linker_0, # of connection points: 2
#     Edge 49, Type (0, 0), BuildingBlock: AJUNOK_clean_linker_0, # of connection points: 2
#     Edge 50, Type (0, 0), BuildingBlock: AJUNOK_clean_linker_0, # of connection points: 2
#     Edge 51, Type (0, 0), BuildingBlock: AJUNOK_clean_linker_0, # of connection points: 2
#     Edge 52, Type (0, 0), BuildingBlock: AJUNOK_clean_linker_0, # of connection points: 2
#     Edge 53, Type (0, 0), BuildingBlock: AJUNOK_clean_linker_0, # of connection points: 2
#     Edge 54, Type (0, 0), BuildingBlock: AJUNOK_clean_linker_0, # of connection points: 2
#     Edge 55, Type (0, 0), BuildingBlock: AJUNOK_clean_linker_0, # of connection points: 2
# Relax obj value: 0.176
# Max RMSD: 0.148
# Mean RMSD: 0.148
data_MOF--net-zfj--node1-XOMCOT_clean_sbu_1--edge1-AJUNOK_clean_linker_0
_symmetry_space_group_name_H-M    P1
_symmetry_Int_Tables_number       1
_symmetry_cell_setting            triclinic
loop_
_symmetry_equiv_pos_as_xyz
'x, y, z'
_cell_length_a     27.139869
_cell_length_b     27.178907
_cell_length_c     36.156016
_cell_angle_alpha  90.017451
_cell_angle_beta   90.053184
_cell_angle_gamma 89.862798
loop_
_atom_site_label
_atom_site_type_symbol
_atom_site_fract_x
_atom_site_fract_y
_atom_site_fract_z
_atom_type_partial_charge
C0 C 0.52415 0.3016 0.22317 0.0
C1 C 0.52492 0.35184 0.22738 0.0
N2 N 0.50367 0.37226 0.19746 0.0
N3 N 0.50184 0.29004 0.19097 0.0
C4 C 0.48958 0.33404 0.17594 0.0
H5 H 0.54161 0.27524 0.24139 0.0
Co6 Co 0.50094 0.2258 0.17178 0.0
C7 C 0.44819 0.23727 0.09978 0.0
O8 O 0.41956 0.19934 0.10626 0.0
N9 N 0.50152 0.16096 0.15348 0.0
C10 C 0.5215 0.09497 0.12037 0.0
C11 C 0.519 0.14551 0.12053 0.0
C12 C 0.49369 0.11911 0.17284 0.0
N13 N 0.50607 0.07817 0.15347 0.0
O14 O 0.43437 0.21772 0.18796 0.0
H15 H 0.53186 0.16953 0.09875 0.0
H16 H 0.48042 0.11907 0.201 0.0
O17 O 0.47989 0.25049 0.12389 0.0
C18 C 0.43191 0.21012 0.22271 0.0
O19 O 0.47304 0.20932 0.24186 0.0
N20 N 0.56673 0.23276 0.15866 0.0
C21 C 0.6679 0.24424 0.15102 0.0
C22 C 0.63524 0.27517 0.13184 0.0
C23 C 0.58449 0.26875 0.13599 0.0
C24 C 0.59791 0.20175 0.17677 0.0
C25 C 0.64861 0.20601 0.17258 0.0
H26 H 0.55971 0.29408 0.12234 0.0
H27 H 0.58327 0.17408 0.19521 0.0
H28 H 0.47268 0.33823 0.14908 0.0
H29 H 0.54298 0.37193 0.24939 0.0
H30 H 0.53617 0.07251 0.09822 0.0
H31 H 0.64873 0.30528 0.11507 0.0
H32 H 0.67247 0.1804 0.18698 0.0
C33 C 0.2487 0.54029 0.69751 0.0
C34 C 0.19828 0.54455 0.69892 0.0
N35 N 0.17865 0.51545 0.67258 0.0
N36 N 0.26138 0.50787 0.67094 0.0
C37 C 0.21778 0.49288 0.65652 0.0
H38 H 0.27469 0.56083 0.71411 0.0
Co39 Co 0.32716 0.49734 0.65599 0.0
C40 C 0.31355 0.43215 0.59034 0.0
O41 O 0.34471 0.39946 0.60349 0.0
N42 N 0.39311 0.48859 0.64114 0.0
C43 C 0.46089 0.49307 0.60684 0.0
C44 C 0.41039 0.49476 0.60645 0.0
C45 C 0.43414 0.48402 0.66229 0.0
N46 N 0.47603 0.48622 0.64194 0.0
O47 O 0.32781 0.43376 0.67909 0.0
H48 H 0.38789 0.50323 0.58257 0.0
H49 H 0.43334 0.48125 0.69215 0.0
O50 O 0.30403 0.47085 0.60902 0.0
C51 C 0.33071 0.43755 0.71423 0.0
O52 O 0.32914 0.48168 0.72897 0.0
N53 N 0.32848 0.56043 0.63691 0.0
C54 C 0.32721 0.66056 0.6226 0.0
C55 C 0.29877 0.6283 0.60113 0.0
C56 C 0.29975 0.578 0.60888 0.0
C57 C 0.35793 0.59101 0.65687 0.0
C58 C 0.35819 0.64128 0.64997 0.0
H59 H 0.27533 0.55391 0.5939 0.0
H60 H 0.37957 0.57643 0.6795 0.0
H61 H 0.21474 0.46726 0.63382 0.0
H62 H 0.1779 0.56764 0.7179 0.0
H63 H 0.48468 0.49974 0.58337 0.0
H64 H 0.2734 0.64214 0.58044 0.0
H65 H 0.38025 0.66521 0.66729 0.0
C66 C 1.00602 0.2103 0.21548 0.0
C67 C 1.00179 0.16002 0.21754 0.0
N68 N 0.02655 0.14024 0.18897 0.0
N69 N 0.03394 0.22252 0.18602 0.0
C70 C 0.04582 0.17882 0.17031 0.0
H71 H 0.9881 0.23645 0.23358 0.0
Co72 Co 0.04527 0.28821 0.17185 0.0
C73 C 0.06191 0.28699 0.09134 0.0
O74 O 0.03304 0.32589 0.09046 0.0
N75 N 0.05758 0.35546 0.1591 0.0
C76 C 0.10242 0.42036 0.14183 0.0
C77 C 0.10032 0.36994 0.14326 0.0
C78 C 0.03461 0.39858 0.16751 0.0
N79 N 0.0611 0.43832 0.15717 0.0
O80 O 0.10932 0.28675 0.19437 0.0
H81 H 0.12928 0.34522 0.13439 0.0
H82 H 1.00079 0.40171 0.18291 0.0
O83 O 0.07112 0.26644 0.12262 0.0
C84 C 0.10375 0.296 0.22878 0.0
O85 O 0.05867 0.29823 0.24182 0.0
N86 N 0.98051 0.29047 0.15432 0.0
C87 C 0.87867 0.28185 0.14791 0.0
C88 C 0.90986 0.25548 0.12418 0.0
C89 C 0.96093 0.25973 0.12821 0.0
C90 C 0.95042 0.31589 0.17758 0.0
C91 C 0.89956 0.31384 0.17385 0.0
H92 H 0.98422 0.23532 0.11239 0.0
H93 H 0.96577 0.33455 0.20125 0.0
H94 H 0.0673 0.1752 0.14542 0.0
H95 H 0.98006 0.13962 0.23738 0.0
H96 H 0.1327 0.44219 0.13141 0.0
H97 H 0.89504 0.22929 0.10454 0.0
H98 H 0.87679 0.33468 0.19284 0.0
C99 C 0.26857 1.00937 0.71168 0.0
C100 C 0.3185 1.00566 0.7172 0.0
N101 N 0.34125 0.01349 0.68475 0.0
N102 N 0.25924 0.01969 0.6758 0.0
C103 C 0.30472 0.02281 0.66024 0.0
H104 H 0.24116 1.00071 0.7322 0.0
Co105 Co 0.1962 0.01327 0.65348 0.0
C106 C 0.19751 0.07831 0.58721 0.0
O107 O 0.15256 0.09413 0.59361 0.0
N108 N 0.13222 1.00515 0.63111 0.0
C109 C 0.07043 0.97605 0.59641 0.0
C110 C 0.12089 0.97803 0.60085 0.0
C111 C 0.08759 0.02062 0.64345 0.0
N112 N 0.04949 1.00296 0.62337 0.0
O113 O 0.17401 0.07147 0.67954 0.0
H114 H 0.14745 0.95949 0.58344 0.0
H115 H 0.08258 0.04378 0.66709 0.0
O116 O 0.21842 0.04963 0.6104 0.0
C117 C 0.15626 0.05629 0.71029 0.0
O118 O 0.15424 1.00857 0.71596 0.0
N119 N 0.21718 0.95435 0.63259 0.0
C120 C 0.25655 0.86111 0.62108 0.0
C121 C 0.27368 0.90148 0.6006 0.0
C122 C 0.25259 0.94786 0.60619 0.0
C123 C 0.1984 0.91531 0.65122 0.0
C124 C 0.21664 0.86825 0.64522 0.0
H125 H 0.26714 0.97868 0.59099 0.0
H126 H 0.17031 0.92121 0.67197 0.0
H127 H 0.31109 0.02741 0.63097 0.0
H128 H 0.33656 0.9942 0.7425 0.0
H129 H 0.05068 0.95588 0.57528 0.0
H130 H 0.30475 0.89818 0.58204 0.0
H131 H 0.20106 0.83803 0.6608 0.0
C132 C 0.54815 0.26118 0.83711 0.0
C133 C 0.55988 0.21213 0.83595 0.0
N134 N 0.5379 0.18953 0.86465 0.0
N135 N 0.51795 0.27001 0.86595 0.0
C136 C 0.51206 0.22536 0.88221 0.0
H137 H 0.56232 0.28906 0.81869 0.0
Co138 Co 0.49842 0.33463 0.87814 0.0
C139 C 0.47392 0.33354 0.95715 0.0
O140 O 0.49789 0.37547 0.95872 0.0
N141 N 0.47787 0.40069 0.88874 0.0
C142 C 0.42571 0.46112 0.90368 0.0
C143 C 0.43208 0.41112 0.90126 0.0
C144 C 0.49795 0.44583 0.88268 0.0
N145 N 0.46721 0.48315 0.89203 0.0
O146 O 0.43762 0.32573 0.85183 0.0
H147 H 0.40445 0.38384 0.90772 0.0
H148 H 0.53305 0.45194 0.86971 0.0
O149 O 0.46951 0.31172 0.92577 0.0
C150 C 0.44537 0.33485 0.81769 0.0
O151 O 0.49033 0.34623 0.80748 0.0
N152 N 0.56051 0.34338 0.9001 0.0
C153 C 0.66163 0.33918 0.91352 0.0
C154 C 0.62897 0.31049 0.93429 0.0
C155 C 0.57859 0.31283 0.92699 0.0
C156 C 0.59186 0.37199 0.88018 0.0
C157 C 0.64212 0.37255 0.88781 0.0
H158 H 0.55522 0.28622 0.9404 0.0
H159 H 0.57888 0.39064 0.85572 0.0
H160 H 0.49133 0.21954 0.90734 0.0
H161 H 0.58343 0.1946 0.81569 0.0
H162 H 0.39258 0.47982 0.91271 0.0
H163 H 0.64241 0.28316 0.95364 0.0
H164 H 0.66587 0.39575 0.87131 0.0
C165 C 0.30175 0.50044 0.32155 0.0
C166 C 0.35198 0.50678 0.32062 0.0
N167 N 0.36861 0.50914 0.35562 0.0
N168 N 0.28626 0.49784 0.357 0.0
C169 C 0.3282 0.50332 0.3771 0.0
H170 H 0.2782 0.49983 0.29753 0.0
Co171 Co 0.21942 0.49784 0.37251 0.0
C172 C 0.26074 0.43685 0.43386 0.0
O173 O 0.2792 0.40484 0.4104 0.0
N174 N 0.15265 0.49966 0.38812 0.0
C175 C 0.08839 0.52047 0.42307 0.0
C176 C 0.13868 0.51936 0.42075 0.0
C177 C 0.1094 0.48941 0.3708 0.0
N178 N 0.06961 0.50125 0.39182 0.0
O179 O 0.2112 0.43199 0.35448 0.0
H180 H 0.16345 0.53516 0.4408 0.0
H181 H 0.10694 0.47477 0.34305 0.0
O182 O 0.23759 0.47449 0.42173 0.0
C183 C 0.19994 0.43308 0.32023 0.0
O184 O 0.19241 0.47602 0.30451 0.0
N185 N 0.22608 0.56283 0.38635 0.0
C186 C 0.23216 0.66394 0.39462 0.0
C187 C 0.25356 0.63259 0.421 0.0
C188 C 0.25007 0.58166 0.41636 0.0
C189 C 0.20441 0.59273 0.36097 0.0
C190 C 0.20661 0.64346 0.36471 0.0
H191 H 0.26736 0.55772 0.43639 0.0
H192 H 0.18575 0.57678 0.3374 0.0
H193 H 0.32905 0.50538 0.40695 0.0
H194 H 0.3744 0.50977 0.29599 0.0
H195 H 0.06737 0.53703 0.44526 0.0
H196 H 0.2743 0.64723 0.44411 0.0
H197 H 0.18949 0.66652 0.34389 0.0
C198 C 1.00363 0.28392 0.82661 0.0
C199 C 1.00464 0.33443 0.82449 0.0
N200 N 0.01863 0.35231 0.85756 0.0
N201 N 0.01768 0.26928 0.86075 0.0
C202 C 0.02722 0.31213 0.87874 0.0
H203 H 0.99062 0.26 0.80491 0.0
Co204 Co 0.0115 0.20436 0.8801 0.0
C205 C 0.0801 0.20243 0.94506 0.0
O206 O 0.09706 0.15839 0.93707 0.0
N207 N 1.00386 0.13937 0.8998 0.0
C208 C 0.98269 0.07798 0.93761 0.0
C209 C 0.98696 0.12824 0.93395 0.0
C210 C 1.00966 0.09479 0.88342 0.0
N211 N 0.99714 0.0568 0.90573 0.0
O212 O 0.06866 0.18354 0.85227 0.0
H213 H 0.97725 0.15511 0.9548 0.0
H214 H 0.02272 0.08976 0.85561 0.0
O215 O 0.04922 0.2232 0.92346 0.0
C216 C 0.05046 0.1697 0.82131 0.0
O217 O 1.00249 0.17309 0.81702 0.0
N218 N 0.9533 0.22343 0.90268 0.0
C219 C 0.86023 0.26188 0.91474 0.0
C220 C 0.90031 0.27867 0.93567 0.0
C221 C 0.94703 0.2585 0.92937 0.0
C222 C 0.91403 0.20391 0.88462 0.0
C223 C 0.86693 0.22191 0.8908 0.0
H224 H 0.97819 0.27347 0.94406 0.0
H225 H 0.91981 0.17606 0.86368 0.0
H226 H 0.03699 0.31427 0.90759 0.0
H227 H 0.99443 0.35623 0.80064 0.0
H228 H 0.96825 0.05889 0.96148 0.0
H229 H 0.89618 0.30903 0.95484 0.0
H230 H 0.83643 0.20677 0.87517 0.0
C231 C 0.20516 1.0038 0.3171 0.0
C232 C 0.15477 0.99894 0.31592 0.0
N233 N 0.13578 0.02222 0.34546 0.0
N234 N 0.21811 0.03064 0.34698 0.0
C235 C 0.17483 0.04151 0.36365 0.0
H236 H 0.23094 0.98647 0.29839 0.0
Co237 Co 0.28418 0.0397 0.36113 0.0
C238 C 0.28446 0.05818 0.44146 0.0
O239 O 0.32243 0.02809 0.44235 0.0
N240 N 0.35236 0.04963 0.37319 0.0
C241 C 0.42026 0.09099 0.38936 0.0
C242 C 0.36959 0.09184 0.38825 0.0
C243 C 0.39411 0.02443 0.36442 0.0
N244 N 0.43567 0.04856 0.37414 0.0
O245 O 0.28483 0.10304 0.33834 0.0
H246 H 0.34663 0.12211 0.39728 0.0
H247 H 0.39516 0.99023 0.3495 0.0
O248 O 0.26403 0.06778 0.41015 0.0
C249 C 0.29346 0.09895 0.30381 0.0
O250 O 0.2953 0.05458 0.28949 0.0
N251 N 0.28329 0.97553 0.38028 0.0
C252 C 0.26997 0.87481 0.39289 0.0
C253 C 0.2414 0.90992 0.41176 0.0
C254 C 0.24918 0.95999 0.40553 0.0
C255 C 0.30907 0.94194 0.36026 0.0
C256 C 0.30558 0.89198 0.36783 0.0
H257 H 0.22457 0.98583 0.41871 0.0
H258 H 0.32937 0.95337 0.3362 0.0
H259 H 0.17194 0.0614 0.38931 0.0
H260 H 0.13392 0.97737 0.29621 0.0
H261 H 0.4438 0.11947 0.40049 0.0
H262 H 0.21099 0.8995 0.42932 0.0
H263 H 0.32859 0.86703 0.35213 0.0
C264 C 0.47163 0.76646 0.84767 0.0
C265 C 0.46086 0.71742 0.84434 0.0
N266 N 0.48878 0.69207 0.8686 0.0
N267 N 0.50649 0.77274 0.87381 0.0
C268 C 0.51641 0.72659 0.88605 0.0
H269 H 0.45404 0.79609 0.83264 0.0
Co270 Co 0.52671 0.83637 0.88778 0.0
C271 C 0.55205 0.83082 0.96712 0.0
O272 O 0.52852 0.87292 0.97049 0.0
N273 N 0.54764 0.90164 0.8997 0.0
C274 C 0.59959 0.96163 0.91562 0.0
C275 C 0.59207 0.91174 0.91486 0.0
C276 C 0.52986 0.94673 0.89011 0.0
N277 N 0.56063 0.98376 0.89967 0.0
O278 O 0.58798 0.82771 0.86196 0.0
H279 H 0.61841 0.8843 0.92382 0.0
H280 H 0.49692 0.95285 0.87413 0.0
O281 O 0.55536 0.81082 0.93496 0.0
C282 C 0.58325 0.83258 0.82703 0.0
O283 O 0.53874 0.8382 0.81337 0.0
N284 N 0.46442 0.8449 0.91003 0.0
C285 C 0.36323 0.83798 0.92268 0.0
C286 C 0.3964 0.8092 0.943 0.0
C287 C 0.44677 0.81275 0.93598 0.0
C288 C 0.43253 0.87433 0.89105 0.0
C289 C 0.38206 0.87297 0.89803 0.0
H290 H 0.47048 0.78557 0.94852 0.0
H291 H 0.44511 0.89467 0.86736 0.0
H292 H 0.54167 0.71871 0.90826 0.0
H293 H 0.4338 0.7017 0.8258 0.0
H294 H 0.63188 0.98003 0.92638 0.0
H295 H 0.38339 0.78071 0.96151 0.0
H296 H 0.35769 0.89591 0.88169 0.0
C297 C 0.79077 0.48879 0.33158 0.0
C298 C 0.84102 0.484 0.32748 0.0
N299 N 0.86302 0.50772 0.35563 0.0
N300 N 0.78091 0.516 0.36193 0.0
C301 C 0.82585 0.5273 0.37584 0.0
H302 H 0.76307 0.47119 0.31464 0.0
Co303 Co 0.71724 0.52462 0.38193 0.0
C304 C 0.73793 0.58244 0.44974 0.0
O305 O 0.70465 0.61535 0.4404 0.0
N306 N 0.65312 0.53233 0.4013 0.0
C307 C 0.58729 0.52539 0.43745 0.0
C308 C 0.63791 0.52446 0.43633 0.0
C309 C 0.61095 0.53753 0.38162 0.0
N310 N 0.57013 0.53315 0.40294 0.0
O311 O 0.71447 0.59072 0.36341 0.0
H312 H 0.66181 0.51532 0.45927 0.0
H313 H 0.6104 0.54006 0.35177 0.0
O314 O 0.74604 0.54551 0.42882 0.0
C315 C 0.70634 0.59238 0.32866 0.0
O316 O 0.70566 0.55091 0.31004 0.0
N317 N 0.71771 0.45908 0.39722 0.0
C318 C 0.71839 0.35731 0.40621 0.0
C319 C 0.75634 0.38635 0.42118 0.0
C320 C 0.75489 0.43751 0.41688 0.0
C321 C 0.68003 0.43152 0.38354 0.0
C322 C 0.67842 0.3811 0.38933 0.0
H323 H 0.78504 0.45936 0.42739 0.0
H324 H 0.65149 0.4484 0.36701 0.0
H325 H 0.83138 0.5477 0.40115 0.0
H326 H 0.85984 0.46215 0.30679 0.0
H327 H 0.56486 0.51855 0.46164 0.0
H328 H 0.78796 0.36968 0.43453 0.0
H329 H 0.64695 0.36085 0.3791 0.0
C330 C 0.03472 0.78652 0.83643 0.0
C331 C 0.03121 0.83698 0.83502 0.0
N332 N 1.00349 0.85221 0.86365 0.0
N333 N 1.0086 0.76941 0.86546 0.0
C334 C 0.98976 0.81058 0.8814 0.0
H335 H 0.05827 0.76427 0.81907 0.0
Co336 Co 0.01357 0.70412 0.88349 0.0
C337 C 0.94587 0.70118 0.94925 0.0
O338 O 0.92896 0.65713 0.9415 0.0
N339 N 0.0201 0.63858 0.90163 0.0
C340 C 0.03875 0.57346 0.93664 0.0
C341 C 0.03678 0.62417 0.93519 0.0
C342 C 0.01226 0.59577 0.88345 0.0
N343 N 0.02304 0.55559 0.90397 0.0
O344 O 0.95581 0.68516 0.85525 0.0
H345 H 0.04736 0.649 0.95718 0.0
H346 H 1.00005 0.59388 0.85536 0.0
O347 O 0.97619 0.72201 0.92733 0.0
C348 C 0.97067 0.6752 0.82246 0.0
O349 O 0.01746 0.68208 0.81494 0.0
N350 N 0.07193 0.72163 0.90678 0.0
C351 C 0.16511 0.75909 0.92035 0.0
C352 C 0.12413 0.77836 0.939 0.0
C353 C 0.07741 0.75891 0.93183 0.0
C354 C 0.11182 0.70025 0.89064 0.0
C355 C 0.15892 0.71782 0.89759 0.0
H356 H 0.04563 0.77632 0.94418 0.0
H357 H 0.10666 0.67135 0.87044 0.0
H358 H 0.96866 0.81047 0.90664 0.0
H359 H 0.05073 0.8609 0.81613 0.0
H360 H 0.05079 0.55149 0.95994 0.0
H361 H 0.1277 0.81016 0.95687 0.0
H362 H 0.18996 0.70124 0.88342 0.0
C363 C 0.69838 0.92878 0.34802 0.0
C364 C 0.64813 0.93329 0.34448 0.0
N365 N 0.63491 0.9785 0.35581 0.0
N366 N 0.71769 0.97093 0.36175 0.0
C367 C 0.6775 1.00049 0.36592 0.0
H368 H 0.71877 0.89558 0.34204 0.0
Co369 Co 0.78541 0.98313 0.37542 0.0
C370 C 0.75445 0.91862 0.43753 0.0
O371 O 0.74088 0.88268 0.41555 0.0
N372 N 0.85105 0.9953 0.38957 0.0
C373 C 0.9148 0.01864 0.42398 0.0
C374 C 0.86481 0.01165 0.42328 0.0
C375 C 0.8937 0.99257 0.37019 0.0
N376 N 0.9333 1.0061 0.39073 0.0
O377 O 0.80533 0.92011 0.35692 0.0
H378 H 0.83993 0.01922 0.44591 0.0
H379 H 0.89569 0.98095 0.3416 0.0
O380 O 0.77263 0.95789 0.42422 0.0
C381 C 0.81004 0.9213 0.32179 0.0
O382 O 0.7967 0.96148 0.30417 0.0
N383 N 0.76934 0.04643 0.3902 0.0
C384 C 0.74932 0.14582 0.3994 0.0
C385 C 0.7383 0.11227 0.42771 0.0
C386 C 0.74903 0.06232 0.4227 0.0
C387 C 0.78181 0.07873 0.36316 0.0
C388 C 0.77283 0.12865 0.36738 0.0
H389 H 0.73948 0.0366 0.44428 0.0
H390 H 0.79889 0.06529 0.33808 0.0
H391 H 0.67863 0.037 0.37744 0.0
H392 H 0.62314 0.90504 0.33488 0.0
H393 H 0.93551 0.03353 0.44695 0.0
H394 H 0.72057 0.12434 0.45297 0.0
H395 H 0.78389 0.15356 0.34556 0.0
C396 C 0.4859 0.80545 0.2249 0.0
C397 C 0.48137 0.85582 0.22588 0.0
N398 N 0.50832 0.87468 0.19811 0.0
N399 N 0.51575 0.79233 0.19674 0.0
C400 C 0.52876 0.83548 0.18081 0.0
H401 H 0.46718 0.7798 0.24287 0.0
Co402 Co 0.52798 0.72635 0.18449 0.0
C403 C 0.5569 0.7251 0.1051 0.0
O404 O 0.53264 0.68356 0.10168 0.0
N405 N 0.54064 0.65893 0.17394 0.0
C406 C 0.58379 0.59162 0.15947 0.0
C407 C 0.58489 0.64201 0.16222 0.0
C408 C 0.51394 0.6174 0.17956 0.0
N409 N 0.53907 0.57624 0.17027 0.0
O410 O 0.58982 0.72834 0.21002 0.0
H411 H 0.61643 0.66499 0.15643 0.0
H412 H 0.47731 0.61653 0.19104 0.0
O413 O 0.5589 0.74632 0.13687 0.0
C414 C 0.58432 0.71992 0.24449 0.0
O415 O 0.53925 0.71683 0.25748 0.0
N416 N 0.46534 0.72423 0.16275 0.0
C417 C 0.36605 0.73028 0.1438 0.0
C418 C 0.40166 0.75417 0.12243 0.0
C419 C 0.45106 0.75159 0.13283 0.0
C420 C 0.43084 0.70235 0.18451 0.0
C421 C 0.38107 0.70402 0.17518 0.0
H422 H 0.47682 0.77445 0.11816 0.0
H423 H 0.44171 0.68606 0.21054 0.0
H424 H 0.55234 0.83833 0.15689 0.0
H425 H 0.45835 0.87684 0.24457 0.0
H426 H 0.61419 0.56796 0.15164 0.0
H427 H 0.39114 0.77658 0.09893 0.0
H428 H 0.35436 0.68757 0.19363 0.0
C429 C 0.748 0.50178 0.71807 0.0
C430 C 0.69732 0.50026 0.72056 0.0
N431 N 0.67849 0.50753 0.68659 0.0
N432 N 0.76138 0.51067 0.68272 0.0
C433 C 0.71793 0.51463 0.66441 0.0
H434 H 0.77313 0.49346 0.74037 0.0
Co435 Co 0.82547 0.50416 0.66249 0.0
C436 C 0.82661 0.56785 0.59563 0.0
O437 O 0.87233 0.58119 0.60191 0.0
N438 N 0.89017 0.49597 0.64184 0.0
C439 C 0.95319 0.46759 0.60812 0.0
C440 C 0.90271 0.4685 0.61201 0.0
C441 C 0.93406 0.51268 0.6545 0.0
N442 N 0.97293 0.49548 0.63499 0.0
O443 O 0.84582 0.56343 0.68802 0.0
H444 H 0.87698 0.44936 0.59433 0.0
H445 H 0.93781 0.53688 0.67764 0.0
O446 O 0.80451 0.53955 0.61832 0.0
C447 C 0.86181 0.55084 0.72 0.0
O448 O 0.86287 0.50375 0.72822 0.0
N449 N 0.80656 0.44443 0.64224 0.0
C450 C 0.77243 0.34953 0.63113 0.0
C451 C 0.75571 0.3881 0.60853 0.0
C452 C 0.77376 0.43569 0.61432 0.0
C453 C 0.82578 0.40683 0.66238 0.0
C454 C 0.81032 0.35889 0.65654 0.0
H455 H 0.75932 0.46549 0.59778 0.0
H456 H 0.85217 0.41457 0.68405 0.0
H457 H 0.71507 0.52006 0.63492 0.0
H458 H 0.67613 0.49098 0.74493 0.0
H459 H 0.9738 0.44773 0.58726 0.0
H460 H 0.72721 0.38206 0.58806 0.0
H461 H 0.82615 0.32974 0.67319 0.0
C462 C 0.01586 0.70937 0.22307 0.0
C463 C 0.02552 0.6599 0.22518 0.0
N464 N 0.01811 0.6401 0.19158 0.0
N465 N 1.00194 0.72119 0.18834 0.0
C466 C 1.00341 0.67781 0.16972 0.0
H467 H 0.02138 0.73538 0.24522 0.0
Co468 Co 0.99442 0.78722 0.17355 0.0
C469 C 0.96927 0.78725 0.09406 0.0
O470 O 0.99931 0.82496 0.09136 0.0
N471 N 0.9865 0.85496 0.16082 0.0
C472 C 0.94789 0.92403 0.14398 0.0
C473 C 0.94407 0.87384 0.1471 0.0
C474 C 0.01477 0.89526 0.16732 0.0
N475 N 0.99241 0.93748 0.15664 0.0
O476 O 0.93211 0.79077 0.19836 0.0
H477 H 0.91166 0.85242 0.14059 0.0
H478 H 0.05024 0.89447 0.18079 0.0
O479 O 0.96302 0.76679 0.12579 0.0
C480 C 0.93942 0.80792 0.23079 0.0
O481 O 0.98475 0.81871 0.24059 0.0
N482 N 0.05778 0.7841 0.15315 0.0
C483 C 0.1575 0.76981 0.13902 0.0
C484 C 0.12201 0.74848 0.11607 0.0
C485 C 0.07219 0.75534 0.12398 0.0
C486 C 0.09213 0.8042 0.17603 0.0
C487 C 0.14222 0.7985 0.16903 0.0
H488 H 0.04592 0.73483 0.10789 0.0
H489 H 0.08057 0.82229 0.2012 0.0
H490 H 0.99723 0.67432 0.14035 0.0
H491 H 0.03881 0.64022 0.24926 0.0
H492 H 0.91914 0.94902 0.135 0.0
H493 H 0.13268 0.72506 0.09317 0.0
H494 H 0.16877 0.81395 0.18816 0.0
C495 C 0.77762 0.03423 0.69746 0.0
C496 C 0.82756 0.04137 0.69495 0.0
N497 N 0.84495 0.01486 0.66626 0.0
N498 N 0.76298 1.00244 0.67106 0.0
C499 C 0.80501 0.99101 0.65251 0.0
H500 H 0.75322 0.05211 0.71692 0.0
Co501 Co 0.69588 0.98677 0.66333 0.0
C502 C 0.68754 0.958 0.58531 0.0
O503 O 0.64649 0.98366 0.58389 0.0
N504 N 0.62758 0.97006 0.65673 0.0
C505 C 0.56309 0.9209 0.64639 0.0
C506 C 0.61355 0.92433 0.6464 0.0
C507 C 0.58404 0.99339 0.66358 0.0
N508 N 0.54444 0.96428 0.65755 0.0
O509 O 0.70396 0.92583 0.68949 0.0
H510 H 0.63868 0.89481 0.63944 0.0
H511 H 0.58049 0.03024 0.67415 0.0
O512 O 0.71226 0.95586 0.61548 0.0
C513 C 0.70131 0.93288 0.72433 0.0
O514 O 0.69936 0.9784 0.7364 0.0
N515 N 0.688 0.04864 0.64146 0.0
C516 C 0.69658 0.14963 0.62974 0.0
C517 C 0.7211 0.11609 0.6066 0.0
C518 C 0.71616 0.06557 0.61282 0.0
C519 C 0.66327 0.08088 0.66346 0.0
C520 C 0.66421 0.13109 0.65647 0.0
H521 H 0.73933 0.04082 0.59723 0.0
H522 H 0.64673 0.06826 0.68884 0.0
H523 H 0.80613 0.96706 0.62863 0.0
H524 H 0.84929 0.06428 0.71317 0.0
H525 H 0.54188 0.88879 0.63878 0.0
H526 H 0.74714 0.12859 0.58599 0.0
H527 H 0.64327 0.15531 0.67431 0.0
C528 C 0.46757 0.30985 0.06034 0.0
C529 C 0.44816 0.26214 0.06314 0.0
C530 C 0.47326 0.33298 0.02611 0.0
C531 C 0.46059 0.3093 0.99274 0.0
H532 H 0.47956 0.32941 0.08477 0.0
H533 H 0.48941 0.36939 0.02602 0.0
S534 S 0.40571 0.18479 0.98467 0.0
N535 N 0.41388 0.19251 0.02959 0.0
N536 N 0.42516 0.23596 0.96491 0.0
C537 C 0.43943 0.26214 0.99506 0.0
C538 C 0.43309 0.23861 0.03027 0.0
C539 C 0.31122 0.40419 0.48699 0.0
C540 C 0.27073 0.43199 0.47425 0.0
C541 C 0.32369 0.40267 0.52478 0.0
C542 C 0.29621 0.42895 0.55133 0.0
H543 H 0.33451 0.38473 0.46754 0.0
H544 H 0.35623 0.38225 0.53299 0.0
S545 S 0.18253 0.50131 0.53316 0.0
N546 N 0.20019 0.48186 0.49202 0.0
N547 N 0.22375 0.47948 0.56245 0.0
C548 C 0.25432 0.45487 0.53913 0.0
C549 C 0.24159 0.45627 0.5008 0.0
C550 C 0.07796 0.27451 0.9878 0.0
C551 C 0.08717 0.22409 0.98254 0.0
C552 C 0.07324 0.29469 0.02322 0.0
C553 C 0.07762 0.26548 0.05524 0.0
H554 H 0.07223 0.29847 0.96432 0.0
H555 H 0.06397 0.33338 0.02534 0.0
S556 S 0.10973 0.13268 0.05702 0.0
N557 N 0.10626 0.14621 1.01256 0.0
N558 N 0.09819 0.1845 0.07929 0.0
C559 C 0.09117 0.21583 0.05056 0.0
C560 C 0.09577 0.19506 1.01421 0.0
C561 C 0.29121 0.06727 0.50999 0.0
C562 C 0.26303 0.07407 0.4776 0.0
C563 C 0.27047 0.07228 0.54525 0.0
C564 C 0.22042 0.08419 0.54997 0.0
H565 H 0.32942 0.05589 0.50825 0.0
H566 H 0.29356 0.06461 0.569 0.0
S567 S 0.13198 0.11323 0.47449 0.0
N568 N 0.18374 0.09955 0.45281 0.0
N569 N 0.14428 0.10803 0.51906 0.0
C570 C 0.19261 0.09494 0.51797 0.0
C571 C 0.214 0.09011 0.48184 0.0
C572 C 0.56259 0.82911 0.03581 0.0
C573 C 0.56583 0.80413 1.00167 0.0
C574 C 0.56436 0.80382 0.06957 0.0
C575 C 0.56909 0.75237 0.07069 0.0
H576 H 0.55589 0.8684 0.0366 0.0
H577 H 0.55822 0.82451 0.09465 0.0
S578 S 0.58973 0.67054 0.98993 0.0
N579 N 0.58259 0.72579 0.9717 0.0
N580 N 0.58471 0.67807 0.03509 0.0
C581 C 0.57707 0.72745 0.03705 0.0
C582 C 0.57584 0.75334 1.00259 0.0
C583 C 0.81114 0.57378 0.49139 0.0
C584 C 0.76058 0.58362 0.487 0.0
C585 C 0.83268 0.57132 0.5267 0.0
C586 C 0.80412 0.57707 0.55891 0.0
H587 H 0.83418 0.56759 0.4674 0.0
H588 H 0.8716 0.56277 0.5288 0.0
S589 S 0.66997 0.60267 0.56241 0.0
N590 N 0.68262 0.59967 0.51778 0.0
N591 N 0.72278 0.59334 0.58408 0.0
C592 C 0.75359 0.58712 0.55486 0.0
C593 C 0.73191 0.59088 0.51892 0.0
C594 C 0.9521 0.79441 0.02669 0.0
C595 C 0.95093 0.7653 0.05891 0.0
C596 C 0.94657 0.77372 0.99152 0.0
C597 C 0.9394 0.72292 0.98676 0.0
H598 H 0.95994 0.83342 0.02842 0.0
H599 H 0.95031 0.79762 0.96782 0.0
S600 S 0.92602 0.63122 0.06223 0.0
N601 N 0.93596 0.68373 0.08397 0.0
N602 N 0.926 0.64452 1.01764 0.0
C603 C 0.93384 0.69384 1.01879 0.0
C604 C 0.93945 0.71511 0.05489 0.0
C605 C 0.77204 0.93962 0.50347 0.0
C606 C 0.74035 0.91862 0.47697 0.0
C607 C 0.75605 0.94851 0.53981 0.0
C608 C 0.7074 0.93802 0.55042 0.0
H609 H 0.80883 0.95096 0.49564 0.0
H610 H 0.78082 0.96677 0.55887 0.0
S611 S 0.61083 0.88076 0.4921 0.0
N612 N 0.65915 0.88496 0.46456 0.0
N613 N 0.62859 0.9033 0.53239 0.0
C614 C 0.67608 0.91523 0.52466 0.0
C615 C 0.69271 0.90505 0.48801 0.0
C616 C 0.50309 0.9392 0.1501 0.0
C617 C 0.51 0.92572 0.18724 0.0
C618 C 0.50119 0.98892 0.13951 0.0
C619 C 0.50676 0.02725 0.16555 0.0
H620 H 0.49784 0.91107 0.12925 0.0
H621 H 0.49469 0.99736 0.11067 0.0
S622 S 0.53085 0.01041 0.26598 0.0
N623 N 0.52497 0.95391 0.24985 0.0
N624 N 0.52327 0.04719 0.23008 0.0
C625 C 0.51496 0.01393 0.20276 0.0
C626 C 0.51619 0.96326 0.21353 0.0
C627 C 0.58905 0.51971 0.69749 0.0
C628 C 0.62768 0.50083 0.67564 0.0
C629 C 0.53938 0.51358 0.68709 0.0
C630 C 0.52659 0.48803 0.65458 0.0
H631 H 0.59741 0.54025 0.72237 0.0
H632 H 0.51094 0.53019 0.70399 0.0
S633 S 0.61349 0.42496 0.59099 0.0
N634 N 0.64929 0.45124 0.62214 0.0
N635 N 0.55653 0.43942 0.60284 0.0
C636 C 0.56485 0.4672 0.63346 0.0
C637 C 0.6152 0.47368 0.64389 0.0
C638 C 1.00525 0.5106 0.15545 0.0
C639 C 0.05077 0.48927 0.16523 0.0
C640 C 0.99527 0.56058 0.16282 0.0
C641 C 0.03007 0.59034 0.18098 0.0
H642 H 0.9775 0.48851 0.14181 0.0
H643 H 0.95976 0.57578 0.15521 0.0
S644 S 0.1545 0.55191 0.21237 0.0
N645 N 0.13075 0.50177 0.19379 0.0
N646 N 0.11196 0.59507 0.2079 0.0
C647 C 0.07568 0.56935 0.19071 0.0
C648 C 0.08603 0.51897 0.18278 0.0
C649 C 0.9156 0.96988 0.6382 0.0
C650 C 0.89551 0.0134 0.65313 0.0
C651 C 0.96553 0.96703 0.62767 0.0
C652 C 0.99745 1.00756 0.63171 0.0
H653 H 0.89295 0.93733 0.63565 0.0
H654 H 0.97964 0.93236 0.61737 0.0
S655 S 0.96196 0.13199 0.6644 0.0
N656 N 0.91081 0.09954 0.66761 0.0
N657 N 1.00419 0.0937 0.64848 0.0
C658 C 0.97743 0.05173 0.64527 0.0
C659 C 0.92667 0.05478 0.65577 0.0
C660 C 0.43895 0.61622 0.87184 0.0
C661 C 0.48478 0.63981 0.87602 0.0
C662 C 0.43377 0.56545 0.87712 0.0
C663 C 0.47414 0.53558 0.88689 0.0
H664 H 0.40645 0.63722 0.86451 0.0
H665 H 0.39775 0.54938 0.87292 0.0
S666 S 0.60215 0.57889 0.90247 0.0
N667 N 0.5715 0.62921 0.89095 0.0
N668 N 0.56153 0.53372 0.90181 0.0
C669 C 0.52022 0.55859 0.89169 0.0
C670 C 0.52553 0.61064 0.88623 0.0
C671 C 0.951 0.51167 0.33745 0.0
C672 C 0.91476 0.5055 0.36493 0.0
C673 C 1.0016 0.50892 0.34603 0.0
C674 C 0.01775 0.49939 0.38238 0.0
H675 H 0.94006 0.51956 0.30926 0.0
H676 H 0.02817 0.51559 0.32431 0.0
S677 S 0.93724 0.47309 0.4631 0.0
N678 N 0.89845 0.48494 0.42905 0.0
N679 N 0.99286 0.47863 0.44513 0.0
C680 C 0.98163 0.49105 0.4097 0.0
C681 C 0.93036 0.49443 0.40102 0.0
C682 C 0.98752 0.98982 0.85964 0.0
C683 C 0.99676 1.00486 0.89631 0.0
C684 C 0.98851 0.93992 0.84945 0.0
C685 C 0.99803 0.90273 0.87557 0.0
H686 H 0.97929 0.01685 0.83859 0.0
H687 H 0.98197 0.93024 0.82081 0.0
S688 S 0.02676 0.92176 0.97485 0.0
N689 N 0.01749 0.97782 0.95861 0.0
N690 N 0.01824 0.88426 0.9395 0.0
C691 C 1.00677 0.91695 0.9124 0.0
C692 C 1.00634 0.96787 0.92276 0.0
C693 C 0.49792 0.98195 0.37349 0.0
C694 C 0.48593 0.03198 0.36898 0.0
C695 C 0.54645 0.96492 0.3691 0.0
C696 C 0.58514 0.99713 0.35986 0.0
H697 H 0.46963 0.95585 0.38111 0.0
H698 H 0.55381 0.92623 0.3736 0.0
S699 S 0.5724 0.1308 0.34093 0.0
N700 N 0.51622 0.11306 0.3522 0.0
N701 N 0.60727 0.08107 0.3438 0.0
C702 C 0.57353 0.04717 0.35461 0.0
C703 C 0.52403 0.06456 0.35916 0.0
C704 C 0.50408 0.11015 0.88736 0.0
C705 C 0.54428 0.13851 0.87517 0.0
C706 C 0.50944 0.05951 0.895 0.0
C707 C 0.55535 0.03562 0.89131 0.0
H708 H 0.46809 0.12701 0.89017 0.0
H709 H 0.47759 0.03892 0.90412 0.0
S710 S 0.67235 0.09371 0.8613 0.0
N711 N 0.63188 0.13911 0.86115 0.0
N712 N 0.64151 0.04445 0.87436 0.0
C713 C 0.59582 0.06381 0.87954 0.0
C714 C 0.5904 0.11506 0.87179 0.0
C715 C 0.43738 0.49196 0.39862 0.0
C716 C 0.41888 0.51702 0.36757 0.0
C717 C 0.48653 0.49761 0.41 0.0
C718 C 0.5193 0.52894 0.39101 0.0
H719 H 0.41394 0.46684 0.41374 0.0
H720 H 0.49913 0.47632 0.43346 0.0
S721 S 0.48771 0.60701 0.31015 0.0
N722 N 0.43633 0.57696 0.31936 0.0
N723 N 0.52839 0.58794 0.341 0.0
C724 C 0.50091 0.55518 0.3604 0.0
C725 C 0.45085 0.54919 0.34866 0.0
C726 C 0.05485 0.42063 0.89405 0.0
C727 C 0.01885 0.40336 0.86921 0.0
C728 C 0.05582 0.47016 0.90546 0.0
C729 C 0.0207 0.50446 0.89262 0.0
H730 H 0.08297 0.39578 0.90427 0.0
H731 H 0.08486 0.48187 0.92399 0.0
S732 S 0.91484 0.47663 0.83099 0.0
N733 N 0.94464 0.42383 0.83464 0.0
N734 N 0.94638 0.51634 0.8561 0.0
C735 C 0.98369 0.48732 0.86857 0.0
C736 C 0.98277 0.43699 0.8569 0.0
C737 C 0.99702 0.02141 0.34293 0.0
C738 C 0.98443 1.00903 0.37954 0.0
C739 C 0.04652 0.02632 0.33209 0.0
C740 C 0.08525 0.0196 0.35753 0.0
H741 H 0.96844 0.02805 0.32262 0.0
H742 H 0.05469 0.03581 0.30367 0.0
S743 S 0.0729 0.98102 0.45535 0.0
N744 N 0.01562 0.98572 0.4403 0.0
N745 N 0.10808 0.99628 0.41998 0.0
C746 C 0.07336 1.00638 0.39394 0.0
C747 C 0.02314 1.00075 0.40492 0.0
C748 C 0.49491 0.45964 0.21507 0.0
C749 C 0.50565 0.42379 0.18809 0.0
C750 C 0.50342 0.50985 0.20841 0.0
C751 C 0.52402 0.52579 0.17483 0.0
H752 H 0.48104 0.44849 0.24186 0.0
H753 H 0.49616 0.53611 0.23028 0.0
S754 S 0.55663 0.44722 0.09463 0.0
N755 N 0.53603 0.40818 0.12598 0.0
N756 N 0.55241 0.50235 0.11365 0.0
C757 C 0.5334 0.49057 0.14724 0.0
C758 C 0.52407 0.43961 0.15379 0.0
C759 C 0.1081 0.46708 0.64839 0.0
C760 C 0.12709 0.51157 0.66233 0.0
C761 C 0.058 0.46232 0.63902 0.0
C762 C 0.02473 0.5018 0.64326 0.0
H763 H 0.13194 0.43535 0.64538 0.0
H764 H 0.04494 0.42705 0.62919 0.0
S765 S 0.0563 0.62785 0.67437 0.0
N766 N 0.10884 0.59729 0.6767 0.0
N767 N 0.01505 0.58784 0.65967 0.0
C768 C 0.04335 0.5468 0.65624 0.0
C769 C 0.09435 0.55181 0.6656 0.0
C770 C 0.02482 1.0024 0.19781 0.0
C771 C 1.00844 0.9874 0.16268 0.0
C772 C 0.03278 0.05239 0.20577 0.0
C773 C 0.0257 0.08897 0.17868 0.0
H774 H 0.0289 0.97562 0.21978 0.0
H775 H 0.04315 0.06281 0.23361 0.0
S776 S 0.98651 0.06822 0.08171 0.0
N777 N 0.98794 0.01259 0.10011 0.0
N778 N 1.00353 0.10635 0.11492 0.0
C779 C 0.01176 0.07412 0.14296 0.0
C780 C 1.0029 0.02338 0.13504 0.0
C781 C 0.42404 0.03478 0.66065 0.0
C782 C 0.39164 1.00051 0.67652 0.0
C783 C 0.47407 0.02294 0.65475 0.0
C784 C 0.49306 0.97611 0.66388 0.0
H785 H 0.41078 0.07116 0.6535 0.0
H786 H 0.49799 0.0504 0.64268 0.0
S787 S 0.42227 0.87316 0.70529 0.0
N788 N 0.38141 0.91777 0.70037 0.0
N789 N 0.47481 0.89556 0.68972 0.0
C790 C 0.46053 0.94146 0.67931 0.0
C791 C 0.41 0.95364 0.6855 0.0
C792 C 0.79709 0.27186 0.11607 0.0
C793 C 0.82507 0.27182 0.14882 0.0
C794 C 0.74618 0.263 0.11688 0.0
C795 C 0.7217 0.25354 0.15045 0.0
H796 H 0.81457 0.27927 0.08974 0.0
H797 H 0.72592 0.26317 0.09105 0.0
S798 S 0.77875 0.24844 0.24379 0.0
N799 N 0.82504 0.25949 0.21549 0.0
N800 N 0.72931 0.2457 0.2173 0.0
C801 C 0.74942 0.25343 0.18335 0.0
C802 C 0.8011 0.26183 0.18246 0.0
C803 C 0.30408 0.738 0.65419 0.0
C804 C 0.31752 0.71394 0.62138 0.0
C805 C 0.28697 0.78633 0.65367 0.0
C806 C 0.28157 0.8124 0.62023 0.0
H807 H 0.3047 0.71866 0.68039 0.0
H808 H 0.27659 0.80289 0.67979 0.0
S809 S 0.3227 0.76877 0.52783 0.0
N810 N 0.33262 0.72152 0.55555 0.0
N811 N 0.29851 0.8125 0.55395 0.0
C812 C 0.29859 0.78994 0.58745 0.0
C813 C 0.31668 0.74054 0.58816 0.0
C814 C 0.78733 0.29761 0.94797 0.0
C815 C 0.8125 0.28816 0.91479 0.0
C816 C 0.73932 0.31689 0.94754 0.0
C817 C 0.71506 0.32731 0.91392 0.0
H818 H 0.80398 0.28809 0.97427 0.0
H819 H 0.72044 0.32214 0.97363 0.0
S820 S 0.76795 0.31327 0.81961 0.0
N821 N 0.81234 0.29552 0.8478 0.0
N822 N 0.72138 0.32841 0.84662 0.0
C823 C 0.7411 0.32009 0.88065 0.0
C824 C 0.79002 0.30135 0.8812 0.0
C825 C 0.26538 0.79176 0.36322 0.0
C826 C 0.25929 0.82095 0.39519 0.0
C827 C 0.25698 0.74129 0.36368 0.0
C828 C 0.24039 0.71759 0.39573 0.0
H829 H 0.27614 0.80778 0.33707 0.0
H830 H 0.26357 0.7206 0.33853 0.0
S831 S 0.21036 0.77645 0.4853 0.0
N832 N 0.23238 0.82163 0.45968 0.0
N833 N 0.21278 0.72674 0.45913 0.0
C834 C 0.23182 0.74589 0.42753 0.0
C835 C 0.24177 0.79754 0.42752 0.0
C836 C 0.23702 0.79492 0.95477 0.0
C837 C 0.21328 0.78445 0.92113 0.0
C838 C 0.28488 0.81449 0.95524 0.0
C839 C 0.31022 0.82461 0.9221 0.0
H840 H 0.21928 0.78621 0.98077 0.0
H841 H 0.30269 0.82055 0.98167 0.0
S842 S 0.26195 0.80684 0.82679 0.0
N843 N 0.21662 0.7892 0.85405 0.0
N844 N 0.30693 0.82368 0.85474 0.0
C845 C 0.28581 0.81596 0.88834 0.0
C846 C 0.23724 0.79648 0.88792 0.0
C847 C 0.74875 0.22557 0.43437 0.0
C848 C 0.73635 0.19861 0.40251 0.0
C849 C 0.74171 0.27671 0.43579 0.0
C850 C 0.72233 0.30267 0.40531 0.0
H851 H 0.76543 0.20731 0.45789 0.0
H852 H 0.75209 0.29606 0.46078 0.0
S853 S 0.68084 0.24771 0.31626 0.0
N854 N 0.69953 0.20048 0.34124 0.0
N855 N 0.69029 0.29658 0.34234 0.0
C856 C 0.70873 0.2756 0.37359 0.0
C857 C 0.71472 0.22361 0.37261 0.0
C858 C 0.29524 0.78713 0.13378 0.0
C859 C 0.31306 0.73865 0.1368 0.0
C860 C 0.24464 0.79685 0.13283 0.0
C861 C 0.21026 0.75839 0.13445 0.0
H862 H 0.32049 0.81795 0.13403 0.0
H863 H 0.23224 0.83476 0.13199 0.0
S864 S 0.23803 0.62494 0.13989 0.0
N865 N 0.29262 0.65168 0.13917 0.0
N866 N 0.1972 0.67 0.1376 0.0
C867 C 0.22754 0.70965 0.13576 0.0
C868 C 0.27907 0.69976 0.13695 0.0
C869 C 0.72052 0.22778 0.5969 0.0
C870 C 0.71098 0.20246 0.63015 0.0
C871 C 0.73911 0.27597 0.59713 0.0
C872 C 0.74855 0.30053 0.63062 0.0
H873 H 0.71446 0.20992 0.57051 0.0
H874 H 0.74754 0.29348 0.57099 0.0
S875 S 0.72674 0.25249 0.72531 0.0
N876 N 0.71243 0.20651 0.69761 0.0
N877 N 0.74242 0.29807 0.69771 0.0
C878 C 0.73675 0.27666 0.66395 0.0
C879 C 0.71926 0.22741 0.66381 0.0
C880 C 0.34755 0.17252 0.30018 0.0
C881 C 0.31564 0.1395 0.28241 0.0
C882 C 0.38246 0.19909 0.2799 0.0
C883 C 0.38617 0.19404 0.2412 0.0
H884 H 0.34894 0.17433 0.33009 0.0
H885 H 0.40906 0.22103 0.29496 0.0
S886 S 0.30373 0.12051 0.18116 0.0
N887 N 0.28434 0.10928 0.22361 0.0
N888 N 0.34976 0.15973 0.18548 0.0
C889 C 0.35058 0.1658 0.22278 0.0
C890 C 0.31531 0.13834 0.24346 0.0
C891 C 0.36415 0.37238 0.80227 0.0
C892 C 0.40515 0.34456 0.79111 0.0
C893 C 0.33591 0.39827 0.77616 0.0
C894 C 0.34738 0.39663 0.73814 0.0
H895 H 0.35706 0.37854 0.8314 0.0
H896 H 0.30764 0.42316 0.78614 0.0
S897 S 0.44467 0.32051 0.69456 0.0
N898 N 0.45094 0.31032 0.73936 0.0
N899 N 0.39748 0.35858 0.69037 0.0
C900 C 0.38425 0.36395 0.72639 0.0
C901 C 0.41333 0.33803 0.75296 0.0
C902 C 0.16075 0.35059 0.31377 0.0
C903 C 0.18952 0.38827 0.29857 0.0
C904 C 0.13766 0.31601 0.29076 0.0
C905 C 0.1431 0.31769 0.25195 0.0
H906 H 0.15212 0.35065 0.34303 0.0
H907 H 0.11185 0.29053 0.30317 0.0
S908 S 0.22449 0.40227 0.19998 0.0
N909 N 0.22926 0.42037 0.24344 0.0
N910 N 0.18693 0.35456 0.20041 0.0
C911 C 0.17705 0.35117 0.23713 0.0
C912 C 0.19985 0.38689 0.26045 0.0
C913 C 0.12658 0.15492 0.78218 0.0
C914 C 0.07862 0.14163 0.79314 0.0
C915 C 0.15116 0.12907 0.75366 0.0
C916 C 0.1289 0.08844 0.73619 0.0
H917 H 0.14481 0.18575 0.79529 0.0
H918 H 0.18821 0.13983 0.74612 0.0
S919 S 1.00439 0.03822 0.75541 0.0
N920 N 1.00972 0.08581 0.78338 0.0
N921 N 0.05704 0.03544 0.73286 0.0
C922 C 0.08138 0.07463 0.74743 0.0
C923 C 0.05593 0.10171 0.7751 0.0
C924 C 0.65038 0.85912 0.73841 0.0
C925 C 0.68557 0.89364 0.75005 0.0
C926 C 0.62055 0.8348 0.76425 0.0
C927 C 0.62548 0.84355 0.80251 0.0
H928 H 0.64214 0.85473 0.70928 0.0
H929 H 0.59067 0.81217 0.75401 0.0
S930 S 0.71969 0.92229 0.84707 0.0
N931 N 0.72926 0.92925 0.80227 0.0
N932 N 0.67384 0.88275 0.85075 0.0
C933 C 0.6648 0.87298 0.81453 0.0
C934 C 0.69471 0.89827 0.78824 0.0
C935 C 0.66368 0.67394 0.25087 0.0
C936 C 0.6252 0.70058 0.26754 0.0
C937 C 0.69354 0.64228 0.27184 0.0
C938 C 0.68659 0.63681 0.31022 0.0
H939 H 0.66795 0.67397 0.22109 0.0
H940 H 0.71992 0.61921 0.25745 0.0
S941 S 0.597 0.70536 0.36796 0.0
N942 N 0.58636 0.7248 0.32541 0.0
N943 N 0.64292 0.66563 0.3647 0.0
C944 C 0.65197 0.6673 0.32776 0.0
C945 C 0.62112 0.69911 0.30639 0.0
C946 C 0.86747 0.62699 0.75997 0.0
C947 C 0.88946 0.58483 0.74433 0.0
C948 C 0.89297 0.65584 0.7863 0.0
C949 C 0.94182 0.64441 0.7964 0.0
H950 H 0.82997 0.63675 0.75271 0.0
H951 H 0.87481 0.6876 0.79825 0.0
S952 S 0.01572 0.53795 0.76298 0.0
N953 N 0.9616 0.53165 0.74288 0.0
N954 N 0.01152 0.5891 0.78726 0.0
C955 C 0.96436 0.60317 0.77989 0.0
C956 C 0.93763 0.57248 0.75523 0.0
C957 C 0.8581 0.84915 0.23991 0.0
C958 C 0.8989 0.82452 0.25504 0.0
C959 C 0.82702 0.87763 0.26242 0.0
C960 C 0.83528 0.88182 0.30082 0.0
H961 H 0.85249 0.84979 0.21024 0.0
H962 H 0.79796 0.89875 0.2493 0.0
S963 S 0.93278 0.818 0.35438 0.0
N964 N 0.9427 0.80133 0.31109 0.0
N965 N 0.88387 0.85424 0.35337 0.0
C966 C 0.87319 0.85362 0.31665 0.0
C967 C 0.90518 0.82517 0.2937 0.0
loop_
_geom_bond_atom_site_label_1
_geom_bond_atom_site_label_2
_geom_bond_distance
_geom_bond_site_symmetry_2
_ccdc_geom_bond_type
C0 C1 1.351 . S
C0 N3 1.368 . S
C0 H5 0.931 . S
C1 C0 1.351 . S
C1 N2 1.373 . S
C1 H29 0.930 . S
N2 C1 1.373 . S
N2 C4 1.340 . S
N3 C0 1.368 . S
N3 C4 1.321 . S
N3 Co6 2.135 . S
C4 N2 1.340 . S
C4 N3 1.321 . S
C4 H28 0.930 . S
H5 C0 0.931 . S
Co6 N3 2.135 . S
Co6 N9 2.121 . S
Co6 O14 2.055 . S
Co6 O17 2.039 . S
Co6 N20 2.140 . S
C7 O8 1.227 . S
C7 O17 1.265 . S
O8 C7 1.227 . S
N9 Co6 2.121 . S
N9 C11 1.375 . S
N9 C12 1.313 . S
C10 C11 1.338 . S
C10 N13 1.377 . S
C10 H30 0.930 . S
C11 N9 1.375 . S
C11 C10 1.338 . S
C11 H15 0.931 . S
C12 N9 1.313 . S
C12 N13 1.344 . S
C12 H16 0.930 . S
N13 C10 1.377 . S
N13 C12 1.344 . S
O14 Co6 2.055 . S
O14 C18 1.253 . S
H15 C11 0.931 . S
H16 C12 0.930 . S
O17 Co6 2.039 . S
O17 C7 1.265 . S
C18 O14 1.253 . S
C18 O19 1.227 . S
O19 C18 1.227 . S
N20 Co6 2.140 . S
N20 C23 1.346 . S
N20 C24 1.345 . S
C21 C22 1.387 . S
C21 C25 1.391 . S
C22 C21 1.387 . S
C22 C23 1.369 . S
C22 H31 0.929 . S
C23 N20 1.346 . S
C23 C22 1.369 . S
C23 H26 0.928 . S
C24 N20 1.345 . S
C24 C25 1.371 . S
C24 H27 0.931 . S
C25 C21 1.391 . S
C25 C24 1.371 . S
C25 H32 0.930 . S
H26 C23 0.928 . S
H27 C24 0.931 . S
H28 C4 0.930 . S
H29 C1 0.930 . S
H30 C10 0.930 . S
H31 C22 0.929 . S
H32 C25 0.930 . S
C33 C34 1.351 . S
C33 N36 1.368 . S
C33 H38 0.931 . S
C34 C33 1.351 . S
C34 N35 1.373 . S
C34 H62 0.930 . S
N35 C34 1.373 . S
N35 C37 1.340 . S
N36 C33 1.368 . S
N36 C37 1.321 . S
N36 Co39 2.135 . S
C37 N35 1.340 . S
C37 N36 1.321 . S
C37 H61 0.930 . S
H38 C33 0.931 . S
Co39 N36 2.135 . S
Co39 N42 2.121 . S
Co39 O47 2.055 . S
Co39 O50 2.039 . S
Co39 N53 2.140 . S
C40 O41 1.227 . S
C40 O50 1.265 . S
O41 C40 1.227 . S
N42 Co39 2.121 . S
N42 C44 1.375 . S
N42 C45 1.313 . S
C43 C44 1.338 . S
C43 N46 1.377 . S
C43 H63 0.930 . S
C44 N42 1.375 . S
C44 C43 1.338 . S
C44 H48 0.931 . S
C45 N42 1.313 . S
C45 N46 1.344 . S
C45 H49 0.930 . S
N46 C43 1.377 . S
N46 C45 1.344 . S
O47 Co39 2.055 . S
O47 C51 1.253 . S
H48 C44 0.931 . S
H49 C45 0.930 . S
O50 Co39 2.039 . S
O50 C40 1.265 . S
C51 O47 1.253 . S
C51 O52 1.227 . S
O52 C51 1.227 . S
N53 Co39 2.140 . S
N53 C56 1.346 . S
N53 C57 1.345 . S
C54 C55 1.387 . S
C54 C58 1.391 . S
C55 C54 1.387 . S
C55 C56 1.369 . S
C55 H64 0.929 . S
C56 N53 1.346 . S
C56 C55 1.369 . S
C56 H59 0.928 . S
C57 N53 1.345 . S
C57 C58 1.371 . S
C57 H60 0.931 . S
C58 C54 1.391 . S
C58 C57 1.371 . S
C58 H65 0.930 . S
H59 C56 0.928 . S
H60 C57 0.931 . S
H61 C37 0.930 . S
H62 C34 0.930 . S
H63 C43 0.930 . S
H64 C55 0.929 . S
H65 C58 0.930 . S
C66 C67 1.351 . S
C66 N69 1.368 . S
C66 H71 0.931 . S
C67 C66 1.351 . S
C67 N68 1.373 . S
C67 H95 0.930 . S
N68 C67 1.373 . S
N68 C70 1.340 . S
N69 C66 1.368 . S
N69 C70 1.321 . S
N69 Co72 2.135 . S
C70 N68 1.340 . S
C70 N69 1.321 . S
C70 H94 0.930 . S
H71 C66 0.931 . S
Co72 N69 2.135 . S
Co72 N75 2.121 . S
Co72 O80 2.055 . S
Co72 O83 2.039 . S
Co72 N86 2.140 1_455 S
C73 O74 1.227 1_455 S
C73 O83 1.265 . S
O74 C73 1.227 1_655 S
N75 Co72 2.121 . S
N75 C77 1.375 1_455 S
N75 C78 1.313 . S
C76 C77 1.338 . S
C76 N79 1.377 1_655 S
C76 H96 0.930 . S
C77 N75 1.375 1_655 S
C77 C76 1.338 . S
C77 H81 0.931 . S
C78 N75 1.313 . S
C78 N79 1.344 . S
C78 H82 0.930 . S
N79 C76 1.377 1_455 S
N79 C78 1.344 . S
O80 Co72 2.055 . S
O80 C84 1.253 . S
H81 C77 0.931 . S
H82 C78 0.930 . S
O83 Co72 2.039 . S
O83 C73 1.265 . S
C84 O80 1.253 . S
C84 O85 1.227 . S
O85 C84 1.227 . S
N86 Co72 2.140 1_655 S
N86 C89 1.346 . S
N86 C90 1.345 . S
C87 C88 1.387 . S
C87 C91 1.391 . S
C88 C87 1.387 . S
C88 C89 1.369 . S
C88 H97 0.929 . S
C89 N86 1.346 . S
C89 C88 1.369 . S
C89 H92 0.928 . S
C90 N86 1.345 . S
C90 C91 1.371 . S
C90 H93 0.931 . S
C91 C87 1.391 . S
C91 C90 1.371 . S
C91 H98 0.930 . S
H92 C89 0.928 . S
H93 C90 0.931 . S
H94 C70 0.930 . S
H95 C67 0.930 . S
H96 C76 0.930 . S
H97 C88 0.929 . S
H98 C91 0.930 . S
C99 C100 1.351 . S
C99 N102 1.368 . S
C99 H104 0.931 . S
C100 C99 1.351 . S
C100 N101 1.373 . S
C100 H128 0.930 . S
N101 C100 1.373 . S
N101 C103 1.340 . S
N102 C99 1.368 . S
N102 C103 1.321 . S
N102 Co105 2.135 . S
C103 N101 1.340 . S
C103 N102 1.321 . S
C103 H127 0.930 . S
H104 C99 0.931 . S
Co105 N102 2.135 . S
Co105 N108 2.121 . S
Co105 O113 2.055 . S
Co105 O116 2.039 . S
Co105 N119 2.140 1_545 S
C106 O107 1.227 1_545 S
C106 O116 1.265 . S
O107 C106 1.227 1_565 S
N108 Co105 2.121 . S
N108 C110 1.375 1_545 S
N108 C111 1.313 . S
C109 C110 1.338 . S
C109 N112 1.377 1_565 S
C109 H129 0.930 . S
C110 N108 1.375 1_565 S
C110 C109 1.338 . S
C110 H114 0.931 . S
C111 N108 1.313 . S
C111 N112 1.344 . S
C111 H115 0.930 . S
N112 C109 1.377 1_545 S
N112 C111 1.344 . S
O113 Co105 2.055 . S
O113 C117 1.253 . S
H114 C110 0.931 . S
H115 C111 0.930 . S
O116 Co105 2.039 . S
O116 C106 1.265 . S
C117 O113 1.253 . S
C117 O118 1.227 . S
O118 C117 1.227 . S
N119 Co105 2.140 1_565 S
N119 C122 1.346 . S
N119 C123 1.345 . S
C120 C121 1.387 . S
C120 C124 1.391 . S
C121 C120 1.387 . S
C121 C122 1.369 . S
C121 H130 0.929 . S
C122 N119 1.346 . S
C122 C121 1.369 . S
C122 H125 0.928 . S
C123 N119 1.345 . S
C123 C124 1.371 . S
C123 H126 0.931 . S
C124 C120 1.391 . S
C124 C123 1.371 . S
C124 H131 0.930 . S
H125 C122 0.928 . S
H126 C123 0.931 . S
H127 C103 0.930 . S
H128 C100 0.930 . S
H129 C109 0.930 . S
H130 C121 0.929 . S
H131 C124 0.930 . S
C132 C133 1.351 . S
C132 N135 1.368 . S
C132 H137 0.931 . S
C133 C132 1.351 . S
C133 N134 1.373 . S
C133 H161 0.930 . S
N134 C133 1.373 . S
N134 C136 1.340 . S
N135 C132 1.368 . S
N135 C136 1.321 . S
N135 Co138 2.135 . S
C136 N134 1.340 . S
C136 N135 1.321 . S
C136 H160 0.930 . S
H137 C132 0.931 . S
Co138 N135 2.135 . S
Co138 N141 2.121 . S
Co138 O146 2.055 . S
Co138 O149 2.039 . S
Co138 N152 2.140 . S
C139 O140 1.227 . S
C139 O149 1.265 . S
O140 C139 1.227 . S
N141 Co138 2.121 . S
N141 C143 1.375 . S
N141 C144 1.313 . S
C142 C143 1.338 . S
C142 N145 1.377 . S
C142 H162 0.930 . S
C143 N141 1.375 . S
C143 C142 1.338 . S
C143 H147 0.931 . S
C144 N141 1.313 . S
C144 N145 1.344 . S
C144 H148 0.930 . S
N145 C142 1.377 . S
N145 C144 1.344 . S
O146 Co138 2.055 . S
O146 C150 1.253 . S
H147 C143 0.931 . S
H148 C144 0.930 . S
O149 Co138 2.039 . S
O149 C139 1.265 . S
C150 O146 1.253 . S
C150 O151 1.227 . S
O151 C150 1.227 . S
N152 Co138 2.140 . S
N152 C155 1.346 . S
N152 C156 1.345 . S
C153 C154 1.387 . S
C153 C157 1.391 . S
C154 C153 1.387 . S
C154 C155 1.369 . S
C154 H163 0.929 . S
C155 N152 1.346 . S
C155 C154 1.369 . S
C155 H158 0.928 . S
C156 N152 1.345 . S
C156 C157 1.371 . S
C156 H159 0.931 . S
C157 C153 1.391 . S
C157 C156 1.371 . S
C157 H164 0.930 . S
H158 C155 0.928 . S
H159 C156 0.931 . S
H160 C136 0.930 . S
H161 C133 0.930 . S
H162 C142 0.930 . S
H163 C154 0.929 . S
H164 C157 0.930 . S
C165 C166 1.351 . S
C165 N168 1.368 . S
C165 H170 0.931 . S
C166 C165 1.351 . S
C166 N167 1.373 . S
C166 H194 0.930 . S
N167 C166 1.373 . S
N167 C169 1.340 . S
N168 C165 1.368 . S
N168 C169 1.321 . S
N168 Co171 2.135 . S
C169 N167 1.340 . S
C169 N168 1.321 . S
C169 H193 0.930 . S
H170 C165 0.931 . S
Co171 N168 2.135 . S
Co171 N174 2.121 . S
Co171 O179 2.055 . S
Co171 O182 2.039 . S
Co171 N185 2.140 . S
C172 O173 1.227 . S
C172 O182 1.265 . S
O173 C172 1.227 . S
N174 Co171 2.121 . S
N174 C176 1.375 . S
N174 C177 1.313 . S
C175 C176 1.338 . S
C175 N178 1.377 . S
C175 H195 0.930 . S
C176 N174 1.375 . S
C176 C175 1.338 . S
C176 H180 0.931 . S
C177 N174 1.313 . S
C177 N178 1.344 . S
C177 H181 0.930 . S
N178 C175 1.377 . S
N178 C177 1.344 . S
O179 Co171 2.055 . S
O179 C183 1.253 . S
H180 C176 0.931 . S
H181 C177 0.930 . S
O182 Co171 2.039 . S
O182 C172 1.265 . S
C183 O179 1.253 . S
C183 O184 1.227 . S
O184 C183 1.227 . S
N185 Co171 2.140 . S
N185 C188 1.346 . S
N185 C189 1.345 . S
C186 C187 1.387 . S
C186 C190 1.391 . S
C187 C186 1.387 . S
C187 C188 1.369 . S
C187 H196 0.929 . S
C188 N185 1.346 . S
C188 C187 1.369 . S
C188 H191 0.928 . S
C189 N185 1.345 . S
C189 C190 1.371 . S
C189 H192 0.931 . S
C190 C186 1.391 . S
C190 C189 1.371 . S
C190 H197 0.930 . S
H191 C188 0.928 . S
H192 C189 0.931 . S
H193 C169 0.930 . S
H194 C166 0.930 . S
H195 C175 0.930 . S
H196 C187 0.929 . S
H197 C190 0.930 . S
C198 C199 1.351 . S
C198 N201 1.368 . S
C198 H203 0.931 . S
C199 C198 1.351 . S
C199 N200 1.373 . S
C199 H227 0.930 . S
N200 C199 1.373 . S
N200 C202 1.340 . S
N201 C198 1.368 . S
N201 C202 1.321 . S
N201 Co204 2.135 . S
C202 N200 1.340 . S
C202 N201 1.321 . S
C202 H226 0.930 . S
H203 C198 0.931 . S
Co204 N201 2.135 . S
Co204 N207 2.121 . S
Co204 O212 2.055 . S
Co204 O215 2.039 . S
Co204 N218 2.140 1_455 S
C205 O206 1.227 1_455 S
C205 O215 1.265 . S
O206 C205 1.227 1_655 S
N207 Co204 2.121 . S
N207 C209 1.375 1_455 S
N207 C210 1.313 . S
C208 C209 1.338 . S
C208 N211 1.377 1_655 S
C208 H228 0.930 . S
C209 N207 1.375 1_655 S
C209 C208 1.338 . S
C209 H213 0.931 . S
C210 N207 1.313 . S
C210 N211 1.344 . S
C210 H214 0.930 . S
N211 C208 1.377 1_455 S
N211 C210 1.344 . S
O212 Co204 2.055 . S
O212 C216 1.253 . S
H213 C209 0.931 . S
H214 C210 0.930 . S
O215 Co204 2.039 . S
O215 C205 1.265 . S
C216 O212 1.253 . S
C216 O217 1.227 . S
O217 C216 1.227 . S
N218 Co204 2.140 1_655 S
N218 C221 1.346 . S
N218 C222 1.345 . S
C219 C220 1.387 . S
C219 C223 1.391 . S
C220 C219 1.387 . S
C220 C221 1.369 . S
C220 H229 0.929 . S
C221 N218 1.346 . S
C221 C220 1.369 . S
C221 H224 0.928 . S
C222 N218 1.345 . S
C222 C223 1.371 . S
C222 H225 0.931 . S
C223 C219 1.391 . S
C223 C222 1.371 . S
C223 H230 0.930 . S
H224 C221 0.928 . S
H225 C222 0.931 . S
H226 C202 0.930 . S
H227 C199 0.930 . S
H228 C208 0.930 . S
H229 C220 0.929 . S
H230 C223 0.930 . S
C231 C232 1.351 . S
C231 N234 1.368 . S
C231 H236 0.931 . S
C232 C231 1.351 . S
C232 N233 1.373 . S
C232 H260 0.930 . S
N233 C232 1.373 . S
N233 C235 1.340 . S
N234 C231 1.368 . S
N234 C235 1.321 . S
N234 Co237 2.135 . S
C235 N233 1.340 . S
C235 N234 1.321 . S
C235 H259 0.930 . S
H236 C231 0.931 . S
Co237 N234 2.135 . S
Co237 N240 2.121 . S
Co237 O245 2.055 . S
Co237 O248 2.039 . S
Co237 N251 2.140 1_545 S
C238 O239 1.227 1_545 S
C238 O248 1.265 . S
O239 C238 1.227 1_565 S
N240 Co237 2.121 . S
N240 C242 1.375 1_545 S
N240 C243 1.313 . S
C241 C242 1.338 . S
C241 N244 1.377 1_565 S
C241 H261 0.930 . S
C242 N240 1.375 1_565 S
C242 C241 1.338 . S
C242 H246 0.931 . S
C243 N240 1.313 . S
C243 N244 1.344 . S
C243 H247 0.930 . S
N244 C241 1.377 1_545 S
N244 C243 1.344 . S
O245 Co237 2.055 . S
O245 C249 1.253 . S
H246 C242 0.931 . S
H247 C243 0.930 . S
O248 Co237 2.039 . S
O248 C238 1.265 . S
C249 O245 1.253 . S
C249 O250 1.227 . S
O250 C249 1.227 . S
N251 Co237 2.140 1_565 S
N251 C254 1.346 . S
N251 C255 1.345 . S
C252 C253 1.387 . S
C252 C256 1.391 . S
C253 C252 1.387 . S
C253 C254 1.369 . S
C253 H262 0.929 . S
C254 N251 1.346 . S
C254 C253 1.369 . S
C254 H257 0.928 . S
C255 N251 1.345 . S
C255 C256 1.371 . S
C255 H258 0.931 . S
C256 C252 1.391 . S
C256 C255 1.371 . S
C256 H263 0.930 . S
H257 C254 0.928 . S
H258 C255 0.931 . S
H259 C235 0.930 . S
H260 C232 0.930 . S
H261 C241 0.930 . S
H262 C253 0.929 . S
H263 C256 0.930 . S
C264 C265 1.351 . S
C264 N267 1.368 . S
C264 H269 0.931 . S
C265 C264 1.351 . S
C265 N266 1.373 . S
C265 H293 0.930 . S
N266 C265 1.373 . S
N266 C268 1.340 . S
N267 C264 1.368 . S
N267 C268 1.321 . S
N267 Co270 2.135 . S
C268 N266 1.340 . S
C268 N267 1.321 . S
C268 H292 0.930 . S
H269 C264 0.931 . S
Co270 N267 2.135 . S
Co270 N273 2.121 . S
Co270 O278 2.055 . S
Co270 O281 2.039 . S
Co270 N284 2.140 . S
C271 O272 1.227 . S
C271 O281 1.265 . S
O272 C271 1.227 . S
N273 Co270 2.121 . S
N273 C275 1.375 . S
N273 C276 1.313 . S
C274 C275 1.338 . S
C274 N277 1.377 . S
C274 H294 0.930 . S
C275 N273 1.375 . S
C275 C274 1.338 . S
C275 H279 0.931 . S
C276 N273 1.313 . S
C276 N277 1.344 . S
C276 H280 0.930 . S
N277 C274 1.377 . S
N277 C276 1.344 . S
O278 Co270 2.055 . S
O278 C282 1.253 . S
H279 C275 0.931 . S
H280 C276 0.930 . S
O281 Co270 2.039 . S
O281 C271 1.265 . S
C282 O278 1.253 . S
C282 O283 1.227 . S
O283 C282 1.227 . S
N284 Co270 2.140 . S
N284 C287 1.346 . S
N284 C288 1.345 . S
C285 C286 1.387 . S
C285 C289 1.391 . S
C286 C285 1.387 . S
C286 C287 1.369 . S
C286 H295 0.929 . S
C287 N284 1.346 . S
C287 C286 1.369 . S
C287 H290 0.928 . S
C288 N284 1.345 . S
C288 C289 1.371 . S
C288 H291 0.931 . S
C289 C285 1.391 . S
C289 C288 1.371 . S
C289 H296 0.930 . S
H290 C287 0.928 . S
H291 C288 0.931 . S
H292 C268 0.930 . S
H293 C265 0.930 . S
H294 C274 0.930 . S
H295 C286 0.929 . S
H296 C289 0.930 . S
C297 C298 1.351 . S
C297 N300 1.368 . S
C297 H302 0.931 . S
C298 C297 1.351 . S
C298 N299 1.373 . S
C298 H326 0.930 . S
N299 C298 1.373 . S
N299 C301 1.340 . S
N300 C297 1.368 . S
N300 C301 1.321 . S
N300 Co303 2.135 . S
C301 N299 1.340 . S
C301 N300 1.321 . S
C301 H325 0.930 . S
H302 C297 0.931 . S
Co303 N300 2.135 . S
Co303 N306 2.121 . S
Co303 O311 2.055 . S
Co303 O314 2.039 . S
Co303 N317 2.140 . S
C304 O305 1.227 . S
C304 O314 1.265 . S
O305 C304 1.227 . S
N306 Co303 2.121 . S
N306 C308 1.375 . S
N306 C309 1.313 . S
C307 C308 1.338 . S
C307 N310 1.377 . S
C307 H327 0.930 . S
C308 N306 1.375 . S
C308 C307 1.338 . S
C308 H312 0.931 . S
C309 N306 1.313 . S
C309 N310 1.344 . S
C309 H313 0.930 . S
N310 C307 1.377 . S
N310 C309 1.344 . S
O311 Co303 2.055 . S
O311 C315 1.253 . S
H312 C308 0.931 . S
H313 C309 0.930 . S
O314 Co303 2.039 . S
O314 C304 1.265 . S
C315 O311 1.253 . S
C315 O316 1.227 . S
O316 C315 1.227 . S
N317 Co303 2.140 . S
N317 C320 1.346 . S
N317 C321 1.345 . S
C318 C319 1.387 . S
C318 C322 1.391 . S
C319 C318 1.387 . S
C319 C320 1.369 . S
C319 H328 0.929 . S
C320 N317 1.346 . S
C320 C319 1.369 . S
C320 H323 0.928 . S
C321 N317 1.345 . S
C321 C322 1.371 . S
C321 H324 0.931 . S
C322 C318 1.391 . S
C322 C321 1.371 . S
C322 H329 0.930 . S
H323 C320 0.928 . S
H324 C321 0.931 . S
H325 C301 0.930 . S
H326 C298 0.930 . S
H327 C307 0.930 . S
H328 C319 0.929 . S
H329 C322 0.930 . S
C330 C331 1.351 . S
C330 N333 1.368 . S
C330 H335 0.931 . S
C331 C330 1.351 . S
C331 N332 1.373 . S
C331 H359 0.930 . S
N332 C331 1.373 . S
N332 C334 1.340 . S
N333 C330 1.368 . S
N333 C334 1.321 . S
N333 Co336 2.135 . S
C334 N332 1.340 . S
C334 N333 1.321 . S
C334 H358 0.930 . S
H335 C330 0.931 . S
Co336 N333 2.135 . S
Co336 N339 2.121 . S
Co336 O344 2.055 . S
Co336 O347 2.039 . S
Co336 N350 2.140 1_655 S
C337 O338 1.227 1_655 S
C337 O347 1.265 . S
O338 C337 1.227 1_455 S
N339 Co336 2.121 . S
N339 C341 1.375 1_655 S
N339 C342 1.313 . S
C340 C341 1.338 . S
C340 N343 1.377 1_455 S
C340 H360 0.930 . S
C341 N339 1.375 1_455 S
C341 C340 1.338 . S
C341 H345 0.931 . S
C342 N339 1.313 . S
C342 N343 1.344 . S
C342 H346 0.930 . S
N343 C340 1.377 1_655 S
N343 C342 1.344 . S
O344 Co336 2.055 . S
O344 C348 1.253 . S
H345 C341 0.931 . S
H346 C342 0.930 . S
O347 Co336 2.039 . S
O347 C337 1.265 . S
C348 O344 1.253 . S
C348 O349 1.227 . S
O349 C348 1.227 . S
N350 Co336 2.140 1_455 S
N350 C353 1.346 . S
N350 C354 1.345 . S
C351 C352 1.387 . S
C351 C355 1.391 . S
C352 C351 1.387 . S
C352 C353 1.369 . S
C352 H361 0.929 . S
C353 N350 1.346 . S
C353 C352 1.369 . S
C353 H356 0.928 . S
C354 N350 1.345 . S
C354 C355 1.371 . S
C354 H357 0.931 . S
C355 C351 1.391 . S
C355 C354 1.371 . S
C355 H362 0.930 . S
H356 C353 0.928 . S
H357 C354 0.931 . S
H358 C334 0.930 . S
H359 C331 0.930 . S
H360 C340 0.930 . S
H361 C352 0.929 . S
H362 C355 0.930 . S
C363 C364 1.351 . S
C363 N366 1.368 . S
C363 H368 0.931 . S
C364 C363 1.351 . S
C364 N365 1.373 . S
C364 H392 0.930 . S
N365 C364 1.373 . S
N365 C367 1.340 . S
N366 C363 1.368 . S
N366 C367 1.321 . S
N366 Co369 2.135 . S
C367 N365 1.340 . S
C367 N366 1.321 . S
C367 H391 0.930 . S
H368 C363 0.931 . S
Co369 N366 2.135 . S
Co369 N372 2.121 . S
Co369 O377 2.055 . S
Co369 O380 2.039 . S
Co369 N383 2.140 1_565 S
C370 O371 1.227 1_565 S
C370 O380 1.265 . S
O371 C370 1.227 1_545 S
N372 Co369 2.121 . S
N372 C374 1.375 1_565 S
N372 C375 1.313 . S
C373 C374 1.338 . S
C373 N376 1.377 1_545 S
C373 H393 0.930 . S
C374 N372 1.375 1_545 S
C374 C373 1.338 . S
C374 H378 0.931 . S
C375 N372 1.313 . S
C375 N376 1.344 . S
C375 H379 0.930 . S
N376 C373 1.377 1_565 S
N376 C375 1.344 . S
O377 Co369 2.055 . S
O377 C381 1.253 . S
H378 C374 0.931 . S
H379 C375 0.930 . S
O380 Co369 2.039 . S
O380 C370 1.265 . S
C381 O377 1.253 . S
C381 O382 1.227 . S
O382 C381 1.227 . S
N383 Co369 2.140 1_545 S
N383 C386 1.346 . S
N383 C387 1.345 . S
C384 C385 1.387 . S
C384 C388 1.391 . S
C385 C384 1.387 . S
C385 C386 1.369 . S
C385 H394 0.929 . S
C386 N383 1.346 . S
C386 C385 1.369 . S
C386 H389 0.928 . S
C387 N383 1.345 . S
C387 C388 1.371 . S
C387 H390 0.931 . S
C388 C384 1.391 . S
C388 C387 1.371 . S
C388 H395 0.930 . S
H389 C386 0.928 . S
H390 C387 0.931 . S
H391 C367 0.930 . S
H392 C364 0.930 . S
H393 C373 0.930 . S
H394 C385 0.929 . S
H395 C388 0.930 . S
C396 C397 1.351 . S
C396 N399 1.368 . S
C396 H401 0.931 . S
C397 C396 1.351 . S
C397 N398 1.373 . S
C397 H425 0.930 . S
N398 C397 1.373 . S
N398 C400 1.340 . S
N399 C396 1.368 . S
N399 C400 1.321 . S
N399 Co402 2.135 . S
C400 N398 1.340 . S
C400 N399 1.321 . S
C400 H424 0.930 . S
H401 C396 0.931 . S
Co402 N399 2.135 . S
Co402 N405 2.121 . S
Co402 O410 2.055 . S
Co402 O413 2.039 . S
Co402 N416 2.140 . S
C403 O404 1.227 . S
C403 O413 1.265 . S
O404 C403 1.227 . S
N405 Co402 2.121 . S
N405 C407 1.375 . S
N405 C408 1.313 . S
C406 C407 1.338 . S
C406 N409 1.377 . S
C406 H426 0.930 . S
C407 N405 1.375 . S
C407 C406 1.338 . S
C407 H411 0.931 . S
C408 N405 1.313 . S
C408 N409 1.344 . S
C408 H412 0.930 . S
N409 C406 1.377 . S
N409 C408 1.344 . S
O410 Co402 2.055 . S
O410 C414 1.253 . S
H411 C407 0.931 . S
H412 C408 0.930 . S
O413 Co402 2.039 . S
O413 C403 1.265 . S
C414 O410 1.253 . S
C414 O415 1.227 . S
O415 C414 1.227 . S
N416 Co402 2.140 . S
N416 C419 1.346 . S
N416 C420 1.345 . S
C417 C418 1.387 . S
C417 C421 1.391 . S
C418 C417 1.387 . S
C418 C419 1.369 . S
C418 H427 0.929 . S
C419 N416 1.346 . S
C419 C418 1.369 . S
C419 H422 0.928 . S
C420 N416 1.345 . S
C420 C421 1.371 . S
C420 H423 0.931 . S
C421 C417 1.391 . S
C421 C420 1.371 . S
C421 H428 0.930 . S
H422 C419 0.928 . S
H423 C420 0.931 . S
H424 C400 0.930 . S
H425 C397 0.930 . S
H426 C406 0.930 . S
H427 C418 0.929 . S
H428 C421 0.930 . S
C429 C430 1.351 . S
C429 N432 1.368 . S
C429 H434 0.931 . S
C430 C429 1.351 . S
C430 N431 1.373 . S
C430 H458 0.930 . S
N431 C430 1.373 . S
N431 C433 1.340 . S
N432 C429 1.368 . S
N432 C433 1.321 . S
N432 Co435 2.135 . S
C433 N431 1.340 . S
C433 N432 1.321 . S
C433 H457 0.930 . S
H434 C429 0.931 . S
Co435 N432 2.135 . S
Co435 N438 2.121 . S
Co435 O443 2.055 . S
Co435 O446 2.039 . S
Co435 N449 2.140 . S
C436 O437 1.227 . S
C436 O446 1.265 . S
O437 C436 1.227 . S
N438 Co435 2.121 . S
N438 C440 1.375 . S
N438 C441 1.313 . S
C439 C440 1.338 . S
C439 N442 1.377 . S
C439 H459 0.930 . S
C440 N438 1.375 . S
C440 C439 1.338 . S
C440 H444 0.931 . S
C441 N438 1.313 . S
C441 N442 1.344 . S
C441 H445 0.930 . S
N442 C439 1.377 . S
N442 C441 1.344 . S
O443 Co435 2.055 . S
O443 C447 1.253 . S
H444 C440 0.931 . S
H445 C441 0.930 . S
O446 Co435 2.039 . S
O446 C436 1.265 . S
C447 O443 1.253 . S
C447 O448 1.227 . S
O448 C447 1.227 . S
N449 Co435 2.140 . S
N449 C452 1.346 . S
N449 C453 1.345 . S
C450 C451 1.387 . S
C450 C454 1.391 . S
C451 C450 1.387 . S
C451 C452 1.369 . S
C451 H460 0.929 . S
C452 N449 1.346 . S
C452 C451 1.369 . S
C452 H455 0.928 . S
C453 N449 1.345 . S
C453 C454 1.371 . S
C453 H456 0.931 . S
C454 C450 1.391 . S
C454 C453 1.371 . S
C454 H461 0.930 . S
H455 C452 0.928 . S
H456 C453 0.931 . S
H457 C433 0.930 . S
H458 C430 0.930 . S
H459 C439 0.930 . S
H460 C451 0.929 . S
H461 C454 0.930 . S
C462 C463 1.351 . S
C462 N465 1.368 . S
C462 H467 0.931 . S
C463 C462 1.351 . S
C463 N464 1.373 . S
C463 H491 0.930 . S
N464 C463 1.373 . S
N464 C466 1.340 . S
N465 C462 1.368 . S
N465 C466 1.321 . S
N465 Co468 2.135 . S
C466 N464 1.340 . S
C466 N465 1.321 . S
C466 H490 0.930 . S
H467 C462 0.931 . S
Co468 N465 2.135 . S
Co468 N471 2.121 . S
Co468 O476 2.055 . S
Co468 O479 2.039 . S
Co468 N482 2.140 1_655 S
C469 O470 1.227 1_655 S
C469 O479 1.265 . S
O470 C469 1.227 1_455 S
N471 Co468 2.121 . S
N471 C473 1.375 1_655 S
N471 C474 1.313 . S
C472 C473 1.338 . S
C472 N475 1.377 1_455 S
C472 H492 0.930 . S
C473 N471 1.375 1_455 S
C473 C472 1.338 . S
C473 H477 0.931 . S
C474 N471 1.313 . S
C474 N475 1.344 . S
C474 H478 0.930 . S
N475 C472 1.377 1_655 S
N475 C474 1.344 . S
O476 Co468 2.055 . S
O476 C480 1.253 . S
H477 C473 0.931 . S
H478 C474 0.930 . S
O479 Co468 2.039 . S
O479 C469 1.265 . S
C480 O476 1.253 . S
C480 O481 1.227 . S
O481 C480 1.227 . S
N482 Co468 2.140 1_455 S
N482 C485 1.346 . S
N482 C486 1.345 . S
C483 C484 1.387 . S
C483 C487 1.391 . S
C484 C483 1.387 . S
C484 C485 1.369 . S
C484 H493 0.929 . S
C485 N482 1.346 . S
C485 C484 1.369 . S
C485 H488 0.928 . S
C486 N482 1.345 . S
C486 C487 1.371 . S
C486 H489 0.931 . S
C487 C483 1.391 . S
C487 C486 1.371 . S
C487 H494 0.930 . S
H488 C485 0.928 . S
H489 C486 0.931 . S
H490 C466 0.930 . S
H491 C463 0.930 . S
H492 C472 0.930 . S
H493 C484 0.929 . S
H494 C487 0.930 . S
C495 C496 1.351 . S
C495 N498 1.368 . S
C495 H500 0.931 . S
C496 C495 1.351 . S
C496 N497 1.373 . S
C496 H524 0.930 . S
N497 C496 1.373 . S
N497 C499 1.340 . S
N498 C495 1.368 . S
N498 C499 1.321 . S
N498 Co501 2.135 . S
C499 N497 1.340 . S
C499 N498 1.321 . S
C499 H523 0.930 . S
H500 C495 0.931 . S
Co501 N498 2.135 . S
Co501 N504 2.121 . S
Co501 O509 2.055 . S
Co501 O512 2.039 . S
Co501 N515 2.140 1_565 S
C502 O503 1.227 1_565 S
C502 O512 1.265 . S
O503 C502 1.227 1_545 S
N504 Co501 2.121 . S
N504 C506 1.375 1_565 S
N504 C507 1.313 . S
C505 C506 1.338 . S
C505 N508 1.377 1_545 S
C505 H525 0.930 . S
C506 N504 1.375 1_545 S
C506 C505 1.338 . S
C506 H510 0.931 . S
C507 N504 1.313 . S
C507 N508 1.344 . S
C507 H511 0.930 . S
N508 C505 1.377 1_565 S
N508 C507 1.344 . S
O509 Co501 2.055 . S
O509 C513 1.253 . S
H510 C506 0.931 . S
H511 C507 0.930 . S
O512 Co501 2.039 . S
O512 C502 1.265 . S
C513 O509 1.253 . S
C513 O514 1.227 . S
O514 C513 1.227 . S
N515 Co501 2.140 1_545 S
N515 C518 1.346 . S
N515 C519 1.345 . S
C516 C517 1.387 . S
C516 C520 1.391 . S
C517 C516 1.387 . S
C517 C518 1.369 . S
C517 H526 0.929 . S
C518 N515 1.346 . S
C518 C517 1.369 . S
C518 H521 0.928 . S
C519 N515 1.345 . S
C519 C520 1.371 . S
C519 H522 0.931 . S
C520 C516 1.391 . S
C520 C519 1.371 . S
C520 H527 0.930 . S
H521 C518 0.928 . S
H522 C519 0.931 . S
H523 C499 0.930 . S
H524 C496 0.930 . S
H525 C505 0.930 . S
H526 C517 0.929 . S
H527 C520 0.930 . S
C528 C529 1.369 . S
C528 C530 1.419 1_554 S
C528 H532 0.930 . S
C529 C528 1.369 . S
C529 C538 1.429 . S
C530 C528 1.419 1_556 S
C530 C531 1.363 . S
C530 H533 0.929 . S
C531 C530 1.363 . S
C531 C537 1.428 . S
H532 C528 0.930 . S
H533 C530 0.929 . S
S534 N535 1.613 . S
S534 N536 1.610 1_554 S
N535 S534 1.613 . S
N535 C538 1.350 . S
N536 S534 1.610 1_556 S
N536 C537 1.351 . S
C537 C531 1.428 . S
C537 N536 1.351 . S
C537 C538 1.434 1_556 S
C538 C529 1.429 . S
C538 N535 1.350 . S
C538 C537 1.434 1_554 S
C539 C540 1.369 . S
C539 C541 1.419 . S
C539 H543 0.930 . S
C540 C539 1.369 . S
C540 C549 1.429 . S
C541 C539 1.419 . S
C541 C542 1.363 . S
C541 H544 0.929 . S
C542 C541 1.363 . S
C542 C548 1.428 . S
H543 C539 0.930 . S
H544 C541 0.929 . S
S545 N546 1.613 . S
S545 N547 1.610 . S
N546 S545 1.613 . S
N546 C549 1.350 . S
N547 S545 1.610 . S
N547 C548 1.351 . S
C548 C542 1.428 . S
C548 N547 1.351 . S
C548 C549 1.434 . S
C549 C540 1.429 . S
C549 N546 1.350 . S
C549 C548 1.434 . S
C550 C551 1.369 . S
C550 C552 1.419 1_556 S
C550 H554 0.930 1_455 S
C551 C550 1.369 . S
C551 C560 1.429 . S
C552 C550 1.419 1_554 S
C552 C553 1.363 . S
C552 H555 0.929 1_455 S
C553 C552 1.363 . S
C553 C559 1.428 . S
H554 C550 0.930 1_655 S
H555 C552 0.929 1_655 S
S556 N557 1.613 1_554 S
S556 N558 1.610 . S
N557 S556 1.613 1_556 S
N557 C560 1.350 . S
N558 S556 1.610 . S
N558 C559 1.351 . S
C559 C553 1.428 . S
C559 N558 1.351 . S
C559 C560 1.434 1_554 S
C560 C551 1.429 . S
C560 N557 1.350 . S
C560 C559 1.434 1_556 S
C561 C562 1.369 . S
C561 C563 1.419 . S
C561 H565 0.932 . S
C562 C561 1.369 . S
C562 C571 1.429 . S
C563 C561 1.419 . S
C563 C564 1.363 . S
C563 H566 0.929 . S
C564 C563 1.363 . S
C564 C570 1.428 . S
H565 C561 0.932 . S
H566 C563 0.929 . S
S567 N568 1.613 . S
S567 N569 1.610 . S
N568 S567 1.613 . S
N568 C571 1.350 . S
N569 S567 1.610 . S
N569 C570 1.351 . S
C570 C564 1.428 . S
C570 N569 1.351 . S
C570 C571 1.434 . S
C571 C562 1.429 . S
C571 N568 1.350 . S
C571 C570 1.434 . S
C572 C573 1.369 . S
C572 C574 1.419 1_556 S
C572 H576 0.930 . S
C573 C572 1.369 . S
C573 C582 1.429 . S
C574 C572 1.419 1_554 S
C574 C575 1.363 . S
C574 H577 0.929 . S
C575 C574 1.363 . S
C575 C581 1.428 . S
H576 C572 0.930 . S
H577 C574 0.929 . S
S578 N579 1.613 . S
S578 N580 1.610 1_556 S
N579 S578 1.613 . S
N579 C582 1.350 . S
N580 S578 1.610 1_554 S
N580 C581 1.351 . S
C581 C575 1.428 . S
C581 N580 1.351 . S
C581 C582 1.434 1_554 S
C582 C573 1.429 . S
C582 N579 1.350 . S
C582 C581 1.434 1_556 S
C583 C584 1.369 . S
C583 C585 1.419 . S
C583 H587 0.930 . S
C584 C583 1.369 . S
C584 C593 1.429 . S
C585 C583 1.419 . S
C585 C586 1.363 . S
C585 H588 0.929 . S
C586 C585 1.363 . S
C586 C592 1.428 . S
H587 C583 0.930 . S
H588 C585 0.929 . S
S589 N590 1.613 . S
S589 N591 1.610 . S
N590 S589 1.613 . S
N590 C593 1.350 . S
N591 S589 1.610 . S
N591 C592 1.351 . S
C592 C586 1.428 . S
C592 N591 1.351 . S
C592 C593 1.434 . S
C593 C584 1.429 . S
C593 N590 1.350 . S
C593 C592 1.434 . S
C594 C595 1.369 . S
C594 C596 1.419 1_554 S
C594 H598 0.930 1_655 S
C595 C594 1.369 . S
C595 C604 1.429 . S
C596 C594 1.419 1_556 S
C596 C597 1.363 . S
C596 H599 0.929 1_655 S
C597 C596 1.363 . S
C597 C603 1.428 . S
H598 C594 0.930 1_455 S
H599 C596 0.929 1_455 S
S600 N601 1.613 . S
S600 N602 1.610 1_554 S
N601 S600 1.613 . S
N601 C604 1.350 . S
N602 S600 1.610 1_556 S
N602 C603 1.351 . S
C603 C597 1.428 . S
C603 N602 1.351 . S
C603 C604 1.434 1_556 S
C604 C595 1.429 . S
C604 N601 1.350 . S
C604 C603 1.434 1_554 S
C605 C606 1.384 . S
C605 C607 1.419 . S
C605 H609 0.915 1_565 S
C606 C605 1.384 . S
C606 C615 1.429 . S
C607 C605 1.419 . S
C607 C608 1.375 . S
C607 H610 0.916 1_565 S
C608 C607 1.375 . S
C608 C614 1.428 . S
H609 C605 0.915 1_545 S
H610 C607 0.916 1_545 S
S611 N612 1.613 . S
S611 N613 1.610 . S
N612 S611 1.613 . S
N612 C615 1.350 . S
N613 S611 1.610 . S
N613 C614 1.351 . S
C614 C608 1.428 . S
C614 N613 1.351 . S
C614 C615 1.434 . S
C615 C606 1.429 . S
C615 N612 1.350 . S
C615 C614 1.434 . S
C616 C617 1.369 . S
C616 C618 1.419 . S
C616 H620 0.930 . S
C617 C616 1.369 . S
C617 C626 1.429 . S
C618 C616 1.419 . S
C618 C619 1.363 1_565 S
C618 H621 0.929 . S
C619 C618 1.363 1_545 S
C619 C625 1.428 . S
H620 C616 0.930 . S
H621 C618 0.929 . S
S622 N623 1.613 1_545 S
S622 N624 1.610 . S
N623 S622 1.613 1_565 S
N623 C626 1.350 . S
N624 S622 1.610 . S
N624 C625 1.351 . S
C625 C619 1.428 . S
C625 N624 1.351 . S
C625 C626 1.434 1_545 S
C626 C617 1.429 . S
C626 N623 1.350 . S
C626 C625 1.434 1_565 S
C627 C628 1.369 . S
C627 C629 1.419 . S
C627 H631 0.930 . S
C628 C627 1.369 . S
C628 C637 1.429 . S
C629 C627 1.419 . S
C629 C630 1.363 . S
C629 H632 0.929 . S
C630 C629 1.363 . S
C630 C636 1.428 . S
H631 C627 0.930 . S
H632 C629 0.929 . S
S633 N634 1.613 . S
S633 N635 1.610 . S
N634 S633 1.613 . S
N634 C637 1.350 . S
N635 S633 1.610 . S
N635 C636 1.351 . S
C636 C630 1.428 . S
C636 N635 1.351 . S
C636 C637 1.434 . S
C637 C628 1.429 . S
C637 N634 1.350 . S
C637 C636 1.434 . S
C638 C639 1.369 1_655 S
C638 C640 1.419 . S
C638 H642 0.930 . S
C639 C638 1.369 1_455 S
C639 C648 1.429 . S
C640 C638 1.419 . S
C640 C641 1.363 . S
C640 H643 0.929 . S
C641 C640 1.363 . S
C641 C647 1.428 1_655 S
H642 C638 0.930 . S
H643 C640 0.929 . S
S644 N645 1.613 . S
S644 N646 1.610 . S
N645 S644 1.613 . S
N645 C648 1.350 . S
N646 S644 1.610 . S
N646 C647 1.351 . S
C647 C641 1.428 1_455 S
C647 N646 1.351 . S
C647 C648 1.434 . S
C648 C639 1.429 . S
C648 N645 1.350 . S
C648 C647 1.434 . S
C649 C650 1.369 . S
C649 C651 1.419 1_655 S
C649 H653 0.930 . S
C650 C649 1.369 . S
C650 C659 1.429 1_565 S
C651 C649 1.419 1_455 S
C651 C652 1.363 1_565 S
C651 H654 0.929 . S
C652 C651 1.363 1_545 S
C652 C658 1.428 1_455 S
H653 C649 0.930 . S
H654 C651 0.929 . S
S655 N656 1.613 . S
S655 N657 1.610 . S
N656 S655 1.613 . S
N656 C659 1.350 . S
N657 S655 1.610 . S
N657 C658 1.351 . S
C658 C652 1.428 1_655 S
C658 N657 1.351 . S
C658 C659 1.434 . S
C659 C650 1.429 1_545 S
C659 N656 1.350 . S
C659 C658 1.434 . S
C660 C661 1.369 . S
C660 C662 1.419 . S
C660 H664 0.930 . S
C661 C660 1.369 . S
C661 C670 1.429 . S
C662 C660 1.419 . S
C662 C663 1.363 . S
C662 H665 0.929 . S
C663 C662 1.363 . S
C663 C669 1.428 . S
H664 C660 0.930 . S
H665 C662 0.929 . S
S666 N667 1.613 . S
S666 N668 1.610 . S
N667 S666 1.613 . S
N667 C670 1.350 . S
N668 S666 1.610 . S
N668 C669 1.351 . S
C669 C663 1.428 . S
C669 N668 1.351 . S
C669 C670 1.434 . S
C670 C661 1.429 . S
C670 N667 1.350 . S
C670 C669 1.434 . S
C671 C672 1.369 . S
C671 C673 1.419 1_655 S
C671 H675 0.930 . S
C672 C671 1.369 . S
C672 C681 1.429 . S
C673 C671 1.419 1_455 S
C673 C674 1.363 . S
C673 H676 0.929 . S
C674 C673 1.363 . S
C674 C680 1.428 1_455 S
H675 C671 0.930 . S
H676 C673 0.929 . S
S677 N678 1.613 . S
S677 N679 1.610 . S
N678 S677 1.613 . S
N678 C681 1.350 . S
N679 S677 1.610 . S
N679 C680 1.351 . S
C680 C674 1.428 1_655 S
C680 N679 1.351 . S
C680 C681 1.434 . S
C681 C672 1.429 . S
C681 N678 1.350 . S
C681 C680 1.434 . S
C682 C683 1.369 1_655 S
C682 C684 1.419 1_545 S
C682 H686 0.930 . S
C683 C682 1.369 1_455 S
C683 C692 1.429 1_545 S
C684 C682 1.419 1_565 S
C684 C685 1.363 . S
C684 H687 0.929 . S
C685 C684 1.363 . S
C685 C691 1.428 . S
H686 C682 0.930 . S
H687 C684 0.929 . S
S688 N689 1.613 . S
S688 N690 1.610 . S
N689 S688 1.613 . S
N689 C692 1.350 . S
N690 S688 1.610 . S
N690 C691 1.351 1_455 S
C691 C685 1.428 . S
C691 N690 1.351 1_655 S
C691 C692 1.434 1_655 S
C692 C683 1.429 1_565 S
C692 N689 1.350 . S
C692 C691 1.434 1_455 S
C693 C694 1.369 1_565 S
C693 C695 1.419 . S
C693 H697 0.930 . S
C694 C693 1.369 1_545 S
C694 C703 1.429 . S
C695 C693 1.419 . S
C695 C696 1.363 . S
C695 H698 0.929 . S
C696 C695 1.363 . S
C696 C702 1.428 1_565 S
H697 C693 0.930 . S
H698 C695 0.929 . S
S699 N700 1.613 . S
S699 N701 1.610 . S
N700 S699 1.613 . S
N700 C703 1.350 . S
N701 S699 1.610 . S
N701 C702 1.351 . S
C702 C696 1.428 1_545 S
C702 N701 1.351 . S
C702 C703 1.434 . S
C703 C694 1.429 . S
C703 N700 1.350 . S
C703 C702 1.434 . S
C704 C705 1.369 . S
C704 C706 1.419 1_545 S
C704 H708 0.930 . S
C705 C704 1.369 . S
C705 C714 1.429 . S
C706 C704 1.419 1_565 S
C706 C707 1.363 . S
C706 H709 0.929 . S
C707 C706 1.363 . S
C707 C713 1.428 1_565 S
H708 C704 0.930 . S
H709 C706 0.929 . S
S710 N711 1.613 . S
S710 N712 1.610 . S
N711 S710 1.613 . S
N711 C714 1.350 . S
N712 S710 1.610 . S
N712 C713 1.351 . S
C713 C707 1.428 1_545 S
C713 N712 1.351 . S
C713 C714 1.434 . S
C714 C705 1.429 . S
C714 N711 1.350 . S
C714 C713 1.434 . S
C715 C716 1.369 . S
C715 C717 1.419 . S
C715 H719 0.930 . S
C716 C715 1.369 . S
C716 C725 1.429 . S
C717 C715 1.419 . S
C717 C718 1.363 . S
C717 H720 0.929 . S
C718 C717 1.363 . S
C718 C724 1.428 . S
H719 C715 0.930 . S
H720 C717 0.929 . S
S721 N722 1.613 . S
S721 N723 1.610 . S
N722 S721 1.613 . S
N722 C725 1.350 . S
N723 S721 1.610 . S
N723 C724 1.351 . S
C724 C718 1.428 . S
C724 N723 1.351 . S
C724 C725 1.434 . S
C725 C716 1.429 . S
C725 N722 1.350 . S
C725 C724 1.434 . S
C726 C727 1.369 . S
C726 C728 1.419 . S
C726 H730 0.930 . S
C727 C726 1.369 . S
C727 C736 1.429 1_455 S
C728 C726 1.419 . S
C728 C729 1.363 1_455 S
C728 H731 0.929 . S
C729 C728 1.363 1_655 S
C729 C735 1.428 . S
H730 C726 0.930 . S
H731 C728 0.929 . S
S732 N733 1.613 . S
S732 N734 1.610 . S
N733 S732 1.613 . S
N733 C736 1.350 . S
N734 S732 1.610 . S
N734 C735 1.351 . S
C735 C729 1.428 . S
C735 N734 1.351 . S
C735 C736 1.434 . S
C736 C727 1.429 1_655 S
C736 N733 1.350 . S
C736 C735 1.434 . S
C737 C738 1.375 1_545 S
C737 C739 1.405 1_655 S
C737 H741 0.939 . S
C738 C737 1.375 1_565 S
C738 C747 1.429 1_665 S
C739 C737 1.405 1_455 S
C739 C740 1.363 . S
C739 H742 0.929 . S
C740 C739 1.363 . S
C740 C746 1.428 . S
H741 C737 0.939 . S
H742 C739 0.929 . S
S743 N744 1.606 1_455 S
S743 N745 1.610 . S
N744 S743 1.606 1_655 S
N744 C747 1.348 1_655 S
N745 S743 1.610 . S
N745 C746 1.351 . S
C746 C740 1.428 . S
C746 N745 1.351 . S
C746 C747 1.434 . S
C747 C738 1.429 1_445 S
C747 N744 1.348 1_455 S
C747 C746 1.434 . S
C748 C749 1.369 . S
C748 C750 1.419 . S
C748 H752 0.930 . S
C749 C748 1.369 . S
C749 C758 1.429 . S
C750 C748 1.419 . S
C750 C751 1.363 . S
C750 H753 0.929 . S
C751 C750 1.363 . S
C751 C757 1.428 . S
H752 C748 0.930 . S
H753 C750 0.929 . S
S754 N755 1.613 . S
S754 N756 1.610 . S
N755 S754 1.613 . S
N755 C758 1.350 . S
N756 S754 1.610 . S
N756 C757 1.351 . S
C757 C751 1.428 . S
C757 N756 1.351 . S
C757 C758 1.434 . S
C758 C749 1.429 . S
C758 N755 1.350 . S
C758 C757 1.434 . S
C759 C760 1.369 . S
C759 C761 1.419 1_455 S
C759 H763 0.930 . S
C760 C759 1.369 . S
C760 C769 1.429 . S
C761 C759 1.419 1_655 S
C761 C762 1.363 . S
C761 H764 0.929 . S
C762 C761 1.363 . S
C762 C768 1.428 1_655 S
H763 C759 0.930 . S
H764 C761 0.929 . S
S765 N766 1.613 . S
S765 N767 1.610 . S
N766 S765 1.613 . S
N766 C769 1.350 . S
N767 S765 1.610 . S
N767 C768 1.351 . S
C768 C762 1.428 1_455 S
C768 N767 1.351 . S
C768 C769 1.434 . S
C769 C760 1.429 . S
C769 N766 1.350 . S
C769 C768 1.434 . S
C770 C771 1.369 1_455 S
C770 C772 1.419 1_565 S
C770 H774 0.930 . S
C771 C770 1.369 1_655 S
C771 C780 1.429 1_565 S
C772 C770 1.419 1_545 S
C772 C773 1.363 . S
C772 H775 0.929 . S
C773 C772 1.363 . S
C773 C779 1.428 1_455 S
H774 C770 0.930 . S
H775 C772 0.929 . S
S776 N777 1.613 . S
S776 N778 1.610 . S
N777 S776 1.613 . S
N777 C780 1.350 . S
N778 S776 1.610 . S
N778 C779 1.351 . S
C779 C773 1.428 1_655 S
C779 N778 1.351 . S
C779 C780 1.434 . S
C780 C771 1.429 1_545 S
C780 N777 1.350 . S
C780 C779 1.434 . S
C781 C782 1.369 . S
C781 C783 1.419 . S
C781 H785 0.930 . S
C782 C781 1.369 . S
C782 C791 1.429 . S
C783 C781 1.419 . S
C783 C784 1.363 1_545 S
C783 H786 0.929 . S
C784 C783 1.363 1_565 S
C784 C790 1.428 . S
H785 C781 0.930 . S
H786 C783 0.929 . S
S787 N788 1.613 1_565 S
S787 N789 1.610 . S
N788 S787 1.613 1_545 S
N788 C791 1.350 . S
N789 S787 1.610 . S
N789 C790 1.351 . S
C790 C784 1.428 . S
C790 N789 1.351 . S
C790 C791 1.434 1_565 S
C791 C782 1.429 . S
C791 N788 1.350 . S
C791 C790 1.434 1_545 S
C792 C793 1.369 . S
C792 C794 1.419 . S
C792 H796 0.930 . S
C793 C792 1.369 . S
C793 C802 1.429 . S
C794 C792 1.419 . S
C794 C795 1.363 . S
C794 H797 0.929 . S
C795 C794 1.363 . S
C795 C801 1.428 . S
H796 C792 0.930 . S
H797 C794 0.929 . S
S798 N799 1.613 . S
S798 N800 1.610 . S
N799 S798 1.613 . S
N799 C802 1.350 . S
N800 S798 1.610 . S
N800 C801 1.351 . S
C801 C795 1.428 . S
C801 N800 1.351 . S
C801 C802 1.434 . S
C802 C793 1.429 . S
C802 N799 1.350 . S
C802 C801 1.434 . S
C803 C804 1.369 . S
C803 C805 1.419 . S
C803 H807 0.930 . S
C804 C803 1.369 . S
C804 C813 1.429 . S
C805 C803 1.419 . S
C805 C806 1.363 . S
C805 H808 0.929 . S
C806 C805 1.363 . S
C806 C812 1.428 . S
H807 C803 0.930 . S
H808 C805 0.929 . S
S809 N810 1.613 . S
S809 N811 1.610 . S
N810 S809 1.613 . S
N810 C813 1.350 . S
N811 S809 1.610 . S
N811 C812 1.351 . S
C812 C806 1.428 . S
C812 N811 1.351 . S
C812 C813 1.434 . S
C813 C804 1.429 . S
C813 N810 1.350 . S
C813 C812 1.434 . S
C814 C815 1.369 . S
C814 C816 1.419 . S
C814 H818 0.930 . S
C815 C814 1.369 . S
C815 C824 1.429 . S
C816 C814 1.419 . S
C816 C817 1.363 . S
C816 H819 0.929 . S
C817 C816 1.363 . S
C817 C823 1.428 . S
H818 C814 0.930 . S
H819 C816 0.929 . S
S820 N821 1.613 . S
S820 N822 1.610 . S
N821 S820 1.613 . S
N821 C824 1.350 . S
N822 S820 1.610 . S
N822 C823 1.351 . S
C823 C817 1.428 . S
C823 N822 1.351 . S
C823 C824 1.434 . S
C824 C815 1.429 . S
C824 N821 1.350 . S
C824 C823 1.434 . S
C825 C826 1.369 . S
C825 C827 1.419 . S
C825 H829 0.930 . S
C826 C825 1.369 . S
C826 C835 1.429 . S
C827 C825 1.419 . S
C827 C828 1.363 . S
C827 H830 0.929 . S
C828 C827 1.363 . S
C828 C834 1.428 . S
H829 C825 0.930 . S
H830 C827 0.929 . S
S831 N832 1.613 . S
S831 N833 1.610 . S
N832 S831 1.613 . S
N832 C835 1.350 . S
N833 S831 1.610 . S
N833 C834 1.351 . S
C834 C828 1.428 . S
C834 N833 1.351 . S
C834 C835 1.434 . S
C835 C826 1.429 . S
C835 N832 1.350 . S
C835 C834 1.434 . S
C836 C837 1.369 . S
C836 C838 1.419 . S
C836 H840 0.930 . S
C837 C836 1.369 . S
C837 C846 1.429 . S
C838 C836 1.419 . S
C838 C839 1.363 . S
C838 H841 0.929 . S
C839 C838 1.363 . S
C839 C845 1.428 . S
H840 C836 0.930 . S
H841 C838 0.929 . S
S842 N843 1.613 . S
S842 N844 1.610 . S
N843 S842 1.613 . S
N843 C846 1.350 . S
N844 S842 1.610 . S
N844 C845 1.351 . S
C845 C839 1.428 . S
C845 N844 1.351 . S
C845 C846 1.434 . S
C846 C837 1.429 . S
C846 N843 1.350 . S
C846 C845 1.434 . S
C847 C848 1.369 . S
C847 C849 1.419 . S
C847 H851 0.930 . S
C848 C847 1.369 . S
C848 C857 1.429 . S
C849 C847 1.419 . S
C849 C850 1.363 . S
C849 H852 0.929 . S
C850 C849 1.363 . S
C850 C856 1.428 . S
H851 C847 0.930 . S
H852 C849 0.929 . S
S853 N854 1.613 . S
S853 N855 1.610 . S
N854 S853 1.613 . S
N854 C857 1.350 . S
N855 S853 1.610 . S
N855 C856 1.351 . S
C856 C850 1.428 . S
C856 N855 1.351 . S
C856 C857 1.434 . S
C857 C848 1.429 . S
C857 N854 1.350 . S
C857 C856 1.434 . S
C858 C859 1.369 . S
C858 C860 1.419 . S
C858 H862 0.930 . S
C859 C858 1.369 . S
C859 C868 1.429 . S
C860 C858 1.419 . S
C860 C861 1.363 . S
C860 H863 0.929 . S
C861 C860 1.363 . S
C861 C867 1.428 . S
H862 C858 0.930 . S
H863 C860 0.929 . S
S864 N865 1.613 . S
S864 N866 1.610 . S
N865 S864 1.613 . S
N865 C868 1.350 . S
N866 S864 1.610 . S
N866 C867 1.351 . S
C867 C861 1.428 . S
C867 N866 1.351 . S
C867 C868 1.434 . S
C868 C859 1.429 . S
C868 N865 1.350 . S
C868 C867 1.434 . S
C869 C870 1.369 . S
C869 C871 1.419 . S
C869 H873 0.930 . S
C870 C869 1.369 . S
C870 C879 1.429 . S
C871 C869 1.419 . S
C871 C872 1.363 . S
C871 H874 0.929 . S
C872 C871 1.363 . S
C872 C878 1.428 . S
H873 C869 0.930 . S
H874 C871 0.929 . S
S875 N876 1.613 . S
S875 N877 1.610 . S
N876 S875 1.613 . S
N876 C879 1.350 . S
N877 S875 1.610 . S
N877 C878 1.351 . S
C878 C872 1.428 . S
C878 N877 1.351 . S
C878 C879 1.434 . S
C879 C870 1.429 . S
C879 N876 1.350 . S
C879 C878 1.434 . S
C880 C881 1.369 . S
C880 C882 1.419 . S
C880 H884 0.930 . S
C881 C880 1.369 . S
C881 C890 1.429 . S
C882 C880 1.419 . S
C882 C883 1.363 . S
C882 H885 0.929 . S
C883 C882 1.363 . S
C883 C889 1.428 . S
H884 C880 0.930 . S
H885 C882 0.929 . S
S886 N887 1.613 . S
S886 N888 1.610 . S
N887 S886 1.613 . S
N887 C890 1.350 . S
N888 S886 1.610 . S
N888 C889 1.351 . S
C889 C883 1.428 . S
C889 N888 1.351 . S
C889 C890 1.434 . S
C890 C881 1.429 . S
C890 N887 1.350 . S
C890 C889 1.434 . S
C891 C892 1.369 . S
C891 C893 1.419 . S
C891 H895 0.930 . S
C892 C891 1.369 . S
C892 C901 1.429 . S
C893 C891 1.419 . S
C893 C894 1.363 . S
C893 H896 0.929 . S
C894 C893 1.363 . S
C894 C900 1.428 . S
H895 C891 0.930 . S
H896 C893 0.929 . S
S897 N898 1.613 . S
S897 N899 1.610 . S
N898 S897 1.613 . S
N898 C901 1.350 . S
N899 S897 1.610 . S
N899 C900 1.351 . S
C900 C894 1.428 . S
C900 N899 1.351 . S
C900 C901 1.434 . S
C901 C892 1.429 . S
C901 N898 1.350 . S
C901 C900 1.434 . S
C902 C903 1.369 . S
C902 C904 1.419 . S
C902 H906 0.930 . S
C903 C902 1.369 . S
C903 C912 1.429 . S
C904 C902 1.419 . S
C904 C905 1.363 . S
C904 H907 0.929 . S
C905 C904 1.363 . S
C905 C911 1.428 . S
H906 C902 0.930 . S
H907 C904 0.929 . S
S908 N909 1.613 . S
S908 N910 1.610 . S
N909 S908 1.613 . S
N909 C912 1.350 . S
N910 S908 1.610 . S
N910 C911 1.351 . S
C911 C905 1.428 . S
C911 N910 1.351 . S
C911 C912 1.434 . S
C912 C903 1.429 . S
C912 N909 1.350 . S
C912 C911 1.434 . S
C913 C914 1.369 . S
C913 C915 1.419 . S
C913 H917 0.930 . S
C914 C913 1.369 . S
C914 C923 1.429 . S
C915 C913 1.419 . S
C915 C916 1.363 . S
C915 H918 0.929 . S
C916 C915 1.363 . S
C916 C922 1.428 . S
H917 C913 0.930 . S
H918 C915 0.929 . S
S919 N920 1.613 . S
S919 N921 1.610 . S
N920 S919 1.613 . S
N920 C923 1.350 . S
N921 S919 1.610 . S
N921 C922 1.351 . S
C922 C916 1.428 . S
C922 N921 1.351 . S
C922 C923 1.434 . S
C923 C914 1.429 . S
C923 N920 1.350 . S
C923 C922 1.434 . S
C924 C925 1.369 . S
C924 C926 1.419 . S
C924 H928 0.930 . S
C925 C924 1.369 . S
C925 C934 1.429 . S
C926 C924 1.419 . S
C926 C927 1.363 . S
C926 H929 0.929 . S
C927 C926 1.363 . S
C927 C933 1.428 . S
H928 C924 0.930 . S
H929 C926 0.929 . S
S930 N931 1.613 . S
S930 N932 1.610 . S
N931 S930 1.613 . S
N931 C934 1.350 . S
N932 S930 1.610 . S
N932 C933 1.351 . S
C933 C927 1.428 . S
C933 N932 1.351 . S
C933 C934 1.434 . S
C934 C925 1.429 . S
C934 N931 1.350 . S
C934 C933 1.434 . S
C935 C936 1.369 . S
C935 C937 1.419 . S
C935 H939 0.930 . S
C936 C935 1.369 . S
C936 C945 1.429 . S
C937 C935 1.419 . S
C937 C938 1.363 . S
C937 H940 0.929 . S
C938 C937 1.363 . S
C938 C944 1.428 . S
H939 C935 0.930 . S
H940 C937 0.929 . S
S941 N942 1.613 . S
S941 N943 1.610 . S
N942 S941 1.613 . S
N942 C945 1.350 . S
N943 S941 1.610 . S
N943 C944 1.351 . S
C944 C938 1.428 . S
C944 N943 1.351 . S
C944 C945 1.434 . S
C945 C936 1.429 . S
C945 N942 1.350 . S
C945 C944 1.434 . S
C946 C947 1.369 . S
C946 C948 1.419 . S
C946 H950 0.930 . S
C947 C946 1.369 . S
C947 C956 1.429 . S
C948 C946 1.419 . S
C948 C949 1.363 . S
C948 H951 0.929 . S
C949 C948 1.363 . S
C949 C955 1.428 . S
H950 C946 0.930 . S
H951 C948 0.929 . S
S952 N953 1.613 . S
S952 N954 1.610 . S
N953 S952 1.613 . S
N953 C956 1.350 . S
N954 S952 1.610 . S
N954 C955 1.351 . S
C955 C949 1.428 . S
C955 N954 1.351 . S
C955 C956 1.434 . S
C956 C947 1.429 . S
C956 N953 1.350 . S
C956 C955 1.434 . S
C957 C958 1.369 . S
C957 C959 1.419 . S
C957 H961 0.930 . S
C958 C957 1.369 . S
C958 C967 1.429 . S
C959 C957 1.419 . S
C959 C960 1.363 . S
C959 H962 0.929 . S
C960 C959 1.363 . S
C960 C966 1.428 . S
H961 C957 0.930 . S
H962 C959 0.929 . S
S963 N964 1.613 . S
S963 N965 1.610 . S
N964 S963 1.613 . S
N964 C967 1.350 . S
N965 S963 1.610 . S
N965 C966 1.351 . S
C966 C960 1.428 . S
C966 N965 1.351 . S
C966 C967 1.434 . S
C967 C958 1.429 . S
C967 N964 1.350 . S
C967 C966 1.434 . S
C529 C7 1.514 . S
C531 C139 1.513 . S
C540 C172 1.508 . S
C542 C40 1.509 . S
C551 C205 1.512 . S
C553 C73 1.512 . S
C562 C238 1.513 . S
C564 C106 1.513 . S
C573 C271 1.510 . S
C575 C403 1.511 . S
C584 C304 1.513 . S
C586 C436 1.513 . S
C595 C469 1.512 . S
C597 C337 1.512 . S
C606 C370 1.512 . S
C608 C502 1.513 . S
C617 N398 1.396 . S
C619 N13 1.382 . S
C628 N431 1.397 . S
C630 N46 1.383 . S
C639 N79 1.384 . S
C641 N464 1.395 . S
C650 N497 1.396 . S
C652 N112 1.384 . S
C661 N266 1.400 . S
C663 N145 1.378 . S
C672 N299 1.400 . S
C674 N178 1.379 . S
C683 N211 1.382 . S
C685 N332 1.398 . S
C694 N244 1.384 . S
C696 N365 1.397 . S
C705 N134 1.395 . S
C707 N277 1.384 . S
C716 N167 1.395 . S
C718 N310 1.384 . S
C727 N200 1.395 . S
C729 N343 1.384 . S
C738 N376 1.378 . S
C740 N233 1.399 . S
C749 N2 1.396 . S
C751 N409 1.384 . S
C760 N35 1.395 . S
C762 N442 1.384 . S
C771 N475 1.382 . S
C773 N68 1.398 . S
C782 N101 1.397 . S
C784 N508 1.382 . S
C793 C87 1.404 . S
C795 C21 1.404 . S
C804 C54 1.400 . S
C806 C120 1.401 . S
C815 C219 1.403 . S
C817 C153 1.403 . S
C826 C252 1.400 . S
C828 C186 1.401 . S
C837 C351 1.403 . S
C839 C285 1.403 . S
C848 C384 1.404 . S
C850 C318 1.403 . S
C859 C417 1.402 . S
C861 C483 1.402 . S
C870 C516 1.404 . S
C872 C450 1.404 . S
C881 C249 1.394 . S
C883 C18 1.389 . S
C892 C150 1.394 . S
C894 C51 1.390 . S
C903 C183 1.394 . S
C905 C84 1.389 . S
C914 C216 1.386 . S
C916 C117 1.388 . S
C925 C513 1.393 . S
C927 C282 1.391 . S
C936 C414 1.393 . S
C938 C315 1.387 . S
C947 C447 1.390 . S
C949 C348 1.386 . S
C958 C480 1.391 . S
C960 C381 1.386 . S
