# Generated by pormake.
# Topology cab, (5)-cn, num edge types: 1
# Building blocks:
#     Node 0, Type 0, BuildingBlock: XOMCOT_clean_sbu_1, # of connection points: 5
#     Node 1, Type 0, BuildingBlock: XOMCOT_clean_sbu_1, # of connection points: 5
#     Node 2, Type 0, BuildingBlock: XOMCOT_clean_sbu_1, # of connection points: 5
#     Node 3, Type 0, BuildingBlock: XOMCOT_clean_sbu_1, # of connection points: 5
#     Node 4, Type 0, BuildingBlock: XOMCOT_clean_sbu_1, # of connection points: 5
#     Node 5, Type 0, BuildingBlock: XOMCOT_clean_sbu_1, # of connection points: 5
#     Edge 6, Type (0, 0), BuildingBlock: FUNLAD_clean_linker_1, # of connection points: 2
#     Edge 7, Type (0, 0), BuildingBlock: FUNLAD_clean_linker_1, # of connection points: 2
#     Edge 8, Type (0, 0), BuildingBlock: FUNLAD_clean_linker_1, # of connection points: 2
#     Edge 9, Type (0, 0), BuildingBlock: FUNLAD_clean_linker_1, # of connection points: 2
#     Edge 10, Type (0, 0), BuildingBlock: FUNLAD_clean_linker_1, # of connection points: 2
#     Edge 11, Type (0, 0), BuildingBlock: FUNLAD_clean_linker_1, # of connection points: 2
#     Edge 12, Type (0, 0), BuildingBlock: FUNLAD_clean_linker_1, # of connection points: 2
#     Edge 13, Type (0, 0), BuildingBlock: FUNLAD_clean_linker_1, # of connection points: 2
#     Edge 14, Type (0, 0), BuildingBlock: FUNLAD_clean_linker_1, # of connection points: 2
#     Edge 15, Type (0, 0), BuildingBlock: FUNLAD_clean_linker_1, # of connection points: 2
#     Edge 16, Type (0, 0), BuildingBlock: FUNLAD_clean_linker_1, # of connection points: 2
#     Edge 17, Type (0, 0), BuildingBlock: FUNLAD_clean_linker_1, # of connection points: 2
#     Edge 18, Type (0, 0), BuildingBlock: FUNLAD_clean_linker_1, # of connection points: 2
#     Edge 19, Type (0, 0), BuildingBlock: FUNLAD_clean_linker_1, # of connection points: 2
#     Edge 20, Type (0, 0), BuildingBlock: FUNLAD_clean_linker_1, # of connection points: 2
# Relax obj value: 0.862
# Max RMSD: 0.208
# Mean RMSD: 0.206
data_MOF--net-cab--node1-XOMCOT_clean_sbu_1--edge1-FUNLAD_clean_linker_1
_symmetry_space_group_name_H-M    P1
_symmetry_Int_Tables_number       1
_symmetry_cell_setting            triclinic
loop_
_symmetry_equiv_pos_as_xyz
'x, y, z'
_cell_length_a     37.220699
_cell_length_b     37.308443
_cell_length_c     37.334653
_cell_angle_alpha  80.015188
_cell_angle_beta   69.326347
_cell_angle_gamma 80.156192
loop_
_atom_site_label
_atom_site_type_symbol
_atom_site_fract_x
_atom_site_fract_y
_atom_site_fract_z
_atom_type_partial_charge
C0 C 0.9663 0.95213 0.46302 0.0
C1 C 0.9741 0.91663 0.45437 0.0
N2 N 0.0037 0.91531 0.42095 0.0
N3 N 0.99055 0.97301 0.43479 0.0
C4 C 0.01307 0.94982 0.4095 0.0
H5 H 0.94348 0.96247 0.48755 0.0
Co6 Co 0.98686 0.02316 0.43242 0.0
C7 C 0.05922 0.04679 0.37256 0.0
O8 O 0.05901 0.07298 0.39209 0.0
N9 N 0.98093 0.07483 0.43069 0.0
C10 C 0.97169 0.13263 0.44328 0.0
C11 C 0.97385 0.09643 0.45865 0.0
C12 C 0.98123 0.09893 0.39899 0.0
N13 N 0.97646 0.13412 0.40577 0.0
O14 O 0.95674 0.02871 0.40018 0.0
H15 H 0.97002 0.08729 0.48858 0.0
H16 H 0.98628 0.09053 0.37115 0.0
O17 O 0.0332 0.025 0.38601 0.0
C18 C 0.92015 0.03058 0.41395 0.0
O19 O 0.90281 0.027 0.45147 0.0
N20 N 0.01591 0.01647 0.46531 0.0
C21 C 0.05427 0.02075 0.51524 0.0
C22 C 0.07485 0.00872 0.47933 0.0
C23 C 0.05487 0.00609 0.4548 0.0
C24 C 0.99507 0.02085 0.50272 0.0
C25 C 0.01374 0.02413 0.52819 0.0
H26 H 0.07107 0.99697 0.42709 0.0
H27 H 0.9638 0.02502 0.51179 0.0
H28 H 0.03438 0.95832 0.38223 0.0
H29 H 0.95859 0.89377 0.47072 0.0
H30 H 0.96708 0.15615 0.45846 0.0
H31 H 0.10616 0.00383 0.46929 0.0
H32 H -0.00327 0.03112 0.55681 0.0
C33 C 0.109 0.05722 0.7657 0.0
C34 C 0.07315 0.04528 0.78439 0.0
N35 N 0.06036 0.05367 0.8208 0.0
N36 N 0.11848 0.07319 0.79034 0.0
C37 C 0.08844 0.07048 0.82361 0.0
H38 H 0.1272 0.05409 0.73629 0.0
Co39 Co 0.16401 0.09217 0.78285 0.0
C40 C 0.13805 0.13819 0.84438 0.0
O41 O 0.16452 0.11941 0.85823 0.0
N42 N 0.20932 0.11126 0.7757 0.0
C43 C 0.25315 0.14939 0.76343 0.0
C44 C 0.21602 0.14671 0.76575 0.0
C45 C 0.24255 0.09296 0.77929 0.0
N46 N 0.26966 0.11546 0.77193 0.0
O47 O 0.16909 0.06036 0.82731 0.0
H48 H 0.19495 0.16925 0.76118 0.0
H49 H 0.24657 0.06377 0.7881 0.0
O50 O 0.13481 0.13044 0.81388 0.0
C51 C 0.17645 0.02626 0.82431 0.0
O52 O 0.1828 0.01519 0.79081 0.0
N53 N 0.1597 0.12109 0.73844 0.0
C54 C 0.1524 0.15018 0.66737 0.0
C55 C 0.12311 0.15882 0.70169 0.0
C56 C 0.12733 0.14399 0.73714 0.0
C57 C 0.18974 0.11488 0.70556 0.0
C58 C 0.18731 0.13027 0.66972 0.0
H59 H 0.10338 0.14846 0.76332 0.0
H60 H 0.21513 0.09648 0.70705 0.0
H61 H 0.08793 0.07989 0.8496 0.0
H62 H 0.05784 0.0311 0.77235 0.0
H63 H 0.26616 0.17449 0.75789 0.0
H64 H 0.09578 0.1742 0.70121 0.0
H65 H 0.21161 0.12396 0.64443 0.0
C66 C 0.3823 0.03148 0.12063 0.0
C67 C 0.35162 0.03348 0.15463 0.0
N68 N 0.31869 0.03665 0.14638 0.0
N69 N 0.36853 0.033 0.09138 0.0
C70 C 0.3297 0.03655 0.10802 0.0
H71 H 0.4126 0.02939 0.1174 0.0
Co72 Co 0.39555 0.0321 0.0391 0.0
C73 C 0.36437 0.97161 0.02116 0.0
O74 O 0.39872 0.95707 0.00091 0.0
N75 N 0.42308 0.03171 0.98506 0.0
C76 C 0.46424 0.01916 0.92706 0.0
C77 C 0.45389 0.00879 0.96614 0.0
C78 C 0.41529 0.05543 0.9562 0.0
N79 N 0.43967 0.04827 0.921 0.0
O80 O 0.36063 0.07307 0.02915 0.0
H81 H 0.46746 0.98476 0.97921 0.0
H82 H 0.39191 0.07751 0.96051 0.0
O83 O 0.36062 0.00021 0.03704 0.0
C84 C 0.36769 0.10491 0.0304 0.0
O85 O 0.40053 0.10878 0.03417 0.0
N86 N 0.42993 0.99332 0.0512 0.0
C87 C 0.4863 0.94335 0.07078 0.0
C88 C 0.44859 0.93442 0.08158 0.0
C89 C 0.42053 0.96003 0.07142 0.0
C90 C 0.46582 0.0031 0.04313 0.0
C91 C 0.49488 0.97799 0.05119 0.0
H92 H 0.39109 0.95368 0.08117 0.0
H93 H 0.47198 0.03047 0.02955 0.0
H94 H 0.30973 0.03935 0.09223 0.0
H95 H 0.35341 0.03378 0.18289 0.0
H96 H 0.48679 0.00533 0.90474 0.0
H97 H 0.4408 0.90843 0.09834 0.0
H98 H 0.5234 0.98623 0.044 0.0
C99 C 0.10734 0.35964 0.10039 0.0
C100 C 0.13941 0.33418 0.09816 0.0
N101 N 0.13155 0.30216 0.09224 0.0
N102 N 0.07978 0.34368 0.09549 0.0
C103 C 0.09524 0.30857 0.09123 0.0
H104 H 0.10452 0.38804 0.10472 0.0
Co105 Co 0.03138 0.36466 0.09341 0.0
C106 C 0.02533 0.33515 0.02724 0.0
O107 O 0.00916 0.36666 0.01474 0.0
N108 N 0.98164 0.38486 0.09198 0.0
C109 C 0.92755 0.41835 0.08685 0.0
C110 C 0.96452 0.41945 0.08646 0.0
C111 C 0.95403 0.36356 0.09641 0.0
N112 N 0.92111 0.38312 0.09311 0.0
O113 O 0.00866 0.32871 0.13419 0.0
H114 H 0.97757 0.44424 0.0818 0.0
H115 H 0.95887 0.33397 0.10039 0.0
O116 O 0.03534 0.33203 0.05702 0.0
C117 C 0.0072 0.33158 0.16806 0.0
O118 O 0.01913 0.36036 0.1743 0.0
N119 N 0.05558 0.40036 0.05437 0.0
C120 C 0.10268 0.45323 0.00901 0.0
C121 C 0.10651 0.41906 0.99649 0.0
C122 C 0.08285 0.39277 0.01985 0.0
C123 C 0.05205 0.43333 0.06692 0.0
C124 C 0.07434 0.46057 0.04415 0.0
H125 H 0.08885 0.36558 0.01139 0.0
H126 H 0.03337 0.43774 0.09586 0.0
H127 H 0.0804 0.28806 0.08677 0.0
H128 H 0.16623 0.33897 0.10068 0.0
H129 H 0.90715 0.4416 0.08232 0.0
H130 H 0.12858 0.41213 0.96981 0.0
H131 H 0.07142 0.48626 0.0553 0.0
C132 C 0.72634 0.14159 0.14292 0.0
C133 C 0.7294 0.17807 0.12877 0.0
N134 N 0.76699 0.18155 0.10897 0.0
N135 N 0.76182 0.12244 0.13192 0.0
C136 C 0.7857 0.14746 0.1109 0.0
H137 H 0.70049 0.1304 0.16247 0.0
Co138 Co 0.77835 0.07553 0.15053 0.0
C139 C 0.83077 0.04382 0.07888 0.0
O140 O 0.81754 0.01179 0.09032 0.0
N141 N 0.7962 0.02859 0.17018 0.0
C142 C 0.8044 0.97484 0.20501 0.0
C143 C 0.77768 0.00291 0.19764 0.0
C144 C 0.83409 0.01588 0.16242 0.0
N145 N 0.83987 0.98327 0.18267 0.0
O146 O 0.81467 0.09449 0.16443 0.0
H147 H 0.74692 0.00447 0.21253 0.0
H148 H 0.85736 0.03056 0.14239 0.0
O149 O 0.81681 0.06991 0.09974 0.0
C150 C 0.8002 0.10271 0.1986 0.0
O151 O 0.76288 0.10192 0.21654 0.0
N152 N 0.74008 0.05715 0.14006 0.0
C153 C 0.67798 0.02571 0.13905 0.0
C154 C 0.70757 0.03539 0.10444 0.0
C155 C 0.73819 0.05186 0.10555 0.0
C156 C 0.70969 0.05143 0.17306 0.0
C157 C 0.67865 0.03523 0.17335 0.0
H158 H 0.75987 0.06048 0.07876 0.0
H159 H 0.71009 0.05889 0.19965 0.0
H160 H 0.81691 0.14139 0.10042 0.0
H161 H 0.70624 0.20036 0.13516 0.0
H162 H 0.79802 0.95045 0.22539 0.0
H163 H 0.70701 0.03093 0.07679 0.0
H164 H 0.6556 0.02973 0.20039 0.0
C165 C 0.11635 0.73079 0.04333 0.0
C166 C 0.11861 0.75341 0.00941 0.0
N167 N 0.12723 0.78608 0.01252 0.0
N168 N 0.12388 0.7492 0.06742 0.0
C169 C 0.12989 0.78287 0.04805 0.0
H170 H 0.10981 0.70275 0.04994 0.0
Co171 Co 0.12498 0.73338 0.11691 0.0
C172 C 0.19232 0.76308 0.12034 0.0
O173 O 0.20179 0.73299 0.14072 0.0
N174 N 0.12526 0.71826 0.16798 0.0
C175 C 0.13226 0.69132 0.2239 0.0
C176 C 0.13644 0.68623 0.1868 0.0
C177 C 0.11444 0.74199 0.19446 0.0
N178 N 0.11782 0.72633 0.22853 0.0
O179 O 0.08542 0.772 0.13453 0.0
H180 H 0.14817 0.66087 0.17456 0.0
H181 H 0.1061 0.771 0.18842 0.0
O182 O 0.16339 0.76574 0.10887 0.0
C183 C 0.05065 0.76521 0.145 0.0
O184 O 0.04367 0.73223 0.1437 0.0
N185 N 0.16205 0.69465 0.09784 0.0
C186 C 0.20127 0.63633 0.05643 0.0
C187 C 0.21801 0.66878 0.04964 0.0
C188 C 0.19753 0.69808 0.07027 0.0
C189 C 0.14617 0.66275 0.10563 0.0
C190 C 0.16567 0.63294 0.08608 0.0
H191 H 0.20882 0.72418 0.06161 0.0
H192 H 0.11714 0.66118 0.12583 0.0
H193 H 0.13575 0.8046 0.06012 0.0
H194 H 0.11446 0.74641 0.9843 0.0
H195 H 0.13956 0.67109 0.24558 0.0
H196 H 0.24522 0.67244 0.02665 0.0
H197 H 0.15197 0.6081 0.09282 0.0
H198 H 0.98832 0.27691 0.19162 0.0
C199 C -0.00266 0.30043 0.19836 0.0
H200 H 0.01123 0.32223 0.23989 0.0
H201 H 0.91498 0.20739 0.37246 0.0
H202 H 0.86763 0.2612 0.38196 0.0
H203 H 0.87884 0.31781 0.33636 0.0
H204 H 0.9375 0.32071 0.28076 0.0
C205 C 0.00234 0.29906 0.23245 0.0
C206 C -0.00333 0.2655 0.26071 0.0
C207 C 0.96291 0.26464 0.29367 0.0
C208 C 0.95697 0.23231 0.32044 0.0
C209 C 0.92191 0.23163 0.35204 0.0
C210 C 0.89421 0.26226 0.35762 0.0
C211 C 0.90047 0.29409 0.3319 0.0
C212 C 0.93429 0.29539 0.30016 0.0
H213 H 0.97939 0.19269 0.38878 0.0
C214 C 0.97865 0.16708 0.37901 0.0
H215 H 0.98029 0.14211 0.33175 0.0
H216 H 0.06557 0.25891 0.20121 0.0
H217 H 0.11338 0.20535 0.19167 0.0
H218 H 0.10367 0.14938 0.23846 0.0
H219 H 0.04592 0.1466 0.29486 0.0
C220 C 0.98011 0.16732 0.34252 0.0
C221 C 0.98544 0.20123 0.31457 0.0
C222 C 0.01933 0.2022 0.28158 0.0
C223 C 0.025 0.23443 0.25465 0.0
C224 C 0.05947 0.23496 0.22233 0.0
C225 C 0.08731 0.20445 0.21659 0.0
C226 C 0.08182 0.17295 0.24291 0.0
C227 C 0.04839 0.17171 0.27513 0.0
H228 H 0.85688 0.10229 0.20503 0.0
C229 C 0.82597 0.103 0.22047 0.0
H230 H 0.78236 0.09554 0.27485 0.0
H231 H 0.89588 0.98605 0.34498 0.0
H232 H 0.86293 0.94303 0.32974 0.0
H233 H 0.8196 0.96431 0.29133 0.0
H234 H 0.80844 0.02878 0.26853 0.0
C235 C 0.81287 0.09739 0.2591 0.0
C236 C 0.84005 0.08493 0.28074 0.0
C237 C 0.84575 0.04717 0.29421 0.0
C238 C 0.87067 0.03491 0.31628 0.0
C239 C 0.8766 0.99696 0.32874 0.0
C240 C 0.85806 0.97193 0.31998 0.0
C241 C 0.83364 0.98391 0.29838 0.0
C242 C 0.82745 0.02103 0.28555 0.0
H243 H 0.86591 0.03934 0.40058 0.0
C244 C 0.89711 0.03917 0.38808 0.0
H245 H 0.94446 0.05006 0.33734 0.0
H246 H 0.83625 0.15881 0.2576 0.0
H247 H 0.87133 0.20155 0.27046 0.0
H248 H 0.915 0.18019 0.30828 0.0
H249 H 0.92358 0.11621 0.3342 0.0
C250 C 0.91353 0.04846 0.35002 0.0
C251 C 0.8895 0.06055 0.32492 0.0
C252 C 0.885 0.09806 0.31008 0.0
C253 C 0.86003 0.11032 0.28804 0.0
C254 C 0.85526 0.14802 0.27418 0.0
C255 C 0.8751 0.17284 0.28143 0.0
C256 C 0.89967 0.16082 0.30283 0.0
C257 C 0.90447 0.12399 0.31734 0.0
H258 H -0.00167 0.86412 0.40392 0.0
C259 C 0.0177 0.88447 0.39946 0.0
H260 H 0.07307 0.90075 0.36943 0.0
H261 H 0.06733 0.73002 0.33497 0.0
H262 H 0.05527 0.71171 0.40332 0.0
H263 H 0.05027 0.75694 0.44637 0.0
H264 H 0.05614 0.82101 0.42137 0.0
C265 C 0.05352 0.8807 0.37363 0.0
C266 C 0.0654 0.8521 0.34706 0.0
C267 C 0.06464 0.81438 0.3617 0.0
C268 C 0.07001 0.78792 0.33647 0.0
C269 C 0.06549 0.75099 0.3524 0.0
C270 C 0.05829 0.74013 0.39169 0.0
C271 C 0.0553 0.76562 0.41596 0.0
C272 C 0.0584 0.80234 0.4013 0.0
H273 H 0.12945 0.73715 0.27882 0.0
C274 C 0.11059 0.74482 0.2615 0.0
H275 H 0.06333 0.77967 0.25193 0.0
H276 H 0.07105 0.92206 0.30902 0.0
H277 H 0.08889 0.93946 0.24009 0.0
H278 H 0.10435 0.89289 0.19571 0.0
H279 H 0.10096 0.82867 0.22022 0.0
C280 C 0.0821 0.77275 0.26939 0.0
C281 C 0.07895 0.79901 0.29631 0.0
C282 C 0.08284 0.83634 0.28134 0.0
C283 C 0.07538 0.86301 0.30678 0.0
C284 C 0.07731 0.90037 0.29111 0.0
C285 C 0.08751 0.91085 0.25148 0.0
C286 C 0.09608 0.88465 0.22653 0.0
C287 C 0.09384 0.84783 0.24107 0.0
H288 H 0.25735 0.05599 0.15969 0.0
C289 C 0.27943 0.04218 0.17179 0.0
H290 H 0.29116 0.01602 0.22182 0.0
H291 H 0.1538 0.09439 0.34556 0.0
H292 H 0.20925 0.11484 0.35179 0.0
H293 H 0.27443 0.10206 0.30483 0.0
H294 H 0.28456 0.06809 0.25177 0.0
C295 C 0.2693 0.03016 0.20963 0.0
C296 C 0.22934 0.03906 0.23648 0.0
C297 C 0.22371 0.05999 0.26671 0.0
C298 C 0.1859 0.06852 0.29294 0.0
C299 C 0.18154 0.088 0.32395 0.0
C300 C 0.21323 0.09984 0.32805 0.0
C301 C 0.24993 0.09256 0.30168 0.0
C302 C 0.2553 0.07289 0.27137 0.0
H303 H 0.10159 0.01079 0.33214 0.0
C304 C 0.09296 0.039 0.33834 0.0
H305 H 0.10499 0.09369 0.32315 0.0
H306 H 0.22999 0.99381 0.18546 0.0
H307 H 0.17403 0.97816 0.17527 0.0
H308 H 0.108 0.00133 0.21427 0.0
H309 H 0.09759 0.03823 0.26529 0.0
C310 C 0.11432 0.06559 0.3167 0.0
C311 C 0.1535 0.05728 0.28807 0.0
C312 C 0.15897 0.03782 0.25671 0.0
C313 C 0.19703 0.02723 0.23199 0.0
C314 C 0.20176 0.00461 0.20345 0.0
C315 C 0.16986 0.99514 0.1975 0.0
C316 C 0.13269 0.0079 0.21968 0.0
C317 C 0.12712 0.02888 0.24905 0.0
H318 H 0.12975 0.81477 0.95577 0.0
C319 C 0.1333 0.81703 0.98296 0.0
H320 H 0.14747 0.85176 0.01417 0.0
H321 H 0.22759 0.92228 0.83272 0.0
H322 H 0.27309 0.86699 0.82793 0.0
H323 H 0.2639 0.81689 0.88179 0.0
H324 H 0.2092 0.82184 0.94075 0.0
C325 C 0.14431 0.8481 0.98732 0.0
C326 C 0.15136 0.87915 0.95581 0.0
C327 C 0.18371 0.87592 0.92168 0.0
C328 C 0.18908 0.90486 0.89074 0.0
C329 C 0.22177 0.90097 0.85699 0.0
C330 C 0.24826 0.86943 0.85391 0.0
C331 C 0.24308 0.84123 0.88421 0.0
C332 C 0.21136 0.84434 0.91782 0.0
H333 H 0.17471 0.00837 0.88456 0.0
C334 C 0.17339 0.99945 0.85889 0.0
H335 H 0.16484 0.95636 0.83406 0.0
H336 H 0.08845 0.89514 0.01878 0.0
H337 H 0.04375 0.95107 0.02456 0.0
H338 H 0.05201 0.00085 0.97045 0.0
H339 H 0.10437 0.99481 0.91013 0.0
C340 C 0.16623 0.96515 0.85977 0.0
C341 C 0.16226 0.93709 0.89407 0.0
C342 C 0.1306 0.94089 0.92883 0.0
C343 C 0.12551 0.91199 0.95993 0.0
C344 C 0.09374 0.91629 0.99433 0.0
C345 C 0.06784 0.94823 0.99804 0.0
C346 C 0.07252 0.97626 0.96758 0.0
C347 C 0.10305 0.97256 0.93313 0.0
H348 H 0.46345 0.06315 0.85871 0.0
C349 C 0.43765 0.06516 0.88407 0.0
H350 H 0.37766 0.0813 0.90521 0.0
H351 H 0.33694 0.19274 0.78316 0.0
H352 H 0.3393 0.23414 0.8256 0.0
H353 H 0.37021 0.21248 0.87532 0.0
H354 H 0.39827 0.14899 0.88336 0.0
C355 C 0.40363 0.07977 0.88007 0.0
C356 C 0.39884 0.09482 0.84244 0.0
C357 C 0.38416 0.1322 0.83706 0.0
C358 C 0.36696 0.14475 0.80807 0.0
C359 C 0.35047 0.18176 0.80468 0.0
C360 C 0.35177 0.20584 0.82876 0.0
C361 C 0.36914 0.19365 0.85678 0.0
C362 C 0.38501 0.15721 0.86117 0.0
H363 H 0.30826 0.08006 0.79834 0.0
C364 C 0.30543 0.10535 0.77951 0.0
H365 H 0.33129 0.15253 0.74838 0.0
H366 H 0.42975 0.02204 0.84091 0.0
H367 H 0.43457 0.98355 0.79312 0.0
H368 H 0.40965 0.0076 0.7394 0.0
H369 H 0.37861 0.07052 0.73411 0.0
C370 C 0.33372 0.12724 0.76713 0.0
C371 C 0.36484 0.11969 0.78465 0.0
C372 C 0.38586 0.08433 0.78541 0.0
C373 C 0.40182 0.07122 0.81526 0.0
C374 C 0.41853 0.03421 0.81803 0.0
C375 C 0.42132 0.01166 0.79079 0.0
C376 C 0.4072 0.02515 0.7606 0.0
C377 C 0.38944 0.06105 0.75792 0.0
H378 H 0.09637 0.18818 0.84704 0.0
C379 C 0.1135 0.16979 0.86249 0.0
H380 H 0.13027 0.15892 0.91205 0.0
H381 H 0.10494 0.32182 0.94504 0.0
H382 H 0.17499 0.30989 0.92244 0.0
H383 H 0.20805 0.25297 0.89442 0.0
H384 H 0.17131 0.20775 0.88877 0.0
C385 C 0.11261 0.17676 0.89681 0.0
C386 C 0.09217 0.21131 0.91249 0.0
C387 C 0.11424 0.23751 0.91523 0.0
C388 C 0.09527 0.27009 0.93163 0.0
C389 C 0.11792 0.29614 0.93363 0.0
C390 C 0.15816 0.28978 0.9205 0.0
C391 C 0.17677 0.25775 0.9047 0.0
C392 C 0.15526 0.23194 0.90179 0.0
H393 H 0.05201 0.27945 0.01589 0.0
C394 C 0.03745 0.30425 0.00452 0.0
H395 H 0.02052 0.33069 0.95693 0.0
H396 H 0.04105 0.16619 0.91244 0.0
H397 H 0.97108 0.17866 0.93477 0.0
H398 H 0.93835 0.23606 0.96199 0.0
H399 H 0.97562 0.28131 0.96718 0.0
C400 C 0.03486 0.30646 0.96931 0.0
C401 C 0.05429 0.27602 0.94589 0.0
C402 C 0.03222 0.25066 0.94174 0.0
C403 C 0.05115 0.21794 0.92537 0.0
C404 C 0.02831 0.19203 0.92354 0.0
C405 C 0.98806 0.19873 0.93651 0.0
C406 C 0.96963 0.23102 0.95191 0.0
C407 C 0.9913 0.25672 0.95475 0.0
H408 H 0.87868 0.0731 0.0387 0.0
C409 C 0.86303 0.04985 0.04257 0.0
H410 H 0.85775 0.00496 0.0182 0.0
H411 H 0.97364 0.11729 0.87964 0.0
H412 H 0.91896 0.16472 0.89386 0.0
H413 H 0.85737 0.15211 0.94497 0.0
H414 H 0.85046 0.09238 0.9828 0.0
C415 C 0.87326 0.02827 0.01438 0.0
C416 C 0.90739 0.0341 0.97872 0.0
C417 C 0.91006 0.06857 0.95527 0.0
C418 C 0.94493 0.07534 0.92459 0.0
C419 C 0.94763 0.11056 0.90298 0.0
C420 C 0.91642 0.13799 0.91072 0.0
C421 C 0.8818 0.13093 0.93957 0.0
C422 C 0.87839 0.09662 0.96144 0.0
H423 H 0.00597 0.02959 0.84347 0.0
C424 C 0.02457 0.04496 0.85026 0.0
H425 H 0.03059 0.07166 0.89315 0.0
H426 H 0.91126 0.96386 0.01577 0.0
H427 H 0.96421 0.91543 0.99796 0.0
H428 H 0.02294 0.92631 0.94225 0.0
H429 H 0.02933 0.98594 0.90418 0.0
C430 C 0.01347 0.05525 0.88576 0.0
C431 C 0.97611 0.047 0.91573 0.0
C432 C 0.97236 0.01169 0.93704 0.0
C433 C 0.93816 0.00532 0.96888 0.0
C434 C 0.93609 0.97021 0.99082 0.0
C435 C 0.96637 0.94211 0.98104 0.0
C436 C -0.00057 0.94821 0.94961 0.0
C437 C 0.00266 0.98259 0.92792 0.0
H438 H 0.34672 0.1638 0.02973 0.0
C439 C 0.33817 0.13689 0.03169 0.0
H440 H 0.29124 0.10654 0.04415 0.0
H441 H 0.18123 0.2293 0.14539 0.0
H442 H 0.18668 0.17953 0.19523 0.0
H443 H 0.23073 0.12292 0.17873 0.0
H444 H 0.26964 0.11571 0.11219 0.0
C445 C 0.30072 0.13345 0.03964 0.0
C446 C 0.27089 0.16564 0.04877 0.0
C447 C 0.24797 0.16915 0.08772 0.0
C448 C 0.22238 0.2017 0.09723 0.0
C449 C 0.20069 0.20496 0.13648 0.0
C450 C 0.20366 0.17665 0.1654 0.0
C451 C 0.22847 0.14477 0.15611 0.0
C452 C 0.2506 0.14098 0.1178 0.0
H453 H 0.14303 0.24353 0.08774 0.0
C454 C 0.15606 0.26788 0.08656 0.0
H455 H 0.20865 0.28966 0.0735 0.0
H456 H 0.3064 0.16505 0.97101 0.0
H457 H 0.29768 0.2131 0.92073 0.0
H458 H 0.25359 0.2697 0.93712 0.0
H459 H 0.21762 0.27859 0.00389 0.0
C460 C 0.19458 0.26542 0.07738 0.0
C461 C 0.21949 0.23041 0.06767 0.0
C462 C 0.2409 0.22603 0.02855 0.0
C463 C 0.26655 0.19353 0.01908 0.0
C464 C 0.28699 0.18948 0.97976 0.0
C465 C 0.28218 0.21677 0.95064 0.0
C466 C 0.25729 0.24863 0.95988 0.0
C467 C 0.23687 0.25341 -0.00168 0.0
H468 H 0.30182 0.9673 0.0418 0.0
C469 C 0.33036 0.95217 0.03086 0.0
H470 H 0.36234 0.90047 0.02005 0.0
H471 H 0.19273 0.85711 0.14528 0.0
H472 H 0.20346 0.89154 0.18943 0.0
H473 H 0.25996 0.92587 0.16856 0.0
H474 H 0.30525 0.92689 0.10347 0.0
C475 C 0.33389 0.91581 0.03074 0.0
C476 C 0.29972 0.89515 0.04434 0.0
C477 C 0.2748 0.89338 0.08342 0.0
C478 C 0.24354 0.87187 0.09621 0.0
C479 C 0.21775 0.87198 0.13462 0.0
C480 C 0.22348 0.8917 0.16018 0.0
C481 C 0.25517 0.91118 0.14837 0.0
C482 C 0.28078 0.91186 0.11062 0.0
H483 H 0.24234 0.78885 0.11759 0.0
C484 C 0.21717 0.79268 0.10836 0.0
H485 H 0.18633 0.8271 0.07488 0.0
H486 H 0.33998 0.89484 0.96711 0.0
H487 H 0.32953 0.85928 0.92383 0.0
H488 H 0.27785 0.81892 0.94737 0.0
H489 H 0.23525 0.81492 0.01391 0.0
C490 C 0.21055 0.82324 0.0855 0.0
C491 C 0.23875 0.85047 0.07073 0.0
C492 C 0.26283 0.85297 0.03159 0.0
C493 C 0.29326 0.87549 0.01832 0.0
C494 C 0.31685 0.87763 0.97897 0.0
C495 C 0.31109 0.85747 0.95375 0.0
C496 C 0.28185 0.83489 0.96695 0.0
C497 C 0.25776 0.8327 0.0053 0.0
H498 H 0.81782 0.21036 0.08521 0.0
C499 C 0.78635 0.21403 0.09662 0.0
H500 H 0.73692 0.25229 0.11595 0.0
H501 H 0.83513 0.34066 0.1711 0.0
H502 H 0.78273 0.32554 0.23027 0.0
H503 H 0.73355 0.2885 0.23086 0.0
H504 H 0.73628 0.2665 0.17248 0.0
C505 C 0.76815 0.24778 0.1034 0.0
C506 C 0.79134 0.27755 0.10091 0.0
C507 C 0.78847 0.29103 0.13523 0.0
C508 C 0.81697 0.31209 0.13505 0.0
C509 C 0.8143 0.32434 0.16983 0.0
C510 C 0.78437 0.31592 0.20393 0.0
C511 C 0.75667 0.29509 0.20425 0.0
C512 C 0.7586 0.28262 0.17045 0.0
H513 H 0.86521 0.38895 0.08443 0.0
C514 C 0.88707 0.36973 0.09297 0.0
H515 H 0.90251 0.31446 0.11245 0.0
H516 H 0.79964 0.26354 0.02882 0.0
H517 H 0.85191 0.27912 0.96951 0.0
H518 H 0.90309 0.3132 0.96979 0.0
H519 H 0.90208 0.33236 0.02911 0.0
C520 C 0.88199 0.3341 0.10248 0.0
C521 C 0.84807 0.3196 0.10068 0.0
C522 C 0.84912 0.30885 0.06573 0.0
C523 C 0.8203 0.28831 0.06574 0.0
C524 C 0.8216 0.27822 0.03043 0.0
C525 C 0.85124 0.2872 0.99625 0.0
C526 C 0.88002 0.30645 0.99639 0.0
C527 C 0.87912 0.31725 0.03064 0.0
H528 H 0.98928 0.7875 0.16175 0.0
C529 C 0.01823 0.79422 0.15614 0.0
H530 H 0.05168 0.83585 0.15347 0.0
H531 H 0.88548 0.91558 0.12858 0.0
H532 H 0.91361 0.89484 0.06553 0.0
H533 H 0.97773 0.85819 0.04676 0.0
H534 H 0.01352 0.84138 0.09153 0.0
C535 C 0.02322 0.82861 0.15787 0.0
C536 C 0.98951 0.85742 0.16586 0.0
C537 C 0.96995 0.86865 0.13864 0.0
C538 C 0.93406 0.89143 0.14872 0.0
C539 C 0.91373 0.89983 0.12197 0.0
C540 C 0.92944 0.88785 0.08567 0.0
C541 C 0.96543 0.8671 0.07516 0.0
C542 C 0.98553 0.85744 0.10124 0.0
H543 H 0.90234 0.97292 0.15633 0.0
C544 C 0.87698 0.96204 0.17787 0.0
H545 H 0.85685 0.9165 0.21844 0.0
H546 H 0.02235 0.84435 0.22254 0.0
H547 H -0.00251 0.86978 0.28357 0.0
H548 H 0.93662 0.91167 0.30007 0.0
H549 H 0.90007 0.92813 0.25573 0.0
C550 C 0.88115 0.92808 0.19613 0.0
C551 C 0.91904 0.90476 0.1852 0.0
C552 C 0.94005 0.89556 0.21132 0.0
C553 C 0.97536 0.87177 0.20165 0.0
C554 C 0.99552 0.86252 0.22844 0.0
C555 C 0.98158 0.87692 0.26352 0.0
C556 C 0.94727 0.90049 0.27282 0.0
C557 C 0.92657 0.9097 0.24718 0.0
H558 H 0.11263 0.16713 0.63422 0.0
C559 C 0.14198 0.1548 0.63179 0.0
H560 H 0.18951 0.12026 0.59955 0.0
H561 H 0.06908 0.01568 0.61139 0.0
H562 H 0.09514 0.98514 0.66127 0.0
H563 H 0.14125 0.01335 0.67836 0.0
H564 H 0.1612 0.07224 0.64595 0.0
C565 C 0.16045 0.13367 0.6034 0.0
C566 C 0.1368 0.11536 0.58917 0.0
C567 C 0.1268 0.08003 0.60745 0.0
C568 C 0.10112 0.0633 0.59697 0.0
C569 C 0.08965 0.02906 0.61723 0.0
C570 C 0.10413 0.01133 0.64619 0.0
C571 C 0.13001 0.02724 0.65587 0.0
C572 C 0.14121 0.06118 0.63695 0.0
H573 H 0.10532 0.02145 0.53217 0.0
C574 C 0.07554 0.03338 0.53637 0.0
H575 H 0.03328 0.07778 0.55597 0.0
H576 H 0.1512 0.18264 0.54861 0.0
H577 H 0.12596 0.21303 0.49779 0.0
H578 H 0.08305 0.18318 0.47776 0.0
H579 H 0.06485 0.12308 0.50847 0.0
C580 C 0.06158 0.06335 0.55467 0.0
C581 C 0.08681 0.08134 0.56724 0.0
C582 C 0.09716 0.11648 0.54869 0.0
C583 C 0.12211 0.1336 0.5599 0.0
C584 C 0.13214 0.16862 0.54114 0.0
C585 C 0.11798 0.18626 0.51191 0.0
C586 C 0.09381 0.16945 0.50064 0.0
C587 C 0.0835 0.13495 0.51862 0.0
H588 H 0.61997 0.00765 0.16701 0.0
C589 C 0.64515 0.00712 0.14087 0.0
H590 H 0.67026 0.98539 0.08752 0.0
H591 H 0.56185 0.86214 0.12617 0.0
H592 H 0.62434 0.82619 0.12014 0.0
H593 H 0.6809 0.85608 0.1138 0.0
H594 H 0.6756 0.92196 0.11298 0.0
C595 C 0.64489 0.98899 0.11291 0.0
C596 C 0.61062 0.97091 0.11751 0.0
C597 C 0.61424 0.93229 0.11856 0.0
C598 C 0.58165 0.91495 0.12254 0.0
C599 C 0.58596 0.8765 0.12291 0.0
C600 C 0.62153 0.85561 0.11968 0.0
C601 C 0.65337 0.87245 0.11613 0.0
C602 C 0.64995 0.91032 0.11562 0.0
H603 H 0.54488 0.918 0.06232 0.0
C604 C 0.51622 0.91991 0.0841 0.0
H605 H 0.48563 0.92351 0.14254 0.0
H606 H 0.59438 0.04609 0.11139 0.0
H607 H 0.53155 0.08112 0.12031 0.0
H608 H 0.47376 0.05026 0.1339 0.0
H609 H 0.47876 0.9844 0.13784 0.0
C610 C 0.51406 0.92028 0.12065 0.0
C611 C 0.54551 0.93612 0.12607 0.0
C612 C 0.54132 0.9745 0.12727 0.0
C613 C 0.57422 0.99211 0.12139 0.0
C614 C 0.57005 0.03094 0.11813 0.0
C615 C 0.53414 0.05152 0.12271 0.0
C616 C 0.50166 0.03418 0.13023 0.0
C617 C 0.50503 0.99621 0.13236 0.0
H618 H 0.25022 0.60166 0.01876 0.0
C619 C 0.21894 0.60748 0.03048 0.0
H620 H 0.16525 0.59828 0.02912 0.0
H621 H 0.17448 0.51427 0.90735 0.0
H622 H 0.1675 0.57544 0.87229 0.0
H623 H 0.18077 0.62934 0.89377 0.0
H624 H 0.20112 0.62245 0.95037 0.0
C625 C 0.19622 0.58967 0.02037 0.0
C626 C 0.20984 0.55902 0.99648 0.0
C627 C 0.20003 0.56325 0.96258 0.0
C628 C 0.1924 0.53239 0.95023 0.0
C629 C 0.18043 0.53731 0.91761 0.0
C630 C 0.17647 0.57205 0.8974 0.0
C631 C 0.18394 0.60242 0.90951 0.0
C632 C 0.19543 0.59823 0.9419 0.0
H633 H 0.11974 0.50872 0.99442 0.0
C634 C 0.13015 0.4804 0.98902 0.0
H635 H 0.18004 0.44239 0.97087 0.0
H636 H 0.23987 0.54031 0.05548 0.0
H637 H 0.25319 0.47879 0.0856 0.0
H638 H 0.24119 0.42501 0.06303 0.0
H639 H 0.21553 0.43262 0.01027 0.0
C640 C 0.16852 0.47091 0.9736 0.0
C641 C 0.19465 0.49763 0.97196 0.0
C642 C 0.2124 0.49238 0.00065 0.0
C643 C 0.21965 0.52335 0.01338 0.0
C644 C 0.23403 0.51779 0.04452 0.0
C645 C 0.24187 0.48258 0.06201 0.0
C646 C 0.2351 0.45229 0.04931 0.0
C647 C 0.22028 0.457 0.01914 0.0
loop_
_geom_bond_atom_site_label_1
_geom_bond_atom_site_label_2
_geom_bond_distance
_geom_bond_site_symmetry_2
_ccdc_geom_bond_type
C0 C1 1.351 . S
C0 N3 1.368 1_655 S
C0 H5 0.931 . S
C1 C0 1.351 . S
C1 N2 1.373 1_655 S
C1 H29 0.930 . S
N2 C1 1.373 1_455 S
N2 C4 1.340 . S
N3 C0 1.368 1_455 S
N3 C4 1.321 . S
N3 Co6 2.135 1_565 S
C4 N2 1.340 . S
C4 N3 1.321 . S
C4 H28 0.930 . S
H5 C0 0.931 . S
Co6 N3 2.135 1_545 S
Co6 N9 2.121 . S
Co6 O14 2.055 1_455 S
Co6 O17 2.039 . S
Co6 N20 2.140 . S
C7 O8 1.227 1_545 S
C7 O17 1.265 . S
O8 C7 1.227 1_565 S
N9 Co6 2.121 . S
N9 C11 1.375 . S
N9 C12 1.313 1_455 S
C10 C11 1.338 . S
C10 N13 1.377 . S
C10 H30 0.930 . S
C11 N9 1.375 . S
C11 C10 1.338 . S
C11 H15 0.931 . S
C12 N9 1.313 1_655 S
C12 N13 1.344 1_655 S
C12 H16 0.930 . S
N13 C10 1.377 . S
N13 C12 1.344 1_455 S
O14 Co6 2.055 1_655 S
O14 C18 1.253 . S
H15 C11 0.931 . S
H16 C12 0.930 . S
O17 Co6 2.039 . S
O17 C7 1.265 . S
C18 O14 1.253 . S
C18 O19 1.227 . S
O19 C18 1.227 . S
N20 Co6 2.140 . S
N20 C23 1.346 1_545 S
N20 C24 1.345 1_455 S
C21 C22 1.387 1_545 S
C21 C25 1.391 1_455 S
C22 C21 1.387 1_565 S
C22 C23 1.369 . S
C22 H31 0.929 . S
C23 N20 1.346 1_565 S
C23 C22 1.369 . S
C23 H26 0.928 . S
C24 N20 1.345 1_655 S
C24 C25 1.371 . S
C24 H27 0.931 . S
C25 C21 1.391 1_655 S
C25 C24 1.371 . S
C25 H32 0.930 . S
H26 C23 0.928 . S
H27 C24 0.931 . S
H28 C4 0.930 . S
H29 C1 0.930 . S
H30 C10 0.930 . S
H31 C22 0.929 . S
H32 C25 0.930 . S
C33 C34 1.351 . S
C33 N36 1.368 . S
C33 H38 0.931 . S
C34 C33 1.351 . S
C34 N35 1.373 . S
C34 H62 0.930 . S
N35 C34 1.373 . S
N35 C37 1.340 . S
N36 C33 1.368 . S
N36 C37 1.321 . S
N36 Co39 2.135 . S
C37 N35 1.340 . S
C37 N36 1.321 . S
C37 H61 0.930 . S
H38 C33 0.931 . S
Co39 N36 2.135 . S
Co39 N42 2.121 . S
Co39 O47 2.055 . S
Co39 O50 2.039 . S
Co39 N53 2.140 . S
C40 O41 1.227 . S
C40 O50 1.265 . S
O41 C40 1.227 . S
N42 Co39 2.121 . S
N42 C44 1.375 . S
N42 C45 1.313 . S
C43 C44 1.338 . S
C43 N46 1.377 . S
C43 H63 0.930 . S
C44 N42 1.375 . S
C44 C43 1.338 . S
C44 H48 0.931 . S
C45 N42 1.313 . S
C45 N46 1.344 . S
C45 H49 0.930 . S
N46 C43 1.377 . S
N46 C45 1.344 . S
O47 Co39 2.055 . S
O47 C51 1.253 . S
H48 C44 0.931 . S
H49 C45 0.930 . S
O50 Co39 2.039 . S
O50 C40 1.265 . S
C51 O47 1.253 . S
C51 O52 1.227 . S
O52 C51 1.227 . S
N53 Co39 2.140 . S
N53 C56 1.346 . S
N53 C57 1.345 . S
C54 C55 1.387 . S
C54 C58 1.391 . S
C55 C54 1.387 . S
C55 C56 1.369 . S
C55 H64 0.929 . S
C56 N53 1.346 . S
C56 C55 1.369 . S
C56 H59 0.928 . S
C57 N53 1.345 . S
C57 C58 1.371 . S
C57 H60 0.931 . S
C58 C54 1.391 . S
C58 C57 1.371 . S
C58 H65 0.930 . S
H59 C56 0.928 . S
H60 C57 0.931 . S
H61 C37 0.930 . S
H62 C34 0.930 . S
H63 C43 0.930 . S
H64 C55 0.929 . S
H65 C58 0.930 . S
C66 C67 1.351 . S
C66 N69 1.368 . S
C66 H71 0.931 . S
C67 C66 1.351 . S
C67 N68 1.373 . S
C67 H95 0.930 . S
N68 C67 1.373 . S
N68 C70 1.340 . S
N69 C66 1.368 . S
N69 C70 1.321 . S
N69 Co72 2.135 . S
C70 N68 1.340 . S
C70 N69 1.321 . S
C70 H94 0.930 1_545 S
H71 C66 0.931 . S
Co72 N69 2.135 . S
Co72 N75 2.121 1_554 S
Co72 O80 2.055 . S
Co72 O83 2.039 1_545 S
Co72 N86 2.140 . S
C73 O74 1.227 . S
C73 O83 1.265 . S
O74 C73 1.227 . S
N75 Co72 2.121 1_556 S
N75 C77 1.375 1_545 S
N75 C78 1.313 . S
C76 C77 1.338 . S
C76 N79 1.377 1_565 S
C76 H96 0.930 . S
C77 N75 1.375 1_565 S
C77 C76 1.338 . S
C77 H81 0.931 . S
C78 N75 1.313 . S
C78 N79 1.344 . S
C78 H82 0.930 . S
N79 C76 1.377 1_545 S
N79 C78 1.344 . S
O80 Co72 2.055 . S
O80 C84 1.253 . S
H81 C77 0.931 . S
H82 C78 0.930 . S
O83 Co72 2.039 1_565 S
O83 C73 1.265 . S
C84 O80 1.253 . S
C84 O85 1.227 1_554 S
O85 C84 1.227 1_556 S
N86 Co72 2.140 . S
N86 C89 1.346 . S
N86 C90 1.345 1_554 S
C87 C88 1.387 . S
C87 C91 1.391 1_554 S
C88 C87 1.387 . S
C88 C89 1.369 . S
C88 H97 0.929 1_545 S
C89 N86 1.346 . S
C89 C88 1.369 . S
C89 H92 0.928 1_545 S
C90 N86 1.345 1_556 S
C90 C91 1.371 . S
C90 H93 0.931 . S
C91 C87 1.391 1_556 S
C91 C90 1.371 . S
C91 H98 0.930 . S
H92 C89 0.928 1_565 S
H93 C90 0.931 . S
H94 C70 0.930 1_565 S
H95 C67 0.930 . S
H96 C76 0.930 . S
H97 C88 0.929 1_565 S
H98 C91 0.930 . S
C99 C100 1.351 . S
C99 N102 1.368 . S
C99 H104 0.931 . S
C100 C99 1.351 . S
C100 N101 1.373 . S
C100 H128 0.930 . S
N101 C100 1.373 . S
N101 C103 1.340 . S
N102 C99 1.368 . S
N102 C103 1.321 . S
N102 Co105 2.135 . S
C103 N101 1.340 . S
C103 N102 1.321 . S
C103 H127 0.930 1_554 S
H104 C99 0.931 . S
Co105 N102 2.135 . S
Co105 N108 2.121 1_455 S
Co105 O113 2.055 . S
Co105 O116 2.039 1_554 S
Co105 N119 2.140 . S
C106 O107 1.227 . S
C106 O116 1.265 . S
O107 C106 1.227 . S
N108 Co105 2.121 1_655 S
N108 C110 1.375 . S
N108 C111 1.313 . S
C109 C110 1.338 . S
C109 N112 1.377 . S
C109 H129 0.930 . S
C110 N108 1.375 . S
C110 C109 1.338 . S
C110 H114 0.931 1_554 S
C111 N108 1.313 . S
C111 N112 1.344 . S
C111 H115 0.930 . S
N112 C109 1.377 . S
N112 C111 1.344 . S
O113 Co105 2.055 . S
O113 C117 1.253 . S
H114 C110 0.931 1_556 S
H115 C111 0.930 . S
O116 Co105 2.039 1_556 S
O116 C106 1.265 . S
C117 O113 1.253 . S
C117 O118 1.227 . S
O118 C117 1.227 . S
N119 Co105 2.140 . S
N119 C122 1.346 . S
N119 C123 1.345 . S
C120 C121 1.387 . S
C120 C124 1.391 . S
C121 C120 1.387 . S
C121 C122 1.369 . S
C121 H130 0.929 . S
C122 N119 1.346 . S
C122 C121 1.369 . S
C122 H125 0.928 . S
C123 N119 1.345 . S
C123 C124 1.371 . S
C123 H126 0.931 1_455 S
C124 C120 1.391 . S
C124 C123 1.371 . S
C124 H131 0.930 1_455 S
H125 C122 0.928 . S
H126 C123 0.931 1_655 S
H127 C103 0.930 1_556 S
H128 C100 0.930 . S
H129 C109 0.930 . S
H130 C121 0.929 . S
H131 C124 0.930 1_655 S
C132 C133 1.351 . S
C132 N135 1.368 . S
C132 H137 0.931 . S
C133 C132 1.351 . S
C133 N134 1.373 . S
C133 H161 0.930 . S
N134 C133 1.373 . S
N134 C136 1.340 . S
N135 C132 1.368 . S
N135 C136 1.321 . S
N135 Co138 2.135 . S
C136 N134 1.340 . S
C136 N135 1.321 . S
C136 H160 0.930 . S
H137 C132 0.931 . S
Co138 N135 2.135 . S
Co138 N141 2.121 . S
Co138 O146 2.055 . S
Co138 O149 2.039 . S
Co138 N152 2.140 . S
C139 O140 1.227 . S
C139 O149 1.265 . S
O140 C139 1.227 . S
N141 Co138 2.121 . S
N141 C143 1.375 . S
N141 C144 1.313 . S
C142 C143 1.338 1_565 S
C142 N145 1.377 . S
C142 H162 0.930 . S
C143 N141 1.375 . S
C143 C142 1.338 1_545 S
C143 H147 0.931 . S
C144 N141 1.313 . S
C144 N145 1.344 1_545 S
C144 H148 0.930 . S
N145 C142 1.377 . S
N145 C144 1.344 1_565 S
O146 Co138 2.055 . S
O146 C150 1.253 . S
H147 C143 0.931 . S
H148 C144 0.930 . S
O149 Co138 2.039 . S
O149 C139 1.265 . S
C150 O146 1.253 . S
C150 O151 1.227 . S
O151 C150 1.227 . S
N152 Co138 2.140 . S
N152 C155 1.346 . S
N152 C156 1.345 . S
C153 C154 1.387 . S
C153 C157 1.391 . S
C154 C153 1.387 . S
C154 C155 1.369 . S
C154 H163 0.929 . S
C155 N152 1.346 . S
C155 C154 1.369 . S
C155 H158 0.928 . S
C156 N152 1.345 . S
C156 C157 1.371 . S
C156 H159 0.931 . S
C157 C153 1.391 . S
C157 C156 1.371 . S
C157 H164 0.930 . S
H158 C155 0.928 . S
H159 C156 0.931 . S
H160 C136 0.930 . S
H161 C133 0.930 . S
H162 C142 0.930 . S
H163 C154 0.929 . S
H164 C157 0.930 . S
C165 C166 1.351 . S
C165 N168 1.368 . S
C165 H170 0.931 . S
C166 C165 1.351 . S
C166 N167 1.373 . S
C166 H194 0.930 . S
N167 C166 1.373 . S
N167 C169 1.340 . S
N168 C165 1.368 . S
N168 C169 1.321 . S
N168 Co171 2.135 . S
C169 N167 1.340 . S
C169 N168 1.321 . S
C169 H193 0.930 . S
H170 C165 0.931 . S
Co171 N168 2.135 . S
Co171 N174 2.121 . S
Co171 O179 2.055 . S
Co171 O182 2.039 . S
Co171 N185 2.140 . S
C172 O173 1.227 . S
C172 O182 1.265 . S
O173 C172 1.227 . S
N174 Co171 2.121 . S
N174 C176 1.375 . S
N174 C177 1.313 . S
C175 C176 1.338 . S
C175 N178 1.377 . S
C175 H195 0.930 . S
C176 N174 1.375 . S
C176 C175 1.338 . S
C176 H180 0.931 . S
C177 N174 1.313 . S
C177 N178 1.344 . S
C177 H181 0.930 . S
N178 C175 1.377 . S
N178 C177 1.344 . S
O179 Co171 2.055 . S
O179 C183 1.253 . S
H180 C176 0.931 . S
H181 C177 0.930 . S
O182 Co171 2.039 . S
O182 C172 1.265 . S
C183 O179 1.253 . S
C183 O184 1.227 . S
O184 C183 1.227 . S
N185 Co171 2.140 . S
N185 C188 1.346 . S
N185 C189 1.345 . S
C186 C187 1.387 . S
C186 C190 1.391 . S
C187 C186 1.387 . S
C187 C188 1.369 . S
C187 H196 0.929 . S
C188 N185 1.346 . S
C188 C187 1.369 . S
C188 H191 0.928 . S
C189 N185 1.345 . S
C189 C190 1.371 . S
C189 H192 0.931 . S
C190 C186 1.391 . S
C190 C189 1.371 . S
C190 H197 0.930 . S
H191 C188 0.928 . S
H192 C189 0.931 . S
H193 C169 0.930 . S
H194 C166 0.930 . S
H195 C175 0.930 . S
H196 C187 0.929 . S
H197 C190 0.930 . S
H198 C199 0.951 1_655 S
C199 H198 0.951 1_455 S
C199 C205 1.265 . S
H200 C205 0.950 . S
H201 C209 0.949 . S
H202 C210 0.950 . S
H203 C211 0.951 . S
H204 C212 0.951 . S
C205 C199 1.265 . S
C205 H200 0.950 . S
C205 C206 1.478 . S
C206 C205 1.478 . S
C206 C207 1.397 . S
C206 C223 1.394 1_455 S
C207 C206 1.397 . S
C207 C208 1.438 . S
C207 C212 1.429 . S
C208 C207 1.438 . S
C208 C209 1.428 . S
C208 C221 1.394 1_455 S
C209 H201 0.949 . S
C209 C208 1.428 . S
C209 C210 1.345 . S
C210 H202 0.950 . S
C210 C209 1.345 . S
C210 C211 1.424 . S
C211 H203 0.951 . S
C211 C210 1.424 . S
C211 C212 1.347 . S
C212 H204 0.951 . S
C212 C207 1.429 . S
C212 C211 1.347 . S
H213 C214 0.951 1_455 S
C214 H213 0.951 1_655 S
C214 C220 1.265 . S
H215 C220 0.950 . S
H216 C224 0.951 . S
H217 C225 0.950 . S
H218 C226 0.951 . S
H219 C227 0.951 . S
C220 C214 1.265 . S
C220 H215 0.950 . S
C220 C221 1.478 . S
C221 C208 1.394 1_655 S
C221 C220 1.478 . S
C221 C222 1.397 . S
C222 C221 1.397 . S
C222 C223 1.438 . S
C222 C227 1.429 . S
C223 C206 1.394 1_655 S
C223 C222 1.438 . S
C223 C224 1.428 . S
C224 H216 0.951 . S
C224 C223 1.428 . S
C224 C225 1.345 . S
C225 H217 0.950 . S
C225 C224 1.345 . S
C225 C226 1.424 . S
C226 H218 0.951 . S
C226 C225 1.424 . S
C226 C227 1.347 . S
C227 H219 0.951 . S
C227 C222 1.429 . S
C227 C226 1.347 . S
H228 C229 0.951 . S
C229 H228 0.951 . S
C229 C235 1.265 . S
H230 C235 0.950 . S
H231 C239 0.949 . S
H232 C240 0.950 . S
H233 C241 0.951 . S
H234 C242 0.951 . S
C235 C229 1.265 . S
C235 H230 0.950 . S
C235 C236 1.478 . S
C236 C235 1.478 . S
C236 C237 1.397 . S
C236 C253 1.394 . S
C237 C236 1.397 . S
C237 C238 1.438 . S
C237 C242 1.429 1_545 S
C238 C237 1.438 . S
C238 C239 1.428 1_545 S
C238 C251 1.394 . S
C239 H231 0.949 . S
C239 C238 1.428 1_565 S
C239 C240 1.345 . S
C240 H232 0.950 . S
C240 C239 1.345 . S
C240 C241 1.424 . S
C241 H233 0.951 . S
C241 C240 1.424 . S
C241 C242 1.347 . S
C242 H234 0.951 . S
C242 C237 1.429 1_565 S
C242 C241 1.347 . S
H243 C244 0.951 . S
C244 H243 0.951 . S
C244 C250 1.265 . S
H245 C250 0.950 . S
H246 C254 0.949 . S
H247 C255 0.950 . S
H248 C256 0.951 . S
H249 C257 0.951 . S
C250 C244 1.265 . S
C250 H245 0.950 . S
C250 C251 1.478 . S
C251 C238 1.394 . S
C251 C250 1.478 . S
C251 C252 1.397 . S
C252 C251 1.397 . S
C252 C253 1.438 . S
C252 C257 1.429 . S
C253 C236 1.394 . S
C253 C252 1.438 . S
C253 C254 1.428 . S
C254 H246 0.949 . S
C254 C253 1.428 . S
C254 C255 1.345 . S
C255 H247 0.950 . S
C255 C254 1.345 . S
C255 C256 1.424 . S
C256 H248 0.951 . S
C256 C255 1.424 . S
C256 C257 1.347 . S
C257 H249 0.951 . S
C257 C252 1.429 . S
C257 C256 1.347 . S
H258 C259 0.951 . S
C259 H258 0.951 . S
C259 C265 1.265 . S
H260 C265 0.950 . S
H261 C269 0.949 . S
H262 C270 0.950 . S
H263 C271 0.951 . S
H264 C272 0.951 . S
C265 C259 1.265 . S
C265 H260 0.950 . S
C265 C266 1.478 . S
C266 C265 1.478 . S
C266 C267 1.397 . S
C266 C283 1.394 . S
C267 C266 1.397 . S
C267 C268 1.438 . S
C267 C272 1.429 . S
C268 C267 1.438 . S
C268 C269 1.428 . S
C268 C281 1.394 . S
C269 H261 0.949 . S
C269 C268 1.428 . S
C269 C270 1.345 . S
C270 H262 0.950 . S
C270 C269 1.345 . S
C270 C271 1.424 . S
C271 H263 0.951 . S
C271 C270 1.424 . S
C271 C272 1.347 . S
C272 H264 0.951 . S
C272 C267 1.429 . S
C272 C271 1.347 . S
H273 C274 0.951 . S
C274 H273 0.951 . S
C274 C280 1.265 . S
H275 C280 0.950 . S
H276 C284 0.949 . S
H277 C285 0.950 . S
H278 C286 0.951 . S
H279 C287 0.951 . S
C280 C274 1.265 . S
C280 H275 0.950 . S
C280 C281 1.478 . S
C281 C268 1.394 . S
C281 C280 1.478 . S
C281 C282 1.397 . S
C282 C281 1.397 . S
C282 C283 1.438 . S
C282 C287 1.429 . S
C283 C266 1.394 . S
C283 C282 1.438 . S
C283 C284 1.428 . S
C284 H276 0.949 . S
C284 C283 1.428 . S
C284 C285 1.345 . S
C285 H277 0.950 . S
C285 C284 1.345 . S
C285 C286 1.424 . S
C286 H278 0.951 . S
C286 C285 1.424 . S
C286 C287 1.347 . S
C287 H279 0.951 . S
C287 C282 1.429 . S
C287 C286 1.347 . S
H288 C289 0.951 . S
C289 H288 0.951 . S
C289 C295 1.265 1_545 S
H290 C295 0.950 . S
H291 C299 0.949 . S
H292 C300 0.950 . S
H293 C301 0.951 . S
H294 C302 0.951 . S
C295 C289 1.265 1_565 S
C295 H290 0.950 . S
C295 C296 1.478 1_565 S
C296 C295 1.478 1_545 S
C296 C297 1.397 . S
C296 C313 1.394 1_545 S
C297 C296 1.397 . S
C297 C298 1.438 . S
C297 C302 1.429 . S
C298 C297 1.438 . S
C298 C299 1.428 . S
C298 C311 1.394 . S
C299 H291 0.949 . S
C299 C298 1.428 . S
C299 C300 1.345 . S
C300 H292 0.950 . S
C300 C299 1.345 . S
C300 C301 1.424 . S
C301 H293 0.951 . S
C301 C300 1.424 . S
C301 C302 1.347 . S
C302 H294 0.951 . S
C302 C297 1.429 . S
C302 C301 1.347 . S
H303 C304 0.951 1_565 S
C304 H303 0.951 1_545 S
C304 C310 1.265 . S
H305 C310 0.950 . S
H306 C314 0.949 . S
H307 C315 0.950 . S
H308 C316 0.951 . S
H309 C317 0.951 . S
C310 C304 1.265 . S
C310 H305 0.950 . S
C310 C311 1.478 . S
C311 C298 1.394 . S
C311 C310 1.478 . S
C311 C312 1.397 1_545 S
C312 C311 1.397 1_565 S
C312 C313 1.438 . S
C312 C317 1.429 . S
C313 C296 1.394 1_565 S
C313 C312 1.438 . S
C313 C314 1.428 . S
C314 H306 0.949 . S
C314 C313 1.428 . S
C314 C315 1.345 . S
C315 H307 0.950 . S
C315 C314 1.345 . S
C315 C316 1.424 . S
C316 H308 0.951 . S
C316 C315 1.424 . S
C316 C317 1.347 . S
C317 H309 0.951 . S
C317 C312 1.429 . S
C317 C316 1.347 . S
H318 C319 0.951 . S
C319 H318 0.951 . S
C319 C325 1.265 . S
H320 C325 0.950 . S
H321 C329 0.949 . S
H322 C330 0.950 . S
H323 C331 0.951 . S
H324 C332 0.951 . S
C325 C319 1.265 . S
C325 H320 0.950 . S
C325 C326 1.478 . S
C326 C325 1.478 . S
C326 C327 1.397 . S
C326 C343 1.394 . S
C327 C326 1.397 . S
C327 C328 1.438 . S
C327 C332 1.429 . S
C328 C327 1.438 . S
C328 C329 1.428 . S
C328 C341 1.394 . S
C329 H321 0.949 . S
C329 C328 1.428 . S
C329 C330 1.345 . S
C330 H322 0.950 . S
C330 C329 1.345 . S
C330 C331 1.424 . S
C331 H323 0.951 . S
C331 C330 1.424 . S
C331 C332 1.347 . S
C332 H324 0.951 . S
C332 C327 1.429 . S
C332 C331 1.347 . S
H333 C334 0.951 . S
C334 H333 0.951 . S
C334 C340 1.265 . S
H335 C340 0.950 . S
H336 C344 0.949 . S
H337 C345 0.950 . S
H338 C346 0.951 . S
H339 C347 0.951 . S
C340 C334 1.265 . S
C340 H335 0.950 . S
C340 C341 1.478 . S
C341 C328 1.394 . S
C341 C340 1.478 . S
C341 C342 1.397 . S
C342 C341 1.397 . S
C342 C343 1.438 . S
C342 C347 1.429 . S
C343 C326 1.394 . S
C343 C342 1.438 . S
C343 C344 1.428 1_556 S
C344 H336 0.949 . S
C344 C343 1.428 1_554 S
C344 C345 1.345 . S
C345 H337 0.950 . S
C345 C344 1.345 . S
C345 C346 1.424 . S
C346 H338 0.951 . S
C346 C345 1.424 . S
C346 C347 1.347 1_554 S
C347 H339 0.951 . S
C347 C342 1.429 . S
C347 C346 1.347 1_556 S
H348 C349 0.951 . S
C349 H348 0.951 . S
C349 C355 1.265 . S
H350 C355 0.950 . S
H351 C359 0.949 . S
H352 C360 0.950 . S
H353 C361 0.951 . S
H354 C362 0.951 . S
C355 C349 1.265 . S
C355 H350 0.950 . S
C355 C356 1.478 . S
C356 C355 1.478 . S
C356 C357 1.397 . S
C356 C373 1.394 . S
C357 C356 1.397 . S
C357 C358 1.438 . S
C357 C362 1.429 . S
C358 C357 1.438 . S
C358 C359 1.428 . S
C358 C371 1.394 . S
C359 H351 0.949 . S
C359 C358 1.428 . S
C359 C360 1.345 . S
C360 H352 0.950 . S
C360 C359 1.345 . S
C360 C361 1.424 . S
C361 H353 0.951 . S
C361 C360 1.424 . S
C361 C362 1.347 . S
C362 H354 0.951 . S
C362 C357 1.429 . S
C362 C361 1.347 . S
H363 C364 0.951 . S
C364 H363 0.951 . S
C364 C370 1.265 . S
H365 C370 0.950 . S
H366 C374 0.949 . S
H367 C375 0.950 . S
H368 C376 0.951 . S
H369 C377 0.951 . S
C370 C364 1.265 . S
C370 H365 0.950 . S
C370 C371 1.478 . S
C371 C358 1.394 . S
C371 C370 1.478 . S
C371 C372 1.397 . S
C372 C371 1.397 . S
C372 C373 1.438 . S
C372 C377 1.429 1_545 S
C373 C356 1.394 . S
C373 C372 1.438 . S
C373 C374 1.428 1_545 S
C374 H366 0.949 . S
C374 C373 1.428 1_565 S
C374 C375 1.345 . S
C375 H367 0.950 . S
C375 C374 1.345 . S
C375 C376 1.424 . S
C376 H368 0.951 . S
C376 C375 1.424 . S
C376 C377 1.347 . S
C377 H369 0.951 . S
C377 C372 1.429 1_565 S
C377 C376 1.347 . S
H378 C379 0.951 . S
C379 H378 0.951 . S
C379 C385 1.265 . S
H380 C385 0.950 . S
H381 C389 0.949 . S
H382 C390 0.950 . S
H383 C391 0.951 . S
H384 C392 0.951 . S
C385 C379 1.265 . S
C385 H380 0.950 . S
C385 C386 1.478 . S
C386 C385 1.478 . S
C386 C387 1.397 . S
C386 C403 1.394 . S
C387 C386 1.397 . S
C387 C388 1.438 . S
C387 C392 1.429 . S
C388 C387 1.438 . S
C388 C389 1.428 . S
C388 C401 1.394 . S
C389 H381 0.949 . S
C389 C388 1.428 . S
C389 C390 1.345 . S
C390 H382 0.950 . S
C390 C389 1.345 . S
C390 C391 1.424 . S
C391 H383 0.951 . S
C391 C390 1.424 . S
C391 C392 1.347 . S
C392 H384 0.951 . S
C392 C387 1.429 . S
C392 C391 1.347 . S
H393 C394 0.951 . S
C394 H393 0.951 . S
C394 C400 1.265 . S
H395 C400 0.950 . S
H396 C404 0.949 . S
H397 C405 0.950 . S
H398 C406 0.951 . S
H399 C407 0.951 . S
C400 C394 1.265 . S
C400 H395 0.950 . S
C400 C401 1.478 . S
C401 C388 1.394 . S
C401 C400 1.478 . S
C401 C402 1.397 . S
C402 C401 1.397 . S
C402 C403 1.438 . S
C402 C407 1.429 . S
C403 C386 1.394 . S
C403 C402 1.438 . S
C403 C404 1.428 . S
C404 H396 0.949 . S
C404 C403 1.428 . S
C404 C405 1.345 . S
C405 H397 0.950 . S
C405 C404 1.345 . S
C405 C406 1.424 . S
C406 H398 0.951 . S
C406 C405 1.424 . S
C406 C407 1.347 . S
C407 H399 0.951 . S
C407 C402 1.429 . S
C407 C406 1.347 . S
H408 C409 0.951 . S
C409 H408 0.951 . S
C409 C415 1.265 . S
H410 C415 0.950 . S
H411 C419 0.949 . S
H412 C420 0.950 . S
H413 C421 0.951 . S
H414 C422 0.951 . S
C415 C409 1.265 . S
C415 H410 0.950 . S
C415 C416 1.478 1_554 S
C416 C415 1.478 1_556 S
C416 C417 1.397 . S
C416 C433 1.394 . S
C417 C416 1.397 . S
C417 C418 1.438 . S
C417 C422 1.429 . S
C418 C417 1.438 . S
C418 C419 1.428 . S
C418 C431 1.394 . S
C419 H411 0.949 . S
C419 C418 1.428 . S
C419 C420 1.345 . S
C420 H412 0.950 . S
C420 C419 1.345 . S
C420 C421 1.424 . S
C421 H413 0.951 . S
C421 C420 1.424 . S
C421 C422 1.347 . S
C422 H414 0.951 . S
C422 C417 1.429 . S
C422 C421 1.347 . S
H423 C424 0.951 1_655 S
C424 H423 0.951 1_455 S
C424 C430 1.265 . S
H425 C430 0.950 . S
H426 C434 0.949 . S
H427 C435 0.950 1_565 S
H428 C436 0.951 1_465 S
H429 C437 0.951 1_455 S
C430 C424 1.265 . S
C430 H425 0.950 . S
C430 C431 1.478 1_455 S
C431 C418 1.394 . S
C431 C430 1.478 1_655 S
C431 C432 1.397 . S
C432 C431 1.397 . S
C432 C433 1.438 . S
C432 C437 1.429 . S
C433 C416 1.394 . S
C433 C432 1.438 . S
C433 C434 1.428 1_556 S
C434 H426 0.949 . S
C434 C433 1.428 1_554 S
C434 C435 1.345 . S
C435 H427 0.950 1_545 S
C435 C434 1.345 . S
C435 C436 1.424 1_554 S
C436 H428 0.951 1_645 S
C436 C435 1.424 1_556 S
C436 C437 1.347 . S
C437 H429 0.951 1_655 S
C437 C432 1.429 . S
C437 C436 1.347 . S
H438 C439 0.951 . S
C439 H438 0.951 . S
C439 C445 1.265 1_556 S
H440 C445 0.950 . S
H441 C449 0.949 . S
H442 C450 0.950 . S
H443 C451 0.951 . S
H444 C452 0.951 . S
C445 C439 1.265 1_554 S
C445 H440 0.950 . S
C445 C446 1.478 . S
C446 C445 1.478 . S
C446 C447 1.397 . S
C446 C463 1.394 1_554 S
C447 C446 1.397 . S
C447 C448 1.438 . S
C447 C452 1.429 . S
C448 C447 1.438 . S
C448 C449 1.428 . S
C448 C461 1.394 . S
C449 H441 0.949 . S
C449 C448 1.428 . S
C449 C450 1.345 . S
C450 H442 0.950 . S
C450 C449 1.345 . S
C450 C451 1.424 . S
C451 H443 0.951 . S
C451 C450 1.424 . S
C451 C452 1.347 . S
C452 H444 0.951 . S
C452 C447 1.429 . S
C452 C451 1.347 . S
H453 C454 0.951 . S
C454 H453 0.951 . S
C454 C460 1.265 . S
H455 C460 0.950 1_556 S
H456 C464 0.949 . S
H457 C465 0.950 . S
H458 C466 0.951 . S
H459 C467 0.951 . S
C460 C454 1.265 . S
C460 H455 0.950 1_554 S
C460 C461 1.478 . S
C461 C448 1.394 . S
C461 C460 1.478 . S
C461 C462 1.397 1_554 S
C462 C461 1.397 1_556 S
C462 C463 1.438 . S
C462 C467 1.429 . S
C463 C446 1.394 1_556 S
C463 C462 1.438 . S
C463 C464 1.428 . S
C464 H456 0.949 . S
C464 C463 1.428 . S
C464 C465 1.345 . S
C465 H457 0.950 . S
C465 C464 1.345 . S
C465 C466 1.424 . S
C466 H458 0.951 . S
C466 C465 1.424 . S
C466 C467 1.347 . S
C467 H459 0.951 . S
C467 C462 1.429 . S
C467 C466 1.347 . S
H468 C469 0.951 . S
C469 H468 0.951 . S
C469 C475 1.265 . S
H470 C475 0.950 . S
H471 C479 0.949 . S
H472 C480 0.950 . S
H473 C481 0.951 . S
H474 C482 0.951 . S
C475 C469 1.265 . S
C475 H470 0.950 . S
C475 C476 1.478 . S
C476 C475 1.478 . S
C476 C477 1.397 . S
C476 C493 1.394 . S
C477 C476 1.397 . S
C477 C478 1.438 . S
C477 C482 1.429 . S
C478 C477 1.438 . S
C478 C479 1.428 . S
C478 C491 1.394 . S
C479 H471 0.949 . S
C479 C478 1.428 . S
C479 C480 1.345 . S
C480 H472 0.950 . S
C480 C479 1.345 . S
C480 C481 1.424 . S
C481 H473 0.951 . S
C481 C480 1.424 . S
C481 C482 1.347 . S
C482 H474 0.951 . S
C482 C477 1.429 . S
C482 C481 1.347 . S
H483 C484 0.951 . S
C484 H483 0.951 . S
C484 C490 1.265 . S
H485 C490 0.950 . S
H486 C494 0.949 . S
H487 C495 0.950 . S
H488 C496 0.951 . S
H489 C497 0.951 . S
C490 C484 1.265 . S
C490 H485 0.950 . S
C490 C491 1.478 . S
C491 C478 1.394 . S
C491 C490 1.478 . S
C491 C492 1.397 . S
C492 C491 1.397 . S
C492 C493 1.438 . S
C492 C497 1.429 . S
C493 C476 1.394 . S
C493 C492 1.438 . S
C493 C494 1.430 1_554 S
C494 H486 0.949 . S
C494 C493 1.430 1_556 S
C494 C495 1.343 . S
C495 H487 0.950 . S
C495 C494 1.343 . S
C495 C496 1.424 . S
C496 H488 0.951 . S
C496 C495 1.424 . S
C496 C497 1.347 1_556 S
C497 H489 0.951 . S
C497 C492 1.429 . S
C497 C496 1.347 1_554 S
H498 C499 0.951 . S
C499 H498 0.951 . S
C499 C505 1.265 . S
H500 C505 0.950 . S
H501 C509 0.949 . S
H502 C510 0.950 . S
H503 C511 0.951 . S
H504 C512 0.951 . S
C505 C499 1.265 . S
C505 H500 0.950 . S
C505 C506 1.478 . S
C506 C505 1.478 . S
C506 C507 1.397 . S
C506 C523 1.394 . S
C507 C506 1.397 . S
C507 C508 1.438 . S
C507 C512 1.429 . S
C508 C507 1.438 . S
C508 C509 1.428 . S
C508 C521 1.394 . S
C509 H501 0.949 . S
C509 C508 1.428 . S
C509 C510 1.345 . S
C510 H502 0.950 . S
C510 C509 1.345 . S
C510 C511 1.424 . S
C511 H503 0.951 . S
C511 C510 1.424 . S
C511 C512 1.347 . S
C512 H504 0.951 . S
C512 C507 1.429 . S
C512 C511 1.347 . S
H513 C514 0.951 . S
C514 H513 0.951 . S
C514 C520 1.265 . S
H515 C520 0.950 . S
H516 C524 0.949 . S
H517 C525 0.950 . S
H518 C526 0.951 1_556 S
H519 C527 0.951 . S
C520 C514 1.265 . S
C520 H515 0.950 . S
C520 C521 1.478 . S
C521 C508 1.394 . S
C521 C520 1.478 . S
C521 C522 1.397 . S
C522 C521 1.397 . S
C522 C523 1.438 . S
C522 C527 1.429 . S
C523 C506 1.394 . S
C523 C522 1.438 . S
C523 C524 1.428 . S
C524 H516 0.949 . S
C524 C523 1.428 . S
C524 C525 1.345 . S
C525 H517 0.950 . S
C525 C524 1.345 . S
C525 C526 1.424 . S
C526 H518 0.951 1_554 S
C526 C525 1.424 . S
C526 C527 1.347 . S
C527 H519 0.951 . S
C527 C522 1.429 . S
C527 C526 1.347 . S
H528 C529 0.951 . S
C529 H528 0.951 . S
C529 C535 1.265 . S
H530 C535 0.950 . S
H531 C539 0.949 . S
H532 C540 0.950 . S
H533 C541 0.951 . S
H534 C542 0.951 1_455 S
C535 C529 1.265 . S
C535 H530 0.950 . S
C535 C536 1.478 1_455 S
C536 C535 1.478 1_655 S
C536 C537 1.397 . S
C536 C553 1.394 . S
C537 C536 1.397 . S
C537 C538 1.438 . S
C537 C542 1.429 . S
C538 C537 1.438 . S
C538 C539 1.428 . S
C538 C551 1.394 . S
C539 H531 0.949 . S
C539 C538 1.428 . S
C539 C540 1.345 . S
C540 H532 0.950 . S
C540 C539 1.345 . S
C540 C541 1.424 . S
C541 H533 0.951 . S
C541 C540 1.424 . S
C541 C542 1.347 . S
C542 H534 0.951 1_655 S
C542 C537 1.429 . S
C542 C541 1.347 . S
H543 C544 0.951 . S
C544 H543 0.951 . S
C544 C550 1.265 . S
H545 C550 0.950 . S
H546 C554 0.949 . S
H547 C555 0.950 . S
H548 C556 0.951 . S
H549 C557 0.951 . S
C550 C544 1.265 . S
C550 H545 0.950 . S
C550 C551 1.478 . S
C551 C538 1.394 . S
C551 C550 1.478 . S
C551 C552 1.397 . S
C552 C551 1.397 . S
C552 C553 1.438 . S
C552 C557 1.429 . S
C553 C536 1.394 . S
C553 C552 1.438 . S
C553 C554 1.428 . S
C554 H546 0.949 . S
C554 C553 1.428 . S
C554 C555 1.345 . S
C555 H547 0.950 . S
C555 C554 1.345 . S
C555 C556 1.424 . S
C556 H548 0.951 . S
C556 C555 1.424 . S
C556 C557 1.347 . S
C557 H549 0.951 . S
C557 C552 1.429 . S
C557 C556 1.347 . S
H558 C559 0.951 . S
C559 H558 0.951 . S
C559 C565 1.265 . S
H560 C565 0.950 . S
H561 C569 0.949 . S
H562 C570 0.950 . S
H563 C571 0.951 . S
H564 C572 0.951 . S
C565 C559 1.265 . S
C565 H560 0.950 . S
C565 C566 1.478 . S
C566 C565 1.478 . S
C566 C567 1.397 . S
C566 C583 1.394 . S
C567 C566 1.397 . S
C567 C568 1.438 . S
C567 C572 1.429 1_545 S
C568 C567 1.438 . S
C568 C569 1.428 1_545 S
C568 C581 1.394 . S
C569 H561 0.949 . S
C569 C568 1.428 1_565 S
C569 C570 1.345 . S
C570 H562 0.950 . S
C570 C569 1.345 . S
C570 C571 1.424 . S
C571 H563 0.951 . S
C571 C570 1.424 . S
C571 C572 1.347 . S
C572 H564 0.951 . S
C572 C567 1.429 1_565 S
C572 C571 1.347 . S
H573 C574 0.951 . S
C574 H573 0.951 . S
C574 C580 1.265 . S
H575 C580 0.950 . S
H576 C584 0.949 . S
H577 C585 0.950 . S
H578 C586 0.951 . S
H579 C587 0.951 . S
C580 C574 1.265 . S
C580 H575 0.950 . S
C580 C581 1.478 . S
C581 C568 1.394 . S
C581 C580 1.478 . S
C581 C582 1.397 . S
C582 C581 1.397 . S
C582 C583 1.438 . S
C582 C587 1.429 . S
C583 C566 1.394 . S
C583 C582 1.438 . S
C583 C584 1.428 . S
C584 H576 0.949 . S
C584 C583 1.428 . S
C584 C585 1.345 . S
C585 H577 0.950 . S
C585 C584 1.345 . S
C585 C586 1.424 . S
C586 H578 0.951 . S
C586 C585 1.424 . S
C586 C587 1.347 . S
C587 H579 0.951 . S
C587 C582 1.429 . S
C587 C586 1.347 . S
H588 C589 0.951 . S
C589 H588 0.951 . S
C589 C595 1.265 . S
H590 C595 0.950 . S
H591 C599 0.949 . S
H592 C600 0.950 . S
H593 C601 0.951 . S
H594 C602 0.939 1_545 S
C595 C589 1.265 . S
C595 H590 0.950 . S
C595 C596 1.478 . S
C596 C595 1.478 . S
C596 C597 1.397 . S
C596 C613 1.394 . S
C597 C596 1.397 . S
C597 C598 1.438 . S
C597 C602 1.409 1_545 S
C598 C597 1.438 . S
C598 C599 1.428 1_545 S
C598 C611 1.394 . S
C599 H591 0.949 . S
C599 C598 1.428 1_565 S
C599 C600 1.345 . S
C600 H592 0.950 . S
C600 C599 1.345 . S
C600 C601 1.424 . S
C601 H593 0.951 . S
C601 C600 1.424 . S
C601 C602 1.379 . S
C602 H594 0.939 1_565 S
C602 C597 1.409 1_565 S
C602 C601 1.379 . S
H603 C604 0.951 . S
C604 H603 0.951 . S
C604 C610 1.265 . S
H605 C610 0.950 . S
H606 C614 0.949 . S
H607 C615 0.950 . S
H608 C616 0.951 . S
H609 C617 0.951 . S
C610 C604 1.265 . S
C610 H605 0.950 . S
C610 C611 1.478 . S
C611 C598 1.394 . S
C611 C610 1.478 . S
C611 C612 1.397 . S
C612 C611 1.397 . S
C612 C613 1.438 . S
C612 C617 1.429 . S
C613 C596 1.394 . S
C613 C612 1.438 . S
C613 C614 1.428 . S
C614 H606 0.949 . S
C614 C613 1.428 . S
C614 C615 1.345 . S
C615 H607 0.950 . S
C615 C614 1.345 . S
C615 C616 1.424 . S
C616 H608 0.951 . S
C616 C615 1.424 . S
C616 C617 1.347 . S
C617 H609 0.951 . S
C617 C612 1.429 . S
C617 C616 1.347 . S
H618 C619 0.951 . S
C619 H618 0.951 . S
C619 C625 1.265 . S
H620 C625 0.950 . S
H621 C629 0.949 . S
H622 C630 0.950 . S
H623 C631 0.951 1_556 S
H624 C632 0.951 . S
C625 C619 1.265 . S
C625 H620 0.950 . S
C625 C626 1.478 . S
C626 C625 1.478 . S
C626 C627 1.397 . S
C626 C643 1.394 . S
C627 C626 1.397 . S
C627 C628 1.438 . S
C627 C632 1.429 . S
C628 C627 1.438 . S
C628 C629 1.428 . S
C628 C641 1.394 . S
C629 H621 0.949 . S
C629 C628 1.428 . S
C629 C630 1.345 1_554 S
C630 H622 0.950 . S
C630 C629 1.345 1_556 S
C630 C631 1.424 1_556 S
C631 H623 0.951 1_554 S
C631 C630 1.424 1_554 S
C631 C632 1.347 . S
C632 H624 0.951 . S
C632 C627 1.429 . S
C632 C631 1.347 . S
H633 C634 0.951 . S
C634 H633 0.951 . S
C634 C640 1.265 . S
H635 C640 0.950 . S
H636 C644 0.949 . S
H637 C645 0.950 . S
H638 C646 0.951 . S
H639 C647 0.951 . S
C640 C634 1.265 . S
C640 H635 0.950 . S
C640 C641 1.478 . S
C641 C628 1.394 . S
C641 C640 1.478 . S
C641 C642 1.397 . S
C642 C641 1.397 . S
C642 C643 1.438 . S
C642 C647 1.429 . S
C643 C626 1.394 . S
C643 C642 1.438 . S
C643 C644 1.428 . S
C644 H636 0.949 . S
C644 C643 1.428 . S
C644 C645 1.345 . S
C645 H637 0.950 . S
C645 C644 1.345 . S
C645 C646 1.424 . S
C646 H638 0.951 . S
C646 C645 1.424 . S
C646 C647 1.347 . S
C647 H639 0.951 . S
C647 C642 1.429 . S
C647 C646 1.347 . S
C199 C117 1.525 . S
C214 N13 1.269 1_655 S
C229 C150 0.603 . S
C244 C18 0.752 . S
C259 N2 0.503 . S
C274 N178 0.554 . S
C289 N68 1.095 . S
C304 C7 1.344 . S
C319 N167 1.140 1_556 S
C334 C51 1.407 1_565 S
C349 N79 0.769 . S
C364 N46 0.496 . S
C379 C40 0.800 . S
C394 C106 0.803 . S
C409 C139 1.374 . S
C424 N35 1.272 . S
C439 C84 1.389 1_556 S
C454 N101 1.114 . S
C469 C73 0.828 . S
C484 C172 0.929 . S
C499 N134 0.462 . S
C514 N112 0.733 . S
C529 C183 1.510 . S
C544 N145 1.244 . S
C559 C54 1.006 . S
C574 C21 1.007 . S
C589 C153 1.143 . S
C604 C87 1.143 . S
C619 C186 1.124 . S
C634 C120 1.121 . S
