# Generated by pormake.
# Topology wns, (7)-cn, num edge types: 1
# Building blocks:
#     Node 0, Type 0, BuildingBlock: NUHQUE_clean_sbu_2, # of connection points: 7
#     Node 1, Type 0, BuildingBlock: NUHQUE_clean_sbu_2, # of connection points: 7
#     Node 2, Type 0, BuildingBlock: NUHQUE_clean_sbu_2, # of connection points: 7
#     Node 3, Type 0, BuildingBlock: NUHQUE_clean_sbu_2, # of connection points: 7
#     Node 4, Type 0, BuildingBlock: NUHQUE_clean_sbu_2, # of connection points: 7
#     Node 5, Type 0, BuildingBlock: NUHQUE_clean_sbu_2, # of connection points: 7
#     Node 6, Type 0, BuildingBlock: NUHQUE_clean_sbu_2, # of connection points: 7
#     Node 7, Type 0, BuildingBlock: NUHQUE_clean_sbu_2, # of connection points: 7
#     Node 8, Type 0, BuildingBlock: NUHQUE_clean_sbu_2, # of connection points: 7
#     Node 9, Type 0, BuildingBlock: NUHQUE_clean_sbu_2, # of connection points: 7
#     Node 10, Type 0, BuildingBlock: NUHQUE_clean_sbu_2, # of connection points: 7
#     Node 11, Type 0, BuildingBlock: NUHQUE_clean_sbu_2, # of connection points: 7
#     Edge 12, Type (0, 0), BuildingBlock: ZUJKAS_clean_linker_0, # of connection points: 2
#     Edge 13, Type (0, 0), BuildingBlock: ZUJKAS_clean_linker_0, # of connection points: 2
#     Edge 14, Type (0, 0), BuildingBlock: ZUJKAS_clean_linker_0, # of connection points: 2
#     Edge 15, Type (0, 0), BuildingBlock: ZUJKAS_clean_linker_0, # of connection points: 2
#     Edge 16, Type (0, 0), BuildingBlock: ZUJKAS_clean_linker_0, # of connection points: 2
#     Edge 17, Type (0, 0), BuildingBlock: ZUJKAS_clean_linker_0, # of connection points: 2
#     Edge 18, Type (0, 0), BuildingBlock: ZUJKAS_clean_linker_0, # of connection points: 2
#     Edge 19, Type (0, 0), BuildingBlock: ZUJKAS_clean_linker_0, # of connection points: 2
#     Edge 20, Type (0, 0), BuildingBlock: ZUJKAS_clean_linker_0, # of connection points: 2
#     Edge 21, Type (0, 0), BuildingBlock: ZUJKAS_clean_linker_0, # of connection points: 2
#     Edge 22, Type (0, 0), BuildingBlock: ZUJKAS_clean_linker_0, # of connection points: 2
#     Edge 23, Type (0, 0), BuildingBlock: ZUJKAS_clean_linker_0, # of connection points: 2
#     Edge 24, Type (0, 0), BuildingBlock: ZUJKAS_clean_linker_0, # of connection points: 2
#     Edge 25, Type (0, 0), BuildingBlock: ZUJKAS_clean_linker_0, # of connection points: 2
#     Edge 26, Type (0, 0), BuildingBlock: ZUJKAS_clean_linker_0, # of connection points: 2
#     Edge 27, Type (0, 0), BuildingBlock: ZUJKAS_clean_linker_0, # of connection points: 2
#     Edge 28, Type (0, 0), BuildingBlock: ZUJKAS_clean_linker_0, # of connection points: 2
#     Edge 29, Type (0, 0), BuildingBlock: ZUJKAS_clean_linker_0, # of connection points: 2
#     Edge 30, Type (0, 0), BuildingBlock: ZUJKAS_clean_linker_0, # of connection points: 2
#     Edge 31, Type (0, 0), BuildingBlock: ZUJKAS_clean_linker_0, # of connection points: 2
#     Edge 32, Type (0, 0), BuildingBlock: ZUJKAS_clean_linker_0, # of connection points: 2
#     Edge 33, Type (0, 0), BuildingBlock: ZUJKAS_clean_linker_0, # of connection points: 2
#     Edge 34, Type (0, 0), BuildingBlock: ZUJKAS_clean_linker_0, # of connection points: 2
#     Edge 35, Type (0, 0), BuildingBlock: ZUJKAS_clean_linker_0, # of connection points: 2
#     Edge 36, Type (0, 0), BuildingBlock: ZUJKAS_clean_linker_0, # of connection points: 2
#     Edge 37, Type (0, 0), BuildingBlock: ZUJKAS_clean_linker_0, # of connection points: 2
#     Edge 38, Type (0, 0), BuildingBlock: ZUJKAS_clean_linker_0, # of connection points: 2
#     Edge 39, Type (0, 0), BuildingBlock: ZUJKAS_clean_linker_0, # of connection points: 2
#     Edge 40, Type (0, 0), BuildingBlock: ZUJKAS_clean_linker_0, # of connection points: 2
#     Edge 41, Type (0, 0), BuildingBlock: ZUJKAS_clean_linker_0, # of connection points: 2
#     Edge 42, Type (0, 0), BuildingBlock: ZUJKAS_clean_linker_0, # of connection points: 2
#     Edge 43, Type (0, 0), BuildingBlock: ZUJKAS_clean_linker_0, # of connection points: 2
#     Edge 44, Type (0, 0), BuildingBlock: ZUJKAS_clean_linker_0, # of connection points: 2
#     Edge 45, Type (0, 0), BuildingBlock: ZUJKAS_clean_linker_0, # of connection points: 2
#     Edge 46, Type (0, 0), BuildingBlock: ZUJKAS_clean_linker_0, # of connection points: 2
#     Edge 47, Type (0, 0), BuildingBlock: ZUJKAS_clean_linker_0, # of connection points: 2
#     Edge 48, Type (0, 0), BuildingBlock: ZUJKAS_clean_linker_0, # of connection points: 2
#     Edge 49, Type (0, 0), BuildingBlock: ZUJKAS_clean_linker_0, # of connection points: 2
#     Edge 50, Type (0, 0), BuildingBlock: ZUJKAS_clean_linker_0, # of connection points: 2
#     Edge 51, Type (0, 0), BuildingBlock: ZUJKAS_clean_linker_0, # of connection points: 2
#     Edge 52, Type (0, 0), BuildingBlock: ZUJKAS_clean_linker_0, # of connection points: 2
#     Edge 53, Type (0, 0), BuildingBlock: ZUJKAS_clean_linker_0, # of connection points: 2
# Relax obj value: 0.179
# Max RMSD: 0.258
# Mean RMSD: 0.258
data_MOF--net-wns--node1-NUHQUE_clean_sbu_2--edge1-ZUJKAS_clean_linker_0
_symmetry_space_group_name_H-M    P1
_symmetry_Int_Tables_number       1
_symmetry_cell_setting            triclinic
loop_
_symmetry_equiv_pos_as_xyz
'x, y, z'
_cell_length_a     60.20547
_cell_length_b     60.03397
_cell_length_c     44.402958
_cell_angle_alpha  89.987922
_cell_angle_beta   89.882151
_cell_angle_gamma 119.89834
loop_
_atom_site_label
_atom_site_type_symbol
_atom_site_fract_x
_atom_site_fract_y
_atom_site_fract_z
_atom_type_partial_charge
O0 O 0.46996 0.2563 0.97349 0.0
Tb1 Tb 0.47006 0.25154 0.02166 0.0
Eu2 Eu 0.44089 0.25252 0.08614 0.0
C3 C 0.45644 0.26548 0.96097 0.0
O4 O 0.44324 0.27255 0.97813 0.0
C5 C 0.42397 0.20247 0.04616 0.0
O6 O 0.44122 0.25089 0.13665 0.0
C7 C 0.4079 0.26613 0.06906 0.0
C8 C 0.45953 0.24898 0.15033 0.0
O9 O 0.47769 0.24876 0.13408 0.0
C10 C 0.49245 0.29963 0.06091 0.0
C11 C 0.40222 0.28736 0.07326 0.0
C12 C 0.39118 0.29427 0.04956 0.0
C13 C 0.38443 0.31342 0.05387 0.0
C14 C 0.38859 0.32534 0.08203 0.0
C15 C 0.39867 0.31819 0.10613 0.0
C16 C 0.40568 0.29932 0.1016 0.0
O17 O 0.43182 0.21819 0.02303 0.0
O18 O 0.43033 0.21174 0.0736 0.0
O19 O 0.5011 0.24476 0.00873 0.0
O20 O 0.49028 0.24097 0.05489 0.0
C21 C 0.50587 0.23953 0.03555 0.0
O22 O 0.48192 0.28553 0.08508 0.0
O23 O 0.48229 0.29087 0.03435 0.0
O24 O 0.4049 0.25189 0.09287 0.0
O25 O 0.42809 0.27075 0.05282 0.0
H26 H 0.38756 0.28457 0.02803 0.0
H27 H 0.38237 0.33926 0.08576 0.0
H28 H 0.41334 0.29364 0.12028 0.0
O29 O 0.76928 0.22682 0.97458 0.0
Tb30 Tb 0.77032 0.22809 0.0232 0.0
Eu31 Eu 0.7683 0.197 0.08714 0.0
C32 C 0.76032 0.20534 0.95931 0.0
O33 O 0.75054 0.18332 0.97374 0.0
C34 C 0.81801 0.23018 0.04901 0.0
O35 O 0.76677 0.19362 0.13752 0.0
C36 C 0.75702 0.15232 0.06527 0.0
C37 C 0.76722 0.21182 0.15433 0.0
O38 O 0.76805 0.23187 0.14126 0.0
C39 C 0.72139 0.20131 0.06108 0.0
C40 C 0.73736 0.12502 0.06964 0.0
C41 C 0.73244 0.10712 0.04642 0.0
C42 C 0.71587 0.08076 0.05155 0.0
C43 C 0.70377 0.07251 0.07955 0.0
C44 C 0.70848 0.08995 0.10291 0.0
C45 C 0.72534 0.11626 0.0979 0.0
O46 O 0.80248 0.22139 0.02591 0.0
O47 O 0.80846 0.22864 0.07603 0.0
O48 O 0.77746 0.26634 0.01159 0.0
O49 O 0.78134 0.25842 0.05732 0.0
C50 C 0.78296 0.27592 0.03857 0.0
O51 O 0.73513 0.20471 0.08548 0.0
O52 O 0.73076 0.20107 0.0344 0.0
O53 O 0.77258 0.16326 0.08806 0.0
O54 O 0.7499 0.16745 0.05231 0.0
H55 H 0.74227 0.11353 0.02498 0.0
H56 H 0.69145 0.05209 0.08359 0.0
H57 H 0.72951 0.12978 0.11614 0.0
O58 O 0.79878 0.54813 0.97215 0.0
Tb59 Tb 0.79608 0.54988 0.02071 0.0
Eu60 Eu 0.83264 0.58455 0.08426 0.0
C61 C 0.81593 0.56768 0.95631 0.0
O62 O 0.83283 0.5886 0.97027 0.0
C63 C 0.79599 0.59823 0.0451 0.0
O64 O 0.83347 0.58557 0.13495 0.0
C65 C 0.87856 0.61683 0.06437 0.0
C66 C 0.81352 0.56841 0.15025 0.0
O67 O 0.79367 0.55071 0.13544 0.0
C68 C 0.82535 0.53137 0.06019 0.0
C69 C 0.9056 0.62357 0.06962 0.0
C70 C 0.92425 0.63592 0.0468 0.0
C71 C 0.9503 0.64455 0.05272 0.0
C72 C 0.95747 0.64045 0.08121 0.0
C73 C 0.93938 0.62851 0.10422 0.0
C74 C 0.91342 0.62006 0.09834 0.0
O75 O 0.80082 0.5882 0.02142 0.0
O76 O 0.80174 0.59424 0.07243 0.0
O77 O 0.75886 0.51739 0.00885 0.0
O78 O 0.76551 0.52948 0.05446 0.0
C79 C 0.7488 0.51292 0.03562 0.0
O80 O 0.82364 0.54316 0.08431 0.0
O81 O 0.82508 0.54022 0.03322 0.0
O82 O 0.86731 0.62169 0.08676 0.0
O83 O 0.86324 0.59495 0.05079 0.0
H84 H 0.91867 0.63955 0.02497 0.0
H85 H 0.97762 0.64773 0.08589 0.0
H86 H 0.89943 0.61122 0.11626 0.0
O87 O 0.24863 0.47475 0.51817 0.0
Tb88 Tb 0.2606 0.48415 0.4714 0.0
Eu89 Eu 0.26471 0.43148 0.41651 0.0
C90 C 0.24982 0.45628 0.53271 0.0
O91 O 0.25744 0.44216 0.51826 0.0
C92 C 0.21518 0.43233 0.44627 0.0
O93 O 0.25387 0.4303 0.36776 0.0
C94 C 0.28007 0.39856 0.42557 0.0
C95 C 0.25563 0.45061 0.35426 0.0
O96 O 0.26268 0.47164 0.36993 0.0
C97 C 0.30435 0.48618 0.43735 0.0
C98 C 0.29969 0.39184 0.41699 0.0
C99 C 0.30633 0.37867 0.43806 0.0
C100 C 0.32313 0.36977 0.4301 0.0
C101 C 0.33413 0.37521 0.40128 0.0
C102 C 0.32759 0.38807 0.37984 0.0
C103 C 0.31013 0.39626 0.38766 0.0
O104 O 0.22497 0.45734 0.44958 0.0
O105 O 0.22926 0.42104 0.4451 0.0
O106 O 0.27337 0.52367 0.48524 0.0
O107 O 0.26299 0.51318 0.43965 0.0
C108 C 0.27074 0.53179 0.45906 0.0
O109 O 0.29828 0.47176 0.41333 0.0
O110 O 0.29053 0.47577 0.46146 0.0
O111 O 0.2633 0.39573 0.40487 0.0
O112 O 0.28727 0.41896 0.44259 0.0
H113 H 0.29749 0.37432 0.46019 0.0
H114 H 0.34723 0.36851 0.39503 0.0
H115 H 0.30453 0.4057 0.37098 0.0
O116 O 0.55362 0.78096 0.51124 0.0
Tb117 Tb 0.54394 0.78527 0.46546 0.0
Eu118 Eu 0.59596 0.84209 0.41483 0.0
C119 C 0.57469 0.79865 0.52415 0.0
O120 O 0.59054 0.81924 0.50877 0.0
C121 C 0.59652 0.79272 0.4453 0.0
O122 O 0.59748 0.82911 0.36787 0.0
C123 C 0.62837 0.89085 0.42091 0.0
C124 C 0.57764 0.80906 0.35594 0.0
O125 O 0.55654 0.79628 0.37186 0.0
C126 C 0.54159 0.82855 0.4364 0.0
C127 C 0.63221 0.9166 0.41362 0.0
C128 C 0.64164 0.93561 0.43613 0.0
C129 C 0.64689 0.96068 0.42966 0.0
C130 C 0.64254 0.96659 0.40055 0.0
C131 C 0.63403 0.94824 0.37753 0.0
C132 C 0.62876 0.92315 0.38413 0.0
O133 O 0.57155 0.77798 0.44284 0.0
O134 O 0.60839 0.81799 0.44207 0.0
O135 O 0.50483 0.75745 0.47912 0.0
O136 O 0.51475 0.76078 0.43277 0.0
C137 C 0.49643 0.74861 0.45229 0.0
O138 O 0.5557 0.83559 0.412 0.0
O139 O 0.55121 0.82385 0.46026 0.0
O140 O 0.62896 0.87693 0.39841 0.0
O141 O 0.61107 0.87726 0.44149 0.0
H142 H 0.64541 0.93106 0.45851 0.0
H143 H 0.64768 0.98623 0.39519 0.0
H144 H 0.62251 0.90902 0.36625 0.0
O145 O 0.23471 0.78211 0.5159 0.0
Tb146 Tb 0.23989 0.77418 0.46953 0.0
Eu147 Eu 0.1793 0.76138 0.42024 0.0
C148 C 0.24928 0.80483 0.52803 0.0
O149 O 0.2666 0.82349 0.5113 0.0
C150 C 0.22715 0.81387 0.4451 0.0
O151 O 0.1909 0.77267 0.37208 0.0
C152 C 0.1303 0.74312 0.42685 0.0
C153 C 0.21304 0.77644 0.36199 0.0
O154 O 0.22848 0.77361 0.38046 0.0
C155 C 0.19879 0.72462 0.44347 0.0
C156 C 0.10457 0.72134 0.41974 0.0
C157 C 0.08558 0.71226 0.4423 0.0
C158 C 0.06041 0.69291 0.43596 0.0
C159 C 0.05435 0.68259 0.40687 0.0
C160 C 0.07272 0.69187 0.38379 0.0
C161 C 0.09793 0.71124 0.39033 0.0
O162 O 0.24187 0.80389 0.44025 0.0
O163 O 0.20195 0.79935 0.44521 0.0
O164 O 0.27787 0.78308 0.48463 0.0
O165 O 0.26194 0.75914 0.44631 0.0
C166 C 0.28185 0.77019 0.4639 0.0
O167 O 0.18941 0.7297 0.41947 0.0
O168 O 0.20351 0.73924 0.4671 0.0
O169 O 0.14376 0.75815 0.40445 0.0
O170 O 0.14429 0.73935 0.44676 0.0
H171 H 0.09025 0.72065 0.46463 0.0
H172 H 0.03467 0.66843 0.40166 0.0
H173 H 0.11211 0.71873 0.37246 0.0
O174 O 0.56385 0.76996 0.02389 0.0
Tb175 Tb 0.56448 0.77568 0.97568 0.0
Eu176 Eu 0.59925 0.77588 0.91065 0.0
C177 C 0.58448 0.77401 0.0385 0.0
O178 O 0.60571 0.78075 0.02343 0.0
C179 C 0.61072 0.8255 0.95027 0.0
O180 O 0.60076 0.77593 0.86008 0.0
C181 C 0.63204 0.76332 0.93143 0.0
C182 C 0.58402 0.77924 0.84467 0.0
O183 O 0.56654 0.78196 0.85935 0.0
C184 C 0.54741 0.72971 0.93494 0.0
C185 C 0.6402 0.74396 0.92664 0.0
C186 C 0.65169 0.73772 0.95049 0.0
C187 C 0.66264 0.72212 0.94518 0.0
C188 C 0.66181 0.71265 0.91621 0.0
C189 C 0.65063 0.71862 0.89225 0.0
C190 C 0.63938 0.73392 0.8976 0.0
O191 O 0.60146 0.81066 0.97411 0.0
O192 O 0.60709 0.81582 0.92292 0.0
O193 O 0.53057 0.77776 0.98854 0.0
O194 O 0.54235 0.78422 0.94275 0.0
C195 C 0.52533 0.78298 0.96197 0.0
O196 O 0.55816 0.74352 0.91071 0.0
O197 O 0.55785 0.73846 0.96131 0.0
O198 O 0.63696 0.77966 0.90927 0.0
O199 O 0.60968 0.75579 0.94424 0.0
H200 H 0.653 0.74578 0.97269 0.0
H201 H 0.67043 0.70077 0.91216 0.0
H202 H 0.63118 0.73903 0.87896 0.0
O203 O 0.26114 0.79126 0.02986 0.0
Tb204 Tb 0.25792 0.78834 0.9813 0.0
Eu205 Eu 0.26036 0.8247 0.91802 0.0
C206 C 0.26142 0.8105 0.0443 0.0
O207 O 0.26088 0.82889 0.02885 0.0
C208 C 0.20983 0.78792 0.95655 0.0
O209 O 0.26199 0.82817 0.86748 0.0
C210 C 0.27339 0.87006 0.93967 0.0
C211 C 0.24658 0.80836 0.85081 0.0
O212 O 0.23064 0.78658 0.86412 0.0
C213 C 0.30587 0.81677 0.94211 0.0
C214 C 0.29299 0.89735 0.93407 0.0
C215 C 0.29879 0.91612 0.95661 0.0
C216 C 0.31568 0.94233 0.95036 0.0
C217 C 0.32688 0.94954 0.9218 0.0
C218 C 0.32108 0.93132 0.89903 0.0
C219 C 0.30415 0.90522 0.90525 0.0
O220 O 0.22473 0.79354 0.98019 0.0
O221 O 0.21971 0.7933 0.92922 0.0
O222 O 0.25311 0.75089 0.99288 0.0
O223 O 0.24696 0.75771 0.94754 0.0
C224 C 0.247 0.74087 0.96613 0.0
O225 O 0.29252 0.81526 0.91794 0.0
O226 O 0.29675 0.81681 0.96899 0.0
O227 O 0.25661 0.8588 0.91802 0.0
O228 O 0.28095 0.85492 0.95171 0.0
H229 H 0.28964 0.91048 0.9785 0.0
H230 H 0.33934 0.96978 0.91683 0.0
H231 H 0.29927 0.89113 0.8875 0.0
O232 O 0.24394 0.46225 0.01436 0.0
Tb233 Tb 0.24806 0.47615 0.96834 0.0
Eu234 Eu 0.19268 0.42917 0.91992 0.0
C235 C 0.2354 0.47178 0.03511 0.0
O236 O 0.22886 0.48879 0.02708 0.0
C237 C 0.24123 0.42483 0.94398 0.0
O238 O 0.19736 0.42653 0.86975 0.0
C239 C 0.14475 0.40097 0.93525 0.0
C240 C 0.2175 0.44463 0.85553 0.0
O241 O 0.23521 0.46387 0.87112 0.0
C242 C 0.20782 0.48565 0.94014 0.0
C243 C 0.11905 0.39773 0.92997 0.0
C244 C 0.10028 0.38686 0.95275 0.0
C245 C 0.0752 0.38183 0.9474 0.0
C246 C 0.06894 0.38744 0.91913 0.0
C247 C 0.08711 0.39747 0.89582 0.0
C248 C 0.11233 0.40298 0.90155 0.0
O249 O 0.25533 0.44991 0.94222 0.0
O250 O 0.21606 0.41331 0.9421 0.0
O251 O 0.28305 0.50824 0.98656 0.0
O252 O 0.27244 0.51052 0.94157 0.0
C253 C 0.28958 0.5223 0.96235 0.0
O254 O 0.20295 0.47102 0.91625 0.0
O255 O 0.21344 0.47855 0.96552 0.0
O256 O 0.15535 0.39574 0.91245 0.0
O257 O 0.1612 0.42104 0.95095 0.0
H258 H 0.105 0.38182 0.97431 0.0
H259 H 0.04921 0.38221 0.91472 0.0
H260 H 0.1265 0.41062 0.88368 0.0
O261 O 0.77946 0.53919 0.48482 0.0
Tb262 Tb 0.76395 0.52882 0.53007 0.0
Eu263 Eu 0.75813 0.58302 0.57876 0.0
C264 C 0.78127 0.55935 0.4709 0.0
O265 O 0.77433 0.57412 0.4851 0.0
C266 C 0.80775 0.58196 0.55018 0.0
O267 O 0.76961 0.58427 0.62713 0.0
C268 C 0.74281 0.61604 0.56973 0.0
C269 C 0.77499 0.5671 0.63783 0.0
O270 O 0.77385 0.54922 0.61977 0.0
C271 C 0.71868 0.52706 0.55999 0.0
C272 C 0.72349 0.62313 0.57871 0.0
C273 C 0.71722 0.63707 0.55823 0.0
C274 C 0.70095 0.64648 0.5669 0.0
C275 C 0.69005 0.64064 0.5958 0.0
C276 C 0.69667 0.62757 0.61686 0.0
C277 C 0.71347 0.61878 0.60823 0.0
O278 O 0.79746 0.55703 0.55424 0.0
O279 O 0.79407 0.59368 0.55105 0.0
O280 O 0.75084 0.48906 0.51702 0.0
O281 O 0.76249 0.50043 0.56216 0.0
C282 C 0.75412 0.48142 0.5432 0.0
O283 O 0.72475 0.54251 0.58314 0.0
O284 O 0.73275 0.53612 0.53581 0.0
O285 O 0.7598 0.61892 0.59015 0.0
O286 O 0.73524 0.59541 0.55298 0.0
H287 H 0.72607 0.64167 0.53612 0.0
H288 H 0.67733 0.64764 0.60265 0.0
H289 H 0.71918 0.60919 0.62459 0.0
O290 O 0.47824 0.22123 0.4843 0.0
Tb291 Tb 0.4805 0.22439 0.53297 0.0
Eu292 Eu 0.42865 0.17947 0.59389 0.0
C293 C 0.45618 0.21199 0.47028 0.0
O294 O 0.435 0.2032 0.48615 0.0
C295 C 0.42916 0.22642 0.55073 0.0
O296 O 0.42644 0.19149 0.64105 0.0
C297 C 0.39539 0.13143 0.58458 0.0
C298 C 0.43509 0.21589 0.6469 0.0
O299 O 0.4446 0.23269 0.62483 0.0
C300 C 0.48144 0.18777 0.57663 0.0
C301 C 0.38992 0.10486 0.59005 0.0
C302 C 0.37875 0.08671 0.56678 0.0
C303 C 0.37197 0.06097 0.57148 0.0
C304 C 0.37648 0.05344 0.59961 0.0
C305 C 0.38682 0.071 0.62342 0.0
C306 C 0.39364 0.09682 0.61853 0.0
O307 O 0.45189 0.23604 0.53764 0.0
O308 O 0.41837 0.20618 0.56894 0.0
O309 O 0.52144 0.25031 0.52521 0.0
O310 O 0.50475 0.25343 0.56601 0.0
C311 C 0.52586 0.26291 0.55039 0.0
O312 O 0.46824 0.18563 0.60084 0.0
O313 O 0.47076 0.18757 0.55104 0.0
O314 O 0.39464 0.14449 0.60796 0.0
O315 O 0.41365 0.14549 0.56514 0.0
H316 H 0.37491 0.09252 0.54518 0.0
H317 H 0.37031 0.03335 0.60356 0.0
H318 H 0.4014 0.11041 0.63695 0.0
O319 O 0.7707 0.22295 0.49093 0.0
Tb320 Tb 0.77722 0.23833 0.53616 0.0
Eu321 Eu 0.8508 0.25719 0.58638 0.0
C322 C 0.78876 0.22162 0.4758 0.0
O323 O 0.81079 0.22854 0.48894 0.0
C324 C 0.80177 0.20838 0.55992 0.0
O325 O 0.83999 0.24995 0.63531 0.0
C326 C 0.89916 0.27361 0.57751 0.0
C327 C 0.81726 0.24547 0.64404 0.0
O328 O 0.80157 0.24617 0.62407 0.0
C329 C 0.82416 0.28698 0.56012 0.0
C330 C 0.92547 0.29552 0.58084 0.0
C331 C 0.94201 0.30291 0.55579 0.0
C332 C 0.96784 0.32189 0.55859 0.0
C333 C 0.97714 0.33329 0.58669 0.0
C334 C 0.96126 0.32553 0.6122 0.0
C335 C 0.93521 0.30702 0.60907 0.0
O336 O 0.79076 0.22133 0.56878 0.0
O337 O 0.82636 0.21796 0.56519 0.0
O338 O 0.75801 0.26053 0.54414 0.0
O339 O 0.74028 0.2214 0.55877 0.0
C340 C 0.73793 0.24181 0.55721 0.0
O341 O 0.84055 0.28861 0.58079 0.0
O342 O 0.81671 0.26879 0.53984 0.0
O343 O 0.88682 0.26157 0.60212 0.0
O344 O 0.88436 0.27536 0.55698 0.0
H345 H 0.93494 0.29346 0.53428 0.0
H346 H 0.99728 0.34746 0.58902 0.0
H347 H 0.92295 0.30068 0.62881 0.0
H348 H 0.35309 0.96329 0.99301 0.0
H349 H 0.36885 1.0051 0.0178 0.0
H350 H 0.30758 0.01212 0.97724 0.0
H351 H 0.29165 0.97021 0.95315 0.0
H352 H 0.38708 0.04925 0.98793 0.0
H353 H 0.30763 0.03914 0.06008 0.0
H354 H 0.30867 0.01172 0.04508 0.0
H355 H 0.29735 0.02878 0.02223 0.0
C356 C 0.34238 0.97329 0.99061 0.0
C357 C 0.32075 0.96324 0.97189 0.0
C358 C 0.35153 0.99731 0.00447 0.0
C359 C 0.3393 0.01182 0.99977 0.0
C360 C 0.31702 1.00118 0.98203 0.0
H361 H 0.41025 0.17718 0.9921 0.0
H362 H 0.38969 0.131 0.98297 0.0
C363 C 0.30785 0.97716 0.96828 0.0
C364 C 0.35145 0.03912 0.01021 0.0
H365 H 0.33961 0.08236 0.04685 0.0
C366 C 0.37673 0.05635 0.00113 0.0
C367 C 0.33817 0.04859 0.02763 0.0
C368 C 0.31155 0.03103 0.03958 0.0
C369 C 0.38872 0.08269 0.00806 0.0
C370 C 0.37499 0.09237 0.02411 0.0
C371 C 0.35005 0.07507 0.03418 0.0
C372 C 0.38616 0.12045 0.03004 0.0
C373 C 0.41608 0.09996 0.99811 0.0
C374 C 0.3903 0.13001 0.05962 0.0
C375 C 0.40206 0.15657 0.06499 0.0
C376 C 0.40974 0.17414 0.04085 0.0
C377 C 0.40476 0.16436 0.01129 0.0
C378 C 0.3931 0.13788 0.00598 0.0
H379 H 0.42601 0.08889 0.99365 0.0
H380 H 0.41623 0.10988 0.97695 0.0
H381 H 0.42705 0.1148 0.01537 0.0
H382 H 0.38498 0.11697 0.07858 0.0
H383 H 0.4055 0.16334 0.08804 0.0
H384 H 0.84325 0.23085 0.99762 0.0
H385 H 0.88914 0.2557 0.98741 0.0
H386 H 0.90242 0.286 0.07774 0.0
H387 H 0.85643 0.26054 0.08842 0.0
H388 H 0.91777 0.30638 0.98689 0.0
H389 H 0.95813 0.26753 0.07026 0.0
H390 H 0.92437 0.25178 0.06168 0.0
H391 H 0.93835 0.27886 0.0868 0.0
C392 C 0.85593 0.2425 0.01551 0.0
C393 C 0.84613 0.24369 0.04386 0.0
C394 C 0.88222 0.25674 0.00961 0.0
C395 C 0.89939 0.27259 0.03185 0.0
C396 C 0.88972 0.2735 0.0604 0.0
H397 H 0.04756 0.40004 0.976 0.0
H398 H 1.00619 0.37446 0.00146 0.0
C399 C 0.86336 0.25903 0.06642 0.0
C400 C 0.92697 0.2895 0.02416 0.0
H401 H 0.98803 0.30519 0.0437 0.0
C402 C 0.9331 0.30606 0.99934 0.0
C403 C 0.94703 0.28897 0.04018 0.0
C404 C 0.9417 0.27066 0.06603 0.0
C405 C 0.95854 0.32198 0.99001 0.0
C406 C 0.9787 0.32207 0.00656 0.0
C407 C 0.97264 0.30545 0.03134 0.0
C408 C 1.00597 0.33842 0.99729 0.0
C409 C 0.96345 0.33791 0.96185 0.0
C410 C 0.02055 0.32706 0.98867 0.0
C411 C 0.04453 0.34183 0.97488 0.0
C412 C 0.05421 0.36813 0.96946 0.0
C413 C 0.04051 0.37981 0.98012 0.0
C414 C 0.01677 0.36515 0.99431 0.0
H415 H 0.94604 0.33046 0.94758 0.0
H416 H 0.96916 0.35792 0.96826 0.0
H417 H 0.97909 0.33831 0.94815 0.0
H418 H 1.0127 0.30651 0.99085 0.0
H419 H 0.05459 0.33236 0.96644 0.0
H420 H 0.78119 0.62139 0.08807 0.0
H421 H 0.75741 0.6443 0.08035 0.0
H422 H 0.75731 0.63254 0.98458 0.0
H423 H 0.78075 0.60955 0.99199 0.0
H424 H 0.76904 0.68844 0.04638 0.0
H425 H 0.68127 0.60372 0.00372 0.0
H426 H 0.70625 0.60104 0.0229 0.0
H427 H 0.70954 0.60948 0.9836 0.0
C428 C 0.77616 0.62371 0.06535 0.0
C429 C 0.78279 0.61341 0.04069 0.0
C430 C 0.76256 0.63683 0.06098 0.0
C431 C 0.75513 0.63974 0.03193 0.0
C432 C 0.76231 0.63007 0.00727 0.0
H433 H 0.71369 0.7406 0.94772 0.0
H434 H 0.73563 0.72207 0.97538 0.0
C435 C 0.77589 0.61702 0.01158 0.0
C436 C 0.73996 0.65289 0.02708 0.0
H437 H 0.68517 0.64476 0.99414 0.0
C438 C 0.75054 0.67881 0.03531 0.0
C439 C 0.71556 0.64025 0.01323 0.0
C440 C 0.70234 0.61202 0.00563 0.0
C441 C 0.73803 0.69275 0.02857 0.0
C442 C 0.71447 0.68056 0.01279 0.0
C443 C 0.70329 0.65427 0.00604 0.0
C444 C 0.70214 0.69496 0.00062 0.0
C445 C 0.75032 0.72045 0.03827 0.0
C446 C 0.67598 0.68627 0.00574 0.0
C447 C 0.66337 0.69695 0.98982 0.0
C448 C 0.67672 0.71641 0.96847 0.0
C449 C 0.70314 0.72604 0.96462 0.0
C450 C 0.71569 0.71542 0.98046 0.0
H451 H 0.76233 0.72402 0.05863 0.0
H452 H 0.76301 0.73291 0.01996 0.0
H453 H 0.73574 0.72615 0.04313 0.0
H454 H 0.66502 0.67037 0.02096 0.0
H455 H 0.64289 0.68878 0.99263 0.0
H456 H 0.18052 0.44831 0.45645 0.0
H457 H 0.13455 0.42205 0.46384 0.0
H458 H 0.13899 0.35351 0.44799 0.0
H459 H 0.18551 0.37974 0.44123 0.0
H460 H 0.0954 0.38755 0.42785 0.0
H461 H 0.10507 0.3395 0.53033 0.0
H462 H 0.13209 0.36704 0.51351 0.0
H463 H 0.11936 0.33591 0.49647 0.0
C464 C 0.17188 0.42766 0.45442 0.0
C465 C 0.18689 0.41616 0.44865 0.0
C466 C 0.14547 0.41266 0.45854 0.0
C467 C 0.13336 0.3858 0.4569 0.0
C468 C 0.14803 0.37419 0.44996 0.0
H469 H 0.97711 0.28884 0.52614 0.0
H470 H 1.01436 0.30029 0.49364 0.0
C471 C 0.17461 0.38923 0.44601 0.0
C472 C 0.10562 0.37039 0.46394 0.0
H473 H 0.0639 0.33105 0.51775 0.0
C474 C 0.08842 0.37486 0.44722 0.0
C475 C 0.0965 0.35376 0.48918 0.0
C476 C 0.11416 0.34882 0.50861 0.0
C477 C 0.06265 0.36413 0.4559 0.0
C478 C 0.05393 0.34867 0.48203 0.0
C479 C 0.07067 0.34287 0.49764 0.0
C480 C 0.02884 0.34125 0.49607 0.0
C481 C 0.04516 0.37005 0.4376 0.0
C482 C 0.02437 0.36044 0.50756 0.0
C483 C 1.00329 0.35397 0.52616 0.0
C484 C 0.98626 0.32817 0.53352 0.0
C485 C 0.98978 0.30884 0.52044 0.0
C486 C 1.01108 0.31535 0.50203 0.0
H487 H 0.05196 0.37495 0.41395 0.0
H488 H 0.02526 0.35356 0.43759 0.0
H489 H 0.04487 0.38686 0.44757 0.0
H490 H 0.03808 0.38056 0.50375 0.0
H491 H 1.00104 0.3692 0.53615 0.0
H492 H 0.69973 0.68947 0.58399 0.0
H493 H 0.68722 0.71532 0.55444 0.0
H494 H 0.68262 0.6719 0.47494 0.0
H495 H 0.69322 0.64426 0.50529 0.0
H496 H 0.70569 0.74639 0.50954 0.0
H497 H 0.61283 0.66329 0.47355 0.0
H498 H 0.63319 0.66002 0.50071 0.0
H499 H 0.64068 0.66226 0.46117 0.0
C500 C 0.69565 0.68501 0.56031 0.0
C501 C 0.69657 0.66411 0.54729 0.0
C502 C 0.68885 0.70015 0.54327 0.0
C503 C 0.68328 0.69524 0.51253 0.0
C504 C 0.68598 0.67557 0.49883 0.0
H505 H 0.64525 0.80608 0.42727 0.0
H506 H 0.66856 0.78317 0.43841 0.0
C507 C 0.69237 0.65998 0.51612 0.0
C508 C 0.67358 0.71024 0.4959 0.0
H509 H 0.62094 0.70421 0.45951 0.0
C510 C 0.68723 0.73718 0.49837 0.0
C511 C 0.64943 0.69824 0.48141 0.0
C512 C 0.63303 0.66938 0.4792 0.0
C513 C 0.6768 0.75229 0.48854 0.0
C514 C 0.65246 0.74023 0.47451 0.0
C515 C 0.63955 0.71346 0.47034 0.0
C516 C 0.63873 0.75436 0.4668 0.0
C517 C 0.69129 0.78074 0.4951 0.0
C518 C 0.61392 0.74547 0.47821 0.0
C519 C 0.6004 0.75805 0.47116 0.0
C520 C 0.61149 0.78009 0.45291 0.0
C521 C 0.6364 0.78928 0.44168 0.0
C522 C 0.64976 0.77627 0.44818 0.0
H523 H 0.70616 0.78568 0.51264 0.0
H524 H 0.70108 0.79135 0.47429 0.0
H525 H 0.67813 0.78755 0.50279 0.0
H526 H 0.60497 0.72874 0.49275 0.0
H527 H 0.58129 0.75064 0.48032 0.0
H528 H 0.27833 0.84804 0.44877 0.0
H529 H 0.29921 0.89296 0.4635 0.0
H530 H 0.22563 0.88836 0.47159 0.0
H531 H 0.20431 0.84278 0.45763 0.0
H532 H 0.29986 0.93463 0.43887 0.0
H533 H 0.25678 0.9156 0.55359 0.0
H534 H 0.25457 0.89031 0.52966 0.0
H535 H 0.23422 0.90379 0.52313 0.0
C536 C 0.26645 0.85645 0.45364 0.0
C537 C 0.23956 0.84164 0.45234 0.0
C538 C 0.2785 0.88225 0.46198 0.0
C539 C 0.26402 0.89397 0.46908 0.0
C540 C 0.23718 0.87956 0.46684 0.0
H541 H 0.3271 0.04966 0.54405 0.0
H542 H 0.29942 0.01111 0.51427 0.0
C543 C 0.22503 0.85355 0.45869 0.0
C544 C 0.27738 0.92107 0.47954 0.0
H545 H 0.28571 0.95861 0.54106 0.0
C546 C 0.29655 0.93992 0.46109 0.0
C547 C 0.27314 0.92795 0.50861 0.0
C548 C 0.25374 0.90838 0.53006 0.0
C549 C 0.31205 0.96523 0.47126 0.0
C550 C 0.30821 0.97186 0.50052 0.0
C551 C 0.2884 0.9534 0.51852 0.0
C552 C 0.32617 0.99697 0.51419 0.0
C553 C 0.33286 0.98463 0.45104 0.0
C554 C 0.35046 1.00189 0.52343 0.0
C555 C 0.36612 0.02366 0.54058 0.0
C556 C 0.35781 0.04098 0.5485 0.0
C557 C 0.33406 0.03677 0.53783 0.0
C558 C 0.31822 0.01475 0.52102 0.0
H559 H 0.33017 0.97808 0.42724 0.0
H560 H 0.33342 1.00338 0.45213 0.0
H561 H 0.35169 0.9877 0.45884 0.0
H562 H 0.35679 0.98823 0.51865 0.0
H563 H 0.38428 0.02644 0.54872 0.0
H564 H 0.63232 0.86347 0.90713 0.0
H565 H 0.65316 0.91007 0.91476 0.0
H566 H 0.64139 0.89824 0.01055 0.0
H567 H 0.62052 0.8519 0.00327 0.0
H568 H 0.62528 0.93135 0.98572 0.0
H569 H 0.72477 0.95925 0.95132 0.0
H570 H 0.69957 0.93972 0.92537 0.0
H571 H 0.70125 0.92661 0.96104 0.0
C572 C 0.63436 0.87079 0.92985 0.0
C573 C 0.62472 0.85384 0.95457 0.0
C574 C 0.64636 0.89745 0.93416 0.0
C575 C 0.64898 0.90765 0.96325 0.0
C576 C 0.6396 0.8908 0.98791 0.0
H577 H 0.73365 0.0476 0.05583 0.0
H578 H 0.71868 1.0076 0.02773 0.0
C579 C 0.62769 0.86425 0.98366 0.0
C580 C 0.66062 0.93575 0.96834 0.0
H581 H 0.71747 0.99244 0.96746 0.0
C582 C 0.64536 0.9448 0.98137 0.0
C583 C 0.68685 0.95318 0.96278 0.0
C584 C 0.70422 0.94433 0.94954 0.0
C585 C 0.65575 0.97063 0.9899 0.0
C586 C 0.6821 0.98805 0.98481 0.0
C587 C 0.69723 0.97915 0.97098 0.0
C588 C 0.69476 0.01456 0.99729 0.0
C589 C 0.6387 0.9787 0.00581 0.0
C590 C 0.6873 0.03241 0.98858 0.0
C591 C 0.69597 0.05541 0.00464 0.0
C592 C 0.71232 0.06084 0.02941 0.0
C593 C 0.72124 0.04389 0.03658 0.0
C594 C 0.71264 0.02102 0.0206 0.0
H595 H 0.62011 0.96196 0.01273 0.0
H596 H 0.64833 0.99023 0.02615 0.0
H597 H 0.63464 0.99081 0.99045 0.0
H598 H 0.67378 0.02797 0.97038 0.0
H599 H 0.68862 0.06808 0.99897 0.0
H600 H 0.18355 0.77352 0.00993 0.0
H601 H 0.13734 0.74897 0.01789 0.0
H602 H 0.12507 0.746 0.92205 0.0
H603 H 0.1716 0.77089 0.91374 0.0
H604 H 0.09135 0.75689 0.95569 0.0
H605 H 0.0927 0.67175 0.00143 0.0
H606 H 0.11446 0.70102 0.02038 0.0
H607 H 0.11952 0.69701 0.98128 0.0
C608 C 0.17114 0.76778 0.99042 0.0
C609 C 0.18147 0.77414 0.96112 0.0
C610 C 0.14462 0.75356 0.99506 0.0
C611 C 0.12765 0.74517 0.97058 0.0
C612 C 0.13776 0.75209 0.94131 0.0
H613 H 0.96814 0.62686 0.00741 0.0
H614 H 1.00961 0.65115 0.98141 0.0
C615 C 0.1644 0.76633 0.9366 0.0
C616 C 0.09945 0.7291 0.97587 0.0
H617 H 0.05448 0.67362 0.00983 0.0
C618 C 0.08323 0.73854 0.96723 0.0
C619 C 0.08865 0.70491 0.99042 0.0
C620 C 0.10467 0.69291 0.99866 0.0
C621 C 0.0568 0.72503 0.974 0.0
C622 C 0.04631 0.70157 0.99021 0.0
C623 C 0.06238 0.69164 0.9976 0.0
C624 C 0.01925 0.68775 0.00148 0.0
C625 C 0.04043 0.73607 0.96371 0.0
C626 C 1.0104 0.70021 0.02083 0.0
C627 C 0.98662 0.68639 0.03532 0.0
C628 C 0.97114 0.6598 0.03085 0.0
C629 C 0.97938 0.64746 0.01055 0.0
C630 C 1.0032 0.66131 0.99598 0.0
H631 H 0.04877 0.74845 0.94351 0.0
H632 H 0.02064 0.72068 0.95835 0.0
H633 H 0.03941 0.74818 0.98193 0.0
H634 H 0.02254 0.72033 0.02623 0.0
H635 H 0.98105 0.69617 0.05158 0.0
H636 H 0.39878 0.36078 0.03124 0.0
H637 H 0.37179 0.37382 0.00399 0.0
H638 H 0.31184 0.29464 0.99842 0.0
H639 H 0.33891 0.2815 0.02593 0.0
H640 H 0.34447 0.35986 0.94747 0.0
H641 H 0.27968 0.33069 0.04721 0.0
H642 H 0.31114 0.334 0.04885 0.0
H643 H 0.28534 0.30656 0.03085 0.0
C644 C 0.38013 0.34609 0.02341 0.0
C645 C 0.37095 0.32013 0.03065 0.0
C646 C 0.36468 0.35356 0.00794 0.0
C647 C 0.33961 0.33528 0.99964 0.0
C648 C 0.331 0.30912 0.00498 0.0
H649 H 0.21968 0.37226 0.94965 0.0
H650 H 0.24181 0.34797 0.95944 0.0
C651 C 0.34658 0.30159 0.02033 0.0
C652 C 0.32213 0.3441 0.98778 0.0
H653 H 0.27099 0.35106 0.00767 0.0
C654 C 0.32822 0.35768 0.96045 0.0
C655 C 0.30089 0.34126 0.0047 0.0
C656 C 0.29384 0.32751 0.03464 0.0
C657 C 0.31395 0.36883 0.94985 0.0
C658 C 0.29339 0.36696 0.96741 0.0
C659 C 0.28673 0.35256 0.99419 0.0
C660 C 0.27985 0.38134 0.95966 0.0
C661 C 0.32114 0.38259 0.91993 0.0
C662 C 0.29373 0.4082 0.95677 0.0
C663 C 0.28119 0.42208 0.95113 0.0
C664 C 0.25431 0.40953 0.94851 0.0
C665 C 0.24037 0.38258 0.95138 0.0
C666 C 0.25301 0.36866 0.95701 0.0
H667 H 0.33065 0.37497 0.90505 0.0
H668 H 0.30409 0.38082 0.90813 0.0
H669 H 0.33486 0.40329 0.92372 0.0
H670 H 0.31434 0.41858 0.95956 0.0
H671 H 0.29265 0.44279 0.94934 0.0
H672 H 0.83878 0.6345 0.54759 0.0
H673 H 0.88473 0.65868 0.53606 0.0
H674 H 0.8854 0.58761 0.52547 0.0
H675 H 0.83993 0.56343 0.53757 0.0
H676 H 0.92625 0.6226 0.55813 0.0
H677 H 0.91634 0.66749 0.45317 0.0
H678 H 0.9034 0.67377 0.48647 0.0
H679 H 0.88917 0.64159 0.47202 0.0
C680 C 0.84872 0.62404 0.54279 0.0
C681 C 0.83559 0.597 0.54344 0.0
C682 C 0.87497 0.63789 0.53608 0.0
C683 C 0.88846 0.62496 0.5295 0.0
C684 C 0.87543 0.59803 0.53048 0.0
H685 H 0.02566 0.64425 0.45338 0.0
H686 H 0.986 0.63062 0.4817 0.0
C687 C 0.84934 0.58421 0.53737 0.0
C688 C 0.91608 0.63912 0.52127 0.0
H689 H 0.958 0.67755 0.46697 0.0
C690 C 0.93323 0.6348 0.53834 0.0
C691 C 0.92522 0.65509 0.49548 0.0
C692 C 0.9076 0.65966 0.47553 0.0
C693 C 0.95904 0.64544 0.52985 0.0
C694 C 0.96792 0.66069 0.50358 0.0
C695 C 0.95111 0.66592 0.48721 0.0
C696 C 0.99373 0.66924 0.49086 0.0
C697 C 0.97655 0.63995 0.54875 0.0
C698 C 1.01142 0.69548 0.48705 0.0
C699 C 0.03424 0.7033 0.47108 0.0
C700 C 0.03942 0.68497 0.45824 0.0
C701 C 0.02217 0.65874 0.4632 0.0
C702 C 0.99956 0.65096 0.47942 0.0
H703 H 0.96899 0.63401 0.57199 0.0
H704 H 0.97822 0.62405 0.53831 0.0
H705 H 0.99604 0.65706 0.54996 0.0
H706 H 1.00715 0.70986 0.49549 0.0
H707 H 0.04704 0.72362 0.46718 0.0
H708 H 0.389 0.22423 0.58285 0.0
H709 H 0.36645 0.248 0.5729 0.0
H710 H 0.41382 0.28254 0.49454 0.0
H711 H 0.43663 0.25936 0.50445 0.0
H712 H 0.40981 0.31776 0.53063 0.0
H713 H 0.31381 0.23347 0.50685 0.0
H714 H 0.32781 0.23358 0.5426 0.0
H715 H 0.34241 0.23094 0.5085 0.0
C716 C 0.39449 0.23675 0.56337 0.0
C717 C 0.41464 0.23987 0.54445 0.0
C718 C 0.38154 0.25028 0.55771 0.0
C719 C 0.38834 0.26689 0.53285 0.0
C720 C 0.40833 0.2699 0.51392 0.0
H721 H 0.3226 0.32547 0.41617 0.0
H722 H 0.33575 0.30086 0.44757 0.0
C723 C 0.42135 0.25659 0.51963 0.0
C724 C 0.37501 0.28146 0.52617 0.0
H725 H 0.3184 0.27438 0.50067 0.0
C726 C 0.38972 0.30835 0.5245 0.0
C727 C 0.3488 0.26905 0.51823 0.0
C728 C 0.33222 0.24017 0.51888 0.0
C729 C 0.37936 0.32312 0.51343 0.0
C730 C 0.35337 0.31064 0.50445 0.0
C731 C 0.33827 0.28387 0.50775 0.0
C732 C 0.34276 0.32438 0.48724 0.0
C733 C 0.39679 0.3517 0.50953 0.0
C734 C 0.34163 0.34543 0.49934 0.0
C735 C 0.33441 0.35986 0.48117 0.0
C736 C 0.32819 0.35335 0.45072 0.0
C737 C 0.32793 0.33137 0.43933 0.0
C738 C 0.33518 0.31711 0.45735 0.0
H739 H 0.41727 0.35757 0.51289 0.0
H740 H 0.39459 0.35789 0.4867 0.0
H741 H 0.39158 0.36206 0.52627 0.0
H742 H 0.34694 0.35107 0.52255 0.0
H743 H 0.33461 0.3766 0.49059 0.0
H744 H 0.69101 0.97456 0.46042 0.0
H745 H 0.71742 0.01521 0.48712 0.0
H746 H 0.65916 0.03596 0.47335 0.0
H747 H 0.63278 0.99546 0.44664 0.0
H748 H 0.73293 0.06393 0.45568 0.0
H749 H 0.68172 0.05495 0.56324 0.0
H750 H 0.67763 0.02737 0.54221 0.0
H751 H 0.66213 0.04472 0.52998 0.0
C752 C 0.6835 0.98741 0.46405 0.0
C753 C 0.65985 0.98189 0.45162 0.0
C754 C 0.69865 0.01067 0.47905 0.0
C755 C 0.69018 0.0285 0.48226 0.0
C756 C 0.6659 0.02232 0.47143 0.0
H757 H 0.75159 0.18491 0.54247 0.0
H758 H 0.72564 0.14163 0.52221 0.0
C759 C 0.65088 0.99923 0.45619 0.0
C760 C 0.70768 0.05465 0.4938 0.0
H761 H 0.71483 0.0967 0.54967 0.0
C762 C 0.72919 0.07108 0.4764 0.0
C763 C 0.70247 0.0639 0.52058 0.0
C764 C 0.67985 0.04682 0.54029 0.0
C765 C 0.74534 0.09682 0.48467 0.0
C766 C 0.74016 0.10613 0.5115 0.0
C767 C 0.71876 0.08956 0.52908 0.0
C768 C 0.75654 0.13304 0.52174 0.0
C769 C 0.76722 0.114 0.46405 0.0
C770 C 0.78263 0.14276 0.52788 0.0
C771 C 0.79761 0.16765 0.53915 0.0
C772 C 0.78668 0.18317 0.5449 0.0
C773 C 0.76064 0.17353 0.53826 0.0
C774 C 0.74574 0.14872 0.52679 0.0
H775 H 0.76425 0.10612 0.44084 0.0
H776 H 0.76972 0.1336 0.46296 0.0
H777 H 0.78521 0.11559 0.47277 0.0
H778 H 0.79128 0.13084 0.52475 0.0
H779 H 0.81755 0.1744 0.54426 0.0
H780 H 0.41845 0.36853 0.12165 0.0
H781 H 0.41123 0.38538 0.1686 0.0
H782 H 0.37057 0.30853 0.20503 0.0
H783 H 0.37826 0.29173 0.15832 0.0
H784 H 0.36537 0.37457 0.18985 0.0
H785 H 0.41413 0.3475 0.27583 0.0
H786 H 0.41961 0.34651 0.236 0.0
H787 H 0.39189 0.32053 0.25381 0.0
C788 C 0.40858 0.35535 0.14003 0.0
C789 C 0.39903 0.32884 0.13643 0.0
C790 C 0.40434 0.36496 0.16677 0.0
C791 C 0.39045 0.34828 0.19048 0.0
C792 C 0.38182 0.3219 0.18738 0.0
H793 H 0.30017 0.36837 0.32836 0.0
H794 H 0.31646 0.36177 0.28054 0.0
C795 C 0.38625 0.31228 0.16069 0.0
C796 C 0.38317 0.35819 0.21723 0.0
H797 H 0.38393 0.35921 0.29408 0.0
C798 C 0.36968 0.37144 0.21265 0.0
C799 C 0.38897 0.35438 0.24698 0.0
C800 C 0.40467 0.34169 0.25349 0.0
C801 C 0.36133 0.38042 0.23695 0.0
C802 C 0.36609 0.37555 0.26672 0.0
C803 C 0.3801 0.36283 0.27128 0.0
C804 C 0.3564 0.38292 0.29362 0.0
C805 C 0.34771 0.39525 0.23042 0.0
C806 C 0.37336 0.39733 0.31677 0.0
C807 C 0.36404 0.40091 0.34411 0.0
C808 C 0.33757 0.39026 0.34881 0.0
C809 C 0.32068 0.37724 0.32505 0.0
C810 C 0.33001 0.37342 0.29774 0.0
H811 H 0.35279 0.4043 0.20776 0.0
H812 H 0.32671 0.38188 0.23088 0.0
H813 H 0.3524 0.41048 0.24748 0.0
H814 H 0.39378 0.40487 0.31417 0.0
H815 H 0.37741 0.41083 0.36222 0.0
H816 H 0.73416 0.09826 0.15598 0.0
H817 H 0.71759 0.07346 0.20267 0.0
H818 H 0.64179 0.0333 0.16426 0.0
H819 H 0.65846 0.05753 0.11734 0.0
H820 H 0.68126 0.06514 0.24418 0.0
H821 H 0.65425 0.97462 0.18312 0.0
H822 H 0.67318 1.00582 0.16602 0.0
H823 H 0.6389 0.99142 0.16862 0.0
C824 C 0.71386 0.08458 0.15784 0.0
C825 C 0.6976 0.07965 0.13306 0.0
C826 C 0.70443 0.0703 0.18441 0.0
C827 C 0.67859 0.05096 0.18662 0.0
C828 C 0.66195 0.04752 0.16273 0.0
H829 H 0.60989 0.97323 0.35634 0.0
H830 H 0.61832 0.99654 0.30857 0.0
C831 C 0.6714 0.06156 0.13609 0.0
C832 C 0.66937 0.03364 0.21326 0.0
H833 H 0.64146 0.97053 0.2343 0.0
C834 C 0.67251 0.04445 0.24203 0.0
C835 C 0.65846 1.00665 0.21049 0.0
C836 C 0.65622 0.99393 0.18045 0.0
C837 C 0.66484 0.02906 0.26806 0.0
C838 C 0.65302 1.00199 0.26519 0.0
C839 C 0.65011 0.9912 0.23644 0.0
C840 C 0.64467 0.98473 0.29189 0.0
C841 C 0.67025 0.04207 0.2984 0.0
C842 C 0.65513 0.96877 0.29739 0.0
C843 C 0.64984 0.95494 0.32437 0.0
C844 C 0.63408 0.95695 0.34629 0.0
C845 C 0.62218 0.97144 0.3398 0.0
C846 C 0.62723 0.98501 0.31272 0.0
H847 H 0.68542 0.0626 0.29696 0.0
H848 H 0.65258 0.04132 0.30701 0.0
H849 H 0.67635 0.0323 0.31493 0.0
H850 H 0.66846 0.96806 0.28152 0.0
H851 H 0.65948 0.94414 0.32897 0.0
H852 H 0.97071 0.60987 0.12017 0.0
H853 H 0.99277 0.61578 0.16825 0.0
H854 H 0.95272 0.65261 0.20468 0.0
H855 H 0.93015 0.6461 0.1568 0.0
H856 H 0.02552 0.66086 0.19221 0.0
H857 H 0.94705 0.60709 0.27393 0.0
H858 H 0.94219 0.60313 0.23376 0.0
H859 H 0.94243 0.62981 0.25257 0.0
C860 C 0.96613 0.6186 0.13875 0.0
C861 C 0.94863 0.62741 0.13485 0.0
C862 C 0.97883 0.62208 0.16615 0.0
C863 C 0.97437 0.63453 0.19022 0.0
C864 C 0.95611 0.64244 0.18674 0.0
H865 H 0.0794 0.72112 0.33388 0.0
H866 H 0.05724 0.70642 0.28558 0.0
C867 C 0.94319 0.63871 0.15937 0.0
C868 C 0.99046 0.64122 0.21782 0.0
H869 H 0.9878 0.63736 0.29458 0.0
C870 C 0.01725 0.65548 0.21459 0.0
C871 C 0.97977 0.63404 0.24703 0.0
C872 C 0.9513 0.61745 0.25207 0.0
C873 C 0.03358 0.66319 0.2397 0.0
C874 C 0.02285 0.65703 0.26896 0.0
C875 C 0.99608 0.64229 0.27218 0.0
C876 C 0.03885 0.66592 0.29666 0.0
C877 C 0.06217 0.6776 0.23453 0.0
C878 C 0.03611 0.64813 0.31896 0.0
C879 C 0.04861 0.65653 0.34662 0.0
C880 C 0.06415 0.68292 0.35255 0.0
C881 C 0.06794 0.70067 0.32971 0.0
C882 C 0.05523 0.69226 0.3021 0.0
H883 H 0.06716 0.67361 0.21183 0.0
H884 H 0.06933 0.69855 0.23599 0.0
H885 H 0.07227 0.67248 0.2517 0.0
H886 H 0.02362 0.62773 0.31533 0.0
H887 H 0.04531 0.64244 0.36388 0.0
H888 H 0.64838 0.61092 0.63836 0.0
H889 H 0.63744 0.62284 0.68664 0.0
H890 H 0.71614 0.65642 0.71484 0.0
H891 H 0.72723 0.64476 0.66645 0.0
H892 H 0.64565 0.61663 0.7512 0.0
H893 H 0.70024 0.71703 0.70877 0.0
H894 H 0.69023 0.68951 0.68456 0.0
H895 H 0.71745 0.69969 0.70879 0.0
C896 C 0.66315 0.62007 0.65529 0.0
C897 C 0.68869 0.62707 0.64862 0.0
C898 C 0.6569 0.62693 0.68279 0.0
C899 C 0.67609 0.64097 0.70399 0.0
C900 C 0.70112 0.64586 0.69855 0.0
H901 H 0.69391 0.72622 0.86446 0.0
H902 H 0.69763 0.70703 0.81764 0.0
C903 C 0.70739 0.63892 0.67107 0.0
C904 C 0.67056 0.65296 0.72999 0.0
H905 H 0.68453 0.71131 0.75866 0.0
C906 C 0.65402 0.63731 0.75286 0.0
C907 C 0.68124 0.67993 0.73177 0.0
C908 C 0.69811 0.69759 0.70709 0.0
C909 C 0.64873 0.64803 0.77816 0.0
C910 C 0.6599 0.67506 0.78025 0.0
C911 C 0.67594 0.69061 0.75698 0.0
C912 C 0.65712 0.68777 0.80754 0.0
C913 C 0.63203 0.63045 0.80298 0.0
C914 C 0.63317 0.68404 0.81695 0.0
C915 C 0.631 0.69515 0.84383 0.0
C916 C 0.65276 0.71001 0.8616 0.0
C917 C 0.67679 0.71463 0.85131 0.0
C918 C 0.67895 0.70369 0.82458 0.0
H919 H 0.62888 0.61067 0.80053 0.0
H920 H 0.64072 0.63804 0.82535 0.0
H921 H 0.61309 0.62936 0.80239 0.0
H922 H 0.61615 0.67224 0.80379 0.0
H923 H 0.61227 0.69129 0.85131 0.0
H924 H 0.36629 0.07686 0.67557 0.0
H925 H 0.35963 0.05309 0.72265 0.0
H926 H 0.40167 0.01825 0.68652 0.0
H927 H 0.40771 0.04148 0.63912 0.0
H928 H 0.35727 0.98268 0.70889 0.0
H929 H 0.40402 0.06025 0.79313 0.0
H930 H 0.38079 0.06353 0.77132 0.0
H931 H 0.40884 0.06628 0.75318 0.0
C932 C 0.37478 0.06474 0.67806 0.0
C933 C 0.38764 0.06111 0.6538 0.0
C934 C 0.37095 0.05112 0.70498 0.0
C935 C 0.38033 0.03398 0.70832 0.0
C936 C 0.39423 0.03131 0.68453 0.0
H937 H 0.37077 0.96228 0.88221 0.0
H938 H 0.38644 0.98486 0.83417 0.0
C939 C 0.39781 0.04469 0.65754 0.0
C940 C 0.37386 0.0173 0.73548 0.0
H941 H 0.37479 0.01833 0.81233 0.0
C942 C 0.36137 0.99051 0.73151 0.0
C943 C 0.37942 0.02742 0.76503 0.0
C944 C 0.39424 0.05595 0.77094 0.0
C945 C 0.35377 0.9736 0.7562 0.0
C946 C 0.35816 0.98369 0.78577 0.0
C947 C 0.3712 1.0105 0.78971 0.0
C948 C 0.34911 0.96701 0.81304 0.0
C949 C 0.34138 0.94513 0.75026 0.0
C950 C 0.32301 0.94882 0.81695 0.0
C951 C 0.31412 0.93554 0.84424 0.0
C952 C 0.3311 0.9406 0.86829 0.0
C953 C 0.35732 0.95797 0.86395 0.0
C954 C 0.36624 0.97097 0.83658 0.0
H955 H 0.34709 0.94125 0.72792 0.0
H956 H 0.34652 0.93533 0.76783 0.0
H957 H 0.32025 0.93661 0.75022 0.0
H958 H 0.30927 0.94582 0.79949 0.0
H959 H 0.29376 0.92261 0.84722 0.0
H960 H 0.94454 0.34464 0.65785 0.0
H961 H 0.96627 0.36302 0.70599 0.0
H962 H 0.02555 0.34577 0.68215 0.0
H963 H 1.00422 0.32771 0.63445 0.0
H964 H 0.97955 0.34112 0.75276 0.0
H965 H 0.06693 0.42171 0.70268 0.0
H966 H 0.03786 0.40312 0.68141 0.0
H967 H 0.05977 0.39129 0.68711 0.0
C968 C 0.96217 0.34476 0.66304 0.0
C969 C 0.97295 0.33521 0.64221 0.0
C970 C 0.97461 0.35534 0.6904 0.0
C971 C 0.99795 0.35646 0.69721 0.0
C972 C 1.00807 0.34594 0.67692 0.0
H973 H 0.09887 0.38197 0.84318 0.0
H974 H 0.07775 0.37594 0.79444 0.0
C975 C 0.99579 0.33554 0.64971 0.0
C976 C 1.0116 0.36782 0.72582 0.0
H977 H 0.07046 0.41087 0.75395 0.0
C978 C 0.99926 0.35668 0.75311 0.0
C979 C 0.03734 0.38817 0.72619 0.0
C980 C 0.05117 0.40195 0.69778 0.0
C981 C 1.01241 0.36443 0.78063 0.0
C982 C 0.03845 0.38402 0.78081 0.0
C983 C 0.05053 0.39578 0.75367 0.0
C984 C 0.05377 0.39136 0.80883 0.0
C985 C 0.99871 0.35081 0.80917 0.0
C986 C 0.04812 0.40315 0.83255 0.0
C987 C 0.06034 0.40688 0.86033 0.0
C988 C 0.0784 0.39881 0.86489 0.0
C989 C 0.08526 0.38862 0.84039 0.0
C990 C 0.07306 0.38498 0.81258 0.0
H991 H 0.98005 0.33328 0.80453 0.0
H992 H 1.01076 0.34528 0.82259 0.0
H993 H 0.99501 0.36397 0.82309 0.0
H994 H 0.03359 0.40863 0.82989 0.0
H995 H 0.05492 0.41513 0.87864 0.0
H996 H 0.52065 0.23079 0.09079 0.0
H997 H 0.55647 0.22315 0.10129 0.0
H998 H 0.57292 0.22737 0.00621 0.0
H999 H 0.53764 0.23524 0.99572 0.0
H1000 H 0.56661 0.18413 0.0802 0.0
H1001 H 0.64158 0.28071 0.04256 0.0
H1002 H 0.60914 0.27314 0.05062 0.0
H1003 H 0.61693 0.26446 0.01496 0.0
C1004 C 0.53194 0.23004 0.07221 0.0
C1005 C 0.52652 0.2338 0.04247 0.0
C1006 C 0.55234 0.22566 0.07821 0.0
C1007 C 0.56766 0.22516 0.05457 0.0
C1008 C 0.56173 0.22823 0.02486 0.0
H1009 H 0.69019 0.19802 0.01466 0.0
H1010 H 0.65212 0.20251 0.01688 0.0
C1011 C 0.54147 0.23261 0.01888 0.0
C1012 C 0.58996 0.22156 0.06048 0.0
H1013 H 0.6541 0.2487 0.04646 0.0
C1014 C 0.58583 0.19839 0.0733 0.0
C1015 C 0.61506 0.24026 0.05163 0.0
C1016 C 0.62104 0.26615 0.03946 0.0
C1017 C 0.60594 0.19293 0.07601 0.0
C1018 C 0.63071 0.21115 0.06577 0.0
C1019 C 0.63501 0.23467 0.05405 0.0
C1020 C 0.65225 0.2058 0.06536 0.0
C1021 C 0.6005 0.16738 0.08862 0.0
C1022 C 0.66477 0.20583 0.092 0.0
C1023 C 0.68674 0.20336 0.09085 0.0
C1024 C 0.69651 0.20084 0.063 0.0
C1025 C 0.68329 0.19993 0.03651 0.0
C1026 C 0.6615 0.20252 0.03769 0.0
H1027 H 0.57975 0.15434 0.09296 0.0
H1028 H 0.60743 0.15785 0.07277 0.0
H1029 H 0.61103 0.17048 0.11011 0.0
H1030 H 0.65805 0.20858 0.11357 0.0
H1031 H 0.69646 0.2042 0.11167 0.0
H1032 H 0.79044 0.31349 0.99925 0.0
H1033 H 0.80163 0.3577 0.01024 0.0
H1034 H 0.80231 0.34333 0.10528 0.0
H1035 H 0.79109 0.29865 0.09433 0.0
H1036 H 0.77356 0.36896 0.08665 0.0
H1037 H 0.87225 0.41635 0.04033 0.0
H1038 H 0.84852 0.39283 0.0157 0.0
H1039 H 0.85512 0.38286 0.05114 0.0
C1040 C 0.79309 0.31972 0.02252 0.0
C1041 C 0.79 0.30267 0.04595 0.0
C1042 C 0.7996 0.34504 0.02874 0.0
C1043 C 0.80316 0.35391 0.05852 0.0
C1044 C 0.79983 0.33689 0.08211 0.0
H1045 H 0.82328 0.50501 0.1118 0.0
H1046 H 0.81991 0.46266 0.11549 0.0
C1047 C 0.79347 0.31145 0.07585 0.0
C1048 C 0.80957 0.3808 0.06454 0.0
H1049 H 0.85347 0.44294 0.0471 0.0
C1050 C 0.79122 0.38523 0.07856 0.0
C1051 C 0.8326 0.40193 0.05387 0.0
C1052 C 0.85339 0.39836 0.03965 0.0
C1053 C 0.79465 0.41016 0.08063 0.0
C1054 C 0.8173 0.43123 0.06888 0.0
C1055 C 0.8361 0.42683 0.05604 0.0
C1056 C 0.82093 0.4576 0.06734 0.0
C1057 C 0.77339 0.41352 0.09382 0.0
C1058 C 0.8236 0.46928 0.03917 0.0
C1059 C 0.82578 0.49352 0.03699 0.0
C1060 C 0.8254 0.50672 0.06299 0.0
C1061 C 0.82354 0.49535 0.09131 0.0
C1062 C 0.8214 0.47105 0.09346 0.0
H1063 H 0.75522 0.39493 0.09605 0.0
H1064 H 0.77908 0.42214 0.11658 0.0
H1065 H 0.76979 0.42665 0.07967 0.0
H1066 H 0.8234 0.45935 0.0187 0.0
H1067 H 0.82722 0.50163 0.0148 0.0
H1068 H 0.724 0.49953 0.09056 0.0
H1069 H 0.68047 0.46375 0.10103 0.0
H1070 H 0.67093 0.44367 0.00685 0.0
H1071 H 0.71407 0.47885 0.99644 0.0
H1072 H 0.63241 0.45297 0.07791 0.0
H1073 H 0.65299 0.37575 0.04718 0.0
H1074 H 0.67803 0.40838 0.05396 0.0
H1075 H 0.66215 0.39946 0.01804 0.0
C1076 C 0.71257 0.4874 0.07218 0.0
C1077 C 0.72252 0.49188 0.04272 0.0
C1078 C 0.68772 0.467 0.07816 0.0
C1079 C 0.67255 0.45067 0.05481 0.0
C1080 C 0.6824 0.45556 0.02537 0.0
H1081 H 0.52167 0.33007 0.01439 0.0
H1082 H 0.56487 0.36717 0.01658 0.0
C1083 C 0.70707 0.47581 0.01942 0.0
C1084 C 0.64631 0.42864 0.06067 0.0
H1085 H 0.60863 0.36405 0.0487 0.0
C1086 C 0.62729 0.43346 0.07201 0.0
C1087 C 0.63958 0.4031 0.05313 0.0
C1088 C 0.65932 0.39628 0.0427 0.0
C1089 C 0.60156 0.41365 0.07454 0.0
C1090 C 0.59472 0.38843 0.06559 0.0
C1091 C 0.61387 0.38345 0.05531 0.0
C1092 C 0.56765 0.36715 0.06509 0.0
C1093 C 0.58158 0.41986 0.08559 0.0
C1094 C 0.55469 0.3549 0.09173 0.0
C1095 C 0.52988 0.33345 0.0906 0.0
C1096 C 0.51756 0.32393 0.06277 0.0
C1097 C 0.53042 0.33681 0.03625 0.0
C1098 C 0.5552 0.35805 0.03741 0.0
H1099 H 0.58963 0.44075 0.08963 0.0
H1100 H 0.56584 0.41331 0.06889 0.0
H1101 H 0.57312 0.40939 0.10694 0.0
H1102 H 0.56403 0.3615 0.11333 0.0
H1103 H 0.52063 0.32399 0.11146 0.0
H1104 H 0.19846 0.69519 0.39575 0.0
H1105 H 0.21454 0.66474 0.39518 0.0
H1106 H 0.23728 0.68251 0.48804 0.0
H1107 H 0.22111 0.7125 0.48901 0.0
H1108 H 0.26569 0.67303 0.40994 0.0
H1109 H 0.18945 0.60355 0.48643 0.0
H1110 H 0.18697 0.6286 0.4669 0.0
H1111 H 0.20628 0.63597 0.50022 0.0
C1112 C 0.20681 0.69252 0.41605 0.0
C1113 C 0.20828 0.7061 0.4425 0.0
C1114 C 0.2161 0.67525 0.41563 0.0
C1115 C 0.22683 0.6712 0.44167 0.0
C1116 C 0.22873 0.68508 0.46784 0.0
H1117 H 0.28033 0.56917 0.50005 0.0
H1118 H 0.27325 0.60567 0.49377 0.0
C1119 C 0.21946 0.70223 0.46831 0.0
C1120 C 0.23546 0.652 0.44205 0.0
H1121 H 0.22409 0.59644 0.47645 0.0
C1122 C 0.25653 0.65616 0.42428 0.0
C1123 C 0.22347 0.63007 0.46084 0.0
C1124 C 0.20015 0.62407 0.4795 0.0
C1125 C 0.2663 0.6392 0.42541 0.0
C1126 C 0.25447 0.61748 0.44454 0.0
C1127 C 0.23327 0.61325 0.46201 0.0
C1128 C 0.26322 0.59841 0.44662 0.0
C1129 C 0.28951 0.6449 0.40677 0.0
C1130 C 0.26059 0.58264 0.42197 0.0
C1131 C 0.26459 0.56174 0.42554 0.0
C1132 C 0.27118 0.55627 0.45382 0.0
C1133 C 0.27521 0.57292 0.47801 0.0
C1134 C 0.27118 0.59376 0.47446 0.0
H1135 H 0.29976 0.6651 0.39864 0.0
H1136 H 0.30304 0.64125 0.41996 0.0
H1137 H 0.28337 0.63204 0.38686 0.0
H1138 H 0.2541 0.58565 0.40042 0.0
H1139 H 0.26131 0.54915 0.40654 0.0
H1140 H 0.45903 0.71899 0.49245 0.0
H1141 H 0.42216 0.67624 0.48366 0.0
H1142 H 0.44124 0.68264 0.38919 0.0
H1143 H 0.47847 0.72531 0.39797 0.0
H1144 H 0.37881 0.65515 0.44541 0.0
H1145 H 0.44615 0.62004 0.41696 0.0
H1146 H 0.45675 0.65108 0.43374 0.0
H1147 H 0.44918 0.64621 0.39432 0.0
C1148 C 0.4551 0.71147 0.46972 0.0
C1149 C 0.47177 0.72525 0.44595 0.0
C1150 C 0.43402 0.68706 0.46472 0.0
C1151 C 0.4293 0.67605 0.4359 0.0
C1152 C 0.44487 0.69059 0.41172 0.0
H1153 H 0.32746 0.5149 0.38689 0.0
H1154 H 0.35561 0.56158 0.38377 0.0
C1155 C 0.46602 0.71499 0.41672 0.0
C1156 C 0.4095 0.64868 0.43189 0.0
H1157 H 0.40221 0.5897 0.41614 0.0
C1158 C 0.38387 0.64085 0.4388 0.0
C1159 C 0.41618 0.63004 0.42333 0.0
C1160 C 0.44356 0.63711 0.41688 0.0
C1161 C 0.36477 0.61481 0.43763 0.0
C1162 C 0.37159 0.59617 0.42977 0.0
C1163 C 0.39706 0.60407 0.42208 0.0
C1164 C 0.35304 0.56822 0.4312 0.0
C1165 C 0.33744 0.6074 0.44478 0.0
C1166 C 0.34254 0.55649 0.45896 0.0
C1167 C 0.32673 0.52985 0.46088 0.0
C1168 C 0.32095 0.51442 0.43503 0.0
C1169 C 0.33144 0.52624 0.4072 0.0
C1170 C 0.34744 0.5529 0.40535 0.0
H1171 H 0.33425 0.62406 0.44306 0.0
H1172 H 0.324 0.59205 0.42935 0.0
H1173 H 0.33286 0.5999 0.46816 0.0
H1174 H 0.3471 0.56787 0.47931 0.0
H1175 H 0.31923 0.52132 0.48271 0.0
H1176 H 0.51345 0.82907 0.38802 0.0
H1177 H 0.46747 0.81464 0.38691 0.0
H1178 H 0.46098 0.79298 0.48047 0.0
H1179 H 0.50668 0.80731 0.48184 0.0
H1180 H 0.42054 0.75592 0.4423 0.0
H1181 H 0.43741 0.85549 0.42955 0.0
H1182 H 0.45268 0.84526 0.40239 0.0
H1183 H 0.46236 0.84901 0.44113 0.0
C1184 C 0.50221 0.82118 0.40832 0.0
C1185 C 0.51376 0.81946 0.43505 0.0
C1186 C 0.47596 0.81295 0.40764 0.0
C1187 C 0.46089 0.8029 0.43367 0.0
C1188 C 0.47226 0.80063 0.46013 0.0
H1189 H 0.32453 0.79521 0.49805 0.0
H1190 H 0.36679 0.8004 0.4883 0.0
C1191 C 0.49844 0.80895 0.46088 0.0
C1192 C 0.43354 0.79592 0.4341 0.0
H1193 H 0.39468 0.82223 0.43328 0.0
C1194 C 0.41477 0.77032 0.43997 0.0
C1195 C 0.42619 0.81483 0.43132 0.0
C1196 C 0.44564 0.84274 0.42596 0.0
C1197 C 0.38886 0.76322 0.44372 0.0
C1198 C 0.38164 0.78224 0.44146 0.0
C1199 C 0.40032 0.8077 0.43489 0.0
C1200 C 0.35527 0.7768 0.44824 0.0
C1201 C 0.36954 0.73572 0.45126 0.0
C1202 C 0.33463 0.76146 0.42915 0.0
C1203 C 0.31033 0.75845 0.43469 0.0
C1204 C 0.30645 0.77081 0.45936 0.0
C1205 C 0.32696 0.78547 0.47886 0.0
C1206 C 0.35113 0.7885 0.4733 0.0
H1207 H 0.3788 0.72411 0.45631 0.0
H1208 H 0.35777 0.73493 0.47096 0.0
H1209 H 0.35642 0.72683 0.43189 0.0
H1210 H 0.3375 0.75247 0.40951 0.0
H1211 H 0.29482 0.74707 0.41929 0.0
H1212 H 0.33482 0.81444 0.98797 0.0
H1213 H 0.37241 0.80923 0.98453 0.0
H1214 H 0.36966 0.81137 0.88768 0.0
H1215 H 0.33166 0.81648 0.89081 0.0
H1216 H 0.37282 0.76632 0.95017 0.0
H1217 H 0.44675 0.86446 0.91313 0.0
H1218 H 0.41805 0.85868 0.93281 0.0
H1219 H 0.41619 0.84897 0.89431 0.0
C1220 C 0.34227 0.8141 0.96585 0.0
C1221 C 0.33012 0.81591 0.93964 0.0
C1222 C 0.36378 0.81105 0.96397 0.0
C1223 C 0.37391 0.81 0.93589 0.0
C1224 C 0.36228 0.81236 0.90961 0.0
H1225 H 0.51103 0.79412 0.90766 0.0
H1226 H 0.47375 0.79958 0.89782 0.0
C1227 C 0.34055 0.81525 0.91145 0.0
C1228 C 0.39589 0.80523 0.93454 0.0
H1229 H 0.46055 0.83467 0.92248 0.0
C1230 C 0.39197 0.78119 0.94386 0.0
C1231 C 0.4208 0.82454 0.92601 0.0
C1232 C 0.42596 0.85072 0.91607 0.0
C1233 C 0.41235 0.77612 0.94555 0.0
C1234 C 0.43753 0.79584 0.93848 0.0
C1235 C 0.44131 0.81959 0.92802 0.0
C1236 C 0.46024 0.79268 0.94395 0.0
C1237 C 0.40669 0.74964 0.95499 0.0
C1238 C 0.4653 0.78742 0.97315 0.0
C1239 C 0.48644 0.78432 0.97875 0.0
C1240 C 0.50318 0.78658 0.95533 0.0
C1241 C 0.4984 0.7922 0.92612 0.0
C1242 C 0.47715 0.79534 0.9205 0.0
H1243 H 0.38649 0.73495 0.95016 0.0
H1244 H 0.41952 0.74405 0.94334 0.0
H1245 H 0.4097 0.74951 0.97962 0.0
H1246 H 0.45293 0.78585 0.99175 0.0
H1247 H 0.48967 0.78016 0.00154 0.0
H1248 H 0.24618 0.70545 0.00465 0.0
H1249 H 0.23664 0.66171 0.99364 0.0
H1250 H 0.22466 0.67223 0.90021 0.0
H1251 H 0.23448 0.71644 0.91116 0.0
H1252 H 0.19126 0.62114 0.96953 0.0
H1253 H 0.27544 0.64486 0.89642 0.0
H1254 H 0.27408 0.66843 0.92041 0.0
H1255 H 0.25609 0.65874 0.88604 0.0
C1256 C 0.2416 0.69852 0.98171 0.0
C1257 C 0.24114 0.7144 0.95874 0.0
C1258 C 0.23611 0.67348 0.97545 0.0
C1259 C 0.23017 0.6637 0.94606 0.0
C1260 C 0.22959 0.67947 0.92298 0.0
H1261 H 0.20229 0.51011 0.89047 0.0
H1262 H 0.20535 0.55252 0.88882 0.0
C1263 C 0.23506 0.70465 0.92927 0.0
C1264 C 0.22416 0.63681 0.94022 0.0
H1265 H 0.24707 0.60107 0.90636 0.0
C1266 C 0.20334 0.61675 0.95549 0.0
C1267 C 0.2398 0.63101 0.92174 0.0
C1268 C 0.26273 0.65183 0.90531 0.0
C1269 C 0.19812 0.59123 0.95341 0.0
C1270 C 0.21442 0.58556 0.93603 0.0
C1271 C 0.23461 0.60542 0.91972 0.0
C1272 C 0.21205 0.55964 0.93662 0.0
C1273 C 0.17529 0.57055 0.97015 0.0
C1274 C 0.21507 0.54967 0.9639 0.0
C1275 C 0.21335 0.5256 0.96491 0.0
C1276 C 0.20866 0.51084 0.9386 0.0
C1277 C 0.20573 0.52086 0.91118 0.0
C1278 C 0.20755 0.54512 0.91019 0.0
H1279 H 0.16062 0.57628 0.97434 0.0
H1280 H 0.16628 0.55217 0.95749 0.0
H1281 H 0.18164 0.56726 0.99232 0.0
H1282 H 0.2191 0.56069 0.98449 0.0
H1283 H 0.2159 0.51867 0.98642 0.0
H1284 H 0.30809 0.55073 0.91088 0.0
H1285 H 0.35172 0.58654 0.90213 0.0
H1286 H 0.37072 0.58251 0.99481 0.0
H1287 H 0.32736 0.54672 0.00362 0.0
H1288 H 0.38161 0.63581 0.93235 0.0
H1289 H 0.42315 0.57196 0.9448 0.0
H1290 H 0.38937 0.55976 0.93875 0.0
H1291 H 0.40296 0.57035 0.97555 0.0
C1292 C 0.32152 0.55774 0.92944 0.0
C1293 C 0.31449 0.54588 0.95786 0.0
C1294 C 0.34638 0.57813 0.92441 0.0
C1295 C 0.36452 0.58679 0.94769 0.0
C1296 C 0.35711 0.57576 0.97643 0.0
H1297 H 0.52123 0.69634 0.98049 0.0
H1298 H 0.47682 0.6615 0.98033 0.0
C1299 C 0.33232 0.55544 0.98146 0.0
C1300 C 0.39148 0.60667 0.94188 0.0
H1301 H 0.45256 0.61691 0.94384 0.0
C1302 C 0.39715 0.6317 0.93451 0.0
C1303 C 0.41163 0.60112 0.94457 0.0
C1304 C 0.40655 0.5743 0.95108 0.0
C1305 C 0.42263 0.65163 0.93108 0.0
C1306 C 0.4428 0.64618 0.93462 0.0
C1307 C 0.43704 0.621 0.94116 0.0
C1308 C 0.47007 0.66662 0.93367 0.0
C1309 C 0.42783 0.67854 0.92495 0.0
C1310 C 0.48122 0.68062 0.90721 0.0
C1311 C 0.50675 0.70057 0.90717 0.0
C1312 C 0.52148 0.70681 0.93362 0.0
C1313 C 0.51043 0.69212 0.95975 0.0
C1314 C 0.48502 0.6722 0.95973 0.0
H1315 H 0.41053 0.68036 0.92849 0.0
H1316 H 0.4434 0.69259 0.9397 0.0
H1317 H 0.43414 0.68372 0.90123 0.0
H1318 H 0.4701 0.67628 0.88671 0.0
H1319 H 0.51468 0.71151 0.88667 0.0
H1320 H 0.76886 0.46665 0.59394 0.0
H1321 H 0.77587 0.42994 0.59911 0.0
H1322 H 0.74552 0.40443 0.50997 0.0
H1323 H 0.73876 0.44124 0.50453 0.0
H1324 H 0.74426 0.37467 0.59249 0.0
H1325 H 0.82062 0.41959 0.5055 0.0
H1326 H 0.80696 0.43681 0.52386 0.0
H1327 H 0.78978 0.41445 0.4942 0.0
C1328 C 0.7632 0.45291 0.5757 0.0
C1329 C 0.7536 0.45692 0.54867 0.0
C1330 C 0.76722 0.43197 0.57868 0.0
C1331 C 0.7617 0.4148 0.55468 0.0
C1332 C 0.75033 0.41774 0.52854 0.0
H1333 H 0.80344 0.29948 0.51322 0.0
H1334 H 0.78628 0.32879 0.51337 0.0
C1335 C 0.74638 0.43869 0.52551 0.0
C1336 C 0.76987 0.39525 0.55592 0.0
H1337 H 0.81113 0.37886 0.52343 0.0
C1338 C 0.75884 0.37548 0.57739 0.0
C1339 C 0.78908 0.39657 0.53639 0.0
C1340 C 0.80251 0.41809 0.51384 0.0
C1341 C 0.76611 0.3566 0.57938 0.0
C1342 C 0.78526 0.35785 0.55968 0.0
C1343 C 0.79634 0.37776 0.53837 0.0
C1344 C 0.79428 0.33886 0.56049 0.0
C1345 C 0.75293 0.33542 0.60234 0.0
C1346 C 0.80472 0.33488 0.58685 0.0
C1347 C 0.81428 0.31786 0.58688 0.0
C1348 C 0.8137 0.30464 0.56049 0.0
C1349 C 0.80374 0.30906 0.53402 0.0
C1350 C 0.79397 0.32585 0.53407 0.0
H1351 H 0.73336 0.33185 0.60757 0.0
H1352 H 0.75147 0.31719 0.5946 0.0
H1353 H 0.76415 0.34127 0.62354 0.0
H1354 H 0.80586 0.34523 0.60729 0.0
H1355 H 0.82216 0.31509 0.60752 0.0
H1356 H 0.56833 0.28862 0.51511 0.0
H1357 H 0.60435 0.33198 0.52292 0.0
H1358 H 0.57325 0.33519 0.6094 0.0
H1359 H 0.53675 0.292 0.60122 0.0
H1360 H 0.58316 0.3758 0.57608 0.0
H1361 H 0.66844 0.36385 0.57237 0.0
H1362 H 0.64852 0.35015 0.53994 0.0
H1363 H 0.6364 0.33693 0.5767 0.0
C1364 C 0.56948 0.29836 0.53607 0.0
C1365 C 0.5497 0.28702 0.5575 0.0
C1366 C 0.5902 0.32312 0.54063 0.0
C1367 C 0.59175 0.33686 0.56692 0.0
C1368 C 0.57255 0.32499 0.58898 0.0
H1369 H 0.692 0.50045 0.61033 0.0
H1370 H 0.66214 0.45412 0.61476 0.0
C1371 C 0.55173 0.30029 0.58433 0.0
C1372 C 0.61165 0.36447 0.56979 0.0
H1373 H 0.67598 0.40673 0.56397 0.0
C1374 C 0.60348 0.38249 0.57395 0.0
C1375 C 0.6382 0.37331 0.56687 0.0
C1376 C 0.64843 0.355 0.56404 0.0
C1377 C 0.62095 0.40902 0.57415 0.0
C1378 C 0.64737 0.41784 0.57037 0.0
C1379 C 0.65568 0.3999 0.56683 0.0
C1380 C 0.66643 0.44567 0.56845 0.0
C1381 C 0.61092 0.42748 0.57722 0.0
C1382 C 0.67899 0.45619 0.5411 0.0
C1383 C 0.69587 0.48261 0.53845 0.0
C1384 C 0.70086 0.49903 0.56323 0.0
C1385 C 0.68856 0.48837 0.5908 0.0
C1386 C 0.67149 0.46191 0.59337 0.0
H1387 H 0.58978 0.41774 0.57457 0.0
H1388 H 0.61584 0.43645 0.59986 0.0
H1389 H 0.61994 0.44307 0.5602 0.0
H1390 H 0.67532 0.44402 0.52159 0.0
H1391 H 0.70487 0.49017 0.51684 0.0
H1392 H 0.69243 0.20136 0.57401 0.0
H1393 H 0.65209 0.20063 0.58226 0.0
H1394 H 0.69018 0.28279 0.56893 0.0
H1395 H 0.73044 0.28317 0.55838 0.0
H1396 H 0.63515 0.22025 0.62132 0.0
H1397 H 0.63427 0.26162 0.50956 0.0
H1398 H 0.65791 0.25283 0.51928 0.0
H1399 H 0.66075 0.28231 0.53315 0.0
C1400 C 0.69224 0.21929 0.57293 0.0
C1401 C 0.71448 0.24232 0.56548 0.0
C1402 C 0.66916 0.21889 0.57774 0.0
C1403 C 0.66786 0.24157 0.57568 0.0
C1404 C 0.69044 0.2649 0.56977 0.0
H1405 H 0.51375 0.21566 0.62265 0.0
H1406 H 0.56033 0.23409 0.62438 0.0
C1407 C 0.71351 0.2652 0.56419 0.0
C1408 C 0.64252 0.24003 0.57884 0.0
H1409 H 0.5985 0.24922 0.54067 0.0
C1410 C 0.62719 0.22675 0.60377 0.0
C1411 C 0.63211 0.24852 0.55592 0.0
C1412 C 0.64699 0.26192 0.52785 0.0
C1413 C 0.60137 0.22024 0.60554 0.0
C1414 C 0.59083 0.22833 0.58237 0.0
C1415 C 0.6066 0.24301 0.55838 0.0
C1416 C 0.56298 0.2194 0.58077 0.0
C1417 C 0.58533 0.20335 0.63123 0.0
C1418 C 0.54909 0.20613 0.55509 0.0
C1419 C 0.52265 0.19619 0.55376 0.0
C1420 C 0.50948 0.19898 0.57824 0.0
C1421 C 0.52337 0.21274 0.6037 0.0
C1422 C 0.54998 0.22322 0.60475 0.0
H1423 H 0.59471 0.19377 0.64271 0.0
H1424 H 0.5825 0.21529 0.64818 0.0
H1425 H 0.56622 0.18828 0.62321 0.0
H1426 H 0.55865 0.20298 0.53624 0.0
H1427 H 0.51241 0.18581 0.53379 0.0
H1428 H 0.44923 0.2644 0.66639 0.0
H1429 H 0.45134 0.2787 0.71847 0.0
H1430 H 0.42394 0.20128 0.74981 0.0
H1431 H 0.42127 0.18672 0.69794 0.0
H1432 H 0.40076 0.22544 0.77859 0.0
H1433 H 0.50696 0.28691 0.77746 0.0
H1434 H 0.49019 0.294 0.74903 0.0
H1435 H 0.4897 0.26385 0.74821 0.0
C1436 C 0.44355 0.25041 0.68437 0.0
C1437 C 0.43527 0.22446 0.6781 0.0
C1438 C 0.44487 0.25864 0.71409 0.0
C1439 C 0.43817 0.24111 0.73795 0.0
C1440 C 0.42925 0.21511 0.73168 0.0
H1441 H 0.47929 0.24948 0.92017 0.0
H1442 H 0.4744 0.24724 0.86567 0.0
C1443 C 0.42779 0.20684 0.70202 0.0
C1444 C 0.44102 0.24969 0.76962 0.0
H1445 H 0.48577 0.2848 0.82279 0.0
C1446 C 0.41928 0.23865 0.78827 0.0
C1447 C 0.46528 0.26679 0.78206 0.0
C1448 C 0.48944 0.27847 0.7633 0.0
C1449 C 0.42124 0.24353 0.81931 0.0
C1450 C 0.44556 0.26033 0.83183 0.0
C1451 C 0.46716 0.27209 0.813 0.0
C1452 C 0.44947 0.26357 0.86476 0.0
C1453 C 0.39753 0.22963 0.83865 0.0
C1454 C 0.43744 0.27397 0.88228 0.0
C1455 C 0.44004 0.27513 0.91364 0.0
C1456 C 0.45489 0.26606 0.92782 0.0
C1457 C 0.46762 0.25653 0.91001 0.0
C1458 C 0.46492 0.25529 0.87882 0.0
H1459 H 0.38135 0.21377 0.82628 0.0
H1460 H 0.40152 0.22154 0.85907 0.0
H1461 H 0.39139 0.24339 0.84605 0.0
H1462 H 0.42581 0.2809 0.87175 0.0
H1463 H 0.43016 0.28276 0.92674 0.0
H1464 H 0.7688 0.22447 0.66678 0.0
H1465 H 0.75532 0.21355 0.71922 0.0
H1466 H 0.83383 0.24159 0.74541 0.0
H1467 H 0.84734 0.25171 0.69282 0.0
H1468 H 0.8019 0.19684 0.77285 0.0
H1469 H 0.76396 0.26386 0.78417 0.0
H1470 H 0.74921 0.2408 0.75453 0.0
H1471 H 0.7827 0.26446 0.75213 0.0
C1472 C 0.78321 0.22838 0.68373 0.0
C1473 C 0.80916 0.23913 0.67575 0.0
C1474 C 0.77547 0.22223 0.7137 0.0
C1475 C 0.79362 0.22721 0.7363 0.0
C1476 C 0.81951 0.23766 0.72832 0.0
H1477 H 0.7858 0.24818 0.92469 0.0
H1478 H 0.79171 0.25076 0.87036 0.0
C1479 C 0.82722 0.2435 0.6983 0.0
C1480 C 0.78577 0.22161 0.76831 0.0
H1481 H 0.75751 0.23649 0.82551 0.0
C1482 C 0.79214 0.20545 0.7844 0.0
C1483 C 0.77319 0.23303 0.78332 0.0
C1484 C 0.76707 0.25169 0.76776 0.0
C1485 C 0.7867 0.20074 0.81525 0.0
C1486 C 0.77392 0.21198 0.83018 0.0
C1487 C 0.76709 0.22772 0.81393 0.0
C1488 C 0.76956 0.2097 0.86315 0.0
C1489 C 0.79565 0.18468 0.8318 0.0
C1490 C 0.75487 0.1857 0.8772 0.0
C1491 C 0.75164 0.1841 0.90852 0.0
C1492 C 0.76276 0.20653 0.92614 0.0
C1493 C 0.77693 0.2305 0.91184 0.0
C1494 C 0.78033 0.23205 0.88072 0.0
H1495 H 0.81022 0.18254 0.8187 0.0
H1496 H 0.80398 0.1933 0.85398 0.0
H1497 H 0.77906 0.16521 0.83578 0.0
H1498 H 0.74592 0.16824 0.86397 0.0
H1499 H 0.74047 0.16537 0.91888 0.0
H1500 H 0.78293 0.52751 0.92102 0.0
H1501 H 0.77863 0.52682 0.86632 0.0
H1502 H 0.84118 0.60487 0.86132 0.0
H1503 H 0.84585 0.60569 0.91614 0.0
H1504 H 0.76721 0.55902 0.83332 0.0
H1505 H 0.8595 0.56823 0.796 0.0
H1506 H 0.84743 0.5592 0.83394 0.0
H1507 H 0.86263 0.59228 0.82242 0.0
C1508 C 0.79602 0.54446 0.90832 0.0
C1509 C 0.81474 0.56668 0.92298 0.0
C1510 C 0.7935 0.54401 0.87703 0.0
C1511 C 0.80972 0.56569 0.85974 0.0
C1512 C 0.82876 0.58777 0.87419 0.0
H1513 H 0.77821 0.60099 0.68104 0.0
H1514 H 0.78726 0.60067 0.73461 0.0
C1515 C 0.83131 0.58824 0.90555 0.0
C1516 C 0.80551 0.56569 0.82685 0.0
H1517 H 0.83391 0.5725 0.75817 0.0
C1518 C 0.78176 0.56188 0.81688 0.0
C1519 C 0.82444 0.56918 0.80547 0.0
C1520 C 0.84987 0.57223 0.81489 0.0
C1521 C 0.77653 0.56184 0.7861 0.0
C1522 C 0.79573 0.56611 0.76475 0.0
C1523 C 0.81934 0.56948 0.77465 0.0
C1524 C 0.79148 0.56698 0.73202 0.0
C1525 C 0.75038 0.55688 0.7767 0.0
C1526 C 0.79158 0.54857 0.71266 0.0
C1527 C 0.7865 0.54873 0.68195 0.0
C1528 C 0.78137 0.56743 0.67008 0.0
C1529 C 0.78191 0.58622 0.68946 0.0
C1530 C 0.78698 0.58602 0.72012 0.0
H1531 H 0.73602 0.54773 0.79502 0.0
H1532 H 0.75153 0.57542 0.77094 0.0
H1533 H 0.74352 0.54433 0.75651 0.0
H1534 H 0.79512 0.53378 0.72142 0.0
H1535 H 0.78632 0.53405 0.66762 0.0
H1536 H 0.23776 0.48495 0.57012 0.0
H1537 H 0.23098 0.48053 0.62458 0.0
H1538 H 0.24161 0.41461 0.62415 0.0
H1539 H 0.24895 0.41921 0.56969 0.0
H1540 H 0.19552 0.44157 0.65974 0.0
H1541 H 0.29323 0.46016 0.68696 0.0
H1542 H 0.28467 0.4659 0.65002 0.0
H1543 H 0.27596 0.43383 0.66152 0.0
C1544 C 0.23862 0.46946 0.58155 0.0
C1545 C 0.24413 0.45256 0.5655 0.0
C1546 C 0.23471 0.46694 0.61273 0.0
C1547 C 0.23624 0.44752 0.62861 0.0
C1548 C 0.24093 0.43012 0.61254 0.0
H1549 H 0.18574 0.40671 0.81635 0.0
H1550 H 0.1896 0.40619 0.76146 0.0
C1551 C 0.24497 0.43269 0.58134 0.0
C1552 C 0.23312 0.44574 0.66196 0.0
H1553 H 0.26385 0.44799 0.7275 0.0
C1554 C 0.21044 0.44293 0.67457 0.0
C1555 C 0.25274 0.44788 0.68135 0.0
C1556 C 0.27813 0.45236 0.66937 0.0
C1557 C 0.20681 0.44214 0.70595 0.0
C1558 C 0.2262 0.4437 0.72531 0.0
C1559 C 0.24889 0.44655 0.71269 0.0
C1560 C 0.22387 0.44355 0.75873 0.0
C1561 C 0.18256 0.44044 0.71804 0.0
C1562 C 0.24226 0.46432 0.77564 0.0
C1563 C 0.24028 0.46453 0.80703 0.0
C1564 C 0.21985 0.44393 0.82227 0.0
C1565 C 0.20162 0.42296 0.80534 0.0
C1566 C 0.2037 0.42272 0.77391 0.0
H1567 H 0.17297 0.44619 0.70086 0.0
H1568 H 0.169 0.42029 0.7247 0.0
H1569 H 0.18657 0.45282 0.73818 0.0
H1570 H 0.25805 0.48057 0.7645 0.0
H1571 H 0.25468 0.48098 0.8193 0.0
H1572 H 0.61603 0.8315 0.55836 0.0
H1573 H 0.62245 0.82808 0.61224 0.0
H1574 H 0.55047 0.75694 0.61652 0.0
H1575 H 0.54413 0.75992 0.56277 0.0
H1576 H 0.59233 0.82773 0.6579 0.0
H1577 H 0.59733 0.73822 0.66144 0.0
H1578 H 0.60037 0.75531 0.62682 0.0
H1579 H 0.56921 0.7339 0.6424 0.0
C1580 C 0.60173 0.81495 0.57069 0.0
C1581 C 0.57956 0.79598 0.55626 0.0
C1582 C 0.60543 0.81304 0.60148 0.0
C1583 C 0.58713 0.79207 0.61832 0.0
C1584 C 0.56516 0.77297 0.60386 0.0
H1585 H 0.55109 0.78391 0.80647 0.0
H1586 H 0.55378 0.78768 0.75166 0.0
C1587 C 0.56147 0.77482 0.57312 0.0
C1588 C 0.58994 0.79104 0.65139 0.0
H1589 H 0.58862 0.75224 0.70845 0.0
C1590 C 0.59183 0.81136 0.66893 0.0
C1591 C 0.58965 0.76985 0.66577 0.0
C1592 C 0.5893 0.74822 0.64811 0.0
C1593 C 0.5924 0.81061 0.70049 0.0
C1594 C 0.59049 0.78869 0.7149 0.0
C1595 C 0.58969 0.76885 0.69737 0.0
C1596 C 0.58865 0.78576 0.74811 0.0
C1597 C 0.59505 0.83331 0.71808 0.0
C1598 C 0.60686 0.78251 0.76425 0.0
C1599 C 0.60524 0.7801 0.79563 0.0
C1600 C 0.58531 0.78082 0.81139 0.0
C1601 C 0.56681 0.78352 0.79507 0.0
C1602 C 0.5684 0.78584 0.76373 0.0
H1603 H 0.60392 0.85112 0.70423 0.0
H1604 H 0.57576 0.82947 0.72512 0.0
H1605 H 0.60683 0.83672 0.7386 0.0
H1606 H 0.62253 0.78219 0.75258 0.0
H1607 H 0.61975 0.77795 0.80753 0.0
H1608 H 0.27681 0.85062 0.81603 0.0
H1609 H 0.2769 0.854 0.76103 0.0
H1610 H 0.21754 0.77455 0.75544 0.0
H1611 H 0.21711 0.77103 0.81025 0.0
H1612 H 0.28667 0.82568 0.71828 0.0
H1613 H 0.18884 0.81108 0.70429 0.0
H1614 H 0.20512 0.81888 0.74013 0.0
H1615 H 0.1897 0.78643 0.72628 0.0
C1616 C 0.26369 0.83389 0.80311 0.0
C1617 C 0.24687 0.81057 0.81755 0.0
C1618 C 0.26377 0.83587 0.77169 0.0
C1619 C 0.24691 0.81466 0.75419 0.0
C1620 C 0.23029 0.79132 0.76854 0.0
H1621 H 0.21813 0.76913 0.5694 0.0
H1622 H 0.21816 0.77411 0.62399 0.0
C1623 C 0.2302 0.78931 0.7999 0.0
C1624 C 0.2473 0.81649 0.72086 0.0
H1625 H 0.20922 0.80736 0.65986 0.0
C1626 C 0.26986 0.82201 0.70546 0.0
C1627 C 0.22533 0.81172 0.70424 0.0
C1628 C 0.20094 0.80694 0.71955 0.0
C1629 C 0.27072 0.82177 0.67385 0.0
C1630 C 0.24853 0.81633 0.65724 0.0
C1631 C 0.22618 0.81147 0.67265 0.0
C1632 C 0.24772 0.81415 0.62393 0.0
C1633 C 0.29503 0.8263 0.65854 0.0
C1634 C 0.26389 0.83521 0.60569 0.0
C1635 C 0.26397 0.83242 0.5744 0.0
C1636 C 0.24777 0.80853 0.56081 0.0
C1637 C 0.23093 0.78776 0.5791 0.0
C1638 C 0.2309 0.79057 0.61033 0.0
H1639 H 0.30833 0.82465 0.67451 0.0
H1640 H 0.29069 0.81239 0.63992 0.0
H1641 H 0.30504 0.84594 0.64881 0.0
H1642 H 0.27664 0.85372 0.61569 0.0
H1643 H 0.27702 0.84886 0.56094 0.0
H1644 H 0.54302 0.75676 0.07584 0.0
H1645 H 0.54303 0.75924 0.13084 0.0
H1646 H 0.62507 0.79211 0.13155 0.0
H1647 H 0.62534 0.78964 0.07648 0.0
H1648 H 0.56725 0.73943 0.17735 0.0
H1649 H 0.60641 0.84531 0.17308 0.0
H1650 H 0.59018 0.82466 0.14145 0.0
H1651 H 0.62218 0.83224 0.1507 0.0
C1652 C 0.56106 0.76428 0.08767 0.0
C1653 C 0.58422 0.7732 0.07179 0.0
C1654 C 0.56099 0.76559 0.11907 0.0
C1655 C 0.58405 0.77601 0.13507 0.0
C1656 C 0.60711 0.78412 0.11946 0.0
H1657 H 0.61993 0.82717 0.32001 0.0
H1658 H 0.62183 0.81701 0.26717 0.0
C1659 C 0.6072 0.78265 0.08804 0.0
C1660 C 0.58411 0.77982 0.16792 0.0
H1661 H 0.59899 0.82619 0.22094 0.0
C1662 C 0.57423 0.75836 0.18701 0.0
C1663 C 0.59325 0.80456 0.18022 0.0
C1664 C 0.6035 0.82809 0.16043 0.0
C1665 C 0.57351 0.76106 0.21837 0.0
C1666 C 0.58231 0.78581 0.2307 0.0
C1667 C 0.59229 0.80724 0.21147 0.0
C1668 C 0.5812 0.79012 0.26341 0.0
C1669 C 0.56378 0.73748 0.23797 0.0
C1670 C 0.55771 0.7783 0.27891 0.0
C1671 C 0.55659 0.78392 0.30925 0.0
C1672 C 0.57888 0.80178 0.32445 0.0
C1673 C 0.60239 0.81339 0.30893 0.0
C1674 C 0.60353 0.80759 0.27873 0.0
H1675 H 0.56513 0.72182 0.2263 0.0
H1676 H 0.57464 0.74192 0.2594 0.0
H1677 H 0.54331 0.73025 0.24345 0.0
H1678 H 0.54014 0.76525 0.26736 0.0
H1679 H 0.53817 0.77479 0.32053 0.0
H1680 H 0.26155 0.77485 0.08235 0.0
H1681 H 0.25561 0.77204 0.13691 0.0
H1682 H 0.25194 0.84195 0.13634 0.0
H1683 H 0.2581 0.8451 0.0816 0.0
H1684 H 0.28214 0.83817 0.18421 0.0
H1685 H 0.18538 0.75187 0.17557 0.0
H1686 H 0.21025 0.74911 0.15652 0.0
H1687 H 0.20168 0.77221 0.14368 0.0
C1688 C 0.25967 0.78976 0.09378 0.0
C1689 C 0.26005 0.81008 0.07758 0.0
C1690 C 0.25619 0.78805 0.12496 0.0
C1691 C 0.25291 0.80654 0.1405 0.0
C1692 C 0.2543 0.82741 0.12465 0.0
H1693 H 0.18609 0.78516 0.31872 0.0
H1694 H 0.19692 0.79459 0.26544 0.0
C1695 C 0.25779 0.82916 0.0934 0.0
C1696 C 0.24719 0.80355 0.17315 0.0
H1697 H 0.20296 0.76376 0.22456 0.0
C1698 C 0.26481 0.82198 0.1931 0.0
C1699 C 0.22438 0.78259 0.18454 0.0
C1700 C 0.20419 0.76291 0.164 0.0
C1701 C 0.26045 0.81967 0.22434 0.0
C1702 C 0.23805 0.79821 0.23578 0.0
C1703 C 0.22022 0.78009 0.21573 0.0
C1704 C 0.23253 0.79408 0.26847 0.0
C1705 C 0.27967 0.84036 0.24476 0.0
C1706 C 0.24895 0.79062 0.28784 0.0
C1707 C 0.24285 0.78527 0.31837 0.0
C1708 C 0.22009 0.78307 0.32997 0.0
C1709 C 0.20377 0.78671 0.31051 0.0
C1710 C 0.20992 0.79211 0.28005 0.0
H1711 H 0.29191 0.85851 0.23229 0.0
H1712 H 0.26994 0.84439 0.26349 0.0
H1713 H 0.29235 0.83381 0.25465 0.0
H1714 H 0.26622 0.7915 0.27923 0.0
H1715 H 0.25577 0.78245 0.33273 0.0
H1716 H 0.25631 0.4452 0.06166 0.0
H1717 H 0.25769 0.43711 0.11562 0.0
H1718 H 0.21478 0.47532 0.13515 0.0
H1719 H 0.21333 0.48351 0.08152 0.0
H1720 H 0.27937 0.47671 0.1611 0.0
H1721 H 0.17686 0.40654 0.18278 0.0
H1722 H 0.19081 0.41284 0.1455 0.0
H1723 H 0.1825 0.43485 0.16258 0.0
C1724 C 0.2469 0.45159 0.07742 0.0
C1725 C 0.23472 0.46501 0.06731 0.0
C1726 C 0.24775 0.44699 0.10821 0.0
C1727 C 0.23611 0.45539 0.12931 0.0
C1728 C 0.22354 0.46833 0.11921 0.0
H1729 H 0.26314 0.49076 0.31821 0.0
H1730 H 0.25836 0.49065 0.26349 0.0
C1731 C 0.22286 0.47312 0.08853 0.0
C1732 C 0.2384 0.45214 0.16204 0.0
H1733 H 0.2032 0.42561 0.22588 0.0
C1734 C 0.26276 0.46535 0.17525 0.0
C1735 C 0.21671 0.43718 0.18037 0.0
C1736 C 0.19024 0.42183 0.16713 0.0
C1737 C 0.26592 0.46468 0.20649 0.0
C1738 C 0.24411 0.45057 0.22496 0.0
C1739 C 0.21984 0.43663 0.21166 0.0
C1740 C 0.24617 0.45035 0.2582 0.0
C1741 C 0.29255 0.4791 0.21955 0.0
C1742 C 0.24027 0.42756 0.27339 0.0
C1743 C 0.24299 0.42754 0.30468 0.0
C1744 C 0.25141 0.45029 0.32135 0.0
C1745 C 0.25666 0.47293 0.30608 0.0
C1746 C 0.25408 0.47295 0.27479 0.0
H1747 H 0.30752 0.484 0.20206 0.0
H1748 H 0.29557 0.49728 0.22975 0.0
H1749 H 0.29504 0.46765 0.23751 0.0
H1750 H 0.23401 0.40989 0.26097 0.0
H1751 H 0.23871 0.40975 0.31574 0.0
H1752 H 0.79234 0.52984 0.43382 0.0
H1753 H 0.80204 0.53578 0.38006 0.0
H1754 H 0.79812 0.60557 0.38143 0.0
H1755 H 0.78783 0.59949 0.43525 0.0
H1756 H 0.77014 0.57434 0.33629 0.0
H1757 H 0.86651 0.58418 0.33458 0.0
H1758 H 0.8435 0.55561 0.35384 0.0
H1759 H 0.85165 0.58662 0.36884 0.0
C1760 C 0.79384 0.54665 0.42282 0.0
C1761 C 0.78926 0.56418 0.43886 0.0
C1762 C 0.79959 0.55012 0.39207 0.0
C1763 C 0.80122 0.57134 0.37676 0.0
C1764 C 0.79711 0.58913 0.39282 0.0
H1765 H 0.84942 0.60477 0.18773 0.0
H1766 H 0.84723 0.60723 0.24266 0.0
C1767 C 0.79124 0.58562 0.42358 0.0
C1768 C 0.80524 0.57383 0.34363 0.0
H1769 H 0.8442 0.57417 0.28734 0.0
C1770 C 0.78648 0.57459 0.32562 0.0
C1771 C 0.82674 0.57453 0.32967 0.0
C1772 C 0.84838 0.57547 0.34776 0.0
C1773 C 0.78815 0.57507 0.29407 0.0
C1774 C 0.80885 0.57419 0.28009 0.0
C1775 C 0.82813 0.57445 0.29807 0.0
C1776 C 0.81048 0.57246 0.24688 0.0
C1777 C 0.76774 0.57663 0.27604 0.0
C1778 C 0.79082 0.55181 0.23108 0.0
C1779 C 0.79195 0.55041 0.19975 0.0
C1780 C 0.81292 0.5695 0.18357 0.0
C1781 C 0.83295 0.58981 0.1995 0.0
C1782 C 0.83175 0.59124 0.23089 0.0
H1783 H 0.75807 0.58494 0.28952 0.0
H1784 H 0.77592 0.58845 0.25543 0.0
H1785 H 0.75297 0.55699 0.26912 0.0
H1786 H 0.77455 0.53674 0.24301 0.0
H1787 H 0.77631 0.53438 0.18824 0.0
H1788 H 0.41532 0.20252 0.43476 0.0
H1789 H 0.4151 0.20767 0.38007 0.0
H1790 H 0.49513 0.23012 0.37607 0.0
H1791 H 0.49561 0.22509 0.4307 0.0
H1792 H 0.44943 0.2557 0.34749 0.0
H1793 H 0.45895 0.17222 0.31105 0.0
H1794 H 0.44745 0.1742 0.34802 0.0
H1795 H 0.48104 0.19247 0.33949 0.0
C1796 C 0.43282 0.20828 0.42223 0.0
C1797 C 0.45549 0.21336 0.43706 0.0
C1798 C 0.43265 0.21128 0.39102 0.0
C1799 C 0.45504 0.21907 0.37411 0.0
C1800 C 0.47759 0.22378 0.38874 0.0
H1801 H 0.49669 0.24937 0.18591 0.0
H1802 H 0.49542 0.2431 0.24043 0.0
C1803 C 0.47783 0.22098 0.41996 0.0
C1804 C 0.45515 0.22336 0.34131 0.0
H1805 H 0.46239 0.20149 0.27318 0.0
C1806 C 0.45212 0.24381 0.33116 0.0
C1807 C 0.45883 0.20787 0.32025 0.0
C1808 C 0.46158 0.18531 0.33009 0.0
C1809 C 0.45321 0.24955 0.30036 0.0
C1810 C 0.45679 0.23398 0.27919 0.0
C1811 C 0.45968 0.21342 0.28943 0.0
C1812 C 0.45774 0.23868 0.2463 0.0
C1813 C 0.45128 0.27267 0.29089 0.0
C1814 C 0.43693 0.23821 0.23148 0.0
C1815 C 0.4377 0.24203 0.20036 0.0
C1816 C 0.45913 0.246 0.18342 0.0
C1817 C 0.4799 0.24637 0.19831 0.0
C1818 C 0.47919 0.24275 0.22945 0.0
H1819 H 0.45604 0.28652 0.30971 0.0
H1820 H 0.46426 0.2828 0.27166 0.0
H1821 H 0.43134 0.2663 0.28379 0.0
H1822 H 0.41991 0.23448 0.2439 0.0
H1823 H 0.42129 0.24141 0.18952 0.0
H1824 H 0.82219 0.21791 0.43691 0.0
H1825 H 0.81791 0.21219 0.38221 0.0
H1826 H 0.74348 0.20605 0.38658 0.0
H1827 H 0.74731 0.21118 0.44115 0.0
H1828 H 0.74491 0.17142 0.34689 0.0
H1829 H 0.82598 0.27017 0.32701 0.0
H1830 H 0.83387 0.25012 0.34926 0.0
H1831 H 0.81159 0.25921 0.36363 0.0
C1832 C 0.8048 0.21507 0.42626 0.0
C1833 C 0.78524 0.21534 0.44333 0.0
C1834 C 0.80245 0.21195 0.395 0.0
C1835 C 0.78062 0.20927 0.38031 0.0
C1836 C 0.76056 0.20826 0.39746 0.0
H1837 H 0.76584 0.24477 0.1958 0.0
H1838 H 0.76814 0.24261 0.25061 0.0
C1839 C 0.76282 0.21124 0.42867 0.0
C1840 C 0.77899 0.20865 0.34701 0.0
H1841 H 0.80696 0.24454 0.28407 0.0
C1842 C 0.75851 0.18734 0.33309 0.0
C1843 C 0.79653 0.22968 0.32918 0.0
C1844 C 0.81811 0.25371 0.34296 0.0
C1845 C 0.75508 0.18646 0.30175 0.0
C1846 C 0.77291 0.20728 0.28389 0.0
C1847 C 0.79341 0.22856 0.29782 0.0
C1848 C 0.77044 0.20776 0.25074 0.0
C1849 C 0.73202 0.16361 0.28819 0.0
C1850 C 0.77102 0.18891 0.23264 0.0
C1851 C 0.76955 0.19 0.20132 0.0
C1852 C 0.76777 0.21015 0.18752 0.0
C1853 C 0.76718 0.229 0.20571 0.0
C1854 C 0.76852 0.22781 0.23703 0.0
H1855 H 0.71688 0.15288 0.3053 0.0
H1856 H 0.72372 0.16963 0.26975 0.0
H1857 H 0.73792 0.15025 0.27866 0.0
H1858 H 0.77305 0.17359 0.24269 0.0
H1859 H 0.7702 0.17526 0.18793 0.0
loop_
_geom_bond_atom_site_label_1
_geom_bond_atom_site_label_2
_geom_bond_distance
_geom_bond_site_symmetry_2
_ccdc_geom_bond_type
O0 Tb1 2.292 1_556 S
O0 C3 1.255 . S
Tb1 O0 2.292 1_554 S
Tb1 O17 2.326 . S
Tb1 O19 2.500 . S
Tb1 O20 2.473 . S
Tb1 O23 2.324 . S
Eu2 O6 2.292 . S
Eu2 C7 2.852 . S
Eu2 O18 2.324 . S
Eu2 O22 2.326 . S
Eu2 O24 2.500 . S
Eu2 O25 2.473 . S
C3 O0 1.255 . S
C3 O4 1.247 . S
O4 C3 1.247 . S
C5 O17 1.242 . S
C5 O18 1.258 . S
O6 Eu2 2.292 . S
O6 C8 1.255 . S
C7 Eu2 2.852 . S
C7 C11 1.503 . S
C7 O24 1.273 . S
C7 O25 1.257 . S
C8 O6 1.255 . S
C8 O9 1.247 . S
O9 C8 1.247 . S
C10 O22 1.242 . S
C10 O23 1.258 . S
C11 C7 1.503 . S
C11 C12 1.379 . S
C11 C16 1.392 . S
C12 C11 1.379 . S
C12 C13 1.404 . S
C12 H26 0.929 . S
C13 C12 1.404 . S
C13 C14 1.389 . S
C14 C13 1.389 . S
C14 C15 1.399 . S
C14 H27 0.931 . S
C15 C14 1.399 . S
C15 C16 1.390 . S
C16 C11 1.392 . S
C16 C15 1.390 . S
C16 H28 0.929 . S
O17 Tb1 2.326 . S
O17 C5 1.242 . S
O18 Eu2 2.324 . S
O18 C5 1.258 . S
O19 Tb1 2.500 . S
O19 C21 1.273 . S
O20 Tb1 2.473 . S
O20 C21 1.257 . S
C21 O19 1.273 . S
C21 O20 1.257 . S
O22 Eu2 2.326 . S
O22 C10 1.242 . S
O23 Tb1 2.324 . S
O23 C10 1.258 . S
O24 Eu2 2.500 . S
O24 C7 1.273 . S
O25 Eu2 2.473 . S
O25 C7 1.257 . S
H26 C12 0.929 . S
H27 C14 0.931 . S
H28 C16 0.929 . S
O29 Tb30 2.292 1_556 S
O29 C32 1.255 . S
Tb30 O29 2.292 1_554 S
Tb30 O46 2.326 . S
Tb30 O48 2.500 . S
Tb30 O49 2.473 . S
Tb30 O52 2.324 . S
Eu31 O35 2.292 . S
Eu31 C36 2.852 . S
Eu31 O47 2.324 . S
Eu31 O51 2.326 . S
Eu31 O53 2.500 . S
Eu31 O54 2.473 . S
C32 O29 1.255 . S
C32 O33 1.247 . S
O33 C32 1.247 . S
C34 O46 1.242 . S
C34 O47 1.258 . S
O35 Eu31 2.292 . S
O35 C37 1.255 . S
C36 Eu31 2.852 . S
C36 C40 1.503 . S
C36 O53 1.273 . S
C36 O54 1.257 . S
C37 O35 1.255 . S
C37 O38 1.247 . S
O38 C37 1.247 . S
C39 O51 1.242 . S
C39 O52 1.258 . S
C40 C36 1.503 . S
C40 C41 1.379 . S
C40 C45 1.392 . S
C41 C40 1.379 . S
C41 C42 1.404 . S
C41 H55 0.929 . S
C42 C41 1.404 . S
C42 C43 1.389 . S
C43 C42 1.389 . S
C43 C44 1.399 . S
C43 H56 0.931 . S
C44 C43 1.399 . S
C44 C45 1.390 . S
C45 C40 1.392 . S
C45 C44 1.390 . S
C45 H57 0.929 . S
O46 Tb30 2.326 . S
O46 C34 1.242 . S
O47 Eu31 2.324 . S
O47 C34 1.258 . S
O48 Tb30 2.500 . S
O48 C50 1.273 . S
O49 Tb30 2.473 . S
O49 C50 1.257 . S
C50 O48 1.273 . S
C50 O49 1.257 . S
O51 Eu31 2.326 . S
O51 C39 1.242 . S
O52 Tb30 2.324 . S
O52 C39 1.258 . S
O53 Eu31 2.500 . S
O53 C36 1.273 . S
O54 Eu31 2.473 . S
O54 C36 1.257 . S
H55 C41 0.929 . S
H56 C43 0.931 . S
H57 C45 0.929 . S
O58 Tb59 2.292 1_556 S
O58 C61 1.255 . S
Tb59 O58 2.292 1_554 S
Tb59 O75 2.326 . S
Tb59 O77 2.500 . S
Tb59 O78 2.473 . S
Tb59 O81 2.324 . S
Eu60 O64 2.292 . S
Eu60 C65 2.852 . S
Eu60 O76 2.324 . S
Eu60 O80 2.326 . S
Eu60 O82 2.500 . S
Eu60 O83 2.473 . S
C61 O58 1.255 . S
C61 O62 1.247 . S
O62 C61 1.247 . S
C63 O75 1.242 . S
C63 O76 1.258 . S
O64 Eu60 2.292 . S
O64 C66 1.255 . S
C65 Eu60 2.852 . S
C65 C69 1.503 . S
C65 O82 1.273 . S
C65 O83 1.257 . S
C66 O64 1.255 . S
C66 O67 1.247 . S
O67 C66 1.247 . S
C68 O80 1.242 . S
C68 O81 1.258 . S
C69 C65 1.503 . S
C69 C70 1.379 . S
C69 C74 1.392 . S
C70 C69 1.379 . S
C70 C71 1.404 . S
C70 H84 0.929 . S
C71 C70 1.404 . S
C71 C72 1.389 . S
C72 C71 1.389 . S
C72 C73 1.399 . S
C72 H85 0.931 . S
C73 C72 1.399 . S
C73 C74 1.390 . S
C74 C69 1.392 . S
C74 C73 1.390 . S
C74 H86 0.929 . S
O75 Tb59 2.326 . S
O75 C63 1.242 . S
O76 Eu60 2.324 . S
O76 C63 1.258 . S
O77 Tb59 2.500 . S
O77 C79 1.273 . S
O78 Tb59 2.473 . S
O78 C79 1.257 . S
C79 O77 1.273 . S
C79 O78 1.257 . S
O80 Eu60 2.326 . S
O80 C68 1.242 . S
O81 Tb59 2.324 . S
O81 C68 1.258 . S
O82 Eu60 2.500 . S
O82 C65 1.273 . S
O83 Eu60 2.473 . S
O83 C65 1.257 . S
H84 C70 0.929 . S
H85 C72 0.931 . S
H86 C74 0.929 . S
O87 Tb88 2.292 . S
O87 C90 1.255 . S
Tb88 O87 2.292 . S
Tb88 O104 2.326 . S
Tb88 O106 2.500 . S
Tb88 O107 2.473 . S
Tb88 O110 2.324 . S
Eu89 O93 2.292 . S
Eu89 C94 2.852 . S
Eu89 O105 2.324 . S
Eu89 O109 2.326 . S
Eu89 O111 2.500 . S
Eu89 O112 2.473 . S
C90 O87 1.255 . S
C90 O91 1.247 . S
O91 C90 1.247 . S
C92 O104 1.242 . S
C92 O105 1.258 . S
O93 Eu89 2.292 . S
O93 C95 1.255 . S
C94 Eu89 2.852 . S
C94 C98 1.503 . S
C94 O111 1.273 . S
C94 O112 1.257 . S
C95 O93 1.255 . S
C95 O96 1.247 . S
O96 C95 1.247 . S
C97 O109 1.242 . S
C97 O110 1.258 . S
C98 C94 1.503 . S
C98 C99 1.379 . S
C98 C103 1.392 . S
C99 C98 1.379 . S
C99 C100 1.404 . S
C99 H113 0.929 . S
C100 C99 1.404 . S
C100 C101 1.389 . S
C101 C100 1.389 . S
C101 C102 1.399 . S
C101 H114 0.931 . S
C102 C101 1.399 . S
C102 C103 1.390 . S
C103 C98 1.392 . S
C103 C102 1.390 . S
C103 H115 0.929 . S
O104 Tb88 2.326 . S
O104 C92 1.242 . S
O105 Eu89 2.324 . S
O105 C92 1.258 . S
O106 Tb88 2.500 . S
O106 C108 1.273 . S
O107 Tb88 2.473 . S
O107 C108 1.257 . S
C108 O106 1.273 . S
C108 O107 1.257 . S
O109 Eu89 2.326 . S
O109 C97 1.242 . S
O110 Tb88 2.324 . S
O110 C97 1.258 . S
O111 Eu89 2.500 . S
O111 C94 1.273 . S
O112 Eu89 2.473 . S
O112 C94 1.257 . S
H113 C99 0.929 . S
H114 C101 0.931 . S
H115 C103 0.929 . S
O116 Tb117 2.292 . S
O116 C119 1.255 . S
Tb117 O116 2.292 . S
Tb117 O133 2.326 . S
Tb117 O135 2.500 . S
Tb117 O136 2.473 . S
Tb117 O139 2.324 . S
Eu118 O122 2.292 . S
Eu118 C123 2.852 . S
Eu118 O134 2.324 . S
Eu118 O138 2.326 . S
Eu118 O140 2.500 . S
Eu118 O141 2.473 . S
C119 O116 1.255 . S
C119 O120 1.247 . S
O120 C119 1.247 . S
C121 O133 1.242 . S
C121 O134 1.258 . S
O122 Eu118 2.292 . S
O122 C124 1.255 . S
C123 Eu118 2.852 . S
C123 C127 1.503 . S
C123 O140 1.273 . S
C123 O141 1.257 . S
C124 O122 1.255 . S
C124 O125 1.247 . S
O125 C124 1.247 . S
C126 O138 1.242 . S
C126 O139 1.258 . S
C127 C123 1.503 . S
C127 C128 1.379 . S
C127 C132 1.392 . S
C128 C127 1.379 . S
C128 C129 1.404 . S
C128 H142 0.929 . S
C129 C128 1.404 . S
C129 C130 1.389 . S
C130 C129 1.389 . S
C130 C131 1.399 . S
C130 H143 0.931 . S
C131 C130 1.399 . S
C131 C132 1.390 . S
C132 C127 1.392 . S
C132 C131 1.390 . S
C132 H144 0.929 . S
O133 Tb117 2.326 . S
O133 C121 1.242 . S
O134 Eu118 2.324 . S
O134 C121 1.258 . S
O135 Tb117 2.500 . S
O135 C137 1.273 . S
O136 Tb117 2.473 . S
O136 C137 1.257 . S
C137 O135 1.273 . S
C137 O136 1.257 . S
O138 Eu118 2.326 . S
O138 C126 1.242 . S
O139 Tb117 2.324 . S
O139 C126 1.258 . S
O140 Eu118 2.500 . S
O140 C123 1.273 . S
O141 Eu118 2.473 . S
O141 C123 1.257 . S
H142 C128 0.929 . S
H143 C130 0.931 . S
H144 C132 0.929 . S
O145 Tb146 2.292 . S
O145 C148 1.255 . S
Tb146 O145 2.292 . S
Tb146 O162 2.326 . S
Tb146 O164 2.500 . S
Tb146 O165 2.473 . S
Tb146 O168 2.324 . S
Eu147 O151 2.292 . S
Eu147 C152 2.852 . S
Eu147 O163 2.324 . S
Eu147 O167 2.326 . S
Eu147 O169 2.500 . S
Eu147 O170 2.473 . S
C148 O145 1.255 . S
C148 O149 1.247 . S
O149 C148 1.247 . S
C150 O162 1.242 . S
C150 O163 1.258 . S
O151 Eu147 2.292 . S
O151 C153 1.255 . S
C152 Eu147 2.852 . S
C152 C156 1.503 . S
C152 O169 1.273 . S
C152 O170 1.257 . S
C153 O151 1.255 . S
C153 O154 1.247 . S
O154 C153 1.247 . S
C155 O167 1.242 . S
C155 O168 1.258 . S
C156 C152 1.503 . S
C156 C157 1.379 . S
C156 C161 1.392 . S
C157 C156 1.379 . S
C157 C158 1.404 . S
C157 H171 0.929 . S
C158 C157 1.404 . S
C158 C159 1.389 . S
C159 C158 1.389 . S
C159 C160 1.399 . S
C159 H172 0.931 . S
C160 C159 1.399 . S
C160 C161 1.390 . S
C161 C156 1.392 . S
C161 C160 1.390 . S
C161 H173 0.929 . S
O162 Tb146 2.326 . S
O162 C150 1.242 . S
O163 Eu147 2.324 . S
O163 C150 1.258 . S
O164 Tb146 2.500 . S
O164 C166 1.273 . S
O165 Tb146 2.473 . S
O165 C166 1.257 . S
C166 O164 1.273 . S
C166 O165 1.257 . S
O167 Eu147 2.326 . S
O167 C155 1.242 . S
O168 Tb146 2.324 . S
O168 C155 1.258 . S
O169 Eu147 2.500 . S
O169 C152 1.273 . S
O170 Eu147 2.473 . S
O170 C152 1.257 . S
H171 C157 0.929 . S
H172 C159 0.931 . S
H173 C161 0.929 . S
O174 Tb175 2.292 1_554 S
O174 C177 1.255 . S
Tb175 O174 2.292 1_556 S
Tb175 O191 2.326 . S
Tb175 O193 2.500 . S
Tb175 O194 2.473 . S
Tb175 O197 2.324 . S
Eu176 O180 2.292 . S
Eu176 C181 2.852 . S
Eu176 O192 2.324 . S
Eu176 O196 2.326 . S
Eu176 O198 2.500 . S
Eu176 O199 2.473 . S
C177 O174 1.255 . S
C177 O178 1.247 . S
O178 C177 1.247 . S
C179 O191 1.242 . S
C179 O192 1.258 . S
O180 Eu176 2.292 . S
O180 C182 1.255 . S
C181 Eu176 2.852 . S
C181 C185 1.503 . S
C181 O198 1.273 . S
C181 O199 1.257 . S
C182 O180 1.255 . S
C182 O183 1.247 . S
O183 C182 1.247 . S
C184 O196 1.242 . S
C184 O197 1.258 . S
C185 C181 1.503 . S
C185 C186 1.379 . S
C185 C190 1.392 . S
C186 C185 1.379 . S
C186 C187 1.404 . S
C186 H200 0.929 . S
C187 C186 1.404 . S
C187 C188 1.389 . S
C188 C187 1.389 . S
C188 C189 1.399 . S
C188 H201 0.931 . S
C189 C188 1.399 . S
C189 C190 1.390 . S
C190 C185 1.392 . S
C190 C189 1.390 . S
C190 H202 0.929 . S
O191 Tb175 2.326 . S
O191 C179 1.242 . S
O192 Eu176 2.324 . S
O192 C179 1.258 . S
O193 Tb175 2.500 . S
O193 C195 1.273 . S
O194 Tb175 2.473 . S
O194 C195 1.257 . S
C195 O193 1.273 . S
C195 O194 1.257 . S
O196 Eu176 2.326 . S
O196 C184 1.242 . S
O197 Tb175 2.324 . S
O197 C184 1.258 . S
O198 Eu176 2.500 . S
O198 C181 1.273 . S
O199 Eu176 2.473 . S
O199 C181 1.257 . S
H200 C186 0.929 . S
H201 C188 0.931 . S
H202 C190 0.929 . S
O203 Tb204 2.292 1_554 S
O203 C206 1.255 . S
Tb204 O203 2.292 1_556 S
Tb204 O220 2.326 . S
Tb204 O222 2.500 . S
Tb204 O223 2.473 . S
Tb204 O226 2.324 . S
Eu205 O209 2.292 . S
Eu205 C210 2.852 . S
Eu205 O221 2.324 . S
Eu205 O225 2.326 . S
Eu205 O227 2.500 . S
Eu205 O228 2.473 . S
C206 O203 1.255 . S
C206 O207 1.247 . S
O207 C206 1.247 . S
C208 O220 1.242 . S
C208 O221 1.258 . S
O209 Eu205 2.292 . S
O209 C211 1.255 . S
C210 Eu205 2.852 . S
C210 C214 1.503 . S
C210 O227 1.273 . S
C210 O228 1.257 . S
C211 O209 1.255 . S
C211 O212 1.247 . S
O212 C211 1.247 . S
C213 O225 1.242 . S
C213 O226 1.258 . S
C214 C210 1.503 . S
C214 C215 1.379 . S
C214 C219 1.392 . S
C215 C214 1.379 . S
C215 C216 1.404 . S
C215 H229 0.929 . S
C216 C215 1.404 . S
C216 C217 1.389 . S
C217 C216 1.389 . S
C217 C218 1.399 . S
C217 H230 0.931 . S
C218 C217 1.399 . S
C218 C219 1.390 . S
C219 C214 1.392 . S
C219 C218 1.390 . S
C219 H231 0.929 . S
O220 Tb204 2.326 . S
O220 C208 1.242 . S
O221 Eu205 2.324 . S
O221 C208 1.258 . S
O222 Tb204 2.500 . S
O222 C224 1.273 . S
O223 Tb204 2.473 . S
O223 C224 1.257 . S
C224 O222 1.273 . S
C224 O223 1.257 . S
O225 Eu205 2.326 . S
O225 C213 1.242 . S
O226 Tb204 2.324 . S
O226 C213 1.258 . S
O227 Eu205 2.500 . S
O227 C210 1.273 . S
O228 Eu205 2.473 . S
O228 C210 1.257 . S
H229 C215 0.929 . S
H230 C217 0.931 . S
H231 C219 0.929 . S
O232 Tb233 2.292 1_554 S
O232 C235 1.255 . S
Tb233 O232 2.292 1_556 S
Tb233 O249 2.326 . S
Tb233 O251 2.500 . S
Tb233 O252 2.473 . S
Tb233 O255 2.324 . S
Eu234 O238 2.292 . S
Eu234 C239 2.852 . S
Eu234 O250 2.324 . S
Eu234 O254 2.326 . S
Eu234 O256 2.500 . S
Eu234 O257 2.473 . S
C235 O232 1.255 . S
C235 O236 1.247 . S
O236 C235 1.247 . S
C237 O249 1.242 . S
C237 O250 1.258 . S
O238 Eu234 2.292 . S
O238 C240 1.255 . S
C239 Eu234 2.852 . S
C239 C243 1.503 . S
C239 O256 1.273 . S
C239 O257 1.257 . S
C240 O238 1.255 . S
C240 O241 1.247 . S
O241 C240 1.247 . S
C242 O254 1.242 . S
C242 O255 1.258 . S
C243 C239 1.503 . S
C243 C244 1.379 . S
C243 C248 1.392 . S
C244 C243 1.379 . S
C244 C245 1.404 . S
C244 H258 0.929 . S
C245 C244 1.404 . S
C245 C246 1.389 . S
C246 C245 1.389 . S
C246 C247 1.399 . S
C246 H259 0.931 . S
C247 C246 1.399 . S
C247 C248 1.390 . S
C248 C243 1.392 . S
C248 C247 1.390 . S
C248 H260 0.929 . S
O249 Tb233 2.326 . S
O249 C237 1.242 . S
O250 Eu234 2.324 . S
O250 C237 1.258 . S
O251 Tb233 2.500 . S
O251 C253 1.273 . S
O252 Tb233 2.473 . S
O252 C253 1.257 . S
C253 O251 1.273 . S
C253 O252 1.257 . S
O254 Eu234 2.326 . S
O254 C242 1.242 . S
O255 Tb233 2.324 . S
O255 C242 1.258 . S
O256 Eu234 2.500 . S
O256 C239 1.273 . S
O257 Eu234 2.473 . S
O257 C239 1.257 . S
H258 C244 0.929 . S
H259 C246 0.931 . S
H260 C248 0.929 . S
O261 Tb262 2.292 . S
O261 C264 1.255 . S
Tb262 O261 2.292 . S
Tb262 O278 2.326 . S
Tb262 O280 2.500 . S
Tb262 O281 2.473 . S
Tb262 O284 2.324 . S
Eu263 O267 2.292 . S
Eu263 C268 2.852 . S
Eu263 O279 2.324 . S
Eu263 O283 2.326 . S
Eu263 O285 2.500 . S
Eu263 O286 2.473 . S
C264 O261 1.255 . S
C264 O265 1.247 . S
O265 C264 1.247 . S
C266 O278 1.242 . S
C266 O279 1.258 . S
O267 Eu263 2.292 . S
O267 C269 1.255 . S
C268 Eu263 2.852 . S
C268 C272 1.503 . S
C268 O285 1.273 . S
C268 O286 1.257 . S
C269 O267 1.255 . S
C269 O270 1.247 . S
O270 C269 1.247 . S
C271 O283 1.242 . S
C271 O284 1.258 . S
C272 C268 1.503 . S
C272 C273 1.379 . S
C272 C277 1.392 . S
C273 C272 1.379 . S
C273 C274 1.404 . S
C273 H287 0.929 . S
C274 C273 1.404 . S
C274 C275 1.389 . S
C275 C274 1.389 . S
C275 C276 1.399 . S
C275 H288 0.931 . S
C276 C275 1.399 . S
C276 C277 1.390 . S
C277 C272 1.392 . S
C277 C276 1.390 . S
C277 H289 0.929 . S
O278 Tb262 2.326 . S
O278 C266 1.242 . S
O279 Eu263 2.324 . S
O279 C266 1.258 . S
O280 Tb262 2.500 . S
O280 C282 1.273 . S
O281 Tb262 2.473 . S
O281 C282 1.257 . S
C282 O280 1.273 . S
C282 O281 1.257 . S
O283 Eu263 2.326 . S
O283 C271 1.242 . S
O284 Tb262 2.324 . S
O284 C271 1.258 . S
O285 Eu263 2.500 . S
O285 C268 1.273 . S
O286 Eu263 2.473 . S
O286 C268 1.257 . S
H287 C273 0.929 . S
H288 C275 0.931 . S
H289 C277 0.929 . S
O290 Tb291 2.292 . S
O290 C293 1.255 . S
Tb291 O290 2.292 . S
Tb291 O307 2.326 . S
Tb291 O309 2.500 . S
Tb291 O310 2.473 . S
Tb291 O313 2.324 . S
Eu292 O296 2.292 . S
Eu292 C297 2.852 . S
Eu292 O308 2.324 . S
Eu292 O312 2.326 . S
Eu292 O314 2.500 . S
Eu292 O315 2.473 . S
C293 O290 1.255 . S
C293 O294 1.247 . S
O294 C293 1.247 . S
C295 O307 1.242 . S
C295 O308 1.258 . S
O296 Eu292 2.292 . S
O296 C298 1.255 . S
C297 Eu292 2.852 . S
C297 C301 1.503 . S
C297 O314 1.273 . S
C297 O315 1.257 . S
C298 O296 1.255 . S
C298 O299 1.247 . S
O299 C298 1.247 . S
C300 O312 1.242 . S
C300 O313 1.258 . S
C301 C297 1.503 . S
C301 C302 1.379 . S
C301 C306 1.392 . S
C302 C301 1.379 . S
C302 C303 1.404 . S
C302 H316 0.929 . S
C303 C302 1.404 . S
C303 C304 1.389 . S
C304 C303 1.389 . S
C304 C305 1.399 . S
C304 H317 0.931 . S
C305 C304 1.399 . S
C305 C306 1.390 . S
C306 C301 1.392 . S
C306 C305 1.390 . S
C306 H318 0.929 . S
O307 Tb291 2.326 . S
O307 C295 1.242 . S
O308 Eu292 2.324 . S
O308 C295 1.258 . S
O309 Tb291 2.500 . S
O309 C311 1.273 . S
O310 Tb291 2.473 . S
O310 C311 1.257 . S
C311 O309 1.273 . S
C311 O310 1.257 . S
O312 Eu292 2.326 . S
O312 C300 1.242 . S
O313 Tb291 2.324 . S
O313 C300 1.258 . S
O314 Eu292 2.500 . S
O314 C297 1.273 . S
O315 Eu292 2.473 . S
O315 C297 1.257 . S
H316 C302 0.929 . S
H317 C304 0.931 . S
H318 C306 0.929 . S
O319 Tb320 2.292 . S
O319 C322 1.255 . S
Tb320 O319 2.292 . S
Tb320 O336 2.326 . S
Tb320 O338 2.500 . S
Tb320 O339 2.473 . S
Tb320 O342 2.324 . S
Eu321 O325 2.292 . S
Eu321 C326 2.852 . S
Eu321 O337 2.324 . S
Eu321 O341 2.326 . S
Eu321 O343 2.500 . S
Eu321 O344 2.473 . S
C322 O319 1.255 . S
C322 O323 1.247 . S
O323 C322 1.247 . S
C324 O336 1.242 . S
C324 O337 1.258 . S
O325 Eu321 2.292 . S
O325 C327 1.255 . S
C326 Eu321 2.852 . S
C326 C330 1.503 . S
C326 O343 1.273 . S
C326 O344 1.257 . S
C327 O325 1.255 . S
C327 O328 1.247 . S
O328 C327 1.247 . S
C329 O341 1.242 . S
C329 O342 1.258 . S
C330 C326 1.503 . S
C330 C331 1.379 . S
C330 C335 1.392 . S
C331 C330 1.379 . S
C331 C332 1.404 . S
C331 H345 0.929 . S
C332 C331 1.404 . S
C332 C333 1.389 . S
C333 C332 1.389 . S
C333 C334 1.399 . S
C333 H346 0.931 . S
C334 C333 1.399 . S
C334 C335 1.390 . S
C335 C330 1.392 . S
C335 C334 1.390 . S
C335 H347 0.929 . S
O336 Tb320 2.326 . S
O336 C324 1.242 . S
O337 Eu321 2.324 . S
O337 C324 1.258 . S
O338 Tb320 2.500 . S
O338 C340 1.273 . S
O339 Tb320 2.473 . S
O339 C340 1.257 . S
C340 O338 1.273 . S
C340 O339 1.257 . S
O341 Eu321 2.326 . S
O341 C329 1.242 . S
O342 Tb320 2.324 . S
O342 C329 1.258 . S
O343 Eu321 2.500 . S
O343 C326 1.273 . S
O344 Eu321 2.473 . S
O344 C326 1.257 . S
H345 C331 0.929 . S
H346 C333 0.931 . S
H347 C335 0.929 . S
H348 C356 0.929 1_554 S
H349 C358 0.926 . S
H350 C360 0.929 . S
H351 C363 0.929 . S
H352 C366 0.930 . S
H353 C368 0.960 . S
H354 C368 0.960 . S
H355 C368 0.960 . S
C356 H348 0.929 1_556 S
C356 C357 1.377 . S
C356 C358 1.385 1_556 S
C357 C356 1.377 . S
C357 C363 1.390 . S
C358 H349 0.926 . S
C358 C356 1.385 1_554 S
C358 C359 1.374 1_564 S
C359 C358 1.374 1_546 S
C359 C360 1.400 . S
C359 C364 1.490 . S
C360 H350 0.929 . S
C360 C359 1.400 . S
C360 C363 1.386 1_545 S
H361 C377 0.930 1_556 S
H362 C378 0.931 1_556 S
C363 H351 0.929 . S
C363 C357 1.390 . S
C363 C360 1.386 1_565 S
C364 C359 1.490 . S
C364 C366 1.395 1_556 S
C364 C367 1.403 . S
H365 C371 0.930 . S
C366 H352 0.930 . S
C366 C364 1.395 1_554 S
C366 C369 1.403 . S
C367 C364 1.403 . S
C367 C368 1.524 . S
C367 C371 1.400 . S
C368 H353 0.960 . S
C368 H354 0.960 . S
C368 H355 0.960 . S
C368 C367 1.524 . S
C369 C366 1.403 . S
C369 C370 1.392 . S
C369 C373 1.495 . S
C370 C369 1.392 . S
C370 C371 1.385 1_554 S
C370 C372 1.478 . S
C371 H365 0.930 . S
C371 C367 1.400 . S
C371 C370 1.385 1_556 S
C372 C370 1.478 . S
C372 C374 1.381 . S
C372 C378 1.383 . S
C373 C369 1.495 . S
C373 H379 0.959 . S
C373 H380 0.961 . S
C373 H381 0.960 . S
C374 C372 1.381 . S
C374 C375 1.394 . S
C374 H382 0.930 . S
C375 C374 1.394 . S
C375 C376 1.383 . S
C375 H383 0.929 . S
C376 C375 1.383 . S
C376 C377 1.377 . S
C377 H361 0.930 1_554 S
C377 C376 1.377 . S
C377 C378 1.379 . S
C378 H362 0.931 1_554 S
C378 C372 1.383 . S
C378 C377 1.379 . S
H379 C373 0.959 . S
H380 C373 0.961 . S
H381 C373 0.960 . S
H382 C374 0.930 . S
H383 C375 0.929 . S
H384 C392 0.929 . S
H385 C394 0.930 1_556 S
H386 C396 0.930 . S
H387 C399 0.929 . S
H388 C402 0.930 . S
H389 C404 0.960 . S
H390 C404 0.960 . S
H391 C404 0.960 . S
C392 H384 0.929 . S
C392 C393 1.377 . S
C392 C394 1.384 . S
C393 C392 1.377 . S
C393 C399 1.390 . S
C394 H385 0.930 1_554 S
C394 C392 1.384 . S
C394 C395 1.372 . S
C395 C394 1.372 . S
C395 C396 1.400 . S
C395 C400 1.490 . S
C396 H386 0.930 . S
C396 C395 1.400 . S
C396 C399 1.386 . S
H397 C413 0.930 . S
H398 C414 0.931 1_554 S
C399 H387 0.929 . S
C399 C393 1.390 . S
C399 C396 1.386 . S
C400 C395 1.490 . S
C400 C402 1.395 1_554 S
C400 C403 1.403 . S
H401 C407 0.930 . S
C402 H388 0.930 . S
C402 C400 1.395 1_556 S
C402 C405 1.403 . S
C403 C400 1.403 . S
C403 C404 1.524 . S
C403 C407 1.400 . S
C404 H389 0.960 . S
C404 H390 0.960 . S
C404 H391 0.960 . S
C404 C403 1.524 . S
C405 C402 1.403 . S
C405 C406 1.392 . S
C405 C409 1.495 . S
C406 C405 1.392 . S
C406 C407 1.385 1_556 S
C406 C408 1.478 . S
C407 H401 0.930 . S
C407 C403 1.400 . S
C407 C406 1.385 1_554 S
C408 C406 1.478 . S
C408 C410 1.381 1_655 S
C408 C414 1.383 1_655 S
C409 C405 1.495 . S
C409 H415 0.959 . S
C409 H416 0.961 . S
C409 H417 0.960 . S
C410 C408 1.381 1_455 S
C410 C411 1.394 . S
C410 H418 0.930 1_455 S
C411 C410 1.394 . S
C411 C412 1.383 . S
C411 H419 0.929 . S
C412 C411 1.383 . S
C412 C413 1.377 . S
C413 H397 0.930 . S
C413 C412 1.377 . S
C413 C414 1.379 . S
C414 H398 0.931 1_556 S
C414 C408 1.383 1_455 S
C414 C413 1.379 . S
H415 C409 0.959 . S
H416 C409 0.961 . S
H417 C409 0.960 . S
H418 C410 0.930 1_655 S
H419 C411 0.929 . S
H420 C428 0.929 . S
H421 C430 0.930 . S
H422 C432 0.930 1_556 S
H423 C435 0.936 . S
H424 C438 0.930 . S
H425 C440 0.973 . S
H426 C440 0.960 . S
H427 C440 0.960 1_556 S
C428 H420 0.929 . S
C428 C429 1.377 . S
C428 C430 1.384 . S
C429 C428 1.377 . S
C429 C435 1.390 . S
C430 H421 0.930 . S
C430 C428 1.384 . S
C430 C431 1.372 . S
C431 C430 1.372 . S
C431 C432 1.400 . S
C431 C436 1.490 . S
C432 H422 0.930 1_554 S
C432 C431 1.400 . S
C432 C435 1.386 . S
H433 C449 0.930 . S
H434 C450 0.931 . S
C435 H423 0.936 . S
C435 C429 1.390 . S
C435 C432 1.386 . S
C436 C431 1.490 . S
C436 C438 1.395 . S
C436 C439 1.403 . S
H437 C443 0.930 . S
C438 H424 0.930 . S
C438 C436 1.395 . S
C438 C441 1.403 1_554 S
C439 C436 1.403 . S
C439 C440 1.524 . S
C439 C443 1.400 1_554 S
C440 H425 0.973 . S
C440 H426 0.960 . S
C440 H427 0.960 1_554 S
C440 C439 1.524 . S
C441 C438 1.403 1_556 S
C441 C442 1.392 . S
C441 C445 1.495 . S
C442 C441 1.392 . S
C442 C443 1.385 . S
C442 C444 1.478 . S
C443 H437 0.930 . S
C443 C439 1.400 1_556 S
C443 C442 1.385 . S
C444 C442 1.478 . S
C444 C446 1.381 . S
C444 C450 1.383 . S
C445 C441 1.495 . S
C445 H451 0.959 1_556 S
C445 H452 0.961 . S
C445 H453 0.960 1_556 S
C446 C444 1.381 . S
C446 C447 1.394 . S
C446 H454 0.930 1_556 S
C447 C446 1.394 . S
C447 C448 1.383 . S
C447 H455 0.914 1_556 S
C448 C447 1.383 . S
C448 C449 1.377 . S
C449 H433 0.930 . S
C449 C448 1.377 . S
C449 C450 1.379 . S
C450 H434 0.931 . S
C450 C444 1.383 . S
C450 C449 1.379 . S
H451 C445 0.959 1_554 S
H452 C445 0.961 . S
H453 C445 0.960 1_554 S
H454 C446 0.930 1_554 S
H455 C447 0.914 1_554 S
H456 C464 0.929 . S
H457 C466 0.930 . S
H458 C468 0.930 . S
H459 C471 0.929 . S
H460 C474 0.930 . S
H461 C476 0.960 . S
H462 C476 0.960 . S
H463 C476 0.960 . S
C464 H456 0.929 . S
C464 C465 1.377 . S
C464 C466 1.384 . S
C465 C464 1.377 . S
C465 C471 1.390 . S
C466 H457 0.930 . S
C466 C464 1.384 . S
C466 C467 1.372 . S
C467 C466 1.372 . S
C467 C468 1.400 . S
C467 C472 1.490 . S
C468 H458 0.930 . S
C468 C467 1.400 . S
C468 C471 1.386 . S
H469 C485 0.930 . S
H470 C486 0.931 1_455 S
C471 H459 0.929 . S
C471 C465 1.390 . S
C471 C468 1.386 . S
C472 C467 1.490 . S
C472 C474 1.395 . S
C472 C475 1.403 . S
H473 C479 0.930 . S
C474 H460 0.930 . S
C474 C472 1.395 . S
C474 C477 1.403 . S
C475 C472 1.403 . S
C475 C476 1.524 . S
C475 C479 1.400 . S
C476 H461 0.960 . S
C476 H462 0.960 . S
C476 H463 0.960 . S
C476 C475 1.524 . S
C477 C474 1.403 . S
C477 C478 1.392 . S
C477 C481 1.495 . S
C478 C477 1.392 . S
C478 C479 1.385 . S
C478 C480 1.478 . S
C479 H473 0.930 . S
C479 C475 1.400 . S
C479 C478 1.385 . S
C480 C478 1.478 . S
C480 C482 1.381 1_455 S
C480 C486 1.383 1_455 S
C481 C477 1.495 . S
C481 H487 0.959 . S
C481 H488 0.961 . S
C481 H489 0.960 . S
C482 C480 1.381 1_655 S
C482 C483 1.394 . S
C482 H490 0.930 . S
C483 C482 1.394 . S
C483 C484 1.383 . S
C483 H491 0.929 . S
C484 C483 1.383 . S
C484 C485 1.377 . S
C485 H469 0.930 . S
C485 C484 1.377 . S
C485 C486 1.379 . S
C486 H470 0.931 1_655 S
C486 C480 1.383 1_655 S
C486 C485 1.379 . S
H487 C481 0.959 . S
H488 C481 0.961 . S
H489 C481 0.960 . S
H490 C482 0.930 . S
H491 C483 0.929 . S
H492 C500 0.929 . S
H493 C502 0.930 . S
H494 C504 0.930 . S
H495 C507 0.929 . S
H496 C510 0.930 . S
H497 C512 0.960 . S
H498 C512 0.960 . S
H499 C512 0.960 . S
C500 H492 0.929 . S
C500 C501 1.377 . S
C500 C502 1.384 . S
C501 C500 1.377 . S
C501 C507 1.390 . S
C502 H493 0.930 . S
C502 C500 1.384 . S
C502 C503 1.372 . S
C503 C502 1.372 . S
C503 C504 1.400 . S
C503 C508 1.490 . S
C504 H494 0.930 . S
C504 C503 1.400 . S
C504 C507 1.386 . S
H505 C521 0.930 . S
H506 C522 0.931 . S
C507 H495 0.929 . S
C507 C501 1.390 . S
C507 C504 1.386 . S
C508 C503 1.490 . S
C508 C510 1.395 . S
C508 C511 1.403 . S
H509 C515 0.930 . S
C510 H496 0.930 . S
C510 C508 1.395 . S
C510 C513 1.403 . S
C511 C508 1.403 . S
C511 C512 1.524 . S
C511 C515 1.400 . S
C512 H497 0.960 . S
C512 H498 0.960 . S
C512 H499 0.960 . S
C512 C511 1.524 . S
C513 C510 1.403 . S
C513 C514 1.392 . S
C513 C517 1.495 . S
C514 C513 1.392 . S
C514 C515 1.385 . S
C514 C516 1.478 . S
C515 H509 0.930 . S
C515 C511 1.400 . S
C515 C514 1.385 . S
C516 C514 1.478 . S
C516 C518 1.381 . S
C516 C522 1.383 . S
C517 C513 1.495 . S
C517 H523 0.959 . S
C517 H524 0.961 . S
C517 H525 0.960 . S
C518 C516 1.381 . S
C518 C519 1.394 . S
C518 H526 0.930 . S
C519 C518 1.394 . S
C519 C520 1.383 . S
C519 H527 0.929 . S
C520 C519 1.383 . S
C520 C521 1.377 . S
C521 H505 0.930 . S
C521 C520 1.377 . S
C521 C522 1.379 . S
C522 H506 0.931 . S
C522 C516 1.383 . S
C522 C521 1.379 . S
H523 C517 0.959 . S
H524 C517 0.961 . S
H525 C517 0.960 . S
H526 C518 0.930 . S
H527 C519 0.929 . S
H528 C536 0.929 . S
H529 C538 0.930 . S
H530 C540 0.930 . S
H531 C543 0.929 . S
H532 C546 0.930 . S
H533 C548 0.960 . S
H534 C548 0.960 . S
H535 C548 0.960 . S
C536 H528 0.929 . S
C536 C537 1.377 . S
C536 C538 1.384 . S
C537 C536 1.377 . S
C537 C543 1.390 . S
C538 H529 0.930 . S
C538 C536 1.384 . S
C538 C539 1.372 . S
C539 C538 1.372 . S
C539 C540 1.400 . S
C539 C544 1.490 . S
C540 H530 0.930 . S
C540 C539 1.400 . S
C540 C543 1.386 . S
H541 C557 0.930 . S
H542 C558 0.929 . S
C543 H531 0.929 . S
C543 C537 1.390 . S
C543 C540 1.386 . S
C544 C539 1.490 . S
C544 C546 1.395 . S
C544 C547 1.403 . S
H545 C551 0.930 . S
C546 H532 0.930 . S
C546 C544 1.395 . S
C546 C549 1.403 . S
C547 C544 1.403 . S
C547 C548 1.524 . S
C547 C551 1.400 . S
C548 H533 0.960 . S
C548 H534 0.960 . S
C548 H535 0.960 . S
C548 C547 1.524 . S
C549 C546 1.403 . S
C549 C550 1.392 . S
C549 C553 1.495 . S
C550 C549 1.392 . S
C550 C551 1.385 . S
C550 C552 1.478 . S
C551 H545 0.930 . S
C551 C547 1.400 . S
C551 C550 1.385 . S
C552 C550 1.478 . S
C552 C554 1.381 1_565 S
C552 C558 1.383 1_565 S
C553 C549 1.495 . S
C553 H559 0.959 . S
C553 H560 0.961 . S
C553 H561 0.960 . S
C554 C552 1.381 1_545 S
C554 C555 1.394 . S
C554 H562 0.930 1_545 S
C555 C554 1.394 . S
C555 C556 1.383 . S
C555 H563 0.929 . S
C556 C555 1.383 . S
C556 C557 1.377 . S
C557 H541 0.930 . S
C557 C556 1.377 . S
C557 C558 1.379 . S
C558 H542 0.929 . S
C558 C552 1.383 1_545 S
C558 C557 1.379 . S
H559 C553 0.959 . S
H560 C553 0.961 . S
H561 C553 0.960 . S
H562 C554 0.930 1_565 S
H563 C555 0.929 . S
H564 C572 0.929 . S
H565 C574 0.930 . S
H566 C576 0.930 1_554 S
H567 C579 0.929 1_554 S
H568 C582 0.930 . S
H569 C584 0.960 . S
H570 C584 0.961 1_556 S
H571 C584 0.960 . S
C572 H564 0.929 . S
C572 C573 1.377 . S
C572 C574 1.384 . S
C573 C572 1.377 . S
C573 C579 1.390 . S
C574 H565 0.930 . S
C574 C572 1.384 . S
C574 C575 1.372 . S
C575 C574 1.372 . S
C575 C576 1.400 . S
C575 C580 1.490 . S
C576 H566 0.930 1_556 S
C576 C575 1.400 . S
C576 C579 1.386 . S
H577 C593 0.930 . S
H578 C594 0.933 . S
C579 H567 0.929 1_556 S
C579 C573 1.390 . S
C579 C576 1.386 . S
C580 C575 1.490 . S
C580 C582 1.395 . S
C580 C583 1.411 . S
H581 C587 0.930 . S
C582 H568 0.930 . S
C582 C580 1.395 . S
C582 C585 1.403 . S
C583 C580 1.411 . S
C583 C584 1.523 1_556 S
C583 C587 1.393 1_556 S
C584 H569 0.960 . S
C584 H570 0.961 1_554 S
C584 H571 0.960 . S
C584 C583 1.523 1_554 S
C585 C582 1.403 . S
C585 C586 1.392 1_556 S
C585 C589 1.495 . S
C586 C585 1.392 1_554 S
C586 C587 1.385 . S
C586 C588 1.478 . S
C587 H581 0.930 . S
C587 C583 1.393 1_554 S
C587 C586 1.385 . S
C588 C586 1.478 . S
C588 C590 1.391 1_565 S
C588 C594 1.383 . S
C589 C585 1.495 . S
C589 H595 0.959 . S
C589 H596 0.961 1_556 S
C589 H597 0.960 . S
C590 C588 1.391 1_545 S
C590 C591 1.399 . S
C590 H598 0.915 1_554 S
C591 C590 1.399 . S
C591 C592 1.383 . S
C591 H599 0.929 1_554 S
C592 C591 1.383 . S
C592 C593 1.377 . S
C593 H577 0.930 . S
C593 C592 1.377 . S
C593 C594 1.377 1_545 S
C594 H578 0.933 . S
C594 C588 1.383 . S
C594 C593 1.377 1_565 S
H595 C589 0.959 . S
H596 C589 0.961 1_554 S
H597 C589 0.960 . S
H598 C590 0.915 1_556 S
H599 C591 0.929 1_556 S
H600 C608 0.929 1_554 S
H601 C610 0.932 . S
H602 C612 0.930 . S
H603 C615 0.929 . S
H604 C618 0.930 . S
H605 C620 0.960 . S
H606 C620 0.960 . S
H607 C620 0.960 . S
C608 H600 0.929 1_556 S
C608 C609 1.377 . S
C608 C610 1.383 1_556 S
C609 C608 1.377 . S
C609 C615 1.390 . S
C610 H601 0.932 . S
C610 C608 1.383 1_554 S
C610 C611 1.371 1_554 S
C611 C610 1.371 1_556 S
C611 C612 1.400 . S
C611 C616 1.490 . S
C612 H602 0.930 . S
C612 C611 1.400 . S
C612 C615 1.386 . S
H613 C629 0.930 1_556 S
H614 C630 0.931 1_556 S
C615 H603 0.929 . S
C615 C609 1.390 . S
C615 C612 1.386 . S
C616 C611 1.490 . S
C616 C618 1.395 1_556 S
C616 C619 1.403 . S
H617 C623 0.929 1_556 S
C618 H604 0.930 . S
C618 C616 1.395 1_554 S
C618 C621 1.403 . S
C619 C616 1.403 . S
C619 C620 1.524 . S
C619 C623 1.396 1_556 S
C620 H605 0.960 . S
C620 H606 0.960 . S
C620 H607 0.960 . S
C620 C619 1.524 . S
C621 C618 1.403 . S
C621 C622 1.392 . S
C621 C625 1.495 . S
C622 C621 1.392 . S
C622 C623 1.390 . S
C622 C624 1.478 . S
C623 H617 0.929 1_554 S
C623 C619 1.396 1_554 S
C623 C622 1.390 . S
C624 C622 1.478 . S
C624 C626 1.375 1_455 S
C624 C630 1.383 1_455 S
C625 C621 1.495 . S
C625 H631 0.959 . S
C625 H632 0.961 . S
C625 H633 0.960 . S
C626 C624 1.375 1_655 S
C626 C627 1.417 . S
C626 H634 0.914 1_655 S
C627 C626 1.417 . S
C627 C628 1.383 . S
C627 H635 0.929 . S
C628 C627 1.383 . S
C628 C629 1.377 . S
C629 H613 0.930 1_554 S
C629 C628 1.377 . S
C629 C630 1.379 . S
C630 H614 0.931 1_554 S
C630 C624 1.383 1_655 S
C630 C629 1.379 . S
H631 C625 0.959 . S
H632 C625 0.961 . S
H633 C625 0.960 . S
H634 C626 0.914 1_455 S
H635 C627 0.929 . S
H636 C644 0.929 . S
H637 C646 0.930 . S
H638 C648 0.930 . S
H639 C651 0.929 . S
H640 C654 0.930 . S
H641 C656 0.960 . S
H642 C656 0.960 . S
H643 C656 0.960 . S
C644 H636 0.929 . S
C644 C645 1.377 . S
C644 C646 1.384 . S
C645 C644 1.377 . S
C645 C651 1.390 . S
C646 H637 0.930 . S
C646 C644 1.384 . S
C646 C647 1.372 . S
C647 C646 1.372 . S
C647 C648 1.400 . S
C647 C652 1.490 . S
C648 H638 0.930 . S
C648 C647 1.400 . S
C648 C651 1.386 . S
H649 C665 0.930 . S
H650 C666 0.931 . S
C651 H639 0.929 . S
C651 C645 1.390 . S
C651 C648 1.386 . S
C652 C647 1.490 . S
C652 C654 1.395 1_554 S
C652 C655 1.403 . S
H653 C659 0.930 . S
C654 H640 0.930 . S
C654 C652 1.395 1_556 S
C654 C657 1.403 . S
C655 C652 1.403 . S
C655 C656 1.524 . S
C655 C659 1.400 . S
C656 H641 0.960 . S
C656 H642 0.960 . S
C656 H643 0.960 . S
C656 C655 1.524 . S
C657 C654 1.403 . S
C657 C658 1.392 . S
C657 C661 1.495 . S
C658 C657 1.392 . S
C658 C659 1.385 1_556 S
C658 C660 1.478 . S
C659 H653 0.930 . S
C659 C655 1.400 . S
C659 C658 1.385 1_554 S
C660 C658 1.478 . S
C660 C662 1.381 . S
C660 C666 1.383 . S
C661 C657 1.495 . S
C661 H667 0.959 . S
C661 H668 0.961 . S
C661 H669 0.960 . S
C662 C660 1.381 . S
C662 C663 1.394 . S
C662 H670 0.930 . S
C663 C662 1.394 . S
C663 C664 1.383 . S
C663 H671 0.929 . S
C664 C663 1.383 . S
C664 C665 1.377 . S
C665 H649 0.930 . S
C665 C664 1.377 . S
C665 C666 1.379 . S
C666 H650 0.931 . S
C666 C660 1.383 . S
C666 C665 1.379 . S
H667 C661 0.959 . S
H668 C661 0.961 . S
H669 C661 0.960 . S
H670 C662 0.930 . S
H671 C663 0.929 . S
H672 C680 0.929 . S
H673 C682 0.930 . S
H674 C684 0.930 . S
H675 C687 0.929 . S
H676 C690 0.930 . S
H677 C692 0.960 . S
H678 C692 0.960 . S
H679 C692 0.960 . S
C680 H672 0.929 . S
C680 C681 1.377 . S
C680 C682 1.384 . S
C681 C680 1.377 . S
C681 C687 1.390 . S
C682 H673 0.930 . S
C682 C680 1.384 . S
C682 C683 1.372 . S
C683 C682 1.372 . S
C683 C684 1.400 . S
C683 C688 1.490 . S
C684 H674 0.930 . S
C684 C683 1.400 . S
C684 C687 1.386 . S
H685 C701 0.930 . S
H686 C702 0.931 1_655 S
C687 H675 0.929 . S
C687 C681 1.390 . S
C687 C684 1.386 . S
C688 C683 1.490 . S
C688 C690 1.395 . S
C688 C691 1.403 . S
H689 C695 0.930 . S
C690 H676 0.930 . S
C690 C688 1.395 . S
C690 C693 1.403 . S
C691 C688 1.403 . S
C691 C692 1.524 . S
C691 C695 1.400 . S
C692 H677 0.960 . S
C692 H678 0.960 . S
C692 H679 0.960 . S
C692 C691 1.524 . S
C693 C690 1.403 . S
C693 C694 1.392 . S
C693 C697 1.495 . S
C694 C693 1.392 . S
C694 C695 1.385 . S
C694 C696 1.478 . S
C695 H689 0.930 . S
C695 C691 1.400 . S
C695 C694 1.385 . S
C696 C694 1.478 . S
C696 C698 1.381 1_655 S
C696 C702 1.383 1_655 S
C697 C693 1.495 . S
C697 H703 0.959 . S
C697 H704 0.961 . S
C697 H705 0.960 . S
C698 C696 1.381 1_455 S
C698 C699 1.394 . S
C698 H706 0.930 . S
C699 C698 1.394 . S
C699 C700 1.383 . S
C699 H707 0.929 . S
C700 C699 1.383 . S
C700 C701 1.377 . S
C701 H685 0.930 . S
C701 C700 1.377 . S
C701 C702 1.379 . S
C702 H686 0.931 1_455 S
C702 C696 1.383 1_455 S
C702 C701 1.379 . S
H703 C697 0.959 . S
H704 C697 0.961 . S
H705 C697 0.960 . S
H706 C698 0.930 . S
H707 C699 0.929 . S
H708 C716 0.929 . S
H709 C718 0.930 . S
H710 C720 0.930 . S
H711 C723 0.929 . S
H712 C726 0.930 . S
H713 C728 0.960 . S
H714 C728 0.960 . S
H715 C728 0.960 . S
C716 H708 0.929 . S
C716 C717 1.377 . S
C716 C718 1.384 . S
C717 C716 1.377 . S
C717 C723 1.390 . S
C718 H709 0.930 . S
C718 C716 1.384 . S
C718 C719 1.372 . S
C719 C718 1.372 . S
C719 C720 1.400 . S
C719 C724 1.490 . S
C720 H710 0.930 . S
C720 C719 1.400 . S
C720 C723 1.386 . S
H721 C737 0.930 . S
H722 C738 0.931 . S
C723 H711 0.929 . S
C723 C717 1.390 . S
C723 C720 1.386 . S
C724 C719 1.490 . S
C724 C726 1.395 . S
C724 C727 1.403 . S
H725 C731 0.930 . S
C726 H712 0.930 . S
C726 C724 1.395 . S
C726 C729 1.403 . S
C727 C724 1.403 . S
C727 C728 1.524 . S
C727 C731 1.400 . S
C728 H713 0.960 . S
C728 H714 0.960 . S
C728 H715 0.960 . S
C728 C727 1.524 . S
C729 C726 1.403 . S
C729 C730 1.392 . S
C729 C733 1.495 . S
C730 C729 1.392 . S
C730 C731 1.385 . S
C730 C732 1.478 . S
C731 H725 0.930 . S
C731 C727 1.400 . S
C731 C730 1.385 . S
C732 C730 1.478 . S
C732 C734 1.381 . S
C732 C738 1.383 . S
C733 C729 1.495 . S
C733 H739 0.959 . S
C733 H740 0.961 . S
C733 H741 0.960 . S
C734 C732 1.381 . S
C734 C735 1.394 . S
C734 H742 0.930 . S
C735 C734 1.394 . S
C735 C736 1.383 . S
C735 H743 0.929 . S
C736 C735 1.383 . S
C736 C737 1.377 . S
C737 H721 0.930 . S
C737 C736 1.377 . S
C737 C738 1.379 . S
C738 H722 0.931 . S
C738 C732 1.383 . S
C738 C737 1.379 . S
H739 C733 0.959 . S
H740 C733 0.961 . S
H741 C733 0.960 . S
H742 C734 0.930 . S
H743 C735 0.929 . S
H744 C752 0.929 . S
H745 C754 0.930 . S
H746 C756 0.930 1_545 S
H747 C759 0.929 . S
H748 C762 0.930 . S
H749 C764 0.960 . S
H750 C764 0.960 . S
H751 C764 0.960 . S
C752 H744 0.929 . S
C752 C753 1.377 . S
C752 C754 1.384 . S
C753 C752 1.377 . S
C753 C759 1.390 . S
C754 H745 0.930 . S
C754 C752 1.384 . S
C754 C755 1.372 1_565 S
C755 C754 1.372 1_545 S
C755 C756 1.400 1_545 S
C755 C760 1.490 . S
C756 H746 0.930 1_565 S
C756 C755 1.400 1_565 S
C756 C759 1.386 . S
H757 C773 0.930 . S
H758 C774 0.931 . S
C759 H747 0.929 . S
C759 C753 1.390 . S
C759 C756 1.386 . S
C760 C755 1.490 . S
C760 C762 1.395 . S
C760 C763 1.403 . S
H761 C767 0.930 . S
C762 H748 0.930 . S
C762 C760 1.395 . S
C762 C765 1.403 . S
C763 C760 1.403 . S
C763 C764 1.524 . S
C763 C767 1.400 . S
C764 H749 0.960 . S
C764 H750 0.960 . S
C764 H751 0.960 . S
C764 C763 1.524 . S
C765 C762 1.403 . S
C765 C766 1.392 . S
C765 C769 1.495 . S
C766 C765 1.392 . S
C766 C767 1.385 . S
C766 C768 1.478 . S
C767 H761 0.930 . S
C767 C763 1.400 . S
C767 C766 1.385 . S
C768 C766 1.478 . S
C768 C770 1.381 . S
C768 C774 1.383 . S
C769 C765 1.495 . S
C769 H775 0.959 . S
C769 H776 0.961 . S
C769 H777 0.960 . S
C770 C768 1.381 . S
C770 C771 1.394 . S
C770 H778 0.930 . S
C771 C770 1.394 . S
C771 C772 1.383 . S
C771 H779 0.929 . S
C772 C771 1.383 . S
C772 C773 1.377 . S
C773 H757 0.930 . S
C773 C772 1.377 . S
C773 C774 1.379 . S
C774 H758 0.931 . S
C774 C768 1.383 . S
C774 C773 1.379 . S
H775 C769 0.959 . S
H776 C769 0.961 . S
H777 C769 0.960 . S
H778 C770 0.930 . S
H779 C771 0.929 . S
H780 C788 0.929 . S
H781 C790 0.930 . S
H782 C792 0.930 . S
H783 C795 0.929 . S
H784 C798 0.930 . S
H785 C800 0.960 . S
H786 C800 0.960 . S
H787 C800 0.960 . S
C788 H780 0.929 . S
C788 C789 1.377 . S
C788 C790 1.384 . S
C789 C788 1.377 . S
C789 C795 1.390 . S
C790 H781 0.930 . S
C790 C788 1.384 . S
C790 C791 1.372 . S
C791 C790 1.372 . S
C791 C792 1.400 . S
C791 C796 1.490 . S
C792 H782 0.930 . S
C792 C791 1.400 . S
C792 C795 1.386 . S
H793 C809 0.930 . S
H794 C810 0.931 . S
C795 H783 0.929 . S
C795 C789 1.390 . S
C795 C792 1.386 . S
C796 C791 1.490 . S
C796 C798 1.395 . S
C796 C799 1.403 . S
H797 C803 0.930 . S
C798 H784 0.930 . S
C798 C796 1.395 . S
C798 C801 1.403 . S
C799 C796 1.403 . S
C799 C800 1.524 . S
C799 C803 1.400 . S
C800 H785 0.960 . S
C800 H786 0.960 . S
C800 H787 0.960 . S
C800 C799 1.524 . S
C801 C798 1.403 . S
C801 C802 1.392 . S
C801 C805 1.495 . S
C802 C801 1.392 . S
C802 C803 1.385 . S
C802 C804 1.478 . S
C803 H797 0.930 . S
C803 C799 1.400 . S
C803 C802 1.385 . S
C804 C802 1.478 . S
C804 C806 1.381 . S
C804 C810 1.383 . S
C805 C801 1.495 . S
C805 H811 0.959 . S
C805 H812 0.961 . S
C805 H813 0.960 . S
C806 C804 1.381 . S
C806 C807 1.394 . S
C806 H814 0.930 . S
C807 C806 1.394 . S
C807 C808 1.383 . S
C807 H815 0.929 . S
C808 C807 1.383 . S
C808 C809 1.377 . S
C809 H793 0.930 . S
C809 C808 1.377 . S
C809 C810 1.379 . S
C810 H794 0.931 . S
C810 C804 1.383 . S
C810 C809 1.379 . S
H811 C805 0.959 . S
H812 C805 0.961 . S
H813 C805 0.960 . S
H814 C806 0.930 . S
H815 C807 0.929 . S
H816 C824 0.929 . S
H817 C826 0.930 . S
H818 C828 0.930 . S
H819 C831 0.929 . S
H820 C834 0.930 . S
H821 C836 0.960 . S
H822 C836 0.960 . S
H823 C836 0.960 . S
C824 H816 0.929 . S
C824 C825 1.377 . S
C824 C826 1.384 . S
C825 C824 1.377 . S
C825 C831 1.390 . S
C826 H817 0.930 . S
C826 C824 1.384 . S
C826 C827 1.372 . S
C827 C826 1.372 . S
C827 C828 1.400 . S
C827 C832 1.490 . S
C828 H818 0.930 . S
C828 C827 1.400 . S
C828 C831 1.386 . S
H829 C845 0.930 . S
H830 C846 0.931 . S
C831 H819 0.929 . S
C831 C825 1.390 . S
C831 C828 1.386 . S
C832 C827 1.490 . S
C832 C834 1.395 . S
C832 C835 1.403 1_545 S
H833 C839 0.930 . S
C834 H820 0.930 . S
C834 C832 1.395 . S
C834 C837 1.403 . S
C835 C832 1.403 1_565 S
C835 C836 1.524 . S
C835 C839 1.400 . S
C836 H821 0.960 . S
C836 H822 0.960 . S
C836 H823 0.960 . S
C836 C835 1.524 . S
C837 C834 1.403 . S
C837 C838 1.392 1_545 S
C837 C841 1.495 . S
C838 C837 1.392 1_565 S
C838 C839 1.385 . S
C838 C840 1.478 . S
C839 H833 0.930 . S
C839 C835 1.400 . S
C839 C838 1.385 . S
C840 C838 1.478 . S
C840 C842 1.381 . S
C840 C846 1.383 . S
C841 C837 1.495 . S
C841 H847 0.959 . S
C841 H848 0.961 . S
C841 H849 0.960 . S
C842 C840 1.381 . S
C842 C843 1.394 . S
C842 H850 0.930 . S
C843 C842 1.394 . S
C843 C844 1.383 . S
C843 H851 0.929 . S
C844 C843 1.383 . S
C844 C845 1.377 . S
C845 H829 0.930 . S
C845 C844 1.377 . S
C845 C846 1.379 . S
C846 H830 0.931 . S
C846 C840 1.383 . S
C846 C845 1.379 . S
H847 C841 0.959 . S
H848 C841 0.961 . S
H849 C841 0.960 . S
H850 C842 0.930 . S
H851 C843 0.929 . S
H852 C860 0.929 . S
H853 C862 0.930 . S
H854 C864 0.930 . S
H855 C867 0.929 . S
H856 C870 0.930 . S
H857 C872 0.960 . S
H858 C872 0.960 . S
H859 C872 0.960 . S
C860 H852 0.929 . S
C860 C861 1.377 . S
C860 C862 1.384 . S
C861 C860 1.377 . S
C861 C867 1.390 . S
C862 H853 0.930 . S
C862 C860 1.384 . S
C862 C863 1.372 . S
C863 C862 1.372 . S
C863 C864 1.400 . S
C863 C868 1.490 . S
C864 H854 0.930 . S
C864 C863 1.400 . S
C864 C867 1.386 . S
H865 C881 0.930 . S
H866 C882 0.931 . S
C867 H855 0.929 . S
C867 C861 1.390 . S
C867 C864 1.386 . S
C868 C863 1.490 . S
C868 C870 1.395 1_655 S
C868 C871 1.403 . S
H869 C875 0.930 . S
C870 H856 0.930 . S
C870 C868 1.395 1_455 S
C870 C873 1.403 . S
C871 C868 1.403 . S
C871 C872 1.524 . S
C871 C875 1.400 . S
C872 H857 0.960 . S
C872 H858 0.960 . S
C872 H859 0.960 . S
C872 C871 1.524 . S
C873 C870 1.403 . S
C873 C874 1.392 . S
C873 C877 1.495 . S
C874 C873 1.392 . S
C874 C875 1.385 1_455 S
C874 C876 1.478 . S
C875 H869 0.930 . S
C875 C871 1.400 . S
C875 C874 1.385 1_655 S
C876 C874 1.478 . S
C876 C878 1.381 . S
C876 C882 1.383 . S
C877 C873 1.495 . S
C877 H883 0.959 . S
C877 H884 0.961 . S
C877 H885 0.960 . S
C878 C876 1.381 . S
C878 C879 1.394 . S
C878 H886 0.930 . S
C879 C878 1.394 . S
C879 C880 1.383 . S
C879 H887 0.929 . S
C880 C879 1.383 . S
C880 C881 1.377 . S
C881 H865 0.930 . S
C881 C880 1.377 . S
C881 C882 1.379 . S
C882 H866 0.931 . S
C882 C876 1.383 . S
C882 C881 1.379 . S
H883 C877 0.959 . S
H884 C877 0.961 . S
H885 C877 0.960 . S
H886 C878 0.930 . S
H887 C879 0.929 . S
H888 C896 0.929 . S
H889 C898 0.930 . S
H890 C900 0.930 . S
H891 C903 0.929 . S
H892 C906 0.930 . S
H893 C908 0.960 . S
H894 C908 0.960 . S
H895 C908 0.960 . S
C896 H888 0.929 . S
C896 C897 1.377 . S
C896 C898 1.384 . S
C897 C896 1.377 . S
C897 C903 1.390 . S
C898 H889 0.930 . S
C898 C896 1.384 . S
C898 C899 1.372 . S
C899 C898 1.372 . S
C899 C900 1.400 . S
C899 C904 1.490 . S
C900 H890 0.930 . S
C900 C899 1.400 . S
C900 C903 1.386 . S
H901 C917 0.930 . S
H902 C918 0.931 . S
C903 H891 0.929 . S
C903 C897 1.390 . S
C903 C900 1.386 . S
C904 C899 1.490 . S
C904 C906 1.395 . S
C904 C907 1.403 . S
H905 C911 0.930 . S
C906 H892 0.930 . S
C906 C904 1.395 . S
C906 C909 1.403 . S
C907 C904 1.403 . S
C907 C908 1.524 . S
C907 C911 1.400 . S
C908 H893 0.960 . S
C908 H894 0.960 . S
C908 H895 0.960 . S
C908 C907 1.524 . S
C909 C906 1.403 . S
C909 C910 1.392 . S
C909 C913 1.495 . S
C910 C909 1.392 . S
C910 C911 1.385 . S
C910 C912 1.478 . S
C911 H905 0.930 . S
C911 C907 1.400 . S
C911 C910 1.385 . S
C912 C910 1.478 . S
C912 C914 1.381 . S
C912 C918 1.383 . S
C913 C909 1.495 . S
C913 H919 0.959 . S
C913 H920 0.961 . S
C913 H921 0.960 . S
C914 C912 1.381 . S
C914 C915 1.394 . S
C914 H922 0.930 . S
C915 C914 1.394 . S
C915 C916 1.383 . S
C915 H923 0.929 . S
C916 C915 1.383 . S
C916 C917 1.377 . S
C917 H901 0.930 . S
C917 C916 1.377 . S
C917 C918 1.379 . S
C918 H902 0.931 . S
C918 C912 1.383 . S
C918 C917 1.379 . S
H919 C913 0.959 . S
H920 C913 0.961 . S
H921 C913 0.960 . S
H922 C914 0.930 . S
H923 C915 0.929 . S
H924 C932 0.929 . S
H925 C934 0.930 . S
H926 C936 0.930 . S
H927 C939 0.929 . S
H928 C942 0.930 . S
H929 C944 0.960 . S
H930 C944 0.960 . S
H931 C944 0.960 . S
C932 H924 0.929 . S
C932 C933 1.377 . S
C932 C934 1.384 . S
C933 C932 1.377 . S
C933 C939 1.390 . S
C934 H925 0.930 . S
C934 C932 1.384 . S
C934 C935 1.372 . S
C935 C934 1.372 . S
C935 C936 1.400 . S
C935 C940 1.490 . S
C936 H926 0.930 . S
C936 C935 1.400 . S
C936 C939 1.386 . S
H937 C953 0.930 . S
H938 C954 0.931 . S
C939 H927 0.929 . S
C939 C933 1.390 . S
C939 C936 1.386 . S
C940 C935 1.490 . S
C940 C942 1.395 1_545 S
C940 C943 1.403 . S
H941 C947 0.930 . S
C942 H928 0.930 . S
C942 C940 1.395 1_565 S
C942 C945 1.403 . S
C943 C940 1.403 . S
C943 C944 1.524 . S
C943 C947 1.400 . S
C944 H929 0.960 . S
C944 H930 0.960 . S
C944 H931 0.960 . S
C944 C943 1.524 . S
C945 C942 1.403 . S
C945 C946 1.392 . S
C945 C949 1.495 . S
C946 C945 1.392 . S
C946 C947 1.385 1_565 S
C946 C948 1.478 . S
C947 H941 0.930 . S
C947 C943 1.400 . S
C947 C946 1.385 1_545 S
C948 C946 1.478 . S
C948 C950 1.381 . S
C948 C954 1.383 . S
C949 C945 1.495 . S
C949 H955 0.959 . S
C949 H956 0.961 . S
C949 H957 0.960 . S
C950 C948 1.381 . S
C950 C951 1.394 . S
C950 H958 0.930 . S
C951 C950 1.394 . S
C951 C952 1.383 . S
C951 H959 0.929 . S
C952 C951 1.383 . S
C952 C953 1.377 . S
C953 H937 0.930 . S
C953 C952 1.377 . S
C953 C954 1.379 . S
C954 H938 0.931 . S
C954 C948 1.383 . S
C954 C953 1.379 . S
H955 C949 0.959 . S
H956 C949 0.961 . S
H957 C949 0.960 . S
H958 C950 0.930 . S
H959 C951 0.929 . S
H960 C968 0.929 . S
H961 C970 0.930 . S
H962 C972 0.930 . S
H963 C975 0.929 . S
H964 C978 0.930 . S
H965 C980 0.960 . S
H966 C980 0.960 . S
H967 C980 0.960 . S
C968 H960 0.929 . S
C968 C969 1.377 . S
C968 C970 1.384 . S
C969 C968 1.377 . S
C969 C975 1.390 . S
C970 H961 0.930 . S
C970 C968 1.384 . S
C970 C971 1.372 . S
C971 C970 1.372 . S
C971 C972 1.400 . S
C971 C976 1.490 . S
C972 H962 0.930 . S
C972 C971 1.400 . S
C972 C975 1.386 . S
H973 C989 0.930 . S
H974 C990 0.931 . S
C975 H963 0.929 . S
C975 C969 1.390 . S
C975 C972 1.386 . S
C976 C971 1.490 . S
C976 C978 1.395 . S
C976 C979 1.403 1_655 S
H977 C983 0.930 . S
C978 H964 0.930 . S
C978 C976 1.395 . S
C978 C981 1.403 . S
C979 C976 1.403 1_455 S
C979 C980 1.524 . S
C979 C983 1.400 . S
C980 H965 0.960 . S
C980 H966 0.960 . S
C980 H967 0.960 . S
C980 C979 1.524 . S
C981 C978 1.403 . S
C981 C982 1.392 1_655 S
C981 C985 1.495 . S
C982 C981 1.392 1_455 S
C982 C983 1.385 . S
C982 C984 1.478 . S
C983 H977 0.930 . S
C983 C979 1.400 . S
C983 C982 1.385 . S
C984 C982 1.478 . S
C984 C986 1.381 . S
C984 C990 1.383 . S
C985 C981 1.495 . S
C985 H991 0.959 . S
C985 H992 0.961 . S
C985 H993 0.960 . S
C986 C984 1.381 . S
C986 C987 1.394 . S
C986 H994 0.930 . S
C987 C986 1.394 . S
C987 C988 1.383 . S
C987 H995 0.929 . S
C988 C987 1.383 . S
C988 C989 1.377 . S
C989 H973 0.930 . S
C989 C988 1.377 . S
C989 C990 1.379 . S
C990 H974 0.931 . S
C990 C984 1.383 . S
C990 C989 1.379 . S
H991 C985 0.959 . S
H992 C985 0.961 . S
H993 C985 0.960 . S
H994 C986 0.930 . S
H995 C987 0.929 . S
H996 C1004 0.929 . S
H997 C1006 0.930 . S
H998 C1008 0.930 . S
H999 C1011 0.929 . S
H1000 C1014 0.930 . S
H1001 C1016 0.960 . S
H1002 C1016 0.960 . S
H1003 C1016 0.960 . S
C1004 H996 0.929 . S
C1004 C1005 1.377 . S
C1004 C1006 1.384 . S
C1005 C1004 1.377 . S
C1005 C1011 1.390 . S
C1006 H997 0.930 . S
C1006 C1004 1.384 . S
C1006 C1007 1.372 . S
C1007 C1006 1.372 . S
C1007 C1008 1.400 . S
C1007 C1012 1.490 . S
C1008 H998 0.930 . S
C1008 C1007 1.400 . S
C1008 C1011 1.386 . S
H1009 C1025 0.930 . S
H1010 C1026 0.931 . S
C1011 H999 0.929 . S
C1011 C1005 1.390 . S
C1011 C1008 1.386 . S
C1012 C1007 1.490 . S
C1012 C1014 1.395 . S
C1012 C1015 1.403 . S
H1013 C1019 0.930 . S
C1014 H1000 0.930 . S
C1014 C1012 1.395 . S
C1014 C1017 1.403 . S
C1015 C1012 1.403 . S
C1015 C1016 1.524 . S
C1015 C1019 1.400 . S
C1016 H1001 0.960 . S
C1016 H1002 0.960 . S
C1016 H1003 0.960 . S
C1016 C1015 1.524 . S
C1017 C1014 1.403 . S
C1017 C1018 1.392 . S
C1017 C1021 1.495 . S
C1018 C1017 1.392 . S
C1018 C1019 1.385 . S
C1018 C1020 1.478 . S
C1019 H1013 0.930 . S
C1019 C1015 1.400 . S
C1019 C1018 1.385 . S
C1020 C1018 1.478 . S
C1020 C1022 1.381 . S
C1020 C1026 1.383 . S
C1021 C1017 1.495 . S
C1021 H1027 0.959 . S
C1021 H1028 0.961 . S
C1021 H1029 0.960 . S
C1022 C1020 1.381 . S
C1022 C1023 1.394 . S
C1022 H1030 0.930 . S
C1023 C1022 1.394 . S
C1023 C1024 1.383 . S
C1023 H1031 0.929 . S
C1024 C1023 1.383 . S
C1024 C1025 1.377 . S
C1025 H1009 0.930 . S
C1025 C1024 1.377 . S
C1025 C1026 1.379 . S
C1026 H1010 0.931 . S
C1026 C1020 1.383 . S
C1026 C1025 1.379 . S
H1027 C1021 0.959 . S
H1028 C1021 0.961 . S
H1029 C1021 0.960 . S
H1030 C1022 0.930 . S
H1031 C1023 0.929 . S
H1032 C1040 0.929 . S
H1033 C1042 0.930 . S
H1034 C1044 0.930 . S
H1035 C1047 0.929 . S
H1036 C1050 0.930 . S
H1037 C1052 0.960 . S
H1038 C1052 0.960 . S
H1039 C1052 0.960 . S
C1040 H1032 0.929 . S
C1040 C1041 1.377 . S
C1040 C1042 1.384 . S
C1041 C1040 1.377 . S
C1041 C1047 1.390 . S
C1042 H1033 0.930 . S
C1042 C1040 1.384 . S
C1042 C1043 1.372 . S
C1043 C1042 1.372 . S
C1043 C1044 1.400 . S
C1043 C1048 1.490 . S
C1044 H1034 0.930 . S
C1044 C1043 1.400 . S
C1044 C1047 1.386 . S
H1045 C1061 0.930 . S
H1046 C1062 0.931 . S
C1047 H1035 0.929 . S
C1047 C1041 1.390 . S
C1047 C1044 1.386 . S
C1048 C1043 1.490 . S
C1048 C1050 1.395 . S
C1048 C1051 1.403 . S
H1049 C1055 0.930 . S
C1050 H1036 0.930 . S
C1050 C1048 1.395 . S
C1050 C1053 1.403 . S
C1051 C1048 1.403 . S
C1051 C1052 1.524 . S
C1051 C1055 1.400 . S
C1052 H1037 0.960 . S
C1052 H1038 0.960 . S
C1052 H1039 0.960 . S
C1052 C1051 1.524 . S
C1053 C1050 1.403 . S
C1053 C1054 1.392 . S
C1053 C1057 1.495 . S
C1054 C1053 1.392 . S
C1054 C1055 1.385 . S
C1054 C1056 1.478 . S
C1055 H1049 0.930 . S
C1055 C1051 1.400 . S
C1055 C1054 1.385 . S
C1056 C1054 1.478 . S
C1056 C1058 1.381 . S
C1056 C1062 1.383 . S
C1057 C1053 1.495 . S
C1057 H1063 0.959 . S
C1057 H1064 0.961 . S
C1057 H1065 0.960 . S
C1058 C1056 1.381 . S
C1058 C1059 1.394 . S
C1058 H1066 0.930 . S
C1059 C1058 1.394 . S
C1059 C1060 1.383 . S
C1059 H1067 0.929 . S
C1060 C1059 1.383 . S
C1060 C1061 1.377 . S
C1061 H1045 0.930 . S
C1061 C1060 1.377 . S
C1061 C1062 1.379 . S
C1062 H1046 0.931 . S
C1062 C1056 1.383 . S
C1062 C1061 1.379 . S
H1063 C1057 0.959 . S
H1064 C1057 0.961 . S
H1065 C1057 0.960 . S
H1066 C1058 0.930 . S
H1067 C1059 0.929 . S
H1068 C1076 0.929 . S
H1069 C1078 0.930 . S
H1070 C1080 0.930 . S
H1071 C1083 0.929 . S
H1072 C1086 0.930 . S
H1073 C1088 0.960 . S
H1074 C1088 0.960 . S
H1075 C1088 0.960 . S
C1076 H1068 0.929 . S
C1076 C1077 1.377 . S
C1076 C1078 1.384 . S
C1077 C1076 1.377 . S
C1077 C1083 1.390 . S
C1078 H1069 0.930 . S
C1078 C1076 1.384 . S
C1078 C1079 1.372 . S
C1079 C1078 1.372 . S
C1079 C1080 1.400 . S
C1079 C1084 1.490 . S
C1080 H1070 0.930 . S
C1080 C1079 1.400 . S
C1080 C1083 1.386 . S
H1081 C1097 0.930 . S
H1082 C1098 0.931 . S
C1083 H1071 0.929 . S
C1083 C1077 1.390 . S
C1083 C1080 1.386 . S
C1084 C1079 1.490 . S
C1084 C1086 1.395 . S
C1084 C1087 1.403 . S
H1085 C1091 0.930 . S
C1086 H1072 0.930 . S
C1086 C1084 1.395 . S
C1086 C1089 1.403 . S
C1087 C1084 1.403 . S
C1087 C1088 1.524 . S
C1087 C1091 1.400 . S
C1088 H1073 0.960 . S
C1088 H1074 0.960 . S
C1088 H1075 0.960 . S
C1088 C1087 1.524 . S
C1089 C1086 1.403 . S
C1089 C1090 1.392 . S
C1089 C1093 1.495 . S
C1090 C1089 1.392 . S
C1090 C1091 1.385 . S
C1090 C1092 1.478 . S
C1091 H1085 0.930 . S
C1091 C1087 1.400 . S
C1091 C1090 1.385 . S
C1092 C1090 1.478 . S
C1092 C1094 1.381 . S
C1092 C1098 1.383 . S
C1093 C1089 1.495 . S
C1093 H1099 0.959 . S
C1093 H1100 0.961 . S
C1093 H1101 0.960 . S
C1094 C1092 1.381 . S
C1094 C1095 1.394 . S
C1094 H1102 0.930 . S
C1095 C1094 1.394 . S
C1095 C1096 1.383 . S
C1095 H1103 0.929 . S
C1096 C1095 1.383 . S
C1096 C1097 1.377 . S
C1097 H1081 0.930 . S
C1097 C1096 1.377 . S
C1097 C1098 1.379 . S
C1098 H1082 0.931 . S
C1098 C1092 1.383 . S
C1098 C1097 1.379 . S
H1099 C1093 0.959 . S
H1100 C1093 0.961 . S
H1101 C1093 0.960 . S
H1102 C1094 0.930 . S
H1103 C1095 0.929 . S
H1104 C1112 0.929 . S
H1105 C1114 0.930 . S
H1106 C1116 0.930 . S
H1107 C1119 0.929 . S
H1108 C1122 0.930 . S
H1109 C1124 0.960 . S
H1110 C1124 0.960 . S
H1111 C1124 0.960 . S
C1112 H1104 0.929 . S
C1112 C1113 1.377 . S
C1112 C1114 1.384 . S
C1113 C1112 1.377 . S
C1113 C1119 1.390 . S
C1114 H1105 0.930 . S
C1114 C1112 1.384 . S
C1114 C1115 1.372 . S
C1115 C1114 1.372 . S
C1115 C1116 1.400 . S
C1115 C1120 1.490 . S
C1116 H1106 0.930 . S
C1116 C1115 1.400 . S
C1116 C1119 1.386 . S
H1117 C1133 0.930 . S
H1118 C1134 0.931 . S
C1119 H1107 0.929 . S
C1119 C1113 1.390 . S
C1119 C1116 1.386 . S
C1120 C1115 1.490 . S
C1120 C1122 1.395 . S
C1120 C1123 1.403 . S
H1121 C1127 0.930 . S
C1122 H1108 0.930 . S
C1122 C1120 1.395 . S
C1122 C1125 1.403 . S
C1123 C1120 1.403 . S
C1123 C1124 1.524 . S
C1123 C1127 1.400 . S
C1124 H1109 0.960 . S
C1124 H1110 0.960 . S
C1124 H1111 0.960 . S
C1124 C1123 1.524 . S
C1125 C1122 1.403 . S
C1125 C1126 1.392 . S
C1125 C1129 1.495 . S
C1126 C1125 1.392 . S
C1126 C1127 1.385 . S
C1126 C1128 1.478 . S
C1127 H1121 0.930 . S
C1127 C1123 1.400 . S
C1127 C1126 1.385 . S
C1128 C1126 1.478 . S
C1128 C1130 1.381 . S
C1128 C1134 1.383 . S
C1129 C1125 1.495 . S
C1129 H1135 0.959 . S
C1129 H1136 0.961 . S
C1129 H1137 0.960 . S
C1130 C1128 1.381 . S
C1130 C1131 1.394 . S
C1130 H1138 0.930 . S
C1131 C1130 1.394 . S
C1131 C1132 1.383 . S
C1131 H1139 0.929 . S
C1132 C1131 1.383 . S
C1132 C1133 1.377 . S
C1133 H1117 0.930 . S
C1133 C1132 1.377 . S
C1133 C1134 1.379 . S
C1134 H1118 0.931 . S
C1134 C1128 1.383 . S
C1134 C1133 1.379 . S
H1135 C1129 0.959 . S
H1136 C1129 0.961 . S
H1137 C1129 0.960 . S
H1138 C1130 0.930 . S
H1139 C1131 0.929 . S
H1140 C1148 0.929 . S
H1141 C1150 0.930 . S
H1142 C1152 0.930 . S
H1143 C1155 0.929 . S
H1144 C1158 0.930 . S
H1145 C1160 0.960 . S
H1146 C1160 0.960 . S
H1147 C1160 0.960 . S
C1148 H1140 0.929 . S
C1148 C1149 1.377 . S
C1148 C1150 1.384 . S
C1149 C1148 1.377 . S
C1149 C1155 1.390 . S
C1150 H1141 0.930 . S
C1150 C1148 1.384 . S
C1150 C1151 1.372 . S
C1151 C1150 1.372 . S
C1151 C1152 1.400 . S
C1151 C1156 1.490 . S
C1152 H1142 0.930 . S
C1152 C1151 1.400 . S
C1152 C1155 1.386 . S
H1153 C1169 0.930 . S
H1154 C1170 0.931 . S
C1155 H1143 0.929 . S
C1155 C1149 1.390 . S
C1155 C1152 1.386 . S
C1156 C1151 1.490 . S
C1156 C1158 1.395 . S
C1156 C1159 1.403 . S
H1157 C1163 0.930 . S
C1158 H1144 0.930 . S
C1158 C1156 1.395 . S
C1158 C1161 1.403 . S
C1159 C1156 1.403 . S
C1159 C1160 1.524 . S
C1159 C1163 1.400 . S
C1160 H1145 0.960 . S
C1160 H1146 0.960 . S
C1160 H1147 0.960 . S
C1160 C1159 1.524 . S
C1161 C1158 1.403 . S
C1161 C1162 1.392 . S
C1161 C1165 1.495 . S
C1162 C1161 1.392 . S
C1162 C1163 1.385 . S
C1162 C1164 1.478 . S
C1163 H1157 0.930 . S
C1163 C1159 1.400 . S
C1163 C1162 1.385 . S
C1164 C1162 1.478 . S
C1164 C1166 1.381 . S
C1164 C1170 1.383 . S
C1165 C1161 1.495 . S
C1165 H1171 0.959 . S
C1165 H1172 0.961 . S
C1165 H1173 0.960 . S
C1166 C1164 1.381 . S
C1166 C1167 1.394 . S
C1166 H1174 0.930 . S
C1167 C1166 1.394 . S
C1167 C1168 1.383 . S
C1167 H1175 0.929 . S
C1168 C1167 1.383 . S
C1168 C1169 1.377 . S
C1169 H1153 0.930 . S
C1169 C1168 1.377 . S
C1169 C1170 1.379 . S
C1170 H1154 0.931 . S
C1170 C1164 1.383 . S
C1170 C1169 1.379 . S
H1171 C1165 0.959 . S
H1172 C1165 0.961 . S
H1173 C1165 0.960 . S
H1174 C1166 0.930 . S
H1175 C1167 0.929 . S
H1176 C1184 0.929 . S
H1177 C1186 0.930 . S
H1178 C1188 0.930 . S
H1179 C1191 0.929 . S
H1180 C1194 0.930 . S
H1181 C1196 0.960 . S
H1182 C1196 0.960 . S
H1183 C1196 0.960 . S
C1184 H1176 0.929 . S
C1184 C1185 1.377 . S
C1184 C1186 1.384 . S
C1185 C1184 1.377 . S
C1185 C1191 1.390 . S
C1186 H1177 0.930 . S
C1186 C1184 1.384 . S
C1186 C1187 1.372 . S
C1187 C1186 1.372 . S
C1187 C1188 1.400 . S
C1187 C1192 1.490 . S
C1188 H1178 0.930 . S
C1188 C1187 1.400 . S
C1188 C1191 1.386 . S
H1189 C1205 0.930 . S
H1190 C1206 0.931 . S
C1191 H1179 0.929 . S
C1191 C1185 1.390 . S
C1191 C1188 1.386 . S
C1192 C1187 1.490 . S
C1192 C1194 1.395 . S
C1192 C1195 1.403 . S
H1193 C1199 0.930 . S
C1194 H1180 0.930 . S
C1194 C1192 1.395 . S
C1194 C1197 1.403 . S
C1195 C1192 1.403 . S
C1195 C1196 1.524 . S
C1195 C1199 1.400 . S
C1196 H1181 0.960 . S
C1196 H1182 0.960 . S
C1196 H1183 0.960 . S
C1196 C1195 1.524 . S
C1197 C1194 1.403 . S
C1197 C1198 1.392 . S
C1197 C1201 1.495 . S
C1198 C1197 1.392 . S
C1198 C1199 1.385 . S
C1198 C1200 1.478 . S
C1199 H1193 0.930 . S
C1199 C1195 1.400 . S
C1199 C1198 1.385 . S
C1200 C1198 1.478 . S
C1200 C1202 1.381 . S
C1200 C1206 1.383 . S
C1201 C1197 1.495 . S
C1201 H1207 0.959 . S
C1201 H1208 0.961 . S
C1201 H1209 0.960 . S
C1202 C1200 1.381 . S
C1202 C1203 1.394 . S
C1202 H1210 0.930 . S
C1203 C1202 1.394 . S
C1203 C1204 1.383 . S
C1203 H1211 0.929 . S
C1204 C1203 1.383 . S
C1204 C1205 1.377 . S
C1205 H1189 0.930 . S
C1205 C1204 1.377 . S
C1205 C1206 1.379 . S
C1206 H1190 0.931 . S
C1206 C1200 1.383 . S
C1206 C1205 1.379 . S
H1207 C1201 0.959 . S
H1208 C1201 0.961 . S
H1209 C1201 0.960 . S
H1210 C1202 0.930 . S
H1211 C1203 0.929 . S
H1212 C1220 0.929 . S
H1213 C1222 0.930 . S
H1214 C1224 0.930 . S
H1215 C1227 0.929 . S
H1216 C1230 0.930 . S
H1217 C1232 0.960 . S
H1218 C1232 0.960 . S
H1219 C1232 0.960 . S
C1220 H1212 0.929 . S
C1220 C1221 1.377 . S
C1220 C1222 1.384 . S
C1221 C1220 1.377 . S
C1221 C1227 1.390 . S
C1222 H1213 0.930 . S
C1222 C1220 1.384 . S
C1222 C1223 1.372 . S
C1223 C1222 1.372 . S
C1223 C1224 1.400 . S
C1223 C1228 1.490 . S
C1224 H1214 0.930 . S
C1224 C1223 1.400 . S
C1224 C1227 1.386 . S
H1225 C1241 0.930 . S
H1226 C1242 0.931 . S
C1227 H1215 0.929 . S
C1227 C1221 1.390 . S
C1227 C1224 1.386 . S
C1228 C1223 1.490 . S
C1228 C1230 1.395 . S
C1228 C1231 1.403 . S
H1229 C1235 0.930 . S
C1230 H1216 0.930 . S
C1230 C1228 1.395 . S
C1230 C1233 1.403 . S
C1231 C1228 1.403 . S
C1231 C1232 1.524 . S
C1231 C1235 1.400 . S
C1232 H1217 0.960 . S
C1232 H1218 0.960 . S
C1232 H1219 0.960 . S
C1232 C1231 1.524 . S
C1233 C1230 1.403 . S
C1233 C1234 1.392 . S
C1233 C1237 1.495 . S
C1234 C1233 1.392 . S
C1234 C1235 1.385 . S
C1234 C1236 1.478 . S
C1235 H1229 0.930 . S
C1235 C1231 1.400 . S
C1235 C1234 1.385 . S
C1236 C1234 1.478 . S
C1236 C1238 1.381 . S
C1236 C1242 1.383 . S
C1237 C1233 1.495 . S
C1237 H1243 0.959 . S
C1237 H1244 0.961 . S
C1237 H1245 0.960 . S
C1238 C1236 1.381 . S
C1238 C1239 1.394 . S
C1238 H1246 0.930 . S
C1239 C1238 1.394 . S
C1239 C1240 1.383 . S
C1239 H1247 0.929 . S
C1240 C1239 1.383 . S
C1240 C1241 1.377 . S
C1241 H1225 0.930 . S
C1241 C1240 1.377 . S
C1241 C1242 1.379 . S
C1242 H1226 0.931 . S
C1242 C1236 1.383 . S
C1242 C1241 1.379 . S
H1243 C1237 0.959 . S
H1244 C1237 0.961 . S
H1245 C1237 0.960 . S
H1246 C1238 0.930 . S
H1247 C1239 0.929 . S
H1248 C1256 0.929 . S
H1249 C1258 0.930 . S
H1250 C1260 0.930 . S
H1251 C1263 0.929 . S
H1252 C1266 0.930 . S
H1253 C1268 0.960 . S
H1254 C1268 0.960 . S
H1255 C1268 0.960 . S
C1256 H1248 0.929 . S
C1256 C1257 1.377 . S
C1256 C1258 1.384 . S
C1257 C1256 1.377 . S
C1257 C1263 1.390 . S
C1258 H1249 0.930 . S
C1258 C1256 1.384 . S
C1258 C1259 1.372 . S
C1259 C1258 1.372 . S
C1259 C1260 1.400 . S
C1259 C1264 1.490 . S
C1260 H1250 0.930 . S
C1260 C1259 1.400 . S
C1260 C1263 1.386 . S
H1261 C1277 0.930 . S
H1262 C1278 0.931 . S
C1263 H1251 0.929 . S
C1263 C1257 1.390 . S
C1263 C1260 1.386 . S
C1264 C1259 1.490 . S
C1264 C1266 1.395 . S
C1264 C1267 1.403 . S
H1265 C1271 0.930 . S
C1266 H1252 0.930 . S
C1266 C1264 1.395 . S
C1266 C1269 1.403 . S
C1267 C1264 1.403 . S
C1267 C1268 1.524 . S
C1267 C1271 1.400 . S
C1268 H1253 0.960 . S
C1268 H1254 0.960 . S
C1268 H1255 0.960 . S
C1268 C1267 1.524 . S
C1269 C1266 1.403 . S
C1269 C1270 1.392 . S
C1269 C1273 1.495 . S
C1270 C1269 1.392 . S
C1270 C1271 1.385 . S
C1270 C1272 1.478 . S
C1271 H1265 0.930 . S
C1271 C1267 1.400 . S
C1271 C1270 1.385 . S
C1272 C1270 1.478 . S
C1272 C1274 1.381 . S
C1272 C1278 1.383 . S
C1273 C1269 1.495 . S
C1273 H1279 0.959 . S
C1273 H1280 0.961 . S
C1273 H1281 0.960 . S
C1274 C1272 1.381 . S
C1274 C1275 1.394 . S
C1274 H1282 0.930 . S
C1275 C1274 1.394 . S
C1275 C1276 1.383 . S
C1275 H1283 0.929 . S
C1276 C1275 1.383 . S
C1276 C1277 1.377 . S
C1277 H1261 0.930 . S
C1277 C1276 1.377 . S
C1277 C1278 1.379 . S
C1278 H1262 0.931 . S
C1278 C1272 1.383 . S
C1278 C1277 1.379 . S
H1279 C1273 0.959 . S
H1280 C1273 0.961 . S
H1281 C1273 0.960 . S
H1282 C1274 0.930 . S
H1283 C1275 0.929 . S
H1284 C1292 0.929 . S
H1285 C1294 0.930 . S
H1286 C1296 0.930 . S
H1287 C1299 0.929 . S
H1288 C1302 0.930 . S
H1289 C1304 0.960 . S
H1290 C1304 0.960 . S
H1291 C1304 0.960 . S
C1292 H1284 0.929 . S
C1292 C1293 1.377 . S
C1292 C1294 1.384 . S
C1293 C1292 1.377 . S
C1293 C1299 1.390 . S
C1294 H1285 0.930 . S
C1294 C1292 1.384 . S
C1294 C1295 1.372 . S
C1295 C1294 1.372 . S
C1295 C1296 1.400 . S
C1295 C1300 1.490 . S
C1296 H1286 0.930 . S
C1296 C1295 1.400 . S
C1296 C1299 1.386 . S
H1297 C1313 0.930 . S
H1298 C1314 0.931 . S
C1299 H1287 0.929 . S
C1299 C1293 1.390 . S
C1299 C1296 1.386 . S
C1300 C1295 1.490 . S
C1300 C1302 1.395 . S
C1300 C1303 1.403 . S
H1301 C1307 0.930 . S
C1302 H1288 0.930 . S
C1302 C1300 1.395 . S
C1302 C1305 1.403 . S
C1303 C1300 1.403 . S
C1303 C1304 1.524 . S
C1303 C1307 1.400 . S
C1304 H1289 0.960 . S
C1304 H1290 0.960 . S
C1304 H1291 0.960 . S
C1304 C1303 1.524 . S
C1305 C1302 1.403 . S
C1305 C1306 1.392 . S
C1305 C1309 1.495 . S
C1306 C1305 1.392 . S
C1306 C1307 1.385 . S
C1306 C1308 1.478 . S
C1307 H1301 0.930 . S
C1307 C1303 1.400 . S
C1307 C1306 1.385 . S
C1308 C1306 1.478 . S
C1308 C1310 1.381 . S
C1308 C1314 1.383 . S
C1309 C1305 1.495 . S
C1309 H1315 0.959 . S
C1309 H1316 0.961 . S
C1309 H1317 0.960 . S
C1310 C1308 1.381 . S
C1310 C1311 1.394 . S
C1310 H1318 0.930 . S
C1311 C1310 1.394 . S
C1311 C1312 1.383 . S
C1311 H1319 0.929 . S
C1312 C1311 1.383 . S
C1312 C1313 1.377 . S
C1313 H1297 0.930 . S
C1313 C1312 1.377 . S
C1313 C1314 1.379 . S
C1314 H1298 0.931 . S
C1314 C1308 1.383 . S
C1314 C1313 1.379 . S
H1315 C1309 0.959 . S
H1316 C1309 0.961 . S
H1317 C1309 0.960 . S
H1318 C1310 0.930 . S
H1319 C1311 0.929 . S
H1320 C1328 0.929 . S
H1321 C1330 0.930 . S
H1322 C1332 0.930 . S
H1323 C1335 0.929 . S
H1324 C1338 0.930 . S
H1325 C1340 0.960 . S
H1326 C1340 0.960 . S
H1327 C1340 0.960 . S
C1328 H1320 0.929 . S
C1328 C1329 1.377 . S
C1328 C1330 1.384 . S
C1329 C1328 1.377 . S
C1329 C1335 1.390 . S
C1330 H1321 0.930 . S
C1330 C1328 1.384 . S
C1330 C1331 1.372 . S
C1331 C1330 1.372 . S
C1331 C1332 1.400 . S
C1331 C1336 1.490 . S
C1332 H1322 0.930 . S
C1332 C1331 1.400 . S
C1332 C1335 1.386 . S
H1333 C1349 0.930 . S
H1334 C1350 0.931 . S
C1335 H1323 0.929 . S
C1335 C1329 1.390 . S
C1335 C1332 1.386 . S
C1336 C1331 1.490 . S
C1336 C1338 1.395 . S
C1336 C1339 1.403 . S
H1337 C1343 0.930 . S
C1338 H1324 0.930 . S
C1338 C1336 1.395 . S
C1338 C1341 1.403 . S
C1339 C1336 1.403 . S
C1339 C1340 1.524 . S
C1339 C1343 1.400 . S
C1340 H1325 0.960 . S
C1340 H1326 0.960 . S
C1340 H1327 0.960 . S
C1340 C1339 1.524 . S
C1341 C1338 1.403 . S
C1341 C1342 1.392 . S
C1341 C1345 1.495 . S
C1342 C1341 1.392 . S
C1342 C1343 1.385 . S
C1342 C1344 1.478 . S
C1343 H1337 0.930 . S
C1343 C1339 1.400 . S
C1343 C1342 1.385 . S
C1344 C1342 1.478 . S
C1344 C1346 1.381 . S
C1344 C1350 1.383 . S
C1345 C1341 1.495 . S
C1345 H1351 0.959 . S
C1345 H1352 0.961 . S
C1345 H1353 0.960 . S
C1346 C1344 1.381 . S
C1346 C1347 1.394 . S
C1346 H1354 0.930 . S
C1347 C1346 1.394 . S
C1347 C1348 1.383 . S
C1347 H1355 0.929 . S
C1348 C1347 1.383 . S
C1348 C1349 1.377 . S
C1349 H1333 0.930 . S
C1349 C1348 1.377 . S
C1349 C1350 1.379 . S
C1350 H1334 0.931 . S
C1350 C1344 1.383 . S
C1350 C1349 1.379 . S
H1351 C1345 0.959 . S
H1352 C1345 0.961 . S
H1353 C1345 0.960 . S
H1354 C1346 0.930 . S
H1355 C1347 0.929 . S
H1356 C1364 0.929 . S
H1357 C1366 0.930 . S
H1358 C1368 0.930 . S
H1359 C1371 0.929 . S
H1360 C1374 0.930 . S
H1361 C1376 0.960 . S
H1362 C1376 0.960 . S
H1363 C1376 0.960 . S
C1364 H1356 0.929 . S
C1364 C1365 1.377 . S
C1364 C1366 1.384 . S
C1365 C1364 1.377 . S
C1365 C1371 1.390 . S
C1366 H1357 0.930 . S
C1366 C1364 1.384 . S
C1366 C1367 1.372 . S
C1367 C1366 1.372 . S
C1367 C1368 1.400 . S
C1367 C1372 1.490 . S
C1368 H1358 0.930 . S
C1368 C1367 1.400 . S
C1368 C1371 1.386 . S
H1369 C1385 0.930 . S
H1370 C1386 0.931 . S
C1371 H1359 0.929 . S
C1371 C1365 1.390 . S
C1371 C1368 1.386 . S
C1372 C1367 1.490 . S
C1372 C1374 1.395 . S
C1372 C1375 1.403 . S
H1373 C1379 0.930 . S
C1374 H1360 0.930 . S
C1374 C1372 1.395 . S
C1374 C1377 1.403 . S
C1375 C1372 1.403 . S
C1375 C1376 1.524 . S
C1375 C1379 1.400 . S
C1376 H1361 0.960 . S
C1376 H1362 0.960 . S
C1376 H1363 0.960 . S
C1376 C1375 1.524 . S
C1377 C1374 1.403 . S
C1377 C1378 1.392 . S
C1377 C1381 1.495 . S
C1378 C1377 1.392 . S
C1378 C1379 1.385 . S
C1378 C1380 1.478 . S
C1379 H1373 0.930 . S
C1379 C1375 1.400 . S
C1379 C1378 1.385 . S
C1380 C1378 1.478 . S
C1380 C1382 1.381 . S
C1380 C1386 1.383 . S
C1381 C1377 1.495 . S
C1381 H1387 0.959 . S
C1381 H1388 0.961 . S
C1381 H1389 0.960 . S
C1382 C1380 1.381 . S
C1382 C1383 1.394 . S
C1382 H1390 0.930 . S
C1383 C1382 1.394 . S
C1383 C1384 1.383 . S
C1383 H1391 0.929 . S
C1384 C1383 1.383 . S
C1384 C1385 1.377 . S
C1385 H1369 0.930 . S
C1385 C1384 1.377 . S
C1385 C1386 1.379 . S
C1386 H1370 0.931 . S
C1386 C1380 1.383 . S
C1386 C1385 1.379 . S
H1387 C1381 0.959 . S
H1388 C1381 0.961 . S
H1389 C1381 0.960 . S
H1390 C1382 0.930 . S
H1391 C1383 0.929 . S
H1392 C1400 0.929 . S
H1393 C1402 0.930 . S
H1394 C1404 0.930 . S
H1395 C1407 0.929 . S
H1396 C1410 0.930 . S
H1397 C1412 0.960 . S
H1398 C1412 0.960 . S
H1399 C1412 0.960 . S
C1400 H1392 0.929 . S
C1400 C1401 1.377 . S
C1400 C1402 1.384 . S
C1401 C1400 1.377 . S
C1401 C1407 1.390 . S
C1402 H1393 0.930 . S
C1402 C1400 1.384 . S
C1402 C1403 1.372 . S
C1403 C1402 1.372 . S
C1403 C1404 1.400 . S
C1403 C1408 1.490 . S
C1404 H1394 0.930 . S
C1404 C1403 1.400 . S
C1404 C1407 1.386 . S
H1405 C1421 0.930 . S
H1406 C1422 0.931 . S
C1407 H1395 0.929 . S
C1407 C1401 1.390 . S
C1407 C1404 1.386 . S
C1408 C1403 1.490 . S
C1408 C1410 1.395 . S
C1408 C1411 1.403 . S
H1409 C1415 0.930 . S
C1410 H1396 0.930 . S
C1410 C1408 1.395 . S
C1410 C1413 1.403 . S
C1411 C1408 1.403 . S
C1411 C1412 1.524 . S
C1411 C1415 1.400 . S
C1412 H1397 0.960 . S
C1412 H1398 0.960 . S
C1412 H1399 0.960 . S
C1412 C1411 1.524 . S
C1413 C1410 1.403 . S
C1413 C1414 1.392 . S
C1413 C1417 1.495 . S
C1414 C1413 1.392 . S
C1414 C1415 1.385 . S
C1414 C1416 1.478 . S
C1415 H1409 0.930 . S
C1415 C1411 1.400 . S
C1415 C1414 1.385 . S
C1416 C1414 1.478 . S
C1416 C1418 1.381 . S
C1416 C1422 1.383 . S
C1417 C1413 1.495 . S
C1417 H1423 0.959 . S
C1417 H1424 0.961 . S
C1417 H1425 0.960 . S
C1418 C1416 1.381 . S
C1418 C1419 1.394 . S
C1418 H1426 0.930 . S
C1419 C1418 1.394 . S
C1419 C1420 1.383 . S
C1419 H1427 0.929 . S
C1420 C1419 1.383 . S
C1420 C1421 1.377 . S
C1421 H1405 0.930 . S
C1421 C1420 1.377 . S
C1421 C1422 1.379 . S
C1422 H1406 0.931 . S
C1422 C1416 1.383 . S
C1422 C1421 1.379 . S
H1423 C1417 0.959 . S
H1424 C1417 0.961 . S
H1425 C1417 0.960 . S
H1426 C1418 0.930 . S
H1427 C1419 0.929 . S
H1428 C1436 0.929 . S
H1429 C1438 0.930 . S
H1430 C1440 0.930 . S
H1431 C1443 0.929 . S
H1432 C1446 0.930 . S
H1433 C1448 0.960 . S
H1434 C1448 0.960 . S
H1435 C1448 0.960 . S
C1436 H1428 0.929 . S
C1436 C1437 1.377 . S
C1436 C1438 1.384 . S
C1437 C1436 1.377 . S
C1437 C1443 1.390 . S
C1438 H1429 0.930 . S
C1438 C1436 1.384 . S
C1438 C1439 1.372 . S
C1439 C1438 1.372 . S
C1439 C1440 1.400 . S
C1439 C1444 1.490 . S
C1440 H1430 0.930 . S
C1440 C1439 1.400 . S
C1440 C1443 1.386 . S
H1441 C1457 0.930 . S
H1442 C1458 0.931 . S
C1443 H1431 0.929 . S
C1443 C1437 1.390 . S
C1443 C1440 1.386 . S
C1444 C1439 1.490 . S
C1444 C1446 1.395 . S
C1444 C1447 1.403 . S
H1445 C1451 0.930 . S
C1446 H1432 0.930 . S
C1446 C1444 1.395 . S
C1446 C1449 1.403 . S
C1447 C1444 1.403 . S
C1447 C1448 1.524 . S
C1447 C1451 1.400 . S
C1448 H1433 0.960 . S
C1448 H1434 0.960 . S
C1448 H1435 0.960 . S
C1448 C1447 1.524 . S
C1449 C1446 1.403 . S
C1449 C1450 1.392 . S
C1449 C1453 1.495 . S
C1450 C1449 1.392 . S
C1450 C1451 1.385 . S
C1450 C1452 1.478 . S
C1451 H1445 0.930 . S
C1451 C1447 1.400 . S
C1451 C1450 1.385 . S
C1452 C1450 1.478 . S
C1452 C1454 1.381 . S
C1452 C1458 1.383 . S
C1453 C1449 1.495 . S
C1453 H1459 0.959 . S
C1453 H1460 0.961 . S
C1453 H1461 0.960 . S
C1454 C1452 1.381 . S
C1454 C1455 1.394 . S
C1454 H1462 0.930 . S
C1455 C1454 1.394 . S
C1455 C1456 1.383 . S
C1455 H1463 0.929 . S
C1456 C1455 1.383 . S
C1456 C1457 1.377 . S
C1457 H1441 0.930 . S
C1457 C1456 1.377 . S
C1457 C1458 1.379 . S
C1458 H1442 0.931 . S
C1458 C1452 1.383 . S
C1458 C1457 1.379 . S
H1459 C1453 0.959 . S
H1460 C1453 0.961 . S
H1461 C1453 0.960 . S
H1462 C1454 0.930 . S
H1463 C1455 0.929 . S
H1464 C1472 0.929 . S
H1465 C1474 0.930 . S
H1466 C1476 0.930 . S
H1467 C1479 0.929 . S
H1468 C1482 0.930 . S
H1469 C1484 0.960 . S
H1470 C1484 0.960 . S
H1471 C1484 0.960 . S
C1472 H1464 0.929 . S
C1472 C1473 1.377 . S
C1472 C1474 1.384 . S
C1473 C1472 1.377 . S
C1473 C1479 1.390 . S
C1474 H1465 0.930 . S
C1474 C1472 1.384 . S
C1474 C1475 1.372 . S
C1475 C1474 1.372 . S
C1475 C1476 1.400 . S
C1475 C1480 1.490 . S
C1476 H1466 0.930 . S
C1476 C1475 1.400 . S
C1476 C1479 1.386 . S
H1477 C1493 0.930 . S
H1478 C1494 0.931 . S
C1479 H1467 0.929 . S
C1479 C1473 1.390 . S
C1479 C1476 1.386 . S
C1480 C1475 1.490 . S
C1480 C1482 1.395 . S
C1480 C1483 1.403 . S
H1481 C1487 0.930 . S
C1482 H1468 0.930 . S
C1482 C1480 1.395 . S
C1482 C1485 1.403 . S
C1483 C1480 1.403 . S
C1483 C1484 1.524 . S
C1483 C1487 1.400 . S
C1484 H1469 0.960 . S
C1484 H1470 0.960 . S
C1484 H1471 0.960 . S
C1484 C1483 1.524 . S
C1485 C1482 1.403 . S
C1485 C1486 1.392 . S
C1485 C1489 1.495 . S
C1486 C1485 1.392 . S
C1486 C1487 1.385 . S
C1486 C1488 1.478 . S
C1487 H1481 0.930 . S
C1487 C1483 1.400 . S
C1487 C1486 1.385 . S
C1488 C1486 1.478 . S
C1488 C1490 1.381 . S
C1488 C1494 1.383 . S
C1489 C1485 1.495 . S
C1489 H1495 0.959 . S
C1489 H1496 0.961 . S
C1489 H1497 0.960 . S
C1490 C1488 1.381 . S
C1490 C1491 1.394 . S
C1490 H1498 0.930 . S
C1491 C1490 1.394 . S
C1491 C1492 1.383 . S
C1491 H1499 0.929 . S
C1492 C1491 1.383 . S
C1492 C1493 1.377 . S
C1493 H1477 0.930 . S
C1493 C1492 1.377 . S
C1493 C1494 1.379 . S
C1494 H1478 0.931 . S
C1494 C1488 1.383 . S
C1494 C1493 1.379 . S
H1495 C1489 0.959 . S
H1496 C1489 0.961 . S
H1497 C1489 0.960 . S
H1498 C1490 0.930 . S
H1499 C1491 0.929 . S
H1500 C1508 0.929 . S
H1501 C1510 0.930 . S
H1502 C1512 0.930 . S
H1503 C1515 0.929 . S
H1504 C1518 0.930 . S
H1505 C1520 0.960 . S
H1506 C1520 0.960 . S
H1507 C1520 0.960 . S
C1508 H1500 0.929 . S
C1508 C1509 1.377 . S
C1508 C1510 1.384 . S
C1509 C1508 1.377 . S
C1509 C1515 1.390 . S
C1510 H1501 0.930 . S
C1510 C1508 1.384 . S
C1510 C1511 1.372 . S
C1511 C1510 1.372 . S
C1511 C1512 1.400 . S
C1511 C1516 1.490 . S
C1512 H1502 0.930 . S
C1512 C1511 1.400 . S
C1512 C1515 1.386 . S
H1513 C1529 0.930 . S
H1514 C1530 0.931 . S
C1515 H1503 0.929 . S
C1515 C1509 1.390 . S
C1515 C1512 1.386 . S
C1516 C1511 1.490 . S
C1516 C1518 1.395 . S
C1516 C1519 1.403 . S
H1517 C1523 0.930 . S
C1518 H1504 0.930 . S
C1518 C1516 1.395 . S
C1518 C1521 1.403 . S
C1519 C1516 1.403 . S
C1519 C1520 1.524 . S
C1519 C1523 1.400 . S
C1520 H1505 0.960 . S
C1520 H1506 0.960 . S
C1520 H1507 0.960 . S
C1520 C1519 1.524 . S
C1521 C1518 1.403 . S
C1521 C1522 1.392 . S
C1521 C1525 1.495 . S
C1522 C1521 1.392 . S
C1522 C1523 1.385 . S
C1522 C1524 1.478 . S
C1523 H1517 0.930 . S
C1523 C1519 1.400 . S
C1523 C1522 1.385 . S
C1524 C1522 1.478 . S
C1524 C1526 1.381 . S
C1524 C1530 1.383 . S
C1525 C1521 1.495 . S
C1525 H1531 0.959 . S
C1525 H1532 0.961 . S
C1525 H1533 0.960 . S
C1526 C1524 1.381 . S
C1526 C1527 1.394 . S
C1526 H1534 0.930 . S
C1527 C1526 1.394 . S
C1527 C1528 1.383 . S
C1527 H1535 0.929 . S
C1528 C1527 1.383 . S
C1528 C1529 1.377 . S
C1529 H1513 0.930 . S
C1529 C1528 1.377 . S
C1529 C1530 1.379 . S
C1530 H1514 0.931 . S
C1530 C1524 1.383 . S
C1530 C1529 1.379 . S
H1531 C1525 0.959 . S
H1532 C1525 0.961 . S
H1533 C1525 0.960 . S
H1534 C1526 0.930 . S
H1535 C1527 0.929 . S
H1536 C1544 0.929 . S
H1537 C1546 0.930 . S
H1538 C1548 0.930 . S
H1539 C1551 0.929 . S
H1540 C1554 0.930 . S
H1541 C1556 0.960 . S
H1542 C1556 0.960 . S
H1543 C1556 0.960 . S
C1544 H1536 0.929 . S
C1544 C1545 1.377 . S
C1544 C1546 1.384 . S
C1545 C1544 1.377 . S
C1545 C1551 1.390 . S
C1546 H1537 0.930 . S
C1546 C1544 1.384 . S
C1546 C1547 1.372 . S
C1547 C1546 1.372 . S
C1547 C1548 1.400 . S
C1547 C1552 1.490 . S
C1548 H1538 0.930 . S
C1548 C1547 1.400 . S
C1548 C1551 1.386 . S
H1549 C1565 0.930 . S
H1550 C1566 0.931 . S
C1551 H1539 0.929 . S
C1551 C1545 1.390 . S
C1551 C1548 1.386 . S
C1552 C1547 1.490 . S
C1552 C1554 1.395 . S
C1552 C1555 1.403 . S
H1553 C1559 0.930 . S
C1554 H1540 0.930 . S
C1554 C1552 1.395 . S
C1554 C1557 1.403 . S
C1555 C1552 1.403 . S
C1555 C1556 1.524 . S
C1555 C1559 1.400 . S
C1556 H1541 0.960 . S
C1556 H1542 0.960 . S
C1556 H1543 0.960 . S
C1556 C1555 1.524 . S
C1557 C1554 1.403 . S
C1557 C1558 1.392 . S
C1557 C1561 1.495 . S
C1558 C1557 1.392 . S
C1558 C1559 1.385 . S
C1558 C1560 1.478 . S
C1559 H1553 0.930 . S
C1559 C1555 1.400 . S
C1559 C1558 1.385 . S
C1560 C1558 1.478 . S
C1560 C1562 1.381 . S
C1560 C1566 1.383 . S
C1561 C1557 1.495 . S
C1561 H1567 0.959 . S
C1561 H1568 0.961 . S
C1561 H1569 0.960 . S
C1562 C1560 1.381 . S
C1562 C1563 1.394 . S
C1562 H1570 0.930 . S
C1563 C1562 1.394 . S
C1563 C1564 1.383 . S
C1563 H1571 0.929 . S
C1564 C1563 1.383 . S
C1564 C1565 1.377 . S
C1565 H1549 0.930 . S
C1565 C1564 1.377 . S
C1565 C1566 1.379 . S
C1566 H1550 0.931 . S
C1566 C1560 1.383 . S
C1566 C1565 1.379 . S
H1567 C1561 0.959 . S
H1568 C1561 0.961 . S
H1569 C1561 0.960 . S
H1570 C1562 0.930 . S
H1571 C1563 0.929 . S
H1572 C1580 0.929 . S
H1573 C1582 0.930 . S
H1574 C1584 0.930 . S
H1575 C1587 0.929 . S
H1576 C1590 0.930 . S
H1577 C1592 0.960 . S
H1578 C1592 0.960 . S
H1579 C1592 0.960 . S
C1580 H1572 0.929 . S
C1580 C1581 1.377 . S
C1580 C1582 1.384 . S
C1581 C1580 1.377 . S
C1581 C1587 1.390 . S
C1582 H1573 0.930 . S
C1582 C1580 1.384 . S
C1582 C1583 1.372 . S
C1583 C1582 1.372 . S
C1583 C1584 1.400 . S
C1583 C1588 1.490 . S
C1584 H1574 0.930 . S
C1584 C1583 1.400 . S
C1584 C1587 1.386 . S
H1585 C1601 0.930 . S
H1586 C1602 0.931 . S
C1587 H1575 0.929 . S
C1587 C1581 1.390 . S
C1587 C1584 1.386 . S
C1588 C1583 1.490 . S
C1588 C1590 1.395 . S
C1588 C1591 1.403 . S
H1589 C1595 0.930 . S
C1590 H1576 0.930 . S
C1590 C1588 1.395 . S
C1590 C1593 1.403 . S
C1591 C1588 1.403 . S
C1591 C1592 1.524 . S
C1591 C1595 1.400 . S
C1592 H1577 0.960 . S
C1592 H1578 0.960 . S
C1592 H1579 0.960 . S
C1592 C1591 1.524 . S
C1593 C1590 1.403 . S
C1593 C1594 1.392 . S
C1593 C1597 1.495 . S
C1594 C1593 1.392 . S
C1594 C1595 1.385 . S
C1594 C1596 1.478 . S
C1595 H1589 0.930 . S
C1595 C1591 1.400 . S
C1595 C1594 1.385 . S
C1596 C1594 1.478 . S
C1596 C1598 1.381 . S
C1596 C1602 1.383 . S
C1597 C1593 1.495 . S
C1597 H1603 0.959 . S
C1597 H1604 0.961 . S
C1597 H1605 0.960 . S
C1598 C1596 1.381 . S
C1598 C1599 1.394 . S
C1598 H1606 0.930 . S
C1599 C1598 1.394 . S
C1599 C1600 1.383 . S
C1599 H1607 0.929 . S
C1600 C1599 1.383 . S
C1600 C1601 1.377 . S
C1601 H1585 0.930 . S
C1601 C1600 1.377 . S
C1601 C1602 1.379 . S
C1602 H1586 0.931 . S
C1602 C1596 1.383 . S
C1602 C1601 1.379 . S
H1603 C1597 0.959 . S
H1604 C1597 0.961 . S
H1605 C1597 0.960 . S
H1606 C1598 0.930 . S
H1607 C1599 0.929 . S
H1608 C1616 0.929 . S
H1609 C1618 0.930 . S
H1610 C1620 0.930 . S
H1611 C1623 0.929 . S
H1612 C1626 0.930 . S
H1613 C1628 0.960 . S
H1614 C1628 0.960 . S
H1615 C1628 0.960 . S
C1616 H1608 0.929 . S
C1616 C1617 1.377 . S
C1616 C1618 1.384 . S
C1617 C1616 1.377 . S
C1617 C1623 1.390 . S
C1618 H1609 0.930 . S
C1618 C1616 1.384 . S
C1618 C1619 1.372 . S
C1619 C1618 1.372 . S
C1619 C1620 1.400 . S
C1619 C1624 1.490 . S
C1620 H1610 0.930 . S
C1620 C1619 1.400 . S
C1620 C1623 1.386 . S
H1621 C1637 0.930 . S
H1622 C1638 0.931 . S
C1623 H1611 0.929 . S
C1623 C1617 1.390 . S
C1623 C1620 1.386 . S
C1624 C1619 1.490 . S
C1624 C1626 1.395 . S
C1624 C1627 1.403 . S
H1625 C1631 0.930 . S
C1626 H1612 0.930 . S
C1626 C1624 1.395 . S
C1626 C1629 1.403 . S
C1627 C1624 1.403 . S
C1627 C1628 1.524 . S
C1627 C1631 1.400 . S
C1628 H1613 0.960 . S
C1628 H1614 0.960 . S
C1628 H1615 0.960 . S
C1628 C1627 1.524 . S
C1629 C1626 1.403 . S
C1629 C1630 1.392 . S
C1629 C1633 1.495 . S
C1630 C1629 1.392 . S
C1630 C1631 1.385 . S
C1630 C1632 1.478 . S
C1631 H1625 0.930 . S
C1631 C1627 1.400 . S
C1631 C1630 1.385 . S
C1632 C1630 1.478 . S
C1632 C1634 1.381 . S
C1632 C1638 1.383 . S
C1633 C1629 1.495 . S
C1633 H1639 0.959 . S
C1633 H1640 0.961 . S
C1633 H1641 0.960 . S
C1634 C1632 1.381 . S
C1634 C1635 1.394 . S
C1634 H1642 0.930 . S
C1635 C1634 1.394 . S
C1635 C1636 1.383 . S
C1635 H1643 0.929 . S
C1636 C1635 1.383 . S
C1636 C1637 1.377 . S
C1637 H1621 0.930 . S
C1637 C1636 1.377 . S
C1637 C1638 1.379 . S
C1638 H1622 0.931 . S
C1638 C1632 1.383 . S
C1638 C1637 1.379 . S
H1639 C1633 0.959 . S
H1640 C1633 0.961 . S
H1641 C1633 0.960 . S
H1642 C1634 0.930 . S
H1643 C1635 0.929 . S
H1644 C1652 0.929 . S
H1645 C1654 0.930 . S
H1646 C1656 0.930 . S
H1647 C1659 0.929 . S
H1648 C1662 0.930 . S
H1649 C1664 0.960 . S
H1650 C1664 0.960 . S
H1651 C1664 0.960 . S
C1652 H1644 0.929 . S
C1652 C1653 1.377 . S
C1652 C1654 1.384 . S
C1653 C1652 1.377 . S
C1653 C1659 1.390 . S
C1654 H1645 0.930 . S
C1654 C1652 1.384 . S
C1654 C1655 1.372 . S
C1655 C1654 1.372 . S
C1655 C1656 1.400 . S
C1655 C1660 1.490 . S
C1656 H1646 0.930 . S
C1656 C1655 1.400 . S
C1656 C1659 1.386 . S
H1657 C1673 0.930 . S
H1658 C1674 0.931 . S
C1659 H1647 0.929 . S
C1659 C1653 1.390 . S
C1659 C1656 1.386 . S
C1660 C1655 1.490 . S
C1660 C1662 1.395 . S
C1660 C1663 1.403 . S
H1661 C1667 0.930 . S
C1662 H1648 0.930 . S
C1662 C1660 1.395 . S
C1662 C1665 1.403 . S
C1663 C1660 1.403 . S
C1663 C1664 1.524 . S
C1663 C1667 1.400 . S
C1664 H1649 0.960 . S
C1664 H1650 0.960 . S
C1664 H1651 0.960 . S
C1664 C1663 1.524 . S
C1665 C1662 1.403 . S
C1665 C1666 1.392 . S
C1665 C1669 1.495 . S
C1666 C1665 1.392 . S
C1666 C1667 1.385 . S
C1666 C1668 1.478 . S
C1667 H1661 0.930 . S
C1667 C1663 1.400 . S
C1667 C1666 1.385 . S
C1668 C1666 1.478 . S
C1668 C1670 1.381 . S
C1668 C1674 1.383 . S
C1669 C1665 1.495 . S
C1669 H1675 0.959 . S
C1669 H1676 0.961 . S
C1669 H1677 0.960 . S
C1670 C1668 1.381 . S
C1670 C1671 1.394 . S
C1670 H1678 0.930 . S
C1671 C1670 1.394 . S
C1671 C1672 1.383 . S
C1671 H1679 0.929 . S
C1672 C1671 1.383 . S
C1672 C1673 1.377 . S
C1673 H1657 0.930 . S
C1673 C1672 1.377 . S
C1673 C1674 1.379 . S
C1674 H1658 0.931 . S
C1674 C1668 1.383 . S
C1674 C1673 1.379 . S
H1675 C1669 0.959 . S
H1676 C1669 0.961 . S
H1677 C1669 0.960 . S
H1678 C1670 0.930 . S
H1679 C1671 0.929 . S
H1680 C1688 0.929 . S
H1681 C1690 0.930 . S
H1682 C1692 0.930 . S
H1683 C1695 0.929 . S
H1684 C1698 0.930 . S
H1685 C1700 0.960 . S
H1686 C1700 0.960 . S
H1687 C1700 0.960 . S
C1688 H1680 0.929 . S
C1688 C1689 1.377 . S
C1688 C1690 1.384 . S
C1689 C1688 1.377 . S
C1689 C1695 1.390 . S
C1690 H1681 0.930 . S
C1690 C1688 1.384 . S
C1690 C1691 1.372 . S
C1691 C1690 1.372 . S
C1691 C1692 1.400 . S
C1691 C1696 1.490 . S
C1692 H1682 0.930 . S
C1692 C1691 1.400 . S
C1692 C1695 1.386 . S
H1693 C1709 0.930 . S
H1694 C1710 0.931 . S
C1695 H1683 0.929 . S
C1695 C1689 1.390 . S
C1695 C1692 1.386 . S
C1696 C1691 1.490 . S
C1696 C1698 1.395 . S
C1696 C1699 1.403 . S
H1697 C1703 0.930 . S
C1698 H1684 0.930 . S
C1698 C1696 1.395 . S
C1698 C1701 1.403 . S
C1699 C1696 1.403 . S
C1699 C1700 1.524 . S
C1699 C1703 1.400 . S
C1700 H1685 0.960 . S
C1700 H1686 0.960 . S
C1700 H1687 0.960 . S
C1700 C1699 1.524 . S
C1701 C1698 1.403 . S
C1701 C1702 1.392 . S
C1701 C1705 1.495 . S
C1702 C1701 1.392 . S
C1702 C1703 1.385 . S
C1702 C1704 1.478 . S
C1703 H1697 0.930 . S
C1703 C1699 1.400 . S
C1703 C1702 1.385 . S
C1704 C1702 1.478 . S
C1704 C1706 1.381 . S
C1704 C1710 1.383 . S
C1705 C1701 1.495 . S
C1705 H1711 0.959 . S
C1705 H1712 0.961 . S
C1705 H1713 0.960 . S
C1706 C1704 1.381 . S
C1706 C1707 1.394 . S
C1706 H1714 0.930 . S
C1707 C1706 1.394 . S
C1707 C1708 1.383 . S
C1707 H1715 0.929 . S
C1708 C1707 1.383 . S
C1708 C1709 1.377 . S
C1709 H1693 0.930 . S
C1709 C1708 1.377 . S
C1709 C1710 1.379 . S
C1710 H1694 0.931 . S
C1710 C1704 1.383 . S
C1710 C1709 1.379 . S
H1711 C1705 0.959 . S
H1712 C1705 0.961 . S
H1713 C1705 0.960 . S
H1714 C1706 0.930 . S
H1715 C1707 0.929 . S
H1716 C1724 0.929 . S
H1717 C1726 0.930 . S
H1718 C1728 0.930 . S
H1719 C1731 0.929 . S
H1720 C1734 0.930 . S
H1721 C1736 0.960 . S
H1722 C1736 0.960 . S
H1723 C1736 0.960 . S
C1724 H1716 0.929 . S
C1724 C1725 1.377 . S
C1724 C1726 1.384 . S
C1725 C1724 1.377 . S
C1725 C1731 1.390 . S
C1726 H1717 0.930 . S
C1726 C1724 1.384 . S
C1726 C1727 1.372 . S
C1727 C1726 1.372 . S
C1727 C1728 1.400 . S
C1727 C1732 1.490 . S
C1728 H1718 0.930 . S
C1728 C1727 1.400 . S
C1728 C1731 1.386 . S
H1729 C1745 0.930 . S
H1730 C1746 0.931 . S
C1731 H1719 0.929 . S
C1731 C1725 1.390 . S
C1731 C1728 1.386 . S
C1732 C1727 1.490 . S
C1732 C1734 1.395 . S
C1732 C1735 1.403 . S
H1733 C1739 0.930 . S
C1734 H1720 0.930 . S
C1734 C1732 1.395 . S
C1734 C1737 1.403 . S
C1735 C1732 1.403 . S
C1735 C1736 1.524 . S
C1735 C1739 1.400 . S
C1736 H1721 0.960 . S
C1736 H1722 0.960 . S
C1736 H1723 0.960 . S
C1736 C1735 1.524 . S
C1737 C1734 1.403 . S
C1737 C1738 1.392 . S
C1737 C1741 1.495 . S
C1738 C1737 1.392 . S
C1738 C1739 1.385 . S
C1738 C1740 1.478 . S
C1739 H1733 0.930 . S
C1739 C1735 1.400 . S
C1739 C1738 1.385 . S
C1740 C1738 1.478 . S
C1740 C1742 1.381 . S
C1740 C1746 1.383 . S
C1741 C1737 1.495 . S
C1741 H1747 0.959 . S
C1741 H1748 0.961 . S
C1741 H1749 0.960 . S
C1742 C1740 1.381 . S
C1742 C1743 1.394 . S
C1742 H1750 0.930 . S
C1743 C1742 1.394 . S
C1743 C1744 1.383 . S
C1743 H1751 0.929 . S
C1744 C1743 1.383 . S
C1744 C1745 1.377 . S
C1745 H1729 0.930 . S
C1745 C1744 1.377 . S
C1745 C1746 1.379 . S
C1746 H1730 0.931 . S
C1746 C1740 1.383 . S
C1746 C1745 1.379 . S
H1747 C1741 0.959 . S
H1748 C1741 0.961 . S
H1749 C1741 0.960 . S
H1750 C1742 0.930 . S
H1751 C1743 0.929 . S
H1752 C1760 0.929 . S
H1753 C1762 0.930 . S
H1754 C1764 0.930 . S
H1755 C1767 0.929 . S
H1756 C1770 0.930 . S
H1757 C1772 0.960 . S
H1758 C1772 0.960 . S
H1759 C1772 0.960 . S
C1760 H1752 0.929 . S
C1760 C1761 1.377 . S
C1760 C1762 1.384 . S
C1761 C1760 1.377 . S
C1761 C1767 1.390 . S
C1762 H1753 0.930 . S
C1762 C1760 1.384 . S
C1762 C1763 1.372 . S
C1763 C1762 1.372 . S
C1763 C1764 1.400 . S
C1763 C1768 1.490 . S
C1764 H1754 0.930 . S
C1764 C1763 1.400 . S
C1764 C1767 1.386 . S
H1765 C1781 0.930 . S
H1766 C1782 0.931 . S
C1767 H1755 0.929 . S
C1767 C1761 1.390 . S
C1767 C1764 1.386 . S
C1768 C1763 1.490 . S
C1768 C1770 1.395 . S
C1768 C1771 1.403 . S
H1769 C1775 0.930 . S
C1770 H1756 0.930 . S
C1770 C1768 1.395 . S
C1770 C1773 1.403 . S
C1771 C1768 1.403 . S
C1771 C1772 1.524 . S
C1771 C1775 1.400 . S
C1772 H1757 0.960 . S
C1772 H1758 0.960 . S
C1772 H1759 0.960 . S
C1772 C1771 1.524 . S
C1773 C1770 1.403 . S
C1773 C1774 1.392 . S
C1773 C1777 1.495 . S
C1774 C1773 1.392 . S
C1774 C1775 1.385 . S
C1774 C1776 1.478 . S
C1775 H1769 0.930 . S
C1775 C1771 1.400 . S
C1775 C1774 1.385 . S
C1776 C1774 1.478 . S
C1776 C1778 1.381 . S
C1776 C1782 1.383 . S
C1777 C1773 1.495 . S
C1777 H1783 0.959 . S
C1777 H1784 0.961 . S
C1777 H1785 0.960 . S
C1778 C1776 1.381 . S
C1778 C1779 1.394 . S
C1778 H1786 0.930 . S
C1779 C1778 1.394 . S
C1779 C1780 1.383 . S
C1779 H1787 0.929 . S
C1780 C1779 1.383 . S
C1780 C1781 1.377 . S
C1781 H1765 0.930 . S
C1781 C1780 1.377 . S
C1781 C1782 1.379 . S
C1782 H1766 0.931 . S
C1782 C1776 1.383 . S
C1782 C1781 1.379 . S
H1783 C1777 0.959 . S
H1784 C1777 0.961 . S
H1785 C1777 0.960 . S
H1786 C1778 0.930 . S
H1787 C1779 0.929 . S
H1788 C1796 0.929 . S
H1789 C1798 0.930 . S
H1790 C1800 0.930 . S
H1791 C1803 0.929 . S
H1792 C1806 0.930 . S
H1793 C1808 0.960 . S
H1794 C1808 0.960 . S
H1795 C1808 0.960 . S
C1796 H1788 0.929 . S
C1796 C1797 1.377 . S
C1796 C1798 1.384 . S
C1797 C1796 1.377 . S
C1797 C1803 1.390 . S
C1798 H1789 0.930 . S
C1798 C1796 1.384 . S
C1798 C1799 1.372 . S
C1799 C1798 1.372 . S
C1799 C1800 1.400 . S
C1799 C1804 1.490 . S
C1800 H1790 0.930 . S
C1800 C1799 1.400 . S
C1800 C1803 1.386 . S
H1801 C1817 0.930 . S
H1802 C1818 0.931 . S
C1803 H1791 0.929 . S
C1803 C1797 1.390 . S
C1803 C1800 1.386 . S
C1804 C1799 1.490 . S
C1804 C1806 1.395 . S
C1804 C1807 1.403 . S
H1805 C1811 0.930 . S
C1806 H1792 0.930 . S
C1806 C1804 1.395 . S
C1806 C1809 1.403 . S
C1807 C1804 1.403 . S
C1807 C1808 1.524 . S
C1807 C1811 1.400 . S
C1808 H1793 0.960 . S
C1808 H1794 0.960 . S
C1808 H1795 0.960 . S
C1808 C1807 1.524 . S
C1809 C1806 1.403 . S
C1809 C1810 1.392 . S
C1809 C1813 1.495 . S
C1810 C1809 1.392 . S
C1810 C1811 1.385 . S
C1810 C1812 1.478 . S
C1811 H1805 0.930 . S
C1811 C1807 1.400 . S
C1811 C1810 1.385 . S
C1812 C1810 1.478 . S
C1812 C1814 1.381 . S
C1812 C1818 1.383 . S
C1813 C1809 1.495 . S
C1813 H1819 0.959 . S
C1813 H1820 0.961 . S
C1813 H1821 0.960 . S
C1814 C1812 1.381 . S
C1814 C1815 1.394 . S
C1814 H1822 0.930 . S
C1815 C1814 1.394 . S
C1815 C1816 1.383 . S
C1815 H1823 0.929 . S
C1816 C1815 1.383 . S
C1816 C1817 1.377 . S
C1817 H1801 0.930 . S
C1817 C1816 1.377 . S
C1817 C1818 1.379 . S
C1818 H1802 0.931 . S
C1818 C1812 1.383 . S
C1818 C1817 1.379 . S
H1819 C1813 0.959 . S
H1820 C1813 0.961 . S
H1821 C1813 0.960 . S
H1822 C1814 0.930 . S
H1823 C1815 0.929 . S
H1824 C1832 0.929 . S
H1825 C1834 0.930 . S
H1826 C1836 0.930 . S
H1827 C1839 0.929 . S
H1828 C1842 0.930 . S
H1829 C1844 0.960 . S
H1830 C1844 0.960 . S
H1831 C1844 0.960 . S
C1832 H1824 0.929 . S
C1832 C1833 1.377 . S
C1832 C1834 1.384 . S
C1833 C1832 1.377 . S
C1833 C1839 1.390 . S
C1834 H1825 0.930 . S
C1834 C1832 1.384 . S
C1834 C1835 1.372 . S
C1835 C1834 1.372 . S
C1835 C1836 1.400 . S
C1835 C1840 1.490 . S
C1836 H1826 0.930 . S
C1836 C1835 1.400 . S
C1836 C1839 1.386 . S
H1837 C1853 0.930 . S
H1838 C1854 0.931 . S
C1839 H1827 0.929 . S
C1839 C1833 1.390 . S
C1839 C1836 1.386 . S
C1840 C1835 1.490 . S
C1840 C1842 1.395 . S
C1840 C1843 1.403 . S
H1841 C1847 0.930 . S
C1842 H1828 0.930 . S
C1842 C1840 1.395 . S
C1842 C1845 1.403 . S
C1843 C1840 1.403 . S
C1843 C1844 1.524 . S
C1843 C1847 1.400 . S
C1844 H1829 0.960 . S
C1844 H1830 0.960 . S
C1844 H1831 0.960 . S
C1844 C1843 1.524 . S
C1845 C1842 1.403 . S
C1845 C1846 1.392 . S
C1845 C1849 1.495 . S
C1846 C1845 1.392 . S
C1846 C1847 1.385 . S
C1846 C1848 1.478 . S
C1847 H1841 0.930 . S
C1847 C1843 1.400 . S
C1847 C1846 1.385 . S
C1848 C1846 1.478 . S
C1848 C1850 1.381 . S
C1848 C1854 1.383 . S
C1849 C1845 1.495 . S
C1849 H1855 0.959 . S
C1849 H1856 0.961 . S
C1849 H1857 0.960 . S
C1850 C1848 1.381 . S
C1850 C1851 1.394 . S
C1850 H1858 0.930 . S
C1851 C1850 1.394 . S
C1851 C1852 1.383 . S
C1851 H1859 0.929 . S
C1852 C1851 1.383 . S
C1852 C1853 1.377 . S
C1853 H1837 0.930 . S
C1853 C1852 1.377 . S
C1853 C1854 1.379 . S
C1854 H1838 0.931 . S
C1854 C1848 1.383 . S
C1854 C1853 1.379 . S
H1855 C1849 0.959 . S
H1856 C1849 0.961 . S
H1857 C1849 0.960 . S
H1858 C1850 0.930 . S
H1859 C1851 0.929 . S
C357 C216 2.617 . S
C376 C5 2.803 . S
C393 C34 2.815 . S
C412 C245 2.590 . S
C429 C63 2.812 . S
C448 C187 2.610 . S
C465 C92 2.814 . S
C484 C332 2.633 . S
C501 C274 2.611 . S
C520 C121 2.816 . S
C537 C150 2.814 . S
C556 C303 2.632 . S
C573 C179 2.813 . S
C592 C42 2.612 . S
C609 C208 2.814 . S
C628 C71 2.605 . S
C645 C13 2.610 . S
C664 C237 2.800 . S
C681 C266 2.815 . S
C700 C158 2.629 . S
C717 C295 2.814 . S
C736 C100 2.623 . S
C753 C129 2.618 . S
C772 C324 2.818 . S
C789 C15 1.250 . S
C808 C102 1.234 . S
C825 C44 1.244 . S
C844 C131 1.243 . S
C861 C73 1.248 . S
C880 C160 1.243 . S
C897 C276 1.248 . S
C916 C189 1.265 . S
C933 C305 1.243 . S
C952 C218 1.224 . S
C969 C334 1.251 . S
C988 C247 1.246 . S
C1005 C21 1.606 . S
C1024 C39 1.516 . S
C1041 C50 1.607 . S
C1060 C68 1.503 . S
C1077 C79 1.607 . S
C1096 C10 1.514 . S
C1113 C155 1.486 . S
C1132 C108 1.590 . S
C1149 C137 1.609 . S
C1168 C97 1.481 . S
C1185 C126 1.487 . S
C1204 C166 1.584 . S
C1221 C213 1.485 . S
C1240 C195 1.600 . S
C1257 C224 1.607 . S
C1276 C242 1.490 . S
C1293 C253 1.615 . S
C1312 C184 1.513 . S
C1329 C282 1.614 . S
C1348 C329 1.455 . S
C1365 C311 1.609 . S
C1384 C271 1.508 . S
C1401 C340 1.614 . S
C1420 C300 1.517 . S
C1437 C298 0.969 . S
C1456 C3 1.018 . S
C1473 C327 0.966 . S
C1492 C32 1.023 . S
C1509 C61 1.000 . S
C1528 C269 1.015 . S
C1545 C90 1.000 . S
C1564 C240 1.012 . S
C1581 C119 1.010 . S
C1600 C182 0.926 . S
C1617 C211 0.973 . S
C1636 C148 0.998 . S
C1653 C177 1.007 . S
C1672 C124 0.950 . S
C1689 C206 1.007 . S
C1708 C153 0.957 . S
C1725 C235 1.010 . S
C1744 C95 1.012 . S
C1761 C264 1.003 . S
C1780 C66 0.926 . S
C1797 C293 1.001 . S
C1816 C8 0.963 . S
C1833 C322 1.005 . S
C1852 C37 1.001 . S
