# Generated by pormake.
# Topology ukk, (4)-cn, num edge types: 1
# Building blocks:
#     Node 0, Type 0, BuildingBlock: ICAMEG_clean_sbu_1, # of connection points: 4
#     Node 1, Type 0, BuildingBlock: ICAMEG_clean_sbu_1, # of connection points: 4
#     Node 2, Type 0, BuildingBlock: ICAMEG_clean_sbu_1, # of connection points: 4
#     Node 3, Type 0, BuildingBlock: ICAMEG_clean_sbu_1, # of connection points: 4
#     Node 4, Type 0, BuildingBlock: ICAMEG_clean_sbu_1, # of connection points: 4
#     Node 5, Type 0, BuildingBlock: ICAMEG_clean_sbu_1, # of connection points: 4
#     Node 6, Type 0, BuildingBlock: ICAMEG_clean_sbu_1, # of connection points: 4
#     Node 7, Type 0, BuildingBlock: ICAMEG_clean_sbu_1, # of connection points: 4
#     Node 8, Type 0, BuildingBlock: ICAMEG_clean_sbu_1, # of connection points: 4
#     Node 9, Type 0, BuildingBlock: ICAMEG_clean_sbu_1, # of connection points: 4
#     Node 10, Type 0, BuildingBlock: ICAMEG_clean_sbu_1, # of connection points: 4
#     Node 11, Type 0, BuildingBlock: ICAMEG_clean_sbu_1, # of connection points: 4
#     Node 12, Type 0, BuildingBlock: ICAMEG_clean_sbu_1, # of connection points: 4
#     Node 13, Type 0, BuildingBlock: ICAMEG_clean_sbu_1, # of connection points: 4
#     Node 14, Type 0, BuildingBlock: ICAMEG_clean_sbu_1, # of connection points: 4
#     Node 15, Type 0, BuildingBlock: ICAMEG_clean_sbu_1, # of connection points: 4
#     Edge 16, Type (0, 0), BuildingBlock: CIFDUS_clean_linker_0, # of connection points: 2
#     Edge 17, Type (0, 0), BuildingBlock: CIFDUS_clean_linker_0, # of connection points: 2
#     Edge 18, Type (0, 0), BuildingBlock: CIFDUS_clean_linker_0, # of connection points: 2
#     Edge 19, Type (0, 0), BuildingBlock: CIFDUS_clean_linker_0, # of connection points: 2
#     Edge 20, Type (0, 0), BuildingBlock: CIFDUS_clean_linker_0, # of connection points: 2
#     Edge 21, Type (0, 0), BuildingBlock: CIFDUS_clean_linker_0, # of connection points: 2
#     Edge 22, Type (0, 0), BuildingBlock: CIFDUS_clean_linker_0, # of connection points: 2
#     Edge 23, Type (0, 0), BuildingBlock: CIFDUS_clean_linker_0, # of connection points: 2
#     Edge 24, Type (0, 0), BuildingBlock: CIFDUS_clean_linker_0, # of connection points: 2
#     Edge 25, Type (0, 0), BuildingBlock: CIFDUS_clean_linker_0, # of connection points: 2
#     Edge 26, Type (0, 0), BuildingBlock: CIFDUS_clean_linker_0, # of connection points: 2
#     Edge 27, Type (0, 0), BuildingBlock: CIFDUS_clean_linker_0, # of connection points: 2
#     Edge 28, Type (0, 0), BuildingBlock: CIFDUS_clean_linker_0, # of connection points: 2
#     Edge 29, Type (0, 0), BuildingBlock: CIFDUS_clean_linker_0, # of connection points: 2
#     Edge 30, Type (0, 0), BuildingBlock: CIFDUS_clean_linker_0, # of connection points: 2
#     Edge 31, Type (0, 0), BuildingBlock: CIFDUS_clean_linker_0, # of connection points: 2
#     Edge 32, Type (0, 0), BuildingBlock: CIFDUS_clean_linker_0, # of connection points: 2
#     Edge 33, Type (0, 0), BuildingBlock: CIFDUS_clean_linker_0, # of connection points: 2
#     Edge 34, Type (0, 0), BuildingBlock: CIFDUS_clean_linker_0, # of connection points: 2
#     Edge 35, Type (0, 0), BuildingBlock: CIFDUS_clean_linker_0, # of connection points: 2
#     Edge 36, Type (0, 0), BuildingBlock: CIFDUS_clean_linker_0, # of connection points: 2
#     Edge 37, Type (0, 0), BuildingBlock: CIFDUS_clean_linker_0, # of connection points: 2
#     Edge 38, Type (0, 0), BuildingBlock: CIFDUS_clean_linker_0, # of connection points: 2
#     Edge 39, Type (0, 0), BuildingBlock: CIFDUS_clean_linker_0, # of connection points: 2
#     Edge 40, Type (0, 0), BuildingBlock: CIFDUS_clean_linker_0, # of connection points: 2
#     Edge 41, Type (0, 0), BuildingBlock: CIFDUS_clean_linker_0, # of connection points: 2
#     Edge 42, Type (0, 0), BuildingBlock: CIFDUS_clean_linker_0, # of connection points: 2
#     Edge 43, Type (0, 0), BuildingBlock: CIFDUS_clean_linker_0, # of connection points: 2
#     Edge 44, Type (0, 0), BuildingBlock: CIFDUS_clean_linker_0, # of connection points: 2
#     Edge 45, Type (0, 0), BuildingBlock: CIFDUS_clean_linker_0, # of connection points: 2
#     Edge 46, Type (0, 0), BuildingBlock: CIFDUS_clean_linker_0, # of connection points: 2
#     Edge 47, Type (0, 0), BuildingBlock: CIFDUS_clean_linker_0, # of connection points: 2
# Relax obj value: 0.063
# Max RMSD: 0.230
# Mean RMSD: 0.223
data_MOF--net-ukk--node1-ICAMEG_clean_sbu_1--edge1-CIFDUS_clean_linker_0
_symmetry_space_group_name_H-M    P1
_symmetry_Int_Tables_number       1
_symmetry_cell_setting            triclinic
loop_
_symmetry_equiv_pos_as_xyz
'x, y, z'
_cell_length_a     51.822747
_cell_length_b     51.333125
_cell_length_c     14.577182
_cell_angle_alpha  89.96776
_cell_angle_beta   89.948539
_cell_angle_gamma 90.011719
loop_
_atom_site_label
_atom_site_type_symbol
_atom_site_fract_x
_atom_site_fract_y
_atom_site_fract_z
_atom_type_partial_charge
Co0 Co 0.36329 0.12091 0.23017 0.0
Co1 Co 0.38094 0.13192 0.00472 0.0
O2 O 0.36245 0.113 0.09981 0.0
C3 C 0.38362 0.06809 0.20842 0.0
O4 O 0.39732 0.07812 0.14153 0.0
C5 C 0.32587 0.13832 0.96884 0.0
O6 O 0.32486 0.1438 0.05646 0.0
O7 O 0.37228 0.16592 0.06039 0.0
O8 O 0.3588 0.15921 0.2053 0.0
H9 H 0.44265 0.19886 0.88191 0.0
H10 H 0.32723 0.08056 0.16037 0.0
O11 O 0.3686 0.0826 0.25552 0.0
H12 H 0.27212 0.14679 0.30764 0.0
H13 H 0.33995 0.10407 0.55971 0.0
H14 H 0.38702 0.16191 0.34714 0.0
H15 H 0.31949 0.15181 0.30573 0.0
H16 H 0.34117 0.09461 0.39389 0.0
O17 O 0.3477 0.13339 0.93145 0.0
H18 H 0.41884 0.17511 0.00228 0.0
H19 H 0.38145 0.129 0.80036 0.0
H20 H 0.38614 0.17224 0.51258 0.0
H21 H 0.27997 0.07475 0.16085 0.0
H22 H 0.36198 0.14341 0.61968 0.0
H23 H 0.25208 0.10804 0.23486 0.0
O24 O 0.40118 0.12593 0.22675 0.0
H25 H 0.36213 0.04194 0.88646 0.0
H26 H 0.42976 0.10793 0.93773 0.0
H27 H 0.4415 0.06549 0.87016 0.0
H28 H 0.40752 0.03219 0.84384 0.0
H29 H 0.35131 0.0845 0.9549 0.0
H30 H 0.40541 0.15195 0.67773 0.0
H31 H 0.43601 0.18722 0.71824 0.0
O32 O 0.4137 0.13111 0.07968 0.0
C33 C 0.36392 0.17415 0.13727 0.0
C34 C 0.42931 0.18352 0.86335 0.0
C35 C 0.40826 0.15726 0.74875 0.0
N36 N 0.39896 0.15055 0.90832 0.0
C37 C 0.41579 0.16998 0.9312 0.0
C38 C 0.39485 0.14432 0.8184 0.0
C39 C 0.42555 0.17701 0.77155 0.0
C40 C 0.31524 0.09501 0.1934 0.0
N41 N 0.32611 0.11638 0.23365 0.0
C42 C 0.28848 0.09167 0.19316 0.0
C43 C 0.27284 0.11037 0.23456 0.0
C44 C 0.28408 0.13214 0.27534 0.0
C45 C 0.3109 0.13488 0.27398 0.0
C46 C 0.35035 0.11686 0.51359 0.0
C47 C 0.37662 0.14924 0.39352 0.0
C48 C 0.35119 0.11156 0.41971 0.0
N49 N 0.36388 0.12789 0.36086 0.0
C50 C 0.37623 0.15515 0.48708 0.0
C51 C 0.36279 0.13893 0.54722 0.0
C52 C 0.41852 0.12964 0.16584 0.0
C53 C 0.37708 0.05634 0.89718 0.0
C54 C 0.4149 0.09349 0.92675 0.0
C55 C 0.42164 0.06953 0.88828 0.0
C56 C 0.40256 0.05086 0.87344 0.0
N57 N 0.38985 0.09874 0.94955 0.0
C58 C 0.37105 0.08051 0.93557 0.0
Co59 Co 0.13384 0.63922 0.77662 0.0
Co60 Co 0.1051 0.62503 0.98537 0.0
O61 O 0.12946 0.64409 0.90862 0.0
C62 C 0.18459 0.62867 0.85983 0.0
O63 O 0.17206 0.616 0.92409 0.0
C64 C 0.09156 0.68039 0.00955 0.0
O65 O 0.09251 0.6825 0.91987 0.0
O66 O 0.07696 0.63014 0.89408 0.0
O67 O 0.09562 0.6387 0.75794 0.0
H68 H 0.03542 0.55941 0.04952 0.0
H69 H 0.16108 0.68256 0.87034 0.0
O70 O 0.17235 0.6392 0.79353 0.0
H71 H 0.10379 0.7245 0.64439 0.0
H72 H 0.17627 0.65623 0.47152 0.0
H73 H 0.10828 0.60716 0.63362 0.0
H74 H 0.10606 0.67666 0.6556 0.0
H75 H 0.16995 0.66163 0.63829 0.0
O76 O 0.0954 0.6584 0.04759 0.0
H77 H 0.06696 0.58295 0.95341 0.0
H78 H 0.09065 0.62778 0.18322 0.0
H79 H 0.1138 0.6013 0.46679 0.0
H80 H 0.15986 0.73052 0.85998 0.0
H81 H 0.14795 0.62599 0.38463 0.0
H82 H 0.13096 0.75181 0.7467 0.0
O83 O 0.13358 0.6006 0.78939 0.0
H84 H 0.17928 0.65349 0.18351 0.0
H85 H 0.12496 0.57927 0.08982 0.0
H86 H 0.16015 0.57227 0.20098 0.0
H87 H 0.18757 0.60957 0.24862 0.0
H88 H 0.14406 0.65956 0.07184 0.0
H89 H 0.05929 0.60482 0.28173 0.0
H90 H 0.03145 0.57031 0.21495 0.0
O91 O 0.11458 0.5915 0.92477 0.0
C92 C 0.0758 0.6347 0.80799 0.0
C93 C 0.04751 0.57434 0.07949 0.0
C94 C 0.06087 0.59986 0.20978 0.0
N95 N 0.08075 0.60657 0.06282 0.0
C96 C 0.06544 0.58768 0.02547 0.0
C97 C 0.07856 0.61283 0.15363 0.0
C98 C 0.04526 0.5805 0.17227 0.0
C99 C 0.14878 0.69168 0.81984 0.0
N100 N 0.13379 0.67682 0.76326 0.0
C101 C 0.14806 0.71884 0.81465 0.0
C102 C 0.1318 0.73078 0.75116 0.0
C103 C 0.11659 0.71548 0.69365 0.0
C104 C 0.11789 0.68838 0.70054 0.0
C105 C 0.16129 0.64539 0.50656 0.0
C106 C 0.12315 0.61801 0.59832 0.0
C107 C 0.15767 0.64831 0.60099 0.0
N108 N 0.13869 0.63481 0.64554 0.0
C109 C 0.12621 0.61458 0.50387 0.0
C110 C 0.1454 0.62842 0.45782 0.0
C111 C 0.12521 0.58463 0.84956 0.0
C112 C 0.16744 0.63709 0.16338 0.0
C113 C 0.1369 0.59555 0.1098 0.0
C114 C 0.15675 0.59149 0.173 0.0
C115 C 0.17211 0.61243 0.19974 0.0
N116 N 0.13243 0.6198 0.07445 0.0
C117 C 0.1474 0.64043 0.10047 0.0
Co118 Co 0.61952 0.87232 0.22837 0.0
Co119 Co 0.62229 0.87399 0.99154 0.0
O120 O 0.63212 0.88652 0.11288 0.0
C121 C 0.60451 0.92774 0.22337 0.0
O122 O 0.59626 0.92309 0.1399 0.0
C123 C 0.67867 0.86709 0.00739 0.0
O124 O 0.67409 0.8577 0.0895 0.0
O125 O 0.62602 0.83734 0.03044 0.0
O126 O 0.62553 0.83544 0.18452 0.0
H127 H 0.58111 0.81159 0.77253 0.0
H128 H 0.66165 0.91159 0.22755 0.0
O129 O 0.61363 0.9092 0.27182 0.0
H130 H 0.69673 0.83528 0.39095 0.0
H131 H 0.59761 0.87905 0.56247 0.0
H132 H 0.58767 0.82672 0.28158 0.0
H133 H 0.6521 0.83498 0.33223 0.0
H134 H 0.62216 0.8901 0.42309 0.0
O135 O 0.65997 0.87451 0.95668 0.0
H136 H 0.58571 0.83455 0.92003 0.0
H137 H 0.64158 0.88526 0.80326 0.0
H138 H 0.56394 0.8141 0.42102 0.0
H139 H 0.70639 0.91277 0.2854 0.0
H140 H 0.56794 0.841 0.56167 0.0
H141 H 0.72418 0.87434 0.36743 0.0
O142 O 0.58398 0.87087 0.1806 0.0
H143 H 0.6493 0.96768 0.96341 0.0
H144 H 0.58218 0.90306 0.88769 0.0
H145 H 0.57648 0.94883 0.83977 0.0
H146 H 0.61021 0.98148 0.87776 0.0
H147 H 0.65411 0.92176 0.01045 0.0
H148 H 0.63825 0.86225 0.65532 0.0
H149 H 0.60878 0.8243 0.64097 0.0
O150 O 0.58438 0.87295 0.02638 0.0
C151 C 0.62697 0.82469 0.10536 0.0
C152 C 0.59425 0.8279 0.77844 0.0
C153 C 0.62635 0.85631 0.7127 0.0
N154 N 0.61395 0.86116 0.87029 0.0
C155 C 0.59669 0.8412 0.86147 0.0
C156 C 0.62809 0.86931 0.79652 0.0
C157 C 0.60965 0.83516 0.7044 0.0
C158 C 0.66922 0.89491 0.26392 0.0
N159 N 0.65429 0.87328 0.27688 0.0
C160 C 0.69458 0.89565 0.29622 0.0
C161 C 0.70457 0.87408 0.34217 0.0
C162 C 0.68918 0.85214 0.35535 0.0
C163 C 0.66393 0.85207 0.32195 0.0
C164 C 0.59569 0.86716 0.50162 0.0
C165 C 0.59051 0.83782 0.34366 0.0
C166 C 0.60948 0.87339 0.42229 0.0
N167 N 0.60616 0.85925 0.34381 0.0
C168 C 0.57675 0.83075 0.42218 0.0
C169 C 0.57901 0.84585 0.50105 0.0
C170 C 0.57257 0.87085 0.10333 0.0
C171 C 0.63451 0.95361 0.9462 0.0
C172 C 0.59692 0.91718 0.90438 0.0
C173 C 0.59361 0.94305 0.87701 0.0
C174 C 0.61255 0.96135 0.89826 0.0
N175 N 0.61849 0.90977 0.95148 0.0
C176 C 0.63717 0.92758 0.97243 0.0
Co177 Co 0.88269 0.37025 0.77087 0.0
Co178 Co 0.90301 0.37517 0.99591 0.0
O179 O 0.88192 0.3602 0.89944 0.0
C180 C 0.82956 0.37896 0.8354 0.0
O181 O 0.84021 0.38941 0.90818 0.0
C182 C 0.91561 0.31925 0.99075 0.0
O183 O 0.91856 0.3225 0.90211 0.0
O184 O 0.93437 0.37372 0.91741 0.0
O185 O 0.92156 0.37081 0.77033 0.0
H186 H 0.96853 0.43629 0.13089 0.0
H187 H 0.85226 0.32448 0.8306 0.0
O188 O 0.84372 0.37034 0.77032 0.0
H189 H 0.91834 0.28974 0.6202 0.0
H190 H 0.85255 0.36548 0.44312 0.0
H191 H 0.91295 0.40759 0.65826 0.0
H192 H 0.91458 0.33711 0.64638 0.0
H193 H 0.85233 0.35385 0.60751 0.0
O194 O 0.91025 0.33879 0.04156 0.0
H195 H 0.94179 0.41757 0.00734 0.0
H196 H 0.90958 0.36302 0.19427 0.0
H197 H 0.91402 0.41963 0.49431 0.0
H198 H 0.8553 0.27708 0.80616 0.0
H199 H 0.8837 0.39844 0.38549 0.0
H200 H 0.88906 0.25944 0.70304 0.0
O201 O 0.8824 0.4078 0.80345 0.0
H202 H 0.8221 0.3397 0.13998 0.0
H203 H 0.879 0.41632 0.11214 0.0
H204 H 0.83997 0.41898 0.20873 0.0
H205 H 0.81123 0.38046 0.22317 0.0
H206 H 0.86124 0.33791 0.04385 0.0
H207 H 0.93596 0.38111 0.31985 0.0
H208 H 0.96565 0.41806 0.2885 0.0
O209 O 0.89588 0.41145 0.94986 0.0
C210 C 0.93915 0.37254 0.83153 0.0
C211 C 0.95561 0.42024 0.14545 0.0
C212 C 0.93738 0.38923 0.25148 0.0
N213 N 0.92402 0.38938 0.09381 0.0
C214 C 0.9404 0.4096 0.07583 0.0
C215 C 0.92253 0.37904 0.18008 0.0
C216 C 0.95401 0.40998 0.23385 0.0
C217 C 0.86649 0.317 0.78323 0.0
N218 N 0.88318 0.33354 0.73982 0.0
C219 C 0.86823 0.29013 0.77016 0.0
C220 C 0.88713 0.28024 0.71188 0.0
C221 C 0.90366 0.29724 0.66595 0.0
C222 C 0.90141 0.32402 0.68091 0.0
C223 C 0.8659 0.3748 0.48983 0.0
C224 C 0.89977 0.39823 0.61123 0.0
C225 C 0.86581 0.36834 0.58297 0.0
N226 N 0.88276 0.37987 0.64216 0.0
C227 C 0.90041 0.40517 0.51854 0.0
C228 C 0.88338 0.3933 0.45753 0.0
C229 C 0.88812 0.42135 0.87407 0.0
C230 C 0.83452 0.35658 0.13451 0.0
C231 C 0.86656 0.39949 0.11796 0.0
C232 C 0.84452 0.4011 0.17288 0.0
C233 C 0.82841 0.37947 0.18104 0.0
N234 N 0.87248 0.37693 0.07287 0.0
C235 C 0.85677 0.35565 0.08045 0.0
Co236 Co 0.37279 0.38331 0.03199 0.0
Co237 Co 0.38267 0.36756 0.26004 0.0
O238 O 0.36757 0.38875 0.16318 0.0
C239 C 0.39159 0.43608 0.07237 0.0
O240 O 0.40286 0.42577 0.14428 0.0
C241 C 0.32634 0.36219 0.27713 0.0
O242 O 0.32662 0.3587 0.18807 0.0
O243 O 0.37463 0.33528 0.19327 0.0
O244 O 0.36747 0.34458 0.04472 0.0
H245 H 0.43757 0.29518 0.38463 0.0
H246 H 0.33428 0.42199 0.09673 0.0
O247 O 0.37858 0.42182 0.01778 0.0
H248 H 0.28523 0.35935 0.90879 0.0
H249 H 0.36632 0.41091 0.70238 0.0
H250 H 0.40137 0.34532 0.91607 0.0
H251 H 0.33226 0.35438 0.92914 0.0
H252 H 0.35619 0.41294 0.86743 0.0
O253 O 0.34754 0.36579 0.32017 0.0
H254 H 0.42073 0.32456 0.26518 0.0
H255 H 0.37447 0.36363 0.46258 0.0
H256 H 0.41197 0.34251 0.7511 0.0
H257 H 0.2873 0.42773 0.07805 0.0
H258 H 0.39496 0.37609 0.64375 0.0
H259 H 0.26246 0.39622 0.98364 0.0
O260 O 0.41034 0.37828 0.05008 0.0
H261 H 0.36325 0.45589 0.39128 0.0
H262 H 0.42934 0.38751 0.3557 0.0
H263 H 0.4401 0.42784 0.4395 0.0
H264 H 0.40691 0.46235 0.45772 0.0
H265 H 0.35337 0.4153 0.30776 0.0
H266 H 0.38958 0.33335 0.58298 0.0
H267 H 0.42182 0.2994 0.54488 0.0
O268 O 0.41765 0.36893 0.19876 0.0
C269 C 0.36905 0.32855 0.11177 0.0
C270 C 0.4238 0.3102 0.40244 0.0
C271 C 0.39696 0.33178 0.51384 0.0
N272 N 0.39694 0.34609 0.35708 0.0
C273 C 0.41437 0.32709 0.33523 0.0
C274 C 0.38831 0.34867 0.4452 0.0
C275 C 0.41494 0.31256 0.49228 0.0
C276 C 0.32363 0.40834 0.05492 0.0
N277 N 0.336 0.38796 0.01369 0.0
C278 C 0.29702 0.41162 0.04487 0.0
C279 C 0.28309 0.39392 0.99201 0.0
C280 C 0.29585 0.37321 0.95004 0.0
C281 C 0.32247 0.37049 0.96186 0.0
C282 C 0.37395 0.39632 0.74865 0.0
C283 C 0.39337 0.3595 0.8692 0.0
C284 C 0.36825 0.39733 0.84214 0.0
N285 N 0.37813 0.37921 0.9012 0.0
C286 C 0.39954 0.3579 0.77602 0.0
C287 C 0.38993 0.37664 0.71572 0.0
C288 C 0.42543 0.37263 0.11627 0.0
C289 C 0.37785 0.44096 0.38403 0.0
C290 C 0.41482 0.40247 0.36337 0.0
C291 C 0.42101 0.42523 0.41095 0.0
C292 C 0.40236 0.44459 0.42119 0.0
N293 N 0.39072 0.39904 0.32734 0.0
C294 C 0.37234 0.41791 0.33707 0.0
Co295 Co 0.38839 0.63666 0.02006 0.0
Co296 Co 0.40839 0.63103 0.79418 0.0
O297 O 0.38721 0.64631 0.8904 0.0
C298 C 0.33577 0.62683 0.95699 0.0
O299 O 0.34701 0.61499 0.88804 0.0
C300 C 0.41802 0.6877 0.78382 0.0
O301 O 0.4217 0.68695 0.87287 0.0
O302 O 0.43977 0.63569 0.87047 0.0
O303 O 0.42715 0.6362 0.01853 0.0
H304 H 0.47728 0.57236 0.66692 0.0
H305 H 0.35882 0.6834 0.95984 0.0
O306 O 0.34943 0.6367 0.02112 0.0
H307 H 0.42488 0.71558 0.17544 0.0
H308 H 0.35792 0.64135 0.34767 0.0
H309 H 0.41974 0.60057 0.13419 0.0
H310 H 0.42039 0.66865 0.1449 0.0
H311 H 0.35764 0.65271 0.18307 0.0
O312 O 0.41332 0.66673 0.7401 0.0
H313 H 0.44977 0.59118 0.78828 0.0
H314 H 0.41322 0.6402 0.59284 0.0
H315 H 0.42089 0.58884 0.29833 0.0
H316 H 0.36278 0.73071 0.98812 0.0
H317 H 0.38981 0.60932 0.40632 0.0
H318 H 0.39654 0.74687 0.09547 0.0
O319 O 0.38821 0.59904 0.99019 0.0
H320 H 0.32539 0.66 0.64794 0.0
H321 H 0.38633 0.58704 0.68592 0.0
H322 H 0.34735 0.58099 0.59135 0.0
H323 H 0.31662 0.6177 0.57153 0.0
H324 H 0.36439 0.66507 0.74314 0.0
H325 H 0.44038 0.62201 0.46948 0.0
H326 H 0.47262 0.58776 0.50617 0.0
O327 O 0.40358 0.59508 0.84634 0.0
C328 C 0.44458 0.63652 0.95642 0.0
C329 C 0.46323 0.58721 0.65002 0.0
C330 C 0.44255 0.6151 0.53922 0.0
N331 N 0.42976 0.61657 0.69751 0.0
C332 C 0.44757 0.59788 0.7184 0.0
C333 C 0.42727 0.62536 0.6094 0.0
C334 C 0.46063 0.59588 0.55986 0.0
C335 C 0.3731 0.6904 0.00791 0.0
N336 N 0.38933 0.67333 0.05072 0.0
C337 C 0.37534 0.71716 0.02334 0.0
C338 C 0.39419 0.72627 0.08355 0.0
C339 C 0.41026 0.7087 0.12835 0.0
C340 C 0.40758 0.68215 0.11084 0.0
C341 C 0.37156 0.6323 0.30129 0.0
C342 C 0.40622 0.60962 0.18079 0.0
C343 C 0.37142 0.63858 0.208 0.0
N344 N 0.38871 0.62738 0.14918 0.0
C345 C 0.40692 0.60286 0.27363 0.0
C346 C 0.38947 0.61434 0.33418 0.0
C347 C 0.39551 0.5854 0.92192 0.0
C348 C 0.33868 0.6439 0.6558 0.0
C349 C 0.37293 0.60301 0.67835 0.0
C350 C 0.35095 0.59952 0.62435 0.0
C351 C 0.33374 0.62013 0.61311 0.0
N352 N 0.37767 0.6264 0.71984 0.0
C353 C 0.36084 0.64667 0.70943 0.0
Co354 Co 0.6378 0.61933 0.03678 0.0
Co355 Co 0.63553 0.62517 0.27271 0.0
O356 O 0.64763 0.60872 0.16021 0.0
C357 C 0.62068 0.56508 0.06 0.0
O358 O 0.61111 0.57301 0.13849 0.0
C359 C 0.69232 0.63013 0.27142 0.0
O360 O 0.6904 0.63646 0.1845 0.0
O361 O 0.64152 0.66001 0.22117 0.0
O362 O 0.64325 0.65749 0.06727 0.0
H363 H 0.58881 0.69307 0.45612 0.0
H364 H 0.67879 0.57961 0.06308 0.0
O365 O 0.63189 0.58133 0.00687 0.0
H366 H 0.71922 0.64996 0.88264 0.0
H367 H 0.62507 0.6026 0.70103 0.0
H368 H 0.60678 0.66233 0.95757 0.0
H369 H 0.67353 0.65297 0.92973 0.0
H370 H 0.64579 0.59608 0.85164 0.0
O371 O 0.67212 0.6249 0.31821 0.0
H372 H 0.59845 0.66731 0.31762 0.0
H373 H 0.65057 0.62008 0.4689 0.0
H374 H 0.58613 0.66988 0.80783 0.0
H375 H 0.7245 0.57576 0.01737 0.0
H376 H 0.5939 0.63888 0.68032 0.0
H377 H 0.745 0.61113 0.92652 0.0
O378 O 0.60144 0.62266 0.07379 0.0
H379 H 0.65862 0.53239 0.34569 0.0
H380 H 0.59228 0.60074 0.37586 0.0
H381 H 0.58408 0.55708 0.44065 0.0
H382 H 0.61741 0.52256 0.42571 0.0
H383 H 0.66594 0.57628 0.2816 0.0
H384 H 0.64308 0.64663 0.60688 0.0
H385 H 0.61172 0.68323 0.60162 0.0
O386 O 0.59861 0.62609 0.22713 0.0
C387 C 0.64399 0.67039 0.14256 0.0
C388 C 0.60232 0.67702 0.45959 0.0
C389 C 0.63269 0.65091 0.54435 0.0
N390 N 0.62485 0.64203 0.38535 0.0
C391 C 0.60759 0.66212 0.38168 0.0
C392 C 0.63696 0.636 0.4658 0.0
C393 C 0.61522 0.67153 0.54113 0.0
C394 C 0.68754 0.59498 0.02305 0.0
N395 N 0.67352 0.61643 0.99872 0.0
C396 C 0.71345 0.59274 0.99762 0.0
C397 C 0.72495 0.61261 0.94676 0.0
C398 C 0.71049 0.63442 0.92215 0.0
C399 C 0.68466 0.63603 0.94904 0.0
C400 C 0.62117 0.61595 0.7568 0.0
C401 C 0.61139 0.64957 0.90096 0.0
C402 C 0.63291 0.61242 0.84207 0.0
N403 N 0.62731 0.62867 0.91356 0.0
C404 C 0.59938 0.65377 0.81659 0.0
C405 C 0.60387 0.63645 0.74488 0.0
C406 C 0.58845 0.62566 0.14709 0.0
C407 C 0.64398 0.54729 0.35286 0.0
C408 C 0.60685 0.58579 0.36909 0.0
C409 C 0.60212 0.56113 0.40598 0.0
C410 C 0.62084 0.54177 0.39764 0.0
N411 N 0.62959 0.59103 0.32532 0.0
C412 C 0.64805 0.57218 0.31693 0.0
Co413 Co 0.62379 0.3651 0.95808 0.0
Co414 Co 0.60319 0.3758 0.73535 0.0
O415 O 0.62476 0.35854 0.82622 0.0
C416 C 0.67657 0.37734 0.89689 0.0
O417 O 0.66561 0.38942 0.8279 0.0
C418 C 0.59264 0.31942 0.71337 0.0
O419 O 0.59065 0.31818 0.80304 0.0
O420 O 0.57197 0.37049 0.8126 0.0
O421 O 0.58499 0.36412 0.95826 0.0
H422 H 0.53478 0.43783 0.6261 0.0
H423 H 0.65581 0.32212 0.8841 0.0
O424 O 0.6627 0.36661 0.95878 0.0
H425 H 0.59397 0.28008 0.0946 0.0
H426 H 0.65499 0.35387 0.28278 0.0
H427 H 0.59187 0.39771 0.08231 0.0
H428 H 0.59352 0.32778 0.07256 0.0
H429 H 0.65521 0.34611 0.11565 0.0
O430 O 0.59708 0.34122 0.67436 0.0
H431 H 0.56265 0.41653 0.74105 0.0
H432 H 0.5971 0.37023 0.53295 0.0
H433 H 0.59082 0.40587 0.24905 0.0
H434 H 0.65695 0.27443 0.90415 0.0
H435 H 0.62253 0.38383 0.35055 0.0
H436 H 0.62585 0.25312 0.00969 0.0
O437 O 0.62266 0.40341 0.93902 0.0
H438 H 0.68535 0.34805 0.58008 0.0
H439 H 0.6256 0.42116 0.63509 0.0
H440 H 0.66458 0.42825 0.54109 0.0
H441 H 0.69474 0.39151 0.51291 0.0
H442 H 0.64627 0.34188 0.67432 0.0
H443 H 0.56953 0.3909 0.41587 0.0
H444 H 0.53815 0.42504 0.46219 0.0
O445 O 0.60904 0.41062 0.79465 0.0
C446 C 0.56733 0.36665 0.89766 0.0
C447 C 0.54844 0.42305 0.60503 0.0
C448 C 0.56792 0.39668 0.48704 0.0
N449 N 0.58162 0.39234 0.64361 0.0
C450 C 0.56431 0.41098 0.66976 0.0
C451 C 0.58344 0.38501 0.55368 0.0
C452 C 0.55032 0.41584 0.51308 0.0
C453 C 0.64236 0.31301 0.93085 0.0
N454 N 0.62474 0.32773 0.97756 0.0
C455 C 0.64303 0.28599 0.94165 0.0
C456 C 0.62553 0.27404 0.00086 0.0
C457 C 0.60763 0.28917 0.04837 0.0
C458 C 0.60746 0.31615 0.03558 0.0
C459 C 0.64104 0.36354 0.2393 0.0
C460 C 0.60564 0.38795 0.12606 0.0
C461 C 0.64112 0.35927 0.14462 0.0
N462 N 0.62345 0.3713 0.0894 0.0
C463 C 0.605 0.3927 0.22041 0.0
C464 C 0.62282 0.38035 0.2773 0.0
C465 C 0.61635 0.41861 0.8735 0.0
C466 C 0.67231 0.36419 0.59162 0.0
C467 C 0.6387 0.40511 0.62349 0.0
C468 C 0.66069 0.40922 0.56997 0.0
C469 C 0.67759 0.38859 0.55409 0.0
N470 N 0.63362 0.38111 0.65989 0.0
C471 C 0.6501 0.36079 0.64466 0.0
Co472 Co 0.87196 0.62573 0.71554 0.0
Co473 Co 0.89176 0.62566 0.4888 0.0
O474 O 0.87063 0.61302 0.59007 0.0
C475 C 0.88528 0.57019 0.72099 0.0
O476 O 0.90051 0.57565 0.65178 0.0
C477 C 0.83793 0.63666 0.44455 0.0
O478 O 0.83733 0.64663 0.52719 0.0
O479 O 0.887 0.66237 0.52652 0.0
O480 O 0.87224 0.66316 0.67182 0.0
H481 H 0.96111 0.67913 0.3377 0.0
H482 H 0.83128 0.58794 0.66216 0.0
O483 O 0.87215 0.58824 0.75923 0.0
H484 H 0.78463 0.66514 0.77621 0.0
H485 H 0.84847 0.62367 0.05061 0.0
H486 H 0.90072 0.66735 0.81296 0.0
H487 H 0.83224 0.66446 0.77271 0.0
H488 H 0.84657 0.60913 0.88934 0.0
O489 O 0.85917 0.62784 0.41245 0.0
H490 H 0.9352 0.66294 0.46793 0.0
H491 H 0.89142 0.61525 0.28806 0.0
H492 H 0.90312 0.68261 0.9733 0.0
H493 H 0.78368 0.58768 0.66543 0.0
H494 H 0.87679 0.66076 0.09327 0.0
H495 H 0.76004 0.62647 0.72296 0.0
O496 O 0.91005 0.62552 0.71348 0.0
H497 H 0.86302 0.53498 0.40768 0.0
H498 H 0.9377 0.59384 0.43929 0.0
H499 H 0.94467 0.54833 0.39095 0.0
H500 H 0.90714 0.51861 0.37435 0.0
H501 H 0.85698 0.58044 0.45791 0.0
H502 H 0.91679 0.63096 0.15578 0.0
H503 H 0.95192 0.66313 0.18024 0.0
O504 O 0.92398 0.62401 0.56691 0.0
C505 C 0.87937 0.67456 0.59766 0.0
C506 C 0.94589 0.66506 0.32619 0.0
C507 C 0.92098 0.63808 0.22405 0.0
N508 N 0.91201 0.638 0.38565 0.0
C509 C 0.93123 0.65576 0.39971 0.0
C510 C 0.90667 0.62927 0.29917 0.0
C511 C 0.94071 0.6561 0.23785 0.0
C512 C 0.82114 0.60482 0.68791 0.0
N513 N 0.83452 0.6261 0.71799 0.0
C514 C 0.79418 0.60458 0.68939 0.0
C515 C 0.78093 0.62638 0.7215 0.0
C516 C 0.79471 0.64809 0.75129 0.0
C517 C 0.82166 0.64763 0.74888 0.0
C518 C 0.85996 0.63341 0.99886 0.0
C519 C 0.88909 0.65786 0.86475 0.0
C520 C 0.85899 0.62524 0.90751 0.0
N521 N 0.87331 0.63758 0.84175 0.0
C522 C 0.89059 0.66652 0.95544 0.0
C523 C 0.87585 0.65422 0.02276 0.0
C524 C 0.92802 0.62469 0.65371 0.0
C525 C 0.87952 0.54777 0.41433 0.0
C526 C 0.9213 0.58096 0.43301 0.0
C527 C 0.92535 0.55524 0.40526 0.0
C528 C 0.90428 0.53858 0.39583 0.0
N529 N 0.89694 0.58983 0.4509 0.0
C530 C 0.87621 0.57357 0.44243 0.0
Co531 Co 0.62714 0.13598 0.24006 0.0
Co532 Co 0.60058 0.12207 0.45234 0.0
O533 O 0.62503 0.13993 0.37279 0.0
C534 C 0.67793 0.12125 0.31384 0.0
O535 O 0.66513 0.1081 0.3762 0.0
C536 C 0.59153 0.17819 0.48127 0.0
O537 O 0.59104 0.1801 0.39152 0.0
O538 O 0.57162 0.13009 0.36772 0.0
O539 O 0.5886 0.13792 0.22825 0.0
H540 H 0.52718 0.06158 0.52616 0.0
H541 H 0.65822 0.1769 0.33255 0.0
O542 O 0.66583 0.13347 0.25082 0.0
H543 H 0.60093 0.22387 0.11913 0.0
H544 H 0.66679 0.15239 0.92992 0.0
H545 H 0.59761 0.10692 0.09856 0.0
H546 H 0.60015 0.17591 0.12715 0.0
H547 H 0.66286 0.15698 0.0979 0.0
O548 O 0.59451 0.15593 0.51887 0.0
H549 H 0.55873 0.08341 0.42516 0.0
H550 H 0.58966 0.12446 0.65283 0.0
H551 H 0.60068 0.10198 0.93057 0.0
H552 H 0.65995 0.2249 0.32558 0.0
H553 H 0.63548 0.12479 0.8451 0.0
H554 H 0.63108 0.24871 0.21848 0.0
O555 O 0.62456 0.09748 0.24968 0.0
H556 H 0.67914 0.14312 0.64037 0.0
H557 H 0.61877 0.07386 0.54625 0.0
H558 H 0.65472 0.06326 0.65064 0.0
H559 H 0.68514 0.09807 0.69866 0.0
H560 H 0.64311 0.15281 0.53532 0.0
H561 H 0.5584 0.10317 0.75627 0.0
H562 H 0.52691 0.07142 0.693 0.0
O563 O 0.60628 0.08813 0.38608 0.0
C564 C 0.56937 0.13517 0.28234 0.0
C565 C 0.54087 0.0753 0.55459 0.0
C566 C 0.55836 0.09868 0.68372 0.0
N567 N 0.57616 0.10498 0.53323 0.0
C568 C 0.55882 0.08766 0.49779 0.0
C569 C 0.57599 0.1107 0.62481 0.0
C570 C 0.5407 0.08086 0.64818 0.0
C571 C 0.64588 0.1871 0.28483 0.0
N572 N 0.62924 0.1736 0.22987 0.0
C573 C 0.64684 0.21429 0.28154 0.0
C574 C 0.63061 0.22765 0.22155 0.0
C575 C 0.61371 0.21373 0.1657 0.0
C576 C 0.61331 0.18656 0.17072 0.0
C577 C 0.65153 0.14236 0.96638 0.0
C578 C 0.61273 0.11702 0.06183 0.0
C579 C 0.64925 0.14483 0.06151 0.0
N580 N 0.62996 0.13232 0.10793 0.0
C581 C 0.61441 0.11409 0.96672 0.0
C582 C 0.63395 0.12688 0.91881 0.0
C583 C 0.61546 0.08137 0.3081 0.0
C584 C 0.66595 0.12781 0.62021 0.0
C585 C 0.63202 0.08907 0.56642 0.0
C586 C 0.65229 0.08297 0.62577 0.0
C587 C 0.66934 0.10252 0.65276 0.0
N588 N 0.62877 0.11395 0.5351 0.0
C589 C 0.64546 0.1332 0.56102 0.0
Co590 Co 0.13473 0.38404 0.70362 0.0
Co591 Co 0.12476 0.36887 0.47531 0.0
O592 O 0.14082 0.38908 0.57286 0.0
C593 C 0.12142 0.43872 0.66423 0.0
O594 O 0.10954 0.43019 0.59067 0.0
C595 C 0.18078 0.36084 0.45879 0.0
O596 O 0.18021 0.35629 0.54729 0.0
O597 O 0.13106 0.33599 0.54139 0.0
O598 O 0.13663 0.34507 0.69081 0.0
H599 H 0.06665 0.29959 0.34736 0.0
H600 H 0.17685 0.41901 0.64107 0.0
O601 O 0.1325 0.4228 0.71847 0.0
H602 H 0.21919 0.3522 0.83195 0.0
H603 H 0.1419 0.41058 0.03415 0.0
H604 H 0.10227 0.34872 0.81707 0.0
H605 H 0.17204 0.35145 0.8085 0.0
H606 H 0.15325 0.41173 0.86996 0.0
O607 O 0.15982 0.36567 0.41586 0.0
H608 H 0.08463 0.32782 0.46806 0.0
H609 H 0.13311 0.36509 0.27291 0.0
H610 H 0.09043 0.34681 0.98113 0.0
H611 H 0.22405 0.42053 0.66288 0.0
H612 H 0.10971 0.37861 0.09007 0.0
H613 H 0.24551 0.38693 0.75888 0.0
O614 O 0.09697 0.38258 0.68346 0.0
H615 H 0.14865 0.45641 0.34623 0.0
H616 H 0.07923 0.39135 0.3796 0.0
H617 H 0.07057 0.43231 0.29646 0.0
H618 H 0.10544 0.46516 0.27935 0.0
H619 H 0.15643 0.41523 0.42906 0.0
H620 H 0.11684 0.33589 0.15129 0.0
H621 H 0.08293 0.30344 0.18762 0.0
O622 O 0.08977 0.37184 0.53595 0.0
C623 C 0.135 0.32904 0.62391 0.0
C624 C 0.08116 0.31397 0.33032 0.0
C625 C 0.10924 0.33449 0.2202 0.0
N626 N 0.10962 0.34838 0.37737 0.0
C627 C 0.09124 0.33021 0.39824 0.0
C628 C 0.11854 0.35077 0.28953 0.0
C629 C 0.09032 0.31612 0.24077 0.0
C630 C 0.18604 0.40445 0.6835 0.0
N631 N 0.1717 0.38525 0.72386 0.0
C632 C 0.21277 0.40535 0.69534 0.0
C633 C 0.22481 0.38646 0.74908 0.0
C634 C 0.21005 0.36696 0.79005 0.0
C635 C 0.18337 0.36662 0.77645 0.0
C636 C 0.13326 0.3968 0.98714 0.0
C637 C 0.11127 0.36204 0.86471 0.0
C638 C 0.13963 0.39731 0.89412 0.0
N639 N 0.12846 0.38026 0.83408 0.0
C640 C 0.10439 0.36098 0.95735 0.0
C641 C 0.11528 0.37871 0.01857 0.0
C642 C 0.08185 0.37709 0.61719 0.0
C643 C 0.13332 0.44221 0.35301 0.0
C644 C 0.09448 0.40557 0.37245 0.0
C645 C 0.08948 0.42871 0.32523 0.0
C646 C 0.10906 0.44713 0.31561 0.0
N647 N 0.11834 0.40089 0.40874 0.0
C648 C 0.13764 0.41883 0.39956 0.0
Co649 Co 0.37129 0.86838 0.24029 0.0
Co650 Co 0.39722 0.86972 0.45956 0.0
O651 O 0.37243 0.85723 0.36884 0.0
C652 C 0.32141 0.88321 0.32197 0.0
O653 O 0.33472 0.89155 0.39255 0.0
C654 C 0.40424 0.81236 0.45742 0.0
O655 O 0.4032 0.81355 0.36753 0.0
O656 O 0.42604 0.86463 0.37108 0.0
O657 O 0.40964 0.86334 0.2277 0.0
H658 H 0.47267 0.9226 0.56968 0.0
H659 H 0.33698 0.82639 0.30804 0.0
O660 O 0.33296 0.87377 0.25215 0.0
H661 H 0.3834 0.78895 0.0439 0.0
H662 H 0.33206 0.87295 0.92444 0.0
H663 H 0.40422 0.90139 0.12067 0.0
H664 H 0.39342 0.83326 0.09801 0.0
H665 H 0.33431 0.8593 0.08661 0.0
O666 O 0.40215 0.83309 0.50495 0.0
H667 H 0.4407 0.90722 0.45656 0.0
H668 H 0.40731 0.85719 0.65617 0.0
H669 H 0.40287 0.91525 0.95871 0.0
H670 H 0.32703 0.78157 0.25856 0.0
H671 H 0.36663 0.90094 0.85935 0.0
H672 H 0.34985 0.76277 0.12451 0.0
O673 O 0.37689 0.90526 0.27399 0.0
H674 H 0.31688 0.84266 0.62788 0.0
H675 H 0.38082 0.91275 0.58441 0.0
H676 H 0.34484 0.91917 0.69295 0.0
H677 H 0.31262 0.88392 0.71553 0.0
H678 H 0.35306 0.83714 0.51947 0.0
H679 H 0.43895 0.87194 0.77131 0.0
H680 H 0.47188 0.90493 0.72836 0.0
O681 O 0.39278 0.90665 0.41726 0.0
C682 C 0.42852 0.86252 0.28412 0.0
C683 C 0.45836 0.90828 0.5893 0.0
C684 C 0.43946 0.87981 0.70243 0.0
N685 N 0.42203 0.88153 0.54998 0.0
C686 C 0.44018 0.89956 0.52563 0.0
C687 C 0.42162 0.8715 0.63689 0.0
C688 C 0.45793 0.89834 0.6783 0.0
C689 C 0.34737 0.81813 0.2507 0.0
N690 N 0.3656 0.83246 0.2054 0.0
C691 C 0.34161 0.79278 0.22289 0.0
C692 C 0.35452 0.78221 0.14778 0.0
C693 C 0.37335 0.79683 0.10277 0.0
C694 C 0.37895 0.82193 0.1336 0.0
C695 C 0.34798 0.87925 0.96701 0.0
C696 C 0.38846 0.89496 0.07777 0.0
C697 C 0.34932 0.87166 0.05897 0.0
N698 N 0.36952 0.87933 0.11287 0.0
C699 C 0.38775 0.90295 0.98617 0.0
C700 C 0.36739 0.89495 0.9305 0.0
C701 C 0.38512 0.91765 0.34364 0.0
C702 C 0.33086 0.85813 0.61889 0.0
C703 C 0.36679 0.89739 0.59342 0.0
C704 C 0.3465 0.9011 0.65519 0.0
C705 C 0.32845 0.8813 0.6679 0.0
N706 N 0.36909 0.87456 0.54589 0.0
C707 C 0.35142 0.85508 0.55782 0.0
Co708 Co 0.87194 0.88004 0.52568 0.0
Co709 Co 0.87137 0.87302 0.76167 0.0
O710 O 0.86141 0.89046 0.64853 0.0
C711 C 0.89102 0.9334 0.55323 0.0
O712 O 0.90003 0.92458 0.63136 0.0
C713 C 0.81478 0.87002 0.75041 0.0
O714 O 0.81846 0.8634 0.66453 0.0
O715 O 0.86466 0.83852 0.70745 0.0
O716 O 0.86486 0.84207 0.55341 0.0
H717 H 0.91417 0.80351 0.95011 0.0
H718 H 0.83261 0.92145 0.55013 0.0
O719 O 0.8795 0.9179 0.49839 0.0
H720 H 0.79036 0.85367 0.36351 0.0
H721 H 0.88518 0.89641 0.18915 0.0
H722 H 0.902 0.83634 0.44613 0.0
H723 H 0.8355 0.84834 0.41432 0.0
H724 H 0.86575 0.90426 0.34122 0.0
O725 O 0.83412 0.8746 0.80227 0.0
H726 H 0.90584 0.82896 0.80966 0.0
H727 H 0.85502 0.87874 0.95636 0.0
H728 H 0.92158 0.82758 0.29515 0.0
H729 H 0.78753 0.92763 0.50052 0.0
H730 H 0.9142 0.85844 0.16671 0.0
H731 H 0.76616 0.89363 0.40646 0.0
O732 O 0.90782 0.87493 0.56654 0.0
H733 H 0.85122 0.96647 0.83481 0.0
H734 H 0.91451 0.89545 0.87057 0.0
H735 H 0.92381 0.93861 0.93728 0.0
H736 H 0.89202 0.97448 0.91952 0.0
H737 H 0.84277 0.92302 0.76893 0.0
H738 H 0.8618 0.85307 0.0972 0.0
H739 H 0.89166 0.8152 0.0948 0.0
O740 O 0.90872 0.8708 0.72042 0.0
C741 C 0.86282 0.82877 0.62756 0.0
C742 C 0.90123 0.82004 0.95216 0.0
C743 C 0.87186 0.84788 0.03478 0.0
N744 N 0.88016 0.85545 0.87506 0.0
C745 C 0.89665 0.8347 0.87309 0.0
C746 C 0.86805 0.86231 0.95476 0.0
C747 C 0.88855 0.82659 0.03327 0.0
C748 C 0.82348 0.90664 0.50866 0.0
N749 N 0.83669 0.88464 0.4846 0.0
C750 C 0.79793 0.9102 0.48107 0.0
C751 C 0.78592 0.89107 0.42844 0.0
C752 C 0.79951 0.86866 0.40432 0.0
C753 C 0.82503 0.86573 0.43332 0.0
C754 C 0.88885 0.88304 0.24511 0.0
C755 C 0.89793 0.84933 0.38969 0.0
C756 C 0.87786 0.88735 0.33128 0.0
N757 N 0.88293 0.87088 0.40271 0.0
C758 C 0.90922 0.84437 0.3045 0.0
C759 C 0.90497 0.86163 0.23232 0.0
C760 C 0.91977 0.87108 0.64165 0.0
C761 C 0.86518 0.95097 0.84326 0.0
C762 C 0.9006 0.91097 0.86264 0.0
C763 C 0.90595 0.93536 0.90061 0.0
C764 C 0.8881 0.95546 0.89067 0.0
N765 N 0.87807 0.90673 0.81633 0.0
C766 C 0.86046 0.92632 0.80635 0.0
Co767 Co 0.88021 0.13323 0.48964 0.0
Co768 Co 0.90218 0.12871 0.26623 0.0
O769 O 0.87946 0.14251 0.36021 0.0
C770 C 0.82887 0.11929 0.41964 0.0
O771 O 0.84126 0.10912 0.34987 0.0
C772 C 0.91149 0.18526 0.27155 0.0
O773 O 0.91282 0.18228 0.36075 0.0
O774 O 0.93263 0.13229 0.34763 0.0
O775 O 0.91893 0.13647 0.49346 0.0
H776 H 0.97262 0.07171 0.14018 0.0
H777 H 0.84578 0.1754 0.42437 0.0
O778 O 0.84142 0.12938 0.48616 0.0
H779 H 0.90598 0.21751 0.63991 0.0
H780 H 0.84674 0.13641 0.81376 0.0
H781 H 0.91338 0.10023 0.60849 0.0
H782 H 0.90782 0.17008 0.61373 0.0
H783 H 0.84678 0.14705 0.64854 0.0
O784 O 0.90784 0.16542 0.22021 0.0
H785 H 0.94362 0.08887 0.26022 0.0
H786 H 0.90967 0.14077 0.06818 0.0
H787 H 0.91423 0.08929 0.77332 0.0
H788 H 0.84303 0.22277 0.44946 0.0
H789 H 0.88077 0.10751 0.87724 0.0
H790 H 0.87349 0.24422 0.55627 0.0
O791 O 0.88399 0.09566 0.46038 0.0
H792 H 0.82087 0.1591 0.11175 0.0
H793 H 0.88165 0.08596 0.14886 0.0
H794 H 0.84388 0.08087 0.04752 0.0
H795 H 0.81322 0.11765 0.02828 0.0
H796 H 0.85879 0.16329 0.21285 0.0
H797 H 0.93825 0.12419 0.94601 0.0
H798 H 0.96998 0.08937 0.98173 0.0
O799 O 0.89686 0.09212 0.31297 0.0
C800 C 0.93688 0.13508 0.43333 0.0
C801 C 0.95882 0.08683 0.12372 0.0
C802 C 0.93958 0.11632 0.01477 0.0
N803 N 0.92484 0.11561 0.17096 0.0
C804 C 0.94233 0.09657 0.19134 0.0
C805 C 0.92347 0.12566 0.08423 0.0
C806 C 0.95736 0.09677 0.03484 0.0
C807 C 0.85874 0.18447 0.47284 0.0
N808 N 0.87683 0.16996 0.51799 0.0
C809 C 0.85719 0.21134 0.48627 0.0
C810 C 0.87431 0.22336 0.54643 0.0
C811 C 0.89254 0.2084 0.59309 0.0
C812 C 0.8935 0.18155 0.57799 0.0
C813 C 0.86145 0.1284 0.7692 0.0
C814 C 0.8988 0.10828 0.65329 0.0
C815 C 0.86152 0.13429 0.67558 0.0
N816 N 0.88015 0.12439 0.61908 0.0
C817 C 0.89934 0.10197 0.74654 0.0
C818 C 0.88055 0.11217 0.80479 0.0
C819 C 0.89056 0.0822 0.39051 0.0
C820 C 0.83415 0.14298 0.11928 0.0
C821 C 0.86833 0.10201 0.1411 0.0
C822 C 0.84702 0.09904 0.08346 0.0
C823 C 0.82984 0.11969 0.0726 0.0
N824 N 0.8725 0.12495 0.18624 0.0
C825 C 0.8557 0.14526 0.17622 0.0
Co826 Co 0.13107 0.11921 0.54637 0.0
Co827 Co 0.12427 0.13419 0.77621 0.0
O828 O 0.13821 0.11346 0.67594 0.0
C829 C 0.11327 0.06613 0.58853 0.0
O830 O 0.10316 0.07593 0.66346 0.0
C831 C 0.18092 0.13938 0.7843 0.0
O832 O 0.18004 0.14335 0.69548 0.0
O833 O 0.13107 0.16688 0.70935 0.0
O834 O 0.1363 0.15783 0.55964 0.0
H835 H 0.07126 0.20584 0.91597 0.0
H836 H 0.17075 0.08061 0.60207 0.0
O837 O 0.12526 0.08077 0.53208 0.0
H838 H 0.21633 0.14386 0.40529 0.0
H839 H 0.13142 0.09237 0.21506 0.0
H840 H 0.10121 0.15791 0.43791 0.0
H841 H 0.16973 0.14864 0.43624 0.0
H842 H 0.14469 0.08994 0.37723 0.0
O843 O 0.16006 0.13586 0.82955 0.0
H844 H 0.08615 0.17705 0.79146 0.0
H845 H 0.13543 0.13704 0.97675 0.0
H846 H 0.08759 0.16118 0.27604 0.0
H847 H 0.21734 0.07507 0.57285 0.0
H848 H 0.10196 0.12757 0.16437 0.0
H849 H 0.24043 0.10687 0.47384 0.0
O850 O 0.09388 0.12393 0.57188 0.0
H851 H 0.14607 0.04544 0.89947 0.0
H852 H 0.07919 0.11354 0.87977 0.0
H853 H 0.06989 0.07283 0.96366 0.0
H854 H 0.10349 0.03845 0.97388 0.0
H855 H 0.15451 0.08641 0.81609 0.0
H856 H 0.12238 0.16667 0.10172 0.0
H857 H 0.08958 0.20084 0.0724 0.0
O858 O 0.08843 0.13282 0.72186 0.0
C859 C 0.13529 0.1738 0.6269 0.0
C860 C 0.08529 0.19074 0.92999 0.0
C861 C 0.11389 0.16865 0.03434 0.0
N862 N 0.11137 0.15512 0.87703 0.0
C863 C 0.09361 0.17419 0.85993 0.0
C864 C 0.12137 0.15209 0.96308 0.0
C865 C 0.0956 0.18796 0.01769 0.0
C866 C 0.18063 0.09441 0.55841 0.0
N867 N 0.16753 0.11484 0.52051 0.0
C868 C 0.20703 0.09123 0.54236 0.0
C869 C 0.21998 0.1091 0.48693 0.0
C870 C 0.20647 0.12987 0.44847 0.0
C871 C 0.18011 0.13249 0.4663 0.0
C872 C 0.12484 0.10694 0.26337 0.0
C873 C 0.10816 0.14373 0.389 0.0
C874 C 0.13231 0.10569 0.35525 0.0
N875 N 0.12369 0.12375 0.41697 0.0
C876 C 0.10026 0.14558 0.29761 0.0
C877 C 0.10843 0.12682 0.23484 0.0
C878 C 0.07965 0.12932 0.64069 0.0
C879 C 0.1313 0.06031 0.89571 0.0
C880 C 0.09389 0.09865 0.88393 0.0
C881 C 0.08853 0.07566 0.93159 0.0
C882 C 0.10739 0.05638 0.93734 0.0
N883 N 0.1174 0.10236 0.84347 0.0
C884 C 0.136 0.08357 0.84884 0.0
Co885 Co 0.11965 0.86577 0.49707 0.0
Co886 Co 0.09495 0.87597 0.27919 0.0
O887 O 0.11894 0.85974 0.3646 0.0
C888 C 0.17037 0.88172 0.42668 0.0
O889 O 0.15752 0.8937 0.36172 0.0
C890 C 0.08715 0.81943 0.25371 0.0
O891 O 0.08629 0.81738 0.34343 0.0
O892 O 0.06547 0.86796 0.36195 0.0
O893 O 0.0811 0.86242 0.50503 0.0
H894 H 0.02101 0.93389 0.18932 0.0
H895 H 0.15298 0.8252 0.41415 0.0
O896 O 0.15829 0.8696 0.49005 0.0
H897 H 0.09678 0.7784 0.63205 0.0
H898 H 0.15654 0.85487 0.81425 0.0
H899 H 0.08815 0.89613 0.62942 0.0
H900 H 0.09342 0.82611 0.61449 0.0
H901 H 0.15449 0.84785 0.64687 0.0
O902 O 0.09014 0.84165 0.21634 0.0
H903 H 0.05201 0.91378 0.29656 0.0
H904 H 0.08601 0.87129 0.0777 0.0
H905 H 0.08931 0.90347 0.79667 0.0
H906 H 0.15707 0.77756 0.42989 0.0
H907 H 0.12369 0.88275 0.89027 0.0
H908 H 0.12882 0.75385 0.53899 0.0
O909 O 0.11598 0.90401 0.48072 0.0
H910 H 0.1762 0.85457 0.10644 0.0
H911 H 0.11251 0.92308 0.17645 0.0
H912 H 0.14928 0.93315 0.0749 0.0
H913 H 0.1814 0.89871 0.03903 0.0
H914 H 0.13928 0.84545 0.20843 0.0
H915 H 0.05535 0.89084 0.9682 0.0
H916 H 0.02259 0.92244 0.02385 0.0
O917 O 0.09953 0.91061 0.33975 0.0
C918 C 0.06251 0.86355 0.44762 0.0
C919 C 0.03524 0.92021 0.16421 0.0
C920 C 0.05448 0.89601 0.04012 0.0
N921 N 0.07092 0.89157 0.19331 0.0
C922 C 0.05288 0.90882 0.22456 0.0
C923 C 0.07176 0.88497 0.10249 0.0
C924 C 0.03612 0.91375 0.07138 0.0
C925 C 0.14078 0.81506 0.46261 0.0
N926 N 0.1231 0.82844 0.51379 0.0
C927 C 0.14311 0.78807 0.47092 0.0
C928 C 0.12721 0.77477 0.53217 0.0
C929 C 0.10924 0.78854 0.58425 0.0
C930 C 0.1074 0.81554 0.57396 0.0
C931 C 0.14143 0.86396 0.77424 0.0
C932 C 0.10306 0.88691 0.66977 0.0
C933 C 0.1402 0.8601 0.67945 0.0
N934 N 0.12108 0.87138 0.62861 0.0
C935 C 0.10367 0.89121 0.7644 0.0
C936 C 0.12299 0.8796 0.81687 0.0
C937 C 0.10768 0.91885 0.41708 0.0
C938 C 0.1623 0.86973 0.12138 0.0
C939 C 0.12652 0.90808 0.16181 0.0
C940 C 0.14724 0.91385 0.10391 0.0
C941 C 0.16523 0.89451 0.08371 0.0
N942 N 0.12374 0.88371 0.19833 0.0
C943 C 0.14132 0.86466 0.17889 0.0
H944 H 0.3911 0.94619 0.19056 0.0
H945 H 0.37961 0.95348 0.48238 0.0
H946 H 0.37707 0.00103 0.46688 0.0
H947 H 0.37741 0.04062 0.36809 0.0
H948 H 0.39167 0.03192 0.07796 0.0
H949 H 0.39352 0.98482 0.09485 0.0
C950 C 0.38804 0.95815 0.25092 0.0
C951 C 0.38534 0.94637 0.33731 0.0
C952 C 0.38692 0.98524 0.24156 0.0
C953 C 0.38182 0.96215 0.41509 0.0
C954 C 0.38022 0.98929 0.40614 0.0
C955 C 0.38082 0.0283 0.30888 0.0
C956 C 0.38425 0.03965 0.22185 0.0
C957 C 0.38257 0.00107 0.31945 0.0
C958 C 0.38902 0.02362 0.14564 0.0
C959 C 0.39008 0.99668 0.15515 0.0
H960 H 0.03035 0.62006 0.88415 0.0
H961 H 0.06326 0.64829 0.6307 0.0
H962 H 0.02074 0.64663 0.55802 0.0
H963 H 0.97365 0.63771 0.56777 0.0
H964 H 0.94228 0.60917 0.82366 0.0
H965 H 0.98472 0.61023 0.89292 0.0
C966 C 0.02835 0.62599 0.81308 0.0
C967 C 0.05003 0.63449 0.76351 0.0
C968 C 0.00401 0.62481 0.7716 0.0
C969 C 0.04691 0.64179 0.67099 0.0
C970 C 0.02258 0.64079 0.62917 0.0
C971 C 0.9762 0.63153 0.63832 0.0
C972 C 0.95468 0.6236 0.69033 0.0
C973 C 1.00092 0.63233 0.67886 0.0
C974 C 0.95836 0.61568 0.78195 0.0
C975 C 0.98268 0.61625 0.82199 0.0
H976 H 0.60788 0.97108 0.11979 0.0
H977 H 0.60476 0.94539 0.40115 0.0
H978 H 0.60751 0.99078 0.45349 0.0
H979 H 0.61085 0.038 0.41798 0.0
H980 H 0.61727 0.06206 0.13478 0.0
H981 H 0.61335 0.01714 0.08483 0.0
C982 C 0.60766 0.97538 0.19262 0.0
C983 C 0.6058 0.95497 0.25647 0.0
C984 C 0.60999 0.00129 0.22193 0.0
C985 C 0.60605 0.96083 0.35064 0.0
C986 C 0.60764 0.98676 0.38051 0.0
C987 C 0.61145 0.03338 0.34544 0.0
C988 C 0.61428 0.05354 0.28045 0.0
C989 C 0.60965 0.0072 0.31667 0.0
C990 C 0.61521 0.0471 0.18663 0.0
C991 C 0.61287 0.02135 0.1577 0.0
H992 H 0.05965 0.38105 0.78476 0.0
H993 H 0.04057 0.37054 0.49891 0.0
H994 H 0.99461 0.36811 0.53912 0.0
H995 H 0.95982 0.36885 0.65716 0.0
H996 H 0.981 0.37854 0.94212 0.0
H997 H 0.02611 0.38124 0.89979 0.0
C998 C 0.04559 0.3783 0.73056 0.0
C999 C 0.05374 0.37611 0.63867 0.0
C1000 C 0.01944 0.37665 0.75414 0.0
C1001 C 0.03496 0.37237 0.57022 0.0
C1002 C 0.00865 0.37094 0.59325 0.0
C1003 C 0.9743 0.3715 0.70998 0.0
C1004 C 0.96675 0.37346 0.80292 0.0
C1005 C 1.00064 0.37301 0.68525 0.0
C1006 C 0.98595 0.37689 0.87015 0.0
C1007 C 0.0119 0.3785 0.8461 0.0
H1008 H 0.38774 0.46243 0.91077 0.0
H1009 H 0.39881 0.47324 0.20173 0.0
H1010 H 0.40058 0.52034 0.18037 0.0
H1011 H 0.39879 0.55828 0.08005 0.0
H1012 H 0.39063 0.54821 0.78773 0.0
H1013 H 0.38803 0.50091 0.80839 0.0
C1014 C 0.39051 0.47517 0.9693 0.0
C1015 C 0.39303 0.46446 0.0577 0.0
C1016 C 0.39206 0.50227 0.9563 0.0
C1017 C 0.39692 0.48105 0.13298 0.0
C1018 C 0.39787 0.50797 0.1209 0.0
C1019 C 0.39639 0.54579 0.02073 0.0
C1020 C 0.39465 0.55677 0.93257 0.0
C1021 C 0.39543 0.51876 0.03299 0.0
C1022 C 0.39198 0.54025 0.85633 0.0
C1023 C 0.39044 0.51322 0.86816 0.0
H1024 H 0.46602 0.6272 0.12655 0.0
H1025 H 0.48517 0.64927 0.84819 0.0
H1026 H 0.53064 0.64926 0.88628 0.0
H1027 H 0.56478 0.64109 0.99314 0.0
H1028 H 0.54845 0.61806 0.27173 0.0
H1029 H 0.50185 0.62072 0.23923 0.0
C1030 C 0.48016 0.63218 0.07456 0.0
C1031 C 0.47207 0.63796 0.98419 0.0
C1032 C 0.50668 0.63191 0.09669 0.0
C1033 C 0.49069 0.64443 0.91781 0.0
C1034 C 0.51678 0.64449 0.93948 0.0
C1035 C 0.55123 0.6366 0.0474 0.0
C1036 C 0.56021 0.62901 0.13443 0.0
C1037 C 0.52493 0.63789 0.02794 0.0
C1038 C 0.5421 0.62385 0.20396 0.0
C1039 C 0.51549 0.62528 0.18517 0.0
H1040 H 0.61502 0.44273 0.03843 0.0
H1041 H 0.62001 0.45852 0.74822 0.0
H1042 H 0.6226 0.50532 0.77964 0.0
H1043 H 0.62344 0.54193 0.89087 0.0
H1044 H 0.61583 0.52511 0.17986 0.0
H1045 H 0.61439 0.47864 0.14751 0.0
C1046 C 0.61677 0.45634 0.98184 0.0
C1047 C 0.61753 0.44706 0.89113 0.0
C1048 C 0.61779 0.48313 0.00028 0.0
C1049 C 0.6194 0.4651 0.81874 0.0
C1050 C 0.62093 0.49188 0.83669 0.0
C1051 C 0.62152 0.52803 0.94653 0.0
C1052 C 0.6198 0.53698 0.03763 0.0
C1053 C 0.62016 0.50115 0.92732 0.0
C1054 C 0.61707 0.51879 0.10911 0.0
C1055 C 0.61629 0.49216 0.09076 0.0
H1056 H 0.44676 0.37083 0.94699 0.0
H1057 H 0.46712 0.36873 0.234 0.0
H1058 H 0.51294 0.36574 0.19234 0.0
H1059 H 0.54727 0.36492 0.07294 0.0
H1060 H 0.52504 0.3669 0.78707 0.0
H1061 H 0.47991 0.36858 0.83052 0.0
C1062 C 0.46108 0.36975 0.00105 0.0
C1063 C 0.45336 0.37024 0.09371 0.0
C1064 C 0.48717 0.36795 0.97673 0.0
C1065 C 0.47242 0.36849 0.16212 0.0
C1066 C 0.49864 0.36678 0.13827 0.0
C1067 C 0.53255 0.36554 0.02016 0.0
C1068 C 0.53978 0.36589 0.92665 0.0
C1069 C 0.50627 0.36664 0.04557 0.0
C1070 C 0.5203 0.36671 0.85947 0.0
C1071 C 0.49436 0.36771 0.88416 0.0
H1072 H 0.87508 0.44887 0.72235 0.0
H1073 H 0.8963 0.45884 0.00659 0.0
H1074 H 0.89473 0.50624 0.98763 0.0
H1075 H 0.89001 0.54511 0.88612 0.0
H1076 H 0.87103 0.5335 0.60138 0.0
H1077 H 0.86878 0.48655 0.62486 0.0
C1078 C 0.87922 0.46127 0.78076 0.0
C1079 C 0.88592 0.45014 0.86572 0.0
C1080 C 0.87865 0.48835 0.76911 0.0
C1081 C 0.89118 0.46677 0.94019 0.0
C1082 C 0.89028 0.49392 0.92942 0.0
C1083 C 0.88493 0.5322 0.8301 0.0
C1084 C 0.88062 0.54256 0.74212 0.0
C1085 C 0.88436 0.50497 0.84375 0.0
C1086 C 0.87447 0.52581 0.66941 0.0
C1087 C 0.87323 0.499 0.6828 0.0
H1088 H 0.5244 0.13257 0.37669 0.0
H1089 H 0.55445 0.14143 0.10206 0.0
H1090 H 0.51046 0.14097 0.04078 0.0
H1091 H 0.46323 0.13644 0.06553 0.0
H1092 H 0.43483 0.12727 0.3429 0.0
H1093 H 0.47838 0.12939 0.40168 0.0
C1094 C 0.52149 0.13454 0.30332 0.0
C1095 C 0.54283 0.13693 0.24431 0.0
C1096 C 0.49631 0.13404 0.26859 0.0
C1097 C 0.53843 0.13956 0.14941 0.0
C1098 C 0.51326 0.13922 0.11419 0.0
C1099 C 0.46658 0.13494 0.13876 0.0
C1100 C 0.44556 0.13151 0.19913 0.0
C1101 C 0.492 0.13618 0.17314 0.0
C1102 C 0.45041 0.12976 0.29408 0.0
C1103 C 0.47541 0.13101 0.32827 0.0
H1104 H 0.12229 0.56141 0.68317 0.0
H1105 H 0.13122 0.54481 0.9715 0.0
H1106 H 0.13179 0.49809 0.9391 0.0
H1107 H 0.12854 0.46198 0.82915 0.0
H1108 H 0.11634 0.47858 0.54222 0.0
H1109 H 0.11817 0.52533 0.57364 0.0
C1110 C 0.12461 0.54756 0.73874 0.0
C1111 C 0.12689 0.55651 0.82949 0.0
C1112 C 0.12414 0.52076 0.71988 0.0
C1113 C 0.12942 0.53836 0.90109 0.0
C1114 C 0.12974 0.51167 0.88261 0.0
C1115 C 0.12638 0.47585 0.77352 0.0
C1116 C 0.12236 0.46691 0.68355 0.0
C1117 C 0.12691 0.50265 0.79236 0.0
C1118 C 0.11931 0.48504 0.61217 0.0
C1119 C 0.12044 0.51175 0.63002 0.0
H1120 H 0.4509 0.88115 0.1254 0.0
H1121 H 0.46556 0.834 0.36522 0.0
H1122 H 0.5107 0.8299 0.322 0.0
H1123 H 0.54645 0.84268 0.22615 0.0
H1124 H 0.53474 0.89216 0.99115 0.0
H1125 H 0.48785 0.89186 0.02051 0.0
C1126 C 0.46398 0.86969 0.16711 0.0
C1127 C 0.45496 0.85808 0.24899 0.0
C1128 C 0.49035 0.86791 0.14289 0.0
C1129 C 0.47208 0.84337 0.30268 0.0
C1130 C 0.49789 0.84096 0.27795 0.0
C1131 C 0.53372 0.85336 0.18082 0.0
C1132 C 0.54412 0.86779 0.10759 0.0
C1133 C 0.5073 0.85368 0.19982 0.0
C1134 C 0.52722 0.88093 0.04813 0.0
C1135 C 0.50046 0.8809 0.0655 0.0
H1136 H 0.88585 0.95864 0.38796 0.0
H1137 H 0.89912 0.97186 0.67675 0.0
H1138 H 0.9001 0.01861 0.65106 0.0
H1139 H 0.89669 0.05577 0.54876 0.0
H1140 H 0.88552 0.04411 0.25852 0.0
H1141 H 0.88445 0.99676 0.28243 0.0
C1142 C 0.889 0.97181 0.44502 0.0
C1143 C 0.89234 0.96171 0.53419 0.0
C1144 C 0.88995 0.99893 0.42963 0.0
C1145 C 0.8966 0.979 0.60739 0.0
C1146 C 0.89711 0.00581 0.59291 0.0
C1147 C 0.89396 0.04295 0.49048 0.0
C1148 C 0.89091 0.0535 0.40212 0.0
C1149 C 0.89371 0.01596 0.50459 0.0
C1150 C 0.88788 0.03649 0.32731 0.0
C1151 C 0.8872 0.00943 0.34104 0.0
H1152 H 0.95733 0.13263 0.6083 0.0
H1153 H 0.97853 0.1414 0.32276 0.0
H1154 H 0.02376 0.14109 0.36347 0.0
H1155 H 0.05734 0.13662 0.47614 0.0
H1156 H 0.03864 0.12799 0.76299 0.0
H1157 H 0.9924 0.13014 0.72555 0.0
C1158 C 0.97186 0.13467 0.5552 0.0
C1159 C 0.96432 0.13679 0.46235 0.0
C1160 C 0.99829 0.13438 0.57898 0.0
C1161 C 0.98352 0.13947 0.39461 0.0
C1162 C 0.00952 0.13932 0.41768 0.0
C1163 C 0.0433 0.13516 0.53107 0.0
C1164 C 0.05155 0.13181 0.62221 0.0
C1165 C 0.01709 0.13643 0.50915 0.0
C1166 C 0.03287 0.13046 0.69213 0.0
C1167 C 0.00644 0.13165 0.67065 0.0
H1168 H 0.10575 0.94371 0.58088 0.0
H1169 H 0.1107 0.95775 0.28948 0.0
H1170 H 0.11334 0.00459 0.31685 0.0
H1171 H 0.11486 0.04158 0.42397 0.0
H1172 H 0.10731 0.02758 0.71468 0.0
H1173 H 0.1051 0.98068 0.68723 0.0
C1174 C 0.10743 0.95702 0.52336 0.0
C1175 C 0.10823 0.94724 0.43333 0.0
C1176 C 0.1085 0.98392 0.53951 0.0
C1177 C 0.11001 0.96475 0.35943 0.0
C1178 C 0.1116 0.99155 0.37503 0.0
C1179 C 0.11276 0.02821 0.48118 0.0
C1180 C 0.11139 0.03792 0.57114 0.0
C1181 C 0.11099 0.00133 0.4648 0.0
C1182 C 0.10833 0.02051 0.64473 0.0
C1183 C 0.10712 0.99372 0.62915 0.0
H1184 H 0.94371 0.84837 0.50047 0.0
H1185 H 0.9592 0.88429 0.7617 0.0
H1186 H 0.00585 0.88285 0.72865 0.0
H1187 H 0.04163 0.87542 0.61615 0.0
H1188 H 0.02343 0.84204 0.352 0.0
H1189 H 0.97826 0.8386 0.39534 0.0
C1190 C 0.95719 0.85583 0.5507 0.0
C1191 C 0.94796 0.86684 0.63266 0.0
C1192 C 0.98349 0.85559 0.53003 0.0
C1193 C 0.96582 0.87577 0.69794 0.0
C1194 C 0.99243 0.87511 0.67861 0.0
C1195 C 0.02777 0.86709 0.56884 0.0
C1196 C 0.03583 0.85925 0.48048 0.0
C1197 C 1.00145 0.86569 0.59355 0.0
C1198 C 0.01769 0.84854 0.41974 0.0
C1199 C 0.99186 0.8465 0.44452 0.0
H1200 H 0.35742 0.29274 0.24131 0.0
H1201 H 0.37011 0.30115 0.94987 0.0
H1202 H 0.36761 0.25376 0.93176 0.0
H1203 H 0.36551 0.21027 0.00088 0.0
H1204 H 0.35386 0.20219 0.29324 0.0
H1205 H 0.35219 0.24955 0.30859 0.0
C1206 C 0.35953 0.2843 0.17349 0.0
C1207 C 0.36436 0.30045 0.09707 0.0
C1208 C 0.3584 0.25721 0.16398 0.0
C1209 C 0.36648 0.28917 0.00971 0.0
C1210 C 0.36518 0.2621 0.99951 0.0
C1211 C 0.36244 0.21877 0.06811 0.0
C1212 C 0.36015 0.20262 0.14614 0.0
C1213 C 0.36174 0.24596 0.07653 0.0
C1214 C 0.35581 0.21408 0.23221 0.0
C1215 C 0.35492 0.24116 0.24104 0.0
H1216 H 0.21487 0.62859 0.01176 0.0
H1217 H 0.21784 0.63249 0.71622 0.0
H1218 H 0.265 0.63258 0.72107 0.0
H1219 H 0.30514 0.62991 0.8087 0.0
H1220 H 0.30294 0.62924 0.10429 0.0
H1221 H 0.25555 0.62971 0.10046 0.0
C1222 C 0.2259 0.62951 0.94856 0.0
C1223 C 0.21299 0.63022 0.86365 0.0
C1224 C 0.25301 0.63013 0.952 0.0
C1225 C 0.2274 0.63189 0.78227 0.0
C1226 C 0.25432 0.63188 0.78501 0.0
C1227 C 0.29429 0.62998 0.87231 0.0
C1228 C 0.3074 0.62923 0.95664 0.0
C1229 C 0.26728 0.63076 0.86937 0.0
C1230 C 0.29318 0.62977 0.03861 0.0
C1231 C 0.26615 0.62994 0.03634 0.0
H1232 H 0.64528 0.7904 0.23367 0.0
H1233 H 0.61585 0.79446 0.95713 0.0
H1234 H 0.62072 0.74763 0.94004 0.0
H1235 H 0.63146 0.70477 0.00566 0.0
H1236 H 0.66144 0.70085 0.28152 0.0
H1237 H 0.65866 0.74795 0.29562 0.0
C1238 C 0.6399 0.78102 0.16983 0.0
C1239 C 0.63003 0.79602 0.09736 0.0
C1240 C 0.64302 0.75392 0.15967 0.0
C1241 C 0.62348 0.7835 0.01447 0.0
C1242 C 0.62628 0.75662 0.00431 0.0
C1243 C 0.63784 0.71427 0.06808 0.0
C1244 C 0.64643 0.69919 0.14237 0.0
C1245 C 0.63591 0.74155 0.07657 0.0
C1246 C 0.6545 0.71191 0.22319 0.0
C1247 C 0.65284 0.73891 0.23171 0.0
H1248 H 0.70994 0.37834 0.75392 0.0
H1249 H 0.70693 0.3729 0.04904 0.0
H1250 H 0.75416 0.37285 0.05573 0.0
H1251 H 0.79619 0.37567 0.97771 0.0
H1252 H 0.79927 0.37806 0.68211 0.0
H1253 H 0.75202 0.37784 0.6753 0.0
C1254 C 0.71965 0.37713 0.81968 0.0
C1255 C 0.70503 0.37595 0.90102 0.0
C1256 C 0.74674 0.37656 0.82276 0.0
C1257 C 0.7178 0.37389 0.98561 0.0
C1258 C 0.74477 0.37392 0.98942 0.0
C1259 C 0.78649 0.3761 0.91179 0.0
C1260 C 0.80113 0.37719 0.83048 0.0
C1261 C 0.75942 0.37547 0.90848 0.0
C1262 C 0.78839 0.37726 0.74554 0.0
C1263 C 0.76141 0.37721 0.74168 0.0
H1264 H 0.85388 0.70876 0.71018 0.0
H1265 H 0.90031 0.70523 0.46424 0.0
H1266 H 0.89673 0.7521 0.44519 0.0
H1267 H 0.88221 0.79475 0.50167 0.0
H1268 H 0.8368 0.79864 0.74929 0.0
H1269 H 0.83774 0.75128 0.76288 0.0
C1270 C 0.86326 0.71824 0.65259 0.0
C1271 C 0.87743 0.70334 0.58929 0.0
C1272 C 0.86109 0.74541 0.64146 0.0
C1273 C 0.88926 0.71606 0.51445 0.0
C1274 C 0.88719 0.74296 0.50309 0.0
C1275 C 0.87206 0.78517 0.55732 0.0
C1276 C 0.85945 0.80017 0.62412 0.0
C1277 C 0.87326 0.75789 0.56629 0.0
C1278 C 0.84669 0.78748 0.69685 0.0
C1279 C 0.84734 0.7604 0.70511 0.0
H1280 H 0.79893 0.12274 0.26895 0.0
H1281 H 0.79514 0.1186 0.5641 0.0
H1282 H 0.74783 0.11845 0.55716 0.0
H1283 H 0.70768 0.11859 0.46624 0.0
H1284 H 0.7118 0.12639 0.17194 0.0
H1285 H 0.75901 0.12612 0.1792 0.0
C1286 C 0.78773 0.12179 0.33175 0.0
C1287 C 0.80041 0.12034 0.4169 0.0
C1288 C 0.76069 0.12237 0.32718 0.0
C1289 C 0.78574 0.11965 0.49784 0.0
C1290 C 0.75875 0.11951 0.49381 0.0
C1291 C 0.71896 0.12022 0.40377 0.0
C1292 C 0.70637 0.12219 0.31851 0.0
C1293 C 0.74603 0.12069 0.40878 0.0
C1294 C 0.72112 0.1248 0.23822 0.0
C1295 C 0.74806 0.12458 0.24236 0.0
H1296 H 0.13858 0.29067 0.49637 0.0
H1297 H 0.13756 0.30357 0.78938 0.0
H1298 H 0.13918 0.25652 0.81518 0.0
H1299 H 0.13859 0.21215 0.75471 0.0
H1300 H 0.1388 0.19927 0.46164 0.0
H1301 H 0.14002 0.24631 0.43595 0.0
C1302 C 0.13879 0.28331 0.56614 0.0
C1303 C 0.1377 0.30072 0.64096 0.0
C1304 C 0.13957 0.25634 0.58039 0.0
C1305 C 0.1383 0.29069 0.7306 0.0
C1306 C 0.13918 0.26379 0.74535 0.0
C1307 C 0.13904 0.21951 0.68495 0.0
C1308 C 0.13839 0.20209 0.61008 0.0
C1309 C 0.13947 0.24649 0.67073 0.0
C1310 C 0.13924 0.21214 0.52048 0.0
C1311 C 0.13985 0.23904 0.50577 0.0
H1312 H 0.20045 0.88603 0.27589 0.0
H1313 H 0.204 0.87638 0.56958 0.0
H1314 H 0.25125 0.87689 0.56317 0.0
H1315 H 0.29143 0.88021 0.47374 0.0
H1316 H 0.28773 0.88631 0.17888 0.0
H1317 H 0.24052 0.88707 0.18585 0.0
C1318 C 0.21158 0.88412 0.33851 0.0
C1319 C 0.19884 0.88144 0.42323 0.0
C1320 C 0.23863 0.8838 0.33395 0.0
C1321 C 0.21344 0.8785 0.50365 0.0
C1322 C 0.24041 0.87885 0.49999 0.0
C1323 C 0.28026 0.88182 0.4111 0.0
C1324 C 0.29296 0.8835 0.32596 0.0
C1325 C 0.25319 0.88155 0.41553 0.0
C1326 C 0.27832 0.88506 0.24515 0.0
C1327 C 0.25138 0.88552 0.24915 0.0
H1328 H 0.22875 0.13796 0.70596 0.0
H1329 H 0.18988 0.1385 0.96838 0.0
H1330 H 0.23139 0.13757 0.04682 0.0
H1331 H 0.27817 0.13751 0.04156 0.0
H1332 H 0.31812 0.13641 0.78157 0.0
H1333 H 0.27648 0.1365 0.70106 0.0
C1334 C 0.22936 0.13795 0.78033 0.0
C1335 C 0.2062 0.13853 0.83128 0.0
C1336 C 0.25337 0.13729 0.8252 0.0
C1337 C 0.20735 0.13816 0.92752 0.0
C1338 C 0.23108 0.13763 0.97245 0.0
C1339 C 0.27793 0.13733 0.96716 0.0
C1340 C 0.30126 0.13723 0.91755 0.0
C1341 C 0.25413 0.13735 0.92199 0.0
C1342 C 0.30044 0.13658 0.82129 0.0
C1343 C 0.27665 0.13669 0.7754 0.0
H1344 H 0.0845 0.76881 0.30902 0.0
H1345 H 0.08768 0.81713 0.06661 0.0
H1346 H 0.08816 0.77844 0.96975 0.0
H1347 H 0.08933 0.73092 0.95365 0.0
H1348 H 0.08675 0.68254 0.19598 0.0
H1349 H 0.08424 0.72123 0.29265 0.0
C1350 C 0.08511 0.7709 0.235 0.0
C1351 C 0.0861 0.79586 0.19535 0.0
C1352 C 0.08553 0.74855 0.17947 0.0
C1353 C 0.08695 0.79817 0.09919 0.0
C1354 C 0.08723 0.77605 0.04357 0.0
C1355 C 0.08797 0.7288 0.02754 0.0
C1356 C 0.08824 0.70385 0.06734 0.0
C1357 C 0.08675 0.75114 0.08295 0.0
C1358 C 0.08661 0.70151 0.16336 0.0
C1359 C 0.0852 0.72363 0.21884 0.0
H1360 H 0.69524 0.87361 0.83171 0.0
H1361 H 0.72267 0.86448 0.10934 0.0
H1362 H 0.76727 0.86599 0.05543 0.0
H1363 H 0.79863 0.86839 0.92853 0.0
H1364 H 0.7709 0.87553 0.65053 0.0
H1365 H 0.72646 0.87644 0.70545 0.0
C1366 C 0.71098 0.87211 0.88044 0.0
C1367 C 0.70562 0.86887 0.97427 0.0
C1368 C 0.7366 0.87258 0.84889 0.0
C1369 C 0.72625 0.8668 0.03654 0.0
C1370 C 0.75178 0.86771 0.00585 0.0
C1371 C 0.78285 0.87034 0.88017 0.0
C1372 C 0.78807 0.87183 0.78568 0.0
C1373 C 0.75722 0.87037 0.91207 0.0
C1374 C 0.76741 0.87417 0.72368 0.0
C1375 C 0.74196 0.87472 0.75496 0.0
H1376 H 0.91557 0.19934 0.09118 0.0
H1377 H 0.91043 0.23121 0.36467 0.0
H1378 H 0.91168 0.27526 0.30272 0.0
H1379 H 0.91351 0.30501 0.17094 0.0
H1380 H 0.91933 0.27333 0.8974 0.0
H1381 H 0.91863 0.22921 0.95931 0.0
C1382 C 0.91478 0.21592 0.13718 0.0
C1383 C 0.91291 0.21189 0.23239 0.0
C1384 C 0.91565 0.24136 0.10115 0.0
C1385 C 0.91198 0.23365 0.29105 0.0
C1386 C 0.91265 0.25893 0.25573 0.0
C1387 C 0.91475 0.28846 0.12488 0.0
C1388 C 0.91648 0.29256 0.02969 0.0
C1389 C 0.91441 0.26304 0.16091 0.0
C1390 C 0.91808 0.27083 0.97106 0.0
C1391 C 0.91761 0.24552 0.00635 0.0
H1392 H 0.22849 0.36051 0.53578 0.0
H1393 H 0.1897 0.36261 0.27379 0.0
H1394 H 0.2314 0.36334 0.19518 0.0
H1395 H 0.27864 0.36305 0.20087 0.0
H1396 H 0.31756 0.3618 0.46266 0.0
H1397 H 0.27585 0.36116 0.54152 0.0
C1398 C 0.2291 0.36102 0.46142 0.0
C1399 C 0.20596 0.3613 0.41068 0.0
C1400 C 0.25312 0.36163 0.41677 0.0
C1401 C 0.20718 0.36231 0.31447 0.0
C1402 C 0.23102 0.36271 0.2695 0.0
C1403 C 0.27807 0.36256 0.27524 0.0
C1404 C 0.30124 0.36229 0.32582 0.0
C1405 C 0.25408 0.36231 0.31997 0.0
C1406 C 0.30006 0.36198 0.4221 0.0
C1407 C 0.27621 0.36157 0.46719 0.0
H1408 H 0.41184 0.8036 0.63962 0.0
H1409 H 0.40366 0.76374 0.38049 0.0
H1410 H 0.40786 0.72176 0.4581 0.0
H1411 H 0.41295 0.69629 0.59997 0.0
H1412 H 0.42128 0.73635 0.85874 0.0
H1413 H 0.41801 0.77825 0.78058 0.0
C1414 C 0.41099 0.78575 0.59994 0.0
C1415 C 0.40736 0.78688 0.50428 0.0
C1416 C 0.41348 0.76166 0.64494 0.0
C1417 C 0.40646 0.7635 0.45413 0.0
C1418 C 0.40883 0.73945 0.49849 0.0
C1419 C 0.41419 0.71418 0.6393 0.0
C1420 C 0.41739 0.7131 0.73521 0.0
C1421 C 0.41224 0.73829 0.59393 0.0
C1422 C 0.41894 0.73652 0.7849 0.0
C1423 C 0.41699 0.76054 0.74028 0.0
H1424 H 0.73962 0.6279 0.18935 0.0
H1425 H 0.7023 0.63214 0.45412 0.0
H1426 H 0.74421 0.63423 0.52932 0.0
H1427 H 0.79084 0.63633 0.52022 0.0
H1428 H 0.82951 0.63019 0.25898 0.0
H1429 H 0.78746 0.62737 0.18141 0.0
C1430 C 0.74071 0.62926 0.2635 0.0
C1431 C 0.71787 0.63009 0.31611 0.0
C1432 C 0.76496 0.63019 0.3066 0.0
C1433 C 0.71955 0.63148 0.41211 0.0
C1434 C 0.74349 0.63275 0.45517 0.0
C1435 C 0.79019 0.63433 0.44624 0.0
C1436 C 0.81321 0.63376 0.39523 0.0
C1437 C 0.76622 0.63236 0.40306 0.0
C1438 C 0.812 0.63077 0.2996 0.0
C1439 C 0.788 0.6292 0.25544 0.0
H1440 H 0.59091 0.22842 0.42211 0.0
H1441 H 0.58962 0.18179 0.66869 0.0
H1442 H 0.5891 0.22132 0.76213 0.0
H1443 H 0.59005 0.26916 0.7739 0.0
H1444 H 0.59213 0.31549 0.52659 0.0
H1445 H 0.59126 0.27601 0.43368 0.0
C1446 C 0.59034 0.22683 0.49629 0.0
C1447 C 0.59022 0.20211 0.53818 0.0
C1448 C 0.59024 0.24962 0.54963 0.0
C1449 C 0.58968 0.20053 0.6345 0.0
C1450 C 0.5894 0.22314 0.68806 0.0
C1451 C 0.59013 0.27065 0.69968 0.0
C1452 C 0.5911 0.29533 0.65747 0.0
C1453 C 0.58981 0.2478 0.64638 0.0
C1454 C 0.59139 0.29681 0.5611 0.0
C1455 C 0.59089 0.27422 0.50777 0.0
loop_
_geom_bond_atom_site_label_1
_geom_bond_atom_site_label_2
_geom_bond_distance
_geom_bond_site_symmetry_2
_ccdc_geom_bond_type
Co0 O2 2.143 . S
Co0 O8 2.074 . S
Co0 O11 2.093 . S
Co0 O24 2.097 . S
Co0 N41 2.151 . S
Co0 N49 2.214 . S
Co1 O2 2.160 1_556 S
Co1 O7 2.058 1_556 S
Co1 O17 2.057 . S
Co1 O32 2.037 . S
Co1 N36 2.145 . S
Co1 N57 2.257 . S
O2 Co0 2.143 . S
O2 Co1 2.160 1_554 S
C3 O4 1.278 . S
C3 O11 1.224 . S
O4 C3 1.278 . S
C5 O6 1.245 . S
C5 O17 1.232 . S
O6 C5 1.245 . S
O7 Co1 2.058 1_554 S
O7 C33 1.269 . S
O8 Co0 2.074 . S
O8 C33 1.257 . S
H9 C34 0.930 . S
H10 C40 0.930 . S
O11 Co0 2.093 . S
O11 C3 1.224 . S
H12 C44 0.929 . S
H13 C46 0.930 . S
H14 C47 0.930 . S
H15 C45 0.929 . S
H16 C48 0.928 . S
O17 Co1 2.057 . S
O17 C5 1.232 . S
H18 C37 0.929 . S
H19 C38 0.929 . S
H20 C50 0.931 . S
H21 C42 0.929 . S
H22 C51 0.930 . S
H23 C43 0.931 . S
O24 Co0 2.097 . S
O24 C52 1.214 . S
H25 C53 0.929 . S
H26 C54 0.929 . S
H27 C55 0.930 . S
H28 C56 0.929 . S
H29 C58 0.930 . S
H30 C35 0.930 . S
H31 C39 0.930 . S
O32 Co1 2.037 . S
O32 C52 1.234 1_556 S
C33 O7 1.269 . S
C33 O8 1.257 . S
C34 H9 0.930 . S
C34 C37 1.388 . S
C34 C39 1.418 . S
C35 H30 0.930 . S
C35 C38 1.404 . S
C35 C39 1.353 . S
N36 Co1 2.145 . S
N36 C37 1.397 . S
N36 C38 1.334 . S
C37 H18 0.929 . S
C37 C34 1.388 . S
C37 N36 1.397 . S
C38 H19 0.929 . S
C38 C35 1.404 . S
C38 N36 1.334 . S
C39 H31 0.930 . S
C39 C34 1.418 . S
C39 C35 1.353 . S
C40 H10 0.930 . S
C40 N41 1.330 . S
C40 C42 1.446 . S
N41 Co0 2.151 . S
N41 C40 1.330 . S
N41 C45 1.418 . S
C42 H21 0.929 . S
C42 C40 1.446 . S
C42 C43 1.332 . S
C43 H23 0.931 . S
C43 C42 1.332 . S
C43 C44 1.267 . S
C44 H12 0.929 . S
C44 C43 1.267 . S
C44 C45 1.251 . S
C45 H15 0.929 . S
C45 N41 1.418 . S
C45 C44 1.251 . S
C46 H13 0.930 . S
C46 C48 1.406 . S
C46 C51 1.261 . S
C47 H14 0.930 . S
C47 N49 1.325 . S
C47 C50 1.357 . S
C48 H16 0.928 . S
C48 C46 1.406 . S
C48 N49 1.261 . S
N49 Co0 2.214 . S
N49 C47 1.325 . S
N49 C48 1.261 . S
C50 H20 0.931 . S
C50 C47 1.357 . S
C50 C51 1.312 . S
C51 H22 0.930 . S
C51 C46 1.261 . S
C51 C50 1.312 . S
C52 O24 1.214 . S
C52 O32 1.234 1_554 S
C53 H25 0.929 . S
C53 C56 1.391 . S
C53 C58 1.391 . S
C54 H26 0.929 . S
C54 C55 1.390 . S
C54 N57 1.391 . S
C55 H27 0.930 . S
C55 C54 1.390 . S
C55 C56 1.392 . S
C56 H28 0.929 . S
C56 C53 1.391 . S
C56 C55 1.392 . S
N57 Co1 2.257 . S
N57 C54 1.391 . S
N57 C58 1.388 . S
C58 H29 0.930 . S
C58 C53 1.391 . S
C58 N57 1.388 . S
Co59 O61 2.143 . S
Co59 O67 2.074 . S
Co59 O70 2.093 . S
Co59 O83 2.097 . S
Co59 N100 2.151 . S
Co59 N108 2.214 . S
Co60 O61 2.160 . S
Co60 O66 2.058 . S
Co60 O76 2.057 1_556 S
Co60 O91 2.037 . S
Co60 N95 2.145 1_556 S
Co60 N116 2.257 1_556 S
O61 Co59 2.143 . S
O61 Co60 2.160 . S
C62 O63 1.278 . S
C62 O70 1.224 . S
O63 C62 1.278 . S
C64 O65 1.245 1_554 S
C64 O76 1.232 . S
O65 C64 1.245 1_556 S
O66 Co60 2.058 . S
O66 C92 1.269 . S
O67 Co59 2.074 . S
O67 C92 1.257 . S
H68 C93 0.930 . S
H69 C99 0.930 . S
O70 Co59 2.093 . S
O70 C62 1.224 . S
H71 C103 0.929 . S
H72 C105 0.930 . S
H73 C106 0.930 . S
H74 C104 0.929 . S
H75 C107 0.928 . S
O76 Co60 2.057 1_554 S
O76 C64 1.232 . S
H77 C96 0.929 1_556 S
H78 C97 0.929 . S
H79 C109 0.931 . S
H80 C101 0.929 . S
H81 C110 0.930 . S
H82 C102 0.931 . S
O83 Co59 2.097 . S
O83 C111 1.214 . S
H84 C112 0.929 . S
H85 C113 0.929 . S
H86 C114 0.930 . S
H87 C115 0.929 . S
H88 C117 0.930 . S
H89 C94 0.930 . S
H90 C98 0.930 . S
O91 Co60 2.037 . S
O91 C111 1.234 . S
C92 O66 1.269 . S
C92 O67 1.257 . S
C93 H68 0.930 . S
C93 C96 1.388 . S
C93 C98 1.418 . S
C94 H89 0.930 . S
C94 C97 1.404 . S
C94 C98 1.353 . S
N95 Co60 2.145 1_554 S
N95 C96 1.397 . S
N95 C97 1.334 . S
C96 H77 0.929 1_554 S
C96 C93 1.388 . S
C96 N95 1.397 . S
C97 H78 0.929 . S
C97 C94 1.404 . S
C97 N95 1.334 . S
C98 H90 0.930 . S
C98 C93 1.418 . S
C98 C94 1.353 . S
C99 H69 0.930 . S
C99 N100 1.330 . S
C99 C101 1.446 . S
N100 Co59 2.151 . S
N100 C99 1.330 . S
N100 C104 1.418 . S
C101 H80 0.929 . S
C101 C99 1.446 . S
C101 C102 1.332 . S
C102 H82 0.931 . S
C102 C101 1.332 . S
C102 C103 1.267 . S
C103 H71 0.929 . S
C103 C102 1.267 . S
C103 C104 1.251 . S
C104 H74 0.929 . S
C104 N100 1.418 . S
C104 C103 1.251 . S
C105 H72 0.930 . S
C105 C107 1.406 . S
C105 C110 1.261 . S
C106 H73 0.930 . S
C106 N108 1.325 . S
C106 C109 1.357 . S
C107 H75 0.928 . S
C107 C105 1.406 . S
C107 N108 1.261 . S
N108 Co59 2.214 . S
N108 C106 1.325 . S
N108 C107 1.261 . S
C109 H79 0.931 . S
C109 C106 1.357 . S
C109 C110 1.312 . S
C110 H81 0.930 . S
C110 C105 1.261 . S
C110 C109 1.312 . S
C111 O83 1.214 . S
C111 O91 1.234 . S
C112 H84 0.929 . S
C112 C115 1.391 . S
C112 C117 1.391 . S
C113 H85 0.929 . S
C113 C114 1.390 . S
C113 N116 1.391 . S
C114 H86 0.930 . S
C114 C113 1.390 . S
C114 C115 1.392 . S
C115 H87 0.929 . S
C115 C112 1.391 . S
C115 C114 1.392 . S
N116 Co60 2.257 1_554 S
N116 C113 1.391 . S
N116 C117 1.388 . S
C117 H88 0.930 . S
C117 C112 1.391 . S
C117 N116 1.388 . S
Co118 O120 2.143 . S
Co118 O126 2.074 . S
Co118 O129 2.093 . S
Co118 O142 2.097 . S
Co118 N159 2.151 . S
Co118 N167 2.214 . S
Co119 O120 2.160 1_556 S
Co119 O125 2.058 1_556 S
Co119 O135 2.057 . S
Co119 O150 2.037 . S
Co119 N154 2.145 . S
Co119 N175 2.257 . S
O120 Co118 2.143 . S
O120 Co119 2.160 1_554 S
C121 O122 1.278 . S
C121 O129 1.224 . S
O122 C121 1.278 . S
C123 O124 1.245 . S
C123 O135 1.232 . S
O124 C123 1.245 . S
O125 Co119 2.058 1_554 S
O125 C151 1.269 . S
O126 Co118 2.074 . S
O126 C151 1.257 . S
H127 C152 0.930 . S
H128 C158 0.930 . S
O129 Co118 2.093 . S
O129 C121 1.224 . S
H130 C162 0.929 . S
H131 C164 0.930 . S
H132 C165 0.930 . S
H133 C163 0.929 . S
H134 C166 0.928 . S
O135 Co119 2.057 . S
O135 C123 1.232 . S
H136 C155 0.929 . S
H137 C156 0.929 . S
H138 C168 0.931 . S
H139 C160 0.929 . S
H140 C169 0.930 . S
H141 C161 0.931 . S
O142 Co118 2.097 . S
O142 C170 1.214 . S
H143 C171 0.929 . S
H144 C172 0.929 . S
H145 C173 0.930 . S
H146 C174 0.929 . S
H147 C176 0.930 . S
H148 C153 0.930 . S
H149 C157 0.930 . S
O150 Co119 2.037 . S
O150 C170 1.234 1_556 S
C151 O125 1.269 . S
C151 O126 1.257 . S
C152 H127 0.930 . S
C152 C155 1.388 . S
C152 C157 1.418 . S
C153 H148 0.930 . S
C153 C156 1.404 . S
C153 C157 1.353 . S
N154 Co119 2.145 . S
N154 C155 1.397 . S
N154 C156 1.334 . S
C155 H136 0.929 . S
C155 C152 1.388 . S
C155 N154 1.397 . S
C156 H137 0.929 . S
C156 C153 1.404 . S
C156 N154 1.334 . S
C157 H149 0.930 . S
C157 C152 1.418 . S
C157 C153 1.353 . S
C158 H128 0.930 . S
C158 N159 1.330 . S
C158 C160 1.446 . S
N159 Co118 2.151 . S
N159 C158 1.330 . S
N159 C163 1.418 . S
C160 H139 0.929 . S
C160 C158 1.446 . S
C160 C161 1.332 . S
C161 H141 0.931 . S
C161 C160 1.332 . S
C161 C162 1.267 . S
C162 H130 0.929 . S
C162 C161 1.267 . S
C162 C163 1.251 . S
C163 H133 0.929 . S
C163 N159 1.418 . S
C163 C162 1.251 . S
C164 H131 0.930 . S
C164 C166 1.406 . S
C164 C169 1.261 . S
C165 H132 0.930 . S
C165 N167 1.325 . S
C165 C168 1.357 . S
C166 H134 0.928 . S
C166 C164 1.406 . S
C166 N167 1.261 . S
N167 Co118 2.214 . S
N167 C165 1.325 . S
N167 C166 1.261 . S
C168 H138 0.931 . S
C168 C165 1.357 . S
C168 C169 1.312 . S
C169 H140 0.930 . S
C169 C164 1.261 . S
C169 C168 1.312 . S
C170 O142 1.214 . S
C170 O150 1.234 1_554 S
C171 H143 0.929 . S
C171 C174 1.391 . S
C171 C176 1.391 . S
C172 H144 0.929 . S
C172 C173 1.390 . S
C172 N175 1.391 . S
C173 H145 0.930 . S
C173 C172 1.390 . S
C173 C174 1.392 . S
C174 H146 0.929 . S
C174 C171 1.391 . S
C174 C173 1.392 . S
N175 Co119 2.257 . S
N175 C172 1.391 . S
N175 C176 1.388 . S
C176 H147 0.930 . S
C176 C171 1.391 . S
C176 N175 1.388 . S
Co177 O179 2.143 . S
Co177 O185 2.074 . S
Co177 O188 2.093 . S
Co177 O201 2.097 . S
Co177 N218 2.151 . S
Co177 N226 2.214 . S
Co178 O179 2.160 . S
Co178 O184 2.058 . S
Co178 O194 2.057 1_556 S
Co178 O209 2.037 . S
Co178 N213 2.145 1_556 S
Co178 N234 2.257 1_556 S
O179 Co177 2.143 . S
O179 Co178 2.160 . S
C180 O181 1.278 . S
C180 O188 1.224 . S
O181 C180 1.278 . S
C182 O183 1.245 1_554 S
C182 O194 1.232 . S
O183 C182 1.245 1_556 S
O184 Co178 2.058 . S
O184 C210 1.269 . S
O185 Co177 2.074 . S
O185 C210 1.257 . S
H186 C211 0.930 . S
H187 C217 0.930 . S
O188 Co177 2.093 . S
O188 C180 1.224 . S
H189 C221 0.929 . S
H190 C223 0.930 . S
H191 C224 0.930 . S
H192 C222 0.929 . S
H193 C225 0.928 . S
O194 Co178 2.057 1_554 S
O194 C182 1.232 . S
H195 C214 0.929 1_556 S
H196 C215 0.929 . S
H197 C227 0.931 . S
H198 C219 0.929 . S
H199 C228 0.930 . S
H200 C220 0.931 . S
O201 Co177 2.097 . S
O201 C229 1.214 . S
H202 C230 0.929 . S
H203 C231 0.929 . S
H204 C232 0.930 . S
H205 C233 0.929 . S
H206 C235 0.930 . S
H207 C212 0.930 . S
H208 C216 0.930 . S
O209 Co178 2.037 . S
O209 C229 1.234 . S
C210 O184 1.269 . S
C210 O185 1.257 . S
C211 H186 0.930 . S
C211 C214 1.388 . S
C211 C216 1.418 . S
C212 H207 0.930 . S
C212 C215 1.404 . S
C212 C216 1.353 . S
N213 Co178 2.145 1_554 S
N213 C214 1.397 . S
N213 C215 1.334 . S
C214 H195 0.929 1_554 S
C214 C211 1.388 . S
C214 N213 1.397 . S
C215 H196 0.929 . S
C215 C212 1.404 . S
C215 N213 1.334 . S
C216 H208 0.930 . S
C216 C211 1.418 . S
C216 C212 1.353 . S
C217 H187 0.930 . S
C217 N218 1.330 . S
C217 C219 1.446 . S
N218 Co177 2.151 . S
N218 C217 1.330 . S
N218 C222 1.418 . S
C219 H198 0.929 . S
C219 C217 1.446 . S
C219 C220 1.332 . S
C220 H200 0.931 . S
C220 C219 1.332 . S
C220 C221 1.267 . S
C221 H189 0.929 . S
C221 C220 1.267 . S
C221 C222 1.251 . S
C222 H192 0.929 . S
C222 N218 1.418 . S
C222 C221 1.251 . S
C223 H190 0.930 . S
C223 C225 1.406 . S
C223 C228 1.261 . S
C224 H191 0.930 . S
C224 N226 1.325 . S
C224 C227 1.357 . S
C225 H193 0.928 . S
C225 C223 1.406 . S
C225 N226 1.261 . S
N226 Co177 2.214 . S
N226 C224 1.325 . S
N226 C225 1.261 . S
C227 H197 0.931 . S
C227 C224 1.357 . S
C227 C228 1.312 . S
C228 H199 0.930 . S
C228 C223 1.261 . S
C228 C227 1.312 . S
C229 O201 1.214 . S
C229 O209 1.234 . S
C230 H202 0.929 . S
C230 C233 1.391 . S
C230 C235 1.391 . S
C231 H203 0.929 . S
C231 C232 1.390 . S
C231 N234 1.391 . S
C232 H204 0.930 . S
C232 C231 1.390 . S
C232 C233 1.392 . S
C233 H205 0.929 . S
C233 C230 1.391 . S
C233 C232 1.392 . S
N234 Co178 2.257 1_554 S
N234 C231 1.391 . S
N234 C235 1.388 . S
C235 H206 0.930 . S
C235 C230 1.391 . S
C235 N234 1.388 . S
Co236 O238 2.143 . S
Co236 O244 2.074 . S
Co236 O247 2.093 . S
Co236 O260 2.097 . S
Co236 N277 2.151 1_554 S
Co236 N285 2.214 1_554 S
Co237 O238 2.160 . S
Co237 O243 2.058 . S
Co237 O253 2.057 . S
Co237 O268 2.037 . S
Co237 N272 2.145 . S
Co237 N293 2.257 . S
O238 Co236 2.143 . S
O238 Co237 2.160 . S
C239 O240 1.278 . S
C239 O247 1.224 . S
O240 C239 1.278 . S
C241 O242 1.245 . S
C241 O253 1.232 . S
O242 C241 1.245 . S
O243 Co237 2.058 . S
O243 C269 1.269 . S
O244 Co236 2.074 . S
O244 C269 1.257 . S
H245 C270 0.930 . S
H246 C276 0.930 1_554 S
O247 Co236 2.093 . S
O247 C239 1.224 . S
H248 C280 0.929 . S
H249 C282 0.930 . S
H250 C283 0.930 . S
H251 C281 0.929 . S
H252 C284 0.928 . S
O253 Co237 2.057 . S
O253 C241 1.232 . S
H254 C273 0.929 . S
H255 C274 0.929 . S
H256 C286 0.931 . S
H257 C278 0.929 . S
H258 C287 0.930 . S
H259 C279 0.931 . S
O260 Co236 2.097 . S
O260 C288 1.214 . S
H261 C289 0.929 . S
H262 C290 0.929 . S
H263 C291 0.930 . S
H264 C292 0.929 . S
H265 C294 0.930 . S
H266 C271 0.930 . S
H267 C275 0.930 . S
O268 Co237 2.037 . S
O268 C288 1.234 . S
C269 O243 1.269 . S
C269 O244 1.257 . S
C270 H245 0.930 . S
C270 C273 1.388 . S
C270 C275 1.418 . S
C271 H266 0.930 . S
C271 C274 1.404 . S
C271 C275 1.353 . S
N272 Co237 2.145 . S
N272 C273 1.397 . S
N272 C274 1.334 . S
C273 H254 0.929 . S
C273 C270 1.388 . S
C273 N272 1.397 . S
C274 H255 0.929 . S
C274 C271 1.404 . S
C274 N272 1.334 . S
C275 H267 0.930 . S
C275 C270 1.418 . S
C275 C271 1.353 . S
C276 H246 0.930 1_556 S
C276 N277 1.330 . S
C276 C278 1.446 . S
N277 Co236 2.151 1_556 S
N277 C276 1.330 . S
N277 C281 1.418 . S
C278 H257 0.929 . S
C278 C276 1.446 . S
C278 C279 1.332 . S
C279 H259 0.931 . S
C279 C278 1.332 . S
C279 C280 1.267 . S
C280 H248 0.929 . S
C280 C279 1.267 . S
C280 C281 1.251 . S
C281 H251 0.929 . S
C281 N277 1.418 . S
C281 C280 1.251 . S
C282 H249 0.930 . S
C282 C284 1.406 . S
C282 C287 1.261 . S
C283 H250 0.930 . S
C283 N285 1.325 . S
C283 C286 1.357 . S
C284 H252 0.928 . S
C284 C282 1.406 . S
C284 N285 1.261 . S
N285 Co236 2.214 1_556 S
N285 C283 1.325 . S
N285 C284 1.261 . S
C286 H256 0.931 . S
C286 C283 1.357 . S
C286 C287 1.312 . S
C287 H258 0.930 . S
C287 C282 1.261 . S
C287 C286 1.312 . S
C288 O260 1.214 . S
C288 O268 1.234 . S
C289 H261 0.929 . S
C289 C292 1.391 . S
C289 C294 1.391 . S
C290 H262 0.929 . S
C290 C291 1.390 . S
C290 N293 1.391 . S
C291 H263 0.930 . S
C291 C290 1.390 . S
C291 C292 1.392 . S
C292 H264 0.929 . S
C292 C289 1.391 . S
C292 C291 1.392 . S
N293 Co237 2.257 . S
N293 C290 1.391 . S
N293 C294 1.388 . S
C294 H265 0.930 . S
C294 C289 1.391 . S
C294 N293 1.388 . S
Co295 O297 2.140 1_554 S
Co295 O303 2.074 . S
Co295 O306 2.092 1_554 S
Co295 O319 2.096 1_554 S
Co295 N336 2.152 . S
Co295 N344 2.217 . S
Co296 O297 2.160 . S
Co296 O302 2.058 . S
Co296 O312 2.057 . S
Co296 O327 2.037 . S
Co296 N331 2.145 . S
Co296 N352 2.257 . S
O297 Co295 2.140 1_556 S
O297 Co296 2.160 . S
C298 O299 1.278 . S
C298 O306 1.224 . S
O299 C298 1.278 . S
C300 O301 1.245 . S
C300 O312 1.232 . S
O301 C300 1.245 . S
O302 Co296 2.058 . S
O302 C328 1.269 . S
O303 Co295 2.074 . S
O303 C328 1.257 1_554 S
H304 C329 0.930 . S
H305 C335 0.930 1_556 S
O306 Co295 2.092 1_556 S
O306 C298 1.224 . S
H307 C339 0.929 . S
H308 C341 0.930 . S
H309 C342 0.930 . S
H310 C340 0.929 . S
H311 C343 0.928 . S
O312 Co296 2.057 . S
O312 C300 1.232 . S
H313 C332 0.929 . S
H314 C333 0.929 . S
H315 C345 0.931 . S
H316 C337 0.929 . S
H317 C346 0.930 . S
H318 C338 0.931 . S
O319 Co295 2.096 1_556 S
O319 C347 1.214 . S
H320 C348 0.929 . S
H321 C349 0.929 . S
H322 C350 0.930 . S
H323 C351 0.929 . S
H324 C353 0.930 . S
H325 C330 0.930 . S
H326 C334 0.930 . S
O327 Co296 2.037 . S
O327 C347 1.234 . S
C328 O302 1.269 . S
C328 O303 1.257 1_556 S
C329 H304 0.930 . S
C329 C332 1.388 . S
C329 C334 1.418 . S
C330 H325 0.930 . S
C330 C333 1.404 . S
C330 C334 1.353 . S
N331 Co296 2.145 . S
N331 C332 1.397 . S
N331 C333 1.334 . S
C332 H313 0.929 . S
C332 C329 1.388 . S
C332 N331 1.397 . S
C333 H314 0.929 . S
C333 C330 1.404 . S
C333 N331 1.334 . S
C334 H326 0.930 . S
C334 C329 1.418 . S
C334 C330 1.353 . S
C335 H305 0.930 1_554 S
C335 N336 1.330 . S
C335 C337 1.446 . S
N336 Co295 2.152 . S
N336 C335 1.330 . S
N336 C340 1.418 . S
C337 H316 0.929 . S
C337 C335 1.446 . S
C337 C338 1.332 . S
C338 H318 0.931 . S
C338 C337 1.332 . S
C338 C339 1.267 . S
C339 H307 0.929 . S
C339 C338 1.267 . S
C339 C340 1.251 . S
C340 H310 0.929 . S
C340 N336 1.418 . S
C340 C339 1.251 . S
C341 H308 0.930 . S
C341 C343 1.406 . S
C341 C346 1.261 . S
C342 H309 0.930 . S
C342 N344 1.325 . S
C342 C345 1.357 . S
C343 H311 0.928 . S
C343 C341 1.406 . S
C343 N344 1.261 . S
N344 Co295 2.217 . S
N344 C342 1.325 . S
N344 C343 1.261 . S
C345 H315 0.931 . S
C345 C342 1.357 . S
C345 C346 1.312 . S
C346 H317 0.930 . S
C346 C341 1.261 . S
C346 C345 1.312 . S
C347 O319 1.214 . S
C347 O327 1.234 . S
C348 H320 0.929 . S
C348 C351 1.391 . S
C348 C353 1.391 . S
C349 H321 0.929 . S
C349 C350 1.390 . S
C349 N352 1.391 . S
C350 H322 0.930 . S
C350 C349 1.390 . S
C350 C351 1.392 . S
C351 H323 0.929 . S
C351 C348 1.391 . S
C351 C350 1.392 . S
N352 Co296 2.257 . S
N352 C349 1.391 . S
N352 C353 1.388 . S
C353 H324 0.930 . S
C353 C348 1.391 . S
C353 N352 1.388 . S
Co354 O356 2.143 . S
Co354 O362 2.074 . S
Co354 O365 2.093 . S
Co354 O378 2.097 . S
Co354 N395 2.151 1_554 S
Co354 N403 2.214 1_554 S
Co355 O356 2.160 . S
Co355 O361 2.058 . S
Co355 O371 2.057 . S
Co355 O386 2.037 . S
Co355 N390 2.145 . S
Co355 N411 2.257 . S
O356 Co354 2.143 . S
O356 Co355 2.160 . S
C357 O358 1.278 . S
C357 O365 1.224 . S
O358 C357 1.278 . S
C359 O360 1.245 . S
C359 O371 1.232 . S
O360 C359 1.245 . S
O361 Co355 2.058 . S
O361 C387 1.269 . S
O362 Co354 2.074 . S
O362 C387 1.257 . S
H363 C388 0.930 . S
H364 C394 0.930 1_554 S
O365 Co354 2.093 . S
O365 C357 1.224 . S
H366 C398 0.929 . S
H367 C400 0.930 . S
H368 C401 0.930 . S
H369 C399 0.929 . S
H370 C402 0.928 . S
O371 Co355 2.057 . S
O371 C359 1.232 . S
H372 C391 0.929 . S
H373 C392 0.929 . S
H374 C404 0.931 . S
H375 C396 0.929 . S
H376 C405 0.930 . S
H377 C397 0.931 . S
O378 Co354 2.097 . S
O378 C406 1.214 . S
H379 C407 0.929 . S
H380 C408 0.929 . S
H381 C409 0.930 . S
H382 C410 0.929 . S
H383 C412 0.930 . S
H384 C389 0.930 . S
H385 C393 0.930 . S
O386 Co355 2.037 . S
O386 C406 1.234 . S
C387 O361 1.269 . S
C387 O362 1.257 . S
C388 H363 0.930 . S
C388 C391 1.388 . S
C388 C393 1.418 . S
C389 H384 0.930 . S
C389 C392 1.404 . S
C389 C393 1.353 . S
N390 Co355 2.145 . S
N390 C391 1.397 . S
N390 C392 1.334 . S
C391 H372 0.929 . S
C391 C388 1.388 . S
C391 N390 1.397 . S
C392 H373 0.929 . S
C392 C389 1.404 . S
C392 N390 1.334 . S
C393 H385 0.930 . S
C393 C388 1.418 . S
C393 C389 1.353 . S
C394 H364 0.930 1_556 S
C394 N395 1.330 . S
C394 C396 1.446 . S
N395 Co354 2.151 1_556 S
N395 C394 1.330 . S
N395 C399 1.418 . S
C396 H375 0.929 . S
C396 C394 1.446 . S
C396 C397 1.332 . S
C397 H377 0.931 . S
C397 C396 1.332 . S
C397 C398 1.267 . S
C398 H366 0.929 . S
C398 C397 1.267 . S
C398 C399 1.251 . S
C399 H369 0.929 . S
C399 N395 1.418 . S
C399 C398 1.251 . S
C400 H367 0.930 . S
C400 C402 1.406 . S
C400 C405 1.261 . S
C401 H368 0.930 . S
C401 N403 1.325 . S
C401 C404 1.357 . S
C402 H370 0.928 . S
C402 C400 1.406 . S
C402 N403 1.261 . S
N403 Co354 2.214 1_556 S
N403 C401 1.325 . S
N403 C402 1.261 . S
C404 H374 0.931 . S
C404 C401 1.357 . S
C404 C405 1.312 . S
C405 H376 0.930 . S
C405 C400 1.261 . S
C405 C404 1.312 . S
C406 O378 1.214 . S
C406 O386 1.234 . S
C407 H379 0.929 . S
C407 C410 1.391 . S
C407 C412 1.391 . S
C408 H380 0.929 . S
C408 C409 1.390 . S
C408 N411 1.391 . S
C409 H381 0.930 . S
C409 C408 1.390 . S
C409 C410 1.392 . S
C410 H382 0.929 . S
C410 C407 1.391 . S
C410 C409 1.392 . S
N411 Co355 2.257 . S
N411 C408 1.391 . S
N411 C412 1.388 . S
C412 H383 0.930 . S
C412 C407 1.391 . S
C412 N411 1.388 . S
Co413 O415 2.143 1_554 S
Co413 O421 2.074 . S
Co413 O424 2.093 1_554 S
Co413 O437 2.097 1_554 S
Co413 N454 2.151 . S
Co413 N462 2.213 . S
Co414 O415 2.160 . S
Co414 O420 2.058 . S
Co414 O430 2.057 . S
Co414 O445 2.037 . S
Co414 N449 2.145 . S
Co414 N470 2.257 . S
O415 Co413 2.143 1_556 S
O415 Co414 2.160 . S
C416 O417 1.278 . S
C416 O424 1.224 . S
O417 C416 1.278 . S
C418 O419 1.245 . S
C418 O430 1.232 . S
O419 C418 1.245 . S
O420 Co414 2.058 . S
O420 C446 1.269 . S
O421 Co413 2.074 . S
O421 C446 1.257 1_554 S
H422 C447 0.930 . S
H423 C453 0.930 1_556 S
O424 Co413 2.093 1_556 S
O424 C416 1.224 . S
H425 C457 0.929 . S
H426 C459 0.930 . S
H427 C460 0.930 . S
H428 C458 0.929 . S
H429 C461 0.928 . S
O430 Co414 2.057 . S
O430 C418 1.232 . S
H431 C450 0.929 . S
H432 C451 0.929 . S
H433 C463 0.931 . S
H434 C455 0.929 . S
H435 C464 0.930 . S
H436 C456 0.931 . S
O437 Co413 2.097 1_556 S
O437 C465 1.214 . S
H438 C466 0.929 . S
H439 C467 0.929 . S
H440 C468 0.930 . S
H441 C469 0.929 . S
H442 C471 0.930 . S
H443 C448 0.930 . S
H444 C452 0.930 . S
O445 Co414 2.037 . S
O445 C465 1.234 . S
C446 O420 1.269 . S
C446 O421 1.257 1_556 S
C447 H422 0.930 . S
C447 C450 1.388 . S
C447 C452 1.418 . S
C448 H443 0.930 . S
C448 C451 1.404 . S
C448 C452 1.353 . S
N449 Co414 2.145 . S
N449 C450 1.397 . S
N449 C451 1.334 . S
C450 H431 0.929 . S
C450 C447 1.388 . S
C450 N449 1.397 . S
C451 H432 0.929 . S
C451 C448 1.404 . S
C451 N449 1.334 . S
C452 H444 0.930 . S
C452 C447 1.418 . S
C452 C448 1.353 . S
C453 H423 0.930 1_554 S
C453 N454 1.330 . S
C453 C455 1.446 . S
N454 Co413 2.151 . S
N454 C453 1.330 . S
N454 C458 1.418 . S
C455 H434 0.929 . S
C455 C453 1.446 . S
C455 C456 1.332 . S
C456 H436 0.931 . S
C456 C455 1.332 . S
C456 C457 1.267 . S
C457 H425 0.929 . S
C457 C456 1.267 . S
C457 C458 1.251 . S
C458 H428 0.929 . S
C458 N454 1.418 . S
C458 C457 1.251 . S
C459 H426 0.930 . S
C459 C461 1.406 . S
C459 C464 1.261 . S
C460 H427 0.930 . S
C460 N462 1.325 . S
C460 C463 1.357 . S
C461 H429 0.928 . S
C461 C459 1.406 . S
C461 N462 1.261 . S
N462 Co413 2.213 . S
N462 C460 1.325 . S
N462 C461 1.261 . S
C463 H433 0.931 . S
C463 C460 1.357 . S
C463 C464 1.312 . S
C464 H435 0.930 . S
C464 C459 1.261 . S
C464 C463 1.312 . S
C465 O437 1.214 . S
C465 O445 1.234 . S
C466 H438 0.929 . S
C466 C469 1.391 . S
C466 C471 1.391 . S
C467 H439 0.929 . S
C467 C468 1.390 . S
C467 N470 1.391 . S
C468 H440 0.930 . S
C468 C467 1.390 . S
C468 C469 1.392 . S
C469 H441 0.929 . S
C469 C466 1.391 . S
C469 C468 1.392 . S
N470 Co414 2.257 . S
N470 C467 1.391 . S
N470 C471 1.388 . S
C471 H442 0.930 . S
C471 C466 1.391 . S
C471 N470 1.388 . S
Co472 O474 2.143 . S
Co472 O480 2.074 . S
Co472 O483 2.093 . S
Co472 O496 2.097 . S
Co472 N513 2.151 . S
Co472 N521 2.214 . S
Co473 O474 2.160 . S
Co473 O479 2.058 . S
Co473 O489 2.057 . S
Co473 O504 2.037 . S
Co473 N508 2.145 . S
Co473 N529 2.257 . S
O474 Co472 2.143 . S
O474 Co473 2.160 . S
C475 O476 1.278 . S
C475 O483 1.224 . S
O476 C475 1.278 . S
C477 O478 1.245 . S
C477 O489 1.232 . S
O478 C477 1.245 . S
O479 Co473 2.058 . S
O479 C505 1.269 . S
O480 Co472 2.074 . S
O480 C505 1.257 . S
H481 C506 0.930 . S
H482 C512 0.930 . S
O483 Co472 2.093 . S
O483 C475 1.224 . S
H484 C516 0.929 . S
H485 C518 0.930 1_554 S
H486 C519 0.930 . S
H487 C517 0.929 . S
H488 C520 0.928 . S
O489 Co473 2.057 . S
O489 C477 1.232 . S
H490 C509 0.929 . S
H491 C510 0.929 . S
H492 C522 0.931 . S
H493 C514 0.929 . S
H494 C523 0.930 1_554 S
H495 C515 0.931 . S
O496 Co472 2.097 . S
O496 C524 1.214 . S
H497 C525 0.929 . S
H498 C526 0.929 . S
H499 C527 0.930 . S
H500 C528 0.929 . S
H501 C530 0.930 . S
H502 C507 0.930 . S
H503 C511 0.930 . S
O504 Co473 2.037 . S
O504 C524 1.234 . S
C505 O479 1.269 . S
C505 O480 1.257 . S
C506 H481 0.930 . S
C506 C509 1.388 . S
C506 C511 1.418 . S
C507 H502 0.930 . S
C507 C510 1.404 . S
C507 C511 1.353 . S
N508 Co473 2.145 . S
N508 C509 1.397 . S
N508 C510 1.334 . S
C509 H490 0.929 . S
C509 C506 1.388 . S
C509 N508 1.397 . S
C510 H491 0.929 . S
C510 C507 1.404 . S
C510 N508 1.334 . S
C511 H503 0.930 . S
C511 C506 1.418 . S
C511 C507 1.353 . S
C512 H482 0.930 . S
C512 N513 1.330 . S
C512 C514 1.446 . S
N513 Co472 2.151 . S
N513 C512 1.330 . S
N513 C517 1.418 . S
C514 H493 0.929 . S
C514 C512 1.446 . S
C514 C515 1.332 . S
C515 H495 0.931 . S
C515 C514 1.332 . S
C515 C516 1.267 . S
C516 H484 0.929 . S
C516 C515 1.267 . S
C516 C517 1.251 . S
C517 H487 0.929 . S
C517 N513 1.418 . S
C517 C516 1.251 . S
C518 H485 0.930 1_556 S
C518 C520 1.406 . S
C518 C523 1.261 . S
C519 H486 0.930 . S
C519 N521 1.325 . S
C519 C522 1.357 . S
C520 H488 0.928 . S
C520 C518 1.406 . S
C520 N521 1.261 . S
N521 Co472 2.214 . S
N521 C519 1.325 . S
N521 C520 1.261 . S
C522 H492 0.931 . S
C522 C519 1.357 . S
C522 C523 1.312 . S
C523 H494 0.930 1_556 S
C523 C518 1.261 . S
C523 C522 1.312 . S
C524 O496 1.214 . S
C524 O504 1.234 . S
C525 H497 0.929 . S
C525 C528 1.391 . S
C525 C530 1.391 . S
C526 H498 0.929 . S
C526 C527 1.390 . S
C526 N529 1.391 . S
C527 H499 0.930 . S
C527 C526 1.390 . S
C527 C528 1.392 . S
C528 H500 0.929 . S
C528 C525 1.391 . S
C528 C527 1.392 . S
N529 Co473 2.257 . S
N529 C526 1.391 . S
N529 C530 1.388 . S
C530 H501 0.930 . S
C530 C525 1.391 . S
C530 N529 1.388 . S
Co531 O533 2.143 . S
Co531 O539 2.074 . S
Co531 O542 2.093 . S
Co531 O555 2.097 . S
Co531 N572 2.151 . S
Co531 N580 2.214 . S
Co532 O533 2.160 . S
Co532 O538 2.058 . S
Co532 O548 2.057 . S
Co532 O563 2.037 . S
Co532 N567 2.145 . S
Co532 N588 2.257 . S
O533 Co531 2.143 . S
O533 Co532 2.160 . S
C534 O535 1.278 . S
C534 O542 1.224 . S
O535 C534 1.278 . S
C536 O537 1.245 . S
C536 O548 1.232 . S
O537 C536 1.245 . S
O538 Co532 2.058 . S
O538 C564 1.269 . S
O539 Co531 2.074 . S
O539 C564 1.257 . S
H540 C565 0.930 . S
H541 C571 0.930 . S
O542 Co531 2.093 . S
O542 C534 1.224 . S
H543 C575 0.929 . S
H544 C577 0.930 . S
H545 C578 0.930 . S
H546 C576 0.929 . S
H547 C579 0.928 . S
O548 Co532 2.057 . S
O548 C536 1.232 . S
H549 C568 0.929 . S
H550 C569 0.929 . S
H551 C581 0.931 1_556 S
H552 C573 0.929 . S
H553 C582 0.930 . S
H554 C574 0.931 . S
O555 Co531 2.097 . S
O555 C583 1.214 . S
H556 C584 0.929 . S
H557 C585 0.929 . S
H558 C586 0.930 . S
H559 C587 0.929 . S
H560 C589 0.930 . S
H561 C566 0.930 . S
H562 C570 0.930 . S
O563 Co532 2.037 . S
O563 C583 1.234 . S
C564 O538 1.269 . S
C564 O539 1.257 . S
C565 H540 0.930 . S
C565 C568 1.388 . S
C565 C570 1.418 . S
C566 H561 0.930 . S
C566 C569 1.404 . S
C566 C570 1.353 . S
N567 Co532 2.145 . S
N567 C568 1.397 . S
N567 C569 1.334 . S
C568 H549 0.929 . S
C568 C565 1.388 . S
C568 N567 1.397 . S
C569 H550 0.929 . S
C569 C566 1.404 . S
C569 N567 1.334 . S
C570 H562 0.930 . S
C570 C565 1.418 . S
C570 C566 1.353 . S
C571 H541 0.930 . S
C571 N572 1.330 . S
C571 C573 1.446 . S
N572 Co531 2.151 . S
N572 C571 1.330 . S
N572 C576 1.418 . S
C573 H552 0.929 . S
C573 C571 1.446 . S
C573 C574 1.332 . S
C574 H554 0.931 . S
C574 C573 1.332 . S
C574 C575 1.267 . S
C575 H543 0.929 . S
C575 C574 1.267 . S
C575 C576 1.251 . S
C576 H546 0.929 . S
C576 N572 1.418 . S
C576 C575 1.251 . S
C577 H544 0.930 . S
C577 C579 1.406 1_556 S
C577 C582 1.261 . S
C578 H545 0.930 . S
C578 N580 1.325 . S
C578 C581 1.357 . S
C579 H547 0.928 . S
C579 C577 1.406 1_554 S
C579 N580 1.261 . S
N580 Co531 2.214 . S
N580 C578 1.325 . S
N580 C579 1.261 . S
C581 H551 0.931 1_554 S
C581 C578 1.357 . S
C581 C582 1.312 1_554 S
C582 H553 0.930 . S
C582 C577 1.261 . S
C582 C581 1.312 1_556 S
C583 O555 1.214 . S
C583 O563 1.234 . S
C584 H556 0.929 . S
C584 C587 1.391 . S
C584 C589 1.391 . S
C585 H557 0.929 . S
C585 C586 1.390 . S
C585 N588 1.391 . S
C586 H558 0.930 . S
C586 C585 1.390 . S
C586 C587 1.392 . S
C587 H559 0.929 . S
C587 C584 1.391 . S
C587 C586 1.392 . S
N588 Co532 2.257 . S
N588 C585 1.391 . S
N588 C589 1.388 . S
C589 H560 0.930 . S
C589 C584 1.391 . S
C589 N588 1.388 . S
Co590 O592 2.143 . S
Co590 O598 2.074 . S
Co590 O601 2.093 . S
Co590 O614 2.097 . S
Co590 N631 2.151 . S
Co590 N639 2.214 . S
Co591 O592 2.160 . S
Co591 O597 2.058 . S
Co591 O607 2.057 . S
Co591 O622 2.037 . S
Co591 N626 2.145 . S
Co591 N647 2.257 . S
O592 Co590 2.143 . S
O592 Co591 2.160 . S
C593 O594 1.278 . S
C593 O601 1.224 . S
O594 C593 1.278 . S
C595 O596 1.245 . S
C595 O607 1.232 . S
O596 C595 1.245 . S
O597 Co591 2.058 . S
O597 C623 1.269 . S
O598 Co590 2.074 . S
O598 C623 1.257 . S
H599 C624 0.930 . S
H600 C630 0.930 . S
O601 Co590 2.093 . S
O601 C593 1.224 . S
H602 C634 0.929 . S
H603 C636 0.930 1_554 S
H604 C637 0.930 . S
H605 C635 0.929 . S
H606 C638 0.928 . S
O607 Co591 2.057 . S
O607 C595 1.232 . S
H608 C627 0.929 . S
H609 C628 0.929 . S
H610 C640 0.931 . S
H611 C632 0.929 . S
H612 C641 0.930 1_554 S
H613 C633 0.931 . S
O614 Co590 2.097 . S
O614 C642 1.214 . S
H615 C643 0.929 . S
H616 C644 0.929 . S
H617 C645 0.930 . S
H618 C646 0.929 . S
H619 C648 0.930 . S
H620 C625 0.930 . S
H621 C629 0.930 . S
O622 Co591 2.037 . S
O622 C642 1.234 . S
C623 O597 1.269 . S
C623 O598 1.257 . S
C624 H599 0.930 . S
C624 C627 1.388 . S
C624 C629 1.418 . S
C625 H620 0.930 . S
C625 C628 1.404 . S
C625 C629 1.353 . S
N626 Co591 2.145 . S
N626 C627 1.397 . S
N626 C628 1.334 . S
C627 H608 0.929 . S
C627 C624 1.388 . S
C627 N626 1.397 . S
C628 H609 0.929 . S
C628 C625 1.404 . S
C628 N626 1.334 . S
C629 H621 0.930 . S
C629 C624 1.418 . S
C629 C625 1.353 . S
C630 H600 0.930 . S
C630 N631 1.330 . S
C630 C632 1.446 . S
N631 Co590 2.151 . S
N631 C630 1.330 . S
N631 C635 1.418 . S
C632 H611 0.929 . S
C632 C630 1.446 . S
C632 C633 1.332 . S
C633 H613 0.931 . S
C633 C632 1.332 . S
C633 C634 1.267 . S
C634 H602 0.929 . S
C634 C633 1.267 . S
C634 C635 1.251 . S
C635 H605 0.929 . S
C635 N631 1.418 . S
C635 C634 1.251 . S
C636 H603 0.930 1_556 S
C636 C638 1.406 . S
C636 C641 1.261 . S
C637 H604 0.930 . S
C637 N639 1.325 . S
C637 C640 1.357 . S
C638 H606 0.928 . S
C638 C636 1.406 . S
C638 N639 1.261 . S
N639 Co590 2.214 . S
N639 C637 1.325 . S
N639 C638 1.261 . S
C640 H610 0.931 . S
C640 C637 1.357 . S
C640 C641 1.312 . S
C641 H612 0.930 1_556 S
C641 C636 1.261 . S
C641 C640 1.312 . S
C642 O614 1.214 . S
C642 O622 1.234 . S
C643 H615 0.929 . S
C643 C646 1.391 . S
C643 C648 1.391 . S
C644 H616 0.929 . S
C644 C645 1.390 . S
C644 N647 1.391 . S
C645 H617 0.930 . S
C645 C644 1.390 . S
C645 C646 1.392 . S
C646 H618 0.929 . S
C646 C643 1.391 . S
C646 C645 1.392 . S
N647 Co591 2.257 . S
N647 C644 1.391 . S
N647 C648 1.388 . S
C648 H619 0.930 . S
C648 C643 1.391 . S
C648 N647 1.388 . S
Co649 O651 2.143 . S
Co649 O657 2.074 . S
Co649 O660 2.093 . S
Co649 O673 2.097 . S
Co649 N690 2.151 . S
Co649 N698 2.214 . S
Co650 O651 2.160 . S
Co650 O656 2.058 . S
Co650 O666 2.057 . S
Co650 O681 2.037 . S
Co650 N685 2.145 . S
Co650 N706 2.257 . S
O651 Co649 2.143 . S
O651 Co650 2.160 . S
C652 O653 1.278 . S
C652 O660 1.224 . S
O653 C652 1.278 . S
C654 O655 1.245 . S
C654 O666 1.232 . S
O655 C654 1.245 . S
O656 Co650 2.058 . S
O656 C682 1.269 . S
O657 Co649 2.074 . S
O657 C682 1.257 . S
H658 C683 0.930 . S
H659 C689 0.930 . S
O660 Co649 2.093 . S
O660 C652 1.224 . S
H661 C693 0.929 . S
H662 C695 0.930 . S
H663 C696 0.930 . S
H664 C694 0.929 . S
H665 C697 0.928 . S
O666 Co650 2.057 . S
O666 C654 1.232 . S
H667 C686 0.929 . S
H668 C687 0.929 . S
H669 C699 0.931 1_556 S
H670 C691 0.929 . S
H671 C700 0.930 . S
H672 C692 0.931 . S
O673 Co649 2.097 . S
O673 C701 1.214 . S
H674 C702 0.929 . S
H675 C703 0.929 . S
H676 C704 0.930 . S
H677 C705 0.929 . S
H678 C707 0.930 . S
H679 C684 0.930 . S
H680 C688 0.930 . S
O681 Co650 2.037 . S
O681 C701 1.234 . S
C682 O656 1.269 . S
C682 O657 1.257 . S
C683 H658 0.930 . S
C683 C686 1.388 . S
C683 C688 1.418 . S
C684 H679 0.930 . S
C684 C687 1.404 . S
C684 C688 1.353 . S
N685 Co650 2.145 . S
N685 C686 1.397 . S
N685 C687 1.334 . S
C686 H667 0.929 . S
C686 C683 1.388 . S
C686 N685 1.397 . S
C687 H668 0.929 . S
C687 C684 1.404 . S
C687 N685 1.334 . S
C688 H680 0.930 . S
C688 C683 1.418 . S
C688 C684 1.353 . S
C689 H659 0.930 . S
C689 N690 1.330 . S
C689 C691 1.446 . S
N690 Co649 2.151 . S
N690 C689 1.330 . S
N690 C694 1.418 . S
C691 H670 0.929 . S
C691 C689 1.446 . S
C691 C692 1.332 . S
C692 H672 0.931 . S
C692 C691 1.332 . S
C692 C693 1.267 . S
C693 H661 0.929 . S
C693 C692 1.267 . S
C693 C694 1.251 . S
C694 H664 0.929 . S
C694 N690 1.418 . S
C694 C693 1.251 . S
C695 H662 0.930 . S
C695 C697 1.406 1_556 S
C695 C700 1.261 . S
C696 H663 0.930 . S
C696 N698 1.325 . S
C696 C699 1.357 . S
C697 H665 0.928 . S
C697 C695 1.406 1_554 S
C697 N698 1.261 . S
N698 Co649 2.214 . S
N698 C696 1.325 . S
N698 C697 1.261 . S
C699 H669 0.931 1_554 S
C699 C696 1.357 . S
C699 C700 1.312 1_554 S
C700 H671 0.930 . S
C700 C695 1.261 . S
C700 C699 1.312 1_556 S
C701 O673 1.214 . S
C701 O681 1.234 . S
C702 H674 0.929 . S
C702 C705 1.391 . S
C702 C707 1.391 . S
C703 H675 0.929 . S
C703 C704 1.390 . S
C703 N706 1.391 . S
C704 H676 0.930 . S
C704 C703 1.390 . S
C704 C705 1.392 . S
C705 H677 0.929 . S
C705 C702 1.391 . S
C705 C704 1.392 . S
N706 Co650 2.257 . S
N706 C703 1.391 . S
N706 C707 1.388 . S
C707 H678 0.930 . S
C707 C702 1.391 . S
C707 N706 1.388 . S
Co708 O710 2.143 . S
Co708 O716 2.074 . S
Co708 O719 2.093 . S
Co708 O732 2.097 . S
Co708 N749 2.151 . S
Co708 N757 2.214 . S
Co709 O710 2.160 . S
Co709 O715 2.058 . S
Co709 O725 2.057 . S
Co709 O740 2.037 . S
Co709 N744 2.145 . S
Co709 N765 2.257 . S
O710 Co708 2.143 . S
O710 Co709 2.160 . S
C711 O712 1.278 . S
C711 O719 1.224 . S
O712 C711 1.278 . S
C713 O714 1.245 . S
C713 O725 1.232 . S
O714 C713 1.245 . S
O715 Co709 2.058 . S
O715 C741 1.269 . S
O716 Co708 2.074 . S
O716 C741 1.257 . S
H717 C742 0.930 . S
H718 C748 0.930 . S
O719 Co708 2.093 . S
O719 C711 1.224 . S
H720 C752 0.929 . S
H721 C754 0.930 . S
H722 C755 0.930 . S
H723 C753 0.929 . S
H724 C756 0.928 . S
O725 Co709 2.057 . S
O725 C713 1.232 . S
H726 C745 0.929 . S
H727 C746 0.929 1_554 S
H728 C758 0.931 . S
H729 C750 0.929 . S
H730 C759 0.930 . S
H731 C751 0.931 . S
O732 Co708 2.097 . S
O732 C760 1.214 . S
H733 C761 0.929 . S
H734 C762 0.929 . S
H735 C763 0.930 . S
H736 C764 0.929 . S
H737 C766 0.930 . S
H738 C743 0.930 . S
H739 C747 0.930 . S
O740 Co709 2.037 . S
O740 C760 1.234 . S
C741 O715 1.269 . S
C741 O716 1.257 . S
C742 H717 0.930 . S
C742 C745 1.388 . S
C742 C747 1.418 1_556 S
C743 H738 0.930 . S
C743 C746 1.404 1_554 S
C743 C747 1.353 . S
N744 Co709 2.145 . S
N744 C745 1.397 . S
N744 C746 1.334 . S
C745 H726 0.929 . S
C745 C742 1.388 . S
C745 N744 1.397 . S
C746 H727 0.929 1_556 S
C746 C743 1.404 1_556 S
C746 N744 1.334 . S
C747 H739 0.930 . S
C747 C742 1.418 1_554 S
C747 C743 1.353 . S
C748 H718 0.930 . S
C748 N749 1.330 . S
C748 C750 1.446 . S
N749 Co708 2.151 . S
N749 C748 1.330 . S
N749 C753 1.418 . S
C750 H729 0.929 . S
C750 C748 1.446 . S
C750 C751 1.332 . S
C751 H731 0.931 . S
C751 C750 1.332 . S
C751 C752 1.267 . S
C752 H720 0.929 . S
C752 C751 1.267 . S
C752 C753 1.251 . S
C753 H723 0.929 . S
C753 N749 1.418 . S
C753 C752 1.251 . S
C754 H721 0.930 . S
C754 C756 1.406 . S
C754 C759 1.261 . S
C755 H722 0.930 . S
C755 N757 1.325 . S
C755 C758 1.357 . S
C756 H724 0.928 . S
C756 C754 1.406 . S
C756 N757 1.261 . S
N757 Co708 2.214 . S
N757 C755 1.325 . S
N757 C756 1.261 . S
C758 H728 0.931 . S
C758 C755 1.357 . S
C758 C759 1.312 . S
C759 H730 0.930 . S
C759 C754 1.261 . S
C759 C758 1.312 . S
C760 O732 1.214 . S
C760 O740 1.234 . S
C761 H733 0.929 . S
C761 C764 1.391 . S
C761 C766 1.391 . S
C762 H734 0.929 . S
C762 C763 1.390 . S
C762 N765 1.391 . S
C763 H735 0.930 . S
C763 C762 1.390 . S
C763 C764 1.392 . S
C764 H736 0.929 . S
C764 C761 1.391 . S
C764 C763 1.392 . S
N765 Co709 2.257 . S
N765 C762 1.391 . S
N765 C766 1.388 . S
C766 H737 0.930 . S
C766 C761 1.391 . S
C766 N765 1.388 . S
Co767 O769 2.143 . S
Co767 O775 2.074 . S
Co767 O778 2.093 . S
Co767 O791 2.097 . S
Co767 N808 2.151 . S
Co767 N816 2.214 . S
Co768 O769 2.160 . S
Co768 O774 2.058 . S
Co768 O784 2.057 . S
Co768 O799 2.037 . S
Co768 N803 2.145 . S
Co768 N824 2.257 . S
O769 Co767 2.143 . S
O769 Co768 2.160 . S
C770 O771 1.278 . S
C770 O778 1.224 . S
O771 C770 1.278 . S
C772 O773 1.245 . S
C772 O784 1.232 . S
O773 C772 1.245 . S
O774 Co768 2.058 . S
O774 C800 1.269 . S
O775 Co767 2.074 . S
O775 C800 1.257 . S
H776 C801 0.930 . S
H777 C807 0.930 . S
O778 Co767 2.093 . S
O778 C770 1.224 . S
H779 C811 0.929 . S
H780 C813 0.930 . S
H781 C814 0.930 . S
H782 C812 0.929 . S
H783 C815 0.928 . S
O784 Co768 2.057 . S
O784 C772 1.232 . S
H785 C804 0.929 . S
H786 C805 0.929 . S
H787 C817 0.931 . S
H788 C809 0.929 . S
H789 C818 0.930 . S
H790 C810 0.931 . S
O791 Co767 2.097 . S
O791 C819 1.214 . S
H792 C820 0.929 . S
H793 C821 0.929 . S
H794 C822 0.930 . S
H795 C823 0.929 . S
H796 C825 0.930 . S
H797 C802 0.930 . S
H798 C806 0.930 . S
O799 Co768 2.037 . S
O799 C819 1.234 . S
C800 O774 1.269 . S
C800 O775 1.257 . S
C801 H776 0.930 . S
C801 C804 1.388 . S
C801 C806 1.418 . S
C802 H797 0.930 . S
C802 C805 1.404 . S
C802 C806 1.353 . S
N803 Co768 2.145 . S
N803 C804 1.397 . S
N803 C805 1.334 . S
C804 H785 0.929 . S
C804 C801 1.388 . S
C804 N803 1.397 . S
C805 H786 0.929 . S
C805 C802 1.404 . S
C805 N803 1.334 . S
C806 H798 0.930 . S
C806 C801 1.418 . S
C806 C802 1.353 . S
C807 H777 0.930 . S
C807 N808 1.330 . S
C807 C809 1.446 . S
N808 Co767 2.151 . S
N808 C807 1.330 . S
N808 C812 1.418 . S
C809 H788 0.929 . S
C809 C807 1.446 . S
C809 C810 1.332 . S
C810 H790 0.931 . S
C810 C809 1.332 . S
C810 C811 1.267 . S
C811 H779 0.929 . S
C811 C810 1.267 . S
C811 C812 1.251 . S
C812 H782 0.929 . S
C812 N808 1.418 . S
C812 C811 1.251 . S
C813 H780 0.930 . S
C813 C815 1.406 . S
C813 C818 1.261 . S
C814 H781 0.930 . S
C814 N816 1.325 . S
C814 C817 1.357 . S
C815 H783 0.928 . S
C815 C813 1.406 . S
C815 N816 1.261 . S
N816 Co767 2.214 . S
N816 C814 1.325 . S
N816 C815 1.261 . S
C817 H787 0.931 . S
C817 C814 1.357 . S
C817 C818 1.312 . S
C818 H789 0.930 . S
C818 C813 1.261 . S
C818 C817 1.312 . S
C819 O791 1.214 . S
C819 O799 1.234 . S
C820 H792 0.929 . S
C820 C823 1.391 . S
C820 C825 1.391 . S
C821 H793 0.929 . S
C821 C822 1.390 . S
C821 N824 1.391 . S
C822 H794 0.930 . S
C822 C821 1.390 . S
C822 C823 1.392 . S
C823 H795 0.929 . S
C823 C820 1.391 . S
C823 C822 1.392 . S
N824 Co768 2.257 . S
N824 C821 1.391 . S
N824 C825 1.388 . S
C825 H796 0.930 . S
C825 C820 1.391 . S
C825 N824 1.388 . S
Co826 O828 2.143 . S
Co826 O834 2.074 . S
Co826 O837 2.093 . S
Co826 O850 2.097 . S
Co826 N867 2.151 . S
Co826 N875 2.214 . S
Co827 O828 2.160 . S
Co827 O833 2.058 . S
Co827 O843 2.057 . S
Co827 O858 2.037 . S
Co827 N862 2.145 . S
Co827 N883 2.257 . S
O828 Co826 2.143 . S
O828 Co827 2.160 . S
C829 O830 1.278 . S
C829 O837 1.224 . S
O830 C829 1.278 . S
C831 O832 1.245 . S
C831 O843 1.232 . S
O832 C831 1.245 . S
O833 Co827 2.058 . S
O833 C859 1.269 . S
O834 Co826 2.074 . S
O834 C859 1.257 . S
H835 C860 0.930 . S
H836 C866 0.930 . S
O837 Co826 2.093 . S
O837 C829 1.224 . S
H838 C870 0.929 . S
H839 C872 0.930 . S
H840 C873 0.930 . S
H841 C871 0.929 . S
H842 C874 0.928 . S
O843 Co827 2.057 . S
O843 C831 1.232 . S
H844 C863 0.929 . S
H845 C864 0.929 1_554 S
H846 C876 0.931 . S
H847 C868 0.929 . S
H848 C877 0.930 . S
H849 C869 0.931 . S
O850 Co826 2.097 . S
O850 C878 1.214 . S
H851 C879 0.929 . S
H852 C880 0.929 . S
H853 C881 0.930 . S
H854 C882 0.929 . S
H855 C884 0.930 . S
H856 C861 0.930 . S
H857 C865 0.930 . S
O858 Co827 2.037 . S
O858 C878 1.234 . S
C859 O833 1.269 . S
C859 O834 1.257 . S
C860 H835 0.930 . S
C860 C863 1.388 . S
C860 C865 1.418 1_556 S
C861 H856 0.930 . S
C861 C864 1.404 1_554 S
C861 C865 1.353 . S
N862 Co827 2.145 . S
N862 C863 1.397 . S
N862 C864 1.334 . S
C863 H844 0.929 . S
C863 C860 1.388 . S
C863 N862 1.397 . S
C864 H845 0.929 1_556 S
C864 C861 1.404 1_556 S
C864 N862 1.334 . S
C865 H857 0.930 . S
C865 C860 1.418 1_554 S
C865 C861 1.353 . S
C866 H836 0.930 . S
C866 N867 1.330 . S
C866 C868 1.446 . S
N867 Co826 2.151 . S
N867 C866 1.330 . S
N867 C871 1.418 . S
C868 H847 0.929 . S
C868 C866 1.446 . S
C868 C869 1.332 . S
C869 H849 0.931 . S
C869 C868 1.332 . S
C869 C870 1.267 . S
C870 H838 0.929 . S
C870 C869 1.267 . S
C870 C871 1.251 . S
C871 H841 0.929 . S
C871 N867 1.418 . S
C871 C870 1.251 . S
C872 H839 0.930 . S
C872 C874 1.406 . S
C872 C877 1.261 . S
C873 H840 0.930 . S
C873 N875 1.325 . S
C873 C876 1.357 . S
C874 H842 0.928 . S
C874 C872 1.406 . S
C874 N875 1.261 . S
N875 Co826 2.214 . S
N875 C873 1.325 . S
N875 C874 1.261 . S
C876 H846 0.931 . S
C876 C873 1.357 . S
C876 C877 1.312 . S
C877 H848 0.930 . S
C877 C872 1.261 . S
C877 C876 1.312 . S
C878 O850 1.214 . S
C878 O858 1.234 . S
C879 H851 0.929 . S
C879 C882 1.391 . S
C879 C884 1.391 . S
C880 H852 0.929 . S
C880 C881 1.390 . S
C880 N883 1.391 . S
C881 H853 0.930 . S
C881 C880 1.390 . S
C881 C882 1.392 . S
C882 H854 0.929 . S
C882 C879 1.391 . S
C882 C881 1.392 . S
N883 Co827 2.257 . S
N883 C880 1.391 . S
N883 C884 1.388 . S
C884 H855 0.930 . S
C884 C879 1.391 . S
C884 N883 1.388 . S
Co885 O887 2.143 . S
Co885 O893 2.074 . S
Co885 O896 2.093 . S
Co885 O909 2.097 . S
Co885 N926 2.151 . S
Co885 N934 2.214 . S
Co886 O887 2.160 . S
Co886 O892 2.058 . S
Co886 O902 2.057 . S
Co886 O917 2.037 . S
Co886 N921 2.145 . S
Co886 N942 2.257 . S
O887 Co885 2.143 . S
O887 Co886 2.160 . S
C888 O889 1.278 . S
C888 O896 1.224 . S
O889 C888 1.278 . S
C890 O891 1.245 . S
C890 O902 1.232 . S
O891 C890 1.245 . S
O892 Co886 2.058 . S
O892 C918 1.269 . S
O893 Co885 2.074 . S
O893 C918 1.257 . S
H894 C919 0.930 . S
H895 C925 0.930 . S
O896 Co885 2.093 . S
O896 C888 1.224 . S
H897 C929 0.929 . S
H898 C931 0.930 . S
H899 C932 0.930 . S
H900 C930 0.929 . S
H901 C933 0.928 . S
O902 Co886 2.057 . S
O902 C890 1.232 . S
H903 C922 0.929 . S
H904 C923 0.929 . S
H905 C935 0.931 . S
H906 C927 0.929 . S
H907 C936 0.930 . S
H908 C928 0.931 . S
O909 Co885 2.097 . S
O909 C937 1.214 . S
H910 C938 0.929 . S
H911 C939 0.929 . S
H912 C940 0.930 . S
H913 C941 0.929 . S
H914 C943 0.930 . S
H915 C920 0.930 . S
H916 C924 0.930 . S
O917 Co886 2.037 . S
O917 C937 1.234 . S
C918 O892 1.269 . S
C918 O893 1.257 . S
C919 H894 0.930 . S
C919 C922 1.388 . S
C919 C924 1.418 . S
C920 H915 0.930 . S
C920 C923 1.404 . S
C920 C924 1.353 . S
N921 Co886 2.145 . S
N921 C922 1.397 . S
N921 C923 1.334 . S
C922 H903 0.929 . S
C922 C919 1.388 . S
C922 N921 1.397 . S
C923 H904 0.929 . S
C923 C920 1.404 . S
C923 N921 1.334 . S
C924 H916 0.930 . S
C924 C919 1.418 . S
C924 C920 1.353 . S
C925 H895 0.930 . S
C925 N926 1.330 . S
C925 C927 1.446 . S
N926 Co885 2.151 . S
N926 C925 1.330 . S
N926 C930 1.418 . S
C927 H906 0.929 . S
C927 C925 1.446 . S
C927 C928 1.332 . S
C928 H908 0.931 . S
C928 C927 1.332 . S
C928 C929 1.267 . S
C929 H897 0.929 . S
C929 C928 1.267 . S
C929 C930 1.251 . S
C930 H900 0.929 . S
C930 N926 1.418 . S
C930 C929 1.251 . S
C931 H898 0.930 . S
C931 C933 1.406 . S
C931 C936 1.261 . S
C932 H899 0.930 . S
C932 N934 1.325 . S
C932 C935 1.357 . S
C933 H901 0.928 . S
C933 C931 1.406 . S
C933 N934 1.261 . S
N934 Co885 2.214 . S
N934 C932 1.325 . S
N934 C933 1.261 . S
C935 H905 0.931 . S
C935 C932 1.357 . S
C935 C936 1.312 . S
C936 H907 0.930 . S
C936 C931 1.261 . S
C936 C935 1.312 . S
C937 O909 1.214 . S
C937 O917 1.234 . S
C938 H910 0.929 . S
C938 C941 1.391 . S
C938 C943 1.391 . S
C939 H911 0.929 . S
C939 C940 1.390 . S
C939 N942 1.391 . S
C940 H912 0.930 . S
C940 C939 1.390 . S
C940 C941 1.392 . S
C941 H913 0.929 . S
C941 C938 1.391 . S
C941 C940 1.392 . S
N942 Co886 2.257 . S
N942 C939 1.391 . S
N942 C943 1.388 . S
C943 H914 0.930 . S
C943 C938 1.391 . S
C943 N942 1.388 . S
H944 C950 0.930 . S
H945 C953 0.930 . S
H946 C954 0.930 . S
H947 C955 0.930 . S
H948 C958 0.930 . S
H949 C959 0.930 . S
C950 H944 0.930 . S
C950 C951 1.355 . S
C950 C952 1.415 . S
C951 C950 1.355 . S
C951 C953 1.419 . S
C952 C950 1.415 . S
C952 C957 1.425 . S
C952 C959 1.409 1_565 S
C953 H945 0.930 . S
C953 C951 1.419 . S
C953 C954 1.362 . S
C954 H946 0.930 . S
C954 C953 1.362 . S
C954 C957 1.409 . S
C955 H947 0.930 . S
C955 C956 1.355 . S
C955 C957 1.415 1_545 S
C956 C955 1.355 . S
C956 C958 1.419 . S
C957 C952 1.425 . S
C957 C954 1.409 . S
C957 C955 1.415 1_565 S
C958 H948 0.930 . S
C958 C956 1.419 . S
C958 C959 1.362 . S
C959 H949 0.930 . S
C959 C952 1.409 1_545 S
C959 C958 1.362 . S
H960 C966 0.930 . S
H961 C969 0.930 . S
H962 C970 0.930 . S
H963 C971 0.930 . S
H964 C974 0.930 . S
H965 C975 0.930 . S
C966 H960 0.930 . S
C966 C967 1.355 . S
C966 C968 1.403 1_455 S
C967 C966 1.355 . S
C967 C969 1.419 . S
C968 C966 1.403 1_655 S
C968 C973 1.423 1_655 S
C968 C975 1.422 . S
C969 H961 0.930 . S
C969 C967 1.419 . S
C969 C970 1.362 . S
C970 H962 0.930 . S
C970 C969 1.362 . S
C970 C973 1.409 . S
C971 H963 0.930 . S
C971 C972 1.355 . S
C971 C973 1.415 1_655 S
C972 C971 1.355 . S
C972 C974 1.419 . S
C973 C968 1.423 1_455 S
C973 C970 1.409 . S
C973 C971 1.415 1_455 S
C974 H964 0.930 . S
C974 C972 1.419 . S
C974 C975 1.362 . S
C975 H965 0.930 . S
C975 C968 1.422 . S
C975 C974 1.362 . S
H976 C982 0.930 . S
H977 C985 0.930 . S
H978 C986 0.930 . S
H979 C987 0.930 . S
H980 C990 0.930 . S
H981 C991 0.930 . S
C982 H976 0.930 . S
C982 C983 1.355 . S
C982 C984 1.415 1_565 S
C983 C982 1.355 . S
C983 C985 1.419 . S
C984 C982 1.415 1_545 S
C984 C989 1.425 . S
C984 C991 1.409 . S
C985 H977 0.930 . S
C985 C983 1.419 . S
C985 C986 1.362 . S
C986 H978 0.930 . S
C986 C985 1.362 . S
C986 C989 1.409 1_565 S
C987 H979 0.930 . S
C987 C988 1.355 . S
C987 C989 1.415 . S
C988 C987 1.355 . S
C988 C990 1.419 . S
C989 C984 1.425 . S
C989 C986 1.409 1_545 S
C989 C987 1.415 . S
C990 H980 0.930 . S
C990 C988 1.419 . S
C990 C991 1.362 . S
C991 H981 0.930 . S
C991 C984 1.409 . S
C991 C990 1.362 . S
H992 C998 0.930 . S
H993 C1001 0.930 . S
H994 C1002 0.930 1_655 S
H995 C1003 0.930 . S
H996 C1006 0.930 . S
H997 C1007 0.930 1_455 S
C998 H992 0.930 . S
C998 C999 1.355 . S
C998 C1000 1.415 . S
C999 C998 1.355 . S
C999 C1001 1.419 . S
C1000 C998 1.415 . S
C1000 C1005 1.425 1_455 S
C1000 C1007 1.409 1_455 S
C1001 H993 0.930 . S
C1001 C999 1.419 . S
C1001 C1002 1.362 . S
C1002 H994 0.930 1_455 S
C1002 C1001 1.362 . S
C1002 C1005 1.409 1_455 S
C1003 H995 0.930 . S
C1003 C1004 1.355 . S
C1003 C1005 1.415 . S
C1004 C1003 1.355 . S
C1004 C1006 1.419 . S
C1005 C1000 1.425 1_655 S
C1005 C1002 1.409 1_655 S
C1005 C1003 1.415 . S
C1006 H996 0.930 . S
C1006 C1004 1.419 . S
C1006 C1007 1.362 . S
C1007 H997 0.930 1_655 S
C1007 C1000 1.409 1_655 S
C1007 C1006 1.362 . S
H1008 C1014 0.930 . S
H1009 C1017 0.930 . S
H1010 C1018 0.930 . S
H1011 C1019 0.930 1_554 S
H1012 C1022 0.930 . S
H1013 C1023 0.930 . S
C1014 H1008 0.930 . S
C1014 C1015 1.355 1_556 S
C1014 C1016 1.415 . S
C1015 C1014 1.355 1_554 S
C1015 C1017 1.419 . S
C1016 C1014 1.415 . S
C1016 C1021 1.425 1_556 S
C1016 C1023 1.409 . S
C1017 H1009 0.930 . S
C1017 C1015 1.419 . S
C1017 C1018 1.362 . S
C1018 H1010 0.930 . S
C1018 C1017 1.362 . S
C1018 C1021 1.409 . S
C1019 H1011 0.930 1_556 S
C1019 C1020 1.355 . S
C1019 C1021 1.415 1_556 S
C1020 C1019 1.355 . S
C1020 C1022 1.419 . S
C1021 C1016 1.425 1_554 S
C1021 C1018 1.409 . S
C1021 C1019 1.415 1_554 S
C1022 H1012 0.930 . S
C1022 C1020 1.419 . S
C1022 C1023 1.362 . S
C1023 H1013 0.930 . S
C1023 C1016 1.409 . S
C1023 C1022 1.362 . S
H1024 C1030 0.930 . S
H1025 C1033 0.930 . S
H1026 C1034 0.930 . S
H1027 C1035 0.930 . S
H1028 C1038 0.930 . S
H1029 C1039 0.930 . S
C1030 H1024 0.930 . S
C1030 C1031 1.355 . S
C1030 C1032 1.415 . S
C1031 C1030 1.355 . S
C1031 C1033 1.419 1_554 S
C1032 C1030 1.415 . S
C1032 C1037 1.425 . S
C1032 C1039 1.409 . S
C1033 H1025 0.930 . S
C1033 C1031 1.419 1_556 S
C1033 C1034 1.362 . S
C1034 H1026 0.930 . S
C1034 C1033 1.362 . S
C1034 C1037 1.409 1_556 S
C1035 H1027 0.930 . S
C1035 C1036 1.355 . S
C1035 C1037 1.415 . S
C1036 C1035 1.355 . S
C1036 C1038 1.419 . S
C1037 C1032 1.425 . S
C1037 C1034 1.409 1_554 S
C1037 C1035 1.415 . S
C1038 H1028 0.930 . S
C1038 C1036 1.419 . S
C1038 C1039 1.362 . S
C1039 H1029 0.930 . S
C1039 C1032 1.409 . S
C1039 C1038 1.362 . S
H1040 C1046 0.930 . S
H1041 C1049 0.930 . S
H1042 C1050 0.930 . S
H1043 C1051 0.930 . S
H1044 C1054 0.930 . S
H1045 C1055 0.930 . S
C1046 H1040 0.930 . S
C1046 C1047 1.355 . S
C1046 C1048 1.415 . S
C1047 C1046 1.355 . S
C1047 C1049 1.419 . S
C1048 C1046 1.415 . S
C1048 C1053 1.425 . S
C1048 C1055 1.409 1_556 S
C1049 H1041 0.930 . S
C1049 C1047 1.419 . S
C1049 C1050 1.362 . S
C1050 H1042 0.930 . S
C1050 C1049 1.362 . S
C1050 C1053 1.409 . S
C1051 H1043 0.930 . S
C1051 C1052 1.355 . S
C1051 C1053 1.415 1_554 S
C1052 C1051 1.355 . S
C1052 C1054 1.419 . S
C1053 C1048 1.425 . S
C1053 C1050 1.409 . S
C1053 C1051 1.415 1_556 S
C1054 H1044 0.930 . S
C1054 C1052 1.419 . S
C1054 C1055 1.362 . S
C1055 H1045 0.930 . S
C1055 C1048 1.409 1_554 S
C1055 C1054 1.362 . S
H1056 C1062 0.930 . S
H1057 C1065 0.930 . S
H1058 C1066 0.930 . S
H1059 C1067 0.930 . S
H1060 C1070 0.930 . S
H1061 C1071 0.930 . S
C1062 H1056 0.930 . S
C1062 C1063 1.355 . S
C1062 C1064 1.415 . S
C1063 C1062 1.355 . S
C1063 C1065 1.419 . S
C1064 C1062 1.415 . S
C1064 C1069 1.425 . S
C1064 C1071 1.409 1_554 S
C1065 H1057 0.930 . S
C1065 C1063 1.419 . S
C1065 C1066 1.362 . S
C1066 H1058 0.930 . S
C1066 C1065 1.362 . S
C1066 C1069 1.409 . S
C1067 H1059 0.930 . S
C1067 C1068 1.355 . S
C1067 C1069 1.415 . S
C1068 C1067 1.355 . S
C1068 C1070 1.419 1_554 S
C1069 C1064 1.425 . S
C1069 C1066 1.409 . S
C1069 C1067 1.415 . S
C1070 H1060 0.930 . S
C1070 C1068 1.419 1_556 S
C1070 C1071 1.362 . S
C1071 H1061 0.930 . S
C1071 C1064 1.409 1_556 S
C1071 C1070 1.362 . S
H1072 C1078 0.930 . S
H1073 C1081 0.930 . S
H1074 C1082 0.930 . S
H1075 C1083 0.930 . S
H1076 C1086 0.930 . S
H1077 C1087 0.930 . S
C1078 H1072 0.930 . S
C1078 C1079 1.355 . S
C1078 C1080 1.415 . S
C1079 C1078 1.355 . S
C1079 C1081 1.419 . S
C1080 C1078 1.415 . S
C1080 C1085 1.425 . S
C1080 C1087 1.409 . S
C1081 H1073 0.930 . S
C1081 C1079 1.419 . S
C1081 C1082 1.362 . S
C1082 H1074 0.930 . S
C1082 C1081 1.362 . S
C1082 C1085 1.409 . S
C1083 H1075 0.930 . S
C1083 C1084 1.355 . S
C1083 C1085 1.415 . S
C1084 C1083 1.355 . S
C1084 C1086 1.419 . S
C1085 C1080 1.425 . S
C1085 C1082 1.409 . S
C1085 C1083 1.415 . S
C1086 H1076 0.930 . S
C1086 C1084 1.419 . S
C1086 C1087 1.362 . S
C1087 H1077 0.930 . S
C1087 C1080 1.409 . S
C1087 C1086 1.362 . S
H1088 C1094 0.930 . S
H1089 C1097 0.930 . S
H1090 C1098 0.930 . S
H1091 C1099 0.930 . S
H1092 C1102 0.930 . S
H1093 C1103 0.930 . S
C1094 H1088 0.930 . S
C1094 C1095 1.355 . S
C1094 C1096 1.415 . S
C1095 C1094 1.355 . S
C1095 C1097 1.419 . S
C1096 C1094 1.415 . S
C1096 C1101 1.425 . S
C1096 C1103 1.409 . S
C1097 H1089 0.930 . S
C1097 C1095 1.419 . S
C1097 C1098 1.362 . S
C1098 H1090 0.930 . S
C1098 C1097 1.362 . S
C1098 C1101 1.409 . S
C1099 H1091 0.930 . S
C1099 C1100 1.355 . S
C1099 C1101 1.415 . S
C1100 C1099 1.355 . S
C1100 C1102 1.419 . S
C1101 C1096 1.425 . S
C1101 C1098 1.409 . S
C1101 C1099 1.415 . S
C1102 H1092 0.930 . S
C1102 C1100 1.419 . S
C1102 C1103 1.362 . S
C1103 H1093 0.930 . S
C1103 C1096 1.409 . S
C1103 C1102 1.362 . S
H1104 C1110 0.930 . S
H1105 C1113 0.930 . S
H1106 C1114 0.930 . S
H1107 C1115 0.930 . S
H1108 C1118 0.930 . S
H1109 C1119 0.930 . S
C1110 H1104 0.930 . S
C1110 C1111 1.355 . S
C1110 C1112 1.415 . S
C1111 C1110 1.355 . S
C1111 C1113 1.419 . S
C1112 C1110 1.415 . S
C1112 C1117 1.425 . S
C1112 C1119 1.409 . S
C1113 H1105 0.930 . S
C1113 C1111 1.419 . S
C1113 C1114 1.362 . S
C1114 H1106 0.930 . S
C1114 C1113 1.362 . S
C1114 C1117 1.409 . S
C1115 H1107 0.930 . S
C1115 C1116 1.355 . S
C1115 C1117 1.415 . S
C1116 C1115 1.355 . S
C1116 C1118 1.419 . S
C1117 C1112 1.425 . S
C1117 C1114 1.409 . S
C1117 C1115 1.415 . S
C1118 H1108 0.930 . S
C1118 C1116 1.419 . S
C1118 C1119 1.362 . S
C1119 H1109 0.930 . S
C1119 C1112 1.409 . S
C1119 C1118 1.362 . S
H1120 C1126 0.930 . S
H1121 C1129 0.930 . S
H1122 C1130 0.930 . S
H1123 C1131 0.930 . S
H1124 C1134 0.930 1_556 S
H1125 C1135 0.938 . S
C1126 H1120 0.930 . S
C1126 C1127 1.355 . S
C1126 C1128 1.415 . S
C1127 C1126 1.355 . S
C1127 C1129 1.419 . S
C1128 C1126 1.415 . S
C1128 C1133 1.425 . S
C1128 C1135 1.409 . S
C1129 H1121 0.930 . S
C1129 C1127 1.419 . S
C1129 C1130 1.362 . S
C1130 H1122 0.930 . S
C1130 C1129 1.362 . S
C1130 C1133 1.409 . S
C1131 H1123 0.930 . S
C1131 C1132 1.355 . S
C1131 C1133 1.415 . S
C1132 C1131 1.355 . S
C1132 C1134 1.419 . S
C1133 C1128 1.425 . S
C1133 C1130 1.409 . S
C1133 C1131 1.415 . S
C1134 H1124 0.930 1_554 S
C1134 C1132 1.419 . S
C1134 C1135 1.362 . S
C1135 H1125 0.938 . S
C1135 C1128 1.409 . S
C1135 C1134 1.362 . S
H1136 C1142 0.930 . S
H1137 C1145 0.930 . S
H1138 C1146 0.930 . S
H1139 C1147 0.930 . S
H1140 C1150 0.930 . S
H1141 C1151 0.930 1_565 S
C1142 H1136 0.930 . S
C1142 C1143 1.355 . S
C1142 C1144 1.414 . S
C1143 C1142 1.355 . S
C1143 C1145 1.419 . S
C1144 C1142 1.414 . S
C1144 C1149 1.425 1_565 S
C1144 C1151 1.409 1_565 S
C1145 H1137 0.930 . S
C1145 C1143 1.419 . S
C1145 C1146 1.362 1_565 S
C1146 H1138 0.930 . S
C1146 C1145 1.362 1_545 S
C1146 C1149 1.409 . S
C1147 H1139 0.930 . S
C1147 C1148 1.355 . S
C1147 C1149 1.415 . S
C1148 C1147 1.355 . S
C1148 C1150 1.419 . S
C1149 C1144 1.425 1_545 S
C1149 C1146 1.409 . S
C1149 C1147 1.415 . S
C1150 H1140 0.930 . S
C1150 C1148 1.419 . S
C1150 C1151 1.362 . S
C1151 H1141 0.930 1_545 S
C1151 C1144 1.409 1_545 S
C1151 C1150 1.362 . S
H1152 C1158 0.930 . S
H1153 C1161 0.930 . S
H1154 C1162 0.930 . S
H1155 C1163 0.930 . S
H1156 C1166 0.930 . S
H1157 C1167 0.930 . S
C1158 H1152 0.930 . S
C1158 C1159 1.355 . S
C1158 C1160 1.415 . S
C1159 C1158 1.355 . S
C1159 C1161 1.419 . S
C1160 C1158 1.415 . S
C1160 C1165 1.420 1_655 S
C1160 C1167 1.409 1_655 S
C1161 H1153 0.930 . S
C1161 C1159 1.419 . S
C1161 C1162 1.362 . S
C1162 H1154 0.930 . S
C1162 C1161 1.362 . S
C1162 C1165 1.384 1_655 S
C1163 H1155 0.930 . S
C1163 C1164 1.355 . S
C1163 C1165 1.445 . S
C1164 C1163 1.355 . S
C1164 C1166 1.419 . S
C1165 C1160 1.420 1_455 S
C1165 C1162 1.384 1_455 S
C1165 C1163 1.445 . S
C1166 H1156 0.930 . S
C1166 C1164 1.419 . S
C1166 C1167 1.362 . S
C1167 H1157 0.930 . S
C1167 C1160 1.409 1_455 S
C1167 C1166 1.362 . S
H1168 C1174 0.930 . S
H1169 C1177 0.930 . S
H1170 C1178 0.928 . S
H1171 C1179 0.930 . S
H1172 C1182 0.930 . S
H1173 C1183 0.930 . S
C1174 H1168 0.930 . S
C1174 C1175 1.355 . S
C1174 C1176 1.415 . S
C1175 C1174 1.355 . S
C1175 C1177 1.419 . S
C1176 C1174 1.415 . S
C1176 C1181 1.436 . S
C1176 C1183 1.409 . S
C1177 H1169 0.930 . S
C1177 C1175 1.419 . S
C1177 C1178 1.362 . S
C1178 H1170 0.928 . S
C1178 C1177 1.362 . S
C1178 C1181 1.416 . S
C1179 H1171 0.930 . S
C1179 C1180 1.355 . S
C1179 C1181 1.397 1_545 S
C1180 C1179 1.355 . S
C1180 C1182 1.419 . S
C1181 C1176 1.436 . S
C1181 C1178 1.416 . S
C1181 C1179 1.397 1_565 S
C1182 H1172 0.930 . S
C1182 C1180 1.419 . S
C1182 C1183 1.362 1_545 S
C1183 H1173 0.930 . S
C1183 C1176 1.409 . S
C1183 C1182 1.362 1_565 S
H1184 C1190 0.930 . S
H1185 C1193 0.930 . S
H1186 C1194 0.930 . S
H1187 C1195 0.930 . S
H1188 C1198 0.930 . S
H1189 C1199 0.930 . S
C1190 H1184 0.930 . S
C1190 C1191 1.355 . S
C1190 C1192 1.393 1_655 S
C1191 C1190 1.355 . S
C1191 C1193 1.419 . S
C1192 C1190 1.393 1_455 S
C1192 C1197 1.427 . S
C1192 C1199 1.429 . S
C1193 H1185 0.930 . S
C1193 C1191 1.419 . S
C1193 C1194 1.362 . S
C1194 H1186 0.930 . S
C1194 C1193 1.362 . S
C1194 C1197 1.409 1_655 S
C1195 H1187 0.930 . S
C1195 C1196 1.355 . S
C1195 C1197 1.415 . S
C1196 C1195 1.355 . S
C1196 C1198 1.419 . S
C1197 C1192 1.427 . S
C1197 C1194 1.409 1_455 S
C1197 C1195 1.415 . S
C1198 H1188 0.930 . S
C1198 C1196 1.419 . S
C1198 C1199 1.362 . S
C1199 H1189 0.930 . S
C1199 C1192 1.429 . S
C1199 C1198 1.362 . S
H1200 C1206 0.930 . S
H1201 C1209 0.930 . S
H1202 C1210 0.930 1_556 S
H1203 C1211 0.930 . S
H1204 C1214 0.930 . S
H1205 C1215 0.930 . S
C1206 H1200 0.930 . S
C1206 C1207 1.355 . S
C1206 C1208 1.415 . S
C1207 C1206 1.355 . S
C1207 C1209 1.419 . S
C1208 C1206 1.415 . S
C1208 C1213 1.425 . S
C1208 C1215 1.409 . S
C1209 H1201 0.930 . S
C1209 C1207 1.419 . S
C1209 C1210 1.362 . S
C1210 H1202 0.930 1_554 S
C1210 C1209 1.362 . S
C1210 C1213 1.409 . S
C1211 H1203 0.930 . S
C1211 C1212 1.355 . S
C1211 C1213 1.415 . S
C1212 C1211 1.355 . S
C1212 C1214 1.419 . S
C1213 C1208 1.425 . S
C1213 C1210 1.409 . S
C1213 C1211 1.415 . S
C1214 H1204 0.930 . S
C1214 C1212 1.419 . S
C1214 C1215 1.362 . S
C1215 H1205 0.930 . S
C1215 C1208 1.409 . S
C1215 C1214 1.362 . S
H1216 C1222 0.930 . S
H1217 C1225 0.930 . S
H1218 C1226 0.930 . S
H1219 C1227 0.930 . S
H1220 C1230 0.930 1_554 S
H1221 C1231 0.930 1_554 S
C1222 H1216 0.930 . S
C1222 C1223 1.355 . S
C1222 C1224 1.415 . S
C1223 C1222 1.355 . S
C1223 C1225 1.419 . S
C1224 C1222 1.415 . S
C1224 C1229 1.425 . S
C1224 C1231 1.409 . S
C1225 H1217 0.930 . S
C1225 C1223 1.419 . S
C1225 C1226 1.362 . S
C1226 H1218 0.930 . S
C1226 C1225 1.362 . S
C1226 C1229 1.409 . S
C1227 H1219 0.930 . S
C1227 C1228 1.355 . S
C1227 C1229 1.415 . S
C1228 C1227 1.355 . S
C1228 C1230 1.419 . S
C1229 C1224 1.425 . S
C1229 C1226 1.409 . S
C1229 C1227 1.415 . S
C1230 H1220 0.930 1_556 S
C1230 C1228 1.419 . S
C1230 C1231 1.362 . S
C1231 H1221 0.930 1_556 S
C1231 C1224 1.409 . S
C1231 C1230 1.362 . S
H1232 C1238 0.930 . S
H1233 C1241 0.930 . S
H1234 C1242 0.930 . S
H1235 C1243 0.930 . S
H1236 C1246 0.930 . S
H1237 C1247 0.930 . S
C1238 H1232 0.930 . S
C1238 C1239 1.355 . S
C1238 C1240 1.415 . S
C1239 C1238 1.355 . S
C1239 C1241 1.419 . S
C1240 C1238 1.415 . S
C1240 C1245 1.425 . S
C1240 C1247 1.409 . S
C1241 H1233 0.930 . S
C1241 C1239 1.419 . S
C1241 C1242 1.362 . S
C1242 H1234 0.930 . S
C1242 C1241 1.362 . S
C1242 C1245 1.409 . S
C1243 H1235 0.930 . S
C1243 C1244 1.355 . S
C1243 C1245 1.415 . S
C1244 C1243 1.355 . S
C1244 C1246 1.419 . S
C1245 C1240 1.425 . S
C1245 C1242 1.409 . S
C1245 C1243 1.415 . S
C1246 H1236 0.930 . S
C1246 C1244 1.419 . S
C1246 C1247 1.362 . S
C1247 H1237 0.930 . S
C1247 C1240 1.409 . S
C1247 C1246 1.362 . S
H1248 C1254 0.930 . S
H1249 C1257 0.930 1_554 S
H1250 C1258 0.930 1_554 S
H1251 C1259 0.930 . S
H1252 C1262 0.930 . S
H1253 C1263 0.930 . S
C1254 H1248 0.930 . S
C1254 C1255 1.355 . S
C1254 C1256 1.415 . S
C1255 C1254 1.355 . S
C1255 C1257 1.419 . S
C1256 C1254 1.415 . S
C1256 C1261 1.425 . S
C1256 C1263 1.409 . S
C1257 H1249 0.930 1_556 S
C1257 C1255 1.419 . S
C1257 C1258 1.362 . S
C1258 H1250 0.930 1_556 S
C1258 C1257 1.362 . S
C1258 C1261 1.409 . S
C1259 H1251 0.930 . S
C1259 C1260 1.355 . S
C1259 C1261 1.415 . S
C1260 C1259 1.355 . S
C1260 C1262 1.419 . S
C1261 C1256 1.425 . S
C1261 C1258 1.409 . S
C1261 C1259 1.415 . S
C1262 H1252 0.930 . S
C1262 C1260 1.419 . S
C1262 C1263 1.362 . S
C1263 H1253 0.930 . S
C1263 C1256 1.409 . S
C1263 C1262 1.362 . S
H1264 C1270 0.930 . S
H1265 C1273 0.930 . S
H1266 C1274 0.930 . S
H1267 C1275 0.930 . S
H1268 C1278 0.930 . S
H1269 C1279 0.930 . S
C1270 H1264 0.930 . S
C1270 C1271 1.355 . S
C1270 C1272 1.415 . S
C1271 C1270 1.355 . S
C1271 C1273 1.419 . S
C1272 C1270 1.415 . S
C1272 C1277 1.425 . S
C1272 C1279 1.409 . S
C1273 H1265 0.930 . S
C1273 C1271 1.419 . S
C1273 C1274 1.362 . S
C1274 H1266 0.930 . S
C1274 C1273 1.362 . S
C1274 C1277 1.409 . S
C1275 H1267 0.930 . S
C1275 C1276 1.355 . S
C1275 C1277 1.415 . S
C1276 C1275 1.355 . S
C1276 C1278 1.419 . S
C1277 C1272 1.425 . S
C1277 C1274 1.409 . S
C1277 C1275 1.415 . S
C1278 H1268 0.930 . S
C1278 C1276 1.419 . S
C1278 C1279 1.362 . S
C1279 H1269 0.930 . S
C1279 C1272 1.409 . S
C1279 C1278 1.362 . S
H1280 C1286 0.930 . S
H1281 C1289 0.930 . S
H1282 C1290 0.930 . S
H1283 C1291 0.930 . S
H1284 C1294 0.930 . S
H1285 C1295 0.930 . S
C1286 H1280 0.930 . S
C1286 C1287 1.355 . S
C1286 C1288 1.415 . S
C1287 C1286 1.355 . S
C1287 C1289 1.419 . S
C1288 C1286 1.415 . S
C1288 C1293 1.425 . S
C1288 C1295 1.409 . S
C1289 H1281 0.930 . S
C1289 C1287 1.419 . S
C1289 C1290 1.362 . S
C1290 H1282 0.930 . S
C1290 C1289 1.362 . S
C1290 C1293 1.409 . S
C1291 H1283 0.930 . S
C1291 C1292 1.355 . S
C1291 C1293 1.415 . S
C1292 C1291 1.355 . S
C1292 C1294 1.419 . S
C1293 C1288 1.425 . S
C1293 C1290 1.409 . S
C1293 C1291 1.415 . S
C1294 H1284 0.930 . S
C1294 C1292 1.419 . S
C1294 C1295 1.362 . S
C1295 H1285 0.930 . S
C1295 C1288 1.409 . S
C1295 C1294 1.362 . S
H1296 C1302 0.930 . S
H1297 C1305 0.930 . S
H1298 C1306 0.930 . S
H1299 C1307 0.930 . S
H1300 C1310 0.930 . S
H1301 C1311 0.930 . S
C1302 H1296 0.930 . S
C1302 C1303 1.355 . S
C1302 C1304 1.415 . S
C1303 C1302 1.355 . S
C1303 C1305 1.419 . S
C1304 C1302 1.415 . S
C1304 C1309 1.425 . S
C1304 C1311 1.409 . S
C1305 H1297 0.930 . S
C1305 C1303 1.419 . S
C1305 C1306 1.362 . S
C1306 H1298 0.930 . S
C1306 C1305 1.362 . S
C1306 C1309 1.409 . S
C1307 H1299 0.930 . S
C1307 C1308 1.355 . S
C1307 C1309 1.415 . S
C1308 C1307 1.355 . S
C1308 C1310 1.419 . S
C1309 C1304 1.425 . S
C1309 C1306 1.409 . S
C1309 C1307 1.415 . S
C1310 H1300 0.930 . S
C1310 C1308 1.419 . S
C1310 C1311 1.362 . S
C1311 H1301 0.930 . S
C1311 C1304 1.409 . S
C1311 C1310 1.362 . S
H1312 C1318 0.930 . S
H1313 C1321 0.930 . S
H1314 C1322 0.930 . S
H1315 C1323 0.930 . S
H1316 C1326 0.930 . S
H1317 C1327 0.930 . S
C1318 H1312 0.930 . S
C1318 C1319 1.355 . S
C1318 C1320 1.415 . S
C1319 C1318 1.355 . S
C1319 C1321 1.419 . S
C1320 C1318 1.415 . S
C1320 C1325 1.425 . S
C1320 C1327 1.409 . S
C1321 H1313 0.930 . S
C1321 C1319 1.419 . S
C1321 C1322 1.362 . S
C1322 H1314 0.930 . S
C1322 C1321 1.362 . S
C1322 C1325 1.409 . S
C1323 H1315 0.930 . S
C1323 C1324 1.355 . S
C1323 C1325 1.415 . S
C1324 C1323 1.355 . S
C1324 C1326 1.419 . S
C1325 C1320 1.425 . S
C1325 C1322 1.409 . S
C1325 C1323 1.415 . S
C1326 H1316 0.930 . S
C1326 C1324 1.419 . S
C1326 C1327 1.362 . S
C1327 H1317 0.930 . S
C1327 C1320 1.409 . S
C1327 C1326 1.362 . S
H1328 C1334 0.930 . S
H1329 C1337 0.930 1_554 S
H1330 C1338 0.930 1_554 S
H1331 C1339 0.930 . S
H1332 C1342 0.930 . S
H1333 C1343 0.930 . S
C1334 H1328 0.930 . S
C1334 C1335 1.355 . S
C1334 C1336 1.415 . S
C1335 C1334 1.355 . S
C1335 C1337 1.419 . S
C1336 C1334 1.415 . S
C1336 C1341 1.425 . S
C1336 C1343 1.409 . S
C1337 H1329 0.930 1_556 S
C1337 C1335 1.419 . S
C1337 C1338 1.362 . S
C1338 H1330 0.930 1_556 S
C1338 C1337 1.362 . S
C1338 C1341 1.409 . S
C1339 H1331 0.930 . S
C1339 C1340 1.355 . S
C1339 C1341 1.415 . S
C1340 C1339 1.355 . S
C1340 C1342 1.419 . S
C1341 C1336 1.425 . S
C1341 C1338 1.409 . S
C1341 C1339 1.415 . S
C1342 H1332 0.930 . S
C1342 C1340 1.419 . S
C1342 C1343 1.362 . S
C1343 H1333 0.930 . S
C1343 C1336 1.409 . S
C1343 C1342 1.362 . S
H1344 C1350 0.930 . S
H1345 C1353 0.930 . S
H1346 C1354 0.930 . S
H1347 C1355 0.930 . S
H1348 C1358 0.930 . S
H1349 C1359 0.930 . S
C1350 H1344 0.930 . S
C1350 C1351 1.355 . S
C1350 C1352 1.415 . S
C1351 C1350 1.355 . S
C1351 C1353 1.419 . S
C1352 C1350 1.415 . S
C1352 C1357 1.425 . S
C1352 C1359 1.409 . S
C1353 H1345 0.930 . S
C1353 C1351 1.419 . S
C1353 C1354 1.362 . S
C1354 H1346 0.930 . S
C1354 C1353 1.362 . S
C1354 C1357 1.409 . S
C1355 H1347 0.930 . S
C1355 C1356 1.355 . S
C1355 C1357 1.415 . S
C1356 C1355 1.355 . S
C1356 C1358 1.419 . S
C1357 C1352 1.425 . S
C1357 C1354 1.409 . S
C1357 C1355 1.415 . S
C1358 H1348 0.930 . S
C1358 C1356 1.419 . S
C1358 C1359 1.362 . S
C1359 H1349 0.930 . S
C1359 C1352 1.409 . S
C1359 C1358 1.362 . S
H1360 C1366 0.930 . S
H1361 C1369 0.930 1_554 S
H1362 C1370 0.930 1_554 S
H1363 C1371 0.930 . S
H1364 C1374 0.930 . S
H1365 C1375 0.930 . S
C1366 H1360 0.930 . S
C1366 C1367 1.355 . S
C1366 C1368 1.415 . S
C1367 C1366 1.355 . S
C1367 C1369 1.419 . S
C1368 C1366 1.415 . S
C1368 C1373 1.425 . S
C1368 C1375 1.409 . S
C1369 H1361 0.930 1_556 S
C1369 C1367 1.419 . S
C1369 C1370 1.362 . S
C1370 H1362 0.930 1_556 S
C1370 C1369 1.362 . S
C1370 C1373 1.409 . S
C1371 H1363 0.930 . S
C1371 C1372 1.355 . S
C1371 C1373 1.415 . S
C1372 C1371 1.355 . S
C1372 C1374 1.419 . S
C1373 C1368 1.425 . S
C1373 C1370 1.409 . S
C1373 C1371 1.415 . S
C1374 H1364 0.930 . S
C1374 C1372 1.419 . S
C1374 C1375 1.362 . S
C1375 H1365 0.930 . S
C1375 C1368 1.409 . S
C1375 C1374 1.362 . S
H1376 C1382 0.930 . S
H1377 C1385 0.930 . S
H1378 C1386 0.930 . S
H1379 C1387 0.930 . S
H1380 C1390 0.930 . S
H1381 C1391 0.930 1_556 S
C1382 H1376 0.930 . S
C1382 C1383 1.355 . S
C1382 C1384 1.415 . S
C1383 C1382 1.355 . S
C1383 C1385 1.419 . S
C1384 C1382 1.415 . S
C1384 C1389 1.425 . S
C1384 C1391 1.409 . S
C1385 H1377 0.930 . S
C1385 C1383 1.419 . S
C1385 C1386 1.362 . S
C1386 H1378 0.930 . S
C1386 C1385 1.362 . S
C1386 C1389 1.409 . S
C1387 H1379 0.930 . S
C1387 C1388 1.355 . S
C1387 C1389 1.415 . S
C1388 C1387 1.355 . S
C1388 C1390 1.419 1_554 S
C1389 C1384 1.425 . S
C1389 C1386 1.409 . S
C1389 C1387 1.415 . S
C1390 H1380 0.930 . S
C1390 C1388 1.419 1_556 S
C1390 C1391 1.362 1_556 S
C1391 H1381 0.930 1_554 S
C1391 C1384 1.409 . S
C1391 C1390 1.362 1_554 S
H1392 C1398 0.930 . S
H1393 C1401 0.930 . S
H1394 C1402 0.930 . S
H1395 C1403 0.930 . S
H1396 C1406 0.930 . S
H1397 C1407 0.930 . S
C1398 H1392 0.930 . S
C1398 C1399 1.355 . S
C1398 C1400 1.415 . S
C1399 C1398 1.355 . S
C1399 C1401 1.419 . S
C1400 C1398 1.415 . S
C1400 C1405 1.425 . S
C1400 C1407 1.409 . S
C1401 H1393 0.930 . S
C1401 C1399 1.419 . S
C1401 C1402 1.362 . S
C1402 H1394 0.930 . S
C1402 C1401 1.362 . S
C1402 C1405 1.409 . S
C1403 H1395 0.930 . S
C1403 C1404 1.355 . S
C1403 C1405 1.415 . S
C1404 C1403 1.355 . S
C1404 C1406 1.419 . S
C1405 C1400 1.425 . S
C1405 C1402 1.409 . S
C1405 C1403 1.415 . S
C1406 H1396 0.930 . S
C1406 C1404 1.419 . S
C1406 C1407 1.362 . S
C1407 H1397 0.930 . S
C1407 C1400 1.409 . S
C1407 C1406 1.362 . S
H1408 C1414 0.930 . S
H1409 C1417 0.930 . S
H1410 C1418 0.930 . S
H1411 C1419 0.930 . S
H1412 C1422 0.930 . S
H1413 C1423 0.930 . S
C1414 H1408 0.930 . S
C1414 C1415 1.355 . S
C1414 C1416 1.415 . S
C1415 C1414 1.355 . S
C1415 C1417 1.419 . S
C1416 C1414 1.415 . S
C1416 C1421 1.425 . S
C1416 C1423 1.409 . S
C1417 H1409 0.930 . S
C1417 C1415 1.419 . S
C1417 C1418 1.362 . S
C1418 H1410 0.930 . S
C1418 C1417 1.362 . S
C1418 C1421 1.409 . S
C1419 H1411 0.930 . S
C1419 C1420 1.355 . S
C1419 C1421 1.415 . S
C1420 C1419 1.355 . S
C1420 C1422 1.419 . S
C1421 C1416 1.425 . S
C1421 C1418 1.409 . S
C1421 C1419 1.415 . S
C1422 H1412 0.930 . S
C1422 C1420 1.419 . S
C1422 C1423 1.362 . S
C1423 H1413 0.930 . S
C1423 C1416 1.409 . S
C1423 C1422 1.362 . S
H1424 C1430 0.930 . S
H1425 C1433 0.930 . S
H1426 C1434 0.930 . S
H1427 C1435 0.930 . S
H1428 C1438 0.930 . S
H1429 C1439 0.930 . S
C1430 H1424 0.930 . S
C1430 C1431 1.355 . S
C1430 C1432 1.415 . S
C1431 C1430 1.355 . S
C1431 C1433 1.419 . S
C1432 C1430 1.415 . S
C1432 C1437 1.425 . S
C1432 C1439 1.409 . S
C1433 H1425 0.930 . S
C1433 C1431 1.419 . S
C1433 C1434 1.362 . S
C1434 H1426 0.930 . S
C1434 C1433 1.362 . S
C1434 C1437 1.409 . S
C1435 H1427 0.930 . S
C1435 C1436 1.355 . S
C1435 C1437 1.415 . S
C1436 C1435 1.355 . S
C1436 C1438 1.419 . S
C1437 C1432 1.425 . S
C1437 C1434 1.409 . S
C1437 C1435 1.415 . S
C1438 H1428 0.930 . S
C1438 C1436 1.419 . S
C1438 C1439 1.362 . S
C1439 H1429 0.930 . S
C1439 C1432 1.409 . S
C1439 C1438 1.362 . S
H1440 C1446 0.930 . S
H1441 C1449 0.930 . S
H1442 C1450 0.930 . S
H1443 C1451 0.930 . S
H1444 C1454 0.930 . S
H1445 C1455 0.930 . S
C1446 H1440 0.930 . S
C1446 C1447 1.355 . S
C1446 C1448 1.415 . S
C1447 C1446 1.355 . S
C1447 C1449 1.419 . S
C1448 C1446 1.415 . S
C1448 C1453 1.425 . S
C1448 C1455 1.409 . S
C1449 H1441 0.930 . S
C1449 C1447 1.419 . S
C1449 C1450 1.362 . S
C1450 H1442 0.930 . S
C1450 C1449 1.362 . S
C1450 C1453 1.409 . S
C1451 H1443 0.930 . S
C1451 C1452 1.355 . S
C1451 C1453 1.415 . S
C1452 C1451 1.355 . S
C1452 C1454 1.419 . S
C1453 C1448 1.425 . S
C1453 C1450 1.409 . S
C1453 C1451 1.415 . S
C1454 H1444 0.930 . S
C1454 C1452 1.419 . S
C1454 C1455 1.362 . S
C1455 H1445 0.930 . S
C1455 C1448 1.409 . S
C1455 C1454 1.362 . S
C951 C701 1.352 . S
C956 C3 1.346 . S
C967 C92 1.361 . S
C972 C524 1.294 . S
C983 C121 1.379 . S
C988 C583 1.359 . S
C999 C642 1.343 . S
C1004 C210 1.368 . S
C1015 C239 1.374 . S
C1020 C347 1.397 . S
C1031 C328 1.367 1_554 S
C1036 C406 1.346 . S
C1047 C465 1.394 . S
C1052 C357 1.405 . S
C1063 C288 1.348 . S
C1068 C446 1.346 1_554 S
C1079 C229 1.349 . S
C1084 C475 1.348 . S
C1095 C564 1.352 . S
C1100 C52 1.311 . S
C1111 C111 1.400 . S
C1116 C593 1.405 . S
C1127 C682 1.365 . S
C1132 C170 1.349 . S
C1143 C711 1.362 . S
C1148 C819 1.387 . S
C1159 C800 1.374 . S
C1164 C878 1.296 . S
C1175 C937 1.402 . S
C1180 C829 1.404 . S
C1191 C760 1.308 . S
C1196 C918 1.375 . S
C1207 C269 1.502 . S
C1212 C33 1.500 . S
C1223 C62 1.344 . S
C1228 C298 1.349 . S
C1239 C151 1.470 . S
C1244 C387 1.479 . S
C1255 C416 1.354 . S
C1260 C180 1.317 . S
C1271 C505 1.469 . S
C1276 C741 1.477 . S
C1287 C770 1.354 . S
C1292 C534 1.319 . S
C1303 C623 1.492 . S
C1308 C859 1.498 . S
C1319 C888 1.355 . S
C1324 C652 1.332 . S
C1335 C831 1.767 . S
C1340 C5 1.766 . S
C1351 C890 1.291 . S
C1356 C64 1.302 . S
C1367 C123 1.700 . S
C1372 C713 1.707 . S
C1383 C772 1.289 . S
C1388 C182 1.280 . S
C1399 C595 1.766 . S
C1404 C241 1.767 . S
C1415 C654 1.302 . S
C1420 C300 1.290 . S
C1431 C359 1.750 . S
C1436 C477 1.742 . S
C1447 C536 1.348 . S
C1452 C418 1.353 . S
