# Generated by pormake.
# Topology uov, (4)-cn, num edge types: 1
# Building blocks:
#     Node 0, Type 0, BuildingBlock: CEKHIL_clean_sbu_0, # of connection points: 4
#     Node 1, Type 0, BuildingBlock: CEKHIL_clean_sbu_0, # of connection points: 4
#     Node 2, Type 0, BuildingBlock: CEKHIL_clean_sbu_0, # of connection points: 4
#     Node 3, Type 0, BuildingBlock: CEKHIL_clean_sbu_0, # of connection points: 4
#     Node 4, Type 0, BuildingBlock: CEKHIL_clean_sbu_0, # of connection points: 4
#     Node 5, Type 0, BuildingBlock: CEKHIL_clean_sbu_0, # of connection points: 4
#     Node 6, Type 0, BuildingBlock: CEKHIL_clean_sbu_0, # of connection points: 4
#     Node 7, Type 0, BuildingBlock: CEKHIL_clean_sbu_0, # of connection points: 4
#     Edge 8, Type (0, 0), BuildingBlock: MIFKUJ_clean_linker_0, # of connection points: 2
#     Edge 9, Type (0, 0), BuildingBlock: MIFKUJ_clean_linker_0, # of connection points: 2
#     Edge 10, Type (0, 0), BuildingBlock: MIFKUJ_clean_linker_0, # of connection points: 2
#     Edge 11, Type (0, 0), BuildingBlock: MIFKUJ_clean_linker_0, # of connection points: 2
#     Edge 12, Type (0, 0), BuildingBlock: MIFKUJ_clean_linker_0, # of connection points: 2
#     Edge 13, Type (0, 0), BuildingBlock: MIFKUJ_clean_linker_0, # of connection points: 2
#     Edge 14, Type (0, 0), BuildingBlock: MIFKUJ_clean_linker_0, # of connection points: 2
#     Edge 15, Type (0, 0), BuildingBlock: MIFKUJ_clean_linker_0, # of connection points: 2
#     Edge 16, Type (0, 0), BuildingBlock: MIFKUJ_clean_linker_0, # of connection points: 2
#     Edge 17, Type (0, 0), BuildingBlock: MIFKUJ_clean_linker_0, # of connection points: 2
#     Edge 18, Type (0, 0), BuildingBlock: MIFKUJ_clean_linker_0, # of connection points: 2
#     Edge 19, Type (0, 0), BuildingBlock: MIFKUJ_clean_linker_0, # of connection points: 2
#     Edge 20, Type (0, 0), BuildingBlock: MIFKUJ_clean_linker_0, # of connection points: 2
#     Edge 21, Type (0, 0), BuildingBlock: MIFKUJ_clean_linker_0, # of connection points: 2
#     Edge 22, Type (0, 0), BuildingBlock: MIFKUJ_clean_linker_0, # of connection points: 2
#     Edge 23, Type (0, 0), BuildingBlock: MIFKUJ_clean_linker_0, # of connection points: 2
# Relax obj value: 0.153
# Max RMSD: 0.151
# Mean RMSD: 0.151
data_MOF--net-uov--node1-CEKHIL_clean_sbu_0--edge1-MIFKUJ_clean_linker_0
_symmetry_space_group_name_H-M    P1
_symmetry_Int_Tables_number       1
_symmetry_cell_setting            triclinic
loop_
_symmetry_equiv_pos_as_xyz
'x, y, z'
_cell_length_a     38.590341
_cell_length_b     38.60833
_cell_length_c     54.330287
_cell_angle_alpha  90.003141
_cell_angle_beta   89.990399
_cell_angle_gamma 89.98776
loop_
_atom_site_label
_atom_site_type_symbol
_atom_site_fract_x
_atom_site_fract_y
_atom_site_fract_z
_atom_type_partial_charge
Co0 Co 0.02412 0.26183 0.61749 0.0
O1 O 0.00259 0.29816 0.63626 0.0
O2 O 0.04989 0.30436 0.61355 0.0
C3 C 0.97557 0.24136 0.59953 0.0
O4 O 0.05264 0.23076 0.5949 0.0
Co5 Co 0.00568 0.18483 0.62856 0.0
O6 O 0.03416 0.17571 0.59889 0.0
C7 C 0.0507 0.22337 0.66257 0.0
C8 C 0.02657 0.3184 0.62768 0.0
C9 C 0.05312 0.19858 0.58861 0.0
O10 O 0.05332 0.24819 0.64686 0.0
O11 O 0.03009 0.19769 0.6598 0.0
O12 O 0.99089 0.26869 0.59085 0.0
O13 O 0.9876 0.22997 0.62019 0.0
Co14 Co 0.26759 0.98005 0.38608 0.0
O15 O 0.30367 0.99874 0.36557 0.0
O16 O 0.30817 0.95085 0.38785 0.0
C17 C 0.25328 0.03013 0.40494 0.0
O18 O 0.23674 0.95368 0.41009 0.0
Co19 Co 0.19115 0.00507 0.3811 0.0
O20 O 0.18583 0.98173 0.41345 0.0
C21 C 0.22074 0.95668 0.34437 0.0
C22 C 0.3227 0.97318 0.37319 0.0
C23 C 0.20728 0.95874 0.42063 0.0
O24 O 0.24832 0.95276 0.35744 0.0
O25 O 0.19674 0.97837 0.34967 0.0
O26 O 0.27977 0.01227 0.41244 0.0
O27 O 0.2388 0.01909 0.38502 0.0
Co28 Co 0.97425 0.73797 0.60996 0.0
O29 O 0.99067 0.70403 0.63317 0.0
O30 O 0.94721 0.69619 0.60712 0.0
C31 C 0.02654 0.75344 0.59486 0.0
O32 O 0.95118 0.76562 0.58248 0.0
Co33 Co 0.99467 0.81579 0.61414 0.0
O34 O 0.97571 0.81834 0.58038 0.0
C35 C 0.93842 0.78777 0.6454 0.0
C36 C 0.96751 0.68338 0.62391 0.0
C37 C 0.95576 0.79502 0.57176 0.0
O38 O 0.94098 0.75772 0.63524 0.0
O39 O 0.95854 0.81317 0.6404 0.0
O40 O 0.01135 0.72546 0.58719 0.0
O41 O 0.01166 0.76878 0.61317 0.0
Co42 Co 0.74322 0.02106 0.38265 0.0
O43 O 0.7087 0.00438 0.36001 0.0
O44 O 0.70138 0.04814 0.38584 0.0
C45 C 0.7584 0.96853 0.39715 0.0
O46 O 0.77168 0.0446 0.40956 0.0
Co47 Co 0.8208 0.00041 0.37884 0.0
O48 O 0.82245 0.01667 0.41343 0.0
C49 C 0.79268 0.05639 0.34704 0.0
C50 C 0.68818 0.02755 0.36937 0.0
C51 C 0.79999 0.03818 0.42127 0.0
O52 O 0.76248 0.05368 0.35697 0.0
O53 O 0.81832 0.03678 0.35255 0.0
O54 O 0.73127 0.98433 0.40575 0.0
O55 O 0.77371 0.98349 0.37889 0.0
Co56 Co 0.98373 0.26559 0.11364 0.0
O57 O 0.00397 0.30109 0.13383 0.0
O58 O 0.95602 0.30717 0.11182 0.0
C59 C 0.03283 0.24865 0.09466 0.0
O60 O 0.95624 0.23539 0.08994 0.0
Co61 Co 0.00539 0.18849 0.1203 0.0
O62 O 0.9837 0.18405 0.08724 0.0
C63 C 0.95722 0.22076 0.15574 0.0
C64 C 0.97892 0.32095 0.12643 0.0
C65 C 0.96143 0.2059 0.07954 0.0
O66 O 0.95538 0.2481 0.14227 0.0
O67 O 0.97782 0.19549 0.15129 0.0
O68 O 0.01624 0.27594 0.08713 0.0
O69 O 0.02158 0.23522 0.11492 0.0
Co70 Co 0.25426 0.00913 0.88174 0.0
O71 O 0.29087 0.99266 0.86069 0.0
O72 O 0.29522 0.03701 0.88638 0.0
C73 C 0.23814 0.95701 0.89674 0.0
O74 O 0.22304 0.03263 0.90706 0.0
Co75 Co 0.17765 0.98722 0.87271 0.0
O76 O 0.16939 0.0101 0.90479 0.0
C77 C 0.20887 0.0424 0.84221 0.0
C78 C 0.31007 0.01655 0.87055 0.0
C79 C 0.19168 0.02978 0.91496 0.0
O80 O 0.2369 0.04137 0.85506 0.0
O81 O 0.18368 0.02124 0.84528 0.0
O82 O 0.26493 0.97296 0.90566 0.0
O83 O 0.22451 0.97104 0.87743 0.0
Co84 Co 0.01511 0.74079 0.11788 0.0
O85 O 0.99452 0.70707 0.13944 0.0
O86 O 0.04327 0.6995 0.1186 0.0
C87 C 0.96633 0.75477 0.09736 0.0
O88 O 0.04316 0.7684 0.09289 0.0
Co89 Co 0.9927 0.81807 0.11892 0.0
O90 O 0.016 0.81907 0.08633 0.0
C91 C 0.04053 0.79128 0.15708 0.0
C92 C 0.01983 0.68671 0.1332 0.0
C93 C 0.03859 0.79643 0.08046 0.0
O94 O 0.0421 0.76171 0.14611 0.0
O95 O 0.0206 0.81586 0.15001 0.0
O96 O 0.9837 0.72719 0.09146 0.0
O97 O 0.97683 0.77071 0.11688 0.0
Co98 Co 0.73524 0.98189 0.88301 0.0
O99 O 0.69795 0.0024 0.8646 0.0
O100 O 0.69385 0.95421 0.88658 0.0
C101 C 0.7539 0.03056 0.90179 0.0
O102 O 0.76751 0.95405 0.90515 0.0
Co103 Co 0.81151 0.00395 0.87258 0.0
O104 O 0.82126 0.97642 0.90262 0.0
C105 C 0.77507 0.9584 0.83771 0.0
C106 C 0.67879 0.97729 0.8728 0.0
C107 C 0.79935 0.95566 0.91218 0.0
O108 O 0.75017 0.9542 0.8532 0.0
O109 O 0.79983 0.97997 0.84096 0.0
O110 O 0.72716 0.01397 0.91023 0.0
O111 O 0.7655 0.01971 0.88087 0.0
H112 H 0.00189 0.65073 0.6612 0.0
H113 H 0.01035 0.58836 0.66624 0.0
H114 H 0.94369 0.56931 0.60392 0.0
H115 H 0.93421 0.63152 0.59934 0.0
H116 H 0.93449 0.52045 0.63602 0.0
H117 H 0.03275 0.57295 0.59784 0.0
H118 H 0.08084 0.6146 0.59374 0.0
H119 H 0.12678 0.57538 0.66011 0.0
H120 H 0.07865 0.53379 0.66479 0.0
H121 H 0.05795 0.3695 0.60104 0.0
H122 H 0.04749 0.43186 0.60411 0.0
H123 H 0.98198 0.41481 0.66735 0.0
H124 H 0.99119 0.35241 0.66369 0.0
H125 H 0.05717 0.4818 0.6348 0.0
H126 H 0.91427 0.46936 0.66696 0.0
H127 H 0.86589 0.42778 0.66389 0.0
H128 H 0.9089 0.38667 0.5971 0.0
H129 H 0.95725 0.42828 0.59959 0.0
C130 C 0.98846 0.6332 0.6489 0.0
C131 C 0.96766 0.64601 0.62973 0.0
C132 C 0.99349 0.59757 0.6517 0.0
C133 C 0.97837 0.57417 0.63507 0.0
C134 C 0.95579 0.58684 0.6169 0.0
C135 C 0.95039 0.62244 0.6143 0.0
C136 C 0.98782 0.53687 0.63551 0.0
C137 C 0.96131 0.51202 0.63593 0.0
C138 C 0.02281 0.52576 0.63463 0.0
C139 C 0.05192 0.55052 0.6318 0.0
C140 C 0.05299 0.57337 0.61164 0.0
C141 C 0.08026 0.59694 0.60921 0.0
C142 C 0.1068 0.5977 0.62669 0.0
C143 C 0.10617 0.5748 0.64661 0.0
C144 C 0.07891 0.55121 0.64916 0.0
C145 C 0.04171 0.37913 0.61579 0.0
C146 C 0.02505 0.35612 0.63195 0.0
C147 C 0.03575 0.41478 0.61755 0.0
C148 C 0.0133 0.42801 0.63562 0.0
C149 C 0.99863 0.40518 0.65284 0.0
C150 C 0.00409 0.36953 0.65083 0.0
C151 C 0.00384 0.46534 0.63564 0.0
C152 C 0.03035 0.49021 0.63522 0.0
C153 C 0.96882 0.47646 0.6355 0.0
C154 C 0.93955 0.45168 0.63364 0.0
C155 C 0.91331 0.45153 0.65158 0.0
C156 C 0.88591 0.42794 0.64994 0.0
C157 C 0.88439 0.40452 0.63036 0.0
C158 C 0.91018 0.40474 0.6123 0.0
C159 C 0.93759 0.42829 0.61383 0.0
H160 H 0.86318 0.38626 0.62915 0.0
H161 H 0.1279 0.61597 0.62478 0.0
H162 H 0.63689 0.06467 0.39202 0.0
H163 H 0.5744 0.05525 0.38852 0.0
H164 H 0.59199 0.97965 0.3314 0.0
H165 H 0.65445 0.98846 0.33509 0.0
H166 H 0.52512 0.05976 0.3545 0.0
H167 H 0.53816 0.91113 0.34075 0.0
H168 H 0.57942 0.86433 0.35075 0.0
H169 H 0.61801 0.92339 0.41185 0.0
H170 H 0.57667 0.97025 0.40245 0.0
H171 H 0.35593 0.00095 0.33362 0.0
H172 H 0.41845 0.008 0.32818 0.0
H173 H 0.43628 0.95329 0.39633 0.0
H174 H 0.3739 0.94445 0.40099 0.0
H175 H 0.48587 0.93871 0.36755 0.0
H176 H 0.43242 0.04552 0.39192 0.0
H177 H 0.39088 0.0939 0.38875 0.0
H178 H 0.43291 0.1215 0.31824 0.0
H179 H 0.47442 0.073 0.32087 0.0
C180 C 0.62742 0.04654 0.37838 0.0
C181 C 0.65061 0.02702 0.36403 0.0
C182 C 0.59169 0.04117 0.3764 0.0
C183 C 0.57858 0.01623 0.36005 0.0
C184 C 0.60158 0.99852 0.34448 0.0
C185 C 0.63728 0.00374 0.34653 0.0
C186 C 0.54122 0.00705 0.36049 0.0
C187 C 0.51652 0.03327 0.35719 0.0
C188 C 0.52995 0.97264 0.36471 0.0
C189 C 0.55461 0.94436 0.37068 0.0
C190 C 0.55539 0.91406 0.35636 0.0
C191 C 0.57879 0.88753 0.36192 0.0
C192 C 0.60141 0.89094 0.38186 0.0
C193 C 0.60058 0.92083 0.39635 0.0
C194 C 0.57719 0.94739 0.39089 0.0
C195 C 0.3733 0.98979 0.34713 0.0
C196 C 0.36015 0.97237 0.3678 0.0
C197 C 0.40901 0.99409 0.34414 0.0
C198 C 0.43213 0.98214 0.36223 0.0
C199 C 0.41905 0.96295 0.38216 0.0
C200 C 0.38337 0.95787 0.38482 0.0
C201 C 0.46957 0.99137 0.36125 0.0
C202 C 0.49437 0.96515 0.36453 0.0
C203 C 0.48089 0.02603 0.35798 0.0
C204 C 0.45628 0.05546 0.35649 0.0
C205 C 0.43268 0.06182 0.37569 0.0
C206 C 0.40915 0.08926 0.374 0.0
C207 C 0.4092 0.11071 0.35328 0.0
C208 C 0.43287 0.10484 0.33426 0.0
C209 C 0.45642 0.0774 0.33585 0.0
H210 H 0.39095 0.13192 0.35199 0.0
H211 H 0.61953 0.87039 0.38611 0.0
H212 H 0.02355 0.35552 0.15654 0.0
H213 H 0.02765 0.41795 0.16282 0.0
H214 H 0.93777 0.43322 0.11685 0.0
H215 H 0.93379 0.37062 0.11019 0.0
H216 H 0.98944 0.47382 0.10267 0.0
H217 H 0.93395 0.44755 0.17881 0.0
H218 H 0.92506 0.41698 0.21814 0.0
H219 H 0.02374 0.45312 0.24407 0.0
H220 H 0.03347 0.48351 0.20473 0.0
H221 H 0.97215 0.65297 0.16148 0.0
H222 H 0.96464 0.59041 0.16548 0.0
H223 H 0.05822 0.5737 0.1237 0.0
H224 H 0.06566 0.63632 0.11927 0.0
H225 H 0.00015 0.53474 0.18276 0.0
H226 H 0.04262 0.5096 0.08241 0.0
H227 H 0.04665 0.541 0.04295 0.0
H228 H 0.96414 0.60862 0.06542 0.0
H229 H 0.9593 0.57731 0.10484 0.0
C230 C 0.00431 0.37209 0.14805 0.0
C231 C 0.97843 0.35817 0.13276 0.0
C232 C 0.00662 0.4078 0.15176 0.0
C233 C 0.98296 0.43026 0.14038 0.0
C234 C 0.95633 0.41633 0.12579 0.0
C235 C 0.954 0.38057 0.12207 0.0
C236 C 0.98772 0.4683 0.14212 0.0
C237 C 0.99167 0.48709 0.12021 0.0
C238 C 0.99036 0.48572 0.16499 0.0
C239 C 0.98456 0.46758 0.18872 0.0
C240 C 0.95389 0.44876 0.19282 0.0
C241 C 0.94867 0.4315 0.21513 0.0
C242 C 0.97385 0.43304 0.23357 0.0
C243 C 0.00427 0.45192 0.22975 0.0
C244 C 0.00963 0.46921 0.20746 0.0
C245 C 0.99153 0.63602 0.15354 0.0
C246 C 0.01925 0.64956 0.13975 0.0
C247 C 0.98723 0.60025 0.15592 0.0
C248 C 0.0105 0.57745 0.14449 0.0
C249 C 0.03965 0.59091 0.13232 0.0
C250 C 0.04394 0.62669 0.12988 0.0
C251 C 0.00248 0.53993 0.14333 0.0
C252 C 0.99794 0.52132 0.16528 0.0
C253 C 0.99861 0.52269 0.1205 0.0
C254 C 0.00087 0.54132 0.09666 0.0
C255 C 0.02526 0.53107 0.07888 0.0
C256 C 0.02769 0.54887 0.05653 0.0
C257 C 0.00574 0.57686 0.05172 0.0
C258 C 0.98121 0.58702 0.0692 0.0
C259 C 0.97862 0.56927 0.09156 0.0
H260 H 0.0077 0.59063 0.03442 0.0
H261 H 0.96976 0.41966 0.25083 0.0
H262 H 0.34651 0.98249 0.83495 0.0
H263 H 0.40945 0.97705 0.83165 0.0
H264 H 0.42188 0.0457 0.89372 0.0
H265 H 0.35901 0.05213 0.89657 0.0
H266 H 0.4712 0.05752 0.86239 0.0
H267 H 0.4239 0.95656 0.90035 0.0
H268 H 0.38548 0.90581 0.90419 0.0
H269 H 0.42997 0.86169 0.83887 0.0
H270 H 0.46833 0.91245 0.83445 0.0
H271 H 0.62904 0.94341 0.89917 0.0
H272 H 0.56624 0.95046 0.8957 0.0
H273 H 0.58055 0.017 0.83266 0.0
H274 H 0.64335 0.01127 0.83679 0.0
H275 H 0.51772 0.9377 0.8648 0.0
H276 H 0.52138 0.08055 0.83179 0.0
H277 H 0.55959 0.13162 0.83482 0.0
H278 H 0.6023 0.09247 0.90229 0.0
H279 H 0.56404 0.04142 0.89982 0.0
C280 C 0.36269 0.99691 0.84761 0.0
C281 C 0.34784 0.0175 0.86615 0.0
C282 C 0.39865 0.99361 0.84581 0.0
C283 C 0.4204 0.0103 0.8628 0.0
C284 C 0.40565 0.03243 0.88046 0.0
C285 C 0.36968 0.03608 0.88208 0.0
C286 C 0.45827 0.00327 0.86308 0.0
C287 C 0.48136 0.03132 0.86278 0.0
C288 C 0.47161 0.96911 0.86428 0.0
C289 C 0.44872 0.93847 0.86693 0.0
C290 C 0.42531 0.93615 0.88671 0.0
C291 C 0.40357 0.90737 0.889 0.0
C292 C 0.40521 0.88059 0.87174 0.0
C293 C 0.42868 0.88249 0.85219 0.0
C294 C 0.45044 0.91125 0.84979 0.0
C295 C 0.61874 0.95919 0.8844 0.0
C296 C 0.64104 0.9771 0.86842 0.0
C297 C 0.58283 0.96321 0.88241 0.0
C298 C 0.56861 0.9849 0.86425 0.0
C299 C 0.59088 0.00091 0.84726 0.0
C300 C 0.62676 0.99744 0.84952 0.0
C301 C 0.53073 0.99195 0.86383 0.0
C302 C 0.5076 0.96391 0.86415 0.0
C303 C 0.51734 0.02616 0.86362 0.0
C304 C 0.54011 0.05701 0.86545 0.0
C305 C 0.53884 0.08292 0.84731 0.0
C306 C 0.56052 0.11185 0.84892 0.0
C307 C 0.58344 0.11523 0.86869 0.0
C308 C 0.58463 0.08976 0.88694 0.0
C309 C 0.56297 0.06082 0.88543 0.0
H310 H 0.60023 0.13762 0.86988 0.0
H311 H 0.38836 0.85833 0.87355 0.0
H312 H 0.19653 0.06921 0.39406 0.0
H313 H 0.16467 0.10769 0.42167 0.0
H314 H 0.23964 0.08845 0.47898 0.0
H315 H 0.27189 0.05027 0.45133 0.0
H316 H 0.13329 0.08923 0.46228 0.0
H317 H 0.24317 0.15722 0.51803 0.0
H318 H 0.30163 0.18085 0.51067 0.0
H319 H 0.27752 0.19496 0.43418 0.0
H320 H 0.21877 0.17192 0.44113 0.0
H321 H 0.07417 0.13274 0.57869 0.0
H322 H 0.11006 0.11282 0.54472 0.0
H323 H 0.12084 0.21791 0.51887 0.0
H324 H 0.08533 0.23837 0.55342 0.0
H325 H 0.18114 0.18317 0.51454 0.0
H326 H 0.06377 0.16393 0.49106 0.0
H327 H 0.0036 0.14361 0.49615 0.0
H328 H 0.03955 0.03877 0.50275 0.0
H329 H 0.09998 0.0585 0.49805 0.0
C330 C 0.20655 0.07361 0.41241 0.0
C331 C 0.23659 0.05657 0.4206 0.0
C332 C 0.18828 0.09558 0.42817 0.0
C333 C 0.19979 0.10104 0.45236 0.0
C334 C 0.23053 0.08504 0.46028 0.0
C335 C 0.24886 0.0631 0.4445 0.0
C336 C 0.17805 0.12078 0.46999 0.0
C337 C 0.14371 0.10995 0.47356 0.0
C338 C 0.19141 0.14828 0.48437 0.0
C339 C 0.22662 0.16254 0.48009 0.0
C340 C 0.25027 0.16552 0.49966 0.0
C341 C 0.28348 0.17878 0.49556 0.0
C342 C 0.29332 0.18931 0.47196 0.0
C343 C 0.26992 0.18668 0.45243 0.0
C344 C 0.23668 0.17346 0.45644 0.0
C345 C 0.08416 0.15174 0.56585 0.0
C346 C 0.07651 0.18714 0.5686 0.0
C347 C 0.10467 0.14026 0.5464 0.0
C348 C 0.1175 0.16378 0.52896 0.0
C349 C 0.111 0.19931 0.53205 0.0
C350 C 0.09068 0.21093 0.55176 0.0
C351 C 0.13689 0.15076 0.50729 0.0
C352 C 0.17069 0.16277 0.503 0.0
C353 C 0.12283 0.12481 0.49181 0.0
C354 C 0.08644 0.11274 0.49434 0.0
C355 C 0.05886 0.13656 0.49373 0.0
C356 C 0.0247 0.12515 0.49653 0.0
C357 C 0.01776 0.08993 0.4998 0.0
C358 C 0.04496 0.06604 0.50021 0.0
C359 C 0.07917 0.07732 0.49744 0.0
H360 H 0.9913 0.08115 0.50198 0.0
H361 H 0.31905 0.19955 0.46882 0.0
H362 H 0.22464 0.89088 0.42773 0.0
H363 H 0.20201 0.85164 0.45949 0.0
H364 H 0.14409 0.93593 0.49141 0.0
H365 H 0.16575 0.97501 0.4594 0.0
H366 H 0.18366 0.88799 0.52595 0.0
H367 H 0.10074 0.8911 0.45797 0.0
H368 H 0.08415 0.88445 0.4144 0.0
H369 H 0.11851 0.77868 0.41553 0.0
H370 H 0.1358 0.78489 0.45906 0.0
H371 H 0.05025 0.81978 0.59907 0.0
H372 H 0.089 0.85018 0.57121 0.0
H373 H 0.10517 0.75574 0.5302 0.0
H374 H 0.0644 0.72565 0.55727 0.0
H375 H 0.09408 0.80358 0.49964 0.0
H376 H 0.17029 0.79573 0.56798 0.0
H377 H 0.18897 0.80011 0.61126 0.0
H378 H 0.17236 0.91005 0.60972 0.0
H379 H 0.15311 0.9063 0.56652 0.0
C380 C 0.20744 0.90109 0.44173 0.0
C381 C 0.19676 0.93589 0.44108 0.0
C382 C 0.19454 0.87869 0.45977 0.0
C383 C 0.17142 0.89101 0.47767 0.0
C384 C 0.162 0.92607 0.47773 0.0
C385 C 0.17422 0.94826 0.4594 0.0
C386 C 0.15513 0.86703 0.49541 0.0
C387 C 0.16399 0.86954 0.52035 0.0
C388 C 0.1304 0.8423 0.4878 0.0
C389 C 0.12003 0.83861 0.46165 0.0
C390 C 0.10519 0.86656 0.44884 0.0
C391 C 0.09555 0.86284 0.42417 0.0
C392 C 0.10039 0.83119 0.41218 0.0
C393 C 0.11483 0.80319 0.42483 0.0
C394 C 0.12454 0.80679 0.4495 0.0
C395 C 0.06225 0.80535 0.58428 0.0
C396 C 0.054 0.77038 0.58023 0.0
C397 C 0.08478 0.82273 0.56844 0.0
C398 C 0.10052 0.80524 0.54869 0.0
C399 C 0.09337 0.76988 0.54524 0.0
C400 C 0.07018 0.75265 0.56079 0.0
C401 C 0.12213 0.82456 0.53063 0.0
C402 C 0.11422 0.82138 0.50547 0.0
C403 C 0.14823 0.84822 0.53806 0.0
C404 C 0.16005 0.85068 0.56402 0.0
C405 C 0.17042 0.82082 0.5769 0.0
C406 C 0.18113 0.82319 0.60142 0.0
C407 C 0.1818 0.85533 0.61324 0.0
C408 C 0.17183 0.88517 0.60054 0.0
C409 C 0.16107 0.88295 0.57602 0.0
H410 H 0.19008 0.85711 0.63223 0.0
H411 H 0.09281 0.82833 0.39311 0.0
H412 H 0.80521 0.92254 0.37887 0.0
H413 H 0.83609 0.8772 0.40145 0.0
H414 H 0.78049 0.90508 0.46756 0.0
H415 H 0.7484 0.94891 0.44473 0.0
H416 H 0.87967 0.88302 0.43467 0.0
H417 H 0.7758 0.84371 0.50878 0.0
H418 H 0.71312 0.83158 0.51027 0.0
H419 H 0.71324 0.80886 0.43292 0.0
H420 H 0.77602 0.82031 0.431 0.0
H421 H 0.95183 0.85716 0.54823 0.0
H422 H 0.91804 0.87192 0.51215 0.0
H423 H 0.88151 0.76653 0.50704 0.0
H424 H 0.91485 0.75154 0.544 0.0
H425 H 0.82978 0.80885 0.50026 0.0
H426 H 0.9394 0.79817 0.46422 0.0
H427 H 0.00269 0.80439 0.45983 0.0
H428 H 0.99169 0.91477 0.45445 0.0
H429 H 0.92838 0.90933 0.4592 0.0
C430 C 0.79913 0.91837 0.39811 0.0
C431 C 0.77442 0.93909 0.41008 0.0
C432 C 0.81681 0.89253 0.41101 0.0
C433 C 0.81046 0.88732 0.4362 0.0
C434 C 0.78523 0.90772 0.44801 0.0
C435 C 0.76704 0.93302 0.43499 0.0
C436 C 0.83253 0.86338 0.45082 0.0
C437 C 0.86869 0.86644 0.44876 0.0
C438 C 0.81842 0.84053 0.4686 0.0
C439 C 0.78068 0.83303 0.46974 0.0
C440 C 0.76255 0.83586 0.49212 0.0
C441 C 0.72696 0.82917 0.49303 0.0
C442 C 0.70921 0.81951 0.4717 0.0
C443 C 0.72701 0.81643 0.44942 0.0
C444 C 0.7626 0.82306 0.4484 0.0
C445 C 0.93691 0.83689 0.53943 0.0
C446 C 0.93616 0.80309 0.54904 0.0
C447 C 0.91772 0.84537 0.51861 0.0
C448 C 0.89778 0.82019 0.50655 0.0
C449 C 0.89693 0.78632 0.51597 0.0
C450 C 0.916 0.77781 0.53706 0.0
C451 C 0.87654 0.83039 0.48498 0.0
C452 C 0.84065 0.8247 0.4857 0.0
C453 C 0.89093 0.84975 0.46536 0.0
C454 C 0.92905 0.85331 0.46214 0.0
C455 C 0.95046 0.8238 0.46222 0.0
C456 C 0.98635 0.82719 0.45966 0.0
C457 C 0.00118 0.85995 0.45688 0.0
C458 C 0.98014 0.8894 0.45658 0.0
C459 C 0.94423 0.88617 0.45915 0.0
H460 H 0.02895 0.86252 0.45498 0.0
H461 H 0.68165 0.81438 0.47244 0.0
H462 H 0.77807 0.10345 0.43315 0.0
H463 H 0.79916 0.13989 0.46697 0.0
H464 H 0.86227 0.05548 0.49324 0.0
H465 H 0.8419 0.01914 0.45928 0.0
H466 H 0.82537 0.09772 0.53147 0.0
H467 H 0.90139 0.1071 0.45956 0.0
H468 H 0.91198 0.11869 0.41554 0.0
H469 H 0.86923 0.22078 0.42355 0.0
H470 H 0.85793 0.20955 0.46757 0.0
H471 H 0.95914 0.17266 0.60226 0.0
H472 H 0.92124 0.14015 0.57479 0.0
H473 H 0.89416 0.2348 0.53701 0.0
H474 H 0.93402 0.26696 0.56347 0.0
H475 H 0.90606 0.19051 0.50487 0.0
H476 H 0.83605 0.18678 0.57681 0.0
H477 H 0.82197 0.17738 0.62057 0.0
H478 H 0.84709 0.06951 0.61338 0.0
H479 H 0.86179 0.07833 0.56965 0.0
C480 C 0.79593 0.09246 0.4464 0.0
C481 C 0.8086 0.05856 0.44347 0.0
C482 C 0.80795 0.1133 0.46566 0.0
C483 C 0.83231 0.10032 0.48248 0.0
C484 C 0.84339 0.06587 0.48046 0.0
C485 C 0.83189 0.04525 0.46098 0.0
C486 C 0.84897 0.12348 0.50065 0.0
C487 C 0.84313 0.11799 0.52581 0.0
C488 C 0.87124 0.15048 0.49308 0.0
C489 C 0.87845 0.15735 0.46674 0.0
C490 C 0.89399 0.1319 0.45187 0.0
C491 C 0.90017 0.13843 0.42694 0.0
C492 C 0.89118 0.17041 0.41674 0.0
C493 C 0.87611 0.19599 0.43147 0.0
C494 C 0.86983 0.18957 0.4564 0.0
C495 C 0.94485 0.18656 0.58827 0.0
C496 C 0.9496 0.2223 0.58493 0.0
C497 C 0.92288 0.16798 0.57265 0.0
C498 C 0.90427 0.18498 0.55395 0.0
C499 C 0.90821 0.22097 0.55121 0.0
C500 C 0.9309 0.23937 0.56639 0.0
C501 C 0.88282 0.16495 0.53614 0.0
C502 C 0.88788 0.17081 0.51086 0.0
C503 C 0.85928 0.13879 0.54369 0.0
C504 C 0.85026 0.13328 0.56997 0.0
C505 C 0.83879 0.16109 0.58459 0.0
C506 C 0.83067 0.15586 0.60939 0.0
C507 C 0.8337 0.12288 0.61976 0.0
C508 C 0.84477 0.09504 0.60533 0.0
C509 C 0.85295 0.10013 0.58052 0.0
H510 H 0.82741 0.11889 0.63896 0.0
H511 H 0.89597 0.17541 0.39743 0.0
H512 H 0.73329 0.06018 0.945 0.0
H513 H 0.76799 0.09646 0.97262 0.0
H514 H 0.8535 0.09191 0.92165 0.0
H515 H 0.81881 0.05641 0.89368 0.0
H516 H 0.86854 0.07194 0.97223 0.0
H517 H 0.81548 0.16398 0.92544 0.0
H518 H 0.76616 0.19598 0.90769 0.0
H519 H 0.72508 0.21344 0.98009 0.0
H520 H 0.77393 0.18108 0.99826 0.0
H521 H 0.98305 0.18008 0.03589 0.0
H522 H 0.94709 0.15647 0.00279 0.0
H523 H 0.85498 0.1841 0.04349 0.0
H524 H 0.89118 0.2091 0.07609 0.0
H525 H 0.84284 0.19291 0.99715 0.0
H526 H 0.89114 0.10026 0.04458 0.0
H527 H 0.93703 0.06551 0.06429 0.0
H528 H 0.98319 0.04601 0.99374 0.0
H529 H 0.93769 0.08085 0.9736 0.0
C530 C 0.75931 0.06732 0.93952 0.0
C531 C 0.7734 0.05528 0.91724 0.0
C532 C 0.77905 0.08805 0.95529 0.0
C533 C 0.81325 0.09673 0.94913 0.0
C534 C 0.82713 0.08539 0.92668 0.0
C535 C 0.80724 0.06516 0.91073 0.0
C536 C 0.83523 0.11596 0.96674 0.0
C537 C 0.86335 0.09859 0.97741 0.0
C538 C 0.82749 0.15021 0.97408 0.0
C539 C 0.79819 0.1698 0.96319 0.0
C540 C 0.79577 0.17436 0.93756 0.0
C541 C 0.76793 0.19263 0.92743 0.0
C542 C 0.74245 0.20666 0.94275 0.0
C543 C 0.74481 0.20252 0.96825 0.0
C544 C 0.77259 0.18425 0.97847 0.0
C545 C 0.95512 0.18129 0.03755 0.0
C546 C 0.93973 0.19578 0.05854 0.0
C547 C 0.93458 0.16777 0.01874 0.0
C548 C 0.89829 0.16756 0.02096 0.0
C549 C 0.8829 0.18373 0.04141 0.0
C550 C 0.90351 0.19797 0.06001 0.0
C551 C 0.87657 0.14904 0.0026 0.0
C552 C 0.84831 0.16636 0.9919 0.0
C553 C 0.88377 0.11442 0.99554 0.0
C554 C 0.91121 0.09347 0.00761 0.0
C555 C 0.91122 0.08878 0.03329 0.0
C556 C 0.93709 0.06897 0.04453 0.0
C557 C 0.96304 0.05364 0.03028 0.0
C558 C 0.9631 0.05796 0.00475 0.0
C559 C 0.93723 0.07765 0.9934 0.0
H560 H 0.98305 0.03832 0.03901 0.0
H561 H 0.72092 0.22079 0.93487 0.0
H562 H 0.12559 0.0384 0.93162 0.0
H563 H 0.10533 0.07635 0.9642 0.0
H564 H 0.21053 0.10793 0.97909 0.0
H565 H 0.23115 0.07049 0.94572 0.0
H566 H 0.11382 0.07867 0.01091 0.0
H567 H 0.20976 0.19268 -0.00095 0.0
H568 H 0.24572 0.21935 0.9666 0.0
H569 H 0.17638 0.18071 0.91124 0.0
H570 H 0.13971 0.15438 0.94335 0.0
H571 H 0.07507 0.19468 0.10683 0.0
H572 H 0.10953 0.15887 0.07885 0.0
H573 H 0.07793 0.22298 0.01777 0.0
H574 H 0.04455 0.25953 0.04577 0.0
H575 H 0.14181 0.20409 0.01096 0.0
H576 H 0.03611 0.14569 0.03153 0.0
H577 H 0.9919 0.12076 0.05918 0.0
H578 H 0.06734 0.05031 0.08856 0.0
H579 H 0.11214 0.07527 0.06139 0.0
C580 C 0.1446 0.05323 0.94182 0.0
C581 C 0.18006 0.05146 0.93592 0.0
C582 C 0.1329 0.07491 0.96056 0.0
C583 C 0.15632 0.09524 0.974 0.0
C584 C 0.1919 0.09289 0.96869 0.0
C585 C 0.20366 0.07138 0.94969 0.0
C586 C 0.14293 0.11922 0.99315 0.0
C587 C 0.12022 0.10604 0.01103 0.0
C588 C 0.15066 0.15508 0.99306 0.0
C589 C 0.17229 0.17118 0.9736 0.0
C590 C 0.20215 0.18998 0.97995 0.0
C591 C 0.22263 0.20506 0.96161 0.0
C592 C 0.21339 0.20163 0.93686 0.0
C593 C 0.18355 0.18327 0.9304 0.0
C594 C 0.16294 0.16824 0.94866 0.0
C595 C 0.07599 0.20145 0.08749 0.0
C596 C 0.057 0.22975 0.07844 0.0
C597 C 0.09553 0.18088 0.0715 0.0
C598 C 0.09582 0.18784 0.04612 0.0
C599 C 0.07814 0.21708 0.03726 0.0
C600 C 0.059 0.23794 0.05329 0.0
C601 C 0.11254 0.16352 0.02857 0.0
C602 C 0.1359 0.17661 0.01106 0.0
C603 C 0.10433 0.12777 0.02833 0.0
C604 C 0.07753 0.1127 0.04471 0.0
C605 C 0.0433 0.12515 0.04409 0.0
C606 C 0.01817 0.11101 0.05965 0.0
C607 C 0.02684 0.08411 0.0757 0.0
C608 C 0.06068 0.07124 0.07618 0.0
C609 C 0.08597 0.08538 0.06072 0.0
H610 H 0.00729 0.07313 0.08766 0.0
H611 H 0.2293 0.21327 0.92269 0.0
H612 H 0.10229 0.76862 0.06989 0.0
H613 H 0.14041 0.78356 0.03532 0.0
H614 H 0.0632 0.85437 0.00775 0.0
H615 H 0.0252 0.83993 0.04218 0.0
H616 H 0.09609 0.8117 0.97069 0.0
H617 H 0.12557 0.88492 0.04201 0.0
H618 H 0.14566 0.89318 0.08471 0.0
H619 H 0.23937 0.83779 0.06829 0.0
H620 H 0.21957 0.82878 0.02558 0.0
H621 H 0.16953 0.93987 0.89663 0.0
H622 H 0.14002 0.90111 0.92484 0.0
H623 H 0.23861 0.86985 0.95534 0.0
H624 H 0.26793 0.91149 0.92855 0.0
H625 H 0.20109 0.88029 0.99047 0.0
H626 H 0.18023 0.81381 0.91909 0.0
H627 H 0.16353 0.80089 0.87627 0.0
H628 H 0.05947 0.83417 0.89121 0.0
H629 H 0.07561 0.84777 0.93403 0.0
C630 C 0.09333 0.78711 0.05632 0.0
C631 C 0.0609 0.80338 0.05889 0.0
C632 C 0.11511 0.79559 0.03662 0.0
C633 C 0.10458 0.82012 0.01908 0.0
C634 C 0.07172 0.83532 0.02109 0.0
C635 C 0.05017 0.82724 0.04088 0.0
C636 C 0.1284 0.83202 -0.0005 0.0
C637 C 0.11911 0.82673 0.97484 0.0
C638 C 0.15916 0.85022 0.00506 0.0
C639 C 0.17092 0.85583 0.03072 0.0
C640 C 0.15031 0.87425 0.04758 0.0
C641 C 0.16168 0.87911 0.07177 0.0
C642 C 0.19374 0.86593 0.07923 0.0
C643 C 0.21452 0.84792 0.0625 0.0
C644 C 0.20324 0.84293 0.03832 0.0
C645 C 0.18497 0.92453 0.90915 0.0
C646 C 0.22098 0.92902 0.91061 0.0
C647 C 0.16806 0.90186 0.92515 0.0
C648 C 0.18695 0.88191 0.94217 0.0
C649 C 0.22327 0.88497 0.94256 0.0
C650 C 0.24006 0.90865 0.92717 0.0
C651 C 0.16858 0.8609 0.96115 0.0
C652 C 0.17872 0.86455 0.98588 0.0
C653 C 0.13919 0.84028 0.95553 0.0
C654 C 0.12922 0.83197 0.92979 0.0
C655 C 0.15383 0.81857 0.91322 0.0
C656 C 0.14445 0.8111 0.88894 0.0
C657 C 0.11047 0.81674 0.88102 0.0
C658 C 0.08578 0.8298 0.89738 0.0
C659 C 0.09501 0.83733 0.92168 0.0
H660 H 0.10327 0.81096 0.86221 0.0
H661 H 0.2026 0.86976 0.09792 0.0
H662 H 0.76078 0.9113 0.94083 0.0
H663 H 0.78141 0.8748 0.97472 0.0
H664 H 0.8858 0.91055 0.96215 0.0
H665 H 0.8656 0.94732 0.92879 0.0
H666 H 0.82767 0.82194 0.97745 0.0
H667 H 0.9266 0.92203 0.01525 0.0
H668 H 0.93294 0.98548 0.01732 0.0
H669 H 0.82239 0.99739 0.01452 0.0
H670 H 0.81534 0.93395 0.0128 0.0
H671 H 0.95857 0.74198 0.04833 0.0
H672 H 0.92232 0.77367 0.01921 0.0
H673 H 0.88121 0.83534 0.07875 0.0
H674 H 0.91877 0.80471 0.10777 0.0
H675 H 0.89752 0.87573 0.04392 0.0
H676 H 0.83187 0.77131 0.0469 0.0
H677 H 0.82192 0.70825 0.04544 0.0
H678 H 0.85755 0.70543 0.9706 0.0
H679 H 0.86815 0.7684 0.9717 0.0
C680 C 0.78813 0.91136 0.94527 0.0
C681 C 0.81146 0.93252 0.93219 0.0
C682 C 0.79987 0.89041 0.96459 0.0
C683 C 0.83504 0.89037 0.97116 0.0
C684 C 0.85844 0.91069 0.9577 0.0
C685 C 0.84679 0.93168 0.93855 0.0
C686 C 0.84763 0.86961 0.9923 0.0
C687 C 0.84275 0.83362 0.99211 0.0
C688 C 0.86653 0.88505 0.01173 0.0
C689 C 0.87048 0.92321 0.01373 0.0
C690 C 0.90363 0.93816 0.01529 0.0
C691 C 0.90734 0.97415 0.01635 0.0
C692 C 0.87808 0.99547 0.01598 0.0
C693 C 0.84503 0.98084 0.01473 0.0
C694 C 0.84116 0.94487 0.0137 0.0
C695 C 0.94138 0.76192 0.05525 0.0
C696 C 0.94137 0.77087 0.0803 0.0
C697 C 0.92051 0.77994 0.03859 0.0
C698 C 0.89859 0.80666 0.04677 0.0
C699 C 0.89787 0.81487 0.07196 0.0
C700 C 0.91922 0.79728 0.08855 0.0
C701 C 0.87846 0.82768 0.02884 0.0
C702 C 0.88201 0.86387 0.02956 0.0
C703 C 0.85767 0.81242 0.01027 0.0
C704 C 0.85098 0.77458 0.00944 0.0
C705 C 0.83775 0.75722 0.03017 0.0
C706 C 0.83198 0.72149 0.0294 0.0
C707 C 0.83914 0.70284 0.00795 0.0
C708 C 0.85201 0.71991 0.9872 0.0
C709 C 0.85785 0.75563 0.98787 0.0
H710 H 0.83468 0.67518 0.00741 0.0
H711 H 0.88096 0.02329 0.01667 0.0
H712 H 0.1169 0.24887 0.66599 0.0
H713 H 0.15895 0.23677 0.6989 0.0
H714 H 0.07964 0.18308 0.73984 0.0
H715 H 0.03797 0.19475 0.70722 0.0
H716 H 0.12395 0.22109 0.77012 0.0
H717 H 0.13021 0.13948 0.69983 0.0
H718 H 0.1415 0.12654 0.65607 0.0
H719 H 0.24361 0.16983 0.66251 0.0
H720 H 0.23268 0.18338 0.70627 0.0
H721 H 0.14797 0.06326 0.82207 0.0
H722 H 0.13761 0.11147 0.79445 0.0
H723 H 0.24676 0.13516 0.7936 0.0
H724 H 0.25765 0.08655 0.82203 0.0
H725 H 0.20906 0.13153 0.74478 0.0
H726 H 0.2068 0.19165 0.82014 0.0
H727 H 0.19405 0.20155 0.86404 0.0
H728 H 0.08492 0.19869 0.84884 0.0
H729 H 0.09694 0.18817 0.80492 0.0
C730 C 0.10831 0.23531 0.68234 0.0
C731 C 0.07428 0.22241 0.68398 0.0
C732 C 0.13235 0.22835 0.70105 0.0
C733 C 0.12245 0.20882 0.72171 0.0
C734 C 0.08783 0.19827 0.7241 0.0
C735 C 0.06406 0.20477 0.70538 0.0
C736 C 0.14817 0.19526 0.73953 0.0
C737 C 0.14302 0.20193 0.76465 0.0
C738 C 0.17393 0.17119 0.73232 0.0
C739 C 0.18049 0.16283 0.70615 0.0
C740 C 0.15496 0.14642 0.69184 0.0
C741 C 0.1613 0.13896 0.66707 0.0
C742 C 0.19321 0.14746 0.65649 0.0
C743 C 0.21887 0.16335 0.67071 0.0
C744 C 0.21262 0.17094 0.69548 0.0
C745 C 0.17 0.07843 0.81604 0.0
C746 C 0.20373 0.07088 0.82426 0.0
C747 C 0.16392 0.10621 0.80035 0.0
C748 C 0.19134 0.12707 0.79227 0.0
C749 C 0.22526 0.11942 0.79986 0.0
C750 C 0.23139 0.09169 0.81602 0.0
C751 C 0.18335 0.156 0.77535 0.0
C752 C 0.19154 0.15206 0.75037 0.0
C753 C 0.16041 0.18263 0.78272 0.0
C754 C 0.15283 0.1891 0.80916 0.0
C755 C 0.18007 0.19291 0.82616 0.0
C756 C 0.17297 0.19866 0.85106 0.0
C757 C 0.1387 0.20077 0.85922 0.0
C758 C 0.11146 0.19712 0.84248 0.0
C759 C 0.11841 0.19133 0.81756 0.0
H760 H 0.13324 0.20526 0.87849 0.0
H761 H 0.19808 0.14166 0.63731 0.0
H762 H 0.04467 0.8506 0.18412 0.0
H763 H 0.08788 0.86608 0.21464 0.0
H764 H 0.13455 0.76508 0.20812 0.0
H765 H 0.09115 0.74904 0.17697 0.0
H766 H 0.12499 0.79627 0.25993 0.0
H767 H 0.17733 0.81863 0.18159 0.0
H768 H 0.17805 0.83969 0.13874 0.0
H769 H 0.15631 0.94293 0.16374 0.0
H770 H 0.15478 0.92241 0.20669 0.0
H771 H 0.24617 0.89116 0.33599 0.0
H772 H 0.22897 0.85142 0.30277 0.0
H773 H 0.16451 0.93144 0.27151 0.0
H774 H 0.1814 0.97086 0.30429 0.0
H775 H 0.19943 0.89563 0.23617 0.0
H776 H 0.13136 0.87175 0.31039 0.0
H777 H 0.12503 0.85361 0.35369 0.0
H778 H 0.1728 0.75594 0.33693 0.0
H779 H 0.17986 0.77378 0.29356 0.0
C780 C 0.06378 0.83135 0.1892 0.0
C781 C 0.06453 0.79861 0.17781 0.0
C782 C 0.08852 0.84033 0.2067 0.0
C783 C 0.11457 0.81687 0.21336 0.0
C784 C 0.11463 0.78353 0.20309 0.0
C785 C 0.08984 0.77449 0.18531 0.0
C786 C 0.14229 0.82875 0.23016 0.0
C787 C 0.14217 0.81723 0.25464 0.0
C788 C 0.16432 0.85632 0.22321 0.0
C789 C 0.16586 0.86892 0.19739 0.0
C790 C 0.1725 0.84579 0.17795 0.0
C791 C 0.17307 0.85764 0.15363 0.0
C792 C 0.16721 0.89263 0.14854 0.0
C793 C 0.16086 0.91585 0.16773 0.0
C794 C 0.1602 0.90412 0.19206 0.0
C795 C 0.22889 0.90039 0.32172 0.0
C796 C 0.21492 0.93403 0.32282 0.0
C797 C 0.21897 0.87763 0.30287 0.0
C798 C 0.19527 0.88843 0.28479 0.0
C799 C 0.18286 0.92257 0.28523 0.0
C800 C 0.19242 0.94504 0.30407 0.0
C801 C 0.18102 0.86425 0.26618 0.0
C802 C 0.18354 0.8736 0.24131 0.0
C803 C 0.16097 0.83498 0.27286 0.0
C804 C 0.15659 0.82427 0.29886 0.0
C805 C 0.14077 0.84653 0.316 0.0
C806 C 0.137 0.83628 0.34054 0.0
C807 C 0.14861 0.80368 0.34808 0.0
C808 C 0.16391 0.78122 0.33108 0.0
C809 C 0.16782 0.79139 0.30653 0.0
H810 H 0.14567 0.79579 0.36708 0.0
H811 H 0.16758 0.90181 0.12973 0.0
H812 H 0.90417 0.84799 0.65152 0.0
H813 H 0.86507 0.86388 0.68475 0.0
H814 H 0.87018 0.75992 0.71348 0.0
H815 H 0.90955 0.74343 0.67961 0.0
H816 H 0.79862 0.80428 0.7163 0.0
H817 H 0.91904 0.8004 0.74158 0.0
H818 H 0.98151 0.80975 0.73462 0.0
H819 H 0.96347 0.91855 0.72436 0.0
H820 H 0.90081 0.90973 0.73086 0.0
H821 H 0.75643 0.89003 0.8341 0.0
H822 H 0.7739 0.84959 0.8014 0.0
H823 H 0.81732 0.93473 0.76022 0.0
H824 H 0.80085 0.97472 0.79288 0.0
H825 H 0.86447 0.88566 0.76931 0.0
H826 H 0.74474 0.8898 0.74118 0.0
H827 H 0.68171 0.88173 0.74603 0.0
H828 H 0.69732 0.77375 0.7614 0.0
H829 H 0.76052 0.78129 0.75696 0.0
C830 C 0.89654 0.82823 0.66461 0.0
C831 C 0.91045 0.79466 0.66332 0.0
C832 C 0.87391 0.83729 0.68344 0.0
C833 C 0.86498 0.81315 0.70159 0.0
C834 C 0.87668 0.77881 0.69949 0.0
C835 C 0.89926 0.76952 0.68029 0.0
C836 C 0.84863 0.82622 0.72438 0.0
C837 C 0.81302 0.8214 0.72837 0.0
C838 C 0.86746 0.84879 0.73986 0.0
C839 C 0.90525 0.85435 0.7366 0.0
C840 C 0.92839 0.82628 0.73771 0.0
C841 C 0.96383 0.83149 0.73385 0.0
C842 C 0.97645 0.86472 0.72903 0.0
C843 C 0.95366 0.89283 0.72811 0.0
C844 C 0.9182 0.88774 0.73192 0.0
C845 C 0.76882 0.90012 0.81771 0.0
C846 C 0.77768 0.9354 0.81608 0.0
C847 C 0.77882 0.87701 0.79908 0.0
C848 C 0.79727 0.88911 0.77851 0.0
C849 C 0.80348 0.92477 0.77607 0.0
C850 C 0.79399 0.94763 0.7947 0.0
C851 C 0.81395 0.865 0.76084 0.0
C852 C 0.84994 0.86782 0.75783 0.0
C853 C 0.79533 0.84067 0.74649 0.0
C854 C 0.75737 0.8362 0.74904 0.0
C855 C 0.73476 0.8644 0.74582 0.0
C856 C 0.699 0.85991 0.74844 0.0
C857 C 0.68553 0.82727 0.7541 0.0
C858 C 0.70779 0.79903 0.75707 0.0
C859 C 0.74357 0.8034 0.75448 0.0
H860 H 0.65784 0.82385 0.75613 0.0
H861 H 0.00388 0.8687 0.72602 0.0
H862 H 0.74707 0.08499 0.31383 0.0
H863 H 0.76092 0.12693 0.2811 0.0
H864 H 0.86643 0.13203 0.30706 0.0
H865 H 0.85303 0.09025 0.33924 0.0
H866 H 0.84042 0.1969 0.29297 0.0
H867 H 0.84799 0.07756 0.26289 0.0
H868 H 0.82346 0.01993 0.25391 0.0
H869 H 0.74631 0.06649 0.20753 0.0
H870 H 0.77019 0.12449 0.21653 0.0
H871 H 0.96933 0.18976 0.19978 0.0
H872 H 0.92705 0.17689 0.23211 0.0
H873 H 0.84712 0.22767 0.19004 0.0
H874 H 0.88975 0.2419 0.15791 0.0
H875 H 0.84276 0.14676 0.20888 0.0
H876 H 0.84723 0.26573 0.23158 0.0
H877 H 0.87536 0.3217 0.24029 0.0
H878 H 0.93138 0.27571 0.30024 0.0
H879 H 0.90402 0.21925 0.2916 0.0
C880 C 0.77304 0.09551 0.31268 0.0
C881 C 0.79912 0.08401 0.32879 0.0
C882 C 0.78088 0.11942 0.29406 0.0
C883 C 0.81472 0.13249 0.29168 0.0
C884 C 0.84015 0.1224 0.30863 0.0
C885 C 0.83252 0.09823 0.32685 0.0
C886 C 0.82532 0.15372 0.27026 0.0
C887 C 0.8405 0.18623 0.2745 0.0
C888 C 0.82479 0.14007 0.2461 0.0
C889 C 0.81052 0.10531 0.24064 0.0
C890 C 0.82561 0.0755 0.25094 0.0
C891 C 0.81187 0.04279 0.24583 0.0
C892 C 0.78326 0.03956 0.23024 0.0
C893 C 0.76841 0.06904 0.21967 0.0
C894 C 0.78202 0.10184 0.22477 0.0
C895 C 0.94292 0.1988 0.19766 0.0
C896 C 0.93278 0.21687 0.17643 0.0
C897 C 0.91885 0.19149 0.21609 0.0
C898 C 0.88412 0.20145 0.21339 0.0
C899 C 0.87392 0.22006 0.19246 0.0
C900 C 0.89827 0.22824 0.17424 0.0
C901 C 0.85861 0.18945 0.23175 0.0
C902 C 0.84112 0.15833 0.22705 0.0
C903 C 0.85711 0.20436 0.25545 0.0
C904 C 0.87379 0.23816 0.26078 0.0
C905 C 0.86584 0.26744 0.24644 0.0
C906 C 0.88158 0.29928 0.25141 0.0
C907 C 0.90521 0.30225 0.27077 0.0
C908 C 0.91309 0.27336 0.28523 0.0
C909 C 0.89744 0.24143 0.28032 0.0
H910 H 0.91735 0.32693 0.2746 0.0
H911 H 0.77266 0.01421 0.22628 0.0
loop_
_geom_bond_atom_site_label_1
_geom_bond_atom_site_label_2
_geom_bond_distance
_geom_bond_site_symmetry_2
_ccdc_geom_bond_type
Co0 O1 2.216 . S
Co0 O2 2.091 . S
Co0 O4 2.004 . S
Co0 O10 2.021 . S
Co0 O12 2.137 . S
Co0 O13 2.244 . S
O1 Co0 2.216 . S
O1 C8 1.247 . S
O2 Co0 2.091 . S
O2 C8 1.261 . S
C3 O12 1.247 . S
C3 O13 1.272 . S
O4 Co0 2.004 . S
O4 C9 1.259 . S
Co5 O6 2.061 . S
Co5 O11 2.052 . S
Co5 O13 2.135 . S
O6 Co5 2.061 . S
O6 C9 1.235 . S
C7 O10 1.238 . S
C7 O11 1.241 . S
C8 O1 1.247 . S
C8 O2 1.261 . S
C9 O4 1.259 . S
C9 O6 1.235 . S
O10 Co0 2.021 . S
O10 C7 1.238 . S
O11 Co5 2.052 . S
O11 C7 1.241 . S
O12 Co0 2.137 . S
O12 C3 1.247 . S
O13 Co0 2.244 . S
O13 C3 1.272 . S
O13 Co5 2.135 . S
Co14 O15 2.216 . S
Co14 O16 2.091 . S
Co14 O18 2.004 . S
Co14 O24 2.021 . S
Co14 O26 2.137 . S
Co14 O27 2.244 . S
O15 Co14 2.216 . S
O15 C22 1.247 . S
O16 Co14 2.091 . S
O16 C22 1.261 . S
C17 O26 1.247 . S
C17 O27 1.272 . S
O18 Co14 2.004 . S
O18 C23 1.259 . S
Co19 O20 2.061 . S
Co19 O25 2.052 . S
Co19 O27 2.135 . S
O20 Co19 2.061 . S
O20 C23 1.235 . S
C21 O24 1.238 . S
C21 O25 1.241 . S
C22 O15 1.247 . S
C22 O16 1.261 . S
C23 O18 1.259 . S
C23 O20 1.235 . S
O24 Co14 2.021 . S
O24 C21 1.238 . S
O25 Co19 2.052 . S
O25 C21 1.241 . S
O26 Co14 2.137 . S
O26 C17 1.247 . S
O27 Co14 2.244 . S
O27 C17 1.272 . S
O27 Co19 2.135 . S
Co28 O29 2.216 . S
Co28 O30 2.091 . S
Co28 O32 2.004 . S
Co28 O38 2.021 . S
Co28 O40 2.137 . S
Co28 O41 2.244 . S
O29 Co28 2.216 . S
O29 C36 1.247 . S
O30 Co28 2.091 . S
O30 C36 1.261 . S
C31 O40 1.247 . S
C31 O41 1.272 . S
O32 Co28 2.004 . S
O32 C37 1.259 . S
Co33 O34 2.061 . S
Co33 O39 2.052 . S
Co33 O41 2.135 . S
O34 Co33 2.061 . S
O34 C37 1.235 . S
C35 O38 1.238 . S
C35 O39 1.241 . S
C36 O29 1.247 . S
C36 O30 1.261 . S
C37 O32 1.259 . S
C37 O34 1.235 . S
O38 Co28 2.021 . S
O38 C35 1.238 . S
O39 Co33 2.052 . S
O39 C35 1.241 . S
O40 Co28 2.137 . S
O40 C31 1.247 . S
O41 Co28 2.244 . S
O41 C31 1.272 . S
O41 Co33 2.135 . S
Co42 O43 2.216 . S
Co42 O44 2.091 . S
Co42 O46 2.004 . S
Co42 O52 2.021 . S
Co42 O54 2.137 . S
Co42 O55 2.244 . S
O43 Co42 2.216 . S
O43 C50 1.247 . S
O44 Co42 2.091 . S
O44 C50 1.261 . S
C45 O54 1.247 . S
C45 O55 1.272 . S
O46 Co42 2.004 . S
O46 C51 1.259 . S
Co47 O48 2.061 . S
Co47 O53 2.052 . S
Co47 O55 2.135 . S
O48 Co47 2.061 . S
O48 C51 1.235 . S
C49 O52 1.238 . S
C49 O53 1.241 . S
C50 O43 1.247 . S
C50 O44 1.261 . S
C51 O46 1.259 . S
C51 O48 1.235 . S
O52 Co42 2.021 . S
O52 C49 1.238 . S
O53 Co47 2.052 . S
O53 C49 1.241 . S
O54 Co42 2.137 . S
O54 C45 1.247 . S
O55 Co42 2.244 . S
O55 C45 1.272 . S
O55 Co47 2.135 . S
Co56 O57 2.216 . S
Co56 O58 2.091 . S
Co56 O60 2.004 . S
Co56 O66 2.021 . S
Co56 O68 2.137 . S
Co56 O69 2.244 . S
O57 Co56 2.216 . S
O57 C64 1.247 . S
O58 Co56 2.091 . S
O58 C64 1.261 . S
C59 O68 1.247 . S
C59 O69 1.272 . S
O60 Co56 2.004 . S
O60 C65 1.259 . S
Co61 O62 2.061 . S
Co61 O67 2.052 . S
Co61 O69 2.135 . S
O62 Co61 2.061 . S
O62 C65 1.235 . S
C63 O66 1.238 . S
C63 O67 1.241 . S
C64 O57 1.247 . S
C64 O58 1.261 . S
C65 O60 1.259 . S
C65 O62 1.235 . S
O66 Co56 2.021 . S
O66 C63 1.238 . S
O67 Co61 2.052 . S
O67 C63 1.241 . S
O68 Co56 2.137 . S
O68 C59 1.247 . S
O69 Co56 2.244 . S
O69 C59 1.272 . S
O69 Co61 2.135 . S
Co70 O71 2.216 . S
Co70 O72 2.091 . S
Co70 O74 2.004 . S
Co70 O80 2.021 . S
Co70 O82 2.137 . S
Co70 O83 2.244 . S
O71 Co70 2.216 . S
O71 C78 1.247 . S
O72 Co70 2.091 . S
O72 C78 1.261 . S
C73 O82 1.247 . S
C73 O83 1.272 . S
O74 Co70 2.004 . S
O74 C79 1.259 . S
Co75 O76 2.061 . S
Co75 O81 2.052 . S
Co75 O83 2.135 . S
O76 Co75 2.061 . S
O76 C79 1.235 . S
C77 O80 1.238 . S
C77 O81 1.241 . S
C78 O71 1.247 . S
C78 O72 1.261 . S
C79 O74 1.259 . S
C79 O76 1.235 . S
O80 Co70 2.021 . S
O80 C77 1.238 . S
O81 Co75 2.052 . S
O81 C77 1.241 . S
O82 Co70 2.137 . S
O82 C73 1.247 . S
O83 Co70 2.244 . S
O83 C73 1.272 . S
O83 Co75 2.135 . S
Co84 O85 2.216 . S
Co84 O86 2.091 . S
Co84 O88 2.004 . S
Co84 O94 2.021 . S
Co84 O96 2.137 . S
Co84 O97 2.244 . S
O85 Co84 2.216 . S
O85 C92 1.247 . S
O86 Co84 2.091 . S
O86 C92 1.261 . S
C87 O96 1.247 . S
C87 O97 1.272 . S
O88 Co84 2.004 . S
O88 C93 1.259 . S
Co89 O90 2.061 . S
Co89 O95 2.052 . S
Co89 O97 2.135 . S
O90 Co89 2.061 . S
O90 C93 1.235 . S
C91 O94 1.238 . S
C91 O95 1.241 . S
C92 O85 1.247 . S
C92 O86 1.261 . S
C93 O88 1.259 . S
C93 O90 1.235 . S
O94 Co84 2.021 . S
O94 C91 1.238 . S
O95 Co89 2.052 . S
O95 C91 1.241 . S
O96 Co84 2.137 . S
O96 C87 1.247 . S
O97 Co84 2.244 . S
O97 C87 1.272 . S
O97 Co89 2.135 . S
Co98 O99 2.216 . S
Co98 O100 2.091 . S
Co98 O102 2.004 . S
Co98 O108 2.021 . S
Co98 O110 2.137 . S
Co98 O111 2.244 . S
O99 Co98 2.216 . S
O99 C106 1.247 . S
O100 Co98 2.091 . S
O100 C106 1.261 . S
C101 O110 1.247 . S
C101 O111 1.272 . S
O102 Co98 2.004 . S
O102 C107 1.259 . S
Co103 O104 2.061 . S
Co103 O109 2.052 . S
Co103 O111 2.135 . S
O104 Co103 2.061 . S
O104 C107 1.235 . S
C105 O108 1.238 . S
C105 O109 1.241 . S
C106 O99 1.247 . S
C106 O100 1.261 . S
C107 O102 1.259 . S
C107 O104 1.235 . S
O108 Co98 2.021 . S
O108 C105 1.238 . S
O109 Co103 2.052 . S
O109 C105 1.241 . S
O110 Co98 2.137 . S
O110 C101 1.247 . S
O111 Co98 2.244 . S
O111 C101 1.272 . S
O111 Co103 2.135 . S
H112 C130 0.951 . S
H113 C132 0.951 . S
H114 C134 0.950 . S
H115 C135 0.950 . S
H116 C137 0.950 . S
H117 C140 0.950 . S
H118 C141 0.950 . S
H119 C143 0.950 . S
H120 C144 0.950 . S
H121 C145 0.951 . S
H122 C147 0.951 . S
H123 C149 0.950 . S
H124 C150 0.950 . S
H125 C152 0.950 . S
H126 C155 0.950 . S
H127 C156 0.950 . S
H128 C158 0.950 . S
H129 C159 0.950 . S
C130 H112 0.951 . S
C130 C131 1.366 . S
C130 C132 1.388 . S
C131 C130 1.366 . S
C131 C135 1.385 . S
C132 H113 0.951 . S
C132 C130 1.388 . S
C132 C133 1.366 . S
C133 C132 1.366 . S
C133 C134 1.414 . S
C133 C136 1.499 . S
C134 H114 0.950 . S
C134 C133 1.414 . S
C134 C135 1.374 . S
C135 H115 0.950 . S
C135 C131 1.385 . S
C135 C134 1.374 . S
C136 C133 1.499 . S
C136 C137 1.373 . S
C136 C138 1.389 1_655 S
C137 H116 0.950 . S
C137 C136 1.373 . S
C137 C153 1.377 . S
C138 C136 1.389 1_455 S
C138 C139 1.524 . S
C138 C152 1.377 . S
C139 C138 1.524 . S
C139 C140 1.397 . S
C139 C144 1.363 . S
C140 H117 0.950 . S
C140 C139 1.397 . S
C140 C141 1.334 . S
C141 H118 0.950 . S
C141 C140 1.334 . S
C141 C142 1.287 . S
C142 C141 1.287 . S
C142 C143 1.524 . S
C142 H161 0.913 . S
C143 H119 0.950 . S
C143 C142 1.524 . S
C143 C144 1.415 . S
C144 H120 0.950 . S
C144 C139 1.363 . S
C144 C143 1.415 . S
C145 H121 0.951 . S
C145 C146 1.366 . S
C145 C147 1.388 . S
C146 C145 1.366 . S
C146 C150 1.385 . S
C147 H122 0.951 . S
C147 C145 1.388 . S
C147 C148 1.366 . S
C148 C147 1.366 . S
C148 C149 1.414 . S
C148 C151 1.499 . S
C149 H123 0.950 . S
C149 C148 1.414 . S
C149 C150 1.374 . S
C150 H124 0.950 . S
C150 C146 1.385 . S
C150 C149 1.374 . S
C151 C148 1.499 . S
C151 C152 1.373 . S
C151 C153 1.389 1_455 S
C152 H125 0.950 . S
C152 C138 1.377 . S
C152 C151 1.373 . S
C153 C137 1.377 . S
C153 C151 1.389 1_655 S
C153 C154 1.524 . S
C154 C153 1.524 . S
C154 C155 1.397 . S
C154 C159 1.363 . S
C155 H126 0.950 . S
C155 C154 1.397 . S
C155 C156 1.334 . S
C156 H127 0.950 . S
C156 C155 1.334 . S
C156 C157 1.287 . S
C157 C156 1.287 . S
C157 C158 1.524 . S
C157 H160 0.999 . S
C158 H128 0.950 . S
C158 C157 1.524 . S
C158 C159 1.415 . S
C159 H129 0.950 . S
C159 C154 1.363 . S
C159 C158 1.415 . S
H160 C157 0.999 . S
H161 C142 0.913 . S
H162 C180 0.951 . S
H163 C182 0.951 . S
H164 C184 0.950 . S
H165 C185 0.950 . S
H166 C187 0.950 . S
H167 C190 0.950 . S
H168 C191 0.950 . S
H169 C193 0.950 . S
H170 C194 0.950 . S
H171 C195 0.951 . S
H172 C197 0.951 . S
H173 C199 0.950 . S
H174 C200 0.950 . S
H175 C202 0.950 . S
H176 C205 0.950 . S
H177 C206 0.950 . S
H178 C208 0.950 . S
H179 C209 0.950 . S
C180 H162 0.951 . S
C180 C181 1.366 . S
C180 C182 1.388 . S
C181 C180 1.366 . S
C181 C185 1.385 . S
C182 H163 0.951 . S
C182 C180 1.388 . S
C182 C183 1.366 . S
C183 C182 1.366 . S
C183 C184 1.414 . S
C183 C186 1.499 . S
C184 H164 0.950 . S
C184 C183 1.414 . S
C184 C185 1.374 . S
C185 H165 0.950 . S
C185 C181 1.385 . S
C185 C184 1.374 . S
C186 C183 1.499 . S
C186 C187 1.373 . S
C186 C188 1.389 1_545 S
C187 H166 0.950 . S
C187 C186 1.373 . S
C187 C203 1.377 . S
C188 C186 1.389 1_565 S
C188 C189 1.524 . S
C188 C202 1.377 . S
C189 C188 1.524 . S
C189 C190 1.397 . S
C189 C194 1.363 . S
C190 H167 0.950 . S
C190 C189 1.397 . S
C190 C191 1.334 . S
C191 H168 0.950 . S
C191 C190 1.334 . S
C191 C192 1.287 . S
C192 C191 1.287 . S
C192 C193 1.524 . S
C192 H211 0.913 . S
C193 H169 0.950 . S
C193 C192 1.524 . S
C193 C194 1.415 . S
C194 H170 0.950 . S
C194 C189 1.363 . S
C194 C193 1.415 . S
C195 H171 0.951 . S
C195 C196 1.366 . S
C195 C197 1.388 . S
C196 C195 1.366 . S
C196 C200 1.385 . S
C197 H172 0.951 . S
C197 C195 1.388 . S
C197 C198 1.366 . S
C198 C197 1.366 . S
C198 C199 1.414 . S
C198 C201 1.499 . S
C199 H173 0.950 . S
C199 C198 1.414 . S
C199 C200 1.374 . S
C200 H174 0.950 . S
C200 C196 1.385 . S
C200 C199 1.374 . S
C201 C198 1.499 . S
C201 C202 1.373 . S
C201 C203 1.389 1_565 S
C202 H175 0.950 . S
C202 C188 1.377 . S
C202 C201 1.373 . S
C203 C187 1.377 . S
C203 C201 1.389 1_545 S
C203 C204 1.524 . S
C204 C203 1.524 . S
C204 C205 1.397 . S
C204 C209 1.363 . S
C205 H176 0.950 . S
C205 C204 1.397 . S
C205 C206 1.334 . S
C206 H177 0.950 . S
C206 C205 1.334 . S
C206 C207 1.287 . S
C207 C206 1.287 . S
C207 C208 1.524 . S
C207 H210 0.999 . S
C208 H178 0.950 . S
C208 C207 1.524 . S
C208 C209 1.415 . S
C209 H179 0.950 . S
C209 C204 1.363 . S
C209 C208 1.415 . S
H210 C207 0.999 . S
H211 C192 0.913 . S
H212 C230 0.951 . S
H213 C232 0.948 . S
H214 C234 0.950 . S
H215 C235 0.950 . S
H216 C237 0.950 . S
H217 C240 0.950 . S
H218 C241 0.950 . S
H219 C243 0.950 . S
H220 C244 0.950 . S
H221 C245 0.951 . S
H222 C247 0.948 . S
H223 C249 0.950 . S
H224 C250 0.950 . S
H225 C252 0.950 . S
H226 C255 0.950 . S
H227 C256 0.950 . S
H228 C258 0.950 . S
H229 C259 0.950 . S
C230 H212 0.951 . S
C230 C231 1.366 . S
C230 C232 1.388 . S
C231 C230 1.366 . S
C231 C235 1.385 . S
C232 H213 0.948 . S
C232 C230 1.388 . S
C232 C233 1.366 . S
C233 C232 1.366 . S
C233 C234 1.414 . S
C233 C236 1.499 . S
C234 H214 0.950 . S
C234 C233 1.414 . S
C234 C235 1.374 . S
C235 H215 0.950 . S
C235 C231 1.385 . S
C235 C234 1.374 . S
C236 C233 1.499 . S
C236 C237 1.373 . S
C236 C238 1.388 1_655 S
C237 H216 0.950 . S
C237 C236 1.373 . S
C237 C253 1.378 . S
C238 C236 1.388 1_455 S
C238 C239 1.524 1_455 S
C238 C252 1.378 . S
C239 C238 1.524 1_655 S
C239 C240 1.395 . S
C239 C244 1.364 1_655 S
C240 H217 0.950 . S
C240 C239 1.395 . S
C240 C241 1.334 . S
C241 H218 0.950 . S
C241 C240 1.334 . S
C241 C242 1.287 . S
C242 C241 1.287 . S
C242 C243 1.524 1_655 S
C242 H261 0.913 . S
C243 H219 0.950 . S
C243 C242 1.524 1_455 S
C243 C244 1.415 . S
C244 H220 0.950 . S
C244 C239 1.364 1_455 S
C244 C243 1.415 . S
C245 H221 0.951 . S
C245 C246 1.366 . S
C245 C247 1.388 . S
C246 C245 1.366 . S
C246 C250 1.385 . S
C247 H222 0.948 . S
C247 C245 1.388 . S
C247 C248 1.366 . S
C248 C247 1.366 . S
C248 C249 1.414 . S
C248 C251 1.499 . S
C249 H223 0.950 . S
C249 C248 1.414 . S
C249 C250 1.374 . S
C250 H224 0.950 . S
C250 C246 1.385 . S
C250 C249 1.374 . S
C251 C248 1.499 . S
C251 C252 1.373 . S
C251 C253 1.388 1_455 S
C252 H225 0.950 . S
C252 C238 1.378 . S
C252 C251 1.373 . S
C253 C237 1.378 . S
C253 C251 1.388 1_655 S
C253 C254 1.524 1_655 S
C254 C253 1.524 1_455 S
C254 C255 1.395 . S
C254 C259 1.364 1_455 S
C255 H226 0.950 . S
C255 C254 1.395 . S
C255 C256 1.334 . S
C256 H227 0.950 . S
C256 C255 1.334 . S
C256 C257 1.287 . S
C257 C256 1.287 . S
C257 C258 1.524 1_455 S
C257 H260 0.999 1_554 S
C258 H228 0.950 . S
C258 C257 1.524 1_655 S
C258 C259 1.415 . S
C259 H229 0.950 . S
C259 C254 1.364 1_655 S
C259 C258 1.415 . S
H260 C257 0.999 1_556 S
H261 C242 0.913 . S
H262 C280 0.951 . S
H263 C282 0.931 1_565 S
H264 C284 0.950 . S
H265 C285 0.950 . S
H266 C287 0.950 . S
H267 C290 0.950 1_545 S
H268 C291 0.950 . S
H269 C293 0.950 . S
H270 C294 0.950 . S
H271 C295 0.951 . S
H272 C297 0.931 1_545 S
H273 C299 0.950 . S
H274 C300 0.950 . S
H275 C302 0.950 . S
H276 C305 0.950 1_565 S
H277 C306 0.950 . S
H278 C308 0.950 . S
H279 C309 0.950 . S
C280 H262 0.951 . S
C280 C281 1.366 . S
C280 C282 1.388 . S
C281 C280 1.366 . S
C281 C285 1.385 . S
C282 H263 0.931 1_545 S
C282 C280 1.388 . S
C282 C283 1.366 . S
C283 C282 1.366 . S
C283 C284 1.414 . S
C283 C286 1.499 . S
C284 H264 0.950 . S
C284 C283 1.414 . S
C284 C285 1.374 . S
C285 H265 0.950 . S
C285 C281 1.385 . S
C285 C284 1.374 . S
C286 C283 1.499 . S
C286 C287 1.373 . S
C286 C288 1.389 1_545 S
C287 H266 0.950 . S
C287 C286 1.373 . S
C287 C303 1.377 . S
C288 C286 1.389 1_565 S
C288 C289 1.524 . S
C288 C302 1.377 . S
C289 C288 1.524 . S
C289 C290 1.397 . S
C289 C294 1.363 . S
C290 H267 0.950 1_565 S
C290 C289 1.397 . S
C290 C291 1.334 . S
C291 H268 0.950 . S
C291 C290 1.334 . S
C291 C292 1.287 . S
C292 C291 1.287 . S
C292 C293 1.524 . S
C292 H311 0.913 . S
C293 H269 0.950 . S
C293 C292 1.524 . S
C293 C294 1.415 . S
C294 H270 0.950 . S
C294 C289 1.363 . S
C294 C293 1.415 . S
C295 H271 0.951 . S
C295 C296 1.366 . S
C295 C297 1.388 . S
C296 C295 1.366 . S
C296 C300 1.385 . S
C297 H272 0.931 1_565 S
C297 C295 1.388 . S
C297 C298 1.366 . S
C298 C297 1.366 . S
C298 C299 1.414 . S
C298 C301 1.499 . S
C299 H273 0.950 . S
C299 C298 1.414 . S
C299 C300 1.374 . S
C300 H274 0.950 . S
C300 C296 1.385 . S
C300 C299 1.374 . S
C301 C298 1.499 . S
C301 C302 1.373 . S
C301 C303 1.389 1_565 S
C302 H275 0.950 . S
C302 C288 1.377 . S
C302 C301 1.373 . S
C303 C287 1.377 . S
C303 C301 1.389 1_545 S
C303 C304 1.524 . S
C304 C303 1.524 . S
C304 C305 1.397 . S
C304 C309 1.363 . S
C305 H276 0.950 1_545 S
C305 C304 1.397 . S
C305 C306 1.334 . S
C306 H277 0.950 . S
C306 C305 1.334 . S
C306 C307 1.287 . S
C307 C306 1.287 . S
C307 C308 1.524 . S
C307 H310 0.999 . S
C308 H278 0.950 . S
C308 C307 1.524 . S
C308 C309 1.415 . S
C309 H279 0.950 . S
C309 C304 1.363 . S
C309 C308 1.415 . S
H310 C307 0.999 . S
H311 C292 0.913 . S
H312 C330 0.951 . S
H313 C332 0.951 . S
H314 C334 0.950 . S
H315 C335 0.950 . S
H316 C337 0.950 . S
H317 C340 0.950 . S
H318 C341 0.950 . S
H319 C343 0.950 . S
H320 C344 0.950 . S
H321 C345 0.951 . S
H322 C347 0.951 . S
H323 C349 0.950 . S
H324 C350 0.950 . S
H325 C352 0.950 . S
H326 C355 0.950 . S
H327 C356 0.950 . S
H328 C358 0.950 . S
H329 C359 0.950 . S
C330 H312 0.951 . S
C330 C331 1.366 1_545 S
C330 C332 1.388 . S
C331 C330 1.366 1_565 S
C331 C335 1.385 . S
C332 H313 0.951 . S
C332 C330 1.388 . S
C332 C333 1.366 . S
C333 C332 1.366 . S
C333 C334 1.414 . S
C333 C336 1.499 . S
C334 H314 0.950 . S
C334 C333 1.414 . S
C334 C335 1.374 1_545 S
C335 H315 0.950 . S
C335 C331 1.385 . S
C335 C334 1.374 1_565 S
C336 C333 1.499 . S
C336 C337 1.373 . S
C336 C338 1.389 . S
C337 H316 0.950 . S
C337 C336 1.373 . S
C337 C353 1.377 . S
C338 C336 1.389 . S
C338 C339 1.524 . S
C338 C352 1.377 . S
C339 C338 1.524 . S
C339 C340 1.397 . S
C339 C344 1.363 . S
C340 H317 0.950 . S
C340 C339 1.397 . S
C340 C341 1.334 . S
C341 H318 0.950 . S
C341 C340 1.334 . S
C341 C342 1.287 . S
C342 C341 1.287 . S
C342 C343 1.524 . S
C342 H361 0.913 . S
C343 H319 0.950 . S
C343 C342 1.524 . S
C343 C344 1.415 . S
C344 H320 0.950 . S
C344 C339 1.363 . S
C344 C343 1.415 . S
C345 H321 0.951 . S
C345 C346 1.366 . S
C345 C347 1.388 . S
C346 C345 1.366 . S
C346 C350 1.385 . S
C347 H322 0.951 . S
C347 C345 1.388 . S
C347 C348 1.366 . S
C348 C347 1.366 . S
C348 C349 1.414 . S
C348 C351 1.499 . S
C349 H323 0.950 . S
C349 C348 1.414 . S
C349 C350 1.374 . S
C350 H324 0.950 . S
C350 C346 1.385 . S
C350 C349 1.374 . S
C351 C348 1.499 . S
C351 C352 1.373 . S
C351 C353 1.389 . S
C352 H325 0.950 . S
C352 C338 1.377 . S
C352 C351 1.373 . S
C353 C337 1.377 . S
C353 C351 1.389 . S
C353 C354 1.524 . S
C354 C353 1.524 . S
C354 C355 1.397 . S
C354 C359 1.363 . S
C355 H326 0.950 . S
C355 C354 1.397 . S
C355 C356 1.334 . S
C356 H327 0.950 . S
C356 C355 1.334 . S
C356 C357 1.287 . S
C357 C356 1.287 . S
C357 C358 1.524 . S
C357 H360 0.999 . S
C358 H328 0.950 . S
C358 C357 1.524 . S
C358 C359 1.415 . S
C359 H329 0.950 . S
C359 C354 1.363 . S
C359 C358 1.415 . S
H360 C357 0.999 . S
H361 C342 0.913 . S
H362 C380 0.951 . S
H363 C382 0.951 . S
H364 C384 0.950 . S
H365 C385 0.950 . S
H366 C387 0.950 . S
H367 C390 0.950 . S
H368 C391 0.950 . S
H369 C393 0.950 . S
H370 C394 0.950 . S
H371 C395 0.951 . S
H372 C397 0.951 . S
H373 C399 0.950 . S
H374 C400 0.950 . S
H375 C402 0.950 . S
H376 C405 0.950 . S
H377 C406 0.950 . S
H378 C408 0.950 . S
H379 C409 0.950 . S
C380 H362 0.951 . S
C380 C381 1.366 . S
C380 C382 1.388 . S
C381 C380 1.366 . S
C381 C385 1.385 . S
C382 H363 0.951 . S
C382 C380 1.388 . S
C382 C383 1.366 . S
C383 C382 1.366 . S
C383 C384 1.414 . S
C383 C386 1.499 . S
C384 H364 0.950 . S
C384 C383 1.414 . S
C384 C385 1.374 . S
C385 H365 0.950 . S
C385 C381 1.385 . S
C385 C384 1.374 . S
C386 C383 1.499 . S
C386 C387 1.373 . S
C386 C388 1.389 . S
C387 H366 0.950 . S
C387 C386 1.373 . S
C387 C403 1.377 . S
C388 C386 1.389 . S
C388 C389 1.524 . S
C388 C402 1.377 . S
C389 C388 1.524 . S
C389 C390 1.397 . S
C389 C394 1.363 . S
C390 H367 0.950 . S
C390 C389 1.397 . S
C390 C391 1.334 . S
C391 H368 0.950 . S
C391 C390 1.334 . S
C391 C392 1.287 . S
C392 C391 1.287 . S
C392 C393 1.524 . S
C392 H411 0.913 . S
C393 H369 0.950 . S
C393 C392 1.524 . S
C393 C394 1.415 . S
C394 H370 0.950 . S
C394 C389 1.363 . S
C394 C393 1.415 . S
C395 H371 0.951 . S
C395 C396 1.366 . S
C395 C397 1.388 1_655 S
C396 C395 1.366 . S
C396 C400 1.385 . S
C397 H372 0.951 . S
C397 C395 1.388 1_455 S
C397 C398 1.366 . S
C398 C397 1.366 . S
C398 C399 1.414 . S
C398 C401 1.499 . S
C399 H373 0.950 . S
C399 C398 1.414 . S
C399 C400 1.374 1_455 S
C400 H374 0.950 . S
C400 C396 1.385 . S
C400 C399 1.374 1_655 S
C401 C398 1.499 . S
C401 C402 1.373 . S
C401 C403 1.389 . S
C402 H375 0.950 . S
C402 C388 1.377 . S
C402 C401 1.373 . S
C403 C387 1.377 . S
C403 C401 1.389 . S
C403 C404 1.524 . S
C404 C403 1.524 . S
C404 C405 1.397 . S
C404 C409 1.363 . S
C405 H376 0.950 . S
C405 C404 1.397 . S
C405 C406 1.334 . S
C406 H377 0.950 . S
C406 C405 1.334 . S
C406 C407 1.287 . S
C407 C406 1.287 . S
C407 C408 1.524 . S
C407 H410 0.999 . S
C408 H378 0.950 . S
C408 C407 1.524 . S
C408 C409 1.415 . S
C409 H379 0.950 . S
C409 C404 1.363 . S
C409 C408 1.415 . S
H410 C407 0.999 . S
H411 C392 0.913 . S
H412 C430 0.951 . S
H413 C432 0.951 . S
H414 C434 0.950 1_545 S
H415 C435 0.950 . S
H416 C437 0.950 . S
H417 C440 0.950 . S
H418 C441 0.950 . S
H419 C443 0.950 . S
H420 C444 0.950 . S
H421 C445 0.951 . S
H422 C447 0.951 . S
H423 C449 0.950 . S
H424 C450 0.950 . S
H425 C452 0.950 . S
H426 C455 0.950 . S
H427 C456 0.950 . S
H428 C458 0.950 . S
H429 C459 0.950 . S
C430 H412 0.951 . S
C430 C431 1.366 1_565 S
C430 C432 1.388 . S
C431 C430 1.366 1_545 S
C431 C435 1.385 . S
C432 H413 0.951 . S
C432 C430 1.388 . S
C432 C433 1.366 . S
C433 C432 1.366 . S
C433 C434 1.414 . S
C433 C436 1.499 . S
C434 H414 0.950 1_565 S
C434 C433 1.414 . S
C434 C435 1.374 1_565 S
C435 H415 0.950 . S
C435 C431 1.385 . S
C435 C434 1.374 1_545 S
C436 C433 1.499 . S
C436 C437 1.373 . S
C436 C438 1.389 . S
C437 H416 0.950 . S
C437 C436 1.373 . S
C437 C453 1.377 . S
C438 C436 1.389 . S
C438 C439 1.524 . S
C438 C452 1.377 . S
C439 C438 1.524 . S
C439 C440 1.397 . S
C439 C444 1.363 . S
C440 H417 0.950 . S
C440 C439 1.397 . S
C440 C441 1.334 . S
C441 H418 0.950 . S
C441 C440 1.334 . S
C441 C442 1.287 . S
C442 C441 1.287 . S
C442 C443 1.524 . S
C442 H461 0.913 . S
C443 H419 0.950 . S
C443 C442 1.524 . S
C443 C444 1.415 . S
C444 H420 0.950 . S
C444 C439 1.363 . S
C444 C443 1.415 . S
C445 H421 0.951 . S
C445 C446 1.366 . S
C445 C447 1.388 . S
C446 C445 1.366 . S
C446 C450 1.385 . S
C447 H422 0.951 . S
C447 C445 1.388 . S
C447 C448 1.366 . S
C448 C447 1.366 . S
C448 C449 1.414 . S
C448 C451 1.499 . S
C449 H423 0.950 . S
C449 C448 1.414 . S
C449 C450 1.374 . S
C450 H424 0.950 . S
C450 C446 1.385 . S
C450 C449 1.374 . S
C451 C448 1.499 . S
C451 C452 1.373 . S
C451 C453 1.389 . S
C452 H425 0.950 . S
C452 C438 1.377 . S
C452 C451 1.373 . S
C453 C437 1.377 . S
C453 C451 1.389 . S
C453 C454 1.524 . S
C454 C453 1.524 . S
C454 C455 1.397 . S
C454 C459 1.363 . S
C455 H426 0.950 . S
C455 C454 1.397 . S
C455 C456 1.334 . S
C456 H427 0.950 . S
C456 C455 1.334 . S
C456 C457 1.287 . S
C457 C456 1.287 . S
C457 C458 1.524 . S
C457 H460 0.999 . S
C458 H428 0.950 . S
C458 C457 1.524 . S
C458 C459 1.415 . S
C459 H429 0.950 . S
C459 C454 1.363 . S
C459 C458 1.415 . S
H460 C457 0.999 . S
H461 C442 0.913 . S
H462 C480 0.951 . S
H463 C482 0.951 . S
H464 C484 0.950 . S
H465 C485 0.950 . S
H466 C487 0.950 . S
H467 C490 0.950 . S
H468 C491 0.950 . S
H469 C493 0.950 . S
H470 C494 0.950 . S
H471 C495 0.951 . S
H472 C497 0.951 . S
H473 C499 0.950 . S
H474 C500 0.950 . S
H475 C502 0.950 . S
H476 C505 0.950 . S
H477 C506 0.950 . S
H478 C508 0.950 . S
H479 C509 0.950 . S
C480 H462 0.951 . S
C480 C481 1.366 . S
C480 C482 1.388 . S
C481 C480 1.366 . S
C481 C485 1.385 . S
C482 H463 0.951 . S
C482 C480 1.388 . S
C482 C483 1.366 . S
C483 C482 1.366 . S
C483 C484 1.414 . S
C483 C486 1.499 . S
C484 H464 0.950 . S
C484 C483 1.414 . S
C484 C485 1.374 . S
C485 H465 0.950 . S
C485 C481 1.385 . S
C485 C484 1.374 . S
C486 C483 1.499 . S
C486 C487 1.373 . S
C486 C488 1.389 . S
C487 H466 0.950 . S
C487 C486 1.373 . S
C487 C503 1.377 . S
C488 C486 1.389 . S
C488 C489 1.524 . S
C488 C502 1.377 . S
C489 C488 1.524 . S
C489 C490 1.397 . S
C489 C494 1.363 . S
C490 H467 0.950 . S
C490 C489 1.397 . S
C490 C491 1.334 . S
C491 H468 0.950 . S
C491 C490 1.334 . S
C491 C492 1.287 . S
C492 C491 1.287 . S
C492 C493 1.524 . S
C492 H511 0.913 . S
C493 H469 0.950 . S
C493 C492 1.524 . S
C493 C494 1.415 . S
C494 H470 0.950 . S
C494 C489 1.363 . S
C494 C493 1.415 . S
C495 H471 0.951 . S
C495 C496 1.366 . S
C495 C497 1.388 1_455 S
C496 C495 1.366 . S
C496 C500 1.385 1_455 S
C497 H472 0.951 . S
C497 C495 1.388 1_655 S
C497 C498 1.366 . S
C498 C497 1.366 . S
C498 C499 1.414 . S
C498 C501 1.499 . S
C499 H473 0.950 . S
C499 C498 1.414 . S
C499 C500 1.374 . S
C500 H474 0.950 . S
C500 C496 1.385 1_655 S
C500 C499 1.374 . S
C501 C498 1.499 . S
C501 C502 1.373 . S
C501 C503 1.389 . S
C502 H475 0.950 . S
C502 C488 1.377 . S
C502 C501 1.373 . S
C503 C487 1.377 . S
C503 C501 1.389 . S
C503 C504 1.524 . S
C504 C503 1.524 . S
C504 C505 1.397 . S
C504 C509 1.363 . S
C505 H476 0.950 . S
C505 C504 1.397 . S
C505 C506 1.334 . S
C506 H477 0.950 . S
C506 C505 1.334 . S
C506 C507 1.287 . S
C507 C506 1.287 . S
C507 C508 1.524 . S
C507 H510 0.999 . S
C508 H478 0.950 . S
C508 C507 1.524 . S
C508 C509 1.415 . S
C509 H479 0.950 . S
C509 C504 1.363 . S
C509 C508 1.415 . S
H510 C507 0.999 . S
H511 C492 0.913 . S
H512 C530 0.951 . S
H513 C532 0.951 . S
H514 C534 0.950 . S
H515 C535 0.950 . S
H516 C537 0.950 . S
H517 C540 0.950 . S
H518 C541 0.950 . S
H519 C543 0.950 . S
H520 C544 0.950 . S
H521 C545 0.951 . S
H522 C547 0.951 . S
H523 C549 0.950 . S
H524 C550 0.950 . S
H525 C552 0.949 1_554 S
H526 C555 0.950 . S
H527 C556 0.950 . S
H528 C558 0.950 . S
H529 C559 0.950 1_556 S
C530 H512 0.951 . S
C530 C531 1.366 . S
C530 C532 1.388 1_565 S
C531 C530 1.366 . S
C531 C535 1.385 . S
C532 H513 0.951 . S
C532 C530 1.388 1_545 S
C532 C533 1.366 . S
C533 C532 1.366 . S
C533 C534 1.414 . S
C533 C536 1.499 . S
C534 H514 0.950 . S
C534 C533 1.414 . S
C534 C535 1.374 1_545 S
C535 H515 0.950 . S
C535 C531 1.385 . S
C535 C534 1.374 1_565 S
C536 C533 1.499 . S
C536 C537 1.373 . S
C536 C538 1.389 . S
C537 H516 0.950 . S
C537 C536 1.373 . S
C537 C553 1.377 1_556 S
C538 C536 1.389 . S
C538 C539 1.524 . S
C538 C552 1.377 . S
C539 C538 1.524 . S
C539 C540 1.397 . S
C539 C544 1.363 . S
C540 H517 0.950 . S
C540 C539 1.397 . S
C540 C541 1.334 . S
C541 H518 0.950 . S
C541 C540 1.334 . S
C541 C542 1.287 . S
C542 C541 1.287 . S
C542 C543 1.524 . S
C542 H561 0.913 . S
C543 H519 0.950 . S
C543 C542 1.524 . S
C543 C544 1.415 . S
C544 H520 0.950 . S
C544 C539 1.363 . S
C544 C543 1.415 . S
C545 H521 0.951 . S
C545 C546 1.366 . S
C545 C547 1.388 . S
C546 C545 1.366 . S
C546 C550 1.385 . S
C547 H522 0.951 . S
C547 C545 1.388 . S
C547 C548 1.366 . S
C548 C547 1.366 . S
C548 C549 1.414 . S
C548 C551 1.499 . S
C549 H523 0.950 . S
C549 C548 1.414 . S
C549 C550 1.374 . S
C550 H524 0.950 . S
C550 C546 1.385 . S
C550 C549 1.374 . S
C551 C548 1.499 . S
C551 C552 1.373 1_554 S
C551 C553 1.389 . S
C552 H525 0.949 1_556 S
C552 C538 1.377 . S
C552 C551 1.373 1_556 S
C553 C537 1.377 1_554 S
C553 C551 1.389 . S
C553 C554 1.524 . S
C554 C553 1.524 . S
C554 C555 1.397 . S
C554 C559 1.363 . S
C555 H526 0.950 . S
C555 C554 1.397 . S
C555 C556 1.334 . S
C556 H527 0.950 . S
C556 C555 1.334 . S
C556 C557 1.287 . S
C557 C556 1.287 . S
C557 C558 1.524 . S
C557 H560 0.999 . S
C558 H528 0.950 . S
C558 C557 1.524 . S
C558 C559 1.415 . S
C559 H529 0.950 1_554 S
C559 C554 1.363 . S
C559 C558 1.415 . S
H560 C557 0.999 . S
H561 C542 0.913 . S
H562 C580 0.951 . S
H563 C582 0.951 . S
H564 C584 0.950 . S
H565 C585 0.950 . S
H566 C587 0.950 . S
H567 C590 0.950 . S
H568 C591 0.950 . S
H569 C593 0.950 . S
H570 C594 0.950 . S
H571 C595 0.951 . S
H572 C597 0.951 . S
H573 C599 0.950 1_655 S
H574 C600 0.950 . S
H575 C602 0.950 . S
H576 C605 0.950 . S
H577 C606 0.950 . S
H578 C608 0.950 . S
H579 C609 0.950 . S
C580 H562 0.951 . S
C580 C581 1.366 . S
C580 C582 1.388 . S
C581 C580 1.366 . S
C581 C585 1.385 . S
C582 H563 0.951 . S
C582 C580 1.388 . S
C582 C583 1.366 . S
C583 C582 1.366 . S
C583 C584 1.414 . S
C583 C586 1.499 . S
C584 H564 0.950 . S
C584 C583 1.414 . S
C584 C585 1.374 . S
C585 H565 0.950 . S
C585 C581 1.385 . S
C585 C584 1.374 . S
C586 C583 1.499 . S
C586 C587 1.373 1_556 S
C586 C588 1.389 . S
C587 H566 0.950 . S
C587 C586 1.373 1_554 S
C587 C603 1.377 . S
C588 C586 1.389 . S
C588 C589 1.524 . S
C588 C602 1.377 . S
C589 C588 1.524 . S
C589 C590 1.397 . S
C589 C594 1.363 . S
C590 H567 0.950 . S
C590 C589 1.397 . S
C590 C591 1.334 . S
C591 H568 0.950 . S
C591 C590 1.334 . S
C591 C592 1.287 . S
C592 C591 1.287 . S
C592 C593 1.524 . S
C592 H611 0.913 . S
C593 H569 0.950 . S
C593 C592 1.524 . S
C593 C594 1.415 . S
C594 H570 0.950 . S
C594 C589 1.363 . S
C594 C593 1.415 . S
C595 H571 0.951 . S
C595 C596 1.366 1_455 S
C595 C597 1.388 . S
C596 C595 1.366 1_655 S
C596 C600 1.385 . S
C597 H572 0.951 . S
C597 C595 1.388 . S
C597 C598 1.366 . S
C598 C597 1.366 . S
C598 C599 1.414 . S
C598 C601 1.499 . S
C599 H573 0.950 1_455 S
C599 C598 1.414 . S
C599 C600 1.374 1_455 S
C600 H574 0.950 . S
C600 C596 1.385 . S
C600 C599 1.374 1_655 S
C601 C598 1.499 . S
C601 C602 1.373 1_554 S
C601 C603 1.389 . S
C602 H575 0.950 . S
C602 C588 1.377 . S
C602 C601 1.373 1_556 S
C603 C587 1.377 . S
C603 C601 1.389 . S
C603 C604 1.524 . S
C604 C603 1.524 . S
C604 C605 1.397 . S
C604 C609 1.363 . S
C605 H576 0.950 . S
C605 C604 1.397 . S
C605 C606 1.334 . S
C606 H577 0.950 . S
C606 C605 1.334 . S
C606 C607 1.287 . S
C607 C606 1.287 . S
C607 C608 1.524 . S
C607 H610 0.999 . S
C608 H578 0.950 . S
C608 C607 1.524 . S
C608 C609 1.415 . S
C609 H579 0.950 . S
C609 C604 1.363 . S
C609 C608 1.415 . S
H610 C607 0.999 . S
H611 C592 0.913 . S
H612 C630 0.951 . S
H613 C632 0.951 . S
H614 C634 0.950 . S
H615 C635 0.950 . S
H616 C637 0.950 . S
H617 C640 0.950 . S
H618 C641 0.950 . S
H619 C643 0.950 . S
H620 C644 0.950 . S
H621 C645 0.951 . S
H622 C647 0.951 . S
H623 C649 0.950 . S
H624 C650 0.950 . S
H625 C652 0.950 . S
H626 C655 0.950 . S
H627 C656 0.950 . S
H628 C658 0.950 . S
H629 C659 0.950 . S
C630 H612 0.951 . S
C630 C631 1.366 . S
C630 C632 1.388 . S
C631 C630 1.366 . S
C631 C635 1.385 . S
C632 H613 0.951 . S
C632 C630 1.388 . S
C632 C633 1.366 . S
C633 C632 1.366 . S
C633 C634 1.414 . S
C633 C636 1.499 . S
C634 H614 0.950 . S
C634 C633 1.414 . S
C634 C635 1.374 . S
C635 H615 0.950 . S
C635 C631 1.385 . S
C635 C634 1.374 . S
C636 C633 1.499 . S
C636 C637 1.373 1_554 S
C636 C638 1.389 . S
C637 H616 0.950 . S
C637 C636 1.373 1_556 S
C637 C653 1.377 . S
C638 C636 1.389 . S
C638 C639 1.524 . S
C638 C652 1.377 1_554 S
C639 C638 1.524 . S
C639 C640 1.397 . S
C639 C644 1.363 . S
C640 H617 0.950 . S
C640 C639 1.397 . S
C640 C641 1.334 . S
C641 H618 0.950 . S
C641 C640 1.334 . S
C641 C642 1.287 . S
C642 C641 1.287 . S
C642 C643 1.524 . S
C642 H661 0.913 . S
C643 H619 0.950 . S
C643 C642 1.524 . S
C643 C644 1.415 . S
C644 H620 0.950 . S
C644 C639 1.363 . S
C644 C643 1.415 . S
C645 H621 0.951 . S
C645 C646 1.366 . S
C645 C647 1.388 1_545 S
C646 C645 1.366 . S
C646 C650 1.385 1_545 S
C647 H622 0.951 . S
C647 C645 1.388 1_565 S
C647 C648 1.366 . S
C648 C647 1.366 . S
C648 C649 1.414 . S
C648 C651 1.499 . S
C649 H623 0.950 . S
C649 C648 1.414 . S
C649 C650 1.374 . S
C650 H624 0.950 . S
C650 C646 1.385 1_565 S
C650 C649 1.374 . S
C651 C648 1.499 . S
C651 C652 1.373 . S
C651 C653 1.389 . S
C652 H625 0.950 . S
C652 C638 1.377 1_556 S
C652 C651 1.373 . S
C653 C637 1.377 . S
C653 C651 1.389 . S
C653 C654 1.524 . S
C654 C653 1.524 . S
C654 C655 1.397 . S
C654 C659 1.363 . S
C655 H626 0.950 . S
C655 C654 1.397 . S
C655 C656 1.334 . S
C656 H627 0.950 . S
C656 C655 1.334 . S
C656 C657 1.287 . S
C657 C656 1.287 . S
C657 C658 1.524 . S
C657 H660 0.999 . S
C658 H628 0.950 . S
C658 C657 1.524 . S
C658 C659 1.415 . S
C659 H629 0.950 . S
C659 C654 1.363 . S
C659 C658 1.415 . S
H660 C657 0.999 . S
H661 C642 0.913 . S
H662 C680 0.951 . S
H663 C682 0.932 1_554 S
H664 C684 0.950 . S
H665 C685 0.950 . S
H666 C687 0.950 . S
H667 C690 0.950 1_556 S
H668 C691 0.950 . S
H669 C693 0.950 . S
H670 C694 0.950 . S
H671 C695 0.951 . S
H672 C697 0.949 1_455 S
H673 C699 0.950 . S
H674 C700 0.950 . S
H675 C702 0.950 . S
H676 C705 0.950 1_554 S
H677 C706 0.950 . S
H678 C708 0.950 . S
H679 C709 0.950 . S
C680 H662 0.951 . S
C680 C681 1.366 . S
C680 C682 1.388 . S
C681 C680 1.366 . S
C681 C685 1.385 . S
C682 H663 0.932 1_556 S
C682 C680 1.388 . S
C682 C683 1.366 . S
C683 C682 1.366 . S
C683 C684 1.414 . S
C683 C686 1.499 . S
C684 H664 0.950 . S
C684 C683 1.414 . S
C684 C685 1.374 . S
C685 H665 0.950 . S
C685 C681 1.385 . S
C685 C684 1.374 . S
C686 C683 1.499 . S
C686 C687 1.373 . S
C686 C688 1.389 1_556 S
C687 H666 0.950 . S
C687 C686 1.373 . S
C687 C703 1.377 . S
C688 C686 1.389 1_554 S
C688 C689 1.524 . S
C688 C702 1.377 . S
C689 C688 1.524 . S
C689 C690 1.397 . S
C689 C694 1.363 . S
C690 H667 0.950 1_554 S
C690 C689 1.397 . S
C690 C691 1.334 . S
C691 H668 0.950 . S
C691 C690 1.334 . S
C691 C692 1.287 . S
C692 C691 1.287 . S
C692 C693 1.524 . S
C692 H711 0.913 . S
C693 H669 0.950 . S
C693 C692 1.524 . S
C693 C694 1.415 . S
C694 H670 0.950 . S
C694 C689 1.363 . S
C694 C693 1.415 . S
C695 H671 0.951 . S
C695 C696 1.366 . S
C695 C697 1.388 1_455 S
C696 C695 1.366 . S
C696 C700 1.385 1_455 S
C697 H672 0.949 1_655 S
C697 C695 1.388 1_655 S
C697 C698 1.366 . S
C698 C697 1.366 . S
C698 C699 1.414 . S
C698 C701 1.499 . S
C699 H673 0.950 . S
C699 C698 1.414 . S
C699 C700 1.374 . S
C700 H674 0.950 . S
C700 C696 1.385 1_655 S
C700 C699 1.374 . S
C701 C698 1.499 . S
C701 C702 1.373 . S
C701 C703 1.389 1_554 S
C702 H675 0.950 . S
C702 C688 1.377 . S
C702 C701 1.373 . S
C703 C687 1.377 . S
C703 C701 1.389 1_556 S
C703 C704 1.524 . S
C704 C703 1.524 . S
C704 C705 1.397 . S
C704 C709 1.363 . S
C705 H676 0.950 1_556 S
C705 C704 1.397 . S
C705 C706 1.334 . S
C706 H677 0.950 . S
C706 C705 1.334 . S
C706 C707 1.287 . S
C707 C706 1.287 . S
C707 C708 1.524 . S
C707 H710 0.999 . S
C708 H678 0.950 . S
C708 C707 1.524 . S
C708 C709 1.415 . S
C709 H679 0.950 . S
C709 C704 1.363 . S
C709 C708 1.415 . S
H710 C707 0.999 . S
H711 C692 0.913 . S
H712 C730 0.951 . S
H713 C732 0.951 . S
H714 C734 0.950 . S
H715 C735 0.950 . S
H716 C737 0.950 . S
H717 C740 0.950 . S
H718 C741 0.950 . S
H719 C743 0.950 . S
H720 C744 0.950 . S
H721 C745 0.951 . S
H722 C747 0.951 . S
H723 C749 0.950 . S
H724 C750 0.950 . S
H725 C752 0.950 . S
H726 C755 0.950 . S
H727 C756 0.950 . S
H728 C758 0.950 . S
H729 C759 0.950 . S
C730 H712 0.951 . S
C730 C731 1.366 . S
C730 C732 1.388 . S
C731 C730 1.366 . S
C731 C735 1.385 . S
C732 H713 0.951 . S
C732 C730 1.388 . S
C732 C733 1.366 . S
C733 C732 1.366 . S
C733 C734 1.414 . S
C733 C736 1.499 . S
C734 H714 0.950 . S
C734 C733 1.414 . S
C734 C735 1.374 . S
C735 H715 0.950 . S
C735 C731 1.385 . S
C735 C734 1.374 . S
C736 C733 1.499 . S
C736 C737 1.373 . S
C736 C738 1.389 . S
C737 H716 0.950 . S
C737 C736 1.373 . S
C737 C753 1.377 . S
C738 C736 1.389 . S
C738 C739 1.524 . S
C738 C752 1.377 . S
C739 C738 1.524 . S
C739 C740 1.397 . S
C739 C744 1.363 . S
C740 H717 0.950 . S
C740 C739 1.397 . S
C740 C741 1.334 . S
C741 H718 0.950 . S
C741 C740 1.334 . S
C741 C742 1.287 . S
C742 C741 1.287 . S
C742 C743 1.524 . S
C742 H761 0.913 . S
C743 H719 0.950 . S
C743 C742 1.524 . S
C743 C744 1.415 . S
C744 H720 0.950 . S
C744 C739 1.363 . S
C744 C743 1.415 . S
C745 H721 0.951 . S
C745 C746 1.366 . S
C745 C747 1.388 . S
C746 C745 1.366 . S
C746 C750 1.385 . S
C747 H722 0.951 . S
C747 C745 1.388 . S
C747 C748 1.366 . S
C748 C747 1.366 . S
C748 C749 1.414 . S
C748 C751 1.499 . S
C749 H723 0.950 . S
C749 C748 1.414 . S
C749 C750 1.374 . S
C750 H724 0.950 . S
C750 C746 1.385 . S
C750 C749 1.374 . S
C751 C748 1.499 . S
C751 C752 1.373 . S
C751 C753 1.389 . S
C752 H725 0.950 . S
C752 C738 1.377 . S
C752 C751 1.373 . S
C753 C737 1.377 . S
C753 C751 1.389 . S
C753 C754 1.524 . S
C754 C753 1.524 . S
C754 C755 1.397 . S
C754 C759 1.363 . S
C755 H726 0.950 . S
C755 C754 1.397 . S
C755 C756 1.334 . S
C756 H727 0.950 . S
C756 C755 1.334 . S
C756 C757 1.287 . S
C757 C756 1.287 . S
C757 C758 1.524 . S
C757 H760 0.999 . S
C758 H728 0.950 . S
C758 C757 1.524 . S
C758 C759 1.415 . S
C759 H729 0.950 . S
C759 C754 1.363 . S
C759 C758 1.415 . S
H760 C757 0.999 . S
H761 C742 0.913 . S
H762 C780 0.951 . S
H763 C782 0.951 . S
H764 C784 0.950 . S
H765 C785 0.950 . S
H766 C787 0.950 . S
H767 C790 0.950 . S
H768 C791 0.950 . S
H769 C793 0.950 . S
H770 C794 0.950 . S
H771 C795 0.951 . S
H772 C797 0.951 . S
H773 C799 0.950 . S
H774 C800 0.950 . S
H775 C802 0.950 . S
H776 C805 0.950 . S
H777 C806 0.950 . S
H778 C808 0.950 . S
H779 C809 0.950 . S
C780 H762 0.951 . S
C780 C781 1.366 . S
C780 C782 1.388 . S
C781 C780 1.366 . S
C781 C785 1.385 . S
C782 H763 0.951 . S
C782 C780 1.388 . S
C782 C783 1.366 . S
C783 C782 1.366 . S
C783 C784 1.414 . S
C783 C786 1.499 . S
C784 H764 0.950 . S
C784 C783 1.414 . S
C784 C785 1.374 . S
C785 H765 0.950 . S
C785 C781 1.385 . S
C785 C784 1.374 . S
C786 C783 1.499 . S
C786 C787 1.373 . S
C786 C788 1.389 . S
C787 H766 0.950 . S
C787 C786 1.373 . S
C787 C803 1.377 . S
C788 C786 1.389 . S
C788 C789 1.524 . S
C788 C802 1.377 . S
C789 C788 1.524 . S
C789 C790 1.397 . S
C789 C794 1.363 . S
C790 H767 0.950 . S
C790 C789 1.397 . S
C790 C791 1.334 . S
C791 H768 0.950 . S
C791 C790 1.334 . S
C791 C792 1.287 . S
C792 C791 1.287 . S
C792 C793 1.524 . S
C792 H811 0.913 . S
C793 H769 0.950 . S
C793 C792 1.524 . S
C793 C794 1.415 . S
C794 H770 0.950 . S
C794 C789 1.363 . S
C794 C793 1.415 . S
C795 H771 0.951 . S
C795 C796 1.366 . S
C795 C797 1.388 . S
C796 C795 1.366 . S
C796 C800 1.385 . S
C797 H772 0.951 . S
C797 C795 1.388 . S
C797 C798 1.366 . S
C798 C797 1.366 . S
C798 C799 1.414 . S
C798 C801 1.499 . S
C799 H773 0.950 . S
C799 C798 1.414 . S
C799 C800 1.374 . S
C800 H774 0.950 . S
C800 C796 1.385 . S
C800 C799 1.374 . S
C801 C798 1.499 . S
C801 C802 1.373 . S
C801 C803 1.389 . S
C802 H775 0.950 . S
C802 C788 1.377 . S
C802 C801 1.373 . S
C803 C787 1.377 . S
C803 C801 1.389 . S
C803 C804 1.524 . S
C804 C803 1.524 . S
C804 C805 1.397 . S
C804 C809 1.363 . S
C805 H776 0.950 . S
C805 C804 1.397 . S
C805 C806 1.334 . S
C806 H777 0.950 . S
C806 C805 1.334 . S
C806 C807 1.287 . S
C807 C806 1.287 . S
C807 C808 1.524 . S
C807 H810 0.999 . S
C808 H778 0.950 . S
C808 C807 1.524 . S
C808 C809 1.415 . S
C809 H779 0.950 . S
C809 C804 1.363 . S
C809 C808 1.415 . S
H810 C807 0.999 . S
H811 C792 0.913 . S
H812 C830 0.951 . S
H813 C832 0.951 . S
H814 C834 0.950 . S
H815 C835 0.950 . S
H816 C837 0.950 . S
H817 C840 0.950 . S
H818 C841 0.950 . S
H819 C843 0.950 . S
H820 C844 0.950 . S
H821 C845 0.951 . S
H822 C847 0.951 . S
H823 C849 0.950 . S
H824 C850 0.950 . S
H825 C852 0.950 . S
H826 C855 0.950 . S
H827 C856 0.950 . S
H828 C858 0.950 . S
H829 C859 0.950 . S
C830 H812 0.951 . S
C830 C831 1.366 . S
C830 C832 1.388 . S
C831 C830 1.366 . S
C831 C835 1.385 . S
C832 H813 0.951 . S
C832 C830 1.388 . S
C832 C833 1.366 . S
C833 C832 1.366 . S
C833 C834 1.414 . S
C833 C836 1.499 . S
C834 H814 0.950 . S
C834 C833 1.414 . S
C834 C835 1.374 . S
C835 H815 0.950 . S
C835 C831 1.385 . S
C835 C834 1.374 . S
C836 C833 1.499 . S
C836 C837 1.373 . S
C836 C838 1.389 . S
C837 H816 0.950 . S
C837 C836 1.373 . S
C837 C853 1.377 . S
C838 C836 1.389 . S
C838 C839 1.524 . S
C838 C852 1.377 . S
C839 C838 1.524 . S
C839 C840 1.397 . S
C839 C844 1.363 . S
C840 H817 0.950 . S
C840 C839 1.397 . S
C840 C841 1.334 . S
C841 H818 0.950 . S
C841 C840 1.334 . S
C841 C842 1.287 . S
C842 C841 1.287 . S
C842 C843 1.524 . S
C842 H861 0.913 . S
C843 H819 0.950 . S
C843 C842 1.524 . S
C843 C844 1.415 . S
C844 H820 0.950 . S
C844 C839 1.363 . S
C844 C843 1.415 . S
C845 H821 0.951 . S
C845 C846 1.366 . S
C845 C847 1.388 . S
C846 C845 1.366 . S
C846 C850 1.385 . S
C847 H822 0.951 . S
C847 C845 1.388 . S
C847 C848 1.366 . S
C848 C847 1.366 . S
C848 C849 1.414 . S
C848 C851 1.499 . S
C849 H823 0.950 . S
C849 C848 1.414 . S
C849 C850 1.374 . S
C850 H824 0.950 . S
C850 C846 1.385 . S
C850 C849 1.374 . S
C851 C848 1.499 . S
C851 C852 1.373 . S
C851 C853 1.389 . S
C852 H825 0.950 . S
C852 C838 1.377 . S
C852 C851 1.373 . S
C853 C837 1.377 . S
C853 C851 1.389 . S
C853 C854 1.524 . S
C854 C853 1.524 . S
C854 C855 1.397 . S
C854 C859 1.363 . S
C855 H826 0.950 . S
C855 C854 1.397 . S
C855 C856 1.334 . S
C856 H827 0.950 . S
C856 C855 1.334 . S
C856 C857 1.287 . S
C857 C856 1.287 . S
C857 C858 1.524 . S
C857 H860 0.999 . S
C858 H828 0.950 . S
C858 C857 1.524 . S
C858 C859 1.415 . S
C859 H829 0.950 . S
C859 C854 1.363 . S
C859 C858 1.415 . S
H860 C857 0.999 . S
H861 C842 0.913 . S
H862 C880 0.951 . S
H863 C882 0.951 . S
H864 C884 0.950 . S
H865 C885 0.950 . S
H866 C887 0.950 . S
H867 C890 0.950 . S
H868 C891 0.950 . S
H869 C893 0.950 . S
H870 C894 0.950 . S
H871 C895 0.951 . S
H872 C897 0.951 . S
H873 C899 0.950 . S
H874 C900 0.950 . S
H875 C902 0.950 . S
H876 C905 0.950 . S
H877 C906 0.950 . S
H878 C908 0.950 . S
H879 C909 0.950 . S
C880 H862 0.951 . S
C880 C881 1.366 . S
C880 C882 1.388 . S
C881 C880 1.366 . S
C881 C885 1.385 . S
C882 H863 0.951 . S
C882 C880 1.388 . S
C882 C883 1.366 . S
C883 C882 1.366 . S
C883 C884 1.414 . S
C883 C886 1.499 . S
C884 H864 0.950 . S
C884 C883 1.414 . S
C884 C885 1.374 . S
C885 H865 0.950 . S
C885 C881 1.385 . S
C885 C884 1.374 . S
C886 C883 1.499 . S
C886 C887 1.373 . S
C886 C888 1.389 . S
C887 H866 0.950 . S
C887 C886 1.373 . S
C887 C903 1.377 . S
C888 C886 1.389 . S
C888 C889 1.524 . S
C888 C902 1.377 . S
C889 C888 1.524 . S
C889 C890 1.397 . S
C889 C894 1.363 . S
C890 H867 0.950 . S
C890 C889 1.397 . S
C890 C891 1.334 . S
C891 H868 0.950 . S
C891 C890 1.334 . S
C891 C892 1.287 . S
C892 C891 1.287 . S
C892 C893 1.524 . S
C892 H911 0.913 . S
C893 H869 0.950 . S
C893 C892 1.524 . S
C893 C894 1.415 . S
C894 H870 0.950 . S
C894 C889 1.363 . S
C894 C893 1.415 . S
C895 H871 0.951 . S
C895 C896 1.366 . S
C895 C897 1.388 . S
C896 C895 1.366 . S
C896 C900 1.385 . S
C897 H872 0.951 . S
C897 C895 1.388 . S
C897 C898 1.366 . S
C898 C897 1.366 . S
C898 C899 1.414 . S
C898 C901 1.499 . S
C899 H873 0.950 . S
C899 C898 1.414 . S
C899 C900 1.374 . S
C900 H874 0.950 . S
C900 C896 1.385 . S
C900 C899 1.374 . S
C901 C898 1.499 . S
C901 C902 1.373 . S
C901 C903 1.389 . S
C902 H875 0.950 . S
C902 C888 1.377 . S
C902 C901 1.373 . S
C903 C887 1.377 . S
C903 C901 1.389 . S
C903 C904 1.524 . S
C904 C903 1.524 . S
C904 C905 1.397 . S
C904 C909 1.363 . S
C905 H876 0.950 . S
C905 C904 1.397 . S
C905 C906 1.334 . S
C906 H877 0.950 . S
C906 C905 1.334 . S
C906 C907 1.287 . S
C907 C906 1.287 . S
C907 C908 1.524 . S
C907 H910 0.999 . S
C908 H878 0.950 . S
C908 C907 1.524 . S
C908 C909 1.415 . S
C909 H879 0.950 . S
C909 C904 1.363 . S
C909 C908 1.415 . S
H910 C907 0.999 . S
H911 C892 0.913 . S
C131 C36 1.421 . S
C146 C8 1.421 . S
C181 C50 1.421 . S
C196 C22 1.421 . S
C231 C64 1.421 . S
C246 C92 1.421 . S
C281 C78 1.421 . S
C296 C106 1.421 . S
C331 C17 0.965 . S
C346 C9 0.933 . S
C381 C23 0.932 . S
C396 C31 0.964 . S
C431 C45 0.965 . S
C446 C37 0.933 . S
C481 C51 0.932 . S
C496 C3 0.964 . S
C531 C101 0.964 . S
C546 C65 0.933 . S
C581 C79 0.932 . S
C596 C59 0.964 . S
C631 C93 0.932 . S
C646 C73 0.964 . S
C681 C107 0.933 . S
C696 C87 0.965 . S
C731 C7 1.668 . S
C746 C77 1.667 . S
C781 C91 1.667 . S
C796 C21 1.667 . S
C831 C35 1.667 . S
C846 C105 1.667 . S
C881 C49 1.667 . S
C896 C63 1.667 . S
