# Generated by pormake.
# Topology wfs, (7)-cn, num edge types: 1
# Building blocks:
#     Node 0, Type 0, BuildingBlock: HICVOG_clean_sbu_0, # of connection points: 7
#     Node 1, Type 0, BuildingBlock: HICVOG_clean_sbu_0, # of connection points: 7
#     Node 2, Type 0, BuildingBlock: HICVOG_clean_sbu_0, # of connection points: 7
#     Node 3, Type 0, BuildingBlock: HICVOG_clean_sbu_0, # of connection points: 7
#     Node 4, Type 0, BuildingBlock: HICVOG_clean_sbu_0, # of connection points: 7
#     Node 5, Type 0, BuildingBlock: HICVOG_clean_sbu_0, # of connection points: 7
#     Node 6, Type 0, BuildingBlock: HICVOG_clean_sbu_0, # of connection points: 7
#     Node 7, Type 0, BuildingBlock: HICVOG_clean_sbu_0, # of connection points: 7
#     Edge 8, Type (0, 0), BuildingBlock: OJICUG_clean_linker_0, # of connection points: 2
#     Edge 9, Type (0, 0), BuildingBlock: OJICUG_clean_linker_0, # of connection points: 2
#     Edge 10, Type (0, 0), BuildingBlock: OJICUG_clean_linker_0, # of connection points: 2
#     Edge 11, Type (0, 0), BuildingBlock: OJICUG_clean_linker_0, # of connection points: 2
#     Edge 12, Type (0, 0), BuildingBlock: OJICUG_clean_linker_0, # of connection points: 2
#     Edge 13, Type (0, 0), BuildingBlock: OJICUG_clean_linker_0, # of connection points: 2
#     Edge 14, Type (0, 0), BuildingBlock: OJICUG_clean_linker_0, # of connection points: 2
#     Edge 15, Type (0, 0), BuildingBlock: OJICUG_clean_linker_0, # of connection points: 2
#     Edge 16, Type (0, 0), BuildingBlock: OJICUG_clean_linker_0, # of connection points: 2
#     Edge 17, Type (0, 0), BuildingBlock: OJICUG_clean_linker_0, # of connection points: 2
#     Edge 18, Type (0, 0), BuildingBlock: OJICUG_clean_linker_0, # of connection points: 2
#     Edge 19, Type (0, 0), BuildingBlock: OJICUG_clean_linker_0, # of connection points: 2
#     Edge 20, Type (0, 0), BuildingBlock: OJICUG_clean_linker_0, # of connection points: 2
#     Edge 21, Type (0, 0), BuildingBlock: OJICUG_clean_linker_0, # of connection points: 2
#     Edge 22, Type (0, 0), BuildingBlock: OJICUG_clean_linker_0, # of connection points: 2
#     Edge 23, Type (0, 0), BuildingBlock: OJICUG_clean_linker_0, # of connection points: 2
#     Edge 24, Type (0, 0), BuildingBlock: OJICUG_clean_linker_0, # of connection points: 2
#     Edge 25, Type (0, 0), BuildingBlock: OJICUG_clean_linker_0, # of connection points: 2
#     Edge 26, Type (0, 0), BuildingBlock: OJICUG_clean_linker_0, # of connection points: 2
#     Edge 27, Type (0, 0), BuildingBlock: OJICUG_clean_linker_0, # of connection points: 2
#     Edge 28, Type (0, 0), BuildingBlock: OJICUG_clean_linker_0, # of connection points: 2
#     Edge 29, Type (0, 0), BuildingBlock: OJICUG_clean_linker_0, # of connection points: 2
#     Edge 30, Type (0, 0), BuildingBlock: OJICUG_clean_linker_0, # of connection points: 2
#     Edge 31, Type (0, 0), BuildingBlock: OJICUG_clean_linker_0, # of connection points: 2
#     Edge 32, Type (0, 0), BuildingBlock: OJICUG_clean_linker_0, # of connection points: 2
#     Edge 33, Type (0, 0), BuildingBlock: OJICUG_clean_linker_0, # of connection points: 2
#     Edge 34, Type (0, 0), BuildingBlock: OJICUG_clean_linker_0, # of connection points: 2
#     Edge 35, Type (0, 0), BuildingBlock: OJICUG_clean_linker_0, # of connection points: 2
# Relax obj value: 0.591
# Max RMSD: 0.327
# Mean RMSD: 0.327
data_MOF--net-wfs--node1-HICVOG_clean_sbu_0--edge1-OJICUG_clean_linker_0
_symmetry_space_group_name_H-M    P1
_symmetry_Int_Tables_number       1
_symmetry_cell_setting            triclinic
loop_
_symmetry_equiv_pos_as_xyz
'x, y, z'
_cell_length_a     25.020002
_cell_length_b     21.915731
_cell_length_c     25.560178
_cell_angle_alpha  89.914833
_cell_angle_beta   90.004109
_cell_angle_gamma 89.999892
loop_
_atom_site_label
_atom_site_type_symbol
_atom_site_fract_x
_atom_site_fract_y
_atom_site_fract_z
_atom_type_partial_charge
Zn0 Zn 0.15339 0.15205 0.22033 0.0
C1 C 0.15816 0.3302 0.25038 0.0
N2 N 0.2083 0.31693 0.26577 0.0
C3 C 0.21067 0.25656 0.2591 0.0
N4 N 0.16496 0.23398 0.24032 0.0
N5 N 0.13083 0.27959 0.23447 0.0
C6 C 0.01594 0.31983 0.11388 0.0
O7 O 0.01625 0.37119 0.14033 0.0
O8 O 0.21713 0.09376 0.22834 0.0
Zn9 Zn 0.05485 0.26259 0.21581 0.0
N10 N 0.13014 0.15213 0.14959 0.0
C11 C 0.11588 0.19528 0.06557 0.0
C12 C 0.13561 0.20019 0.11643 0.0
C13 C 0.10617 0.09978 0.13452 0.0
N14 N 0.09377 0.14174 0.04975 0.0
C15 C 0.08885 0.09319 0.08284 0.0
O16 O 0.02863 0.17542 0.23807 0.0
C17 C 0.04558 0.1244 0.25623 0.0
O18 O 0.09519 0.11364 0.2604 0.0
H19 H 0.15445 0.24188 0.12947 0.0
H20 H 0.10203 0.06351 0.16288 0.0
C21 C 0.96027 0.32458 0.24387 0.0
C22 C 0.92655 0.36013 0.27552 0.0
C23 C -0.00012 0.38115 0.33154 0.0
C24 C 0.03204 0.3428 0.30172 0.0
N25 N 0.01221 0.31733 0.25735 0.0
N26 N 0.94778 0.38819 0.31826 0.0
H27 H 0.94521 0.29901 0.2109 0.0
C28 C 0.2342 0.07336 0.27206 0.0
O29 O 0.2134 0.09482 0.3155 0.0
O30 O 0.03304 0.27146 0.13643 0.0
H31 H 0.07182 0.33193 0.31481 0.0
H32 H 0.11912 0.23315 0.03855 0.0
H33 H 0.01543 0.40272 0.36641 0.0
Zn34 Zn 0.05703 0.77836 0.801 0.0
C35 C 0.21072 0.79525 0.75196 0.0
N36 N 0.20812 0.73659 0.73783 0.0
C37 C 0.15913 0.71977 0.75419 0.0
N38 N 0.13251 0.76667 0.77752 0.0
N39 N 0.16589 0.81345 0.77592 0.0
C40 C 0.23166 0.9739 0.76917 0.0
O41 O 0.2101 0.95518 0.72515 0.0
O42 O 0.03862 0.76944 0.88111 0.0
Zn43 Zn 0.15621 0.88578 0.81532 0.0
N44 N 0.01325 0.72303 0.76079 0.0
C45 C -0.003 0.66121 0.68599 0.0
C46 C 0.03055 0.69912 0.71475 0.0
C47 C 0.96224 0.71458 0.77704 0.0
N48 N 0.94582 0.65322 0.70197 0.0
C49 C 0.92702 0.67971 0.74648 0.0
O50 O 0.09319 0.93203 0.79051 0.0
C51 C 0.04506 0.91927 0.7795 0.0
O52 O 0.02791 0.86432 0.78181 0.0
H53 H 0.06915 0.71107 0.69927 0.0
H54 H 0.94867 0.73893 0.81132 0.0
C55 C 0.11349 0.89741 0.91551 0.0
C56 C 0.09925 0.87966 0.96632 0.0
C57 C 0.14267 0.78465 0.95296 0.0
C58 C 0.15721 0.803 0.90267 0.0
N59 N 0.14229 0.85912 0.88522 0.0
N60 N 0.11468 0.82361 0.98383 0.0
H61 H 0.10389 0.94215 0.90028 0.0
C62 C 0.02228 0.72141 0.90469 0.0
O63 O 0.02217 0.66953 0.879 0.0
O64 O 0.21716 0.94864 0.81192 0.0
H65 H 0.17957 0.77252 0.87768 0.0
H66 H 0.01058 0.64097 0.64977 0.0
H67 H 0.15398 0.74013 0.96755 0.0
Zn68 Zn 0.79135 0.89123 0.22205 0.0
C69 C 0.78696 0.71326 0.25326 0.0
N70 N 0.73691 0.72659 0.26888 0.0
C71 C 0.73451 0.78694 0.26195 0.0
N72 N 0.78011 0.80944 0.24282 0.0
N73 N 0.81418 0.76381 0.23694 0.0
C74 C 0.92786 0.72342 0.11532 0.0
O75 O 0.92767 0.67207 0.14192 0.0
O76 O 0.72775 0.9496 0.23053 0.0
Zn77 Zn 0.88994 0.78069 0.21741 0.0
N78 N 0.81353 0.8906 0.15101 0.0
C79 C 0.82675 0.8468 0.06718 0.0
C80 C 0.80778 0.84223 0.11835 0.0
C81 C 0.83705 0.94294 0.13515 0.0
N82 N 0.84841 0.90031 0.05059 0.0
C83 C 0.85359 0.94916 0.08319 0.0
O84 O 0.91652 0.86781 0.23919 0.0
C85 C 0.89968 0.91902 0.25692 0.0
O86 O 0.8501 0.92997 0.26098 0.0
H87 H 0.78931 0.80054 0.13202 0.0
H88 H 0.84146 0.9795 0.16311 0.0
C89 C -0.01532 0.71863 0.24444 0.0
C90 C 0.01878 0.68284 0.27556 0.0
C91 C 0.94618 0.66143 0.33242 0.0
C92 C 0.91364 0.69998 0.30308 0.0
N93 N 0.93292 0.72577 0.25855 0.0
N94 N -0.00189 0.65449 0.3185 0.0
H95 H -0.00066 0.74441 0.21135 0.0
C96 C 0.71077 0.96976 0.27432 0.0
O97 O 0.73163 0.94803 0.31768 0.0
O98 O 0.91097 0.77182 0.13785 0.0
H99 H 0.874 0.71069 0.31665 0.0
H100 H 0.82328 0.80868 0.04055 0.0
H101 H 0.93107 0.63961 0.36741 0.0
Zn102 Zn 0.88685 0.26481 0.79976 0.0
C103 C 0.73327 0.24789 0.75041 0.0
N104 N 0.73586 0.30656 0.73616 0.0
C105 C 0.78487 0.32336 0.75245 0.0
N106 N 0.8115 0.27645 0.77587 0.0
N107 N 0.77813 0.22966 0.77432 0.0
C108 C 0.71233 0.06932 0.76742 0.0
O109 O 0.73384 0.0883 0.72341 0.0
O110 O 0.90489 0.27368 0.87993 0.0
Zn111 Zn 0.78773 0.15727 0.81383 0.0
N112 N 0.93082 0.3203 0.75982 0.0
C113 C 0.94765 0.38263 0.6853 0.0
C114 C 0.91384 0.34459 0.71374 0.0
C115 C -0.01829 0.32857 0.77645 0.0
N116 N -0.00128 0.39044 0.70167 0.0
C117 C 0.01716 0.36363 0.74625 0.0
O118 O 0.85092 0.11115 0.78941 0.0
C119 C 0.89909 0.12395 0.77862 0.0
O120 O 0.9162 0.17891 0.7809 0.0
H121 H 0.87531 0.33285 0.69801 0.0
H122 H -0.00498 0.30396 0.81075 0.0
C123 C 0.82956 0.1451 0.91433 0.0
C124 C 0.84351 0.1626 0.96524 0.0
C125 C 0.80087 0.25805 0.95146 0.0
C126 C 0.78662 0.23995 0.90108 0.0
N127 N 0.80128 0.18373 0.88379 0.0
N128 N 0.82834 0.21876 0.98258 0.0
H129 H 0.83896 0.10031 0.89922 0.0
C130 C 0.92106 0.32176 0.90344 0.0
O131 O 0.92111 0.37364 0.87762 0.0
O132 O 0.72687 0.09433 0.8102 0.0
H133 H 0.76469 0.2707 0.87589 0.0
H134 H 0.93435 0.40315 0.64905 0.0
H135 H 0.78976 0.30264 0.96593 0.0
Zn136 Zn 0.55701 0.76481 0.72424 0.0
C137 C 0.71071 0.74795 0.77328 0.0
N138 N 0.70811 0.80662 0.78739 0.0
C139 C 0.65911 0.82342 0.77103 0.0
N140 N 0.63249 0.77651 0.74772 0.0
N141 N 0.66588 0.72973 0.74933 0.0
C142 C 0.73166 0.56929 0.75612 0.0
O143 O 0.7101 0.58801 0.80013 0.0
O144 O 0.53857 0.77373 0.64413 0.0
Zn145 Zn 0.65619 0.65739 0.70996 0.0
N146 N 0.51324 0.82015 0.76445 0.0
C147 C 0.49702 0.88197 0.83926 0.0
C148 C 0.53056 0.84406 0.81049 0.0
C149 C 0.46224 0.82861 0.7482 0.0
N150 N 0.44583 0.88996 0.82327 0.0
C151 C 0.42703 0.86348 0.77877 0.0
O152 O 0.59318 0.61114 0.73477 0.0
C153 C 0.54505 0.6239 0.74578 0.0
O154 O 0.52789 0.67885 0.74344 0.0
H155 H 0.56916 0.8321 0.82597 0.0
H156 H 0.44865 0.80426 0.71393 0.0
C157 C 0.61345 0.64572 0.60977 0.0
C158 C 0.5992 0.66345 0.55895 0.0
C159 C 0.6426 0.75848 0.5723 0.0
C160 C 0.65716 0.74015 0.62258 0.0
N161 N 0.64226 0.68402 0.64005 0.0
N162 N 0.61461 0.71951 0.54144 0.0
H163 H 0.60388 0.60097 0.625 0.0
C164 C 0.52224 0.82177 0.62055 0.0
O165 O 0.52214 0.87365 0.64624 0.0
O166 O 0.71714 0.59454 0.71336 0.0
H167 H 0.67951 0.77064 0.64757 0.0
H168 H 0.51061 0.9022 0.87547 0.0
H169 H 0.65389 0.803 0.5577 0.0
Zn170 Zn 0.55487 0.28067 0.30939 0.0
C171 C 0.7107 0.2867 0.26612 0.0
N172 N 0.70835 0.22632 0.25951 0.0
C173 C 0.65819 0.21306 0.27485 0.0
N174 N 0.63083 0.26369 0.29065 0.0
N175 N 0.66497 0.30929 0.28482 0.0
C176 C 0.73424 0.46991 0.25314 0.0
O177 O 0.71345 0.44846 0.2097 0.0
O178 O 0.53312 0.27181 0.38879 0.0
Zn179 Zn 0.65342 0.39121 0.30486 0.0
N180 N 0.5122 0.22592 0.26788 0.0
C181 C 0.49985 0.16204 0.19374 0.0
C182 C 0.53202 0.20041 0.22353 0.0
C183 C 0.46026 0.21871 0.28137 0.0
N184 N 0.44774 0.15503 0.20702 0.0
C185 C 0.42653 0.18313 0.24975 0.0
O186 O 0.59519 0.42965 0.26484 0.0
C187 C 0.54558 0.41887 0.26899 0.0
O188 O 0.52863 0.36784 0.28713 0.0
H189 H 0.5718 0.21125 0.21043 0.0
H190 H 0.44521 0.24431 0.31433 0.0
C191 C 0.60622 0.44338 0.39071 0.0
C192 C 0.58892 0.44993 0.44239 0.0
C193 C 0.61604 0.34786 0.45962 0.0
C194 C 0.63573 0.343 0.40875 0.0
N195 N 0.63021 0.39107 0.37561 0.0
N196 N 0.5939 0.40137 0.47547 0.0
H197 H 0.60203 0.47967 0.36236 0.0
C198 C 0.51601 0.22344 0.41133 0.0
O199 O 0.51631 0.17209 0.38486 0.0
O200 O 0.71716 0.4495 0.29685 0.0
H201 H 0.65459 0.30133 0.39569 0.0
H202 H 0.51538 0.14043 0.15889 0.0
H203 H 0.61932 0.30999 0.48662 0.0
Zn204 Zn 0.28774 0.38593 0.71133 0.0
C205 C 0.28491 0.21984 0.7728 0.0
N206 N 0.23593 0.23667 0.78913 0.0
C207 C 0.2333 0.29531 0.77479 0.0
N208 N 0.27811 0.31348 0.75075 0.0
N209 N 0.31149 0.2667 0.74924 0.0
C210 C 0.42112 0.22145 0.62175 0.0
O211 O 0.42115 0.16956 0.64755 0.0
O212 O 0.22688 0.44887 0.71497 0.0
Zn213 Zn 0.38686 0.27836 0.72543 0.0
N214 N 0.30134 0.35956 0.64137 0.0
C215 C 0.30099 0.2853 0.57365 0.0
C216 C 0.2867 0.30335 0.62403 0.0
C217 C 0.32963 0.39822 0.61087 0.0
N218 N 0.32847 0.32462 0.54258 0.0
C219 C 0.34361 0.38077 0.55996 0.0
O220 O 0.41619 0.36426 0.74433 0.0
C221 C 0.39908 0.41922 0.74663 0.0
O222 O 0.35091 0.43203 0.73583 0.0
H223 H 0.26475 0.27257 0.64918 0.0
H224 H 0.339 0.44301 0.62602 0.0
C225 C 0.4817 0.21459 0.74878 0.0
C226 C 0.51716 0.17955 0.77899 0.0
C227 C 0.44766 0.1606 0.83996 0.0
C228 C 0.41385 0.19863 0.8115 0.0
N229 N 0.43081 0.22287 0.7654 0.0
N230 N 0.49873 0.15277 0.82359 0.0
H231 H 0.49501 0.23917 0.71446 0.0
C232 C 0.21235 0.47387 0.75776 0.0
O233 O 0.23388 0.45488 0.80175 0.0
O234 O 0.40496 0.26953 0.64527 0.0
H235 H 0.37532 0.2104 0.82724 0.0
H236 H 0.28991 0.24072 0.55915 0.0
H237 H 0.43436 0.14012 0.87622 0.0
Zn238 Zn 0.38993 0.76258 0.30778 0.0
C239 C 0.23447 0.75634 0.26326 0.0
N240 N 0.23685 0.81671 0.2564 0.0
C241 C 0.28692 0.83002 0.27196 0.0
N242 N 0.31418 0.77945 0.28818 0.0
N243 N 0.28011 0.73382 0.2823 0.0
C244 C 0.21075 0.57351 0.25086 0.0
O245 O 0.23161 0.59521 0.20749 0.0
O246 O 0.41092 0.77142 0.38736 0.0
Zn247 Zn 0.29133 0.65206 0.30313 0.0
N248 N 0.43294 0.81749 0.26668 0.0
C249 C 0.44619 0.8819 0.19285 0.0
C250 C 0.41365 0.84333 0.22218 0.0
C251 C 0.48469 0.82462 0.2808 0.0
N252 N 0.49813 0.88881 0.20678 0.0
C253 C 0.5188 0.86042 0.2497 0.0
O254 O 0.35009 0.61328 0.26425 0.0
C255 C 0.39967 0.62424 0.26829 0.0
O256 O 0.41651 0.67546 0.286 0.0
H257 H 0.37401 0.83265 0.2086 0.0
H258 H 0.49935 0.7988 0.31388 0.0
C259 C 0.33703 0.60044 0.39007 0.0
C260 C 0.35355 0.59425 0.44204 0.0
C261 C 0.3266 0.69658 0.45801 0.0
C262 C 0.30766 0.70112 0.40683 0.0
N263 N 0.31347 0.65274 0.37418 0.0
N264 N 0.3483 0.6431 0.47463 0.0
H265 H 0.3415 0.56388 0.36211 0.0
C266 C 0.42783 0.81981 0.4099 0.0
O267 O 0.42767 0.87115 0.3833 0.0
O268 O 0.22772 0.59368 0.29464 0.0
H269 H 0.28916 0.74278 0.39314 0.0
H270 H 0.43109 0.90375 0.15788 0.0
H271 H 0.32309 0.7347 0.48463 0.0
C272 C 0.2831 0.98869 0.22676 0.0
C273 C 0.26823 1.01754 0.27356 0.0
H274 H 0.30363 0.90458 0.1899 0.0
C275 C 0.2785 0.98713 0.32118 0.0
H276 H 0.27655 1.01082 0.18938 0.0
C277 C 0.29596 0.92616 0.32144 0.0
C278 C 0.30313 0.89469 0.27417 0.0
H279 H 0.26822 1.00825 0.35811 0.0
H280 H 0.2968 0.90155 0.35824 0.0
C281 C 0.29992 0.92785 0.22709 0.0
C282 C 0.83443 0.68498 0.71246 0.0
C283 C 0.86887 0.68222 0.75581 0.0
H284 H 0.75689 0.70933 0.68441 0.0
C285 C 0.84795 0.69189 0.80625 0.0
H286 H 0.84923 0.67804 0.67309 0.0
C287 C 0.79485 0.7099 0.8125 0.0
C288 C 0.76191 0.71679 0.76863 0.0
H289 H 0.87318 0.68875 0.84057 0.0
H290 H 0.78015 0.72093 0.85122 0.0
C291 C 0.78157 0.70304 0.71879 0.0
C292 C 0.64515 0.11561 0.22971 0.0
C293 C 0.64184 0.14842 0.27688 0.0
H294 H 0.66855 0.03295 0.19177 0.0
C295 C 0.64894 0.11658 0.32406 0.0
H296 H 0.64156 0.13918 0.19257 0.0
C297 C 0.66641 0.05561 0.32365 0.0
C298 C 0.67675 0.02556 0.27595 0.0
H299 H 0.64804 0.14092 0.36093 0.0
H300 H 0.67664 0.03421 0.36053 0.0
C301 C 0.66194 0.05477 0.22922 0.0
C302 C 0.11 0.35836 0.71299 0.0
C303 C 0.07523 0.36103 0.75605 0.0
H304 H 0.18774 0.33407 0.68556 0.0
C305 C 0.09571 0.35114 0.80666 0.0
H306 H 0.09553 0.36544 0.6735 0.0
C307 C 0.14876 0.33309 0.81335 0.0
C308 C 0.18205 0.32635 0.76975 0.0
H309 H 0.0702 0.35419 0.84077 0.0
H310 H 0.16314 0.32194 0.85219 0.0
C311 C 0.16279 0.34024 0.71975 0.0
C312 C 0.27574 0.05991 0.81743 0.0
C313 C 0.26411 0.03093 0.7698 0.0
H314 H 0.29408 0.14425 0.85545 0.0
C315 C 0.27648 0.06178 0.72285 0.0
H316 H 0.26742 0.03749 0.85434 0.0
C317 C 0.29339 0.12291 0.72363 0.0
C318 C 0.29781 0.15413 0.77132 0.0
H319 H 0.26872 0.04054 0.68538 0.0
H320 H 0.29648 0.1476 0.68699 0.0
C321 C 0.29193 0.12099 0.81812 0.0
C322 C 0.15305 0.72137 0.21757 0.0
C323 C 0.18401 0.7235 0.26306 0.0
H324 H 0.07666 0.70179 0.18459 0.0
C325 C 0.16311 0.70244 0.3105 0.0
H326 H 0.16902 0.7375 0.18065 0.0
C327 C 0.11023 0.68311 0.31323 0.0
C328 C 0.07735 0.68579 0.26866 0.0
H329 H 0.1867 0.70436 0.34603 0.0
H330 H 0.09414 0.67096 0.35118 0.0
C331 C 0.10021 0.70145 0.2201 0.0
C332 C 0.66758 0.98161 0.72102 0.0
C333 C 0.67987 1.0123 0.76799 0.0
H334 H 0.64763 0.8959 0.68515 0.0
C335 C 0.66814 0.98318 0.81561 0.0
H336 H 0.67542 1.00296 0.68357 0.0
C337 C 0.65194 0.9221 0.81628 0.0
C338 C 0.64613 0.88911 0.76948 0.0
H339 H 0.67639 1.00547 0.85253 0.0
H340 H 0.64972 0.89872 0.85362 0.0
C341 C 0.65064 0.92048 0.72179 0.0
C342 C 0.78259 0.34085 0.31231 0.0
C343 C 0.76107 0.31973 0.26521 0.0
H344 H 0.85213 0.37223 0.35203 0.0
C345 C 0.79145 0.32179 0.21934 0.0
H346 H 0.75944 0.33899 0.34812 0.0
C347 C 0.84434 0.34162 0.22115 0.0
C348 C 0.86786 0.35725 0.26937 0.0
H349 H 0.77499 0.30562 0.18267 0.0
H350 H 0.86741 0.34123 0.18534 0.0
C351 C 0.83555 0.36007 0.31432 0.0
C352 C 0.77576 0.48331 0.70786 0.0
C353 C 0.7641 0.51227 0.7555 0.0
H354 H 0.79412 0.39898 0.66982 0.0
C355 C 0.77644 0.4814 0.80244 0.0
H356 H 0.76746 0.50574 0.67095 0.0
C357 C 0.79335 0.42026 0.80165 0.0
C358 C 0.7978 0.38907 0.75396 0.0
H359 H 0.76866 0.50262 0.83991 0.0
H360 H 0.79642 0.39555 0.83829 0.0
C361 C 0.79195 0.42222 0.70716 0.0
C362 C 0.28256 0.20239 0.21295 0.0
C363 C 0.26104 0.22354 0.26004 0.0
H364 H 0.35209 0.17097 0.17325 0.0
C365 C 0.29143 0.22153 0.30591 0.0
H366 H 0.25941 0.20421 0.17713 0.0
C367 C 0.34433 0.2017 0.30411 0.0
C368 C 0.36784 0.18603 0.2559 0.0
H369 H 0.27498 0.23773 0.34256 0.0
H370 H 0.3674 0.20214 0.33992 0.0
C371 C 0.33551 0.18317 0.21095 0.0
C372 C 0.1507 0.62272 0.8034 0.0
C373 C 0.14615 0.65408 0.75571 0.0
H374 H 0.17549 0.54025 0.84162 0.0
C375 C 0.15193 0.62109 0.70891 0.0
H376 H 0.14769 0.64731 0.84003 0.0
C377 C 0.16813 0.56 0.70958 0.0
C378 C 0.17989 0.53089 0.7572 0.0
H379 H 0.14969 0.64447 0.67157 0.0
H380 H 0.17636 0.53771 0.67266 0.0
C381 C 0.16763 0.56158 0.80416 0.0
C382 C 0.60024 0.84175 0.30514 0.0
C383 C 0.57737 0.85744 0.25659 0.0
H384 H 0.66906 0.80569 0.34458 0.0
C385 C 0.61024 0.86018 0.21203 0.0
H386 H 0.57668 0.84138 0.34065 0.0
C387 C 0.66313 0.84087 0.21476 0.0
C388 C 0.68405 0.81978 0.26218 0.0
H389 H 0.59415 0.87236 0.17409 0.0
H390 H 0.68672 0.83898 0.17922 0.0
C391 C 0.65308 0.82185 0.30767 0.0
C392 C 0.77857 0.55612 0.20404 0.0
C393 C 0.76826 0.52573 0.25166 0.0
H394 H 0.7969 0.64168 0.16697 0.0
C395 C 0.78308 0.55461 0.29847 0.0
H396 H 0.76832 0.53498 0.16711 0.0
C397 C 0.7999 0.61545 0.29813 0.0
C398 C 0.80316 0.64858 0.25104 0.0
H399 H 0.77651 0.53249 0.33585 0.0
H400 H 0.8036 0.63874 0.33532 0.0
C401 C 0.79603 0.61709 0.20378 0.0
C402 C 0.61 0.18485 0.81225 0.0
C403 C 0.57522 0.18214 0.76918 0.0
H404 H 0.68775 0.20917 0.83966 0.0
C405 C 0.5957 0.19199 0.71857 0.0
H406 H 0.59554 0.17779 0.85174 0.0
C407 C 0.64873 0.21005 0.71187 0.0
C408 C 0.68204 0.21684 0.75547 0.0
H409 H 0.57017 0.18892 0.68446 0.0
H410 H 0.6631 0.22119 0.67302 0.0
C411 C 0.66278 0.20298 0.80547 0.0
C412 C 0.16189 0.48852 0.29598 0.0
C413 C 0.17672 0.5177 0.24923 0.0
H414 H 0.14149 0.40417 0.33266 0.0
C415 C 0.16641 0.48761 0.20155 0.0
H416 H 0.16848 0.5104 0.3334 0.0
C417 C 0.14894 0.42665 0.20115 0.0
C418 C 0.14181 0.39484 0.24835 0.0
H419 H 0.17666 0.50899 0.16466 0.0
H420 H 0.14806 0.40229 0.1643 0.0
C421 C 0.14508 0.42769 0.29551 0.0
C422 C 0.28159 0.84014 0.80645 0.0
C423 C 0.26192 0.82642 0.75661 0.0
H424 H 0.34924 0.86513 0.85216 0.0
C425 C 0.29485 0.83333 0.71274 0.0
H426 H 0.2569 0.83385 0.84083 0.0
C427 C 0.34795 0.85133 0.719 0.0
C428 C 0.36887 0.86099 0.76944 0.0
H429 H 0.28014 0.8223 0.67402 0.0
H430 H 0.37317 0.85449 0.68468 0.0
C431 C 0.33444 0.85821 0.81279 0.0
C432 C 0.0277 1.01202 0.26617 0.0
C433 C 0.00806 0.07245 0.2647 0.0
H434 H 0.00935 0.91632 0.26466 0.0
C435 C 0.95256 0.08142 0.2658 0.0
H436 H 0.07026 1.0031 0.265 0.0
C437 C 0.91766 0.03138 0.26644 0.0
C438 C 0.93729 0.97095 0.26504 0.0
H439 H 0.936 0.12708 0.26456 0.0
H440 H 0.8751 0.04033 0.26548 0.0
C441 C -0.0072 0.96198 0.26586 0.0
C442 C -0.00793 0.08139 0.76803 0.0
C443 C 0.93657 0.07216 0.76947 0.0
H444 H 0.06969 0.0406 0.76932 0.0
C445 C 0.91712 1.01172 0.76773 0.0
H446 H 0.00856 0.12707 0.76919 0.0
C447 C 0.95219 0.96186 0.76798 0.0
C448 C 0.00768 0.97108 0.76993 0.0
H449 H 0.87457 1.00264 0.76841 0.0
H450 H 0.93569 0.91618 0.76907 0.0
C451 C 0.02715 0.03153 0.76824 0.0
C452 C 0.52713 0.51165 0.75704 0.0
C453 C 0.50767 0.57209 0.75535 0.0
H454 H 0.50856 0.41611 0.75609 0.0
C455 C 0.45218 0.58131 0.7573 0.0
H456 H 0.56968 0.50257 0.75597 0.0
C457 C 0.41711 0.53145 0.75754 0.0
C458 C 0.43656 0.47101 0.75581 0.0
H459 H 0.43568 0.62699 0.75621 0.0
H460 H 0.37456 0.54053 0.75686 0.0
C461 C 0.49206 0.46179 0.75725 0.0
C462 C 0.45256 0.46184 0.25942 0.0
C463 C 0.50806 0.47082 0.26051 0.0
H464 H 0.37509 0.50292 0.25973 0.0
C465 C 0.52769 0.53125 0.25903 0.0
H466 H 0.436 0.41618 0.26066 0.0
C467 C 0.49279 0.58129 0.25934 0.0
C468 C 0.43728 0.57231 0.26017 0.0
H469 H 0.57026 0.54018 0.26021 0.0
H470 H 0.50934 0.62695 0.26054 0.0
C471 C 0.41766 0.51188 0.25877 0.0
C472 C 0.09555 0.97903 0.08344 0.0
C473 C 0.07377 0.03275 0.06174 0.0
H474 H 0.11925 0.88709 0.06992 0.0
C475 C 0.04608 0.02897 0.01408 0.0
H476 H 0.11705 0.97911 0.12011 0.0
C477 C 0.04749 0.97515 0.98508 0.0
C478 C 0.07744 0.92501 1.00314 0.0
H479 H 0.02728 0.06893 0.99716 0.0
H480 H 0.02949 0.97485 0.94654 0.0
C481 C 0.09697 0.92549 0.05444 0.0
C482 C -0.01491 0.77904 0.9836 0.0
C483 C -0.00044 0.72369 0.95921 0.0
H484 H 0.95101 0.8229 0.05132 0.0
C485 C -0.01064 0.6691 0.98656 0.0
H486 H -0.00849 0.82203 0.96366 0.0
C487 C 0.96583 0.66954 0.03643 0.0
C488 C 0.95118 0.72458 0.06098 0.0
H489 H -0.00045 0.62548 0.96937 0.0
H490 H 0.9591 0.62622 0.05579 0.0
C491 C 0.96125 0.77949 0.03377 0.0
C492 C 0.89463 0.06672 0.98448 0.0
C493 C 0.86475 0.117 1.00225 0.0
H494 H 0.91481 0.97298 0.99714 0.0
C495 C 0.84493 0.11664 0.05344 0.0
H496 H 0.91279 0.0669 0.94602 0.0
C497 C 0.84626 0.06321 0.08272 0.0
C498 C 0.86825 1.00946 0.06143 0.0
H499 H 0.82263 0.15511 0.06865 0.0
H500 H 0.82462 0.06322 0.11931 0.0
C501 C 0.89594 1.013 0.01377 0.0
C502 C -0.01795 0.26371 0.0327 0.0
C503 C -0.0076 0.31865 0.05964 0.0
H504 H 0.95144 0.22112 0.96285 0.0
C505 C -0.02214 0.37369 0.03489 0.0
H506 H -0.00783 0.2203 0.05042 0.0
C507 C 0.95423 0.37411 0.98506 0.0
C508 C 0.94379 0.3195 0.95796 0.0
H509 H -0.01519 0.41702 0.05404 0.0
H510 H 0.94417 0.41773 0.96769 0.0
C511 C 0.95808 0.26414 0.98258 0.0
C512 C 0.54614 0.51408 0.51118 0.0
C513 C 0.5738 0.51035 0.46352 0.0
H514 H 0.52952 0.56817 0.57874 0.0
C515 C 0.59553 0.5641 0.44182 0.0
H516 H 0.52738 0.47409 0.5281 0.0
C517 C 0.59692 0.61764 0.47083 0.0
C518 C 0.5774 0.61808 0.52214 0.0
H519 H 0.61702 0.56407 0.40515 0.0
H520 H 0.61915 0.65607 0.45535 0.0
C521 C 0.54751 0.5679 0.5402 0.0
C522 C 0.45816 0.27909 0.54263 0.0
C523 C 0.44386 0.22373 0.56724 0.0
H524 H 0.49224 0.32295 0.47481 0.0
C525 C 0.45432 0.16913 0.54013 0.0
H526 H 0.4515 0.32211 0.56236 0.0
C527 C 0.47795 0.16956 0.49031 0.0
C528 C 0.49248 0.22461 0.46557 0.0
H529 H 0.44425 0.1255 0.55749 0.0
H530 H 0.4849 0.12623 0.47115 0.0
C531 C 0.48213 0.27954 0.49252 0.0
C532 C 0.34506 0.42675 0.47177 0.0
C533 C 0.36484 0.42641 0.52298 0.0
H534 H 0.32475 0.48014 0.40588 0.0
C535 C 0.39464 0.47674 0.54078 0.0
H536 H 0.32282 0.38825 0.45654 0.0
C537 C 0.39591 0.53047 0.5115 0.0
C538 C 0.36826 0.53397 0.46381 0.0
H539 H 0.41277 0.47659 0.57926 0.0
H540 H 0.41472 0.57052 0.52815 0.0
C541 C 0.34636 0.48019 0.44249 0.0
C542 C 0.48504 0.76415 0.54162 0.0
C543 C 0.49952 0.8195 0.56602 0.0
H544 H 0.45096 0.72031 0.47389 0.0
C545 C 0.48931 0.87409 0.53869 0.0
H546 H 0.49147 0.72115 0.56156 0.0
C547 C 0.46578 0.87366 0.48881 0.0
C548 C 0.45113 0.81863 0.46424 0.0
H549 H 0.4995 0.9177 0.55589 0.0
H550 H 0.45905 0.91699 0.46946 0.0
C551 C 0.4612 0.76371 0.49145 0.0
loop_
_geom_bond_atom_site_label_1
_geom_bond_atom_site_label_2
_geom_bond_distance
_geom_bond_site_symmetry_2
_ccdc_geom_bond_type
Zn0 N4 2.020 . S
Zn0 O8 2.019 . S
Zn0 N10 2.119 . S
Zn0 O18 1.975 . S
C1 N2 1.334 . S
C1 N5 1.336 . S
N2 C1 1.334 . S
N2 C3 1.334 . S
C3 N2 1.334 . S
C3 N4 1.336 . S
N4 Zn0 2.020 . S
N4 C3 1.336 . S
N4 N5 1.354 . S
N5 C1 1.336 . S
N5 N4 1.354 . S
N5 Zn9 2.020 . S
C6 O7 1.244 . S
C6 O30 1.257 . S
O7 C6 1.244 . S
O8 Zn0 2.019 . S
O8 C28 1.257 . S
Zn9 N5 2.020 . S
Zn9 O16 1.975 . S
Zn9 N25 2.119 . S
Zn9 O30 2.019 . S
N10 Zn0 2.119 . S
N10 C12 1.334 . S
N10 C13 1.328 . S
C11 C12 1.391 . S
C11 N14 1.330 1_554 S
C11 H32 0.930 1_554 S
C12 N10 1.334 . S
C12 C11 1.391 . S
C12 H19 0.930 . S
C13 N10 1.328 . S
C13 C15 1.392 . S
C13 H20 0.930 . S
N14 C11 1.330 1_556 S
N14 C15 1.332 1_556 S
C15 C13 1.392 . S
C15 N14 1.332 1_554 S
O16 Zn9 1.975 . S
O16 C17 1.252 . S
C17 O16 1.252 . S
C17 O18 1.252 . S
O18 Zn0 1.975 . S
O18 C17 1.252 . S
H19 C12 0.930 . S
H20 C13 0.930 . S
C21 C22 1.392 1_455 S
C21 N25 1.328 . S
C21 H27 0.930 . S
C22 C21 1.392 1_655 S
C22 N26 1.331 1_655 S
C23 C24 1.391 . S
C23 N26 1.329 . S
C23 H33 0.930 . S
C24 C23 1.391 . S
C24 N25 1.334 . S
C24 H31 0.930 . S
N25 Zn9 2.119 . S
N25 C21 1.328 . S
N25 C24 1.334 . S
N26 C22 1.331 1_455 S
N26 C23 1.329 . S
H27 C21 0.930 . S
C28 O8 1.257 . S
C28 O29 1.244 . S
O29 C28 1.244 . S
O30 C6 1.257 . S
O30 Zn9 2.019 . S
H31 C24 0.930 . S
H32 C11 0.930 1_556 S
H33 C23 0.930 . S
Zn34 N38 2.020 . S
Zn34 O42 2.019 . S
Zn34 N44 2.119 . S
Zn34 O52 1.975 . S
C35 N36 1.334 . S
C35 N39 1.336 . S
N36 C35 1.334 . S
N36 C37 1.334 . S
C37 N36 1.334 . S
C37 N38 1.336 . S
N38 Zn34 2.020 . S
N38 C37 1.336 . S
N38 N39 1.354 . S
N39 C35 1.336 . S
N39 N38 1.354 . S
N39 Zn43 2.020 . S
C40 O41 1.244 . S
C40 O64 1.257 . S
O41 C40 1.244 . S
O42 Zn34 2.019 . S
O42 C62 1.257 . S
Zn43 N39 2.020 . S
Zn43 O50 1.975 . S
Zn43 N59 2.119 . S
Zn43 O64 2.019 . S
N44 Zn34 2.119 . S
N44 C46 1.334 . S
N44 C47 1.328 . S
C45 C46 1.391 . S
C45 N48 1.329 . S
C45 H66 0.930 . S
C46 N44 1.334 . S
C46 C45 1.391 . S
C46 H53 0.930 . S
C47 N44 1.328 . S
C47 C49 1.392 1_455 S
C47 H54 0.930 . S
N48 C45 1.329 . S
N48 C49 1.331 1_455 S
C49 C47 1.392 1_655 S
C49 N48 1.331 1_655 S
O50 Zn43 1.975 . S
O50 C51 1.252 . S
C51 O50 1.252 . S
C51 O52 1.252 . S
O52 Zn34 1.975 . S
O52 C51 1.252 . S
H53 C46 0.930 . S
H54 C47 0.930 . S
C55 C56 1.392 . S
C55 N59 1.328 . S
C55 H61 0.930 . S
C56 C55 1.392 . S
C56 N60 1.332 1_556 S
C57 C58 1.391 . S
C57 N60 1.330 1_556 S
C57 H67 0.930 1_556 S
C58 C57 1.391 . S
C58 N59 1.334 . S
C58 H65 0.930 . S
N59 Zn43 2.119 . S
N59 C55 1.328 . S
N59 C58 1.334 . S
N60 C56 1.332 1_554 S
N60 C57 1.330 1_554 S
H61 C55 0.930 . S
C62 O42 1.257 . S
C62 O63 1.244 . S
O63 C62 1.244 . S
O64 C40 1.257 . S
O64 Zn43 2.019 . S
H65 C58 0.930 . S
H66 C45 0.930 . S
H67 C57 0.930 1_554 S
Zn68 N72 2.020 . S
Zn68 O76 2.019 . S
Zn68 N78 2.119 . S
Zn68 O86 1.975 . S
C69 N70 1.334 . S
C69 N73 1.336 . S
N70 C69 1.334 . S
N70 C71 1.334 . S
C71 N70 1.334 . S
C71 N72 1.336 . S
N72 Zn68 2.020 . S
N72 C71 1.336 . S
N72 N73 1.354 . S
N73 C69 1.336 . S
N73 N72 1.354 . S
N73 Zn77 2.020 . S
C74 O75 1.244 . S
C74 O98 1.257 . S
O75 C74 1.244 . S
O76 Zn68 2.019 . S
O76 C96 1.257 . S
Zn77 N73 2.020 . S
Zn77 O84 1.975 . S
Zn77 N93 2.119 . S
Zn77 O98 2.019 . S
N78 Zn68 2.119 . S
N78 C80 1.334 . S
N78 C81 1.328 . S
C79 C80 1.391 . S
C79 N82 1.330 1_554 S
C79 H100 0.930 1_554 S
C80 N78 1.334 . S
C80 C79 1.391 . S
C80 H87 0.930 . S
C81 N78 1.328 . S
C81 C83 1.392 . S
C81 H88 0.930 . S
N82 C79 1.330 1_556 S
N82 C83 1.332 1_556 S
C83 C81 1.392 . S
C83 N82 1.332 1_554 S
O84 Zn77 1.975 . S
O84 C85 1.252 . S
C85 O84 1.252 . S
C85 O86 1.252 . S
O86 Zn68 1.975 . S
O86 C85 1.252 . S
H87 C80 0.930 . S
H88 C81 0.930 . S
C89 C90 1.392 1_655 S
C89 N93 1.328 . S
C89 H95 0.930 . S
C90 C89 1.392 1_455 S
C90 N94 1.331 1_455 S
C91 C92 1.391 . S
C91 N94 1.329 . S
C91 H101 0.930 . S
C92 C91 1.391 . S
C92 N93 1.334 . S
C92 H99 0.930 . S
N93 Zn77 2.119 . S
N93 C89 1.328 . S
N93 C92 1.334 . S
N94 C90 1.331 1_655 S
N94 C91 1.329 . S
H95 C89 0.930 . S
C96 O76 1.257 . S
C96 O97 1.244 . S
O97 C96 1.244 . S
O98 C74 1.257 . S
O98 Zn77 2.019 . S
H99 C92 0.930 . S
H100 C79 0.930 1_556 S
H101 C91 0.930 . S
Zn102 N106 2.020 . S
Zn102 O110 2.019 . S
Zn102 N112 2.119 . S
Zn102 O120 1.975 . S
C103 N104 1.334 . S
C103 N107 1.336 . S
N104 C103 1.334 . S
N104 C105 1.334 . S
C105 N104 1.334 . S
C105 N106 1.336 . S
N106 Zn102 2.020 . S
N106 C105 1.336 . S
N106 N107 1.354 . S
N107 C103 1.336 . S
N107 N106 1.354 . S
N107 Zn111 2.020 . S
C108 O109 1.244 . S
C108 O132 1.257 . S
O109 C108 1.244 . S
O110 Zn102 2.019 . S
O110 C130 1.257 . S
Zn111 N107 2.020 . S
Zn111 O118 1.975 . S
Zn111 N127 2.119 . S
Zn111 O132 2.019 . S
N112 Zn102 2.119 . S
N112 C114 1.334 . S
N112 C115 1.328 . S
C113 C114 1.391 . S
C113 N116 1.329 . S
C113 H134 0.930 . S
C114 N112 1.334 . S
C114 C113 1.391 . S
C114 H121 0.930 . S
C115 N112 1.328 . S
C115 C117 1.392 1_655 S
C115 H122 0.930 . S
N116 C113 1.329 . S
N116 C117 1.331 1_655 S
C117 C115 1.392 1_455 S
C117 N116 1.331 1_455 S
O118 Zn111 1.975 . S
O118 C119 1.252 . S
C119 O118 1.252 . S
C119 O120 1.252 . S
O120 Zn102 1.975 . S
O120 C119 1.252 . S
H121 C114 0.930 . S
H122 C115 0.930 . S
C123 C124 1.392 . S
C123 N127 1.328 . S
C123 H129 0.930 . S
C124 C123 1.392 . S
C124 N128 1.332 1_556 S
C125 C126 1.391 . S
C125 N128 1.330 1_556 S
C125 H135 0.930 1_556 S
C126 C125 1.391 . S
C126 N127 1.334 . S
C126 H133 0.930 . S
N127 Zn111 2.119 . S
N127 C123 1.328 . S
N127 C126 1.334 . S
N128 C124 1.332 1_554 S
N128 C125 1.330 1_554 S
H129 C123 0.930 . S
C130 O110 1.257 . S
C130 O131 1.244 . S
O131 C130 1.244 . S
O132 C108 1.257 . S
O132 Zn111 2.019 . S
H133 C126 0.930 . S
H134 C113 0.930 . S
H135 C125 0.930 1_554 S
Zn136 N140 2.020 . S
Zn136 O144 2.019 . S
Zn136 N146 2.119 . S
Zn136 O154 1.975 . S
C137 N138 1.334 . S
C137 N141 1.336 . S
N138 C137 1.334 . S
N138 C139 1.334 . S
C139 N138 1.334 . S
C139 N140 1.336 . S
N140 Zn136 2.020 . S
N140 C139 1.336 . S
N140 N141 1.354 . S
N141 C137 1.336 . S
N141 N140 1.354 . S
N141 Zn145 2.020 . S
C142 O143 1.244 . S
C142 O166 1.257 . S
O143 C142 1.244 . S
O144 Zn136 2.019 . S
O144 C164 1.257 . S
Zn145 N141 2.020 . S
Zn145 O152 1.975 . S
Zn145 N161 2.119 . S
Zn145 O166 2.019 . S
N146 Zn136 2.119 . S
N146 C148 1.334 . S
N146 C149 1.328 . S
C147 C148 1.391 . S
C147 N150 1.329 . S
C147 H168 0.930 . S
C148 N146 1.334 . S
C148 C147 1.391 . S
C148 H155 0.930 . S
C149 N146 1.328 . S
C149 C151 1.392 . S
C149 H156 0.930 . S
N150 C147 1.329 . S
N150 C151 1.331 . S
C151 C149 1.392 . S
C151 N150 1.331 . S
O152 Zn145 1.975 . S
O152 C153 1.252 . S
C153 O152 1.252 . S
C153 O154 1.252 . S
O154 Zn136 1.975 . S
O154 C153 1.252 . S
H155 C148 0.930 . S
H156 C149 0.930 . S
C157 C158 1.392 . S
C157 N161 1.328 . S
C157 H163 0.930 . S
C158 C157 1.392 . S
C158 N162 1.331 . S
C159 C160 1.391 . S
C159 N162 1.329 . S
C159 H169 0.930 . S
C160 C159 1.391 . S
C160 N161 1.334 . S
C160 H167 0.930 . S
N161 Zn145 2.119 . S
N161 C157 1.328 . S
N161 C160 1.334 . S
N162 C158 1.331 . S
N162 C159 1.329 . S
H163 C157 0.930 . S
C164 O144 1.257 . S
C164 O165 1.244 . S
O165 C164 1.244 . S
O166 C142 1.257 . S
O166 Zn145 2.019 . S
H167 C160 0.930 . S
H168 C147 0.930 . S
H169 C159 0.930 . S
Zn170 N174 2.020 . S
Zn170 O178 2.019 . S
Zn170 N180 2.119 . S
Zn170 O188 1.975 . S
C171 N172 1.334 . S
C171 N175 1.336 . S
N172 C171 1.334 . S
N172 C173 1.334 . S
C173 N172 1.334 . S
C173 N174 1.336 . S
N174 Zn170 2.020 . S
N174 C173 1.336 . S
N174 N175 1.354 . S
N175 C171 1.336 . S
N175 N174 1.354 . S
N175 Zn179 2.020 . S
C176 O177 1.244 . S
C176 O200 1.257 . S
O177 C176 1.244 . S
O178 Zn170 2.019 . S
O178 C198 1.257 . S
Zn179 N175 2.020 . S
Zn179 O186 1.975 . S
Zn179 N195 2.119 . S
Zn179 O200 2.019 . S
N180 Zn170 2.119 . S
N180 C182 1.334 . S
N180 C183 1.328 . S
C181 C182 1.391 . S
C181 N184 1.329 . S
C181 H202 0.930 . S
C182 N180 1.334 . S
C182 C181 1.391 . S
C182 H189 0.930 . S
C183 N180 1.328 . S
C183 C185 1.392 . S
C183 H190 0.930 . S
N184 C181 1.329 . S
N184 C185 1.331 . S
C185 C183 1.392 . S
C185 N184 1.331 . S
O186 Zn179 1.975 . S
O186 C187 1.252 . S
C187 O186 1.252 . S
C187 O188 1.252 . S
O188 Zn170 1.975 . S
O188 C187 1.252 . S
H189 C182 0.930 . S
H190 C183 0.930 . S
C191 C192 1.392 . S
C191 N195 1.328 . S
C191 H197 0.930 . S
C192 C191 1.392 . S
C192 N196 1.331 . S
C193 C194 1.391 . S
C193 N196 1.329 . S
C193 H203 0.930 . S
C194 C193 1.391 . S
C194 N195 1.334 . S
C194 H201 0.930 . S
N195 Zn179 2.119 . S
N195 C191 1.328 . S
N195 C194 1.334 . S
N196 C192 1.331 . S
N196 C193 1.329 . S
H197 C191 0.930 . S
C198 O178 1.257 . S
C198 O199 1.244 . S
O199 C198 1.244 . S
O200 C176 1.257 . S
O200 Zn179 2.019 . S
H201 C194 0.930 . S
H202 C181 0.930 . S
H203 C193 0.930 . S
Zn204 N208 2.020 . S
Zn204 O212 2.019 . S
Zn204 N214 2.119 . S
Zn204 O222 1.975 . S
C205 N206 1.334 . S
C205 N209 1.336 . S
N206 C205 1.334 . S
N206 C207 1.334 . S
C207 N206 1.334 . S
C207 N208 1.336 . S
N208 Zn204 2.020 . S
N208 C207 1.336 . S
N208 N209 1.354 . S
N209 C205 1.336 . S
N209 N208 1.354 . S
N209 Zn213 2.020 . S
C210 O211 1.244 . S
C210 O234 1.257 . S
O211 C210 1.244 . S
O212 Zn204 2.019 . S
O212 C232 1.257 . S
Zn213 N209 2.020 . S
Zn213 O220 1.975 . S
Zn213 N229 2.119 . S
Zn213 O234 2.019 . S
N214 Zn204 2.119 . S
N214 C216 1.334 . S
N214 C217 1.328 . S
C215 C216 1.391 . S
C215 N218 1.329 . S
C215 H236 0.930 . S
C216 N214 1.334 . S
C216 C215 1.391 . S
C216 H223 0.930 . S
C217 N214 1.328 . S
C217 C219 1.392 . S
C217 H224 0.930 . S
N218 C215 1.329 . S
N218 C219 1.331 . S
C219 C217 1.392 . S
C219 N218 1.331 . S
O220 Zn213 1.975 . S
O220 C221 1.252 . S
C221 O220 1.252 . S
C221 O222 1.252 . S
O222 Zn204 1.975 . S
O222 C221 1.252 . S
H223 C216 0.930 . S
H224 C217 0.930 . S
C225 C226 1.392 . S
C225 N229 1.328 . S
C225 H231 0.930 . S
C226 C225 1.392 . S
C226 N230 1.331 . S
C227 C228 1.391 . S
C227 N230 1.329 . S
C227 H237 0.930 . S
C228 C227 1.391 . S
C228 N229 1.334 . S
C228 H235 0.930 . S
N229 Zn213 2.119 . S
N229 C225 1.328 . S
N229 C228 1.334 . S
N230 C226 1.331 . S
N230 C227 1.329 . S
H231 C225 0.930 . S
C232 O212 1.257 . S
C232 O233 1.244 . S
O233 C232 1.244 . S
O234 C210 1.257 . S
O234 Zn213 2.019 . S
H235 C228 0.930 . S
H236 C215 0.930 . S
H237 C227 0.930 . S
Zn238 N242 2.020 . S
Zn238 O246 2.019 . S
Zn238 N248 2.119 . S
Zn238 O256 1.975 . S
C239 N240 1.334 . S
C239 N243 1.336 . S
N240 C239 1.334 . S
N240 C241 1.334 . S
C241 N240 1.334 . S
C241 N242 1.336 . S
N242 Zn238 2.020 . S
N242 C241 1.336 . S
N242 N243 1.354 . S
N243 C239 1.336 . S
N243 N242 1.354 . S
N243 Zn247 2.020 . S
C244 O245 1.244 . S
C244 O268 1.257 . S
O245 C244 1.244 . S
O246 Zn238 2.019 . S
O246 C266 1.257 . S
Zn247 N243 2.020 . S
Zn247 O254 1.975 . S
Zn247 N263 2.119 . S
Zn247 O268 2.019 . S
N248 Zn238 2.119 . S
N248 C250 1.334 . S
N248 C251 1.328 . S
C249 C250 1.391 . S
C249 N252 1.329 . S
C249 H270 0.930 . S
C250 N248 1.334 . S
C250 C249 1.391 . S
C250 H257 0.930 . S
C251 N248 1.328 . S
C251 C253 1.392 . S
C251 H258 0.930 . S
N252 C249 1.329 . S
N252 C253 1.331 . S
C253 C251 1.392 . S
C253 N252 1.331 . S
O254 Zn247 1.975 . S
O254 C255 1.252 . S
C255 O254 1.252 . S
C255 O256 1.252 . S
O256 Zn238 1.975 . S
O256 C255 1.252 . S
H257 C250 0.930 . S
H258 C251 0.930 . S
C259 C260 1.392 . S
C259 N263 1.328 . S
C259 H265 0.930 . S
C260 C259 1.392 . S
C260 N264 1.331 . S
C261 C262 1.391 . S
C261 N264 1.329 . S
C261 H271 0.930 . S
C262 C261 1.391 . S
C262 N263 1.334 . S
C262 H269 0.930 . S
N263 Zn247 2.119 . S
N263 C259 1.328 . S
N263 C262 1.334 . S
N264 C260 1.331 . S
N264 C261 1.329 . S
H265 C259 0.930 . S
C266 O246 1.257 . S
C266 O267 1.244 . S
O267 C266 1.244 . S
O268 C244 1.257 . S
O268 Zn247 2.019 . S
H269 C262 0.930 . S
H270 C249 0.930 . S
H271 C261 0.930 . S
C272 C273 1.387 . S
C272 H276 0.950 . S
C272 C281 1.390 . S
C273 C272 1.387 . S
C273 C275 1.387 . S
H274 C281 0.950 . S
C275 C273 1.387 . S
C275 C277 1.390 . S
C275 H279 0.950 . S
H276 C272 0.950 . S
C277 C275 1.390 . S
C277 C278 1.387 . S
C277 H280 0.950 . S
C278 C277 1.387 . S
C278 C281 1.387 . S
H279 C275 0.950 . S
H280 C277 0.950 . S
C281 C272 1.390 . S
C281 H274 0.950 . S
C281 C278 1.387 . S
C282 C283 1.387 . S
C282 H286 0.950 . S
C282 C291 1.390 . S
C283 C282 1.387 . S
C283 C285 1.387 . S
H284 C291 0.950 . S
C285 C283 1.387 . S
C285 C287 1.390 . S
C285 H289 0.950 . S
H286 C282 0.950 . S
C287 C285 1.390 . S
C287 C288 1.387 . S
C287 H290 0.950 . S
C288 C287 1.387 . S
C288 C291 1.387 . S
H289 C285 0.950 . S
H290 C287 0.950 . S
C291 C282 1.390 . S
C291 H284 0.950 . S
C291 C288 1.387 . S
C292 C293 1.387 . S
C292 H296 0.950 . S
C292 C301 1.390 . S
C293 C292 1.387 . S
C293 C295 1.387 . S
H294 C301 0.950 . S
C295 C293 1.387 . S
C295 C297 1.390 . S
C295 H299 0.950 . S
H296 C292 0.950 . S
C297 C295 1.390 . S
C297 C298 1.387 . S
C297 H300 0.950 . S
C298 C297 1.387 . S
C298 C301 1.387 . S
H299 C295 0.950 . S
H300 C297 0.950 . S
C301 C292 1.390 . S
C301 H294 0.950 . S
C301 C298 1.387 . S
C302 C303 1.387 . S
C302 H306 0.950 . S
C302 C311 1.390 . S
C303 C302 1.387 . S
C303 C305 1.387 . S
H304 C311 0.950 . S
C305 C303 1.387 . S
C305 C307 1.390 . S
C305 H309 0.950 . S
H306 C302 0.950 . S
C307 C305 1.390 . S
C307 C308 1.387 . S
C307 H310 0.950 . S
C308 C307 1.387 . S
C308 C311 1.387 . S
H309 C305 0.950 . S
H310 C307 0.950 . S
C311 C302 1.390 . S
C311 H304 0.950 . S
C311 C308 1.387 . S
C312 C313 1.387 . S
C312 H316 0.950 . S
C312 C321 1.390 . S
C313 C312 1.387 . S
C313 C315 1.387 . S
H314 C321 0.950 . S
C315 C313 1.387 . S
C315 C317 1.390 . S
C315 H319 0.950 . S
H316 C312 0.950 . S
C317 C315 1.390 . S
C317 C318 1.387 . S
C317 H320 0.950 . S
C318 C317 1.387 . S
C318 C321 1.387 . S
H319 C315 0.950 . S
H320 C317 0.950 . S
C321 C312 1.390 . S
C321 H314 0.950 . S
C321 C318 1.387 . S
C322 C323 1.387 . S
C322 H326 0.950 . S
C322 C331 1.390 . S
C323 C322 1.387 . S
C323 C325 1.387 . S
H324 C331 0.950 . S
C325 C323 1.387 . S
C325 C327 1.390 . S
C325 H329 0.950 . S
H326 C322 0.950 . S
C327 C325 1.390 . S
C327 C328 1.387 . S
C327 H330 0.950 . S
C328 C327 1.387 . S
C328 C331 1.387 . S
H329 C325 0.950 . S
H330 C327 0.950 . S
C331 C322 1.390 . S
C331 H324 0.950 . S
C331 C328 1.387 . S
C332 C333 1.387 . S
C332 H336 0.950 . S
C332 C341 1.390 . S
C333 C332 1.387 . S
C333 C335 1.387 . S
H334 C341 0.950 . S
C335 C333 1.387 . S
C335 C337 1.390 . S
C335 H339 0.950 . S
H336 C332 0.950 . S
C337 C335 1.390 . S
C337 C338 1.387 . S
C337 H340 0.950 . S
C338 C337 1.387 . S
C338 C341 1.387 . S
H339 C335 0.950 . S
H340 C337 0.950 . S
C341 C332 1.390 . S
C341 H334 0.950 . S
C341 C338 1.387 . S
C342 C343 1.387 . S
C342 H346 0.950 . S
C342 C351 1.390 . S
C343 C342 1.387 . S
C343 C345 1.387 . S
H344 C351 0.950 . S
C345 C343 1.387 . S
C345 C347 1.390 . S
C345 H349 0.950 . S
H346 C342 0.950 . S
C347 C345 1.390 . S
C347 C348 1.387 . S
C347 H350 0.950 . S
C348 C347 1.387 . S
C348 C351 1.387 . S
H349 C345 0.950 . S
H350 C347 0.950 . S
C351 C342 1.390 . S
C351 H344 0.950 . S
C351 C348 1.387 . S
C352 C353 1.387 . S
C352 H356 0.950 . S
C352 C361 1.390 . S
C353 C352 1.387 . S
C353 C355 1.387 . S
H354 C361 0.950 . S
C355 C353 1.387 . S
C355 C357 1.390 . S
C355 H359 0.950 . S
H356 C352 0.950 . S
C357 C355 1.390 . S
C357 C358 1.387 . S
C357 H360 0.950 . S
C358 C357 1.387 . S
C358 C361 1.387 . S
H359 C355 0.950 . S
H360 C357 0.950 . S
C361 C352 1.390 . S
C361 H354 0.950 . S
C361 C358 1.387 . S
C362 C363 1.387 . S
C362 H366 0.950 . S
C362 C371 1.390 . S
C363 C362 1.387 . S
C363 C365 1.387 . S
H364 C371 0.950 . S
C365 C363 1.387 . S
C365 C367 1.390 . S
C365 H369 0.950 . S
H366 C362 0.950 . S
C367 C365 1.390 . S
C367 C368 1.387 . S
C367 H370 0.950 . S
C368 C367 1.387 . S
C368 C371 1.387 . S
H369 C365 0.950 . S
H370 C367 0.950 . S
C371 C362 1.390 . S
C371 H364 0.950 . S
C371 C368 1.387 . S
C372 C373 1.387 . S
C372 H376 0.950 . S
C372 C381 1.390 . S
C373 C372 1.387 . S
C373 C375 1.387 . S
H374 C381 0.950 . S
C375 C373 1.387 . S
C375 C377 1.390 . S
C375 H379 0.950 . S
H376 C372 0.950 . S
C377 C375 1.390 . S
C377 C378 1.387 . S
C377 H380 0.950 . S
C378 C377 1.387 . S
C378 C381 1.387 . S
H379 C375 0.950 . S
H380 C377 0.950 . S
C381 C372 1.390 . S
C381 H374 0.950 . S
C381 C378 1.387 . S
C382 C383 1.387 . S
C382 H386 0.950 . S
C382 C391 1.390 . S
C383 C382 1.387 . S
C383 C385 1.387 . S
H384 C391 0.950 . S
C385 C383 1.387 . S
C385 C387 1.390 . S
C385 H389 0.950 . S
H386 C382 0.950 . S
C387 C385 1.390 . S
C387 C388 1.387 . S
C387 H390 0.950 . S
C388 C387 1.387 . S
C388 C391 1.387 . S
H389 C385 0.950 . S
H390 C387 0.950 . S
C391 C382 1.390 . S
C391 H384 0.950 . S
C391 C388 1.387 . S
C392 C393 1.387 . S
C392 H396 0.950 . S
C392 C401 1.390 . S
C393 C392 1.387 . S
C393 C395 1.387 . S
H394 C401 0.950 . S
C395 C393 1.387 . S
C395 C397 1.390 . S
C395 H399 0.950 . S
H396 C392 0.950 . S
C397 C395 1.390 . S
C397 C398 1.387 . S
C397 H400 0.950 . S
C398 C397 1.387 . S
C398 C401 1.387 . S
H399 C395 0.950 . S
H400 C397 0.950 . S
C401 C392 1.390 . S
C401 H394 0.950 . S
C401 C398 1.387 . S
C402 C403 1.387 . S
C402 H406 0.950 . S
C402 C411 1.390 . S
C403 C402 1.387 . S
C403 C405 1.387 . S
H404 C411 0.950 . S
C405 C403 1.387 . S
C405 C407 1.390 . S
C405 H409 0.950 . S
H406 C402 0.950 . S
C407 C405 1.390 . S
C407 C408 1.387 . S
C407 H410 0.950 . S
C408 C407 1.387 . S
C408 C411 1.387 . S
H409 C405 0.950 . S
H410 C407 0.950 . S
C411 C402 1.390 . S
C411 H404 0.950 . S
C411 C408 1.387 . S
C412 C413 1.387 . S
C412 H416 0.950 . S
C412 C421 1.390 . S
C413 C412 1.387 . S
C413 C415 1.387 . S
H414 C421 0.950 . S
C415 C413 1.387 . S
C415 C417 1.390 . S
C415 H419 0.950 . S
H416 C412 0.950 . S
C417 C415 1.390 . S
C417 C418 1.387 . S
C417 H420 0.950 . S
C418 C417 1.387 . S
C418 C421 1.387 . S
H419 C415 0.950 . S
H420 C417 0.950 . S
C421 C412 1.390 . S
C421 H414 0.950 . S
C421 C418 1.387 . S
C422 C423 1.387 . S
C422 H426 0.950 . S
C422 C431 1.390 . S
C423 C422 1.387 . S
C423 C425 1.387 . S
H424 C431 0.950 . S
C425 C423 1.387 . S
C425 C427 1.390 . S
C425 H429 0.950 . S
H426 C422 0.950 . S
C427 C425 1.390 . S
C427 C428 1.387 . S
C427 H430 0.950 . S
C428 C427 1.387 . S
C428 C431 1.387 . S
H429 C425 0.950 . S
H430 C427 0.950 . S
C431 C422 1.390 . S
C431 H424 0.950 . S
C431 C428 1.387 . S
C432 C433 1.387 . S
C432 H436 0.950 . S
C432 C441 1.390 1_445 S
C433 C432 1.387 . S
C433 C435 1.387 . S
H434 C441 0.950 . S
C435 C433 1.387 . S
C435 C437 1.390 1_445 S
C435 H439 0.950 . S
H436 C432 0.950 . S
C437 C435 1.390 1_665 S
C437 C438 1.387 . S
C437 H440 0.950 . S
C438 C437 1.387 . S
C438 C441 1.387 . S
H439 C435 0.950 . S
H440 C437 0.950 . S
C441 C432 1.390 1_665 S
C441 H434 0.950 . S
C441 C438 1.387 . S
C442 C443 1.387 . S
C442 H446 0.950 . S
C442 C451 1.390 1_645 S
C443 C442 1.387 . S
C443 C445 1.387 . S
H444 C451 0.950 . S
C445 C443 1.387 . S
C445 C447 1.390 1_645 S
C445 H449 0.950 . S
H446 C442 0.950 . S
C447 C445 1.390 1_465 S
C447 C448 1.387 . S
C447 H450 0.950 . S
C448 C447 1.387 . S
C448 C451 1.387 . S
H449 C445 0.950 . S
H450 C447 0.950 . S
C451 C442 1.390 1_465 S
C451 H444 0.950 . S
C451 C448 1.387 . S
C452 C453 1.387 . S
C452 H456 0.950 . S
C452 C461 1.390 . S
C453 C452 1.387 . S
C453 C455 1.387 . S
H454 C461 0.950 . S
C455 C453 1.387 . S
C455 C457 1.390 . S
C455 H459 0.950 . S
H456 C452 0.950 . S
C457 C455 1.390 . S
C457 C458 1.387 . S
C457 H460 0.950 . S
C458 C457 1.387 . S
C458 C461 1.387 . S
H459 C455 0.950 . S
H460 C457 0.950 . S
C461 C452 1.390 . S
C461 H454 0.950 . S
C461 C458 1.387 . S
C462 C463 1.387 . S
C462 H466 0.950 . S
C462 C471 1.390 . S
C463 C462 1.387 . S
C463 C465 1.387 . S
H464 C471 0.950 . S
C465 C463 1.387 . S
C465 C467 1.390 . S
C465 H469 0.950 . S
H466 C462 0.950 . S
C467 C465 1.390 . S
C467 C468 1.387 . S
C467 H470 0.950 . S
C468 C467 1.387 . S
C468 C471 1.387 . S
H469 C465 0.950 . S
H470 C467 0.950 . S
C471 C462 1.390 . S
C471 H464 0.950 . S
C471 C468 1.387 . S
C472 C473 1.387 . S
C472 H476 0.950 . S
C472 C481 1.390 1_544 S
C473 C472 1.387 . S
C473 C475 1.387 . S
H474 C481 0.950 . S
C475 C473 1.387 . S
C475 C477 1.390 1_544 S
C475 H479 0.950 . S
H476 C472 0.950 . S
C477 C475 1.390 1_566 S
C477 C478 1.387 . S
C477 H480 0.950 . S
C478 C477 1.387 . S
C478 C481 1.387 . S
H479 C475 0.950 . S
H480 C477 0.950 . S
C481 C472 1.390 1_566 S
C481 H474 0.950 . S
C481 C478 1.387 . S
C482 C483 1.387 . S
C482 H486 0.950 . S
C482 C491 1.390 1_456 S
C483 C482 1.387 . S
C483 C485 1.387 . S
H484 C491 0.950 . S
C485 C483 1.387 . S
C485 C487 1.390 1_456 S
C485 H489 0.950 . S
H486 C482 0.950 . S
C487 C485 1.390 1_654 S
C487 C488 1.387 . S
C487 H490 0.950 . S
C488 C487 1.387 . S
C488 C491 1.387 . S
H489 C485 0.950 . S
H490 C487 0.950 . S
C491 C482 1.390 1_654 S
C491 H484 0.950 . S
C491 C488 1.387 . S
C492 C493 1.387 . S
C492 H496 0.950 . S
C492 C501 1.390 1_546 S
C493 C492 1.387 . S
C493 C495 1.387 . S
H494 C501 0.950 . S
C495 C493 1.387 . S
C495 C497 1.390 1_546 S
C495 H499 0.950 . S
H496 C492 0.950 . S
C497 C495 1.390 1_564 S
C497 C498 1.387 . S
C497 H500 0.950 . S
C498 C497 1.387 . S
C498 C501 1.387 . S
H499 C495 0.950 . S
H500 C497 0.950 . S
C501 C492 1.390 1_564 S
C501 H494 0.950 . S
C501 C498 1.387 . S
C502 C503 1.387 . S
C502 H506 0.950 . S
C502 C511 1.390 1_454 S
C503 C502 1.387 . S
C503 C505 1.387 . S
H504 C511 0.950 . S
C505 C503 1.387 . S
C505 C507 1.390 1_454 S
C505 H509 0.950 . S
H506 C502 0.950 . S
C507 C505 1.390 1_656 S
C507 C508 1.387 . S
C507 H510 0.950 . S
C508 C507 1.387 . S
C508 C511 1.387 . S
H509 C505 0.950 . S
H510 C507 0.950 . S
C511 C502 1.390 1_656 S
C511 H504 0.950 . S
C511 C508 1.387 . S
C512 C513 1.387 . S
C512 H516 0.950 . S
C512 C521 1.390 . S
C513 C512 1.387 . S
C513 C515 1.387 . S
H514 C521 0.950 . S
C515 C513 1.387 . S
C515 C517 1.390 . S
C515 H519 0.950 . S
H516 C512 0.950 . S
C517 C515 1.390 . S
C517 C518 1.387 . S
C517 H520 0.950 . S
C518 C517 1.387 . S
C518 C521 1.387 . S
H519 C515 0.950 . S
H520 C517 0.950 . S
C521 C512 1.390 . S
C521 H514 0.950 . S
C521 C518 1.387 . S
C522 C523 1.387 . S
C522 H526 0.950 . S
C522 C531 1.390 . S
C523 C522 1.387 . S
C523 C525 1.387 . S
H524 C531 0.950 . S
C525 C523 1.387 . S
C525 C527 1.390 . S
C525 H529 0.950 . S
H526 C522 0.950 . S
C527 C525 1.390 . S
C527 C528 1.387 . S
C527 H530 0.950 . S
C528 C527 1.387 . S
C528 C531 1.387 . S
H529 C525 0.950 . S
H530 C527 0.950 . S
C531 C522 1.390 . S
C531 H524 0.950 . S
C531 C528 1.387 . S
C532 C533 1.387 . S
C532 H536 0.950 . S
C532 C541 1.390 . S
C533 C532 1.387 . S
C533 C535 1.387 . S
H534 C541 0.950 . S
C535 C533 1.387 . S
C535 C537 1.390 . S
C535 H539 0.950 . S
H536 C532 0.950 . S
C537 C535 1.390 . S
C537 C538 1.387 . S
C537 H540 0.950 . S
C538 C537 1.387 . S
C538 C541 1.387 . S
H539 C535 0.950 . S
H540 C537 0.950 . S
C541 C532 1.390 . S
C541 H534 0.950 . S
C541 C538 1.387 . S
C542 C543 1.387 . S
C542 H546 0.950 . S
C542 C551 1.390 . S
C543 C542 1.387 . S
C543 C545 1.387 . S
H544 C551 0.950 . S
C545 C543 1.387 . S
C545 C547 1.390 . S
C545 H549 0.950 . S
H546 C542 0.950 . S
C547 C545 1.390 . S
C547 C548 1.387 . S
C547 H550 0.950 . S
C548 C547 1.387 . S
C548 C551 1.387 . S
H549 C545 0.950 . S
H550 C547 0.950 . S
C551 C542 1.390 . S
C551 H544 0.950 . S
C551 C548 1.387 . S
C273 C28 1.756 1_565 S
C278 C241 1.666 . S
C283 C49 1.338 . S
C288 C137 1.402 . S
C293 C173 1.666 . S
C298 C96 1.756 1_545 S
C303 C117 1.338 . S
C308 C207 1.401 . S
C313 C40 1.757 1_545 S
C318 C205 1.665 . S
C323 C239 1.401 . S
C328 C90 1.339 . S
C333 C108 1.757 1_565 S
C338 C139 1.664 . S
C343 C171 1.402 . S
C348 C22 1.338 . S
C353 C142 1.758 . S
C358 C105 1.664 . S
C363 C3 1.403 . S
C368 C185 1.338 . S
C373 C37 1.664 . S
C378 C232 1.757 . S
C383 C253 1.340 . S
C388 C71 1.400 . S
C393 C176 1.757 . S
C398 C69 1.663 . S
C403 C226 1.338 . S
C408 C103 1.402 . S
C413 C244 1.756 . S
C418 C1 1.666 . S
C423 C35 1.403 . S
C428 C151 1.338 . S
C433 C17 1.885 . S
C438 C85 1.885 . S
C443 C119 1.885 . S
C448 C51 1.885 . S
C453 C153 1.885 . S
C458 C221 1.885 . S
C463 C187 1.885 . S
C468 C255 1.885 . S
C473 C15 0.699 . S
C478 C56 0.699 . S
C483 C62 1.217 . S
C488 C74 1.217 . S
C493 C124 0.707 . S
C498 C83 0.707 . S
C503 C6 1.217 . S
C508 C130 1.217 . S
C513 C192 0.707 . S
C518 C158 0.707 . S
C523 C210 1.217 . S
C528 C198 1.217 . S
C533 C219 0.699 . S
C538 C260 0.699 . S
C543 C164 1.217 . S
C548 C266 1.217 . S
