# Generated by pormake.
# Topology vbm, (6)-cn, num edge types: 1
# Building blocks:
#     Node 0, Type 0, BuildingBlock: KUMJIN_clean_sbu_0, # of connection points: 6
#     Node 1, Type 0, BuildingBlock: KUMJIN_clean_sbu_0, # of connection points: 6
#     Node 2, Type 0, BuildingBlock: KUMJIN_clean_sbu_0, # of connection points: 6
#     Node 3, Type 0, BuildingBlock: KUMJIN_clean_sbu_0, # of connection points: 6
#     Node 4, Type 0, BuildingBlock: KUMJIN_clean_sbu_0, # of connection points: 6
#     Node 5, Type 0, BuildingBlock: KUMJIN_clean_sbu_0, # of connection points: 6
#     Node 6, Type 0, BuildingBlock: KUMJIN_clean_sbu_0, # of connection points: 6
#     Node 7, Type 0, BuildingBlock: KUMJIN_clean_sbu_0, # of connection points: 6
#     Node 8, Type 0, BuildingBlock: KUMJIN_clean_sbu_0, # of connection points: 6
#     Node 9, Type 0, BuildingBlock: KUMJIN_clean_sbu_0, # of connection points: 6
#     Node 10, Type 0, BuildingBlock: KUMJIN_clean_sbu_0, # of connection points: 6
#     Node 11, Type 0, BuildingBlock: KUMJIN_clean_sbu_0, # of connection points: 6
#     Node 12, Type 0, BuildingBlock: KUMJIN_clean_sbu_0, # of connection points: 6
#     Node 13, Type 0, BuildingBlock: KUMJIN_clean_sbu_0, # of connection points: 6
#     Node 14, Type 0, BuildingBlock: KUMJIN_clean_sbu_0, # of connection points: 6
#     Node 15, Type 0, BuildingBlock: KUMJIN_clean_sbu_0, # of connection points: 6
#     Edge 16, Type (0, 0), BuildingBlock: MIFKUJ_clean_linker_0, # of connection points: 2
#     Edge 17, Type (0, 0), BuildingBlock: MIFKUJ_clean_linker_0, # of connection points: 2
#     Edge 18, Type (0, 0), BuildingBlock: MIFKUJ_clean_linker_0, # of connection points: 2
#     Edge 19, Type (0, 0), BuildingBlock: MIFKUJ_clean_linker_0, # of connection points: 2
#     Edge 20, Type (0, 0), BuildingBlock: MIFKUJ_clean_linker_0, # of connection points: 2
#     Edge 21, Type (0, 0), BuildingBlock: MIFKUJ_clean_linker_0, # of connection points: 2
#     Edge 22, Type (0, 0), BuildingBlock: MIFKUJ_clean_linker_0, # of connection points: 2
#     Edge 23, Type (0, 0), BuildingBlock: MIFKUJ_clean_linker_0, # of connection points: 2
#     Edge 24, Type (0, 0), BuildingBlock: MIFKUJ_clean_linker_0, # of connection points: 2
#     Edge 25, Type (0, 0), BuildingBlock: MIFKUJ_clean_linker_0, # of connection points: 2
#     Edge 26, Type (0, 0), BuildingBlock: MIFKUJ_clean_linker_0, # of connection points: 2
#     Edge 27, Type (0, 0), BuildingBlock: MIFKUJ_clean_linker_0, # of connection points: 2
#     Edge 28, Type (0, 0), BuildingBlock: MIFKUJ_clean_linker_0, # of connection points: 2
#     Edge 29, Type (0, 0), BuildingBlock: MIFKUJ_clean_linker_0, # of connection points: 2
#     Edge 30, Type (0, 0), BuildingBlock: MIFKUJ_clean_linker_0, # of connection points: 2
#     Edge 31, Type (0, 0), BuildingBlock: MIFKUJ_clean_linker_0, # of connection points: 2
#     Edge 32, Type (0, 0), BuildingBlock: MIFKUJ_clean_linker_0, # of connection points: 2
#     Edge 33, Type (0, 0), BuildingBlock: MIFKUJ_clean_linker_0, # of connection points: 2
#     Edge 34, Type (0, 0), BuildingBlock: MIFKUJ_clean_linker_0, # of connection points: 2
#     Edge 35, Type (0, 0), BuildingBlock: MIFKUJ_clean_linker_0, # of connection points: 2
#     Edge 36, Type (0, 0), BuildingBlock: MIFKUJ_clean_linker_0, # of connection points: 2
#     Edge 37, Type (0, 0), BuildingBlock: MIFKUJ_clean_linker_0, # of connection points: 2
#     Edge 38, Type (0, 0), BuildingBlock: MIFKUJ_clean_linker_0, # of connection points: 2
#     Edge 39, Type (0, 0), BuildingBlock: MIFKUJ_clean_linker_0, # of connection points: 2
#     Edge 40, Type (0, 0), BuildingBlock: MIFKUJ_clean_linker_0, # of connection points: 2
#     Edge 41, Type (0, 0), BuildingBlock: MIFKUJ_clean_linker_0, # of connection points: 2
#     Edge 42, Type (0, 0), BuildingBlock: MIFKUJ_clean_linker_0, # of connection points: 2
#     Edge 43, Type (0, 0), BuildingBlock: MIFKUJ_clean_linker_0, # of connection points: 2
#     Edge 44, Type (0, 0), BuildingBlock: MIFKUJ_clean_linker_0, # of connection points: 2
#     Edge 45, Type (0, 0), BuildingBlock: MIFKUJ_clean_linker_0, # of connection points: 2
#     Edge 46, Type (0, 0), BuildingBlock: MIFKUJ_clean_linker_0, # of connection points: 2
#     Edge 47, Type (0, 0), BuildingBlock: MIFKUJ_clean_linker_0, # of connection points: 2
#     Edge 48, Type (0, 0), BuildingBlock: MIFKUJ_clean_linker_0, # of connection points: 2
#     Edge 49, Type (0, 0), BuildingBlock: MIFKUJ_clean_linker_0, # of connection points: 2
#     Edge 50, Type (0, 0), BuildingBlock: MIFKUJ_clean_linker_0, # of connection points: 2
#     Edge 51, Type (0, 0), BuildingBlock: MIFKUJ_clean_linker_0, # of connection points: 2
#     Edge 52, Type (0, 0), BuildingBlock: MIFKUJ_clean_linker_0, # of connection points: 2
#     Edge 53, Type (0, 0), BuildingBlock: MIFKUJ_clean_linker_0, # of connection points: 2
#     Edge 54, Type (0, 0), BuildingBlock: MIFKUJ_clean_linker_0, # of connection points: 2
#     Edge 55, Type (0, 0), BuildingBlock: MIFKUJ_clean_linker_0, # of connection points: 2
#     Edge 56, Type (0, 0), BuildingBlock: MIFKUJ_clean_linker_0, # of connection points: 2
#     Edge 57, Type (0, 0), BuildingBlock: MIFKUJ_clean_linker_0, # of connection points: 2
#     Edge 58, Type (0, 0), BuildingBlock: MIFKUJ_clean_linker_0, # of connection points: 2
#     Edge 59, Type (0, 0), BuildingBlock: MIFKUJ_clean_linker_0, # of connection points: 2
#     Edge 60, Type (0, 0), BuildingBlock: MIFKUJ_clean_linker_0, # of connection points: 2
#     Edge 61, Type (0, 0), BuildingBlock: MIFKUJ_clean_linker_0, # of connection points: 2
#     Edge 62, Type (0, 0), BuildingBlock: MIFKUJ_clean_linker_0, # of connection points: 2
#     Edge 63, Type (0, 0), BuildingBlock: MIFKUJ_clean_linker_0, # of connection points: 2
# Relax obj value: 0.090
# Max RMSD: 0.149
# Mean RMSD: 0.149
data_MOF--net-vbm--node1-KUMJIN_clean_sbu_0--edge1-MIFKUJ_clean_linker_0
_symmetry_space_group_name_H-M    P1
_symmetry_Int_Tables_number       1
_symmetry_cell_setting            triclinic
loop_
_symmetry_equiv_pos_as_xyz
'x, y, z'
_cell_length_a     69.979359
_cell_length_b     29.548411
_cell_length_c     76.702796
_cell_angle_alpha  89.932574
_cell_angle_beta   89.936614
_cell_angle_gamma 89.935062
loop_
_atom_site_label
_atom_site_type_symbol
_atom_site_fract_x
_atom_site_fract_y
_atom_site_fract_z
_atom_type_partial_charge
Eu0 Eu 0.14789 0.07062 0.12149 0.0
C1 C 0.09097 0.19708 0.15991 0.0
C2 C 0.0614 0.18873 0.14397 0.0
C3 C 0.06056 0.20611 0.1749 0.0
C4 C 0.08152 0.18695 0.1446 0.0
C5 C 0.0806 0.20788 0.17514 0.0
C6 C 0.05096 0.19681 0.15931 0.0
C7 C 0.11042 0.22776 0.18896 0.0
N8 N 0.11028 0.20026 0.15949 0.0
C9 C 0.12001 0.21765 0.17344 0.0
C10 C 0.09064 0.22226 0.18989 0.0
Eu11 Eu 0.12574 0.18013 0.13298 0.0
N12 N 0.09203 0.18002 0.12994 0.0
C13 C 0.0833 0.17818 0.11403 0.0
C14 C 0.05239 0.18479 0.1278 0.0
C15 C 0.0634 0.17994 0.11275 0.0
H16 H 0.13533 0.22194 0.17277 0.0
H17 H 0.05664 0.17792 0.10011 0.0
H18 H 0.03548 0.19756 0.15911 0.0
H19 H 0.11826 0.24 0.20015 0.0
H20 H 0.09154 0.17466 0.10224 0.0
H21 H 0.20161 0.07735 0.17353 0.0
H22 H 0.03703 0.18745 0.12678 0.0
H23 H 0.15548 0.04411 0.07905 0.0
H24 H 0.16955 0.07416 0.16137 0.0
H25 H 0.18189 0.04288 0.05788 0.0
H26 H 0.05235 0.21381 0.18652 0.0
H27 H 0.22962 0.07873 0.15412 0.0
H28 H 0.24291 0.07696 0.12377 0.0
H29 H 0.08318 0.23086 0.20182 0.0
H30 H 0.23753 0.07099 0.0923 0.0
N31 N 0.17867 0.07495 0.13475 0.0
C32 C 0.18134 0.0751 0.15243 0.0
C33 C 0.21548 0.07787 0.14852 0.0
C34 C 0.21284 0.07669 0.13048 0.0
C35 C 0.19968 0.07686 0.15953 0.0
C36 C 0.19402 0.07494 0.12387 0.0
H37 H 0.21489 0.05847 0.0676 0.0
N38 N 0.17283 0.0658 0.10031 0.0
C39 C 0.18466 0.05155 0.07135 0.0
C40 C 0.19098 0.07113 0.10612 0.0
C41 C 0.16968 0.05299 0.08338 0.0
C42 C 0.20323 0.06037 0.07688 0.0
C43 C 0.20668 0.0688 0.09453 0.0
O44 O 0.14448 1.00462 0.10888 0.0
O45 O 0.12036 0.10596 0.12828 0.0
O46 O 0.12525 0.13853 0.15785 0.0
O47 O 0.13892 0.06909 0.15009 0.0
O48 O 0.11916 0.05801 0.10869 0.0
O49 O 0.14931 1.00769 0.13655 0.0
O50 O 0.13641 0.24858 0.13842 0.0
O51 O 0.15336 0.14564 0.12502 0.0
O52 O 0.14276 0.10678 0.09605 0.0
O53 O 0.12577 0.17227 0.10329 0.0
O54 O 0.1544 0.19049 0.14576 0.0
O55 O 0.11963 0.23661 0.1154 0.0
C56 C 0.10908 0.08581 0.11786 0.0
C57 C 0.16109 0.94327 0.1217 0.0
C58 C 0.16784 0.86174 0.12196 0.0
C59 C 0.15473 0.89812 0.12311 0.0
C60 C 0.18729 0.87155 0.11913 0.0
C61 C 0.18057 0.95179 0.11908 0.0
C62 C 0.19355 0.91619 0.11774 0.0
C63 C 0.13127 0.09724 0.16158 0.0
C64 C 0.14746 0.98136 0.12304 0.0
C65 C 0.22534 0.07255 0.101 0.0
C66 C 0.22841 0.07608 0.11895 0.0
C67 C 0.16453 0.16497 0.13579 0.0
C68 C 0.11634 0.30818 0.12884 0.0
C69 C 0.12424 0.35175 0.12657 0.0
C70 C 0.11296 0.39077 0.12946 0.0
C71 C 0.09394 0.38542 0.13504 0.0
C72 C 0.09728 0.30413 0.13427 0.0
C73 C 0.08621 0.34243 0.13745 0.0
C74 C 0.13338 0.14395 0.09184 0.0
C75 C 0.12772 0.26703 0.12521 0.0
H76 H 0.1397 0.89144 0.12536 0.0
H77 H 0.1977 0.84465 0.11778 0.0
H78 H 0.18578 0.98592 0.11807 0.0
H79 H 0.20854 0.92323 0.11559 0.0
H80 H 0.1389 0.35521 0.12221 0.0
H81 H 0.08502 0.41462 0.13767 0.0
H82 H 0.09083 0.27137 0.13589 0.0
H83 H 0.07154 0.33877 0.1417 0.0
Eu84 Eu 0.87337 0.95112 0.12105 0.0
C85 C 0.93305 0.83194 0.15102 0.0
C86 C 0.95728 0.83454 0.12847 0.0
C87 C 0.96666 0.82457 0.15866 0.0
C88 C 0.93792 0.83673 0.13365 0.0
C89 C 0.9474 0.82477 0.16367 0.0
C90 C 0.9716 0.82953 0.1411 0.0
C91 C 0.92267 0.80938 0.18474 0.0
N92 N 0.91429 0.82906 0.15527 0.0
C93 C 0.90903 0.81516 0.17165 0.0
C94 C 0.94196 0.81491 0.18081 0.0
Eu95 Eu 0.89168 0.84027 0.13244 0.0
N96 N 0.92368 0.839 0.12166 0.0
C97 C 0.92793 0.83629 0.10427 0.0
C98 C 0.96166 0.83465 0.1107 0.0
C99 C 0.94689 0.83476 0.09855 0.0
H100 H 0.89417 0.80908 0.17471 0.0
H101 H 0.95007 0.83334 0.08475 0.0
H102 H 0.98647 0.82722 0.13729 0.0
H103 H 0.9183 0.79983 0.19778 0.0
H104 H 0.91693 0.83482 0.09459 0.0
H105 H 0.82792 0.97762 0.17873 0.0
H106 H 0.97634 0.833 0.10623 0.0
H107 H 0.85875 0.95033 0.07841 0.0
H108 H 0.85739 0.97923 0.16209 0.0
H109 H 0.82947 0.93998 0.06178 0.0
H110 H 0.97773 0.81815 0.16818 0.0
H111 H 0.79726 0.96249 0.16406 0.0
H112 H 0.7796 0.94898 0.13639 0.0
H113 H 0.95256 0.80937 0.19088 0.0
H114 H 0.78005 0.94019 0.10471 0.0
N115 N 0.84489 0.95583 0.13831 0.0
C116 C 0.84472 0.96828 0.15551 0.0
C117 C 0.81047 0.96087 0.15669 0.0
C118 C 0.8104 0.9524 0.1388 0.0
C119 C 0.82772 0.96934 0.16502 0.0
C120 C 0.82804 0.95002 0.12979 0.0
H121 H 0.79845 0.93469 0.07689 0.0
N122 N 0.84537 0.94354 0.10343 0.0
C123 C 0.82894 0.93999 0.07589 0.0
C124 C 0.8283 0.94343 0.1119 0.0
C125 C 0.84572 0.94453 0.08556 0.0
C126 C 0.81146 0.93711 0.08446 0.0
C127 C 0.81091 0.94003 0.10262 0.0
O128 O 0.87163 1.01226 0.105 0.0
O129 O 0.90006 0.91351 0.12904 0.0
O130 O 0.88649 0.87781 0.158 0.0
O131 O 0.88489 0.95264 0.14881 0.0
O132 O 0.90264 0.95926 0.10866 0.0
O133 O 0.87615 0.01849 0.13265 0.0
O134 O 0.88547 0.77366 0.14376 0.0
O135 O 0.86508 0.87735 0.12383 0.0
O136 O 0.8823 0.91969 0.09565 0.0
O137 O 0.88454 0.84347 0.10322 0.0
O138 O 0.86286 0.83542 0.14549 0.0
O139 O 0.8916 0.77904 0.11641 0.0
C140 C 0.91196 0.93162 0.11859 0.0
C141 C 0.8591 0.07742 0.11884 0.0
C142 C 0.85208 0.15826 0.12193 0.0
C143 C 0.86538 0.12237 0.12093 0.0
C144 C 0.83246 0.1483 0.1208 0.0
C145 C 0.83948 0.06859 0.11761 0.0
C146 C 0.82626 0.10381 0.11864 0.0
C147 C 0.88644 0.92171 0.16123 0.0
C148 C 0.87306 0.04 0.11811 0.0
C149 C 0.79347 0.94162 0.11163 0.0
C150 C 0.79321 0.94725 0.12968 0.0
C151 C 0.85336 0.86054 0.1348 0.0
C152 C 0.90104 0.71158 0.13047 0.0
C153 C 0.89352 0.66753 0.1289 0.0
C154 C 0.90577 0.62951 0.12931 0.0
C155 C 0.9255 0.6363 0.1316 0.0
C156 C 0.92076 0.71721 0.13271 0.0
C157 C 0.93289 0.67984 0.13332 0.0
C158 C 0.88377 0.87658 0.09155 0.0
C159 C 0.88843 0.75158 0.12936 0.0
H160 H 0.88055 0.12926 0.12195 0.0
H161 H 0.82187 0.17505 0.12126 0.0
H162 H 0.83435 0.03458 0.11575 0.0
H163 H 0.81113 0.09661 0.11765 0.0
H164 H 0.87829 0.66295 0.12703 0.0
H165 H 0.93524 0.60781 0.13222 0.0
H166 H 0.92684 0.75046 0.13389 0.0
H167 H 0.9481 0.68466 0.13509 0.0
Eu168 Eu 0.14399 0.95154 0.37942 0.0
C169 C 0.08463 0.83654 0.3399 0.0
C170 C 0.05544 0.84728 0.35657 0.0
C171 C 0.05371 0.83395 0.32539 0.0
C172 C 0.0756 0.84529 0.35576 0.0
C173 C 0.07366 0.82945 0.3247 0.0
C174 C 0.04463 0.84296 0.34126 0.0
C175 C 0.10271 0.80996 0.3094 0.0
N176 N 0.10398 0.83233 0.33949 0.0
C177 C 0.11304 0.81761 0.32469 0.0
C178 C 0.08298 0.8166 0.30933 0.0
Eu179 Eu 0.11994 0.84735 0.3661 0.0
N180 N 0.08634 0.84905 0.3705 0.0
C181 C 0.07767 0.85014 0.38649 0.0
C182 C 0.04662 0.85202 0.37283 0.0
C183 C 0.05777 0.85247 0.38786 0.0
H184 H 0.12836 0.8142 0.32435 0.0
H185 H 0.05106 0.85481 0.40055 0.0
H186 H 0.02917 0.84504 0.34166 0.0
H187 H 0.11002 0.7996 0.29762 0.0
H188 H 0.08581 0.85037 0.39834 0.0
H189 H 0.21209 0.94069 0.34461 0.0
H190 H 0.0312 0.8539 0.37397 0.0
H191 H 0.13631 0.98212 0.4209 0.0
H192 H 0.17716 0.94798 0.34749 0.0
H193 H 0.15457 0.98979 0.44838 0.0
H194 H 0.04511 0.82923 0.31379 0.0
H195 H 0.23239 0.9372 0.37097 0.0
H196 H 0.23488 0.94199 0.4036 0.0
H197 H 0.07502 0.81081 0.29742 0.0
H198 H 0.21923 0.9556 0.43188 0.0
N199 N 0.1775 0.94739 0.37523 0.0
C200 C 0.1858 0.94671 0.35911 0.0
C201 C 0.21703 0.94043 0.37232 0.0
C202 C 0.20853 0.94407 0.38879 0.0
C203 C 0.20563 0.94253 0.35741 0.0
C204 C 0.18847 0.94789 0.38982 0.0
H205 H 0.18934 0.97443 0.44866 0.0
N206 N 0.1605 0.96179 0.40605 0.0
C207 C 0.1618 0.97995 0.43649 0.0
C208 C 0.17969 0.9554 0.40574 0.0
C209 C 0.15153 0.97577 0.42095 0.0
C210 C 0.18141 0.97106 0.43661 0.0
C211 C 0.19068 0.95942 0.42105 0.0
O212 O 0.135 0.01946 0.38744 0.0
O213 O 0.11577 0.92103 0.37181 0.0
O214 O 0.11994 0.89367 0.34239 0.0
O215 O 0.14229 0.94907 0.34973 0.0
O216 O 0.11521 0.96494 0.39257 0.0
O217 O 0.15196 1.01125 0.36413 0.0
O218 O 0.13597 0.78955 0.37682 0.0
O219 O 0.14832 0.87813 0.3726 0.0
O220 O 0.1457 0.90066 0.40132 0.0
O221 O 0.11861 0.85773 0.39581 0.0
O222 O 0.1473 0.83876 0.35042 0.0
O223 O 0.10833 0.77833 0.36588 0.0
C224 C 0.10471 0.94035 0.38256 0.0
C225 C 0.15603 0.07913 0.38015 0.0
C226 C 0.16103 0.16112 0.38273 0.0
C227 C 0.14952 0.12399 0.3777 0.0
C228 C 0.17883 0.15228 0.3906 0.0
C229 C 0.17397 0.07175 0.38773 0.0
C230 C 0.18522 0.10803 0.39301 0.0
C231 C 0.13078 0.92897 0.33842 0.0
C232 C 0.14418 0.04003 0.37494 0.0
C233 C 0.21056 0.9532 0.42022 0.0
C234 C 0.21947 0.94547 0.40412 0.0
C235 C 0.1586 0.86103 0.36061 0.0
C236 C 0.131 0.71983 0.36227 0.0
C237 C 0.1294 0.67518 0.3688 0.0
C238 C 0.13651 0.63824 0.359 0.0
C239 C 0.14443 0.64651 0.34245 0.0
C240 C 0.13963 0.72678 0.34598 0.0
C241 C 0.14604 0.69042 0.33606 0.0
C242 C 0.13202 0.87306 0.40652 0.0
C243 C 0.12357 0.75926 0.37213 0.0
H244 H 0.13575 0.12988 0.37165 0.0
H245 H 0.18785 0.17968 0.39505 0.0
H246 H 0.17933 0.03792 0.38956 0.0
H247 H 0.19898 0.10183 0.39899 0.0
H248 H 0.12306 0.66936 0.3815 0.0
H249 H 0.1496 0.61881 0.33448 0.0
H250 H 0.14146 0.76033 0.34086 0.0
H251 H 0.15247 0.69636 0.32342 0.0
Eu252 Eu 0.86663 0.07458 0.37671 0.0
C253 C 0.92767 0.19432 0.33984 0.0
C254 C 0.95628 0.17915 0.35658 0.0
C255 C 0.95883 0.19825 0.32585 0.0
C256 C 0.93619 0.18215 0.3554 0.0
C257 C 0.93894 0.20425 0.32507 0.0
C258 C 0.96749 0.18559 0.34158 0.0
C259 C 0.9104 0.23127 0.3107 0.0
N260 N 0.90848 0.2005 0.33962 0.0
C261 C 0.89983 0.22072 0.32566 0.0
C262 C 0.92997 0.22204 0.31026 0.0
Eu263 Eu 0.89136 0.18138 0.36524 0.0
N264 N 0.92495 0.17716 0.36971 0.0
C265 C 0.93306 0.17331 0.38586 0.0
C266 C 0.96455 0.17179 0.37293 0.0
C267 C 0.9529 0.16985 0.38767 0.0
H268 H 0.88464 0.22731 0.32589 0.0
H269 H 0.95917 0.16536 0.40045 0.0
H270 H 0.98292 0.18269 0.34218 0.0
H271 H 0.90341 0.24617 0.29949 0.0
H272 H 0.92436 0.17137 0.39743 0.0
H273 H 0.80953 0.09171 0.32807 0.0
H274 H 0.97991 0.16909 0.37438 0.0
H275 H 0.86132 0.04171 0.41868 0.0
H276 H 0.84228 0.08078 0.33825 0.0
H277 H 0.83638 0.04139 0.44146 0.0
H278 H 0.9677 0.20502 0.31456 0.0
H279 H 0.78311 0.09954 0.34924 0.0
H280 H 0.77217 0.09938 0.38035 0.0
H281 H 0.93813 0.23028 0.29868 0.0
H282 H 0.77956 0.08705 0.41133 0.0
N283 N 0.83506 0.08236 0.36532 0.0
C284 C 0.83114 0.08368 0.34785 0.0
C285 C 0.79756 0.09436 0.35389 0.0
C286 C 0.80146 0.09106 0.37171 0.0
C287 C 0.81243 0.08991 0.34191 0.0
C288 C 0.82056 0.08437 0.37709 0.0
H289 H 0.8034 0.06489 0.43422 0.0
N290 N 0.84302 0.06853 0.39904 0.0
C291 C 0.83292 0.05223 0.42836 0.0
C292 C 0.82472 0.07791 0.39451 0.0
C293 C 0.84701 0.05266 0.41543 0.0
C294 C 0.81435 0.06558 0.42423 0.0
C295 C 0.80991 0.07734 0.40703 0.0
O296 O 0.87197 1.00738 0.38781 0.0
O297 O 0.89483 0.10657 0.36992 0.0
O298 O 0.89254 0.13879 0.34051 0.0
O299 O 0.87385 0.07587 0.34773 0.0
O300 O 0.89504 0.05905 0.38972 0.0
O301 O 0.86252 1.01311 0.36121 0.0
O302 O 0.88062 0.24978 0.35972 0.0
O303 O 0.8631 0.15003 0.37297 0.0
O304 O 0.87058 0.11244 0.40186 0.0
O305 O 0.89053 0.17336 0.39489 0.0
O306 O 0.86302 0.19381 0.35189 0.0
O307 O 0.89857 0.23864 0.38207 0.0
C308 C 0.90568 0.08532 0.38041 0.0
C309 C 0.85367 0.94679 0.37664 0.0
C310 C 0.84772 0.86478 0.37733 0.0
C311 C 0.86022 0.90182 0.37463 0.0
C312 C 0.82873 0.87392 0.38234 0.0
C313 C 0.83462 0.95456 0.38138 0.0
C314 C 0.82228 0.91834 0.38427 0.0
C315 C 0.88387 0.10031 0.33646 0.0
C316 C 0.86672 0.98548 0.37391 0.0
C317 C 0.79106 0.08661 0.40187 0.0
C318 C 0.78684 0.09344 0.38423 0.0
C319 C 0.85232 0.17021 0.36211 0.0
C320 C 0.90093 0.30996 0.36804 0.0
C321 C 0.89311 0.35365 0.37058 0.0
C322 C 0.90398 0.39278 0.36661 0.0
C323 C 0.92246 0.38715 0.35965 0.0
C324 C 0.91949 0.3058 0.36135 0.0
C325 C 0.9301 0.34408 0.35707 0.0
C326 C 0.88127 0.14738 0.40616 0.0
C327 C 0.88991 0.26874 0.37245 0.0
H328 H 0.8749 0.89585 0.37075 0.0
H329 H 0.81881 0.84666 0.38499 0.0
H330 H 0.82927 0.98863 0.38289 0.0
H331 H 0.80762 0.92473 0.38809 0.0
H332 H 0.87885 0.3571 0.37593 0.0
H333 H 0.93104 0.41619 0.35606 0.0
H334 H 0.92587 0.27292 0.35951 0.0
H335 H 0.94436 0.34036 0.35179 0.0
Eu336 Eu 0.89199 0.84725 0.86521 0.0
C337 C 0.83072 0.96542 0.90136 0.0
C338 C 0.8033 0.96117 0.88218 0.0
C339 C 0.79863 0.97428 0.91314 0.0
C340 C 0.82323 0.95916 0.88482 0.0
C341 C 0.8185 0.97407 0.91561 0.0
C342 C 0.79104 0.96781 0.89645 0.0
C343 C 0.84649 0.9855 0.93351 0.0
N344 N 0.84997 0.96541 0.90338 0.0
C345 C 0.85801 0.97676 0.91903 0.0
C346 C 0.82663 0.98384 0.93182 0.0
Eu347 Eu 0.86843 0.95304 0.87801 0.0
N348 N 0.83542 0.95318 0.8712 0.0
C349 C 0.8286 0.95134 0.85452 0.0
C350 C 0.79626 0.95786 0.86519 0.0
C351 C 0.80897 0.95309 0.8513 0.0
H352 H 0.87339 0.9783 0.9203 0.0
H353 H 0.80369 0.95111 0.83807 0.0
H354 H 0.77569 0.96906 0.89466 0.0
H355 H 0.85294 0.99398 0.94589 0.0
H356 H 0.83815 0.94788 0.84358 0.0
H357 H 0.95913 0.84323 0.90144 0.0
H358 H 0.78109 0.96023 0.86268 0.0
H359 H 0.8839 0.82077 0.82333 0.0
H360 H 0.92458 0.84968 0.89778 0.0
H361 H 0.90232 0.80388 0.79661 0.0
H362 H 0.78903 0.98048 0.92397 0.0
H363 H 0.98008 0.83228 0.87574 0.0
H364 H 0.9832 0.82225 0.84345 0.0
H365 H 0.81764 0.99148 0.94292 0.0
H366 H 0.96777 0.81186 0.81494 0.0
N367 N 0.9254 0.8438 0.87008 0.0
C368 C 0.93331 0.84529 0.88634 0.0
C369 C 0.9648 0.83566 0.874 0.0
C370 C 0.95661 0.83256 0.85743 0.0
C371 C 0.95306 0.84169 0.88852 0.0
C372 C 0.93657 0.83621 0.85587 0.0
H373 H 0.93767 0.80435 0.7974 0.0
N374 N 0.90859 0.83188 0.83893 0.0
C375 C 0.90971 0.81141 0.80865 0.0
C376 C 0.92792 0.83025 0.83983 0.0
C377 C 0.89933 0.82095 0.8238 0.0
C378 C 0.92965 0.81184 0.80915 0.0
C379 C 0.93901 0.82064 0.8249 0.0
O380 O 0.89526 0.78844 0.88256 0.0
O381 O 0.86366 0.87934 0.87198 0.0
O382 O 0.86471 0.90245 0.8999 0.0
O383 O 0.89119 0.85664 0.89497 0.0
O384 O 0.86401 0.83744 0.85069 0.0
O385 O 0.88501 0.77893 0.85637 0.0
O386 O 0.8634 0.01382 0.86217 0.0
O387 O 0.89664 0.92073 0.87129 0.0
O388 O 0.89629 0.89772 0.84308 0.0
O389 O 0.8716 0.94873 0.84848 0.0
O390 O 0.89678 0.96436 0.89208 0.0
O391 O 0.87532 0.02043 0.88795 0.0
C392 C 0.85309 0.86163 0.86045 0.0
C393 C 0.87506 0.72492 0.87714 0.0
C394 C 0.86559 0.64496 0.88066 0.0
C395 C 0.87926 0.67811 0.87579 0.0
C396 C 0.84764 0.66011 0.8867 0.0
C397 C 0.85715 0.73853 0.88339 0.0
C398 C 0.84355 0.70628 0.88809 0.0
C399 C 0.87781 0.87361 0.90534 0.0
C400 C 0.88896 0.75934 0.87113 0.0
C401 C 0.959 0.81884 0.82627 0.0
C402 C 0.96778 0.82474 0.84251 0.0
C403 C 0.90748 0.93918 0.88242 0.0
C404 C 0.88371 0.07689 0.8675 0.0
C405 C 0.87909 0.12349 0.86883 0.0
C406 C 0.89227 0.15725 0.86343 0.0
C407 C 0.91014 0.14288 0.85691 0.0
C408 C 0.9015 0.06409 0.86073 0.0
C409 C 0.9146 0.09692 0.85552 0.0
C410 C 0.88483 0.93112 0.83815 0.0
C411 C 0.87031 0.04167 0.87377 0.0
H412 H 0.89317 0.66774 0.87102 0.0
H413 H 0.8365 0.63628 0.89009 0.0
H414 H 0.85362 0.77414 0.88442 0.0
H415 H 0.82965 0.71714 0.8927 0.0
H416 H 0.86525 0.13323 0.87394 0.0
H417 H 0.92094 0.16717 0.85311 0.0
H418 H 0.90532 0.02864 0.85966 0.0
H419 H 0.92841 0.0867 0.8505 0.0
Eu420 Eu 0.12135 0.18469 0.86546 0.0
C421 C 0.18299 0.06619 0.9 0.0
C422 C 0.21095 0.08565 0.88303 0.0
C423 C 0.21436 0.0659 0.91362 0.0
C424 C 0.19097 0.08017 0.88448 0.0
C425 C 0.19466 0.05721 0.91459 0.0
C426 C 0.2225 0.08015 0.89785 0.0
C427 C 0.16705 0.02542 0.929 0.0
N428 N 0.16403 0.05714 0.90031 0.0
C429 C 0.15618 0.03446 0.91411 0.0
C430 C 0.18631 0.0377 0.92939 0.0
Eu431 Eu 0.14591 0.07703 0.87529 0.0
N432 N 0.1794 0.08424 0.87039 0.0
C433 C 0.18714 0.0893 0.85414 0.0
C434 C 0.21877 0.09442 0.86659 0.0
C435 C 0.20685 0.09518 0.85203 0.0
H436 H 0.14128 0.02488 0.91381 0.0
H437 H 0.21281 0.10063 0.83917 0.0
H438 H 0.23783 0.085 0.89706 0.0
H439 H 0.16058 1.00891 0.94014 0.0
H440 H 0.17821 0.09034 0.84273 0.0
H441 H 0.05583 0.18016 0.90451 0.0
H442 H 0.23403 0.099 0.86492 0.0
H443 H 0.12687 0.21876 0.82416 0.0
H444 H 0.09039 0.17868 0.89944 0.0
H445 H 0.10691 0.23537 0.79831 0.0
H446 H 0.22353 0.05989 0.92477 0.0
H447 H 0.03358 0.18824 0.87971 0.0
H448 H 0.02891 0.2034 0.848 0.0
H449 H 0.19477 0.03028 0.94087 0.0
H450 H 0.0427 0.21731 0.81896 0.0
N451 N 0.08815 0.18379 0.87176 0.0
C452 C 0.08105 0.1818 0.88836 0.0
C453 C 0.04884 0.18711 0.87733 0.0
C454 C 0.05619 0.1919 0.86048 0.0
C455 C 0.06135 0.18277 0.89136 0.0
C456 C 0.07617 0.18995 0.85803 0.0
H457 H 0.07172 0.2293 0.80033 0.0
N458 N 0.10323 0.20106 0.84021 0.0
C459 C 0.10027 0.22501 0.81043 0.0
C460 C 0.08395 0.19892 0.84177 0.0
C461 C 0.11151 0.21569 0.82505 0.0
C462 C 0.08043 0.22133 0.8116 0.0
C463 C 0.072 0.20922 0.8275 0.0
O464 O 0.13074 0.25291 0.85803 0.0
O465 O 0.14974 0.15263 0.87214 0.0
O466 O 0.14428 0.1141 0.90094 0.0
O467 O 0.12364 0.17477 0.89505 0.0
O468 O 0.14923 0.19726 0.85132 0.0
O469 O 0.11633 0.24267 0.8826 0.0
O470 O 0.13701 1.00683 0.88003 0.0
O471 O 0.11783 0.11036 0.86942 0.0
O472 O 0.11787 0.13795 0.84214 0.0
O473 O 0.14426 0.09119 0.84597 0.0
O474 O 0.11717 0.06031 0.88795 0.0
O475 O 0.15237 0.02317 0.85658 0.0
C476 C 0.1602 0.17313 0.86111 0.0
C477 C 0.11174 0.31348 0.86856 0.0
C478 C 0.10825 0.39623 0.86739 0.0
C479 C 0.11974 0.35729 0.87001 0.0
C480 C 0.08893 0.39036 0.86284 0.0
C481 C 0.09237 0.30912 0.86424 0.0
C482 C 0.08111 0.34722 0.86129 0.0
C483 C 0.13354 0.14866 0.90587 0.0
C484 C 0.12338 0.27237 0.87173 0.0
C485 C 0.0521 0.20929 0.82974 0.0
C486 C 0.04424 0.20107 0.84624 0.0
C487 C 0.10676 0.08899 0.87957 0.0
C488 C 0.158 0.95092 0.86906 0.0
C489 C 0.1509 0.90635 0.86734 0.0
C490 C 0.1631 0.86861 0.86986 0.0
C491 C 0.18228 0.87646 0.87445 0.0
C492 C 0.17722 0.95736 0.87356 0.0
C493 C 0.18923 0.92041 0.87628 0.0
C494 C 0.13062 0.10883 0.83609 0.0
C495 C 0.14549 0.99076 0.86628 0.0
H496 H 0.13465 0.36101 0.8735 0.0
H497 H 0.0798 0.4193 0.86036 0.0
H498 H 0.08587 0.27624 0.86324 0.0
H499 H 0.0662 0.34328 0.85786 0.0
H500 H 0.13608 0.90114 0.86379 0.0
H501 H 0.19195 0.84848 0.87685 0.0
H502 H 0.18301 0.99101 0.87492 0.0
H503 H 0.20401 0.92585 0.87983 0.0
Eu504 Eu 0.8883 0.17422 0.6317 0.0
C505 C 0.8229 0.06509 0.6082 0.0
C506 C 0.80233 0.06982 0.63355 0.0
C507 C 0.78831 0.0664 0.60467 0.0
C508 C 0.82078 0.06838 0.62608 0.0
C509 C 0.80662 0.06308 0.59733 0.0
C510 C 0.78618 0.06933 0.62274 0.0
C511 C 0.82744 0.04727 0.57306 0.0
N512 N 0.84075 0.06031 0.60154 0.0
C513 C 0.84304 0.04845 0.58439 0.0
C514 C 0.80916 0.05549 0.5795 0.0
Eu515 Eu 0.86675 0.06416 0.62162 0.0
N516 N 0.83668 0.06814 0.63624 0.0
C517 C 0.83493 0.06724 0.65401 0.0
C518 C 0.80063 0.07048 0.65169 0.0
C519 C 0.81699 0.06896 0.66195 0.0
H520 H 0.85696 0.03954 0.57933 0.0
H521 H 0.8158 0.06859 0.67602 0.0
H522 H 0.77195 0.0698 0.62823 0.0
H523 H 0.82951 0.03914 0.55943 0.0
H524 H 0.84715 0.06474 0.66234 0.0
H525 H 0.94606 0.16854 0.58317 0.0
H526 H 0.7868 0.07102 0.65794 0.0
H527 H 0.89263 0.20854 0.67361 0.0
H528 H 0.91309 0.17384 0.59335 0.0
H529 H 0.91743 0.21363 0.69633 0.0
H530 H 0.77568 0.065 0.59652 0.0
H531 H 0.97259 0.16444 0.60434 0.0
H532 H 0.98339 0.166 0.63543 0.0
H533 H 0.79703 0.05379 0.57075 0.0
H534 H 0.97554 0.17702 0.6664 0.0
N535 N 0.92015 0.17126 0.62042 0.0
C536 C 0.9242 0.17172 0.60295 0.0
C537 C 0.95799 0.16676 0.60898 0.0
C538 C 0.95393 0.16876 0.6268 0.0
C539 C 0.94306 0.16908 0.59701 0.0
C540 C 0.93464 0.17165 0.63219 0.0
H541 H 0.95105 0.19558 0.68918 0.0
N542 N 0.91171 0.1843 0.65403 0.0
C543 C 0.92124 0.20297 0.68329 0.0
C544 C 0.93025 0.17767 0.64957 0.0
C545 C 0.90724 0.19989 0.67037 0.0
C546 C 0.94017 0.19262 0.67921 0.0
C547 C 0.94498 0.18114 0.66208 0.0
O548 O 0.88258 0.24156 0.64249 0.0
O549 O 0.86051 0.13924 0.62472 0.0
O550 O 0.87281 0.09691 0.59574 0.0
O551 O 0.88112 0.17122 0.60263 0.0
O552 O 0.86014 0.18436 0.6455 0.0
O553 O 0.88968 0.23489 0.61535 0.0
O554 O 0.86898 0.99813 0.60885 0.0
O555 O 0.89426 0.09975 0.62805 0.0
O556 O 0.88472 0.13736 0.65749 0.0
O557 O 0.87781 0.06306 0.64952 0.0
O558 O 0.89512 0.0527 0.60803 0.0
O559 O 0.86655 1.00133 0.63679 0.0
C560 C 0.84967 0.15886 0.63578 0.0
C561 C 0.89933 0.30213 0.62943 0.0
C562 C 0.90471 0.3841 0.629 0.0
C563 C 0.89221 0.34664 0.62799 0.0
C564 C 0.92432 0.3761 0.63172 0.0
C565 C 0.91894 0.2953 0.63202 0.0
C566 C 0.93133 0.33206 0.63321 0.0
C567 C 0.87706 0.13879 0.59131 0.0
C568 C 0.88636 0.26294 0.62807 0.0
C569 C 0.96408 0.1752 0.65694 0.0
C570 C 0.96855 0.16909 0.63931 0.0
C571 C 0.90532 0.07987 0.61733 0.0
C572 C 0.8539 0.93656 0.62291 0.0
C573 C 0.86073 0.89179 0.62425 0.0
C574 C 0.84792 0.85485 0.62402 0.0
C575 C 0.82823 0.8637 0.62226 0.0
C576 C 0.83423 0.94425 0.6213 0.0
C577 C 0.8215 0.90803 0.62094 0.0
C578 C 0.88232 0.09413 0.66122 0.0
C579 C 0.86734 0.97498 0.62321 0.0
H580 H 0.87708 0.35199 0.62581 0.0
H581 H 0.93427 0.40398 0.6329 0.0
H582 H 0.92471 0.26159 0.63309 0.0
H583 H 0.94644 0.32639 0.6353 0.0
H584 H 0.87594 0.88588 0.62568 0.0
H585 H 0.818 0.83628 0.62167 0.0
H586 H 0.82869 0.97819 0.62029 0.0
H587 H 0.80633 0.91434 0.61958 0.0
Eu588 Eu 0.11953 0.84991 0.63379 0.0
C589 C 0.17837 0.96794 0.59349 0.0
C590 C 0.20818 0.95948 0.60914 0.0
C591 C 0.20856 0.97404 0.57795 0.0
C592 C 0.18804 0.95913 0.60884 0.0
C593 C 0.18851 0.97614 0.57791 0.0
C594 C 0.21838 0.96591 0.59355 0.0
C595 C 0.15835 0.99193 0.56379 0.0
N596 N 0.15904 0.97072 0.594 0.0
C597 C 0.14897 0.98409 0.57961 0.0
C598 C 0.1782 0.98749 0.56288 0.0
Eu599 Eu 0.14412 0.95508 0.62108 0.0
N600 N 0.17777 0.95363 0.62372 0.0
C601 C 0.18673 0.95123 0.63948 0.0
C602 C 0.21745 0.9552 0.6252 0.0
C603 C 0.20666 0.95148 0.64045 0.0
H604 H 0.13361 0.98736 0.5802 0.0
H605 H 0.21361 0.94913 0.653 0.0
H606 H 0.23386 0.96579 0.59351 0.0
H607 H 0.15028 1.00137 0.55232 0.0
H608 H 0.17859 0.94857 0.65138 0.0
H609 H 0.051 0.85593 0.59955 0.0
H610 H 0.23288 0.95626 0.62598 0.0
H611 H 0.12793 0.81987 0.67525 0.0
H612 H 0.08599 0.85212 0.60214 0.0
H613 H 0.11003 0.81064 0.70287 0.0
H614 H 0.21661 0.97994 0.56609 0.0
H615 H 0.03083 0.85626 0.62605 0.0
H616 H 0.02863 0.85027 0.65866 0.0
H617 H 0.18546 0.99387 0.55064 0.0
H618 H 0.04469 0.83772 0.6868 0.0
N619 N 0.0859 0.8513 0.62989 0.0
C620 C 0.07747 0.852 0.61384 0.0
C621 C 0.04623 0.85445 0.62728 0.0
C622 C 0.0549 0.85098 0.64365 0.0
C623 C 0.05757 0.85416 0.6123 0.0
C624 C 0.07502 0.849 0.64453 0.0
H625 H 0.075 0.82213 0.70337 0.0
N626 N 0.1033 0.83737 0.66049 0.0
C627 C 0.10254 0.81957 0.69101 0.0
C628 C 0.08401 0.84176 0.66033 0.0
C629 C 0.11261 0.8246 0.67537 0.0
C630 C 0.08278 0.82622 0.69125 0.0
C631 C 0.07321 0.83669 0.67574 0.0
O632 O 0.1287 0.78133 0.64094 0.0
O633 O 0.14793 0.88084 0.62663 0.0
O634 O 0.14653 0.906 0.59863 0.0
O635 O 0.12025 0.85969 0.60399 0.0
O636 O 0.14795 0.83667 0.64735 0.0
O637 O 0.11312 0.79187 0.61705 0.0
O638 O 0.13486 0.02448 0.61528 0.0
O639 O 0.11599 0.9236 0.62802 0.0
O640 O 0.11696 0.90039 0.65598 0.0
O641 O 0.14389 0.94437 0.65069 0.0
O642 O 0.11551 0.96937 0.6079 0.0
O643 O 0.151 1.01108 0.63865 0.0
C644 C 0.15874 0.86136 0.63761 0.0
C645 C 0.10869 0.72155 0.63152 0.0
C646 C 0.10438 0.63894 0.6326 0.0
C647 C 0.11598 0.67725 0.62917 0.0
C648 C 0.08564 0.64597 0.63873 0.0
C649 C 0.08992 0.72708 0.63756 0.0
C650 C 0.07854 0.68959 0.64118 0.0
C651 C 0.13342 0.87688 0.59339 0.0
C652 C 0.12048 0.762 0.62766 0.0
C653 C 0.05323 0.84102 0.67507 0.0
C654 C 0.04409 0.84816 0.65906 0.0
C655 C 0.10502 0.9433 0.61733 0.0
C656 C 0.15511 0.08311 0.62542 0.0
C657 C 0.14755 0.12709 0.62795 0.0
C658 C 0.15907 0.16584 0.62508 0.0
C659 C 0.178 0.15958 0.61934 0.0
C660 C 0.17407 0.07835 0.61982 0.0
C661 C 0.18538 0.11627 0.61675 0.0
C662 C 0.13012 0.92959 0.66112 0.0
C663 C 0.1434 0.04219 0.62873 0.0
H664 H 0.13045 0.67269 0.62443 0.0
H665 H 0.07647 0.61757 0.64183 0.0
H666 H 0.08401 0.76041 0.63945 0.0
H667 H 0.0641 0.69438 0.64591 0.0
H668 H 0.13294 0.13105 0.63239 0.0
H669 H 0.18713 0.18833 0.61665 0.0
H670 H 0.18022 0.0453 0.61787 0.0
H671 H 0.19998 0.11207 0.61235 0.0
Eu672 Eu 0.6461 0.57258 0.12105 0.0
C673 C 0.5907 0.70656 0.15949 0.0
C674 C 0.56039 0.70422 0.14429 0.0
C675 C 0.56152 0.72842 0.17454 0.0
C676 C 0.58031 0.69674 0.14459 0.0
C677 C 0.58139 0.72234 0.17464 0.0
C678 C 0.55112 0.72018 0.15932 0.0
C679 C 0.6123 0.73049 0.18825 0.0
N680 N 0.61001 0.70307 0.15886 0.0
C681 C 0.62092 0.71593 0.1728 0.0
C682 C 0.59243 0.73353 0.18921 0.0
Eu683 Eu 0.62353 0.68137 0.13183 0.0
N684 N 0.58985 0.68415 0.12994 0.0
C685 C 0.58046 0.68044 0.11442 0.0
C686 C 0.55056 0.69796 0.1286 0.0
C687 C 0.56066 0.68615 0.11359 0.0
H688 H 0.63631 0.71423 0.17214 0.0
H689 H 0.55325 0.68226 0.10131 0.0
H690 H 0.53603 0.72792 0.15916 0.0
H691 H 0.62099 0.7398 0.19934 0.0
H692 H 0.58819 0.67273 0.10261 0.0
H693 H 0.71351 0.58388 0.15664 0.0
H694 H 0.5353 0.70367 0.12778 0.0
H695 H 0.63917 0.5237 0.08244 0.0
H696 H 0.67876 0.58357 0.15309 0.0
H697 H 0.65764 0.50252 0.05614 0.0
H698 H 0.55415 0.74113 0.18597 0.0
H699 H 0.73459 0.57345 0.13097 0.0
H700 H 0.73782 0.5588 0.09894 0.0
H701 H 0.58579 0.7456 0.2011 0.0
H702 H 0.72249 0.53704 0.07134 0.0
N703 N 0.67968 0.57539 0.12549 0.0
C704 C 0.6876 0.57962 0.14169 0.0
C705 C 0.71924 0.5744 0.12928 0.0
C706 C 0.71109 0.56763 0.11286 0.0
C707 C 0.70743 0.57987 0.14378 0.0
C708 C 0.691 0.56771 0.11141 0.0
H709 H 0.69262 0.51419 0.05547 0.0
N710 N 0.66319 0.5507 0.09573 0.0
C711 C 0.66479 0.51774 0.06718 0.0
C712 C 0.68244 0.55515 0.09598 0.0
C713 C 0.65438 0.52995 0.08202 0.0
C714 C 0.68451 0.52466 0.06681 0.0
C715 C 0.69366 0.5426 0.08146 0.0
O716 O 0.63636 0.50307 0.1162 0.0
O717 O 0.61849 0.60749 0.12756 0.0
O718 O 0.61952 0.6349 0.15521 0.0
O719 O 0.64486 0.58558 0.1504 0.0
O720 O 0.61719 0.55883 0.10844 0.0
O721 O 0.65185 0.5181 0.13968 0.0
O722 O 0.63355 0.75077 0.1365 0.0
O723 O 0.65142 0.6475 0.12444 0.0
O724 O 0.64515 0.61232 0.09586 0.0
O725 O 0.62322 0.67005 0.10222 0.0
O726 O 0.65208 0.69313 0.14473 0.0
O727 O 0.61706 0.73582 0.11344 0.0
C728 C 0.60718 0.5874 0.11726 0.0
C729 C 0.65703 0.44605 0.1269 0.0
C730 C 0.66105 0.36403 0.12328 0.0
C731 C 0.64925 0.40193 0.12673 0.0
C732 C 0.68063 0.37107 0.12016 0.0
C733 C 0.67668 0.45166 0.12392 0.0
C734 C 0.68834 0.4145 0.12053 0.0
C735 C 0.63167 0.60356 0.16069 0.0
C736 C 0.64478 0.48627 0.12987 0.0
C737 C 0.71364 0.54593 0.08242 0.0
C738 C 0.72236 0.55832 0.09813 0.0
C739 C 0.66248 0.66735 0.13513 0.0
C740 C 0.61297 0.80872 0.12601 0.0
C741 C 0.62151 0.85198 0.12709 0.0
C742 C 0.61019 0.89081 0.13033 0.0
C743 C 0.59035 0.88562 0.13245 0.0
C744 C 0.59306 0.80511 0.12777 0.0
C745 C 0.58189 0.84315 0.13111 0.0
C746 C 0.63367 0.64584 0.09116 0.0
C747 C 0.6247 0.76755 0.123 0.0
H748 H 0.6341 0.3972 0.12903 0.0
H749 H 0.69012 0.34277 0.11772 0.0
H750 H 0.68309 0.48475 0.12429 0.0
H751 H 0.70347 0.41938 0.11825 0.0
H752 H 0.63684 0.85536 0.12554 0.0
H753 H 0.58126 0.91472 0.13475 0.0
H754 H 0.586 0.773 0.12637 0.0
H755 H 0.56656 0.83972 0.13249 0.0
Eu756 Eu 0.36914 0.45959 0.11948 0.0
C757 C 0.4261 0.33687 0.15927 0.0
C758 C 0.45607 0.34055 0.14357 0.0
C759 C 0.45608 0.3273 0.17484 0.0
C760 C 0.43597 0.34383 0.14387 0.0
C761 C 0.43602 0.32802 0.1749 0.0
C762 C 0.46609 0.3333 0.15919 0.0
C763 C 0.40556 0.31702 0.18916 0.0
N764 N 0.40672 0.33664 0.1588 0.0
C765 C 0.39637 0.32522 0.17329 0.0
C766 C 0.42547 0.31884 0.19002 0.0
Eu767 Eu 0.39226 0.35256 0.13154 0.0
N768 N 0.42589 0.35035 0.12895 0.0
C769 C 0.43494 0.35101 0.11318 0.0
C770 C 0.46546 0.34278 0.1275 0.0
C771 C 0.45483 0.34772 0.11222 0.0
H772 H 0.38096 0.32383 0.17272 0.0
H773 H 0.46186 0.34865 0.09968 0.0
H774 H 0.48155 0.33121 0.15922 0.0
H775 H 0.39729 0.30914 0.2007 0.0
H776 H 0.42691 0.35449 0.10127 0.0
H777 H 0.29981 0.45257 0.15209 0.0
H778 H 0.48081 0.3392 0.12675 0.0
H779 H 0.37953 0.49606 0.07927 0.0
H780 H 0.33485 0.44988 0.15 0.0
H781 H 0.36265 0.51749 0.05223 0.0
H782 H 0.46397 0.32082 0.18674 0.0
H783 H 0.28043 0.46661 0.12576 0.0
H784 H 0.27941 0.48699 0.09398 0.0
H785 H 0.43257 0.31206 0.20229 0.0
H786 H 0.29637 0.50253 0.06663 0.0
N787 N 0.33545 0.45871 0.12246 0.0
C788 C 0.32663 0.45495 0.13829 0.0
C789 C 0.29582 0.46425 0.12463 0.0
C790 C 0.30497 0.47078 0.10861 0.0
C791 C 0.30672 0.45661 0.13956 0.0
C792 C 0.32507 0.46759 0.1079 0.0
H793 H 0.32743 0.51429 0.05093 0.0
N794 N 0.35405 0.47894 0.09291 0.0
C795 C 0.35464 0.50628 0.06346 0.0
C796 C 0.33468 0.47817 0.09266 0.0
C797 C 0.36412 0.49419 0.0788 0.0
C798 C 0.33474 0.50426 0.06277 0.0
C799 C 0.32448 0.49101 0.07758 0.0
O800 O 0.37887 0.5289 0.11419 0.0
O801 O 0.39699 0.42609 0.12623 0.0
O802 O 0.39581 0.40218 0.15395 0.0
O803 O 0.36943 0.44815 0.14903 0.0
O804 O 0.39795 0.47299 0.10647 0.0
O805 O 0.36248 0.51494 0.13741 0.0
O806 O 0.38236 0.2839 0.13772 0.0
O807 O 0.36436 0.38534 0.12408 0.0
O808 O 0.36715 0.41323 0.09615 0.0
O809 O 0.39236 0.36364 0.10174 0.0
O810 O 0.36355 0.34102 0.14472 0.0
O811 O 0.39867 0.29562 0.11426 0.0
C812 C 0.40817 0.44562 0.11562 0.0
C813 C 0.35819 0.58697 0.12416 0.0
C814 C 0.35493 0.66919 0.1204 0.0
C815 C 0.36632 0.63076 0.12415 0.0
C816 C 0.33541 0.66299 0.11678 0.0
C817 C 0.33861 0.58224 0.12074 0.0
C818 C 0.32735 0.6199 0.117 0.0
C819 C 0.38303 0.43213 0.15935 0.0
C820 C 0.37005 0.54628 0.12758 0.0
C821 C 0.30445 0.49238 0.07803 0.0
C822 C 0.29475 0.48292 0.09357 0.0
C823 C 0.35321 0.36648 0.1349 0.0
C824 C 0.40257 0.22432 0.12821 0.0
C825 C 0.39429 0.18067 0.12806 0.0
C826 C 0.40545 0.14202 0.13208 0.0
C827 C 0.4249 0.14785 0.1361 0.0
C828 C 0.42207 0.22864 0.13209 0.0
C829 C 0.4331 0.19077 0.13605 0.0
C830 C 0.37991 0.38302 0.09095 0.0
C831 C 0.39098 0.26526 0.12447 0.0
H832 H 0.38142 0.63484 0.12686 0.0
H833 H 0.32623 0.6917 0.1141 0.0
H834 H 0.3319 0.54949 0.12107 0.0
H835 H 0.31226 0.61569 0.11437 0.0
H836 H 0.37926 0.17688 0.12502 0.0
H837 H 0.43392 0.11898 0.13896 0.0
H838 H 0.42889 0.26122 0.13194 0.0
H839 H 0.44813 0.1947 0.139 0.0
Eu840 Eu 0.64359 0.45005 0.37778 0.0
C841 C 0.58941 0.32414 0.33458 0.0
C842 C 0.55823 0.32943 0.34812 0.0
C843 C 0.56088 0.3082 0.3176 0.0
C844 C 0.57826 0.33423 0.34897 0.0
C845 C 0.58085 0.31066 0.31877 0.0
C846 C 0.54964 0.31683 0.33231 0.0
C847 C 0.61238 0.29629 0.30721 0.0
N848 N 0.60868 0.32407 0.33644 0.0
C849 C 0.6202 0.30907 0.32323 0.0
C850 C 0.59261 0.29758 0.3049 0.0
Eu851 Eu 0.62092 0.34398 0.36418 0.0
N852 N 0.58711 0.34329 0.36433 0.0
C853 C 0.57684 0.34551 0.37944 0.0
C854 C 0.54755 0.33442 0.36343 0.0
C855 C 0.55692 0.34224 0.37918 0.0
H856 H 0.63549 0.30762 0.32487 0.0
H857 H 0.54884 0.34497 0.39117 0.0
H858 H 0.53439 0.31156 0.33148 0.0
H859 H 0.62159 0.28527 0.2967 0.0
H860 H 0.58394 0.35032 0.39177 0.0
H861 H 0.71271 0.44229 0.34449 0.0
H862 H 0.53219 0.3304 0.36339 0.0
H863 H 0.63458 0.4823 0.41886 0.0
H864 H 0.67767 0.44731 0.34656 0.0
H865 H 0.65204 0.49207 0.44667 0.0
H866 H 0.55404 0.29756 0.30562 0.0
H867 H 0.73233 0.44079 0.37129 0.0
H868 H 0.73391 0.44681 0.40393 0.0
H869 H 0.58657 0.28706 0.29255 0.0
H870 H 0.71741 0.46064 0.43177 0.0
N871 N 0.67725 0.44759 0.37432 0.0
C872 C 0.68598 0.44692 0.35839 0.0
C873 C 0.71691 0.44306 0.3723 0.0
C874 C 0.70794 0.44669 0.38855 0.0
C875 C 0.70589 0.44406 0.35714 0.0
C876 C 0.68782 0.4493 0.38914 0.0
H877 H 0.68693 0.47855 0.44779 0.0
N878 N 0.65933 0.46264 0.40465 0.0
C879 C 0.65967 0.48211 0.43501 0.0
C880 C 0.67857 0.4572 0.4048 0.0
C881 C 0.64985 0.47678 0.41927 0.0
C882 C 0.67935 0.47426 0.43559 0.0
C883 C 0.68912 0.46246 0.42031 0.0
O884 O 0.63445 0.51839 0.38526 0.0
O885 O 0.61584 0.41791 0.3695 0.0
O886 O 0.61931 0.39163 0.34088 0.0
O887 O 0.64313 0.44355 0.34808 0.0
O888 O 0.61437 0.46214 0.39018 0.0
O889 O 0.65084 0.50883 0.36172 0.0
O890 O 0.63161 0.27485 0.36008 0.0
O891 O 0.64855 0.37627 0.37254 0.0
O892 O 0.64498 0.40068 0.40018 0.0
O893 O 0.6189 0.35501 0.39388 0.0
O894 O 0.65014 0.33199 0.35204 0.0
O895 O 0.6129 0.28867 0.38173 0.0
C896 C 0.60434 0.4367 0.38008 0.0
C897 C 0.65523 0.57789 0.3769 0.0
C898 C 0.66028 0.6601 0.37836 0.0
C899 C 0.6485 0.62256 0.37435 0.0
C900 C 0.67859 0.65197 0.38528 0.0
C901 C 0.67362 0.57121 0.38365 0.0
C902 C 0.68515 0.60794 0.38788 0.0
C903 C 0.63105 0.42525 0.33679 0.0
C904 C 0.64328 0.53825 0.37238 0.0
C905 C 0.70907 0.45726 0.41995 0.0
C906 C 0.71846 0.44937 0.4041 0.0
C907 C 0.66013 0.35749 0.36205 0.0
C908 C 0.61067 0.21592 0.36881 0.0
C909 C 0.61846 0.17227 0.37156 0.0
C910 C 0.60745 0.1331 0.36803 0.0
C911 C 0.5889 0.13855 0.36126 0.0
C912 C 0.592 0.21981 0.36236 0.0
C913 C 0.58129 0.1815 0.35849 0.0
C914 C 0.63158 0.37184 0.40499 0.0
C915 C 0.62175 0.2574 0.37282 0.0
H916 H 0.63436 0.628 0.36899 0.0
H917 H 0.68785 0.67979 0.38887 0.0
H918 H 0.67914 0.53758 0.38559 0.0
H919 H 0.69928 0.60224 0.39318 0.0
H920 H 0.63279 0.16888 0.37675 0.0
H921 H 0.58022 0.10944 0.358 0.0
H922 H 0.58558 0.25246 0.36043 0.0
H923 H 0.56695 0.18514 0.35339 0.0
Eu924 Eu 0.36644 0.58069 0.37507 0.0
C925 C 0.4257 0.70047 0.33643 0.0
C926 C 0.4553 0.69424 0.35253 0.0
C927 C 0.45609 0.70797 0.3213 0.0
C928 C 0.43518 0.6926 0.35195 0.0
C929 C 0.43603 0.70894 0.32097 0.0
C930 C 0.46571 0.70084 0.33707 0.0
C931 C 0.40601 0.72327 0.30643 0.0
N932 N 0.40634 0.70224 0.33665 0.0
C933 C 0.39642 0.71513 0.32211 0.0
C934 C 0.4259 0.7196 0.30578 0.0
Eu935 Eu 0.39108 0.68643 0.36359 0.0
N936 N 0.42471 0.68678 0.3667 0.0
C937 C 0.43344 0.68521 0.38259 0.0
C938 C 0.46434 0.69102 0.36873 0.0
C939 C 0.45333 0.6869 0.38384 0.0
H940 H 0.38104 0.71788 0.3225 0.0
H941 H 0.46007 0.68536 0.39648 0.0
H942 H 0.48119 0.70165 0.33725 0.0
H943 H 0.39807 0.73264 0.29489 0.0
H944 H 0.42517 0.6822 0.39438 0.0
H945 H 0.29907 0.5966 0.33927 0.0
H946 H 0.47973 0.69315 0.36973 0.0
H947 H 0.37286 0.54094 0.41553 0.0
H948 H 0.33384 0.58934 0.34262 0.0
H949 H 0.3538 0.52681 0.44217 0.0
H950 H 0.46428 0.71407 0.30953 0.0
H951 H 0.2781 0.5954 0.36523 0.0
H952 H 0.27476 0.58435 0.39756 0.0
H953 H 0.43331 0.72629 0.29364 0.0
H954 H 0.28967 0.56489 0.42564 0.0
N955 N 0.33293 0.58528 0.37034 0.0
C956 C 0.325 0.58855 0.35411 0.0
C957 C 0.29342 0.59217 0.36681 0.0
C958 C 0.30151 0.58564 0.38329 0.0
C959 C 0.30521 0.5927 0.35213 0.0
C960 C 0.32156 0.5819 0.38463 0.0
H961 H 0.3191 0.5422 0.44231 0.0
N962 N 0.34909 0.56463 0.40087 0.0
C963 C 0.34694 0.53947 0.43055 0.0
C964 C 0.32991 0.57103 0.4004 0.0
C965 C 0.35764 0.54728 0.41544 0.0
C966 C 0.32734 0.54837 0.43058 0.0
C967 C 0.31851 0.56358 0.4153 0.0
O968 O 0.37518 0.51124 0.38142 0.0
O969 O 0.39489 0.6123 0.36878 0.0
O970 O 0.39444 0.63736 0.34094 0.0
O971 O 0.36786 0.5918 0.34553 0.0
O972 O 0.39481 0.56545 0.3886 0.0
O973 O 0.36006 0.52436 0.35749 0.0
O974 O 0.38148 0.75545 0.35756 0.0
O975 O 0.36271 0.6554 0.37061 0.0
O976 O 0.36511 0.62645 0.39863 0.0
O977 O 0.39083 0.67464 0.39333 0.0
O978 O 0.36274 0.70003 0.35004 0.0
O979 O 0.39752 0.74297 0.38106 0.0
C980 C 0.40562 0.59181 0.37955 0.0
C981 C 0.35478 0.45327 0.37111 0.0
C982 C 0.35004 0.37081 0.37213 0.0
C983 C 0.36201 0.40877 0.36925 0.0
C984 C 0.33098 0.37839 0.37725 0.0
C985 C 0.33568 0.45937 0.37611 0.0
C986 C 0.32392 0.42223 0.37922 0.0
C987 C 0.38161 0.60786 0.33538 0.0
C988 C 0.367 0.49334 0.36784 0.0
C989 C 0.29865 0.5699 0.41428 0.0
C990 C 0.29016 0.58099 0.3983 0.0
C991 C 0.35194 0.67535 0.35974 0.0
C992 C 0.40135 0.8149 0.36761 0.0
C993 C 0.39349 0.85872 0.36981 0.0
C994 C 0.40485 0.89773 0.36691 0.0
C995 C 0.42389 0.89191 0.3614 0.0
C996 C 0.42042 0.81061 0.36226 0.0
C997 C 0.43155 0.84878 0.3591 0.0
C998 C 0.37813 0.65571 0.40398 0.0
C999 C 0.38984 0.77367 0.371 0.0
H1000 H 0.37673 0.40379 0.36529 0.0
H1001 H 0.3215 0.35027 0.37993 0.0
H1002 H 0.32979 0.4929 0.37757 0.0
H1003 H 0.30922 0.42745 0.38316 0.0
H1004 H 0.3788 0.86238 0.37406 0.0
H1005 H 0.43289 0.92088 0.3587 0.0
H1006 H 0.4268 0.77775 0.36058 0.0
H1007 H 0.44623 0.84491 0.35489 0.0
Eu1008 Eu 0.39155 0.34292 0.8634 0.0
C1009 C 0.33195 0.45865 0.90164 0.0
C1010 C 0.30326 0.44636 0.88467 0.0
C1011 C 0.30088 0.45993 0.91584 0.0
C1012 C 0.32334 0.44919 0.88583 0.0
C1013 C 0.32079 0.46543 0.91672 0.0
C1014 C 0.29213 0.45035 0.89984 0.0
C1015 C 0.34957 0.48729 0.93196 0.0
N1016 N 0.35117 0.46437 0.90199 0.0
C1017 C 0.36002 0.48027 0.91664 0.0
C1018 C 0.32991 0.47914 0.93208 0.0
Eu1019 Eu 0.368 0.44978 0.8758 0.0
N1020 N 0.3345 0.44644 0.87137 0.0
C1021 C 0.32638 0.44468 0.8552 0.0
C1022 C 0.29494 0.44143 0.8682 0.0
C1023 C 0.30653 0.44153 0.85338 0.0
H1024 H 0.37528 0.486 0.91661 0.0
H1025 H 0.30021 0.43883 0.84056 0.0
H1026 H 0.27671 0.44766 0.89923 0.0
H1027 H 0.3567 0.49869 0.94367 0.0
H1028 H 0.33514 0.44432 0.84363 0.0
H1029 H 0.46087 0.34327 0.89575 0.0
H1030 H 0.27957 0.43895 0.86675 0.0
H1031 H 0.38131 0.30695 0.82298 0.0
H1032 H 0.42598 0.34692 0.89387 0.0
H1033 H 0.39805 0.29065 0.79529 0.0
H1034 H 0.29207 0.46443 0.92734 0.0
H1035 H 0.48029 0.3348 0.86888 0.0
H1036 H 0.48149 0.32567 0.83646 0.0
H1037 H 0.32183 0.4847 0.94395 0.0
H1038 H 0.46432 0.31166 0.80901 0.0
N1039 N 0.42526 0.34244 0.86618 0.0
C1040 C 0.43413 0.3438 0.88202 0.0
C1041 C 0.46491 0.33741 0.86798 0.0
C1042 C 0.45574 0.33415 0.85186 0.0
C1043 C 0.45403 0.34181 0.88314 0.0
C1044 C 0.43561 0.3362 0.85139 0.0
H1045 H 0.43325 0.29732 0.79366 0.0
N1046 N 0.40666 0.32532 0.83651 0.0
C1047 C 0.40608 0.30119 0.80663 0.0
C1048 C 0.42599 0.32754 0.83604 0.0
C1049 C 0.39666 0.31041 0.82232 0.0
C1050 C 0.42593 0.30527 0.80573 0.0
C1051 C 0.43618 0.3177 0.82062 0.0
O1052 O 0.38115 0.27433 0.85787 0.0
O1053 O 0.36366 0.37561 0.87079 0.0
O1054 O 0.36618 0.40221 0.89879 0.0
O1055 O 0.39177 0.35401 0.89317 0.0
O1056 O 0.36291 0.33078 0.85031 0.0
O1057 O 0.39791 0.28631 0.88091 0.0
O1058 O 0.37694 0.51842 0.88298 0.0
O1059 O 0.39599 0.41704 0.86857 0.0
O1060 O 0.393 0.38909 0.83974 0.0
O1061 O 0.36965 0.44333 0.84616 0.0
O1062 O 0.3967 0.4626 0.88886 0.0
O1063 O 0.3613 0.50776 0.85912 0.0
C1064 C 0.35256 0.35643 0.86003 0.0
C1065 C 0.40122 0.21463 0.86737 0.0
C1066 C 0.40481 0.13191 0.86665 0.0
C1067 C 0.39354 0.17086 0.86994 0.0
C1068 C 0.42356 0.1377 0.86038 0.0
C1069 C 0.42004 0.21892 0.86131 0.0
C1070 C 0.43106 0.18081 0.85775 0.0
C1071 C 0.37908 0.37242 0.90395 0.0
C1072 C 0.38984 0.25584 0.87109 0.0
C1073 C 0.45624 0.3187 0.82076 0.0
C1074 C 0.46601 0.32673 0.83638 0.0
C1075 C 0.40709 0.43655 0.87927 0.0
C1076 C 0.35633 0.57743 0.87375 0.0
C1077 C 0.36329 0.62202 0.87165 0.0
C1078 C 0.35135 0.6597 0.87513 0.0
C1079 C 0.33261 0.65179 0.88108 0.0
C1080 C 0.33752 0.57096 0.87952 0.0
C1081 C 0.3258 0.60783 0.88324 0.0
C1082 C 0.38147 0.42269 0.83526 0.0
C1083 C 0.36848 0.53767 0.86977 0.0
H1084 H 0.37906 0.1672 0.87476 0.0
H1085 H 0.43246 0.10873 0.85736 0.0
H1086 H 0.4263 0.25176 0.85939 0.0
H1087 H 0.44553 0.18471 0.85298 0.0
H1088 H 0.37776 0.62729 0.86703 0.0
H1089 H 0.32319 0.67972 0.88423 0.0
H1090 H 0.3318 0.53739 0.88106 0.0
H1091 H 0.31134 0.6023 0.88778 0.0
Eu1092 Eu 0.62431 0.67929 0.86442 0.0
C1093 C 0.68744 0.56653 0.89084 0.0
C1094 C 0.7097 0.57308 0.86675 0.0
C1095 C 0.7217 0.56455 0.89621 0.0
C1096 C 0.69077 0.5718 0.87318 0.0
C1097 C 0.70293 0.56171 0.90248 0.0
C1098 C 0.7251 0.57059 0.87839 0.0
C1099 C 0.68048 0.54256 0.92513 0.0
N1100 N 0.66917 0.561 0.89636 0.0
C1101 C 0.6657 0.54614 0.91299 0.0
C1102 C 0.69919 0.55118 0.91993 0.0
Eu1103 Eu 0.64455 0.5683 0.87506 0.0
N1104 N 0.67557 0.57216 0.86216 0.0
C1105 C 0.67849 0.57157 0.84452 0.0
C1106 C 0.71263 0.57459 0.84874 0.0
C1107 C 0.69695 0.57323 0.83758 0.0
H1108 H 0.65144 0.53672 0.91695 0.0
H1109 H 0.69907 0.57337 0.8236 0.0
H1110 H 0.73969 0.57131 0.87366 0.0
H1111 H 0.67746 0.53211 0.93838 0.0
H1112 H 0.66678 0.56982 0.83554 0.0
H1113 H 0.56377 0.67957 0.90982 0.0
H1114 H 0.72693 0.57559 0.84331 0.0
H1115 H 0.62376 0.71558 0.82268 0.0
H1116 H 0.59735 0.67809 0.90129 0.0
H1117 H 0.60067 0.72731 0.79883 0.0
H1118 H 0.73364 0.55976 0.90496 0.0
H1119 H 0.53854 0.68272 0.88737 0.0
H1120 H 0.52987 0.69243 0.85613 0.0
H1121 H 0.71071 0.54735 0.92925 0.0
H1122 H 0.53992 0.70421 0.8257 0.0
N1123 N 0.59186 0.67831 0.8739 0.0
C1124 C 0.5868 0.67882 0.89114 0.0
C1125 C 0.55341 0.68152 0.88345 0.0
C1126 C 0.55861 0.68363 0.86587 0.0
C1127 C 0.5676 0.67994 0.89615 0.0
C1128 C 0.57819 0.68198 0.86141 0.0
H1129 H 0.56617 0.71625 0.80418 0.0
N1130 N 0.60278 0.69325 0.84093 0.0
C1131 C 0.59573 0.7163 0.81152 0.0
C1132 C 0.58385 0.6893 0.84435 0.0
C1133 C 0.60875 0.70939 0.82506 0.0
C1134 C 0.5763 0.70981 0.81457 0.0
C1135 C 0.57009 0.6978 0.83128 0.0
O1136 O 0.63132 0.74704 0.85459 0.0
O1137 O 0.65156 0.6431 0.87214 0.0
O1138 O 0.63843 0.60105 0.90091 0.0
O1139 O 0.6298 0.67513 0.89389 0.0
O1140 O 0.6529 0.68807 0.85129 0.0
O1141 O 0.6227 0.7388 0.8813 0.0
O1142 O 0.64102 0.50134 0.88695 0.0
O1143 O 0.61749 0.60532 0.86791 0.0
O1144 O 0.62767 0.64174 0.8387 0.0
O1145 O 0.63523 0.56778 0.84672 0.0
O1146 O 0.61553 0.55815 0.88779 0.0
O1147 O 0.64527 0.50676 0.85925 0.0
C1148 C 0.66285 0.66217 0.86132 0.0
C1149 C 0.61412 0.80727 0.86746 0.0
C1150 C 0.60914 0.88932 0.86768 0.0
C1151 C 0.62149 0.85153 0.86864 0.0
C1152 C 0.58946 0.88202 0.8652 0.0
C1153 C 0.59443 0.80116 0.86514 0.0
C1154 C 0.58221 0.83826 0.86393 0.0
C1155 C 0.63379 0.64273 0.90531 0.0
C1156 C 0.62685 0.76758 0.86901 0.0
C1157 C 0.55061 0.6971 0.83554 0.0
C1158 C 0.54489 0.69029 0.85282 0.0
C1159 C 0.60586 0.58619 0.87833 0.0
C1160 C 0.65722 0.44116 0.87304 0.0
C1161 C 0.6506 0.39629 0.8718 0.0
C1162 C 0.66361 0.35972 0.87198 0.0
C1163 C 0.68326 0.36889 0.87364 0.0
C1164 C 0.67687 0.44923 0.87459 0.0
C1165 C 0.68979 0.41333 0.87493 0.0
C1166 C 0.6307 0.5987 0.83497 0.0
C1167 C 0.64365 0.47935 0.87247 0.0
H1168 H 0.63667 0.85647 0.87063 0.0
H1169 H 0.57965 0.91026 0.8641 0.0
H1170 H 0.58845 0.76776 0.86438 0.0
H1171 H 0.56704 0.83304 0.86206 0.0
H1172 H 0.63542 0.38998 0.87041 0.0
H1173 H 0.69361 0.34164 0.87414 0.0
H1174 H 0.68226 0.48322 0.87546 0.0
H1175 H 0.70493 0.41998 0.87621 0.0
Eu1176 Eu 0.38854 0.67956 0.63201 0.0
C1177 C 0.33336 0.55762 0.58992 0.0
C1178 C 0.30287 0.56326 0.60474 0.0
C1179 C 0.30391 0.54543 0.57381 0.0
C1180 C 0.32297 0.56652 0.60492 0.0
C1181 C 0.32394 0.54672 0.57422 0.0
C1182 C 0.29343 0.55303 0.58908 0.0
C1183 C 0.35481 0.53328 0.56106 0.0
N1184 N 0.3527 0.55661 0.59097 0.0
C1185 C 0.36349 0.54326 0.57701 0.0
C1186 C 0.33495 0.53537 0.55962 0.0
Eu1187 Eu 0.36632 0.57329 0.61845 0.0
N1188 N 0.33259 0.5735 0.62005 0.0
C1189 C 0.32304 0.5753 0.63555 0.0
C1190 C 0.29294 0.56773 0.6205 0.0
C1191 C 0.30309 0.57348 0.63598 0.0
H1192 H 0.37885 0.54132 0.57804 0.0
H1193 H 0.29557 0.57592 0.64828 0.0
H1194 H 0.27808 0.54905 0.58876 0.0
H1195 H 0.36344 0.52375 0.54993 0.0
H1196 H 0.33077 0.57886 0.64764 0.0
H1197 H 0.45878 0.68403 0.6014 0.0
H1198 H 0.27752 0.56517 0.62096 0.0
H1199 H 0.37652 0.71117 0.67264 0.0
H1200 H 0.42381 0.67911 0.60237 0.0
H1201 H 0.39222 0.72711 0.70077 0.0
H1202 H 0.29641 0.53678 0.56193 0.0
H1203 H 0.47727 0.69134 0.62882 0.0
H1204 H 0.47732 0.69892 0.66135 0.0
H1205 H 0.32824 0.52697 0.54732 0.0
H1206 H 0.45914 0.71064 0.68846 0.0
N1207 N 0.42225 0.68173 0.63006 0.0
C1208 C 0.43162 0.68176 0.61444 0.0
C1209 C 0.46188 0.68824 0.62931 0.0
C1210 C 0.45217 0.69021 0.64523 0.0
C1211 C 0.45153 0.68447 0.61384 0.0
C1212 C 0.43205 0.68734 0.64517 0.0
H1213 H 0.42742 0.72221 0.70321 0.0
N1214 N 0.4025 0.69584 0.65945 0.0
C1215 C 0.40073 0.71788 0.68953 0.0
C1216 C 0.42185 0.69467 0.66036 0.0
C1217 C 0.39188 0.70885 0.67356 0.0
C1218 C 0.42059 0.71489 0.69087 0.0
C1219 C 0.43144 0.70401 0.67611 0.0
O1220 O 0.37707 0.74711 0.63759 0.0
O1221 O 0.36081 0.64684 0.62404 0.0
O1222 O 0.36374 0.62235 0.59605 0.0
O1223 O 0.38919 0.67034 0.60212 0.0
O1224 O 0.35975 0.68912 0.64526 0.0
O1225 O 0.3959 0.73779 0.61564 0.0
O1226 O 0.37708 0.50495 0.61314 0.0
O1227 O 0.39395 0.60641 0.62616 0.0
O1228 O 0.39133 0.62993 0.65456 0.0
O1229 O 0.36625 0.58108 0.64817 0.0
O1230 O 0.39533 0.56187 0.60567 0.0
O1231 O 0.35802 0.5159 0.63487 0.0
C1232 C 0.34953 0.66435 0.63512 0.0
C1233 C 0.39738 0.80823 0.63042 0.0
C1234 C 0.39914 0.89042 0.63438 0.0
C1235 C 0.38919 0.85167 0.62856 0.0
C1236 C 0.41731 0.88511 0.64191 0.0
C1237 C 0.41568 0.80426 0.6377 0.0
C1238 C 0.42553 0.84235 0.64345 0.0
C1239 C 0.37661 0.65243 0.59113 0.0
C1240 C 0.38675 0.76705 0.62528 0.0
C1241 C 0.45151 0.70393 0.67646 0.0
C1242 C 0.46185 0.69719 0.66103 0.0
C1243 C 0.40537 0.58809 0.6154 0.0
C1244 C 0.3561 0.44506 0.62038 0.0
C1245 C 0.36415 0.40142 0.62206 0.0
C1246 C 0.35392 0.36293 0.6164 0.0
C1247 C 0.33563 0.36871 0.60918 0.0
C1248 C 0.33765 0.44949 0.61347 0.0
C1249 C 0.32754 0.41166 0.60784 0.0
C1250 C 0.37919 0.59756 0.65907 0.0
C1251 C 0.36702 0.48591 0.62543 0.0
H1252 H 0.37509 0.85526 0.62288 0.0
H1253 H 0.42531 0.91427 0.64635 0.0
H1254 H 0.42242 0.77176 0.63895 0.0
H1255 H 0.43961 0.83869 0.6491 0.0
H1256 H 0.37835 0.39747 0.62749 0.0
H1257 H 0.32742 0.33975 0.60485 0.0
H1258 H 0.33097 0.48213 0.61246 0.0
H1259 H 0.31334 0.41567 0.60246 0.0
Eu1260 Eu 0.62064 0.344 0.63202 0.0
C1261 C 0.67506 0.46602 0.58929 0.0
C1262 C 0.70573 0.46123 0.6038 0.0
C1263 C 0.7043 0.4777 0.57276 0.0
C1264 C 0.68564 0.45777 0.60422 0.0
C1265 C 0.68427 0.47612 0.5734 0.0
C1266 C 0.71497 0.47093 0.58796 0.0
C1267 C 0.65319 0.48738 0.56036 0.0
N1268 N 0.65572 0.46646 0.59052 0.0
C1269 C 0.64472 0.47824 0.57649 0.0
C1270 C 0.67306 0.48605 0.55877 0.0
Eu1271 Eu 0.64252 0.45062 0.61828 0.0
N1272 N 0.67622 0.45077 0.61949 0.0
C1273 C 0.68594 0.44937 0.63489 0.0
C1274 C 0.71584 0.45728 0.61946 0.0
C1275 C 0.70589 0.45164 0.63508 0.0
H1276 H 0.62935 0.47947 0.57765 0.0
H1277 H 0.71356 0.44956 0.64731 0.0
H1278 H 0.73031 0.47491 0.58743 0.0
H1279 H 0.64441 0.49573 0.54921 0.0
H1280 H 0.67835 0.44586 0.64707 0.0
H1281 H 0.5491 0.34009 0.60415 0.0
H1282 H 0.73126 0.46011 0.61974 0.0
H1283 H 0.63503 0.31564 0.67246 0.0
H1284 H 0.58413 0.34827 0.60397 0.0
H1285 H 0.62085 0.29516 0.70078 0.0
H1286 H 0.71164 0.48576 0.5607 0.0
H1287 H 0.53219 0.32423 0.63175 0.0
H1288 H 0.53412 0.30582 0.66371 0.0
H1289 H 0.67961 0.49377 0.54631 0.0
H1290 H 0.55339 0.29576 0.69008 0.0
N1291 N 0.5869 0.34144 0.63145 0.0
C1292 C 0.57687 0.34291 0.61621 0.0
C1293 C 0.5475 0.32936 0.63188 0.0
C1294 C 0.55797 0.32538 0.64734 0.0
C1295 C 0.55701 0.33799 0.61624 0.0
C1296 C 0.57793 0.33184 0.64673 0.0
H1297 H 0.58572 0.29161 0.70404 0.0
N1298 N 0.60822 0.32597 0.65993 0.0
C1299 C 0.6117 0.30311 0.68982 0.0
C1300 C 0.58893 0.32374 0.6614 0.0
C1301 C 0.61969 0.31477 0.67372 0.0
C1302 C 0.59188 0.30136 0.69163 0.0
C1303 C 0.58024 0.31092 0.67726 0.0
O1304 O 0.63018 0.27443 0.63738 0.0
O1305 O 0.64826 0.3772 0.62389 0.0
O1306 O 0.64518 0.40056 0.59621 0.0
O1307 O 0.61914 0.35449 0.60229 0.0
O1308 O 0.64978 0.33319 0.64448 0.0
O1309 O 0.6141 0.28878 0.61405 0.0
O1310 O 0.63366 0.52021 0.61213 0.0
O1311 O 0.61505 0.4172 0.62629 0.0
O1312 O 0.61759 0.39398 0.65437 0.0
O1313 O 0.64292 0.44214 0.64796 0.0
O1314 O 0.61316 0.46246 0.6061 0.0
O1315 O 0.64956 0.50671 0.63566 0.0
C1316 C 0.65977 0.35916 0.6346 0.0
C1317 C 0.6099 0.21614 0.62672 0.0
C1318 C 0.60624 0.13345 0.62712 0.0
C1319 C 0.61788 0.17232 0.62512 0.0
C1320 C 0.58681 0.13922 0.63126 0.0
C1321 C 0.59038 0.2204 0.63057 0.0
C1322 C 0.579 0.18233 0.63298 0.0
C1323 C 0.63203 0.37121 0.59131 0.0
C1324 C 0.62164 0.25728 0.62381 0.0
C1325 C 0.56032 0.30613 0.67809 0.0
C1326 C 0.54927 0.31256 0.6631 0.0
C1327 C 0.60338 0.43563 0.61584 0.0
C1328 C 0.65432 0.57826 0.62232 0.0
C1329 C 0.64684 0.62248 0.62418 0.0
C1330 C 0.65877 0.6607 0.62188 0.0
C1331 C 0.67802 0.6539 0.61725 0.0
C1332 C 0.67364 0.57289 0.61788 0.0
C1333 C 0.68533 0.61036 0.61524 0.0
C1334 C 0.62982 0.42614 0.65886 0.0
C1335 C 0.64227 0.53785 0.62557 0.0
H1336 H 0.63288 0.16853 0.6219 0.0
H1337 H 0.57759 0.11022 0.63321 0.0
H1338 H 0.58378 0.25312 0.63149 0.0
H1339 H 0.56398 0.18627 0.63603 0.0
H1340 H 0.63199 0.62707 0.62781 0.0
H1341 H 0.68745 0.68241 0.61509 0.0
H1342 H 0.67982 0.53977 0.61664 0.0
H1343 H 0.70019 0.60562 0.61176 0.0
H1344 H 0.18621 0.1725 0.10535 0.0
H1345 H 0.21906 0.20195 0.10271 0.0
H1346 H 0.22155 0.21788 0.15851 0.0
H1347 H 0.18952 0.1868 0.16114 0.0
H1348 H 0.23228 0.28241 0.10977 0.0
H1349 H 0.25332 0.21794 0.17458 0.0
H1350 H 0.25746 0.15008 0.19305 0.0
H1351 H 0.27148 0.0713 0.14778 0.0
H1352 H 0.26677 0.13854 0.12906 0.0
H1353 H 0.32752 0.34874 0.16021 0.0
H1354 H 0.29553 0.31705 0.15756 0.0
H1355 H 0.30031 0.32201 0.10151 0.0
H1356 H 0.33222 0.35624 0.10428 0.0
H1357 H 0.28723 0.2403 0.14704 0.0
H1358 H 0.26575 0.30323 0.08226 0.0
H1359 H 0.26118 0.37003 0.0633 0.0
H1360 H 0.24902 0.45182 0.10822 0.0
H1361 H 0.25433 0.38585 0.12744 0.0
C1362 C 0.19409 0.18073 0.11707 0.0
C1363 C 0.18535 0.17593 0.13352 0.0
C1364 C 0.21289 0.19799 0.11557 0.0
C1365 C 0.22338 0.21132 0.13046 0.0
C1366 C 0.21452 0.20621 0.14681 0.0
C1367 C 0.19593 0.18883 0.1483 0.0
C1368 C 0.2425 0.23506 0.12899 0.0
C1369 C 0.24437 0.27258 0.11777 0.0
C1370 C 0.25849 0.22367 0.13949 0.0
C1371 C 0.25902 0.1826 0.15042 0.0
C1372 C 0.25682 0.18582 0.16857 0.0
C1373 C 0.25933 0.14757 0.17908 0.0
C1374 C 0.26459 0.10631 0.17158 0.0
C1375 C 0.26726 0.10319 0.15356 0.0
C1376 C 0.26438 0.14116 0.14298 0.0
C1377 C 0.32156 0.34427 0.14729 0.0
C1378 C 0.33247 0.35534 0.1325 0.0
C1379 C 0.30318 0.32579 0.14575 0.0
C1380 C 0.2951 0.31648 0.12932 0.0
C1381 C 0.30571 0.32932 0.1144 0.0
C1382 C 0.32411 0.34879 0.11598 0.0
C1383 C 0.27686 0.28887 0.1283 0.0
C1384 C 0.27519 0.2503 0.139 0.0
C1385 C 0.26113 0.29942 0.11734 0.0
C1386 C 0.26078 0.34006 0.10623 0.0
C1387 C 0.26253 0.33578 0.08807 0.0
C1388 C 0.25979 0.37341 0.07729 0.0
C1389 C 0.25485 0.41515 0.08456 0.0
C1390 C 0.25298 0.41952 0.10263 0.0
C1391 C 0.25612 0.38222 0.11348 0.0
H1392 H 0.25246 0.44413 0.07619 0.0
H1393 H 0.26669 0.07681 0.17974 0.0
H1394 H 0.83698 0.82974 0.10419 0.0
H1395 H 0.80575 0.79335 0.10098 0.0
H1396 H 0.79235 0.82651 0.15442 0.0
H1397 H 0.82421 0.85849 0.15794 0.0
H1398 H 0.78324 0.74784 0.15124 0.0
H1399 H 0.75682 0.87183 0.10811 0.0
H1400 H 0.75956 0.91524 0.0806 0.0
H1401 H 0.78055 0.79697 0.05435 0.0
H1402 H 0.7772 0.75264 0.08151 0.0
H1403 H 0.68572 0.70131 0.15975 0.0
H1404 H 0.71775 0.73137 0.15694 0.0
H1405 H 0.71931 0.6897 0.10306 0.0
H1406 H 0.68598 0.6635 0.10553 0.0
H1407 H 0.73618 0.76251 0.1034 0.0
H1408 H 0.75223 0.63638 0.14043 0.0
H1409 H 0.74876 0.58337 0.16522 0.0
H1410 H 0.75067 0.69487 0.20103 0.0
H1411 H 0.75435 0.74819 0.17642 0.0
C1412 C 0.82713 0.83011 0.1151 0.0
C1413 C 0.83301 0.8478 0.13127 0.0
C1414 C 0.809 0.80955 0.11322 0.0
C1415 C 0.79602 0.80715 0.12734 0.0
C1416 C 0.80178 0.827 0.14322 0.0
C1417 C 0.82005 0.84588 0.14524 0.0
C1418 C 0.77744 0.78046 0.12664 0.0
C1419 C 0.77291 0.75202 0.14083 0.0
C1420 C 0.76406 0.78231 0.11271 0.0
C1421 C 0.76734 0.8095 0.09687 0.0
C1422 C 0.76224 0.85538 0.09649 0.0
C1423 C 0.7637 0.87995 0.08094 0.0
C1424 C 0.77049 0.85905 0.06582 0.0
C1425 C 0.77548 0.81326 0.06611 0.0
C1426 C 0.77365 0.78834 0.08152 0.0
C1427 C 0.69292 0.69792 0.1473 0.0
C1428 C 0.68329 0.67874 0.133 0.0
C1429 C 0.71157 0.71466 0.14576 0.0
C1430 C 0.72175 0.71176 0.12995 0.0
C1431 C 0.71217 0.69229 0.11554 0.0
C1432 C 0.69311 0.67656 0.11698 0.0
C1433 C 0.74167 0.73192 0.12842 0.0
C1434 C 0.74648 0.75868 0.11385 0.0
C1435 C 0.75562 0.72764 0.1418 0.0
C1436 C 0.75315 0.69607 0.15662 0.0
C1437 C 0.75165 0.6494 0.1536 0.0
C1438 C 0.74979 0.61938 0.1676 0.0
C1439 C 0.74929 0.63579 0.18468 0.0
C1440 C 0.75095 0.68221 0.18779 0.0
C1441 C 0.75304 0.7123 0.17383 0.0
H1442 H 0.74774 0.61252 0.1955 0.0
H1443 H 0.77175 0.87826 0.05385 0.0
H1444 H 0.32678 0.69751 0.33436 0.0
H1445 H 0.29417 0.72671 0.33707 0.0
H1446 H 0.29781 0.71512 0.39297 0.0
H1447 H 0.3306 0.68492 0.39022 0.0
H1448 H 0.2609 0.6906 0.3515 0.0
H1449 H 0.27097 0.81076 0.40946 0.0
H1450 H 0.29674 0.85263 0.4243 0.0
H1451 H 0.32849 0.85904 0.37642 0.0
H1452 H 0.30279 0.8179 0.36125 0.0
H1453 H 0.18045 0.84946 0.39063 0.0
H1454 H 0.21273 0.81663 0.39293 0.0
H1455 H 0.21479 0.80205 0.33706 0.0
H1456 H 0.18277 0.83478 0.33478 0.0
H1457 H 0.24833 0.83591 0.38177 0.0
H1458 H 0.23804 0.70778 0.32493 0.0
H1459 H 0.21277 0.66031 0.31202 0.0
H1460 H 0.18137 0.66451 0.36014 0.0
H1461 H 0.20645 0.71173 0.37333 0.0
C1462 C 0.32056 0.70053 0.34724 0.0
C1463 C 0.33128 0.68806 0.36203 0.0
C1464 C 0.30184 0.71734 0.34879 0.0
C1465 C 0.29332 0.72367 0.36522 0.0
C1466 C 0.30394 0.711 0.38011 0.0
C1467 C 0.32268 0.69332 0.37853 0.0
C1468 C 0.27353 0.74419 0.36647 0.0
C1469 C 0.25825 0.7226 0.358 0.0
C1470 C 0.26965 0.78528 0.37541 0.0
C1471 C 0.28506 0.8107 0.3843 0.0
C1472 C 0.28343 0.82123 0.4021 0.0
C1473 C 0.29802 0.84484 0.41056 0.0
C1474 C 0.31428 0.85832 0.40132 0.0
C1475 C 0.31593 0.84841 0.38358 0.0
C1476 C 0.30136 0.82489 0.37505 0.0
C1477 C 0.18794 0.84 0.37882 0.0
C1478 C 0.17902 0.84555 0.36247 0.0
C1479 C 0.20644 0.82091 0.38015 0.0
C1480 C 0.21639 0.80589 0.3652 0.0
C1481 C 0.20754 0.81233 0.34889 0.0
C1482 C 0.18918 0.83145 0.34757 0.0
C1483 C 0.23572 0.78271 0.36646 0.0
C1484 C 0.25091 0.80377 0.37536 0.0
C1485 C 0.23953 0.74072 0.3581 0.0
C1486 C 0.22405 0.71363 0.35005 0.0
C1487 C 0.22572 0.69863 0.33273 0.0
C1488 C 0.21143 0.67177 0.32536 0.0
C1489 C 0.19547 0.65945 0.33523 0.0
C1490 C 0.19369 0.67421 0.35246 0.0
C1491 C 0.20791 0.70116 0.35988 0.0
H1492 H 0.18454 0.63829 0.32952 0.0
H1493 H 0.32557 0.87654 0.40791 0.0
H1494 H 0.82706 0.19545 0.33729 0.0
H1495 H 0.79525 0.22833 0.34062 0.0
H1496 H 0.79962 0.21483 0.39644 0.0
H1497 H 0.8317 0.181 0.39303 0.0
H1498 H 0.76305 0.19807 0.38645 0.0
H1499 H 0.80656 0.31759 0.37645 0.0
H1500 H 0.8328 0.35911 0.36213 0.0
H1501 H 0.80018 0.36661 0.31483 0.0
H1502 H 0.77385 0.32449 0.32878 0.0
H1503 H 0.68024 0.34684 0.39321 0.0
H1504 H 0.71311 0.31784 0.39676 0.0
H1505 H 0.71911 0.31029 0.3409 0.0
H1506 H 0.68657 0.33903 0.33741 0.0
H1507 H 0.75158 0.34282 0.35531 0.0
H1508 H 0.70871 0.2164 0.36678 0.0
H1509 H 0.68276 0.17872 0.38304 0.0
H1510 H 0.71499 0.19013 0.43044 0.0
H1511 H 0.74101 0.22848 0.41449 0.0
C1512 C 0.82119 0.19888 0.3503 0.0
C1513 C 0.83192 0.18478 0.36484 0.0
C1514 C 0.80295 0.21809 0.35222 0.0
C1515 C 0.79487 0.22517 0.36881 0.0
C1516 C 0.80535 0.21007 0.38345 0.0
C1517 C 0.82372 0.19052 0.3815 0.0
C1518 C 0.77595 0.24987 0.37057 0.0
C1519 C 0.7607 0.23008 0.37986 0.0
C1520 C 0.77253 0.29193 0.36209 0.0
C1521 C 0.78828 0.31754 0.35363 0.0
C1522 C 0.80503 0.32781 0.36295 0.0
C1523 C 0.81992 0.35149 0.35491 0.0
C1524 C 0.81817 0.36542 0.33757 0.0
C1525 C 0.80151 0.35577 0.32826 0.0
C1526 C 0.78659 0.33203 0.33623 0.0
C1527 C 0.68873 0.33981 0.38171 0.0
C1528 C 0.68082 0.34612 0.36499 0.0
C1529 C 0.70751 0.3227 0.38374 0.0
C1530 C 0.71881 0.31124 0.36909 0.0
C1531 C 0.71095 0.31871 0.35247 0.0
C1532 C 0.69226 0.33526 0.35047 0.0
C1533 C 0.73853 0.2904 0.3707 0.0
C1534 C 0.75398 0.31099 0.36202 0.0
C1535 C 0.74216 0.24964 0.38001 0.0
C1536 C 0.7267 0.22573 0.38948 0.0
C1537 C 0.71021 0.2111 0.38069 0.0
C1538 C 0.69549 0.18961 0.38984 0.0
C1539 C 0.6972 0.18219 0.40777 0.0
C1540 C 0.71367 0.19602 0.41656 0.0
C1541 C 0.7284 0.21759 0.40747 0.0
H1542 H 0.68578 0.16563 0.41485 0.0
H1543 H 0.8297 0.38376 0.33137 0.0
H1544 H 0.68957 0.67427 0.83633 0.0
H1545 H 0.72167 0.70507 0.83891 0.0
H1546 H 0.71424 0.71531 0.89463 0.0
H1547 H 0.68263 0.68003 0.89204 0.0
H1548 H 0.73155 0.78083 0.84551 0.0
H1549 H 0.74363 0.74131 0.914 0.0
H1550 H 0.74605 0.68283 0.93696 0.0
H1551 H 0.76838 0.5885 0.89954 0.0
H1552 H 0.76515 0.64581 0.87627 0.0
H1553 H 0.82959 0.86039 0.88989 0.0
H1554 H 0.7968 0.83081 0.89202 0.0
H1555 H 0.7979 0.79933 0.83714 0.0
H1556 H 0.82988 0.83105 0.83488 0.0
H1557 H 0.78276 0.75161 0.88856 0.0
H1558 H 0.75837 0.78502 0.81882 0.0
H1559 H 0.76045 0.84281 0.79563 0.0
H1560 H 0.7662 0.94695 0.8342 0.0
H1561 H 0.76443 0.88943 0.85766 0.0
C1562 C 0.69508 0.68143 0.84923 0.0
C1563 C 0.6836 0.67349 0.86397 0.0
C1564 C 0.71351 0.69974 0.85074 0.0
C1565 C 0.72101 0.71304 0.86701 0.0
C1566 C 0.7096 0.70436 0.8819 0.0
C1567 C 0.69126 0.68437 0.88042 0.0
C1568 C 0.73959 0.73996 0.86765 0.0
C1569 C 0.74274 0.77354 0.85487 0.0
C1570 C 0.75436 0.73316 0.88011 0.0
C1571 C 0.75357 0.69718 0.89338 0.0
C1572 C 0.74856 0.70766 0.91064 0.0
C1573 C 0.75009 0.67478 0.92369 0.0
C1574 C 0.75722 0.63184 0.91969 0.0
C1575 C 0.76268 0.62162 0.9026 0.0
C1576 C 0.76067 0.65398 0.88943 0.0
C1577 C 0.82255 0.84864 0.87818 0.0
C1578 C 0.83231 0.8493 0.86211 0.0
C1579 C 0.80379 0.8311 0.87942 0.0
C1580 C 0.7943 0.81328 0.86468 0.0
C1581 C 0.8042 0.8141 0.84868 0.0
C1582 C 0.82274 0.83202 0.84742 0.0
C1583 C 0.7748 0.79099 0.86609 0.0
C1584 C 0.77148 0.75869 0.87925 0.0
C1585 C 0.75992 0.79857 0.85385 0.0
C1586 C 0.76152 0.83307 0.83993 0.0
C1587 C 0.76018 0.82025 0.82233 0.0
C1588 C 0.76136 0.85287 0.80916 0.0
C1589 C 0.76363 0.89848 0.81346 0.0
C1590 C 0.7647 0.91153 0.83093 0.0
C1591 C 0.76374 0.87896 0.84416 0.0
H1592 H 0.76444 0.92374 0.80326 0.0
H1593 H 0.7586 0.60656 0.92983 0.0
H1594 H 0.33222 0.34577 0.89093 0.0
H1595 H 0.2994 0.31648 0.89429 0.0
H1596 H 0.29382 0.3093 0.83842 0.0
H1597 H 0.32651 0.33753 0.83509 0.0
H1598 H 0.2609 0.34521 0.85483 0.0
H1599 H 0.3036 0.21672 0.8605 0.0
H1600 H 0.33015 0.17455 0.87406 0.0
H1601 H 0.3006 0.17524 0.92315 0.0
H1602 H 0.27399 0.21809 0.90993 0.0
H1603 H 0.18437 0.20181 0.83595 0.0
H1604 H 0.21636 0.2338 0.83884 0.0
H1605 H 0.21429 0.21183 0.89438 0.0
H1606 H 0.18201 0.17908 0.89143 0.0
H1607 H 0.25028 0.19508 0.88224 0.0
H1608 H 0.2067 0.3172 0.87726 0.0
H1609 H 0.17998 0.36135 0.865 0.0
H1610 H 0.21066 0.37674 0.81685 0.0
H1611 H 0.23746 0.33201 0.82872 0.0
C1612 C 0.32386 0.33864 0.87939 0.0
C1613 C 0.33191 0.34477 0.86271 0.0
C1614 C 0.30511 0.32153 0.88131 0.0
C1615 C 0.29397 0.31035 0.8666 0.0
C1616 C 0.30193 0.31763 0.85 0.0
C1617 C 0.32067 0.33385 0.8481 0.0
C1618 C 0.27433 0.28969 0.8682 0.0
C1619 C 0.25865 0.31227 0.86074 0.0
C1620 C 0.27104 0.24727 0.8764 0.0
C1621 C 0.28692 0.22109 0.88428 0.0
C1622 C 0.30284 0.20822 0.87422 0.0
C1623 C 0.31788 0.18414 0.88184 0.0
C1624 C 0.31709 0.17235 0.89947 0.0
C1625 C 0.30121 0.18448 0.90951 0.0
C1626 C 0.28614 0.20865 0.90196 0.0
C1627 C 0.19077 0.20331 0.84879 0.0
C1628 C 0.18063 0.18737 0.86341 0.0
C1629 C 0.20911 0.22194 0.85046 0.0
C1630 C 0.21786 0.22631 0.86688 0.0
C1631 C 0.20799 0.20919 0.88154 0.0
C1632 C 0.18952 0.19028 0.87985 0.0
C1633 C 0.23688 0.2502 0.8685 0.0
C1634 C 0.25245 0.22827 0.87651 0.0
C1635 C 0.24005 0.29363 0.86103 0.0
C1636 C 0.22404 0.32092 0.85385 0.0
C1637 C 0.20771 0.32973 0.86401 0.0
C1638 C 0.19255 0.35488 0.85714 0.0
C1639 C 0.19361 0.37177 0.84015 0.0
C1640 C 0.20986 0.36361 0.83001 0.0
C1641 C 0.22505 0.33838 0.83681 0.0
H1642 H 0.18186 0.39125 0.83485 0.0
H1643 H 0.32875 0.15371 0.90534 0.0
H1644 H 0.68631 0.34786 0.65969 0.0
H1645 H 0.71839 0.31631 0.65726 0.0
H1646 H 0.71194 0.30881 0.6014 0.0
H1647 H 0.68003 0.34323 0.60389 0.0
H1648 H 0.72748 0.2386 0.64946 0.0
H1649 H 0.74632 0.28359 0.5816 0.0
H1650 H 0.74826 0.34538 0.55993 0.0
H1651 H 0.75962 0.44061 0.60087 0.0
H1652 H 0.75678 0.37969 0.6228 0.0
H1653 H 0.82726 0.16477 0.60577 0.0
H1654 H 0.79438 0.19413 0.60346 0.0
H1655 H 0.79325 0.21499 0.65907 0.0
H1656 H 0.82523 0.1833 0.66141 0.0
H1657 H 0.78024 0.27208 0.60838 0.0
H1658 H 0.76052 0.22368 0.6765 0.0
H1659 H 0.7581 0.15966 0.69715 0.0
H1660 H 0.74707 0.06903 0.65461 0.0
H1661 H 0.75001 0.1325 0.63375 0.0
C1662 C 0.69196 0.34083 0.64682 0.0
C1663 C 0.68059 0.34864 0.63201 0.0
C1664 C 0.71038 0.32229 0.6454 0.0
C1665 C 0.71806 0.30949 0.62913 0.0
C1666 C 0.70694 0.31892 0.61415 0.0
C1667 C 0.68851 0.33857 0.61556 0.0
C1668 C 0.73654 0.28231 0.62851 0.0
C1669 C 0.73905 0.24681 0.64058 0.0
C1670 C 0.75166 0.29021 0.61652 0.0
C1671 C 0.75104 0.32746 0.60376 0.0
C1672 C 0.74884 0.31794 0.58595 0.0
C1673 C 0.75005 0.35276 0.57365 0.0
C1674 C 0.75392 0.39695 0.57903 0.0
C1675 C 0.75636 0.40647 0.59674 0.0
C1676 C 0.75469 0.37197 0.60913 0.0
C1677 C 0.81966 0.17401 0.61755 0.0
C1678 C 0.82879 0.17029 0.63385 0.0
C1679 C 0.80084 0.19137 0.61624 0.0
C1680 C 0.79067 0.20616 0.63115 0.0
C1681 C 0.79995 0.20224 0.64736 0.0
C1682 C 0.81855 0.1845 0.64868 0.0
C1683 C 0.77136 0.22958 0.62974 0.0
C1684 C 0.76865 0.26406 0.61726 0.0
C1685 C 0.75594 0.22067 0.6413 0.0
C1686 C 0.75612 0.18226 0.65359 0.0
C1687 C 0.75797 0.18987 0.67158 0.0
C1688 C 0.75648 0.15377 0.68331 0.0
C1689 C 0.75261 0.11021 0.67718 0.0
C1690 C 0.75026 0.1027 0.65933 0.0
C1691 C 0.75214 0.13854 0.64753 0.0
H1692 H 0.75131 0.08235 0.68628 0.0
H1693 H 0.75511 0.4238 0.56948 0.0
H1694 H 0.18295 0.8344 0.66309 0.0
H1695 H 0.21526 0.80425 0.66055 0.0
H1696 H 0.21445 0.83025 0.60522 0.0
H1697 H 0.18149 0.85887 0.60773 0.0
H1698 H 0.22898 0.75143 0.6095 0.0
H1699 H 0.25062 0.89193 0.63589 0.0
H1700 H 0.25064 0.95487 0.65713 0.0
H1701 H 0.25325 0.85944 0.69933 0.0
H1702 H 0.25355 0.79623 0.67827 0.0
H1703 H 0.32908 0.68155 0.60465 0.0
H1704 H 0.29726 0.71639 0.60246 0.0
H1705 H 0.29119 0.70822 0.65837 0.0
H1706 H 0.32327 0.67648 0.66051 0.0
H1707 H 0.28118 0.785 0.65103 0.0
H1708 H 0.25188 0.64463 0.62353 0.0
H1709 H 0.24908 0.58448 0.60137 0.0
H1710 H 0.26201 0.68037 0.56094 0.0
H1711 H 0.26388 0.74148 0.58284 0.0
C1712 C 0.18976 0.83456 0.65039 0.0
C1713 C 0.17961 0.85002 0.6357 0.0
C1714 C 0.20847 0.81754 0.64895 0.0
C1715 C 0.21789 0.81542 0.63273 0.0
C1716 C 0.20783 0.83148 0.61797 0.0
C1717 C 0.18896 0.8484 0.61942 0.0
C1718 C 0.23741 0.79314 0.63115 0.0
C1719 C 0.24046 0.75948 0.61846 0.0
C1720 C 0.25264 0.80217 0.64286 0.0
C1721 C 0.25171 0.83964 0.65557 0.0
C1722 C 0.25093 0.88459 0.64972 0.0
C1723 C 0.25106 0.92021 0.6617 0.0
C1724 C 0.25176 0.91115 0.67957 0.0
C1725 C 0.25259 0.86643 0.68549 0.0
C1726 C 0.25273 0.83073 0.67354 0.0
C1727 C 0.32072 0.68626 0.61641 0.0
C1728 C 0.32876 0.67588 0.63277 0.0
C1729 C 0.30232 0.70609 0.61517 0.0
C1730 C 0.29128 0.71532 0.63024 0.0
C1731 C 0.29911 0.70244 0.64644 0.0
C1732 C 0.31754 0.68377 0.64769 0.0
C1733 C 0.27262 0.74196 0.62974 0.0
C1734 C 0.26975 0.77677 0.64204 0.0
C1735 C 0.25762 0.73402 0.61764 0.0
C1736 C 0.25845 0.69714 0.60478 0.0
C1737 C 0.25435 0.65264 0.60993 0.0
C1738 C 0.25269 0.61858 0.59741 0.0
C1739 C 0.25558 0.62849 0.57977 0.0
C1740 C 0.25988 0.67267 0.5746 0.0
C1741 C 0.26106 0.70709 0.58703 0.0
H1742 H 0.25441 0.60196 0.57012 0.0
H1743 H 0.25177 0.93877 0.68883 0.0
H1744 H 0.10633 0.90535 0.31193 0.0
H1745 H 0.10574 0.93404 0.28205 0.0
H1746 H 0.15132 0.02653 0.29429 0.0
H1747 H 0.15279 0.99629 0.32398 0.0
H1748 H 0.11516 0.0621 0.27481 0.0
H1749 H 0.16571 0.94777 0.27372 0.0
H1750 H 0.17767 0.87056 0.27931 0.0
H1751 H 0.13422 0.8159 0.24595 0.0
H1752 H 0.12182 0.89281 0.24039 0.0
H1753 H 0.14019 0.14313 0.19116 0.0
H1754 H 0.13934 0.11525 0.22114 0.0
H1755 H 0.1169 0.98758 0.20301 0.0
H1756 H 0.11908 0.01469 0.17287 0.0
H1757 H 0.14003 0.96852 0.22614 0.0
H1758 H 0.08941 0.07599 0.22527 0.0
H1759 H 0.07376 0.14954 0.21997 0.0
H1760 H 0.11128 0.21297 0.25682 0.0
H1761 H 0.1274 0.13996 0.26211 0.0
C1762 C 0.11656 0.93095 0.30824 0.0
C1763 C 0.12998 0.94738 0.32034 0.0
C1764 C 0.116 0.9478 0.29118 0.0
C1765 C 0.12852 0.98229 0.28596 0.0
C1766 C 0.14153 0.9999 0.29808 0.0
C1767 C 0.14237 0.98239 0.31505 0.0
C1768 C 0.12837 0.99908 0.26769 0.0
C1769 C 0.12078 0.04204 0.26414 0.0
C1770 C 0.13499 0.97203 0.25376 0.0
C1771 C 0.14274 0.92597 0.25678 0.0
C1772 C 0.15863 0.91925 0.26768 0.0
C1773 C 0.1655 0.87556 0.27083 0.0
C1774 C 0.15668 0.83834 0.26303 0.0
C1775 C 0.14102 0.84476 0.252 0.0
C1776 C 0.13408 0.88839 0.24884 0.0
C1777 C 0.13486 0.10934 0.19364 0.0
C1778 C 0.12946 0.08125 0.17977 0.0
C1779 C 0.1343 0.09336 0.21082 0.0
C1780 C 0.12761 0.04947 0.21459 0.0
C1781 C 0.12211 0.02153 0.20061 0.0
C1782 C 0.12324 0.03707 0.18338 0.0
C1783 C 0.1269 0.03229 0.23297 0.0
C1784 C 0.13431 0.98899 0.23665 0.0
C1785 C 0.11955 0.05862 0.24695 0.0
C1786 C 0.10972 0.10252 0.24398 0.0
C1787 C 0.0944 0.10567 0.23217 0.0
C1788 C 0.08544 0.14726 0.22917 0.0
C1789 C 0.09154 0.1859 0.23804 0.0
C1790 C 0.10659 0.18301 0.24995 0.0
C1791 C 0.11563 0.14152 0.25296 0.0
H1792 H 0.08458 0.21807 0.23572 0.0
H1793 H 0.16201 0.80453 0.26549 0.0
H1794 H 0.87426 0.0156 0.32492 0.0
H1795 H 0.87687 0.98519 0.29547 0.0
H1796 H 0.90044 0.11166 0.27754 0.0
H1797 H 0.89812 0.14219 0.30706 0.0
H1798 H 0.87102 0.07903 0.25631 0.0
H1799 H 0.92909 0.02538 0.2814 0.0
H1800 H 0.94919 0.98759 0.30343 0.0
H1801 H 0.92015 0.86203 0.29404 0.0
H1802 H 0.89963 0.89928 0.27216 0.0
H1803 H 0.89688 1.00594 0.17214 0.0
H1804 H 0.89789 0.03509 0.20181 0.0
H1805 H 0.88077 0.90455 0.22157 0.0
H1806 H 0.87999 0.8748 0.19174 0.0
H1807 H 0.90766 0.94003 0.242 0.0
H1808 H 0.84695 0.99601 0.22012 0.0
H1809 H 0.8252 0.03526 0.19976 0.0
H1810 H 0.85934 0.15546 0.20313 0.0
H1811 H 0.88096 0.11742 0.22395 0.0
C1812 C 0.88006 0.03714 0.31478 0.0
C1813 C 0.88589 0.08176 0.31848 0.0
C1814 C 0.88161 0.01948 0.29792 0.0
C1815 C 0.88892 0.04604 0.28429 0.0
C1816 C 0.89475 0.09052 0.28786 0.0
C1817 C 0.89343 0.10801 0.3048 0.0
C1818 C 0.88992 0.02766 0.26625 0.0
C1819 C 0.87927 0.04904 0.25313 0.0
C1820 C 0.90031 0.98788 0.26217 0.0
C1821 C 0.91268 0.96525 0.27526 0.0
C1822 C 0.92686 0.9898 0.28415 0.0
C1823 C 0.93835 0.96847 0.29659 0.0
C1824 C 0.93591 0.92247 0.30017 0.0
C1825 C 0.922 0.89769 0.29127 0.0
C1826 C 0.91044 0.91889 0.27884 0.0
C1827 C 0.89337 0.98326 0.18277 0.0
C1828 C 0.88827 0.93798 0.1795 0.0
C1829 C 0.89384 1.00013 0.19978 0.0
C1830 C 0.889 0.9724 0.21399 0.0
C1831 C 0.88447 0.92675 0.21084 0.0
C1832 C 0.8841 0.90971 0.19377 0.0
C1833 C 0.88864 0.99128 0.23204 0.0
C1834 C 0.89942 0.97003 0.24517 0.0
C1835 C 0.87834 0.03118 0.23619 0.0
C1836 C 0.86565 0.05377 0.22341 0.0
C1837 C 0.84987 0.03071 0.21642 0.0
C1838 C 0.83756 0.05274 0.20483 0.0
C1839 C 0.84103 0.09757 0.19997 0.0
C1840 C 0.85671 0.12068 0.20685 0.0
C1841 C 0.86891 0.09903 0.21864 0.0
H1842 H 0.83151 0.11447 0.19095 0.0
H1843 H 0.94483 0.906 0.3098 0.0
H1844 H 0.87533 0.14217 0.69098 0.0
H1845 H 0.87769 0.11551 0.72108 0.0
H1846 H 0.8979 0.98583 0.70278 0.0
H1847 H 0.89454 1.01173 0.67267 0.0
H1848 H 0.87482 0.96997 0.72694 0.0
H1849 H 0.92775 0.06969 0.72291 0.0
H1850 H 0.9448 0.1405 0.71612 0.0
H1851 H 0.91086 0.21152 0.75392 0.0
H1852 H 0.89342 0.14118 0.76079 0.0
H1853 H 0.91066 0.90792 0.81255 0.0
H1854 H 0.91215 0.93649 0.78261 0.0
H1855 H 0.86642 0.02977 0.79379 0.0
H1856 H 0.864 0.99975 0.82339 0.0
H1857 H 0.9045 0.06202 0.7737 0.0
H1858 H 0.85023 0.95579 0.77454 0.0
H1859 H 0.8367 0.88079 0.78142 0.0
H1860 H 0.87904 0.8173 0.74904 0.0
H1861 H 0.89297 0.89198 0.74219 0.0
C1862 C 0.88042 0.10812 0.69341 0.0
C1863 C 0.8848 0.07909 0.67949 0.0
C1864 C 0.88186 0.09288 0.71065 0.0
C1865 C 0.8883 0.04874 0.71436 0.0
C1866 C 0.89286 0.01994 0.70038 0.0
C1867 C 0.89099 0.03482 0.68315 0.0
C1868 C 0.88973 0.03214 0.73273 0.0
C1869 C 0.88157 0.99006 0.73703 0.0
C1870 C 0.89851 0.05795 0.74611 0.0
C1871 C 0.90917 0.10021 0.74226 0.0
C1872 C 0.92385 0.10045 0.72972 0.0
C1873 C 0.93359 0.14051 0.72585 0.0
C1874 C 0.92888 0.18052 0.73454 0.0
C1875 C 0.91448 0.1805 0.74718 0.0
C1876 C 0.90468 0.14053 0.75109 0.0
C1877 C 0.90068 0.93388 0.80861 0.0
C1878 C 0.88681 0.95036 0.8203 0.0
C1879 C 0.90174 0.95063 0.79154 0.0
C1880 C 0.88935 0.98512 0.78602 0.0
C1881 C 0.87611 1.00315 0.79784 0.0
C1882 C 0.87472 0.98571 0.81475 0.0
C1883 C 0.88944 1.00067 0.76764 0.0
C1884 C 0.89788 0.04228 0.76344 0.0
C1885 C 0.88142 0.97401 0.75426 0.0
C1886 C 0.87274 0.92934 0.758 0.0
C1887 C 0.85673 0.92579 0.769 0.0
C1888 C 0.84898 0.88336 0.77287 0.0
C1889 C 0.85704 0.84429 0.76571 0.0
C1890 C 0.87282 0.84759 0.7546 0.0
C1891 C 0.88064 0.88995 0.7507 0.0
H1892 H 0.85103 0.81146 0.76874 0.0
H1893 H 0.93641 0.21152 0.7315 0.0
H1894 H 0.09985 0.11298 0.81394 0.0
H1895 H 0.09813 0.08588 0.78372 0.0
H1896 H 0.15738 0.04634 0.78601 0.0
H1897 H 0.15915 0.07244 0.81619 0.0
H1898 H 0.14508 0.09635 0.75417 0.0
H1899 H 0.12743 0.96712 0.79112 0.0
H1900 H 0.10735 0.93279 0.81403 0.0
H1901 H 0.05702 0.96063 0.78387 0.0
H1902 H 0.07682 0.99554 0.76084 0.0
H1903 H 0.15974 0.95856 0.6813 0.0
H1904 H 0.15832 0.98991 0.7107 0.0
H1905 H 0.09697 0.97438 0.71084 0.0
H1906 H 0.09858 0.93993 0.68185 0.0
H1907 H 0.10752 0.95812 0.74115 0.0
H1908 H 0.12171 0.08069 0.70359 0.0
H1909 H 0.13851 0.12243 0.68031 0.0
H1910 H 0.19032 0.11923 0.71022 0.0
H1911 H 0.17393 0.07678 0.73356 0.0
C1912 C 0.11255 0.09882 0.80796 0.0
C1913 C 0.12964 0.09476 0.81752 0.0
C1914 C 0.11153 0.08329 0.79071 0.0
C1915 C 0.12763 0.06406 0.78262 0.0
C1916 C 0.14481 0.06116 0.79197 0.0
C1917 C 0.14576 0.07592 0.80927 0.0
C1918 C 0.12653 0.04517 0.76468 0.0
C1919 C 0.13702 0.06593 0.75129 0.0
C1920 C 0.11536 1.00665 0.7608 0.0
C1921 C 0.10358 0.98419 0.77433 0.0
C1922 C 0.11207 0.96604 0.7894 0.0
C1923 C 0.10075 0.94647 0.8024 0.0
C1924 C 0.08091 0.9446 0.80042 0.0
C1925 C 0.07238 0.96209 0.78538 0.0
C1926 C 0.08365 0.98169 0.77234 0.0
C1927 C 0.14596 0.96169 0.68764 0.0
C1928 C 0.12926 0.94721 0.67919 0.0
C1929 C 0.14511 0.98003 0.70443 0.0
C1930 C 0.12745 0.98609 0.71295 0.0
C1931 C 0.11078 0.97052 0.70464 0.0
C1932 C 0.1117 0.95091 0.68801 0.0
C1933 C 0.12646 1.00867 0.73043 0.0
C1934 C 0.11554 0.98873 0.74381 0.0
C1935 C 0.13674 0.04899 0.73414 0.0
C1936 C 0.14661 0.07521 0.72027 0.0
C1937 C 0.13672 0.08868 0.70517 0.0
C1938 C 0.14616 0.11247 0.69196 0.0
C1939 C 0.16547 0.1234 0.69377 0.0
C1940 C 0.17536 0.1107 0.70883 0.0
C1941 C 0.166 0.0868 0.72206 0.0
H1942 H 0.17276 0.14177 0.68353 0.0
H1943 H 0.07216 0.92956 0.81052 0.0
H1944 H 0.64771 0.50352 0.32515 0.0
H1945 H 0.64625 0.53683 0.29617 0.0
H1946 H 0.613 0.4231 0.27823 0.0
H1947 H 0.61284 0.39208 0.30764 0.0
H1948 H 0.65893 0.51861 0.26718 0.0
H1949 H 0.58662 0.44659 0.24327 0.0
H1950 H 0.55559 0.42276 0.25546 0.0
H1951 H 0.56333 0.51239 0.29889 0.0
H1952 H 0.5943 0.53726 0.28683 0.0
H1953 H 0.65432 0.54003 0.17641 0.0
H1954 H 0.65293 0.51261 0.20626 0.0
H1955 H 0.60594 0.60301 0.21699 0.0
H1956 H 0.60656 0.62907 0.18668 0.0
H1957 H 0.59933 0.52644 0.23236 0.0
H1958 H 0.65277 0.62534 0.23098 0.0
H1959 H 0.68299 0.6568 0.21973 0.0
H1960 H 0.71125 0.53026 0.22953 0.0
H1961 H 0.68111 0.49779 0.2406 0.0
C1962 C 0.63995 0.48561 0.3151 0.0
C1963 C 0.63054 0.44461 0.31883 0.0
C1964 C 0.6392 0.50473 0.29841 0.0
C1965 C 0.62932 0.48305 0.28483 0.0
C1966 C 0.62029 0.4415 0.28843 0.0
C1967 C 0.62051 0.42315 0.30529 0.0
C1968 C 0.62876 0.50375 0.26696 0.0
C1969 C 0.64583 0.52035 0.25966 0.0
C1970 C 0.61168 0.50719 0.25705 0.0
C1971 C 0.59285 0.4935 0.2642 0.0
C1972 C 0.58164 0.46144 0.25536 0.0
C1973 C 0.56409 0.4477 0.26225 0.0
C1974 C 0.55753 0.46597 0.27795 0.0
C1975 C 0.56846 0.4982 0.28675 0.0
C1976 C 0.58602 0.51213 0.27989 0.0
C1977 C 0.64364 0.55426 0.18504 0.0
C1978 C 0.63074 0.58747 0.17909 0.0
C1979 C 0.64295 0.53863 0.20223 0.0
C1980 C 0.62962 0.55636 0.21411 0.0
C1981 C 0.61647 0.58895 0.20817 0.0
C1982 C 0.61697 0.60421 0.19083 0.0
C1983 C 0.6295 0.54062 0.23265 0.0
C1984 C 0.61235 0.52493 0.24001 0.0
C1985 C 0.64637 0.53942 0.24286 0.0
C1986 C 0.66463 0.55902 0.2365 0.0
C1987 C 0.6654 0.60414 0.23066 0.0
C1988 C 0.68252 0.62216 0.22431 0.0
C1989 C 0.69902 0.59551 0.22388 0.0
C1990 C 0.69845 0.55084 0.22986 0.0
C1991 C 0.68136 0.53263 0.23619 0.0
H1992 H 0.71226 0.6095 0.21893 0.0
H1993 H 0.54396 0.45519 0.28326 0.0
H1994 H 0.41302 0.60385 0.31402 0.0
H1995 H 0.41496 0.57269 0.28454 0.0
H1996 H 0.35431 0.54604 0.28552 0.0
H1997 H 0.35264 0.57437 0.31534 0.0
H1998 H 0.36904 0.47947 0.2713 0.0
H1999 H 0.37768 0.63852 0.26028 0.0
H2000 H 0.39227 0.71395 0.26361 0.0
H2001 H 0.44687 0.65999 0.24864 0.0
H2002 H 0.43254 0.58425 0.24507 0.0
H2003 H 0.35441 0.4708 0.17857 0.0
H2004 H 0.35598 0.49902 0.20855 0.0
H2005 H 0.41532 0.46069 0.21143 0.0
H2006 H 0.41377 0.43117 0.18154 0.0
H2007 H 0.40325 0.55743 0.22324 0.0
H2008 H 0.39119 0.39767 0.23185 0.0
H2009 H 0.37367 0.32668 0.22653 0.0
H2010 H 0.32185 0.38819 0.24498 0.0
H2011 H 0.33901 0.45983 0.25016 0.0
C2012 C 0.40009 0.59149 0.3079 0.0
C2013 C 0.38267 0.59158 0.31706 0.0
C2014 C 0.40117 0.57392 0.29093 0.0
C2015 C 0.38472 0.55743 0.28246 0.0
C2016 C 0.36728 0.55818 0.29161 0.0
C2017 C 0.3663 0.57463 0.30871 0.0
C2018 C 0.38561 0.53837 0.26432 0.0
C2019 C 0.37637 0.49703 0.26083 0.0
C2020 C 0.39543 0.56031 0.25048 0.0
C2021 C 0.40409 0.60571 0.25258 0.0
C2022 C 0.39282 0.64273 0.25778 0.0
C2023 C 0.40103 0.68553 0.25968 0.0
C2024 C 0.42051 0.69171 0.25645 0.0
C2025 C 0.43179 0.65514 0.25117 0.0
C2026 C 0.42362 0.61231 0.24913 0.0
C2027 C 0.3678 0.46826 0.18556 0.0
C2028 C 0.38396 0.44866 0.17764 0.0
C2029 C 0.36867 0.48443 0.2027 0.0
C2030 C 0.38578 0.48211 0.2122 0.0
C2031 C 0.402 0.46296 0.20431 0.0
C2032 C 0.40105 0.44589 0.18727 0.0
C2033 C 0.38652 0.49933 0.23043 0.0
C2034 C 0.39604 0.54012 0.23385 0.0
C2035 C 0.37661 0.47748 0.24411 0.0
C2036 C 0.36635 0.43424 0.24124 0.0
C2037 C 0.37602 0.39619 0.23463 0.0
C2038 C 0.36617 0.35581 0.23166 0.0
C2039 C 0.34665 0.35296 0.23536 0.0
C2040 C 0.33696 0.39046 0.2421 0.0
C2041 C 0.34675 0.43095 0.24507 0.0
H2042 H 0.33904 0.32167 0.23305 0.0
H2043 H 0.42685 0.72485 0.25799 0.0
H2044 H 0.37092 0.37824 0.80572 0.0
H2045 H 0.37088 0.40746 0.77583 0.0
H2046 H 0.3942 0.53402 0.7942 0.0
H2047 H 0.39299 0.50545 0.82421 0.0
H2048 H 0.37073 0.55465 0.7715 0.0
H2049 H 0.4212 0.44713 0.77076 0.0
H2050 H 0.43712 0.37363 0.77535 0.0
H2051 H 0.39828 0.3106 0.73955 0.0
H2052 H 0.38199 0.38373 0.73486 0.0
H2053 H 0.4038 0.62038 0.6856 0.0
H2054 H 0.4045 0.59078 0.71538 0.0
H2055 H 0.35851 0.49953 0.70302 0.0
H2056 H 0.357 0.5305 0.67344 0.0
H2057 H 0.39451 0.46231 0.72203 0.0
H2058 H 0.34487 0.57882 0.72411 0.0
H2059 H 0.33354 0.65681 0.71911 0.0
H2060 H 0.37752 0.70782 0.75275 0.0
H2061 H 0.38931 0.63011 0.75772 0.0
C2062 C 0.37616 0.41212 0.80327 0.0
C2063 C 0.38218 0.43947 0.81714 0.0
C2064 C 0.37624 0.42886 0.78616 0.0
C2065 C 0.38296 0.47283 0.78249 0.0
C2066 C 0.38895 0.50007 0.79651 0.0
C2067 C 0.38837 0.48371 0.81366 0.0
C2068 C 0.38338 0.49072 0.76416 0.0
C2069 C 0.37619 0.53441 0.76081 0.0
C2070 C 0.39044 0.46483 0.74994 0.0
C2071 C 0.40027 0.42083 0.75258 0.0
C2072 C 0.41599 0.41754 0.76394 0.0
C2073 C 0.42508 0.37596 0.76655 0.0
C2074 C 0.41868 0.33743 0.75779 0.0
C2075 C 0.4032 0.34047 0.74634 0.0
C2076 C 0.39406 0.382 0.74368 0.0
C2077 C 0.39357 0.59468 0.68923 0.0
C2078 C 0.38004 0.57876 0.67712 0.0
C2079 C 0.39414 0.57742 0.70625 0.0
C2080 C 0.38153 0.54303 0.71142 0.0
C2081 C 0.36838 0.52606 0.69928 0.0
C2082 C 0.36752 0.544 0.68237 0.0
C2083 C 0.38176 0.52551 0.72962 0.0
C2084 C 0.3891 0.48213 0.73286 0.0
C2085 C 0.37547 0.55217 0.74379 0.0
C2086 C 0.36808 0.59872 0.74115 0.0
C2087 C 0.35221 0.60669 0.73034 0.0
C2088 C 0.34569 0.65084 0.72752 0.0
C2089 C 0.35484 0.68727 0.73557 0.0
C2090 C 0.37047 0.67959 0.7465 0.0
C2091 C 0.37706 0.6355 0.74934 0.0
H2092 H 0.34979 0.72143 0.73336 0.0
H2093 H 0.42572 0.30524 0.75984 0.0
H2094 H 0.63906 0.64574 0.80515 0.0
H2095 H 0.63798 0.61792 0.77512 0.0
H2096 H 0.61623 0.48971 0.79351 0.0
H2097 H 0.61844 0.51663 0.82353 0.0
H2098 H 0.63987 0.47146 0.7704 0.0
H2099 H 0.58812 0.57533 0.77183 0.0
H2100 H 0.57205 0.64807 0.77764 0.0
H2101 H 0.60805 0.71374 0.73999 0.0
H2102 H 0.6246 0.64151 0.73418 0.0
H2103 H 0.60582 0.40194 0.68574 0.0
H2104 H 0.60482 0.43283 0.7153 0.0
H2105 H 0.64916 0.52776 0.70191 0.0
H2106 H 0.65096 0.49576 0.67256 0.0
H2107 H 0.61288 0.56219 0.72182 0.0
H2108 H 0.66474 0.4505 0.7226 0.0
H2109 H 0.67714 0.37368 0.71707 0.0
H2110 H 0.6346 0.31785 0.75124 0.0
H2111 H 0.62175 0.39436 0.75675 0.0
C2112 C 0.63391 0.61177 0.80273 0.0
C2113 C 0.62878 0.58342 0.81667 0.0
C2114 C 0.63321 0.59585 0.78553 0.0
C2115 C 0.62673 0.55174 0.78184 0.0
C2116 C 0.62137 0.52373 0.79585 0.0
C2117 C 0.62255 0.53923 0.81304 0.0
C2118 C 0.62596 0.53428 0.76353 0.0
C2119 C 0.63371 0.49131 0.75991 0.0
C2120 C 0.61798 0.55975 0.7496 0.0
C2121 C 0.60773 0.60305 0.75268 0.0
C2122 C 0.59268 0.60532 0.76484 0.0
C2123 C 0.58349 0.64646 0.76815 0.0
C2124 C 0.58906 0.68552 0.75922 0.0
C2125 C 0.60377 0.68346 0.74691 0.0
C2126 C 0.61306 0.64241 0.7436 0.0
C2127 C 0.61557 0.42892 0.68908 0.0
C2128 C 0.62875 0.44557 0.67676 0.0
C2129 C 0.61481 0.44689 0.70596 0.0
C2130 C 0.62689 0.48263 0.71078 0.0
C2131 C 0.63966 0.5003 0.69843 0.0
C2132 C 0.64072 0.48172 0.68166 0.0
C2133 C 0.62687 0.50004 0.72896 0.0
C2134 C 0.61895 0.54274 0.73246 0.0
C2135 C 0.63412 0.47384 0.74288 0.0
C2136 C 0.64218 0.42806 0.73995 0.0
C2137 C 0.65795 0.42181 0.72883 0.0
C2138 C 0.66507 0.37833 0.72572 0.0
C2139 C 0.65663 0.34089 0.73376 0.0
C2140 C 0.6411 0.34688 0.745 0.0
C2141 C 0.63391 0.39029 0.74814 0.0
H2142 H 0.66215 0.30725 0.73131 0.0
H2143 H 0.58196 0.71736 0.76183 0.0
H2144 H 0.12936 0.0857 0.93126 0.0
H2145 H 0.12724 0.09708 0.96264 0.0
H2146 H 0.13037 0.24153 0.95509 0.0
H2147 H 0.13287 0.22993 0.92331 0.0
H2148 H 0.15435 0.20752 0.98282 0.0
H2149 H 0.08932 0.201 0.96486 0.0
H2150 H 0.06176 0.17012 0.94884 0.0
H2151 H 0.06613 0.04581 0.9776 0.0
H2152 H 0.09398 0.07558 0.99357 0.0
H2153 H 0.132 0.22572 0.07472 0.0
H2154 H 0.12939 0.23816 0.04304 0.0
H2155 H 0.12541 0.09405 0.03503 0.0
H2156 H 0.12804 0.08158 0.06639 0.0
H2157 H 0.09921 0.14263 0.015 0.0
H2158 H 0.16654 0.14357 0.02899 0.0
H2159 H 0.19508 0.17099 0.04452 0.0
H2160 H 0.18668 0.30381 0.02303 0.0
H2161 H 0.15786 0.27727 0.00759 0.0
C2162 C 0.13002 0.11982 0.93625 0.0
C2163 C 0.13175 0.1568 0.92485 0.0
C2164 C 0.12853 0.12636 0.9542 0.0
C2165 C 0.12861 0.17016 0.96125 0.0
C2166 C 0.13032 0.20742 0.94993 0.0
C2167 C 0.13165 0.2008 0.93182 0.0
C2168 C 0.12673 0.17607 0.98045 0.0
C2169 C 0.14208 0.19443 0.98986 0.0
C2170 C 0.11086 0.15826 0.98965 0.0
C2171 C 0.09383 0.14048 0.98035 0.0
C2172 C 0.08449 0.16697 0.9677 0.0
C2173 C 0.06881 0.14966 0.95863 0.0
C2174 C 0.06221 0.10601 0.96218 0.0
C2175 C 0.07126 0.07962 0.97486 0.0
C2176 C 0.08699 0.09672 0.98394 0.0
C2177 C 0.13043 0.19683 0.06617 0.0
C2178 C 0.13055 0.15265 0.07299 0.0
C2179 C 0.12899 0.20394 0.0481 0.0
C2180 C 0.12733 0.16698 0.03665 0.0
C2181 C 0.12671 0.12306 0.04357 0.0
C2182 C 0.12842 0.11596 0.06151 0.0
C2183 C 0.12698 0.17325 0.01738 0.0
C2184 C 0.11125 0.15688 0.00797 0.0
C2185 C 0.14251 0.19273 0.0082 0.0
C2186 C 0.1599 0.20862 0.01733 0.0
C2187 C 0.17067 0.17873 0.02771 0.0
C2188 C 0.18692 0.19408 0.03647 0.0
C2189 C 0.19266 0.23916 0.03481 0.0
C2190 C 0.18219 0.26893 0.02434 0.0
C2191 C 0.1659 0.25375 0.01558 0.0
H2192 H 0.20524 0.251 0.0416 0.0
H2193 H 0.05008 0.09265 0.95513 0.0
H2194 H 0.84968 0.83841 0.92577 0.0
H2195 H 0.85047 0.82593 0.9573 0.0
H2196 H 0.90764 0.88095 0.95907 0.0
H2197 H 0.9074 0.88876 0.92732 0.0
H2198 H 0.90799 0.822 0.98069 0.0
H2199 H 0.86046 0.94828 0.98011 0.0
H2200 H 0.83081 0.98864 0.97225 0.0
H2201 H 0.79853 0.86648 0.97938 0.0
H2202 H 0.8279 0.8262 0.98837 0.0
H2203 H 0.90158 0.92382 0.06597 0.0
H2204 H 0.90104 0.90922 0.03454 0.0
H2205 H 0.86631 0.79089 0.04317 0.0
H2206 H 0.86735 0.80455 0.07485 0.0
H2207 H 0.85324 0.86896 0.01757 0.0
H2208 H 0.90342 0.76244 0.03054 0.0
H2209 H 0.93391 0.7397 0.04405 0.0
H2210 H 0.96353 0.84082 0.01425 0.0
H2211 H 0.93314 0.86474 0.00079 0.0
C2212 C 0.86246 0.84717 0.93298 0.0
C2213 C 0.87855 0.86399 0.9242 0.0
C2214 C 0.86281 0.84096 0.9511 0.0
C2215 C 0.87891 0.85368 0.96097 0.0
C2216 C 0.89501 0.87051 0.952 0.0
C2217 C 0.89492 0.87503 0.93382 0.0
C2218 C 0.87926 0.84899 0.98049 0.0
C2219 C 0.89598 0.83272 0.98863 0.0
C2220 C 0.8636 0.86156 0.99125 0.0
C2221 C 0.84635 0.88409 0.98442 0.0
C2222 C 0.84705 0.92998 0.97977 0.0
C2223 C 0.83029 0.95292 0.97531 0.0
C2224 C 0.81284 0.92994 0.97496 0.0
C2225 C 0.81207 0.88414 0.97948 0.0
C2226 C 0.82872 0.86138 0.98446 0.0
C2227 C 0.89404 0.89435 0.06118 0.0
C2228 C 0.88449 0.86529 0.07279 0.0
C2229 C 0.8938 0.88598 0.04326 0.0
C2230 C 0.88372 0.8489 0.03657 0.0
C2231 C 0.87429 0.8195 0.04813 0.0
C2232 C 0.87493 0.82724 0.06616 0.0
C2233 C 0.88197 0.84341 0.01742 0.0
C2234 C 0.86504 0.85769 0.00945 0.0
C2235 C 0.89762 0.83045 0.00691 0.0
C2236 C 0.91596 0.81562 0.01476 0.0
C2237 C 0.9164 0.7801 0.02698 0.0
C2238 C 0.93367 0.76695 0.03461 0.0
C2239 C 0.95064 0.78887 0.03004 0.0
C2240 C 0.95037 0.82389 0.01779 0.0
C2241 C 0.93313 0.83722 0.01014 0.0
H2242 H 0.964 0.77866 0.03597 0.0
H2243 H 0.79991 0.94773 0.97136 0.0
H2244 H 0.16145 0.87518 0.42966 0.0
H2245 H 0.1601 0.86702 0.46122 0.0
H2246 H 0.09984 0.83756 0.45816 0.0
H2247 H 0.101 0.84721 0.42638 0.0
H2248 H 0.10696 0.89834 0.48358 0.0
H2249 H 0.13253 0.75406 0.46773 0.0
H2250 H 0.15439 0.7014 0.45273 0.0
H2251 H 0.20217 0.75949 0.47967 0.0
H2252 H 0.18064 0.81294 0.49466 0.0
H2253 H 0.10327 0.84451 0.57419 0.0
H2254 H 0.10185 0.83398 0.54253 0.0
H2255 H 0.16092 0.8739 0.53819 0.0
H2256 H 0.16248 0.88418 0.56976 0.0
H2257 H 0.1521 0.80122 0.51666 0.0
H2258 H 0.12748 0.94888 0.53034 0.0
H2259 H 0.10625 1.00195 0.54585 0.0
H2260 H 0.05719 0.93816 0.52302 0.0
H2261 H 0.07815 0.88408 0.50762 0.0
C2262 C 0.14788 0.86677 0.43564 0.0
C2263 C 0.1313 0.86217 0.42544 0.0
C2264 C 0.14717 0.86176 0.45374 0.0
C2265 C 0.1299 0.85127 0.46216 0.0
C2266 C 0.11335 0.8456 0.45199 0.0
C2267 C 0.11406 0.85074 0.43379 0.0
C2268 C 0.12916 0.848 0.48158 0.0
C2269 C 0.11655 0.87635 0.49078 0.0
C2270 C 0.14198 0.82015 0.49109 0.0
C2271 C 0.15497 0.78772 0.48224 0.0
C2272 C 0.14771 0.7558 0.47038 0.0
C2273 C 0.16005 0.72578 0.46188 0.0
C2274 C 0.17966 0.72715 0.46522 0.0
C2275 C 0.18698 0.75847 0.47709 0.0
C2276 C 0.17471 0.7886 0.48561 0.0
C2277 C 0.11603 0.85041 0.56654 0.0
C2278 C 0.13293 0.86564 0.57452 0.0
C2279 C 0.11518 0.84457 0.54842 0.0
C2280 C 0.13123 0.85356 0.53794 0.0
C2281 C 0.14835 0.86677 0.54597 0.0
C2282 C 0.14917 0.87291 0.56404 0.0
C2283 C 0.13 0.85166 0.51856 0.0
C2284 C 0.1423 0.8226 0.50941 0.0
C2285 C 0.11697 0.87894 0.5091 0.0
C2286 C 0.10437 0.91212 0.51798 0.0
C2287 C 0.11216 0.94597 0.52871 0.0
C2288 C 0.10018 0.97624 0.53748 0.0
C2289 C 0.08038 0.97336 0.53546 0.0
C2290 C 0.07253 0.9403 0.5246 0.0
C2291 C 0.08445 0.90982 0.51584 0.0
H2292 H 0.07112 0.99679 0.54227 0.0
H2293 H 0.18919 0.70389 0.45862 0.0
H2294 H 0.88358 0.07932 0.56497 0.0
H2295 H 0.88592 0.09477 0.53387 0.0
H2296 H 0.87585 0.2366 0.54335 0.0
H2297 H 0.87345 0.2213 0.57486 0.0
H2298 H 0.85412 0.19649 0.51421 0.0
H2299 H 0.91821 0.21326 0.53406 0.0
H2300 H 0.94691 0.19226 0.55083 0.0
H2301 H 0.95141 0.06811 0.52207 0.0
H2302 H 0.92259 0.08814 0.50524 0.0
H2303 H 0.8801 0.22857 0.4234 0.0
H2304 H 0.88134 0.2402 0.45522 0.0
H2305 H 0.88956 0.09682 0.46272 0.0
H2306 H 0.88796 0.08511 0.43121 0.0
H2307 H 0.9141 0.1542 0.48362 0.0
H2308 H 0.84779 0.13176 0.46758 0.0
H2309 H 0.81865 0.15004 0.45096 0.0
H2310 H 0.81818 0.2838 0.47281 0.0
H2311 H 0.84757 0.26652 0.48932 0.0
C2312 C 0.88161 0.11379 0.56051 0.0
C2313 C 0.87814 0.14903 0.57241 0.0
C2314 C 0.88309 0.12259 0.5427 0.0
C2315 C 0.88112 0.16682 0.53631 0.0
C2316 C 0.8774 0.20221 0.54805 0.0
C2317 C 0.87612 0.19345 0.56601 0.0
C2318 C 0.88337 0.1752 0.51733 0.0
C2319 C 0.86737 0.18848 0.50754 0.0
C2320 C 0.90058 0.16401 0.50862 0.0
C2321 C 0.91816 0.15211 0.51845 0.0
C2322 C 0.92525 0.18135 0.53137 0.0
C2323 C 0.94155 0.16963 0.54089 0.0
C2324 C 0.95094 0.1288 0.53756 0.0
C2325 C 0.94411 0.09972 0.52464 0.0
C2326 C 0.92782 0.11129 0.51508 0.0
C2327 C 0.88235 0.19976 0.4319 0.0
C2328 C 0.88369 0.1559 0.42496 0.0
C2329 C 0.88303 0.20638 0.45 0.0
C2330 C 0.88549 0.1693 0.46129 0.0
C2331 C 0.88766 0.12584 0.45425 0.0
C2332 C 0.88658 0.11915 0.43628 0.0
C2333 C 0.88478 0.17476 0.48051 0.0
C2334 C 0.90103 0.16363 0.49032 0.0
C2335 C 0.86781 0.18788 0.48921 0.0
C2336 C 0.85001 0.19809 0.47949 0.0
C2337 C 0.84158 0.16522 0.46871 0.0
C2338 C 0.825 0.17536 0.45933 0.0
C2339 C 0.8166 0.21812 0.46078 0.0
C2340 C 0.82473 0.25074 0.47166 0.0
C2341 C 0.84135 0.2408 0.48103 0.0
H2342 H 0.80376 0.22592 0.45351 0.0
H2343 H 0.96354 0.11974 0.54497 0.0
H2344 H 0.63037 0.58498 0.06493 0.0
H2345 H 0.63116 0.59868 0.03368 0.0
H2346 H 0.63239 0.74257 0.04291 0.0
H2347 H 0.63213 0.7285 0.07465 0.0
H2348 H 0.60813 0.71664 0.01457 0.0
H2349 H 0.67238 0.69703 0.0321 0.0
H2350 H 0.69966 0.66229 0.0474 0.0
H2351 H 0.69167 0.53928 0.0186 0.0
H2352 H 0.66409 0.57296 0.00334 0.0
H2353 H 0.63437 0.72602 0.92174 0.0
H2354 H 0.6345 0.74055 0.95337 0.0
H2355 H 0.63131 0.59709 0.96318 0.0
H2356 H 0.63048 0.58256 0.93206 0.0
H2357 H 0.66041 0.64054 0.98207 0.0
H2358 H 0.59303 0.66027 0.96771 0.0
H2359 H 0.5665 0.69756 0.95215 0.0
H2360 H 0.58198 0.82515 0.97483 0.0
H2361 H 0.60883 0.7887 0.99029 0.0
C2362 C 0.63124 0.61944 0.06039 0.0
C2363 C 0.632 0.65547 0.07225 0.0
C2364 C 0.63141 0.62735 0.04247 0.0
C2365 C 0.63226 0.67163 0.03591 0.0
C2366 C 0.63189 0.70809 0.04769 0.0
C2367 C 0.63176 0.70004 0.06577 0.0
C2368 C 0.6343 0.6786 0.01676 0.0
C2369 C 0.61978 0.70093 0.00747 0.0
C2370 C 0.64951 0.65816 0.00746 0.0
C2371 C 0.6661 0.63754 0.0166 0.0
C2372 C 0.67634 0.66246 0.02911 0.0
C2373 C 0.69188 0.64297 0.03776 0.0
C2374 C 0.69744 0.59869 0.03392 0.0
C2375 C 0.6874 0.57367 0.0215 0.0
C2376 C 0.6718 0.59295 0.01284 0.0
C2377 C 0.6336 0.69766 0.93066 0.0
C2378 C 0.63294 0.65299 0.92429 0.0
C2379 C 0.6337 0.70601 0.94872 0.0
C2380 C 0.63316 0.66982 0.96065 0.0
C2381 C 0.63207 0.6255 0.95426 0.0
C2382 C 0.63176 0.61723 0.93637 0.0
C2383 C 0.63388 0.67699 0.97984 0.0
C2384 C 0.64898 0.65719 0.98917 0.0
C2385 C 0.61935 0.70021 0.98909 0.0
C2386 C 0.60307 0.72189 0.97998 0.0
C2387 C 0.59088 0.69635 0.96926 0.0
C2388 C 0.57577 0.71731 0.96047 0.0
C2389 C 0.57259 0.76372 0.96246 0.0
C2390 C 0.58449 0.78922 0.97328 0.0
C2391 C 0.59965 0.76843 0.98205 0.0
H2392 H 0.56089 0.7799 0.95565 0.0
H2393 H 0.70953 0.58375 0.04059 0.0
H2394 H 0.4086 0.33418 0.92281 0.0
H2395 H 0.41084 0.32701 0.9547 0.0
H2396 H 0.35402 0.38181 0.95989 0.0
H2397 H 0.35133 0.38706 0.92827 0.0
H2398 H 0.3841 0.42774 0.97959 0.0
H2399 H 0.35857 0.27831 0.96797 0.0
H2400 H 0.35904 0.20292 0.95423 0.0
H2401 H 0.41283 0.17371 0.97869 0.0
H2402 H 0.41282 0.24929 0.99236 0.0
H2403 H 0.35358 0.40433 0.06594 0.0
H2404 H 0.35649 0.3963 0.03446 0.0
H2405 H 0.41067 0.32885 0.04091 0.0
H2406 H 0.4082 0.33823 0.07267 0.0
H2407 H 0.38689 0.28777 0.01529 0.0
H2408 H 0.41235 0.4311 0.02871 0.0
H2409 H 0.41521 0.50777 0.04098 0.0
H2410 H 0.36573 0.55029 0.01222 0.0
H2411 H 0.36225 0.47348 0.0001 0.0
C2412 C 0.39646 0.34392 0.93072 0.0
C2413 C 0.37995 0.36227 0.92295 0.0
C2414 C 0.39779 0.33991 0.94895 0.0
C2415 C 0.38267 0.35437 0.95968 0.0
C2416 C 0.36594 0.3709 0.95189 0.0
C2417 C 0.36449 0.37419 0.93378 0.0
C2418 C 0.38445 0.35502 0.97902 0.0
C2419 C 0.38452 0.39715 0.98742 0.0
C2420 C 0.38584 0.31512 0.98916 0.0
C2421 C 0.38581 0.26967 0.98101 0.0
C2422 C 0.3706 0.25601 0.97027 0.0
C2423 C 0.37076 0.2132 0.96253 0.0
C2424 C 0.38599 0.1836 0.96554 0.0
C2425 C 0.40106 0.19671 0.97634 0.0
C2426 C 0.40098 0.23952 0.9841 0.0
C2427 C 0.36624 0.3881 0.06076 0.0
C2428 C 0.38088 0.37296 0.07192 0.0
C2429 C 0.36781 0.38329 0.04269 0.0
C2430 C 0.38393 0.36256 0.03526 0.0
C2431 C 0.39815 0.34518 0.04634 0.0
C2432 C 0.3967 0.35055 0.06451 0.0
C2433 C 0.38591 0.36064 0.01591 0.0
C2434 C 0.3866 0.31841 0.0075 0.0
C2435 C 0.38552 0.40056 0.00567 0.0
C2436 C 0.38694 0.44629 0.0136 0.0
C2437 C 0.40189 0.45655 0.0252 0.0
C2438 C 0.40368 0.50013 0.03207 0.0
C2439 C 0.39073 0.53395 0.0273 0.0
C2440 C 0.37582 0.52411 0.01582 0.0
C2441 C 0.37389 0.48051 0.00899 0.0
H2442 H 0.39218 0.56771 0.0326 0.0
H2443 H 0.38609 0.15046 0.95954 0.0
H2444 H 0.66007 0.37728 0.42897 0.0
H2445 H 0.65793 0.36681 0.46038 0.0
H2446 H 0.5986 0.32954 0.45543 0.0
H2447 H 0.60054 0.34132 0.42372 0.0
H2448 H 0.60403 0.39019 0.48185 0.0
H2449 H 0.63215 0.24972 0.46473 0.0
H2450 H 0.65511 0.20096 0.44915 0.0
H2451 H 0.70149 0.26098 0.47745 0.0
H2452 H 0.67885 0.31064 0.49301 0.0
H2453 H 0.60168 0.33725 0.57274 0.0
H2454 H 0.59983 0.32563 0.5411 0.0
H2455 H 0.65857 0.36754 0.53581 0.0
H2456 H 0.66058 0.37871 0.56727 0.0
H2457 H 0.65039 0.29542 0.51453 0.0
H2458 H 0.62372 0.44113 0.52852 0.0
H2459 H 0.60179 0.49237 0.54414 0.0
H2460 H 0.55359 0.42447 0.52153 0.0
H2461 H 0.57527 0.37222 0.50602 0.0
C2462 C 0.64654 0.36676 0.4345 0.0
C2463 C 0.63043 0.36044 0.42382 0.0
C2464 C 0.64538 0.36042 0.45251 0.0
C2465 C 0.62815 0.34696 0.46034 0.0
C2466 C 0.61207 0.33984 0.4497 0.0
C2467 C 0.61323 0.34623 0.43157 0.0
C2468 C 0.62702 0.34195 0.47967 0.0
C2469 C 0.61386 0.36862 0.48897 0.0
C2470 C 0.64014 0.31463 0.48905 0.0
C2471 C 0.65379 0.2841 0.47998 0.0
C2472 C 0.64725 0.2527 0.46758 0.0
C2473 C 0.66021 0.22488 0.45874 0.0
C2474 C 0.67975 0.22791 0.46229 0.0
C2475 C 0.68636 0.25867 0.47472 0.0
C2476 C 0.67346 0.28661 0.48357 0.0
C2477 C 0.61428 0.3433 0.56486 0.0
C2478 C 0.63121 0.35934 0.57252 0.0
C2479 C 0.61318 0.33684 0.54677 0.0
C2480 C 0.62902 0.34611 0.53603 0.0
C2481 C 0.64616 0.36013 0.54378 0.0
C2482 C 0.64724 0.3668 0.56179 0.0
C2483 C 0.62755 0.34396 0.51665 0.0
C2484 C 0.64029 0.3162 0.50738 0.0
C2485 C 0.61415 0.37046 0.50729 0.0
C2486 C 0.6011 0.40245 0.51627 0.0
C2487 C 0.60844 0.43694 0.52698 0.0
C2488 C 0.59606 0.46617 0.53581 0.0
C2489 C 0.5763 0.4616 0.53387 0.0
C2490 C 0.5689 0.4279 0.52304 0.0
C2491 C 0.58122 0.39846 0.51423 0.0
H2492 H 0.56673 0.48424 0.54073 0.0
H2493 H 0.68975 0.20638 0.45543 0.0
H2494 H 0.40607 0.69234 0.57272 0.0
H2495 H 0.40861 0.70095 0.54091 0.0
H2496 H 0.35223 0.64444 0.53496 0.0
H2497 H 0.34936 0.63704 0.56647 0.0
H2498 H 0.38001 0.60148 0.51452 0.0
H2499 H 0.35881 0.75339 0.52825 0.0
H2500 H 0.36121 0.82735 0.54293 0.0
H2501 H 0.41576 0.85034 0.51883 0.0
H2502 H 0.4138 0.77615 0.50419 0.0
H2503 H 0.35069 0.63908 0.42849 0.0
H2504 H 0.35352 0.64398 0.46009 0.0
H2505 H 0.41001 0.70029 0.45472 0.0
H2506 H 0.40759 0.69378 0.42285 0.0
H2507 H 0.38714 0.74389 0.48083 0.0
H2508 H 0.40791 0.5975 0.46512 0.0
H2509 H 0.40802 0.52196 0.45159 0.0
H2510 H 0.35754 0.48613 0.48029 0.0
H2511 H 0.35676 0.56201 0.49362 0.0
C2512 C 0.3941 0.6825 0.56465 0.0
C2513 C 0.37764 0.66326 0.57218 0.0
C2514 C 0.39559 0.68735 0.54646 0.0
C2515 C 0.38066 0.67298 0.53552 0.0
C2516 C 0.364 0.65538 0.54309 0.0
C2517 C 0.36242 0.65103 0.56117 0.0
C2518 C 0.38251 0.67387 0.51615 0.0
C2519 C 0.38137 0.63266 0.50714 0.0
C2520 C 0.38512 0.71437 0.50656 0.0
C2521 C 0.38626 0.759 0.51529 0.0
C2522 C 0.3714 0.77402 0.52621 0.0
C2523 C 0.37266 0.81602 0.5345 0.0
C2524 C 0.38866 0.84346 0.53186 0.0
C2525 C 0.4034 0.82901 0.52089 0.0
C2526 C 0.40221 0.787 0.51258 0.0
C2527 C 0.36383 0.65213 0.43395 0.0
C2528 C 0.37912 0.66483 0.42307 0.0
C2529 C 0.36536 0.65521 0.45208 0.0
C2530 C 0.38209 0.67184 0.45983 0.0
C2531 C 0.397 0.6871 0.44903 0.0
C2532 C 0.39558 0.68341 0.43081 0.0
C2533 C 0.38398 0.67152 0.47919 0.0
C2534 C 0.38589 0.71267 0.48819 0.0
C2535 C 0.38231 0.63082 0.48885 0.0
C2536 C 0.38217 0.58575 0.48026 0.0
C2537 C 0.39664 0.57384 0.46835 0.0
C2538 C 0.39687 0.53085 0.46076 0.0
C2539 C 0.38285 0.4992 0.46514 0.0
C2540 C 0.36845 0.51063 0.47698 0.0
C2541 C 0.36806 0.5537 0.4845 0.0
H2542 H 0.38309 0.46588 0.45929 0.0
H2543 H 0.38961 0.87597 0.53829 0.0
H2544 H 0.93936 0.93696 0.09388 0.0
H2545 H 0.97256 0.96022 0.09685 0.0
H2546 H 0.96439 0.97508 0.15234 0.0
H2547 H 0.93164 0.94687 0.14941 0.0
H2548 H 0.98484 0.03442 0.10342 0.0
H2549 H 0.99316 0.9974 0.17128 0.0
H2550 H 0.99296 0.94268 0.19566 0.0
H2551 H 0.01495 0.83959 0.16168 0.0
H2552 H 0.01439 0.89328 0.13697 0.0
H2553 H 0.08615 0.08862 0.14757 0.0
H2554 H 0.05217 0.06771 0.14986 0.0
H2555 H 0.0514 0.03769 0.09485 0.0
H2556 H 0.08456 0.06149 0.09243 0.0
H2557 H 0.0346 0.994 0.14656 0.0
H2558 H 0.01712 0.03423 0.07669 0.0
H2559 H 0.02039 0.09423 0.0544 0.0
H2560 H 0.01799 0.19569 0.09441 0.0
H2561 H 0.01472 0.13589 0.11684 0.0
C2562 C 0.9449 0.94349 0.10682 0.0
C2563 C 0.93293 0.93886 0.12141 0.0
C2564 C 0.96397 0.95737 0.10856 0.0
C2565 C 0.97165 0.96957 0.12489 0.0
C2566 C 0.95964 0.96445 0.13962 0.0
C2567 C 0.94064 0.94869 0.13793 0.0
C2568 C 0.99117 0.99216 0.12566 0.0
C2569 C 0.99568 0.02459 0.11279 0.0
C2570 C 1.00553 0.98241 0.13825 0.0
C2571 C 1.003 0.94868 0.15221 0.0
C2572 C 0.9974 0.96265 0.16895 0.0
C2573 C 0.99747 0.93191 0.18282 0.0
C2574 C 1.00379 0.88757 0.18019 0.0
C2575 C 0.00989 0.87383 0.16366 0.0
C2576 C 0.00937 0.90415 0.14966 0.0
C2577 C 0.07846 0.07921 0.13588 0.0
C2578 C 0.08797 0.07829 0.1197 0.0
C2579 C 0.05901 0.06665 0.1372 0.0
C2580 C 0.04862 0.05205 0.12243 0.0
C2581 C 0.05836 0.05073 0.10637 0.0
C2582 C 0.07759 0.06385 0.10502 0.0
C2583 C 0.02832 0.03444 0.12392 0.0
C2584 C 0.02369 1.00338 0.13719 0.0
C2585 C 0.01375 0.04554 0.11178 0.0
C2586 C 0.01637 0.08093 0.09841 0.0
C2587 C 0.0175 0.06937 0.08068 0.0
C2588 C 0.01931 0.10324 0.06804 0.0
C2589 C 0.01961 0.14875 0.073 0.0
C2590 C 0.01799 0.16043 0.09059 0.0
C2591 C 0.01637 0.12661 0.10327 0.0
H2592 H 0.02094 0.17495 0.0632 0.0
H2593 H 1.00405 0.86391 0.19097 0.0
H2594 H 0.92809 0.0814 0.35038 0.0
H2595 H 0.96153 0.05542 0.34808 0.0
H2596 H 0.9636 0.03866 0.4039 0.0
H2597 H 0.93038 0.06334 0.40609 0.0
H2598 H 0.99602 0.08045 0.35924 0.0
H2599 H 0.99018 0.95106 0.41636 0.0
H2600 H 0.96585 0.90172 0.42981 0.0
H2601 H 0.93425 0.90007 0.38186 0.0
H2602 H 0.95852 0.9488 0.36805 0.0
H2603 H 0.07876 0.95915 0.40784 0.0
H2604 H 0.04527 0.98218 0.40479 0.0
H2605 H 0.05006 0.97149 0.34892 0.0
H2606 H 0.08369 0.94771 0.35201 0.0
H2607 H 0.01377 0.9389 0.39012 0.0
H2608 H 0.01981 0.05943 0.33177 0.0
H2609 H 0.04392 0.10661 0.31688 0.0
H2610 H 0.07469 0.1216 0.36493 0.0
H2611 H 0.05063 0.07511 0.38014 0.0
C2612 C 0.93581 0.0727 0.36215 0.0
C2613 C 0.92658 0.07506 0.37847 0.0
C2614 C 0.95496 0.05764 0.36084 0.0
C2615 C 0.96528 0.044 0.37578 0.0
C2616 C 0.9561 0.04771 0.39206 0.0
C2617 C 0.93704 0.06225 0.39334 0.0
C2618 C 0.98535 0.02488 0.3746 0.0
C2619 C 0.99976 0.04907 0.36576 0.0
C2620 C 0.99062 0.98391 0.3831 0.0
C2621 C 0.9761 0.95395 0.39123 0.0
C2622 C 0.9781 0.93998 0.40866 0.0
C2623 C 0.9643 0.91215 0.41635 0.0
C2624 C 0.94849 0.89788 0.40671 0.0
C2625 C 0.94647 0.91126 0.38933 0.0
C2626 C 0.96024 0.93902 0.38157 0.0
C2627 C 0.07263 0.96124 0.39489 0.0
C2628 C 0.08387 0.95075 0.38021 0.0
C2629 C 0.05342 0.97444 0.39315 0.0
C2630 C 0.04492 0.97897 0.37662 0.0
C2631 C 0.05615 0.96865 0.36185 0.0
C2632 C 0.07538 0.95467 0.36362 0.0
C2633 C 0.02445 0.99495 0.37513 0.0
C2634 C 0.00997 0.97006 0.38348 0.0
C2635 C 0.01912 0.03479 0.36595 0.0
C2636 C 0.03355 0.06328 0.35703 0.0
C2637 C 0.0317 0.07289 0.33916 0.0
C2638 C 0.04535 0.09952 0.33066 0.0
C2639 C 0.06087 0.11694 0.33993 0.0
C2640 C 0.06272 0.10792 0.35774 0.0
C2641 C 0.04909 0.08138 0.3663 0.0
H2642 H 0.07143 0.13751 0.33333 0.0
H2643 H 0.93782 0.87639 0.4127 0.0
H2644 H 0.08671 0.0698 0.8495 0.0
H2645 H 0.05436 0.04023 0.84735 0.0
H2646 H 0.04642 0.06285 0.90258 0.0
H2647 H 0.07975 0.08507 0.90488 0.0
H2648 H 0.03104 0.99539 0.89926 0.0
H2649 H 0.01083 0.12303 0.85356 0.0
H2650 H 0.01451 0.15979 0.82471 0.0
H2651 H 0.02914 0.03208 0.80174 0.0
H2652 H 0.02424 0.99419 0.83011 0.0
H2653 H 0.93103 0.97143 0.90752 0.0
H2654 H 0.96412 0.99568 0.9052 0.0
H2655 H 0.96544 0.95211 0.85153 0.0
H2656 H 0.93144 0.93226 0.85347 0.0
H2657 H 0.98469 0.02016 0.85155 0.0
H2658 H 0.99484 0.89359 0.89091 0.0
H2659 H 0.98968 0.84529 0.91685 0.0
H2660 H 0.99654 0.96084 0.95013 0.0
H2661 H 1.0021 1.00938 0.92439 0.0
C2662 C 0.07786 0.06905 0.8611 0.0
C2663 C 0.08576 0.08079 0.87733 0.0
C2664 C 0.05893 0.05256 0.85986 0.0
C2665 C 0.04691 0.04929 0.8747 0.0
C2666 C 0.05488 0.0634 0.89075 0.0
C2667 C 0.07405 0.07706 0.89212 0.0
C2668 C 0.02688 0.02831 0.87437 0.0
C2669 C 0.02094 1.00241 0.8889 0.0
C2670 C 0.01343 0.03287 0.86051 0.0
C2671 C 0.01783 0.05619 0.84399 0.0
C2672 C 0.01508 0.10302 0.84238 0.0
C2673 C 0.0172 0.12394 0.82611 0.0
C2674 C 0.02252 0.09853 0.81153 0.0
C2675 C 0.02523 0.05186 0.81307 0.0
C2676 C 0.02255 0.03057 0.82916 0.0
C2677 C 0.93841 0.96647 0.89524 0.0
C2678 C 0.92857 0.94833 0.88086 0.0
C2679 C 0.95764 0.97986 0.89397 0.0
C2680 C 0.96807 0.97458 0.87836 0.0
C2681 C 0.95816 0.9565 0.86388 0.0
C2682 C 0.93866 0.94428 0.86504 0.0
C2683 C 0.98873 0.99046 0.87694 0.0
C2684 C 0.99478 0.01456 0.86206 0.0
C2685 C 1.00244 0.98363 0.89033 0.0
C2686 C 0.99848 0.95503 0.90576 0.0
C2687 C 0.99497 0.90859 0.90376 0.0
C2688 C 0.99211 0.88121 0.91842 0.0
C2689 C 0.99254 0.90008 0.93511 0.0
C2690 C 0.99609 0.94629 0.93719 0.0
C2691 C 0.99922 0.97367 0.92259 0.0
H2692 H 0.99026 0.87885 0.94643 0.0
H2693 H 0.0243 0.11493 0.79901 0.0
H2694 H 0.93096 0.06252 0.59181 0.0
H2695 H 0.96458 0.04065 0.5944 0.0
H2696 H 0.96052 0.0504 0.65036 0.0
H2697 H 0.92664 0.07256 0.64772 0.0
H2698 H 0.99569 0.08361 0.60768 0.0
H2699 H 0.99224 0.96816 0.66773 0.0
H2700 H 0.96881 0.9218 0.68385 0.0
H2701 H 0.93679 0.90127 0.6368 0.0
H2702 H 0.96017 0.94692 0.62036 0.0
H2703 H 0.08329 0.94984 0.6475 0.0
H2704 H 0.0497 0.97414 0.64997 0.0
H2705 H 0.04619 0.98364 0.59395 0.0
H2706 H 0.07964 0.96047 0.59157 0.0
H2707 H 0.01536 0.94554 0.63991 0.0
H2708 H 0.01837 0.06861 0.58076 0.0
H2709 H 0.04195 0.11681 0.56568 0.0
H2710 H 0.07519 0.12558 0.61257 0.0
H2711 H 0.05169 0.07799 0.628 0.0
C2712 C 0.93728 0.06052 0.60468 0.0
C2713 C 0.92623 0.0706 0.6195 0.0
C2714 C 0.95656 0.04796 0.60616 0.0
C2715 C 0.96532 0.04365 0.62257 0.0
C2716 C 0.95423 0.05318 0.63751 0.0
C2717 C 0.93488 0.06629 0.636 0.0
C2718 C 0.9859 0.02858 0.62373 0.0
C2719 C 0.99991 0.05318 0.61462 0.0
C2720 C 0.99177 0.98971 0.63324 0.0
C2721 C 0.97782 0.96144 0.64288 0.0
C2722 C 0.98023 0.95362 0.66082 0.0
C2723 C 0.96696 0.92747 0.67002 0.0
C2724 C 0.95128 0.90876 0.66137 0.0
C2725 C 0.94889 0.91594 0.6435 0.0
C2726 C 0.96214 0.94199 0.63424 0.0
C2727 C 0.07523 0.95649 0.63573 0.0
C2728 C 0.08409 0.95253 0.6193 0.0
C2729 C 0.056 0.97061 0.63714 0.0
C2730 C 0.04525 0.98173 0.62217 0.0
C2731 C 0.05406 0.97645 0.60578 0.0
C2732 C 0.07323 0.96279 0.6044 0.0
C2733 C 0.02511 1.00003 0.62349 0.0
C2734 C 0.0112 0.97615 0.63307 0.0
C2735 C 0.01932 0.03995 0.61457 0.0
C2736 C 0.03334 0.06937 0.60549 0.0
C2737 C 0.03066 0.08102 0.58788 0.0
C2738 C 0.04402 0.1082 0.57926 0.0
C2739 C 0.06008 0.12414 0.58814 0.0
C2740 C 0.06277 0.1131 0.60569 0.0
C2741 C 0.04944 0.08599 0.61437 0.0
H2742 H 0.07042 0.14511 0.58144 0.0
H2743 H 0.941 0.88861 0.66852 0.0
H2744 H 0.43275 0.46698 0.08965 0.0
H2745 H 0.46633 0.48825 0.0916 0.0
H2746 H 0.46545 0.46201 0.1469 0.0
H2747 H 0.43128 0.44312 0.14504 0.0
H2748 H 0.4829 0.53741 0.14179 0.0
H2749 H 0.50449 0.38859 0.11615 0.0
H2750 H 0.50137 0.32559 0.09513 0.0
H2751 H 0.49599 0.42109 0.05315 0.0
H2752 H 0.49923 0.48433 0.07401 0.0
H2753 H 0.5854 0.57926 0.14731 0.0
H2754 H 0.55222 0.55339 0.14938 0.0
H2755 H 0.54785 0.55636 0.09325 0.0
H2756 H 0.58142 0.57781 0.09132 0.0
H2757 H 0.53347 0.48559 0.10125 0.0
H2758 H 0.50676 0.63486 0.12791 0.0
H2759 H 0.50533 0.69551 0.14996 0.0
H2760 H 0.52068 0.60045 0.18998 0.0
H2761 H 0.52107 0.53881 0.16824 0.0
C2762 C 0.4398 0.46486 0.10219 0.0
C2763 C 0.42936 0.45207 0.11709 0.0
C2764 C 0.45922 0.47652 0.10327 0.0
C2765 C 0.46901 0.47557 0.1193 0.0
C2766 C 0.45855 0.46263 0.13427 0.0
C2767 C 0.43898 0.45133 0.1332 0.0
C2768 C 0.48941 0.49231 0.1206 0.0
C2769 C 0.494 0.52553 0.13302 0.0
C2770 C 0.50415 0.47815 0.10912 0.0
C2771 C 0.5014 0.4408 0.09664 0.0
C2772 C 0.50227 0.39588 0.10246 0.0
C2773 C 0.50071 0.36024 0.09057 0.0
C2774 C 0.49827 0.36933 0.07283 0.0
C2775 C 0.49769 0.41408 0.06691 0.0
C2776 C 0.49946 0.44979 0.07875 0.0
C2777 C 0.57717 0.57524 0.13546 0.0
C2778 C 0.58605 0.58103 0.11913 0.0
C2779 C 0.55794 0.56082 0.13662 0.0
C2780 C 0.54687 0.55307 0.1215 0.0
C2781 C 0.55572 0.56125 0.10525 0.0
C2782 C 0.575 0.57398 0.1041 0.0
C2783 C 0.52698 0.53235 0.12206 0.0
C2784 C 0.52247 0.49791 0.11002 0.0
C2785 C 0.51232 0.54561 0.13386 0.0
C2786 C 0.51465 0.5828 0.14642 0.0
C2787 C 0.51015 0.62717 0.14138 0.0
C2788 C 0.5092 0.6615 0.15385 0.0
C2789 C 0.51317 0.65198 0.17134 0.0
C2790 C 0.51779 0.60789 0.17642 0.0
C2791 C 0.51819 0.57318 0.16406 0.0
H2792 H 0.51257 0.67873 0.18095 0.0
H2793 H 0.49697 0.34171 0.06365 0.0
H2794 H 0.4292 0.56655 0.40585 0.0
H2795 H 0.46252 0.5428 0.40456 0.0
H2796 H 0.46392 0.57341 0.34959 0.0
H2797 H 0.42992 0.59443 0.35075 0.0
H2798 H 0.48132 0.49995 0.35317 0.0
H2799 H 0.49842 0.64061 0.38499 0.0
H2800 H 0.49453 0.69756 0.40835 0.0
H2801 H 0.49382 0.59168 0.44675 0.0
H2802 H 0.49792 0.53448 0.42356 0.0
H2803 H 0.58342 0.45149 0.34974 0.0
H2804 H 0.55053 0.47963 0.34754 0.0
H2805 H 0.54447 0.46821 0.4034 0.0
H2806 H 0.57773 0.44442 0.40555 0.0
H2807 H 0.52996 0.53892 0.39744 0.0
H2808 H 0.505 0.39805 0.36505 0.0
H2809 H 0.50373 0.34242 0.34111 0.0
H2810 H 0.51871 0.44607 0.3043 0.0
H2811 H 0.5192 0.50263 0.32798 0.0
C2812 C 0.43668 0.56903 0.39351 0.0
C2813 C 0.42686 0.58376 0.37852 0.0
C2814 C 0.45601 0.55588 0.39281 0.0
C2815 C 0.46645 0.55726 0.37709 0.0
C2816 C 0.4566 0.57216 0.36202 0.0
C2817 C 0.43709 0.58482 0.36269 0.0
C2818 C 0.48688 0.53949 0.37613 0.0
C2819 C 0.49199 0.50916 0.36277 0.0
C2820 C 0.50111 0.54977 0.38871 0.0
C2821 C 0.49791 0.58354 0.40257 0.0
C2822 C 0.49709 0.6297 0.3984 0.0
C2823 C 0.49506 0.66194 0.41161 0.0
C2824 C 0.49372 0.64822 0.42901 0.0
C2825 C 0.49471 0.60226 0.43326 0.0
C2826 C 0.49699 0.56997 0.42011 0.0
C2827 C 0.5749 0.45429 0.36149 0.0
C2828 C 0.58328 0.44531 0.37784 0.0
C2829 C 0.5558 0.47008 0.36024 0.0
C2830 C 0.54427 0.47619 0.37527 0.0
C2831 C 0.55263 0.46493 0.39147 0.0
C2832 C 0.57178 0.45077 0.39274 0.0
C2833 C 0.5244 0.49782 0.37475 0.0
C2834 C 0.51938 0.52932 0.38782 0.0
C2835 C 0.51023 0.48831 0.36197 0.0
C2836 C 0.51285 0.45398 0.3483 0.0
C2837 C 0.50844 0.40865 0.35189 0.0
C2838 C 0.50758 0.37716 0.33834 0.0
C2839 C 0.51154 0.39049 0.32122 0.0
C2840 C 0.51601 0.43559 0.31759 0.0
C2841 C 0.51641 0.46744 0.33103 0.0
H2842 H 0.51096 0.36597 0.31077 0.0
H2843 H 0.49206 0.67321 0.43921 0.0
H2844 H 0.43038 0.43363 0.84978 0.0
H2845 H 0.46444 0.45363 0.84774 0.0
H2846 H 0.4646 0.48596 0.90256 0.0
H2847 H 0.43138 0.46254 0.90478 0.0
H2848 H 0.48292 0.52475 0.85021 0.0
H2849 H 0.49938 0.49297 0.92101 0.0
H2850 H 0.49534 0.43651 0.94452 0.0
H2851 H 0.49617 0.32941 0.90672 0.0
H2852 H 0.50009 0.38563 0.88306 0.0
H2853 H 0.57868 0.57931 0.90328 0.0
H2854 H 0.54537 0.55718 0.90047 0.0
H2855 H 0.55315 0.54294 0.84489 0.0
H2856 H 0.58584 0.57112 0.84767 0.0
H2857 H 0.53148 0.48649 0.89471 0.0
H2858 H 0.52475 0.51405 0.82633 0.0
H2859 H 0.52634 0.56451 0.80066 0.0
H2860 H 0.50469 0.6745 0.83145 0.0
H2861 H 0.504 0.62516 0.85747 0.0
C2862 C 0.43794 0.44335 0.8615 0.0
C2863 C 0.42823 0.44477 0.87758 0.0
C2864 C 0.45746 0.45545 0.86032 0.0
C2865 C 0.46777 0.47035 0.8751 0.0
C2866 C 0.45777 0.47258 0.89104 0.0
C2867 C 0.43848 0.45971 0.89227 0.0
C2868 C 0.48829 0.48695 0.8737 0.0
C2869 C 0.49355 0.51595 0.85994 0.0
C2870 C 0.50257 0.47651 0.88623 0.0
C2871 C 0.49937 0.44324 0.9003 0.0
C2872 C 0.49847 0.45737 0.91776 0.0
C2873 C 0.49623 0.4255 0.93109 0.0
C2874 C 0.49528 0.37941 0.92711 0.0
C2875 C 0.49665 0.36514 0.90978 0.0
C2876 C 0.49865 0.39696 0.8964 0.0
C2877 C 0.57302 0.57314 0.89035 0.0
C2878 C 0.58485 0.5784 0.87569 0.0
C2879 C 0.55386 0.55977 0.8887 0.0
C2880 C 0.54592 0.54812 0.87238 0.0
C2881 C 0.55791 0.55331 0.85761 0.0
C2882 C 0.57695 0.56897 0.85921 0.0
C2883 C 0.52608 0.5266 0.87167 0.0
C2884 C 0.52092 0.49607 0.88504 0.0
C2885 C 0.51199 0.53553 0.8587 0.0
C2886 C 0.51514 0.5666 0.84394 0.0
C2887 C 0.5209 0.54939 0.82769 0.0
C2888 C 0.52163 0.57774 0.8131 0.0
C2889 C 0.51588 0.62288 0.81448 0.0
C2890 C 0.50945 0.63972 0.83046 0.0
C2891 C 0.50923 0.61184 0.84521 0.0
H2892 H 0.51624 0.6447 0.80314 0.0
H2893 H 0.49364 0.35475 0.93744 0.0
H2894 H 0.4283 0.58809 0.64511 0.0
H2895 H 0.46233 0.56753 0.64707 0.0
H2896 H 0.46344 0.544 0.59159 0.0
H2897 H 0.43012 0.56712 0.58958 0.0
H2898 H 0.48016 0.49461 0.64266 0.0
H2899 H 0.49966 0.54176 0.57336 0.0
H2900 H 0.4965 0.60364 0.55184 0.0
H2901 H 0.49471 0.70103 0.59334 0.0
H2902 H 0.49767 0.63937 0.61502 0.0
H2903 H 0.57671 0.4431 0.59054 0.0
H2904 H 0.54342 0.46667 0.59301 0.0
H2905 H 0.54971 0.47593 0.64887 0.0
H2906 H 0.58266 0.44835 0.64636 0.0
H2907 H 0.53004 0.53955 0.60024 0.0
H2908 H 0.51854 0.4951 0.66831 0.0
H2909 H 0.51863 0.43617 0.6912 0.0
H2910 H 0.50294 0.33622 0.65322 0.0
H2911 H 0.50379 0.3942 0.63004 0.0
C2912 C 0.43603 0.58008 0.63328 0.0
C2913 C 0.42653 0.58068 0.6171 0.0
C2914 C 0.45554 0.56775 0.63439 0.0
C2915 C 0.46605 0.55496 0.61941 0.0
C2916 C 0.45636 0.55539 0.60333 0.0
C2917 C 0.43705 0.56818 0.6022 0.0
C2918 C 0.48643 0.53742 0.62066 0.0
C2919 C 0.4911 0.50512 0.63348 0.0
C2920 C 0.50103 0.54971 0.60869 0.0
C2921 C 0.49835 0.58621 0.59576 0.0
C2922 C 0.49838 0.57639 0.57784 0.0
C2923 C 0.49663 0.61133 0.56564 0.0
C2924 C 0.49522 0.65622 0.57122 0.0
C2925 C 0.49559 0.66622 0.58903 0.0
C2926 C 0.49708 0.63132 0.60127 0.0
C2927 C 0.57078 0.4488 0.60341 0.0
C2928 C 0.58233 0.44311 0.61824 0.0
C2929 C 0.55165 0.46276 0.60486 0.0
C2930 C 0.54342 0.47337 0.62117 0.0
C2931 C 0.55496 0.4668 0.63611 0.0
C2932 C 0.57405 0.45133 0.63468 0.0
C2933 C 0.52372 0.4953 0.62188 0.0
C2934 C 0.51916 0.52878 0.60943 0.0
C2935 C 0.5093 0.48417 0.63424 0.0
C2936 C 0.51179 0.4485 0.64745 0.0
C2937 C 0.51564 0.46025 0.66483 0.0
C2938 C 0.51552 0.42708 0.67783 0.0
C2939 C 0.51095 0.38239 0.67365 0.0
C2940 C 0.50673 0.37072 0.65642 0.0
C2941 C 0.50735 0.40353 0.6433 0.0
H2942 H 0.51058 0.35683 0.68376 0.0
H2943 H 0.49397 0.68326 0.56176 0.0
H2944 H 0.13575 0.82132 0.10829 0.0
H2945 H 0.127 0.74108 0.1094 0.0
H2946 H 0.17722 0.7127 0.14007 0.0
H2947 H 0.18592 0.79263 0.13919 0.0
H2948 H 0.17364 0.65185 0.11433 0.0
H2949 H 0.13306 0.71402 0.15862 0.0
H2950 H 0.10902 0.76603 0.17093 0.0
H2951 H 0.0676 0.71912 0.13387 0.0
H2952 H 0.09149 0.66724 0.12117 0.0
H2953 H 0.14698 0.42678 0.14076 0.0
H2954 H 0.15721 0.50613 0.13905 0.0
H2955 H 0.10612 0.53908 0.11023 0.0
H2956 H 0.09581 0.46033 0.11212 0.0
H2957 H 0.11069 0.59764 0.13541 0.0
H2958 H 0.15159 0.53502 0.09109 0.0
H2959 H 0.17578 0.48286 0.0791 0.0
H2960 H 0.21676 0.53012 0.11649 0.0
H2961 H 0.19272 0.58219 0.12886 0.0
C2962 C 0.14477 0.79813 0.11549 0.0
C2963 C 0.16159 0.81355 0.12357 0.0
C2964 C 0.1398 0.75217 0.11606 0.0
C2965 C 0.15145 0.72069 0.12483 0.0
C2966 C 0.16808 0.73614 0.1331 0.0
C2967 C 0.17304 0.78196 0.13256 0.0
C2968 C 0.1465 0.67159 0.12523 0.0
C2969 C 0.15995 0.63993 0.11913 0.0
C2970 C 0.12854 0.65595 0.13121 0.0
C2971 C 0.11413 0.68708 0.13883 0.0
C2972 C 0.11888 0.71506 0.153 0.0
C2973 C 0.10526 0.74447 0.16006 0.0
C2974 C 0.08681 0.74597 0.15316 0.0
C2975 C 0.08191 0.71797 0.13919 0.0
C2976 C 0.09548 0.68854 0.13206 0.0
C2977 C 0.13813 0.45086 0.13381 0.0
C2978 C 0.12054 0.43735 0.12668 0.0
C2979 C 0.14396 0.49625 0.13284 0.0
C2980 C 0.13244 0.52882 0.12449 0.0
C2981 C 0.1152 0.51486 0.11687 0.0
C2982 C 0.10933 0.46977 0.11794 0.0
C2983 C 0.13774 0.57777 0.12433 0.0
C2984 C 0.12437 0.60946 0.13055 0.0
C2985 C 0.15579 0.59336 0.11848 0.0
C2986 C 0.17028 0.56218 0.11102 0.0
C2987 C 0.16571 0.53405 0.09685 0.0
C2988 C 0.1794 0.50454 0.08997 0.0
C2989 C 0.19778 0.50308 0.09706 0.0
C2990 C 0.20251 0.53124 0.11102 0.0
C2991 C 0.18886 0.56079 0.11796 0.0
H2992 H 0.20836 0.48021 0.09172 0.0
H2993 H 0.07629 0.76876 0.15865 0.0
H2994 H 0.88135 0.20142 0.10489 0.0
H2995 H 0.89006 0.28153 0.10648 0.0
H2996 H 0.8457 0.30367 0.14465 0.0
H2997 H 0.8369 0.22375 0.14304 0.0
H2998 H 0.84457 0.36809 0.12064 0.0
H2999 H 0.89358 0.30103 0.15594 0.0
H3000 H 0.91983 0.24815 0.16274 0.0
H3001 H 0.95284 0.30208 0.12033 0.0
H3002 H 0.92667 0.3549 0.11312 0.0
H3003 H 0.87513 0.59036 0.14583 0.0
H3004 H 0.86531 0.51074 0.14474 0.0
H3005 H 0.90994 0.4833 0.10735 0.0
H3006 H 0.91993 0.56239 0.10862 0.0
H3007 H 0.91059 0.42152 0.13172 0.0
H3008 H 0.86137 0.48792 0.09614 0.0
H3009 H 0.83508 0.54067 0.08932 0.0
H3010 H 0.80246 0.48811 0.13223 0.0
H3011 H 0.82867 0.43542 0.13945 0.0
C3012 C 0.87365 0.22321 0.11381 0.0
C3013 C 0.85841 0.20616 0.12381 0.0
C3014 C 0.87861 0.26907 0.1147 0.0
C3015 C 0.8686 0.29875 0.12576 0.0
C3016 C 0.85358 0.28161 0.13594 0.0
C3017 C 0.84855 0.23587 0.135 0.0
C3018 C 0.87346 0.34784 0.12643 0.0
C3019 C 0.85896 0.37979 0.1233 0.0
C3020 C 0.8923 0.36324 0.12954 0.0
C3021 C 0.90809 0.33163 0.13389 0.0
C3022 C 0.90638 0.30139 0.14798 0.0
C3023 C 0.92125 0.27146 0.15193 0.0
C3024 C 0.93797 0.27168 0.14195 0.0
C3025 C 0.93987 0.30191 0.12804 0.0
C3026 C 0.92503 0.33188 0.12403 0.0
C3027 C 0.88262 0.56743 0.13718 0.0
C3028 C 0.89835 0.58258 0.12738 0.0
C3029 C 0.87702 0.5219 0.13657 0.0
C3030 C 0.88684 0.49084 0.12591 0.0
C3031 C 0.90221 0.50638 0.11576 0.0
C3032 C 0.9079 0.55164 0.11649 0.0
C3033 C 0.88173 0.44185 0.12578 0.0
C3034 C 0.89619 0.40988 0.12906 0.0
C3035 C 0.86285 0.42647 0.1228 0.0
C3036 C 0.84706 0.45804 0.11844 0.0
C3037 C 0.84865 0.48785 0.1042 0.0
C3038 C 0.83375 0.5177 0.10025 0.0
C3039 C 0.81713 0.51783 0.11036 0.0
C3040 C 0.81535 0.48802 0.12442 0.0
C3041 C 0.83022 0.45813 0.12844 0.0
H3042 H 0.80561 0.54096 0.10728 0.0
H3043 H 0.94947 0.24849 0.14502 0.0
H3044 H 0.1254 0.19984 0.38754 0.0
H3045 H 0.11704 0.2806 0.38577 0.0
H3046 H 0.17476 0.31167 0.37018 0.0
H3047 H 0.18305 0.23168 0.37154 0.0
H3048 H 0.16274 0.36487 0.39734 0.0
H3049 H 0.13874 0.3153 0.34124 0.0
H3050 H 0.11851 0.26899 0.32194 0.0
H3051 H 0.06813 0.32078 0.34698 0.0
H3052 H 0.0881 0.36699 0.3666 0.0
H3053 H 0.16658 0.58039 0.36022 0.0
H3054 H 0.16643 0.49988 0.3671 0.0
H3055 H 0.10634 0.50721 0.37938 0.0
H3056 H 0.10642 0.58863 0.37221 0.0
H3057 H 0.11446 0.4344 0.35828 0.0
H3058 H 0.1381 0.49143 0.41182 0.0
H3059 H 0.15812 0.53801 0.43119 0.0
H3060 H 0.20855 0.47197 0.41188 0.0
H3061 H 0.18887 0.42543 0.3922 0.0
C3062 C 0.1362 0.22381 0.38344 0.0
C3063 C 0.15498 0.20918 0.37993 0.0
C3064 C 0.13143 0.27002 0.38251 0.0
C3065 C 0.14533 0.30238 0.37801 0.0
C3066 C 0.16385 0.28754 0.37392 0.0
C3067 C 0.16857 0.24166 0.37475 0.0
C3068 C 0.14112 0.35192 0.37805 0.0
C3069 C 0.15223 0.38006 0.38874 0.0
C3070 C 0.1269 0.37176 0.36735 0.0
C3071 C 0.11492 0.34413 0.35553 0.0
C3072 C 0.12336 0.3165 0.34274 0.0
C3073 C 0.11194 0.29033 0.33172 0.0
C3074 C 0.09205 0.2918 0.33328 0.0
C3075 C 0.08354 0.31959 0.34582 0.0
C3076 C 0.0949 0.34579 0.35688 0.0
C3077 C 0.15336 0.56505 0.36459 0.0
C3078 C 0.13651 0.59088 0.36569 0.0
C3079 C 0.1533 0.51895 0.36858 0.0
C3080 C 0.1364 0.49729 0.37388 0.0
C3081 C 0.11956 0.52313 0.37535 0.0
C3082 C 0.11965 0.56967 0.37143 0.0
C3083 C 0.13656 0.44743 0.37715 0.0
C3084 C 0.12472 0.41921 0.36713 0.0
C3085 C 0.15005 0.42736 0.38855 0.0
C3086 C 0.16199 0.45508 0.40045 0.0
C3087 C 0.15347 0.48703 0.41161 0.0
C3088 C 0.16476 0.5134 0.42266 0.0
C3089 C 0.18459 0.50799 0.42275 0.0
C3090 C 0.19318 0.47612 0.4118 0.0
C3091 C 0.18196 0.44968 0.40071 0.0
H3092 H 0.19331 0.52846 0.43131 0.0
H3093 H 0.08323 0.27152 0.32474 0.0
H3094 H 0.86807 0.42735 0.35966 0.0
H3095 H 0.85754 0.50643 0.36207 0.0
H3096 H 0.91284 0.5435 0.38226 0.0
H3097 H 0.92316 0.46483 0.38042 0.0
H3098 H 0.88623 0.58805 0.39933 0.0
H3099 H 0.90006 0.56036 0.33861 0.0
H3100 H 0.8967 0.52086 0.31047 0.0
H3101 H 0.83703 0.55472 0.3091 0.0
H3102 H 0.83999 0.59395 0.33735 0.0
H3103 H 0.88236 0.82609 0.38623 0.0
H3104 H 0.89157 0.74624 0.38439 0.0
H3105 H 0.83654 0.71404 0.36242 0.0
H3106 H 0.82766 0.79374 0.36338 0.0
H3107 H 0.86218 0.66635 0.34649 0.0
H3108 H 0.84822 0.69518 0.40682 0.0
H3109 H 0.85131 0.73431 0.43507 0.0
H3110 H 0.91068 0.69792 0.4374 0.0
H3111 H 0.908 0.65905 0.40905 0.0
C3112 C 0.87787 0.45224 0.36487 0.0
C3113 C 0.89656 0.43969 0.36962 0.0
C3114 C 0.8719 0.4976 0.36608 0.0
C3115 C 0.88451 0.53138 0.37204 0.0
C3116 C 0.90285 0.51841 0.37751 0.0
C3117 C 0.90879 0.4733 0.37632 0.0
C3118 C 0.87898 0.58038 0.37222 0.0
C3119 C 0.88114 0.60521 0.38771 0.0
C3120 C 0.87197 0.60295 0.3572 0.0
C3121 C 0.87021 0.57967 0.34017 0.0
C3122 C 0.8862 0.55911 0.33236 0.0
C3123 C 0.88437 0.53682 0.31639 0.0
C3124 C 0.86665 0.53517 0.30802 0.0
C3125 C 0.85074 0.55596 0.3156 0.0
C3126 C 0.85249 0.57825 0.33159 0.0
C3127 C 0.87232 0.80218 0.38075 0.0
C3128 C 0.85413 0.81661 0.37518 0.0
C3129 C 0.87752 0.75627 0.37991 0.0
C3130 C 0.86461 0.72358 0.37363 0.0
C3131 C 0.84675 0.73823 0.36747 0.0
C3132 C 0.8416 0.78399 0.3682 0.0
C3133 C 0.86948 0.67415 0.37361 0.0
C3134 C 0.8672 0.64922 0.35813 0.0
C3135 C 0.87633 0.65146 0.38866 0.0
C3136 C 0.87795 0.67459 0.40574 0.0
C3137 C 0.86197 0.69579 0.41331 0.0
C3138 C 0.86364 0.71788 0.42934 0.0
C3139 C 0.88119 0.7187 0.438 0.0
C3140 C 0.8971 0.69731 0.43067 0.0
C3141 C 0.89551 0.67521 0.41463 0.0
H3142 H 0.88246 0.73583 0.45041 0.0
H3143 H 0.86527 0.51789 0.29566 0.0
H3144 H 0.8713 0.20337 0.88852 0.0
H3145 H 0.86633 0.28523 0.89118 0.0
H3146 H 0.89892 0.30701 0.84425 0.0
H3147 H 0.90336 0.22564 0.8411 0.0
H3148 H 0.91041 0.36445 0.87017 0.0
H3149 H 0.85151 0.31975 0.84375 0.0
H3150 H 0.8217 0.27615 0.84069 0.0
H3151 H 0.80183 0.32716 0.88988 0.0
H3152 H 0.83169 0.37059 0.89336 0.0
H3153 H 0.88679 0.59855 0.85584 0.0
H3154 H 0.89139 0.51664 0.85308 0.0
H3155 H 0.85754 0.4951 0.8993 0.0
H3156 H 0.85333 0.57657 0.90247 0.0
H3157 H 0.84668 0.43742 0.87378 0.0
H3158 H 0.90559 0.48204 0.90023 0.0
H3159 H 0.93542 0.52558 0.90332 0.0
H3160 H 0.95528 0.47461 0.85412 0.0
H3161 H 0.92542 0.43124 0.85062 0.0
C3162 C 0.87715 0.22536 0.87857 0.0
C3163 C 0.88793 0.20723 0.86468 0.0
C3164 C 0.87438 0.27241 0.88018 0.0
C3165 C 0.88233 0.30269 0.86797 0.0
C3166 C 0.8928 0.28469 0.85398 0.0
C3167 C 0.8954 0.23782 0.85226 0.0
C3168 C 0.88003 0.35304 0.86981 0.0
C3169 C 0.89645 0.38038 0.87073 0.0
C3170 C 0.86187 0.37417 0.87092 0.0
C3171 C 0.84394 0.34799 0.86892 0.0
C3172 C 0.84087 0.32133 0.854 0.0
C3173 C 0.82395 0.29672 0.85217 0.0
C3174 C 0.80991 0.29877 0.86511 0.0
C3175 C 0.81274 0.32553 0.87989 0.0
C3176 C 0.82966 0.35017 0.88179 0.0
C3177 C 0.88056 0.57659 0.86561 0.0
C3178 C 0.86954 0.59483 0.87932 0.0
C3179 C 0.88313 0.5295 0.86396 0.0
C3180 C 0.87478 0.49926 0.87596 0.0
C3181 C 0.86399 0.51737 0.88974 0.0
C3182 C 0.86154 0.56429 0.89148 0.0
C3183 C 0.87706 0.44886 0.87414 0.0
C3184 C 0.86064 0.4215 0.87323 0.0
C3185 C 0.89522 0.4277 0.87304 0.0
C3186 C 0.91317 0.45381 0.87507 0.0
C3187 C 0.91624 0.48045 0.88999 0.0
C3188 C 0.93317 0.50503 0.89183 0.0
C3189 C 0.94721 0.50298 0.8789 0.0
C3190 C 0.94437 0.47624 0.86411 0.0
C3191 C 0.92745 0.45163 0.8622 0.0
H3192 H 0.96032 0.52201 0.88035 0.0
H3193 H 0.7968 0.27972 0.86366 0.0
H3194 H 0.09146 0.4673 0.88419 0.0
H3195 H 0.1013 0.54646 0.88434 0.0
H3196 H 0.15195 0.51186 0.85517 0.0
H3197 H 0.14211 0.43195 0.855 0.0
H3198 H 0.15961 0.5752 0.88011 0.0
H3199 H 0.11329 0.5577 0.83474 0.0
H3200 H 0.0825 0.53445 0.82199 0.0
H3201 H 0.05267 0.62309 0.85705 0.0
H3202 H 0.08328 0.64638 0.87019 0.0
H3203 H 0.18124 0.79842 0.85352 0.0
H3204 H 0.17225 0.71865 0.8531 0.0
H3205 H 0.12066 0.75001 0.88143 0.0
H3206 H 0.12963 0.83037 0.88186 0.0
H3207 H 0.11378 0.68795 0.85648 0.0
H3208 H 0.16 0.70489 0.90207 0.0
H3209 H 0.19074 0.7279 0.91498 0.0
H3210 H 0.22073 0.6403 0.87965 0.0
H3211 H 0.19017 0.61725 0.86635 0.0
C3212 C 0.10474 0.4764 0.87782 0.0
C3213 C 0.11584 0.44327 0.86933 0.0
C3214 C 0.11034 0.52181 0.8779 0.0
C3215 C 0.12714 0.53554 0.8694 0.0
C3216 C 0.13884 0.50225 0.86171 0.0
C3217 C 0.13324 0.45653 0.86167 0.0
C3218 C 0.13206 0.58472 0.86821 0.0
C3219 C 0.1497 0.59973 0.8747 0.0
C3220 C 0.119 0.61712 0.86152 0.0
C3221 C 0.10057 0.60348 0.85355 0.0
C3222 C 0.10015 0.572 0.83981 0.0
C3223 C 0.08273 0.55884 0.83251 0.0
C3224 C 0.06563 0.5772 0.83873 0.0
C3225 C 0.06592 0.60886 0.85225 0.0
C3226 C 0.08331 0.62208 0.85962 0.0
C3227 C 0.16795 0.78845 0.85967 0.0
C3228 C 0.15629 0.82087 0.86794 0.0
C3229 C 0.16284 0.74269 0.85944 0.0
C3230 C 0.14598 0.72789 0.86758 0.0
C3231 C 0.13382 0.76041 0.87515 0.0
C3232 C 0.13892 0.80643 0.87533 0.0
C3233 C 0.14131 0.67851 0.86843 0.0
C3234 C 0.12371 0.66344 0.86187 0.0
C3235 C 0.15441 0.64607 0.87506 0.0
C3236 C 0.1728 0.65968 0.8831 0.0
C3237 C 0.17316 0.69079 0.89696 0.0
C3238 C 0.19055 0.7038 0.90436 0.0
C3239 C 0.20768 0.68567 0.89811 0.0
C3240 C 0.20745 0.65437 0.88447 0.0
C3241 C 0.1901 0.64129 0.877 0.0
H3242 H 0.22113 0.69578 0.90386 0.0
H3243 H 0.05216 0.56697 0.83306 0.0
H3244 H 0.87958 0.81599 0.6088 0.0
H3245 H 0.8894 0.73645 0.6098 0.0
H3246 H 0.84125 0.70574 0.6429 0.0
H3247 H 0.83181 0.78526 0.64252 0.0
H3248 H 0.87168 0.66136 0.65393 0.0
H3249 H 0.84094 0.68289 0.59852 0.0
H3250 H 0.83572 0.71884 0.56988 0.0
H3251 H 0.89263 0.68265 0.55417 0.0
H3252 H 0.89827 0.64701 0.58282 0.0
H3253 H 0.87246 0.42209 0.64343 0.0
H3254 H 0.86244 0.50159 0.64232 0.0
H3255 H 0.91124 0.53318 0.61015 0.0
H3256 H 0.92098 0.45382 0.61079 0.0
H3257 H 0.88038 0.57695 0.59861 0.0
H3258 H 0.9111 0.55557 0.65406 0.0
H3259 H 0.91629 0.51962 0.6827 0.0
H3260 H 0.85931 0.55549 0.69832 0.0
H3261 H 0.85369 0.59113 0.66966 0.0
C3262 C 0.87124 0.79246 0.6165 0.0
C3263 C 0.85478 0.80708 0.62543 0.0
C3264 C 0.87675 0.74682 0.61691 0.0
C3265 C 0.86587 0.71477 0.62616 0.0
C3266 C 0.84983 0.72961 0.63556 0.0
C3267 C 0.84435 0.77514 0.6352 0.0
C3268 C 0.87094 0.6657 0.6259 0.0
C3269 C 0.87334 0.64282 0.64182 0.0
C3270 C 0.87348 0.64147 0.61013 0.0
C3271 C 0.87009 0.66269 0.59288 0.0
C3272 C 0.85238 0.68289 0.58901 0.0
C3273 C 0.84934 0.70317 0.57277 0.0
C3274 C 0.86385 0.70313 0.56023 0.0
C3275 C 0.88142 0.68271 0.5639 0.0
C3276 C 0.88454 0.66244 0.58013 0.0
C3277 C 0.88089 0.44585 0.63591 0.0
C3278 C 0.89763 0.43159 0.62734 0.0
C3279 C 0.87526 0.4914 0.63543 0.0
C3280 C 0.88626 0.52365 0.62639 0.0
C3281 C 0.90256 0.50912 0.6173 0.0
C3282 C 0.9082 0.46372 0.6178 0.0
C3283 C 0.8811 0.57265 0.62663 0.0
C3284 C 0.87869 0.5955 0.61072 0.0
C3285 C 0.87854 0.59685 0.6424 0.0
C3286 C 0.88191 0.57559 0.65965 0.0
C3287 C 0.89962 0.55548 0.66355 0.0
C3288 C 0.90265 0.53521 0.6798 0.0
C3289 C 0.88812 0.53516 0.6923 0.0
C3290 C 0.87054 0.55549 0.6886 0.0
C3291 C 0.86743 0.57575 0.67237 0.0
H3292 H 0.89049 0.51946 0.70487 0.0
H3293 H 0.86147 0.71885 0.54767 0.0
H3294 H 0.12441 0.20269 0.61534 0.0
H3295 H 0.11463 0.28245 0.61689 0.0
H3296 H 0.16793 0.31573 0.64192 0.0
H3297 H 0.17745 0.23633 0.6409 0.0
H3298 H 0.14037 0.36294 0.65638 0.0
H3299 H 0.16023 0.33328 0.59744 0.0
H3300 H 0.15977 0.29366 0.56916 0.0
H3301 H 0.10095 0.33075 0.562 0.0
H3302 H 0.10099 0.37012 0.59036 0.0
H3303 H 0.13901 0.60149 0.64205 0.0
H3304 H 0.14846 0.52147 0.64065 0.0
H3305 H 0.09461 0.48876 0.61649 0.0
H3306 H 0.08536 0.5684 0.61746 0.0
H3307 H 0.12229 0.44126 0.60159 0.0
H3308 H 0.1026 0.47139 0.66053 0.0
H3309 H 0.10319 0.511 0.68881 0.0
H3310 H 0.16192 0.47308 0.69592 0.0
H3311 H 0.16175 0.43374 0.66756 0.0
C3312 C 0.13388 0.22689 0.62145 0.0
C3313 C 0.15183 0.21305 0.62779 0.0
C3314 C 0.12837 0.27265 0.62216 0.0
C3315 C 0.1407 0.30559 0.6292 0.0
C3316 C 0.15819 0.29133 0.6363 0.0
C3317 C 0.16367 0.2458 0.6356 0.0
C3318 C 0.1358 0.355 0.62879 0.0
C3319 C 0.13663 0.38008 0.64434 0.0
C3320 C 0.13059 0.37765 0.61319 0.0
C3321 C 0.13056 0.35423 0.5961 0.0
C3322 C 0.14716 0.33271 0.58989 0.0
C3323 C 0.14698 0.31034 0.57384 0.0
C3324 C 0.13032 0.30958 0.56382 0.0
C3325 C 0.11383 0.33131 0.5698 0.0
C3326 C 0.11393 0.35368 0.58585 0.0
C3327 C 0.12934 0.57735 0.63617 0.0
C3328 C 0.11134 0.59143 0.63004 0.0
C3329 C 0.13466 0.53146 0.63554 0.0
C3330 C 0.12211 0.49864 0.62876 0.0
C3331 C 0.10453 0.51309 0.6219 0.0
C3332 C 0.09921 0.55875 0.62256 0.0
C3333 C 0.12689 0.44919 0.62917 0.0
C3334 C 0.12604 0.42411 0.61362 0.0
C3335 C 0.1321 0.42656 0.64477 0.0
C3336 C 0.13222 0.45004 0.66185 0.0
C3337 C 0.11568 0.47179 0.66807 0.0
C3338 C 0.11593 0.49415 0.68412 0.0
C3339 C 0.1326 0.49466 0.69413 0.0
C3340 C 0.14903 0.47272 0.68814 0.0
C3341 C 0.14886 0.45036 0.67208 0.0
H3342 H 0.13276 0.51198 0.70656 0.0
H3343 H 0.13021 0.29224 0.55139 0.0
H3344 H 0.63433 0.93181 0.10694 0.0
H3345 H 0.64342 1.01195 0.10595 0.0
H3346 H 0.61341 0.03496 0.15432 0.0
H3347 H 0.60404 0.95533 0.15511 0.0
H3348 H 0.60359 0.09721 0.13206 0.0
H3349 H 0.66374 0.03551 0.15078 0.0
H3350 H 0.69187 0.98529 0.14932 0.0
H3351 H 0.70671 0.04048 0.0993 0.0
H3352 H 0.67852 0.09064 0.10036 0.0
H3353 H 0.63784 0.32249 0.14737 0.0
H3354 H 0.6293 0.24205 0.14885 0.0
H3355 H 0.65895 0.21848 0.10034 0.0
H3356 H 0.6677 0.29842 0.099 0.0
H3357 H 0.66905 0.15653 0.12282 0.0
H3358 H 0.60888 0.21769 0.10394 0.0
H3359 H 0.58072 0.26784 0.10526 0.0
H3360 H 0.5659 0.21355 0.15543 0.0
H3361 H 0.59413 0.16347 0.15451 0.0
C3362 C 0.63005 0.95381 0.11754 0.0
C3363 C 0.61845 0.93726 0.13108 0.0
C3364 C 0.63521 0.99971 0.11696 0.0
C3365 C 0.62914 0.02981 0.13008 0.0
C3366 C 0.61818 1.01274 0.14396 0.0
C3367 C 0.6129 0.96711 0.14445 0.0
C3368 C 0.63328 0.07941 0.12899 0.0
C3369 C 0.61797 0.11013 0.13029 0.0
C3370 C 0.65193 0.09658 0.12623 0.0
C3371 C 0.66892 0.06652 0.12558 0.0
C3372 C 0.67292 0.0367 0.13941 0.0
C3373 C 0.6889 1.00829 0.13866 0.0
C3374 C 0.70105 1.00961 0.1242 0.0
C3375 C 0.69728 0.03945 0.11048 0.0
C3376 C 0.68132 0.0679 0.11116 0.0
C3377 C 0.6422 0.30027 0.13687 0.0
C3378 C 0.6535 0.31683 0.12311 0.0
C3379 C 0.63736 0.2542 0.13773 0.0
C3380 C 0.64345 0.2239 0.12468 0.0
C3381 C 0.65419 0.24086 0.11065 0.0
C3382 C 0.65914 0.28667 0.10987 0.0
C3383 C 0.63937 0.1743 0.1259 0.0
C3384 C 0.65468 0.14359 0.12461 0.0
C3385 C 0.62072 0.15713 0.12867 0.0
C3386 C 0.60373 0.18716 0.12923 0.0
C3387 C 0.5997 0.2167 0.11531 0.0
C3388 C 0.58371 0.24506 0.11598 0.0
C3389 C 0.57156 0.24397 0.13044 0.0
C3390 C 0.57534 0.21441 0.14425 0.0
C3391 C 0.59132 0.186 0.14365 0.0
H3392 H 0.55919 0.26595 0.13093 0.0
H3393 H 0.7134 0.98759 0.12365 0.0
H3394 H 0.37765 0.70934 0.14516 0.0
H3395 H 0.38653 0.7896 0.1471 0.0
H3396 H 0.35826 0.81551 0.09816 0.0
H3397 H 0.34962 0.73556 0.09607 0.0
H3398 H 0.39119 0.86273 0.10025 0.0
H3399 H 0.33605 0.83831 0.13645 0.0
H3400 H 0.31752 0.80177 0.15992 0.0
H3401 H 0.35919 0.8442 0.19754 0.0
H3402 H 0.37812 0.88048 0.17424 0.0
H3403 H 0.38303 0.10212 0.10701 0.0
H3404 H 0.374 0.02198 0.10495 0.0
H3405 H 0.40142 0.99579 0.15428 0.0
H3406 H 0.41013 0.07563 0.15651 0.0
H3407 H 0.36886 0.94865 0.15196 0.0
H3408 H 0.42407 0.97284 0.11591 0.0
H3409 H 0.44282 1.00906 0.09252 0.0
H3410 H 0.40134 0.96681 0.0547 0.0
H3411 H 0.38218 0.93087 0.07792 0.0
C3412 C 0.37367 0.73201 0.13466 0.0
C3413 C 0.3628 0.71612 0.12053 0.0
C3414 C 0.37859 0.77798 0.13586 0.0
C3415 C 0.37278 0.80891 0.12292 0.0
C3416 C 0.36282 0.79254 0.10836 0.0
C3417 C 0.35782 0.74679 0.10722 0.0
C3418 C 0.37633 0.85853 0.12479 0.0
C3419 C 0.38612 0.88157 0.11147 0.0
C3420 C 0.37 0.88323 0.13954 0.0
C3421 C 0.3586 0.86169 0.15358 0.0
C3422 C 0.34133 0.83955 0.14971 0.0
C3423 C 0.33075 0.81893 0.16298 0.0
C3424 C 0.3372 0.82056 0.1802 0.0
C3425 C 0.35423 0.84291 0.18419 0.0
C3426 C 0.36488 0.86353 0.17096 0.0
C3427 C 0.38677 0.07943 0.11756 0.0
C3428 C 0.39743 0.09521 0.13184 0.0
C3429 C 0.38179 0.03351 0.11631 0.0
C3430 C 0.38733 1.0025 0.12932 0.0
C3431 C 0.39706 0.01879 0.14401 0.0
C3432 C 0.40211 0.06449 0.14523 0.0
C3433 C 0.38373 0.95289 0.12741 0.0
C3434 C 0.37393 0.92984 0.14072 0.0
C3435 C 0.39008 0.92817 0.11267 0.0
C3436 C 0.40159 0.9496 0.09868 0.0
C3437 C 0.41886 0.97159 0.10263 0.0
C3438 C 0.42958 0.99201 0.0894 0.0
C3439 C 0.42325 0.99035 0.07214 0.0
C3440 C 0.40621 0.96814 0.06808 0.0
C3441 C 0.39542 0.94772 0.08126 0.0
H3442 H 0.43156 1.00618 0.06192 0.0
H3443 H 0.32898 0.80458 0.19046 0.0
H3444 H 0.6429 0.0972 0.3603 0.0
H3445 H 0.65285 0.01762 0.36253 0.0
H3446 H 0.59804 0.9834 0.38466 0.0
H3447 H 0.58837 0.06254 0.38304 0.0
H3448 H 0.62455 0.93673 0.40057 0.0
H3449 H 0.60888 0.96694 0.34053 0.0
H3450 H 0.61147 1.00675 0.31234 0.0
H3451 H 0.67065 0.96929 0.30869 0.0
H3452 H 0.66846 0.92974 0.33698 0.0
H3453 H 0.6254 0.69881 0.38604 0.0
H3454 H 0.61666 0.77918 0.38422 0.0
H3455 H 0.6723 0.80998 0.36314 0.0
H3456 H 0.68086 0.72997 0.36445 0.0
H3457 H 0.64606 0.85859 0.34681 0.0
H3458 H 0.66142 0.82704 0.40672 0.0
H3459 H 0.6586 0.78701 0.43484 0.0
H3460 H 0.59971 0.8268 0.43867 0.0
H3461 H 0.60211 0.86657 0.41045 0.0
C3462 C 0.63313 0.07281 0.36594 0.0
C3463 C 0.61473 0.08623 0.37126 0.0
C3464 C 0.63874 0.02719 0.36703 0.0
C3465 C 0.62605 0.99407 0.37342 0.0
C3466 C 0.60808 1.00797 0.37956 0.0
C3467 C 0.60251 0.05334 0.3785 0.0
C3468 C 0.63103 0.94479 0.37328 0.0
C3469 C 0.62907 0.91964 0.38875 0.0
C3470 C 0.63724 0.92224 0.35798 0.0
C3471 C 0.63856 0.94581 0.34095 0.0
C3472 C 0.62248 0.96747 0.33377 0.0
C3473 C 0.62387 0.98995 0.31777 0.0
C3474 C 0.64123 0.99066 0.30875 0.0
C3475 C 0.65722 0.96878 0.3157 0.0
C3476 C 0.65591 0.94631 0.33171 0.0
C3477 C 0.63564 0.72261 0.38074 0.0
C3478 C 0.65391 0.70791 0.37558 0.0
C3479 C 0.63071 0.76868 0.37988 0.0
C3480 C 0.64395 0.801 0.37385 0.0
C3481 C 0.66186 0.78598 0.36795 0.0
C3482 C 0.66678 0.74013 0.36882 0.0
C3483 C 0.63949 0.85054 0.37408 0.0
C3484 C 0.64156 0.87571 0.35863 0.0
C3485 C 0.63334 0.87309 0.38939 0.0
C3486 C 0.6319 0.84939 0.40639 0.0
C3487 C 0.64783 0.82697 0.4135 0.0
C3488 C 0.64631 0.80438 0.42946 0.0
C3489 C 0.62897 0.80426 0.43851 0.0
C3490 C 0.61312 0.82686 0.43164 0.0
C3491 C 0.61456 0.84946 0.41566 0.0
H3492 H 0.62783 0.78675 0.45087 0.0
H3493 H 0.64228 1.00807 0.29637 0.0
H3494 H 0.37039 0.93398 0.3563 0.0
H3495 H 0.36041 0.0137 0.3575 0.0
H3496 H 0.41282 0.0477 0.38392 0.0
H3497 H 0.42256 0.96842 0.38314 0.0
H3498 H 0.38435 0.09445 0.39765 0.0
H3499 H 0.40692 0.06472 0.33951 0.0
H3500 H 0.40775 0.02507 0.31125 0.0
H3501 H 0.3493 0.06209 0.30186 0.0
H3502 H 0.34805 0.10147 0.3302 0.0
H3503 H 0.38399 0.33284 0.3832 0.0
H3504 H 0.39328 0.25269 0.38229 0.0
H3505 H 0.34067 0.22059 0.35585 0.0
H3506 H 0.33161 0.30036 0.35632 0.0
H3507 H 0.36887 0.17269 0.34218 0.0
H3508 H 0.34642 0.20309 0.40024 0.0
H3509 H 0.34563 0.24275 0.4285 0.0
H3510 H 0.40391 0.20447 0.43806 0.0
H3511 H 0.40511 0.16509 0.40972 0.0
C3512 C 0.37961 0.95834 0.36263 0.0
C3513 C 0.39738 0.94479 0.36943 0.0
C3514 C 0.37399 1.00405 0.36316 0.0
C3515 C 0.38602 0.03715 0.37051 0.0
C3516 C 0.40331 0.02315 0.37807 0.0
C3517 C 0.40892 0.9777 0.37752 0.0
C3518 C 0.38107 0.08649 0.36991 0.0
C3519 C 0.38116 0.11157 0.38548 0.0
C3520 C 0.37659 0.10909 0.35411 0.0
C3521 C 0.37733 0.08561 0.33705 0.0
C3522 C 0.3942 0.06411 0.33148 0.0
C3523 C 0.39476 0.04174 0.31544 0.0
C3524 C 0.37857 0.04095 0.30479 0.0
C3525 C 0.36181 0.06266 0.31014 0.0
C3526 C 0.36118 0.08503 0.32618 0.0
C3527 C 0.37456 0.3088 0.37694 0.0
C3528 C 0.35695 0.32311 0.37001 0.0
C3529 C 0.37979 0.26284 0.37659 0.0
C3530 C 0.36752 0.23016 0.36929 0.0
C3531 C 0.35036 0.24481 0.36167 0.0
C3532 C 0.34513 0.29055 0.36205 0.0
C3533 C 0.37218 0.18067 0.36992 0.0
C3534 C 0.37204 0.15556 0.35436 0.0
C3535 C 0.37663 0.15805 0.38572 0.0
C3536 C 0.37591 0.18155 0.40278 0.0
C3537 C 0.35911 0.20342 0.40831 0.0
C3538 C 0.35858 0.2258 0.42435 0.0
C3539 C 0.37473 0.22624 0.43505 0.0
C3540 C 0.39142 0.20417 0.42974 0.0
C3541 C 0.39203 0.18179 0.4137 0.0
H3542 H 0.37429 0.24358 0.44746 0.0
H3543 H 0.37903 0.02361 0.29237 0.0
H3544 H 0.33176 0.72992 0.86028 0.0
H3545 H 0.34068 0.8096 0.8591 0.0
H3546 H 0.39482 0.7781 0.88305 0.0
H3547 H 0.38568 0.69792 0.88471 0.0
H3548 H 0.37858 0.85056 0.89839 0.0
H3549 H 0.39154 0.80634 0.83953 0.0
H3550 H 0.38458 0.77219 0.81092 0.0
H3551 H 0.33825 0.8656 0.80344 0.0
H3552 H 0.34477 0.89993 0.83213 0.0
H3553 H 0.42346 0.06134 0.88213 0.0
H3554 H 0.41373 0.98229 0.88367 0.0
H3555 H 0.35993 0.01614 0.85953 0.0
H3556 H 0.36991 0.09575 0.85751 0.0
H3557 H 0.37554 0.94276 0.84437 0.0
H3558 H 0.36283 0.98763 0.9031 0.0
H3559 H 0.3699 0.02195 0.93165 0.0
H3560 H 0.41577 0.92743 0.93937 0.0
H3561 H 0.40915 0.89292 0.91074 0.0
C3562 C 0.34561 0.73981 0.86527 0.0
C3563 C 0.35796 0.70741 0.87269 0.0
C3564 C 0.35076 0.78549 0.86446 0.0
C3565 C 0.36849 0.8001 0.87088 0.0
C3566 C 0.38106 0.76775 0.87799 0.0
C3567 C 0.3759 0.72184 0.87879 0.0
C3568 C 0.37349 0.84931 0.87072 0.0
C3569 C 0.3782 0.87053 0.88652 0.0
C3570 C 0.37245 0.87591 0.85535 0.0
C3571 C 0.36854 0.85543 0.83806 0.0
C3572 C 0.37977 0.81938 0.83185 0.0
C3573 C 0.37592 0.80003 0.8156 0.0
C3574 C 0.36095 0.81664 0.80539 0.0
C3575 C 0.34983 0.85273 0.81138 0.0
C3576 C 0.35361 0.87218 0.82762 0.0
C3577 C 0.40949 0.05212 0.87721 0.0
C3578 C 0.39752 0.08496 0.86957 0.0
C3579 C 0.40388 1.0068 0.87822 0.0
C3580 C 0.38603 0.993 0.87181 0.0
C3581 C 0.37378 0.02586 0.86458 0.0
C3582 C 0.37942 0.07145 0.86357 0.0
C3583 C 0.38066 0.94401 0.87204 0.0
C3584 C 0.37588 0.92281 0.85625 0.0
C3585 C 0.38164 0.91743 0.88742 0.0
C3586 C 0.38559 0.93793 0.9047 0.0
C3587 C 0.37452 0.97436 0.91082 0.0
C3588 C 0.37843 0.99382 0.92704 0.0
C3589 C 0.3933 0.97695 0.9373 0.0
C3590 C 0.40427 0.94049 0.9314 0.0
C3591 C 0.40043 0.92093 0.91519 0.0
H3592 H 0.39631 0.99206 0.94985 0.0
H3593 H 0.358 0.80161 0.79282 0.0
H3594 H 0.67939 0.29163 0.85258 0.0
H3595 H 0.67025 0.21197 0.85191 0.0
H3596 H 0.62358 0.23969 0.88711 0.0
H3597 H 0.63301 0.31954 0.88822 0.0
H3598 H 0.6433 0.16586 0.89724 0.0
H3599 H 0.61552 0.2187 0.84399 0.0
H3600 H 0.61493 0.25701 0.81543 0.0
H3601 H 0.65723 0.16455 0.79597 0.0
H3602 H 0.65828 0.12605 0.82452 0.0
H3603 H 0.59385 0.95834 0.88677 0.0
H3604 H 0.60378 0.03746 0.88742 0.0
H3605 H 0.6508 1.00663 0.85302 0.0
H3606 H 0.64063 0.92715 0.85201 0.0
H3607 H 0.63135 0.08168 0.84241 0.0
H3608 H 0.65874 0.02836 0.89578 0.0
H3609 H 0.65902 0.99015 0.92437 0.0
H3610 H 0.61702 0.08372 0.9436 0.0
H3611 H 0.61629 0.12213 0.91503 0.0
C3612 C 0.66718 0.28083 0.86021 0.0
C3613 C 0.65698 0.31197 0.87053 0.0
C3614 C 0.66187 0.23528 0.85968 0.0
C3615 C 0.64614 0.21979 0.86936 0.0
C3616 C 0.63575 0.25086 0.87951 0.0
C3617 C 0.64105 0.29656 0.88002 0.0
C3618 C 0.64099 0.17091 0.86932 0.0
C3619 C 0.6404 0.14761 0.88527 0.0
C3620 C 0.63774 0.14675 0.85366 0.0
C3621 C 0.63711 0.16977 0.83646 0.0
C3622 C 0.62482 0.20676 0.83367 0.0
C3623 C 0.62438 0.22847 0.81747 0.0
C3624 C 0.63607 0.2133 0.80391 0.0
C3625 C 0.6482 0.1763 0.8065 0.0
C3626 C 0.64871 0.15449 0.82268 0.0
C3627 C 0.60633 0.96833 0.87935 0.0
C3628 C 0.6164 0.93647 0.86926 0.0
C3629 C 0.61208 0.01356 0.87985 0.0
C3630 C 0.62811 0.02803 0.87035 0.0
C3631 C 0.6384 0.99622 0.86046 0.0
C3632 C 0.63268 0.95077 0.86001 0.0
C3633 C 0.63362 0.07667 0.87034 0.0
C3634 C 0.63428 0.09992 0.85437 0.0
C3635 C 0.63689 0.10083 0.88599 0.0
C3636 C 0.63733 0.07787 0.9032 0.0
C3637 C 0.64945 0.04057 0.90606 0.0
C3638 C 0.64971 0.01891 0.92227 0.0
C3639 C 0.63801 0.03443 0.93578 0.0
C3640 C 0.62606 0.07171 0.93311 0.0
C3641 C 0.62573 0.09347 0.91692 0.0
H3642 H 0.63824 0.01762 0.94832 0.0
H3643 H 0.63571 0.23015 0.79137 0.0
H3644 H 0.39472 0.95346 0.6599 0.0
H3645 H 0.38624 0.03339 0.65651 0.0
H3646 H 0.37806 1.01305 0.60136 0.0
H3647 H 0.38642 0.9326 0.60476 0.0
H3648 H 0.40178 0.08644 0.60891 0.0
H3649 H 0.3403 0.03234 0.62582 0.0
H3650 H 0.3168 0.9913 0.64383 0.0
H3651 H 0.33071 0.07474 0.6878 0.0
H3652 H 0.35451 0.11589 0.67012 0.0
H3653 H 0.35774 0.29982 0.59082 0.0
H3654 H 0.366 0.21971 0.5941 0.0
H3655 H 0.37492 0.2398 0.64918 0.0
H3656 H 0.36681 0.32043 0.64587 0.0
H3657 H 0.35074 0.16652 0.6416 0.0
H3658 H 0.41229 0.22047 0.62462 0.0
H3659 H 0.43571 0.26152 0.60654 0.0
H3660 H 0.42156 0.17825 0.56259 0.0
H3661 H 0.39782 0.1371 0.58034 0.0
C3662 C 0.39077 0.96589 0.6471 0.0
C3663 C 0.39116 0.93684 0.63259 0.0
C3664 C 0.38593 1.01155 0.64518 0.0
C3665 C 0.38151 0.0293 0.62868 0.0
C3666 C 0.38142 1.0001 0.61421 0.0
C3667 C 0.38602 0.95413 0.61618 0.0
C3668 C 0.37802 0.07876 0.62653 0.0
C3669 C 0.39041 0.10383 0.61583 0.0
C3670 C 0.36357 0.10172 0.63596 0.0
C3671 C 0.34935 0.07689 0.64669 0.0
C3672 C 0.33849 0.04165 0.63938 0.0
C3673 C 0.32508 0.01843 0.64952 0.0
C3674 C 0.3223 0.03032 0.66696 0.0
C3675 C 0.3329 0.06552 0.67429 0.0
C3676 C 0.34635 0.08883 0.66422 0.0
C3677 C 0.3618 0.28728 0.60357 0.0
C3678 C 0.36172 0.31632 0.61809 0.0
C3679 C 0.36652 0.24152 0.60544 0.0
C3680 C 0.37107 0.22367 0.62189 0.0
C3681 C 0.37144 0.25284 0.63636 0.0
C3682 C 0.36699 0.2989 0.63445 0.0
C3683 C 0.3745 0.17418 0.62399 0.0
C3684 C 0.3621 0.14911 0.63468 0.0
C3685 C 0.38894 0.15122 0.61453 0.0
C3686 C 0.40312 0.17602 0.60377 0.0
C3687 C 0.41403 0.21121 0.61105 0.0
C3688 C 0.42739 0.23443 0.60087 0.0
C3689 C 0.43008 0.22259 0.58341 0.0
C3690 C 0.41943 0.18743 0.57611 0.0
C3691 C 0.40603 0.16412 0.58623 0.0
H3692 H 0.44045 0.24059 0.57556 0.0
H3693 H 0.3119 1.01232 0.67478 0.0
H3694 H 0.62616 0.69994 0.60868 0.0
H3695 H 0.61716 0.78034 0.60975 0.0
H3696 H 0.66683 0.80859 0.64113 0.0
H3697 H 0.67566 0.7286 0.6403 0.0
H3698 H 0.63656 0.85615 0.65265 0.0
H3699 H 0.66715 0.82874 0.59753 0.0
H3700 H 0.6718 0.79079 0.56922 0.0
H3701 H 0.61569 0.83216 0.55307 0.0
H3702 H 0.6106 0.86983 0.58141 0.0
H3703 H 0.6389 0.09553 0.64089 0.0
H3704 H 0.64851 0.01549 0.63993 0.0
H3705 H 0.59971 0.98541 0.60767 0.0
H3706 H 0.59035 0.06499 0.60831 0.0
H3707 H 0.62991 0.93883 0.59665 0.0
H3708 H 0.59914 0.96561 0.65177 0.0
H3709 H 0.59433 1.00335 0.6801 0.0
H3710 H 0.65057 0.96306 0.69626 0.0
H3711 H 0.65581 0.92559 0.66791 0.0
C3712 C 0.63494 0.72321 0.61606 0.0
C3713 C 0.65171 0.70796 0.62427 0.0
C3714 C 0.6299 0.76923 0.61653 0.0
C3715 C 0.6415 0.8008 0.62529 0.0
C3716 C 0.65769 0.78511 0.63421 0.0
C3717 C 0.66277 0.73935 0.63366 0.0
C3718 C 0.63728 0.85036 0.62467 0.0
C3719 C 0.63531 0.87428 0.64039 0.0
C3720 C 0.63537 0.87414 0.60871 0.0
C3721 C 0.63842 0.85168 0.59165 0.0
C3722 C 0.65574 0.82943 0.58799 0.0
C3723 C 0.65847 0.80803 0.57194 0.0
C3724 C 0.64403 0.80896 0.55938 0.0
C3725 C 0.62685 0.8314 0.56283 0.0
C3726 C 0.62404 0.85281 0.57888 0.0
C3727 C 0.63046 0.07193 0.63334 0.0
C3728 C 0.61376 0.08654 0.62483 0.0
C3729 C 0.63583 0.02611 0.63293 0.0
C3730 C 0.62464 0.99409 0.62398 0.0
C3731 C 0.60854 1.0092 0.61475 0.0
C3732 C 0.60315 0.05475 0.61521 0.0
C3733 C 0.62914 0.94465 0.62463 0.0
C3734 C 0.63117 0.92073 0.60891 0.0
C3735 C 0.63108 0.92087 0.64059 0.0
C3736 C 0.62794 0.94324 0.65765 0.0
C3737 C 0.61053 0.96511 0.66131 0.0
C3738 C 0.60772 0.9864 0.67738 0.0
C3739 C 0.62215 0.98572 0.68995 0.0
C3740 C 0.63941 0.96363 0.68649 0.0
C3741 C 0.64231 0.94234 0.67043 0.0
H3742 H 0.61995 1.00221 0.70238 0.0
H3743 H 0.64617 0.79238 0.54695 0.0
loop_
_geom_bond_atom_site_label_1
_geom_bond_atom_site_label_2
_geom_bond_distance
_geom_bond_site_symmetry_2
_ccdc_geom_bond_type
Eu0 N31 2.657 . S
Eu0 N38 2.609 . S
Eu0 O44 2.556 . S
Eu0 O45 2.612 . S
Eu0 O47 2.339 . S
Eu0 O48 2.563 . S
Eu0 O49 2.419 1_545 S
Eu0 O51 2.380 . S
Eu0 O52 2.432 . S
Eu0 C64 2.848 1_545 S
C1 C4 1.429 . S
C1 C5 1.411 . S
C1 N8 1.377 . S
C2 C4 1.420 . S
C2 C6 1.423 . S
C2 C14 1.392 . S
C3 C5 1.420 . S
C3 C6 1.351 . S
C3 H26 0.931 . S
C4 C1 1.429 . S
C4 C2 1.420 . S
C4 N12 1.362 . S
C5 C1 1.411 . S
C5 C3 1.420 . S
C5 C10 1.395 . S
C6 C2 1.423 . S
C6 C3 1.351 . S
C6 H18 0.930 . S
C7 C9 1.400 . S
C7 C10 1.386 . S
C7 H19 0.930 . S
N8 C1 1.377 . S
N8 C9 1.321 . S
N8 Eu11 2.609 . S
C9 C7 1.400 . S
C9 N8 1.321 . S
C9 H16 0.930 . S
C10 C5 1.395 . S
C10 C7 1.386 . S
C10 H29 0.930 . S
Eu11 N8 2.609 . S
Eu11 N12 2.657 . S
Eu11 O45 2.380 . S
Eu11 O46 2.432 . S
Eu11 O50 2.558 . S
Eu11 O51 2.612 . S
Eu11 O53 2.339 . S
Eu11 O54 2.563 . S
Eu11 O55 2.419 . S
Eu11 C75 2.848 . S
N12 C4 1.362 . S
N12 Eu11 2.657 . S
N12 C13 1.334 . S
C13 N12 1.334 . S
C13 C15 1.413 . S
C13 H20 0.929 . S
C14 C2 1.392 . S
C14 C15 1.367 . S
C14 H22 0.930 . S
C15 C13 1.413 . S
C15 C14 1.367 . S
C15 H17 0.930 . S
H16 C9 0.930 . S
H17 C15 0.930 . S
H18 C6 0.930 . S
H19 C7 0.930 . S
H20 C13 0.929 . S
H21 C35 0.930 . S
H22 C14 0.930 . S
H23 C41 0.930 . S
H24 C32 0.929 . S
H25 C39 0.930 . S
H26 C3 0.931 . S
H27 C33 0.930 . S
H28 C66 0.930 . S
H29 C10 0.930 . S
H30 C65 0.931 . S
N31 Eu0 2.657 . S
N31 C32 1.334 . S
N31 C36 1.362 . S
C32 H24 0.929 . S
C32 N31 1.334 . S
C32 C35 1.413 . S
C33 H27 0.930 . S
C33 C34 1.392 . S
C33 C35 1.367 . S
C34 C33 1.392 . S
C34 C36 1.420 . S
C34 C66 1.423 . S
C35 H21 0.930 . S
C35 C32 1.413 . S
C35 C33 1.367 . S
C36 N31 1.362 . S
C36 C34 1.420 . S
C36 C40 1.429 . S
H37 C42 0.930 . S
N38 Eu0 2.609 . S
N38 C40 1.377 . S
N38 C41 1.321 . S
C39 H25 0.930 . S
C39 C41 1.400 . S
C39 C42 1.386 . S
C40 C36 1.429 . S
C40 N38 1.377 . S
C40 C43 1.411 . S
C41 H23 0.930 . S
C41 N38 1.321 . S
C41 C39 1.400 . S
C42 H37 0.930 . S
C42 C39 1.386 . S
C42 C43 1.395 . S
C43 C40 1.411 . S
C43 C42 1.395 . S
C43 C65 1.420 . S
O44 Eu0 2.556 . S
O44 C64 1.258 1_545 S
O45 Eu0 2.612 . S
O45 Eu11 2.380 . S
O45 C56 1.276 . S
O46 Eu11 2.432 . S
O46 C63 1.264 . S
O47 Eu0 2.339 . S
O47 C63 1.254 . S
O48 Eu0 2.563 . S
O48 C56 1.235 . S
O49 Eu0 2.419 1_565 S
O49 C64 1.249 . S
O50 Eu11 2.558 . S
O50 C75 1.257 . S
O51 Eu0 2.380 . S
O51 Eu11 2.612 . S
O51 C67 1.276 . S
O52 Eu0 2.432 . S
O52 C74 1.264 . S
O53 Eu11 2.339 . S
O53 C74 1.254 . S
O54 Eu11 2.563 . S
O54 C67 1.235 . S
O55 Eu11 2.419 . S
O55 C75 1.249 . S
C56 O45 1.276 . S
C56 O48 1.235 . S
C57 C59 1.393 . S
C57 C61 1.395 . S
C57 C64 1.492 . S
C58 C59 1.392 . S
C58 C60 1.386 . S
C59 C57 1.393 . S
C59 C58 1.392 . S
C59 H76 0.930 . S
C60 C58 1.386 . S
C60 C62 1.395 . S
C60 H77 0.930 . S
C61 C57 1.395 . S
C61 C62 1.379 . S
C61 H78 0.930 . S
C62 C60 1.395 . S
C62 C61 1.379 . S
C62 H79 0.930 . S
C63 O46 1.264 . S
C63 O47 1.254 . S
C64 Eu0 2.848 1_565 S
C64 O44 1.258 1_565 S
C64 O49 1.249 . S
C64 C57 1.492 . S
C65 H30 0.931 . S
C65 C43 1.420 . S
C65 C66 1.351 . S
C66 H28 0.930 . S
C66 C34 1.423 . S
C66 C65 1.351 . S
C67 O51 1.276 . S
C67 O54 1.235 . S
C68 C69 1.393 . S
C68 C72 1.395 . S
C68 C75 1.492 . S
C69 C68 1.393 . S
C69 C70 1.392 . S
C69 H80 0.930 . S
C70 C69 1.392 . S
C70 C71 1.386 . S
C71 C70 1.386 . S
C71 C73 1.395 . S
C71 H81 0.930 . S
C72 C68 1.395 . S
C72 C73 1.379 . S
C72 H82 0.930 . S
C73 C71 1.395 . S
C73 C72 1.379 . S
C73 H83 0.930 . S
C74 O52 1.264 . S
C74 O53 1.254 . S
C75 Eu11 2.848 . S
C75 O50 1.257 . S
C75 O55 1.249 . S
C75 C68 1.492 . S
H76 C59 0.930 . S
H77 C60 0.930 . S
H78 C61 0.930 . S
H79 C62 0.930 . S
H80 C69 0.930 . S
H81 C71 0.930 . S
H82 C72 0.930 . S
H83 C73 0.930 . S
Eu84 N115 2.657 . S
Eu84 N122 2.609 . S
Eu84 O128 2.556 . S
Eu84 O129 2.612 . S
Eu84 O131 2.339 . S
Eu84 O132 2.563 . S
Eu84 O133 2.419 1_565 S
Eu84 O135 2.380 . S
Eu84 O136 2.432 . S
Eu84 C148 2.848 1_565 S
C85 C88 1.429 . S
C85 C89 1.411 . S
C85 N92 1.377 . S
C86 C88 1.420 . S
C86 C90 1.423 . S
C86 C98 1.392 . S
C87 C89 1.420 . S
C87 C90 1.351 . S
C87 H110 0.931 . S
C88 C85 1.429 . S
C88 C86 1.420 . S
C88 N96 1.362 . S
C89 C85 1.411 . S
C89 C87 1.420 . S
C89 C94 1.395 . S
C90 C86 1.423 . S
C90 C87 1.351 . S
C90 H102 0.930 . S
C91 C93 1.400 . S
C91 C94 1.386 . S
C91 H103 0.930 . S
N92 C85 1.377 . S
N92 C93 1.321 . S
N92 Eu95 2.609 . S
C93 C91 1.400 . S
C93 N92 1.321 . S
C93 H100 0.930 . S
C94 C89 1.395 . S
C94 C91 1.386 . S
C94 H113 0.930 . S
Eu95 N92 2.609 . S
Eu95 N96 2.657 . S
Eu95 O129 2.380 . S
Eu95 O130 2.432 . S
Eu95 O134 2.558 . S
Eu95 O135 2.612 . S
Eu95 O137 2.339 . S
Eu95 O138 2.563 . S
Eu95 O139 2.419 . S
Eu95 C159 2.848 . S
N96 C88 1.362 . S
N96 Eu95 2.657 . S
N96 C97 1.334 . S
C97 N96 1.334 . S
C97 C99 1.413 . S
C97 H104 0.929 . S
C98 C86 1.392 . S
C98 C99 1.367 . S
C98 H106 0.930 . S
C99 C97 1.413 . S
C99 C98 1.367 . S
C99 H101 0.930 . S
H100 C93 0.930 . S
H101 C99 0.930 . S
H102 C90 0.930 . S
H103 C91 0.930 . S
H104 C97 0.929 . S
H105 C119 0.930 . S
H106 C98 0.930 . S
H107 C125 0.930 . S
H108 C116 0.929 . S
H109 C123 0.930 . S
H110 C87 0.931 . S
H111 C117 0.930 . S
H112 C150 0.930 . S
H113 C94 0.930 . S
H114 C149 0.931 . S
N115 Eu84 2.657 . S
N115 C116 1.334 . S
N115 C120 1.362 . S
C116 H108 0.929 . S
C116 N115 1.334 . S
C116 C119 1.413 . S
C117 H111 0.930 . S
C117 C118 1.392 . S
C117 C119 1.367 . S
C118 C117 1.392 . S
C118 C120 1.420 . S
C118 C150 1.423 . S
C119 H105 0.930 . S
C119 C116 1.413 . S
C119 C117 1.367 . S
C120 N115 1.362 . S
C120 C118 1.420 . S
C120 C124 1.429 . S
H121 C126 0.930 . S
N122 Eu84 2.609 . S
N122 C124 1.377 . S
N122 C125 1.321 . S
C123 H109 0.930 . S
C123 C125 1.400 . S
C123 C126 1.386 . S
C124 C120 1.429 . S
C124 N122 1.377 . S
C124 C127 1.411 . S
C125 H107 0.930 . S
C125 N122 1.321 . S
C125 C123 1.400 . S
C126 H121 0.930 . S
C126 C123 1.386 . S
C126 C127 1.395 . S
C127 C124 1.411 . S
C127 C126 1.395 . S
C127 C149 1.420 . S
O128 Eu84 2.556 . S
O128 C148 1.258 1_565 S
O129 Eu84 2.612 . S
O129 Eu95 2.380 . S
O129 C140 1.276 . S
O130 Eu95 2.432 . S
O130 C147 1.264 . S
O131 Eu84 2.339 . S
O131 C147 1.254 . S
O132 Eu84 2.563 . S
O132 C140 1.235 . S
O133 Eu84 2.419 1_545 S
O133 C148 1.249 . S
O134 Eu95 2.558 . S
O134 C159 1.257 . S
O135 Eu84 2.380 . S
O135 Eu95 2.612 . S
O135 C151 1.276 . S
O136 Eu84 2.432 . S
O136 C158 1.264 . S
O137 Eu95 2.339 . S
O137 C158 1.254 . S
O138 Eu95 2.563 . S
O138 C151 1.235 . S
O139 Eu95 2.419 . S
O139 C159 1.249 . S
C140 O129 1.276 . S
C140 O132 1.235 . S
C141 C143 1.393 . S
C141 C145 1.395 . S
C141 C148 1.492 . S
C142 C143 1.392 . S
C142 C144 1.386 . S
C143 C141 1.393 . S
C143 C142 1.392 . S
C143 H160 0.930 . S
C144 C142 1.386 . S
C144 C146 1.395 . S
C144 H161 0.930 . S
C145 C141 1.395 . S
C145 C146 1.379 . S
C145 H162 0.930 . S
C146 C144 1.395 . S
C146 C145 1.379 . S
C146 H163 0.930 . S
C147 O130 1.264 . S
C147 O131 1.254 . S
C148 Eu84 2.848 1_545 S
C148 O128 1.258 1_545 S
C148 O133 1.249 . S
C148 C141 1.492 . S
C149 H114 0.931 . S
C149 C127 1.420 . S
C149 C150 1.351 . S
C150 H112 0.930 . S
C150 C118 1.423 . S
C150 C149 1.351 . S
C151 O135 1.276 . S
C151 O138 1.235 . S
C152 C153 1.393 . S
C152 C156 1.395 . S
C152 C159 1.492 . S
C153 C152 1.393 . S
C153 C154 1.392 . S
C153 H164 0.930 . S
C154 C153 1.392 . S
C154 C155 1.386 . S
C155 C154 1.386 . S
C155 C157 1.395 . S
C155 H165 0.930 . S
C156 C152 1.395 . S
C156 C157 1.379 . S
C156 H166 0.930 . S
C157 C155 1.395 . S
C157 C156 1.379 . S
C157 H167 0.930 . S
C158 O136 1.264 . S
C158 O137 1.254 . S
C159 Eu95 2.848 . S
C159 O134 1.257 . S
C159 O139 1.249 . S
C159 C152 1.492 . S
H160 C143 0.930 . S
H161 C144 0.930 . S
H162 C145 0.930 . S
H163 C146 0.930 . S
H164 C153 0.930 . S
H165 C155 0.930 . S
H166 C156 0.930 . S
H167 C157 0.930 . S
Eu168 N199 2.657 . S
Eu168 N206 2.609 . S
Eu168 O212 2.556 . S
Eu168 O213 2.612 . S
Eu168 O215 2.339 . S
Eu168 O216 2.563 . S
Eu168 O217 2.419 1_565 S
Eu168 O219 2.380 . S
Eu168 O220 2.432 . S
Eu168 C232 2.848 1_565 S
C169 C172 1.429 . S
C169 C173 1.411 . S
C169 N176 1.377 . S
C170 C172 1.420 . S
C170 C174 1.423 . S
C170 C182 1.392 . S
C171 C173 1.420 . S
C171 C174 1.351 . S
C171 H194 0.931 . S
C172 C169 1.429 . S
C172 C170 1.420 . S
C172 N180 1.362 . S
C173 C169 1.411 . S
C173 C171 1.420 . S
C173 C178 1.395 . S
C174 C170 1.423 . S
C174 C171 1.351 . S
C174 H186 0.930 . S
C175 C177 1.400 . S
C175 C178 1.386 . S
C175 H187 0.930 . S
N176 C169 1.377 . S
N176 C177 1.321 . S
N176 Eu179 2.609 . S
C177 C175 1.400 . S
C177 N176 1.321 . S
C177 H184 0.930 . S
C178 C173 1.395 . S
C178 C175 1.386 . S
C178 H197 0.930 . S
Eu179 N176 2.609 . S
Eu179 N180 2.657 . S
Eu179 O213 2.380 . S
Eu179 O214 2.432 . S
Eu179 O218 2.558 . S
Eu179 O219 2.612 . S
Eu179 O221 2.339 . S
Eu179 O222 2.563 . S
Eu179 O223 2.419 . S
Eu179 C243 2.848 . S
N180 C172 1.362 . S
N180 Eu179 2.657 . S
N180 C181 1.334 . S
C181 N180 1.334 . S
C181 C183 1.413 . S
C181 H188 0.929 . S
C182 C170 1.392 . S
C182 C183 1.367 . S
C182 H190 0.930 . S
C183 C181 1.413 . S
C183 C182 1.367 . S
C183 H185 0.930 . S
H184 C177 0.930 . S
H185 C183 0.930 . S
H186 C174 0.930 . S
H187 C175 0.930 . S
H188 C181 0.929 . S
H189 C203 0.930 . S
H190 C182 0.930 . S
H191 C209 0.930 . S
H192 C200 0.929 . S
H193 C207 0.930 . S
H194 C171 0.931 . S
H195 C201 0.930 . S
H196 C234 0.930 . S
H197 C178 0.930 . S
H198 C233 0.931 . S
N199 Eu168 2.657 . S
N199 C200 1.334 . S
N199 C204 1.362 . S
C200 H192 0.929 . S
C200 N199 1.334 . S
C200 C203 1.413 . S
C201 H195 0.930 . S
C201 C202 1.392 . S
C201 C203 1.367 . S
C202 C201 1.392 . S
C202 C204 1.420 . S
C202 C234 1.423 . S
C203 H189 0.930 . S
C203 C200 1.413 . S
C203 C201 1.367 . S
C204 N199 1.362 . S
C204 C202 1.420 . S
C204 C208 1.429 . S
H205 C210 0.930 . S
N206 Eu168 2.609 . S
N206 C208 1.377 . S
N206 C209 1.321 . S
C207 H193 0.930 . S
C207 C209 1.400 . S
C207 C210 1.386 . S
C208 C204 1.429 . S
C208 N206 1.377 . S
C208 C211 1.411 . S
C209 H191 0.930 . S
C209 N206 1.321 . S
C209 C207 1.400 . S
C210 H205 0.930 . S
C210 C207 1.386 . S
C210 C211 1.395 . S
C211 C208 1.411 . S
C211 C210 1.395 . S
C211 C233 1.420 . S
O212 Eu168 2.556 . S
O212 C232 1.258 1_565 S
O213 Eu168 2.612 . S
O213 Eu179 2.380 . S
O213 C224 1.276 . S
O214 Eu179 2.432 . S
O214 C231 1.264 . S
O215 Eu168 2.339 . S
O215 C231 1.254 . S
O216 Eu168 2.563 . S
O216 C224 1.235 . S
O217 Eu168 2.419 1_545 S
O217 C232 1.249 . S
O218 Eu179 2.558 . S
O218 C243 1.257 . S
O219 Eu168 2.380 . S
O219 Eu179 2.612 . S
O219 C235 1.276 . S
O220 Eu168 2.432 . S
O220 C242 1.264 . S
O221 Eu179 2.339 . S
O221 C242 1.254 . S
O222 Eu179 2.563 . S
O222 C235 1.235 . S
O223 Eu179 2.419 . S
O223 C243 1.249 . S
C224 O213 1.276 . S
C224 O216 1.235 . S
C225 C227 1.393 . S
C225 C229 1.395 . S
C225 C232 1.492 . S
C226 C227 1.392 . S
C226 C228 1.386 . S
C227 C225 1.393 . S
C227 C226 1.392 . S
C227 H244 0.930 . S
C228 C226 1.386 . S
C228 C230 1.395 . S
C228 H245 0.930 . S
C229 C225 1.395 . S
C229 C230 1.379 . S
C229 H246 0.930 . S
C230 C228 1.395 . S
C230 C229 1.379 . S
C230 H247 0.930 . S
C231 O214 1.264 . S
C231 O215 1.254 . S
C232 Eu168 2.848 1_545 S
C232 O212 1.258 1_545 S
C232 O217 1.249 . S
C232 C225 1.492 . S
C233 H198 0.931 . S
C233 C211 1.420 . S
C233 C234 1.351 . S
C234 H196 0.930 . S
C234 C202 1.423 . S
C234 C233 1.351 . S
C235 O219 1.276 . S
C235 O222 1.235 . S
C236 C237 1.393 . S
C236 C240 1.395 . S
C236 C243 1.492 . S
C237 C236 1.393 . S
C237 C238 1.392 . S
C237 H248 0.930 . S
C238 C237 1.392 . S
C238 C239 1.386 . S
C239 C238 1.386 . S
C239 C241 1.395 . S
C239 H249 0.930 . S
C240 C236 1.395 . S
C240 C241 1.379 . S
C240 H250 0.930 . S
C241 C239 1.395 . S
C241 C240 1.379 . S
C241 H251 0.930 . S
C242 O220 1.264 . S
C242 O221 1.254 . S
C243 Eu179 2.848 . S
C243 O218 1.257 . S
C243 O223 1.249 . S
C243 C236 1.492 . S
H244 C227 0.930 . S
H245 C228 0.930 . S
H246 C229 0.930 . S
H247 C230 0.930 . S
H248 C237 0.930 . S
H249 C239 0.930 . S
H250 C240 0.930 . S
H251 C241 0.930 . S
Eu252 N283 2.657 . S
Eu252 N290 2.609 . S
Eu252 O296 2.556 . S
Eu252 O297 2.612 . S
Eu252 O299 2.339 . S
Eu252 O300 2.563 . S
Eu252 O301 2.419 1_545 S
Eu252 O303 2.380 . S
Eu252 O304 2.432 . S
Eu252 C316 2.848 1_545 S
C253 C256 1.429 . S
C253 C257 1.411 . S
C253 N260 1.377 . S
C254 C256 1.420 . S
C254 C258 1.423 . S
C254 C266 1.392 . S
C255 C257 1.420 . S
C255 C258 1.351 . S
C255 H278 0.931 . S
C256 C253 1.429 . S
C256 C254 1.420 . S
C256 N264 1.362 . S
C257 C253 1.411 . S
C257 C255 1.420 . S
C257 C262 1.395 . S
C258 C254 1.423 . S
C258 C255 1.351 . S
C258 H270 0.930 . S
C259 C261 1.400 . S
C259 C262 1.386 . S
C259 H271 0.930 . S
N260 C253 1.377 . S
N260 C261 1.321 . S
N260 Eu263 2.609 . S
C261 C259 1.400 . S
C261 N260 1.321 . S
C261 H268 0.930 . S
C262 C257 1.395 . S
C262 C259 1.386 . S
C262 H281 0.930 . S
Eu263 N260 2.609 . S
Eu263 N264 2.657 . S
Eu263 O297 2.380 . S
Eu263 O298 2.432 . S
Eu263 O302 2.558 . S
Eu263 O303 2.612 . S
Eu263 O305 2.339 . S
Eu263 O306 2.563 . S
Eu263 O307 2.419 . S
Eu263 C327 2.848 . S
N264 C256 1.362 . S
N264 Eu263 2.657 . S
N264 C265 1.334 . S
C265 N264 1.334 . S
C265 C267 1.413 . S
C265 H272 0.929 . S
C266 C254 1.392 . S
C266 C267 1.367 . S
C266 H274 0.930 . S
C267 C265 1.413 . S
C267 C266 1.367 . S
C267 H269 0.930 . S
H268 C261 0.930 . S
H269 C267 0.930 . S
H270 C258 0.930 . S
H271 C259 0.930 . S
H272 C265 0.929 . S
H273 C287 0.930 . S
H274 C266 0.930 . S
H275 C293 0.930 . S
H276 C284 0.929 . S
H277 C291 0.930 . S
H278 C255 0.931 . S
H279 C285 0.930 . S
H280 C318 0.930 . S
H281 C262 0.930 . S
H282 C317 0.931 . S
N283 Eu252 2.657 . S
N283 C284 1.334 . S
N283 C288 1.362 . S
C284 H276 0.929 . S
C284 N283 1.334 . S
C284 C287 1.413 . S
C285 H279 0.930 . S
C285 C286 1.392 . S
C285 C287 1.367 . S
C286 C285 1.392 . S
C286 C288 1.420 . S
C286 C318 1.423 . S
C287 H273 0.930 . S
C287 C284 1.413 . S
C287 C285 1.367 . S
C288 N283 1.362 . S
C288 C286 1.420 . S
C288 C292 1.429 . S
H289 C294 0.930 . S
N290 Eu252 2.609 . S
N290 C292 1.377 . S
N290 C293 1.321 . S
C291 H277 0.930 . S
C291 C293 1.400 . S
C291 C294 1.386 . S
C292 C288 1.429 . S
C292 N290 1.377 . S
C292 C295 1.411 . S
C293 H275 0.930 . S
C293 N290 1.321 . S
C293 C291 1.400 . S
C294 H289 0.930 . S
C294 C291 1.386 . S
C294 C295 1.395 . S
C295 C292 1.411 . S
C295 C294 1.395 . S
C295 C317 1.420 . S
O296 Eu252 2.556 . S
O296 C316 1.258 1_545 S
O297 Eu252 2.612 . S
O297 Eu263 2.380 . S
O297 C308 1.276 . S
O298 Eu263 2.432 . S
O298 C315 1.264 . S
O299 Eu252 2.339 . S
O299 C315 1.254 . S
O300 Eu252 2.563 . S
O300 C308 1.235 . S
O301 Eu252 2.419 1_565 S
O301 C316 1.249 . S
O302 Eu263 2.558 . S
O302 C327 1.257 . S
O303 Eu252 2.380 . S
O303 Eu263 2.612 . S
O303 C319 1.276 . S
O304 Eu252 2.432 . S
O304 C326 1.264 . S
O305 Eu263 2.339 . S
O305 C326 1.254 . S
O306 Eu263 2.563 . S
O306 C319 1.235 . S
O307 Eu263 2.419 . S
O307 C327 1.249 . S
C308 O297 1.276 . S
C308 O300 1.235 . S
C309 C311 1.393 . S
C309 C313 1.395 . S
C309 C316 1.492 . S
C310 C311 1.392 . S
C310 C312 1.386 . S
C311 C309 1.393 . S
C311 C310 1.392 . S
C311 H328 0.930 . S
C312 C310 1.386 . S
C312 C314 1.395 . S
C312 H329 0.930 . S
C313 C309 1.395 . S
C313 C314 1.379 . S
C313 H330 0.930 . S
C314 C312 1.395 . S
C314 C313 1.379 . S
C314 H331 0.930 . S
C315 O298 1.264 . S
C315 O299 1.254 . S
C316 Eu252 2.848 1_565 S
C316 O296 1.258 1_565 S
C316 O301 1.249 . S
C316 C309 1.492 . S
C317 H282 0.931 . S
C317 C295 1.420 . S
C317 C318 1.351 . S
C318 H280 0.930 . S
C318 C286 1.423 . S
C318 C317 1.351 . S
C319 O303 1.276 . S
C319 O306 1.235 . S
C320 C321 1.393 . S
C320 C324 1.395 . S
C320 C327 1.492 . S
C321 C320 1.393 . S
C321 C322 1.392 . S
C321 H332 0.930 . S
C322 C321 1.392 . S
C322 C323 1.386 . S
C323 C322 1.386 . S
C323 C325 1.395 . S
C323 H333 0.930 . S
C324 C320 1.395 . S
C324 C325 1.379 . S
C324 H334 0.930 . S
C325 C323 1.395 . S
C325 C324 1.379 . S
C325 H335 0.930 . S
C326 O304 1.264 . S
C326 O305 1.254 . S
C327 Eu263 2.848 . S
C327 O302 1.257 . S
C327 O307 1.249 . S
C327 C320 1.492 . S
H328 C311 0.930 . S
H329 C312 0.930 . S
H330 C313 0.930 . S
H331 C314 0.930 . S
H332 C321 0.930 . S
H333 C323 0.930 . S
H334 C324 0.930 . S
H335 C325 0.930 . S
Eu336 N367 2.657 . S
Eu336 N374 2.609 . S
Eu336 O380 2.558 . S
Eu336 O381 2.612 . S
Eu336 O383 2.339 . S
Eu336 O384 2.563 . S
Eu336 O385 2.419 . S
Eu336 O387 2.380 . S
Eu336 O388 2.432 . S
Eu336 C400 2.848 . S
C337 C340 1.429 . S
C337 C341 1.411 . S
C337 N344 1.377 . S
C338 C340 1.420 . S
C338 C342 1.423 . S
C338 C350 1.392 . S
C339 C341 1.420 . S
C339 C342 1.351 . S
C339 H362 0.931 . S
C340 C337 1.429 . S
C340 C338 1.420 . S
C340 N348 1.362 . S
C341 C337 1.411 . S
C341 C339 1.420 . S
C341 C346 1.395 . S
C342 C338 1.423 . S
C342 C339 1.351 . S
C342 H354 0.930 . S
C343 C345 1.400 . S
C343 C346 1.386 . S
C343 H355 0.930 . S
N344 C337 1.377 . S
N344 C345 1.321 . S
N344 Eu347 2.609 . S
C345 C343 1.400 . S
C345 N344 1.321 . S
C345 H352 0.930 . S
C346 C341 1.395 . S
C346 C343 1.386 . S
C346 H365 0.930 . S
Eu347 N344 2.609 . S
Eu347 N348 2.657 . S
Eu347 O381 2.380 . S
Eu347 O382 2.432 . S
Eu347 O386 2.556 . S
Eu347 O387 2.612 . S
Eu347 O389 2.339 . S
Eu347 O390 2.563 . S
Eu347 O391 2.419 1_565 S
Eu347 C411 2.848 1_565 S
N348 C340 1.362 . S
N348 Eu347 2.657 . S
N348 C349 1.334 . S
C349 N348 1.334 . S
C349 C351 1.413 . S
C349 H356 0.929 . S
C350 C338 1.392 . S
C350 C351 1.367 . S
C350 H358 0.930 . S
C351 C349 1.413 . S
C351 C350 1.367 . S
C351 H353 0.930 . S
H352 C345 0.930 . S
H353 C351 0.930 . S
H354 C342 0.930 . S
H355 C343 0.930 . S
H356 C349 0.929 . S
H357 C371 0.930 . S
H358 C350 0.930 . S
H359 C377 0.930 . S
H360 C368 0.929 . S
H361 C375 0.930 . S
H362 C339 0.931 . S
H363 C369 0.930 . S
H364 C402 0.930 . S
H365 C346 0.930 . S
H366 C401 0.931 . S
N367 Eu336 2.657 . S
N367 C368 1.334 . S
N367 C372 1.362 . S
C368 H360 0.929 . S
C368 N367 1.334 . S
C368 C371 1.413 . S
C369 H363 0.930 . S
C369 C370 1.392 . S
C369 C371 1.367 . S
C370 C369 1.392 . S
C370 C372 1.420 . S
C370 C402 1.423 . S
C371 H357 0.930 . S
C371 C368 1.413 . S
C371 C369 1.367 . S
C372 N367 1.362 . S
C372 C370 1.420 . S
C372 C376 1.429 . S
H373 C378 0.930 . S
N374 Eu336 2.609 . S
N374 C376 1.377 . S
N374 C377 1.321 . S
C375 H361 0.930 . S
C375 C377 1.400 . S
C375 C378 1.386 . S
C376 C372 1.429 . S
C376 N374 1.377 . S
C376 C379 1.411 . S
C377 H359 0.930 . S
C377 N374 1.321 . S
C377 C375 1.400 . S
C378 H373 0.930 . S
C378 C375 1.386 . S
C378 C379 1.395 . S
C379 C376 1.411 . S
C379 C378 1.395 . S
C379 C401 1.420 . S
O380 Eu336 2.558 . S
O380 C400 1.257 . S
O381 Eu336 2.612 . S
O381 Eu347 2.380 . S
O381 C392 1.276 . S
O382 Eu347 2.432 . S
O382 C399 1.264 . S
O383 Eu336 2.339 . S
O383 C399 1.254 . S
O384 Eu336 2.563 . S
O384 C392 1.235 . S
O385 Eu336 2.419 . S
O385 C400 1.249 . S
O386 Eu347 2.556 . S
O386 C411 1.258 1_565 S
O387 Eu336 2.380 . S
O387 Eu347 2.612 . S
O387 C403 1.276 . S
O388 Eu336 2.432 . S
O388 C410 1.264 . S
O389 Eu347 2.339 . S
O389 C410 1.254 . S
O390 Eu347 2.563 . S
O390 C403 1.235 . S
O391 Eu347 2.419 1_545 S
O391 C411 1.249 . S
C392 O381 1.276 . S
C392 O384 1.235 . S
C393 C395 1.393 . S
C393 C397 1.395 . S
C393 C400 1.492 . S
C394 C395 1.392 . S
C394 C396 1.386 . S
C395 C393 1.393 . S
C395 C394 1.392 . S
C395 H412 0.930 . S
C396 C394 1.386 . S
C396 C398 1.395 . S
C396 H413 0.930 . S
C397 C393 1.395 . S
C397 C398 1.379 . S
C397 H414 0.930 . S
C398 C396 1.395 . S
C398 C397 1.379 . S
C398 H415 0.930 . S
C399 O382 1.264 . S
C399 O383 1.254 . S
C400 Eu336 2.848 . S
C400 O380 1.257 . S
C400 O385 1.249 . S
C400 C393 1.492 . S
C401 H366 0.931 . S
C401 C379 1.420 . S
C401 C402 1.351 . S
C402 H364 0.930 . S
C402 C370 1.423 . S
C402 C401 1.351 . S
C403 O387 1.276 . S
C403 O390 1.235 . S
C404 C405 1.393 . S
C404 C408 1.395 . S
C404 C411 1.492 . S
C405 C404 1.393 . S
C405 C406 1.392 . S
C405 H416 0.930 . S
C406 C405 1.392 . S
C406 C407 1.386 . S
C407 C406 1.386 . S
C407 C409 1.395 . S
C407 H417 0.930 . S
C408 C404 1.395 . S
C408 C409 1.379 . S
C408 H418 0.930 . S
C409 C407 1.395 . S
C409 C408 1.379 . S
C409 H419 0.930 . S
C410 O388 1.264 . S
C410 O389 1.254 . S
C411 Eu347 2.848 1_545 S
C411 O386 1.258 1_545 S
C411 O391 1.249 . S
C411 C404 1.492 . S
H412 C395 0.930 . S
H413 C396 0.930 . S
H414 C397 0.930 . S
H415 C398 0.930 . S
H416 C405 0.930 . S
H417 C407 0.930 . S
H418 C408 0.930 . S
H419 C409 0.930 . S
Eu420 N451 2.657 . S
Eu420 N458 2.609 . S
Eu420 O464 2.558 . S
Eu420 O465 2.612 . S
Eu420 O467 2.339 . S
Eu420 O468 2.563 . S
Eu420 O469 2.419 . S
Eu420 O471 2.380 . S
Eu420 O472 2.432 . S
Eu420 C484 2.848 . S
C421 C424 1.429 . S
C421 C425 1.411 . S
C421 N428 1.377 . S
C422 C424 1.420 . S
C422 C426 1.423 . S
C422 C434 1.392 . S
C423 C425 1.420 . S
C423 C426 1.351 . S
C423 H446 0.931 . S
C424 C421 1.429 . S
C424 C422 1.420 . S
C424 N432 1.362 . S
C425 C421 1.411 . S
C425 C423 1.420 . S
C425 C430 1.395 . S
C426 C422 1.423 . S
C426 C423 1.351 . S
C426 H438 0.930 . S
C427 C429 1.400 . S
C427 C430 1.386 . S
C427 H439 0.930 . S
N428 C421 1.377 . S
N428 C429 1.321 . S
N428 Eu431 2.609 . S
C429 C427 1.400 . S
C429 N428 1.321 . S
C429 H436 0.930 . S
C430 C425 1.395 . S
C430 C427 1.386 . S
C430 H449 0.930 . S
Eu431 N428 2.609 . S
Eu431 N432 2.657 . S
Eu431 O465 2.380 . S
Eu431 O466 2.432 . S
Eu431 O470 2.556 . S
Eu431 O471 2.612 . S
Eu431 O473 2.339 . S
Eu431 O474 2.563 . S
Eu431 O475 2.419 1_545 S
Eu431 C495 2.848 1_545 S
N432 C424 1.362 . S
N432 Eu431 2.657 . S
N432 C433 1.334 . S
C433 N432 1.334 . S
C433 C435 1.413 . S
C433 H440 0.929 . S
C434 C422 1.392 . S
C434 C435 1.367 . S
C434 H442 0.930 . S
C435 C433 1.413 . S
C435 C434 1.367 . S
C435 H437 0.930 . S
H436 C429 0.930 . S
H437 C435 0.930 . S
H438 C426 0.930 . S
H439 C427 0.930 . S
H440 C433 0.929 . S
H441 C455 0.930 . S
H442 C434 0.930 . S
H443 C461 0.930 . S
H444 C452 0.929 . S
H445 C459 0.930 . S
H446 C423 0.931 . S
H447 C453 0.930 . S
H448 C486 0.930 . S
H449 C430 0.930 . S
H450 C485 0.931 . S
N451 Eu420 2.657 . S
N451 C452 1.334 . S
N451 C456 1.362 . S
C452 H444 0.929 . S
C452 N451 1.334 . S
C452 C455 1.413 . S
C453 H447 0.930 . S
C453 C454 1.392 . S
C453 C455 1.367 . S
C454 C453 1.392 . S
C454 C456 1.420 . S
C454 C486 1.423 . S
C455 H441 0.930 . S
C455 C452 1.413 . S
C455 C453 1.367 . S
C456 N451 1.362 . S
C456 C454 1.420 . S
C456 C460 1.429 . S
H457 C462 0.930 . S
N458 Eu420 2.609 . S
N458 C460 1.377 . S
N458 C461 1.321 . S
C459 H445 0.930 . S
C459 C461 1.400 . S
C459 C462 1.386 . S
C460 C456 1.429 . S
C460 N458 1.377 . S
C460 C463 1.411 . S
C461 H443 0.930 . S
C461 N458 1.321 . S
C461 C459 1.400 . S
C462 H457 0.930 . S
C462 C459 1.386 . S
C462 C463 1.395 . S
C463 C460 1.411 . S
C463 C462 1.395 . S
C463 C485 1.420 . S
O464 Eu420 2.558 . S
O464 C484 1.257 . S
O465 Eu420 2.612 . S
O465 Eu431 2.380 . S
O465 C476 1.276 . S
O466 Eu431 2.432 . S
O466 C483 1.264 . S
O467 Eu420 2.339 . S
O467 C483 1.254 . S
O468 Eu420 2.563 . S
O468 C476 1.235 . S
O469 Eu420 2.419 . S
O469 C484 1.249 . S
O470 Eu431 2.556 . S
O470 C495 1.258 1_545 S
O471 Eu420 2.380 . S
O471 Eu431 2.612 . S
O471 C487 1.276 . S
O472 Eu420 2.432 . S
O472 C494 1.264 . S
O473 Eu431 2.339 . S
O473 C494 1.254 . S
O474 Eu431 2.563 . S
O474 C487 1.235 . S
O475 Eu431 2.419 1_565 S
O475 C495 1.249 . S
C476 O465 1.276 . S
C476 O468 1.235 . S
C477 C479 1.393 . S
C477 C481 1.395 . S
C477 C484 1.492 . S
C478 C479 1.392 . S
C478 C480 1.386 . S
C479 C477 1.393 . S
C479 C478 1.392 . S
C479 H496 0.930 . S
C480 C478 1.386 . S
C480 C482 1.395 . S
C480 H497 0.930 . S
C481 C477 1.395 . S
C481 C482 1.379 . S
C481 H498 0.930 . S
C482 C480 1.395 . S
C482 C481 1.379 . S
C482 H499 0.930 . S
C483 O466 1.264 . S
C483 O467 1.254 . S
C484 Eu420 2.848 . S
C484 O464 1.257 . S
C484 O469 1.249 . S
C484 C477 1.492 . S
C485 H450 0.931 . S
C485 C463 1.420 . S
C485 C486 1.351 . S
C486 H448 0.930 . S
C486 C454 1.423 . S
C486 C485 1.351 . S
C487 O471 1.276 . S
C487 O474 1.235 . S
C488 C489 1.393 . S
C488 C492 1.395 . S
C488 C495 1.492 . S
C489 C488 1.393 . S
C489 C490 1.392 . S
C489 H500 0.930 . S
C490 C489 1.392 . S
C490 C491 1.386 . S
C491 C490 1.386 . S
C491 C493 1.395 . S
C491 H501 0.930 . S
C492 C488 1.395 . S
C492 C493 1.379 . S
C492 H502 0.930 . S
C493 C491 1.395 . S
C493 C492 1.379 . S
C493 H503 0.930 . S
C494 O472 1.264 . S
C494 O473 1.254 . S
C495 Eu431 2.848 1_565 S
C495 O470 1.258 1_565 S
C495 O475 1.249 . S
C495 C488 1.492 . S
H496 C479 0.930 . S
H497 C480 0.930 . S
H498 C481 0.930 . S
H499 C482 0.930 . S
H500 C489 0.930 . S
H501 C491 0.930 . S
H502 C492 0.930 . S
H503 C493 0.930 . S
Eu504 N535 2.657 . S
Eu504 N542 2.609 . S
Eu504 O548 2.558 . S
Eu504 O549 2.612 . S
Eu504 O551 2.339 . S
Eu504 O552 2.563 . S
Eu504 O553 2.419 . S
Eu504 O555 2.380 . S
Eu504 O556 2.432 . S
Eu504 C568 2.848 . S
C505 C508 1.429 . S
C505 C509 1.411 . S
C505 N512 1.377 . S
C506 C508 1.420 . S
C506 C510 1.423 . S
C506 C518 1.392 . S
C507 C509 1.420 . S
C507 C510 1.351 . S
C507 H530 0.931 . S
C508 C505 1.429 . S
C508 C506 1.420 . S
C508 N516 1.362 . S
C509 C505 1.411 . S
C509 C507 1.420 . S
C509 C514 1.395 . S
C510 C506 1.423 . S
C510 C507 1.351 . S
C510 H522 0.930 . S
C511 C513 1.400 . S
C511 C514 1.386 . S
C511 H523 0.930 . S
N512 C505 1.377 . S
N512 C513 1.321 . S
N512 Eu515 2.609 . S
C513 C511 1.400 . S
C513 N512 1.321 . S
C513 H520 0.930 . S
C514 C509 1.395 . S
C514 C511 1.386 . S
C514 H533 0.930 . S
Eu515 N512 2.609 . S
Eu515 N516 2.657 . S
Eu515 O549 2.380 . S
Eu515 O550 2.432 . S
Eu515 O554 2.556 . S
Eu515 O555 2.612 . S
Eu515 O557 2.339 . S
Eu515 O558 2.563 . S
Eu515 O559 2.419 1_545 S
Eu515 C579 2.848 1_545 S
N516 C508 1.362 . S
N516 Eu515 2.657 . S
N516 C517 1.334 . S
C517 N516 1.334 . S
C517 C519 1.413 . S
C517 H524 0.929 . S
C518 C506 1.392 . S
C518 C519 1.367 . S
C518 H526 0.930 . S
C519 C517 1.413 . S
C519 C518 1.367 . S
C519 H521 0.930 . S
H520 C513 0.930 . S
H521 C519 0.930 . S
H522 C510 0.930 . S
H523 C511 0.930 . S
H524 C517 0.929 . S
H525 C539 0.930 . S
H526 C518 0.930 . S
H527 C545 0.930 . S
H528 C536 0.929 . S
H529 C543 0.930 . S
H530 C507 0.931 . S
H531 C537 0.930 . S
H532 C570 0.930 . S
H533 C514 0.930 . S
H534 C569 0.931 . S
N535 Eu504 2.657 . S
N535 C536 1.334 . S
N535 C540 1.362 . S
C536 H528 0.929 . S
C536 N535 1.334 . S
C536 C539 1.413 . S
C537 H531 0.930 . S
C537 C538 1.392 . S
C537 C539 1.367 . S
C538 C537 1.392 . S
C538 C540 1.420 . S
C538 C570 1.423 . S
C539 H525 0.930 . S
C539 C536 1.413 . S
C539 C537 1.367 . S
C540 N535 1.362 . S
C540 C538 1.420 . S
C540 C544 1.429 . S
H541 C546 0.930 . S
N542 Eu504 2.609 . S
N542 C544 1.377 . S
N542 C545 1.321 . S
C543 H529 0.930 . S
C543 C545 1.400 . S
C543 C546 1.386 . S
C544 C540 1.429 . S
C544 N542 1.377 . S
C544 C547 1.411 . S
C545 H527 0.930 . S
C545 N542 1.321 . S
C545 C543 1.400 . S
C546 H541 0.930 . S
C546 C543 1.386 . S
C546 C547 1.395 . S
C547 C544 1.411 . S
C547 C546 1.395 . S
C547 C569 1.420 . S
O548 Eu504 2.558 . S
O548 C568 1.257 . S
O549 Eu504 2.612 . S
O549 Eu515 2.380 . S
O549 C560 1.276 . S
O550 Eu515 2.432 . S
O550 C567 1.264 . S
O551 Eu504 2.339 . S
O551 C567 1.254 . S
O552 Eu504 2.563 . S
O552 C560 1.235 . S
O553 Eu504 2.419 . S
O553 C568 1.249 . S
O554 Eu515 2.556 . S
O554 C579 1.258 1_545 S
O555 Eu504 2.380 . S
O555 Eu515 2.612 . S
O555 C571 1.276 . S
O556 Eu504 2.432 . S
O556 C578 1.264 . S
O557 Eu515 2.339 . S
O557 C578 1.254 . S
O558 Eu515 2.563 . S
O558 C571 1.235 . S
O559 Eu515 2.419 1_565 S
O559 C579 1.249 . S
C560 O549 1.276 . S
C560 O552 1.235 . S
C561 C563 1.393 . S
C561 C565 1.395 . S
C561 C568 1.492 . S
C562 C563 1.392 . S
C562 C564 1.386 . S
C563 C561 1.393 . S
C563 C562 1.392 . S
C563 H580 0.930 . S
C564 C562 1.386 . S
C564 C566 1.395 . S
C564 H581 0.930 . S
C565 C561 1.395 . S
C565 C566 1.379 . S
C565 H582 0.930 . S
C566 C564 1.395 . S
C566 C565 1.379 . S
C566 H583 0.930 . S
C567 O550 1.264 . S
C567 O551 1.254 . S
C568 Eu504 2.848 . S
C568 O548 1.257 . S
C568 O553 1.249 . S
C568 C561 1.492 . S
C569 H534 0.931 . S
C569 C547 1.420 . S
C569 C570 1.351 . S
C570 H532 0.930 . S
C570 C538 1.423 . S
C570 C569 1.351 . S
C571 O555 1.276 . S
C571 O558 1.235 . S
C572 C573 1.393 . S
C572 C576 1.395 . S
C572 C579 1.492 . S
C573 C572 1.393 . S
C573 C574 1.392 . S
C573 H584 0.930 . S
C574 C573 1.392 . S
C574 C575 1.386 . S
C575 C574 1.386 . S
C575 C577 1.395 . S
C575 H585 0.930 . S
C576 C572 1.395 . S
C576 C577 1.379 . S
C576 H586 0.930 . S
C577 C575 1.395 . S
C577 C576 1.379 . S
C577 H587 0.930 . S
C578 O556 1.264 . S
C578 O557 1.254 . S
C579 Eu515 2.848 1_565 S
C579 O554 1.258 1_565 S
C579 O559 1.249 . S
C579 C572 1.492 . S
H580 C563 0.930 . S
H581 C564 0.930 . S
H582 C565 0.930 . S
H583 C566 0.930 . S
H584 C573 0.930 . S
H585 C575 0.930 . S
H586 C576 0.930 . S
H587 C577 0.930 . S
Eu588 N619 2.657 . S
Eu588 N626 2.609 . S
Eu588 O632 2.558 . S
Eu588 O633 2.612 . S
Eu588 O635 2.339 . S
Eu588 O636 2.563 . S
Eu588 O637 2.419 . S
Eu588 O639 2.380 . S
Eu588 O640 2.432 . S
Eu588 C652 2.848 . S
C589 C592 1.429 . S
C589 C593 1.411 . S
C589 N596 1.377 . S
C590 C592 1.420 . S
C590 C594 1.423 . S
C590 C602 1.392 . S
C591 C593 1.420 . S
C591 C594 1.351 . S
C591 H614 0.931 . S
C592 C589 1.429 . S
C592 C590 1.420 . S
C592 N600 1.362 . S
C593 C589 1.411 . S
C593 C591 1.420 . S
C593 C598 1.395 . S
C594 C590 1.423 . S
C594 C591 1.351 . S
C594 H606 0.930 . S
C595 C597 1.400 . S
C595 C598 1.386 . S
C595 H607 0.930 . S
N596 C589 1.377 . S
N596 C597 1.321 . S
N596 Eu599 2.609 . S
C597 C595 1.400 . S
C597 N596 1.321 . S
C597 H604 0.930 . S
C598 C593 1.395 . S
C598 C595 1.386 . S
C598 H617 0.930 . S
Eu599 N596 2.609 . S
Eu599 N600 2.657 . S
Eu599 O633 2.380 . S
Eu599 O634 2.432 . S
Eu599 O638 2.556 . S
Eu599 O639 2.612 . S
Eu599 O641 2.339 . S
Eu599 O642 2.563 . S
Eu599 O643 2.419 1_565 S
Eu599 C663 2.848 1_565 S
N600 C592 1.362 . S
N600 Eu599 2.657 . S
N600 C601 1.334 . S
C601 N600 1.334 . S
C601 C603 1.413 . S
C601 H608 0.929 . S
C602 C590 1.392 . S
C602 C603 1.367 . S
C602 H610 0.930 . S
C603 C601 1.413 . S
C603 C602 1.367 . S
C603 H605 0.930 . S
H604 C597 0.930 . S
H605 C603 0.930 . S
H606 C594 0.930 . S
H607 C595 0.930 . S
H608 C601 0.929 . S
H609 C623 0.930 . S
H610 C602 0.930 . S
H611 C629 0.930 . S
H612 C620 0.929 . S
H613 C627 0.930 . S
H614 C591 0.931 . S
H615 C621 0.930 . S
H616 C654 0.930 . S
H617 C598 0.930 . S
H618 C653 0.931 . S
N619 Eu588 2.657 . S
N619 C620 1.334 . S
N619 C624 1.362 . S
C620 H612 0.929 . S
C620 N619 1.334 . S
C620 C623 1.413 . S
C621 H615 0.930 . S
C621 C622 1.392 . S
C621 C623 1.367 . S
C622 C621 1.392 . S
C622 C624 1.420 . S
C622 C654 1.423 . S
C623 H609 0.930 . S
C623 C620 1.413 . S
C623 C621 1.367 . S
C624 N619 1.362 . S
C624 C622 1.420 . S
C624 C628 1.429 . S
H625 C630 0.930 . S
N626 Eu588 2.609 . S
N626 C628 1.377 . S
N626 C629 1.321 . S
C627 H613 0.930 . S
C627 C629 1.400 . S
C627 C630 1.386 . S
C628 C624 1.429 . S
C628 N626 1.377 . S
C628 C631 1.411 . S
C629 H611 0.930 . S
C629 N626 1.321 . S
C629 C627 1.400 . S
C630 H625 0.930 . S
C630 C627 1.386 . S
C630 C631 1.395 . S
C631 C628 1.411 . S
C631 C630 1.395 . S
C631 C653 1.420 . S
O632 Eu588 2.558 . S
O632 C652 1.257 . S
O633 Eu588 2.612 . S
O633 Eu599 2.380 . S
O633 C644 1.276 . S
O634 Eu599 2.432 . S
O634 C651 1.264 . S
O635 Eu588 2.339 . S
O635 C651 1.254 . S
O636 Eu588 2.563 . S
O636 C644 1.235 . S
O637 Eu588 2.419 . S
O637 C652 1.249 . S
O638 Eu599 2.556 . S
O638 C663 1.258 1_565 S
O639 Eu588 2.380 . S
O639 Eu599 2.612 . S
O639 C655 1.276 . S
O640 Eu588 2.432 . S
O640 C662 1.264 . S
O641 Eu599 2.339 . S
O641 C662 1.254 . S
O642 Eu599 2.563 . S
O642 C655 1.235 . S
O643 Eu599 2.419 1_545 S
O643 C663 1.249 . S
C644 O633 1.276 . S
C644 O636 1.235 . S
C645 C647 1.393 . S
C645 C649 1.395 . S
C645 C652 1.492 . S
C646 C647 1.392 . S
C646 C648 1.386 . S
C647 C645 1.393 . S
C647 C646 1.392 . S
C647 H664 0.930 . S
C648 C646 1.386 . S
C648 C650 1.395 . S
C648 H665 0.930 . S
C649 C645 1.395 . S
C649 C650 1.379 . S
C649 H666 0.930 . S
C650 C648 1.395 . S
C650 C649 1.379 . S
C650 H667 0.930 . S
C651 O634 1.264 . S
C651 O635 1.254 . S
C652 Eu588 2.848 . S
C652 O632 1.257 . S
C652 O637 1.249 . S
C652 C645 1.492 . S
C653 H618 0.931 . S
C653 C631 1.420 . S
C653 C654 1.351 . S
C654 H616 0.930 . S
C654 C622 1.423 . S
C654 C653 1.351 . S
C655 O639 1.276 . S
C655 O642 1.235 . S
C656 C657 1.393 . S
C656 C660 1.395 . S
C656 C663 1.492 . S
C657 C656 1.393 . S
C657 C658 1.392 . S
C657 H668 0.930 . S
C658 C657 1.392 . S
C658 C659 1.386 . S
C659 C658 1.386 . S
C659 C661 1.395 . S
C659 H669 0.930 . S
C660 C656 1.395 . S
C660 C661 1.379 . S
C660 H670 0.930 . S
C661 C659 1.395 . S
C661 C660 1.379 . S
C661 H671 0.930 . S
C662 O640 1.264 . S
C662 O641 1.254 . S
C663 Eu599 2.848 1_545 S
C663 O638 1.258 1_545 S
C663 O643 1.249 . S
C663 C656 1.492 . S
H664 C647 0.930 . S
H665 C648 0.930 . S
H666 C649 0.930 . S
H667 C650 0.930 . S
H668 C657 0.930 . S
H669 C659 0.930 . S
H670 C660 0.930 . S
H671 C661 0.930 . S
Eu672 N703 2.657 . S
Eu672 N710 2.609 . S
Eu672 O716 2.558 . S
Eu672 O717 2.612 . S
Eu672 O719 2.339 . S
Eu672 O720 2.563 . S
Eu672 O721 2.419 . S
Eu672 O723 2.380 . S
Eu672 O724 2.432 . S
Eu672 C736 2.848 . S
C673 C676 1.429 . S
C673 C677 1.411 . S
C673 N680 1.377 . S
C674 C676 1.420 . S
C674 C678 1.423 . S
C674 C686 1.392 . S
C675 C677 1.420 . S
C675 C678 1.351 . S
C675 H698 0.931 . S
C676 C673 1.429 . S
C676 C674 1.420 . S
C676 N684 1.362 . S
C677 C673 1.411 . S
C677 C675 1.420 . S
C677 C682 1.395 . S
C678 C674 1.423 . S
C678 C675 1.351 . S
C678 H690 0.930 . S
C679 C681 1.400 . S
C679 C682 1.386 . S
C679 H691 0.930 . S
N680 C673 1.377 . S
N680 C681 1.321 . S
N680 Eu683 2.609 . S
C681 C679 1.400 . S
C681 N680 1.321 . S
C681 H688 0.930 . S
C682 C677 1.395 . S
C682 C679 1.386 . S
C682 H701 0.930 . S
Eu683 N680 2.609 . S
Eu683 N684 2.657 . S
Eu683 O717 2.380 . S
Eu683 O718 2.432 . S
Eu683 O722 2.558 . S
Eu683 O723 2.612 . S
Eu683 O725 2.339 . S
Eu683 O726 2.563 . S
Eu683 O727 2.419 . S
Eu683 C747 2.848 . S
N684 C676 1.362 . S
N684 Eu683 2.657 . S
N684 C685 1.334 . S
C685 N684 1.334 . S
C685 C687 1.413 . S
C685 H692 0.929 . S
C686 C674 1.392 . S
C686 C687 1.367 . S
C686 H694 0.930 . S
C687 C685 1.413 . S
C687 C686 1.367 . S
C687 H689 0.930 . S
H688 C681 0.930 . S
H689 C687 0.930 . S
H690 C678 0.930 . S
H691 C679 0.930 . S
H692 C685 0.929 . S
H693 C707 0.930 . S
H694 C686 0.930 . S
H695 C713 0.930 . S
H696 C704 0.929 . S
H697 C711 0.930 . S
H698 C675 0.931 . S
H699 C705 0.930 . S
H700 C738 0.930 . S
H701 C682 0.930 . S
H702 C737 0.931 . S
N703 Eu672 2.657 . S
N703 C704 1.334 . S
N703 C708 1.362 . S
C704 H696 0.929 . S
C704 N703 1.334 . S
C704 C707 1.413 . S
C705 H699 0.930 . S
C705 C706 1.392 . S
C705 C707 1.367 . S
C706 C705 1.392 . S
C706 C708 1.420 . S
C706 C738 1.423 . S
C707 H693 0.930 . S
C707 C704 1.413 . S
C707 C705 1.367 . S
C708 N703 1.362 . S
C708 C706 1.420 . S
C708 C712 1.429 . S
H709 C714 0.930 . S
N710 Eu672 2.609 . S
N710 C712 1.377 . S
N710 C713 1.321 . S
C711 H697 0.930 . S
C711 C713 1.400 . S
C711 C714 1.386 . S
C712 C708 1.429 . S
C712 N710 1.377 . S
C712 C715 1.411 . S
C713 H695 0.930 . S
C713 N710 1.321 . S
C713 C711 1.400 . S
C714 H709 0.930 . S
C714 C711 1.386 . S
C714 C715 1.395 . S
C715 C712 1.411 . S
C715 C714 1.395 . S
C715 C737 1.420 . S
O716 Eu672 2.558 . S
O716 C736 1.257 . S
O717 Eu672 2.612 . S
O717 Eu683 2.380 . S
O717 C728 1.276 . S
O718 Eu683 2.432 . S
O718 C735 1.264 . S
O719 Eu672 2.339 . S
O719 C735 1.254 . S
O720 Eu672 2.563 . S
O720 C728 1.235 . S
O721 Eu672 2.419 . S
O721 C736 1.249 . S
O722 Eu683 2.558 . S
O722 C747 1.257 . S
O723 Eu672 2.380 . S
O723 Eu683 2.612 . S
O723 C739 1.276 . S
O724 Eu672 2.432 . S
O724 C746 1.264 . S
O725 Eu683 2.339 . S
O725 C746 1.254 . S
O726 Eu683 2.563 . S
O726 C739 1.235 . S
O727 Eu683 2.419 . S
O727 C747 1.249 . S
C728 O717 1.276 . S
C728 O720 1.235 . S
C729 C731 1.393 . S
C729 C733 1.395 . S
C729 C736 1.492 . S
C730 C731 1.392 . S
C730 C732 1.386 . S
C731 C729 1.393 . S
C731 C730 1.392 . S
C731 H748 0.930 . S
C732 C730 1.386 . S
C732 C734 1.395 . S
C732 H749 0.930 . S
C733 C729 1.395 . S
C733 C734 1.379 . S
C733 H750 0.930 . S
C734 C732 1.395 . S
C734 C733 1.379 . S
C734 H751 0.930 . S
C735 O718 1.264 . S
C735 O719 1.254 . S
C736 Eu672 2.848 . S
C736 O716 1.257 . S
C736 O721 1.249 . S
C736 C729 1.492 . S
C737 H702 0.931 . S
C737 C715 1.420 . S
C737 C738 1.351 . S
C738 H700 0.930 . S
C738 C706 1.423 . S
C738 C737 1.351 . S
C739 O723 1.276 . S
C739 O726 1.235 . S
C740 C741 1.393 . S
C740 C744 1.395 . S
C740 C747 1.492 . S
C741 C740 1.393 . S
C741 C742 1.392 . S
C741 H752 0.930 . S
C742 C741 1.392 . S
C742 C743 1.386 . S
C743 C742 1.386 . S
C743 C745 1.395 . S
C743 H753 0.930 . S
C744 C740 1.395 . S
C744 C745 1.379 . S
C744 H754 0.930 . S
C745 C743 1.395 . S
C745 C744 1.379 . S
C745 H755 0.930 . S
C746 O724 1.264 . S
C746 O725 1.254 . S
C747 Eu683 2.848 . S
C747 O722 1.257 . S
C747 O727 1.249 . S
C747 C740 1.492 . S
H748 C731 0.930 . S
H749 C732 0.930 . S
H750 C733 0.930 . S
H751 C734 0.930 . S
H752 C741 0.930 . S
H753 C743 0.930 . S
H754 C744 0.930 . S
H755 C745 0.930 . S
Eu756 N787 2.657 . S
Eu756 N794 2.609 . S
Eu756 O800 2.558 . S
Eu756 O801 2.612 . S
Eu756 O803 2.339 . S
Eu756 O804 2.563 . S
Eu756 O805 2.419 . S
Eu756 O807 2.380 . S
Eu756 O808 2.432 . S
Eu756 C820 2.848 . S
C757 C760 1.429 . S
C757 C761 1.411 . S
C757 N764 1.377 . S
C758 C760 1.420 . S
C758 C762 1.423 . S
C758 C770 1.392 . S
C759 C761 1.420 . S
C759 C762 1.351 . S
C759 H782 0.931 . S
C760 C757 1.429 . S
C760 C758 1.420 . S
C760 N768 1.362 . S
C761 C757 1.411 . S
C761 C759 1.420 . S
C761 C766 1.395 . S
C762 C758 1.423 . S
C762 C759 1.351 . S
C762 H774 0.930 . S
C763 C765 1.400 . S
C763 C766 1.386 . S
C763 H775 0.930 . S
N764 C757 1.377 . S
N764 C765 1.321 . S
N764 Eu767 2.609 . S
C765 C763 1.400 . S
C765 N764 1.321 . S
C765 H772 0.930 . S
C766 C761 1.395 . S
C766 C763 1.386 . S
C766 H785 0.930 . S
Eu767 N764 2.609 . S
Eu767 N768 2.657 . S
Eu767 O801 2.380 . S
Eu767 O802 2.432 . S
Eu767 O806 2.558 . S
Eu767 O807 2.612 . S
Eu767 O809 2.339 . S
Eu767 O810 2.563 . S
Eu767 O811 2.419 . S
Eu767 C831 2.848 . S
N768 C760 1.362 . S
N768 Eu767 2.657 . S
N768 C769 1.334 . S
C769 N768 1.334 . S
C769 C771 1.413 . S
C769 H776 0.929 . S
C770 C758 1.392 . S
C770 C771 1.367 . S
C770 H778 0.930 . S
C771 C769 1.413 . S
C771 C770 1.367 . S
C771 H773 0.930 . S
H772 C765 0.930 . S
H773 C771 0.930 . S
H774 C762 0.930 . S
H775 C763 0.930 . S
H776 C769 0.929 . S
H777 C791 0.930 . S
H778 C770 0.930 . S
H779 C797 0.930 . S
H780 C788 0.929 . S
H781 C795 0.930 . S
H782 C759 0.931 . S
H783 C789 0.930 . S
H784 C822 0.930 . S
H785 C766 0.930 . S
H786 C821 0.931 . S
N787 Eu756 2.657 . S
N787 C788 1.334 . S
N787 C792 1.362 . S
C788 H780 0.929 . S
C788 N787 1.334 . S
C788 C791 1.413 . S
C789 H783 0.930 . S
C789 C790 1.392 . S
C789 C791 1.367 . S
C790 C789 1.392 . S
C790 C792 1.420 . S
C790 C822 1.423 . S
C791 H777 0.930 . S
C791 C788 1.413 . S
C791 C789 1.367 . S
C792 N787 1.362 . S
C792 C790 1.420 . S
C792 C796 1.429 . S
H793 C798 0.930 . S
N794 Eu756 2.609 . S
N794 C796 1.377 . S
N794 C797 1.321 . S
C795 H781 0.930 . S
C795 C797 1.400 . S
C795 C798 1.386 . S
C796 C792 1.429 . S
C796 N794 1.377 . S
C796 C799 1.411 . S
C797 H779 0.930 . S
C797 N794 1.321 . S
C797 C795 1.400 . S
C798 H793 0.930 . S
C798 C795 1.386 . S
C798 C799 1.395 . S
C799 C796 1.411 . S
C799 C798 1.395 . S
C799 C821 1.420 . S
O800 Eu756 2.558 . S
O800 C820 1.257 . S
O801 Eu756 2.612 . S
O801 Eu767 2.380 . S
O801 C812 1.276 . S
O802 Eu767 2.432 . S
O802 C819 1.264 . S
O803 Eu756 2.339 . S
O803 C819 1.254 . S
O804 Eu756 2.563 . S
O804 C812 1.235 . S
O805 Eu756 2.419 . S
O805 C820 1.249 . S
O806 Eu767 2.558 . S
O806 C831 1.257 . S
O807 Eu756 2.380 . S
O807 Eu767 2.612 . S
O807 C823 1.276 . S
O808 Eu756 2.432 . S
O808 C830 1.264 . S
O809 Eu767 2.339 . S
O809 C830 1.254 . S
O810 Eu767 2.563 . S
O810 C823 1.235 . S
O811 Eu767 2.419 . S
O811 C831 1.249 . S
C812 O801 1.276 . S
C812 O804 1.235 . S
C813 C815 1.393 . S
C813 C817 1.395 . S
C813 C820 1.492 . S
C814 C815 1.392 . S
C814 C816 1.386 . S
C815 C813 1.393 . S
C815 C814 1.392 . S
C815 H832 0.930 . S
C816 C814 1.386 . S
C816 C818 1.395 . S
C816 H833 0.930 . S
C817 C813 1.395 . S
C817 C818 1.379 . S
C817 H834 0.930 . S
C818 C816 1.395 . S
C818 C817 1.379 . S
C818 H835 0.930 . S
C819 O802 1.264 . S
C819 O803 1.254 . S
C820 Eu756 2.848 . S
C820 O800 1.257 . S
C820 O805 1.249 . S
C820 C813 1.492 . S
C821 H786 0.931 . S
C821 C799 1.420 . S
C821 C822 1.351 . S
C822 H784 0.930 . S
C822 C790 1.423 . S
C822 C821 1.351 . S
C823 O807 1.276 . S
C823 O810 1.235 . S
C824 C825 1.393 . S
C824 C828 1.395 . S
C824 C831 1.492 . S
C825 C824 1.393 . S
C825 C826 1.392 . S
C825 H836 0.930 . S
C826 C825 1.392 . S
C826 C827 1.386 . S
C827 C826 1.386 . S
C827 C829 1.395 . S
C827 H837 0.930 . S
C828 C824 1.395 . S
C828 C829 1.379 . S
C828 H838 0.930 . S
C829 C827 1.395 . S
C829 C828 1.379 . S
C829 H839 0.930 . S
C830 O808 1.264 . S
C830 O809 1.254 . S
C831 Eu767 2.848 . S
C831 O806 1.257 . S
C831 O811 1.249 . S
C831 C824 1.492 . S
H832 C815 0.930 . S
H833 C816 0.930 . S
H834 C817 0.930 . S
H835 C818 0.930 . S
H836 C825 0.930 . S
H837 C827 0.930 . S
H838 C828 0.930 . S
H839 C829 0.930 . S
Eu840 N871 2.657 . S
Eu840 N878 2.609 . S
Eu840 O884 2.558 . S
Eu840 O885 2.612 . S
Eu840 O887 2.339 . S
Eu840 O888 2.563 . S
Eu840 O889 2.419 . S
Eu840 O891 2.380 . S
Eu840 O892 2.432 . S
Eu840 C904 2.848 . S
C841 C844 1.429 . S
C841 C845 1.411 . S
C841 N848 1.377 . S
C842 C844 1.420 . S
C842 C846 1.423 . S
C842 C854 1.392 . S
C843 C845 1.420 . S
C843 C846 1.351 . S
C843 H866 0.931 . S
C844 C841 1.429 . S
C844 C842 1.420 . S
C844 N852 1.362 . S
C845 C841 1.411 . S
C845 C843 1.420 . S
C845 C850 1.395 . S
C846 C842 1.423 . S
C846 C843 1.351 . S
C846 H858 0.930 . S
C847 C849 1.400 . S
C847 C850 1.386 . S
C847 H859 0.930 . S
N848 C841 1.377 . S
N848 C849 1.321 . S
N848 Eu851 2.609 . S
C849 C847 1.400 . S
C849 N848 1.321 . S
C849 H856 0.930 . S
C850 C845 1.395 . S
C850 C847 1.386 . S
C850 H869 0.930 . S
Eu851 N848 2.609 . S
Eu851 N852 2.657 . S
Eu851 O885 2.380 . S
Eu851 O886 2.432 . S
Eu851 O890 2.558 . S
Eu851 O891 2.612 . S
Eu851 O893 2.339 . S
Eu851 O894 2.563 . S
Eu851 O895 2.419 . S
Eu851 C915 2.848 . S
N852 C844 1.362 . S
N852 Eu851 2.657 . S
N852 C853 1.334 . S
C853 N852 1.334 . S
C853 C855 1.413 . S
C853 H860 0.929 . S
C854 C842 1.392 . S
C854 C855 1.367 . S
C854 H862 0.930 . S
C855 C853 1.413 . S
C855 C854 1.367 . S
C855 H857 0.930 . S
H856 C849 0.930 . S
H857 C855 0.930 . S
H858 C846 0.930 . S
H859 C847 0.930 . S
H860 C853 0.929 . S
H861 C875 0.930 . S
H862 C854 0.930 . S
H863 C881 0.930 . S
H864 C872 0.929 . S
H865 C879 0.930 . S
H866 C843 0.931 . S
H867 C873 0.930 . S
H868 C906 0.930 . S
H869 C850 0.930 . S
H870 C905 0.931 . S
N871 Eu840 2.657 . S
N871 C872 1.334 . S
N871 C876 1.362 . S
C872 H864 0.929 . S
C872 N871 1.334 . S
C872 C875 1.413 . S
C873 H867 0.930 . S
C873 C874 1.392 . S
C873 C875 1.367 . S
C874 C873 1.392 . S
C874 C876 1.420 . S
C874 C906 1.423 . S
C875 H861 0.930 . S
C875 C872 1.413 . S
C875 C873 1.367 . S
C876 N871 1.362 . S
C876 C874 1.420 . S
C876 C880 1.429 . S
H877 C882 0.930 . S
N878 Eu840 2.609 . S
N878 C880 1.377 . S
N878 C881 1.321 . S
C879 H865 0.930 . S
C879 C881 1.400 . S
C879 C882 1.386 . S
C880 C876 1.429 . S
C880 N878 1.377 . S
C880 C883 1.411 . S
C881 H863 0.930 . S
C881 N878 1.321 . S
C881 C879 1.400 . S
C882 H877 0.930 . S
C882 C879 1.386 . S
C882 C883 1.395 . S
C883 C880 1.411 . S
C883 C882 1.395 . S
C883 C905 1.420 . S
O884 Eu840 2.558 . S
O884 C904 1.257 . S
O885 Eu840 2.612 . S
O885 Eu851 2.380 . S
O885 C896 1.276 . S
O886 Eu851 2.432 . S
O886 C903 1.264 . S
O887 Eu840 2.339 . S
O887 C903 1.254 . S
O888 Eu840 2.563 . S
O888 C896 1.235 . S
O889 Eu840 2.419 . S
O889 C904 1.249 . S
O890 Eu851 2.558 . S
O890 C915 1.257 . S
O891 Eu840 2.380 . S
O891 Eu851 2.612 . S
O891 C907 1.276 . S
O892 Eu840 2.432 . S
O892 C914 1.264 . S
O893 Eu851 2.339 . S
O893 C914 1.254 . S
O894 Eu851 2.563 . S
O894 C907 1.235 . S
O895 Eu851 2.419 . S
O895 C915 1.249 . S
C896 O885 1.276 . S
C896 O888 1.235 . S
C897 C899 1.393 . S
C897 C901 1.395 . S
C897 C904 1.492 . S
C898 C899 1.392 . S
C898 C900 1.386 . S
C899 C897 1.393 . S
C899 C898 1.392 . S
C899 H916 0.930 . S
C900 C898 1.386 . S
C900 C902 1.395 . S
C900 H917 0.930 . S
C901 C897 1.395 . S
C901 C902 1.379 . S
C901 H918 0.930 . S
C902 C900 1.395 . S
C902 C901 1.379 . S
C902 H919 0.930 . S
C903 O886 1.264 . S
C903 O887 1.254 . S
C904 Eu840 2.848 . S
C904 O884 1.257 . S
C904 O889 1.249 . S
C904 C897 1.492 . S
C905 H870 0.931 . S
C905 C883 1.420 . S
C905 C906 1.351 . S
C906 H868 0.930 . S
C906 C874 1.423 . S
C906 C905 1.351 . S
C907 O891 1.276 . S
C907 O894 1.235 . S
C908 C909 1.393 . S
C908 C912 1.395 . S
C908 C915 1.492 . S
C909 C908 1.393 . S
C909 C910 1.392 . S
C909 H920 0.930 . S
C910 C909 1.392 . S
C910 C911 1.386 . S
C911 C910 1.386 . S
C911 C913 1.395 . S
C911 H921 0.930 . S
C912 C908 1.395 . S
C912 C913 1.379 . S
C912 H922 0.930 . S
C913 C911 1.395 . S
C913 C912 1.379 . S
C913 H923 0.930 . S
C914 O892 1.264 . S
C914 O893 1.254 . S
C915 Eu851 2.848 . S
C915 O890 1.257 . S
C915 O895 1.249 . S
C915 C908 1.492 . S
H916 C899 0.930 . S
H917 C900 0.930 . S
H918 C901 0.930 . S
H919 C902 0.930 . S
H920 C909 0.930 . S
H921 C911 0.930 . S
H922 C912 0.930 . S
H923 C913 0.930 . S
Eu924 N955 2.657 . S
Eu924 N962 2.609 . S
Eu924 O968 2.558 . S
Eu924 O969 2.612 . S
Eu924 O971 2.339 . S
Eu924 O972 2.563 . S
Eu924 O973 2.419 . S
Eu924 O975 2.380 . S
Eu924 O976 2.432 . S
Eu924 C988 2.848 . S
C925 C928 1.429 . S
C925 C929 1.411 . S
C925 N932 1.377 . S
C926 C928 1.420 . S
C926 C930 1.423 . S
C926 C938 1.392 . S
C927 C929 1.420 . S
C927 C930 1.351 . S
C927 H950 0.931 . S
C928 C925 1.429 . S
C928 C926 1.420 . S
C928 N936 1.362 . S
C929 C925 1.411 . S
C929 C927 1.420 . S
C929 C934 1.395 . S
C930 C926 1.423 . S
C930 C927 1.351 . S
C930 H942 0.930 . S
C931 C933 1.400 . S
C931 C934 1.386 . S
C931 H943 0.930 . S
N932 C925 1.377 . S
N932 C933 1.321 . S
N932 Eu935 2.609 . S
C933 C931 1.400 . S
C933 N932 1.321 . S
C933 H940 0.930 . S
C934 C929 1.395 . S
C934 C931 1.386 . S
C934 H953 0.930 . S
Eu935 N932 2.609 . S
Eu935 N936 2.657 . S
Eu935 O969 2.380 . S
Eu935 O970 2.432 . S
Eu935 O974 2.558 . S
Eu935 O975 2.612 . S
Eu935 O977 2.339 . S
Eu935 O978 2.563 . S
Eu935 O979 2.419 . S
Eu935 C999 2.848 . S
N936 C928 1.362 . S
N936 Eu935 2.657 . S
N936 C937 1.334 . S
C937 N936 1.334 . S
C937 C939 1.413 . S
C937 H944 0.929 . S
C938 C926 1.392 . S
C938 C939 1.367 . S
C938 H946 0.930 . S
C939 C937 1.413 . S
C939 C938 1.367 . S
C939 H941 0.930 . S
H940 C933 0.930 . S
H941 C939 0.930 . S
H942 C930 0.930 . S
H943 C931 0.930 . S
H944 C937 0.929 . S
H945 C959 0.930 . S
H946 C938 0.930 . S
H947 C965 0.930 . S
H948 C956 0.929 . S
H949 C963 0.930 . S
H950 C927 0.931 . S
H951 C957 0.930 . S
H952 C990 0.930 . S
H953 C934 0.930 . S
H954 C989 0.931 . S
N955 Eu924 2.657 . S
N955 C956 1.334 . S
N955 C960 1.362 . S
C956 H948 0.929 . S
C956 N955 1.334 . S
C956 C959 1.413 . S
C957 H951 0.930 . S
C957 C958 1.392 . S
C957 C959 1.367 . S
C958 C957 1.392 . S
C958 C960 1.420 . S
C958 C990 1.423 . S
C959 H945 0.930 . S
C959 C956 1.413 . S
C959 C957 1.367 . S
C960 N955 1.362 . S
C960 C958 1.420 . S
C960 C964 1.429 . S
H961 C966 0.930 . S
N962 Eu924 2.609 . S
N962 C964 1.377 . S
N962 C965 1.321 . S
C963 H949 0.930 . S
C963 C965 1.400 . S
C963 C966 1.386 . S
C964 C960 1.429 . S
C964 N962 1.377 . S
C964 C967 1.411 . S
C965 H947 0.930 . S
C965 N962 1.321 . S
C965 C963 1.400 . S
C966 H961 0.930 . S
C966 C963 1.386 . S
C966 C967 1.395 . S
C967 C964 1.411 . S
C967 C966 1.395 . S
C967 C989 1.420 . S
O968 Eu924 2.558 . S
O968 C988 1.257 . S
O969 Eu924 2.612 . S
O969 Eu935 2.380 . S
O969 C980 1.276 . S
O970 Eu935 2.432 . S
O970 C987 1.264 . S
O971 Eu924 2.339 . S
O971 C987 1.254 . S
O972 Eu924 2.563 . S
O972 C980 1.235 . S
O973 Eu924 2.419 . S
O973 C988 1.249 . S
O974 Eu935 2.558 . S
O974 C999 1.257 . S
O975 Eu924 2.380 . S
O975 Eu935 2.612 . S
O975 C991 1.276 . S
O976 Eu924 2.432 . S
O976 C998 1.264 . S
O977 Eu935 2.339 . S
O977 C998 1.254 . S
O978 Eu935 2.563 . S
O978 C991 1.235 . S
O979 Eu935 2.419 . S
O979 C999 1.249 . S
C980 O969 1.276 . S
C980 O972 1.235 . S
C981 C983 1.393 . S
C981 C985 1.395 . S
C981 C988 1.492 . S
C982 C983 1.392 . S
C982 C984 1.386 . S
C983 C981 1.393 . S
C983 C982 1.392 . S
C983 H1000 0.930 . S
C984 C982 1.386 . S
C984 C986 1.395 . S
C984 H1001 0.930 . S
C985 C981 1.395 . S
C985 C986 1.379 . S
C985 H1002 0.930 . S
C986 C984 1.395 . S
C986 C985 1.379 . S
C986 H1003 0.930 . S
C987 O970 1.264 . S
C987 O971 1.254 . S
C988 Eu924 2.848 . S
C988 O968 1.257 . S
C988 O973 1.249 . S
C988 C981 1.492 . S
C989 H954 0.931 . S
C989 C967 1.420 . S
C989 C990 1.351 . S
C990 H952 0.930 . S
C990 C958 1.423 . S
C990 C989 1.351 . S
C991 O975 1.276 . S
C991 O978 1.235 . S
C992 C993 1.393 . S
C992 C996 1.395 . S
C992 C999 1.492 . S
C993 C992 1.393 . S
C993 C994 1.392 . S
C993 H1004 0.930 . S
C994 C993 1.392 . S
C994 C995 1.386 . S
C995 C994 1.386 . S
C995 C997 1.395 . S
C995 H1005 0.930 . S
C996 C992 1.395 . S
C996 C997 1.379 . S
C996 H1006 0.930 . S
C997 C995 1.395 . S
C997 C996 1.379 . S
C997 H1007 0.930 . S
C998 O976 1.264 . S
C998 O977 1.254 . S
C999 Eu935 2.848 . S
C999 O974 1.257 . S
C999 O979 1.249 . S
C999 C992 1.492 . S
H1000 C983 0.930 . S
H1001 C984 0.930 . S
H1002 C985 0.930 . S
H1003 C986 0.930 . S
H1004 C993 0.930 . S
H1005 C995 0.930 . S
H1006 C996 0.930 . S
H1007 C997 0.930 . S
Eu1008 N1039 2.657 . S
Eu1008 N1046 2.609 . S
Eu1008 O1052 2.558 . S
Eu1008 O1053 2.612 . S
Eu1008 O1055 2.339 . S
Eu1008 O1056 2.563 . S
Eu1008 O1057 2.419 . S
Eu1008 O1059 2.380 . S
Eu1008 O1060 2.432 . S
Eu1008 C1072 2.848 . S
C1009 C1012 1.429 . S
C1009 C1013 1.411 . S
C1009 N1016 1.377 . S
C1010 C1012 1.420 . S
C1010 C1014 1.423 . S
C1010 C1022 1.392 . S
C1011 C1013 1.420 . S
C1011 C1014 1.351 . S
C1011 H1034 0.931 . S
C1012 C1009 1.429 . S
C1012 C1010 1.420 . S
C1012 N1020 1.362 . S
C1013 C1009 1.411 . S
C1013 C1011 1.420 . S
C1013 C1018 1.395 . S
C1014 C1010 1.423 . S
C1014 C1011 1.351 . S
C1014 H1026 0.930 . S
C1015 C1017 1.400 . S
C1015 C1018 1.386 . S
C1015 H1027 0.930 . S
N1016 C1009 1.377 . S
N1016 C1017 1.321 . S
N1016 Eu1019 2.609 . S
C1017 C1015 1.400 . S
C1017 N1016 1.321 . S
C1017 H1024 0.930 . S
C1018 C1013 1.395 . S
C1018 C1015 1.386 . S
C1018 H1037 0.930 . S
Eu1019 N1016 2.609 . S
Eu1019 N1020 2.657 . S
Eu1019 O1053 2.380 . S
Eu1019 O1054 2.432 . S
Eu1019 O1058 2.558 . S
Eu1019 O1059 2.612 . S
Eu1019 O1061 2.339 . S
Eu1019 O1062 2.563 . S
Eu1019 O1063 2.419 . S
Eu1019 C1083 2.848 . S
N1020 C1012 1.362 . S
N1020 Eu1019 2.657 . S
N1020 C1021 1.334 . S
C1021 N1020 1.334 . S
C1021 C1023 1.413 . S
C1021 H1028 0.929 . S
C1022 C1010 1.392 . S
C1022 C1023 1.367 . S
C1022 H1030 0.930 . S
C1023 C1021 1.413 . S
C1023 C1022 1.367 . S
C1023 H1025 0.930 . S
H1024 C1017 0.930 . S
H1025 C1023 0.930 . S
H1026 C1014 0.930 . S
H1027 C1015 0.930 . S
H1028 C1021 0.929 . S
H1029 C1043 0.930 . S
H1030 C1022 0.930 . S
H1031 C1049 0.930 . S
H1032 C1040 0.929 . S
H1033 C1047 0.930 . S
H1034 C1011 0.931 . S
H1035 C1041 0.930 . S
H1036 C1074 0.930 . S
H1037 C1018 0.930 . S
H1038 C1073 0.931 . S
N1039 Eu1008 2.657 . S
N1039 C1040 1.334 . S
N1039 C1044 1.362 . S
C1040 H1032 0.929 . S
C1040 N1039 1.334 . S
C1040 C1043 1.413 . S
C1041 H1035 0.930 . S
C1041 C1042 1.392 . S
C1041 C1043 1.367 . S
C1042 C1041 1.392 . S
C1042 C1044 1.420 . S
C1042 C1074 1.423 . S
C1043 H1029 0.930 . S
C1043 C1040 1.413 . S
C1043 C1041 1.367 . S
C1044 N1039 1.362 . S
C1044 C1042 1.420 . S
C1044 C1048 1.429 . S
H1045 C1050 0.930 . S
N1046 Eu1008 2.609 . S
N1046 C1048 1.377 . S
N1046 C1049 1.321 . S
C1047 H1033 0.930 . S
C1047 C1049 1.400 . S
C1047 C1050 1.386 . S
C1048 C1044 1.429 . S
C1048 N1046 1.377 . S
C1048 C1051 1.411 . S
C1049 H1031 0.930 . S
C1049 N1046 1.321 . S
C1049 C1047 1.400 . S
C1050 H1045 0.930 . S
C1050 C1047 1.386 . S
C1050 C1051 1.395 . S
C1051 C1048 1.411 . S
C1051 C1050 1.395 . S
C1051 C1073 1.420 . S
O1052 Eu1008 2.558 . S
O1052 C1072 1.257 . S
O1053 Eu1008 2.612 . S
O1053 Eu1019 2.380 . S
O1053 C1064 1.276 . S
O1054 Eu1019 2.432 . S
O1054 C1071 1.264 . S
O1055 Eu1008 2.339 . S
O1055 C1071 1.254 . S
O1056 Eu1008 2.563 . S
O1056 C1064 1.235 . S
O1057 Eu1008 2.419 . S
O1057 C1072 1.249 . S
O1058 Eu1019 2.558 . S
O1058 C1083 1.257 . S
O1059 Eu1008 2.380 . S
O1059 Eu1019 2.612 . S
O1059 C1075 1.276 . S
O1060 Eu1008 2.432 . S
O1060 C1082 1.264 . S
O1061 Eu1019 2.339 . S
O1061 C1082 1.254 . S
O1062 Eu1019 2.563 . S
O1062 C1075 1.235 . S
O1063 Eu1019 2.419 . S
O1063 C1083 1.249 . S
C1064 O1053 1.276 . S
C1064 O1056 1.235 . S
C1065 C1067 1.393 . S
C1065 C1069 1.395 . S
C1065 C1072 1.492 . S
C1066 C1067 1.392 . S
C1066 C1068 1.386 . S
C1067 C1065 1.393 . S
C1067 C1066 1.392 . S
C1067 H1084 0.930 . S
C1068 C1066 1.386 . S
C1068 C1070 1.395 . S
C1068 H1085 0.930 . S
C1069 C1065 1.395 . S
C1069 C1070 1.379 . S
C1069 H1086 0.930 . S
C1070 C1068 1.395 . S
C1070 C1069 1.379 . S
C1070 H1087 0.930 . S
C1071 O1054 1.264 . S
C1071 O1055 1.254 . S
C1072 Eu1008 2.848 . S
C1072 O1052 1.257 . S
C1072 O1057 1.249 . S
C1072 C1065 1.492 . S
C1073 H1038 0.931 . S
C1073 C1051 1.420 . S
C1073 C1074 1.351 . S
C1074 H1036 0.930 . S
C1074 C1042 1.423 . S
C1074 C1073 1.351 . S
C1075 O1059 1.276 . S
C1075 O1062 1.235 . S
C1076 C1077 1.393 . S
C1076 C1080 1.395 . S
C1076 C1083 1.492 . S
C1077 C1076 1.393 . S
C1077 C1078 1.392 . S
C1077 H1088 0.930 . S
C1078 C1077 1.392 . S
C1078 C1079 1.386 . S
C1079 C1078 1.386 . S
C1079 C1081 1.395 . S
C1079 H1089 0.930 . S
C1080 C1076 1.395 . S
C1080 C1081 1.379 . S
C1080 H1090 0.930 . S
C1081 C1079 1.395 . S
C1081 C1080 1.379 . S
C1081 H1091 0.930 . S
C1082 O1060 1.264 . S
C1082 O1061 1.254 . S
C1083 Eu1019 2.848 . S
C1083 O1058 1.257 . S
C1083 O1063 1.249 . S
C1083 C1076 1.492 . S
H1084 C1067 0.930 . S
H1085 C1068 0.930 . S
H1086 C1069 0.930 . S
H1087 C1070 0.930 . S
H1088 C1077 0.930 . S
H1089 C1079 0.930 . S
H1090 C1080 0.930 . S
H1091 C1081 0.930 . S
Eu1092 N1123 2.657 . S
Eu1092 N1130 2.609 . S
Eu1092 O1136 2.558 . S
Eu1092 O1137 2.612 . S
Eu1092 O1139 2.339 . S
Eu1092 O1140 2.563 . S
Eu1092 O1141 2.419 . S
Eu1092 O1143 2.380 . S
Eu1092 O1144 2.432 . S
Eu1092 C1156 2.848 . S
C1093 C1096 1.429 . S
C1093 C1097 1.411 . S
C1093 N1100 1.377 . S
C1094 C1096 1.420 . S
C1094 C1098 1.423 . S
C1094 C1106 1.392 . S
C1095 C1097 1.420 . S
C1095 C1098 1.351 . S
C1095 H1118 0.931 . S
C1096 C1093 1.429 . S
C1096 C1094 1.420 . S
C1096 N1104 1.362 . S
C1097 C1093 1.411 . S
C1097 C1095 1.420 . S
C1097 C1102 1.395 . S
C1098 C1094 1.423 . S
C1098 C1095 1.351 . S
C1098 H1110 0.930 . S
C1099 C1101 1.400 . S
C1099 C1102 1.386 . S
C1099 H1111 0.930 . S
N1100 C1093 1.377 . S
N1100 C1101 1.321 . S
N1100 Eu1103 2.609 . S
C1101 C1099 1.400 . S
C1101 N1100 1.321 . S
C1101 H1108 0.930 . S
C1102 C1097 1.395 . S
C1102 C1099 1.386 . S
C1102 H1121 0.930 . S
Eu1103 N1100 2.609 . S
Eu1103 N1104 2.657 . S
Eu1103 O1137 2.380 . S
Eu1103 O1138 2.432 . S
Eu1103 O1142 2.558 . S
Eu1103 O1143 2.612 . S
Eu1103 O1145 2.339 . S
Eu1103 O1146 2.563 . S
Eu1103 O1147 2.419 . S
Eu1103 C1167 2.848 . S
N1104 C1096 1.362 . S
N1104 Eu1103 2.657 . S
N1104 C1105 1.334 . S
C1105 N1104 1.334 . S
C1105 C1107 1.413 . S
C1105 H1112 0.929 . S
C1106 C1094 1.392 . S
C1106 C1107 1.367 . S
C1106 H1114 0.930 . S
C1107 C1105 1.413 . S
C1107 C1106 1.367 . S
C1107 H1109 0.930 . S
H1108 C1101 0.930 . S
H1109 C1107 0.930 . S
H1110 C1098 0.930 . S
H1111 C1099 0.930 . S
H1112 C1105 0.929 . S
H1113 C1127 0.930 . S
H1114 C1106 0.930 . S
H1115 C1133 0.930 . S
H1116 C1124 0.929 . S
H1117 C1131 0.930 . S
H1118 C1095 0.931 . S
H1119 C1125 0.930 . S
H1120 C1158 0.930 . S
H1121 C1102 0.930 . S
H1122 C1157 0.931 . S
N1123 Eu1092 2.657 . S
N1123 C1124 1.334 . S
N1123 C1128 1.362 . S
C1124 H1116 0.929 . S
C1124 N1123 1.334 . S
C1124 C1127 1.413 . S
C1125 H1119 0.930 . S
C1125 C1126 1.392 . S
C1125 C1127 1.367 . S
C1126 C1125 1.392 . S
C1126 C1128 1.420 . S
C1126 C1158 1.423 . S
C1127 H1113 0.930 . S
C1127 C1124 1.413 . S
C1127 C1125 1.367 . S
C1128 N1123 1.362 . S
C1128 C1126 1.420 . S
C1128 C1132 1.429 . S
H1129 C1134 0.930 . S
N1130 Eu1092 2.609 . S
N1130 C1132 1.377 . S
N1130 C1133 1.321 . S
C1131 H1117 0.930 . S
C1131 C1133 1.400 . S
C1131 C1134 1.386 . S
C1132 C1128 1.429 . S
C1132 N1130 1.377 . S
C1132 C1135 1.411 . S
C1133 H1115 0.930 . S
C1133 N1130 1.321 . S
C1133 C1131 1.400 . S
C1134 H1129 0.930 . S
C1134 C1131 1.386 . S
C1134 C1135 1.395 . S
C1135 C1132 1.411 . S
C1135 C1134 1.395 . S
C1135 C1157 1.420 . S
O1136 Eu1092 2.558 . S
O1136 C1156 1.257 . S
O1137 Eu1092 2.612 . S
O1137 Eu1103 2.380 . S
O1137 C1148 1.276 . S
O1138 Eu1103 2.432 . S
O1138 C1155 1.264 . S
O1139 Eu1092 2.339 . S
O1139 C1155 1.254 . S
O1140 Eu1092 2.563 . S
O1140 C1148 1.235 . S
O1141 Eu1092 2.419 . S
O1141 C1156 1.249 . S
O1142 Eu1103 2.558 . S
O1142 C1167 1.257 . S
O1143 Eu1092 2.380 . S
O1143 Eu1103 2.612 . S
O1143 C1159 1.276 . S
O1144 Eu1092 2.432 . S
O1144 C1166 1.264 . S
O1145 Eu1103 2.339 . S
O1145 C1166 1.254 . S
O1146 Eu1103 2.563 . S
O1146 C1159 1.235 . S
O1147 Eu1103 2.419 . S
O1147 C1167 1.249 . S
C1148 O1137 1.276 . S
C1148 O1140 1.235 . S
C1149 C1151 1.393 . S
C1149 C1153 1.395 . S
C1149 C1156 1.492 . S
C1150 C1151 1.392 . S
C1150 C1152 1.386 . S
C1151 C1149 1.393 . S
C1151 C1150 1.392 . S
C1151 H1168 0.930 . S
C1152 C1150 1.386 . S
C1152 C1154 1.395 . S
C1152 H1169 0.930 . S
C1153 C1149 1.395 . S
C1153 C1154 1.379 . S
C1153 H1170 0.930 . S
C1154 C1152 1.395 . S
C1154 C1153 1.379 . S
C1154 H1171 0.930 . S
C1155 O1138 1.264 . S
C1155 O1139 1.254 . S
C1156 Eu1092 2.848 . S
C1156 O1136 1.257 . S
C1156 O1141 1.249 . S
C1156 C1149 1.492 . S
C1157 H1122 0.931 . S
C1157 C1135 1.420 . S
C1157 C1158 1.351 . S
C1158 H1120 0.930 . S
C1158 C1126 1.423 . S
C1158 C1157 1.351 . S
C1159 O1143 1.276 . S
C1159 O1146 1.235 . S
C1160 C1161 1.393 . S
C1160 C1164 1.395 . S
C1160 C1167 1.492 . S
C1161 C1160 1.393 . S
C1161 C1162 1.392 . S
C1161 H1172 0.930 . S
C1162 C1161 1.392 . S
C1162 C1163 1.386 . S
C1163 C1162 1.386 . S
C1163 C1165 1.395 . S
C1163 H1173 0.930 . S
C1164 C1160 1.395 . S
C1164 C1165 1.379 . S
C1164 H1174 0.930 . S
C1165 C1163 1.395 . S
C1165 C1164 1.379 . S
C1165 H1175 0.930 . S
C1166 O1144 1.264 . S
C1166 O1145 1.254 . S
C1167 Eu1103 2.848 . S
C1167 O1142 1.257 . S
C1167 O1147 1.249 . S
C1167 C1160 1.492 . S
H1168 C1151 0.930 . S
H1169 C1152 0.930 . S
H1170 C1153 0.930 . S
H1171 C1154 0.930 . S
H1172 C1161 0.930 . S
H1173 C1163 0.930 . S
H1174 C1164 0.930 . S
H1175 C1165 0.930 . S
Eu1176 N1207 2.657 . S
Eu1176 N1214 2.609 . S
Eu1176 O1220 2.558 . S
Eu1176 O1221 2.612 . S
Eu1176 O1223 2.339 . S
Eu1176 O1224 2.563 . S
Eu1176 O1225 2.419 . S
Eu1176 O1227 2.380 . S
Eu1176 O1228 2.432 . S
Eu1176 C1240 2.848 . S
C1177 C1180 1.429 . S
C1177 C1181 1.411 . S
C1177 N1184 1.377 . S
C1178 C1180 1.420 . S
C1178 C1182 1.423 . S
C1178 C1190 1.392 . S
C1179 C1181 1.420 . S
C1179 C1182 1.351 . S
C1179 H1202 0.931 . S
C1180 C1177 1.429 . S
C1180 C1178 1.420 . S
C1180 N1188 1.362 . S
C1181 C1177 1.411 . S
C1181 C1179 1.420 . S
C1181 C1186 1.395 . S
C1182 C1178 1.423 . S
C1182 C1179 1.351 . S
C1182 H1194 0.930 . S
C1183 C1185 1.400 . S
C1183 C1186 1.386 . S
C1183 H1195 0.930 . S
N1184 C1177 1.377 . S
N1184 C1185 1.321 . S
N1184 Eu1187 2.609 . S
C1185 C1183 1.400 . S
C1185 N1184 1.321 . S
C1185 H1192 0.930 . S
C1186 C1181 1.395 . S
C1186 C1183 1.386 . S
C1186 H1205 0.930 . S
Eu1187 N1184 2.609 . S
Eu1187 N1188 2.657 . S
Eu1187 O1221 2.380 . S
Eu1187 O1222 2.432 . S
Eu1187 O1226 2.558 . S
Eu1187 O1227 2.612 . S
Eu1187 O1229 2.339 . S
Eu1187 O1230 2.563 . S
Eu1187 O1231 2.419 . S
Eu1187 C1251 2.848 . S
N1188 C1180 1.362 . S
N1188 Eu1187 2.657 . S
N1188 C1189 1.334 . S
C1189 N1188 1.334 . S
C1189 C1191 1.413 . S
C1189 H1196 0.929 . S
C1190 C1178 1.392 . S
C1190 C1191 1.367 . S
C1190 H1198 0.930 . S
C1191 C1189 1.413 . S
C1191 C1190 1.367 . S
C1191 H1193 0.930 . S
H1192 C1185 0.930 . S
H1193 C1191 0.930 . S
H1194 C1182 0.930 . S
H1195 C1183 0.930 . S
H1196 C1189 0.929 . S
H1197 C1211 0.930 . S
H1198 C1190 0.930 . S
H1199 C1217 0.930 . S
H1200 C1208 0.929 . S
H1201 C1215 0.930 . S
H1202 C1179 0.931 . S
H1203 C1209 0.930 . S
H1204 C1242 0.930 . S
H1205 C1186 0.930 . S
H1206 C1241 0.931 . S
N1207 Eu1176 2.657 . S
N1207 C1208 1.334 . S
N1207 C1212 1.362 . S
C1208 H1200 0.929 . S
C1208 N1207 1.334 . S
C1208 C1211 1.413 . S
C1209 H1203 0.930 . S
C1209 C1210 1.392 . S
C1209 C1211 1.367 . S
C1210 C1209 1.392 . S
C1210 C1212 1.420 . S
C1210 C1242 1.423 . S
C1211 H1197 0.930 . S
C1211 C1208 1.413 . S
C1211 C1209 1.367 . S
C1212 N1207 1.362 . S
C1212 C1210 1.420 . S
C1212 C1216 1.429 . S
H1213 C1218 0.930 . S
N1214 Eu1176 2.609 . S
N1214 C1216 1.377 . S
N1214 C1217 1.321 . S
C1215 H1201 0.930 . S
C1215 C1217 1.400 . S
C1215 C1218 1.386 . S
C1216 C1212 1.429 . S
C1216 N1214 1.377 . S
C1216 C1219 1.411 . S
C1217 H1199 0.930 . S
C1217 N1214 1.321 . S
C1217 C1215 1.400 . S
C1218 H1213 0.930 . S
C1218 C1215 1.386 . S
C1218 C1219 1.395 . S
C1219 C1216 1.411 . S
C1219 C1218 1.395 . S
C1219 C1241 1.420 . S
O1220 Eu1176 2.558 . S
O1220 C1240 1.257 . S
O1221 Eu1176 2.612 . S
O1221 Eu1187 2.380 . S
O1221 C1232 1.276 . S
O1222 Eu1187 2.432 . S
O1222 C1239 1.264 . S
O1223 Eu1176 2.339 . S
O1223 C1239 1.254 . S
O1224 Eu1176 2.563 . S
O1224 C1232 1.235 . S
O1225 Eu1176 2.419 . S
O1225 C1240 1.249 . S
O1226 Eu1187 2.558 . S
O1226 C1251 1.257 . S
O1227 Eu1176 2.380 . S
O1227 Eu1187 2.612 . S
O1227 C1243 1.276 . S
O1228 Eu1176 2.432 . S
O1228 C1250 1.264 . S
O1229 Eu1187 2.339 . S
O1229 C1250 1.254 . S
O1230 Eu1187 2.563 . S
O1230 C1243 1.235 . S
O1231 Eu1187 2.419 . S
O1231 C1251 1.249 . S
C1232 O1221 1.276 . S
C1232 O1224 1.235 . S
C1233 C1235 1.393 . S
C1233 C1237 1.395 . S
C1233 C1240 1.492 . S
C1234 C1235 1.392 . S
C1234 C1236 1.386 . S
C1235 C1233 1.393 . S
C1235 C1234 1.392 . S
C1235 H1252 0.930 . S
C1236 C1234 1.386 . S
C1236 C1238 1.395 . S
C1236 H1253 0.930 . S
C1237 C1233 1.395 . S
C1237 C1238 1.379 . S
C1237 H1254 0.930 . S
C1238 C1236 1.395 . S
C1238 C1237 1.379 . S
C1238 H1255 0.930 . S
C1239 O1222 1.264 . S
C1239 O1223 1.254 . S
C1240 Eu1176 2.848 . S
C1240 O1220 1.257 . S
C1240 O1225 1.249 . S
C1240 C1233 1.492 . S
C1241 H1206 0.931 . S
C1241 C1219 1.420 . S
C1241 C1242 1.351 . S
C1242 H1204 0.930 . S
C1242 C1210 1.423 . S
C1242 C1241 1.351 . S
C1243 O1227 1.276 . S
C1243 O1230 1.235 . S
C1244 C1245 1.393 . S
C1244 C1248 1.395 . S
C1244 C1251 1.492 . S
C1245 C1244 1.393 . S
C1245 C1246 1.392 . S
C1245 H1256 0.930 . S
C1246 C1245 1.392 . S
C1246 C1247 1.386 . S
C1247 C1246 1.386 . S
C1247 C1249 1.395 . S
C1247 H1257 0.930 . S
C1248 C1244 1.395 . S
C1248 C1249 1.379 . S
C1248 H1258 0.930 . S
C1249 C1247 1.395 . S
C1249 C1248 1.379 . S
C1249 H1259 0.930 . S
C1250 O1228 1.264 . S
C1250 O1229 1.254 . S
C1251 Eu1187 2.848 . S
C1251 O1226 1.257 . S
C1251 O1231 1.249 . S
C1251 C1244 1.492 . S
H1252 C1235 0.930 . S
H1253 C1236 0.930 . S
H1254 C1237 0.930 . S
H1255 C1238 0.930 . S
H1256 C1245 0.930 . S
H1257 C1247 0.930 . S
H1258 C1248 0.930 . S
H1259 C1249 0.930 . S
Eu1260 N1291 2.657 . S
Eu1260 N1298 2.609 . S
Eu1260 O1304 2.558 . S
Eu1260 O1305 2.612 . S
Eu1260 O1307 2.339 . S
Eu1260 O1308 2.563 . S
Eu1260 O1309 2.419 . S
Eu1260 O1311 2.380 . S
Eu1260 O1312 2.432 . S
Eu1260 C1324 2.848 . S
C1261 C1264 1.429 . S
C1261 C1265 1.411 . S
C1261 N1268 1.377 . S
C1262 C1264 1.420 . S
C1262 C1266 1.423 . S
C1262 C1274 1.392 . S
C1263 C1265 1.420 . S
C1263 C1266 1.351 . S
C1263 H1286 0.931 . S
C1264 C1261 1.429 . S
C1264 C1262 1.420 . S
C1264 N1272 1.362 . S
C1265 C1261 1.411 . S
C1265 C1263 1.420 . S
C1265 C1270 1.395 . S
C1266 C1262 1.423 . S
C1266 C1263 1.351 . S
C1266 H1278 0.930 . S
C1267 C1269 1.400 . S
C1267 C1270 1.386 . S
C1267 H1279 0.930 . S
N1268 C1261 1.377 . S
N1268 C1269 1.321 . S
N1268 Eu1271 2.609 . S
C1269 C1267 1.400 . S
C1269 N1268 1.321 . S
C1269 H1276 0.930 . S
C1270 C1265 1.395 . S
C1270 C1267 1.386 . S
C1270 H1289 0.930 . S
Eu1271 N1268 2.609 . S
Eu1271 N1272 2.657 . S
Eu1271 O1305 2.380 . S
Eu1271 O1306 2.432 . S
Eu1271 O1310 2.558 . S
Eu1271 O1311 2.612 . S
Eu1271 O1313 2.339 . S
Eu1271 O1314 2.563 . S
Eu1271 O1315 2.419 . S
Eu1271 C1335 2.848 . S
N1272 C1264 1.362 . S
N1272 Eu1271 2.657 . S
N1272 C1273 1.334 . S
C1273 N1272 1.334 . S
C1273 C1275 1.413 . S
C1273 H1280 0.929 . S
C1274 C1262 1.392 . S
C1274 C1275 1.367 . S
C1274 H1282 0.930 . S
C1275 C1273 1.413 . S
C1275 C1274 1.367 . S
C1275 H1277 0.930 . S
H1276 C1269 0.930 . S
H1277 C1275 0.930 . S
H1278 C1266 0.930 . S
H1279 C1267 0.930 . S
H1280 C1273 0.929 . S
H1281 C1295 0.930 . S
H1282 C1274 0.930 . S
H1283 C1301 0.930 . S
H1284 C1292 0.929 . S
H1285 C1299 0.930 . S
H1286 C1263 0.931 . S
H1287 C1293 0.930 . S
H1288 C1326 0.930 . S
H1289 C1270 0.930 . S
H1290 C1325 0.931 . S
N1291 Eu1260 2.657 . S
N1291 C1292 1.334 . S
N1291 C1296 1.362 . S
C1292 H1284 0.929 . S
C1292 N1291 1.334 . S
C1292 C1295 1.413 . S
C1293 H1287 0.930 . S
C1293 C1294 1.392 . S
C1293 C1295 1.367 . S
C1294 C1293 1.392 . S
C1294 C1296 1.420 . S
C1294 C1326 1.423 . S
C1295 H1281 0.930 . S
C1295 C1292 1.413 . S
C1295 C1293 1.367 . S
C1296 N1291 1.362 . S
C1296 C1294 1.420 . S
C1296 C1300 1.429 . S
H1297 C1302 0.930 . S
N1298 Eu1260 2.609 . S
N1298 C1300 1.377 . S
N1298 C1301 1.321 . S
C1299 H1285 0.930 . S
C1299 C1301 1.400 . S
C1299 C1302 1.386 . S
C1300 C1296 1.429 . S
C1300 N1298 1.377 . S
C1300 C1303 1.411 . S
C1301 H1283 0.930 . S
C1301 N1298 1.321 . S
C1301 C1299 1.400 . S
C1302 H1297 0.930 . S
C1302 C1299 1.386 . S
C1302 C1303 1.395 . S
C1303 C1300 1.411 . S
C1303 C1302 1.395 . S
C1303 C1325 1.420 . S
O1304 Eu1260 2.558 . S
O1304 C1324 1.257 . S
O1305 Eu1260 2.612 . S
O1305 Eu1271 2.380 . S
O1305 C1316 1.276 . S
O1306 Eu1271 2.432 . S
O1306 C1323 1.264 . S
O1307 Eu1260 2.339 . S
O1307 C1323 1.254 . S
O1308 Eu1260 2.563 . S
O1308 C1316 1.235 . S
O1309 Eu1260 2.419 . S
O1309 C1324 1.249 . S
O1310 Eu1271 2.558 . S
O1310 C1335 1.257 . S
O1311 Eu1260 2.380 . S
O1311 Eu1271 2.612 . S
O1311 C1327 1.276 . S
O1312 Eu1260 2.432 . S
O1312 C1334 1.264 . S
O1313 Eu1271 2.339 . S
O1313 C1334 1.254 . S
O1314 Eu1271 2.563 . S
O1314 C1327 1.235 . S
O1315 Eu1271 2.419 . S
O1315 C1335 1.249 . S
C1316 O1305 1.276 . S
C1316 O1308 1.235 . S
C1317 C1319 1.393 . S
C1317 C1321 1.395 . S
C1317 C1324 1.492 . S
C1318 C1319 1.392 . S
C1318 C1320 1.386 . S
C1319 C1317 1.393 . S
C1319 C1318 1.392 . S
C1319 H1336 0.930 . S
C1320 C1318 1.386 . S
C1320 C1322 1.395 . S
C1320 H1337 0.930 . S
C1321 C1317 1.395 . S
C1321 C1322 1.379 . S
C1321 H1338 0.930 . S
C1322 C1320 1.395 . S
C1322 C1321 1.379 . S
C1322 H1339 0.930 . S
C1323 O1306 1.264 . S
C1323 O1307 1.254 . S
C1324 Eu1260 2.848 . S
C1324 O1304 1.257 . S
C1324 O1309 1.249 . S
C1324 C1317 1.492 . S
C1325 H1290 0.931 . S
C1325 C1303 1.420 . S
C1325 C1326 1.351 . S
C1326 H1288 0.930 . S
C1326 C1294 1.423 . S
C1326 C1325 1.351 . S
C1327 O1311 1.276 . S
C1327 O1314 1.235 . S
C1328 C1329 1.393 . S
C1328 C1332 1.395 . S
C1328 C1335 1.492 . S
C1329 C1328 1.393 . S
C1329 C1330 1.392 . S
C1329 H1340 0.930 . S
C1330 C1329 1.392 . S
C1330 C1331 1.386 . S
C1331 C1330 1.386 . S
C1331 C1333 1.395 . S
C1331 H1341 0.930 . S
C1332 C1328 1.395 . S
C1332 C1333 1.379 . S
C1332 H1342 0.930 . S
C1333 C1331 1.395 . S
C1333 C1332 1.379 . S
C1333 H1343 0.930 . S
C1334 O1312 1.264 . S
C1334 O1313 1.254 . S
C1335 Eu1271 2.848 . S
C1335 O1310 1.257 . S
C1335 O1315 1.249 . S
C1335 C1328 1.492 . S
H1336 C1319 0.930 . S
H1337 C1320 0.930 . S
H1338 C1321 0.930 . S
H1339 C1322 0.930 . S
H1340 C1329 0.930 . S
H1341 C1331 0.930 . S
H1342 C1332 0.930 . S
H1343 C1333 0.930 . S
H1344 C1362 0.951 . S
H1345 C1364 0.951 . S
H1346 C1366 0.950 . S
H1347 C1367 0.950 . S
H1348 C1369 0.950 . S
H1349 C1372 0.950 . S
H1350 C1373 0.950 . S
H1351 C1375 0.950 . S
H1352 C1376 0.950 . S
H1353 C1377 0.951 . S
H1354 C1379 0.951 . S
H1355 C1381 0.950 . S
H1356 C1382 0.950 . S
H1357 C1384 0.950 . S
H1358 C1387 0.950 . S
H1359 C1388 0.950 . S
H1360 C1390 0.950 . S
H1361 C1391 0.950 . S
C1362 H1344 0.951 . S
C1362 C1363 1.366 . S
C1362 C1364 1.388 . S
C1363 C1362 1.366 . S
C1363 C1367 1.385 . S
C1364 H1345 0.951 . S
C1364 C1362 1.388 . S
C1364 C1365 1.366 . S
C1365 C1364 1.366 . S
C1365 C1366 1.414 . S
C1365 C1368 1.499 . S
C1366 H1346 0.950 . S
C1366 C1365 1.414 . S
C1366 C1367 1.374 . S
C1367 H1347 0.950 . S
C1367 C1363 1.385 . S
C1367 C1366 1.374 . S
C1368 C1365 1.499 . S
C1368 C1369 1.373 . S
C1368 C1370 1.389 . S
C1369 H1348 0.950 . S
C1369 C1368 1.373 . S
C1369 C1385 1.377 . S
C1370 C1368 1.389 . S
C1370 C1371 1.524 . S
C1370 C1384 1.377 . S
C1371 C1370 1.524 . S
C1371 C1372 1.397 . S
C1371 C1376 1.363 . S
C1372 H1349 0.950 . S
C1372 C1371 1.397 . S
C1372 C1373 1.334 . S
C1373 H1350 0.950 . S
C1373 C1372 1.334 . S
C1373 C1374 1.287 . S
C1374 C1373 1.287 . S
C1374 C1375 1.524 . S
C1374 H1393 0.913 . S
C1375 H1351 0.950 . S
C1375 C1374 1.524 . S
C1375 C1376 1.415 . S
C1376 H1352 0.950 . S
C1376 C1371 1.363 . S
C1376 C1375 1.415 . S
C1377 H1353 0.951 . S
C1377 C1378 1.366 . S
C1377 C1379 1.388 . S
C1378 C1377 1.366 . S
C1378 C1382 1.385 . S
C1379 H1354 0.951 . S
C1379 C1377 1.388 . S
C1379 C1380 1.366 . S
C1380 C1379 1.366 . S
C1380 C1381 1.414 . S
C1380 C1383 1.499 . S
C1381 H1355 0.950 . S
C1381 C1380 1.414 . S
C1381 C1382 1.374 . S
C1382 H1356 0.950 . S
C1382 C1378 1.385 . S
C1382 C1381 1.374 . S
C1383 C1380 1.499 . S
C1383 C1384 1.373 . S
C1383 C1385 1.389 . S
C1384 H1357 0.950 . S
C1384 C1370 1.377 . S
C1384 C1383 1.373 . S
C1385 C1369 1.377 . S
C1385 C1383 1.389 . S
C1385 C1386 1.524 . S
C1386 C1385 1.524 . S
C1386 C1387 1.397 . S
C1386 C1391 1.363 . S
C1387 H1358 0.950 . S
C1387 C1386 1.397 . S
C1387 C1388 1.334 . S
C1388 H1359 0.950 . S
C1388 C1387 1.334 . S
C1388 C1389 1.287 . S
C1389 C1388 1.287 . S
C1389 C1390 1.524 . S
C1389 H1392 0.999 . S
C1390 H1360 0.950 . S
C1390 C1389 1.524 . S
C1390 C1391 1.415 . S
C1391 H1361 0.950 . S
C1391 C1386 1.363 . S
C1391 C1390 1.415 . S
H1392 C1389 0.999 . S
H1393 C1374 0.913 . S
H1394 C1412 0.951 . S
H1395 C1414 0.951 . S
H1396 C1416 0.950 . S
H1397 C1417 0.950 . S
H1398 C1419 0.950 . S
H1399 C1422 0.950 . S
H1400 C1423 0.950 . S
H1401 C1425 0.950 . S
H1402 C1426 0.950 . S
H1403 C1427 0.951 . S
H1404 C1429 0.951 . S
H1405 C1431 0.950 . S
H1406 C1432 0.950 . S
H1407 C1434 0.950 . S
H1408 C1437 0.950 . S
H1409 C1438 0.950 . S
H1410 C1440 0.950 . S
H1411 C1441 0.950 . S
C1412 H1394 0.951 . S
C1412 C1413 1.366 . S
C1412 C1414 1.388 . S
C1413 C1412 1.366 . S
C1413 C1417 1.385 . S
C1414 H1395 0.951 . S
C1414 C1412 1.388 . S
C1414 C1415 1.366 . S
C1415 C1414 1.366 . S
C1415 C1416 1.414 . S
C1415 C1418 1.499 . S
C1416 H1396 0.950 . S
C1416 C1415 1.414 . S
C1416 C1417 1.374 . S
C1417 H1397 0.950 . S
C1417 C1413 1.385 . S
C1417 C1416 1.374 . S
C1418 C1415 1.499 . S
C1418 C1419 1.373 . S
C1418 C1420 1.389 . S
C1419 H1398 0.950 . S
C1419 C1418 1.373 . S
C1419 C1435 1.377 . S
C1420 C1418 1.389 . S
C1420 C1421 1.524 . S
C1420 C1434 1.377 . S
C1421 C1420 1.524 . S
C1421 C1422 1.397 . S
C1421 C1426 1.363 . S
C1422 H1399 0.950 . S
C1422 C1421 1.397 . S
C1422 C1423 1.334 . S
C1423 H1400 0.950 . S
C1423 C1422 1.334 . S
C1423 C1424 1.287 . S
C1424 C1423 1.287 . S
C1424 C1425 1.524 . S
C1424 H1443 0.913 . S
C1425 H1401 0.950 . S
C1425 C1424 1.524 . S
C1425 C1426 1.415 . S
C1426 H1402 0.950 . S
C1426 C1421 1.363 . S
C1426 C1425 1.415 . S
C1427 H1403 0.951 . S
C1427 C1428 1.366 . S
C1427 C1429 1.388 . S
C1428 C1427 1.366 . S
C1428 C1432 1.385 . S
C1429 H1404 0.951 . S
C1429 C1427 1.388 . S
C1429 C1430 1.366 . S
C1430 C1429 1.366 . S
C1430 C1431 1.414 . S
C1430 C1433 1.499 . S
C1431 H1405 0.950 . S
C1431 C1430 1.414 . S
C1431 C1432 1.374 . S
C1432 H1406 0.950 . S
C1432 C1428 1.385 . S
C1432 C1431 1.374 . S
C1433 C1430 1.499 . S
C1433 C1434 1.373 . S
C1433 C1435 1.389 . S
C1434 H1407 0.950 . S
C1434 C1420 1.377 . S
C1434 C1433 1.373 . S
C1435 C1419 1.377 . S
C1435 C1433 1.389 . S
C1435 C1436 1.524 . S
C1436 C1435 1.524 . S
C1436 C1437 1.397 . S
C1436 C1441 1.363 . S
C1437 H1408 0.950 . S
C1437 C1436 1.397 . S
C1437 C1438 1.334 . S
C1438 H1409 0.950 . S
C1438 C1437 1.334 . S
C1438 C1439 1.287 . S
C1439 C1438 1.287 . S
C1439 C1440 1.524 . S
C1439 H1442 0.999 . S
C1440 H1410 0.950 . S
C1440 C1439 1.524 . S
C1440 C1441 1.415 . S
C1441 H1411 0.950 . S
C1441 C1436 1.363 . S
C1441 C1440 1.415 . S
H1442 C1439 0.999 . S
H1443 C1424 0.913 . S
H1444 C1462 0.951 . S
H1445 C1464 0.951 . S
H1446 C1466 0.950 . S
H1447 C1467 0.950 . S
H1448 C1469 0.950 . S
H1449 C1472 0.950 . S
H1450 C1473 0.950 . S
H1451 C1475 0.950 . S
H1452 C1476 0.950 . S
H1453 C1477 0.951 . S
H1454 C1479 0.951 . S
H1455 C1481 0.950 . S
H1456 C1482 0.950 . S
H1457 C1484 0.950 . S
H1458 C1487 0.950 . S
H1459 C1488 0.950 . S
H1460 C1490 0.950 . S
H1461 C1491 0.950 . S
C1462 H1444 0.951 . S
C1462 C1463 1.366 . S
C1462 C1464 1.388 . S
C1463 C1462 1.366 . S
C1463 C1467 1.385 . S
C1464 H1445 0.951 . S
C1464 C1462 1.388 . S
C1464 C1465 1.366 . S
C1465 C1464 1.366 . S
C1465 C1466 1.414 . S
C1465 C1468 1.499 . S
C1466 H1446 0.950 . S
C1466 C1465 1.414 . S
C1466 C1467 1.374 . S
C1467 H1447 0.950 . S
C1467 C1463 1.385 . S
C1467 C1466 1.374 . S
C1468 C1465 1.499 . S
C1468 C1469 1.373 . S
C1468 C1470 1.389 . S
C1469 H1448 0.950 . S
C1469 C1468 1.373 . S
C1469 C1485 1.377 . S
C1470 C1468 1.389 . S
C1470 C1471 1.524 . S
C1470 C1484 1.377 . S
C1471 C1470 1.524 . S
C1471 C1472 1.397 . S
C1471 C1476 1.363 . S
C1472 H1449 0.950 . S
C1472 C1471 1.397 . S
C1472 C1473 1.334 . S
C1473 H1450 0.950 . S
C1473 C1472 1.334 . S
C1473 C1474 1.287 . S
C1474 C1473 1.287 . S
C1474 C1475 1.524 . S
C1474 H1493 0.913 . S
C1475 H1451 0.950 . S
C1475 C1474 1.524 . S
C1475 C1476 1.415 . S
C1476 H1452 0.950 . S
C1476 C1471 1.363 . S
C1476 C1475 1.415 . S
C1477 H1453 0.951 . S
C1477 C1478 1.366 . S
C1477 C1479 1.388 . S
C1478 C1477 1.366 . S
C1478 C1482 1.385 . S
C1479 H1454 0.951 . S
C1479 C1477 1.388 . S
C1479 C1480 1.366 . S
C1480 C1479 1.366 . S
C1480 C1481 1.414 . S
C1480 C1483 1.499 . S
C1481 H1455 0.950 . S
C1481 C1480 1.414 . S
C1481 C1482 1.374 . S
C1482 H1456 0.950 . S
C1482 C1478 1.385 . S
C1482 C1481 1.374 . S
C1483 C1480 1.499 . S
C1483 C1484 1.373 . S
C1483 C1485 1.389 . S
C1484 H1457 0.950 . S
C1484 C1470 1.377 . S
C1484 C1483 1.373 . S
C1485 C1469 1.377 . S
C1485 C1483 1.389 . S
C1485 C1486 1.524 . S
C1486 C1485 1.524 . S
C1486 C1487 1.397 . S
C1486 C1491 1.363 . S
C1487 H1458 0.950 . S
C1487 C1486 1.397 . S
C1487 C1488 1.334 . S
C1488 H1459 0.950 . S
C1488 C1487 1.334 . S
C1488 C1489 1.287 . S
C1489 C1488 1.287 . S
C1489 C1490 1.524 . S
C1489 H1492 0.999 . S
C1490 H1460 0.950 . S
C1490 C1489 1.524 . S
C1490 C1491 1.415 . S
C1491 H1461 0.950 . S
C1491 C1486 1.363 . S
C1491 C1490 1.415 . S
H1492 C1489 0.999 . S
H1493 C1474 0.913 . S
H1494 C1512 0.951 . S
H1495 C1514 0.951 . S
H1496 C1516 0.950 . S
H1497 C1517 0.950 . S
H1498 C1519 0.950 . S
H1499 C1522 0.950 . S
H1500 C1523 0.950 . S
H1501 C1525 0.950 . S
H1502 C1526 0.950 . S
H1503 C1527 0.951 . S
H1504 C1529 0.951 . S
H1505 C1531 0.950 . S
H1506 C1532 0.950 . S
H1507 C1534 0.950 . S
H1508 C1537 0.950 . S
H1509 C1538 0.950 . S
H1510 C1540 0.950 . S
H1511 C1541 0.950 . S
C1512 H1494 0.951 . S
C1512 C1513 1.366 . S
C1512 C1514 1.388 . S
C1513 C1512 1.366 . S
C1513 C1517 1.385 . S
C1514 H1495 0.951 . S
C1514 C1512 1.388 . S
C1514 C1515 1.366 . S
C1515 C1514 1.366 . S
C1515 C1516 1.414 . S
C1515 C1518 1.499 . S
C1516 H1496 0.950 . S
C1516 C1515 1.414 . S
C1516 C1517 1.374 . S
C1517 H1497 0.950 . S
C1517 C1513 1.385 . S
C1517 C1516 1.374 . S
C1518 C1515 1.499 . S
C1518 C1519 1.373 . S
C1518 C1520 1.389 . S
C1519 H1498 0.950 . S
C1519 C1518 1.373 . S
C1519 C1535 1.377 . S
C1520 C1518 1.389 . S
C1520 C1521 1.524 . S
C1520 C1534 1.377 . S
C1521 C1520 1.524 . S
C1521 C1522 1.397 . S
C1521 C1526 1.363 . S
C1522 H1499 0.950 . S
C1522 C1521 1.397 . S
C1522 C1523 1.334 . S
C1523 H1500 0.950 . S
C1523 C1522 1.334 . S
C1523 C1524 1.287 . S
C1524 C1523 1.287 . S
C1524 C1525 1.524 . S
C1524 H1543 0.913 . S
C1525 H1501 0.950 . S
C1525 C1524 1.524 . S
C1525 C1526 1.415 . S
C1526 H1502 0.950 . S
C1526 C1521 1.363 . S
C1526 C1525 1.415 . S
C1527 H1503 0.951 . S
C1527 C1528 1.366 . S
C1527 C1529 1.388 . S
C1528 C1527 1.366 . S
C1528 C1532 1.385 . S
C1529 H1504 0.951 . S
C1529 C1527 1.388 . S
C1529 C1530 1.366 . S
C1530 C1529 1.366 . S
C1530 C1531 1.414 . S
C1530 C1533 1.499 . S
C1531 H1505 0.950 . S
C1531 C1530 1.414 . S
C1531 C1532 1.374 . S
C1532 H1506 0.950 . S
C1532 C1528 1.385 . S
C1532 C1531 1.374 . S
C1533 C1530 1.499 . S
C1533 C1534 1.373 . S
C1533 C1535 1.389 . S
C1534 H1507 0.950 . S
C1534 C1520 1.377 . S
C1534 C1533 1.373 . S
C1535 C1519 1.377 . S
C1535 C1533 1.389 . S
C1535 C1536 1.524 . S
C1536 C1535 1.524 . S
C1536 C1537 1.397 . S
C1536 C1541 1.363 . S
C1537 H1508 0.950 . S
C1537 C1536 1.397 . S
C1537 C1538 1.334 . S
C1538 H1509 0.950 . S
C1538 C1537 1.334 . S
C1538 C1539 1.287 . S
C1539 C1538 1.287 . S
C1539 C1540 1.524 . S
C1539 H1542 0.999 . S
C1540 H1510 0.950 . S
C1540 C1539 1.524 . S
C1540 C1541 1.415 . S
C1541 H1511 0.950 . S
C1541 C1536 1.363 . S
C1541 C1540 1.415 . S
H1542 C1539 0.999 . S
H1543 C1524 0.913 . S
H1544 C1562 0.951 . S
H1545 C1564 0.951 . S
H1546 C1566 0.950 . S
H1547 C1567 0.950 . S
H1548 C1569 0.950 . S
H1549 C1572 0.950 . S
H1550 C1573 0.950 . S
H1551 C1575 0.950 . S
H1552 C1576 0.950 . S
H1553 C1577 0.951 . S
H1554 C1579 0.951 . S
H1555 C1581 0.950 . S
H1556 C1582 0.950 . S
H1557 C1584 0.950 . S
H1558 C1587 0.950 . S
H1559 C1588 0.950 . S
H1560 C1590 0.950 . S
H1561 C1591 0.950 . S
C1562 H1544 0.951 . S
C1562 C1563 1.366 . S
C1562 C1564 1.388 . S
C1563 C1562 1.366 . S
C1563 C1567 1.385 . S
C1564 H1545 0.951 . S
C1564 C1562 1.388 . S
C1564 C1565 1.366 . S
C1565 C1564 1.366 . S
C1565 C1566 1.414 . S
C1565 C1568 1.499 . S
C1566 H1546 0.950 . S
C1566 C1565 1.414 . S
C1566 C1567 1.374 . S
C1567 H1547 0.950 . S
C1567 C1563 1.385 . S
C1567 C1566 1.374 . S
C1568 C1565 1.499 . S
C1568 C1569 1.373 . S
C1568 C1570 1.389 . S
C1569 H1548 0.950 . S
C1569 C1568 1.373 . S
C1569 C1585 1.377 . S
C1570 C1568 1.389 . S
C1570 C1571 1.524 . S
C1570 C1584 1.377 . S
C1571 C1570 1.524 . S
C1571 C1572 1.397 . S
C1571 C1576 1.363 . S
C1572 H1549 0.950 . S
C1572 C1571 1.397 . S
C1572 C1573 1.334 . S
C1573 H1550 0.950 . S
C1573 C1572 1.334 . S
C1573 C1574 1.287 . S
C1574 C1573 1.287 . S
C1574 C1575 1.524 . S
C1574 H1593 0.913 . S
C1575 H1551 0.950 . S
C1575 C1574 1.524 . S
C1575 C1576 1.415 . S
C1576 H1552 0.950 . S
C1576 C1571 1.363 . S
C1576 C1575 1.415 . S
C1577 H1553 0.951 . S
C1577 C1578 1.366 . S
C1577 C1579 1.388 . S
C1578 C1577 1.366 . S
C1578 C1582 1.385 . S
C1579 H1554 0.951 . S
C1579 C1577 1.388 . S
C1579 C1580 1.366 . S
C1580 C1579 1.366 . S
C1580 C1581 1.414 . S
C1580 C1583 1.499 . S
C1581 H1555 0.950 . S
C1581 C1580 1.414 . S
C1581 C1582 1.374 . S
C1582 H1556 0.950 . S
C1582 C1578 1.385 . S
C1582 C1581 1.374 . S
C1583 C1580 1.499 . S
C1583 C1584 1.373 . S
C1583 C1585 1.389 . S
C1584 H1557 0.950 . S
C1584 C1570 1.377 . S
C1584 C1583 1.373 . S
C1585 C1569 1.377 . S
C1585 C1583 1.389 . S
C1585 C1586 1.524 . S
C1586 C1585 1.524 . S
C1586 C1587 1.397 . S
C1586 C1591 1.363 . S
C1587 H1558 0.950 . S
C1587 C1586 1.397 . S
C1587 C1588 1.334 . S
C1588 H1559 0.950 . S
C1588 C1587 1.334 . S
C1588 C1589 1.287 . S
C1589 C1588 1.287 . S
C1589 C1590 1.524 . S
C1589 H1592 0.999 . S
C1590 H1560 0.950 . S
C1590 C1589 1.524 . S
C1590 C1591 1.415 . S
C1591 H1561 0.950 . S
C1591 C1586 1.363 . S
C1591 C1590 1.415 . S
H1592 C1589 0.999 . S
H1593 C1574 0.913 . S
H1594 C1612 0.951 . S
H1595 C1614 0.951 . S
H1596 C1616 0.950 . S
H1597 C1617 0.950 . S
H1598 C1619 0.950 . S
H1599 C1622 0.950 . S
H1600 C1623 0.950 . S
H1601 C1625 0.950 . S
H1602 C1626 0.950 . S
H1603 C1627 0.951 . S
H1604 C1629 0.951 . S
H1605 C1631 0.950 . S
H1606 C1632 0.950 . S
H1607 C1634 0.950 . S
H1608 C1637 0.950 . S
H1609 C1638 0.950 . S
H1610 C1640 0.950 . S
H1611 C1641 0.950 . S
C1612 H1594 0.951 . S
C1612 C1613 1.366 . S
C1612 C1614 1.388 . S
C1613 C1612 1.366 . S
C1613 C1617 1.385 . S
C1614 H1595 0.951 . S
C1614 C1612 1.388 . S
C1614 C1615 1.366 . S
C1615 C1614 1.366 . S
C1615 C1616 1.414 . S
C1615 C1618 1.499 . S
C1616 H1596 0.950 . S
C1616 C1615 1.414 . S
C1616 C1617 1.374 . S
C1617 H1597 0.950 . S
C1617 C1613 1.385 . S
C1617 C1616 1.374 . S
C1618 C1615 1.499 . S
C1618 C1619 1.373 . S
C1618 C1620 1.389 . S
C1619 H1598 0.950 . S
C1619 C1618 1.373 . S
C1619 C1635 1.377 . S
C1620 C1618 1.389 . S
C1620 C1621 1.524 . S
C1620 C1634 1.377 . S
C1621 C1620 1.524 . S
C1621 C1622 1.397 . S
C1621 C1626 1.363 . S
C1622 H1599 0.950 . S
C1622 C1621 1.397 . S
C1622 C1623 1.334 . S
C1623 H1600 0.950 . S
C1623 C1622 1.334 . S
C1623 C1624 1.287 . S
C1624 C1623 1.287 . S
C1624 C1625 1.524 . S
C1624 H1643 0.913 . S
C1625 H1601 0.950 . S
C1625 C1624 1.524 . S
C1625 C1626 1.415 . S
C1626 H1602 0.950 . S
C1626 C1621 1.363 . S
C1626 C1625 1.415 . S
C1627 H1603 0.951 . S
C1627 C1628 1.366 . S
C1627 C1629 1.388 . S
C1628 C1627 1.366 . S
C1628 C1632 1.385 . S
C1629 H1604 0.951 . S
C1629 C1627 1.388 . S
C1629 C1630 1.366 . S
C1630 C1629 1.366 . S
C1630 C1631 1.414 . S
C1630 C1633 1.499 . S
C1631 H1605 0.950 . S
C1631 C1630 1.414 . S
C1631 C1632 1.374 . S
C1632 H1606 0.950 . S
C1632 C1628 1.385 . S
C1632 C1631 1.374 . S
C1633 C1630 1.499 . S
C1633 C1634 1.373 . S
C1633 C1635 1.389 . S
C1634 H1607 0.950 . S
C1634 C1620 1.377 . S
C1634 C1633 1.373 . S
C1635 C1619 1.377 . S
C1635 C1633 1.389 . S
C1635 C1636 1.524 . S
C1636 C1635 1.524 . S
C1636 C1637 1.397 . S
C1636 C1641 1.363 . S
C1637 H1608 0.950 . S
C1637 C1636 1.397 . S
C1637 C1638 1.334 . S
C1638 H1609 0.950 . S
C1638 C1637 1.334 . S
C1638 C1639 1.287 . S
C1639 C1638 1.287 . S
C1639 C1640 1.524 . S
C1639 H1642 0.999 . S
C1640 H1610 0.950 . S
C1640 C1639 1.524 . S
C1640 C1641 1.415 . S
C1641 H1611 0.950 . S
C1641 C1636 1.363 . S
C1641 C1640 1.415 . S
H1642 C1639 0.999 . S
H1643 C1624 0.913 . S
H1644 C1662 0.951 . S
H1645 C1664 0.951 . S
H1646 C1666 0.950 . S
H1647 C1667 0.950 . S
H1648 C1669 0.950 . S
H1649 C1672 0.950 . S
H1650 C1673 0.950 . S
H1651 C1675 0.950 . S
H1652 C1676 0.950 . S
H1653 C1677 0.951 . S
H1654 C1679 0.951 . S
H1655 C1681 0.950 . S
H1656 C1682 0.950 . S
H1657 C1684 0.950 . S
H1658 C1687 0.950 . S
H1659 C1688 0.950 . S
H1660 C1690 0.950 . S
H1661 C1691 0.950 . S
C1662 H1644 0.951 . S
C1662 C1663 1.366 . S
C1662 C1664 1.388 . S
C1663 C1662 1.366 . S
C1663 C1667 1.385 . S
C1664 H1645 0.951 . S
C1664 C1662 1.388 . S
C1664 C1665 1.366 . S
C1665 C1664 1.366 . S
C1665 C1666 1.414 . S
C1665 C1668 1.499 . S
C1666 H1646 0.950 . S
C1666 C1665 1.414 . S
C1666 C1667 1.374 . S
C1667 H1647 0.950 . S
C1667 C1663 1.385 . S
C1667 C1666 1.374 . S
C1668 C1665 1.499 . S
C1668 C1669 1.373 . S
C1668 C1670 1.389 . S
C1669 H1648 0.950 . S
C1669 C1668 1.373 . S
C1669 C1685 1.377 . S
C1670 C1668 1.389 . S
C1670 C1671 1.524 . S
C1670 C1684 1.377 . S
C1671 C1670 1.524 . S
C1671 C1672 1.397 . S
C1671 C1676 1.363 . S
C1672 H1649 0.950 . S
C1672 C1671 1.397 . S
C1672 C1673 1.334 . S
C1673 H1650 0.950 . S
C1673 C1672 1.334 . S
C1673 C1674 1.287 . S
C1674 C1673 1.287 . S
C1674 C1675 1.524 . S
C1674 H1693 0.913 . S
C1675 H1651 0.950 . S
C1675 C1674 1.524 . S
C1675 C1676 1.415 . S
C1676 H1652 0.950 . S
C1676 C1671 1.363 . S
C1676 C1675 1.415 . S
C1677 H1653 0.951 . S
C1677 C1678 1.366 . S
C1677 C1679 1.388 . S
C1678 C1677 1.366 . S
C1678 C1682 1.385 . S
C1679 H1654 0.951 . S
C1679 C1677 1.388 . S
C1679 C1680 1.366 . S
C1680 C1679 1.366 . S
C1680 C1681 1.414 . S
C1680 C1683 1.499 . S
C1681 H1655 0.950 . S
C1681 C1680 1.414 . S
C1681 C1682 1.374 . S
C1682 H1656 0.950 . S
C1682 C1678 1.385 . S
C1682 C1681 1.374 . S
C1683 C1680 1.499 . S
C1683 C1684 1.373 . S
C1683 C1685 1.389 . S
C1684 H1657 0.950 . S
C1684 C1670 1.377 . S
C1684 C1683 1.373 . S
C1685 C1669 1.377 . S
C1685 C1683 1.389 . S
C1685 C1686 1.524 . S
C1686 C1685 1.524 . S
C1686 C1687 1.397 . S
C1686 C1691 1.363 . S
C1687 H1658 0.950 . S
C1687 C1686 1.397 . S
C1687 C1688 1.334 . S
C1688 H1659 0.950 . S
C1688 C1687 1.334 . S
C1688 C1689 1.287 . S
C1689 C1688 1.287 . S
C1689 C1690 1.524 . S
C1689 H1692 0.999 . S
C1690 H1660 0.950 . S
C1690 C1689 1.524 . S
C1690 C1691 1.415 . S
C1691 H1661 0.950 . S
C1691 C1686 1.363 . S
C1691 C1690 1.415 . S
H1692 C1689 0.999 . S
H1693 C1674 0.913 . S
H1694 C1712 0.951 . S
H1695 C1714 0.951 . S
H1696 C1716 0.950 . S
H1697 C1717 0.950 . S
H1698 C1719 0.950 . S
H1699 C1722 0.950 . S
H1700 C1723 0.950 . S
H1701 C1725 0.950 . S
H1702 C1726 0.950 . S
H1703 C1727 0.951 . S
H1704 C1729 0.951 . S
H1705 C1731 0.950 . S
H1706 C1732 0.950 . S
H1707 C1734 0.950 . S
H1708 C1737 0.950 . S
H1709 C1738 0.950 . S
H1710 C1740 0.950 . S
H1711 C1741 0.950 . S
C1712 H1694 0.951 . S
C1712 C1713 1.366 . S
C1712 C1714 1.388 . S
C1713 C1712 1.366 . S
C1713 C1717 1.385 . S
C1714 H1695 0.951 . S
C1714 C1712 1.388 . S
C1714 C1715 1.366 . S
C1715 C1714 1.366 . S
C1715 C1716 1.414 . S
C1715 C1718 1.499 . S
C1716 H1696 0.950 . S
C1716 C1715 1.414 . S
C1716 C1717 1.374 . S
C1717 H1697 0.950 . S
C1717 C1713 1.385 . S
C1717 C1716 1.374 . S
C1718 C1715 1.499 . S
C1718 C1719 1.373 . S
C1718 C1720 1.389 . S
C1719 H1698 0.950 . S
C1719 C1718 1.373 . S
C1719 C1735 1.377 . S
C1720 C1718 1.389 . S
C1720 C1721 1.524 . S
C1720 C1734 1.377 . S
C1721 C1720 1.524 . S
C1721 C1722 1.397 . S
C1721 C1726 1.363 . S
C1722 H1699 0.950 . S
C1722 C1721 1.397 . S
C1722 C1723 1.334 . S
C1723 H1700 0.950 . S
C1723 C1722 1.334 . S
C1723 C1724 1.287 . S
C1724 C1723 1.287 . S
C1724 C1725 1.524 . S
C1724 H1743 0.913 . S
C1725 H1701 0.950 . S
C1725 C1724 1.524 . S
C1725 C1726 1.415 . S
C1726 H1702 0.950 . S
C1726 C1721 1.363 . S
C1726 C1725 1.415 . S
C1727 H1703 0.951 . S
C1727 C1728 1.366 . S
C1727 C1729 1.388 . S
C1728 C1727 1.366 . S
C1728 C1732 1.385 . S
C1729 H1704 0.951 . S
C1729 C1727 1.388 . S
C1729 C1730 1.366 . S
C1730 C1729 1.366 . S
C1730 C1731 1.414 . S
C1730 C1733 1.499 . S
C1731 H1705 0.950 . S
C1731 C1730 1.414 . S
C1731 C1732 1.374 . S
C1732 H1706 0.950 . S
C1732 C1728 1.385 . S
C1732 C1731 1.374 . S
C1733 C1730 1.499 . S
C1733 C1734 1.373 . S
C1733 C1735 1.389 . S
C1734 H1707 0.950 . S
C1734 C1720 1.377 . S
C1734 C1733 1.373 . S
C1735 C1719 1.377 . S
C1735 C1733 1.389 . S
C1735 C1736 1.524 . S
C1736 C1735 1.524 . S
C1736 C1737 1.397 . S
C1736 C1741 1.363 . S
C1737 H1708 0.950 . S
C1737 C1736 1.397 . S
C1737 C1738 1.334 . S
C1738 H1709 0.950 . S
C1738 C1737 1.334 . S
C1738 C1739 1.287 . S
C1739 C1738 1.287 . S
C1739 C1740 1.524 . S
C1739 H1742 0.999 . S
C1740 H1710 0.950 . S
C1740 C1739 1.524 . S
C1740 C1741 1.415 . S
C1741 H1711 0.950 . S
C1741 C1736 1.363 . S
C1741 C1740 1.415 . S
H1742 C1739 0.999 . S
H1743 C1724 0.913 . S
H1744 C1762 0.951 . S
H1745 C1764 0.951 . S
H1746 C1766 0.950 1_545 S
H1747 C1767 0.950 . S
H1748 C1769 0.950 . S
H1749 C1772 0.950 . S
H1750 C1773 0.950 . S
H1751 C1775 0.950 . S
H1752 C1776 0.950 . S
H1753 C1777 0.951 . S
H1754 C1779 0.951 . S
H1755 C1781 0.950 1_565 S
H1756 C1782 0.950 . S
H1757 C1784 0.950 . S
H1758 C1787 0.950 . S
H1759 C1788 0.950 . S
H1760 C1790 0.950 . S
H1761 C1791 0.950 . S
C1762 H1744 0.951 . S
C1762 C1763 1.366 . S
C1762 C1764 1.388 . S
C1763 C1762 1.366 . S
C1763 C1767 1.385 . S
C1764 H1745 0.951 . S
C1764 C1762 1.388 . S
C1764 C1765 1.366 . S
C1765 C1764 1.366 . S
C1765 C1766 1.414 . S
C1765 C1768 1.499 . S
C1766 H1746 0.950 1_565 S
C1766 C1765 1.414 . S
C1766 C1767 1.374 . S
C1767 H1747 0.950 . S
C1767 C1763 1.385 . S
C1767 C1766 1.374 . S
C1768 C1765 1.499 . S
C1768 C1769 1.373 1_565 S
C1768 C1770 1.389 . S
C1769 H1748 0.950 . S
C1769 C1768 1.373 1_545 S
C1769 C1785 1.377 . S
C1770 C1768 1.389 . S
C1770 C1771 1.524 . S
C1770 C1784 1.377 . S
C1771 C1770 1.524 . S
C1771 C1772 1.397 . S
C1771 C1776 1.363 . S
C1772 H1749 0.950 . S
C1772 C1771 1.397 . S
C1772 C1773 1.334 . S
C1773 H1750 0.950 . S
C1773 C1772 1.334 . S
C1773 C1774 1.287 . S
C1774 C1773 1.287 . S
C1774 C1775 1.524 . S
C1774 H1793 0.913 . S
C1775 H1751 0.950 . S
C1775 C1774 1.524 . S
C1775 C1776 1.415 . S
C1776 H1752 0.950 . S
C1776 C1771 1.363 . S
C1776 C1775 1.415 . S
C1777 H1753 0.951 . S
C1777 C1778 1.366 . S
C1777 C1779 1.388 . S
C1778 C1777 1.366 . S
C1778 C1782 1.385 . S
C1779 H1754 0.951 . S
C1779 C1777 1.388 . S
C1779 C1780 1.366 . S
C1780 C1779 1.366 . S
C1780 C1781 1.414 . S
C1780 C1783 1.499 . S
C1781 H1755 0.950 1_545 S
C1781 C1780 1.414 . S
C1781 C1782 1.374 . S
C1782 H1756 0.950 . S
C1782 C1778 1.385 . S
C1782 C1781 1.374 . S
C1783 C1780 1.499 . S
C1783 C1784 1.373 1_545 S
C1783 C1785 1.389 . S
C1784 H1757 0.950 . S
C1784 C1770 1.377 . S
C1784 C1783 1.373 1_565 S
C1785 C1769 1.377 . S
C1785 C1783 1.389 . S
C1785 C1786 1.524 . S
C1786 C1785 1.524 . S
C1786 C1787 1.397 . S
C1786 C1791 1.363 . S
C1787 H1758 0.950 . S
C1787 C1786 1.397 . S
C1787 C1788 1.334 . S
C1788 H1759 0.950 . S
C1788 C1787 1.334 . S
C1788 C1789 1.287 . S
C1789 C1788 1.287 . S
C1789 C1790 1.524 . S
C1789 H1792 0.999 . S
C1790 H1760 0.950 . S
C1790 C1789 1.524 . S
C1790 C1791 1.415 . S
C1791 H1761 0.950 . S
C1791 C1786 1.363 . S
C1791 C1790 1.415 . S
H1792 C1789 0.999 . S
H1793 C1774 0.913 . S
H1794 C1812 0.951 . S
H1795 C1814 0.951 1_565 S
H1796 C1816 0.950 . S
H1797 C1817 0.950 . S
H1798 C1819 0.950 . S
H1799 C1822 0.950 1_545 S
H1800 C1823 0.950 1_545 S
H1801 C1825 0.950 . S
H1802 C1826 0.950 . S
H1803 C1827 0.951 . S
H1804 C1829 0.951 1_545 S
H1805 C1831 0.950 . S
H1806 C1832 0.950 . S
H1807 C1834 0.950 . S
H1808 C1837 0.950 1_565 S
H1809 C1838 0.950 1_565 S
H1810 C1840 0.950 . S
H1811 C1841 0.950 . S
C1812 H1794 0.951 . S
C1812 C1813 1.366 . S
C1812 C1814 1.388 . S
C1813 C1812 1.366 . S
C1813 C1817 1.385 . S
C1814 H1795 0.951 1_545 S
C1814 C1812 1.388 . S
C1814 C1815 1.366 . S
C1815 C1814 1.366 . S
C1815 C1816 1.414 . S
C1815 C1818 1.499 . S
C1816 H1796 0.950 . S
C1816 C1815 1.414 . S
C1816 C1817 1.374 . S
C1817 H1797 0.950 . S
C1817 C1813 1.385 . S
C1817 C1816 1.374 . S
C1818 C1815 1.499 . S
C1818 C1819 1.373 . S
C1818 C1820 1.389 1_545 S
C1819 H1798 0.950 . S
C1819 C1818 1.373 . S
C1819 C1835 1.377 . S
C1820 C1818 1.389 1_565 S
C1820 C1821 1.524 . S
C1820 C1834 1.377 . S
C1821 C1820 1.524 . S
C1821 C1822 1.397 . S
C1821 C1826 1.363 . S
C1822 H1799 0.950 1_565 S
C1822 C1821 1.397 . S
C1822 C1823 1.334 . S
C1823 H1800 0.950 1_565 S
C1823 C1822 1.334 . S
C1823 C1824 1.287 . S
C1824 C1823 1.287 . S
C1824 C1825 1.524 . S
C1824 H1843 0.913 . S
C1825 H1801 0.950 . S
C1825 C1824 1.524 . S
C1825 C1826 1.415 . S
C1826 H1802 0.950 . S
C1826 C1821 1.363 . S
C1826 C1825 1.415 . S
C1827 H1803 0.951 . S
C1827 C1828 1.366 . S
C1827 C1829 1.388 . S
C1828 C1827 1.366 . S
C1828 C1832 1.385 . S
C1829 H1804 0.951 1_565 S
C1829 C1827 1.388 . S
C1829 C1830 1.366 . S
C1830 C1829 1.366 . S
C1830 C1831 1.414 . S
C1830 C1833 1.499 . S
C1831 H1805 0.950 . S
C1831 C1830 1.414 . S
C1831 C1832 1.374 . S
C1832 H1806 0.950 . S
C1832 C1828 1.385 . S
C1832 C1831 1.374 . S
C1833 C1830 1.499 . S
C1833 C1834 1.373 . S
C1833 C1835 1.389 1_565 S
C1834 H1807 0.950 . S
C1834 C1820 1.377 . S
C1834 C1833 1.373 . S
C1835 C1819 1.377 . S
C1835 C1833 1.389 1_545 S
C1835 C1836 1.524 . S
C1836 C1835 1.524 . S
C1836 C1837 1.397 . S
C1836 C1841 1.363 . S
C1837 H1808 0.950 1_545 S
C1837 C1836 1.397 . S
C1837 C1838 1.334 . S
C1838 H1809 0.950 1_545 S
C1838 C1837 1.334 . S
C1838 C1839 1.287 . S
C1839 C1838 1.287 . S
C1839 C1840 1.524 . S
C1839 H1842 0.999 . S
C1840 H1810 0.950 . S
C1840 C1839 1.524 . S
C1840 C1841 1.415 . S
C1841 H1811 0.950 . S
C1841 C1836 1.363 . S
C1841 C1840 1.415 . S
H1842 C1839 0.999 . S
H1843 C1824 0.913 . S
H1844 C1862 0.951 . S
H1845 C1864 0.951 . S
H1846 C1866 0.950 1_565 S
H1847 C1867 0.950 . S
H1848 C1869 0.950 . S
H1849 C1872 0.950 . S
H1850 C1873 0.950 . S
H1851 C1875 0.950 . S
H1852 C1876 0.950 . S
H1853 C1877 0.951 . S
H1854 C1879 0.951 . S
H1855 C1881 0.950 1_545 S
H1856 C1882 0.950 . S
H1857 C1884 0.950 . S
H1858 C1887 0.950 . S
H1859 C1888 0.950 . S
H1860 C1890 0.950 . S
H1861 C1891 0.950 . S
C1862 H1844 0.951 . S
C1862 C1863 1.366 . S
C1862 C1864 1.388 . S
C1863 C1862 1.366 . S
C1863 C1867 1.385 . S
C1864 H1845 0.951 . S
C1864 C1862 1.388 . S
C1864 C1865 1.366 . S
C1865 C1864 1.366 . S
C1865 C1866 1.414 . S
C1865 C1868 1.499 . S
C1866 H1846 0.950 1_545 S
C1866 C1865 1.414 . S
C1866 C1867 1.374 . S
C1867 H1847 0.950 . S
C1867 C1863 1.385 . S
C1867 C1866 1.374 . S
C1868 C1865 1.499 . S
C1868 C1869 1.373 1_545 S
C1868 C1870 1.389 . S
C1869 H1848 0.950 . S
C1869 C1868 1.373 1_565 S
C1869 C1885 1.377 . S
C1870 C1868 1.389 . S
C1870 C1871 1.524 . S
C1870 C1884 1.377 . S
C1871 C1870 1.524 . S
C1871 C1872 1.397 . S
C1871 C1876 1.363 . S
C1872 H1849 0.950 . S
C1872 C1871 1.397 . S
C1872 C1873 1.334 . S
C1873 H1850 0.950 . S
C1873 C1872 1.334 . S
C1873 C1874 1.287 . S
C1874 C1873 1.287 . S
C1874 C1875 1.524 . S
C1874 H1893 0.913 . S
C1875 H1851 0.950 . S
C1875 C1874 1.524 . S
C1875 C1876 1.415 . S
C1876 H1852 0.950 . S
C1876 C1871 1.363 . S
C1876 C1875 1.415 . S
C1877 H1853 0.951 . S
C1877 C1878 1.366 . S
C1877 C1879 1.388 . S
C1878 C1877 1.366 . S
C1878 C1882 1.385 . S
C1879 H1854 0.951 . S
C1879 C1877 1.388 . S
C1879 C1880 1.366 . S
C1880 C1879 1.366 . S
C1880 C1881 1.414 . S
C1880 C1883 1.499 . S
C1881 H1855 0.950 1_565 S
C1881 C1880 1.414 . S
C1881 C1882 1.374 . S
C1882 H1856 0.950 . S
C1882 C1878 1.385 . S
C1882 C1881 1.374 . S
C1883 C1880 1.499 . S
C1883 C1884 1.373 1_565 S
C1883 C1885 1.389 . S
C1884 H1857 0.950 . S
C1884 C1870 1.377 . S
C1884 C1883 1.373 1_545 S
C1885 C1869 1.377 . S
C1885 C1883 1.389 . S
C1885 C1886 1.524 . S
C1886 C1885 1.524 . S
C1886 C1887 1.397 . S
C1886 C1891 1.363 . S
C1887 H1858 0.950 . S
C1887 C1886 1.397 . S
C1887 C1888 1.334 . S
C1888 H1859 0.950 . S
C1888 C1887 1.334 . S
C1888 C1889 1.287 . S
C1889 C1888 1.287 . S
C1889 C1890 1.524 . S
C1889 H1892 0.999 . S
C1890 H1860 0.950 . S
C1890 C1889 1.524 . S
C1890 C1891 1.415 . S
C1891 H1861 0.950 . S
C1891 C1886 1.363 . S
C1891 C1890 1.415 . S
H1892 C1889 0.999 . S
H1893 C1874 0.913 . S
H1894 C1912 0.951 . S
H1895 C1914 0.951 . S
H1896 C1916 0.950 . S
H1897 C1917 0.950 . S
H1898 C1919 0.950 . S
H1899 C1922 0.950 . S
H1900 C1923 0.950 . S
H1901 C1925 0.950 . S
H1902 C1926 0.941 1_545 S
H1903 C1927 0.951 . S
H1904 C1929 0.951 . S
H1905 C1931 0.950 . S
H1906 C1932 0.950 . S
H1907 C1934 0.950 . S
H1908 C1937 0.950 . S
H1909 C1938 0.950 . S
H1910 C1940 0.950 . S
H1911 C1941 0.941 1_565 S
C1912 H1894 0.951 . S
C1912 C1913 1.366 . S
C1912 C1914 1.388 . S
C1913 C1912 1.366 . S
C1913 C1917 1.385 . S
C1914 H1895 0.951 . S
C1914 C1912 1.388 . S
C1914 C1915 1.366 . S
C1915 C1914 1.366 . S
C1915 C1916 1.414 . S
C1915 C1918 1.499 . S
C1916 H1896 0.950 . S
C1916 C1915 1.414 . S
C1916 C1917 1.374 . S
C1917 H1897 0.950 . S
C1917 C1913 1.385 . S
C1917 C1916 1.374 . S
C1918 C1915 1.499 . S
C1918 C1919 1.373 . S
C1918 C1920 1.389 1_545 S
C1919 H1898 0.950 . S
C1919 C1918 1.373 . S
C1919 C1935 1.377 . S
C1920 C1918 1.389 1_565 S
C1920 C1921 1.524 . S
C1920 C1934 1.377 . S
C1921 C1920 1.524 . S
C1921 C1922 1.397 . S
C1921 C1926 1.368 . S
C1922 H1899 0.950 . S
C1922 C1921 1.397 . S
C1922 C1923 1.334 . S
C1923 H1900 0.950 . S
C1923 C1922 1.334 . S
C1923 C1924 1.287 . S
C1924 C1923 1.287 . S
C1924 C1925 1.524 . S
C1924 H1943 0.913 . S
C1925 H1901 0.950 . S
C1925 C1924 1.524 . S
C1925 C1926 1.419 . S
C1926 H1902 0.941 1_565 S
C1926 C1921 1.368 . S
C1926 C1925 1.419 . S
C1927 H1903 0.951 . S
C1927 C1928 1.366 . S
C1927 C1929 1.388 . S
C1928 C1927 1.366 . S
C1928 C1932 1.385 . S
C1929 H1904 0.951 . S
C1929 C1927 1.388 . S
C1929 C1930 1.366 . S
C1930 C1929 1.366 . S
C1930 C1931 1.414 . S
C1930 C1933 1.499 . S
C1931 H1905 0.950 . S
C1931 C1930 1.414 . S
C1931 C1932 1.374 . S
C1932 H1906 0.950 . S
C1932 C1928 1.385 . S
C1932 C1931 1.374 . S
C1933 C1930 1.499 . S
C1933 C1934 1.373 . S
C1933 C1935 1.389 1_565 S
C1934 H1907 0.950 . S
C1934 C1920 1.377 . S
C1934 C1933 1.373 . S
C1935 C1919 1.377 . S
C1935 C1933 1.389 1_545 S
C1935 C1936 1.524 . S
C1936 C1935 1.524 . S
C1936 C1937 1.397 . S
C1936 C1941 1.368 . S
C1937 H1908 0.950 . S
C1937 C1936 1.397 . S
C1937 C1938 1.334 . S
C1938 H1909 0.950 . S
C1938 C1937 1.334 . S
C1938 C1939 1.287 . S
C1939 C1938 1.287 . S
C1939 C1940 1.524 . S
C1939 H1942 0.999 . S
C1940 H1910 0.950 . S
C1940 C1939 1.524 . S
C1940 C1941 1.419 . S
C1941 H1911 0.941 1_545 S
C1941 C1936 1.368 . S
C1941 C1940 1.419 . S
H1942 C1939 0.999 . S
H1943 C1924 0.913 . S
H1944 C1962 0.951 . S
H1945 C1964 0.951 . S
H1946 C1966 0.950 . S
H1947 C1967 0.950 . S
H1948 C1969 0.950 . S
H1949 C1972 0.950 . S
H1950 C1973 0.950 . S
H1951 C1975 0.950 . S
H1952 C1976 0.950 . S
H1953 C1977 0.951 . S
H1954 C1979 0.951 . S
H1955 C1981 0.950 . S
H1956 C1982 0.950 . S
H1957 C1984 0.950 . S
H1958 C1987 0.950 . S
H1959 C1988 0.950 . S
H1960 C1990 0.950 . S
H1961 C1991 0.950 . S
C1962 H1944 0.951 . S
C1962 C1963 1.366 . S
C1962 C1964 1.388 . S
C1963 C1962 1.366 . S
C1963 C1967 1.385 . S
C1964 H1945 0.951 . S
C1964 C1962 1.388 . S
C1964 C1965 1.366 . S
C1965 C1964 1.366 . S
C1965 C1966 1.414 . S
C1965 C1968 1.499 . S
C1966 H1946 0.950 . S
C1966 C1965 1.414 . S
C1966 C1967 1.374 . S
C1967 H1947 0.950 . S
C1967 C1963 1.385 . S
C1967 C1966 1.374 . S
C1968 C1965 1.499 . S
C1968 C1969 1.373 . S
C1968 C1970 1.389 . S
C1969 H1948 0.950 . S
C1969 C1968 1.373 . S
C1969 C1985 1.377 . S
C1970 C1968 1.389 . S
C1970 C1971 1.524 . S
C1970 C1984 1.377 . S
C1971 C1970 1.524 . S
C1971 C1972 1.397 . S
C1971 C1976 1.363 . S
C1972 H1949 0.950 . S
C1972 C1971 1.397 . S
C1972 C1973 1.334 . S
C1973 H1950 0.950 . S
C1973 C1972 1.334 . S
C1973 C1974 1.287 . S
C1974 C1973 1.287 . S
C1974 C1975 1.524 . S
C1974 H1993 0.913 . S
C1975 H1951 0.950 . S
C1975 C1974 1.524 . S
C1975 C1976 1.415 . S
C1976 H1952 0.950 . S
C1976 C1971 1.363 . S
C1976 C1975 1.415 . S
C1977 H1953 0.951 . S
C1977 C1978 1.366 . S
C1977 C1979 1.388 . S
C1978 C1977 1.366 . S
C1978 C1982 1.385 . S
C1979 H1954 0.951 . S
C1979 C1977 1.388 . S
C1979 C1980 1.366 . S
C1980 C1979 1.366 . S
C1980 C1981 1.414 . S
C1980 C1983 1.499 . S
C1981 H1955 0.950 . S
C1981 C1980 1.414 . S
C1981 C1982 1.374 . S
C1982 H1956 0.950 . S
C1982 C1978 1.385 . S
C1982 C1981 1.374 . S
C1983 C1980 1.499 . S
C1983 C1984 1.373 . S
C1983 C1985 1.389 . S
C1984 H1957 0.950 . S
C1984 C1970 1.377 . S
C1984 C1983 1.373 . S
C1985 C1969 1.377 . S
C1985 C1983 1.389 . S
C1985 C1986 1.524 . S
C1986 C1985 1.524 . S
C1986 C1987 1.397 . S
C1986 C1991 1.363 . S
C1987 H1958 0.950 . S
C1987 C1986 1.397 . S
C1987 C1988 1.334 . S
C1988 H1959 0.950 . S
C1988 C1987 1.334 . S
C1988 C1989 1.287 . S
C1989 C1988 1.287 . S
C1989 C1990 1.524 . S
C1989 H1992 0.999 . S
C1990 H1960 0.950 . S
C1990 C1989 1.524 . S
C1990 C1991 1.415 . S
C1991 H1961 0.950 . S
C1991 C1986 1.363 . S
C1991 C1990 1.415 . S
H1992 C1989 0.999 . S
H1993 C1974 0.913 . S
H1994 C2012 0.951 . S
H1995 C2014 0.951 . S
H1996 C2016 0.950 . S
H1997 C2017 0.950 . S
H1998 C2019 0.950 . S
H1999 C2022 0.950 . S
H2000 C2023 0.950 . S
H2001 C2025 0.950 . S
H2002 C2026 0.950 . S
H2003 C2027 0.951 . S
H2004 C2029 0.951 . S
H2005 C2031 0.950 . S
H2006 C2032 0.950 . S
H2007 C2034 0.950 . S
H2008 C2037 0.950 . S
H2009 C2038 0.950 . S
H2010 C2040 0.950 . S
H2011 C2041 0.950 . S
C2012 H1994 0.951 . S
C2012 C2013 1.366 . S
C2012 C2014 1.388 . S
C2013 C2012 1.366 . S
C2013 C2017 1.385 . S
C2014 H1995 0.951 . S
C2014 C2012 1.388 . S
C2014 C2015 1.366 . S
C2015 C2014 1.366 . S
C2015 C2016 1.414 . S
C2015 C2018 1.499 . S
C2016 H1996 0.950 . S
C2016 C2015 1.414 . S
C2016 C2017 1.374 . S
C2017 H1997 0.950 . S
C2017 C2013 1.385 . S
C2017 C2016 1.374 . S
C2018 C2015 1.499 . S
C2018 C2019 1.373 . S
C2018 C2020 1.389 . S
C2019 H1998 0.950 . S
C2019 C2018 1.373 . S
C2019 C2035 1.377 . S
C2020 C2018 1.389 . S
C2020 C2021 1.524 . S
C2020 C2034 1.377 . S
C2021 C2020 1.524 . S
C2021 C2022 1.397 . S
C2021 C2026 1.363 . S
C2022 H1999 0.950 . S
C2022 C2021 1.397 . S
C2022 C2023 1.334 . S
C2023 H2000 0.950 . S
C2023 C2022 1.334 . S
C2023 C2024 1.287 . S
C2024 C2023 1.287 . S
C2024 C2025 1.524 . S
C2024 H2043 0.913 . S
C2025 H2001 0.950 . S
C2025 C2024 1.524 . S
C2025 C2026 1.415 . S
C2026 H2002 0.950 . S
C2026 C2021 1.363 . S
C2026 C2025 1.415 . S
C2027 H2003 0.951 . S
C2027 C2028 1.366 . S
C2027 C2029 1.388 . S
C2028 C2027 1.366 . S
C2028 C2032 1.385 . S
C2029 H2004 0.951 . S
C2029 C2027 1.388 . S
C2029 C2030 1.366 . S
C2030 C2029 1.366 . S
C2030 C2031 1.414 . S
C2030 C2033 1.499 . S
C2031 H2005 0.950 . S
C2031 C2030 1.414 . S
C2031 C2032 1.374 . S
C2032 H2006 0.950 . S
C2032 C2028 1.385 . S
C2032 C2031 1.374 . S
C2033 C2030 1.499 . S
C2033 C2034 1.373 . S
C2033 C2035 1.389 . S
C2034 H2007 0.950 . S
C2034 C2020 1.377 . S
C2034 C2033 1.373 . S
C2035 C2019 1.377 . S
C2035 C2033 1.389 . S
C2035 C2036 1.524 . S
C2036 C2035 1.524 . S
C2036 C2037 1.397 . S
C2036 C2041 1.363 . S
C2037 H2008 0.950 . S
C2037 C2036 1.397 . S
C2037 C2038 1.334 . S
C2038 H2009 0.950 . S
C2038 C2037 1.334 . S
C2038 C2039 1.287 . S
C2039 C2038 1.287 . S
C2039 C2040 1.524 . S
C2039 H2042 0.999 . S
C2040 H2010 0.950 . S
C2040 C2039 1.524 . S
C2040 C2041 1.415 . S
C2041 H2011 0.950 . S
C2041 C2036 1.363 . S
C2041 C2040 1.415 . S
H2042 C2039 0.999 . S
H2043 C2024 0.913 . S
H2044 C2062 0.951 . S
H2045 C2064 0.951 . S
H2046 C2066 0.950 . S
H2047 C2067 0.950 . S
H2048 C2069 0.950 . S
H2049 C2072 0.950 . S
H2050 C2073 0.950 . S
H2051 C2075 0.950 . S
H2052 C2076 0.950 . S
H2053 C2077 0.951 . S
H2054 C2079 0.951 . S
H2055 C2081 0.950 . S
H2056 C2082 0.950 . S
H2057 C2084 0.950 . S
H2058 C2087 0.950 . S
H2059 C2088 0.950 . S
H2060 C2090 0.950 . S
H2061 C2091 0.950 . S
C2062 H2044 0.951 . S
C2062 C2063 1.366 . S
C2062 C2064 1.388 . S
C2063 C2062 1.366 . S
C2063 C2067 1.385 . S
C2064 H2045 0.951 . S
C2064 C2062 1.388 . S
C2064 C2065 1.366 . S
C2065 C2064 1.366 . S
C2065 C2066 1.414 . S
C2065 C2068 1.499 . S
C2066 H2046 0.950 . S
C2066 C2065 1.414 . S
C2066 C2067 1.374 . S
C2067 H2047 0.950 . S
C2067 C2063 1.385 . S
C2067 C2066 1.374 . S
C2068 C2065 1.499 . S
C2068 C2069 1.373 . S
C2068 C2070 1.389 . S
C2069 H2048 0.950 . S
C2069 C2068 1.373 . S
C2069 C2085 1.377 . S
C2070 C2068 1.389 . S
C2070 C2071 1.524 . S
C2070 C2084 1.377 . S
C2071 C2070 1.524 . S
C2071 C2072 1.397 . S
C2071 C2076 1.363 . S
C2072 H2049 0.950 . S
C2072 C2071 1.397 . S
C2072 C2073 1.334 . S
C2073 H2050 0.950 . S
C2073 C2072 1.334 . S
C2073 C2074 1.287 . S
C2074 C2073 1.287 . S
C2074 C2075 1.524 . S
C2074 H2093 0.913 . S
C2075 H2051 0.950 . S
C2075 C2074 1.524 . S
C2075 C2076 1.415 . S
C2076 H2052 0.950 . S
C2076 C2071 1.363 . S
C2076 C2075 1.415 . S
C2077 H2053 0.951 . S
C2077 C2078 1.366 . S
C2077 C2079 1.388 . S
C2078 C2077 1.366 . S
C2078 C2082 1.385 . S
C2079 H2054 0.951 . S
C2079 C2077 1.388 . S
C2079 C2080 1.366 . S
C2080 C2079 1.366 . S
C2080 C2081 1.414 . S
C2080 C2083 1.499 . S
C2081 H2055 0.950 . S
C2081 C2080 1.414 . S
C2081 C2082 1.374 . S
C2082 H2056 0.950 . S
C2082 C2078 1.385 . S
C2082 C2081 1.374 . S
C2083 C2080 1.499 . S
C2083 C2084 1.373 . S
C2083 C2085 1.389 . S
C2084 H2057 0.950 . S
C2084 C2070 1.377 . S
C2084 C2083 1.373 . S
C2085 C2069 1.377 . S
C2085 C2083 1.389 . S
C2085 C2086 1.524 . S
C2086 C2085 1.524 . S
C2086 C2087 1.397 . S
C2086 C2091 1.363 . S
C2087 H2058 0.950 . S
C2087 C2086 1.397 . S
C2087 C2088 1.334 . S
C2088 H2059 0.950 . S
C2088 C2087 1.334 . S
C2088 C2089 1.287 . S
C2089 C2088 1.287 . S
C2089 C2090 1.524 . S
C2089 H2092 0.999 . S
C2090 H2060 0.950 . S
C2090 C2089 1.524 . S
C2090 C2091 1.415 . S
C2091 H2061 0.950 . S
C2091 C2086 1.363 . S
C2091 C2090 1.415 . S
H2092 C2089 0.999 . S
H2093 C2074 0.913 . S
H2094 C2112 0.951 . S
H2095 C2114 0.951 . S
H2096 C2116 0.950 . S
H2097 C2117 0.950 . S
H2098 C2119 0.950 . S
H2099 C2122 0.950 . S
H2100 C2123 0.950 . S
H2101 C2125 0.950 . S
H2102 C2126 0.950 . S
H2103 C2127 0.951 . S
H2104 C2129 0.951 . S
H2105 C2131 0.950 . S
H2106 C2132 0.950 . S
H2107 C2134 0.950 . S
H2108 C2137 0.950 . S
H2109 C2138 0.950 . S
H2110 C2140 0.950 . S
H2111 C2141 0.950 . S
C2112 H2094 0.951 . S
C2112 C2113 1.366 . S
C2112 C2114 1.388 . S
C2113 C2112 1.366 . S
C2113 C2117 1.385 . S
C2114 H2095 0.951 . S
C2114 C2112 1.388 . S
C2114 C2115 1.366 . S
C2115 C2114 1.366 . S
C2115 C2116 1.414 . S
C2115 C2118 1.499 . S
C2116 H2096 0.950 . S
C2116 C2115 1.414 . S
C2116 C2117 1.374 . S
C2117 H2097 0.950 . S
C2117 C2113 1.385 . S
C2117 C2116 1.374 . S
C2118 C2115 1.499 . S
C2118 C2119 1.373 . S
C2118 C2120 1.389 . S
C2119 H2098 0.950 . S
C2119 C2118 1.373 . S
C2119 C2135 1.377 . S
C2120 C2118 1.389 . S
C2120 C2121 1.524 . S
C2120 C2134 1.377 . S
C2121 C2120 1.524 . S
C2121 C2122 1.397 . S
C2121 C2126 1.363 . S
C2122 H2099 0.950 . S
C2122 C2121 1.397 . S
C2122 C2123 1.334 . S
C2123 H2100 0.950 . S
C2123 C2122 1.334 . S
C2123 C2124 1.287 . S
C2124 C2123 1.287 . S
C2124 C2125 1.524 . S
C2124 H2143 0.913 . S
C2125 H2101 0.950 . S
C2125 C2124 1.524 . S
C2125 C2126 1.415 . S
C2126 H2102 0.950 . S
C2126 C2121 1.363 . S
C2126 C2125 1.415 . S
C2127 H2103 0.951 . S
C2127 C2128 1.366 . S
C2127 C2129 1.388 . S
C2128 C2127 1.366 . S
C2128 C2132 1.385 . S
C2129 H2104 0.951 . S
C2129 C2127 1.388 . S
C2129 C2130 1.366 . S
C2130 C2129 1.366 . S
C2130 C2131 1.414 . S
C2130 C2133 1.499 . S
C2131 H2105 0.950 . S
C2131 C2130 1.414 . S
C2131 C2132 1.374 . S
C2132 H2106 0.950 . S
C2132 C2128 1.385 . S
C2132 C2131 1.374 . S
C2133 C2130 1.499 . S
C2133 C2134 1.373 . S
C2133 C2135 1.389 . S
C2134 H2107 0.950 . S
C2134 C2120 1.377 . S
C2134 C2133 1.373 . S
C2135 C2119 1.377 . S
C2135 C2133 1.389 . S
C2135 C2136 1.524 . S
C2136 C2135 1.524 . S
C2136 C2137 1.397 . S
C2136 C2141 1.363 . S
C2137 H2108 0.950 . S
C2137 C2136 1.397 . S
C2137 C2138 1.334 . S
C2138 H2109 0.950 . S
C2138 C2137 1.334 . S
C2138 C2139 1.287 . S
C2139 C2138 1.287 . S
C2139 C2140 1.524 . S
C2139 H2142 0.999 . S
C2140 H2110 0.950 . S
C2140 C2139 1.524 . S
C2140 C2141 1.415 . S
C2141 H2111 0.950 . S
C2141 C2136 1.363 . S
C2141 C2140 1.415 . S
H2142 C2139 0.999 . S
H2143 C2124 0.913 . S
H2144 C2162 0.951 . S
H2145 C2164 0.951 . S
H2146 C2166 0.950 . S
H2147 C2167 0.950 . S
H2148 C2169 0.950 . S
H2149 C2172 0.950 . S
H2150 C2173 0.950 . S
H2151 C2175 0.950 . S
H2152 C2176 0.950 . S
H2153 C2177 0.951 . S
H2154 C2179 0.951 . S
H2155 C2181 0.950 . S
H2156 C2182 0.950 . S
H2157 C2184 0.950 . S
H2158 C2187 0.950 . S
H2159 C2188 0.950 . S
H2160 C2190 0.950 . S
H2161 C2191 0.950 . S
C2162 H2144 0.951 . S
C2162 C2163 1.366 . S
C2162 C2164 1.388 . S
C2163 C2162 1.366 . S
C2163 C2167 1.385 . S
C2164 H2145 0.951 . S
C2164 C2162 1.388 . S
C2164 C2165 1.366 . S
C2165 C2164 1.366 . S
C2165 C2166 1.414 . S
C2165 C2168 1.499 . S
C2166 H2146 0.950 . S
C2166 C2165 1.414 . S
C2166 C2167 1.374 . S
C2167 H2147 0.950 . S
C2167 C2163 1.385 . S
C2167 C2166 1.374 . S
C2168 C2165 1.499 . S
C2168 C2169 1.373 . S
C2168 C2170 1.389 . S
C2169 H2148 0.950 . S
C2169 C2168 1.373 . S
C2169 C2185 1.377 1_556 S
C2170 C2168 1.389 . S
C2170 C2171 1.524 . S
C2170 C2184 1.377 1_556 S
C2171 C2170 1.524 . S
C2171 C2172 1.397 . S
C2171 C2176 1.363 . S
C2172 H2149 0.950 . S
C2172 C2171 1.397 . S
C2172 C2173 1.334 . S
C2173 H2150 0.950 . S
C2173 C2172 1.334 . S
C2173 C2174 1.287 . S
C2174 C2173 1.287 . S
C2174 C2175 1.524 . S
C2174 H2193 0.913 . S
C2175 H2151 0.950 . S
C2175 C2174 1.524 . S
C2175 C2176 1.415 . S
C2176 H2152 0.950 . S
C2176 C2171 1.363 . S
C2176 C2175 1.415 . S
C2177 H2153 0.951 . S
C2177 C2178 1.366 . S
C2177 C2179 1.388 . S
C2178 C2177 1.366 . S
C2178 C2182 1.385 . S
C2179 H2154 0.951 . S
C2179 C2177 1.388 . S
C2179 C2180 1.366 . S
C2180 C2179 1.366 . S
C2180 C2181 1.414 . S
C2180 C2183 1.499 . S
C2181 H2155 0.950 . S
C2181 C2180 1.414 . S
C2181 C2182 1.374 . S
C2182 H2156 0.950 . S
C2182 C2178 1.385 . S
C2182 C2181 1.374 . S
C2183 C2180 1.499 . S
C2183 C2184 1.373 . S
C2183 C2185 1.389 . S
C2184 H2157 0.950 . S
C2184 C2170 1.377 1_554 S
C2184 C2183 1.373 . S
C2185 C2169 1.377 1_554 S
C2185 C2183 1.389 . S
C2185 C2186 1.524 . S
C2186 C2185 1.524 . S
C2186 C2187 1.397 . S
C2186 C2191 1.363 . S
C2187 H2158 0.950 . S
C2187 C2186 1.397 . S
C2187 C2188 1.334 . S
C2188 H2159 0.950 . S
C2188 C2187 1.334 . S
C2188 C2189 1.287 . S
C2189 C2188 1.287 . S
C2189 C2190 1.524 . S
C2189 H2192 0.999 . S
C2190 H2160 0.950 . S
C2190 C2189 1.524 . S
C2190 C2191 1.415 . S
C2191 H2161 0.950 . S
C2191 C2186 1.363 . S
C2191 C2190 1.415 . S
H2192 C2189 0.999 . S
H2193 C2174 0.913 . S
H2194 C2212 0.951 . S
H2195 C2214 0.951 . S
H2196 C2216 0.950 . S
H2197 C2217 0.950 . S
H2198 C2219 0.950 . S
H2199 C2222 0.950 . S
H2200 C2223 0.950 . S
H2201 C2225 0.950 . S
H2202 C2226 0.950 . S
H2203 C2227 0.951 . S
H2204 C2229 0.951 . S
H2205 C2231 0.950 . S
H2206 C2232 0.950 . S
H2207 C2234 0.950 . S
H2208 C2237 0.950 . S
H2209 C2238 0.950 . S
H2210 C2240 0.950 . S
H2211 C2241 0.950 . S
C2212 H2194 0.951 . S
C2212 C2213 1.366 . S
C2212 C2214 1.388 . S
C2213 C2212 1.366 . S
C2213 C2217 1.385 . S
C2214 H2195 0.951 . S
C2214 C2212 1.388 . S
C2214 C2215 1.366 . S
C2215 C2214 1.366 . S
C2215 C2216 1.414 . S
C2215 C2218 1.499 . S
C2216 H2196 0.950 . S
C2216 C2215 1.414 . S
C2216 C2217 1.374 . S
C2217 H2197 0.950 . S
C2217 C2213 1.385 . S
C2217 C2216 1.374 . S
C2218 C2215 1.499 . S
C2218 C2219 1.373 . S
C2218 C2220 1.389 . S
C2219 H2198 0.950 . S
C2219 C2218 1.373 . S
C2219 C2235 1.377 1_556 S
C2220 C2218 1.389 . S
C2220 C2221 1.524 . S
C2220 C2234 1.377 1_556 S
C2221 C2220 1.524 . S
C2221 C2222 1.397 . S
C2221 C2226 1.363 . S
C2222 H2199 0.950 . S
C2222 C2221 1.397 . S
C2222 C2223 1.334 . S
C2223 H2200 0.950 . S
C2223 C2222 1.334 . S
C2223 C2224 1.287 . S
C2224 C2223 1.287 . S
C2224 C2225 1.524 . S
C2224 H2243 0.913 . S
C2225 H2201 0.950 . S
C2225 C2224 1.524 . S
C2225 C2226 1.415 . S
C2226 H2202 0.950 . S
C2226 C2221 1.363 . S
C2226 C2225 1.415 . S
C2227 H2203 0.951 . S
C2227 C2228 1.366 . S
C2227 C2229 1.388 . S
C2228 C2227 1.366 . S
C2228 C2232 1.385 . S
C2229 H2204 0.951 . S
C2229 C2227 1.388 . S
C2229 C2230 1.366 . S
C2230 C2229 1.366 . S
C2230 C2231 1.414 . S
C2230 C2233 1.499 . S
C2231 H2205 0.950 . S
C2231 C2230 1.414 . S
C2231 C2232 1.374 . S
C2232 H2206 0.950 . S
C2232 C2228 1.385 . S
C2232 C2231 1.374 . S
C2233 C2230 1.499 . S
C2233 C2234 1.373 . S
C2233 C2235 1.389 . S
C2234 H2207 0.950 . S
C2234 C2220 1.377 1_554 S
C2234 C2233 1.373 . S
C2235 C2219 1.377 1_554 S
C2235 C2233 1.389 . S
C2235 C2236 1.524 . S
C2236 C2235 1.524 . S
C2236 C2237 1.397 . S
C2236 C2241 1.363 . S
C2237 H2208 0.950 . S
C2237 C2236 1.397 . S
C2237 C2238 1.334 . S
C2238 H2209 0.950 . S
C2238 C2237 1.334 . S
C2238 C2239 1.287 . S
C2239 C2238 1.287 . S
C2239 C2240 1.524 . S
C2239 H2242 0.999 . S
C2240 H2210 0.950 . S
C2240 C2239 1.524 . S
C2240 C2241 1.415 . S
C2241 H2211 0.950 . S
C2241 C2236 1.363 . S
C2241 C2240 1.415 . S
H2242 C2239 0.999 . S
H2243 C2224 0.913 . S
H2244 C2262 0.951 . S
H2245 C2264 0.951 . S
H2246 C2266 0.950 . S
H2247 C2267 0.950 . S
H2248 C2269 0.950 . S
H2249 C2272 0.950 . S
H2250 C2273 0.950 . S
H2251 C2275 0.950 . S
H2252 C2276 0.950 . S
H2253 C2277 0.951 . S
H2254 C2279 0.951 . S
H2255 C2281 0.950 . S
H2256 C2282 0.950 . S
H2257 C2284 0.950 . S
H2258 C2287 0.950 . S
H2259 C2288 0.950 . S
H2260 C2290 0.950 . S
H2261 C2291 0.950 . S
C2262 H2244 0.951 . S
C2262 C2263 1.366 . S
C2262 C2264 1.388 . S
C2263 C2262 1.366 . S
C2263 C2267 1.385 . S
C2264 H2245 0.951 . S
C2264 C2262 1.388 . S
C2264 C2265 1.366 . S
C2265 C2264 1.366 . S
C2265 C2266 1.414 . S
C2265 C2268 1.499 . S
C2266 H2246 0.950 . S
C2266 C2265 1.414 . S
C2266 C2267 1.374 . S
C2267 H2247 0.950 . S
C2267 C2263 1.385 . S
C2267 C2266 1.374 . S
C2268 C2265 1.499 . S
C2268 C2269 1.373 . S
C2268 C2270 1.389 . S
C2269 H2248 0.950 . S
C2269 C2268 1.373 . S
C2269 C2285 1.377 . S
C2270 C2268 1.389 . S
C2270 C2271 1.524 . S
C2270 C2284 1.377 . S
C2271 C2270 1.524 . S
C2271 C2272 1.397 . S
C2271 C2276 1.363 . S
C2272 H2249 0.950 . S
C2272 C2271 1.397 . S
C2272 C2273 1.334 . S
C2273 H2250 0.950 . S
C2273 C2272 1.334 . S
C2273 C2274 1.287 . S
C2274 C2273 1.287 . S
C2274 C2275 1.524 . S
C2274 H2293 0.913 . S
C2275 H2251 0.950 . S
C2275 C2274 1.524 . S
C2275 C2276 1.415 . S
C2276 H2252 0.950 . S
C2276 C2271 1.363 . S
C2276 C2275 1.415 . S
C2277 H2253 0.951 . S
C2277 C2278 1.366 . S
C2277 C2279 1.388 . S
C2278 C2277 1.366 . S
C2278 C2282 1.385 . S
C2279 H2254 0.951 . S
C2279 C2277 1.388 . S
C2279 C2280 1.366 . S
C2280 C2279 1.366 . S
C2280 C2281 1.414 . S
C2280 C2283 1.499 . S
C2281 H2255 0.950 . S
C2281 C2280 1.414 . S
C2281 C2282 1.374 . S
C2282 H2256 0.950 . S
C2282 C2278 1.385 . S
C2282 C2281 1.374 . S
C2283 C2280 1.499 . S
C2283 C2284 1.373 . S
C2283 C2285 1.389 . S
C2284 H2257 0.950 . S
C2284 C2270 1.377 . S
C2284 C2283 1.373 . S
C2285 C2269 1.377 . S
C2285 C2283 1.389 . S
C2285 C2286 1.524 . S
C2286 C2285 1.524 . S
C2286 C2287 1.397 . S
C2286 C2291 1.363 . S
C2287 H2258 0.950 . S
C2287 C2286 1.397 . S
C2287 C2288 1.334 . S
C2288 H2259 0.950 . S
C2288 C2287 1.334 . S
C2288 C2289 1.287 . S
C2289 C2288 1.287 . S
C2289 C2290 1.524 . S
C2289 H2292 0.999 . S
C2290 H2260 0.950 . S
C2290 C2289 1.524 . S
C2290 C2291 1.415 . S
C2291 H2261 0.950 . S
C2291 C2286 1.363 . S
C2291 C2290 1.415 . S
H2292 C2289 0.999 . S
H2293 C2274 0.913 . S
H2294 C2312 0.951 . S
H2295 C2314 0.951 . S
H2296 C2316 0.950 . S
H2297 C2317 0.950 . S
H2298 C2319 0.950 . S
H2299 C2322 0.950 . S
H2300 C2323 0.950 . S
H2301 C2325 0.950 . S
H2302 C2326 0.950 . S
H2303 C2327 0.951 . S
H2304 C2329 0.951 . S
H2305 C2331 0.950 . S
H2306 C2332 0.950 . S
H2307 C2334 0.950 . S
H2308 C2337 0.950 . S
H2309 C2338 0.950 . S
H2310 C2340 0.950 . S
H2311 C2341 0.950 . S
C2312 H2294 0.951 . S
C2312 C2313 1.366 . S
C2312 C2314 1.388 . S
C2313 C2312 1.366 . S
C2313 C2317 1.385 . S
C2314 H2295 0.951 . S
C2314 C2312 1.388 . S
C2314 C2315 1.366 . S
C2315 C2314 1.366 . S
C2315 C2316 1.414 . S
C2315 C2318 1.499 . S
C2316 H2296 0.950 . S
C2316 C2315 1.414 . S
C2316 C2317 1.374 . S
C2317 H2297 0.950 . S
C2317 C2313 1.385 . S
C2317 C2316 1.374 . S
C2318 C2315 1.499 . S
C2318 C2319 1.373 . S
C2318 C2320 1.389 . S
C2319 H2298 0.950 . S
C2319 C2318 1.373 . S
C2319 C2335 1.377 . S
C2320 C2318 1.389 . S
C2320 C2321 1.524 . S
C2320 C2334 1.377 . S
C2321 C2320 1.524 . S
C2321 C2322 1.397 . S
C2321 C2326 1.363 . S
C2322 H2299 0.950 . S
C2322 C2321 1.397 . S
C2322 C2323 1.334 . S
C2323 H2300 0.950 . S
C2323 C2322 1.334 . S
C2323 C2324 1.287 . S
C2324 C2323 1.287 . S
C2324 C2325 1.524 . S
C2324 H2343 0.913 . S
C2325 H2301 0.950 . S
C2325 C2324 1.524 . S
C2325 C2326 1.415 . S
C2326 H2302 0.950 . S
C2326 C2321 1.363 . S
C2326 C2325 1.415 . S
C2327 H2303 0.951 . S
C2327 C2328 1.366 . S
C2327 C2329 1.388 . S
C2328 C2327 1.366 . S
C2328 C2332 1.385 . S
C2329 H2304 0.951 . S
C2329 C2327 1.388 . S
C2329 C2330 1.366 . S
C2330 C2329 1.366 . S
C2330 C2331 1.414 . S
C2330 C2333 1.499 . S
C2331 H2305 0.950 . S
C2331 C2330 1.414 . S
C2331 C2332 1.374 . S
C2332 H2306 0.950 . S
C2332 C2328 1.385 . S
C2332 C2331 1.374 . S
C2333 C2330 1.499 . S
C2333 C2334 1.373 . S
C2333 C2335 1.389 . S
C2334 H2307 0.950 . S
C2334 C2320 1.377 . S
C2334 C2333 1.373 . S
C2335 C2319 1.377 . S
C2335 C2333 1.389 . S
C2335 C2336 1.524 . S
C2336 C2335 1.524 . S
C2336 C2337 1.397 . S
C2336 C2341 1.363 . S
C2337 H2308 0.950 . S
C2337 C2336 1.397 . S
C2337 C2338 1.334 . S
C2338 H2309 0.950 . S
C2338 C2337 1.334 . S
C2338 C2339 1.287 . S
C2339 C2338 1.287 . S
C2339 C2340 1.524 . S
C2339 H2342 0.999 . S
C2340 H2310 0.950 . S
C2340 C2339 1.524 . S
C2340 C2341 1.415 . S
C2341 H2311 0.950 . S
C2341 C2336 1.363 . S
C2341 C2340 1.415 . S
H2342 C2339 0.999 . S
H2343 C2324 0.913 . S
H2344 C2362 0.951 . S
H2345 C2364 0.951 . S
H2346 C2366 0.950 . S
H2347 C2367 0.950 . S
H2348 C2369 0.950 . S
H2349 C2372 0.950 . S
H2350 C2373 0.950 . S
H2351 C2375 0.950 . S
H2352 C2376 0.950 . S
H2353 C2377 0.951 . S
H2354 C2379 0.951 . S
H2355 C2381 0.950 . S
H2356 C2382 0.950 . S
H2357 C2384 0.950 . S
H2358 C2387 0.950 . S
H2359 C2388 0.950 . S
H2360 C2390 0.950 . S
H2361 C2391 0.950 . S
C2362 H2344 0.951 . S
C2362 C2363 1.366 . S
C2362 C2364 1.388 . S
C2363 C2362 1.366 . S
C2363 C2367 1.385 . S
C2364 H2345 0.951 . S
C2364 C2362 1.388 . S
C2364 C2365 1.366 . S
C2365 C2364 1.366 . S
C2365 C2366 1.414 . S
C2365 C2368 1.499 . S
C2366 H2346 0.950 . S
C2366 C2365 1.414 . S
C2366 C2367 1.374 . S
C2367 H2347 0.950 . S
C2367 C2363 1.385 . S
C2367 C2366 1.374 . S
C2368 C2365 1.499 . S
C2368 C2369 1.373 . S
C2368 C2370 1.389 . S
C2369 H2348 0.950 . S
C2369 C2368 1.373 . S
C2369 C2385 1.377 1_554 S
C2370 C2368 1.389 . S
C2370 C2371 1.524 . S
C2370 C2384 1.377 1_554 S
C2371 C2370 1.524 . S
C2371 C2372 1.397 . S
C2371 C2376 1.363 . S
C2372 H2349 0.950 . S
C2372 C2371 1.397 . S
C2372 C2373 1.334 . S
C2373 H2350 0.950 . S
C2373 C2372 1.334 . S
C2373 C2374 1.287 . S
C2374 C2373 1.287 . S
C2374 C2375 1.524 . S
C2374 H2393 0.913 . S
C2375 H2351 0.950 . S
C2375 C2374 1.524 . S
C2375 C2376 1.415 . S
C2376 H2352 0.950 . S
C2376 C2371 1.363 . S
C2376 C2375 1.415 . S
C2377 H2353 0.951 . S
C2377 C2378 1.366 . S
C2377 C2379 1.388 . S
C2378 C2377 1.366 . S
C2378 C2382 1.385 . S
C2379 H2354 0.951 . S
C2379 C2377 1.388 . S
C2379 C2380 1.366 . S
C2380 C2379 1.366 . S
C2380 C2381 1.414 . S
C2380 C2383 1.499 . S
C2381 H2355 0.950 . S
C2381 C2380 1.414 . S
C2381 C2382 1.374 . S
C2382 H2356 0.950 . S
C2382 C2378 1.385 . S
C2382 C2381 1.374 . S
C2383 C2380 1.499 . S
C2383 C2384 1.373 . S
C2383 C2385 1.389 . S
C2384 H2357 0.950 . S
C2384 C2370 1.377 1_556 S
C2384 C2383 1.373 . S
C2385 C2369 1.377 1_556 S
C2385 C2383 1.389 . S
C2385 C2386 1.524 . S
C2386 C2385 1.524 . S
C2386 C2387 1.397 . S
C2386 C2391 1.363 . S
C2387 H2358 0.950 . S
C2387 C2386 1.397 . S
C2387 C2388 1.334 . S
C2388 H2359 0.950 . S
C2388 C2387 1.334 . S
C2388 C2389 1.287 . S
C2389 C2388 1.287 . S
C2389 C2390 1.524 . S
C2389 H2392 0.999 . S
C2390 H2360 0.950 . S
C2390 C2389 1.524 . S
C2390 C2391 1.415 . S
C2391 H2361 0.950 . S
C2391 C2386 1.363 . S
C2391 C2390 1.415 . S
H2392 C2389 0.999 . S
H2393 C2374 0.913 . S
H2394 C2412 0.951 . S
H2395 C2414 0.951 . S
H2396 C2416 0.950 . S
H2397 C2417 0.950 . S
H2398 C2419 0.950 . S
H2399 C2422 0.950 . S
H2400 C2423 0.950 . S
H2401 C2425 0.950 . S
H2402 C2426 0.950 . S
H2403 C2427 0.951 . S
H2404 C2429 0.951 . S
H2405 C2431 0.950 . S
H2406 C2432 0.950 . S
H2407 C2434 0.950 . S
H2408 C2437 0.950 . S
H2409 C2438 0.950 . S
H2410 C2440 0.950 . S
H2411 C2441 0.950 . S
C2412 H2394 0.951 . S
C2412 C2413 1.366 . S
C2412 C2414 1.388 . S
C2413 C2412 1.366 . S
C2413 C2417 1.385 . S
C2414 H2395 0.951 . S
C2414 C2412 1.388 . S
C2414 C2415 1.366 . S
C2415 C2414 1.366 . S
C2415 C2416 1.414 . S
C2415 C2418 1.499 . S
C2416 H2396 0.950 . S
C2416 C2415 1.414 . S
C2416 C2417 1.374 . S
C2417 H2397 0.950 . S
C2417 C2413 1.385 . S
C2417 C2416 1.374 . S
C2418 C2415 1.499 . S
C2418 C2419 1.373 . S
C2418 C2420 1.389 . S
C2419 H2398 0.950 . S
C2419 C2418 1.373 . S
C2419 C2435 1.377 1_556 S
C2420 C2418 1.389 . S
C2420 C2421 1.524 . S
C2420 C2434 1.377 1_556 S
C2421 C2420 1.524 . S
C2421 C2422 1.397 . S
C2421 C2426 1.363 . S
C2422 H2399 0.950 . S
C2422 C2421 1.397 . S
C2422 C2423 1.334 . S
C2423 H2400 0.950 . S
C2423 C2422 1.334 . S
C2423 C2424 1.287 . S
C2424 C2423 1.287 . S
C2424 C2425 1.524 . S
C2424 H2443 0.913 . S
C2425 H2401 0.950 . S
C2425 C2424 1.524 . S
C2425 C2426 1.415 . S
C2426 H2402 0.950 . S
C2426 C2421 1.363 . S
C2426 C2425 1.415 . S
C2427 H2403 0.951 . S
C2427 C2428 1.366 . S
C2427 C2429 1.388 . S
C2428 C2427 1.366 . S
C2428 C2432 1.385 . S
C2429 H2404 0.951 . S
C2429 C2427 1.388 . S
C2429 C2430 1.366 . S
C2430 C2429 1.366 . S
C2430 C2431 1.414 . S
C2430 C2433 1.499 . S
C2431 H2405 0.950 . S
C2431 C2430 1.414 . S
C2431 C2432 1.374 . S
C2432 H2406 0.950 . S
C2432 C2428 1.385 . S
C2432 C2431 1.374 . S
C2433 C2430 1.499 . S
C2433 C2434 1.373 . S
C2433 C2435 1.389 . S
C2434 H2407 0.950 . S
C2434 C2420 1.377 1_554 S
C2434 C2433 1.373 . S
C2435 C2419 1.377 1_554 S
C2435 C2433 1.389 . S
C2435 C2436 1.524 . S
C2436 C2435 1.524 . S
C2436 C2437 1.397 . S
C2436 C2441 1.363 . S
C2437 H2408 0.950 . S
C2437 C2436 1.397 . S
C2437 C2438 1.334 . S
C2438 H2409 0.950 . S
C2438 C2437 1.334 . S
C2438 C2439 1.287 . S
C2439 C2438 1.287 . S
C2439 C2440 1.524 . S
C2439 H2442 0.999 . S
C2440 H2410 0.950 . S
C2440 C2439 1.524 . S
C2440 C2441 1.415 . S
C2441 H2411 0.950 . S
C2441 C2436 1.363 . S
C2441 C2440 1.415 . S
H2442 C2439 0.999 . S
H2443 C2424 0.913 . S
H2444 C2462 0.951 . S
H2445 C2464 0.951 . S
H2446 C2466 0.950 . S
H2447 C2467 0.950 . S
H2448 C2469 0.950 . S
H2449 C2472 0.950 . S
H2450 C2473 0.950 . S
H2451 C2475 0.950 . S
H2452 C2476 0.950 . S
H2453 C2477 0.951 . S
H2454 C2479 0.951 . S
H2455 C2481 0.950 . S
H2456 C2482 0.950 . S
H2457 C2484 0.950 . S
H2458 C2487 0.950 . S
H2459 C2488 0.950 . S
H2460 C2490 0.950 . S
H2461 C2491 0.950 . S
C2462 H2444 0.951 . S
C2462 C2463 1.366 . S
C2462 C2464 1.388 . S
C2463 C2462 1.366 . S
C2463 C2467 1.385 . S
C2464 H2445 0.951 . S
C2464 C2462 1.388 . S
C2464 C2465 1.366 . S
C2465 C2464 1.366 . S
C2465 C2466 1.414 . S
C2465 C2468 1.499 . S
C2466 H2446 0.950 . S
C2466 C2465 1.414 . S
C2466 C2467 1.374 . S
C2467 H2447 0.950 . S
C2467 C2463 1.385 . S
C2467 C2466 1.374 . S
C2468 C2465 1.499 . S
C2468 C2469 1.373 . S
C2468 C2470 1.389 . S
C2469 H2448 0.950 . S
C2469 C2468 1.373 . S
C2469 C2485 1.377 . S
C2470 C2468 1.389 . S
C2470 C2471 1.524 . S
C2470 C2484 1.377 . S
C2471 C2470 1.524 . S
C2471 C2472 1.397 . S
C2471 C2476 1.363 . S
C2472 H2449 0.950 . S
C2472 C2471 1.397 . S
C2472 C2473 1.334 . S
C2473 H2450 0.950 . S
C2473 C2472 1.334 . S
C2473 C2474 1.287 . S
C2474 C2473 1.287 . S
C2474 C2475 1.524 . S
C2474 H2493 0.913 . S
C2475 H2451 0.950 . S
C2475 C2474 1.524 . S
C2475 C2476 1.415 . S
C2476 H2452 0.950 . S
C2476 C2471 1.363 . S
C2476 C2475 1.415 . S
C2477 H2453 0.951 . S
C2477 C2478 1.366 . S
C2477 C2479 1.388 . S
C2478 C2477 1.366 . S
C2478 C2482 1.385 . S
C2479 H2454 0.951 . S
C2479 C2477 1.388 . S
C2479 C2480 1.366 . S
C2480 C2479 1.366 . S
C2480 C2481 1.414 . S
C2480 C2483 1.499 . S
C2481 H2455 0.950 . S
C2481 C2480 1.414 . S
C2481 C2482 1.374 . S
C2482 H2456 0.950 . S
C2482 C2478 1.385 . S
C2482 C2481 1.374 . S
C2483 C2480 1.499 . S
C2483 C2484 1.373 . S
C2483 C2485 1.389 . S
C2484 H2457 0.950 . S
C2484 C2470 1.377 . S
C2484 C2483 1.373 . S
C2485 C2469 1.377 . S
C2485 C2483 1.389 . S
C2485 C2486 1.524 . S
C2486 C2485 1.524 . S
C2486 C2487 1.397 . S
C2486 C2491 1.363 . S
C2487 H2458 0.950 . S
C2487 C2486 1.397 . S
C2487 C2488 1.334 . S
C2488 H2459 0.950 . S
C2488 C2487 1.334 . S
C2488 C2489 1.287 . S
C2489 C2488 1.287 . S
C2489 C2490 1.524 . S
C2489 H2492 0.999 . S
C2490 H2460 0.950 . S
C2490 C2489 1.524 . S
C2490 C2491 1.415 . S
C2491 H2461 0.950 . S
C2491 C2486 1.363 . S
C2491 C2490 1.415 . S
H2492 C2489 0.999 . S
H2493 C2474 0.913 . S
H2494 C2512 0.951 . S
H2495 C2514 0.951 . S
H2496 C2516 0.950 . S
H2497 C2517 0.950 . S
H2498 C2519 0.950 . S
H2499 C2522 0.950 . S
H2500 C2523 0.950 . S
H2501 C2525 0.950 . S
H2502 C2526 0.950 . S
H2503 C2527 0.951 . S
H2504 C2529 0.951 . S
H2505 C2531 0.950 . S
H2506 C2532 0.950 . S
H2507 C2534 0.950 . S
H2508 C2537 0.950 . S
H2509 C2538 0.950 . S
H2510 C2540 0.950 . S
H2511 C2541 0.950 . S
C2512 H2494 0.951 . S
C2512 C2513 1.366 . S
C2512 C2514 1.388 . S
C2513 C2512 1.366 . S
C2513 C2517 1.385 . S
C2514 H2495 0.951 . S
C2514 C2512 1.388 . S
C2514 C2515 1.366 . S
C2515 C2514 1.366 . S
C2515 C2516 1.414 . S
C2515 C2518 1.499 . S
C2516 H2496 0.950 . S
C2516 C2515 1.414 . S
C2516 C2517 1.374 . S
C2517 H2497 0.950 . S
C2517 C2513 1.385 . S
C2517 C2516 1.374 . S
C2518 C2515 1.499 . S
C2518 C2519 1.373 . S
C2518 C2520 1.389 . S
C2519 H2498 0.950 . S
C2519 C2518 1.373 . S
C2519 C2535 1.377 . S
C2520 C2518 1.389 . S
C2520 C2521 1.524 . S
C2520 C2534 1.377 . S
C2521 C2520 1.524 . S
C2521 C2522 1.397 . S
C2521 C2526 1.363 . S
C2522 H2499 0.950 . S
C2522 C2521 1.397 . S
C2522 C2523 1.334 . S
C2523 H2500 0.950 . S
C2523 C2522 1.334 . S
C2523 C2524 1.287 . S
C2524 C2523 1.287 . S
C2524 C2525 1.524 . S
C2524 H2543 0.913 . S
C2525 H2501 0.950 . S
C2525 C2524 1.524 . S
C2525 C2526 1.415 . S
C2526 H2502 0.950 . S
C2526 C2521 1.363 . S
C2526 C2525 1.415 . S
C2527 H2503 0.951 . S
C2527 C2528 1.366 . S
C2527 C2529 1.388 . S
C2528 C2527 1.366 . S
C2528 C2532 1.385 . S
C2529 H2504 0.951 . S
C2529 C2527 1.388 . S
C2529 C2530 1.366 . S
C2530 C2529 1.366 . S
C2530 C2531 1.414 . S
C2530 C2533 1.499 . S
C2531 H2505 0.950 . S
C2531 C2530 1.414 . S
C2531 C2532 1.374 . S
C2532 H2506 0.950 . S
C2532 C2528 1.385 . S
C2532 C2531 1.374 . S
C2533 C2530 1.499 . S
C2533 C2534 1.373 . S
C2533 C2535 1.389 . S
C2534 H2507 0.950 . S
C2534 C2520 1.377 . S
C2534 C2533 1.373 . S
C2535 C2519 1.377 . S
C2535 C2533 1.389 . S
C2535 C2536 1.524 . S
C2536 C2535 1.524 . S
C2536 C2537 1.397 . S
C2536 C2541 1.363 . S
C2537 H2508 0.950 . S
C2537 C2536 1.397 . S
C2537 C2538 1.334 . S
C2538 H2509 0.950 . S
C2538 C2537 1.334 . S
C2538 C2539 1.287 . S
C2539 C2538 1.287 . S
C2539 C2540 1.524 . S
C2539 H2542 0.999 . S
C2540 H2510 0.950 . S
C2540 C2539 1.524 . S
C2540 C2541 1.415 . S
C2541 H2511 0.950 . S
C2541 C2536 1.363 . S
C2541 C2540 1.415 . S
H2542 C2539 0.999 . S
H2543 C2524 0.913 . S
H2544 C2562 0.951 . S
H2545 C2564 0.951 . S
H2546 C2566 0.950 1_545 S
H2547 C2567 0.950 . S
H2548 C2569 0.950 . S
H2549 C2572 0.950 . S
H2550 C2573 0.950 . S
H2551 C2575 0.950 . S
H2552 C2576 0.950 . S
H2553 C2577 0.951 . S
H2554 C2579 0.951 . S
H2555 C2581 0.950 1_565 S
H2556 C2582 0.950 . S
H2557 C2584 0.950 . S
H2558 C2587 0.950 . S
H2559 C2588 0.950 . S
H2560 C2590 0.950 . S
H2561 C2591 0.950 . S
C2562 H2544 0.951 . S
C2562 C2563 1.366 . S
C2562 C2564 1.388 . S
C2563 C2562 1.366 . S
C2563 C2567 1.385 . S
C2564 H2545 0.951 . S
C2564 C2562 1.388 . S
C2564 C2565 1.366 . S
C2565 C2564 1.366 . S
C2565 C2566 1.414 . S
C2565 C2568 1.499 . S
C2566 H2546 0.950 1_565 S
C2566 C2565 1.414 . S
C2566 C2567 1.374 . S
C2567 H2547 0.950 . S
C2567 C2563 1.385 . S
C2567 C2566 1.374 . S
C2568 C2565 1.499 . S
C2568 C2569 1.373 1_565 S
C2568 C2570 1.389 . S
C2569 H2548 0.950 . S
C2569 C2568 1.373 1_545 S
C2569 C2585 1.377 1_655 S
C2570 C2568 1.389 . S
C2570 C2571 1.524 . S
C2570 C2584 1.377 1_655 S
C2571 C2570 1.524 . S
C2571 C2572 1.397 . S
C2571 C2576 1.363 1_655 S
C2572 H2549 0.950 . S
C2572 C2571 1.397 . S
C2572 C2573 1.334 . S
C2573 H2550 0.950 . S
C2573 C2572 1.334 . S
C2573 C2574 1.287 . S
C2574 C2573 1.287 . S
C2574 C2575 1.524 1_655 S
C2574 H2593 0.913 . S
C2575 H2551 0.950 . S
C2575 C2574 1.524 1_455 S
C2575 C2576 1.415 . S
C2576 H2552 0.950 . S
C2576 C2571 1.363 1_455 S
C2576 C2575 1.415 . S
C2577 H2553 0.951 . S
C2577 C2578 1.366 . S
C2577 C2579 1.388 . S
C2578 C2577 1.366 . S
C2578 C2582 1.385 . S
C2579 H2554 0.951 . S
C2579 C2577 1.388 . S
C2579 C2580 1.366 . S
C2580 C2579 1.366 . S
C2580 C2581 1.414 . S
C2580 C2583 1.499 . S
C2581 H2555 0.950 1_545 S
C2581 C2580 1.414 . S
C2581 C2582 1.374 . S
C2582 H2556 0.950 . S
C2582 C2578 1.385 . S
C2582 C2581 1.374 . S
C2583 C2580 1.499 . S
C2583 C2584 1.373 1_545 S
C2583 C2585 1.389 . S
C2584 H2557 0.950 . S
C2584 C2570 1.377 1_455 S
C2584 C2583 1.373 1_565 S
C2585 C2569 1.377 1_455 S
C2585 C2583 1.389 . S
C2585 C2586 1.524 . S
C2586 C2585 1.524 . S
C2586 C2587 1.397 . S
C2586 C2591 1.363 1_455 S
C2587 H2558 0.950 . S
C2587 C2586 1.397 . S
C2587 C2588 1.334 . S
C2588 H2559 0.950 . S
C2588 C2587 1.334 . S
C2588 C2589 1.287 . S
C2589 C2588 1.287 . S
C2589 C2590 1.524 1_455 S
C2589 H2592 0.999 . S
C2590 H2560 0.950 . S
C2590 C2589 1.524 1_655 S
C2590 C2591 1.415 . S
C2591 H2561 0.950 . S
C2591 C2586 1.363 1_655 S
C2591 C2590 1.415 . S
H2592 C2589 0.999 . S
H2593 C2574 0.913 . S
H2594 C2612 0.951 . S
H2595 C2614 0.951 1_565 S
H2596 C2616 0.950 . S
H2597 C2617 0.950 . S
H2598 C2619 0.950 . S
H2599 C2622 0.950 1_545 S
H2600 C2623 0.950 . S
H2601 C2625 0.950 . S
H2602 C2626 0.950 . S
H2603 C2627 0.951 . S
H2604 C2629 0.951 1_545 S
H2605 C2631 0.950 . S
H2606 C2632 0.950 . S
H2607 C2634 0.950 . S
H2608 C2637 0.950 1_565 S
H2609 C2638 0.950 . S
H2610 C2640 0.950 . S
H2611 C2641 0.950 . S
C2612 H2594 0.951 . S
C2612 C2613 1.366 . S
C2612 C2614 1.388 . S
C2613 C2612 1.366 . S
C2613 C2617 1.385 . S
C2614 H2595 0.951 1_545 S
C2614 C2612 1.388 . S
C2614 C2615 1.366 . S
C2615 C2614 1.366 . S
C2615 C2616 1.414 . S
C2615 C2618 1.499 . S
C2616 H2596 0.950 . S
C2616 C2615 1.414 . S
C2616 C2617 1.374 . S
C2617 H2597 0.950 . S
C2617 C2613 1.385 . S
C2617 C2616 1.374 . S
C2618 C2615 1.499 . S
C2618 C2619 1.373 . S
C2618 C2620 1.389 1_545 S
C2619 H2598 0.950 . S
C2619 C2618 1.373 . S
C2619 C2635 1.377 1_655 S
C2620 C2618 1.389 1_565 S
C2620 C2621 1.524 . S
C2620 C2634 1.377 1_655 S
C2621 C2620 1.524 . S
C2621 C2622 1.397 . S
C2621 C2626 1.363 . S
C2622 H2599 0.950 1_565 S
C2622 C2621 1.397 . S
C2622 C2623 1.334 . S
C2623 H2600 0.950 . S
C2623 C2622 1.334 . S
C2623 C2624 1.287 . S
C2624 C2623 1.287 . S
C2624 C2625 1.524 . S
C2624 H2643 0.913 . S
C2625 H2601 0.950 . S
C2625 C2624 1.524 . S
C2625 C2626 1.415 . S
C2626 H2602 0.950 . S
C2626 C2621 1.363 . S
C2626 C2625 1.415 . S
C2627 H2603 0.951 . S
C2627 C2628 1.366 . S
C2627 C2629 1.388 . S
C2628 C2627 1.366 . S
C2628 C2632 1.385 . S
C2629 H2604 0.951 1_565 S
C2629 C2627 1.388 . S
C2629 C2630 1.366 . S
C2630 C2629 1.366 . S
C2630 C2631 1.414 . S
C2630 C2633 1.499 . S
C2631 H2605 0.950 . S
C2631 C2630 1.414 . S
C2631 C2632 1.374 . S
C2632 H2606 0.950 . S
C2632 C2628 1.385 . S
C2632 C2631 1.374 . S
C2633 C2630 1.499 . S
C2633 C2634 1.373 . S
C2633 C2635 1.389 1_565 S
C2634 H2607 0.950 . S
C2634 C2620 1.377 1_455 S
C2634 C2633 1.373 . S
C2635 C2619 1.377 1_455 S
C2635 C2633 1.389 1_545 S
C2635 C2636 1.524 . S
C2636 C2635 1.524 . S
C2636 C2637 1.397 . S
C2636 C2641 1.363 . S
C2637 H2608 0.950 1_545 S
C2637 C2636 1.397 . S
C2637 C2638 1.334 . S
C2638 H2609 0.950 . S
C2638 C2637 1.334 . S
C2638 C2639 1.287 . S
C2639 C2638 1.287 . S
C2639 C2640 1.524 . S
C2639 H2642 0.999 . S
C2640 H2610 0.950 . S
C2640 C2639 1.524 . S
C2640 C2641 1.415 . S
C2641 H2611 0.950 . S
C2641 C2636 1.363 . S
C2641 C2640 1.415 . S
H2642 C2639 0.999 . S
H2643 C2624 0.913 . S
H2644 C2662 0.951 . S
H2645 C2664 0.951 1_565 S
H2646 C2666 0.950 . S
H2647 C2667 0.950 . S
H2648 C2669 0.950 . S
H2649 C2672 0.950 . S
H2650 C2673 0.950 . S
H2651 C2675 0.950 . S
H2652 C2676 0.950 . S
H2653 C2677 0.951 . S
H2654 C2679 0.951 1_545 S
H2655 C2681 0.950 . S
H2656 C2682 0.950 . S
H2657 C2684 0.950 . S
H2658 C2687 0.950 . S
H2659 C2688 0.950 . S
H2660 C2690 0.950 . S
H2661 C2691 0.950 . S
C2662 H2644 0.951 . S
C2662 C2663 1.366 . S
C2662 C2664 1.388 . S
C2663 C2662 1.366 . S
C2663 C2667 1.385 . S
C2664 H2645 0.951 1_545 S
C2664 C2662 1.388 . S
C2664 C2665 1.366 . S
C2665 C2664 1.366 . S
C2665 C2666 1.414 . S
C2665 C2668 1.499 . S
C2666 H2646 0.950 . S
C2666 C2665 1.414 . S
C2666 C2667 1.374 . S
C2667 H2647 0.950 . S
C2667 C2663 1.385 . S
C2667 C2666 1.374 . S
C2668 C2665 1.499 . S
C2668 C2669 1.373 . S
C2668 C2670 1.389 . S
C2669 H2648 0.950 . S
C2669 C2668 1.373 . S
C2669 C2685 1.377 1_445 S
C2670 C2668 1.389 . S
C2670 C2671 1.524 . S
C2670 C2684 1.377 1_445 S
C2671 C2670 1.524 . S
C2671 C2672 1.397 . S
C2671 C2676 1.363 1_545 S
C2672 H2649 0.950 . S
C2672 C2671 1.397 . S
C2672 C2673 1.334 . S
C2673 H2650 0.950 . S
C2673 C2672 1.334 . S
C2673 C2674 1.287 . S
C2674 C2673 1.287 . S
C2674 C2675 1.524 1_545 S
C2674 H2693 0.913 . S
C2675 H2651 0.950 . S
C2675 C2674 1.524 1_565 S
C2675 C2676 1.415 . S
C2676 H2652 0.950 . S
C2676 C2671 1.363 1_565 S
C2676 C2675 1.415 . S
C2677 H2653 0.951 . S
C2677 C2678 1.366 . S
C2677 C2679 1.388 . S
C2678 C2677 1.366 . S
C2678 C2682 1.385 . S
C2679 H2654 0.951 1_565 S
C2679 C2677 1.388 . S
C2679 C2680 1.366 . S
C2680 C2679 1.366 . S
C2680 C2681 1.414 . S
C2680 C2683 1.499 . S
C2681 H2655 0.950 . S
C2681 C2680 1.414 . S
C2681 C2682 1.374 . S
C2682 H2656 0.950 . S
C2682 C2678 1.385 . S
C2682 C2681 1.374 . S
C2683 C2680 1.499 . S
C2683 C2684 1.373 . S
C2683 C2685 1.389 . S
C2684 H2657 0.950 . S
C2684 C2670 1.377 1_665 S
C2684 C2683 1.373 . S
C2685 C2669 1.377 1_665 S
C2685 C2683 1.389 . S
C2685 C2686 1.524 . S
C2686 C2685 1.524 . S
C2686 C2687 1.397 . S
C2686 C2691 1.363 1_565 S
C2687 H2658 0.950 . S
C2687 C2686 1.397 . S
C2687 C2688 1.334 . S
C2688 H2659 0.950 . S
C2688 C2687 1.334 . S
C2688 C2689 1.287 . S
C2689 C2688 1.287 . S
C2689 C2690 1.524 1_565 S
C2689 H2692 0.999 . S
C2690 H2660 0.950 . S
C2690 C2689 1.524 1_545 S
C2690 C2691 1.415 . S
C2691 H2661 0.950 . S
C2691 C2686 1.363 1_545 S
C2691 C2690 1.415 . S
H2692 C2689 0.999 . S
H2693 C2674 0.913 . S
H2694 C2712 0.951 . S
H2695 C2714 0.951 1_565 S
H2696 C2716 0.950 . S
H2697 C2717 0.950 . S
H2698 C2719 0.950 . S
H2699 C2722 0.950 1_545 S
H2700 C2723 0.950 1_545 S
H2701 C2725 0.950 . S
H2702 C2726 0.950 . S
H2703 C2727 0.951 . S
H2704 C2729 0.951 1_545 S
H2705 C2731 0.950 . S
H2706 C2732 0.950 . S
H2707 C2734 0.950 . S
H2708 C2737 0.950 1_565 S
H2709 C2738 0.950 1_565 S
H2710 C2740 0.950 . S
H2711 C2741 0.950 . S
C2712 H2694 0.951 . S
C2712 C2713 1.366 . S
C2712 C2714 1.388 . S
C2713 C2712 1.366 . S
C2713 C2717 1.385 . S
C2714 H2695 0.951 1_545 S
C2714 C2712 1.388 . S
C2714 C2715 1.366 . S
C2715 C2714 1.366 . S
C2715 C2716 1.414 . S
C2715 C2718 1.499 . S
C2716 H2696 0.950 . S
C2716 C2715 1.414 . S
C2716 C2717 1.374 . S
C2717 H2697 0.950 . S
C2717 C2713 1.385 . S
C2717 C2716 1.374 . S
C2718 C2715 1.499 . S
C2718 C2719 1.373 . S
C2718 C2720 1.389 1_545 S
C2719 H2698 0.950 . S
C2719 C2718 1.373 . S
C2719 C2735 1.377 1_655 S
C2720 C2718 1.389 1_565 S
C2720 C2721 1.524 . S
C2720 C2734 1.377 1_655 S
C2721 C2720 1.524 . S
C2721 C2722 1.397 . S
C2721 C2726 1.363 . S
C2722 H2699 0.950 1_565 S
C2722 C2721 1.397 . S
C2722 C2723 1.334 . S
C2723 H2700 0.950 1_565 S
C2723 C2722 1.334 . S
C2723 C2724 1.287 . S
C2724 C2723 1.287 . S
C2724 C2725 1.524 . S
C2724 H2743 0.913 . S
C2725 H2701 0.950 . S
C2725 C2724 1.524 . S
C2725 C2726 1.415 . S
C2726 H2702 0.950 . S
C2726 C2721 1.363 . S
C2726 C2725 1.415 . S
C2727 H2703 0.951 . S
C2727 C2728 1.366 . S
C2727 C2729 1.388 . S
C2728 C2727 1.366 . S
C2728 C2732 1.385 . S
C2729 H2704 0.951 1_565 S
C2729 C2727 1.388 . S
C2729 C2730 1.366 . S
C2730 C2729 1.366 . S
C2730 C2731 1.414 . S
C2730 C2733 1.499 . S
C2731 H2705 0.950 . S
C2731 C2730 1.414 . S
C2731 C2732 1.374 . S
C2732 H2706 0.950 . S
C2732 C2728 1.385 . S
C2732 C2731 1.374 . S
C2733 C2730 1.499 . S
C2733 C2734 1.373 . S
C2733 C2735 1.389 1_565 S
C2734 H2707 0.950 . S
C2734 C2720 1.377 1_455 S
C2734 C2733 1.373 . S
C2735 C2719 1.377 1_455 S
C2735 C2733 1.389 1_545 S
C2735 C2736 1.524 . S
C2736 C2735 1.524 . S
C2736 C2737 1.397 . S
C2736 C2741 1.363 . S
C2737 H2708 0.950 1_545 S
C2737 C2736 1.397 . S
C2737 C2738 1.334 . S
C2738 H2709 0.950 1_545 S
C2738 C2737 1.334 . S
C2738 C2739 1.287 . S
C2739 C2738 1.287 . S
C2739 C2740 1.524 . S
C2739 H2742 0.999 . S
C2740 H2710 0.950 . S
C2740 C2739 1.524 . S
C2740 C2741 1.415 . S
C2741 H2711 0.950 . S
C2741 C2736 1.363 . S
C2741 C2740 1.415 . S
H2742 C2739 0.999 . S
H2743 C2724 0.913 . S
H2744 C2762 0.951 . S
H2745 C2764 0.951 . S
H2746 C2766 0.950 . S
H2747 C2767 0.950 . S
H2748 C2769 0.950 . S
H2749 C2772 0.950 . S
H2750 C2773 0.950 . S
H2751 C2775 0.950 . S
H2752 C2776 0.950 . S
H2753 C2777 0.951 . S
H2754 C2779 0.951 . S
H2755 C2781 0.950 . S
H2756 C2782 0.950 . S
H2757 C2784 0.950 . S
H2758 C2787 0.950 . S
H2759 C2788 0.950 . S
H2760 C2790 0.950 . S
H2761 C2791 0.950 . S
C2762 H2744 0.951 . S
C2762 C2763 1.366 . S
C2762 C2764 1.388 . S
C2763 C2762 1.366 . S
C2763 C2767 1.385 . S
C2764 H2745 0.951 . S
C2764 C2762 1.388 . S
C2764 C2765 1.366 . S
C2765 C2764 1.366 . S
C2765 C2766 1.414 . S
C2765 C2768 1.499 . S
C2766 H2746 0.950 . S
C2766 C2765 1.414 . S
C2766 C2767 1.374 . S
C2767 H2747 0.950 . S
C2767 C2763 1.385 . S
C2767 C2766 1.374 . S
C2768 C2765 1.499 . S
C2768 C2769 1.373 . S
C2768 C2770 1.389 . S
C2769 H2748 0.950 . S
C2769 C2768 1.373 . S
C2769 C2785 1.377 . S
C2770 C2768 1.389 . S
C2770 C2771 1.524 . S
C2770 C2784 1.377 . S
C2771 C2770 1.524 . S
C2771 C2772 1.397 . S
C2771 C2776 1.363 . S
C2772 H2749 0.950 . S
C2772 C2771 1.397 . S
C2772 C2773 1.334 . S
C2773 H2750 0.950 . S
C2773 C2772 1.334 . S
C2773 C2774 1.287 . S
C2774 C2773 1.287 . S
C2774 C2775 1.524 . S
C2774 H2793 0.913 . S
C2775 H2751 0.950 . S
C2775 C2774 1.524 . S
C2775 C2776 1.415 . S
C2776 H2752 0.950 . S
C2776 C2771 1.363 . S
C2776 C2775 1.415 . S
C2777 H2753 0.951 . S
C2777 C2778 1.366 . S
C2777 C2779 1.388 . S
C2778 C2777 1.366 . S
C2778 C2782 1.385 . S
C2779 H2754 0.951 . S
C2779 C2777 1.388 . S
C2779 C2780 1.366 . S
C2780 C2779 1.366 . S
C2780 C2781 1.414 . S
C2780 C2783 1.499 . S
C2781 H2755 0.950 . S
C2781 C2780 1.414 . S
C2781 C2782 1.374 . S
C2782 H2756 0.950 . S
C2782 C2778 1.385 . S
C2782 C2781 1.374 . S
C2783 C2780 1.499 . S
C2783 C2784 1.373 . S
C2783 C2785 1.389 . S
C2784 H2757 0.950 . S
C2784 C2770 1.377 . S
C2784 C2783 1.373 . S
C2785 C2769 1.377 . S
C2785 C2783 1.389 . S
C2785 C2786 1.524 . S
C2786 C2785 1.524 . S
C2786 C2787 1.397 . S
C2786 C2791 1.363 . S
C2787 H2758 0.950 . S
C2787 C2786 1.397 . S
C2787 C2788 1.334 . S
C2788 H2759 0.950 . S
C2788 C2787 1.334 . S
C2788 C2789 1.287 . S
C2789 C2788 1.287 . S
C2789 C2790 1.524 . S
C2789 H2792 0.999 . S
C2790 H2760 0.950 . S
C2790 C2789 1.524 . S
C2790 C2791 1.415 . S
C2791 H2761 0.950 . S
C2791 C2786 1.363 . S
C2791 C2790 1.415 . S
H2792 C2789 0.999 . S
H2793 C2774 0.913 . S
H2794 C2812 0.951 . S
H2795 C2814 0.951 . S
H2796 C2816 0.950 . S
H2797 C2817 0.950 . S
H2798 C2819 0.950 . S
H2799 C2822 0.950 . S
H2800 C2823 0.950 . S
H2801 C2825 0.950 . S
H2802 C2826 0.950 . S
H2803 C2827 0.951 . S
H2804 C2829 0.951 . S
H2805 C2831 0.950 . S
H2806 C2832 0.950 . S
H2807 C2834 0.950 . S
H2808 C2837 0.950 . S
H2809 C2838 0.950 . S
H2810 C2840 0.950 . S
H2811 C2841 0.950 . S
C2812 H2794 0.951 . S
C2812 C2813 1.366 . S
C2812 C2814 1.388 . S
C2813 C2812 1.366 . S
C2813 C2817 1.385 . S
C2814 H2795 0.951 . S
C2814 C2812 1.388 . S
C2814 C2815 1.366 . S
C2815 C2814 1.366 . S
C2815 C2816 1.414 . S
C2815 C2818 1.499 . S
C2816 H2796 0.950 . S
C2816 C2815 1.414 . S
C2816 C2817 1.374 . S
C2817 H2797 0.950 . S
C2817 C2813 1.385 . S
C2817 C2816 1.374 . S
C2818 C2815 1.499 . S
C2818 C2819 1.373 . S
C2818 C2820 1.389 . S
C2819 H2798 0.950 . S
C2819 C2818 1.373 . S
C2819 C2835 1.377 . S
C2820 C2818 1.389 . S
C2820 C2821 1.524 . S
C2820 C2834 1.377 . S
C2821 C2820 1.524 . S
C2821 C2822 1.397 . S
C2821 C2826 1.363 . S
C2822 H2799 0.950 . S
C2822 C2821 1.397 . S
C2822 C2823 1.334 . S
C2823 H2800 0.950 . S
C2823 C2822 1.334 . S
C2823 C2824 1.287 . S
C2824 C2823 1.287 . S
C2824 C2825 1.524 . S
C2824 H2843 0.913 . S
C2825 H2801 0.950 . S
C2825 C2824 1.524 . S
C2825 C2826 1.415 . S
C2826 H2802 0.950 . S
C2826 C2821 1.363 . S
C2826 C2825 1.415 . S
C2827 H2803 0.951 . S
C2827 C2828 1.366 . S
C2827 C2829 1.388 . S
C2828 C2827 1.366 . S
C2828 C2832 1.385 . S
C2829 H2804 0.951 . S
C2829 C2827 1.388 . S
C2829 C2830 1.366 . S
C2830 C2829 1.366 . S
C2830 C2831 1.414 . S
C2830 C2833 1.499 . S
C2831 H2805 0.950 . S
C2831 C2830 1.414 . S
C2831 C2832 1.374 . S
C2832 H2806 0.950 . S
C2832 C2828 1.385 . S
C2832 C2831 1.374 . S
C2833 C2830 1.499 . S
C2833 C2834 1.373 . S
C2833 C2835 1.389 . S
C2834 H2807 0.950 . S
C2834 C2820 1.377 . S
C2834 C2833 1.373 . S
C2835 C2819 1.377 . S
C2835 C2833 1.389 . S
C2835 C2836 1.524 . S
C2836 C2835 1.524 . S
C2836 C2837 1.397 . S
C2836 C2841 1.363 . S
C2837 H2808 0.950 . S
C2837 C2836 1.397 . S
C2837 C2838 1.334 . S
C2838 H2809 0.950 . S
C2838 C2837 1.334 . S
C2838 C2839 1.287 . S
C2839 C2838 1.287 . S
C2839 C2840 1.524 . S
C2839 H2842 0.999 . S
C2840 H2810 0.950 . S
C2840 C2839 1.524 . S
C2840 C2841 1.415 . S
C2841 H2811 0.950 . S
C2841 C2836 1.363 . S
C2841 C2840 1.415 . S
H2842 C2839 0.999 . S
H2843 C2824 0.913 . S
H2844 C2862 0.951 . S
H2845 C2864 0.951 . S
H2846 C2866 0.950 . S
H2847 C2867 0.950 . S
H2848 C2869 0.950 . S
H2849 C2872 0.950 . S
H2850 C2873 0.950 . S
H2851 C2875 0.950 . S
H2852 C2876 0.950 . S
H2853 C2877 0.951 . S
H2854 C2879 0.951 . S
H2855 C2881 0.950 . S
H2856 C2882 0.950 . S
H2857 C2884 0.950 . S
H2858 C2887 0.950 . S
H2859 C2888 0.950 . S
H2860 C2890 0.950 . S
H2861 C2891 0.950 . S
C2862 H2844 0.951 . S
C2862 C2863 1.366 . S
C2862 C2864 1.388 . S
C2863 C2862 1.366 . S
C2863 C2867 1.385 . S
C2864 H2845 0.951 . S
C2864 C2862 1.388 . S
C2864 C2865 1.366 . S
C2865 C2864 1.366 . S
C2865 C2866 1.414 . S
C2865 C2868 1.499 . S
C2866 H2846 0.950 . S
C2866 C2865 1.414 . S
C2866 C2867 1.374 . S
C2867 H2847 0.950 . S
C2867 C2863 1.385 . S
C2867 C2866 1.374 . S
C2868 C2865 1.499 . S
C2868 C2869 1.373 . S
C2868 C2870 1.389 . S
C2869 H2848 0.950 . S
C2869 C2868 1.373 . S
C2869 C2885 1.377 . S
C2870 C2868 1.389 . S
C2870 C2871 1.524 . S
C2870 C2884 1.377 . S
C2871 C2870 1.524 . S
C2871 C2872 1.397 . S
C2871 C2876 1.363 . S
C2872 H2849 0.950 . S
C2872 C2871 1.397 . S
C2872 C2873 1.334 . S
C2873 H2850 0.950 . S
C2873 C2872 1.334 . S
C2873 C2874 1.287 . S
C2874 C2873 1.287 . S
C2874 C2875 1.524 . S
C2874 H2893 0.913 . S
C2875 H2851 0.950 . S
C2875 C2874 1.524 . S
C2875 C2876 1.415 . S
C2876 H2852 0.950 . S
C2876 C2871 1.363 . S
C2876 C2875 1.415 . S
C2877 H2853 0.951 . S
C2877 C2878 1.366 . S
C2877 C2879 1.388 . S
C2878 C2877 1.366 . S
C2878 C2882 1.385 . S
C2879 H2854 0.951 . S
C2879 C2877 1.388 . S
C2879 C2880 1.366 . S
C2880 C2879 1.366 . S
C2880 C2881 1.414 . S
C2880 C2883 1.499 . S
C2881 H2855 0.950 . S
C2881 C2880 1.414 . S
C2881 C2882 1.374 . S
C2882 H2856 0.950 . S
C2882 C2878 1.385 . S
C2882 C2881 1.374 . S
C2883 C2880 1.499 . S
C2883 C2884 1.373 . S
C2883 C2885 1.389 . S
C2884 H2857 0.950 . S
C2884 C2870 1.377 . S
C2884 C2883 1.373 . S
C2885 C2869 1.377 . S
C2885 C2883 1.389 . S
C2885 C2886 1.524 . S
C2886 C2885 1.524 . S
C2886 C2887 1.397 . S
C2886 C2891 1.363 . S
C2887 H2858 0.950 . S
C2887 C2886 1.397 . S
C2887 C2888 1.334 . S
C2888 H2859 0.950 . S
C2888 C2887 1.334 . S
C2888 C2889 1.287 . S
C2889 C2888 1.287 . S
C2889 C2890 1.524 . S
C2889 H2892 0.999 . S
C2890 H2860 0.950 . S
C2890 C2889 1.524 . S
C2890 C2891 1.415 . S
C2891 H2861 0.950 . S
C2891 C2886 1.363 . S
C2891 C2890 1.415 . S
H2892 C2889 0.999 . S
H2893 C2874 0.913 . S
H2894 C2912 0.951 . S
H2895 C2914 0.951 . S
H2896 C2916 0.950 . S
H2897 C2917 0.950 . S
H2898 C2919 0.950 . S
H2899 C2922 0.950 . S
H2900 C2923 0.950 . S
H2901 C2925 0.950 . S
H2902 C2926 0.950 . S
H2903 C2927 0.951 . S
H2904 C2929 0.951 . S
H2905 C2931 0.950 . S
H2906 C2932 0.950 . S
H2907 C2934 0.950 . S
H2908 C2937 0.950 . S
H2909 C2938 0.950 . S
H2910 C2940 0.950 . S
H2911 C2941 0.950 . S
C2912 H2894 0.951 . S
C2912 C2913 1.366 . S
C2912 C2914 1.388 . S
C2913 C2912 1.366 . S
C2913 C2917 1.385 . S
C2914 H2895 0.951 . S
C2914 C2912 1.388 . S
C2914 C2915 1.366 . S
C2915 C2914 1.366 . S
C2915 C2916 1.414 . S
C2915 C2918 1.499 . S
C2916 H2896 0.950 . S
C2916 C2915 1.414 . S
C2916 C2917 1.374 . S
C2917 H2897 0.950 . S
C2917 C2913 1.385 . S
C2917 C2916 1.374 . S
C2918 C2915 1.499 . S
C2918 C2919 1.373 . S
C2918 C2920 1.389 . S
C2919 H2898 0.950 . S
C2919 C2918 1.373 . S
C2919 C2935 1.377 . S
C2920 C2918 1.389 . S
C2920 C2921 1.524 . S
C2920 C2934 1.377 . S
C2921 C2920 1.524 . S
C2921 C2922 1.397 . S
C2921 C2926 1.363 . S
C2922 H2899 0.950 . S
C2922 C2921 1.397 . S
C2922 C2923 1.334 . S
C2923 H2900 0.950 . S
C2923 C2922 1.334 . S
C2923 C2924 1.287 . S
C2924 C2923 1.287 . S
C2924 C2925 1.524 . S
C2924 H2943 0.913 . S
C2925 H2901 0.950 . S
C2925 C2924 1.524 . S
C2925 C2926 1.415 . S
C2926 H2902 0.950 . S
C2926 C2921 1.363 . S
C2926 C2925 1.415 . S
C2927 H2903 0.951 . S
C2927 C2928 1.366 . S
C2927 C2929 1.388 . S
C2928 C2927 1.366 . S
C2928 C2932 1.385 . S
C2929 H2904 0.951 . S
C2929 C2927 1.388 . S
C2929 C2930 1.366 . S
C2930 C2929 1.366 . S
C2930 C2931 1.414 . S
C2930 C2933 1.499 . S
C2931 H2905 0.950 . S
C2931 C2930 1.414 . S
C2931 C2932 1.374 . S
C2932 H2906 0.950 . S
C2932 C2928 1.385 . S
C2932 C2931 1.374 . S
C2933 C2930 1.499 . S
C2933 C2934 1.373 . S
C2933 C2935 1.389 . S
C2934 H2907 0.950 . S
C2934 C2920 1.377 . S
C2934 C2933 1.373 . S
C2935 C2919 1.377 . S
C2935 C2933 1.389 . S
C2935 C2936 1.524 . S
C2936 C2935 1.524 . S
C2936 C2937 1.397 . S
C2936 C2941 1.363 . S
C2937 H2908 0.950 . S
C2937 C2936 1.397 . S
C2937 C2938 1.334 . S
C2938 H2909 0.950 . S
C2938 C2937 1.334 . S
C2938 C2939 1.287 . S
C2939 C2938 1.287 . S
C2939 C2940 1.524 . S
C2939 H2942 0.999 . S
C2940 H2910 0.950 . S
C2940 C2939 1.524 . S
C2940 C2941 1.415 . S
C2941 H2911 0.950 . S
C2941 C2936 1.363 . S
C2941 C2940 1.415 . S
H2942 C2939 0.999 . S
H2943 C2924 0.913 . S
H2944 C2962 0.951 . S
H2945 C2964 0.951 . S
H2946 C2966 0.950 . S
H2947 C2967 0.950 . S
H2948 C2969 0.950 . S
H2949 C2972 0.950 . S
H2950 C2973 0.950 . S
H2951 C2975 0.950 . S
H2952 C2976 0.950 . S
H2953 C2977 0.951 . S
H2954 C2979 0.951 . S
H2955 C2981 0.950 . S
H2956 C2982 0.950 . S
H2957 C2984 0.950 . S
H2958 C2987 0.950 . S
H2959 C2988 0.950 . S
H2960 C2990 0.950 . S
H2961 C2991 0.950 . S
C2962 H2944 0.951 . S
C2962 C2963 1.366 . S
C2962 C2964 1.388 . S
C2963 C2962 1.366 . S
C2963 C2967 1.385 . S
C2964 H2945 0.951 . S
C2964 C2962 1.388 . S
C2964 C2965 1.366 . S
C2965 C2964 1.366 . S
C2965 C2966 1.414 . S
C2965 C2968 1.499 . S
C2966 H2946 0.950 . S
C2966 C2965 1.414 . S
C2966 C2967 1.374 . S
C2967 H2947 0.950 . S
C2967 C2963 1.385 . S
C2967 C2966 1.374 . S
C2968 C2965 1.499 . S
C2968 C2969 1.373 . S
C2968 C2970 1.389 . S
C2969 H2948 0.950 . S
C2969 C2968 1.373 . S
C2969 C2985 1.377 . S
C2970 C2968 1.389 . S
C2970 C2971 1.524 . S
C2970 C2984 1.377 . S
C2971 C2970 1.524 . S
C2971 C2972 1.397 . S
C2971 C2976 1.363 . S
C2972 H2949 0.950 . S
C2972 C2971 1.397 . S
C2972 C2973 1.334 . S
C2973 H2950 0.950 . S
C2973 C2972 1.334 . S
C2973 C2974 1.287 . S
C2974 C2973 1.287 . S
C2974 C2975 1.524 . S
C2974 H2993 0.913 . S
C2975 H2951 0.950 . S
C2975 C2974 1.524 . S
C2975 C2976 1.415 . S
C2976 H2952 0.950 . S
C2976 C2971 1.363 . S
C2976 C2975 1.415 . S
C2977 H2953 0.951 . S
C2977 C2978 1.366 . S
C2977 C2979 1.388 . S
C2978 C2977 1.366 . S
C2978 C2982 1.385 . S
C2979 H2954 0.951 . S
C2979 C2977 1.388 . S
C2979 C2980 1.366 . S
C2980 C2979 1.366 . S
C2980 C2981 1.414 . S
C2980 C2983 1.499 . S
C2981 H2955 0.950 . S
C2981 C2980 1.414 . S
C2981 C2982 1.374 . S
C2982 H2956 0.950 . S
C2982 C2978 1.385 . S
C2982 C2981 1.374 . S
C2983 C2980 1.499 . S
C2983 C2984 1.373 . S
C2983 C2985 1.389 . S
C2984 H2957 0.950 . S
C2984 C2970 1.377 . S
C2984 C2983 1.373 . S
C2985 C2969 1.377 . S
C2985 C2983 1.389 . S
C2985 C2986 1.524 . S
C2986 C2985 1.524 . S
C2986 C2987 1.397 . S
C2986 C2991 1.363 . S
C2987 H2958 0.950 . S
C2987 C2986 1.397 . S
C2987 C2988 1.334 . S
C2988 H2959 0.950 . S
C2988 C2987 1.334 . S
C2988 C2989 1.287 . S
C2989 C2988 1.287 . S
C2989 C2990 1.524 . S
C2989 H2992 0.999 . S
C2990 H2960 0.950 . S
C2990 C2989 1.524 . S
C2990 C2991 1.415 . S
C2991 H2961 0.950 . S
C2991 C2986 1.363 . S
C2991 C2990 1.415 . S
H2992 C2989 0.999 . S
H2993 C2974 0.913 . S
H2994 C3012 0.951 . S
H2995 C3014 0.951 . S
H2996 C3016 0.950 . S
H2997 C3017 0.950 . S
H2998 C3019 0.950 . S
H2999 C3022 0.950 . S
H3000 C3023 0.950 . S
H3001 C3025 0.950 . S
H3002 C3026 0.950 . S
H3003 C3027 0.951 . S
H3004 C3029 0.951 . S
H3005 C3031 0.950 . S
H3006 C3032 0.950 . S
H3007 C3034 0.950 . S
H3008 C3037 0.950 . S
H3009 C3038 0.950 . S
H3010 C3040 0.950 . S
H3011 C3041 0.950 . S
C3012 H2994 0.951 . S
C3012 C3013 1.366 . S
C3012 C3014 1.388 . S
C3013 C3012 1.366 . S
C3013 C3017 1.385 . S
C3014 H2995 0.951 . S
C3014 C3012 1.388 . S
C3014 C3015 1.366 . S
C3015 C3014 1.366 . S
C3015 C3016 1.414 . S
C3015 C3018 1.499 . S
C3016 H2996 0.950 . S
C3016 C3015 1.414 . S
C3016 C3017 1.374 . S
C3017 H2997 0.950 . S
C3017 C3013 1.385 . S
C3017 C3016 1.374 . S
C3018 C3015 1.499 . S
C3018 C3019 1.373 . S
C3018 C3020 1.389 . S
C3019 H2998 0.950 . S
C3019 C3018 1.373 . S
C3019 C3035 1.377 . S
C3020 C3018 1.389 . S
C3020 C3021 1.524 . S
C3020 C3034 1.377 . S
C3021 C3020 1.524 . S
C3021 C3022 1.397 . S
C3021 C3026 1.363 . S
C3022 H2999 0.950 . S
C3022 C3021 1.397 . S
C3022 C3023 1.334 . S
C3023 H3000 0.950 . S
C3023 C3022 1.334 . S
C3023 C3024 1.287 . S
C3024 C3023 1.287 . S
C3024 C3025 1.524 . S
C3024 H3043 0.913 . S
C3025 H3001 0.950 . S
C3025 C3024 1.524 . S
C3025 C3026 1.415 . S
C3026 H3002 0.950 . S
C3026 C3021 1.363 . S
C3026 C3025 1.415 . S
C3027 H3003 0.951 . S
C3027 C3028 1.366 . S
C3027 C3029 1.388 . S
C3028 C3027 1.366 . S
C3028 C3032 1.385 . S
C3029 H3004 0.951 . S
C3029 C3027 1.388 . S
C3029 C3030 1.366 . S
C3030 C3029 1.366 . S
C3030 C3031 1.414 . S
C3030 C3033 1.499 . S
C3031 H3005 0.950 . S
C3031 C3030 1.414 . S
C3031 C3032 1.374 . S
C3032 H3006 0.950 . S
C3032 C3028 1.385 . S
C3032 C3031 1.374 . S
C3033 C3030 1.499 . S
C3033 C3034 1.373 . S
C3033 C3035 1.389 . S
C3034 H3007 0.950 . S
C3034 C3020 1.377 . S
C3034 C3033 1.373 . S
C3035 C3019 1.377 . S
C3035 C3033 1.389 . S
C3035 C3036 1.524 . S
C3036 C3035 1.524 . S
C3036 C3037 1.397 . S
C3036 C3041 1.363 . S
C3037 H3008 0.950 . S
C3037 C3036 1.397 . S
C3037 C3038 1.334 . S
C3038 H3009 0.950 . S
C3038 C3037 1.334 . S
C3038 C3039 1.287 . S
C3039 C3038 1.287 . S
C3039 C3040 1.524 . S
C3039 H3042 0.999 . S
C3040 H3010 0.950 . S
C3040 C3039 1.524 . S
C3040 C3041 1.415 . S
C3041 H3011 0.950 . S
C3041 C3036 1.363 . S
C3041 C3040 1.415 . S
H3042 C3039 0.999 . S
H3043 C3024 0.913 . S
H3044 C3062 0.951 . S
H3045 C3064 0.951 . S
H3046 C3066 0.950 . S
H3047 C3067 0.950 . S
H3048 C3069 0.950 . S
H3049 C3072 0.950 . S
H3050 C3073 0.950 . S
H3051 C3075 0.950 . S
H3052 C3076 0.950 . S
H3053 C3077 0.951 . S
H3054 C3079 0.951 . S
H3055 C3081 0.950 . S
H3056 C3082 0.950 . S
H3057 C3084 0.950 . S
H3058 C3087 0.950 . S
H3059 C3088 0.950 . S
H3060 C3090 0.950 . S
H3061 C3091 0.950 . S
C3062 H3044 0.951 . S
C3062 C3063 1.366 . S
C3062 C3064 1.388 . S
C3063 C3062 1.366 . S
C3063 C3067 1.385 . S
C3064 H3045 0.951 . S
C3064 C3062 1.388 . S
C3064 C3065 1.366 . S
C3065 C3064 1.366 . S
C3065 C3066 1.414 . S
C3065 C3068 1.499 . S
C3066 H3046 0.950 . S
C3066 C3065 1.414 . S
C3066 C3067 1.374 . S
C3067 H3047 0.950 . S
C3067 C3063 1.385 . S
C3067 C3066 1.374 . S
C3068 C3065 1.499 . S
C3068 C3069 1.373 . S
C3068 C3070 1.389 . S
C3069 H3048 0.950 . S
C3069 C3068 1.373 . S
C3069 C3085 1.377 . S
C3070 C3068 1.389 . S
C3070 C3071 1.524 . S
C3070 C3084 1.377 . S
C3071 C3070 1.524 . S
C3071 C3072 1.397 . S
C3071 C3076 1.363 . S
C3072 H3049 0.950 . S
C3072 C3071 1.397 . S
C3072 C3073 1.334 . S
C3073 H3050 0.950 . S
C3073 C3072 1.334 . S
C3073 C3074 1.287 . S
C3074 C3073 1.287 . S
C3074 C3075 1.524 . S
C3074 H3093 0.913 . S
C3075 H3051 0.950 . S
C3075 C3074 1.524 . S
C3075 C3076 1.415 . S
C3076 H3052 0.950 . S
C3076 C3071 1.363 . S
C3076 C3075 1.415 . S
C3077 H3053 0.951 . S
C3077 C3078 1.366 . S
C3077 C3079 1.388 . S
C3078 C3077 1.366 . S
C3078 C3082 1.385 . S
C3079 H3054 0.951 . S
C3079 C3077 1.388 . S
C3079 C3080 1.366 . S
C3080 C3079 1.366 . S
C3080 C3081 1.414 . S
C3080 C3083 1.499 . S
C3081 H3055 0.950 . S
C3081 C3080 1.414 . S
C3081 C3082 1.374 . S
C3082 H3056 0.950 . S
C3082 C3078 1.385 . S
C3082 C3081 1.374 . S
C3083 C3080 1.499 . S
C3083 C3084 1.373 . S
C3083 C3085 1.389 . S
C3084 H3057 0.950 . S
C3084 C3070 1.377 . S
C3084 C3083 1.373 . S
C3085 C3069 1.377 . S
C3085 C3083 1.389 . S
C3085 C3086 1.524 . S
C3086 C3085 1.524 . S
C3086 C3087 1.397 . S
C3086 C3091 1.363 . S
C3087 H3058 0.950 . S
C3087 C3086 1.397 . S
C3087 C3088 1.334 . S
C3088 H3059 0.950 . S
C3088 C3087 1.334 . S
C3088 C3089 1.287 . S
C3089 C3088 1.287 . S
C3089 C3090 1.524 . S
C3089 H3092 0.999 . S
C3090 H3060 0.950 . S
C3090 C3089 1.524 . S
C3090 C3091 1.415 . S
C3091 H3061 0.950 . S
C3091 C3086 1.363 . S
C3091 C3090 1.415 . S
H3092 C3089 0.999 . S
H3093 C3074 0.913 . S
H3094 C3112 0.951 . S
H3095 C3114 0.951 . S
H3096 C3116 0.950 . S
H3097 C3117 0.950 . S
H3098 C3119 0.950 . S
H3099 C3122 0.950 . S
H3100 C3123 0.950 . S
H3101 C3125 0.950 . S
H3102 C3126 0.950 . S
H3103 C3127 0.951 . S
H3104 C3129 0.951 . S
H3105 C3131 0.950 . S
H3106 C3132 0.950 . S
H3107 C3134 0.950 . S
H3108 C3137 0.950 . S
H3109 C3138 0.950 . S
H3110 C3140 0.950 . S
H3111 C3141 0.950 . S
C3112 H3094 0.951 . S
C3112 C3113 1.366 . S
C3112 C3114 1.388 . S
C3113 C3112 1.366 . S
C3113 C3117 1.385 . S
C3114 H3095 0.951 . S
C3114 C3112 1.388 . S
C3114 C3115 1.366 . S
C3115 C3114 1.366 . S
C3115 C3116 1.414 . S
C3115 C3118 1.499 . S
C3116 H3096 0.950 . S
C3116 C3115 1.414 . S
C3116 C3117 1.374 . S
C3117 H3097 0.950 . S
C3117 C3113 1.385 . S
C3117 C3116 1.374 . S
C3118 C3115 1.499 . S
C3118 C3119 1.373 . S
C3118 C3120 1.389 . S
C3119 H3098 0.950 . S
C3119 C3118 1.373 . S
C3119 C3135 1.377 . S
C3120 C3118 1.389 . S
C3120 C3121 1.524 . S
C3120 C3134 1.377 . S
C3121 C3120 1.524 . S
C3121 C3122 1.397 . S
C3121 C3126 1.363 . S
C3122 H3099 0.950 . S
C3122 C3121 1.397 . S
C3122 C3123 1.334 . S
C3123 H3100 0.950 . S
C3123 C3122 1.334 . S
C3123 C3124 1.287 . S
C3124 C3123 1.287 . S
C3124 C3125 1.524 . S
C3124 H3143 0.913 . S
C3125 H3101 0.950 . S
C3125 C3124 1.524 . S
C3125 C3126 1.415 . S
C3126 H3102 0.950 . S
C3126 C3121 1.363 . S
C3126 C3125 1.415 . S
C3127 H3103 0.951 . S
C3127 C3128 1.366 . S
C3127 C3129 1.388 . S
C3128 C3127 1.366 . S
C3128 C3132 1.385 . S
C3129 H3104 0.951 . S
C3129 C3127 1.388 . S
C3129 C3130 1.366 . S
C3130 C3129 1.366 . S
C3130 C3131 1.414 . S
C3130 C3133 1.499 . S
C3131 H3105 0.950 . S
C3131 C3130 1.414 . S
C3131 C3132 1.374 . S
C3132 H3106 0.950 . S
C3132 C3128 1.385 . S
C3132 C3131 1.374 . S
C3133 C3130 1.499 . S
C3133 C3134 1.373 . S
C3133 C3135 1.389 . S
C3134 H3107 0.950 . S
C3134 C3120 1.377 . S
C3134 C3133 1.373 . S
C3135 C3119 1.377 . S
C3135 C3133 1.389 . S
C3135 C3136 1.524 . S
C3136 C3135 1.524 . S
C3136 C3137 1.397 . S
C3136 C3141 1.363 . S
C3137 H3108 0.950 . S
C3137 C3136 1.397 . S
C3137 C3138 1.334 . S
C3138 H3109 0.950 . S
C3138 C3137 1.334 . S
C3138 C3139 1.287 . S
C3139 C3138 1.287 . S
C3139 C3140 1.524 . S
C3139 H3142 0.999 . S
C3140 H3110 0.950 . S
C3140 C3139 1.524 . S
C3140 C3141 1.415 . S
C3141 H3111 0.950 . S
C3141 C3136 1.363 . S
C3141 C3140 1.415 . S
H3142 C3139 0.999 . S
H3143 C3124 0.913 . S
H3144 C3162 0.951 . S
H3145 C3164 0.951 . S
H3146 C3166 0.950 . S
H3147 C3167 0.950 . S
H3148 C3169 0.950 . S
H3149 C3172 0.950 . S
H3150 C3173 0.950 . S
H3151 C3175 0.950 . S
H3152 C3176 0.950 . S
H3153 C3177 0.951 . S
H3154 C3179 0.951 . S
H3155 C3181 0.950 . S
H3156 C3182 0.950 . S
H3157 C3184 0.950 . S
H3158 C3187 0.950 . S
H3159 C3188 0.950 . S
H3160 C3190 0.950 . S
H3161 C3191 0.950 . S
C3162 H3144 0.951 . S
C3162 C3163 1.366 . S
C3162 C3164 1.388 . S
C3163 C3162 1.366 . S
C3163 C3167 1.385 . S
C3164 H3145 0.951 . S
C3164 C3162 1.388 . S
C3164 C3165 1.366 . S
C3165 C3164 1.366 . S
C3165 C3166 1.414 . S
C3165 C3168 1.499 . S
C3166 H3146 0.950 . S
C3166 C3165 1.414 . S
C3166 C3167 1.374 . S
C3167 H3147 0.950 . S
C3167 C3163 1.385 . S
C3167 C3166 1.374 . S
C3168 C3165 1.499 . S
C3168 C3169 1.373 . S
C3168 C3170 1.389 . S
C3169 H3148 0.950 . S
C3169 C3168 1.373 . S
C3169 C3185 1.377 . S
C3170 C3168 1.389 . S
C3170 C3171 1.524 . S
C3170 C3184 1.377 . S
C3171 C3170 1.524 . S
C3171 C3172 1.397 . S
C3171 C3176 1.363 . S
C3172 H3149 0.950 . S
C3172 C3171 1.397 . S
C3172 C3173 1.334 . S
C3173 H3150 0.950 . S
C3173 C3172 1.334 . S
C3173 C3174 1.287 . S
C3174 C3173 1.287 . S
C3174 C3175 1.524 . S
C3174 H3193 0.913 . S
C3175 H3151 0.950 . S
C3175 C3174 1.524 . S
C3175 C3176 1.415 . S
C3176 H3152 0.950 . S
C3176 C3171 1.363 . S
C3176 C3175 1.415 . S
C3177 H3153 0.951 . S
C3177 C3178 1.366 . S
C3177 C3179 1.388 . S
C3178 C3177 1.366 . S
C3178 C3182 1.385 . S
C3179 H3154 0.951 . S
C3179 C3177 1.388 . S
C3179 C3180 1.366 . S
C3180 C3179 1.366 . S
C3180 C3181 1.414 . S
C3180 C3183 1.499 . S
C3181 H3155 0.950 . S
C3181 C3180 1.414 . S
C3181 C3182 1.374 . S
C3182 H3156 0.950 . S
C3182 C3178 1.385 . S
C3182 C3181 1.374 . S
C3183 C3180 1.499 . S
C3183 C3184 1.373 . S
C3183 C3185 1.389 . S
C3184 H3157 0.950 . S
C3184 C3170 1.377 . S
C3184 C3183 1.373 . S
C3185 C3169 1.377 . S
C3185 C3183 1.389 . S
C3185 C3186 1.524 . S
C3186 C3185 1.524 . S
C3186 C3187 1.397 . S
C3186 C3191 1.363 . S
C3187 H3158 0.950 . S
C3187 C3186 1.397 . S
C3187 C3188 1.334 . S
C3188 H3159 0.950 . S
C3188 C3187 1.334 . S
C3188 C3189 1.287 . S
C3189 C3188 1.287 . S
C3189 C3190 1.524 . S
C3189 H3192 0.999 . S
C3190 H3160 0.950 . S
C3190 C3189 1.524 . S
C3190 C3191 1.415 . S
C3191 H3161 0.950 . S
C3191 C3186 1.363 . S
C3191 C3190 1.415 . S
H3192 C3189 0.999 . S
H3193 C3174 0.913 . S
H3194 C3212 0.951 . S
H3195 C3214 0.951 . S
H3196 C3216 0.950 . S
H3197 C3217 0.950 . S
H3198 C3219 0.950 . S
H3199 C3222 0.950 . S
H3200 C3223 0.950 . S
H3201 C3225 0.950 . S
H3202 C3226 0.950 . S
H3203 C3227 0.951 . S
H3204 C3229 0.951 . S
H3205 C3231 0.950 . S
H3206 C3232 0.950 . S
H3207 C3234 0.950 . S
H3208 C3237 0.950 . S
H3209 C3238 0.950 . S
H3210 C3240 0.950 . S
H3211 C3241 0.950 . S
C3212 H3194 0.951 . S
C3212 C3213 1.366 . S
C3212 C3214 1.388 . S
C3213 C3212 1.366 . S
C3213 C3217 1.385 . S
C3214 H3195 0.951 . S
C3214 C3212 1.388 . S
C3214 C3215 1.366 . S
C3215 C3214 1.366 . S
C3215 C3216 1.414 . S
C3215 C3218 1.499 . S
C3216 H3196 0.950 . S
C3216 C3215 1.414 . S
C3216 C3217 1.374 . S
C3217 H3197 0.950 . S
C3217 C3213 1.385 . S
C3217 C3216 1.374 . S
C3218 C3215 1.499 . S
C3218 C3219 1.373 . S
C3218 C3220 1.389 . S
C3219 H3198 0.950 . S
C3219 C3218 1.373 . S
C3219 C3235 1.377 . S
C3220 C3218 1.389 . S
C3220 C3221 1.524 . S
C3220 C3234 1.377 . S
C3221 C3220 1.524 . S
C3221 C3222 1.397 . S
C3221 C3226 1.363 . S
C3222 H3199 0.950 . S
C3222 C3221 1.397 . S
C3222 C3223 1.334 . S
C3223 H3200 0.950 . S
C3223 C3222 1.334 . S
C3223 C3224 1.287 . S
C3224 C3223 1.287 . S
C3224 C3225 1.524 . S
C3224 H3243 0.913 . S
C3225 H3201 0.950 . S
C3225 C3224 1.524 . S
C3225 C3226 1.415 . S
C3226 H3202 0.950 . S
C3226 C3221 1.363 . S
C3226 C3225 1.415 . S
C3227 H3203 0.951 . S
C3227 C3228 1.366 . S
C3227 C3229 1.388 . S
C3228 C3227 1.366 . S
C3228 C3232 1.385 . S
C3229 H3204 0.951 . S
C3229 C3227 1.388 . S
C3229 C3230 1.366 . S
C3230 C3229 1.366 . S
C3230 C3231 1.414 . S
C3230 C3233 1.499 . S
C3231 H3205 0.950 . S
C3231 C3230 1.414 . S
C3231 C3232 1.374 . S
C3232 H3206 0.950 . S
C3232 C3228 1.385 . S
C3232 C3231 1.374 . S
C3233 C3230 1.499 . S
C3233 C3234 1.373 . S
C3233 C3235 1.389 . S
C3234 H3207 0.950 . S
C3234 C3220 1.377 . S
C3234 C3233 1.373 . S
C3235 C3219 1.377 . S
C3235 C3233 1.389 . S
C3235 C3236 1.524 . S
C3236 C3235 1.524 . S
C3236 C3237 1.397 . S
C3236 C3241 1.363 . S
C3237 H3208 0.950 . S
C3237 C3236 1.397 . S
C3237 C3238 1.334 . S
C3238 H3209 0.950 . S
C3238 C3237 1.334 . S
C3238 C3239 1.287 . S
C3239 C3238 1.287 . S
C3239 C3240 1.524 . S
C3239 H3242 0.999 . S
C3240 H3210 0.950 . S
C3240 C3239 1.524 . S
C3240 C3241 1.415 . S
C3241 H3211 0.950 . S
C3241 C3236 1.363 . S
C3241 C3240 1.415 . S
H3242 C3239 0.999 . S
H3243 C3224 0.913 . S
H3244 C3262 0.951 . S
H3245 C3264 0.951 . S
H3246 C3266 0.950 . S
H3247 C3267 0.950 . S
H3248 C3269 0.950 . S
H3249 C3272 0.950 . S
H3250 C3273 0.950 . S
H3251 C3275 0.950 . S
H3252 C3276 0.950 . S
H3253 C3277 0.951 . S
H3254 C3279 0.951 . S
H3255 C3281 0.950 . S
H3256 C3282 0.950 . S
H3257 C3284 0.950 . S
H3258 C3287 0.950 . S
H3259 C3288 0.950 . S
H3260 C3290 0.950 . S
H3261 C3291 0.950 . S
C3262 H3244 0.951 . S
C3262 C3263 1.366 . S
C3262 C3264 1.388 . S
C3263 C3262 1.366 . S
C3263 C3267 1.385 . S
C3264 H3245 0.951 . S
C3264 C3262 1.388 . S
C3264 C3265 1.366 . S
C3265 C3264 1.366 . S
C3265 C3266 1.414 . S
C3265 C3268 1.499 . S
C3266 H3246 0.950 . S
C3266 C3265 1.414 . S
C3266 C3267 1.374 . S
C3267 H3247 0.950 . S
C3267 C3263 1.385 . S
C3267 C3266 1.374 . S
C3268 C3265 1.499 . S
C3268 C3269 1.373 . S
C3268 C3270 1.389 . S
C3269 H3248 0.950 . S
C3269 C3268 1.373 . S
C3269 C3285 1.377 . S
C3270 C3268 1.389 . S
C3270 C3271 1.524 . S
C3270 C3284 1.377 . S
C3271 C3270 1.524 . S
C3271 C3272 1.397 . S
C3271 C3276 1.363 . S
C3272 H3249 0.950 . S
C3272 C3271 1.397 . S
C3272 C3273 1.334 . S
C3273 H3250 0.950 . S
C3273 C3272 1.334 . S
C3273 C3274 1.287 . S
C3274 C3273 1.287 . S
C3274 C3275 1.524 . S
C3274 H3293 0.913 . S
C3275 H3251 0.950 . S
C3275 C3274 1.524 . S
C3275 C3276 1.415 . S
C3276 H3252 0.950 . S
C3276 C3271 1.363 . S
C3276 C3275 1.415 . S
C3277 H3253 0.951 . S
C3277 C3278 1.366 . S
C3277 C3279 1.388 . S
C3278 C3277 1.366 . S
C3278 C3282 1.385 . S
C3279 H3254 0.951 . S
C3279 C3277 1.388 . S
C3279 C3280 1.366 . S
C3280 C3279 1.366 . S
C3280 C3281 1.414 . S
C3280 C3283 1.499 . S
C3281 H3255 0.950 . S
C3281 C3280 1.414 . S
C3281 C3282 1.374 . S
C3282 H3256 0.950 . S
C3282 C3278 1.385 . S
C3282 C3281 1.374 . S
C3283 C3280 1.499 . S
C3283 C3284 1.373 . S
C3283 C3285 1.389 . S
C3284 H3257 0.950 . S
C3284 C3270 1.377 . S
C3284 C3283 1.373 . S
C3285 C3269 1.377 . S
C3285 C3283 1.389 . S
C3285 C3286 1.524 . S
C3286 C3285 1.524 . S
C3286 C3287 1.397 . S
C3286 C3291 1.363 . S
C3287 H3258 0.950 . S
C3287 C3286 1.397 . S
C3287 C3288 1.334 . S
C3288 H3259 0.950 . S
C3288 C3287 1.334 . S
C3288 C3289 1.287 . S
C3289 C3288 1.287 . S
C3289 C3290 1.524 . S
C3289 H3292 0.999 . S
C3290 H3260 0.950 . S
C3290 C3289 1.524 . S
C3290 C3291 1.415 . S
C3291 H3261 0.950 . S
C3291 C3286 1.363 . S
C3291 C3290 1.415 . S
H3292 C3289 0.999 . S
H3293 C3274 0.913 . S
H3294 C3312 0.951 . S
H3295 C3314 0.951 . S
H3296 C3316 0.950 . S
H3297 C3317 0.950 . S
H3298 C3319 0.950 . S
H3299 C3322 0.950 . S
H3300 C3323 0.950 . S
H3301 C3325 0.950 . S
H3302 C3326 0.950 . S
H3303 C3327 0.951 . S
H3304 C3329 0.951 . S
H3305 C3331 0.950 . S
H3306 C3332 0.950 . S
H3307 C3334 0.950 . S
H3308 C3337 0.950 . S
H3309 C3338 0.950 . S
H3310 C3340 0.950 . S
H3311 C3341 0.950 . S
C3312 H3294 0.951 . S
C3312 C3313 1.366 . S
C3312 C3314 1.388 . S
C3313 C3312 1.366 . S
C3313 C3317 1.385 . S
C3314 H3295 0.951 . S
C3314 C3312 1.388 . S
C3314 C3315 1.366 . S
C3315 C3314 1.366 . S
C3315 C3316 1.414 . S
C3315 C3318 1.499 . S
C3316 H3296 0.950 . S
C3316 C3315 1.414 . S
C3316 C3317 1.374 . S
C3317 H3297 0.950 . S
C3317 C3313 1.385 . S
C3317 C3316 1.374 . S
C3318 C3315 1.499 . S
C3318 C3319 1.373 . S
C3318 C3320 1.389 . S
C3319 H3298 0.950 . S
C3319 C3318 1.373 . S
C3319 C3335 1.377 . S
C3320 C3318 1.389 . S
C3320 C3321 1.524 . S
C3320 C3334 1.377 . S
C3321 C3320 1.524 . S
C3321 C3322 1.397 . S
C3321 C3326 1.363 . S
C3322 H3299 0.950 . S
C3322 C3321 1.397 . S
C3322 C3323 1.334 . S
C3323 H3300 0.950 . S
C3323 C3322 1.334 . S
C3323 C3324 1.287 . S
C3324 C3323 1.287 . S
C3324 C3325 1.524 . S
C3324 H3343 0.913 . S
C3325 H3301 0.950 . S
C3325 C3324 1.524 . S
C3325 C3326 1.415 . S
C3326 H3302 0.950 . S
C3326 C3321 1.363 . S
C3326 C3325 1.415 . S
C3327 H3303 0.951 . S
C3327 C3328 1.366 . S
C3327 C3329 1.388 . S
C3328 C3327 1.366 . S
C3328 C3332 1.385 . S
C3329 H3304 0.951 . S
C3329 C3327 1.388 . S
C3329 C3330 1.366 . S
C3330 C3329 1.366 . S
C3330 C3331 1.414 . S
C3330 C3333 1.499 . S
C3331 H3305 0.950 . S
C3331 C3330 1.414 . S
C3331 C3332 1.374 . S
C3332 H3306 0.950 . S
C3332 C3328 1.385 . S
C3332 C3331 1.374 . S
C3333 C3330 1.499 . S
C3333 C3334 1.373 . S
C3333 C3335 1.389 . S
C3334 H3307 0.950 . S
C3334 C3320 1.377 . S
C3334 C3333 1.373 . S
C3335 C3319 1.377 . S
C3335 C3333 1.389 . S
C3335 C3336 1.524 . S
C3336 C3335 1.524 . S
C3336 C3337 1.397 . S
C3336 C3341 1.363 . S
C3337 H3308 0.950 . S
C3337 C3336 1.397 . S
C3337 C3338 1.334 . S
C3338 H3309 0.950 . S
C3338 C3337 1.334 . S
C3338 C3339 1.287 . S
C3339 C3338 1.287 . S
C3339 C3340 1.524 . S
C3339 H3342 0.999 . S
C3340 H3310 0.950 . S
C3340 C3339 1.524 . S
C3340 C3341 1.415 . S
C3341 H3311 0.950 . S
C3341 C3336 1.363 . S
C3341 C3340 1.415 . S
H3342 C3339 0.999 . S
H3343 C3324 0.913 . S
H3344 C3362 0.951 . S
H3345 C3364 0.951 . S
H3346 C3366 0.950 . S
H3347 C3367 0.950 . S
H3348 C3369 0.950 . S
H3349 C3372 0.950 . S
H3350 C3373 0.950 . S
H3351 C3375 0.950 . S
H3352 C3376 0.950 . S
H3353 C3377 0.951 . S
H3354 C3379 0.951 . S
H3355 C3381 0.950 . S
H3356 C3382 0.950 . S
H3357 C3384 0.950 . S
H3358 C3387 0.950 . S
H3359 C3388 0.950 . S
H3360 C3390 0.950 . S
H3361 C3391 0.950 . S
C3362 H3344 0.951 . S
C3362 C3363 1.366 . S
C3362 C3364 1.388 1_565 S
C3363 C3362 1.366 . S
C3363 C3367 1.385 . S
C3364 H3345 0.951 . S
C3364 C3362 1.388 1_545 S
C3364 C3365 1.366 . S
C3365 C3364 1.366 . S
C3365 C3366 1.414 . S
C3365 C3368 1.499 . S
C3366 H3346 0.950 . S
C3366 C3365 1.414 . S
C3366 C3367 1.374 1_545 S
C3367 H3347 0.950 . S
C3367 C3363 1.385 . S
C3367 C3366 1.374 1_565 S
C3368 C3365 1.499 . S
C3368 C3369 1.373 . S
C3368 C3370 1.389 . S
C3369 H3348 0.950 . S
C3369 C3368 1.373 . S
C3369 C3385 1.377 . S
C3370 C3368 1.389 . S
C3370 C3371 1.524 . S
C3370 C3384 1.377 . S
C3371 C3370 1.524 . S
C3371 C3372 1.397 . S
C3371 C3376 1.363 . S
C3372 H3349 0.950 . S
C3372 C3371 1.397 . S
C3372 C3373 1.334 . S
C3373 H3350 0.950 . S
C3373 C3372 1.334 . S
C3373 C3374 1.287 . S
C3374 C3373 1.287 . S
C3374 C3375 1.524 . S
C3374 H3393 0.913 . S
C3375 H3351 0.950 . S
C3375 C3374 1.524 . S
C3375 C3376 1.415 . S
C3376 H3352 0.950 . S
C3376 C3371 1.363 . S
C3376 C3375 1.415 . S
C3377 H3353 0.951 . S
C3377 C3378 1.366 . S
C3377 C3379 1.388 . S
C3378 C3377 1.366 . S
C3378 C3382 1.385 . S
C3379 H3354 0.951 . S
C3379 C3377 1.388 . S
C3379 C3380 1.366 . S
C3380 C3379 1.366 . S
C3380 C3381 1.414 . S
C3380 C3383 1.499 . S
C3381 H3355 0.950 . S
C3381 C3380 1.414 . S
C3381 C3382 1.374 . S
C3382 H3356 0.950 . S
C3382 C3378 1.385 . S
C3382 C3381 1.374 . S
C3383 C3380 1.499 . S
C3383 C3384 1.373 . S
C3383 C3385 1.389 . S
C3384 H3357 0.950 . S
C3384 C3370 1.377 . S
C3384 C3383 1.373 . S
C3385 C3369 1.377 . S
C3385 C3383 1.389 . S
C3385 C3386 1.524 . S
C3386 C3385 1.524 . S
C3386 C3387 1.397 . S
C3386 C3391 1.363 . S
C3387 H3358 0.950 . S
C3387 C3386 1.397 . S
C3387 C3388 1.334 . S
C3388 H3359 0.950 . S
C3388 C3387 1.334 . S
C3388 C3389 1.287 . S
C3389 C3388 1.287 . S
C3389 C3390 1.524 . S
C3389 H3392 0.999 . S
C3390 H3360 0.950 . S
C3390 C3389 1.524 . S
C3390 C3391 1.415 . S
C3391 H3361 0.950 . S
C3391 C3386 1.363 . S
C3391 C3390 1.415 . S
H3392 C3389 0.999 . S
H3393 C3374 0.913 . S
H3394 C3412 0.951 . S
H3395 C3414 0.951 . S
H3396 C3416 0.950 . S
H3397 C3417 0.950 . S
H3398 C3419 0.950 . S
H3399 C3422 0.950 . S
H3400 C3423 0.950 . S
H3401 C3425 0.950 . S
H3402 C3426 0.950 . S
H3403 C3427 0.951 . S
H3404 C3429 0.951 . S
H3405 C3431 0.950 . S
H3406 C3432 0.950 . S
H3407 C3434 0.950 . S
H3408 C3437 0.950 . S
H3409 C3438 0.950 . S
H3410 C3440 0.950 . S
H3411 C3441 0.950 . S
C3412 H3394 0.951 . S
C3412 C3413 1.366 . S
C3412 C3414 1.388 . S
C3413 C3412 1.366 . S
C3413 C3417 1.385 . S
C3414 H3395 0.951 . S
C3414 C3412 1.388 . S
C3414 C3415 1.366 . S
C3415 C3414 1.366 . S
C3415 C3416 1.414 . S
C3415 C3418 1.499 . S
C3416 H3396 0.950 . S
C3416 C3415 1.414 . S
C3416 C3417 1.374 . S
C3417 H3397 0.950 . S
C3417 C3413 1.385 . S
C3417 C3416 1.374 . S
C3418 C3415 1.499 . S
C3418 C3419 1.373 . S
C3418 C3420 1.389 . S
C3419 H3398 0.950 . S
C3419 C3418 1.373 . S
C3419 C3435 1.377 . S
C3420 C3418 1.389 . S
C3420 C3421 1.524 . S
C3420 C3434 1.377 . S
C3421 C3420 1.524 . S
C3421 C3422 1.397 . S
C3421 C3426 1.363 . S
C3422 H3399 0.950 . S
C3422 C3421 1.397 . S
C3422 C3423 1.334 . S
C3423 H3400 0.950 . S
C3423 C3422 1.334 . S
C3423 C3424 1.287 . S
C3424 C3423 1.287 . S
C3424 C3425 1.524 . S
C3424 H3443 0.913 . S
C3425 H3401 0.950 . S
C3425 C3424 1.524 . S
C3425 C3426 1.415 . S
C3426 H3402 0.950 . S
C3426 C3421 1.363 . S
C3426 C3425 1.415 . S
C3427 H3403 0.951 . S
C3427 C3428 1.366 . S
C3427 C3429 1.388 1_545 S
C3428 C3427 1.366 . S
C3428 C3432 1.385 . S
C3429 H3404 0.951 . S
C3429 C3427 1.388 1_565 S
C3429 C3430 1.366 . S
C3430 C3429 1.366 . S
C3430 C3431 1.414 . S
C3430 C3433 1.499 . S
C3431 H3405 0.950 . S
C3431 C3430 1.414 . S
C3431 C3432 1.374 1_565 S
C3432 H3406 0.950 . S
C3432 C3428 1.385 . S
C3432 C3431 1.374 1_545 S
C3433 C3430 1.499 . S
C3433 C3434 1.373 . S
C3433 C3435 1.389 . S
C3434 H3407 0.950 . S
C3434 C3420 1.377 . S
C3434 C3433 1.373 . S
C3435 C3419 1.377 . S
C3435 C3433 1.389 . S
C3435 C3436 1.524 . S
C3436 C3435 1.524 . S
C3436 C3437 1.397 . S
C3436 C3441 1.363 . S
C3437 H3408 0.950 . S
C3437 C3436 1.397 . S
C3437 C3438 1.334 . S
C3438 H3409 0.950 . S
C3438 C3437 1.334 . S
C3438 C3439 1.287 . S
C3439 C3438 1.287 . S
C3439 C3440 1.524 . S
C3439 H3442 0.999 . S
C3440 H3410 0.950 . S
C3440 C3439 1.524 . S
C3440 C3441 1.415 . S
C3441 H3411 0.950 . S
C3441 C3436 1.363 . S
C3441 C3440 1.415 . S
H3442 C3439 0.999 . S
H3443 C3424 0.913 . S
H3444 C3462 0.951 . S
H3445 C3464 0.951 . S
H3446 C3466 0.950 . S
H3447 C3467 0.950 . S
H3448 C3469 0.950 . S
H3449 C3472 0.950 . S
H3450 C3473 0.950 . S
H3451 C3475 0.950 . S
H3452 C3476 0.950 . S
H3453 C3477 0.951 . S
H3454 C3479 0.951 . S
H3455 C3481 0.950 . S
H3456 C3482 0.950 . S
H3457 C3484 0.950 . S
H3458 C3487 0.950 . S
H3459 C3488 0.950 . S
H3460 C3490 0.950 . S
H3461 C3491 0.950 . S
C3462 H3444 0.951 . S
C3462 C3463 1.366 . S
C3462 C3464 1.388 1_545 S
C3463 C3462 1.366 . S
C3463 C3467 1.385 . S
C3464 H3445 0.951 . S
C3464 C3462 1.388 1_565 S
C3464 C3465 1.366 . S
C3465 C3464 1.366 . S
C3465 C3466 1.414 . S
C3465 C3468 1.499 . S
C3466 H3446 0.950 . S
C3466 C3465 1.414 . S
C3466 C3467 1.374 1_565 S
C3467 H3447 0.950 . S
C3467 C3463 1.385 . S
C3467 C3466 1.374 1_545 S
C3468 C3465 1.499 . S
C3468 C3469 1.373 . S
C3468 C3470 1.389 . S
C3469 H3448 0.950 . S
C3469 C3468 1.373 . S
C3469 C3485 1.377 . S
C3470 C3468 1.389 . S
C3470 C3471 1.524 . S
C3470 C3484 1.377 . S
C3471 C3470 1.524 . S
C3471 C3472 1.397 . S
C3471 C3476 1.363 . S
C3472 H3449 0.950 . S
C3472 C3471 1.397 . S
C3472 C3473 1.334 . S
C3473 H3450 0.950 . S
C3473 C3472 1.334 . S
C3473 C3474 1.287 . S
C3474 C3473 1.287 . S
C3474 C3475 1.524 . S
C3474 H3493 0.913 . S
C3475 H3451 0.950 . S
C3475 C3474 1.524 . S
C3475 C3476 1.415 . S
C3476 H3452 0.950 . S
C3476 C3471 1.363 . S
C3476 C3475 1.415 . S
C3477 H3453 0.951 . S
C3477 C3478 1.366 . S
C3477 C3479 1.388 . S
C3478 C3477 1.366 . S
C3478 C3482 1.385 . S
C3479 H3454 0.951 . S
C3479 C3477 1.388 . S
C3479 C3480 1.366 . S
C3480 C3479 1.366 . S
C3480 C3481 1.414 . S
C3480 C3483 1.499 . S
C3481 H3455 0.950 . S
C3481 C3480 1.414 . S
C3481 C3482 1.374 . S
C3482 H3456 0.950 . S
C3482 C3478 1.385 . S
C3482 C3481 1.374 . S
C3483 C3480 1.499 . S
C3483 C3484 1.373 . S
C3483 C3485 1.389 . S
C3484 H3457 0.950 . S
C3484 C3470 1.377 . S
C3484 C3483 1.373 . S
C3485 C3469 1.377 . S
C3485 C3483 1.389 . S
C3485 C3486 1.524 . S
C3486 C3485 1.524 . S
C3486 C3487 1.397 . S
C3486 C3491 1.363 . S
C3487 H3458 0.950 . S
C3487 C3486 1.397 . S
C3487 C3488 1.334 . S
C3488 H3459 0.950 . S
C3488 C3487 1.334 . S
C3488 C3489 1.287 . S
C3489 C3488 1.287 . S
C3489 C3490 1.524 . S
C3489 H3492 0.999 . S
C3490 H3460 0.950 . S
C3490 C3489 1.524 . S
C3490 C3491 1.415 . S
C3491 H3461 0.950 . S
C3491 C3486 1.363 . S
C3491 C3490 1.415 . S
H3492 C3489 0.999 . S
H3493 C3474 0.913 . S
H3494 C3512 0.951 . S
H3495 C3514 0.951 . S
H3496 C3516 0.950 . S
H3497 C3517 0.950 . S
H3498 C3519 0.950 . S
H3499 C3522 0.950 . S
H3500 C3523 0.950 . S
H3501 C3525 0.950 . S
H3502 C3526 0.950 . S
H3503 C3527 0.951 . S
H3504 C3529 0.951 . S
H3505 C3531 0.950 . S
H3506 C3532 0.950 . S
H3507 C3534 0.950 . S
H3508 C3537 0.950 . S
H3509 C3538 0.950 . S
H3510 C3540 0.950 . S
H3511 C3541 0.950 . S
C3512 H3494 0.951 . S
C3512 C3513 1.366 . S
C3512 C3514 1.388 1_565 S
C3513 C3512 1.366 . S
C3513 C3517 1.385 . S
C3514 H3495 0.951 . S
C3514 C3512 1.388 1_545 S
C3514 C3515 1.366 . S
C3515 C3514 1.366 . S
C3515 C3516 1.414 . S
C3515 C3518 1.499 . S
C3516 H3496 0.950 . S
C3516 C3515 1.414 . S
C3516 C3517 1.374 1_545 S
C3517 H3497 0.950 . S
C3517 C3513 1.385 . S
C3517 C3516 1.374 1_565 S
C3518 C3515 1.499 . S
C3518 C3519 1.373 . S
C3518 C3520 1.389 . S
C3519 H3498 0.950 . S
C3519 C3518 1.373 . S
C3519 C3535 1.377 . S
C3520 C3518 1.389 . S
C3520 C3521 1.524 . S
C3520 C3534 1.377 . S
C3521 C3520 1.524 . S
C3521 C3522 1.397 . S
C3521 C3526 1.363 . S
C3522 H3499 0.950 . S
C3522 C3521 1.397 . S
C3522 C3523 1.334 . S
C3523 H3500 0.950 . S
C3523 C3522 1.334 . S
C3523 C3524 1.287 . S
C3524 C3523 1.287 . S
C3524 C3525 1.524 . S
C3524 H3543 0.913 . S
C3525 H3501 0.950 . S
C3525 C3524 1.524 . S
C3525 C3526 1.415 . S
C3526 H3502 0.950 . S
C3526 C3521 1.363 . S
C3526 C3525 1.415 . S
C3527 H3503 0.951 . S
C3527 C3528 1.366 . S
C3527 C3529 1.388 . S
C3528 C3527 1.366 . S
C3528 C3532 1.385 . S
C3529 H3504 0.951 . S
C3529 C3527 1.388 . S
C3529 C3530 1.366 . S
C3530 C3529 1.366 . S
C3530 C3531 1.414 . S
C3530 C3533 1.499 . S
C3531 H3505 0.950 . S
C3531 C3530 1.414 . S
C3531 C3532 1.374 . S
C3532 H3506 0.950 . S
C3532 C3528 1.385 . S
C3532 C3531 1.374 . S
C3533 C3530 1.499 . S
C3533 C3534 1.373 . S
C3533 C3535 1.389 . S
C3534 H3507 0.950 . S
C3534 C3520 1.377 . S
C3534 C3533 1.373 . S
C3535 C3519 1.377 . S
C3535 C3533 1.389 . S
C3535 C3536 1.524 . S
C3536 C3535 1.524 . S
C3536 C3537 1.397 . S
C3536 C3541 1.363 . S
C3537 H3508 0.950 . S
C3537 C3536 1.397 . S
C3537 C3538 1.334 . S
C3538 H3509 0.950 . S
C3538 C3537 1.334 . S
C3538 C3539 1.287 . S
C3539 C3538 1.287 . S
C3539 C3540 1.524 . S
C3539 H3542 0.999 . S
C3540 H3510 0.950 . S
C3540 C3539 1.524 . S
C3540 C3541 1.415 . S
C3541 H3511 0.950 . S
C3541 C3536 1.363 . S
C3541 C3540 1.415 . S
H3542 C3539 0.999 . S
H3543 C3524 0.913 . S
H3544 C3562 0.951 . S
H3545 C3564 0.951 . S
H3546 C3566 0.950 . S
H3547 C3567 0.950 . S
H3548 C3569 0.950 . S
H3549 C3572 0.950 . S
H3550 C3573 0.950 . S
H3551 C3575 0.950 . S
H3552 C3576 0.950 . S
H3553 C3577 0.951 . S
H3554 C3579 0.951 . S
H3555 C3581 0.950 . S
H3556 C3582 0.950 . S
H3557 C3584 0.950 . S
H3558 C3587 0.950 . S
H3559 C3588 0.950 . S
H3560 C3590 0.950 . S
H3561 C3591 0.950 . S
C3562 H3544 0.951 . S
C3562 C3563 1.366 . S
C3562 C3564 1.388 . S
C3563 C3562 1.366 . S
C3563 C3567 1.385 . S
C3564 H3545 0.951 . S
C3564 C3562 1.388 . S
C3564 C3565 1.366 . S
C3565 C3564 1.366 . S
C3565 C3566 1.414 . S
C3565 C3568 1.499 . S
C3566 H3546 0.950 . S
C3566 C3565 1.414 . S
C3566 C3567 1.374 . S
C3567 H3547 0.950 . S
C3567 C3563 1.385 . S
C3567 C3566 1.374 . S
C3568 C3565 1.499 . S
C3568 C3569 1.373 . S
C3568 C3570 1.389 . S
C3569 H3548 0.950 . S
C3569 C3568 1.373 . S
C3569 C3585 1.377 . S
C3570 C3568 1.389 . S
C3570 C3571 1.524 . S
C3570 C3584 1.377 . S
C3571 C3570 1.524 . S
C3571 C3572 1.397 . S
C3571 C3576 1.363 . S
C3572 H3549 0.950 . S
C3572 C3571 1.397 . S
C3572 C3573 1.334 . S
C3573 H3550 0.950 . S
C3573 C3572 1.334 . S
C3573 C3574 1.287 . S
C3574 C3573 1.287 . S
C3574 C3575 1.524 . S
C3574 H3593 0.913 . S
C3575 H3551 0.950 . S
C3575 C3574 1.524 . S
C3575 C3576 1.415 . S
C3576 H3552 0.950 . S
C3576 C3571 1.363 . S
C3576 C3575 1.415 . S
C3577 H3553 0.951 . S
C3577 C3578 1.366 . S
C3577 C3579 1.388 1_545 S
C3578 C3577 1.366 . S
C3578 C3582 1.385 . S
C3579 H3554 0.951 . S
C3579 C3577 1.388 1_565 S
C3579 C3580 1.366 . S
C3580 C3579 1.366 . S
C3580 C3581 1.414 . S
C3580 C3583 1.499 . S
C3581 H3555 0.950 . S
C3581 C3580 1.414 . S
C3581 C3582 1.374 1_565 S
C3582 H3556 0.950 . S
C3582 C3578 1.385 . S
C3582 C3581 1.374 1_545 S
C3583 C3580 1.499 . S
C3583 C3584 1.373 . S
C3583 C3585 1.389 . S
C3584 H3557 0.950 . S
C3584 C3570 1.377 . S
C3584 C3583 1.373 . S
C3585 C3569 1.377 . S
C3585 C3583 1.389 . S
C3585 C3586 1.524 . S
C3586 C3585 1.524 . S
C3586 C3587 1.397 . S
C3586 C3591 1.363 . S
C3587 H3558 0.950 . S
C3587 C3586 1.397 . S
C3587 C3588 1.334 . S
C3588 H3559 0.950 . S
C3588 C3587 1.334 . S
C3588 C3589 1.287 . S
C3589 C3588 1.287 . S
C3589 C3590 1.524 . S
C3589 H3592 0.999 . S
C3590 H3560 0.950 . S
C3590 C3589 1.524 . S
C3590 C3591 1.415 . S
C3591 H3561 0.950 . S
C3591 C3586 1.363 . S
C3591 C3590 1.415 . S
H3592 C3589 0.999 . S
H3593 C3574 0.913 . S
H3594 C3612 0.951 . S
H3595 C3614 0.951 . S
H3596 C3616 0.950 . S
H3597 C3617 0.950 . S
H3598 C3619 0.950 . S
H3599 C3622 0.950 . S
H3600 C3623 0.950 . S
H3601 C3625 0.950 . S
H3602 C3626 0.950 . S
H3603 C3627 0.951 . S
H3604 C3629 0.951 . S
H3605 C3631 0.950 . S
H3606 C3632 0.950 . S
H3607 C3634 0.950 . S
H3608 C3637 0.950 . S
H3609 C3638 0.950 . S
H3610 C3640 0.950 . S
H3611 C3641 0.950 . S
C3612 H3594 0.951 . S
C3612 C3613 1.366 . S
C3612 C3614 1.388 . S
C3613 C3612 1.366 . S
C3613 C3617 1.385 . S
C3614 H3595 0.951 . S
C3614 C3612 1.388 . S
C3614 C3615 1.366 . S
C3615 C3614 1.366 . S
C3615 C3616 1.414 . S
C3615 C3618 1.499 . S
C3616 H3596 0.950 . S
C3616 C3615 1.414 . S
C3616 C3617 1.374 . S
C3617 H3597 0.950 . S
C3617 C3613 1.385 . S
C3617 C3616 1.374 . S
C3618 C3615 1.499 . S
C3618 C3619 1.373 . S
C3618 C3620 1.389 . S
C3619 H3598 0.950 . S
C3619 C3618 1.373 . S
C3619 C3635 1.377 . S
C3620 C3618 1.389 . S
C3620 C3621 1.524 . S
C3620 C3634 1.377 . S
C3621 C3620 1.524 . S
C3621 C3622 1.397 . S
C3621 C3626 1.363 . S
C3622 H3599 0.950 . S
C3622 C3621 1.397 . S
C3622 C3623 1.334 . S
C3623 H3600 0.950 . S
C3623 C3622 1.334 . S
C3623 C3624 1.287 . S
C3624 C3623 1.287 . S
C3624 C3625 1.524 . S
C3624 H3643 0.913 . S
C3625 H3601 0.950 . S
C3625 C3624 1.524 . S
C3625 C3626 1.415 . S
C3626 H3602 0.950 . S
C3626 C3621 1.363 . S
C3626 C3625 1.415 . S
C3627 H3603 0.951 . S
C3627 C3628 1.366 . S
C3627 C3629 1.388 1_565 S
C3628 C3627 1.366 . S
C3628 C3632 1.385 . S
C3629 H3604 0.951 . S
C3629 C3627 1.388 1_545 S
C3629 C3630 1.366 . S
C3630 C3629 1.366 . S
C3630 C3631 1.414 . S
C3630 C3633 1.499 . S
C3631 H3605 0.950 . S
C3631 C3630 1.414 . S
C3631 C3632 1.374 1_545 S
C3632 H3606 0.950 . S
C3632 C3628 1.385 . S
C3632 C3631 1.374 1_565 S
C3633 C3630 1.499 . S
C3633 C3634 1.373 . S
C3633 C3635 1.389 . S
C3634 H3607 0.950 . S
C3634 C3620 1.377 . S
C3634 C3633 1.373 . S
C3635 C3619 1.377 . S
C3635 C3633 1.389 . S
C3635 C3636 1.524 . S
C3636 C3635 1.524 . S
C3636 C3637 1.397 . S
C3636 C3641 1.363 . S
C3637 H3608 0.950 . S
C3637 C3636 1.397 . S
C3637 C3638 1.334 . S
C3638 H3609 0.950 . S
C3638 C3637 1.334 . S
C3638 C3639 1.287 . S
C3639 C3638 1.287 . S
C3639 C3640 1.524 . S
C3639 H3642 0.999 . S
C3640 H3610 0.950 . S
C3640 C3639 1.524 . S
C3640 C3641 1.415 . S
C3641 H3611 0.950 . S
C3641 C3636 1.363 . S
C3641 C3640 1.415 . S
H3642 C3639 0.999 . S
H3643 C3624 0.913 . S
H3644 C3662 0.951 . S
H3645 C3664 0.951 . S
H3646 C3666 0.950 . S
H3647 C3667 0.950 . S
H3648 C3669 0.950 . S
H3649 C3672 0.950 . S
H3650 C3673 0.950 . S
H3651 C3675 0.950 . S
H3652 C3676 0.950 . S
H3653 C3677 0.951 . S
H3654 C3679 0.951 . S
H3655 C3681 0.950 . S
H3656 C3682 0.950 . S
H3657 C3684 0.950 . S
H3658 C3687 0.950 . S
H3659 C3688 0.950 . S
H3660 C3690 0.950 . S
H3661 C3691 0.950 . S
C3662 H3644 0.951 . S
C3662 C3663 1.366 . S
C3662 C3664 1.388 1_565 S
C3663 C3662 1.366 . S
C3663 C3667 1.385 . S
C3664 H3645 0.951 . S
C3664 C3662 1.388 1_545 S
C3664 C3665 1.366 . S
C3665 C3664 1.366 . S
C3665 C3666 1.414 . S
C3665 C3668 1.499 . S
C3666 H3646 0.950 . S
C3666 C3665 1.414 . S
C3666 C3667 1.374 1_545 S
C3667 H3647 0.950 . S
C3667 C3663 1.385 . S
C3667 C3666 1.374 1_565 S
C3668 C3665 1.499 . S
C3668 C3669 1.373 . S
C3668 C3670 1.389 . S
C3669 H3648 0.950 . S
C3669 C3668 1.373 . S
C3669 C3685 1.377 . S
C3670 C3668 1.389 . S
C3670 C3671 1.524 . S
C3670 C3684 1.377 . S
C3671 C3670 1.524 . S
C3671 C3672 1.397 . S
C3671 C3676 1.363 . S
C3672 H3649 0.950 . S
C3672 C3671 1.397 . S
C3672 C3673 1.334 . S
C3673 H3650 0.950 . S
C3673 C3672 1.334 . S
C3673 C3674 1.287 . S
C3674 C3673 1.287 . S
C3674 C3675 1.524 . S
C3674 H3693 0.913 . S
C3675 H3651 0.950 . S
C3675 C3674 1.524 . S
C3675 C3676 1.415 . S
C3676 H3652 0.950 . S
C3676 C3671 1.363 . S
C3676 C3675 1.415 . S
C3677 H3653 0.951 . S
C3677 C3678 1.366 . S
C3677 C3679 1.388 . S
C3678 C3677 1.366 . S
C3678 C3682 1.385 . S
C3679 H3654 0.951 . S
C3679 C3677 1.388 . S
C3679 C3680 1.366 . S
C3680 C3679 1.366 . S
C3680 C3681 1.414 . S
C3680 C3683 1.499 . S
C3681 H3655 0.950 . S
C3681 C3680 1.414 . S
C3681 C3682 1.374 . S
C3682 H3656 0.950 . S
C3682 C3678 1.385 . S
C3682 C3681 1.374 . S
C3683 C3680 1.499 . S
C3683 C3684 1.373 . S
C3683 C3685 1.389 . S
C3684 H3657 0.950 . S
C3684 C3670 1.377 . S
C3684 C3683 1.373 . S
C3685 C3669 1.377 . S
C3685 C3683 1.389 . S
C3685 C3686 1.524 . S
C3686 C3685 1.524 . S
C3686 C3687 1.397 . S
C3686 C3691 1.363 . S
C3687 H3658 0.950 . S
C3687 C3686 1.397 . S
C3687 C3688 1.334 . S
C3688 H3659 0.950 . S
C3688 C3687 1.334 . S
C3688 C3689 1.287 . S
C3689 C3688 1.287 . S
C3689 C3690 1.524 . S
C3689 H3692 0.999 . S
C3690 H3660 0.950 . S
C3690 C3689 1.524 . S
C3690 C3691 1.415 . S
C3691 H3661 0.950 . S
C3691 C3686 1.363 . S
C3691 C3690 1.415 . S
H3692 C3689 0.999 . S
H3693 C3674 0.913 . S
H3694 C3712 0.951 . S
H3695 C3714 0.951 . S
H3696 C3716 0.950 . S
H3697 C3717 0.950 . S
H3698 C3719 0.950 . S
H3699 C3722 0.950 . S
H3700 C3723 0.950 . S
H3701 C3725 0.950 . S
H3702 C3726 0.950 . S
H3703 C3727 0.951 . S
H3704 C3729 0.951 . S
H3705 C3731 0.950 . S
H3706 C3732 0.950 . S
H3707 C3734 0.950 . S
H3708 C3737 0.950 . S
H3709 C3738 0.950 . S
H3710 C3740 0.950 . S
H3711 C3741 0.950 . S
C3712 H3694 0.951 . S
C3712 C3713 1.366 . S
C3712 C3714 1.388 . S
C3713 C3712 1.366 . S
C3713 C3717 1.385 . S
C3714 H3695 0.951 . S
C3714 C3712 1.388 . S
C3714 C3715 1.366 . S
C3715 C3714 1.366 . S
C3715 C3716 1.414 . S
C3715 C3718 1.499 . S
C3716 H3696 0.950 . S
C3716 C3715 1.414 . S
C3716 C3717 1.374 . S
C3717 H3697 0.950 . S
C3717 C3713 1.385 . S
C3717 C3716 1.374 . S
C3718 C3715 1.499 . S
C3718 C3719 1.373 . S
C3718 C3720 1.389 . S
C3719 H3698 0.950 . S
C3719 C3718 1.373 . S
C3719 C3735 1.377 . S
C3720 C3718 1.389 . S
C3720 C3721 1.524 . S
C3720 C3734 1.377 . S
C3721 C3720 1.524 . S
C3721 C3722 1.397 . S
C3721 C3726 1.363 . S
C3722 H3699 0.950 . S
C3722 C3721 1.397 . S
C3722 C3723 1.334 . S
C3723 H3700 0.950 . S
C3723 C3722 1.334 . S
C3723 C3724 1.287 . S
C3724 C3723 1.287 . S
C3724 C3725 1.524 . S
C3724 H3743 0.913 . S
C3725 H3701 0.950 . S
C3725 C3724 1.524 . S
C3725 C3726 1.415 . S
C3726 H3702 0.950 . S
C3726 C3721 1.363 . S
C3726 C3725 1.415 . S
C3727 H3703 0.951 . S
C3727 C3728 1.366 . S
C3727 C3729 1.388 1_545 S
C3728 C3727 1.366 . S
C3728 C3732 1.385 . S
C3729 H3704 0.951 . S
C3729 C3727 1.388 1_565 S
C3729 C3730 1.366 . S
C3730 C3729 1.366 . S
C3730 C3731 1.414 . S
C3730 C3733 1.499 . S
C3731 H3705 0.950 . S
C3731 C3730 1.414 . S
C3731 C3732 1.374 1_565 S
C3732 H3706 0.950 . S
C3732 C3728 1.385 . S
C3732 C3731 1.374 1_545 S
C3733 C3730 1.499 . S
C3733 C3734 1.373 . S
C3733 C3735 1.389 . S
C3734 H3707 0.950 . S
C3734 C3720 1.377 . S
C3734 C3733 1.373 . S
C3735 C3719 1.377 . S
C3735 C3733 1.389 . S
C3735 C3736 1.524 . S
C3736 C3735 1.524 . S
C3736 C3737 1.397 . S
C3736 C3741 1.363 . S
C3737 H3708 0.950 . S
C3737 C3736 1.397 . S
C3737 C3738 1.334 . S
C3738 H3709 0.950 . S
C3738 C3737 1.334 . S
C3738 C3739 1.287 . S
C3739 C3738 1.287 . S
C3739 C3740 1.524 . S
C3739 H3742 0.999 . S
C3740 H3710 0.950 . S
C3740 C3739 1.524 . S
C3740 C3741 1.415 . S
C3741 H3711 0.950 . S
C3741 C3736 1.363 . S
C3741 C3740 1.415 . S
H3742 C3739 0.999 . S
H3743 C3724 0.913 . S
C1363 C67 1.476 . S
C1378 C823 1.476 . S
C1413 C151 1.476 . S
C1428 C739 1.477 . S
C1463 C991 1.476 . S
C1478 C235 1.477 . S
C1513 C319 1.477 . S
C1528 C907 1.477 . S
C1563 C1148 1.476 . S
C1578 C392 1.476 . S
C1613 C1064 1.477 . S
C1628 C476 1.477 . S
C1663 C1316 1.476 . S
C1678 C560 1.476 . S
C1713 C644 1.476 . S
C1728 C1232 1.476 . S
C1763 C231 1.637 . S
C1778 C63 1.637 . S
C1813 C315 1.637 . S
C1828 C147 1.637 . S
C1863 C578 1.637 . S
C1878 C410 1.637 . S
C1913 C494 1.637 . S
C1928 C662 1.637 . S
C1963 C903 1.637 . S
C1978 C735 1.637 . S
C2013 C987 1.637 . S
C2028 C819 1.637 . S
C2063 C1082 1.637 . S
C2078 C1250 1.637 . S
C2113 C1166 1.637 . S
C2128 C1334 1.637 . S
C2163 C483 1.731 . S
C2178 C74 1.730 . S
C2213 C399 1.731 . S
C2228 C158 1.731 . S
C2263 C242 1.730 . S
C2278 C651 1.731 . S
C2313 C567 1.731 . S
C2328 C326 1.731 . S
C2363 C746 1.731 . S
C2378 C1155 1.731 . S
C2413 C1071 1.730 . S
C2428 C830 1.731 . S
C2463 C914 1.730 . S
C2478 C1323 1.731 . S
C2513 C1239 1.731 . S
C2528 C998 1.731 . S
C2563 C140 1.455 . S
C2578 C56 1.456 . S
C2613 C308 1.456 . S
C2628 C224 1.455 . S
C2663 C487 1.455 . S
C2678 C403 1.456 . S
C2713 C571 1.455 . S
C2728 C655 1.456 . S
C2763 C812 1.455 . S
C2778 C728 1.455 . S
C2813 C980 1.456 . S
C2828 C896 1.455 . S
C2863 C1075 1.456 . S
C2878 C1159 1.455 . S
C2913 C1243 1.456 . S
C2928 C1327 1.455 . S
C2963 C58 1.492 . S
C2978 C70 1.492 . S
C3013 C142 1.492 . S
C3028 C154 1.492 . S
C3063 C226 1.491 . S
C3078 C238 1.491 . S
C3113 C322 1.493 . S
C3128 C310 1.493 . S
C3163 C406 1.492 . S
C3178 C394 1.492 . S
C3213 C478 1.493 . S
C3228 C490 1.493 . S
C3263 C574 1.493 . S
C3278 C562 1.493 . S
C3313 C658 1.493 . S
C3328 C646 1.493 . S
C3363 C742 1.492 . S
C3378 C730 1.492 . S
C3413 C814 1.492 . S
C3428 C826 1.492 . S
C3463 C910 1.493 . S
C3478 C898 1.493 . S
C3513 C994 1.493 . S
C3528 C982 1.493 . S
C3563 C1078 1.492 . S
C3578 C1066 1.492 . S
C3613 C1162 1.491 . S
C3628 C1150 1.491 . S
C3663 C1234 1.492 . S
C3678 C1246 1.492 . S
C3713 C1330 1.493 . S
C3728 C1318 1.493 . S
