# Generated by pormake.
# Topology qtz, (4)-cn, num edge types: 1
# Building blocks:
#     Node 0, Type 0, BuildingBlock: UXUYUI_clean_sbu_0, # of connection points: 4
#     Node 1, Type 0, BuildingBlock: UXUYUI_clean_sbu_0, # of connection points: 4
#     Node 2, Type 0, BuildingBlock: UXUYUI_clean_sbu_0, # of connection points: 4
#     Edge 3, Type (0, 0), BuildingBlock: KIFKEQ_clean_linker_1, # of connection points: 2
#     Edge 4, Type (0, 0), BuildingBlock: KIFKEQ_clean_linker_1, # of connection points: 2
#     Edge 5, Type (0, 0), BuildingBlock: KIFKEQ_clean_linker_1, # of connection points: 2
#     Edge 6, Type (0, 0), BuildingBlock: KIFKEQ_clean_linker_1, # of connection points: 2
#     Edge 7, Type (0, 0), BuildingBlock: KIFKEQ_clean_linker_1, # of connection points: 2
#     Edge 8, Type (0, 0), BuildingBlock: KIFKEQ_clean_linker_1, # of connection points: 2
# Relax obj value: 0.181
# Max RMSD: 0.212
# Mean RMSD: 0.212
data_MOF--net-qtz--node1-UXUYUI_clean_sbu_0--edge1-KIFKEQ_clean_linker_1
_symmetry_space_group_name_H-M    P1
_symmetry_Int_Tables_number       1
_symmetry_cell_setting            triclinic
loop_
_symmetry_equiv_pos_as_xyz
'x, y, z'
_cell_length_a     34.72829
_cell_length_b     34.731882
_cell_length_c     41.617413
_cell_angle_alpha  90.006598
_cell_angle_beta   89.997494
_cell_angle_gamma 119.98905
loop_
_atom_site_label
_atom_site_type_symbol
_atom_site_fract_x
_atom_site_fract_y
_atom_site_fract_z
_atom_type_partial_charge
Li0 Li 0.02323 0.48535 0.13916 0.0
Li1 Li 0.02682 0.53714 0.18052 0.0
Li2 Li 0.96668 0.45681 0.17993 0.0
Li3 Li 0.96574 0.50902 0.14073 0.0
C4 C 0.0652 0.47343 0.18829 0.0
N5 N 0.1339 0.45507 0.19082 0.0
C6 C 0.10803 0.5068 0.19667 0.0
C7 C 0.05717 0.43061 0.18161 0.0
C8 C 0.14235 0.49687 0.19773 0.0
C9 C 0.09239 0.42203 0.18288 0.0
C10 C 0.05127 0.58766 0.12107 0.0
C11 C 0.05256 0.65679 0.11149 0.0
N12 N 0.09221 0.67279 0.09612 0.0
C13 C 0.09179 0.60461 0.10485 0.0
C14 C 0.03127 0.6138 0.12415 0.0
C15 C 0.11207 0.64779 0.09255 0.0
C16 C 0.0402 0.43895 0.09018 0.0
N17 N 0.05925 0.47302 0.11157 0.0
C18 C 0.13184 0.49239 0.09312 0.0
C19 C 0.10409 0.49972 0.11329 0.0
C20 C 0.11317 0.45766 0.07061 0.0
C21 C 0.06671 0.43069 0.06927 0.0
H22 H 0.00442 0.41853 0.08911 0.0
H23 H 0.11828 0.52706 0.13014 0.0
C24 C 0.05427 0.58248 0.23909 0.0
N25 N 0.06527 0.58522 0.2075 0.0
C26 C 0.08261 0.61532 0.2606 0.0
C27 C 0.13286 0.65339 0.21658 0.0
C28 C 0.10364 0.61972 0.19597 0.0
C29 C 0.12277 0.65124 0.24947 0.0
H30 H 0.02382 0.55424 0.24765 0.0
H31 H 0.11218 0.62069 0.17095 0.0
C32 C 0.92297 0.4072 0.12905 0.0
N33 N 0.85119 0.32219 0.12332 0.0
C34 C 0.88121 0.40079 0.12057 0.0
C35 C 0.92835 0.37041 0.13423 0.0
C36 C 0.84531 0.35752 0.11787 0.0
C37 C 0.89161 0.32769 0.13135 0.0
C38 C 0.94219 0.53179 0.20237 0.0
C39 C 0.9012 0.50727 0.21785 0.0
C40 C 0.96321 0.57818 0.20202 0.0
C41 C 0.88152 0.52957 0.23218 0.0
C42 C 0.94248 0.59926 0.21666 0.0
N43 N 0.90237 0.57472 0.23127 0.0
C44 C 0.94751 0.39126 0.22748 0.0
C45 C 0.88459 0.3899 0.20409 0.0
C46 C 0.9202 0.35581 0.24763 0.0
N47 N 0.92932 0.40746 0.2063 0.0
C48 C 0.85607 0.35415 0.22345 0.0
C49 C 0.87384 0.33687 0.24571 0.0
H50 H 0.98323 0.4062 0.22898 0.0
H51 H 0.87108 0.40404 0.18752 0.0
C52 C 0.93905 0.5297 0.08312 0.0
N53 N 0.929 0.52263 0.1149 0.0
C54 C 0.91203 0.5372 0.06221 0.0
C55 C 0.86521 0.53066 0.10726 0.0
C56 C 0.89296 0.52299 0.12723 0.0
C57 C 0.87426 0.53739 0.07417 0.0
H58 H 0.96766 0.52866 0.07394 0.0
H59 H 0.8851 0.51648 0.15241 0.0
O60 O 0.03131 0.48267 0.18671 0.0
O61 O 0.03097 0.54534 0.13313 0.0
O62 O 0.9584 0.4493 0.13214 0.0
O63 O 0.9619 0.51036 0.18831 0.0
H64 H 0.11479 0.54007 0.20204 0.0
H65 H 0.02417 0.40437 0.17529 0.0
H66 H 0.17572 0.52242 0.20398 0.0
H67 H 0.08672 0.38912 0.17754 0.0
H68 H 0.03745 0.67738 0.11375 0.0
H69 H 0.10753 0.58472 0.1019 0.0
H70 H -0.00059 0.60093 0.13582 0.0
H71 H 0.14356 0.6614 0.08012 0.0
H72 H 0.16746 0.51441 0.09454 0.0
H73 H 0.05109 0.40352 0.05227 0.0
H74 H 0.07379 0.61184 0.28581 0.0
H75 H 0.16321 0.68062 0.20685 0.0
H76 H 0.87649 0.42888 0.11635 0.0
H77 H 0.96048 0.37481 0.14063 0.0
H78 H 0.81274 0.35205 0.11151 0.0
H79 H 0.89522 0.29891 0.13551 0.0
H80 H 0.88463 0.47139 0.21867 0.0
H81 H 0.99541 0.59782 0.19096 0.0
H82 H 0.84968 0.51098 0.24406 0.0
H83 H 0.95838 0.63514 0.21652 0.0
H84 H 0.93511 0.34332 0.26449 0.0
H85 H 0.82053 0.34097 0.22164 0.0
H86 H 0.91997 0.54144 0.03684 0.0
H87 H 0.83679 0.53099 0.11766 0.0
Li88 Li 0.53912 0.02913 0.47435 0.0
Li89 Li 0.48645 0.02855 0.51377 0.0
Li90 Li 0.51096 0.97165 0.51683 0.0
Li91 Li 0.45935 0.96887 0.47554 0.0
C92 C 0.58836 0.06068 0.53452 0.0
N93 N 0.67241 0.10792 0.56106 0.0
C94 C 0.60391 0.10366 0.54631 0.0
C95 C 0.61536 0.04152 0.53668 0.0
C96 C 0.64655 0.12707 0.5595 0.0
C97 C 0.65779 0.06599 0.55005 0.0
C98 C 0.47601 0.06671 0.46152 0.0
C99 C 0.42544 0.09528 0.463 0.0
N100 N 0.4589 0.13568 0.45335 0.0
C101 C 0.50983 0.1084 0.4514 0.0
C102 C 0.43338 0.05994 0.46715 0.0
C103 C 0.50052 0.14288 0.44747 0.0
C104 C 0.57991 0.05279 0.4147 0.0
N105 N 0.58705 0.06449 0.44622 0.0
C106 C 0.6588 0.12609 0.43423 0.0
C107 C 0.62555 0.10028 0.45633 0.0
C108 C 0.65206 0.1152 0.40143 0.0
C109 C 0.6121 0.07784 0.39176 0.0
H110 H 0.54886 0.02422 0.4074 0.0
H111 H 0.6303 0.10944 0.48136 0.0
C112 C 0.44056 0.04699 0.56187 0.0
N113 N 0.47297 0.06573 0.53921 0.0
C114 C 0.43235 0.07381 0.58249 0.0
C115 C 0.49035 0.1386 0.55557 0.0
C116 C 0.49764 0.11056 0.53566 0.0
C117 C 0.45774 0.12028 0.57965 0.0
H118 H 0.42177 0.01125 0.56441 0.0
H119 H 0.52377 0.12462 0.51787 0.0
C120 C 0.53768 0.94582 0.45827 0.0
N121 N 0.58701 0.90962 0.43459 0.0
C122 C 0.51661 0.90482 0.44245 0.0
C123 C 0.5839 0.96864 0.46167 0.0
C124 C 0.54211 0.88699 0.43077 0.0
C125 C 0.60824 0.94974 0.44962 0.0
C126 C 0.4087 0.92876 0.52604 0.0
C127 C 0.4022 0.88736 0.53562 0.0
C128 C 0.372 0.93371 0.51927 0.0
C129 C 0.35894 0.85134 0.53786 0.0
C130 C 0.32927 0.89686 0.52175 0.0
N131 N 0.32368 0.85679 0.53089 0.0
C132 C 0.52883 0.94935 0.57704 0.0
C133 C 0.52599 0.90112 0.53561 0.0
C134 C 0.53509 0.92386 0.60013 0.0
N135 N 0.52413 0.93744 0.54556 0.0
C136 C 0.53256 0.87488 0.55785 0.0
C137 C 0.53657 0.88582 0.59063 0.0
H138 H 0.52682 0.97823 0.58422 0.0
H139 H 0.52109 0.89167 0.51062 0.0
C140 C 0.39294 0.94425 0.42764 0.0
N141 N 0.41107 0.92876 0.44941 0.0
C142 C 0.35929 0.91479 0.40704 0.0
C143 C 0.3632 0.85406 0.43214 0.0
C144 C 0.39689 0.88468 0.45206 0.0
C145 C 0.34433 0.86902 0.4089 0.0
H146 H 0.40532 0.97957 0.42576 0.0
H147 H 0.41227 0.87336 0.46937 0.0
O148 O 0.54656 0.03728 0.52166 0.0
O149 O 0.48456 0.03266 0.46574 0.0
O150 O 0.5131 0.96367 0.46979 0.0
O151 O 0.4508 0.96427 0.52331 0.0
H152 H 0.58341 0.11892 0.54516 0.0
H153 H 0.60368 0.008 0.52841 0.0
H154 H 0.65907 0.16044 0.56854 0.0
H155 H 0.67904 0.05157 0.55178 0.0
H156 H 0.39269 0.0906 0.46747 0.0
H157 H 0.54298 0.11418 0.44686 0.0
H158 H 0.40682 0.02782 0.47485 0.0
H159 H 0.52642 0.1754 0.43982 0.0
H160 H 0.68889 0.15504 0.44259 0.0
H161 H 0.60577 0.06818 0.36672 0.0
H162 H 0.40676 0.05839 0.60067 0.0
H163 H 0.51117 0.17424 0.55291 0.0
H164 H 0.48093 0.88686 0.43931 0.0
H165 H 0.60092 0.00079 0.47314 0.0
H166 H 0.52619 0.85519 0.41863 0.0
H167 H 0.64403 0.96706 0.45212 0.0
H168 H 0.43025 0.88299 0.54103 0.0
H169 H 0.37649 0.96558 0.51198 0.0
H170 H 0.3534 0.81904 0.54508 0.0
H171 H 0.30056 0.90013 0.51638 0.0
H172 H 0.53824 0.93349 0.62517 0.0
H173 H 0.53274 0.84538 0.54964 0.0
H174 H 0.3462 0.9279 0.3892 0.0
H175 H 0.35233 0.81908 0.43478 0.0
Li176 Li 0.48729 0.45788 0.80797 0.0
Li177 Li 0.53631 0.51013 0.84883 0.0
Li178 Li 0.45468 0.48544 0.84856 0.0
Li179 Li 0.50653 0.53778 0.80874 0.0
C180 C 0.46447 0.4082 0.8685 0.0
N181 N 0.42431 0.32429 0.89555 0.0
C182 C 0.49022 0.39276 0.88347 0.0
C183 C 0.41823 0.38117 0.86774 0.0
C184 C 0.46932 0.35018 0.89686 0.0
C185 C 0.39858 0.33882 0.88143 0.0
C186 C 0.58878 0.52182 0.79853 0.0
C187 C 0.66756 0.57313 0.80242 0.0
N188 N 0.67563 0.53999 0.79395 0.0
C189 C 0.59781 0.48833 0.78961 0.0
C190 C 0.62387 0.56466 0.80473 0.0
C191 C 0.64197 0.49817 0.78751 0.0
C192 C 0.47045 0.41408 0.74896 0.0
N193 N 0.4767 0.4097 0.78069 0.0
C194 C 0.47026 0.33888 0.7713 0.0
C195 C 0.47683 0.37313 0.79212 0.0
C196 C 0.46409 0.34254 0.7383 0.0
C197 C 0.46403 0.38076 0.72723 0.0
H198 H 0.47101 0.44382 0.74052 0.0
H199 H 0.48258 0.37063 0.81729 0.0
C200 C 0.59899 0.55628 0.89811 0.0
N201 N 0.5854 0.52326 0.87594 0.0
C202 C 0.63369 0.56477 0.91917 0.0
C203 C 0.6401 0.50559 0.89379 0.0
C204 C 0.60506 0.49799 0.87348 0.0
C205 C 0.65457 0.5391 0.9172 0.0
H206 H 0.58243 0.57554 0.89979 0.0
H207 H 0.59299 0.47136 0.85608 0.0
C208 C 0.40745 0.46054 0.78688 0.0
N209 N 0.32524 0.41363 0.75762 0.0
C210 C 0.39036 0.48295 0.76933 0.0
C211 C 0.38294 0.41422 0.78921 0.0
C212 C 0.34866 0.45867 0.75482 0.0
C213 C 0.34141 0.39112 0.77433 0.0
C214 C 0.51361 0.58757 0.85964 0.0
C215 C 0.47847 0.59406 0.86859 0.0
C216 C 0.55563 0.62431 0.85392 0.0
C217 C 0.48585 0.63734 0.8712 0.0
C218 C 0.56165 0.66705 0.85674 0.0
N219 N 0.52692 0.67263 0.86523 0.0
C220 C 0.40814 0.4659 0.90665 0.0
C221 C 0.36787 0.4703 0.8622 0.0
C222 C 0.37366 0.45861 0.92752 0.0
N223 N 0.4047 0.47175 0.87472 0.0
C224 C 0.33247 0.46275 0.88212 0.0
C225 C 0.33526 0.45734 0.91536 0.0
H226 H 0.43813 0.46779 0.91595 0.0
H227 H 0.36618 0.47587 0.83688 0.0
C228 C 0.55058 0.60512 0.76153 0.0
N229 N 0.51622 0.58663 0.7827 0.0
C230 C 0.55616 0.63998 0.74164 0.0
C231 C 0.49138 0.63641 0.76623 0.0
C232 C 0.4868 0.60141 0.7853 0.0
C233 C 0.52611 0.65591 0.7437 0.0
H234 H 0.57317 0.59229 0.7597 0.0
H235 H 0.45944 0.58566 0.80205 0.0
O236 O 0.48451 0.44992 0.85538 0.0
O237 O 0.54577 0.51271 0.80103 0.0
O238 O 0.44829 0.48394 0.80118 0.0
O239 O 0.5069 0.54546 0.85657 0.0
H240 H 0.52598 0.41331 0.88461 0.0
H241 H 0.39761 0.39283 0.85703 0.0
H242 H 0.48889 0.33773 0.90834 0.0
H243 H 0.36283 0.31756 0.88095 0.0
H244 H 0.69505 0.60606 0.80736 0.0
H245 H 0.57104 0.45504 0.78462 0.0
H246 H 0.61741 0.59098 0.81146 0.0
H247 H 0.64948 0.47254 0.78082 0.0
H248 H 0.47009 0.30987 0.78101 0.0
H249 H 0.46016 0.38544 0.70196 0.0
H250 H 0.64398 0.59099 0.93685 0.0
H251 H 0.65477 0.48453 0.89186 0.0
H252 H 0.409 0.51874 0.767 0.0
H253 H 0.39599 0.39618 0.80199 0.0
H254 H 0.33495 0.47562 0.7413 0.0
H255 H 0.32211 0.35526 0.77595 0.0
H256 H 0.44577 0.56599 0.8732 0.0
H257 H 0.58321 0.61984 0.84716 0.0
H258 H 0.45891 0.64287 0.87791 0.0
H259 H 0.59392 0.69579 0.85217 0.0
H260 H 0.37769 0.45539 0.953 0.0
H261 H 0.30338 0.46154 0.87157 0.0
H262 H 0.58302 0.65346 0.72433 0.0
H263 H 0.46782 0.64794 0.76912 0.0
H264 H 0.30302 0.40495 0.96921 0.0
H265 H 0.28625 0.4991 0.91154 0.0
H266 H 0.24665 0.40033 0.00662 0.0
H267 H 0.22936 0.49349 0.94844 0.0
H268 H 0.10201 0.4437 0.00592 0.0
H269 H 0.15276 0.43861 0.96775 0.0
H270 H 0.24101 0.45273 0.04569 0.0
H271 H 0.18996 0.45721 0.08391 0.0
C272 C 0.28738 0.42463 0.96447 0.0
C273 C 0.29927 0.45243 0.93733 0.0
C274 C 0.25501 0.42183 0.98584 0.0
C275 C 0.23357 0.44645 0.98038 0.0
C276 C 0.24481 0.47356 0.95299 0.0
C277 C 0.27739 0.47667 0.93179 0.0
C278 C 0.13189 0.44498 0.01492 0.0
C279 C 0.14216 0.45103 0.04785 0.0
C280 C 0.16108 0.44245 0.99307 0.0
C281 C 0.2009 0.44549 0.00375 0.0
C282 C 0.21042 0.44999 0.0368 0.0
C283 C 0.18143 0.45294 0.05862 0.0
H284 H 0.88242 0.33181 0.31047 0.0
H285 H 0.79778 0.26021 0.23036 0.0
H286 H 0.82993 0.27535 0.34726 0.0
H287 H 0.74569 0.20294 0.26695 0.0
H288 H 0.63771 0.14493 0.34461 0.0
H289 H 0.69281 0.19542 0.30637 0.0
H290 H 0.79763 0.20036 0.36542 0.0
H291 H 0.74222 0.15048 0.4041 0.0
C292 C 0.85296 0.30348 0.3007 0.0
C293 C 0.84399 0.30048 0.26762 0.0
C294 C 0.8229 0.27103 0.32176 0.0
C295 C 0.78337 0.23466 0.31013 0.0
C296 C 0.7753 0.23095 0.27683 0.0
C297 C 0.80517 0.26363 0.25583 0.0
C298 C 0.67249 0.15637 0.3492 0.0
C299 C 0.68569 0.14383 0.37735 0.0
C300 C 0.70414 0.18524 0.32723 0.0
C301 C 0.74975 0.20201 0.33276 0.0
C302 C 0.76286 0.18867 0.36064 0.0
C303 C 0.73116 0.16003 0.38277 0.0
H304 H 0.58874 0.84734 0.58918 0.0
H305 H 0.49006 0.85665 0.64655 0.0
H306 H 0.5885 0.79352 0.62731 0.0
H307 H 0.49019 0.80336 0.6847 0.0
H308 H 0.4587 0.66283 0.71543 0.0
H309 H 0.46435 0.72136 0.68033 0.0
H310 H 0.6075 0.78769 0.686 0.0
H311 H 0.60208 0.72968 0.72215 0.0
C312 C 0.56728 0.8381 0.61004 0.0
C313 C 0.53935 0.85607 0.61488 0.0
C314 C 0.56739 0.80762 0.63194 0.0
C315 C 0.53916 0.79417 0.65883 0.0
C316 C 0.51199 0.81289 0.66401 0.0
C317 C 0.51222 0.84366 0.64234 0.0
C318 C 0.49145 0.6902 0.70974 0.0
C319 C 0.52994 0.69162 0.72191 0.0
C320 C 0.49463 0.72367 0.68951 0.0
C321 C 0.53634 0.75915 0.68063 0.0
C322 C 0.57492 0.76051 0.69236 0.0
C323 C 0.57176 0.7272 0.71294 0.0
H324 H 0.65489 0.54994 0.98217 0.0
H325 H 0.73327 0.54218 0.90453 0.0
H326 H 0.70995 0.55453 0.02085 0.0
H327 H 0.78799 0.54607 0.94326 0.0
H328 H 0.89524 0.59185 0.02143 0.0
H329 H 0.8441 0.59699 0.98372 0.0
H330 H 0.73263 0.50029 0.03941 0.0
H331 H 0.78336 0.49425 0.07662 0.0
C332 C 0.68419 0.54983 0.97336 0.0
C333 C 0.68974 0.54554 0.94035 0.0
C334 C 0.71547 0.55205 -0.0045 0.0
C335 C 0.75311 0.55042 0.98507 0.0
C336 C 0.75945 0.54769 0.95198 0.0
C337 C 0.72797 0.54508 0.92985 0.0
C338 C 0.85982 0.57151 0.02556 0.0
C339 C 0.84348 0.5426 0.05209 0.0
C340 C 0.83059 0.57459 0.00401 0.0
C341 C 0.78442 0.54912 0.00868 0.0
C342 C 0.76808 0.52087 0.03548 0.0
C343 C 0.79723 0.51751 0.05686 0.0
H344 H 0.3429 0.79792 0.37957 0.0
H345 H 0.26989 0.86835 0.38583 0.0
H346 H 0.28853 0.74598 0.34172 0.0
H347 H 0.21652 0.8175 0.34652 0.0
H348 H 0.1049 0.6886 0.30137 0.0
H349 H 0.15763 0.74101 0.34025 0.0
H350 H 0.26604 0.74413 0.28708 0.0
H351 H 0.21337 0.6902 0.2493 0.0
C352 C 0.31513 0.80225 0.37299 0.0
C353 C 0.3107 0.83725 0.38589 0.0
C354 C 0.28427 0.7728 0.35087 0.0
C355 C 0.24831 0.77773 0.34088 0.0
C356 C 0.24365 0.81256 0.35389 0.0
C357 C 0.27452 0.842 0.37615 0.0
C358 C 0.13997 0.70024 0.29813 0.0
C359 C 0.15485 0.68506 0.27223 0.0
C360 C 0.17023 0.73069 0.32021 0.0
C361 C 0.21606 0.74664 0.31687 0.0
C362 C 0.23093 0.73203 0.29066 0.0
C363 C 0.20073 0.70154 0.2687 0.0
H364 H 0.50765 0.29515 0.73931 0.0
H365 H 0.40985 0.31062 0.68535 0.0
H366 H 0.50108 0.23882 0.70145 0.0
H367 H 0.40409 0.25471 0.64701 0.0
H368 H 0.4552 0.19628 0.56699 0.0
H369 H 0.45326 0.2481 0.60582 0.0
H370 H 0.44601 0.16224 0.68347 0.0
H371 H 0.44882 0.11092 0.64476 0.0
C372 C 0.4843 0.28617 0.71963 0.0
C373 C 0.4592 0.30742 0.71547 0.0
C374 C 0.48062 0.2539 0.69789 0.0
C375 C 0.45199 0.2423 0.67132 0.0
C376 C 0.42674 0.26332 0.66712 0.0
C377 C 0.43017 0.29542 0.68903 0.0
C378 C 0.45301 0.18845 0.59235 0.0
C379 C 0.45234 0.14965 0.60285 0.0
C380 C 0.45152 0.21789 0.61454 0.0
C381 C 0.44971 0.20929 0.64766 0.0
C382 C 0.44785 0.16992 0.65809 0.0
C383 C 0.449 0.14034 0.63592 0.0
loop_
_geom_bond_atom_site_label_1
_geom_bond_atom_site_label_2
_geom_bond_distance
_geom_bond_site_symmetry_2
_ccdc_geom_bond_type
Li0 N17 1.990 . S
Li0 O60 1.956 . S
Li0 O61 1.970 . S
Li0 O62 1.961 1_455 S
Li1 N25 1.990 . S
Li1 O60 1.970 . S
Li1 O61 1.956 . S
Li1 O63 1.961 1_455 S
Li2 N47 1.990 . S
Li2 O60 1.961 1_655 S
Li2 O62 1.956 . S
Li2 O63 1.970 . S
Li3 N53 1.990 . S
Li3 O61 1.961 1_655 S
Li3 O62 1.970 . S
Li3 O63 1.956 . S
C4 C6 1.348 . S
C4 C7 1.356 . S
C4 O60 1.325 . S
N5 C8 1.314 . S
N5 C9 1.279 . S
C6 C4 1.348 . S
C6 C8 1.353 . S
C6 H64 0.929 . S
C7 C4 1.356 . S
C7 C9 1.358 . S
C7 H65 0.930 . S
C8 N5 1.314 . S
C8 C6 1.353 . S
C8 H66 0.930 . S
C9 N5 1.279 . S
C9 C7 1.358 . S
C9 H67 0.930 . S
C10 C13 1.348 . S
C10 C14 1.356 . S
C10 O61 1.325 . S
C11 N12 1.279 . S
C11 C14 1.358 . S
C11 H68 0.930 . S
N12 C11 1.279 . S
N12 C15 1.314 . S
C13 C10 1.348 . S
C13 C15 1.353 . S
C13 H69 0.929 . S
C14 C10 1.356 . S
C14 C11 1.358 . S
C14 H70 0.930 . S
C15 N12 1.314 . S
C15 C13 1.353 . S
C15 H71 0.930 . S
C16 N17 1.314 . S
C16 C21 1.353 . S
C16 H22 0.930 . S
N17 Li0 1.990 . S
N17 C16 1.314 . S
N17 C19 1.279 . S
C18 C19 1.358 . S
C18 C20 1.356 . S
C18 H72 0.930 . S
C19 N17 1.279 . S
C19 C18 1.358 . S
C19 H23 0.930 . S
C20 C18 1.356 . S
C20 C21 1.348 . S
C21 C16 1.353 . S
C21 C20 1.348 . S
C21 H73 0.929 . S
H22 C16 0.930 . S
H23 C19 0.930 . S
C24 N25 1.314 . S
C24 C26 1.353 . S
C24 H30 0.930 . S
N25 Li1 1.990 . S
N25 C24 1.314 . S
N25 C28 1.279 . S
C26 C24 1.353 . S
C26 C29 1.348 . S
C26 H74 0.929 . S
C27 C28 1.358 . S
C27 C29 1.356 . S
C27 H75 0.930 . S
C28 N25 1.279 . S
C28 C27 1.358 . S
C28 H31 0.930 . S
C29 C26 1.348 . S
C29 C27 1.356 . S
H30 C24 0.930 . S
H31 C28 0.930 . S
C32 C34 1.348 . S
C32 C35 1.356 . S
C32 O62 1.325 . S
N33 C36 1.314 . S
N33 C37 1.279 . S
C34 C32 1.348 . S
C34 C36 1.353 . S
C34 H76 0.929 . S
C35 C32 1.356 . S
C35 C37 1.358 . S
C35 H77 0.930 . S
C36 N33 1.314 . S
C36 C34 1.353 . S
C36 H78 0.930 . S
C37 N33 1.279 . S
C37 C35 1.358 . S
C37 H79 0.930 . S
C38 C39 1.348 . S
C38 C40 1.356 . S
C38 O63 1.325 . S
C39 C38 1.348 . S
C39 C41 1.353 . S
C39 H80 0.929 . S
C40 C38 1.356 . S
C40 C42 1.358 . S
C40 H81 0.930 . S
C41 C39 1.353 . S
C41 N43 1.314 . S
C41 H82 0.930 . S
C42 C40 1.358 . S
C42 N43 1.279 . S
C42 H83 0.930 . S
N43 C41 1.314 . S
N43 C42 1.279 . S
C44 C46 1.353 . S
C44 N47 1.314 . S
C44 H50 0.930 . S
C45 N47 1.279 . S
C45 C48 1.358 . S
C45 H51 0.930 . S
C46 C44 1.353 . S
C46 C49 1.348 . S
C46 H84 0.929 . S
N47 Li2 1.990 . S
N47 C44 1.314 . S
N47 C45 1.279 . S
C48 C45 1.358 . S
C48 C49 1.356 . S
C48 H85 0.930 . S
C49 C46 1.348 . S
C49 C48 1.356 . S
H50 C44 0.930 . S
H51 C45 0.930 . S
C52 N53 1.314 . S
C52 C54 1.353 . S
C52 H58 0.930 . S
N53 Li3 1.990 . S
N53 C52 1.314 . S
N53 C56 1.279 . S
C54 C52 1.353 . S
C54 C57 1.348 . S
C54 H86 0.929 . S
C55 C56 1.358 . S
C55 C57 1.356 . S
C55 H87 0.930 . S
C56 N53 1.279 . S
C56 C55 1.358 . S
C56 H59 0.930 . S
C57 C54 1.348 . S
C57 C55 1.356 . S
H58 C52 0.930 . S
H59 C56 0.930 . S
O60 Li0 1.956 . S
O60 Li1 1.970 . S
O60 Li2 1.961 1_455 S
O60 C4 1.325 . S
O61 Li0 1.970 . S
O61 Li1 1.956 . S
O61 Li3 1.961 1_455 S
O61 C10 1.325 . S
O62 Li0 1.961 1_655 S
O62 Li2 1.956 . S
O62 Li3 1.970 . S
O62 C32 1.325 . S
O63 Li1 1.961 1_655 S
O63 Li2 1.970 . S
O63 Li3 1.956 . S
O63 C38 1.325 . S
H64 C6 0.929 . S
H65 C7 0.930 . S
H66 C8 0.930 . S
H67 C9 0.930 . S
H68 C11 0.930 . S
H69 C13 0.929 . S
H70 C14 0.930 . S
H71 C15 0.930 . S
H72 C18 0.930 . S
H73 C21 0.929 . S
H74 C26 0.929 . S
H75 C27 0.930 . S
H76 C34 0.929 . S
H77 C35 0.930 . S
H78 C36 0.930 . S
H79 C37 0.930 . S
H80 C39 0.929 . S
H81 C40 0.930 . S
H82 C41 0.930 . S
H83 C42 0.930 . S
H84 C46 0.929 . S
H85 C48 0.930 . S
H86 C54 0.929 . S
H87 C55 0.930 . S
Li88 N105 1.990 . S
Li88 O148 1.956 . S
Li88 O149 1.970 . S
Li88 O150 1.961 1_545 S
Li89 N113 1.990 . S
Li89 O148 1.970 . S
Li89 O149 1.956 . S
Li89 O151 1.961 1_545 S
Li90 N135 1.990 . S
Li90 O148 1.961 1_565 S
Li90 O150 1.956 . S
Li90 O151 1.970 . S
Li91 N141 1.990 . S
Li91 O149 1.961 1_565 S
Li91 O150 1.970 . S
Li91 O151 1.956 . S
C92 C94 1.348 . S
C92 C95 1.356 . S
C92 O148 1.325 . S
N93 C96 1.314 . S
N93 C97 1.279 . S
C94 C92 1.348 . S
C94 C96 1.353 . S
C94 H152 0.929 . S
C95 C92 1.356 . S
C95 C97 1.358 . S
C95 H153 0.930 . S
C96 N93 1.314 . S
C96 C94 1.353 . S
C96 H154 0.930 . S
C97 N93 1.279 . S
C97 C95 1.358 . S
C97 H155 0.930 . S
C98 C101 1.348 . S
C98 C102 1.356 . S
C98 O149 1.325 . S
C99 N100 1.279 . S
C99 C102 1.358 . S
C99 H156 0.930 . S
N100 C99 1.279 . S
N100 C103 1.314 . S
C101 C98 1.348 . S
C101 C103 1.353 . S
C101 H157 0.929 . S
C102 C98 1.356 . S
C102 C99 1.358 . S
C102 H158 0.930 . S
C103 N100 1.314 . S
C103 C101 1.353 . S
C103 H159 0.930 . S
C104 N105 1.314 . S
C104 C109 1.353 . S
C104 H110 0.930 . S
N105 Li88 1.990 . S
N105 C104 1.314 . S
N105 C107 1.279 . S
C106 C107 1.358 . S
C106 C108 1.356 . S
C106 H160 0.930 . S
C107 N105 1.279 . S
C107 C106 1.358 . S
C107 H111 0.930 . S
C108 C106 1.356 . S
C108 C109 1.348 . S
C109 C104 1.353 . S
C109 C108 1.348 . S
C109 H161 0.929 . S
H110 C104 0.930 . S
H111 C107 0.930 . S
C112 N113 1.314 . S
C112 C114 1.353 . S
C112 H118 0.930 . S
N113 Li89 1.990 . S
N113 C112 1.314 . S
N113 C116 1.279 . S
C114 C112 1.353 . S
C114 C117 1.348 . S
C114 H162 0.929 . S
C115 C116 1.358 . S
C115 C117 1.356 . S
C115 H163 0.930 . S
C116 N113 1.279 . S
C116 C115 1.358 . S
C116 H119 0.930 . S
C117 C114 1.348 . S
C117 C115 1.356 . S
H118 C112 0.930 . S
H119 C116 0.930 . S
C120 C122 1.348 . S
C120 C123 1.356 . S
C120 O150 1.325 . S
N121 C124 1.314 . S
N121 C125 1.279 . S
C122 C120 1.348 . S
C122 C124 1.353 . S
C122 H164 0.929 . S
C123 C120 1.356 . S
C123 C125 1.358 . S
C123 H165 0.930 . S
C124 N121 1.314 . S
C124 C122 1.353 . S
C124 H166 0.930 . S
C125 N121 1.279 . S
C125 C123 1.358 . S
C125 H167 0.930 . S
C126 C127 1.348 . S
C126 C128 1.356 . S
C126 O151 1.325 . S
C127 C126 1.348 . S
C127 C129 1.353 . S
C127 H168 0.929 . S
C128 C126 1.356 . S
C128 C130 1.358 . S
C128 H169 0.930 . S
C129 C127 1.353 . S
C129 N131 1.314 . S
C129 H170 0.930 . S
C130 C128 1.358 . S
C130 N131 1.279 . S
C130 H171 0.930 . S
N131 C129 1.314 . S
N131 C130 1.279 . S
C132 C134 1.353 . S
C132 N135 1.314 . S
C132 H138 0.930 . S
C133 N135 1.279 . S
C133 C136 1.358 . S
C133 H139 0.930 . S
C134 C132 1.353 . S
C134 C137 1.348 . S
C134 H172 0.929 . S
N135 Li90 1.990 . S
N135 C132 1.314 . S
N135 C133 1.279 . S
C136 C133 1.358 . S
C136 C137 1.356 . S
C136 H173 0.930 . S
C137 C134 1.348 . S
C137 C136 1.356 . S
H138 C132 0.930 . S
H139 C133 0.930 . S
C140 N141 1.314 . S
C140 C142 1.353 . S
C140 H146 0.930 . S
N141 Li91 1.990 . S
N141 C140 1.314 . S
N141 C144 1.279 . S
C142 C140 1.353 . S
C142 C145 1.348 . S
C142 H174 0.929 . S
C143 C144 1.358 . S
C143 C145 1.356 . S
C143 H175 0.930 . S
C144 N141 1.279 . S
C144 C143 1.358 . S
C144 H147 0.930 . S
C145 C142 1.348 . S
C145 C143 1.356 . S
H146 C140 0.930 . S
H147 C144 0.930 . S
O148 Li88 1.956 . S
O148 Li89 1.970 . S
O148 Li90 1.961 1_545 S
O148 C92 1.325 . S
O149 Li88 1.970 . S
O149 Li89 1.956 . S
O149 Li91 1.961 1_545 S
O149 C98 1.325 . S
O150 Li88 1.961 1_565 S
O150 Li90 1.956 . S
O150 Li91 1.970 . S
O150 C120 1.325 . S
O151 Li89 1.961 1_565 S
O151 Li90 1.970 . S
O151 Li91 1.956 . S
O151 C126 1.325 . S
H152 C94 0.929 . S
H153 C95 0.930 . S
H154 C96 0.930 . S
H155 C97 0.930 . S
H156 C99 0.930 . S
H157 C101 0.929 . S
H158 C102 0.930 . S
H159 C103 0.930 . S
H160 C106 0.930 . S
H161 C109 0.929 . S
H162 C114 0.929 . S
H163 C115 0.930 . S
H164 C122 0.929 . S
H165 C123 0.930 . S
H166 C124 0.930 . S
H167 C125 0.930 . S
H168 C127 0.929 . S
H169 C128 0.930 . S
H170 C129 0.930 . S
H171 C130 0.930 . S
H172 C134 0.929 . S
H173 C136 0.930 . S
H174 C142 0.929 . S
H175 C143 0.930 . S
Li176 N193 1.990 . S
Li176 O236 1.956 . S
Li176 O237 1.970 . S
Li176 O238 1.961 . S
Li177 N201 1.990 . S
Li177 O236 1.970 . S
Li177 O237 1.956 . S
Li177 O239 1.961 . S
Li178 N223 1.990 . S
Li178 O236 1.961 . S
Li178 O238 1.956 . S
Li178 O239 1.970 . S
Li179 N229 1.990 . S
Li179 O237 1.961 . S
Li179 O238 1.970 . S
Li179 O239 1.956 . S
C180 C182 1.348 . S
C180 C183 1.356 . S
C180 O236 1.325 . S
N181 C184 1.314 . S
N181 C185 1.279 . S
C182 C180 1.348 . S
C182 C184 1.353 . S
C182 H240 0.929 . S
C183 C180 1.356 . S
C183 C185 1.358 . S
C183 H241 0.930 . S
C184 N181 1.314 . S
C184 C182 1.353 . S
C184 H242 0.930 . S
C185 N181 1.279 . S
C185 C183 1.358 . S
C185 H243 0.930 . S
C186 C189 1.348 . S
C186 C190 1.356 . S
C186 O237 1.325 . S
C187 N188 1.279 . S
C187 C190 1.358 . S
C187 H244 0.930 . S
N188 C187 1.279 . S
N188 C191 1.314 . S
C189 C186 1.348 . S
C189 C191 1.353 . S
C189 H245 0.929 . S
C190 C186 1.356 . S
C190 C187 1.358 . S
C190 H246 0.930 . S
C191 N188 1.314 . S
C191 C189 1.353 . S
C191 H247 0.930 . S
C192 N193 1.314 . S
C192 C197 1.353 . S
C192 H198 0.930 . S
N193 Li176 1.990 . S
N193 C192 1.314 . S
N193 C195 1.279 . S
C194 C195 1.358 . S
C194 C196 1.356 . S
C194 H248 0.930 . S
C195 N193 1.279 . S
C195 C194 1.358 . S
C195 H199 0.930 . S
C196 C194 1.356 . S
C196 C197 1.348 . S
C197 C192 1.353 . S
C197 C196 1.348 . S
C197 H249 0.929 . S
H198 C192 0.930 . S
H199 C195 0.930 . S
C200 N201 1.314 . S
C200 C202 1.353 . S
C200 H206 0.930 . S
N201 Li177 1.990 . S
N201 C200 1.314 . S
N201 C204 1.279 . S
C202 C200 1.353 . S
C202 C205 1.348 . S
C202 H250 0.929 . S
C203 C204 1.358 . S
C203 C205 1.356 . S
C203 H251 0.930 . S
C204 N201 1.279 . S
C204 C203 1.358 . S
C204 H207 0.930 . S
C205 C202 1.348 . S
C205 C203 1.356 . S
H206 C200 0.930 . S
H207 C204 0.930 . S
C208 C210 1.348 . S
C208 C211 1.356 . S
C208 O238 1.325 . S
N209 C212 1.314 . S
N209 C213 1.279 . S
C210 C208 1.348 . S
C210 C212 1.353 . S
C210 H252 0.929 . S
C211 C208 1.356 . S
C211 C213 1.358 . S
C211 H253 0.930 . S
C212 N209 1.314 . S
C212 C210 1.353 . S
C212 H254 0.930 . S
C213 N209 1.279 . S
C213 C211 1.358 . S
C213 H255 0.930 . S
C214 C215 1.348 . S
C214 C216 1.356 . S
C214 O239 1.325 . S
C215 C214 1.348 . S
C215 C217 1.353 . S
C215 H256 0.929 . S
C216 C214 1.356 . S
C216 C218 1.358 . S
C216 H257 0.930 . S
C217 C215 1.353 . S
C217 N219 1.314 . S
C217 H258 0.930 . S
C218 C216 1.358 . S
C218 N219 1.279 . S
C218 H259 0.930 . S
N219 C217 1.314 . S
N219 C218 1.279 . S
C220 C222 1.353 . S
C220 N223 1.314 . S
C220 H226 0.930 . S
C221 N223 1.279 . S
C221 C224 1.358 . S
C221 H227 0.930 . S
C222 C220 1.353 . S
C222 C225 1.348 . S
C222 H260 0.929 . S
N223 Li178 1.990 . S
N223 C220 1.314 . S
N223 C221 1.279 . S
C224 C221 1.358 . S
C224 C225 1.356 . S
C224 H261 0.930 . S
C225 C222 1.348 . S
C225 C224 1.356 . S
H226 C220 0.930 . S
H227 C221 0.930 . S
C228 N229 1.314 . S
C228 C230 1.353 . S
C228 H234 0.930 . S
N229 Li179 1.990 . S
N229 C228 1.314 . S
N229 C232 1.279 . S
C230 C228 1.353 . S
C230 C233 1.348 . S
C230 H262 0.929 . S
C231 C232 1.358 . S
C231 C233 1.356 . S
C231 H263 0.930 . S
C232 N229 1.279 . S
C232 C231 1.358 . S
C232 H235 0.930 . S
C233 C230 1.348 . S
C233 C231 1.356 . S
H234 C228 0.930 . S
H235 C232 0.930 . S
O236 Li176 1.956 . S
O236 Li177 1.970 . S
O236 Li178 1.961 . S
O236 C180 1.325 . S
O237 Li176 1.970 . S
O237 Li177 1.956 . S
O237 Li179 1.961 . S
O237 C186 1.325 . S
O238 Li176 1.961 . S
O238 Li178 1.956 . S
O238 Li179 1.970 . S
O238 C208 1.325 . S
O239 Li177 1.961 . S
O239 Li178 1.970 . S
O239 Li179 1.956 . S
O239 C214 1.325 . S
H240 C182 0.929 . S
H241 C183 0.930 . S
H242 C184 0.930 . S
H243 C185 0.930 . S
H244 C187 0.930 . S
H245 C189 0.929 . S
H246 C190 0.930 . S
H247 C191 0.930 . S
H248 C194 0.930 . S
H249 C197 0.929 . S
H250 C202 0.929 . S
H251 C203 0.930 . S
H252 C210 0.929 . S
H253 C211 0.930 . S
H254 C212 0.930 . S
H255 C213 0.930 . S
H256 C215 0.929 . S
H257 C216 0.930 . S
H258 C217 0.930 . S
H259 C218 0.930 . S
H260 C222 0.929 . S
H261 C224 0.930 . S
H262 C230 0.929 . S
H263 C231 0.930 . S
H264 C272 0.950 . S
H265 C277 0.950 . S
H266 C274 0.931 1_554 S
H267 C276 0.950 . S
H268 C278 0.950 . S
H269 C280 0.931 1_556 S
H270 C282 0.950 . S
H271 C283 0.950 . S
C272 H264 0.950 . S
C272 C273 1.386 . S
C272 C274 1.391 . S
C273 C272 1.386 . S
C273 C277 1.393 . S
C274 H266 0.931 1_556 S
C274 C272 1.391 . S
C274 C275 1.400 . S
C275 C274 1.400 . S
C275 C276 1.398 . S
C275 C281 1.491 1_556 S
C276 H267 0.950 . S
C276 C275 1.398 . S
C276 C277 1.391 . S
C277 H265 0.950 . S
C277 C273 1.393 . S
C277 C276 1.391 . S
C278 H268 0.950 . S
C278 C279 1.386 . S
C278 C280 1.391 . S
C279 C278 1.386 . S
C279 C283 1.393 . S
C280 H269 0.931 1_554 S
C280 C278 1.391 . S
C280 C281 1.400 . S
C281 C275 1.491 1_554 S
C281 C280 1.400 . S
C281 C282 1.398 . S
C282 H270 0.950 . S
C282 C281 1.398 . S
C282 C283 1.391 . S
C283 H271 0.950 . S
C283 C279 1.393 . S
C283 C282 1.391 . S
H284 C292 0.950 . S
H285 C297 0.950 . S
H286 C294 0.950 . S
H287 C296 0.950 . S
H288 C298 0.950 . S
H289 C300 0.950 . S
H290 C302 0.950 . S
H291 C303 0.950 . S
C292 H284 0.950 . S
C292 C293 1.386 . S
C292 C294 1.391 . S
C293 C292 1.386 . S
C293 C297 1.393 . S
C294 H286 0.950 . S
C294 C292 1.391 . S
C294 C295 1.400 . S
C295 C294 1.400 . S
C295 C296 1.398 . S
C295 C301 1.491 . S
C296 H287 0.950 . S
C296 C295 1.398 . S
C296 C297 1.391 . S
C297 H285 0.950 . S
C297 C293 1.393 . S
C297 C296 1.391 . S
C298 H288 0.950 . S
C298 C299 1.386 . S
C298 C300 1.391 . S
C299 C298 1.386 . S
C299 C303 1.393 . S
C300 H289 0.950 . S
C300 C298 1.391 . S
C300 C301 1.400 . S
C301 C295 1.491 . S
C301 C300 1.400 . S
C301 C302 1.398 . S
C302 H290 0.950 . S
C302 C301 1.398 . S
C302 C303 1.391 . S
C303 H291 0.950 . S
C303 C299 1.393 . S
C303 C302 1.391 . S
H304 C312 0.950 . S
H305 C317 0.950 . S
H306 C314 0.950 . S
H307 C316 0.950 . S
H308 C318 0.950 . S
H309 C320 0.950 . S
H310 C322 0.950 . S
H311 C323 0.950 . S
C312 H304 0.950 . S
C312 C313 1.386 . S
C312 C314 1.391 . S
C313 C312 1.386 . S
C313 C317 1.393 . S
C314 H306 0.950 . S
C314 C312 1.391 . S
C314 C315 1.400 . S
C315 C314 1.400 . S
C315 C316 1.398 . S
C315 C321 1.491 . S
C316 H307 0.950 . S
C316 C315 1.398 . S
C316 C317 1.391 . S
C317 H305 0.950 . S
C317 C313 1.393 . S
C317 C316 1.391 . S
C318 H308 0.950 . S
C318 C319 1.386 . S
C318 C320 1.391 . S
C319 C318 1.386 . S
C319 C323 1.393 . S
C320 H309 0.950 . S
C320 C318 1.391 . S
C320 C321 1.400 . S
C321 C315 1.491 . S
C321 C320 1.400 . S
C321 C322 1.398 . S
C322 H310 0.950 . S
C322 C321 1.398 . S
C322 C323 1.391 . S
C323 H311 0.950 . S
C323 C319 1.393 . S
C323 C322 1.391 . S
H324 C332 0.950 . S
H325 C337 0.950 . S
H326 C334 0.950 1_554 S
H327 C336 0.950 . S
H328 C338 0.950 . S
H329 C340 0.950 1_556 S
H330 C342 0.950 . S
H331 C343 0.950 . S
C332 H324 0.950 . S
C332 C333 1.386 . S
C332 C334 1.391 . S
C333 C332 1.386 . S
C333 C337 1.393 . S
C334 H326 0.950 1_556 S
C334 C332 1.391 . S
C334 C335 1.400 . S
C335 C334 1.400 . S
C335 C336 1.398 . S
C335 C341 1.491 1_556 S
C336 H327 0.950 . S
C336 C335 1.398 . S
C336 C337 1.391 . S
C337 H325 0.950 . S
C337 C333 1.393 . S
C337 C336 1.391 . S
C338 H328 0.950 . S
C338 C339 1.386 . S
C338 C340 1.391 . S
C339 C338 1.386 . S
C339 C343 1.393 . S
C340 H329 0.950 1_554 S
C340 C338 1.391 . S
C340 C341 1.400 . S
C341 C335 1.491 1_554 S
C341 C340 1.400 . S
C341 C342 1.398 . S
C342 H330 0.950 . S
C342 C341 1.398 . S
C342 C343 1.391 . S
C343 H331 0.950 . S
C343 C339 1.393 . S
C343 C342 1.391 . S
H344 C352 0.950 . S
H345 C357 0.950 . S
H346 C354 0.950 . S
H347 C356 0.950 . S
H348 C358 0.950 . S
H349 C360 0.950 . S
H350 C362 0.950 . S
H351 C363 0.950 . S
C352 H344 0.950 . S
C352 C353 1.386 . S
C352 C354 1.391 . S
C353 C352 1.386 . S
C353 C357 1.393 . S
C354 H346 0.950 . S
C354 C352 1.391 . S
C354 C355 1.400 . S
C355 C354 1.400 . S
C355 C356 1.398 . S
C355 C361 1.491 . S
C356 H347 0.950 . S
C356 C355 1.398 . S
C356 C357 1.391 . S
C357 H345 0.950 . S
C357 C353 1.393 . S
C357 C356 1.391 . S
C358 H348 0.950 . S
C358 C359 1.386 . S
C358 C360 1.391 . S
C359 C358 1.386 . S
C359 C363 1.393 . S
C360 H349 0.950 . S
C360 C358 1.391 . S
C360 C361 1.400 . S
C361 C355 1.491 . S
C361 C360 1.400 . S
C361 C362 1.398 . S
C362 H350 0.950 . S
C362 C361 1.398 . S
C362 C363 1.391 . S
C363 H351 0.950 . S
C363 C359 1.393 . S
C363 C362 1.391 . S
H364 C372 0.950 . S
H365 C377 0.950 . S
H366 C374 0.950 . S
H367 C376 0.950 . S
H368 C378 0.950 . S
H369 C380 0.950 . S
H370 C382 0.950 . S
H371 C383 0.950 . S
C372 H364 0.950 . S
C372 C373 1.386 . S
C372 C374 1.391 . S
C373 C372 1.386 . S
C373 C377 1.393 . S
C374 H366 0.950 . S
C374 C372 1.391 . S
C374 C375 1.400 . S
C375 C374 1.400 . S
C375 C376 1.398 . S
C375 C381 1.491 . S
C376 H367 0.950 . S
C376 C375 1.398 . S
C376 C377 1.391 . S
C377 H365 0.950 . S
C377 C373 1.393 . S
C377 C376 1.391 . S
C378 H368 0.950 . S
C378 C379 1.386 . S
C378 C380 1.391 . S
C379 C378 1.386 . S
C379 C383 1.393 . S
C380 H369 0.950 . S
C380 C378 1.391 . S
C380 C381 1.400 . S
C381 C375 1.491 . S
C381 C380 1.400 . S
C381 C382 1.398 . S
C382 H370 0.950 . S
C382 C381 1.398 . S
C382 C383 1.391 . S
C383 H371 0.950 . S
C383 C379 1.393 . S
C383 C382 1.391 . S
C273 C225 1.194 . S
C279 C20 1.200 . S
C293 C49 1.193 . S
C299 C108 1.204 . S
C313 C137 1.202 . S
C319 C233 1.194 . S
C333 C205 1.196 . S
C339 C57 1.204 . S
C353 C145 1.201 . S
C359 C29 1.202 . S
C373 C196 1.205 . S
C379 C117 1.193 . S
