# Generated by pormake.
# Topology und, (4)-cn, num edge types: 1
# Building blocks:
#     Node 0, Type 0, BuildingBlock: TATPOV_clean_sbu_0, # of connection points: 4
#     Node 1, Type 0, BuildingBlock: TATPOV_clean_sbu_0, # of connection points: 4
#     Node 2, Type 0, BuildingBlock: TATPOV_clean_sbu_0, # of connection points: 4
#     Node 3, Type 0, BuildingBlock: TATPOV_clean_sbu_0, # of connection points: 4
#     Node 4, Type 0, BuildingBlock: TATPOV_clean_sbu_0, # of connection points: 4
#     Node 5, Type 0, BuildingBlock: TATPOV_clean_sbu_0, # of connection points: 4
#     Node 6, Type 0, BuildingBlock: TATPOV_clean_sbu_0, # of connection points: 4
#     Node 7, Type 0, BuildingBlock: TATPOV_clean_sbu_0, # of connection points: 4
#     Node 8, Type 0, BuildingBlock: TATPOV_clean_sbu_0, # of connection points: 4
#     Node 9, Type 0, BuildingBlock: TATPOV_clean_sbu_0, # of connection points: 4
#     Node 10, Type 0, BuildingBlock: TATPOV_clean_sbu_0, # of connection points: 4
#     Node 11, Type 0, BuildingBlock: TATPOV_clean_sbu_0, # of connection points: 4
#     Node 12, Type 0, BuildingBlock: TATPOV_clean_sbu_0, # of connection points: 4
#     Node 13, Type 0, BuildingBlock: TATPOV_clean_sbu_0, # of connection points: 4
#     Node 14, Type 0, BuildingBlock: TATPOV_clean_sbu_0, # of connection points: 4
#     Node 15, Type 0, BuildingBlock: TATPOV_clean_sbu_0, # of connection points: 4
#     Edge 16, Type (0, 0), BuildingBlock: MIFKUJ_clean_linker_0, # of connection points: 2
#     Edge 17, Type (0, 0), BuildingBlock: MIFKUJ_clean_linker_0, # of connection points: 2
#     Edge 18, Type (0, 0), BuildingBlock: MIFKUJ_clean_linker_0, # of connection points: 2
#     Edge 19, Type (0, 0), BuildingBlock: MIFKUJ_clean_linker_0, # of connection points: 2
#     Edge 20, Type (0, 0), BuildingBlock: MIFKUJ_clean_linker_0, # of connection points: 2
#     Edge 21, Type (0, 0), BuildingBlock: MIFKUJ_clean_linker_0, # of connection points: 2
#     Edge 22, Type (0, 0), BuildingBlock: MIFKUJ_clean_linker_0, # of connection points: 2
#     Edge 23, Type (0, 0), BuildingBlock: MIFKUJ_clean_linker_0, # of connection points: 2
#     Edge 24, Type (0, 0), BuildingBlock: MIFKUJ_clean_linker_0, # of connection points: 2
#     Edge 25, Type (0, 0), BuildingBlock: MIFKUJ_clean_linker_0, # of connection points: 2
#     Edge 26, Type (0, 0), BuildingBlock: MIFKUJ_clean_linker_0, # of connection points: 2
#     Edge 27, Type (0, 0), BuildingBlock: MIFKUJ_clean_linker_0, # of connection points: 2
#     Edge 28, Type (0, 0), BuildingBlock: MIFKUJ_clean_linker_0, # of connection points: 2
#     Edge 29, Type (0, 0), BuildingBlock: MIFKUJ_clean_linker_0, # of connection points: 2
#     Edge 30, Type (0, 0), BuildingBlock: MIFKUJ_clean_linker_0, # of connection points: 2
#     Edge 31, Type (0, 0), BuildingBlock: MIFKUJ_clean_linker_0, # of connection points: 2
#     Edge 32, Type (0, 0), BuildingBlock: MIFKUJ_clean_linker_0, # of connection points: 2
#     Edge 33, Type (0, 0), BuildingBlock: MIFKUJ_clean_linker_0, # of connection points: 2
#     Edge 34, Type (0, 0), BuildingBlock: MIFKUJ_clean_linker_0, # of connection points: 2
#     Edge 35, Type (0, 0), BuildingBlock: MIFKUJ_clean_linker_0, # of connection points: 2
#     Edge 36, Type (0, 0), BuildingBlock: MIFKUJ_clean_linker_0, # of connection points: 2
#     Edge 37, Type (0, 0), BuildingBlock: MIFKUJ_clean_linker_0, # of connection points: 2
#     Edge 38, Type (0, 0), BuildingBlock: MIFKUJ_clean_linker_0, # of connection points: 2
#     Edge 39, Type (0, 0), BuildingBlock: MIFKUJ_clean_linker_0, # of connection points: 2
#     Edge 40, Type (0, 0), BuildingBlock: MIFKUJ_clean_linker_0, # of connection points: 2
#     Edge 41, Type (0, 0), BuildingBlock: MIFKUJ_clean_linker_0, # of connection points: 2
#     Edge 42, Type (0, 0), BuildingBlock: MIFKUJ_clean_linker_0, # of connection points: 2
#     Edge 43, Type (0, 0), BuildingBlock: MIFKUJ_clean_linker_0, # of connection points: 2
#     Edge 44, Type (0, 0), BuildingBlock: MIFKUJ_clean_linker_0, # of connection points: 2
#     Edge 45, Type (0, 0), BuildingBlock: MIFKUJ_clean_linker_0, # of connection points: 2
#     Edge 46, Type (0, 0), BuildingBlock: MIFKUJ_clean_linker_0, # of connection points: 2
#     Edge 47, Type (0, 0), BuildingBlock: MIFKUJ_clean_linker_0, # of connection points: 2
# Relax obj value: 0.104
# Max RMSD: 0.163
# Mean RMSD: 0.163
data_MOF--net-und--node1-TATPOV_clean_sbu_0--edge1-MIFKUJ_clean_linker_0
_symmetry_space_group_name_H-M    P1
_symmetry_Int_Tables_number       1
_symmetry_cell_setting            triclinic
loop_
_symmetry_equiv_pos_as_xyz
'x, y, z'
_cell_length_a     79.258081
_cell_length_b     79.561148
_cell_length_c     27.048314
_cell_angle_alpha  90.06043
_cell_angle_beta   89.885596
_cell_angle_gamma 91.91138
loop_
_atom_site_label
_atom_site_type_symbol
_atom_site_fract_x
_atom_site_fract_y
_atom_site_fract_z
_atom_type_partial_charge
Zn0 Zn 0.27166 0.33135 0.00164 0.0
Zn1 Zn 0.23916 0.3391 -0.00114 0.0
O2 O 0.24265 0.3264 0.06447 0.0
O3 O 0.26955 0.32066 0.06844 0.0
O4 O 0.21551 0.34788 0.00633 0.0
O5 O 0.27954 0.35533 -0.00622 0.0
O6 O 0.25282 0.36126 0.98513 0.0
C7 C 0.25488 0.31977 0.08697 0.0
C8 C 0.25191 0.31479 0.92262 0.0
O9 O 0.23939 0.32253 0.94033 0.0
O10 O 0.26646 0.31694 0.94147 0.0
C11 C 0.20432 0.34103 0.03425 0.0
O12 O 0.20732 0.32653 0.05507 0.0
C13 C 0.26836 0.36591 0.98512 0.0
Zn14 Zn 0.90927 0.97238 0.24789 0.0
Zn15 Zn 0.90223 0.00494 0.24747 0.0
O16 O 0.91573 0.00068 0.18346 0.0
O17 O 0.92098 0.97373 0.18226 0.0
O18 O 0.89368 0.02851 0.23771 0.0
O19 O 0.885 0.96492 0.25327 0.0
O20 O 0.87964 -0.00825 0.26011 0.0
C21 C 0.92243 0.98814 0.1627 0.0
C22 C 0.92529 -0.00751 0.32717 0.0
O23 O 0.91821 0.00501 0.30744 0.0
O24 O 0.92289 0.97783 0.3095 0.0
C25 C 0.90051 0.03939 0.20881 0.0
O26 O 0.91501 0.03617 0.18782 0.0
C27 C 0.87458 0.97637 0.26041 0.0
Zn28 Zn 0.21664 0.66548 0.49437 0.0
Zn29 Zn 0.24844 0.6566 0.49799 0.0
O30 O 0.2449 0.67158 0.55909 0.0
O31 O 0.21843 0.67893 0.55696 0.0
O32 O 0.27082 0.6464 0.51362 0.0
O33 O 0.20727 0.64183 0.49374 0.0
O34 O 0.23377 0.6349 0.48713 0.0
C35 C 0.23278 0.67972 0.57735 0.0
C36 C 0.23833 0.67829 0.4133 0.0
O37 O 0.25043 0.67132 0.43565 0.0
O38 O 0.22339 0.67688 0.43007 0.0
C39 C 0.28599 0.65179 0.50822 0.0
O40 O 0.2891 0.66638 0.48682 0.0
C41 C 0.21811 0.63071 0.48751 0.0
Zn42 Zn 0.57477 0.02713 0.74133 0.0
Zn43 Zn 0.58214 -0.00544 0.74252 0.0
O44 O 0.56925 -0.00158 0.67754 0.0
O45 O 0.56399 0.02535 0.67439 0.0
O46 O 0.59104 0.97112 0.73394 0.0
O47 O 0.59896 0.03475 0.74932 0.0
O48 O 0.60445 0.00797 0.75639 0.0
C49 C 0.56278 0.01081 0.65552 0.0
C50 C 0.55804 0.00695 0.8197 0.0
O51 O 0.56564 -0.0055 0.80129 0.0
O52 O 0.56032 0.02155 0.80152 0.0
C53 C 0.58457 0.95993 0.70543 0.0
O54 O 0.57007 0.96267 0.68397 0.0
C55 C 0.60939 0.02337 0.75719 0.0
Zn56 Zn 0.71402 0.66678 -0.00928 0.0
Zn57 Zn 0.74662 0.65983 0.98776 0.0
O58 O 0.74172 0.67399 0.9262 0.0
O59 O 0.71469 0.67926 0.92621 0.0
O60 O 0.77002 0.65224 0.9712 0.0
O61 O 0.70696 0.64241 -0.00581 0.0
O62 O 0.73392 0.63702 -0.00092 0.0
C63 C 0.72912 0.68088 0.90643 0.0
C64 C 0.73491 0.68185 0.07047 0.0
O65 O 0.74738 0.67499 0.04945 0.0
O66 O 0.72012 0.67968 0.05325 0.0
C67 C 0.78051 0.64515 -0.00087 0.0
O68 O 0.77706 0.64333 0.04639 0.0
C69 C 0.71849 0.63196 -0.00033 0.0
Zn70 Zn 0.07688 0.02699 0.75563 0.0
Zn71 Zn 0.08383 -0.00559 0.7561 0.0
O72 O 0.07021 -0.00107 0.81993 0.0
O73 O 0.06511 0.02591 0.82112 0.0
O74 O 0.09237 0.97072 0.76541 0.0
O75 O 0.10113 0.03437 0.75028 0.0
O76 O 0.10646 0.00755 0.74319 0.0
C77 C 0.06356 0.01151 0.84065 0.0
C78 C 0.06087 0.00693 0.67626 0.0
O79 O 0.0679 -0.0056 0.69603 0.0
O80 O 0.06327 0.02158 0.69397 0.0
C81 C 0.0872 0.96079 0.79953 0.0
O82 O 0.07439 0.96503 0.82714 0.0
C83 C 0.11153 0.02292 0.74294 0.0
Zn84 Zn 0.76975 0.33085 0.49119 0.0
Zn85 Zn 0.73708 0.338 0.49185 0.0
O86 O 0.7413 0.32491 0.42718 0.0
O87 O 0.76831 0.31951 0.42513 0.0
O88 O 0.71337 0.34652 0.48281 0.0
O89 O 0.7772 0.355 0.49739 0.0
O90 O 0.75032 0.36045 0.50489 0.0
C91 C 0.7538 0.31829 0.40581 0.0
C92 C 0.74971 0.31458 0.5703 0.0
O93 O 0.73713 0.32179 0.55122 0.0
O94 O 0.76438 0.31697 0.5523 0.0
C95 C 0.70264 0.33992 0.45301 0.0
O96 O 0.70606 0.32571 0.43105 0.0
C97 C 0.76577 0.36541 0.505 0.0
Zn98 Zn 0.40827 0.96787 0.25751 0.0
Zn99 Zn 0.4012 0.00058 0.25802 0.0
O100 O 0.41419 -0.00404 0.32258 0.0
O101 O 0.41913 0.96895 0.32435 0.0
O102 O 0.39251 0.02419 0.26745 0.0
O103 O 0.38403 0.96056 0.2493 0.0
O104 O 0.37877 0.98744 0.24351 0.0
C105 C 0.42054 0.98337 0.34392 0.0
C106 C 0.42513 0.98834 0.18001 0.0
O107 O 0.41765 0.00077 0.19903 0.0
O108 O 0.42273 0.97367 0.19756 0.0
C109 C 0.39782 0.03427 0.30099 0.0
O110 O 0.4109 0.03027 0.32767 0.0
C111 C 0.3737 0.97207 0.24199 0.0
Zn112 Zn 0.77369 0.83308 0.49649 0.0
Zn113 Zn 0.74108 0.84036 0.49961 0.0
O114 O 0.746 0.8268 0.56226 0.0
O115 O 0.77301 0.82145 0.56243 0.0
O116 O 0.71811 0.84902 0.5166 0.0
O117 O 0.78116 0.85731 0.49005 0.0
O118 O 0.7542 0.86273 0.48548 0.0
C119 C 0.75861 0.82009 0.58253 0.0
C120 C 0.75208 0.81725 0.41905 0.0
O121 O 0.73974 0.8245 0.43958 0.0
O122 O 0.76695 0.81949 0.43568 0.0
C123 C 0.70376 0.84842 0.49567 0.0
O124 O 0.70184 0.84049 0.45334 0.0
C125 C 0.76964 0.86772 0.48378 0.0
Zn126 Zn 0.41205 0.46979 0.74109 0.0
Zn127 Zn 0.40403 0.50203 0.74326 0.0
O128 O 0.41794 0.49922 0.67944 0.0
O129 O 0.42437 0.47257 0.67664 0.0
O130 O 0.39498 0.52543 0.73608 0.0
O131 O 0.38793 0.4616 0.74374 0.0
O132 O 0.38171 0.48813 0.75278 0.0
C133 C 0.42533 0.48718 0.65823 0.0
C134 C 0.42679 0.48919 0.82337 0.0
O135 O 0.41964 0.50173 0.80403 0.0
O136 O 0.42489 0.47466 0.80443 0.0
C137 C 0.40225 0.53737 0.71209 0.0
O138 O 0.41751 0.53536 0.69449 0.0
C139 C 0.3771 0.47264 0.75119 0.0
Zn140 Zn 0.71123 0.16457 -2e-05 0.0
Zn141 Zn 0.74371 0.15731 0.00356 0.0
O142 O 0.73864 0.17121 0.06577 0.0
O143 O 0.7116 0.17647 0.0654 0.0
O144 O 0.76667 0.14868 0.02095 0.0
O145 O 0.70359 0.14042 -0.00583 0.0
O146 O 0.73053 0.1349 0.98961 0.0
C147 C 0.72594 0.17799 0.08562 0.0
C148 C 0.73289 0.18007 0.92209 0.0
O149 O 0.7452 0.17292 0.94292 0.0
O150 O 0.718 0.1779 0.93877 0.0
C151 C 0.78103 0.1496 -0.0001 0.0
O152 O 0.78281 0.15776 0.95792 0.0
C153 C 0.71508 0.12996 0.98798 0.0
Zn154 Zn 0.0747 0.52847 0.24118 0.0
Zn155 Zn 0.0826 0.49641 0.23401 0.0
O156 O 0.06841 0.50173 0.17263 0.0
O157 O 0.06202 0.52835 0.17711 0.0
O158 O 0.09126 0.47365 0.21519 0.0
O159 O 0.09885 0.53643 0.24495 0.0
O160 O 0.10499 0.50971 0.24791 0.0
C161 C 0.06098 0.51434 0.15498 0.0
C162 C 0.06017 0.50618 0.31821 0.0
O163 O 0.06716 0.49425 0.29511 0.0
O164 O 0.06215 0.52124 0.30335 0.0
C165 C 0.09355 0.4606 0.24109 0.0
O166 O 0.08936 0.46056 0.2881 0.0
C167 C 0.10963 0.52519 0.24996 0.0
Zn168 Zn 0.20891 0.1658 0.49016 0.0
Zn169 Zn 0.24145 0.15887 0.48546 0.0
O170 O 0.23613 0.1729 0.42381 0.0
O171 O 0.20903 0.17788 0.42511 0.0
O172 O 0.26484 0.15132 0.46846 0.0
O173 O 0.20187 0.14147 0.49555 0.0
O174 O 0.22886 0.13607 0.49805 0.0
C175 C 0.22333 0.17962 0.40457 0.0
C176 C 0.23028 0.18134 0.56789 0.0
O177 O 0.24256 0.17418 0.5468 0.0
O178 O 0.21539 0.17922 0.55137 0.0
C179 C 0.27525 0.14433 0.49691 0.0
O180 O 0.27162 0.14265 0.5441 0.0
C181 C 0.21345 0.13103 0.50025 0.0
Zn182 Zn 0.57815 0.53059 0.2453 0.0
Zn183 Zn 0.58524 0.49832 0.25358 0.0
O184 O 0.57148 0.50448 0.31532 0.0
O185 O 0.566 0.53132 0.31028 0.0
O186 O 0.59311 0.47532 0.2729 0.0
O187 O 0.60251 0.5377 0.23946 0.0
O188 O 0.60801 0.51081 0.23834 0.0
C189 C 0.56459 0.51745 0.33295 0.0
C190 C 0.56253 0.5082 0.17033 0.0
O191 O 0.56952 0.49626 0.19322 0.0
O192 O 0.56487 0.5233 0.18462 0.0
C193 C 0.59553 0.46243 0.24635 0.0
O194 O 0.59205 0.46285 0.19891 0.0
C195 C 0.613 0.52616 0.23503 0.0
Zn196 Zn 0.27609 0.83103 0.0008 0.0
Zn197 Zn 0.24347 0.83732 -0.0078 0.0
O198 O 0.24979 0.82303 0.93187 0.0
O199 O 0.27674 0.81771 0.93771 0.0
O200 O 0.22027 0.84463 0.97213 0.0
O201 O 0.2828 0.85553 0.00302 0.0
O202 O 0.25565 0.86028 0.00513 0.0
C203 C 0.26282 0.81596 0.91517 0.0
C204 C 0.25395 0.81623 0.07813 0.0
O205 O 0.24175 0.82238 0.05417 0.0
O206 O 0.26905 0.81881 0.06364 0.0
C207 C 0.20908 0.85111 -0.00084 0.0
O208 O 0.21157 0.85238 0.04704 0.0
C209 C 0.27095 0.8657 0.00722 0.0
Zn210 Zn 0.90874 0.46729 0.7442 0.0
Zn211 Zn 0.90137 0.49985 0.74699 0.0
O212 O 0.91499 0.49534 0.81035 0.0
O213 O 0.92116 0.46861 0.80867 0.0
O214 O 0.89285 0.52344 0.75741 0.0
O215 O 0.88442 0.45985 0.74107 0.0
O216 O 0.87876 0.48664 0.73546 0.0
C217 C 0.9222 0.48284 0.82953 0.0
C218 C 0.92396 0.48774 0.66486 0.0
O219 O 0.91714 0.50012 0.6863 0.0
O220 O 0.92162 0.47294 0.68139 0.0
C221 C 0.89912 0.5338 0.78883 0.0
O222 O 0.91301 0.53005 0.81215 0.0
C223 C 0.87383 0.47122 0.73517 0.0
H224 H 0.27774 0.302 0.13918 0.0
H225 H 0.27156 0.27861 0.19523 0.0
H226 H 0.21841 0.28816 0.18682 0.0
H227 H 0.22444 0.31172 0.13084 0.0
H228 H 0.22869 0.27783 0.281 0.0
H229 H 0.23331 0.26028 0.11155 0.0
H230 H 0.24712 0.25857 0.03001 0.0
H231 H 0.28923 0.23449 0.09591 0.0
H232 H 0.27578 0.23631 0.17802 0.0
H233 H 0.19921 0.19787 0.35902 0.0
H234 H 0.20392 0.22184 0.30385 0.0
H235 H 0.25734 0.21314 0.30281 0.0
H236 H 0.25277 0.18903 0.35762 0.0
H237 H 0.24608 0.22311 0.21238 0.0
H238 H 0.24189 0.24107 0.38176 0.0
H239 H 0.22841 0.24301 0.46372 0.0
H240 H 0.18578 0.26639 0.39847 0.0
H241 H 0.19891 0.26435 0.31596 0.0
C242 C 0.26475 0.29943 0.15009 0.0
C243 C 0.25154 0.30854 0.12971 0.0
C244 C 0.26126 0.286 0.18199 0.0
C245 C 0.24451 0.28144 0.19405 0.0
C246 C 0.23141 0.29141 0.17748 0.0
C247 C 0.23489 0.30487 0.14546 0.0
C248 C 0.24064 0.26544 0.22013 0.0
C249 C 0.23229 0.26584 0.26579 0.0
C250 C 0.24557 0.24985 0.20041 0.0
C251 C 0.25361 0.24858 0.151 0.0
C252 C 0.24557 0.25474 0.10871 0.0
C253 C 0.25333 0.25373 0.06239 0.0
C254 C 0.26906 0.24646 0.0578 0.0
C255 C 0.27705 0.24014 0.09953 0.0
C256 C 0.26936 0.24115 0.14597 0.0
C257 C 0.21193 0.20081 0.34625 0.0
C258 C 0.22565 0.19167 0.3633 0.0
C259 C 0.2146 0.21458 0.31494 0.0
C260 C 0.23102 0.21948 0.30029 0.0
C261 C 0.24458 0.20963 0.31408 0.0
C262 C 0.24193 0.19584 0.34539 0.0
C263 C 0.23421 0.23548 0.27345 0.0
C264 C 0.24243 0.23508 0.22758 0.0
C265 C 0.22918 0.25106 0.29303 0.0
C266 C 0.2213 0.25239 0.34263 0.0
C267 C 0.22958 0.2465 0.38484 0.0
C268 C 0.22201 0.24763 0.4314 0.0
C269 C 0.20623 0.25477 0.43628 0.0
C270 C 0.198 0.26083 0.39462 0.0
C271 C 0.2055 0.2597 0.34795 0.0
H272 H 0.20039 0.25564 0.47236 0.0
H273 H 0.27504 0.24569 0.0219 0.0
H274 H 0.93815 0.96818 0.3854 0.0
H275 H 0.96087 0.97112 0.44541 0.0
H276 H 0.96313 0.02478 0.42227 0.0
H277 H 0.94035 0.02192 0.36117 0.0
H278 H -0.00586 0.01133 0.41648 0.0
H279 H 0.94774 0.00843 0.52974 0.0
H280 H 0.92132 -0.00317 0.56627 0.0
H281 H 0.9456 0.95077 0.59975 0.0
H282 H 0.97212 0.96201 0.56277 0.0
H283 H 0.04808 0.03128 0.618 0.0
H284 H 0.02538 0.02838 0.55788 0.0
H285 H 0.02308 0.97471 0.58086 0.0
H286 H 0.04583 0.97753 0.64207 0.0
H287 H 0.99209 0.9882 0.58673 0.0
H288 H 0.03852 -0.00888 0.47355 0.0
H289 H 0.06496 0.00278 0.43728 0.0
H290 H 0.04064 0.04882 0.40377 0.0
H291 H 0.01411 0.03753 0.4405 0.0
C292 C 0.94329 0.98067 0.39342 0.0
C293 C 0.93745 -0.00517 0.36833 0.0
C294 C 0.95626 0.98232 0.42798 0.0
C295 C 0.96365 -0.00183 0.43853 0.0
C296 C 0.95757 0.01243 0.41465 0.0
C297 C 0.94449 0.01079 0.38002 0.0
C298 C 0.97836 -0.00043 0.47234 0.0
C299 C -0.00638 0.00654 0.45401 0.0
C300 C 0.97781 -0.00718 0.52073 0.0
C301 C 0.96188 0.98602 0.54306 0.0
C302 C 0.94741 -0.00422 0.54451 0.0
C303 C 0.93243 0.98927 0.56538 0.0
C304 C 0.93177 0.97306 0.58521 0.0
C305 C 0.94612 0.96332 0.58433 0.0
C306 C 0.96114 0.96976 0.56347 0.0
C307 C 0.04294 0.01879 0.60992 0.0
C308 C 0.04875 0.00462 0.635 0.0
C309 C 0.02998 0.01716 0.5753 0.0
C310 C 0.02258 0.00133 0.56468 0.0
C311 C 0.02864 0.98705 0.58854 0.0
C312 C 0.0417 0.98867 0.62323 0.0
C313 C 0.00787 -6e-05 0.53087 0.0
C314 C 0.99261 -0.00702 0.5492 0.0
C315 C 0.00842 0.00671 0.48248 0.0
C316 C 0.02435 0.01352 0.46019 0.0
C317 C 0.03884 0.00378 0.45881 0.0
C318 C 0.05384 0.01032 0.4381 0.0
C319 C 0.05449 0.02654 0.41834 0.0
C320 C 0.04013 0.03626 0.41913 0.0
C321 C 0.02509 0.02979 0.43985 0.0
H322 H 0.06612 0.03158 0.40231 0.0
H323 H 0.92016 0.96804 0.60135 0.0
H324 H 0.21043 0.70095 0.61924 0.0
H325 H 0.21679 0.72418 0.67584 0.0
H326 H 0.26872 0.7098 0.68301 0.0
H327 H 0.26249 0.68642 0.62635 0.0
H328 H 0.25621 0.71925 0.77368 0.0
H329 H 0.25847 0.74081 0.60824 0.0
H330 H 0.24826 0.74646 0.52399 0.0
H331 H 0.20671 0.77321 0.58383 0.0
H332 H 0.2165 0.76748 0.66847 0.0
H333 H 0.28707 0.79587 0.87735 0.0
H334 H 0.28303 0.77279 0.8185 0.0
H335 H 0.23079 0.78515 0.80146 0.0
H336 H 0.23471 0.80836 0.85994 0.0
H337 H 0.24493 0.77676 0.71398 0.0
H338 H 0.24151 0.75396 0.87868 0.0
H339 H 0.25118 0.74811 0.96331 0.0
H340 H 0.29449 0.72371 0.90518 0.0
H341 H 0.28515 0.72957 0.82014 0.0
C342 C 0.22316 0.70252 0.63339 0.0
C343 C 0.236 0.6919 0.6179 0.0
C344 C 0.22679 0.71589 0.66549 0.0
C345 C 0.24329 0.7189 0.68267 0.0
C346 C 0.25592 0.70775 0.66975 0.0
C347 C 0.25233 0.69438 0.63746 0.0
C348 C 0.24743 0.734 0.71283 0.0
C349 C 0.25399 0.73185 0.76039 0.0
C350 C 0.24422 0.75039 0.69567 0.0
C351 C 0.23814 0.75358 0.64475 0.0
C352 C 0.24705 0.74773 0.60347 0.0
C353 C 0.24136 0.75099 0.55563 0.0
C354 C 0.22684 0.76018 0.54859 0.0
C355 C 0.21795 0.76608 0.58936 0.0
C356 C 0.22357 0.76284 0.63726 0.0
C357 C 0.27478 0.79388 0.86047 0.0
C358 C 0.26117 0.80388 0.87368 0.0
C359 C 0.27248 0.7806 0.82711 0.0
C360 C 0.25653 0.77707 0.80645 0.0
C361 C 0.24318 0.78761 0.81729 0.0
C362 C 0.24545 0.80088 0.85071 0.0
C363 C 0.25357 0.76201 0.77501 0.0
C364 C 0.24723 0.76417 0.72717 0.0
C365 C 0.25694 0.74563 0.79195 0.0
C366 C 0.26273 0.74238 0.84307 0.0
C367 C 0.25319 0.74751 0.88395 0.0
C368 C 0.25859 0.74415 0.932 0.0
C369 C 0.27348 0.73558 0.93962 0.0
C370 C 0.28299 0.73037 0.89922 0.0
C371 C 0.27764 0.73369 0.85109 0.0
H372 H 0.27761 0.73291 0.97681 0.0
H373 H 0.22251 0.76281 0.51158 0.0
H374 H 0.44028 0.96406 0.12641 0.0
H375 H 0.46278 0.96757 0.06561 0.0
H376 H 0.46116 0.02145 0.08098 0.0
H377 H 0.43835 0.01807 0.14207 0.0
H378 H 0.46447 0.01157 0.98401 0.0
H379 H 0.49213 0.00083 0.13818 0.0
H380 H 0.49751 0.98555 0.21552 0.0
H381 H 0.50828 0.94112 0.13262 0.0
H382 H 0.50295 0.95613 0.0547 0.0
H383 H 0.54276 0.03133 0.87259 0.0
H384 H 0.52024 0.0279 0.93337 0.0
H385 H 0.52208 0.97399 0.91927 0.0
H386 H 0.54492 0.9773 0.85828 0.0
H387 H 0.51863 0.98389 0.01557 0.0
H388 H 0.49123 -0.00539 0.86139 0.0
H389 H 0.48598 0.00984 0.78388 0.0
H390 H 0.47459 0.05417 0.86644 0.0
H391 H 0.47986 0.03923 0.94452 0.0
C392 C 0.44458 0.9767 0.11677 0.0
C393 C 0.43758 0.9908 0.13947 0.0
C394 C 0.45752 0.97867 0.0821 0.0
C395 C 0.46388 -0.00525 0.06952 0.0
C396 C 0.45649 0.00891 0.09047 0.0
C397 C 0.44346 0.00696 0.12529 0.0
C398 C 0.47839 -0.00338 0.03503 0.0
C399 C 0.4764 0.00574 -0.00877 0.0
C400 C 0.4938 0.98863 0.04389 0.0
C401 C 0.49699 0.97956 0.09066 0.0
C402 C 0.49553 0.98777 0.13646 0.0
C403 C 0.49859 0.97916 0.1804 0.0
C404 C 0.50314 0.96235 0.17902 0.0
C405 C 0.50472 0.95413 0.13365 0.0
C406 C 0.50173 0.96269 0.08958 0.0
C407 C 0.5385 0.0187 0.88252 0.0
C408 C 0.54558 0.00457 0.86022 0.0
C409 C 0.52554 0.01678 0.91717 0.0
C410 C 0.51925 0.00071 0.93008 0.0
C411 C 0.5267 0.98652 0.90952 0.0
C412 C 0.53976 0.98843 0.87476 0.0
C413 C 0.50472 -0.00114 0.96455 0.0
C414 C 0.50671 0.98973 0.00834 0.0
C415 C 0.4893 0.00683 0.95564 0.0
C416 C 0.48609 0.01584 0.90877 0.0
C417 C 0.48773 0.00764 0.86301 0.0
C418 C 0.48473 0.01621 0.81897 0.0
C419 C 0.48003 0.03298 0.82021 0.0
C420 C 0.47825 0.04119 0.86553 0.0
C421 C 0.48121 0.03266 0.90969 0.0
H422 H 0.47773 0.03959 0.78607 0.0
H423 H 0.50549 0.95571 0.2131 0.0
H424 H 0.27668 0.8066 0.14682 0.0
H425 H 0.27364 0.78329 0.20484 0.0
H426 H 0.22163 0.77547 0.16161 0.0
H427 H 0.22452 0.79901 0.10321 0.0
H428 H 0.22721 0.77043 0.26343 0.0
H429 H 0.25023 0.75362 0.10778 0.0
H430 H 0.27018 0.7559 0.03807 0.0
H431 H 0.31133 0.7458 0.13543 0.0
H432 H 0.29168 0.74413 0.20625 0.0
H433 H 0.21558 0.68782 0.34476 0.0
H434 H 0.21869 0.71097 0.2862 0.0
H435 H 0.27091 0.71828 0.32792 0.0
H436 H 0.26794 0.69486 0.38672 0.0
H437 H 0.2653 0.72363 0.227 0.0
H438 H 0.24258 0.74051 0.38256 0.0
H439 H 0.22283 0.73839 0.45283 0.0
H440 H 0.18142 0.74849 0.35641 0.0
H441 H 0.20086 0.75003 0.28507 0.0
C442 C 0.26447 0.80015 0.15019 0.0
C443 C 0.25089 0.80449 0.11985 0.0
C444 C 0.26279 0.7868 0.18336 0.0
C445 C 0.24754 0.77744 0.18665 0.0
C446 C 0.23355 0.78251 0.1593 0.0
C447 C 0.23521 0.79596 0.12604 0.0
C448 C 0.24674 0.76161 0.21554 0.0
C449 C 0.23536 0.76011 0.25512 0.0
C450 C 0.25768 0.7483 0.20519 0.0
C451 C 0.26949 0.74892 0.16246 0.0
C452 C 0.26355 0.75203 0.11446 0.0
C453 C 0.27481 0.7532 0.07471 0.0
C454 C 0.29201 0.75094 0.08224 0.0
C455 C 0.298 0.74755 0.12963 0.0
C456 C 0.28681 0.74653 0.16964 0.0
C457 C 0.22785 0.69411 0.34083 0.0
C458 C 0.24147 0.68968 0.37086 0.0
C459 C 0.22958 0.70737 0.3074 0.0
C460 C 0.2449 0.71658 0.30365 0.0
C461 C 0.25894 0.71137 0.3306 0.0
C462 C 0.25723 0.69798 0.36405 0.0
C463 C 0.24575 0.73242 0.27484 0.0
C464 C 0.25714 0.73394 0.2353 0.0
C465 C 0.23485 0.74576 0.28531 0.0
C466 C 0.22317 0.74522 0.32833 0.0
C467 C 0.22924 0.74214 0.37622 0.0
C468 C 0.2181 0.74105 0.41627 0.0
C469 C 0.20088 0.74336 0.40915 0.0
C470 C 0.19477 0.74671 0.36188 0.0
C471 C 0.20584 0.74765 0.32158 0.0
H472 H 0.19228 0.74254 0.44025 0.0
H473 H 0.3007 0.75182 0.05136 0.0
H474 H 0.43126 0.01322 0.38566 0.0
H475 H 0.45529 0.01764 0.4409 0.0
H476 H 0.46048 0.96402 0.45262 0.0
H477 H 0.43638 0.95943 0.39759 0.0
H478 H 0.46794 0.98101 0.54067 0.0
H479 H 0.48198 0.98429 0.36801 0.0
H480 H 0.47891 -0.00512 0.28307 0.0
H481 H 0.49287 0.0448 0.33172 0.0
H482 H 0.49549 0.03459 0.4174 0.0
H483 H 0.55248 0.9806 0.61523 0.0
H484 H 0.52856 0.97559 0.55981 0.0
H485 H 0.52282 0.02906 0.54523 0.0
H486 H 0.54678 0.03423 0.60038 0.0
H487 H 0.51574 0.0118 0.45825 0.0
H488 H 0.50119 0.00875 0.6308 0.0
H489 H 0.504 -0.00163 0.7161 0.0
H490 H 0.49101 0.94818 0.66772 0.0
H491 H 0.48857 0.95821 0.58179 0.0
C492 C 0.43718 0.00234 0.40095 0.0
C493 C 0.43207 0.98598 0.38643 0.0
C494 C 0.45098 0.0049 0.43238 0.0
C495 C 0.45987 -0.00884 0.44979 0.0
C496 C 0.45385 0.97479 0.43919 0.0
C497 C 0.44008 0.97221 0.40765 0.0
C498 C 0.47636 -0.00616 0.47461 0.0
C499 C 0.47845 0.98758 0.52252 0.0
C500 C 0.48998 0.00259 0.45093 0.0
C501 C 0.48876 0.0087 0.39925 0.0
C502 C 0.48427 -0.00245 0.3607 0.0
C503 C 0.48262 0.00348 0.31239 0.0
C504 C 0.48572 0.0205 0.30196 0.0
C505 C 0.49046 0.03162 0.33986 0.0
C506 C 0.492 0.02578 0.38834 0.0
C507 C 0.54645 -0.00869 0.59927 0.0
C508 C 0.55136 0.00781 0.613 0.0
C509 C 0.53272 0.98841 0.56776 0.0
C510 C 0.52371 0.00196 0.54948 0.0
C511 C 0.52954 0.01844 0.55934 0.0
C512 C 0.54324 0.02136 0.59094 0.0
C513 C 0.50732 -0.00101 0.52435 0.0
C514 C 0.50524 0.0052 0.47637 0.0
C515 C 0.49371 0.99022 0.54798 0.0
C516 C 0.49488 0.9842 0.59976 0.0
C517 C 0.49906 -0.00452 0.63827 0.0
C518 C 0.50057 0.98966 0.68675 0.0
C519 C 0.49767 0.97263 0.69735 0.0
C520 C 0.49326 0.96137 0.65945 0.0
C521 C 0.49183 0.96711 0.61083 0.0
H522 H 0.49883 0.96815 0.73493 0.0
H523 H 0.48446 0.02506 0.2645 0.0
H524 H 0.26052 0.19323 0.60657 0.0
H525 H 0.26465 0.21572 0.66797 0.0
H526 H 0.2107 0.21927 0.68292 0.0
H527 H 0.20645 0.19701 0.62208 0.0
H528 H 0.22599 0.24982 0.66737 0.0
H529 H 0.2332 0.20207 0.77323 0.0
H530 H 0.24574 0.17559 0.79958 0.0
H531 H 0.29455 0.20049 0.80846 0.0
H532 H 0.28233 0.22708 0.78147 0.0
H533 H 0.22228 0.30258 0.88119 0.0
H534 H 0.21898 0.27987 0.8203 0.0
H535 H 0.27309 0.27608 0.81236 0.0
H536 H 0.27649 0.2985 0.87315 0.0
H537 H 0.25825 0.24575 0.82356 0.0
H538 H 0.2513 0.29347 0.71857 0.0
H539 H 0.23906 0.32002 0.69158 0.0
H540 H 0.19021 0.29535 0.67995 0.0
H541 H 0.20212 0.26869 0.70757 0.0
C542 C 0.24956 0.19863 0.6235 0.0
C543 C 0.23317 0.19336 0.60917 0.0
C544 C 0.25193 0.21148 0.65853 0.0
C545 C 0.23795 0.2192 0.67982 0.0
C546 C 0.22164 0.21358 0.66669 0.0
C547 C 0.21926 0.20078 0.63196 0.0
C548 C 0.24018 0.23361 0.71428 0.0
C549 C 0.23287 0.24888 0.70183 0.0
C550 C 0.24951 0.23249 0.75856 0.0
C551 C 0.25688 0.21652 0.77479 0.0
C552 C 0.24664 0.20186 0.78036 0.0
C553 C 0.25368 0.18684 0.79551 0.0
C554 C 0.27094 0.18635 0.80554 0.0
C555 C 0.28119 0.20089 0.80059 0.0
C556 C 0.27421 0.21594 0.7854 0.0
C557 C 0.23347 0.29705 0.866 0.0
C558 C 0.24963 0.30234 0.88218 0.0
C559 C 0.23157 0.28407 0.83121 0.0
C560 C 0.24581 0.27628 0.81178 0.0
C561 C 0.26193 0.28183 0.82705 0.0
C562 C 0.26384 0.29473 0.86173 0.0
C563 C 0.24399 0.26196 0.77677 0.0
C564 C 0.25138 0.24671 0.78907 0.0
C565 C 0.23478 0.26311 0.73225 0.0
C566 C 0.22757 0.27912 0.71566 0.0
C567 C 0.23792 0.29374 0.71068 0.0
C568 C 0.23104 0.3088 0.69519 0.0
C569 C 0.21386 0.30938 0.68419 0.0
C570 C 0.20352 0.29489 0.68856 0.0
C571 C 0.21032 0.27979 0.7041 0.0
H572 H 0.20856 0.32105 0.67218 0.0
H573 H 0.27637 0.17471 0.81728 0.0
H574 H 0.04788 0.03558 0.89433 0.0
H575 H 0.02415 0.03133 0.95092 0.0
H576 H 0.02841 0.97759 0.93824 0.0
H577 H 0.05204 0.9817 0.88101 0.0
H578 H -0.0032 0.98718 0.91885 0.0
H579 H 0.03767 -0.00245 0.04605 0.0
H580 H 0.0609 0.01283 0.08908 0.0
H581 H 0.03 0.05579 0.10589 0.0
H582 H 0.00665 0.04085 0.06232 0.0
H583 H 0.9383 0.96417 0.10918 0.0
H584 H 0.96196 0.96858 0.05245 0.0
H585 H 0.95722 0.02228 0.06467 0.0
H586 H 0.93358 0.018 0.12193 0.0
H587 H 0.98902 0.01281 0.0842 0.0
H588 H 0.94809 0.00231 0.95715 0.0
H589 H 0.92489 0.98692 0.91433 0.0
H590 H 0.95595 0.94408 0.89749 0.0
H591 H 0.97927 0.95913 0.94085 0.0
C592 C 0.04404 0.02284 0.90438 0.0
C593 C 0.0518 0.00897 0.88276 0.0
C594 C 0.03047 0.02044 0.93685 0.0
C595 C 0.02448 0.00414 0.94862 0.0
C596 C 0.0328 0.99027 0.9294 0.0
C597 C 0.0464 -0.00734 0.89694 0.0
C598 C 0.00868 0.00162 0.9774 0.0
C599 C -0.00482 -0.00746 0.95539 0.0
C600 C 0.00643 0.00909 0.0243 0.0
C601 C 0.02046 0.01813 0.05048 0.0
C602 C 0.03587 0.01031 0.05852 0.0
C603 C 0.04905 0.0189 0.0831 0.0
C604 C 0.04694 0.03529 0.1001 0.0
C605 C 0.03163 0.0431 0.09265 0.0
C606 C 0.01841 0.03457 0.06806 0.0
C607 C 0.94201 0.97693 0.09899 0.0
C608 C 0.93413 0.99074 0.12051 0.0
C609 C 0.95555 0.97942 0.06645 0.0
C610 C 0.96139 -0.00424 0.05453 0.0
C611 C 0.95294 0.00956 0.07365 0.0
C612 C 0.93936 0.00709 0.10614 0.0
C613 C 0.97715 -0.00164 0.02566 0.0
C614 C 0.99064 0.00746 0.04765 0.0
C615 C 0.9794 0.9909 0.97876 0.0
C616 C 0.96539 0.9818 0.95268 0.0
C617 C 0.94993 0.98955 0.94471 0.0
C618 C 0.93677 0.9809 0.92025 0.0
C619 C 0.93893 0.96451 0.90331 0.0
C620 C 0.95428 0.95676 0.91069 0.0
C621 C 0.96749 0.96536 0.93515 0.0
H622 H 0.92872 0.95784 0.88438 0.0
H623 H 0.05716 0.04191 0.11913 0.0
H624 H 0.75906 0.6907 0.8631 0.0
H625 H 0.76398 0.71442 0.80709 0.0
H626 H 0.71044 0.72229 0.8014 0.0
H627 H 0.70534 0.69852 0.85715 0.0
H628 H 0.72601 0.72751 0.71114 0.0
H629 H 0.73376 0.74451 0.88038 0.0
H630 H 0.74583 0.74283 0.96411 0.0
H631 H 0.79561 0.75182 0.90487 0.0
H632 H 0.78386 0.75325 0.8206 0.0
H633 H 0.72872 0.81095 0.62722 0.0
H634 H 0.72371 0.78761 0.68452 0.0
H635 H 0.77716 0.77931 0.68981 0.0
H636 H 0.78236 0.8027 0.63275 0.0
H637 H 0.76152 0.7744 0.78055 0.0
H638 H 0.75371 0.75729 0.61121 0.0
H639 H 0.74158 0.75907 0.52759 0.0
H640 H 0.69182 0.75029 0.58717 0.0
H641 H 0.70363 0.7488 0.67135 0.0
C642 C 0.74828 0.69723 0.84915 0.0
C643 C 0.73181 0.69285 0.86512 0.0
C644 C 0.75114 0.71084 0.81735 0.0
C645 C 0.7376 0.7203 0.80106 0.0
C646 C 0.72106 0.71521 0.81391 0.0
C647 C 0.71818 0.70161 0.8458 0.0
C648 C 0.74075 0.73615 0.77352 0.0
C649 C 0.73361 0.73784 0.72649 0.0
C650 C 0.75087 0.7495 0.79343 0.0
C651 C 0.75795 0.74881 0.84412 0.0
C652 C 0.7473 0.74599 0.88515 0.0
C653 C 0.75407 0.74511 0.93272 0.0
C654 C 0.77147 0.74719 0.9398 0.0
C655 C 0.78213 0.75019 0.89932 0.0
C656 C 0.77542 0.75104 0.85165 0.0
C657 C 0.73947 0.80443 0.64139 0.0
C658 C 0.75593 0.80854 0.62484 0.0
C659 C 0.73656 0.79104 0.67395 0.0
C660 C 0.75004 0.78154 0.69044 0.0
C661 C 0.76659 0.78643 0.67716 0.0
C662 C 0.76952 0.7998 0.64451 0.0
C663 C 0.74679 0.76575 0.71818 0.0
C664 C 0.75391 0.76407 0.76523 0.0
C665 C 0.73665 0.75241 0.6983 0.0
C666 C 0.72954 0.75311 0.64765 0.0
C667 C 0.74017 0.75587 0.60654 0.0
C668 C 0.73336 0.75681 0.55903 0.0
C669 C 0.71594 0.75482 0.55207 0.0
C670 C 0.70531 0.75185 0.59262 0.0
C671 C 0.71205 0.75096 0.64025 0.0
H672 H 0.7107 0.75554 0.51525 0.0
H673 H 0.77669 0.7465 0.97666 0.0
H674 H 0.72372 0.30869 0.36281 0.0
H675 H 0.71877 0.28513 0.30616 0.0
H676 H 0.77237 0.27797 0.2969 0.0
H677 H 0.77749 0.30156 0.35321 0.0
H678 H 0.75657 0.27206 0.20823 0.0
H679 H 0.74981 0.2557 0.37834 0.0
H680 H 0.73812 0.25763 0.46263 0.0
H681 H 0.68813 0.24797 0.40614 0.0
H682 H 0.69951 0.24624 0.32133 0.0
H683 H 0.75571 0.188 0.12939 0.0
H684 H 0.76026 0.21183 0.18539 0.0
H685 H 0.7066 0.21898 0.19125 0.0
H686 H 0.70187 0.1951 0.13559 0.0
H687 H 0.72223 0.22497 0.28133 0.0
H688 H 0.72973 0.24049 0.11042 0.0
H689 H 0.74211 0.23801 0.02717 0.0
H690 H 0.79149 0.2491 0.08608 0.0
H691 H 0.77946 0.25121 0.17 0.0
C692 C 0.73449 0.30238 0.3479 0.0
C693 C 0.75098 0.30683 0.36327 0.0
C694 C 0.73162 0.28886 0.3157 0.0
C695 C 0.74519 0.27959 0.29838 0.0
C696 C 0.76173 0.28489 0.31023 0.0
C697 C 0.76462 0.29839 0.34248 0.0
C698 C 0.74212 0.26359 0.27146 0.0
C699 C 0.7492 0.26171 0.22434 0.0
C700 C 0.73235 0.25016 0.29244 0.0
C701 C 0.72549 0.25102 0.34344 0.0
C702 C 0.73631 0.25411 0.38384 0.0
C703 C 0.72975 0.25515 0.43172 0.0
C704 C 0.71239 0.25296 0.43972 0.0
C705 C 0.70157 0.24968 0.39987 0.0
C706 C 0.70807 0.24867 0.35189 0.0
C707 C 0.74483 0.19437 0.14348 0.0
C708 C 0.72843 0.1898 0.12743 0.0
C709 C 0.74747 0.20804 0.17527 0.0
C710 C 0.73378 0.21736 0.19146 0.0
C711 C 0.71732 0.212 0.17881 0.0
C712 C 0.71466 0.19836 0.14695 0.0
C713 C 0.73669 0.23344 0.2181 0.0
C714 C 0.72958 0.23533 0.26518 0.0
C715 C 0.7465 0.24685 0.19716 0.0
C716 C 0.75371 0.24584 0.14659 0.0
C717 C 0.74325 0.24227 0.10571 0.0
C718 C 0.75019 0.24095 0.05838 0.0
C719 C 0.76757 0.2434 0.05132 0.0
C720 C 0.77803 0.24719 0.09161 0.0
C721 C 0.77116 0.24844 0.13908 0.0
H722 H 0.77291 0.24238 0.01463 0.0
H723 H 0.70733 0.25377 0.47681 0.0
H724 H 0.7628 0.19491 0.88969 0.0
H725 H 0.76612 0.21788 0.82942 0.0
H726 H 0.71254 0.21536 0.80174 0.0
H727 H 0.70909 0.19268 0.86153 0.0
H728 H 0.75802 0.22142 0.72945 0.0
H729 H 0.69839 0.25496 0.79408 0.0
H730 H 0.68111 0.25788 0.86938 0.0
H731 H 0.72427 0.24845 0.95956 0.0
H732 H 0.74186 0.24564 0.88489 0.0
H733 H 0.72017 0.29977 0.60524 0.0
H734 H 0.71739 0.27664 0.66501 0.0
H735 H 0.77131 0.27849 0.68674 0.0
H736 H 0.77423 0.30132 0.62716 0.0
H737 H 0.72583 0.27276 0.76222 0.0
H738 H 0.7853 0.23881 0.69529 0.0
H739 H 0.80197 0.23572 0.61888 0.0
H740 H 0.75826 0.24565 0.5315 0.0
H741 H 0.74127 0.24858 0.6073 0.0
C742 C 0.75179 0.19909 0.87015 0.0
C743 C 0.73566 0.19209 0.88085 0.0
C744 C 0.75369 0.21222 0.83585 0.0
C745 C 0.73951 0.21855 0.81197 0.0
C746 C 0.72359 0.21092 0.82054 0.0
C747 C 0.72167 0.19789 0.85468 0.0
C748 C 0.74108 0.23351 0.77941 0.0
C749 C 0.75121 0.23274 0.73697 0.0
C750 C 0.73179 0.2481 0.78858 0.0
C751 C 0.72139 0.24994 0.83384 0.0
C752 C 0.70421 0.25356 0.82999 0.0
C753 C 0.69436 0.25518 0.87257 0.0
C754 C 0.70158 0.25328 0.91922 0.0
C755 C 0.71868 0.24982 0.92341 0.0
C756 C 0.72859 0.24819 0.88096 0.0
C757 C 0.73139 0.29539 0.62328 0.0
C758 C 0.74743 0.30227 0.61103 0.0
C759 C 0.72979 0.28216 0.65733 0.0
C760 C 0.74419 0.27562 0.67948 0.0
C761 C 0.76008 0.28309 0.66925 0.0
C762 C 0.76169 0.2962 0.63528 0.0
C763 C 0.74279 0.26069 0.71225 0.0
C764 C 0.73269 0.26145 0.75471 0.0
C765 C 0.75202 0.24606 0.70293 0.0
C766 C 0.76207 0.24408 0.65704 0.0
C767 C 0.77923 0.24027 0.65977 0.0
C768 C 0.78874 0.23856 0.61656 0.0
C769 C 0.78119 0.24055 0.57038 0.0
C770 C 0.7641 0.24419 0.56729 0.0
C771 C 0.75454 0.24589 0.61038 0.0
H772 H 0.78858 0.23923 0.53698 0.0
H773 H 0.69393 0.25454 0.95214 0.0
H774 H 0.71083 0.69387 0.13162 0.0
H775 H 0.71389 0.71655 0.19177 0.0
H776 H 0.76749 0.71984 0.16395 0.0
H777 H 0.76457 0.6969 0.10347 0.0
H778 H 0.75957 0.72364 0.2632 0.0
H779 H 0.74262 0.7468 0.1079 0.0
H780 H 0.72486 0.74889 0.03355 0.0
H781 H 0.68173 0.75837 0.12442 0.0
H782 H 0.69919 0.75611 0.1994 0.0
H783 H 0.77589 0.80434 0.35872 0.0
H784 H 0.77247 0.78122 0.30023 0.0
H785 H 0.71891 0.7787 0.32907 0.0
H786 H 0.72221 0.80212 0.38792 0.0
H787 H 0.72654 0.77436 0.22999 0.0
H788 H 0.74355 0.75148 0.38533 0.0
H789 H 0.76132 0.74935 0.45965 0.0
H790 H 0.80432 0.73936 0.3688 0.0
H791 H 0.78686 0.74164 0.29383 0.0
C792 C 0.72334 0.69924 0.13861 0.0
C793 C 0.73745 0.6937 0.11228 0.0
C794 C 0.72503 0.71226 0.17294 0.0
C795 C 0.74084 0.72013 0.18148 0.0
C796 C 0.75515 0.714 0.15756 0.0
C797 C 0.75347 0.70087 0.12313 0.0
C798 C 0.74219 0.7352 0.2137 0.0
C799 C 0.75253 0.73481 0.25561 0.0
C800 C 0.73268 0.74963 0.20435 0.0
C801 C 0.72218 0.75113 0.15929 0.0
C802 C 0.72933 0.74921 0.11205 0.0
C803 C 0.71932 0.75044 0.06979 0.0
C804 C 0.70218 0.75372 0.07426 0.0
C805 C 0.69501 0.75582 0.12101 0.0
C806 C 0.70496 0.75458 0.16341 0.0
C807 C 0.76332 0.79903 0.35236 0.0
C808 C 0.74933 0.80496 0.37843 0.0
C809 C 0.76141 0.78575 0.31899 0.0
C810 C 0.74551 0.778 0.31117 0.0
C811 C 0.73133 0.78445 0.33494 0.0
C812 C 0.73322 0.79784 0.36842 0.0
C813 C 0.74394 0.76281 0.27946 0.0
C814 C 0.73355 0.76318 0.23763 0.0
C815 C 0.75341 0.74836 0.28889 0.0
C816 C 0.76393 0.74688 0.33394 0.0
C817 C 0.75682 0.74895 0.38117 0.0
C818 C 0.76683 0.7477 0.42342 0.0
C819 C 0.78394 0.74427 0.41894 0.0
C820 C 0.79107 0.74204 0.3722 0.0
C821 C 0.78112 0.74329 0.32982 0.0
H822 H 0.79167 0.74331 0.4517 0.0
H823 H 0.69445 0.75466 0.04149 0.0
H824 H 0.55001 0.53083 0.10593 0.0
H825 H 0.52678 0.52653 0.0481 0.0
H826 H 0.5237 0.47382 0.08529 0.0
H827 H 0.54721 0.478 0.14355 0.0
H828 H 0.51923 0.47984 0.98466 0.0
H829 H 0.49693 0.49933 0.13847 0.0
H830 H 0.49528 0.51818 0.21062 0.0
H831 H 0.48524 0.55969 0.11495 0.0
H832 H 0.48708 0.54113 0.04213 0.0
H833 H 0.43861 0.46485 0.88354 0.0
H834 H 0.46121 0.46758 0.94424 0.0
H835 H 0.46495 0.52105 0.91807 0.0
H836 H 0.442 0.51846 0.85753 0.0
H837 H 0.46878 0.51378 0.01516 0.0
H838 H 0.49193 0.49477 0.86147 0.0
H839 H 0.49389 0.47622 0.78872 0.0
H840 H 0.50259 0.43412 0.88345 0.0
H841 H 0.50044 0.45239 0.95684 0.0
C842 C 0.54457 0.51825 0.10151 0.0
C843 C 0.55034 0.50478 0.12985 0.0
C844 C 0.53123 0.51585 0.06851 0.0
C845 C 0.52327 0.49996 0.06329 0.0
C846 C 0.52961 0.48623 0.08916 0.0
C847 C 0.54306 0.48862 0.1223 0.0
C848 C 0.50792 0.49799 0.03233 0.0
C849 C 0.50809 0.48704 -0.00826 0.0
C850 C 0.49354 0.5077 0.04104 0.0
C851 C 0.49229 0.51887 0.08481 0.0
C852 C 0.49449 0.5125 0.13278 0.0
C853 C 0.4935 0.52313 0.17381 0.0
C854 C 0.49019 0.54012 0.16737 0.0
C855 C 0.48782 0.54652 0.11988 0.0
C856 C 0.48882 0.53595 0.07872 0.0
C857 C 0.44407 0.47725 0.89108 0.0
C858 C 0.43864 0.49144 0.86529 0.0
C859 C 0.45705 0.47877 0.92566 0.0
C860 C 0.46505 0.49445 0.93478 0.0
C861 C 0.45902 0.5088 0.91127 0.0
C862 C 0.4459 0.50732 0.87678 0.0
C863 C 0.4801 0.49569 0.96726 0.0
C864 C 0.47988 0.50651 0.00816 0.0
C865 C 0.49445 0.4859 0.95875 0.0
C866 C 0.49586 0.47491 0.91466 0.0
C867 C 0.49414 0.48153 0.8668 0.0
C868 C 0.4953 0.47108 0.82545 0.0
C869 C 0.49832 0.454 0.83147 0.0
C870 C 0.50023 0.44735 0.87885 0.0
C871 C 0.49905 0.45775 0.92034 0.0
H872 H 0.49921 0.44592 0.79941 0.0
H873 H 0.48943 0.54833 0.19918 0.0
H874 H 0.04993 0.52841 0.38744 0.0
H875 H 0.02709 0.52455 0.44716 0.0
H876 H 0.02012 0.47282 0.40144 0.0
H877 H 0.04329 0.47654 0.34181 0.0
H878 H -0.005 0.51778 0.42568 0.0
H879 H 0.0023 0.45012 0.49753 0.0
H880 H 0.0248 0.43024 0.51459 0.0
H881 H 0.06013 0.47152 0.53858 0.0
H882 H 0.03779 0.49164 0.5223 0.0
H883 H 0.93418 0.46443 0.59862 0.0
H884 H 0.95686 0.4674 0.53796 0.0
H885 H 0.96423 0.51964 0.57796 0.0
H886 H 0.94117 0.51684 0.63815 0.0
H887 H 0.98889 0.47396 0.55524 0.0
H888 H 0.98146 0.54161 0.48151 0.0
H889 H 0.95887 0.56132 0.46382 0.0
H890 H 0.9236 0.51981 0.44258 0.0
H891 H 0.94602 0.49986 0.4595 0.0
C892 C 0.04375 0.51611 0.39061 0.0
C893 C 0.04836 0.50279 0.3597 0.0
C894 C 0.03063 0.51396 0.42467 0.0
C895 C 0.02181 0.49845 0.42862 0.0
C896 C 0.02685 0.48487 0.39936 0.0
C897 C 0.04011 0.48699 0.36535 0.0
C898 C 0.00674 0.49695 0.46122 0.0
C899 C -0.00624 0.50833 0.45446 0.0
C900 C 0.0049 0.48433 0.49778 0.0
C901 C 0.01841 0.47237 0.50814 0.0
C902 C 0.01486 0.45495 0.50659 0.0
C903 C 0.02758 0.44364 0.51611 0.0
C904 C 0.0439 0.44961 0.52749 0.0
C905 C 0.0475 0.46691 0.52955 0.0
C906 C 0.03482 0.47827 0.5201 0.0
C907 C 0.94042 0.47664 0.59396 0.0
C908 C 0.93591 0.4904 0.62329 0.0
C909 C 0.95345 0.47829 0.55939 0.0
C910 C 0.9623 0.49371 0.5534 0.0
C911 C 0.95745 0.50766 0.58143 0.0
C912 C 0.94426 0.50605 0.61581 0.0
C913 C 0.97717 0.49485 0.51989 0.0
C914 C 0.99011 0.4834 0.52642 0.0
C915 C 0.97895 0.50738 0.48301 0.0
C916 C 0.96539 0.51926 0.4723 0.0
C917 C 0.9689 0.53669 0.47291 0.0
C918 C 0.95612 0.54791 0.46304 0.0
C919 C 0.93979 0.54182 0.45225 0.0
C920 C 0.93623 0.52451 0.45114 0.0
C921 C 0.94896 0.51324 0.46095 0.0
H922 H 0.92992 0.55052 0.44465 0.0
H923 H 0.05373 0.44084 0.53481 0.0
H924 H 0.05303 0.48532 0.10458 0.0
H925 H 0.02956 0.4805 0.04749 0.0
H926 H 0.01822 0.53311 0.05456 0.0
H927 H 0.04156 0.53804 0.11209 0.0
H928 H 0.99073 0.51337 0.07377 0.0
H929 H 0.03376 0.51639 0.94942 0.0
H930 H 0.0606 0.50941 0.90929 0.0
H931 H 0.04351 0.45783 0.89584 0.0
H932 H 0.01664 0.46445 0.93652 0.0
H933 H 0.92967 0.51212 0.87959 0.0
H934 H 0.9531 0.5174 0.93652 0.0
H935 H 0.96498 0.46492 0.93116 0.0
H936 H 0.94173 0.45954 0.8737 0.0
H937 H 0.99222 0.48492 0.91066 0.0
H938 H 0.94925 0.48191 0.03552 0.0
H939 H 0.92242 0.48894 0.07563 0.0
H940 H 0.93943 0.54057 0.08799 0.0
H941 H 0.96628 0.5339 0.04732 0.0
C942 C 0.0458 0.49595 0.09318 0.0
C943 C 0.0491 0.51204 0.11322 0.0
C944 C 0.03237 0.49317 0.0605 0.0
C945 C 0.02211 0.50644 0.04696 0.0
C946 C 0.02593 0.52268 0.06481 0.0
C947 C 0.03934 0.52548 0.09748 0.0
C948 C 0.00667 0.50315 0.01731 0.0
C949 C 0.99107 0.50739 0.03772 0.0
C950 C 0.00711 0.49492 0.971 0.0
C951 C 0.02325 0.49089 0.94645 0.0
C952 C 0.03578 0.50353 0.93829 0.0
C953 C 0.05098 0.49964 0.91536 0.0
C954 C 0.05377 0.48318 0.90014 0.0
C955 C 0.04134 0.47057 0.9077 0.0
C956 C 0.02611 0.47439 0.93064 0.0
C957 C 0.93703 0.50163 0.89121 0.0
C958 C 0.93393 0.48545 0.87157 0.0
C959 C 0.95042 0.50467 0.92387 0.0
C960 C 0.96083 0.49156 0.9378 0.0
C961 C 0.95716 0.47523 0.92054 0.0
C962 C 0.94379 0.47217 0.88791 0.0
C963 C 0.97628 0.49511 0.96718 0.0
C964 C 0.99189 0.49091 0.9467 0.0
C965 C 0.97585 0.50338 0.0134 0.0
C966 C 0.95971 0.50743 0.03792 0.0
C967 C 0.94721 0.49479 0.0464 0.0
C968 C 0.93201 0.49871 0.06932 0.0
C969 C 0.9292 0.5152 0.08423 0.0
C970 C 0.94161 0.52781 0.07636 0.0
C971 C 0.95683 0.52396 0.05343 0.0
H972 H 0.91743 0.5182 0.10198 0.0
H973 H 0.06555 0.48019 0.88239 0.0
H974 H 0.43379 0.51763 0.61599 0.0
H975 H 0.45745 0.52381 0.56005 0.0
H976 H 0.46763 0.47096 0.55188 0.0
H977 H 0.44413 0.46465 0.60789 0.0
H978 H 0.49543 0.48994 0.57827 0.0
H979 H 0.45239 0.49096 0.45319 0.0
H980 H 0.42596 0.50001 0.41515 0.0
H981 H 0.44521 0.5511 0.41249 0.0
H982 H 0.47169 0.54237 0.45117 0.0
H983 H 0.55529 0.48879 0.38316 0.0
H984 H 0.53193 0.48518 0.4414 0.0
H985 H 0.52366 0.53847 0.43656 0.0
H986 H 0.54686 0.54219 0.37762 0.0
H987 H 0.49509 0.52091 0.41929 0.0
H988 H 0.53847 0.52007 0.54107 0.0
H989 H 0.56494 0.51136 0.57965 0.0
H990 H 0.54519 0.46057 0.58992 0.0
H991 H 0.51868 0.46892 0.55074 0.0
C992 C 0.44082 0.50728 0.60145 0.0
C993 C 0.43716 0.49066 0.61684 0.0
C994 C 0.45434 0.51084 0.56948 0.0
C995 C 0.46435 0.49784 0.55218 0.0
C996 C 0.46013 0.48117 0.56519 0.0
C997 C 0.44662 0.4776 0.59702 0.0
C998 C 0.47996 0.50165 0.52363 0.0
C999 C 0.49535 0.49652 0.54316 0.0
C1000 C 0.47987 0.51077 0.47882 0.0
C1001 C 0.46395 0.51603 0.45558 0.0
C1002 C 0.45093 0.50414 0.44492 0.0
C1003 C 0.43595 0.50921 0.42315 0.0
C1004 C 0.43388 0.52613 0.41155 0.0
C1005 C 0.44681 0.538 0.42157 0.0
C1006 C 0.46182 0.533 0.44338 0.0
C1007 C 0.54877 0.49982 0.39528 0.0
C1008 C 0.55287 0.51576 0.37543 0.0
C1009 C 0.53541 0.49773 0.42867 0.0
C1010 C 0.52603 0.51156 0.44325 0.0
C1011 C 0.53068 0.52763 0.42557 0.0
C1012 C 0.54401 0.52973 0.39209 0.0
C1013 C 0.51058 0.50901 0.47363 0.0
C1014 C 0.4952 0.51441 0.45453 0.0
C1015 C 0.51069 0.5002 0.51897 0.0
C1016 C 0.52663 0.49511 0.54255 0.0
C1017 C 0.53982 0.50702 0.55117 0.0
C1018 C 0.55482 0.50215 0.57323 0.0
C1019 C 0.55676 0.48541 0.58712 0.0
C1020 C 0.54368 0.47352 0.57909 0.0
C1021 C 0.52865 0.47832 0.55701 0.0
H1022 H 0.56839 0.48167 0.6042 0.0
H1023 H 0.42228 0.53003 0.39468 0.0
H1024 H 0.10719 0.45868 0.1486 0.0
H1025 H 0.12273 0.43579 0.11277 0.0
H1026 H 0.11469 0.40658 0.24556 0.0
H1027 H 0.09944 0.4298 0.2825 0.0
H1028 H 0.1461 0.40494 0.21819 0.0
H1029 H 0.09378 0.39683 0.13424 0.0
H1030 H 0.06895 0.40474 0.08582 0.0
H1031 H 0.1011 0.41938 0.96427 0.0
H1032 H 0.12616 0.41177 0.01221 0.0
H1033 H 0.18186 0.33336 0.10844 0.0
H1034 H 0.15992 0.35111 0.14158 0.0
H1035 H 0.17118 0.38818 0.02908 0.0
H1036 H 0.19324 0.37055 -0.00427 0.0
H1037 H 0.1361 0.38324 0.04832 0.0
H1038 H 0.18833 0.39363 0.13743 0.0
H1039 H 0.21287 0.38524 0.1864 0.0
H1040 H 0.17976 0.36537 0.29945 0.0
H1041 H 0.155 0.37342 0.25075 0.0
C1042 C 0.10856 0.44735 0.17019 0.0
C1043 C 0.10203 0.4461 0.21852 0.0
C1044 C 0.11739 0.43418 0.14941 0.0
C1045 C 0.11969 0.4193 0.17604 0.0
C1046 C 0.11304 0.41791 0.22416 0.0
C1047 C 0.10429 0.43118 0.24521 0.0
C1048 C 0.12985 0.40566 0.15447 0.0
C1049 C 0.14365 0.39996 0.18146 0.0
C1050 C 0.12692 0.39931 0.10611 0.0
C1051 C 0.11187 0.40384 0.077 0.0
C1052 C 0.09557 0.40184 0.09731 0.0
C1053 C 0.08145 0.40625 0.06992 0.0
C1054 C 0.08345 0.41259 0.02203 0.0
C1055 C 0.09958 0.41448 0.00138 0.0
C1056 C 0.11374 0.4101 0.02862 0.0
C1057 C 0.17951 0.34515 0.09015 0.0
C1058 C 0.18942 0.35059 0.04963 0.0
C1059 C 0.16698 0.3553 0.10929 0.0
C1060 C 0.16406 0.37104 0.08814 0.0
C1061 C 0.17326 0.37609 0.046 0.0
C1062 C 0.18589 0.36601 0.02707 0.0
C1063 C 0.1523 0.38275 0.11195 0.0
C1064 C 0.1383 0.3881 0.08532 0.0
C1065 C 0.15495 0.38869 0.16076 0.0
C1066 C 0.16982 0.38395 0.1902 0.0
C1067 C 0.18628 0.38734 0.17254 0.0
C1068 C 0.20023 0.38267 0.20027 0.0
C1069 C 0.19787 0.37473 0.24594 0.0
C1070 C 0.18156 0.37149 0.26403 0.0
C1071 C 0.16757 0.37611 0.23639 0.0
H1072 H 0.20869 0.37113 0.26737 0.0
H1073 H 0.07251 0.416 0.0009 0.0
H1074 H 0.80048 0.88348 0.4922 0.0
H1075 H 0.80949 0.91051 0.45769 0.0
H1076 H 0.75862 0.91884 0.40915 0.0
H1077 H 0.74945 0.89151 0.44356 0.0
H1078 H 0.78015 0.92287 0.33497 0.0
H1079 H 0.7766 0.94582 0.49343 0.0
H1080 H 0.77923 0.94771 0.58406 0.0
H1081 H 0.83322 0.94734 0.57163 0.0
H1082 H 0.83095 0.94518 0.48099 0.0
H1083 H 0.8511 -0.00429 0.30609 0.0
H1084 H 0.82406 0.98583 0.34179 0.0
H1085 H 0.8318 0.9363 0.28247 0.0
H1086 H 0.85848 0.94604 0.24663 0.0
H1087 H 0.82132 0.96315 0.41219 0.0
H1088 H 0.79702 0.91479 0.26181 0.0
H1089 H 0.79327 0.91407 0.17143 0.0
H1090 H 0.79205 0.96796 0.16797 0.0
H1091 H 0.79553 0.96903 0.25845 0.0
C1092 C 0.7911 0.89118 0.4751 0.0
C1093 C 0.77429 0.88527 0.47021 0.0
C1094 C 0.79625 0.90674 0.45573 0.0
C1095 C 0.78471 0.91679 0.43115 0.0
C1096 C 0.76771 0.91132 0.42819 0.0
C1097 C 0.7625 0.89572 0.44794 0.0
C1098 C 0.79115 0.93174 0.40333 0.0
C1099 C 0.78892 0.9319 0.35186 0.0
C1100 C 0.80204 0.94397 0.42561 0.0
C1101 C 0.80359 0.94535 0.48024 0.0
C1102 C 0.78904 0.94606 0.50999 0.0
C1103 C 0.79047 0.94718 0.5614 0.0
C1104 C 0.80638 0.94765 0.58358 0.0
C1105 C 0.8209 0.94701 0.55438 0.0
C1106 C 0.81955 0.94588 0.50295 0.0
C1107 C 0.84677 0.98284 0.29952 0.0
C1108 C 0.85698 0.9716 0.27395 0.0
C1109 C 0.83135 0.97722 0.32003 0.0
C1110 C 0.82583 0.96036 0.31458 0.0
C1111 C 0.83558 0.94945 0.28646 0.0
C1112 C 0.85096 0.955 0.26631 0.0
C1113 C 0.81137 0.95327 0.34362 0.0
C1114 C 0.81209 0.95458 0.39534 0.0
C1115 C 0.79887 0.9426 0.3216 0.0
C1116 C 0.79654 0.94199 0.26709 0.0
C1117 C 0.79579 0.92649 0.24191 0.0
C1118 C 0.79376 0.92602 0.19059 0.0
C1119 C 0.79243 0.94095 0.16397 0.0
C1120 C 0.79311 0.9564 0.18862 0.0
C1121 C 0.79514 0.95695 0.23993 0.0
H1122 H 0.79087 0.94056 0.12424 0.0
H1123 H 0.80746 0.94852 0.6234 0.0
H1124 H 0.32031 0.65706 0.49699 0.0
H1125 H 0.34283 0.64073 0.53396 0.0
H1126 H 0.30543 0.60816 0.60425 0.0
H1127 H 0.283 0.62419 0.56759 0.0
H1128 H 0.33097 0.61878 0.6683 0.0
H1129 H 0.32499 0.59524 0.50332 0.0
H1130 H 0.32497 0.59663 0.41224 0.0
H1131 H 0.37634 0.61556 0.41337 0.0
H1132 H 0.37659 0.61448 0.50457 0.0
H1133 H 0.36925 0.54356 0.7328 0.0
H1134 H 0.35248 0.56628 0.70128 0.0
H1135 H 0.39643 0.58788 0.62788 0.0
H1136 H 0.41328 0.56485 0.65838 0.0
H1137 H 0.37095 0.58677 0.56647 0.0
H1138 H 0.37849 0.60708 0.73026 0.0
H1139 H 0.37894 0.60601 0.82133 0.0
H1140 H 0.32566 0.59433 0.82369 0.0
H1141 H 0.32493 0.59509 0.73257 0.0
C1142 C 0.3169 0.64639 0.52023 0.0
C1143 C 0.29984 0.64192 0.52918 0.0
C1144 C 0.32978 0.63708 0.54128 0.0
C1145 C 0.32579 0.62323 0.57186 0.0
C1146 C 0.30879 0.61883 0.58096 0.0
C1147 C 0.29598 0.62799 0.55967 0.0
C1148 C 0.33915 0.61309 0.59442 0.0
C1149 C 0.33969 0.61171 0.64612 0.0
C1150 C 0.35089 0.60435 0.5655 0.0
C1151 C 0.35074 0.60498 0.51074 0.0
C1152 C 0.33623 0.59984 0.48416 0.0
C1153 C 0.33619 0.60055 0.43251 0.0
C1154 C 0.35063 0.60624 0.40704 0.0
C1155 C 0.36516 0.61119 0.43316 0.0
C1156 C 0.36526 0.61053 0.48481 0.0
C1157 C 0.37545 0.55325 0.71057 0.0
C1158 C 0.39264 0.55234 0.69812 0.0
C1159 C 0.36583 0.56632 0.69269 0.0
C1160 C 0.37319 0.57894 0.66253 0.0
C1161 C 0.39046 0.57832 0.65109 0.0
C1162 C 0.40009 0.56517 0.66876 0.0
C1163 C 0.36255 0.59208 0.64057 0.0
C1164 C 0.36249 0.59404 0.58893 0.0
C1165 C 0.35133 0.60148 0.66963 0.0
C1166 C 0.35169 0.60104 0.7245 0.0
C1167 C 0.36689 0.60416 0.75016 0.0
C1168 C 0.36719 0.60363 0.80181 0.0
C1169 C 0.35235 0.60007 0.82827 0.0
C1170 C 0.33716 0.59708 0.80314 0.0
C1171 C 0.33679 0.59759 0.75148 0.0
H1172 H 0.35261 0.59967 0.86826 0.0
H1173 H 0.35057 0.60677 0.36705 0.0
H1174 H 0.68428 0.11421 -0.0023 0.0
H1175 H 0.67494 0.08752 0.96171 0.0
H1176 H 0.72552 0.07927 0.90982 0.0
H1177 H 0.735 0.1063 0.94567 0.0
H1178 H 0.70381 0.07616 0.83648 0.0
H1179 H 0.70739 0.05156 -0.00733 0.0
H1180 H 0.7049 0.04878 0.08315 0.0
H1181 H 0.65091 0.04986 0.07236 0.0
H1182 H 0.65305 0.05292 0.98191 0.0
H1183 H 0.63282 0.0038 0.80178 0.0
H1184 H 0.6597 0.01345 0.83863 0.0
H1185 H 0.65181 0.06353 0.7842 0.0
H1186 H 0.62525 0.05404 0.74722 0.0
H1187 H 0.66238 0.03552 0.91118 0.0
H1188 H 0.68681 0.08511 0.76457 0.0
H1189 H 0.69046 0.08668 0.67419 0.0
H1190 H 0.69139 0.03283 0.66589 0.0
H1191 H 0.68801 0.03091 0.75633 0.0
C1192 C 0.69353 0.10659 0.9796 0.0
C1193 C 0.71034 0.11245 0.97412 0.0
C1194 C 0.6882 0.09121 0.95937 0.0
C1195 C 0.69955 0.0813 0.93333 0.0
C1196 C 0.71657 0.08669 0.92995 0.0
C1197 C 0.72196 0.1021 0.95055 0.0
C1198 C 0.69287 0.06671 0.90435 0.0
C1199 C 0.69498 0.06705 0.85281 0.0
C1200 C 0.68187 0.05438 0.92581 0.0
C1201 C 0.6804 0.05247 0.98033 0.0
C1202 C 0.69498 0.05129 0.00957 0.0
C1203 C 0.69363 0.04966 0.06089 0.0
C1204 C 0.67775 0.04914 0.08349 0.0
C1205 C 0.6632 0.05024 0.0548 0.0
C1206 C 0.66447 0.05187 0.00345 0.0
C1207 C 0.63707 0.01677 0.79659 0.0
C1208 C 0.62685 0.02821 0.77197 0.0
C1209 C 0.6524 0.02225 0.81776 0.0
C1210 C 0.65784 0.03918 0.81392 0.0
C1211 C 0.64807 0.05035 0.78693 0.0
C1212 C 0.63277 0.04492 0.76612 0.0
C1213 C 0.67232 0.04598 0.84328 0.0
C1214 C 0.67167 0.04417 0.89487 0.0
C1215 C 0.68488 0.05675 0.82188 0.0
C1216 C 0.68713 0.05787 0.76739 0.0
C1217 C 0.68794 0.0736 0.74359 0.0
C1218 C 0.68992 0.07455 0.69229 0.0
C1219 C 0.69115 0.05987 0.66431 0.0
C1220 C 0.69041 0.0442 0.6876 0.0
C1221 C 0.68844 0.04317 0.73888 0.0
H1222 H 0.69267 0.06064 0.6246 0.0
H1223 H 0.67673 0.04788 0.12323 0.0
H1224 H 0.13393 0.50579 0.29116 0.0
H1225 H 0.16039 0.51599 0.32942 0.0
H1226 H 0.15081 0.56626 0.27947 0.0
H1227 H 0.1247 0.55621 0.24089 0.0
H1228 H 0.184 0.561 0.27849 0.0
H1229 H 0.13602 0.55176 0.39219 0.0
H1230 H 0.11437 0.53371 0.43355 0.0
H1231 H 0.153 0.50256 0.49077 0.0
H1232 H 0.17486 0.52036 0.44922 0.0
H1233 H 0.1864 0.61688 0.4968 0.0
H1234 H 0.17548 0.59097 0.45921 0.0
H1235 H 0.22565 0.57926 0.41081 0.0
H1236 H 0.23672 0.60546 0.44803 0.0
H1237 H 0.17956 0.55758 0.46127 0.0
H1238 H 0.22128 0.56477 0.29112 0.0
H1239 H 0.23984 0.58591 0.24933 0.0
H1240 H 0.20953 0.6255 0.30511 0.0
H1241 H 0.19072 0.60457 0.34669 0.0
C1242 C 0.13774 0.51892 0.28715 0.0
C1243 C 0.1271 0.53027 0.26377 0.0
C1244 C 0.15283 0.52472 0.30913 0.0
C1245 C 0.15743 0.54192 0.30793 0.0
C1246 C 0.14753 0.55294 0.28091 0.0
C1247 C 0.13251 0.54719 0.25914 0.0
C1248 C 0.171 0.54916 0.3399 0.0
C1249 C 0.18335 0.5599 0.31845 0.0
C1250 C 0.17011 0.54783 0.39205 0.0
C1251 C 0.15702 0.53723 0.41718 0.0
C1252 C 0.13987 0.541 0.41338 0.0
C1253 C 0.12757 0.53083 0.43685 0.0
C1254 C 0.1323 0.51696 0.46464 0.0
C1255 C 0.14935 0.51327 0.46913 0.0
C1256 C 0.16169 0.52339 0.44563 0.0
C1257 C 0.19521 0.60864 0.47915 0.0
C1258 C 0.21237 0.61338 0.47458 0.0
C1259 C 0.18896 0.59374 0.45794 0.0
C1260 C 0.19971 0.5833 0.43158 0.0
C1261 C 0.21711 0.58724 0.43058 0.0
C1262 C 0.22341 0.6022 0.45195 0.0
C1263 C 0.1921 0.56989 0.39984 0.0
C1264 C 0.18086 0.558 0.42134 0.0
C1265 C 0.19371 0.57048 0.34771 0.0
C1266 C 0.20478 0.58315 0.32247 0.0
C1267 C 0.2186 0.57799 0.29436 0.0
C1268 C 0.22914 0.58993 0.27072 0.0
C1269 C 0.22591 0.60704 0.27474 0.0
C1270 C 0.21206 0.61225 0.30218 0.0
C1271 C 0.20146 0.60036 0.32579 0.0
H1272 H 0.2341 0.61626 0.25647 0.0
H1273 H 0.12276 0.5091 0.48279 0.0
H1274 H 0.57663 0.93597 0.6356 0.0
H1275 H 0.59508 0.91473 0.60196 0.0
H1276 H 0.6338 0.92982 0.7063 0.0
H1277 H 0.61555 0.95123 0.73966 0.0
H1278 H 0.64615 0.92917 0.61507 0.0
H1279 H 0.61198 0.89173 0.71546 0.0
H1280 H 0.5855 0.87839 0.74643 0.0
H1281 H 0.57401 0.85982 0.60081 0.0
H1282 H 0.60033 0.87325 0.5688 0.0
H1283 H 0.7044 0.86618 0.58191 0.0
H1284 H 0.68221 0.88282 0.61749 0.0
H1285 H 0.64896 0.86837 0.49771 0.0
H1286 H 0.67126 0.85147 0.46145 0.0
H1287 H 0.63284 0.86829 0.59185 0.0
H1288 H 0.66738 0.90542 0.49221 0.0
H1289 H 0.69413 0.91842 0.46205 0.0
H1290 H 0.70491 0.93758 0.60746 0.0
H1291 H 0.67833 0.92447 0.63868 0.0
C1292 C 0.58896 0.93458 0.65201 0.0
C1293 C 0.59464 0.94539 0.69017 0.0
C1294 C 0.59949 0.92239 0.63277 0.0
C1295 C 0.61585 0.92066 0.65156 0.0
C1296 C 0.62126 0.93096 0.69103 0.0
C1297 C 0.61077 0.94317 0.71021 0.0
C1298 C 0.62779 0.90906 0.62787 0.0
C1299 C 0.6433 0.91582 0.61067 0.0
C1300 C 0.62387 0.89173 0.6205 0.0
C1301 C 0.60804 0.88366 0.63963 0.0
C1302 C 0.60373 0.88493 0.68994 0.0
C1303 C 0.58877 0.87732 0.70771 0.0
C1304 C 0.57806 0.8683 0.67558 0.0
C1305 C 0.58231 0.86683 0.62564 0.0
C1306 C 0.59725 0.87443 0.60767 0.0
C1307 C 0.69237 0.8664 0.56305 0.0
C1308 C 0.68969 0.85758 0.51844 0.0
C1309 C 0.67968 0.87596 0.58354 0.0
C1310 C 0.66402 0.87701 0.55995 0.0
C1311 C 0.661 0.86775 0.51642 0.0
C1312 C 0.67376 0.85816 0.49568 0.0
C1313 C 0.65123 0.88842 0.58005 0.0
C1314 C 0.6356 0.88166 0.59626 0.0
C1315 C 0.655 0.90579 0.58662 0.0
C1316 C 0.67092 0.91384 0.56787 0.0
C1317 C 0.67551 0.9123 0.51784 0.0
C1318 C 0.69064 0.9197 0.50054 0.0
C1319 C 0.70123 0.92879 0.53284 0.0
C1320 C 0.6967 0.93053 0.58249 0.0
C1321 C 0.68159 0.92313 0.6 0.0
H1322 H 0.71294 0.93451 0.51938 0.0
H1323 H 0.56648 0.86241 0.68941 0.0
H1324 H 0.35189 0.49155 0.79021 0.0
H1325 H 0.32512 0.48091 0.82564 0.0
H1326 H 0.33631 0.43082 0.77701 0.0
H1327 H 0.36269 0.44132 0.74095 0.0
H1328 H 0.30323 0.43507 0.77297 0.0
H1329 H 0.34916 0.44607 0.89201 0.0
H1330 H 0.36974 0.46477 0.93537 0.0
H1331 H 0.32951 0.49525 0.98647 0.0
H1332 H 0.30872 0.47679 0.94289 0.0
H1333 H 0.29945 0.38094 -0.00441 0.0
H1334 H 0.30998 0.40669 0.95642 0.0
H1335 H 0.26014 0.41587 0.90082 0.0
H1336 H 0.24946 0.38975 0.93962 0.0
H1337 H 0.30471 0.4396 0.9559 0.0
H1338 H 0.26587 0.4303 0.78128 0.0
H1339 H 0.24858 0.40845 0.73817 0.0
H1340 H 0.27917 0.37008 0.79927 0.0
H1341 H 0.29671 0.39173 0.84223 0.0
C1342 C 0.3484 0.47836 0.7859 0.0
C1343 C 0.35956 0.46721 0.76359 0.0
C1344 C 0.33312 0.4723 0.80626 0.0
C1345 C 0.32885 0.45502 0.80471 0.0
C1346 C 0.33932 0.44419 0.77874 0.0
C1347 C 0.3545 0.45021 0.75842 0.0
C1348 C 0.31498 0.44757 0.83533 0.0
C1349 C 0.30324 0.43639 0.81291 0.0
C1350 C 0.315 0.4492 0.88747 0.0
C1351 C 0.32745 0.46022 0.91377 0.0
C1352 C 0.34474 0.45682 0.91228 0.0
C1353 C 0.35642 0.46736 0.93689 0.0
C1354 C 0.35094 0.48123 0.96352 0.0
C1355 C 0.33374 0.48454 0.96571 0.0
C1356 C 0.32201 0.47405 0.94107 0.0
C1357 C 0.29061 0.38857 0.97588 0.0
C1358 C 0.27369 0.38315 0.96997 0.0
C1359 C 0.29664 0.40339 0.95376 0.0
C1360 C 0.2859 0.4131 0.92513 0.0
C1361 C 0.26867 0.40846 0.92235 0.0
C1362 C 0.26259 0.39356 0.94464 0.0
C1363 C 0.29351 0.42658 0.89361 0.0
C1364 C 0.30405 0.43892 0.91587 0.0
C1365 C 0.29273 0.42568 0.84137 0.0
C1366 C 0.28241 0.41259 0.81541 0.0
C1367 C 0.26889 0.41719 0.78542 0.0
C1368 C 0.25906 0.40485 0.76102 0.0
C1369 C 0.26273 0.38788 0.76614 0.0
C1370 C 0.2763 0.38322 0.79548 0.0
C1371 C 0.28618 0.39551 0.81986 0.0
H1372 H 0.2551 0.37835 0.74728 0.0
H1373 H 0.36 0.48937 0.98256 0.0
H1374 H 0.81375 0.14804 0.96614 0.0
H1375 H 0.83685 0.13262 0.00304 0.0
H1376 H 0.80373 0.11577 0.121 0.0
H1377 H 0.78082 0.1313 0.08516 0.0
H1378 H 0.83375 0.12447 0.15727 0.0
H1379 H 0.81289 0.09041 0.0211 0.0
H1380 H 0.8056 0.08456 0.93402 0.0
H1381 H 0.85703 0.09524 0.89099 0.0
H1382 H 0.86458 0.10136 0.97781 0.0
H1383 H 0.8699 0.04949 0.24304 0.0
H1384 H 0.85262 0.07159 0.20936 0.0
H1385 H 0.89193 0.08476 0.1045 0.0
H1386 H 0.90927 0.06258 0.13774 0.0
H1387 H 0.86178 0.08056 0.05959 0.0
H1388 H 0.88307 0.11124 0.19904 0.0
H1389 H 0.88991 0.11625 0.28682 0.0
H1390 H 0.83735 0.11124 0.32468 0.0
H1391 H 0.8302 0.10597 0.2372 0.0
C1392 C 0.81142 0.14112 6e-05 0.0
C1393 C 0.79538 0.14085 0.02247 0.0
C1394 C 0.82463 0.13227 0.02105 0.0
C1395 C 0.822 0.12288 0.06459 0.0
C1396 C 0.80611 0.12293 0.08749 0.0
C1397 C 0.79297 0.13178 0.06672 0.0
C1398 C 0.83552 0.11257 0.08596 0.0
C1399 C 0.83981 0.1148 0.13598 0.0
C1400 C 0.84377 0.10022 0.05797 0.0
C1401 C 0.83925 0.09654 0.00582 0.0
C1402 C 0.82261 0.09164 -0.007 0.0
C1403 C 0.81844 0.08826 0.94371 0.0
C1404 C 0.83083 0.08958 0.90697 0.0
C1405 C 0.84743 0.09425 0.91947 0.0
C1406 C 0.85167 0.09767 0.96871 0.0
C1407 C 0.87501 0.05725 0.21334 0.0
C1408 C 0.89097 0.05421 0.19304 0.0
C1409 C 0.86512 0.06994 0.1942 0.0
C1410 C 0.87099 0.0799 0.15448 0.0
C1411 C 0.88713 0.07723 0.13512 0.0
C1412 C 0.89706 0.06458 0.15435 0.0
C1413 C 0.8598 0.09226 0.13113 0.0
C1414 C 0.85593 0.09039 0.08074 0.0
C1415 C 0.85188 0.10487 0.15888 0.0
C1416 C 0.85611 0.10808 0.21156 0.0
C1417 C 0.87298 0.11108 0.22612 0.0
C1418 C 0.87691 0.11399 0.27583 0.0
C1419 C 0.86408 0.11403 0.31132 0.0
C1420 C 0.84728 0.1112 0.29715 0.0
C1421 C 0.84328 0.10827 0.2475 0.0
H1422 H 0.86715 0.11628 0.34978 0.0
H1423 H 0.82758 0.08695 0.86884 0.0
H1424 H 0.78649 0.63963 0.90118 0.0
H1425 H 0.80875 0.6232 0.86443 0.0
H1426 H 0.83023 0.61556 0.0086 0.0
H1427 H 0.80768 0.63178 0.0462 0.0
H1428 H 0.85432 0.62395 0.92209 0.0
H1429 H 0.80904 0.58563 0.97544 0.0
H1430 H 0.7792 0.57598 0.98077 0.0
H1431 H 0.77682 0.57216 0.82255 0.0
H1432 H 0.80658 0.58208 0.81627 0.0
H1433 H 0.90442 0.55347 0.87056 0.0
H1434 H 0.88621 0.57493 0.90329 0.0
H1435 H 0.85368 0.56905 0.77625 0.0
H1436 H 0.87156 0.54705 0.74418 0.0
H1437 H 0.83534 0.56854 0.85418 0.0
H1438 H 0.88003 0.60532 0.79785 0.0
H1439 H 0.90932 0.61626 0.78832 0.0
H1440 H 0.91273 0.6244 0.94499 0.0
H1441 H 0.88352 0.61329 0.95556 0.0
C1442 C 0.79605 0.63468 0.92519 0.0
C1443 C 0.79524 0.63694 0.97677 0.0
C1444 C 0.80877 0.62529 0.90403 0.0
C1445 C 0.82106 0.61814 0.93384 0.0
C1446 C 0.82084 0.62103 0.98503 0.0
C1447 C 0.80793 0.63024 0.00643 0.0
C1448 C 0.83326 0.60659 0.91164 0.0
C1449 C 0.8503 0.61173 0.90777 0.0
C1450 C 0.82781 0.59092 0.89164 0.0
C1451 C 0.80998 0.58478 0.89537 0.0
C1452 C 0.80211 0.58289 0.94177 0.0
C1453 C 0.78522 0.57734 0.94497 0.0
C1454 C 0.7761 0.57351 0.90202 0.0
C1455 C 0.78388 0.57516 0.85579 0.0
C1456 C 0.80076 0.58074 0.85239 0.0
C1457 C 0.89355 0.55692 0.8491 0.0
C1458 C 0.88943 0.54849 0.80477 0.0
C1459 C 0.88315 0.56929 0.86783 0.0
C1460 C 0.86858 0.57377 0.84216 0.0
C1461 C 0.8648 0.56581 0.7969 0.0
C1462 C 0.87508 0.55327 0.77846 0.0
C1463 C 0.85664 0.58579 0.86424 0.0
C1464 C 0.83953 0.58075 0.86823 0.0
C1465 C 0.86204 0.60164 0.88371 0.0
C1466 C 0.87963 0.60831 0.87754 0.0
C1467 C 0.88707 0.60931 0.83033 0.0
C1468 C 0.90365 0.61557 0.82473 0.0
C1469 C 0.9129 0.62098 0.86604 0.0
C1470 C 0.90556 0.62018 0.91303 0.0
C1471 C 0.88898 0.61392 0.91884 0.0
H1472 H 0.92573 0.62582 0.86162 0.0
H1473 H 0.76303 0.56921 0.90457 0.0
H1474 H 0.18233 0.1157 0.49579 0.0
H1475 H 0.17338 0.08914 0.53317 0.0
H1476 H 0.22495 0.07963 0.57238 0.0
H1477 H 0.23404 0.10662 0.53554 0.0
H1478 H 0.17858 0.0565 0.52716 0.0
H1479 H 0.2235 0.06258 0.68925 0.0
H1480 H 0.24249 0.08354 0.73014 0.0
H1481 H 0.21004 0.12307 0.68669 0.0
H1482 H 0.19081 0.10231 0.64604 0.0
H1483 H 0.13505 0.00346 0.69756 0.0
H1484 H 0.16127 0.01359 0.65757 0.0
H1485 H 0.15327 0.06345 0.7141 0.0
H1486 H 0.12746 0.05344 0.75447 0.0
H1487 H 0.18622 0.05807 0.70914 0.0
H1488 H 0.13646 0.05014 0.60159 0.0
H1489 H 0.11408 0.03259 0.56178 0.0
H1490 H 0.15157 0.00156 0.49708 0.0
H1491 H 0.17415 0.01886 0.53701 0.0
C1492 C 0.19186 0.10785 0.51147 0.0
C1493 C 0.20885 0.11343 0.51356 0.0
C1494 C 0.18673 0.09256 0.53255 0.0
C1495 C 0.19845 0.08249 0.55624 0.0
C1496 C 0.21566 0.08731 0.55479 0.0
C1497 C 0.22084 0.10271 0.53363 0.0
C1498 C 0.19199 0.0684 0.58764 0.0
C1499 C 0.1806 0.05652 0.56683 0.0
C1500 C 0.19457 0.06841 0.63944 0.0
C1501 C 0.2059 0.08095 0.66415 0.0
C1502 C 0.22044 0.07575 0.68853 0.0
C1503 C 0.23123 0.08758 0.71165 0.0
C1504 C 0.22751 0.10463 0.71084 0.0
C1505 C 0.21294 0.10987 0.68713 0.0
C1506 C 0.2021 0.09809 0.66406 0.0
C1507 C 0.13918 0.01645 0.70267 0.0
C1508 C 0.12903 0.02774 0.72834 0.0
C1509 C 0.15414 0.02223 0.6797 0.0
C1510 C 0.15908 0.03934 0.68213 0.0
C1511 C 0.14974 0.0502 0.7116 0.0
C1512 C 0.13487 0.04447 0.7344 0.0
C1513 C 0.17221 0.04677 0.64882 0.0
C1514 C 0.18488 0.05737 0.66926 0.0
C1515 C 0.17046 0.04594 0.59677 0.0
C1516 C 0.15693 0.03561 0.57271 0.0
C1517 C 0.1399 0.03951 0.57908 0.0
C1518 C 0.12719 0.02962 0.5565 0.0
C1519 C 0.1314 0.01593 0.52706 0.0
C1520 C 0.14833 0.01214 0.52002 0.0
C1521 C 0.16108 0.02196 0.54261 0.0
H1522 H 0.12154 0.0083 0.50959 0.0
H1523 H 0.23589 0.11377 0.72869 0.0
H1524 H 0.69053 0.36869 0.49387 0.0
H1525 H 0.66883 0.38656 0.46002 0.0
H1526 H 0.66019 0.35131 0.34082 0.0
H1527 H 0.68176 0.3333 0.37452 0.0
H1528 H 0.66635 0.38407 0.30861 0.0
H1529 H 0.63049 0.35511 0.42542 0.0
H1530 H 0.62203 0.34418 0.50737 0.0
H1531 H 0.62232 0.39446 0.56525 0.0
H1532 H 0.63102 0.40569 0.48379 0.0
H1533 H 0.60149 0.43189 0.20322 0.0
H1534 H 0.61633 0.40834 0.23923 0.0
H1535 H 0.62302 0.4362 0.37511 0.0
H1536 H 0.60782 0.45947 0.34008 0.0
H1537 H 0.6161 0.40478 0.39635 0.0
H1538 H 0.65481 0.4337 0.2858 0.0
H1539 H 0.66456 0.44561 0.20618 0.0
H1540 H 0.66048 0.39666 0.13938 0.0
H1541 H 0.65048 0.38449 0.21852 0.0
C1542 C 0.68381 0.36458 0.46095 0.0
C1543 C 0.68793 0.34958 0.43684 0.0
C1544 C 0.67138 0.3748 0.44169 0.0
C1545 C 0.66289 0.37027 0.39788 0.0
C1546 C 0.6666 0.35505 0.37464 0.0
C1547 C 0.67889 0.34474 0.39413 0.0
C1548 C 0.65111 0.382 0.37445 0.0
C1549 C 0.65517 0.38836 0.32737 0.0
C1550 C 0.6368 0.38793 0.39952 0.0
C1551 C 0.63155 0.38122 0.44856 0.0
C1552 C 0.62889 0.36383 0.45572 0.0
C1553 C 0.62403 0.35758 0.50207 0.0
C1554 C 0.62168 0.36861 0.54152 0.0
C1555 C 0.62416 0.38593 0.53467 0.0
C1556 C 0.62904 0.39224 0.48839 0.0
C1557 C 0.606 0.43294 0.2409 0.0
C1558 C 0.60355 0.44763 0.26858 0.0
C1559 C 0.61455 0.41949 0.2614 0.0
C1560 C 0.62106 0.42057 0.3097 0.0
C1561 C 0.61815 0.43502 0.33782 0.0
C1562 C 0.60949 0.44838 0.31758 0.0
C1563 C 0.63142 0.40701 0.33061 0.0
C1564 C 0.62715 0.40035 0.37728 0.0
C1565 C 0.6457 0.40095 0.30548 0.0
C1566 C 0.6517 0.40823 0.25789 0.0
C1567 C 0.65586 0.4255 0.25402 0.0
C1568 C 0.66146 0.43229 0.20901 0.0
C1569 C 0.66309 0.42191 0.1677 0.0
C1570 C 0.65917 0.40469 0.17138 0.0
C1571 C 0.65355 0.39784 0.2163 0.0
H1572 H 0.66742 0.42718 0.13289 0.0
H1573 H 0.61791 0.36375 0.57738 0.0
H1574 H 0.35049 -0.00801 0.19772 0.0
H1575 H 0.3237 0.98264 0.15976 0.0
H1576 H 0.33117 0.93228 0.21265 0.0
H1577 H 0.35761 0.9415 0.25078 0.0
H1578 H 0.3212 0.96105 0.08636 0.0
H1579 H 0.29635 0.9105 0.2297 0.0
H1580 H 0.29226 0.90843 0.31983 0.0
H1581 H 0.29098 0.96222 0.33047 0.0
H1582 H 0.2948 0.96464 0.24027 0.0
H1583 H 0.30128 0.88235 -0.00255 0.0
H1584 H 0.30973 0.90932 0.03338 0.0
H1585 H 0.25866 0.91626 0.08314 0.0
H1586 H 0.25009 0.88896 0.04736 0.0
H1587 H 0.27977 0.91965 0.15744 0.0
H1588 H 0.27679 0.94477 0.00209 0.0
H1589 H 0.27975 0.94804 0.91186 0.0
H1590 H 0.33371 0.94779 0.92516 0.0
H1591 H 0.33111 0.94427 0.01536 0.0
C1592 C 0.34615 0.97904 0.20237 0.0
C1593 C 0.35623 0.96744 0.22686 0.0
C1594 C 0.33087 0.97371 0.18057 0.0
C1595 C 0.32534 0.95679 0.1836 0.0
C1596 C 0.33495 0.94547 0.21054 0.0
C1597 C 0.35019 0.95073 0.232 0.0
C1598 C 0.31101 0.95014 0.15336 0.0
C1599 C 0.31191 0.95223 0.10188 0.0
C1600 C 0.29841 0.93918 0.17372 0.0
C1601 C 0.29587 0.93775 0.22805 0.0
C1602 C 0.29504 0.9219 0.25112 0.0
C1603 C 0.29281 0.92066 0.30229 0.0
C1604 C 0.29137 0.93518 0.33086 0.0
C1605 C 0.29213 0.95098 0.30831 0.0
C1606 C 0.29435 0.95229 0.25715 0.0
C1607 C 0.29173 0.88976 0.01496 0.0
C1608 C 0.27506 0.88343 0.02003 0.0
C1609 C 0.29655 0.9053 0.03516 0.0
C1610 C 0.28481 0.9149 0.06075 0.0
C1611 C 0.26791 0.90909 0.06338 0.0
C1612 C 0.26303 0.89351 0.04282 0.0
C1613 C 0.29102 0.92951 0.09049 0.0
C1614 C 0.28859 0.92893 0.14189 0.0
C1615 C 0.30199 0.94208 0.07004 0.0
C1616 C 0.30373 0.94427 0.01567 0.0
C1617 C 0.2893 0.94533 0.9858 0.0
C1618 C 0.29091 0.94723 0.93461 0.0
C1619 C 0.3069 0.94813 0.91279 0.0
C1620 C 0.32132 0.94713 0.94213 0.0
C1621 C 0.31979 0.94523 -0.00667 0.0
H1622 H 0.30812 0.9496 0.87316 0.0
H1623 H 0.28966 0.9342 0.37047 0.0
H1624 H 0.79659 0.38095 0.49393 0.0
H1625 H 0.80653 0.40715 0.53171 0.0
H1626 H 0.75631 0.41585 0.58581 0.0
H1627 H 0.74624 0.38925 0.54845 0.0
H1628 H 0.80088 0.43995 0.53107 0.0
H1629 H 0.76135 0.43111 0.70433 0.0
H1630 H 0.74392 0.4094 0.74766 0.0
H1631 H 0.77513 0.37089 0.68967 0.0
H1632 H 0.79281 0.3924 0.6465 0.0
H1633 H 0.84919 0.49094 0.69694 0.0
H1634 H 0.82211 0.48109 0.66174 0.0
H1635 H 0.83197 0.43056 0.70889 0.0
H1636 H 0.85863 0.44027 0.74464 0.0
H1637 H 0.79908 0.43573 0.71401 0.0
H1638 H 0.84517 0.4459 0.59371 0.0
H1639 H 0.86595 0.46437 0.55015 0.0
H1640 H 0.82616 0.49567 0.50127 0.0
H1641 H 0.80517 0.47745 0.54503 0.0
C1642 C 0.78754 0.38856 0.51299 0.0
C1643 C 0.7707 0.38287 0.51901 0.0
C1644 C 0.79322 0.40364 0.53429 0.0
C1645 C 0.78222 0.41336 0.56217 0.0
C1646 C 0.76505 0.40845 0.56485 0.0
C1647 C 0.75931 0.39327 0.5434 0.0
C1648 C 0.78954 0.42707 0.59344 0.0
C1649 C 0.80013 0.43935 0.5711 0.0
C1650 C 0.78862 0.42631 0.64568 0.0
C1651 C 0.77821 0.41331 0.67176 0.0
C1652 C 0.76447 0.418 0.70093 0.0
C1653 C 0.75456 0.40575 0.72545 0.0
C1654 C 0.75837 0.38877 0.72125 0.0
C1655 C 0.77215 0.38403 0.69274 0.0
C1656 C 0.78211 0.39624 0.66825 0.0
C1657 C 0.84533 0.47782 0.70096 0.0
C1658 C 0.85618 0.46631 0.72276 0.0
C1659 C 0.82988 0.47222 0.68074 0.0
C1660 C 0.82514 0.45505 0.68199 0.0
C1661 C 0.83533 0.44387 0.70742 0.0
C1662 C 0.85068 0.44942 0.72755 0.0
C1663 C 0.81105 0.44799 0.65157 0.0
C1664 C 0.79915 0.437 0.67407 0.0
C1665 C 0.81111 0.44961 0.59943 0.0
C1666 C 0.82367 0.46048 0.57306 0.0
C1667 C 0.84089 0.45678 0.57387 0.0
C1668 C 0.85269 0.46719 0.54916 0.0
C1669 C 0.84738 0.48122 0.5231 0.0
C1670 C 0.83025 0.48483 0.52159 0.0
C1671 C 0.81841 0.47448 0.54634 0.0
H1672 H 0.85654 0.48926 0.50398 0.0
H1673 H 0.75067 0.37931 0.74021 0.0
H1674 H 0.28204 0.13896 0.39928 0.0
H1675 H 0.30481 0.12285 0.36391 0.0
H1676 H 0.32513 0.11518 0.50952 0.0
H1677 H 0.30213 0.13111 0.54565 0.0
H1678 H 0.35 0.12366 0.42864 0.0
H1679 H 0.30362 0.0851 0.47036 0.0
H1680 H 0.27377 0.07531 0.4695 0.0
H1681 H 0.27493 0.07263 0.31096 0.0
H1682 H 0.30473 0.08268 0.31087 0.0
H1683 H 0.40097 0.05349 0.3844 0.0
H1684 H 0.38201 0.07481 0.4138 0.0
H1685 H 0.35291 0.06976 0.27959 0.0
H1686 H 0.37152 0.04786 0.25075 0.0
H1687 H 0.33257 0.06893 0.35318 0.0
H1688 H 0.37866 0.10589 0.30867 0.0
H1689 H 0.40815 0.11675 0.30602 0.0
H1690 H 0.40765 0.12375 0.46343 0.0
H1691 H 0.37821 0.11272 0.46714 0.0
C1692 C 0.29145 0.13406 0.42389 0.0
C1693 C 0.29019 0.13624 0.47541 0.0
C1694 C 0.30445 0.12484 0.40353 0.0
C1695 C 0.31657 0.11777 0.43413 0.0
C1696 C 0.31588 0.12057 0.48533 0.0
C1697 C 0.3027 0.12962 0.50589 0.0
C1698 C 0.32919 0.10648 0.41277 0.0
C1699 C 0.34629 0.1116 0.41261 0.0
C1700 C 0.32421 0.09101 0.39057 0.0
C1701 C 0.30634 0.08482 0.39059 0.0
C1702 C 0.29747 0.08257 0.4353 0.0
C1703 C 0.28057 0.07695 0.43499 0.0
C1704 C 0.27244 0.0734 0.39019 0.0
C1705 C 0.28123 0.07542 0.34562 0.0
C1706 C 0.29812 0.08107 0.34573 0.0
C1707 C 0.3907 0.05708 0.36069 0.0
C1708 C 0.38775 0.04891 0.31523 0.0
C1709 C 0.37988 0.06939 0.37752 0.0
C1710 C 0.36605 0.07407 0.34883 0.0
C1711 C 0.36345 0.06636 0.30253 0.0
C1712 C 0.37415 0.05388 0.28596 0.0
C1713 C 0.35361 0.08602 0.36873 0.0
C1714 C 0.33644 0.08102 0.36881 0.0
C1715 C 0.35856 0.10168 0.39027 0.0
C1716 C 0.37627 0.10833 0.38822 0.0
C1717 C 0.38487 0.10962 0.34278 0.0
C1718 C 0.40157 0.11583 0.34108 0.0
C1719 C 0.40978 0.1209 0.38454 0.0
C1720 C 0.40128 0.1198 0.4298 0.0
C1721 C 0.38458 0.11359 0.43171 0.0
H1722 H 0.42271 0.1257 0.38315 0.0
H1723 H 0.25936 0.06904 0.39003 0.0
H1724 H 0.62889 0.55677 0.24385 0.0
H1725 H 0.65528 0.56608 0.20529 0.0
H1726 H 0.66352 0.5155 0.15519 0.0
H1727 H 0.63675 0.50604 0.19349 0.0
H1728 H 0.68825 0.56004 0.20612 0.0
H1729 H 0.67857 0.51953 0.03589 0.0
H1730 H 0.65655 0.50198 -0.0057 0.0
H1731 H 0.61829 0.53386 0.05072 0.0
H1732 H 0.64011 0.55166 0.09213 0.0
H1733 H 0.73865 0.60752 0.03693 0.0
H1734 H 0.72909 0.58053 0.07279 0.0
H1735 H 0.67809 0.58999 0.02756 0.0
H1736 H 0.68751 0.61656 -0.00885 0.0
H1737 H 0.68334 0.55721 0.02344 0.0
H1738 H 0.69404 0.60371 0.14181 0.0
H1739 H 0.71286 0.62458 0.18354 0.0
H1740 H 0.74465 0.58513 0.23175 0.0
H1741 H 0.72607 0.56406 0.18982 0.0
C1742 C 0.63646 0.54752 0.22556 0.0
C1743 C 0.63059 0.53074 0.22093 0.0
C1744 C 0.65164 0.55284 0.20382 0.0
C1745 C 0.66128 0.54154 0.17679 0.0
C1746 C 0.65619 0.52445 0.17552 0.0
C1747 C 0.64092 0.51907 0.19751 0.0
C1748 C 0.67504 0.54845 0.14478 0.0
C1749 C 0.68752 0.55905 0.16616 0.0
C1750 C 0.6741 0.54721 0.09262 0.0
C1751 C 0.66092 0.53674 0.06754 0.0
C1752 C 0.66545 0.52277 0.03931 0.0
C1753 C 0.65302 0.51279 0.01579 0.0
C1754 C 0.63602 0.51676 0.02003 0.0
C1755 C 0.63144 0.53076 0.0476 0.0
C1756 C 0.64383 0.54079 0.0711 0.0
C1757 C 0.72549 0.60359 0.03345 0.0
C1758 C 0.71376 0.61432 0.01208 0.0
C1759 C 0.72005 0.58819 0.05403 0.0
C1760 C 0.70283 0.58337 0.05359 0.0
C1761 C 0.69144 0.59341 0.02842 0.0
C1762 C 0.69683 0.60871 0.00792 0.0
C1763 C 0.69593 0.56944 0.08485 0.0
C1764 C 0.68478 0.55749 0.06333 0.0
C1765 C 0.69776 0.56977 0.13692 0.0
C1766 C 0.70883 0.58238 0.16227 0.0
C1767 C 0.7051 0.59952 0.16113 0.0
C1768 C 0.71571 0.61138 0.1848 0.0
C1769 C 0.72998 0.60619 0.21015 0.0
C1770 C 0.73363 0.58913 0.21199 0.0
C1771 C 0.72307 0.57724 0.18828 0.0
H1772 H 0.73818 0.61538 0.22846 0.0
H1773 H 0.62642 0.50901 0.00185 0.0
H1774 H 0.18077 0.86317 0.04385 0.0
H1775 H 0.15814 0.87873 0.00487 0.0
H1776 H 0.18204 0.87321 0.86275 0.0
H1777 H 0.20449 0.85748 0.901 0.0
H1778 H 0.17443 0.90678 0.888 0.0
H1779 H 0.14748 0.85179 0.88165 0.0
H1780 H 0.13681 0.8248 0.91618 0.0
H1781 H 0.10358 0.85101 0.01277 0.0
H1782 H 0.11425 0.87819 0.97931 0.0
H1783 H 0.1129 0.94665 0.74755 0.0
H1784 H 0.13171 0.92493 0.77607 0.0
H1785 H 0.10359 0.92067 0.91251 0.0
H1786 H 0.0844 0.94185 0.88348 0.0
H1787 H 0.11335 0.89098 0.88759 0.0
H1788 H 0.14082 0.94542 0.90156 0.0
H1789 H 0.15152 0.9731 0.87205 0.0
H1790 H 0.18394 0.94899 0.76835 0.0
H1791 H 0.17326 0.92115 0.79681 0.0
C1792 C 0.18109 0.86507 0.00421 0.0
C1793 C 0.19447 0.85911 0.97561 0.0
C1794 C 0.16813 0.87393 0.982 0.0
C1795 C 0.16844 0.87712 0.93093 0.0
C1796 C 0.18158 0.87089 0.9022 0.0
C1797 C 0.19438 0.86185 0.92419 0.0
C1798 C 0.15565 0.88781 0.90782 0.0
C1799 C 0.1611 0.90322 0.88717 0.0
C1800 C 0.13822 0.88336 0.90814 0.0
C1801 C 0.1318 0.86703 0.92832 0.0
C1802 C 0.13802 0.85181 0.91059 0.0
C1803 C 0.13194 0.83647 0.9299 0.0
C1804 C 0.11956 0.83619 0.96675 0.0
C1805 C 0.11319 0.85125 0.98428 0.0
C1806 C 0.11924 0.86662 0.96512 0.0
C1807 C 0.11057 0.94089 0.78329 0.0
C1808 C 0.09725 0.94612 0.81342 0.0
C1809 C 0.12139 0.92854 0.79971 0.0
C1810 C 0.11935 0.92143 0.84703 0.0
C1811 C 0.10551 0.92599 0.876 0.0
C1812 C 0.09455 0.93816 0.85932 0.0
C1813 C 0.13211 0.91002 0.8676 0.0
C1814 C 0.12668 0.89452 0.88803 0.0
C1815 C 0.14958 0.9145 0.86789 0.0
C1816 C 0.15611 0.93121 0.85093 0.0
C1817 C 0.15015 0.94603 0.87223 0.0
C1818 C 0.15622 0.96174 0.85572 0.0
C1819 C 0.16836 0.96281 0.81824 0.0
C1820 C 0.17451 0.94815 0.79731 0.0
C1821 C 0.16846 0.9324 0.81363 0.0
H1822 H 0.17304 0.97499 0.8055 0.0
H1823 H 0.11486 0.82431 0.98163 0.0
loop_
_geom_bond_atom_site_label_1
_geom_bond_atom_site_label_2
_geom_bond_distance
_geom_bond_site_symmetry_2
_ccdc_geom_bond_type
Zn0 O3 2.031 1_556 S
Zn0 O5 2.049 . S
Zn0 O10 2.067 . S
Zn1 O2 1.962 . S
Zn1 O4 1.986 . S
Zn1 O6 1.996 . S
Zn1 O9 1.943 1_554 S
O2 Zn1 1.962 . S
O2 C7 1.254 . S
O3 Zn0 2.031 1_554 S
O3 C7 1.269 . S
O4 Zn1 1.986 . S
O4 C11 1.262 . S
O5 Zn0 2.049 . S
O5 C13 1.260 . S
O6 Zn1 1.996 . S
O6 C13 1.257 1_554 S
C7 O2 1.254 . S
C7 O3 1.269 . S
C8 O9 1.249 . S
C8 O10 1.270 . S
O9 Zn1 1.943 1_556 S
O9 C8 1.249 . S
O10 Zn0 2.067 . S
O10 C8 1.270 . S
C11 O4 1.262 . S
C11 O12 1.232 . S
O12 C11 1.232 . S
C13 O5 1.260 . S
C13 O6 1.257 1_556 S
Zn14 O17 2.031 . S
Zn14 O19 2.049 . S
Zn14 O24 2.067 . S
Zn15 O16 1.962 . S
Zn15 O18 1.986 . S
Zn15 O20 1.996 1_545 S
Zn15 O23 1.943 . S
O16 Zn15 1.962 . S
O16 C21 1.254 . S
O17 Zn14 2.031 . S
O17 C21 1.269 1_565 S
O18 Zn15 1.986 . S
O18 C25 1.262 . S
O19 Zn14 2.049 . S
O19 C27 1.260 . S
O20 Zn15 1.996 1_565 S
O20 C27 1.257 . S
C21 O16 1.254 . S
C21 O17 1.269 1_545 S
C22 O23 1.249 . S
C22 O24 1.270 1_545 S
O23 Zn15 1.943 . S
O23 C22 1.249 . S
O24 Zn14 2.067 . S
O24 C22 1.270 1_565 S
C25 O18 1.262 . S
C25 O26 1.232 . S
O26 C25 1.232 . S
C27 O19 1.260 . S
C27 O20 1.257 . S
Zn28 O31 2.031 . S
Zn28 O33 2.049 . S
Zn28 O38 2.067 . S
Zn29 O30 1.962 . S
Zn29 O32 1.986 . S
Zn29 O34 1.996 . S
Zn29 O37 1.943 . S
O30 Zn29 1.962 . S
O30 C35 1.254 . S
O31 Zn28 2.031 . S
O31 C35 1.269 . S
O32 Zn29 1.986 . S
O32 C39 1.262 . S
O33 Zn28 2.049 . S
O33 C41 1.260 . S
O34 Zn29 1.996 . S
O34 C41 1.257 . S
C35 O30 1.254 . S
C35 O31 1.269 . S
C36 O37 1.249 . S
C36 O38 1.270 . S
O37 Zn29 1.943 . S
O37 C36 1.249 . S
O38 Zn28 2.067 . S
O38 C36 1.270 . S
C39 O32 1.262 . S
C39 O40 1.232 . S
O40 C39 1.232 . S
C41 O33 1.260 . S
C41 O34 1.257 . S
Zn42 O45 2.031 . S
Zn42 O47 2.049 . S
Zn42 O52 2.067 . S
Zn43 O44 1.962 . S
Zn43 O46 1.986 1_545 S
Zn43 O48 1.996 . S
Zn43 O51 1.943 1_545 S
O44 Zn43 1.962 . S
O44 C49 1.254 . S
O45 Zn42 2.031 . S
O45 C49 1.269 . S
O46 Zn43 1.986 1_565 S
O46 C53 1.262 . S
O47 Zn42 2.049 . S
O47 C55 1.260 . S
O48 Zn43 1.996 . S
O48 C55 1.257 . S
C49 O44 1.254 . S
C49 O45 1.269 . S
C50 O51 1.249 1_545 S
C50 O52 1.270 . S
O51 Zn43 1.943 1_565 S
O51 C50 1.249 1_565 S
O52 Zn42 2.067 . S
O52 C50 1.270 . S
C53 O46 1.262 . S
C53 O54 1.232 . S
O54 C53 1.232 . S
C55 O47 1.260 . S
C55 O48 1.257 . S
Zn56 O59 2.031 1_554 S
Zn56 O61 2.049 . S
Zn56 O66 2.067 . S
Zn57 O58 1.962 . S
Zn57 O60 1.986 . S
Zn57 O62 1.996 1_556 S
Zn57 O65 1.943 1_556 S
O58 Zn57 1.962 . S
O58 C63 1.254 . S
O59 Zn56 2.031 1_556 S
O59 C63 1.269 . S
O60 Zn57 1.986 . S
O60 C67 1.262 . S
O61 Zn56 2.049 . S
O61 C69 1.260 . S
O62 Zn57 1.996 1_554 S
O62 C69 1.257 . S
C63 O58 1.254 . S
C63 O59 1.269 . S
C64 O65 1.249 . S
C64 O66 1.270 . S
O65 Zn57 1.943 1_554 S
O65 C64 1.249 . S
O66 Zn56 2.067 . S
O66 C64 1.270 . S
C67 O60 1.262 . S
C67 O68 1.232 . S
O68 C67 1.232 . S
C69 O61 1.260 . S
C69 O62 1.257 . S
Zn70 O73 2.031 . S
Zn70 O75 2.049 . S
Zn70 O80 2.067 . S
Zn71 O72 1.962 . S
Zn71 O74 1.986 1_545 S
Zn71 O76 1.996 . S
Zn71 O79 1.943 1_545 S
O72 Zn71 1.962 . S
O72 C77 1.254 . S
O73 Zn70 2.031 . S
O73 C77 1.269 . S
O74 Zn71 1.986 1_565 S
O74 C81 1.262 . S
O75 Zn70 2.049 . S
O75 C83 1.260 . S
O76 Zn71 1.996 . S
O76 C83 1.257 . S
C77 O72 1.254 . S
C77 O73 1.269 . S
C78 O79 1.249 1_545 S
C78 O80 1.270 . S
O79 Zn71 1.943 1_565 S
O79 C78 1.249 1_565 S
O80 Zn70 2.067 . S
O80 C78 1.270 . S
C81 O74 1.262 . S
C81 O82 1.232 . S
O82 C81 1.232 . S
C83 O75 1.260 . S
C83 O76 1.257 . S
Zn84 O87 2.031 . S
Zn84 O89 2.049 . S
Zn84 O94 2.067 . S
Zn85 O86 1.962 . S
Zn85 O88 1.986 . S
Zn85 O90 1.996 . S
Zn85 O93 1.943 . S
O86 Zn85 1.962 . S
O86 C91 1.254 . S
O87 Zn84 2.031 . S
O87 C91 1.269 . S
O88 Zn85 1.986 . S
O88 C95 1.262 . S
O89 Zn84 2.049 . S
O89 C97 1.260 . S
O90 Zn85 1.996 . S
O90 C97 1.257 . S
C91 O86 1.254 . S
C91 O87 1.269 . S
C92 O93 1.249 . S
C92 O94 1.270 . S
O93 Zn85 1.943 . S
O93 C92 1.249 . S
O94 Zn84 2.067 . S
O94 C92 1.270 . S
C95 O88 1.262 . S
C95 O96 1.232 . S
O96 C95 1.232 . S
C97 O89 1.260 . S
C97 O90 1.257 . S
Zn98 O101 2.031 . S
Zn98 O103 2.049 . S
Zn98 O108 2.067 . S
Zn99 O100 1.962 . S
Zn99 O102 1.986 . S
Zn99 O104 1.996 1_545 S
Zn99 O107 1.943 . S
O100 Zn99 1.962 . S
O100 C105 1.254 . S
O101 Zn98 2.031 . S
O101 C105 1.269 1_565 S
O102 Zn99 1.986 . S
O102 C109 1.262 . S
O103 Zn98 2.049 . S
O103 C111 1.260 . S
O104 Zn99 1.996 1_565 S
O104 C111 1.257 . S
C105 O100 1.254 . S
C105 O101 1.269 1_545 S
C106 O107 1.249 . S
C106 O108 1.270 1_545 S
O107 Zn99 1.943 . S
O107 C106 1.249 . S
O108 Zn98 2.067 . S
O108 C106 1.270 1_565 S
C109 O102 1.262 . S
C109 O110 1.232 . S
O110 C109 1.232 . S
C111 O103 1.260 . S
C111 O104 1.257 . S
Zn112 O115 2.031 . S
Zn112 O117 2.049 . S
Zn112 O122 2.067 . S
Zn113 O114 1.962 . S
Zn113 O116 1.986 . S
Zn113 O118 1.996 . S
Zn113 O121 1.943 . S
O114 Zn113 1.962 . S
O114 C119 1.254 . S
O115 Zn112 2.031 . S
O115 C119 1.269 . S
O116 Zn113 1.986 . S
O116 C123 1.262 . S
O117 Zn112 2.049 . S
O117 C125 1.260 . S
O118 Zn113 1.996 . S
O118 C125 1.257 . S
C119 O114 1.254 . S
C119 O115 1.269 . S
C120 O121 1.249 . S
C120 O122 1.270 . S
O121 Zn113 1.943 . S
O121 C120 1.249 . S
O122 Zn112 2.067 . S
O122 C120 1.270 . S
C123 O116 1.262 . S
C123 O124 1.232 . S
O124 C123 1.232 . S
C125 O117 1.260 . S
C125 O118 1.257 . S
Zn126 O129 2.031 . S
Zn126 O131 2.049 . S
Zn126 O136 2.067 . S
Zn127 O128 1.962 . S
Zn127 O130 1.986 . S
Zn127 O132 1.996 . S
Zn127 O135 1.943 . S
O128 Zn127 1.962 . S
O128 C133 1.254 . S
O129 Zn126 2.031 . S
O129 C133 1.269 . S
O130 Zn127 1.986 . S
O130 C137 1.262 . S
O131 Zn126 2.049 . S
O131 C139 1.260 . S
O132 Zn127 1.996 . S
O132 C139 1.257 . S
C133 O128 1.254 . S
C133 O129 1.269 . S
C134 O135 1.249 . S
C134 O136 1.270 . S
O135 Zn127 1.943 . S
O135 C134 1.249 . S
O136 Zn126 2.067 . S
O136 C134 1.270 . S
C137 O130 1.262 . S
C137 O138 1.232 . S
O138 C137 1.232 . S
C139 O131 1.260 . S
C139 O132 1.257 . S
Zn140 O143 2.031 1_556 S
Zn140 O145 2.049 . S
Zn140 O150 2.067 . S
Zn141 O142 1.962 . S
Zn141 O144 1.986 . S
Zn141 O146 1.996 . S
Zn141 O149 1.943 1_554 S
O142 Zn141 1.962 . S
O142 C147 1.254 . S
O143 Zn140 2.031 1_554 S
O143 C147 1.269 . S
O144 Zn141 1.986 . S
O144 C151 1.262 . S
O145 Zn140 2.049 . S
O145 C153 1.260 . S
O146 Zn141 1.996 . S
O146 C153 1.257 1_554 S
C147 O142 1.254 . S
C147 O143 1.269 . S
C148 O149 1.249 . S
C148 O150 1.270 . S
O149 Zn141 1.943 1_556 S
O149 C148 1.249 . S
O150 Zn140 2.067 . S
O150 C148 1.270 . S
C151 O144 1.262 . S
C151 O152 1.232 . S
O152 C151 1.232 . S
C153 O145 1.260 . S
C153 O146 1.257 1_556 S
Zn154 O157 2.031 . S
Zn154 O159 2.049 . S
Zn154 O164 2.067 . S
Zn155 O156 1.962 . S
Zn155 O158 1.986 . S
Zn155 O160 1.996 . S
Zn155 O163 1.943 . S
O156 Zn155 1.962 . S
O156 C161 1.254 . S
O157 Zn154 2.031 . S
O157 C161 1.269 . S
O158 Zn155 1.986 . S
O158 C165 1.262 . S
O159 Zn154 2.049 . S
O159 C167 1.260 . S
O160 Zn155 1.996 . S
O160 C167 1.257 . S
C161 O156 1.254 . S
C161 O157 1.269 . S
C162 O163 1.249 . S
C162 O164 1.270 . S
O163 Zn155 1.943 . S
O163 C162 1.249 . S
O164 Zn154 2.067 . S
O164 C162 1.270 . S
C165 O158 1.262 . S
C165 O166 1.232 . S
O166 C165 1.232 . S
C167 O159 1.260 . S
C167 O160 1.257 . S
Zn168 O171 2.031 . S
Zn168 O173 2.049 . S
Zn168 O178 2.067 . S
Zn169 O170 1.962 . S
Zn169 O172 1.986 . S
Zn169 O174 1.996 . S
Zn169 O177 1.943 . S
O170 Zn169 1.962 . S
O170 C175 1.254 . S
O171 Zn168 2.031 . S
O171 C175 1.269 . S
O172 Zn169 1.986 . S
O172 C179 1.262 . S
O173 Zn168 2.049 . S
O173 C181 1.260 . S
O174 Zn169 1.996 . S
O174 C181 1.257 . S
C175 O170 1.254 . S
C175 O171 1.269 . S
C176 O177 1.249 . S
C176 O178 1.270 . S
O177 Zn169 1.943 . S
O177 C176 1.249 . S
O178 Zn168 2.067 . S
O178 C176 1.270 . S
C179 O172 1.262 . S
C179 O180 1.232 . S
O180 C179 1.232 . S
C181 O173 1.260 . S
C181 O174 1.257 . S
Zn182 O185 2.031 . S
Zn182 O187 2.049 . S
Zn182 O192 2.067 . S
Zn183 O184 1.962 . S
Zn183 O186 1.986 . S
Zn183 O188 1.996 . S
Zn183 O191 1.943 . S
O184 Zn183 1.962 . S
O184 C189 1.254 . S
O185 Zn182 2.031 . S
O185 C189 1.269 . S
O186 Zn183 1.986 . S
O186 C193 1.262 . S
O187 Zn182 2.049 . S
O187 C195 1.260 . S
O188 Zn183 1.996 . S
O188 C195 1.257 . S
C189 O184 1.254 . S
C189 O185 1.269 . S
C190 O191 1.249 . S
C190 O192 1.270 . S
O191 Zn183 1.943 . S
O191 C190 1.249 . S
O192 Zn182 2.067 . S
O192 C190 1.270 . S
C193 O186 1.262 . S
C193 O194 1.232 . S
O194 C193 1.232 . S
C195 O187 1.260 . S
C195 O188 1.257 . S
Zn196 O199 2.031 1_554 S
Zn196 O201 2.049 . S
Zn196 O206 2.067 . S
Zn197 O198 1.962 . S
Zn197 O200 1.986 . S
Zn197 O202 1.996 1_556 S
Zn197 O205 1.943 1_556 S
O198 Zn197 1.962 . S
O198 C203 1.254 . S
O199 Zn196 2.031 1_556 S
O199 C203 1.269 . S
O200 Zn197 1.986 . S
O200 C207 1.262 . S
O201 Zn196 2.049 . S
O201 C209 1.260 . S
O202 Zn197 1.996 1_554 S
O202 C209 1.257 . S
C203 O198 1.254 . S
C203 O199 1.269 . S
C204 O205 1.249 . S
C204 O206 1.270 . S
O205 Zn197 1.943 1_554 S
O205 C204 1.249 . S
O206 Zn196 2.067 . S
O206 C204 1.270 . S
C207 O200 1.262 . S
C207 O208 1.232 . S
O208 C207 1.232 . S
C209 O201 1.260 . S
C209 O202 1.257 . S
Zn210 O213 2.031 . S
Zn210 O215 2.049 . S
Zn210 O220 2.067 . S
Zn211 O212 1.962 . S
Zn211 O214 1.986 . S
Zn211 O216 1.996 . S
Zn211 O219 1.943 . S
O212 Zn211 1.962 . S
O212 C217 1.254 . S
O213 Zn210 2.031 . S
O213 C217 1.269 . S
O214 Zn211 1.986 . S
O214 C221 1.262 . S
O215 Zn210 2.049 . S
O215 C223 1.260 . S
O216 Zn211 1.996 . S
O216 C223 1.257 . S
C217 O212 1.254 . S
C217 O213 1.269 . S
C218 O219 1.249 . S
C218 O220 1.270 . S
O219 Zn211 1.943 . S
O219 C218 1.249 . S
O220 Zn210 2.067 . S
O220 C218 1.270 . S
C221 O214 1.262 . S
C221 O222 1.232 . S
O222 C221 1.232 . S
C223 O215 1.260 . S
C223 O216 1.257 . S
H224 C242 0.951 . S
H225 C244 0.951 . S
H226 C246 0.950 . S
H227 C247 0.950 . S
H228 C249 0.950 . S
H229 C252 0.950 . S
H230 C253 0.950 . S
H231 C255 0.950 . S
H232 C256 0.950 . S
H233 C257 0.951 . S
H234 C259 0.951 . S
H235 C261 0.950 . S
H236 C262 0.950 . S
H237 C264 0.950 . S
H238 C267 0.950 . S
H239 C268 0.950 . S
H240 C270 0.950 . S
H241 C271 0.950 . S
C242 H224 0.951 . S
C242 C243 1.366 . S
C242 C244 1.388 . S
C243 C242 1.366 . S
C243 C247 1.385 . S
C244 H225 0.951 . S
C244 C242 1.388 . S
C244 C245 1.366 . S
C245 C244 1.366 . S
C245 C246 1.414 . S
C245 C248 1.499 . S
C246 H226 0.950 . S
C246 C245 1.414 . S
C246 C247 1.374 . S
C247 H227 0.950 . S
C247 C243 1.385 . S
C247 C246 1.374 . S
C248 C245 1.499 . S
C248 C249 1.373 . S
C248 C250 1.389 . S
C249 H228 0.950 . S
C249 C248 1.373 . S
C249 C265 1.377 . S
C250 C248 1.389 . S
C250 C251 1.524 . S
C250 C264 1.377 . S
C251 C250 1.524 . S
C251 C252 1.397 . S
C251 C256 1.363 . S
C252 H229 0.950 . S
C252 C251 1.397 . S
C252 C253 1.334 . S
C253 H230 0.950 . S
C253 C252 1.334 . S
C253 C254 1.287 . S
C254 C253 1.287 . S
C254 C255 1.524 . S
C254 H273 0.913 . S
C255 H231 0.950 . S
C255 C254 1.524 . S
C255 C256 1.415 . S
C256 H232 0.950 . S
C256 C251 1.363 . S
C256 C255 1.415 . S
C257 H233 0.951 . S
C257 C258 1.366 . S
C257 C259 1.388 . S
C258 C257 1.366 . S
C258 C262 1.385 . S
C259 H234 0.951 . S
C259 C257 1.388 . S
C259 C260 1.366 . S
C260 C259 1.366 . S
C260 C261 1.414 . S
C260 C263 1.499 . S
C261 H235 0.950 . S
C261 C260 1.414 . S
C261 C262 1.374 . S
C262 H236 0.950 . S
C262 C258 1.385 . S
C262 C261 1.374 . S
C263 C260 1.499 . S
C263 C264 1.373 . S
C263 C265 1.389 . S
C264 H237 0.950 . S
C264 C250 1.377 . S
C264 C263 1.373 . S
C265 C249 1.377 . S
C265 C263 1.389 . S
C265 C266 1.524 . S
C266 C265 1.524 . S
C266 C267 1.397 . S
C266 C271 1.363 . S
C267 H238 0.950 . S
C267 C266 1.397 . S
C267 C268 1.334 . S
C268 H239 0.950 . S
C268 C267 1.334 . S
C268 C269 1.287 . S
C269 C268 1.287 . S
C269 C270 1.524 . S
C269 H272 0.999 . S
C270 H240 0.950 . S
C270 C269 1.524 . S
C270 C271 1.415 . S
C271 H241 0.950 . S
C271 C266 1.363 . S
C271 C270 1.415 . S
H272 C269 0.999 . S
H273 C254 0.913 . S
H274 C292 0.951 1_565 S
H275 C294 0.953 . S
H276 C296 0.950 . S
H277 C297 0.950 . S
H278 C299 0.950 . S
H279 C302 0.950 . S
H280 C303 0.950 . S
H281 C305 0.950 . S
H282 C306 0.950 . S
H283 C307 0.951 . S
H284 C309 0.951 . S
H285 C311 0.950 . S
H286 C312 0.950 . S
H287 C314 0.959 . S
H288 C317 0.950 . S
H289 C318 0.950 . S
H290 C320 0.950 . S
H291 C321 0.950 . S
C292 H274 0.951 1_545 S
C292 C293 1.366 . S
C292 C294 1.387 1_545 S
C293 C292 1.366 . S
C293 C297 1.385 . S
C294 H275 0.953 . S
C294 C292 1.387 1_565 S
C294 C295 1.364 1_565 S
C295 C294 1.364 1_545 S
C295 C296 1.414 . S
C295 C298 1.499 . S
C296 H276 0.950 . S
C296 C295 1.414 . S
C296 C297 1.374 . S
C297 H277 0.950 . S
C297 C293 1.385 . S
C297 C296 1.374 . S
C298 C295 1.499 . S
C298 C299 1.373 1_655 S
C298 C300 1.389 . S
C299 H278 0.950 . S
C299 C298 1.373 1_455 S
C299 C315 1.377 . S
C300 C298 1.389 . S
C300 C301 1.524 . S
C300 C314 1.377 . S
C301 C300 1.524 . S
C301 C302 1.397 . S
C301 C306 1.363 1_545 S
C302 H279 0.950 . S
C302 C301 1.397 . S
C302 C303 1.334 . S
C303 H280 0.950 . S
C303 C302 1.334 . S
C303 C304 1.287 . S
C304 C303 1.287 . S
C304 C305 1.524 1_545 S
C304 H323 0.913 . S
C305 H281 0.950 . S
C305 C304 1.524 1_565 S
C305 C306 1.415 . S
C306 H282 0.950 . S
C306 C301 1.363 1_565 S
C306 C305 1.415 . S
C307 H283 0.951 . S
C307 C308 1.366 . S
C307 C309 1.388 . S
C308 C307 1.366 . S
C308 C312 1.384 1_545 S
C309 H284 0.951 . S
C309 C307 1.388 . S
C309 C310 1.366 . S
C310 C309 1.366 . S
C310 C311 1.414 1_545 S
C310 C313 1.499 . S
C311 H285 0.950 . S
C311 C310 1.414 1_565 S
C311 C312 1.374 . S
C312 H286 0.950 . S
C312 C308 1.384 1_565 S
C312 C311 1.374 . S
C313 C310 1.499 . S
C313 C314 1.373 1_455 S
C313 C315 1.389 . S
C314 H287 0.959 . S
C314 C300 1.377 . S
C314 C313 1.373 1_655 S
C315 C299 1.377 . S
C315 C313 1.389 . S
C315 C316 1.524 . S
C316 C315 1.524 . S
C316 C317 1.397 1_545 S
C316 C321 1.363 . S
C317 H288 0.950 . S
C317 C316 1.397 1_565 S
C317 C318 1.334 . S
C318 H289 0.950 . S
C318 C317 1.334 . S
C318 C319 1.287 1_565 S
C319 C318 1.287 1_545 S
C319 C320 1.524 . S
C319 H322 0.999 . S
C320 H290 0.950 . S
C320 C319 1.524 . S
C320 C321 1.415 . S
C321 H291 0.950 . S
C321 C316 1.363 . S
C321 C320 1.415 . S
H322 C319 0.999 . S
H323 C304 0.913 . S
H324 C342 0.951 . S
H325 C344 0.951 . S
H326 C346 0.950 . S
H327 C347 0.950 . S
H328 C349 0.950 . S
H329 C352 0.950 . S
H330 C353 0.950 . S
H331 C355 0.950 . S
H332 C356 0.950 . S
H333 C357 0.951 . S
H334 C359 0.951 . S
H335 C361 0.950 . S
H336 C362 0.950 . S
H337 C364 0.950 . S
H338 C367 0.950 . S
H339 C368 0.950 . S
H340 C370 0.950 . S
H341 C371 0.950 . S
C342 H324 0.951 . S
C342 C343 1.366 . S
C342 C344 1.388 . S
C343 C342 1.366 . S
C343 C347 1.385 . S
C344 H325 0.951 . S
C344 C342 1.388 . S
C344 C345 1.366 . S
C345 C344 1.366 . S
C345 C346 1.414 . S
C345 C348 1.499 . S
C346 H326 0.950 . S
C346 C345 1.414 . S
C346 C347 1.374 . S
C347 H327 0.950 . S
C347 C343 1.385 . S
C347 C346 1.374 . S
C348 C345 1.499 . S
C348 C349 1.373 . S
C348 C350 1.389 . S
C349 H328 0.950 . S
C349 C348 1.373 . S
C349 C365 1.377 . S
C350 C348 1.389 . S
C350 C351 1.524 . S
C350 C364 1.377 . S
C351 C350 1.524 . S
C351 C352 1.397 . S
C351 C356 1.363 . S
C352 H329 0.950 . S
C352 C351 1.397 . S
C352 C353 1.334 . S
C353 H330 0.950 . S
C353 C352 1.334 . S
C353 C354 1.287 . S
C354 C353 1.287 . S
C354 C355 1.524 . S
C354 H373 0.913 . S
C355 H331 0.950 . S
C355 C354 1.524 . S
C355 C356 1.415 . S
C356 H332 0.950 . S
C356 C351 1.363 . S
C356 C355 1.415 . S
C357 H333 0.951 . S
C357 C358 1.366 . S
C357 C359 1.388 . S
C358 C357 1.366 . S
C358 C362 1.385 . S
C359 H334 0.951 . S
C359 C357 1.388 . S
C359 C360 1.366 . S
C360 C359 1.366 . S
C360 C361 1.414 . S
C360 C363 1.499 . S
C361 H335 0.950 . S
C361 C360 1.414 . S
C361 C362 1.374 . S
C362 H336 0.950 . S
C362 C358 1.385 . S
C362 C361 1.374 . S
C363 C360 1.499 . S
C363 C364 1.373 . S
C363 C365 1.389 . S
C364 H337 0.950 . S
C364 C350 1.377 . S
C364 C363 1.373 . S
C365 C349 1.377 . S
C365 C363 1.389 . S
C365 C366 1.524 . S
C366 C365 1.524 . S
C366 C367 1.397 . S
C366 C371 1.363 . S
C367 H338 0.950 . S
C367 C366 1.397 . S
C367 C368 1.334 . S
C368 H339 0.950 . S
C368 C367 1.334 . S
C368 C369 1.287 . S
C369 C368 1.287 . S
C369 C370 1.524 . S
C369 H372 0.999 . S
C370 H340 0.950 . S
C370 C369 1.524 . S
C370 C371 1.415 . S
C371 H341 0.950 . S
C371 C366 1.363 . S
C371 C370 1.415 . S
H372 C369 0.999 . S
H373 C354 0.913 . S
H374 C392 0.951 . S
H375 C394 0.951 . S
H376 C396 0.950 . S
H377 C397 0.950 . S
H378 C399 0.950 . S
H379 C402 0.950 . S
H380 C403 0.950 . S
H381 C405 0.940 1_556 S
H382 C406 0.950 . S
H383 C407 0.951 . S
H384 C409 0.951 . S
H385 C411 0.950 . S
H386 C412 0.950 . S
H387 C414 0.950 . S
H388 C417 0.950 . S
H389 C418 0.950 . S
H390 C420 0.950 . S
H391 C421 0.950 . S
C392 H374 0.951 . S
C392 C393 1.366 . S
C392 C394 1.388 . S
C393 C392 1.366 . S
C393 C397 1.385 . S
C394 H375 0.951 . S
C394 C392 1.388 . S
C394 C395 1.366 . S
C395 C394 1.366 . S
C395 C396 1.414 . S
C395 C398 1.499 . S
C396 H376 0.950 . S
C396 C395 1.414 . S
C396 C397 1.374 . S
C397 H377 0.950 . S
C397 C393 1.385 . S
C397 C396 1.374 . S
C398 C395 1.499 . S
C398 C399 1.373 . S
C398 C400 1.389 1_545 S
C399 H378 0.950 . S
C399 C398 1.373 . S
C399 C415 1.377 1_554 S
C400 C398 1.389 1_565 S
C400 C401 1.524 . S
C400 C414 1.377 1_554 S
C401 C400 1.524 . S
C401 C402 1.397 . S
C401 C406 1.363 1_554 S
C402 H379 0.950 . S
C402 C401 1.397 . S
C402 C403 1.334 . S
C403 H380 0.950 . S
C403 C402 1.334 . S
C403 C404 1.287 . S
C404 C403 1.287 . S
C404 C405 1.538 . S
C404 H423 0.913 . S
C405 H381 0.940 1_554 S
C405 C404 1.538 . S
C405 C406 1.412 1_554 S
C406 H382 0.950 . S
C406 C401 1.363 1_556 S
C406 C405 1.412 1_556 S
C407 H383 0.951 . S
C407 C408 1.365 . S
C407 C409 1.388 . S
C408 C407 1.365 . S
C408 C412 1.385 1_545 S
C409 H384 0.951 . S
C409 C407 1.388 . S
C409 C410 1.366 . S
C410 C409 1.366 . S
C410 C411 1.414 1_545 S
C410 C413 1.499 . S
C411 H385 0.950 . S
C411 C410 1.414 1_565 S
C411 C412 1.374 . S
C412 H386 0.950 . S
C412 C408 1.385 1_565 S
C412 C411 1.374 . S
C413 C410 1.499 . S
C413 C414 1.373 1_545 S
C413 C415 1.389 . S
C414 H387 0.950 . S
C414 C400 1.377 1_556 S
C414 C413 1.373 1_565 S
C415 C399 1.377 1_556 S
C415 C413 1.389 . S
C415 C416 1.524 . S
C416 C415 1.524 . S
C416 C417 1.397 . S
C416 C421 1.363 1_556 S
C417 H388 0.950 . S
C417 C416 1.397 . S
C417 C418 1.334 . S
C418 H389 0.950 . S
C418 C417 1.334 . S
C418 C419 1.287 . S
C419 C418 1.287 . S
C419 C420 1.524 1_556 S
C419 H422 0.999 . S
C420 H390 0.950 . S
C420 C419 1.524 1_554 S
C420 C421 1.415 . S
C421 H391 0.950 . S
C421 C416 1.363 1_554 S
C421 C420 1.415 . S
H422 C419 0.999 . S
H423 C404 0.913 . S
H424 C442 0.951 . S
H425 C444 0.951 . S
H426 C446 0.950 . S
H427 C447 0.950 . S
H428 C449 0.950 . S
H429 C452 0.950 . S
H430 C453 0.950 . S
H431 C455 0.950 . S
H432 C456 0.950 . S
H433 C457 0.951 . S
H434 C459 0.951 . S
H435 C461 0.950 . S
H436 C462 0.950 . S
H437 C464 0.950 . S
H438 C467 0.950 . S
H439 C468 0.950 . S
H440 C470 0.950 . S
H441 C471 0.950 . S
C442 H424 0.951 . S
C442 C443 1.366 . S
C442 C444 1.388 . S
C443 C442 1.366 . S
C443 C447 1.385 . S
C444 H425 0.951 . S
C444 C442 1.388 . S
C444 C445 1.366 . S
C445 C444 1.366 . S
C445 C446 1.414 . S
C445 C448 1.499 . S
C446 H426 0.950 . S
C446 C445 1.414 . S
C446 C447 1.374 . S
C447 H427 0.950 . S
C447 C443 1.385 . S
C447 C446 1.374 . S
C448 C445 1.499 . S
C448 C449 1.373 . S
C448 C450 1.389 . S
C449 H428 0.950 . S
C449 C448 1.373 . S
C449 C465 1.377 . S
C450 C448 1.389 . S
C450 C451 1.524 . S
C450 C464 1.377 . S
C451 C450 1.524 . S
C451 C452 1.397 . S
C451 C456 1.363 . S
C452 H429 0.950 . S
C452 C451 1.397 . S
C452 C453 1.334 . S
C453 H430 0.950 . S
C453 C452 1.334 . S
C453 C454 1.287 . S
C454 C453 1.287 . S
C454 C455 1.524 . S
C454 H473 0.913 . S
C455 H431 0.950 . S
C455 C454 1.524 . S
C455 C456 1.415 . S
C456 H432 0.950 . S
C456 C451 1.363 . S
C456 C455 1.415 . S
C457 H433 0.951 . S
C457 C458 1.366 . S
C457 C459 1.388 . S
C458 C457 1.366 . S
C458 C462 1.385 . S
C459 H434 0.951 . S
C459 C457 1.388 . S
C459 C460 1.366 . S
C460 C459 1.366 . S
C460 C461 1.414 . S
C460 C463 1.499 . S
C461 H435 0.950 . S
C461 C460 1.414 . S
C461 C462 1.374 . S
C462 H436 0.950 . S
C462 C458 1.385 . S
C462 C461 1.374 . S
C463 C460 1.499 . S
C463 C464 1.373 . S
C463 C465 1.389 . S
C464 H437 0.950 . S
C464 C450 1.377 . S
C464 C463 1.373 . S
C465 C449 1.377 . S
C465 C463 1.389 . S
C465 C466 1.524 . S
C466 C465 1.524 . S
C466 C467 1.397 . S
C466 C471 1.363 . S
C467 H438 0.950 . S
C467 C466 1.397 . S
C467 C468 1.334 . S
C468 H439 0.950 . S
C468 C467 1.334 . S
C468 C469 1.287 . S
C469 C468 1.287 . S
C469 C470 1.524 . S
C469 H472 0.999 . S
C470 H440 0.950 . S
C470 C469 1.524 . S
C470 C471 1.415 . S
C471 H441 0.950 . S
C471 C466 1.363 . S
C471 C470 1.415 . S
H472 C469 0.999 . S
H473 C454 0.913 . S
H474 C492 0.951 . S
H475 C494 0.951 . S
H476 C496 0.950 . S
H477 C497 0.950 . S
H478 C499 0.950 . S
H479 C502 0.950 . S
H480 C503 0.950 . S
H481 C505 0.950 . S
H482 C506 0.950 . S
H483 C507 0.951 1_565 S
H484 C509 0.952 1_565 S
H485 C511 0.950 . S
H486 C512 0.950 . S
H487 C514 0.950 . S
H488 C517 0.950 . S
H489 C518 0.950 . S
H490 C520 0.950 . S
H491 C521 0.950 . S
C492 H474 0.951 . S
C492 C493 1.366 . S
C492 C494 1.388 . S
C493 C492 1.366 . S
C493 C497 1.385 1_545 S
C494 H475 0.951 . S
C494 C492 1.388 . S
C494 C495 1.366 . S
C495 C494 1.366 . S
C495 C496 1.414 1_545 S
C495 C498 1.499 . S
C496 H476 0.950 . S
C496 C495 1.414 1_565 S
C496 C497 1.374 . S
C497 H477 0.950 . S
C497 C493 1.385 1_565 S
C497 C496 1.374 . S
C498 C495 1.499 . S
C498 C499 1.373 1_545 S
C498 C500 1.389 . S
C499 H478 0.950 . S
C499 C498 1.373 1_565 S
C499 C515 1.377 . S
C500 C498 1.389 . S
C500 C501 1.524 . S
C500 C514 1.377 . S
C501 C500 1.524 . S
C501 C502 1.397 . S
C501 C506 1.363 . S
C502 H479 0.950 . S
C502 C501 1.397 . S
C502 C503 1.334 . S
C503 H480 0.950 . S
C503 C502 1.334 . S
C503 C504 1.287 . S
C504 C503 1.287 . S
C504 C505 1.524 . S
C504 H523 0.913 . S
C505 H481 0.950 . S
C505 C504 1.524 . S
C505 C506 1.415 . S
C506 H482 0.950 . S
C506 C501 1.363 . S
C506 C505 1.415 . S
C507 H483 0.951 1_545 S
C507 C508 1.366 . S
C507 C509 1.388 . S
C508 C507 1.366 . S
C508 C512 1.385 . S
C509 H484 0.952 1_545 S
C509 C507 1.388 . S
C509 C510 1.364 . S
C510 C509 1.364 . S
C510 C511 1.414 . S
C510 C513 1.499 . S
C511 H485 0.950 . S
C511 C510 1.414 . S
C511 C512 1.374 . S
C512 H486 0.950 . S
C512 C508 1.385 . S
C512 C511 1.374 . S
C513 C510 1.499 . S
C513 C514 1.373 . S
C513 C515 1.389 1_545 S
C514 H487 0.950 . S
C514 C500 1.377 . S
C514 C513 1.373 . S
C515 C499 1.377 . S
C515 C513 1.389 1_565 S
C515 C516 1.524 . S
C516 C515 1.524 . S
C516 C517 1.397 . S
C516 C521 1.363 . S
C517 H488 0.950 . S
C517 C516 1.397 . S
C517 C518 1.334 . S
C518 H489 0.950 . S
C518 C517 1.334 . S
C518 C519 1.287 . S
C519 C518 1.287 . S
C519 C520 1.524 . S
C519 H522 0.999 . S
C520 H490 0.950 . S
C520 C519 1.524 . S
C520 C521 1.415 . S
C521 H491 0.950 . S
C521 C516 1.363 . S
C521 C520 1.415 . S
H522 C519 0.999 . S
H523 C504 0.913 . S
H524 C542 0.951 . S
H525 C544 0.951 . S
H526 C546 0.950 . S
H527 C547 0.950 . S
H528 C549 0.950 . S
H529 C552 0.950 . S
H530 C553 0.950 . S
H531 C555 0.950 . S
H532 C556 0.950 . S
H533 C557 0.951 . S
H534 C559 0.951 . S
H535 C561 0.950 . S
H536 C562 0.950 . S
H537 C564 0.950 . S
H538 C567 0.950 . S
H539 C568 0.950 . S
H540 C570 0.950 . S
H541 C571 0.950 . S
C542 H524 0.951 . S
C542 C543 1.366 . S
C542 C544 1.388 . S
C543 C542 1.366 . S
C543 C547 1.385 . S
C544 H525 0.951 . S
C544 C542 1.388 . S
C544 C545 1.366 . S
C545 C544 1.366 . S
C545 C546 1.414 . S
C545 C548 1.499 . S
C546 H526 0.950 . S
C546 C545 1.414 . S
C546 C547 1.374 . S
C547 H527 0.950 . S
C547 C543 1.385 . S
C547 C546 1.374 . S
C548 C545 1.499 . S
C548 C549 1.373 . S
C548 C550 1.389 . S
C549 H528 0.950 . S
C549 C548 1.373 . S
C549 C565 1.377 . S
C550 C548 1.389 . S
C550 C551 1.524 . S
C550 C564 1.377 . S
C551 C550 1.524 . S
C551 C552 1.397 . S
C551 C556 1.363 . S
C552 H529 0.950 . S
C552 C551 1.397 . S
C552 C553 1.334 . S
C553 H530 0.950 . S
C553 C552 1.334 . S
C553 C554 1.287 . S
C554 C553 1.287 . S
C554 C555 1.524 . S
C554 H573 0.913 . S
C555 H531 0.950 . S
C555 C554 1.524 . S
C555 C556 1.415 . S
C556 H532 0.950 . S
C556 C551 1.363 . S
C556 C555 1.415 . S
C557 H533 0.951 . S
C557 C558 1.366 . S
C557 C559 1.388 . S
C558 C557 1.366 . S
C558 C562 1.385 . S
C559 H534 0.951 . S
C559 C557 1.388 . S
C559 C560 1.366 . S
C560 C559 1.366 . S
C560 C561 1.414 . S
C560 C563 1.499 . S
C561 H535 0.950 . S
C561 C560 1.414 . S
C561 C562 1.374 . S
C562 H536 0.950 . S
C562 C558 1.385 . S
C562 C561 1.374 . S
C563 C560 1.499 . S
C563 C564 1.373 . S
C563 C565 1.389 . S
C564 H537 0.950 . S
C564 C550 1.377 . S
C564 C563 1.373 . S
C565 C549 1.377 . S
C565 C563 1.389 . S
C565 C566 1.524 . S
C566 C565 1.524 . S
C566 C567 1.397 . S
C566 C571 1.363 . S
C567 H538 0.950 . S
C567 C566 1.397 . S
C567 C568 1.334 . S
C568 H539 0.950 . S
C568 C567 1.334 . S
C568 C569 1.287 . S
C569 C568 1.287 . S
C569 C570 1.524 . S
C569 H572 0.999 . S
C570 H540 0.950 . S
C570 C569 1.524 . S
C570 C571 1.415 . S
C571 H541 0.950 . S
C571 C566 1.363 . S
C571 C570 1.415 . S
H572 C569 0.999 . S
H573 C554 0.913 . S
H574 C592 0.951 . S
H575 C594 0.951 . S
H576 C596 0.950 1_565 S
H577 C597 0.950 1_565 S
H578 C599 0.950 . S
H579 C602 0.950 1_556 S
H580 C603 0.941 1_556 S
H581 C605 0.932 1_545 S
H582 C606 0.950 . S
H583 C607 0.951 . S
H584 C609 0.951 . S
H585 C611 0.950 . S
H586 C612 0.950 . S
H587 C614 0.958 . S
H588 C617 0.950 . S
H589 C618 0.950 1_554 S
H590 C620 0.950 . S
H591 C621 0.950 . S
C592 H574 0.951 . S
C592 C593 1.366 . S
C592 C594 1.388 . S
C593 C592 1.366 . S
C593 C597 1.385 . S
C594 H575 0.951 . S
C594 C592 1.388 . S
C594 C595 1.366 . S
C595 C594 1.366 . S
C595 C596 1.414 . S
C595 C598 1.499 . S
C596 H576 0.950 1_545 S
C596 C595 1.414 . S
C596 C597 1.374 . S
C597 H577 0.950 1_545 S
C597 C593 1.385 . S
C597 C596 1.374 . S
C598 C595 1.499 . S
C598 C599 1.373 1_455 S
C598 C600 1.389 1_556 S
C599 H578 0.950 . S
C599 C598 1.373 1_655 S
C599 C615 1.377 . S
C600 C598 1.389 1_554 S
C600 C601 1.524 1_545 S
C600 C614 1.377 . S
C601 C600 1.524 1_565 S
C601 C602 1.397 . S
C601 C606 1.363 1_565 S
C602 H579 0.950 1_554 S
C602 C601 1.397 . S
C602 C603 1.334 . S
C603 H580 0.941 1_554 S
C603 C602 1.334 . S
C603 C604 1.287 . S
C604 C603 1.287 . S
C604 C605 1.524 . S
C604 H623 0.913 . S
C605 H581 0.932 1_565 S
C605 C604 1.524 . S
C605 C606 1.415 1_565 S
C606 H582 0.950 . S
C606 C601 1.363 1_545 S
C606 C605 1.415 1_545 S
C607 H583 0.951 . S
C607 C608 1.366 1_565 S
C607 C609 1.388 . S
C608 C607 1.366 1_545 S
C608 C612 1.385 . S
C609 H584 0.951 . S
C609 C607 1.388 . S
C609 C610 1.366 1_565 S
C610 C609 1.366 1_545 S
C610 C611 1.414 . S
C610 C613 1.499 . S
C611 H585 0.950 . S
C611 C610 1.414 . S
C611 C612 1.374 . S
C612 H586 0.950 . S
C612 C608 1.385 . S
C612 C611 1.374 . S
C613 C610 1.499 . S
C613 C614 1.373 1_655 S
C613 C615 1.389 1_554 S
C614 H587 0.958 . S
C614 C600 1.377 . S
C614 C613 1.373 1_455 S
C615 C599 1.377 . S
C615 C613 1.389 1_556 S
C615 C616 1.524 . S
C616 C615 1.524 . S
C616 C617 1.397 1_556 S
C616 C621 1.363 . S
C617 H588 0.950 . S
C617 C616 1.397 1_554 S
C617 C618 1.334 1_554 S
C618 H589 0.950 1_556 S
C618 C617 1.334 1_556 S
C618 C619 1.287 . S
C619 C618 1.287 . S
C619 C620 1.524 . S
C619 H622 0.999 . S
C620 H590 0.950 . S
C620 C619 1.524 . S
C620 C621 1.415 . S
C621 H591 0.950 . S
C621 C616 1.363 . S
C621 C620 1.415 . S
H622 C619 0.999 . S
H623 C604 0.913 . S
H624 C642 0.951 . S
H625 C644 0.951 . S
H626 C646 0.950 . S
H627 C647 0.950 . S
H628 C649 0.950 . S
H629 C652 0.950 . S
H630 C653 0.950 . S
H631 C655 0.950 . S
H632 C656 0.950 . S
H633 C657 0.951 . S
H634 C659 0.951 . S
H635 C661 0.950 . S
H636 C662 0.950 . S
H637 C664 0.950 . S
H638 C667 0.950 . S
H639 C668 0.950 . S
H640 C670 0.950 . S
H641 C671 0.950 . S
C642 H624 0.951 . S
C642 C643 1.366 . S
C642 C644 1.388 . S
C643 C642 1.366 . S
C643 C647 1.385 . S
C644 H625 0.951 . S
C644 C642 1.388 . S
C644 C645 1.366 . S
C645 C644 1.366 . S
C645 C646 1.414 . S
C645 C648 1.499 . S
C646 H626 0.950 . S
C646 C645 1.414 . S
C646 C647 1.374 . S
C647 H627 0.950 . S
C647 C643 1.385 . S
C647 C646 1.374 . S
C648 C645 1.499 . S
C648 C649 1.373 . S
C648 C650 1.389 . S
C649 H628 0.950 . S
C649 C648 1.373 . S
C649 C665 1.377 . S
C650 C648 1.389 . S
C650 C651 1.524 . S
C650 C664 1.377 . S
C651 C650 1.524 . S
C651 C652 1.397 . S
C651 C656 1.363 . S
C652 H629 0.950 . S
C652 C651 1.397 . S
C652 C653 1.334 . S
C653 H630 0.950 . S
C653 C652 1.334 . S
C653 C654 1.287 . S
C654 C653 1.287 . S
C654 C655 1.524 . S
C654 H673 0.913 . S
C655 H631 0.950 . S
C655 C654 1.524 . S
C655 C656 1.415 . S
C656 H632 0.950 . S
C656 C651 1.363 . S
C656 C655 1.415 . S
C657 H633 0.951 . S
C657 C658 1.366 . S
C657 C659 1.388 . S
C658 C657 1.366 . S
C658 C662 1.385 . S
C659 H634 0.951 . S
C659 C657 1.388 . S
C659 C660 1.366 . S
C660 C659 1.366 . S
C660 C661 1.414 . S
C660 C663 1.499 . S
C661 H635 0.950 . S
C661 C660 1.414 . S
C661 C662 1.374 . S
C662 H636 0.950 . S
C662 C658 1.385 . S
C662 C661 1.374 . S
C663 C660 1.499 . S
C663 C664 1.373 . S
C663 C665 1.389 . S
C664 H637 0.950 . S
C664 C650 1.377 . S
C664 C663 1.373 . S
C665 C649 1.377 . S
C665 C663 1.389 . S
C665 C666 1.524 . S
C666 C665 1.524 . S
C666 C667 1.397 . S
C666 C671 1.363 . S
C667 H638 0.950 . S
C667 C666 1.397 . S
C667 C668 1.334 . S
C668 H639 0.950 . S
C668 C667 1.334 . S
C668 C669 1.287 . S
C669 C668 1.287 . S
C669 C670 1.524 . S
C669 H672 0.999 . S
C670 H640 0.950 . S
C670 C669 1.524 . S
C670 C671 1.415 . S
C671 H641 0.950 . S
C671 C666 1.363 . S
C671 C670 1.415 . S
H672 C669 0.999 . S
H673 C654 0.913 . S
H674 C692 0.951 . S
H675 C694 0.951 . S
H676 C696 0.950 . S
H677 C697 0.950 . S
H678 C699 0.950 . S
H679 C702 0.950 . S
H680 C703 0.950 . S
H681 C705 0.950 . S
H682 C706 0.950 . S
H683 C707 0.951 . S
H684 C709 0.951 . S
H685 C711 0.950 . S
H686 C712 0.950 . S
H687 C714 0.950 . S
H688 C717 0.950 . S
H689 C718 0.950 . S
H690 C720 0.950 . S
H691 C721 0.950 . S
C692 H674 0.951 . S
C692 C693 1.366 . S
C692 C694 1.388 . S
C693 C692 1.366 . S
C693 C697 1.385 . S
C694 H675 0.951 . S
C694 C692 1.388 . S
C694 C695 1.366 . S
C695 C694 1.366 . S
C695 C696 1.414 . S
C695 C698 1.499 . S
C696 H676 0.950 . S
C696 C695 1.414 . S
C696 C697 1.374 . S
C697 H677 0.950 . S
C697 C693 1.385 . S
C697 C696 1.374 . S
C698 C695 1.499 . S
C698 C699 1.373 . S
C698 C700 1.389 . S
C699 H678 0.950 . S
C699 C698 1.373 . S
C699 C715 1.377 . S
C700 C698 1.389 . S
C700 C701 1.524 . S
C700 C714 1.377 . S
C701 C700 1.524 . S
C701 C702 1.397 . S
C701 C706 1.363 . S
C702 H679 0.950 . S
C702 C701 1.397 . S
C702 C703 1.334 . S
C703 H680 0.950 . S
C703 C702 1.334 . S
C703 C704 1.287 . S
C704 C703 1.287 . S
C704 C705 1.524 . S
C704 H723 0.913 . S
C705 H681 0.950 . S
C705 C704 1.524 . S
C705 C706 1.415 . S
C706 H682 0.950 . S
C706 C701 1.363 . S
C706 C705 1.415 . S
C707 H683 0.951 . S
C707 C708 1.366 . S
C707 C709 1.388 . S
C708 C707 1.366 . S
C708 C712 1.385 . S
C709 H684 0.951 . S
C709 C707 1.388 . S
C709 C710 1.366 . S
C710 C709 1.366 . S
C710 C711 1.414 . S
C710 C713 1.499 . S
C711 H685 0.950 . S
C711 C710 1.414 . S
C711 C712 1.374 . S
C712 H686 0.950 . S
C712 C708 1.385 . S
C712 C711 1.374 . S
C713 C710 1.499 . S
C713 C714 1.373 . S
C713 C715 1.389 . S
C714 H687 0.950 . S
C714 C700 1.377 . S
C714 C713 1.373 . S
C715 C699 1.377 . S
C715 C713 1.389 . S
C715 C716 1.524 . S
C716 C715 1.524 . S
C716 C717 1.397 . S
C716 C721 1.363 . S
C717 H688 0.950 . S
C717 C716 1.397 . S
C717 C718 1.334 . S
C718 H689 0.950 . S
C718 C717 1.334 . S
C718 C719 1.287 . S
C719 C718 1.287 . S
C719 C720 1.524 . S
C719 H722 0.999 . S
C720 H690 0.950 . S
C720 C719 1.524 . S
C720 C721 1.415 . S
C721 H691 0.950 . S
C721 C716 1.363 . S
C721 C720 1.415 . S
H722 C719 0.999 . S
H723 C704 0.913 . S
H724 C742 0.951 . S
H725 C744 0.951 . S
H726 C746 0.950 . S
H727 C747 0.950 . S
H728 C749 0.950 . S
H729 C752 0.950 . S
H730 C753 0.950 . S
H731 C755 0.950 . S
H732 C756 0.950 . S
H733 C757 0.951 . S
H734 C759 0.951 . S
H735 C761 0.950 . S
H736 C762 0.950 . S
H737 C764 0.950 . S
H738 C767 0.950 . S
H739 C768 0.950 . S
H740 C770 0.950 . S
H741 C771 0.950 . S
C742 H724 0.951 . S
C742 C743 1.366 . S
C742 C744 1.388 . S
C743 C742 1.366 . S
C743 C747 1.385 . S
C744 H725 0.951 . S
C744 C742 1.388 . S
C744 C745 1.366 . S
C745 C744 1.366 . S
C745 C746 1.414 . S
C745 C748 1.499 . S
C746 H726 0.950 . S
C746 C745 1.414 . S
C746 C747 1.374 . S
C747 H727 0.950 . S
C747 C743 1.385 . S
C747 C746 1.374 . S
C748 C745 1.499 . S
C748 C749 1.373 . S
C748 C750 1.389 . S
C749 H728 0.950 . S
C749 C748 1.373 . S
C749 C765 1.377 . S
C750 C748 1.389 . S
C750 C751 1.524 . S
C750 C764 1.377 . S
C751 C750 1.524 . S
C751 C752 1.397 . S
C751 C756 1.363 . S
C752 H729 0.950 . S
C752 C751 1.397 . S
C752 C753 1.334 . S
C753 H730 0.950 . S
C753 C752 1.334 . S
C753 C754 1.287 . S
C754 C753 1.287 . S
C754 C755 1.524 . S
C754 H773 0.913 . S
C755 H731 0.950 . S
C755 C754 1.524 . S
C755 C756 1.415 . S
C756 H732 0.950 . S
C756 C751 1.363 . S
C756 C755 1.415 . S
C757 H733 0.951 . S
C757 C758 1.366 . S
C757 C759 1.388 . S
C758 C757 1.366 . S
C758 C762 1.385 . S
C759 H734 0.951 . S
C759 C757 1.388 . S
C759 C760 1.366 . S
C760 C759 1.366 . S
C760 C761 1.414 . S
C760 C763 1.499 . S
C761 H735 0.950 . S
C761 C760 1.414 . S
C761 C762 1.374 . S
C762 H736 0.950 . S
C762 C758 1.385 . S
C762 C761 1.374 . S
C763 C760 1.499 . S
C763 C764 1.373 . S
C763 C765 1.389 . S
C764 H737 0.950 . S
C764 C750 1.377 . S
C764 C763 1.373 . S
C765 C749 1.377 . S
C765 C763 1.389 . S
C765 C766 1.524 . S
C766 C765 1.524 . S
C766 C767 1.397 . S
C766 C771 1.363 . S
C767 H738 0.950 . S
C767 C766 1.397 . S
C767 C768 1.334 . S
C768 H739 0.950 . S
C768 C767 1.334 . S
C768 C769 1.287 . S
C769 C768 1.287 . S
C769 C770 1.524 . S
C769 H772 0.999 . S
C770 H740 0.950 . S
C770 C769 1.524 . S
C770 C771 1.415 . S
C771 H741 0.950 . S
C771 C766 1.363 . S
C771 C770 1.415 . S
H772 C769 0.999 . S
H773 C754 0.913 . S
H774 C792 0.951 . S
H775 C794 0.951 . S
H776 C796 0.950 . S
H777 C797 0.950 . S
H778 C799 0.950 . S
H779 C802 0.950 . S
H780 C803 0.950 . S
H781 C805 0.950 . S
H782 C806 0.950 . S
H783 C807 0.951 . S
H784 C809 0.951 . S
H785 C811 0.950 . S
H786 C812 0.950 . S
H787 C814 0.950 . S
H788 C817 0.950 . S
H789 C818 0.950 . S
H790 C820 0.950 . S
H791 C821 0.950 . S
C792 H774 0.951 . S
C792 C793 1.366 . S
C792 C794 1.388 . S
C793 C792 1.366 . S
C793 C797 1.385 . S
C794 H775 0.951 . S
C794 C792 1.388 . S
C794 C795 1.366 . S
C795 C794 1.366 . S
C795 C796 1.414 . S
C795 C798 1.499 . S
C796 H776 0.950 . S
C796 C795 1.414 . S
C796 C797 1.374 . S
C797 H777 0.950 . S
C797 C793 1.385 . S
C797 C796 1.374 . S
C798 C795 1.499 . S
C798 C799 1.373 . S
C798 C800 1.389 . S
C799 H778 0.950 . S
C799 C798 1.373 . S
C799 C815 1.377 . S
C800 C798 1.389 . S
C800 C801 1.524 . S
C800 C814 1.377 . S
C801 C800 1.524 . S
C801 C802 1.397 . S
C801 C806 1.363 . S
C802 H779 0.950 . S
C802 C801 1.397 . S
C802 C803 1.334 . S
C803 H780 0.950 . S
C803 C802 1.334 . S
C803 C804 1.287 . S
C804 C803 1.287 . S
C804 C805 1.524 . S
C804 H823 0.913 . S
C805 H781 0.950 . S
C805 C804 1.524 . S
C805 C806 1.415 . S
C806 H782 0.950 . S
C806 C801 1.363 . S
C806 C805 1.415 . S
C807 H783 0.951 . S
C807 C808 1.366 . S
C807 C809 1.388 . S
C808 C807 1.366 . S
C808 C812 1.385 . S
C809 H784 0.951 . S
C809 C807 1.388 . S
C809 C810 1.366 . S
C810 C809 1.366 . S
C810 C811 1.414 . S
C810 C813 1.499 . S
C811 H785 0.950 . S
C811 C810 1.414 . S
C811 C812 1.374 . S
C812 H786 0.950 . S
C812 C808 1.385 . S
C812 C811 1.374 . S
C813 C810 1.499 . S
C813 C814 1.373 . S
C813 C815 1.389 . S
C814 H787 0.950 . S
C814 C800 1.377 . S
C814 C813 1.373 . S
C815 C799 1.377 . S
C815 C813 1.389 . S
C815 C816 1.524 . S
C816 C815 1.524 . S
C816 C817 1.397 . S
C816 C821 1.363 . S
C817 H788 0.950 . S
C817 C816 1.397 . S
C817 C818 1.334 . S
C818 H789 0.950 . S
C818 C817 1.334 . S
C818 C819 1.287 . S
C819 C818 1.287 . S
C819 C820 1.524 . S
C819 H822 0.999 . S
C820 H790 0.950 . S
C820 C819 1.524 . S
C820 C821 1.415 . S
C821 H791 0.950 . S
C821 C816 1.363 . S
C821 C820 1.415 . S
H822 C819 0.999 . S
H823 C804 0.913 . S
H824 C842 0.951 . S
H825 C844 0.951 . S
H826 C846 0.950 . S
H827 C847 0.950 . S
H828 C849 0.950 . S
H829 C852 0.950 . S
H830 C853 0.950 . S
H831 C855 0.950 . S
H832 C856 0.950 . S
H833 C857 0.951 . S
H834 C859 0.951 . S
H835 C861 0.950 . S
H836 C862 0.950 . S
H837 C864 0.950 . S
H838 C867 0.950 . S
H839 C868 0.950 . S
H840 C870 0.950 . S
H841 C871 0.950 . S
C842 H824 0.951 . S
C842 C843 1.366 . S
C842 C844 1.388 . S
C843 C842 1.366 . S
C843 C847 1.385 . S
C844 H825 0.951 . S
C844 C842 1.388 . S
C844 C845 1.366 . S
C845 C844 1.366 . S
C845 C846 1.414 . S
C845 C848 1.499 . S
C846 H826 0.950 . S
C846 C845 1.414 . S
C846 C847 1.374 . S
C847 H827 0.950 . S
C847 C843 1.385 . S
C847 C846 1.374 . S
C848 C845 1.499 . S
C848 C849 1.373 . S
C848 C850 1.389 . S
C849 H828 0.950 . S
C849 C848 1.373 . S
C849 C865 1.377 . S
C850 C848 1.389 . S
C850 C851 1.524 . S
C850 C864 1.377 1_554 S
C851 C850 1.524 . S
C851 C852 1.397 . S
C851 C856 1.363 1_554 S
C852 H829 0.950 . S
C852 C851 1.397 . S
C852 C853 1.334 . S
C853 H830 0.950 . S
C853 C852 1.334 . S
C853 C854 1.287 . S
C854 C853 1.287 . S
C854 C855 1.524 1_554 S
C854 H873 0.913 . S
C855 H831 0.950 . S
C855 C854 1.524 1_556 S
C855 C856 1.415 . S
C856 H832 0.950 . S
C856 C851 1.363 1_556 S
C856 C855 1.415 . S
C857 H833 0.951 . S
C857 C858 1.366 . S
C857 C859 1.388 . S
C858 C857 1.366 . S
C858 C862 1.385 . S
C859 H834 0.951 . S
C859 C857 1.388 . S
C859 C860 1.366 . S
C860 C859 1.366 . S
C860 C861 1.414 . S
C860 C863 1.499 . S
C861 H835 0.950 . S
C861 C860 1.414 . S
C861 C862 1.374 . S
C862 H836 0.950 . S
C862 C858 1.385 . S
C862 C861 1.374 . S
C863 C860 1.499 . S
C863 C864 1.373 . S
C863 C865 1.389 1_556 S
C864 H837 0.950 . S
C864 C850 1.377 1_556 S
C864 C863 1.373 . S
C865 C849 1.377 . S
C865 C863 1.389 1_554 S
C865 C866 1.524 1_554 S
C866 C865 1.524 1_556 S
C866 C867 1.397 . S
C866 C871 1.363 1_556 S
C867 H838 0.950 . S
C867 C866 1.397 . S
C867 C868 1.334 . S
C868 H839 0.950 . S
C868 C867 1.334 . S
C868 C869 1.287 . S
C869 C868 1.287 . S
C869 C870 1.524 1_556 S
C869 H872 0.999 . S
C870 H840 0.950 . S
C870 C869 1.524 1_554 S
C870 C871 1.415 . S
C871 H841 0.950 . S
C871 C866 1.363 1_554 S
C871 C870 1.415 . S
H872 C869 0.999 . S
H873 C854 0.913 . S
H874 C892 0.951 . S
H875 C894 0.951 . S
H876 C896 0.950 . S
H877 C897 0.950 . S
H878 C899 0.950 . S
H879 C902 0.950 . S
H880 C903 0.950 . S
H881 C905 0.945 1_455 S
H882 C906 0.957 . S
H883 C907 0.951 . S
H884 C909 0.951 . S
H885 C911 0.950 . S
H886 C912 0.950 . S
H887 C914 0.950 . S
H888 C917 0.950 . S
H889 C918 0.950 . S
H890 C920 0.945 1_655 S
H891 C921 0.957 . S
C892 H874 0.951 . S
C892 C893 1.366 . S
C892 C894 1.388 . S
C893 C892 1.366 . S
C893 C897 1.385 . S
C894 H875 0.951 . S
C894 C892 1.388 . S
C894 C895 1.366 . S
C895 C894 1.366 . S
C895 C896 1.414 . S
C895 C898 1.499 . S
C896 H876 0.950 . S
C896 C895 1.414 . S
C896 C897 1.374 . S
C897 H877 0.950 . S
C897 C893 1.385 . S
C897 C896 1.374 . S
C898 C895 1.499 . S
C898 C899 1.373 . S
C898 C900 1.389 . S
C899 H878 0.950 . S
C899 C898 1.373 . S
C899 C915 1.332 1_455 S
C900 C898 1.389 . S
C900 C901 1.524 . S
C900 C914 1.377 1_455 S
C901 C900 1.524 . S
C901 C902 1.395 1_455 S
C901 C906 1.361 . S
C902 H879 0.950 . S
C902 C901 1.395 1_655 S
C902 C903 1.334 . S
C903 H880 0.950 . S
C903 C902 1.334 . S
C903 C904 1.287 . S
C904 C903 1.287 . S
C904 C905 1.533 . S
C904 H923 0.913 . S
C905 H881 0.945 1_655 S
C905 C904 1.533 . S
C905 C906 1.415 1_655 S
C906 H882 0.957 . S
C906 C901 1.361 . S
C906 C905 1.415 1_455 S
C907 H883 0.951 . S
C907 C908 1.366 . S
C907 C909 1.388 . S
C908 C907 1.366 . S
C908 C912 1.385 . S
C909 H884 0.951 . S
C909 C907 1.388 . S
C909 C910 1.366 . S
C910 C909 1.366 . S
C910 C911 1.414 . S
C910 C913 1.499 . S
C911 H885 0.950 . S
C911 C910 1.414 . S
C911 C912 1.374 . S
C912 H886 0.950 . S
C912 C908 1.385 . S
C912 C911 1.374 . S
C913 C910 1.499 . S
C913 C914 1.373 . S
C913 C915 1.430 . S
C914 H887 0.950 . S
C914 C900 1.377 1_655 S
C914 C913 1.373 . S
C915 C899 1.332 1_655 S
C915 C913 1.430 . S
C915 C916 1.526 . S
C916 C915 1.526 . S
C916 C917 1.395 1_655 S
C916 C921 1.361 . S
C917 H888 0.950 . S
C917 C916 1.395 1_455 S
C917 C918 1.334 . S
C918 H889 0.950 . S
C918 C917 1.334 . S
C918 C919 1.287 . S
C919 C918 1.287 . S
C919 C920 1.533 . S
C919 H922 0.999 . S
C920 H890 0.945 1_455 S
C920 C919 1.533 . S
C920 C921 1.415 1_455 S
C921 H891 0.957 . S
C921 C916 1.361 . S
C921 C920 1.415 1_655 S
H922 C919 0.999 . S
H923 C904 0.913 . S
H924 C942 0.951 . S
H925 C944 0.951 . S
H926 C946 0.950 . S
H927 C947 0.950 . S
H928 C949 0.950 . S
H929 C952 0.950 . S
H930 C953 0.950 . S
H931 C955 0.950 . S
H932 C956 0.950 . S
H933 C957 0.951 . S
H934 C959 0.951 . S
H935 C961 0.950 . S
H936 C962 0.950 . S
H937 C964 0.950 . S
H938 C967 0.950 . S
H939 C968 0.950 . S
H940 C970 0.950 . S
H941 C971 0.950 . S
C942 H924 0.951 . S
C942 C943 1.366 . S
C942 C944 1.388 . S
C943 C942 1.366 . S
C943 C947 1.385 . S
C944 H925 0.951 . S
C944 C942 1.388 . S
C944 C945 1.366 . S
C945 C944 1.366 . S
C945 C946 1.414 . S
C945 C948 1.499 . S
C946 H926 0.950 . S
C946 C945 1.414 . S
C946 C947 1.374 . S
C947 H927 0.950 . S
C947 C943 1.385 . S
C947 C946 1.374 . S
C948 C945 1.499 . S
C948 C949 1.373 . S
C948 C950 1.389 . S
C949 H928 0.950 . S
C949 C948 1.373 . S
C949 C965 1.377 1_455 S
C950 C948 1.389 . S
C950 C951 1.524 . S
C950 C964 1.377 1_454 S
C951 C950 1.524 . S
C951 C952 1.397 . S
C951 C956 1.363 1_554 S
C952 H929 0.950 . S
C952 C951 1.397 . S
C952 C953 1.334 . S
C953 H930 0.950 . S
C953 C952 1.334 . S
C953 C954 1.287 . S
C954 C953 1.287 . S
C954 C955 1.524 1_554 S
C954 H973 0.913 . S
C955 H931 0.950 . S
C955 C954 1.524 1_556 S
C955 C956 1.415 . S
C956 H932 0.950 . S
C956 C951 1.363 1_556 S
C956 C955 1.415 . S
C957 H933 0.951 . S
C957 C958 1.366 . S
C957 C959 1.388 . S
C958 C957 1.366 . S
C958 C962 1.385 . S
C959 H934 0.951 . S
C959 C957 1.388 . S
C959 C960 1.366 . S
C960 C959 1.366 . S
C960 C961 1.414 . S
C960 C963 1.499 . S
C961 H935 0.950 . S
C961 C960 1.414 . S
C961 C962 1.374 . S
C962 H936 0.950 . S
C962 C958 1.385 . S
C962 C961 1.374 . S
C963 C960 1.499 . S
C963 C964 1.373 . S
C963 C965 1.389 1_556 S
C964 H937 0.950 . S
C964 C950 1.377 1_656 S
C964 C963 1.373 . S
C965 C949 1.377 1_655 S
C965 C963 1.389 1_554 S
C965 C966 1.524 1_554 S
C966 C965 1.524 1_556 S
C966 C967 1.397 . S
C966 C971 1.363 1_556 S
C967 H938 0.950 . S
C967 C966 1.397 . S
C967 C968 1.334 . S
C968 H939 0.950 . S
C968 C967 1.334 . S
C968 C969 1.287 . S
C969 C968 1.287 . S
C969 C970 1.524 1_556 S
C969 H972 0.999 . S
C970 H940 0.950 . S
C970 C969 1.524 1_554 S
C970 C971 1.415 . S
C971 H941 0.950 . S
C971 C966 1.363 1_554 S
C971 C970 1.415 . S
H972 C969 0.999 . S
H973 C954 0.913 . S
H974 C992 0.951 . S
H975 C994 0.951 . S
H976 C996 0.950 . S
H977 C997 0.950 . S
H978 C999 0.950 . S
H979 C1002 0.950 . S
H980 C1003 0.950 . S
H981 C1005 0.950 . S
H982 C1006 0.950 . S
H983 C1007 0.951 . S
H984 C1009 0.951 . S
H985 C1011 0.950 . S
H986 C1012 0.950 . S
H987 C1014 0.950 . S
H988 C1017 0.950 . S
H989 C1018 0.950 . S
H990 C1020 0.950 . S
H991 C1021 0.950 . S
C992 H974 0.951 . S
C992 C993 1.366 . S
C992 C994 1.388 . S
C993 C992 1.366 . S
C993 C997 1.385 . S
C994 H975 0.951 . S
C994 C992 1.388 . S
C994 C995 1.366 . S
C995 C994 1.366 . S
C995 C996 1.414 . S
C995 C998 1.499 . S
C996 H976 0.950 . S
C996 C995 1.414 . S
C996 C997 1.374 . S
C997 H977 0.950 . S
C997 C993 1.385 . S
C997 C996 1.374 . S
C998 C995 1.499 . S
C998 C999 1.373 . S
C998 C1000 1.389 . S
C999 H978 0.950 . S
C999 C998 1.373 . S
C999 C1015 1.377 . S
C1000 C998 1.389 . S
C1000 C1001 1.524 . S
C1000 C1014 1.377 . S
C1001 C1000 1.524 . S
C1001 C1002 1.397 . S
C1001 C1006 1.363 . S
C1002 H979 0.950 . S
C1002 C1001 1.397 . S
C1002 C1003 1.334 . S
C1003 H980 0.950 . S
C1003 C1002 1.334 . S
C1003 C1004 1.287 . S
C1004 C1003 1.287 . S
C1004 C1005 1.524 . S
C1004 H1023 0.913 . S
C1005 H981 0.950 . S
C1005 C1004 1.524 . S
C1005 C1006 1.415 . S
C1006 H982 0.950 . S
C1006 C1001 1.363 . S
C1006 C1005 1.415 . S
C1007 H983 0.951 . S
C1007 C1008 1.366 . S
C1007 C1009 1.388 . S
C1008 C1007 1.366 . S
C1008 C1012 1.385 . S
C1009 H984 0.951 . S
C1009 C1007 1.388 . S
C1009 C1010 1.366 . S
C1010 C1009 1.366 . S
C1010 C1011 1.414 . S
C1010 C1013 1.499 . S
C1011 H985 0.950 . S
C1011 C1010 1.414 . S
C1011 C1012 1.374 . S
C1012 H986 0.950 . S
C1012 C1008 1.385 . S
C1012 C1011 1.374 . S
C1013 C1010 1.499 . S
C1013 C1014 1.373 . S
C1013 C1015 1.389 . S
C1014 H987 0.950 . S
C1014 C1000 1.377 . S
C1014 C1013 1.373 . S
C1015 C999 1.377 . S
C1015 C1013 1.389 . S
C1015 C1016 1.524 . S
C1016 C1015 1.524 . S
C1016 C1017 1.397 . S
C1016 C1021 1.363 . S
C1017 H988 0.950 . S
C1017 C1016 1.397 . S
C1017 C1018 1.334 . S
C1018 H989 0.950 . S
C1018 C1017 1.334 . S
C1018 C1019 1.287 . S
C1019 C1018 1.287 . S
C1019 C1020 1.524 . S
C1019 H1022 0.999 . S
C1020 H990 0.950 . S
C1020 C1019 1.524 . S
C1020 C1021 1.415 . S
C1021 H991 0.950 . S
C1021 C1016 1.363 . S
C1021 C1020 1.415 . S
H1022 C1019 0.999 . S
H1023 C1004 0.913 . S
H1024 C1042 0.951 . S
H1025 C1044 0.951 . S
H1026 C1046 0.950 . S
H1027 C1047 0.950 . S
H1028 C1049 0.950 . S
H1029 C1052 0.950 . S
H1030 C1053 0.950 . S
H1031 C1055 0.950 1_556 S
H1032 C1056 0.950 . S
H1033 C1057 0.951 . S
H1034 C1059 0.951 . S
H1035 C1061 0.950 . S
H1036 C1062 0.950 1_556 S
H1037 C1064 0.950 . S
H1038 C1067 0.950 . S
H1039 C1068 0.950 . S
H1040 C1070 0.950 . S
H1041 C1071 0.950 . S
C1042 H1024 0.951 . S
C1042 C1043 1.366 . S
C1042 C1044 1.388 . S
C1043 C1042 1.366 . S
C1043 C1047 1.385 . S
C1044 H1025 0.951 . S
C1044 C1042 1.388 . S
C1044 C1045 1.366 . S
C1045 C1044 1.366 . S
C1045 C1046 1.414 . S
C1045 C1048 1.499 . S
C1046 H1026 0.950 . S
C1046 C1045 1.414 . S
C1046 C1047 1.374 . S
C1047 H1027 0.950 . S
C1047 C1043 1.385 . S
C1047 C1046 1.374 . S
C1048 C1045 1.499 . S
C1048 C1049 1.373 . S
C1048 C1050 1.389 . S
C1049 H1028 0.950 . S
C1049 C1048 1.373 . S
C1049 C1065 1.377 . S
C1050 C1048 1.389 . S
C1050 C1051 1.524 . S
C1050 C1064 1.377 . S
C1051 C1050 1.524 . S
C1051 C1052 1.397 . S
C1051 C1056 1.363 . S
C1052 H1029 0.950 . S
C1052 C1051 1.397 . S
C1052 C1053 1.334 . S
C1053 H1030 0.950 . S
C1053 C1052 1.334 . S
C1053 C1054 1.287 . S
C1054 C1053 1.287 . S
C1054 C1055 1.524 . S
C1054 H1073 0.913 . S
C1055 H1031 0.950 1_554 S
C1055 C1054 1.524 . S
C1055 C1056 1.415 . S
C1056 H1032 0.950 . S
C1056 C1051 1.363 . S
C1056 C1055 1.415 . S
C1057 H1033 0.951 . S
C1057 C1058 1.366 . S
C1057 C1059 1.388 . S
C1058 C1057 1.366 . S
C1058 C1062 1.385 . S
C1059 H1034 0.951 . S
C1059 C1057 1.388 . S
C1059 C1060 1.366 . S
C1060 C1059 1.366 . S
C1060 C1061 1.414 . S
C1060 C1063 1.499 . S
C1061 H1035 0.950 . S
C1061 C1060 1.414 . S
C1061 C1062 1.374 . S
C1062 H1036 0.950 1_554 S
C1062 C1058 1.385 . S
C1062 C1061 1.374 . S
C1063 C1060 1.499 . S
C1063 C1064 1.373 . S
C1063 C1065 1.389 . S
C1064 H1037 0.950 . S
C1064 C1050 1.377 . S
C1064 C1063 1.373 . S
C1065 C1049 1.377 . S
C1065 C1063 1.389 . S
C1065 C1066 1.524 . S
C1066 C1065 1.524 . S
C1066 C1067 1.397 . S
C1066 C1071 1.363 . S
C1067 H1038 0.950 . S
C1067 C1066 1.397 . S
C1067 C1068 1.334 . S
C1068 H1039 0.950 . S
C1068 C1067 1.334 . S
C1068 C1069 1.287 . S
C1069 C1068 1.287 . S
C1069 C1070 1.524 . S
C1069 H1072 0.999 . S
C1070 H1040 0.950 . S
C1070 C1069 1.524 . S
C1070 C1071 1.415 . S
C1071 H1041 0.950 . S
C1071 C1066 1.363 . S
C1071 C1070 1.415 . S
H1072 C1069 0.999 . S
H1073 C1054 0.913 . S
H1074 C1092 0.951 . S
H1075 C1094 0.951 . S
H1076 C1096 0.950 . S
H1077 C1097 0.950 . S
H1078 C1099 0.950 . S
H1079 C1102 0.950 . S
H1080 C1103 0.950 . S
H1081 C1105 0.950 . S
H1082 C1106 0.950 . S
H1083 C1107 0.951 . S
H1084 C1109 0.951 . S
H1085 C1111 0.950 . S
H1086 C1112 0.950 . S
H1087 C1114 0.950 . S
H1088 C1117 0.950 . S
H1089 C1118 0.950 . S
H1090 C1120 0.950 . S
H1091 C1121 0.950 . S
C1092 H1074 0.951 . S
C1092 C1093 1.366 . S
C1092 C1094 1.388 . S
C1093 C1092 1.366 . S
C1093 C1097 1.385 . S
C1094 H1075 0.951 . S
C1094 C1092 1.388 . S
C1094 C1095 1.366 . S
C1095 C1094 1.366 . S
C1095 C1096 1.414 . S
C1095 C1098 1.499 . S
C1096 H1076 0.950 . S
C1096 C1095 1.414 . S
C1096 C1097 1.374 . S
C1097 H1077 0.950 . S
C1097 C1093 1.385 . S
C1097 C1096 1.374 . S
C1098 C1095 1.499 . S
C1098 C1099 1.373 . S
C1098 C1100 1.389 . S
C1099 H1078 0.950 . S
C1099 C1098 1.373 . S
C1099 C1115 1.377 . S
C1100 C1098 1.389 . S
C1100 C1101 1.524 . S
C1100 C1114 1.377 . S
C1101 C1100 1.524 . S
C1101 C1102 1.397 . S
C1101 C1106 1.363 . S
C1102 H1079 0.950 . S
C1102 C1101 1.397 . S
C1102 C1103 1.334 . S
C1103 H1080 0.950 . S
C1103 C1102 1.334 . S
C1103 C1104 1.287 . S
C1104 C1103 1.287 . S
C1104 C1105 1.524 . S
C1104 H1123 0.913 . S
C1105 H1081 0.950 . S
C1105 C1104 1.524 . S
C1105 C1106 1.415 . S
C1106 H1082 0.950 . S
C1106 C1101 1.363 . S
C1106 C1105 1.415 . S
C1107 H1083 0.951 . S
C1107 C1108 1.366 . S
C1107 C1109 1.388 . S
C1108 C1107 1.366 . S
C1108 C1112 1.385 . S
C1109 H1084 0.951 . S
C1109 C1107 1.388 . S
C1109 C1110 1.366 . S
C1110 C1109 1.366 . S
C1110 C1111 1.414 . S
C1110 C1113 1.499 . S
C1111 H1085 0.950 . S
C1111 C1110 1.414 . S
C1111 C1112 1.374 . S
C1112 H1086 0.950 . S
C1112 C1108 1.385 . S
C1112 C1111 1.374 . S
C1113 C1110 1.499 . S
C1113 C1114 1.373 . S
C1113 C1115 1.389 . S
C1114 H1087 0.950 . S
C1114 C1100 1.377 . S
C1114 C1113 1.373 . S
C1115 C1099 1.377 . S
C1115 C1113 1.389 . S
C1115 C1116 1.524 . S
C1116 C1115 1.524 . S
C1116 C1117 1.397 . S
C1116 C1121 1.363 . S
C1117 H1088 0.950 . S
C1117 C1116 1.397 . S
C1117 C1118 1.334 . S
C1118 H1089 0.950 . S
C1118 C1117 1.334 . S
C1118 C1119 1.287 . S
C1119 C1118 1.287 . S
C1119 C1120 1.524 . S
C1119 H1122 0.999 . S
C1120 H1090 0.950 . S
C1120 C1119 1.524 . S
C1120 C1121 1.415 . S
C1121 H1091 0.950 . S
C1121 C1116 1.363 . S
C1121 C1120 1.415 . S
H1122 C1119 0.999 . S
H1123 C1104 0.913 . S
H1124 C1142 0.951 . S
H1125 C1144 0.951 . S
H1126 C1146 0.950 . S
H1127 C1147 0.950 . S
H1128 C1149 0.950 . S
H1129 C1152 0.950 . S
H1130 C1153 0.950 . S
H1131 C1155 0.950 . S
H1132 C1156 0.950 . S
H1133 C1157 0.951 . S
H1134 C1159 0.951 . S
H1135 C1161 0.950 . S
H1136 C1162 0.950 . S
H1137 C1164 0.950 . S
H1138 C1167 0.950 . S
H1139 C1168 0.950 . S
H1140 C1170 0.950 . S
H1141 C1171 0.950 . S
C1142 H1124 0.951 . S
C1142 C1143 1.366 . S
C1142 C1144 1.388 . S
C1143 C1142 1.366 . S
C1143 C1147 1.385 . S
C1144 H1125 0.951 . S
C1144 C1142 1.388 . S
C1144 C1145 1.366 . S
C1145 C1144 1.366 . S
C1145 C1146 1.414 . S
C1145 C1148 1.499 . S
C1146 H1126 0.950 . S
C1146 C1145 1.414 . S
C1146 C1147 1.374 . S
C1147 H1127 0.950 . S
C1147 C1143 1.385 . S
C1147 C1146 1.374 . S
C1148 C1145 1.499 . S
C1148 C1149 1.373 . S
C1148 C1150 1.389 . S
C1149 H1128 0.950 . S
C1149 C1148 1.373 . S
C1149 C1165 1.377 . S
C1150 C1148 1.389 . S
C1150 C1151 1.524 . S
C1150 C1164 1.377 . S
C1151 C1150 1.524 . S
C1151 C1152 1.397 . S
C1151 C1156 1.363 . S
C1152 H1129 0.950 . S
C1152 C1151 1.397 . S
C1152 C1153 1.334 . S
C1153 H1130 0.950 . S
C1153 C1152 1.334 . S
C1153 C1154 1.287 . S
C1154 C1153 1.287 . S
C1154 C1155 1.524 . S
C1154 H1173 0.913 . S
C1155 H1131 0.950 . S
C1155 C1154 1.524 . S
C1155 C1156 1.415 . S
C1156 H1132 0.950 . S
C1156 C1151 1.363 . S
C1156 C1155 1.415 . S
C1157 H1133 0.951 . S
C1157 C1158 1.366 . S
C1157 C1159 1.388 . S
C1158 C1157 1.366 . S
C1158 C1162 1.385 . S
C1159 H1134 0.951 . S
C1159 C1157 1.388 . S
C1159 C1160 1.366 . S
C1160 C1159 1.366 . S
C1160 C1161 1.414 . S
C1160 C1163 1.499 . S
C1161 H1135 0.950 . S
C1161 C1160 1.414 . S
C1161 C1162 1.374 . S
C1162 H1136 0.950 . S
C1162 C1158 1.385 . S
C1162 C1161 1.374 . S
C1163 C1160 1.499 . S
C1163 C1164 1.373 . S
C1163 C1165 1.389 . S
C1164 H1137 0.950 . S
C1164 C1150 1.377 . S
C1164 C1163 1.373 . S
C1165 C1149 1.377 . S
C1165 C1163 1.389 . S
C1165 C1166 1.524 . S
C1166 C1165 1.524 . S
C1166 C1167 1.397 . S
C1166 C1171 1.363 . S
C1167 H1138 0.950 . S
C1167 C1166 1.397 . S
C1167 C1168 1.334 . S
C1168 H1139 0.950 . S
C1168 C1167 1.334 . S
C1168 C1169 1.287 . S
C1169 C1168 1.287 . S
C1169 C1170 1.524 . S
C1169 H1172 0.999 . S
C1170 H1140 0.950 . S
C1170 C1169 1.524 . S
C1170 C1171 1.415 . S
C1171 H1141 0.950 . S
C1171 C1166 1.363 . S
C1171 C1170 1.415 . S
H1172 C1169 0.999 . S
H1173 C1154 0.913 . S
H1174 C1192 0.951 . S
H1175 C1194 0.951 . S
H1176 C1196 0.950 . S
H1177 C1197 0.950 . S
H1178 C1199 0.950 . S
H1179 C1202 0.950 . S
H1180 C1203 0.950 . S
H1181 C1205 0.950 . S
H1182 C1206 0.950 1_556 S
H1183 C1207 0.951 . S
H1184 C1209 0.951 . S
H1185 C1211 0.950 . S
H1186 C1212 0.950 . S
H1187 C1214 0.950 . S
H1188 C1217 0.950 . S
H1189 C1218 0.950 . S
H1190 C1220 0.950 . S
H1191 C1221 0.950 . S
C1192 H1174 0.951 . S
C1192 C1193 1.366 . S
C1192 C1194 1.388 . S
C1193 C1192 1.366 . S
C1193 C1197 1.385 . S
C1194 H1175 0.951 . S
C1194 C1192 1.388 . S
C1194 C1195 1.366 . S
C1195 C1194 1.366 . S
C1195 C1196 1.414 . S
C1195 C1198 1.499 . S
C1196 H1176 0.950 . S
C1196 C1195 1.414 . S
C1196 C1197 1.374 . S
C1197 H1177 0.950 . S
C1197 C1193 1.385 . S
C1197 C1196 1.374 . S
C1198 C1195 1.499 . S
C1198 C1199 1.373 . S
C1198 C1200 1.389 . S
C1199 H1178 0.950 . S
C1199 C1198 1.373 . S
C1199 C1215 1.377 . S
C1200 C1198 1.389 . S
C1200 C1201 1.524 . S
C1200 C1214 1.377 . S
C1201 C1200 1.524 . S
C1201 C1202 1.397 1_556 S
C1201 C1206 1.363 1_556 S
C1202 H1179 0.950 . S
C1202 C1201 1.397 1_554 S
C1202 C1203 1.334 . S
C1203 H1180 0.950 . S
C1203 C1202 1.334 . S
C1203 C1204 1.287 . S
C1204 C1203 1.287 . S
C1204 C1205 1.524 . S
C1204 H1223 0.913 . S
C1205 H1181 0.950 . S
C1205 C1204 1.524 . S
C1205 C1206 1.415 . S
C1206 H1182 0.950 1_554 S
C1206 C1201 1.363 1_554 S
C1206 C1205 1.415 . S
C1207 H1183 0.951 . S
C1207 C1208 1.366 . S
C1207 C1209 1.388 . S
C1208 C1207 1.366 . S
C1208 C1212 1.385 . S
C1209 H1184 0.951 . S
C1209 C1207 1.388 . S
C1209 C1210 1.366 . S
C1210 C1209 1.366 . S
C1210 C1211 1.414 . S
C1210 C1213 1.499 . S
C1211 H1185 0.950 . S
C1211 C1210 1.414 . S
C1211 C1212 1.374 . S
C1212 H1186 0.950 . S
C1212 C1208 1.385 . S
C1212 C1211 1.374 . S
C1213 C1210 1.499 . S
C1213 C1214 1.373 . S
C1213 C1215 1.389 . S
C1214 H1187 0.950 . S
C1214 C1200 1.377 . S
C1214 C1213 1.373 . S
C1215 C1199 1.377 . S
C1215 C1213 1.389 . S
C1215 C1216 1.524 . S
C1216 C1215 1.524 . S
C1216 C1217 1.397 . S
C1216 C1221 1.363 . S
C1217 H1188 0.950 . S
C1217 C1216 1.397 . S
C1217 C1218 1.334 . S
C1218 H1189 0.950 . S
C1218 C1217 1.334 . S
C1218 C1219 1.287 . S
C1219 C1218 1.287 . S
C1219 C1220 1.524 . S
C1219 H1222 0.999 . S
C1220 H1190 0.950 . S
C1220 C1219 1.524 . S
C1220 C1221 1.415 . S
C1221 H1191 0.950 . S
C1221 C1216 1.363 . S
C1221 C1220 1.415 . S
H1222 C1219 0.999 . S
H1223 C1204 0.913 . S
H1224 C1242 0.951 . S
H1225 C1244 0.951 . S
H1226 C1246 0.950 . S
H1227 C1247 0.950 . S
H1228 C1249 0.950 . S
H1229 C1252 0.950 . S
H1230 C1253 0.950 . S
H1231 C1255 0.950 . S
H1232 C1256 0.950 . S
H1233 C1257 0.951 . S
H1234 C1259 0.951 . S
H1235 C1261 0.950 . S
H1236 C1262 0.950 . S
H1237 C1264 0.950 . S
H1238 C1267 0.950 . S
H1239 C1268 0.950 . S
H1240 C1270 0.950 . S
H1241 C1271 0.950 . S
C1242 H1224 0.951 . S
C1242 C1243 1.366 . S
C1242 C1244 1.388 . S
C1243 C1242 1.366 . S
C1243 C1247 1.385 . S
C1244 H1225 0.951 . S
C1244 C1242 1.388 . S
C1244 C1245 1.366 . S
C1245 C1244 1.366 . S
C1245 C1246 1.414 . S
C1245 C1248 1.499 . S
C1246 H1226 0.950 . S
C1246 C1245 1.414 . S
C1246 C1247 1.374 . S
C1247 H1227 0.950 . S
C1247 C1243 1.385 . S
C1247 C1246 1.374 . S
C1248 C1245 1.499 . S
C1248 C1249 1.373 . S
C1248 C1250 1.389 . S
C1249 H1228 0.950 . S
C1249 C1248 1.373 . S
C1249 C1265 1.377 . S
C1250 C1248 1.389 . S
C1250 C1251 1.524 . S
C1250 C1264 1.377 . S
C1251 C1250 1.524 . S
C1251 C1252 1.397 . S
C1251 C1256 1.363 . S
C1252 H1229 0.950 . S
C1252 C1251 1.397 . S
C1252 C1253 1.334 . S
C1253 H1230 0.950 . S
C1253 C1252 1.334 . S
C1253 C1254 1.287 . S
C1254 C1253 1.287 . S
C1254 C1255 1.524 . S
C1254 H1273 0.913 . S
C1255 H1231 0.950 . S
C1255 C1254 1.524 . S
C1255 C1256 1.415 . S
C1256 H1232 0.950 . S
C1256 C1251 1.363 . S
C1256 C1255 1.415 . S
C1257 H1233 0.951 . S
C1257 C1258 1.366 . S
C1257 C1259 1.388 . S
C1258 C1257 1.366 . S
C1258 C1262 1.385 . S
C1259 H1234 0.951 . S
C1259 C1257 1.388 . S
C1259 C1260 1.366 . S
C1260 C1259 1.366 . S
C1260 C1261 1.414 . S
C1260 C1263 1.499 . S
C1261 H1235 0.950 . S
C1261 C1260 1.414 . S
C1261 C1262 1.374 . S
C1262 H1236 0.950 . S
C1262 C1258 1.385 . S
C1262 C1261 1.374 . S
C1263 C1260 1.499 . S
C1263 C1264 1.373 . S
C1263 C1265 1.389 . S
C1264 H1237 0.950 . S
C1264 C1250 1.377 . S
C1264 C1263 1.373 . S
C1265 C1249 1.377 . S
C1265 C1263 1.389 . S
C1265 C1266 1.524 . S
C1266 C1265 1.524 . S
C1266 C1267 1.397 . S
C1266 C1271 1.363 . S
C1267 H1238 0.950 . S
C1267 C1266 1.397 . S
C1267 C1268 1.334 . S
C1268 H1239 0.950 . S
C1268 C1267 1.334 . S
C1268 C1269 1.287 . S
C1269 C1268 1.287 . S
C1269 C1270 1.524 . S
C1269 H1272 0.999 . S
C1270 H1240 0.950 . S
C1270 C1269 1.524 . S
C1270 C1271 1.415 . S
C1271 H1241 0.950 . S
C1271 C1266 1.363 . S
C1271 C1270 1.415 . S
H1272 C1269 0.999 . S
H1273 C1254 0.913 . S
H1274 C1292 0.951 . S
H1275 C1294 0.951 . S
H1276 C1296 0.950 . S
H1277 C1297 0.950 . S
H1278 C1299 0.950 . S
H1279 C1302 0.950 . S
H1280 C1303 0.950 . S
H1281 C1305 0.950 . S
H1282 C1306 0.950 . S
H1283 C1307 0.951 . S
H1284 C1309 0.951 . S
H1285 C1311 0.950 . S
H1286 C1312 0.950 . S
H1287 C1314 0.950 . S
H1288 C1317 0.950 . S
H1289 C1318 0.950 . S
H1290 C1320 0.950 . S
H1291 C1321 0.950 . S
C1292 H1274 0.951 . S
C1292 C1293 1.366 . S
C1292 C1294 1.388 . S
C1293 C1292 1.366 . S
C1293 C1297 1.385 . S
C1294 H1275 0.951 . S
C1294 C1292 1.388 . S
C1294 C1295 1.366 . S
C1295 C1294 1.366 . S
C1295 C1296 1.414 . S
C1295 C1298 1.499 . S
C1296 H1276 0.950 . S
C1296 C1295 1.414 . S
C1296 C1297 1.374 . S
C1297 H1277 0.950 . S
C1297 C1293 1.385 . S
C1297 C1296 1.374 . S
C1298 C1295 1.499 . S
C1298 C1299 1.373 . S
C1298 C1300 1.389 . S
C1299 H1278 0.950 . S
C1299 C1298 1.373 . S
C1299 C1315 1.377 . S
C1300 C1298 1.389 . S
C1300 C1301 1.524 . S
C1300 C1314 1.377 . S
C1301 C1300 1.524 . S
C1301 C1302 1.397 . S
C1301 C1306 1.363 . S
C1302 H1279 0.950 . S
C1302 C1301 1.397 . S
C1302 C1303 1.334 . S
C1303 H1280 0.950 . S
C1303 C1302 1.334 . S
C1303 C1304 1.287 . S
C1304 C1303 1.287 . S
C1304 C1305 1.524 . S
C1304 H1323 0.913 . S
C1305 H1281 0.950 . S
C1305 C1304 1.524 . S
C1305 C1306 1.415 . S
C1306 H1282 0.950 . S
C1306 C1301 1.363 . S
C1306 C1305 1.415 . S
C1307 H1283 0.951 . S
C1307 C1308 1.366 . S
C1307 C1309 1.388 . S
C1308 C1307 1.366 . S
C1308 C1312 1.385 . S
C1309 H1284 0.951 . S
C1309 C1307 1.388 . S
C1309 C1310 1.366 . S
C1310 C1309 1.366 . S
C1310 C1311 1.414 . S
C1310 C1313 1.499 . S
C1311 H1285 0.950 . S
C1311 C1310 1.414 . S
C1311 C1312 1.374 . S
C1312 H1286 0.950 . S
C1312 C1308 1.385 . S
C1312 C1311 1.374 . S
C1313 C1310 1.499 . S
C1313 C1314 1.373 . S
C1313 C1315 1.389 . S
C1314 H1287 0.950 . S
C1314 C1300 1.377 . S
C1314 C1313 1.373 . S
C1315 C1299 1.377 . S
C1315 C1313 1.389 . S
C1315 C1316 1.524 . S
C1316 C1315 1.524 . S
C1316 C1317 1.397 . S
C1316 C1321 1.363 . S
C1317 H1288 0.950 . S
C1317 C1316 1.397 . S
C1317 C1318 1.334 . S
C1318 H1289 0.950 . S
C1318 C1317 1.334 . S
C1318 C1319 1.287 . S
C1319 C1318 1.287 . S
C1319 C1320 1.524 . S
C1319 H1322 0.999 . S
C1320 H1290 0.950 . S
C1320 C1319 1.524 . S
C1320 C1321 1.415 . S
C1321 H1291 0.950 . S
C1321 C1316 1.363 . S
C1321 C1320 1.415 . S
H1322 C1319 0.999 . S
H1323 C1304 0.913 . S
H1324 C1342 0.951 . S
H1325 C1344 0.951 . S
H1326 C1346 0.950 . S
H1327 C1347 0.950 . S
H1328 C1349 0.950 . S
H1329 C1352 0.950 . S
H1330 C1353 0.950 . S
H1331 C1355 0.950 . S
H1332 C1356 0.950 . S
H1333 C1357 0.951 . S
H1334 C1359 0.951 . S
H1335 C1361 0.950 . S
H1336 C1362 0.950 . S
H1337 C1364 0.950 . S
H1338 C1367 0.950 . S
H1339 C1368 0.950 . S
H1340 C1370 0.950 . S
H1341 C1371 0.950 . S
C1342 H1324 0.951 . S
C1342 C1343 1.366 . S
C1342 C1344 1.388 . S
C1343 C1342 1.366 . S
C1343 C1347 1.385 . S
C1344 H1325 0.951 . S
C1344 C1342 1.388 . S
C1344 C1345 1.366 . S
C1345 C1344 1.366 . S
C1345 C1346 1.414 . S
C1345 C1348 1.499 . S
C1346 H1326 0.950 . S
C1346 C1345 1.414 . S
C1346 C1347 1.374 . S
C1347 H1327 0.950 . S
C1347 C1343 1.385 . S
C1347 C1346 1.374 . S
C1348 C1345 1.499 . S
C1348 C1349 1.373 . S
C1348 C1350 1.389 . S
C1349 H1328 0.950 . S
C1349 C1348 1.373 . S
C1349 C1365 1.377 . S
C1350 C1348 1.389 . S
C1350 C1351 1.524 . S
C1350 C1364 1.377 . S
C1351 C1350 1.524 . S
C1351 C1352 1.397 . S
C1351 C1356 1.363 . S
C1352 H1329 0.950 . S
C1352 C1351 1.397 . S
C1352 C1353 1.334 . S
C1353 H1330 0.950 . S
C1353 C1352 1.334 . S
C1353 C1354 1.287 1_556 S
C1354 C1353 1.287 1_554 S
C1354 C1355 1.524 . S
C1354 H1373 0.913 . S
C1355 H1331 0.950 . S
C1355 C1354 1.524 . S
C1355 C1356 1.415 1_554 S
C1356 H1332 0.950 . S
C1356 C1351 1.363 . S
C1356 C1355 1.415 1_556 S
C1357 H1333 0.951 . S
C1357 C1358 1.366 . S
C1357 C1359 1.388 . S
C1358 C1357 1.366 . S
C1358 C1362 1.385 . S
C1359 H1334 0.951 . S
C1359 C1357 1.388 . S
C1359 C1360 1.366 . S
C1360 C1359 1.366 . S
C1360 C1361 1.414 . S
C1360 C1363 1.499 . S
C1361 H1335 0.950 . S
C1361 C1360 1.414 . S
C1361 C1362 1.374 . S
C1362 H1336 0.950 . S
C1362 C1358 1.385 . S
C1362 C1361 1.374 . S
C1363 C1360 1.499 . S
C1363 C1364 1.373 . S
C1363 C1365 1.389 . S
C1364 H1337 0.950 . S
C1364 C1350 1.377 . S
C1364 C1363 1.373 . S
C1365 C1349 1.377 . S
C1365 C1363 1.389 . S
C1365 C1366 1.524 . S
C1366 C1365 1.524 . S
C1366 C1367 1.397 . S
C1366 C1371 1.363 . S
C1367 H1338 0.950 . S
C1367 C1366 1.397 . S
C1367 C1368 1.334 . S
C1368 H1339 0.950 . S
C1368 C1367 1.334 . S
C1368 C1369 1.287 . S
C1369 C1368 1.287 . S
C1369 C1370 1.524 . S
C1369 H1372 0.999 . S
C1370 H1340 0.950 . S
C1370 C1369 1.524 . S
C1370 C1371 1.415 . S
C1371 H1341 0.950 . S
C1371 C1366 1.363 . S
C1371 C1370 1.415 . S
H1372 C1369 0.999 . S
H1373 C1354 0.913 . S
H1374 C1392 0.951 1_556 S
H1375 C1394 0.951 . S
H1376 C1396 0.950 . S
H1377 C1397 0.950 . S
H1378 C1399 0.950 . S
H1379 C1402 0.950 . S
H1380 C1403 0.950 . S
H1381 C1405 0.950 . S
H1382 C1406 0.952 . S
H1383 C1407 0.951 . S
H1384 C1409 0.951 . S
H1385 C1411 0.950 . S
H1386 C1412 0.950 . S
H1387 C1414 0.950 . S
H1388 C1417 0.950 . S
H1389 C1418 0.950 . S
H1390 C1420 0.950 . S
H1391 C1421 0.950 . S
C1392 H1374 0.951 1_554 S
C1392 C1393 1.366 . S
C1392 C1394 1.388 . S
C1393 C1392 1.366 . S
C1393 C1397 1.385 . S
C1394 H1375 0.951 . S
C1394 C1392 1.388 . S
C1394 C1395 1.366 . S
C1395 C1394 1.366 . S
C1395 C1396 1.414 . S
C1395 C1398 1.499 . S
C1396 H1376 0.950 . S
C1396 C1395 1.414 . S
C1396 C1397 1.374 . S
C1397 H1377 0.950 . S
C1397 C1393 1.385 . S
C1397 C1396 1.374 . S
C1398 C1395 1.499 . S
C1398 C1399 1.373 . S
C1398 C1400 1.389 . S
C1399 H1378 0.950 . S
C1399 C1398 1.373 . S
C1399 C1415 1.377 . S
C1400 C1398 1.389 . S
C1400 C1401 1.524 . S
C1400 C1414 1.377 . S
C1401 C1400 1.524 . S
C1401 C1402 1.397 . S
C1401 C1406 1.363 1_554 S
C1402 H1379 0.950 . S
C1402 C1401 1.397 . S
C1402 C1403 1.334 1_554 S
C1403 H1380 0.950 . S
C1403 C1402 1.334 1_556 S
C1403 C1404 1.287 . S
C1404 C1403 1.287 . S
C1404 C1405 1.524 . S
C1404 H1423 0.913 . S
C1405 H1381 0.950 . S
C1405 C1404 1.524 . S
C1405 C1406 1.415 . S
C1406 H1382 0.952 . S
C1406 C1401 1.363 1_556 S
C1406 C1405 1.415 . S
C1407 H1383 0.951 . S
C1407 C1408 1.366 . S
C1407 C1409 1.388 . S
C1408 C1407 1.366 . S
C1408 C1412 1.385 . S
C1409 H1384 0.951 . S
C1409 C1407 1.388 . S
C1409 C1410 1.366 . S
C1410 C1409 1.366 . S
C1410 C1411 1.414 . S
C1410 C1413 1.499 . S
C1411 H1385 0.950 . S
C1411 C1410 1.414 . S
C1411 C1412 1.374 . S
C1412 H1386 0.950 . S
C1412 C1408 1.385 . S
C1412 C1411 1.374 . S
C1413 C1410 1.499 . S
C1413 C1414 1.373 . S
C1413 C1415 1.389 . S
C1414 H1387 0.950 . S
C1414 C1400 1.377 . S
C1414 C1413 1.373 . S
C1415 C1399 1.377 . S
C1415 C1413 1.389 . S
C1415 C1416 1.524 . S
C1416 C1415 1.524 . S
C1416 C1417 1.397 . S
C1416 C1421 1.363 . S
C1417 H1388 0.950 . S
C1417 C1416 1.397 . S
C1417 C1418 1.334 . S
C1418 H1389 0.950 . S
C1418 C1417 1.334 . S
C1418 C1419 1.287 . S
C1419 C1418 1.287 . S
C1419 C1420 1.524 . S
C1419 H1422 0.999 . S
C1420 H1390 0.950 . S
C1420 C1419 1.524 . S
C1420 C1421 1.415 . S
C1421 H1391 0.950 . S
C1421 C1416 1.363 . S
C1421 C1420 1.415 . S
H1422 C1419 0.999 . S
H1423 C1404 0.913 . S
H1424 C1442 0.951 . S
H1425 C1444 0.951 . S
H1426 C1446 0.950 . S
H1427 C1447 0.950 1_554 S
H1428 C1449 0.950 . S
H1429 C1452 0.950 . S
H1430 C1453 0.950 1_554 S
H1431 C1455 0.950 . S
H1432 C1456 0.950 . S
H1433 C1457 0.951 . S
H1434 C1459 0.951 . S
H1435 C1461 0.950 . S
H1436 C1462 0.950 . S
H1437 C1464 0.950 . S
H1438 C1467 0.950 . S
H1439 C1468 0.950 . S
H1440 C1470 0.950 . S
H1441 C1471 0.950 . S
C1442 H1424 0.951 . S
C1442 C1443 1.366 . S
C1442 C1444 1.388 . S
C1443 C1442 1.366 . S
C1443 C1447 1.385 . S
C1444 H1425 0.951 . S
C1444 C1442 1.388 . S
C1444 C1445 1.366 . S
C1445 C1444 1.366 . S
C1445 C1446 1.414 . S
C1445 C1448 1.499 . S
C1446 H1426 0.950 . S
C1446 C1445 1.414 . S
C1446 C1447 1.374 . S
C1447 H1427 0.950 1_556 S
C1447 C1443 1.385 . S
C1447 C1446 1.374 . S
C1448 C1445 1.499 . S
C1448 C1449 1.373 . S
C1448 C1450 1.389 . S
C1449 H1428 0.950 . S
C1449 C1448 1.373 . S
C1449 C1465 1.377 . S
C1450 C1448 1.389 . S
C1450 C1451 1.524 . S
C1450 C1464 1.377 . S
C1451 C1450 1.524 . S
C1451 C1452 1.397 . S
C1451 C1456 1.363 . S
C1452 H1429 0.950 . S
C1452 C1451 1.397 . S
C1452 C1453 1.334 . S
C1453 H1430 0.950 1_556 S
C1453 C1452 1.334 . S
C1453 C1454 1.287 . S
C1454 C1453 1.287 . S
C1454 C1455 1.524 . S
C1454 H1473 0.913 . S
C1455 H1431 0.950 . S
C1455 C1454 1.524 . S
C1455 C1456 1.415 . S
C1456 H1432 0.950 . S
C1456 C1451 1.363 . S
C1456 C1455 1.415 . S
C1457 H1433 0.951 . S
C1457 C1458 1.366 . S
C1457 C1459 1.388 . S
C1458 C1457 1.366 . S
C1458 C1462 1.385 . S
C1459 H1434 0.951 . S
C1459 C1457 1.388 . S
C1459 C1460 1.366 . S
C1460 C1459 1.366 . S
C1460 C1461 1.414 . S
C1460 C1463 1.499 . S
C1461 H1435 0.950 . S
C1461 C1460 1.414 . S
C1461 C1462 1.374 . S
C1462 H1436 0.950 . S
C1462 C1458 1.385 . S
C1462 C1461 1.374 . S
C1463 C1460 1.499 . S
C1463 C1464 1.373 . S
C1463 C1465 1.389 . S
C1464 H1437 0.950 . S
C1464 C1450 1.377 . S
C1464 C1463 1.373 . S
C1465 C1449 1.377 . S
C1465 C1463 1.389 . S
C1465 C1466 1.524 . S
C1466 C1465 1.524 . S
C1466 C1467 1.397 . S
C1466 C1471 1.363 . S
C1467 H1438 0.950 . S
C1467 C1466 1.397 . S
C1467 C1468 1.334 . S
C1468 H1439 0.950 . S
C1468 C1467 1.334 . S
C1468 C1469 1.287 . S
C1469 C1468 1.287 . S
C1469 C1470 1.524 . S
C1469 H1472 0.999 . S
C1470 H1440 0.950 . S
C1470 C1469 1.524 . S
C1470 C1471 1.415 . S
C1471 H1441 0.950 . S
C1471 C1466 1.363 . S
C1471 C1470 1.415 . S
H1472 C1469 0.999 . S
H1473 C1454 0.913 . S
H1474 C1492 0.951 . S
H1475 C1494 0.951 . S
H1476 C1496 0.950 . S
H1477 C1497 0.950 . S
H1478 C1499 0.950 . S
H1479 C1502 0.950 . S
H1480 C1503 0.950 . S
H1481 C1505 0.950 . S
H1482 C1506 0.950 . S
H1483 C1507 0.951 . S
H1484 C1509 0.951 . S
H1485 C1511 0.950 . S
H1486 C1512 0.950 . S
H1487 C1514 0.950 . S
H1488 C1517 0.950 . S
H1489 C1518 0.950 . S
H1490 C1520 0.950 . S
H1491 C1521 0.950 . S
C1492 H1474 0.951 . S
C1492 C1493 1.366 . S
C1492 C1494 1.388 . S
C1493 C1492 1.366 . S
C1493 C1497 1.385 . S
C1494 H1475 0.951 . S
C1494 C1492 1.388 . S
C1494 C1495 1.366 . S
C1495 C1494 1.366 . S
C1495 C1496 1.414 . S
C1495 C1498 1.499 . S
C1496 H1476 0.950 . S
C1496 C1495 1.414 . S
C1496 C1497 1.374 . S
C1497 H1477 0.950 . S
C1497 C1493 1.385 . S
C1497 C1496 1.374 . S
C1498 C1495 1.499 . S
C1498 C1499 1.373 . S
C1498 C1500 1.389 . S
C1499 H1478 0.950 . S
C1499 C1498 1.373 . S
C1499 C1515 1.377 . S
C1500 C1498 1.389 . S
C1500 C1501 1.524 . S
C1500 C1514 1.377 . S
C1501 C1500 1.524 . S
C1501 C1502 1.397 . S
C1501 C1506 1.363 . S
C1502 H1479 0.950 . S
C1502 C1501 1.397 . S
C1502 C1503 1.334 . S
C1503 H1480 0.950 . S
C1503 C1502 1.334 . S
C1503 C1504 1.287 . S
C1504 C1503 1.287 . S
C1504 C1505 1.524 . S
C1504 H1523 0.913 . S
C1505 H1481 0.950 . S
C1505 C1504 1.524 . S
C1505 C1506 1.415 . S
C1506 H1482 0.950 . S
C1506 C1501 1.363 . S
C1506 C1505 1.415 . S
C1507 H1483 0.951 . S
C1507 C1508 1.366 . S
C1507 C1509 1.388 . S
C1508 C1507 1.366 . S
C1508 C1512 1.385 . S
C1509 H1484 0.951 . S
C1509 C1507 1.388 . S
C1509 C1510 1.366 . S
C1510 C1509 1.366 . S
C1510 C1511 1.414 . S
C1510 C1513 1.499 . S
C1511 H1485 0.950 . S
C1511 C1510 1.414 . S
C1511 C1512 1.374 . S
C1512 H1486 0.950 . S
C1512 C1508 1.385 . S
C1512 C1511 1.374 . S
C1513 C1510 1.499 . S
C1513 C1514 1.373 . S
C1513 C1515 1.389 . S
C1514 H1487 0.950 . S
C1514 C1500 1.377 . S
C1514 C1513 1.373 . S
C1515 C1499 1.377 . S
C1515 C1513 1.389 . S
C1515 C1516 1.524 . S
C1516 C1515 1.524 . S
C1516 C1517 1.397 . S
C1516 C1521 1.363 . S
C1517 H1488 0.950 . S
C1517 C1516 1.397 . S
C1517 C1518 1.334 . S
C1518 H1489 0.950 . S
C1518 C1517 1.334 . S
C1518 C1519 1.287 . S
C1519 C1518 1.287 . S
C1519 C1520 1.524 . S
C1519 H1522 0.999 . S
C1520 H1490 0.950 . S
C1520 C1519 1.524 . S
C1520 C1521 1.415 . S
C1521 H1491 0.950 . S
C1521 C1516 1.363 . S
C1521 C1520 1.415 . S
H1522 C1519 0.999 . S
H1523 C1504 0.913 . S
H1524 C1542 0.951 . S
H1525 C1544 0.951 . S
H1526 C1546 0.950 . S
H1527 C1547 0.950 . S
H1528 C1549 0.950 . S
H1529 C1552 0.950 . S
H1530 C1553 0.950 . S
H1531 C1555 0.950 . S
H1532 C1556 0.950 . S
H1533 C1557 0.951 . S
H1534 C1559 0.951 . S
H1535 C1561 0.950 . S
H1536 C1562 0.950 . S
H1537 C1564 0.950 . S
H1538 C1567 0.950 . S
H1539 C1568 0.950 . S
H1540 C1570 0.950 . S
H1541 C1571 0.950 . S
C1542 H1524 0.951 . S
C1542 C1543 1.366 . S
C1542 C1544 1.388 . S
C1543 C1542 1.366 . S
C1543 C1547 1.385 . S
C1544 H1525 0.951 . S
C1544 C1542 1.388 . S
C1544 C1545 1.366 . S
C1545 C1544 1.366 . S
C1545 C1546 1.414 . S
C1545 C1548 1.499 . S
C1546 H1526 0.950 . S
C1546 C1545 1.414 . S
C1546 C1547 1.374 . S
C1547 H1527 0.950 . S
C1547 C1543 1.385 . S
C1547 C1546 1.374 . S
C1548 C1545 1.499 . S
C1548 C1549 1.373 . S
C1548 C1550 1.389 . S
C1549 H1528 0.950 . S
C1549 C1548 1.373 . S
C1549 C1565 1.377 . S
C1550 C1548 1.389 . S
C1550 C1551 1.524 . S
C1550 C1564 1.377 . S
C1551 C1550 1.524 . S
C1551 C1552 1.397 . S
C1551 C1556 1.363 . S
C1552 H1529 0.950 . S
C1552 C1551 1.397 . S
C1552 C1553 1.334 . S
C1553 H1530 0.950 . S
C1553 C1552 1.334 . S
C1553 C1554 1.287 . S
C1554 C1553 1.287 . S
C1554 C1555 1.524 . S
C1554 H1573 0.913 . S
C1555 H1531 0.950 . S
C1555 C1554 1.524 . S
C1555 C1556 1.415 . S
C1556 H1532 0.950 . S
C1556 C1551 1.363 . S
C1556 C1555 1.415 . S
C1557 H1533 0.951 . S
C1557 C1558 1.366 . S
C1557 C1559 1.388 . S
C1558 C1557 1.366 . S
C1558 C1562 1.385 . S
C1559 H1534 0.951 . S
C1559 C1557 1.388 . S
C1559 C1560 1.366 . S
C1560 C1559 1.366 . S
C1560 C1561 1.414 . S
C1560 C1563 1.499 . S
C1561 H1535 0.950 . S
C1561 C1560 1.414 . S
C1561 C1562 1.374 . S
C1562 H1536 0.950 . S
C1562 C1558 1.385 . S
C1562 C1561 1.374 . S
C1563 C1560 1.499 . S
C1563 C1564 1.373 . S
C1563 C1565 1.389 . S
C1564 H1537 0.950 . S
C1564 C1550 1.377 . S
C1564 C1563 1.373 . S
C1565 C1549 1.377 . S
C1565 C1563 1.389 . S
C1565 C1566 1.524 . S
C1566 C1565 1.524 . S
C1566 C1567 1.397 . S
C1566 C1571 1.363 . S
C1567 H1538 0.950 . S
C1567 C1566 1.397 . S
C1567 C1568 1.334 . S
C1568 H1539 0.950 . S
C1568 C1567 1.334 . S
C1568 C1569 1.287 . S
C1569 C1568 1.287 . S
C1569 C1570 1.524 . S
C1569 H1572 0.999 . S
C1570 H1540 0.950 . S
C1570 C1569 1.524 . S
C1570 C1571 1.415 . S
C1571 H1541 0.950 . S
C1571 C1566 1.363 . S
C1571 C1570 1.415 . S
H1572 C1569 0.999 . S
H1573 C1554 0.913 . S
H1574 C1592 0.951 . S
H1575 C1594 0.951 . S
H1576 C1596 0.950 . S
H1577 C1597 0.950 . S
H1578 C1599 0.950 . S
H1579 C1602 0.950 . S
H1580 C1603 0.950 . S
H1581 C1605 0.950 . S
H1582 C1606 0.950 . S
H1583 C1607 0.951 1_556 S
H1584 C1609 0.951 . S
H1585 C1611 0.950 . S
H1586 C1612 0.950 . S
H1587 C1614 0.950 . S
H1588 C1617 0.950 . S
H1589 C1618 0.950 1_554 S
H1590 C1620 0.950 . S
H1591 C1621 0.950 . S
C1592 H1574 0.951 . S
C1592 C1593 1.366 . S
C1592 C1594 1.388 . S
C1593 C1592 1.366 . S
C1593 C1597 1.385 . S
C1594 H1575 0.951 . S
C1594 C1592 1.388 . S
C1594 C1595 1.366 . S
C1595 C1594 1.366 . S
C1595 C1596 1.414 . S
C1595 C1598 1.499 . S
C1596 H1576 0.950 . S
C1596 C1595 1.414 . S
C1596 C1597 1.374 . S
C1597 H1577 0.950 . S
C1597 C1593 1.385 . S
C1597 C1596 1.374 . S
C1598 C1595 1.499 . S
C1598 C1599 1.373 . S
C1598 C1600 1.389 . S
C1599 H1578 0.950 . S
C1599 C1598 1.373 . S
C1599 C1615 1.377 . S
C1600 C1598 1.389 . S
C1600 C1601 1.524 . S
C1600 C1614 1.377 . S
C1601 C1600 1.524 . S
C1601 C1602 1.397 . S
C1601 C1606 1.363 . S
C1602 H1579 0.950 . S
C1602 C1601 1.397 . S
C1602 C1603 1.334 . S
C1603 H1580 0.950 . S
C1603 C1602 1.334 . S
C1603 C1604 1.287 . S
C1604 C1603 1.287 . S
C1604 C1605 1.524 . S
C1604 H1623 0.913 . S
C1605 H1581 0.950 . S
C1605 C1604 1.524 . S
C1605 C1606 1.415 . S
C1606 H1582 0.950 . S
C1606 C1601 1.363 . S
C1606 C1605 1.415 . S
C1607 H1583 0.951 1_554 S
C1607 C1608 1.366 . S
C1607 C1609 1.388 . S
C1608 C1607 1.366 . S
C1608 C1612 1.385 . S
C1609 H1584 0.951 . S
C1609 C1607 1.388 . S
C1609 C1610 1.366 . S
C1610 C1609 1.366 . S
C1610 C1611 1.414 . S
C1610 C1613 1.499 . S
C1611 H1585 0.950 . S
C1611 C1610 1.414 . S
C1611 C1612 1.374 . S
C1612 H1586 0.950 . S
C1612 C1608 1.385 . S
C1612 C1611 1.374 . S
C1613 C1610 1.499 . S
C1613 C1614 1.373 . S
C1613 C1615 1.389 . S
C1614 H1587 0.950 . S
C1614 C1600 1.377 . S
C1614 C1613 1.373 . S
C1615 C1599 1.377 . S
C1615 C1613 1.389 . S
C1615 C1616 1.524 . S
C1616 C1615 1.524 . S
C1616 C1617 1.397 . S
C1616 C1621 1.363 1_554 S
C1617 H1588 0.950 . S
C1617 C1616 1.397 . S
C1617 C1618 1.334 1_554 S
C1618 H1589 0.950 1_556 S
C1618 C1617 1.334 1_556 S
C1618 C1619 1.287 . S
C1619 C1618 1.287 . S
C1619 C1620 1.524 . S
C1619 H1622 0.999 . S
C1620 H1590 0.950 . S
C1620 C1619 1.524 . S
C1620 C1621 1.415 . S
C1621 H1591 0.950 . S
C1621 C1616 1.363 1_556 S
C1621 C1620 1.415 . S
H1622 C1619 0.999 . S
H1623 C1604 0.913 . S
H1624 C1642 0.951 . S
H1625 C1644 0.951 . S
H1626 C1646 0.950 . S
H1627 C1647 0.950 . S
H1628 C1649 0.950 . S
H1629 C1652 0.950 . S
H1630 C1653 0.950 . S
H1631 C1655 0.950 . S
H1632 C1656 0.950 . S
H1633 C1657 0.951 . S
H1634 C1659 0.951 . S
H1635 C1661 0.950 . S
H1636 C1662 0.950 . S
H1637 C1664 0.950 . S
H1638 C1667 0.950 . S
H1639 C1668 0.950 . S
H1640 C1670 0.950 . S
H1641 C1671 0.950 . S
C1642 H1624 0.951 . S
C1642 C1643 1.366 . S
C1642 C1644 1.388 . S
C1643 C1642 1.366 . S
C1643 C1647 1.385 . S
C1644 H1625 0.951 . S
C1644 C1642 1.388 . S
C1644 C1645 1.366 . S
C1645 C1644 1.366 . S
C1645 C1646 1.414 . S
C1645 C1648 1.499 . S
C1646 H1626 0.950 . S
C1646 C1645 1.414 . S
C1646 C1647 1.374 . S
C1647 H1627 0.950 . S
C1647 C1643 1.385 . S
C1647 C1646 1.374 . S
C1648 C1645 1.499 . S
C1648 C1649 1.373 . S
C1648 C1650 1.389 . S
C1649 H1628 0.950 . S
C1649 C1648 1.373 . S
C1649 C1665 1.377 . S
C1650 C1648 1.389 . S
C1650 C1651 1.524 . S
C1650 C1664 1.377 . S
C1651 C1650 1.524 . S
C1651 C1652 1.397 . S
C1651 C1656 1.363 . S
C1652 H1629 0.950 . S
C1652 C1651 1.397 . S
C1652 C1653 1.334 . S
C1653 H1630 0.950 . S
C1653 C1652 1.334 . S
C1653 C1654 1.287 . S
C1654 C1653 1.287 . S
C1654 C1655 1.524 . S
C1654 H1673 0.913 . S
C1655 H1631 0.950 . S
C1655 C1654 1.524 . S
C1655 C1656 1.415 . S
C1656 H1632 0.950 . S
C1656 C1651 1.363 . S
C1656 C1655 1.415 . S
C1657 H1633 0.951 . S
C1657 C1658 1.366 . S
C1657 C1659 1.388 . S
C1658 C1657 1.366 . S
C1658 C1662 1.385 . S
C1659 H1634 0.951 . S
C1659 C1657 1.388 . S
C1659 C1660 1.366 . S
C1660 C1659 1.366 . S
C1660 C1661 1.414 . S
C1660 C1663 1.499 . S
C1661 H1635 0.950 . S
C1661 C1660 1.414 . S
C1661 C1662 1.374 . S
C1662 H1636 0.950 . S
C1662 C1658 1.385 . S
C1662 C1661 1.374 . S
C1663 C1660 1.499 . S
C1663 C1664 1.373 . S
C1663 C1665 1.389 . S
C1664 H1637 0.950 . S
C1664 C1650 1.377 . S
C1664 C1663 1.373 . S
C1665 C1649 1.377 . S
C1665 C1663 1.389 . S
C1665 C1666 1.524 . S
C1666 C1665 1.524 . S
C1666 C1667 1.397 . S
C1666 C1671 1.363 . S
C1667 H1638 0.950 . S
C1667 C1666 1.397 . S
C1667 C1668 1.334 . S
C1668 H1639 0.950 . S
C1668 C1667 1.334 . S
C1668 C1669 1.287 . S
C1669 C1668 1.287 . S
C1669 C1670 1.524 . S
C1669 H1672 0.999 . S
C1670 H1640 0.950 . S
C1670 C1669 1.524 . S
C1670 C1671 1.415 . S
C1671 H1641 0.950 . S
C1671 C1666 1.363 . S
C1671 C1670 1.415 . S
H1672 C1669 0.999 . S
H1673 C1654 0.913 . S
H1674 C1692 0.951 . S
H1675 C1694 0.951 . S
H1676 C1696 0.950 . S
H1677 C1697 0.950 . S
H1678 C1699 0.950 . S
H1679 C1702 0.950 . S
H1680 C1703 0.950 . S
H1681 C1705 0.950 . S
H1682 C1706 0.950 . S
H1683 C1707 0.951 . S
H1684 C1709 0.951 . S
H1685 C1711 0.950 . S
H1686 C1712 0.950 . S
H1687 C1714 0.950 . S
H1688 C1717 0.950 . S
H1689 C1718 0.950 . S
H1690 C1720 0.950 . S
H1691 C1721 0.950 . S
C1692 H1674 0.951 . S
C1692 C1693 1.366 . S
C1692 C1694 1.388 . S
C1693 C1692 1.366 . S
C1693 C1697 1.385 . S
C1694 H1675 0.951 . S
C1694 C1692 1.388 . S
C1694 C1695 1.366 . S
C1695 C1694 1.366 . S
C1695 C1696 1.414 . S
C1695 C1698 1.499 . S
C1696 H1676 0.950 . S
C1696 C1695 1.414 . S
C1696 C1697 1.374 . S
C1697 H1677 0.950 . S
C1697 C1693 1.385 . S
C1697 C1696 1.374 . S
C1698 C1695 1.499 . S
C1698 C1699 1.373 . S
C1698 C1700 1.389 . S
C1699 H1678 0.950 . S
C1699 C1698 1.373 . S
C1699 C1715 1.377 . S
C1700 C1698 1.389 . S
C1700 C1701 1.524 . S
C1700 C1714 1.377 . S
C1701 C1700 1.524 . S
C1701 C1702 1.397 . S
C1701 C1706 1.363 . S
C1702 H1679 0.950 . S
C1702 C1701 1.397 . S
C1702 C1703 1.334 . S
C1703 H1680 0.950 . S
C1703 C1702 1.334 . S
C1703 C1704 1.287 . S
C1704 C1703 1.287 . S
C1704 C1705 1.524 . S
C1704 H1723 0.913 . S
C1705 H1681 0.950 . S
C1705 C1704 1.524 . S
C1705 C1706 1.415 . S
C1706 H1682 0.950 . S
C1706 C1701 1.363 . S
C1706 C1705 1.415 . S
C1707 H1683 0.951 . S
C1707 C1708 1.366 . S
C1707 C1709 1.388 . S
C1708 C1707 1.366 . S
C1708 C1712 1.385 . S
C1709 H1684 0.951 . S
C1709 C1707 1.388 . S
C1709 C1710 1.366 . S
C1710 C1709 1.366 . S
C1710 C1711 1.414 . S
C1710 C1713 1.499 . S
C1711 H1685 0.950 . S
C1711 C1710 1.414 . S
C1711 C1712 1.374 . S
C1712 H1686 0.950 . S
C1712 C1708 1.385 . S
C1712 C1711 1.374 . S
C1713 C1710 1.499 . S
C1713 C1714 1.373 . S
C1713 C1715 1.389 . S
C1714 H1687 0.950 . S
C1714 C1700 1.377 . S
C1714 C1713 1.373 . S
C1715 C1699 1.377 . S
C1715 C1713 1.389 . S
C1715 C1716 1.524 . S
C1716 C1715 1.524 . S
C1716 C1717 1.397 . S
C1716 C1721 1.363 . S
C1717 H1688 0.950 . S
C1717 C1716 1.397 . S
C1717 C1718 1.334 . S
C1718 H1689 0.950 . S
C1718 C1717 1.334 . S
C1718 C1719 1.287 . S
C1719 C1718 1.287 . S
C1719 C1720 1.524 . S
C1719 H1722 0.999 . S
C1720 H1690 0.950 . S
C1720 C1719 1.524 . S
C1720 C1721 1.415 . S
C1721 H1691 0.950 . S
C1721 C1716 1.363 . S
C1721 C1720 1.415 . S
H1722 C1719 0.999 . S
H1723 C1704 0.913 . S
H1724 C1742 0.951 . S
H1725 C1744 0.951 . S
H1726 C1746 0.950 . S
H1727 C1747 0.950 . S
H1728 C1749 0.950 . S
H1729 C1752 0.950 . S
H1730 C1753 0.950 . S
H1731 C1755 0.950 . S
H1732 C1756 0.950 . S
H1733 C1757 0.951 . S
H1734 C1759 0.951 . S
H1735 C1761 0.950 . S
H1736 C1762 0.950 . S
H1737 C1764 0.950 . S
H1738 C1767 0.950 . S
H1739 C1768 0.950 . S
H1740 C1770 0.950 . S
H1741 C1771 0.950 . S
C1742 H1724 0.951 . S
C1742 C1743 1.366 . S
C1742 C1744 1.388 . S
C1743 C1742 1.366 . S
C1743 C1747 1.385 . S
C1744 H1725 0.951 . S
C1744 C1742 1.388 . S
C1744 C1745 1.366 . S
C1745 C1744 1.366 . S
C1745 C1746 1.414 . S
C1745 C1748 1.499 . S
C1746 H1726 0.950 . S
C1746 C1745 1.414 . S
C1746 C1747 1.374 . S
C1747 H1727 0.950 . S
C1747 C1743 1.385 . S
C1747 C1746 1.374 . S
C1748 C1745 1.499 . S
C1748 C1749 1.373 . S
C1748 C1750 1.389 . S
C1749 H1728 0.950 . S
C1749 C1748 1.373 . S
C1749 C1765 1.377 . S
C1750 C1748 1.389 . S
C1750 C1751 1.524 . S
C1750 C1764 1.377 . S
C1751 C1750 1.524 . S
C1751 C1752 1.397 . S
C1751 C1756 1.363 . S
C1752 H1729 0.950 . S
C1752 C1751 1.397 . S
C1752 C1753 1.334 . S
C1753 H1730 0.950 . S
C1753 C1752 1.334 . S
C1753 C1754 1.287 . S
C1754 C1753 1.287 . S
C1754 C1755 1.524 . S
C1754 H1773 0.913 . S
C1755 H1731 0.950 . S
C1755 C1754 1.524 . S
C1755 C1756 1.415 . S
C1756 H1732 0.950 . S
C1756 C1751 1.363 . S
C1756 C1755 1.415 . S
C1757 H1733 0.951 . S
C1757 C1758 1.366 . S
C1757 C1759 1.388 . S
C1758 C1757 1.366 . S
C1758 C1762 1.385 . S
C1759 H1734 0.951 . S
C1759 C1757 1.388 . S
C1759 C1760 1.366 . S
C1760 C1759 1.366 . S
C1760 C1761 1.414 . S
C1760 C1763 1.499 . S
C1761 H1735 0.950 . S
C1761 C1760 1.414 . S
C1761 C1762 1.374 . S
C1762 H1736 0.950 . S
C1762 C1758 1.385 . S
C1762 C1761 1.374 . S
C1763 C1760 1.499 . S
C1763 C1764 1.373 . S
C1763 C1765 1.389 . S
C1764 H1737 0.950 . S
C1764 C1750 1.377 . S
C1764 C1763 1.373 . S
C1765 C1749 1.377 . S
C1765 C1763 1.389 . S
C1765 C1766 1.524 . S
C1766 C1765 1.524 . S
C1766 C1767 1.397 . S
C1766 C1771 1.363 . S
C1767 H1738 0.950 . S
C1767 C1766 1.397 . S
C1767 C1768 1.334 . S
C1768 H1739 0.950 . S
C1768 C1767 1.334 . S
C1768 C1769 1.287 . S
C1769 C1768 1.287 . S
C1769 C1770 1.524 . S
C1769 H1772 0.999 . S
C1770 H1740 0.950 . S
C1770 C1769 1.524 . S
C1770 C1771 1.415 . S
C1771 H1741 0.950 . S
C1771 C1766 1.363 . S
C1771 C1770 1.415 . S
H1772 C1769 0.999 . S
H1773 C1754 0.913 . S
H1774 C1792 0.951 1_554 S
H1775 C1794 0.951 . S
H1776 C1796 0.950 . S
H1777 C1797 0.950 . S
H1778 C1799 0.950 . S
H1779 C1802 0.950 . S
H1780 C1803 0.950 . S
H1781 C1805 0.950 . S
H1782 C1806 0.950 . S
H1783 C1807 0.951 . S
H1784 C1809 0.951 . S
H1785 C1811 0.950 . S
H1786 C1812 0.950 . S
H1787 C1814 0.950 . S
H1788 C1817 0.950 . S
H1789 C1818 0.950 . S
H1790 C1820 0.950 . S
H1791 C1821 0.950 . S
C1792 H1774 0.951 1_556 S
C1792 C1793 1.366 . S
C1792 C1794 1.388 . S
C1793 C1792 1.366 . S
C1793 C1797 1.385 . S
C1794 H1775 0.951 . S
C1794 C1792 1.388 . S
C1794 C1795 1.366 . S
C1795 C1794 1.366 . S
C1795 C1796 1.414 . S
C1795 C1798 1.499 . S
C1796 H1776 0.950 . S
C1796 C1795 1.414 . S
C1796 C1797 1.374 . S
C1797 H1777 0.950 . S
C1797 C1793 1.385 . S
C1797 C1796 1.374 . S
C1798 C1795 1.499 . S
C1798 C1799 1.373 . S
C1798 C1800 1.389 . S
C1799 H1778 0.950 . S
C1799 C1798 1.373 . S
C1799 C1815 1.377 . S
C1800 C1798 1.389 . S
C1800 C1801 1.524 . S
C1800 C1814 1.377 . S
C1801 C1800 1.524 . S
C1801 C1802 1.397 . S
C1801 C1806 1.363 . S
C1802 H1779 0.950 . S
C1802 C1801 1.397 . S
C1802 C1803 1.334 . S
C1803 H1780 0.950 . S
C1803 C1802 1.334 . S
C1803 C1804 1.287 . S
C1804 C1803 1.287 . S
C1804 C1805 1.524 . S
C1804 H1823 0.913 . S
C1805 H1781 0.950 . S
C1805 C1804 1.524 . S
C1805 C1806 1.415 . S
C1806 H1782 0.950 . S
C1806 C1801 1.363 . S
C1806 C1805 1.415 . S
C1807 H1783 0.951 . S
C1807 C1808 1.366 . S
C1807 C1809 1.388 . S
C1808 C1807 1.366 . S
C1808 C1812 1.385 . S
C1809 H1784 0.951 . S
C1809 C1807 1.388 . S
C1809 C1810 1.366 . S
C1810 C1809 1.366 . S
C1810 C1811 1.414 . S
C1810 C1813 1.499 . S
C1811 H1785 0.950 . S
C1811 C1810 1.414 . S
C1811 C1812 1.374 . S
C1812 H1786 0.950 . S
C1812 C1808 1.385 . S
C1812 C1811 1.374 . S
C1813 C1810 1.499 . S
C1813 C1814 1.373 . S
C1813 C1815 1.389 . S
C1814 H1787 0.950 . S
C1814 C1800 1.377 . S
C1814 C1813 1.373 . S
C1815 C1799 1.377 . S
C1815 C1813 1.389 . S
C1815 C1816 1.524 . S
C1816 C1815 1.524 . S
C1816 C1817 1.397 . S
C1816 C1821 1.363 . S
C1817 H1788 0.950 . S
C1817 C1816 1.397 . S
C1817 C1818 1.334 . S
C1818 H1789 0.950 . S
C1818 C1817 1.334 . S
C1818 C1819 1.287 . S
C1819 C1818 1.287 . S
C1819 C1820 1.524 . S
C1819 H1822 0.999 . S
C1820 H1790 0.950 . S
C1820 C1819 1.524 . S
C1820 C1821 1.415 . S
C1821 H1791 0.950 . S
C1821 C1816 1.363 . S
C1821 C1820 1.415 . S
H1822 C1819 0.999 . S
H1823 C1804 0.913 . S
C243 C7 0.905 . S
C258 C175 0.905 . S
C293 C22 1.169 . S
C308 C78 1.169 . S
C343 C35 0.904 . S
C358 C203 0.904 . S
C393 C106 1.169 . S
C408 C50 1.169 . S
C443 C204 1.170 . S
C458 C36 1.170 . S
C493 C105 0.904 . S
C508 C49 0.904 . S
C543 C176 1.169 . S
C558 C8 1.169 . S
C593 C77 0.904 . S
C608 C21 0.904 . S
C643 C63 0.904 . S
C658 C119 0.904 . S
C693 C91 0.904 . S
C708 C147 0.904 . S
C743 C148 1.169 . S
C758 C92 1.169 . S
C793 C64 1.170 . S
C808 C120 1.170 . S
C843 C190 1.169 . S
C858 C134 1.169 . S
C893 C162 1.168 . S
C908 C218 1.168 . S
C943 C161 0.904 . S
C958 C217 0.904 . S
C993 C133 0.904 . S
C1008 C189 0.904 . S
C1043 C165 1.446 . S
C1058 C11 1.446 . S
C1093 C125 1.381 . S
C1108 C27 1.382 . S
C1143 C39 1.446 . S
C1158 C137 1.446 . S
C1193 C153 1.382 . S
C1208 C55 1.382 . S
C1243 C167 1.382 . S
C1258 C41 1.383 . S
C1293 C53 1.446 . S
C1308 C123 1.446 . S
C1343 C139 1.382 . S
C1358 C13 1.382 . S
C1393 C151 1.446 . S
C1408 C25 1.446 . S
C1443 C67 1.446 . S
C1458 C221 1.446 . S
C1493 C181 1.382 . S
C1508 C83 1.383 . S
C1543 C95 1.446 . S
C1558 C193 1.446 . S
C1593 C111 1.383 . S
C1608 C209 1.381 . S
C1643 C97 1.382 . S
C1658 C223 1.382 . S
C1693 C179 1.446 . S
C1708 C109 1.446 . S
C1743 C195 1.382 . S
C1758 C69 1.382 . S
C1793 C207 1.446 . S
C1808 C81 1.446 . S
