# Generated by pormake.
# Topology umm, (4)-cn, num edge types: 1
# Building blocks:
#     Node 0, Type 0, BuildingBlock: KOZSID_clean_sbu_0, # of connection points: 4
#     Node 1, Type 0, BuildingBlock: KOZSID_clean_sbu_0, # of connection points: 4
#     Node 2, Type 0, BuildingBlock: KOZSID_clean_sbu_0, # of connection points: 4
#     Node 3, Type 0, BuildingBlock: KOZSID_clean_sbu_0, # of connection points: 4
#     Node 4, Type 0, BuildingBlock: KOZSID_clean_sbu_0, # of connection points: 4
#     Node 5, Type 0, BuildingBlock: KOZSID_clean_sbu_0, # of connection points: 4
#     Node 6, Type 0, BuildingBlock: KOZSID_clean_sbu_0, # of connection points: 4
#     Node 7, Type 0, BuildingBlock: KOZSID_clean_sbu_0, # of connection points: 4
#     Node 8, Type 0, BuildingBlock: KOZSID_clean_sbu_0, # of connection points: 4
#     Node 9, Type 0, BuildingBlock: KOZSID_clean_sbu_0, # of connection points: 4
#     Node 10, Type 0, BuildingBlock: KOZSID_clean_sbu_0, # of connection points: 4
#     Node 11, Type 0, BuildingBlock: KOZSID_clean_sbu_0, # of connection points: 4
#     Edge 12, Type (0, 0), BuildingBlock: XIVTED_clean_linker_0, # of connection points: 2
#     Edge 13, Type (0, 0), BuildingBlock: XIVTED_clean_linker_0, # of connection points: 2
#     Edge 14, Type (0, 0), BuildingBlock: XIVTED_clean_linker_0, # of connection points: 2
#     Edge 15, Type (0, 0), BuildingBlock: XIVTED_clean_linker_0, # of connection points: 2
#     Edge 16, Type (0, 0), BuildingBlock: XIVTED_clean_linker_0, # of connection points: 2
#     Edge 17, Type (0, 0), BuildingBlock: XIVTED_clean_linker_0, # of connection points: 2
#     Edge 18, Type (0, 0), BuildingBlock: XIVTED_clean_linker_0, # of connection points: 2
#     Edge 19, Type (0, 0), BuildingBlock: XIVTED_clean_linker_0, # of connection points: 2
#     Edge 20, Type (0, 0), BuildingBlock: XIVTED_clean_linker_0, # of connection points: 2
#     Edge 21, Type (0, 0), BuildingBlock: XIVTED_clean_linker_0, # of connection points: 2
#     Edge 22, Type (0, 0), BuildingBlock: XIVTED_clean_linker_0, # of connection points: 2
#     Edge 23, Type (0, 0), BuildingBlock: XIVTED_clean_linker_0, # of connection points: 2
#     Edge 24, Type (0, 0), BuildingBlock: XIVTED_clean_linker_0, # of connection points: 2
#     Edge 25, Type (0, 0), BuildingBlock: XIVTED_clean_linker_0, # of connection points: 2
#     Edge 26, Type (0, 0), BuildingBlock: XIVTED_clean_linker_0, # of connection points: 2
#     Edge 27, Type (0, 0), BuildingBlock: XIVTED_clean_linker_0, # of connection points: 2
#     Edge 28, Type (0, 0), BuildingBlock: XIVTED_clean_linker_0, # of connection points: 2
#     Edge 29, Type (0, 0), BuildingBlock: XIVTED_clean_linker_0, # of connection points: 2
#     Edge 30, Type (0, 0), BuildingBlock: XIVTED_clean_linker_0, # of connection points: 2
#     Edge 31, Type (0, 0), BuildingBlock: XIVTED_clean_linker_0, # of connection points: 2
#     Edge 32, Type (0, 0), BuildingBlock: XIVTED_clean_linker_0, # of connection points: 2
#     Edge 33, Type (0, 0), BuildingBlock: XIVTED_clean_linker_0, # of connection points: 2
#     Edge 34, Type (0, 0), BuildingBlock: XIVTED_clean_linker_0, # of connection points: 2
#     Edge 35, Type (0, 0), BuildingBlock: XIVTED_clean_linker_0, # of connection points: 2
# Relax obj value: 0.060
# Max RMSD: 0.165
# Mean RMSD: 0.165
data_MOF--net-umm--node1-KOZSID_clean_sbu_0--edge1-XIVTED_clean_linker_0
_symmetry_space_group_name_H-M    P1
_symmetry_Int_Tables_number       1
_symmetry_cell_setting            triclinic
loop_
_symmetry_equiv_pos_as_xyz
'x, y, z'
_cell_length_a     62.033235
_cell_length_b     62.035007
_cell_length_c     38.622009
_cell_angle_alpha  89.934589
_cell_angle_beta   90.081078
_cell_angle_gamma 119.99655
loop_
_atom_site_label
_atom_site_type_symbol
_atom_site_fract_x
_atom_site_fract_y
_atom_site_fract_z
_atom_type_partial_charge
C0 C 0.35849 0.55519 0.07997 0.0
C1 C 0.33336 0.53741 0.08021 0.0
C2 C 0.33164 0.5159 0.09278 0.0
C3 C 0.35572 0.52173 0.09949 0.0
N4 N 0.37238 0.54554 0.09188 0.0
Co5 Co 0.4089 0.56172 0.09744 0.0
N6 N 0.40763 0.52917 0.09773 0.0
C7 C 0.38733 0.50693 0.10415 0.0
C8 C 0.39212 0.48762 0.10302 0.0
C9 C 0.41703 0.49842 0.09577 0.0
C10 C 0.4261 0.52386 0.09291 0.0
N11 N 0.44545 0.57788 0.10353 0.0
C12 C 0.46082 0.56848 0.09889 0.0
C13 C 0.48518 0.58613 0.10708 0.0
C14 C 0.48482 0.60713 0.11752 0.0
C15 C 0.46036 0.60121 0.11515 0.0
N16 N 0.40987 0.59413 0.09686 0.0
C17 C 0.42843 0.61581 0.10902 0.0
C18 C 0.42381 0.63514 0.10443 0.0
C19 C 0.40091 0.62482 0.08848 0.0
C20 C 0.39285 0.59974 0.08423 0.0
N21 N 0.40516 0.56027 0.148 0.0
C22 C 0.40649 0.56565 0.22025 0.0
C23 C 0.39164 0.57178 0.19975 0.0
C24 C 0.39101 0.56867 0.16375 0.0
C25 C 0.41962 0.5556 0.20389 0.0
C26 C 0.41874 0.5531 0.16792 0.0
N27 N 0.41318 0.56378 0.04723 0.0
C28 C 0.43494 0.58822 0.99741 0.0
C29 C 0.41965 0.56859 0.97525 0.0
C30 C 0.40119 0.54624 0.99009 0.0
C31 C 0.39828 0.54421 0.02616 0.0
C32 C 0.43134 0.58549 0.03303 0.0
H33 H 0.38391 0.52693 0.03704 0.0
H34 H 0.44331 0.60113 0.0491 0.0
H35 H 0.37975 0.57392 0.14855 0.0
H36 H 0.42995 0.54632 0.1562 0.0
C37 C 0.3637 0.50461 0.10598 0.0
C38 C 0.36853 0.58129 0.07 0.0
C39 C 0.45261 0.54251 0.08942 0.0
C40 C 0.45134 0.61791 0.11821 0.0
H41 H 0.31793 0.53971 0.07204 0.0
H42 H 0.31495 0.49789 0.09506 0.0
H43 H 0.37899 0.46796 0.10615 0.0
H44 H 0.42741 0.48872 0.0935 0.0
H45 H 0.50143 0.58398 0.10593 0.0
H46 H 0.50064 0.62482 0.1249 0.0
H47 H 0.43607 0.65459 0.11045 0.0
H48 H 0.39129 0.63459 0.08084 0.0
H49 H 0.38083 0.57919 0.21136 0.0
H50 H 0.43144 0.55069 0.21858 0.0
H51 H 0.44983 0.60564 0.98742 0.0
H52 H 0.38881 0.53058 0.97402 0.0
C53 C 0.80812 0.35634 0.41373 0.0
C54 C 0.80048 0.33115 0.41438 0.0
C55 C 0.82007 0.32922 0.42727 0.0
C56 C 0.83851 0.35324 0.43373 0.0
N57 N 0.83168 0.37008 0.42566 0.0
Co58 Co 0.85244 0.40662 0.43082 0.0
N59 N 0.88347 0.40486 0.43171 0.0
C60 C 0.88503 0.3844 0.43857 0.0
C61 C 0.90903 0.38884 0.43793 0.0
C62 C 0.92346 0.4137 0.43052 0.0
C63 C 0.90738 0.42308 0.42705 0.0
N64 N 0.87322 0.44316 0.43655 0.0
C65 C 0.89807 0.45826 0.43217 0.0
C66 C 0.90501 0.48275 0.43982 0.0
C67 C 0.88375 0.48277 0.44974 0.0
C68 C 0.86502 0.45839 0.44757 0.0
N69 N 0.82123 0.40806 0.42957 0.0
C70 C 0.81838 0.4269 0.44118 0.0
C71 C 0.79457 0.42259 0.43631 0.0
C72 C 0.78177 0.39959 0.42075 0.0
C73 C 0.79854 0.39115 0.41699 0.0
N74 N 0.84991 0.40315 0.48142 0.0
C75 C 0.84598 0.40452 0.5537 0.0
C76 C 0.82487 0.39008 0.53322 0.0
C77 C 0.82728 0.3894 0.4972 0.0
C78 C 0.86916 0.41733 0.53728 0.0
C79 C 0.87071 0.41646 0.50132 0.0
N80 N 0.85501 0.41067 0.38058 0.0
C81 C 0.85416 0.43309 0.33027 0.0
C82 C 0.85873 0.41771 0.30877 0.0
C83 C 0.86125 0.39853 0.32396 0.0
C84 C 0.85952 0.39544 0.36 0.0
C85 C 0.85223 0.42919 0.36588 0.0
H86 H 0.86181 0.38078 0.37127 0.0
H87 H 0.84838 0.44121 0.38153 0.0
H88 H 0.81071 0.37839 0.48202 0.0
H89 H 0.88876 0.42741 0.48962 0.0
C90 C 0.86351 0.36094 0.44049 0.0
C91 C 0.79229 0.36658 0.40337 0.0
C92 C 0.91567 0.44969 0.42337 0.0
C93 C 0.83934 0.44971 0.45024 0.0
H94 H 0.78268 0.31581 0.40629 0.0
H95 H 0.82114 0.31241 0.42995 0.0
H96 H 0.91527 0.37552 0.44153 0.0
H97 H 0.94356 0.42383 0.42861 0.0
H98 H 0.9235 0.49887 0.43865 0.0
H99 H 0.88207 0.49877 0.45662 0.0
H100 H 0.78761 0.43509 0.44193 0.0
H101 H 0.76239 0.39012 0.41307 0.0
H102 H 0.80662 0.37957 0.5449 0.0
H103 H 0.88597 0.42885 0.55195 0.0
H104 H 0.85162 0.44784 0.3196 0.0
H105 H 0.86485 0.38624 0.30819 0.0
C106 C 0.45885 0.80546 0.74664 0.0
C107 C 0.47663 0.79813 0.74747 0.0
C108 C 0.49807 0.81801 0.76002 0.0
C109 C 0.4922 0.83629 0.76608 0.0
N110 N 0.46844 0.82909 0.75812 0.0
Co111 Co 0.45227 0.84954 0.76242 0.0
N112 N 0.48485 0.88082 0.76257 0.0
C113 C 0.50704 0.88275 0.76945 0.0
C114 C 0.5264 0.90683 0.76827 0.0
C115 C 0.51568 0.92095 0.76053 0.0
C116 C 0.49024 0.90461 0.7574 0.0
N117 N 0.43607 0.86999 0.76731 0.0
C118 C 0.44554 0.89477 0.76249 0.0
C119 C 0.42775 0.90145 0.76979 0.0
C120 C 0.40665 0.88013 0.78002 0.0
C121 C 0.41262 0.86162 0.77835 0.0
N122 N 0.41985 0.81808 0.76191 0.0
C123 C 0.39807 0.81504 0.77345 0.0
C124 C 0.37877 0.79108 0.76894 0.0
C125 C 0.3892 0.7784 0.75368 0.0
C126 C 0.41432 0.79539 0.7497 0.0
N127 N 0.45335 0.84775 0.81313 0.0
C128 C 0.44535 0.84443 0.88499 0.0
C129 C 0.4401 0.82326 0.86548 0.0
C130 C 0.44442 0.82536 0.82965 0.0
C131 C 0.4566 0.8675 0.86802 0.0
C132 C 0.46037 0.86875 0.83232 0.0
N133 N 0.45053 0.85131 0.71207 0.0
C134 C 0.42644 0.84847 0.6617 0.0
C135 C 0.44624 0.85283 0.63993 0.0
C136 C 0.46848 0.85674 0.65523 0.0
C137 C 0.47025 0.85592 0.69138 0.0
C138 C 0.42891 0.84767 0.69739 0.0
H139 H 0.48745 0.85887 0.70263 0.0
H140 H 0.41315 0.84405 0.71313 0.0
H141 H 0.43935 0.80865 0.81506 0.0
H142 H 0.46786 0.88669 0.82013 0.0
C143 C 0.50931 0.86144 0.77208 0.0
C144 C 0.43284 0.78941 0.73623 0.0
C145 C 0.47167 0.9126 0.7538 0.0
C146 C 0.39591 0.83592 0.78178 0.0
H147 H 0.47442 0.7804 0.73961 0.0
H148 H 0.51609 0.81938 0.7626 0.0
H149 H 0.54601 0.91333 0.77183 0.0
H150 H 0.52543 0.94102 0.75826 0.0
H151 H 0.42987 0.91983 0.76825 0.0
H152 H 0.38888 0.87828 0.78686 0.0
H153 H 0.35927 0.78394 0.77453 0.0
H154 H 0.3795 0.75897 0.74629 0.0
H155 H 0.43158 0.80502 0.87737 0.0
H156 H 0.46183 0.88454 0.88203 0.0
H157 H 0.40908 0.84592 0.65136 0.0
H158 H 0.48427 0.86004 0.63947 0.0
C159 C 0.65892 0.45613 0.08042 0.0
C160 C 0.684 0.4741 0.08053 0.0
C161 C 0.68553 0.49556 0.09286 0.0
C162 C 0.6614 0.48954 0.09951 0.0
N163 N 0.64488 0.46566 0.09208 0.0
Co164 Co 0.60832 0.44928 0.09751 0.0
N165 N 0.60933 0.48173 0.09756 0.0
C166 C 0.62956 0.50404 0.10392 0.0
C167 C 0.62461 0.52325 0.10285 0.0
C168 C 0.59967 0.51231 0.0957 0.0
C169 C 0.59075 0.48689 0.09278 0.0
N170 N 0.57174 0.43292 0.10351 0.0
C171 C 0.55622 0.44215 0.09884 0.0
C172 C 0.53188 0.42429 0.10676 0.0
C173 C 0.53241 0.40339 0.11721 0.0
C174 C 0.55694 0.40953 0.11504 0.0
N175 N 0.6076 0.41698 0.09714 0.0
C176 C 0.58912 0.39525 0.1093 0.0
C177 C 0.59391 0.37603 0.10496 0.0
C178 C 0.61684 0.38646 0.08919 0.0
C179 C 0.62474 0.4115 0.08475 0.0
N180 N 0.61206 0.45084 0.14808 0.0
C181 C 0.61099 0.44595 0.22042 0.0
C182 C 0.62577 0.43969 0.20009 0.0
C183 C 0.62629 0.44257 0.16404 0.0
C184 C 0.59772 0.4558 0.20382 0.0
C185 C 0.59846 0.45803 0.16783 0.0
N186 N 0.60404 0.44714 0.04729 0.0
C187 C 0.58236 0.42264 0.99747 0.0
C188 C 0.59753 0.44231 0.9753 0.0
C189 C 0.61592 0.46471 0.99014 0.0
C190 C 0.61884 0.46675 0.02621 0.0
C191 C 0.58598 0.42538 0.0331 0.0
H192 H 0.63314 0.48407 0.03708 0.0
H193 H 0.57409 0.40971 0.04917 0.0
H194 H 0.63756 0.43729 0.14898 0.0
H195 H 0.58715 0.46468 0.15597 0.0
C196 C 0.65326 0.50653 0.10581 0.0
C197 C 0.64909 0.43001 0.07075 0.0
C198 C 0.56423 0.46814 0.08957 0.0
C199 C 0.56613 0.39298 0.11826 0.0
H200 H 0.69953 0.47198 0.07242 0.0
H201 H 0.70212 0.51366 0.09501 0.0
H202 H 0.63765 0.54292 0.10603 0.0
H203 H 0.58918 0.5219 0.09362 0.0
H204 H 0.51551 0.42623 0.10542 0.0
H205 H 0.51667 0.38561 0.12444 0.0
H206 H 0.58175 0.35657 0.11107 0.0
H207 H 0.62662 0.37681 0.08181 0.0
H208 H 0.63665 0.43239 0.2119 0.0
H209 H 0.58594 0.46077 0.21839 0.0
H210 H 0.56753 0.40517 0.98748 0.0
H211 H 0.62821 0.48041 0.97407 0.0
C212 C 0.20781 0.65583 0.41361 0.0
C213 C 0.21468 0.68083 0.41394 0.0
C214 C 0.19465 0.68207 0.42655 0.0
C215 C 0.17675 0.65786 0.43317 0.0
N216 N 0.18431 0.64154 0.42544 0.0
Co217 Co 0.16449 0.60496 0.43078 0.0
N218 N 0.13287 0.60559 0.43143 0.0
C219 C 0.13055 0.62563 0.43823 0.0
C220 C 0.1063 0.62042 0.43734 0.0
C221 C 0.09251 0.59552 0.42984 0.0
C222 C 0.10921 0.58688 0.42657 0.0
N223 N 0.14465 0.56834 0.43634 0.0
C224 C 0.11992 0.55266 0.43164 0.0
C225 C 0.11366 0.52835 0.43931 0.0
C226 C 0.13524 0.52904 0.44952 0.0
C227 C 0.15346 0.55365 0.4475 0.0
N228 N 0.19631 0.60466 0.43012 0.0
C229 C 0.19983 0.5863 0.44213 0.0
C230 C 0.22393 0.5914 0.4377 0.0
C231 C 0.2362 0.6144 0.42204 0.0
C232 C 0.21884 0.62204 0.41776 0.0
N233 N 0.16679 0.60845 0.48137 0.0
C234 C 0.17066 0.60729 0.55367 0.0
C235 C 0.19165 0.6223 0.53335 0.0
C236 C 0.18926 0.62288 0.4973 0.0
C237 C 0.14759 0.59377 0.5371 0.0
C238 C 0.14607 0.59453 0.50113 0.0
N239 N 0.16214 0.60087 0.38053 0.0
C240 C 0.16557 0.58003 0.33021 0.0
C241 C 0.15781 0.59307 0.30868 0.0
C242 C 0.15262 0.61049 0.32413 0.0
C243 C 0.15509 0.61425 0.36004 0.0
C244 C 0.1673 0.58395 0.36581 0.0
H245 H 0.15109 0.62778 0.37129 0.0
H246 H 0.17283 0.57317 0.38143 0.0
H247 H 0.20574 0.63437 0.48223 0.0
H248 H 0.12816 0.58304 0.48929 0.0
C249 C 0.15161 0.64944 0.43995 0.0
C250 C 0.22434 0.64631 0.40377 0.0
C251 C 0.10178 0.5605 0.42263 0.0
C252 C 0.17924 0.5631 0.4508 0.0
H253 H 0.23225 0.6965 0.40586 0.0
H254 H 0.19297 0.69855 0.42899 0.0
H255 H 0.09948 0.63329 0.44074 0.0
H256 H 0.07244 0.58488 0.42764 0.0
H257 H 0.0954 0.5119 0.43801 0.0
H258 H 0.13745 0.51337 0.45657 0.0
H259 H 0.23143 0.57938 0.44362 0.0
H260 H 0.25562 0.62438 0.4146 0.0
H261 H 0.20979 0.63335 0.54517 0.0
H262 H 0.13089 0.58179 0.55169 0.0
H263 H 0.17054 0.56691 0.3198 0.0
H264 H 0.14634 0.62094 0.30884 0.0
C265 C 0.55925 0.20523 0.74562 0.0
C266 C 0.5414 0.21249 0.74515 0.0
C267 C 0.51984 0.19274 0.75763 0.0
C268 C 0.5257 0.1746 0.76497 0.0
N269 N 0.54957 0.18176 0.75782 0.0
Co270 Co 0.5658 0.16153 0.76437 0.0
N271 N 0.53329 0.13023 0.76468 0.0
C272 C 0.511 0.12827 0.77064 0.0
C273 C 0.49173 0.10413 0.7696 0.0
C274 C 0.50263 0.09004 0.76287 0.0
C275 C 0.52806 0.10645 0.7602 0.0
N276 N 0.58197 0.14125 0.77143 0.0
C277 C 0.57265 0.11646 0.76702 0.0
C278 C 0.59028 0.10985 0.77579 0.0
C279 C 0.61118 0.13127 0.78636 0.0
C280 C 0.60522 0.14977 0.78347 0.0
N281 N 0.59818 0.19301 0.76377 0.0
C282 C 0.6198 0.19625 0.77643 0.0
C283 C 0.63912 0.22018 0.77177 0.0
C284 C 0.62886 0.23263 0.75527 0.0
C285 C 0.60382 0.21554 0.75076 0.0
N286 N 0.56409 0.16426 0.81481 0.0
C287 C 0.56929 0.16907 0.88704 0.0
C288 C 0.57543 0.18982 0.86607 0.0
C289 C 0.5724 0.18697 0.83009 0.0
C290 C 0.5593 0.14572 0.87115 0.0
C291 C 0.5569 0.14372 0.83517 0.0
N292 N 0.56815 0.1589 0.71428 0.0
C293 C 0.59298 0.16139 0.6651 0.0
C294 C 0.57349 0.15681 0.64251 0.0
C295 C 0.55097 0.15284 0.6568 0.0
C296 C 0.54867 0.15394 0.6928 0.0
C297 C 0.58998 0.16245 0.7006 0.0
H298 H 0.5313 0.15103 0.70327 0.0
H299 H 0.60554 0.1663 0.71701 0.0
H300 H 0.57765 0.20332 0.81454 0.0
H301 H 0.55019 0.12562 0.82381 0.0
C302 C 0.5086 0.14955 0.77177 0.0
C303 C 0.58542 0.22131 0.73604 0.0
C304 C 0.54679 0.09867 0.75705 0.0
C305 C 0.62188 0.17553 0.78626 0.0
H306 H 0.54368 0.23013 0.73659 0.0
H307 H 0.50179 0.19138 0.75948 0.0
H308 H 0.47205 0.09758 0.77239 0.0
H309 H 0.49298 0.06995 0.76076 0.0
H310 H 0.58819 0.09146 0.7749 0.0
H311 H 0.62884 0.13322 0.7941 0.0
H312 H 0.65854 0.22746 0.77818 0.0
H313 H 0.63863 0.25198 0.74748 0.0
H314 H 0.5828 0.20816 0.87731 0.0
H315 H 0.55438 0.12916 0.88624 0.0
H316 H 0.61053 0.164 0.65551 0.0
H317 H 0.5354 0.14935 0.64036 0.0
C318 C 0.45937 0.65595 0.61144 0.0
C319 C 0.47714 0.68106 0.61019 0.0
C320 C 0.49849 0.68253 0.59747 0.0
C321 C 0.4926 0.65834 0.59177 0.0
N322 N 0.46891 0.64182 0.60015 0.0
Co323 Co 0.4528 0.60517 0.59657 0.0
N324 N 0.48541 0.60656 0.59606 0.0
C325 C 0.50752 0.62676 0.58874 0.0
C326 C 0.52693 0.62211 0.59014 0.0
C327 C 0.51632 0.59739 0.59852 0.0
C328 C 0.49089 0.58828 0.60171 0.0
N329 N 0.43665 0.56849 0.59241 0.0
C330 C 0.44622 0.5533 0.59757 0.0
C331 C 0.42851 0.52875 0.59054 0.0
C332 C 0.40729 0.52877 0.58031 0.0
C333 C 0.41315 0.55324 0.58163 0.0
N334 N 0.42033 0.60408 0.59746 0.0
C335 C 0.39848 0.58518 0.58635 0.0
C336 C 0.37917 0.58981 0.59092 0.0
C337 C 0.38967 0.61307 0.60574 0.0
C338 C 0.41484 0.62131 0.60943 0.0
N339 N 0.45336 0.60749 0.54583 0.0
C340 C 0.44523 0.60246 0.47399 0.0
C341 C 0.4399 0.61839 0.49334 0.0
C342 C 0.44429 0.62078 0.52917 0.0
C343 C 0.45652 0.59073 0.49112 0.0
C344 C 0.46034 0.59342 0.5268 0.0
N345 N 0.45164 0.60219 0.64697 0.0
C346 C 0.42861 0.58077 0.6979 0.0
C347 C 0.44884 0.59625 0.71897 0.0
C348 C 0.47052 0.61505 0.70326 0.0
C349 C 0.47161 0.6176 0.66712 0.0
C350 C 0.43033 0.58411 0.66218 0.0
H351 H 0.48855 0.63193 0.65545 0.0
H352 H 0.41429 0.57197 0.64687 0.0
H353 H 0.43921 0.63246 0.54363 0.0
H354 H 0.4679 0.58307 0.53913 0.0
C355 C 0.5097 0.65028 0.58577 0.0
C356 C 0.43343 0.64605 0.62217 0.0
C357 C 0.47238 0.5618 0.60625 0.0
C358 C 0.39633 0.5621 0.57824 0.0
H359 H 0.47502 0.69666 0.61791 0.0
H360 H 0.51648 0.69917 0.59456 0.0
H361 H 0.54652 0.63523 0.58645 0.0
H362 H 0.52613 0.58715 0.60132 0.0
H363 H 0.43078 0.51259 0.59226 0.0
H364 H 0.38953 0.51276 0.5737 0.0
H365 H 0.35963 0.57735 0.5856 0.0
H366 H 0.37999 0.62285 0.61297 0.0
H367 H 0.43133 0.62803 0.48133 0.0
H368 H 0.4618 0.57892 0.47724 0.0
H369 H 0.41134 0.56633 0.70896 0.0
H370 H 0.48661 0.62741 0.71869 0.0
C371 C 0.80841 0.45614 0.94593 0.0
C372 C 0.80104 0.4739 0.94538 0.0
C373 C 0.82091 0.49543 0.93303 0.0
C374 C 0.83921 0.48963 0.92676 0.0
N375 N 0.83204 0.46583 0.93443 0.0
Co376 Co 0.8525 0.44971 0.92968 0.0
N377 N 0.88376 0.48229 0.92984 0.0
C378 C 0.88568 0.50452 0.92324 0.0
C379 C 0.90977 0.52387 0.92463 0.0
C380 C 0.92387 0.51311 0.93222 0.0
C381 C 0.90753 0.48766 0.93506 0.0
N382 N 0.87297 0.43358 0.92439 0.0
C383 C 0.89773 0.44302 0.92936 0.0
C384 C 0.90447 0.42531 0.92171 0.0
C385 C 0.88319 0.40429 0.91113 0.0
C386 C 0.86465 0.41022 0.91295 0.0
N387 N 0.82106 0.41728 0.92984 0.0
C388 C 0.81806 0.3956 0.91789 0.0
C389 C 0.7941 0.37626 0.92216 0.0
C390 C 0.78138 0.38655 0.93767 0.0
C391 C 0.79835 0.41164 0.94202 0.0
N392 N 0.85071 0.45113 0.87902 0.0
C393 C 0.84724 0.4437 0.80704 0.0
C394 C 0.82613 0.4384 0.82673 0.0
C395 C 0.8283 0.44243 0.86261 0.0
C396 C 0.87033 0.45467 0.82395 0.0
C397 C 0.87166 0.45818 0.85972 0.0
N398 N 0.85425 0.44765 0.97998 0.0
C399 C 0.85109 0.42316 0.03 0.0
C400 C 0.85531 0.44279 0.05203 0.0
C401 C 0.8594 0.46518 0.03706 0.0
C402 C 0.85881 0.46723 1.00093 0.0
C403 C 0.85054 0.42592 0.99434 0.0
H404 H 0.86183 0.48452 0.98993 0.0
H405 H 0.84698 0.41028 0.97837 0.0
H406 H 0.81164 0.43733 0.8773 0.0
H407 H 0.8896 0.4655 0.87187 0.0
C408 C 0.86436 0.50679 0.92081 0.0
C409 C 0.79235 0.43005 0.95592 0.0
C410 C 0.91548 0.46906 0.93858 0.0
C411 C 0.83896 0.39352 0.90938 0.0
H412 H 0.78327 0.47159 0.95324 0.0
H413 H 0.82224 0.51345 0.93065 0.0
H414 H 0.91627 0.54351 0.92135 0.0
H415 H 0.94394 0.52285 0.93464 0.0
H416 H 0.92285 0.42744 0.92325 0.0
H417 H 0.88137 0.38659 0.90399 0.0
H418 H 0.78698 0.3568 0.91623 0.0
H419 H 0.76194 0.37677 0.94499 0.0
H420 H 0.80788 0.43008 0.81491 0.0
H421 H 0.88733 0.45992 0.80982 0.0
H422 H 0.8484 0.4057 0.04013 0.0
H423 H 0.86262 0.48084 0.05305 0.0
C424 C 0.35825 0.80606 0.27865 0.0
C425 C 0.33315 0.79884 0.2779 0.0
C426 C 0.33162 0.81856 0.2646 0.0
C427 C 0.35577 0.83665 0.25804 0.0
N428 N 0.37231 0.8295 0.26646 0.0
Co429 Co 0.40889 0.84974 0.26142 0.0
N430 N 0.40772 0.88106 0.25993 0.0
C431 C 0.38752 0.88297 0.25259 0.0
C432 C 0.39239 0.90712 0.25276 0.0
C433 C 0.41724 0.92127 0.26039 0.0
C434 C 0.42619 0.90487 0.26451 0.0
N435 N 0.44549 0.87001 0.25582 0.0
C436 C 0.46089 0.89481 0.26024 0.0
C437 C 0.48533 0.9013 0.25308 0.0
C438 C 0.48499 0.87983 0.24334 0.0
C439 C 0.46046 0.86141 0.24518 0.0
N440 N 0.40977 0.81826 0.26324 0.0
C441 C 0.42839 0.81497 0.25188 0.0
C442 C 0.42368 0.79106 0.25708 0.0
C443 C 0.40064 0.77865 0.27258 0.0
C444 C 0.3926 0.79575 0.27599 0.0
N445 N 0.40548 0.84691 0.21083 0.0
C446 C 0.40673 0.84234 0.13864 0.0
C447 C 0.39196 0.8215 0.15937 0.0
C448 C 0.39137 0.82423 0.19534 0.0
C449 C 0.41995 0.86562 0.15475 0.0
C450 C 0.41913 0.86749 0.19067 0.0
N451 N 0.41285 0.85256 0.31168 0.0
C452 C 0.43474 0.85128 0.36235 0.0
C453 C 0.41943 0.85613 0.38359 0.0
C454 C 0.40061 0.8591 0.36806 0.0
C455 C 0.39775 0.85744 0.33197 0.0
C456 C 0.43108 0.84944 0.32668 0.0
H457 H 0.38334 0.86002 0.32046 0.0
H458 H 0.44299 0.84532 0.31126 0.0
H459 H 0.38009 0.80784 0.21072 0.0
H460 H 0.43037 0.88557 0.20217 0.0
C461 C 0.36387 0.86168 0.2508 0.0
C462 C 0.3681 0.78995 0.28936 0.0
C463 C 0.45266 0.91271 0.26882 0.0
C464 C 0.4514 0.83565 0.24279 0.0
H465 H 0.31761 0.78126 0.2862 0.0
H466 H 0.315 0.81995 0.26172 0.0
H467 H 0.37933 0.91365 0.24873 0.0
H468 H 0.42766 0.94137 0.26204 0.0
H469 H 0.50168 0.91962 0.25455 0.0
H470 H 0.50085 0.8778 0.2369 0.0
H471 H 0.43595 0.78376 0.25171 0.0
H472 H 0.39088 0.75931 0.28043 0.0
H473 H 0.38112 0.80319 0.14795 0.0
H474 H 0.43174 0.88223 0.13988 0.0
H475 H 0.44921 0.8484 0.37327 0.0
H476 H 0.38839 0.86294 0.3836 0.0
C477 C 0.55838 0.35496 0.61189 0.0
C478 C 0.5405 0.32988 0.61068 0.0
C479 C 0.51925 0.32853 0.59769 0.0
C480 C 0.52529 0.35275 0.59181 0.0
N481 N 0.54898 0.36918 0.60034 0.0
Co482 Co 0.56527 0.40584 0.59654 0.0
N483 N 0.53275 0.40465 0.59557 0.0
C484 C 0.51064 0.38452 0.58802 0.0
C485 C 0.49132 0.38932 0.58882 0.0
C486 C 0.502 0.41406 0.59705 0.0
C487 C 0.52737 0.42303 0.60085 0.0
N488 N 0.58159 0.44253 0.59215 0.0
C489 C 0.57214 0.45784 0.59705 0.0
C490 C 0.59006 0.48238 0.59034 0.0
C491 C 0.61124 0.48221 0.58043 0.0
C492 C 0.60519 0.45769 0.58169 0.0
N493 N 0.59765 0.40675 0.59788 0.0
C494 C 0.61959 0.42557 0.58689 0.0
C495 C 0.6388 0.42082 0.59172 0.0
C496 C 0.62815 0.39755 0.60659 0.0
C497 C 0.603 0.38944 0.61003 0.0
N498 N 0.56484 0.40341 0.54583 0.0
C499 C 0.57285 0.4079 0.47396 0.0
C500 C 0.57805 0.39199 0.49367 0.0
C501 C 0.57374 0.38988 0.52949 0.0
C502 C 0.56181 0.41995 0.49079 0.0
C503 C 0.55804 0.41753 0.52649 0.0
N504 N 0.56628 0.40892 0.64691 0.0
C505 C 0.58918 0.43028 0.69797 0.0
C506 C 0.56885 0.41488 0.7189 0.0
C507 C 0.54717 0.39615 0.70305 0.0
C508 C 0.54621 0.3936 0.66693 0.0
C509 C 0.58758 0.42692 0.66226 0.0
H510 H 0.52927 0.37932 0.65515 0.0
H511 H 0.6037 0.43899 0.64706 0.0
H512 H 0.57869 0.37818 0.5442 0.0
H513 H 0.55063 0.42808 0.53857 0.0
C514 C 0.50833 0.36093 0.58534 0.0
C515 C 0.5843 0.36473 0.62273 0.0
C516 C 0.54595 0.44948 0.60537 0.0
C517 C 0.62191 0.4487 0.57864 0.0
H518 H 0.54249 0.31423 0.61857 0.0
H519 H 0.50122 0.31195 0.59468 0.0
H520 H 0.47174 0.37629 0.58476 0.0
H521 H 0.49227 0.42441 0.59927 0.0
H522 H 0.588 0.49866 0.59213 0.0
H523 H 0.62912 0.49818 0.57414 0.0
H524 H 0.65837 0.43319 0.58654 0.0
H525 H 0.63773 0.38769 0.614 0.0
H526 H 0.58644 0.38213 0.4819 0.0
H527 H 0.55664 0.43177 0.47665 0.0
H528 H 0.60645 0.44467 0.70915 0.0
H529 H 0.53101 0.38386 0.71837 0.0
C530 C 0.20749 0.55368 0.94552 0.0
C531 C 0.2143 0.5355 0.9448 0.0
C532 C 0.19416 0.51428 0.93223 0.0
C533 C 0.17624 0.52065 0.92608 0.0
N534 N 0.18388 0.54451 0.93406 0.0
Co535 Co 0.16401 0.56129 0.92967 0.0
N536 N 0.13238 0.52904 0.92903 0.0
C537 C 0.13 0.50671 0.92184 0.0
C538 C 0.10576 0.48766 0.92296 0.0
C539 C 0.09204 0.49875 0.93103 0.0
C540 C 0.10877 0.52407 0.93439 0.0
N541 N 0.14413 0.5781 0.92505 0.0
C542 C 0.11944 0.56903 0.93013 0.0
C543 C 0.11312 0.58711 0.92301 0.0
C544 C 0.1346 0.60804 0.91274 0.0
C545 C 0.15284 0.60165 0.91418 0.0
N546 N 0.19581 0.5934 0.9303 0.0
C547 C 0.19923 0.61533 0.91869 0.0
C548 C 0.22337 0.63432 0.92294 0.0
C549 C 0.23577 0.62352 0.93806 0.0
C550 C 0.21844 0.59851 0.94224 0.0
N551 N 0.16588 0.56042 0.87899 0.0
C552 C 0.16952 0.56832 0.80709 0.0
C553 C 0.19048 0.57302 0.82678 0.0
C554 C 0.18822 0.56875 0.86262 0.0
C555 C 0.14645 0.55774 0.82394 0.0
C556 C 0.14505 0.55403 0.85967 0.0
N557 N 0.16207 0.56275 0.98001 0.0
C558 C 0.16566 0.58676 0.03071 0.0
C559 C 0.15786 0.56583 0.05196 0.0
C560 C 0.15267 0.5433 0.0362 0.0
C561 C 0.15507 0.54221 1.00024 0.0
C562 C 0.16732 0.58476 0.99508 0.0
H563 H 0.15102 0.52474 0.98872 0.0
H564 H 0.17282 0.60116 0.97969 0.0
H565 H 0.20478 0.57335 0.87732 0.0
H566 H 0.12715 0.54703 0.87178 0.0
C567 C 0.15104 0.50396 0.91958 0.0
C568 C 0.2241 0.57969 0.95555 0.0
C569 C 0.10137 0.543 0.93892 0.0
C570 C 0.17859 0.61799 0.91057 0.0
H571 H 0.23187 0.5373 0.95265 0.0
H572 H 0.19242 0.49611 0.92957 0.0
H573 H 0.09891 0.46799 0.91935 0.0
H574 H 0.07199 0.48931 0.93357 0.0
H575 H 0.09486 0.58528 0.92468 0.0
H576 H 0.13675 0.62595 0.906 0.0
H577 H 0.23082 0.65386 0.91724 0.0
H578 H 0.25525 0.63292 0.94519 0.0
H579 H 0.20872 0.58103 0.81501 0.0
H580 H 0.12955 0.55294 0.80982 0.0
H581 H 0.17067 0.6048 0.04137 0.0
H582 H 0.1464 0.52651 0.05129 0.0
C583 C 0.65851 0.2067 0.27916 0.0
C584 C 0.6837 0.21438 0.27764 0.0
C585 C 0.68546 0.19485 0.26421 0.0
C586 C 0.66136 0.17639 0.25839 0.0
N587 N 0.6446 0.18311 0.26735 0.0
Co588 Co 0.60796 0.16214 0.26369 0.0
N589 N 0.60989 0.13121 0.26174 0.0
C590 C 0.63033 0.12982 0.25404 0.0
C591 C 0.6261 0.1059 0.25449 0.0
C592 C 0.6014 0.09131 0.26261 0.0
C593 C 0.59187 0.10722 0.26655 0.0
N594 N 0.5713 0.14119 0.25948 0.0
C595 C 0.5564 0.11629 0.26376 0.0
C596 C 0.53175 0.1092 0.25698 0.0
C597 C 0.53138 0.13043 0.24787 0.0
C598 C 0.55574 0.14928 0.24953 0.0
N599 N 0.60633 0.19323 0.26601 0.0
C600 C 0.58714 0.19595 0.25559 0.0
C601 C 0.59138 0.21967 0.26098 0.0
C602 C 0.61472 0.23258 0.27558 0.0
C603 C 0.62339 0.21593 0.27833 0.0
N604 N 0.61017 0.16473 0.21298 0.0
C605 C 0.60513 0.1687 0.14132 0.0
C606 C 0.62085 0.18977 0.16116 0.0
C607 C 0.62323 0.18737 0.19692 0.0
C608 C 0.59358 0.14547 0.15784 0.0
C609 C 0.59629 0.14391 0.19342 0.0
N610 N 0.60505 0.15943 0.31406 0.0
C611 C 0.58321 0.15939 0.36544 0.0
C612 C 0.5989 0.15457 0.38595 0.0
C613 C 0.61805 0.15254 0.36978 0.0
C614 C 0.62069 0.15484 0.33368 0.0
C615 C 0.58669 0.16191 0.32979 0.0
H616 H 0.63526 0.15282 0.32161 0.0
H617 H 0.57438 0.16587 0.31494 0.0
H618 H 0.63473 0.20395 0.21179 0.0
H619 H 0.58611 0.1258 0.20524 0.0
C620 C 0.65366 0.15142 0.25154 0.0
C621 C 0.64839 0.22243 0.29049 0.0
C622 C 0.56526 0.09872 0.27106 0.0
C623 C 0.56421 0.17492 0.24716 0.0
H624 H 0.69917 0.23211 0.28562 0.0
H625 H 0.70225 0.19383 0.26087 0.0
H626 H 0.63948 0.09981 0.25034 0.0
H627 H 0.59148 0.07123 0.26477 0.0
H628 H 0.51578 0.09061 0.25806 0.0
H629 H 0.51519 0.132 0.24173 0.0
H630 H 0.57866 0.22652 0.25629 0.0
H631 H 0.62427 0.25195 0.28326 0.0
H632 H 0.63036 0.20812 0.14956 0.0
H633 H 0.58191 0.12854 0.14354 0.0
H634 H 0.5685 0.16159 0.37692 0.0
H635 H 0.6306 0.14884 0.3848 0.0
H636 H 0.41304 0.60722 0.25482 0.0
H637 H 0.4268 0.5577 0.44062 0.0
H638 H 0.40682 0.53561 0.27216 0.0
H639 H 0.44632 0.63402 0.42232 0.0
H640 H 0.41578 0.54851 0.37983 0.0
H641 H 0.42104 0.61628 0.31684 0.0
C642 C 0.41304 0.59327 0.27172 0.0
C643 C 0.40931 0.57063 0.25821 0.0
C644 C 0.42251 0.56729 0.38901 0.0
C645 C 0.41868 0.58098 0.32916 0.0
C646 C 0.42902 0.57266 0.4238 0.0
C647 C 0.43794 0.59683 0.43676 0.0
C648 C 0.42469 0.58614 0.36666 0.0
C649 C 0.43951 0.61512 0.41366 0.0
C650 C 0.41781 0.59855 0.30707 0.0
C651 C 0.40986 0.55341 0.28131 0.0
N652 N 0.43304 0.60942 0.37974 0.0
N653 N 0.41447 0.55895 0.31553 0.0
H654 H 0.87584 0.40324 0.60498 0.0
H655 H 0.81664 0.44551 0.75622 0.0
H656 H 0.81206 0.41241 0.58899 0.0
H657 H 0.87306 0.42518 0.77253 0.0
H658 H 0.81439 0.43376 0.69514 0.0
H659 H 0.87495 0.41155 0.66657 0.0
C660 C 0.86157 0.40692 0.61448 0.0
C661 C 0.84406 0.40721 0.59172 0.0
C662 C 0.82723 0.43188 0.71216 0.0
C663 C 0.84295 0.4169 0.66248 0.0
C664 C 0.82849 0.43853 0.7471 0.0
C665 C 0.84529 0.43666 0.76969 0.0
C666 C 0.84289 0.42331 0.69964 0.0
C667 C 0.86026 0.4276 0.75612 0.0
C668 C 0.86102 0.41161 0.64971 0.0
C669 C 0.82581 0.41181 0.60563 0.0
N670 N 0.85876 0.42138 0.72213 0.0
N671 N 0.82585 0.41667 0.64004 0.0
H672 H 0.42661 0.87045 0.91835 0.0
H673 H 0.41332 0.8073 0.10414 0.0
H674 H 0.4465 0.81391 0.93654 0.0
H675 H 0.4065 0.87232 0.08664 0.0
H676 H 0.42118 0.80616 0.04208 0.0
H677 H 0.41544 0.86842 0.97907 0.0
C678 C 0.42888 0.85773 0.93514 0.0
C679 C 0.43797 0.84263 0.92218 0.0
C680 C 0.41785 0.82059 0.05183 0.0
C681 C 0.42455 0.83983 0.9922 0.0
C682 C 0.41315 0.82114 0.0872 0.0
C683 C 0.40933 0.84 0.10068 0.0
C684 C 0.41852 0.83892 0.0297 0.0
C685 C 0.40964 0.85762 0.07753 0.0
C686 C 0.42228 0.85646 0.96989 0.0
C687 C 0.43959 0.82591 0.94522 0.0
N688 N 0.41418 0.85666 0.0433 0.0
N689 N 0.43304 0.82502 0.97912 0.0
H690 H 0.61147 0.47676 0.27153 0.0
H691 H 0.57113 0.37563 0.42312 0.0
H692 H 0.6041 0.40454 0.2559 0.0
H693 H 0.59134 0.45231 0.4395 0.0
H694 H 0.58262 0.3852 0.36197 0.0
H695 H 0.60351 0.46756 0.3332 0.0
C696 C 0.60826 0.45898 0.28112 0.0
C697 C 0.60839 0.44138 0.25846 0.0
C698 C 0.58454 0.3999 0.37903 0.0
C699 C 0.5991 0.43059 0.32928 0.0
C700 C 0.57805 0.39447 0.41401 0.0
C701 C 0.57993 0.41308 0.43663 0.0
C702 C 0.59296 0.42411 0.3665 0.0
C703 C 0.58891 0.43713 0.42307 0.0
C704 C 0.60377 0.45374 0.3164 0.0
C705 C 0.60438 0.41873 0.27247 0.0
N706 N 0.59494 0.44188 0.38903 0.0
N707 N 0.59969 0.4139 0.30692 0.0
H708 H 0.14036 0.60788 0.60462 0.0
H709 H 0.19977 0.56603 0.75626 0.0
H710 H 0.20512 0.60034 0.58927 0.0
H711 H 0.14435 0.58767 0.77265 0.0
H712 H 0.20206 0.57783 0.69515 0.0
H713 H 0.14139 0.59976 0.6663 0.0
C714 C 0.15488 0.60462 0.61429 0.0
C715 C 0.17263 0.60473 0.59171 0.0
C716 C 0.18943 0.58 0.71222 0.0
C717 C 0.17388 0.59522 0.66252 0.0
C718 C 0.18816 0.57332 0.74716 0.0
C719 C 0.1716 0.57551 0.76977 0.0
C720 C 0.17402 0.58889 0.69971 0.0
C721 C 0.15693 0.58497 0.75623 0.0
C722 C 0.15551 0.60003 0.64956 0.0
C723 C 0.19119 0.60062 0.6058 0.0
N724 N 0.15841 0.59116 0.72222 0.0
N725 N 0.1912 0.59581 0.64024 0.0
H726 H 0.56036 0.14301 0.10793 0.0
H727 H 0.61088 0.20429 0.92145 0.0
H728 H 0.63691 0.19916 0.08993 0.0
H729 H 0.53897 0.13947 0.93918 0.0
H730 H 0.61968 0.20606 0.98369 0.0
H731 H 0.55137 0.14469 0.04699 0.0
C732 C 0.57539 0.1556 0.09113 0.0
C733 C 0.59959 0.17065 0.10417 0.0
C734 C 0.60194 0.19154 0.97396 0.0
C735 C 0.58917 0.17299 0.03389 0.0
C736 C 0.59682 0.19062 0.93848 0.0
C737 C 0.57416 0.17165 0.92503 0.0
C738 C 0.58419 0.17348 0.99623 0.0
C739 C 0.55678 0.15425 0.94829 0.0
C740 C 0.57016 0.15666 0.05625 0.0
C741 C 0.61801 0.18719 0.08113 0.0
N742 N 0.56216 0.15559 0.98263 0.0
N743 N 0.61245 0.18784 0.04709 0.0
H744 H 0.33865 0.59662 0.10019 0.0
H745 H 0.26677 0.58838 0.92305 0.0
H746 H 0.35921 0.58084 1.00104 0.0
H747 H 0.23651 0.58611 0.02407 0.0
H748 H 0.30504 0.5939 0.95031 0.0
H749 H 0.30554 0.60114 0.07195 0.0
C750 C 0.33652 0.59476 0.07232 0.0
C751 C 0.35175 0.58868 0.05273 0.0
C752 C 0.2902 0.59253 0.96656 0.0
C753 C 0.31379 0.59332 0.02033 0.0
C754 C 0.26848 0.58955 0.95099 0.0
C755 C 0.24865 0.58688 0.97146 0.0
C756 C 0.2921 0.59292 1.00288 0.0
C757 C 0.25152 0.58823 1.00752 0.0
C758 C 0.31754 0.5971 0.05625 0.0
C759 C 0.34799 0.58585 0.01686 0.0
N760 N 0.27279 0.59103 0.02213 0.0
N761 N 0.32934 0.58811 1.00181 0.0
H762 H 0.74737 0.3367 0.43443 0.0
H763 H 0.6811 0.26573 0.25797 0.0
H764 H 0.78256 0.35731 0.33449 0.0
H765 H 0.65518 0.23441 0.35919 0.0
H766 H 0.71408 0.30392 0.28503 0.0
H767 H 0.70933 0.30376 0.40681 0.0
C768 C 0.74678 0.33462 0.40654 0.0
C769 C 0.76789 0.34981 0.38655 0.0
C770 C 0.70098 0.28887 0.30138 0.0
C771 C 0.72477 0.31205 0.35483 0.0
C772 C 0.68209 0.26721 0.28594 0.0
C773 C 0.66546 0.24707 0.30649 0.0
C774 C 0.70319 0.29045 0.33767 0.0
C775 C 0.66762 0.24966 0.34257 0.0
C776 C 0.72521 0.31573 0.39082 0.0
C777 C 0.76651 0.34611 0.35064 0.0
N778 N 0.68622 0.27089 0.35705 0.0
N779 N 0.74536 0.32757 0.33593 0.0
H780 H 0.43021 0.78023 0.66702 0.0
H781 H 0.42784 0.65114 0.69111 0.0
H782 H 0.42053 0.7447 0.76608 0.0
H783 H 0.42371 0.68004 0.59151 0.0
H784 H 0.42247 0.68371 0.71915 0.0
H785 H 0.42519 0.74257 0.63861 0.0
C786 C 0.42646 0.7642 0.68265 0.0
C787 C 0.42551 0.76533 0.71878 0.0
C788 C 0.42232 0.68274 0.69115 0.0
C789 C 0.42044 0.72246 0.68678 0.0
C790 C 0.42527 0.6641 0.67523 0.0
C791 C 0.42605 0.66295 0.63908 0.0
C792 C 0.42053 0.70059 0.67071 0.0
C793 C 0.42302 0.68031 0.6195 0.0
C794 C 0.42373 0.74277 0.66652 0.0
C795 C 0.4211 0.74434 0.73808 0.0
N796 N 0.42067 0.69857 0.63554 0.0
N797 N 0.41899 0.72387 0.72188 0.0
H798 H 0.68193 0.4193 0.10269 0.0
H799 H 0.74757 0.416 0.92508 0.0
H800 H 0.65569 0.42535 1.00194 0.0
H801 H 0.78279 0.42883 0.02492 0.0
H802 H 0.70971 0.41087 0.95316 0.0
H803 H 0.71481 0.41423 0.07506 0.0
C804 C 0.68282 0.41897 0.0747 0.0
C805 C 0.6661 0.42255 0.05444 0.0
C806 C 0.72555 0.41441 0.96902 0.0
C807 C 0.70372 0.41713 0.02263 0.0
C808 C 0.74702 0.41712 0.95303 0.0
C809 C 0.76808 0.42256 0.97287 0.0
C810 C 0.72518 0.41715 1.00513 0.0
C811 C 0.76676 0.42438 1.00888 0.0
C812 C 0.70165 0.41628 0.05894 0.0
C813 C 0.66817 0.42242 0.01833 0.0
N814 N 0.74572 0.42177 0.02387 0.0
N815 N 0.68671 0.41988 1.00355 0.0
H816 H 0.26843 0.67821 0.43534 0.0
H817 H 0.33603 0.74595 0.25787 0.0
H818 H 0.23474 0.65431 0.33485 0.0
H819 H 0.36048 0.77942 0.35834 0.0
H820 H 0.30301 0.70811 0.28562 0.0
H821 H 0.30635 0.71118 0.40763 0.0
C822 C 0.26932 0.67964 0.40736 0.0
C823 C 0.24866 0.66352 0.38721 0.0
C824 C 0.3158 0.72356 0.30168 0.0
C825 C 0.29166 0.70125 0.35534 0.0
C826 C 0.33472 0.74501 0.28585 0.0
C827 C 0.35099 0.7656 0.30598 0.0
C828 C 0.31319 0.72269 0.33791 0.0
C829 C 0.34836 0.76377 0.34206 0.0
C830 C 0.29082 0.69852 0.39157 0.0
C831 C 0.25044 0.6663 0.35114 0.0
N832 N 0.32976 0.74274 0.3569 0.0
N833 N 0.27152 0.68486 0.33634 0.0
H834 H 0.58711 0.23023 0.66684 0.0
H835 H 0.59059 0.35971 0.69154 0.0
H836 H 0.5988 0.26628 0.76577 0.0
H837 H 0.5933 0.33043 0.59171 0.0
H838 H 0.59619 0.32715 0.71928 0.0
H839 H 0.59195 0.26787 0.63852 0.0
C840 C 0.5913 0.24638 0.68244 0.0
C841 C 0.5929 0.24542 0.71852 0.0
C842 C 0.59596 0.32802 0.69129 0.0
C843 C 0.59769 0.28825 0.68664 0.0
C844 C 0.59287 0.34666 0.67554 0.0
C845 C 0.59161 0.34768 0.63942 0.0
C846 C 0.59744 0.31009 0.67071 0.0
C847 C 0.59433 0.33023 0.61968 0.0
C848 C 0.59392 0.2678 0.66637 0.0
C849 C 0.59779 0.26654 0.7378 0.0
N850 N 0.59684 0.31199 0.63557 0.0
N851 N 0.59975 0.287 0.72168 0.0
H852 H 0.47075 0.53081 0.0323 0.0
H853 H 0.53918 0.47316 0.1439 0.0
H854 H 0.47452 0.53277 0.14362 0.0
H855 H 0.54909 0.48453 0.03379 0.0
H856 H 0.51263 0.49204 0.14356 0.0
H857 H 0.49742 0.51184 0.03131 0.0
C858 C 0.47755 0.52754 0.05645 0.0
C859 C 0.47088 0.53362 0.08805 0.0
C860 C 0.52042 0.49028 0.11937 0.0
C861 C 0.50067 0.51144 0.08733 0.0
C862 C 0.53535 0.4793 0.11957 0.0
C863 C 0.54587 0.47695 0.08874 0.0
C864 C 0.516 0.49906 0.08809 0.0
C865 C 0.54093 0.48571 0.05797 0.0
C866 C 0.49262 0.51663 0.05594 0.0
C867 C 0.47964 0.52863 0.11875 0.0
N868 N 0.5263 0.49635 0.05837 0.0
N869 N 0.49399 0.51774 0.11765 0.0
H870 H 0.9462 0.47359 0.47789 0.0
H871 H 0.07158 0.54349 0.36563 0.0
H872 H 0.94691 0.46515 0.36736 0.0
H873 H 0.07057 0.53694 0.47665 0.0
H874 H 0.02595 0.5168 0.36483 0.0
H875 H 0.9917 0.49964 0.47737 0.0
C876 C 0.95603 0.47762 0.45345 0.0
C877 C 0.94294 0.46766 0.42255 0.0
C878 C 0.03571 0.52097 0.38934 0.0
C879 C 0.99496 0.497 0.42166 0.0
C880 C 0.06169 0.53603 0.38973 0.0
C881 C 0.07469 0.54194 0.42118 0.0
C882 C 0.02269 0.51217 0.42073 0.0
C883 C 0.06114 0.53239 0.45186 0.0
C884 C 0.98197 0.49226 0.45314 0.0
C885 C 0.95644 0.47286 0.39161 0.0
N886 N 0.03589 0.51809 0.45089 0.0
N887 N 0.98174 0.48725 0.3919 0.0
H888 H 0.53516 0.06932 0.69941 0.0
H889 H 0.47673 0.94227 0.80865 0.0
H890 H 0.53709 0.06657 0.81066 0.0
H891 H 0.48851 0.94463 0.69857 0.0
H892 H 0.49591 0.98774 0.80915 0.0
H893 H 0.5161 0.0237 0.69757 0.0
C894 C 0.53188 0.05905 0.72336 0.0
C895 C 0.53799 0.07155 0.75518 0.0
C896 C 0.49418 0.97838 0.78479 0.0
C897 C 0.51567 0.01956 0.75351 0.0
C898 C 0.48304 0.95246 0.7845 0.0
C899 C 0.48072 0.93983 0.75344 0.0
C900 C 0.50315 0.99183 0.75375 0.0
C901 C 0.48967 0.95378 0.72292 0.0
C902 C 0.52091 0.03307 0.72237 0.0
C903 C 0.53296 0.05752 0.78562 0.0
N904 N 0.50046 0.97907 0.72379 0.0
N905 N 0.522 0.03229 0.78406 0.0
H906 H 0.48262 0.54217 0.66328 0.0
H907 H 0.54178 0.47546 0.5515 0.0
H908 H 0.48349 0.54131 0.55187 0.0
H909 H 0.52858 0.46356 0.66109 0.0
H910 H 0.52315 0.50222 0.55202 0.0
H911 H 0.50126 0.5152 0.66414 0.0
C912 C 0.48649 0.53599 0.63907 0.0
C913 C 0.48134 0.5436 0.60748 0.0
C914 C 0.52444 0.49394 0.57606 0.0
C915 C 0.50307 0.5134 0.60807 0.0
C916 C 0.53526 0.47888 0.57576 0.0
C917 C 0.53703 0.46775 0.6064 0.0
C918 C 0.51523 0.49787 0.60725 0.0
C919 C 0.52782 0.47218 0.63708 0.0
C920 C 0.4972 0.52074 0.6395 0.0
C921 C 0.48699 0.53552 0.57671 0.0
N922 N 0.51735 0.48696 0.63678 0.0
N923 N 0.49764 0.52097 0.57776 0.0
H924 H 0.07136 0.52994 0.99604 0.0
H925 H 0.9458 0.4754 0.88404 0.0
H926 H 0.07005 0.53536 0.88503 0.0
H927 H 0.9468 0.48448 0.99461 0.0
H928 H 0.99124 0.4944 0.88451 0.0
H929 H 0.02575 0.51124 0.99699 0.0
C930 C 0.06141 0.52751 0.97198 0.0
C931 C 0.0743 0.53449 0.94048 0.0
C932 C 0.98159 0.49213 0.90876 0.0
C933 C 0.02235 0.51258 0.9411 0.0
C934 C 0.95568 0.48109 0.90848 0.0
C935 C 0.94268 0.47807 0.9394 0.0
C936 C 0.99465 0.50025 0.94023 0.0
C937 C 0.95625 0.48621 0.97035 0.0
C938 C 0.03545 0.51675 0.97245 0.0
C939 C 0.06068 0.53054 0.90985 0.0
N940 N 0.98153 0.49689 0.97003 0.0
N941 N 0.03546 0.51975 0.9109 0.0
H942 H 0.46443 0.94334 0.32505 0.0
H943 H 0.54908 0.06781 0.2154 0.0
H944 H 0.48085 0.94374 0.21672 0.0
H945 H 0.54151 0.06797 0.32614 0.0
H946 H 0.52233 0.0224 0.21524 0.0
H947 H 0.49132 0.9889 0.32634 0.0
C948 C 0.47407 0.95307 0.30172 0.0
C949 C 0.47094 0.93987 0.27093 0.0
C950 C 0.52637 0.03228 0.23963 0.0
C951 C 0.50111 0.99186 0.27182 0.0
C952 C 0.5415 0.05816 0.23963 0.0
C953 C 0.54731 0.07145 0.27081 0.0
C954 C 0.51688 0.01955 0.27106 0.0
C955 C 0.53728 0.05826 0.30161 0.0
C956 C 0.48927 0.97902 0.30236 0.0
C957 C 0.48325 0.95327 0.24112 0.0
N958 N 0.52253 0.03299 0.301 0.0
N959 N 0.49774 0.97849 0.24228 0.0
H960 H 0.46249 0.63176 0.76948 0.0
H961 H 0.41603 0.53438 0.92672 0.0
H962 H 0.43017 0.55259 0.75508 0.0
H963 H 0.43163 0.61019 0.93645 0.0
H964 H 0.42417 0.54108 0.8645 0.0
H965 H 0.4556 0.62489 0.83197 0.0
C966 C 0.45421 0.61298 0.77954 0.0
C967 C 0.44679 0.59272 0.75709 0.0
C968 C 0.4258 0.55622 0.88032 0.0
C969 C 0.43864 0.58466 0.82841 0.0
C970 C 0.42097 0.55236 0.91582 0.0
C971 C 0.42329 0.57177 0.93705 0.0
C972 C 0.43312 0.57971 0.86591 0.0
C973 C 0.4301 0.59479 0.92138 0.0
C974 C 0.45007 0.60903 0.81513 0.0
C975 C 0.4359 0.56871 0.77146 0.0
N976 N 0.43486 0.59813 0.88688 0.0
N977 N 0.43214 0.56535 0.80617 0.0
H978 H 0.8842 0.46165 0.2734 0.0
H979 H 0.82484 0.40133 0.09037 0.0
H980 H 0.83634 0.38277 0.2577 0.0
H981 H 0.88582 0.47667 0.10105 0.0
H982 H 0.82694 0.39506 0.15228 0.0
H983 H 0.88355 0.46825 0.21101 0.0
C984 C 0.87363 0.44571 0.25675 0.0
C985 C 0.86023 0.42162 0.27073 0.0
C986 C 0.8399 0.41295 0.14111 0.0
C987 C 0.85928 0.42906 0.19937 0.0
C988 C 0.83878 0.41657 0.10567 0.0
C989 C 0.85539 0.43952 0.09024 0.0
C990 C 0.85759 0.43247 0.16159 0.0
C991 C 0.87254 0.45873 0.11174 0.0
C992 C 0.87331 0.44948 0.22116 0.0
C993 C 0.84706 0.40161 0.24798 0.0
N994 N 0.87322 0.45476 0.14631 0.0
N995 N 0.84676 0.4058 0.21345 0.0
H996 H 0.48078 0.88364 0.59182 0.0
H997 H 0.38388 0.8342 0.43399 0.0
H998 H 0.40497 0.82325 0.60057 0.0
H999 H 0.46313 0.88059 0.41983 0.0
H1000 H 0.39065 0.83367 0.49641 0.0
H1001 H 0.47438 0.8855 0.52954 0.0
C1002 C 0.46287 0.87064 0.5807 0.0
C1003 C 0.44335 0.85339 0.60167 0.0
C1004 C 0.40656 0.84402 0.47965 0.0
C1005 C 0.43576 0.85577 0.53049 0.0
C1006 C 0.40267 0.84451 0.44408 0.0
C1007 C 0.42297 0.85737 0.42171 0.0
C1008 C 0.43092 0.85668 0.493 0.0
C1009 C 0.44698 0.8702 0.43615 0.0
C1010 C 0.45918 0.87184 0.54516 0.0
C1011 C 0.42044 0.83724 0.58571 0.0
N1012 N 0.45029 0.86953 0.47086 0.0
N1013 N 0.41727 0.83891 0.55121 0.0
H1014 H 0.55491 0.37931 0.76945 0.0
H1015 H 0.60099 0.4765 0.92672 0.0
H1016 H 0.58754 0.45852 0.75497 0.0
H1017 H 0.58568 0.40077 0.93652 0.0
H1018 H 0.59292 0.46985 0.86447 0.0
H1019 H 0.56161 0.38612 0.83198 0.0
C1020 C 0.56321 0.39809 0.77949 0.0
C1021 C 0.57079 0.41839 0.75702 0.0
C1022 C 0.59135 0.45471 0.88032 0.0
C1023 C 0.57871 0.42636 0.82838 0.0
C1024 C 0.59613 0.45855 0.91584 0.0
C1025 C 0.59388 0.43914 0.9371 0.0
C1026 C 0.58414 0.43127 0.86592 0.0
C1027 C 0.58716 0.41616 0.92143 0.0
C1028 C 0.56724 0.402 0.81511 0.0
C1029 C 0.5817 0.44238 0.77138 0.0
N1030 N 0.58244 0.41285 0.88691 0.0
N1031 N 0.58534 0.44571 0.80612 0.0
H1032 H 0.16596 0.54061 0.10484 0.0
H1033 H 0.16592 0.62623 0.25563 0.0
H1034 H 0.14398 0.59573 0.08679 0.0
H1035 H 0.14422 0.54923 0.27401 0.0
H1036 H 0.16364 0.61834 0.19337 0.0
H1037 H 0.16371 0.54611 0.16717 0.0
C1038 C 0.16046 0.55369 0.11375 0.0
C1039 C 0.15542 0.56788 0.09014 0.0
C1040 C 0.15933 0.60323 0.2112 0.0
C1041 C 0.15357 0.57473 0.16159 0.0
C1042 C 0.16047 0.60764 0.24681 0.0
C1043 C 0.15547 0.58847 0.27051 0.0
C1044 C 0.15362 0.57963 0.19909 0.0
C1045 C 0.14896 0.56487 0.25706 0.0
C1046 C 0.15933 0.5569 0.14939 0.0
C1047 C 0.14878 0.58485 0.10368 0.0
N1048 N 0.1485 0.5612 0.22233 0.0
N1049 N 0.14834 0.588 0.13842 0.0
H1050 H 0.61519 0.18702 0.60448 0.0
H1051 H 0.55535 0.12744 0.42144 0.0
H1052 H 0.54004 0.12573 0.59348 0.0
H1053 H 0.634 0.1768 0.43693 0.0
H1054 H 0.54887 0.12729 0.48393 0.0
H1055 H 0.62179 0.18471 0.54277 0.0
C1056 C 0.60007 0.17295 0.58916 0.0
C1057 C 0.57706 0.15637 0.60443 0.0
C1058 C 0.56757 0.13802 0.47373 0.0
C1059 C 0.58448 0.15391 0.53329 0.0
C1060 C 0.57128 0.13814 0.43809 0.0
C1061 C 0.59525 0.15226 0.42401 0.0
C1062 C 0.58794 0.15235 0.49551 0.0
C1063 C 0.61526 0.16557 0.44674 0.0
C1064 C 0.60387 0.1717 0.55383 0.0
C1065 C 0.55801 0.13902 0.5829 0.0
N1066 N 0.61112 0.16547 0.48134 0.0
N1067 N 0.56215 0.13823 0.54843 0.0
loop_
_geom_bond_atom_site_label_1
_geom_bond_atom_site_label_2
_geom_bond_distance
_geom_bond_site_symmetry_2
_ccdc_geom_bond_type
C0 C1 1.443 . S
C0 N4 1.376 . S
C0 C38 1.389 . S
C1 C0 1.443 . S
C1 C2 1.340 . S
C1 H41 0.951 . S
C2 C1 1.340 . S
C2 C3 1.439 . S
C2 H42 0.950 . S
C3 C2 1.439 . S
C3 N4 1.374 . S
C3 C37 1.395 . S
N4 C0 1.376 . S
N4 C3 1.374 . S
N4 Co5 2.008 . S
Co5 N4 2.008 . S
Co5 N6 1.995 . S
Co5 N11 2.008 . S
Co5 N16 1.995 . S
Co5 N21 2.282 . S
Co5 N27 2.282 . S
N6 Co5 1.995 . S
N6 C7 1.376 . S
N6 C10 1.383 . S
C7 N6 1.376 . S
C7 C8 1.446 . S
C7 C37 1.391 . S
C8 C7 1.446 . S
C8 C9 1.339 . S
C8 H43 0.949 . S
C9 C8 1.339 . S
C9 C10 1.439 . S
C9 H44 0.950 . S
C10 N6 1.383 . S
C10 C9 1.439 . S
C10 C39 1.392 . S
N11 Co5 2.008 . S
N11 C12 1.376 . S
N11 C15 1.374 . S
C12 N11 1.376 . S
C12 C13 1.443 . S
C12 C39 1.389 . S
C13 C12 1.443 . S
C13 C14 1.340 . S
C13 H45 0.951 . S
C14 C13 1.340 . S
C14 C15 1.439 . S
C14 H46 0.950 . S
C15 N11 1.374 . S
C15 C14 1.439 . S
C15 C40 1.395 . S
N16 Co5 1.995 . S
N16 C17 1.376 . S
N16 C20 1.383 . S
C17 N16 1.376 . S
C17 C18 1.446 . S
C17 C40 1.391 . S
C18 C17 1.446 . S
C18 C19 1.339 . S
C18 H47 0.949 . S
C19 C18 1.339 . S
C19 C20 1.439 . S
C19 H48 0.950 . S
C20 N16 1.383 . S
C20 C19 1.439 . S
C20 C38 1.392 . S
N21 Co5 2.282 . S
N21 C24 1.332 . S
N21 C26 1.332 . S
C22 C23 1.386 . S
C22 C25 1.388 . S
C23 C22 1.386 . S
C23 C24 1.382 . S
C23 H49 0.950 . S
C24 N21 1.332 . S
C24 C23 1.382 . S
C24 H35 0.952 . S
C25 C22 1.388 . S
C25 C26 1.382 . S
C25 H50 0.950 . S
C26 N21 1.332 . S
C26 C25 1.382 . S
C26 H36 0.948 . S
N27 Co5 2.282 . S
N27 C31 1.332 . S
N27 C32 1.332 . S
C28 C29 1.388 . S
C28 C32 1.382 1_556 S
C28 H51 0.950 . S
C29 C28 1.388 . S
C29 C30 1.386 . S
C30 C29 1.386 . S
C30 C31 1.382 1_556 S
C30 H52 0.950 . S
C31 N27 1.332 . S
C31 C30 1.382 1_554 S
C31 H33 0.952 . S
C32 N27 1.332 . S
C32 C28 1.382 1_554 S
C32 H34 0.948 . S
H33 C31 0.952 . S
H34 C32 0.948 . S
H35 C24 0.952 . S
H36 C26 0.948 . S
C37 C3 1.395 . S
C37 C7 1.391 . S
C38 C0 1.389 . S
C38 C20 1.392 . S
C39 C10 1.392 . S
C39 C12 1.389 . S
C40 C15 1.395 . S
C40 C17 1.391 . S
H41 C1 0.951 . S
H42 C2 0.950 . S
H43 C8 0.949 . S
H44 C9 0.950 . S
H45 C13 0.951 . S
H46 C14 0.950 . S
H47 C18 0.949 . S
H48 C19 0.950 . S
H49 C23 0.950 . S
H50 C25 0.950 . S
H51 C28 0.950 . S
H52 C30 0.950 . S
C53 C54 1.443 . S
C53 N57 1.376 . S
C53 C91 1.389 . S
C54 C53 1.443 . S
C54 C55 1.340 . S
C54 H94 0.951 . S
C55 C54 1.340 . S
C55 C56 1.439 . S
C55 H95 0.950 . S
C56 C55 1.439 . S
C56 N57 1.374 . S
C56 C90 1.395 . S
N57 C53 1.376 . S
N57 C56 1.374 . S
N57 Co58 2.008 . S
Co58 N57 2.008 . S
Co58 N59 1.995 . S
Co58 N64 2.008 . S
Co58 N69 1.995 . S
Co58 N74 2.282 . S
Co58 N80 2.282 . S
N59 Co58 1.995 . S
N59 C60 1.376 . S
N59 C63 1.383 . S
C60 N59 1.376 . S
C60 C61 1.446 . S
C60 C90 1.391 . S
C61 C60 1.446 . S
C61 C62 1.339 . S
C61 H96 0.949 . S
C62 C61 1.339 . S
C62 C63 1.439 . S
C62 H97 0.950 . S
C63 N59 1.383 . S
C63 C62 1.439 . S
C63 C92 1.392 . S
N64 Co58 2.008 . S
N64 C65 1.376 . S
N64 C68 1.374 . S
C65 N64 1.376 . S
C65 C66 1.443 . S
C65 C92 1.389 . S
C66 C65 1.443 . S
C66 C67 1.340 . S
C66 H98 0.951 . S
C67 C66 1.340 . S
C67 C68 1.439 . S
C67 H99 0.950 . S
C68 N64 1.374 . S
C68 C67 1.439 . S
C68 C93 1.395 . S
N69 Co58 1.995 . S
N69 C70 1.376 . S
N69 C73 1.383 . S
C70 N69 1.376 . S
C70 C71 1.446 . S
C70 C93 1.391 . S
C71 C70 1.446 . S
C71 C72 1.339 . S
C71 H100 0.949 . S
C72 C71 1.339 . S
C72 C73 1.439 . S
C72 H101 0.950 . S
C73 N69 1.383 . S
C73 C72 1.439 . S
C73 C91 1.392 . S
N74 Co58 2.282 . S
N74 C77 1.332 . S
N74 C79 1.332 . S
C75 C76 1.386 . S
C75 C78 1.388 . S
C76 C75 1.386 . S
C76 C77 1.382 . S
C76 H102 0.950 . S
C77 N74 1.332 . S
C77 C76 1.382 . S
C77 H88 0.952 . S
C78 C75 1.388 . S
C78 C79 1.382 . S
C78 H103 0.950 . S
C79 N74 1.332 . S
C79 C78 1.382 . S
C79 H89 0.948 . S
N80 Co58 2.282 . S
N80 C84 1.332 . S
N80 C85 1.332 . S
C81 C82 1.388 . S
C81 C85 1.382 . S
C81 H104 0.950 . S
C82 C81 1.388 . S
C82 C83 1.386 . S
C83 C82 1.386 . S
C83 C84 1.382 . S
C83 H105 0.950 . S
C84 N80 1.332 . S
C84 C83 1.382 . S
C84 H86 0.952 . S
C85 N80 1.332 . S
C85 C81 1.382 . S
C85 H87 0.948 . S
H86 C84 0.952 . S
H87 C85 0.948 . S
H88 C77 0.952 . S
H89 C79 0.948 . S
C90 C56 1.395 . S
C90 C60 1.391 . S
C91 C53 1.389 . S
C91 C73 1.392 . S
C92 C63 1.392 . S
C92 C65 1.389 . S
C93 C68 1.395 . S
C93 C70 1.391 . S
H94 C54 0.951 . S
H95 C55 0.950 . S
H96 C61 0.949 . S
H97 C62 0.950 . S
H98 C66 0.951 . S
H99 C67 0.950 . S
H100 C71 0.949 . S
H101 C72 0.950 . S
H102 C76 0.950 . S
H103 C78 0.950 . S
H104 C81 0.950 . S
H105 C83 0.950 . S
C106 C107 1.443 . S
C106 N110 1.376 . S
C106 C144 1.389 . S
C107 C106 1.443 . S
C107 C108 1.340 . S
C107 H147 0.951 . S
C108 C107 1.340 . S
C108 C109 1.439 . S
C108 H148 0.950 . S
C109 C108 1.439 . S
C109 N110 1.374 . S
C109 C143 1.395 . S
N110 C106 1.376 . S
N110 C109 1.374 . S
N110 Co111 2.008 . S
Co111 N110 2.008 . S
Co111 N112 1.995 . S
Co111 N117 2.008 . S
Co111 N122 1.995 . S
Co111 N127 2.282 . S
Co111 N133 2.282 . S
N112 Co111 1.995 . S
N112 C113 1.376 . S
N112 C116 1.383 . S
C113 N112 1.376 . S
C113 C114 1.446 . S
C113 C143 1.391 . S
C114 C113 1.446 . S
C114 C115 1.339 . S
C114 H149 0.949 . S
C115 C114 1.339 . S
C115 C116 1.439 . S
C115 H150 0.950 . S
C116 N112 1.383 . S
C116 C115 1.439 . S
C116 C145 1.392 . S
N117 Co111 2.008 . S
N117 C118 1.376 . S
N117 C121 1.374 . S
C118 N117 1.376 . S
C118 C119 1.443 . S
C118 C145 1.389 . S
C119 C118 1.443 . S
C119 C120 1.340 . S
C119 H151 0.951 . S
C120 C119 1.340 . S
C120 C121 1.439 . S
C120 H152 0.950 . S
C121 N117 1.374 . S
C121 C120 1.439 . S
C121 C146 1.395 . S
N122 Co111 1.995 . S
N122 C123 1.376 . S
N122 C126 1.383 . S
C123 N122 1.376 . S
C123 C124 1.446 . S
C123 C146 1.391 . S
C124 C123 1.446 . S
C124 C125 1.339 . S
C124 H153 0.949 . S
C125 C124 1.339 . S
C125 C126 1.439 . S
C125 H154 0.950 . S
C126 N122 1.383 . S
C126 C125 1.439 . S
C126 C144 1.392 . S
N127 Co111 2.282 . S
N127 C130 1.332 . S
N127 C132 1.332 . S
C128 C129 1.386 . S
C128 C131 1.388 . S
C129 C128 1.386 . S
C129 C130 1.382 . S
C129 H155 0.950 . S
C130 N127 1.332 . S
C130 C129 1.382 . S
C130 H141 0.952 . S
C131 C128 1.388 . S
C131 C132 1.382 . S
C131 H156 0.950 . S
C132 N127 1.332 . S
C132 C131 1.382 . S
C132 H142 0.948 . S
N133 Co111 2.282 . S
N133 C137 1.332 . S
N133 C138 1.332 . S
C134 C135 1.388 . S
C134 C138 1.382 . S
C134 H157 0.950 . S
C135 C134 1.388 . S
C135 C136 1.386 . S
C136 C135 1.386 . S
C136 C137 1.382 . S
C136 H158 0.950 . S
C137 N133 1.332 . S
C137 C136 1.382 . S
C137 H139 0.952 . S
C138 N133 1.332 . S
C138 C134 1.382 . S
C138 H140 0.948 . S
H139 C137 0.952 . S
H140 C138 0.948 . S
H141 C130 0.952 . S
H142 C132 0.948 . S
C143 C109 1.395 . S
C143 C113 1.391 . S
C144 C106 1.389 . S
C144 C126 1.392 . S
C145 C116 1.392 . S
C145 C118 1.389 . S
C146 C121 1.395 . S
C146 C123 1.391 . S
H147 C107 0.951 . S
H148 C108 0.950 . S
H149 C114 0.949 . S
H150 C115 0.950 . S
H151 C119 0.951 . S
H152 C120 0.950 . S
H153 C124 0.949 . S
H154 C125 0.950 . S
H155 C129 0.950 . S
H156 C131 0.950 . S
H157 C134 0.950 . S
H158 C136 0.950 . S
C159 C160 1.443 . S
C159 N163 1.376 . S
C159 C197 1.389 . S
C160 C159 1.443 . S
C160 C161 1.340 . S
C160 H200 0.951 . S
C161 C160 1.340 . S
C161 C162 1.439 . S
C161 H201 0.950 . S
C162 C161 1.439 . S
C162 N163 1.374 . S
C162 C196 1.395 . S
N163 C159 1.376 . S
N163 C162 1.374 . S
N163 Co164 2.008 . S
Co164 N163 2.008 . S
Co164 N165 1.995 . S
Co164 N170 2.008 . S
Co164 N175 1.995 . S
Co164 N180 2.282 . S
Co164 N186 2.282 . S
N165 Co164 1.995 . S
N165 C166 1.376 . S
N165 C169 1.383 . S
C166 N165 1.376 . S
C166 C167 1.446 . S
C166 C196 1.391 . S
C167 C166 1.446 . S
C167 C168 1.339 . S
C167 H202 0.949 . S
C168 C167 1.339 . S
C168 C169 1.439 . S
C168 H203 0.950 . S
C169 N165 1.383 . S
C169 C168 1.439 . S
C169 C198 1.392 . S
N170 Co164 2.008 . S
N170 C171 1.376 . S
N170 C174 1.374 . S
C171 N170 1.376 . S
C171 C172 1.443 . S
C171 C198 1.389 . S
C172 C171 1.443 . S
C172 C173 1.340 . S
C172 H204 0.951 . S
C173 C172 1.340 . S
C173 C174 1.439 . S
C173 H205 0.950 . S
C174 N170 1.374 . S
C174 C173 1.439 . S
C174 C199 1.395 . S
N175 Co164 1.995 . S
N175 C176 1.376 . S
N175 C179 1.383 . S
C176 N175 1.376 . S
C176 C177 1.446 . S
C176 C199 1.391 . S
C177 C176 1.446 . S
C177 C178 1.339 . S
C177 H206 0.949 . S
C178 C177 1.339 . S
C178 C179 1.439 . S
C178 H207 0.950 . S
C179 N175 1.383 . S
C179 C178 1.439 . S
C179 C197 1.392 . S
N180 Co164 2.282 . S
N180 C183 1.332 . S
N180 C185 1.332 . S
C181 C182 1.386 . S
C181 C184 1.388 . S
C182 C181 1.386 . S
C182 C183 1.382 . S
C182 H208 0.950 . S
C183 N180 1.332 . S
C183 C182 1.382 . S
C183 H194 0.952 . S
C184 C181 1.388 . S
C184 C185 1.382 . S
C184 H209 0.950 . S
C185 N180 1.332 . S
C185 C184 1.382 . S
C185 H195 0.948 . S
N186 Co164 2.282 . S
N186 C190 1.332 . S
N186 C191 1.332 . S
C187 C188 1.388 . S
C187 C191 1.382 1_556 S
C187 H210 0.950 . S
C188 C187 1.388 . S
C188 C189 1.386 . S
C189 C188 1.386 . S
C189 C190 1.382 1_556 S
C189 H211 0.950 . S
C190 N186 1.332 . S
C190 C189 1.382 1_554 S
C190 H192 0.952 . S
C191 N186 1.332 . S
C191 C187 1.382 1_554 S
C191 H193 0.948 . S
H192 C190 0.952 . S
H193 C191 0.948 . S
H194 C183 0.952 . S
H195 C185 0.948 . S
C196 C162 1.395 . S
C196 C166 1.391 . S
C197 C159 1.389 . S
C197 C179 1.392 . S
C198 C169 1.392 . S
C198 C171 1.389 . S
C199 C174 1.395 . S
C199 C176 1.391 . S
H200 C160 0.951 . S
H201 C161 0.950 . S
H202 C167 0.949 . S
H203 C168 0.950 . S
H204 C172 0.951 . S
H205 C173 0.950 . S
H206 C177 0.949 . S
H207 C178 0.950 . S
H208 C182 0.950 . S
H209 C184 0.950 . S
H210 C187 0.950 . S
H211 C189 0.950 . S
C212 C213 1.443 . S
C212 N216 1.376 . S
C212 C250 1.389 . S
C213 C212 1.443 . S
C213 C214 1.340 . S
C213 H253 0.951 . S
C214 C213 1.340 . S
C214 C215 1.439 . S
C214 H254 0.950 . S
C215 C214 1.439 . S
C215 N216 1.374 . S
C215 C249 1.395 . S
N216 C212 1.376 . S
N216 C215 1.374 . S
N216 Co217 2.008 . S
Co217 N216 2.008 . S
Co217 N218 1.995 . S
Co217 N223 2.008 . S
Co217 N228 1.995 . S
Co217 N233 2.282 . S
Co217 N239 2.282 . S
N218 Co217 1.995 . S
N218 C219 1.376 . S
N218 C222 1.383 . S
C219 N218 1.376 . S
C219 C220 1.446 . S
C219 C249 1.391 . S
C220 C219 1.446 . S
C220 C221 1.339 . S
C220 H255 0.949 . S
C221 C220 1.339 . S
C221 C222 1.439 . S
C221 H256 0.950 . S
C222 N218 1.383 . S
C222 C221 1.439 . S
C222 C251 1.392 . S
N223 Co217 2.008 . S
N223 C224 1.376 . S
N223 C227 1.374 . S
C224 N223 1.376 . S
C224 C225 1.443 . S
C224 C251 1.389 . S
C225 C224 1.443 . S
C225 C226 1.340 . S
C225 H257 0.951 . S
C226 C225 1.340 . S
C226 C227 1.439 . S
C226 H258 0.950 . S
C227 N223 1.374 . S
C227 C226 1.439 . S
C227 C252 1.395 . S
N228 Co217 1.995 . S
N228 C229 1.376 . S
N228 C232 1.383 . S
C229 N228 1.376 . S
C229 C230 1.446 . S
C229 C252 1.391 . S
C230 C229 1.446 . S
C230 C231 1.339 . S
C230 H259 0.949 . S
C231 C230 1.339 . S
C231 C232 1.439 . S
C231 H260 0.950 . S
C232 N228 1.383 . S
C232 C231 1.439 . S
C232 C250 1.392 . S
N233 Co217 2.282 . S
N233 C236 1.332 . S
N233 C238 1.332 . S
C234 C235 1.386 . S
C234 C237 1.388 . S
C235 C234 1.386 . S
C235 C236 1.382 . S
C235 H261 0.950 . S
C236 N233 1.332 . S
C236 C235 1.382 . S
C236 H247 0.952 . S
C237 C234 1.388 . S
C237 C238 1.382 . S
C237 H262 0.950 . S
C238 N233 1.332 . S
C238 C237 1.382 . S
C238 H248 0.948 . S
N239 Co217 2.282 . S
N239 C243 1.332 . S
N239 C244 1.332 . S
C240 C241 1.388 . S
C240 C244 1.382 . S
C240 H263 0.950 . S
C241 C240 1.388 . S
C241 C242 1.386 . S
C242 C241 1.386 . S
C242 C243 1.382 . S
C242 H264 0.950 . S
C243 N239 1.332 . S
C243 C242 1.382 . S
C243 H245 0.952 . S
C244 N239 1.332 . S
C244 C240 1.382 . S
C244 H246 0.948 . S
H245 C243 0.952 . S
H246 C244 0.948 . S
H247 C236 0.952 . S
H248 C238 0.948 . S
C249 C215 1.395 . S
C249 C219 1.391 . S
C250 C212 1.389 . S
C250 C232 1.392 . S
C251 C222 1.392 . S
C251 C224 1.389 . S
C252 C227 1.395 . S
C252 C229 1.391 . S
H253 C213 0.951 . S
H254 C214 0.950 . S
H255 C220 0.949 . S
H256 C221 0.950 . S
H257 C225 0.951 . S
H258 C226 0.950 . S
H259 C230 0.949 . S
H260 C231 0.950 . S
H261 C235 0.950 . S
H262 C237 0.950 . S
H263 C240 0.950 . S
H264 C242 0.950 . S
C265 C266 1.443 . S
C265 N269 1.376 . S
C265 C303 1.389 . S
C266 C265 1.443 . S
C266 C267 1.340 . S
C266 H306 0.951 . S
C267 C266 1.340 . S
C267 C268 1.439 . S
C267 H307 0.950 . S
C268 C267 1.439 . S
C268 N269 1.374 . S
C268 C302 1.395 . S
N269 C265 1.376 . S
N269 C268 1.374 . S
N269 Co270 2.008 . S
Co270 N269 2.008 . S
Co270 N271 1.995 . S
Co270 N276 2.008 . S
Co270 N281 1.995 . S
Co270 N286 2.282 . S
Co270 N292 2.282 . S
N271 Co270 1.995 . S
N271 C272 1.376 . S
N271 C275 1.383 . S
C272 N271 1.376 . S
C272 C273 1.446 . S
C272 C302 1.391 . S
C273 C272 1.446 . S
C273 C274 1.339 . S
C273 H308 0.949 . S
C274 C273 1.339 . S
C274 C275 1.439 . S
C274 H309 0.950 . S
C275 N271 1.383 . S
C275 C274 1.439 . S
C275 C304 1.392 . S
N276 Co270 2.008 . S
N276 C277 1.376 . S
N276 C280 1.374 . S
C277 N276 1.376 . S
C277 C278 1.443 . S
C277 C304 1.389 . S
C278 C277 1.443 . S
C278 C279 1.340 . S
C278 H310 0.951 . S
C279 C278 1.340 . S
C279 C280 1.439 . S
C279 H311 0.950 . S
C280 N276 1.374 . S
C280 C279 1.439 . S
C280 C305 1.395 . S
N281 Co270 1.995 . S
N281 C282 1.376 . S
N281 C285 1.383 . S
C282 N281 1.376 . S
C282 C283 1.446 . S
C282 C305 1.391 . S
C283 C282 1.446 . S
C283 C284 1.339 . S
C283 H312 0.949 . S
C284 C283 1.339 . S
C284 C285 1.439 . S
C284 H313 0.950 . S
C285 N281 1.383 . S
C285 C284 1.439 . S
C285 C303 1.392 . S
N286 Co270 2.282 . S
N286 C289 1.332 . S
N286 C291 1.332 . S
C287 C288 1.386 . S
C287 C290 1.388 . S
C288 C287 1.386 . S
C288 C289 1.382 . S
C288 H314 0.950 . S
C289 N286 1.332 . S
C289 C288 1.382 . S
C289 H300 0.952 . S
C290 C287 1.388 . S
C290 C291 1.382 . S
C290 H315 0.950 . S
C291 N286 1.332 . S
C291 C290 1.382 . S
C291 H301 0.948 . S
N292 Co270 2.282 . S
N292 C296 1.332 . S
N292 C297 1.332 . S
C293 C294 1.388 . S
C293 C297 1.382 . S
C293 H316 0.950 . S
C294 C293 1.388 . S
C294 C295 1.386 . S
C295 C294 1.386 . S
C295 C296 1.382 . S
C295 H317 0.950 . S
C296 N292 1.332 . S
C296 C295 1.382 . S
C296 H298 0.952 . S
C297 N292 1.332 . S
C297 C293 1.382 . S
C297 H299 0.948 . S
H298 C296 0.952 . S
H299 C297 0.948 . S
H300 C289 0.952 . S
H301 C291 0.948 . S
C302 C268 1.395 . S
C302 C272 1.391 . S
C303 C265 1.389 . S
C303 C285 1.392 . S
C304 C275 1.392 . S
C304 C277 1.389 . S
C305 C280 1.395 . S
C305 C282 1.391 . S
H306 C266 0.951 . S
H307 C267 0.950 . S
H308 C273 0.949 . S
H309 C274 0.950 . S
H310 C278 0.951 . S
H311 C279 0.950 . S
H312 C283 0.949 . S
H313 C284 0.950 . S
H314 C288 0.950 . S
H315 C290 0.950 . S
H316 C293 0.950 . S
H317 C295 0.950 . S
C318 C319 1.443 . S
C318 N322 1.376 . S
C318 C356 1.389 . S
C319 C318 1.443 . S
C319 C320 1.340 . S
C319 H359 0.951 . S
C320 C319 1.340 . S
C320 C321 1.439 . S
C320 H360 0.950 . S
C321 C320 1.439 . S
C321 N322 1.374 . S
C321 C355 1.395 . S
N322 C318 1.376 . S
N322 C321 1.374 . S
N322 Co323 2.008 . S
Co323 N322 2.008 . S
Co323 N324 1.995 . S
Co323 N329 2.008 . S
Co323 N334 1.995 . S
Co323 N339 2.282 . S
Co323 N345 2.282 . S
N324 Co323 1.995 . S
N324 C325 1.376 . S
N324 C328 1.383 . S
C325 N324 1.376 . S
C325 C326 1.446 . S
C325 C355 1.391 . S
C326 C325 1.446 . S
C326 C327 1.339 . S
C326 H361 0.949 . S
C327 C326 1.339 . S
C327 C328 1.439 . S
C327 H362 0.950 . S
C328 N324 1.383 . S
C328 C327 1.439 . S
C328 C357 1.392 . S
N329 Co323 2.008 . S
N329 C330 1.376 . S
N329 C333 1.374 . S
C330 N329 1.376 . S
C330 C331 1.443 . S
C330 C357 1.389 . S
C331 C330 1.443 . S
C331 C332 1.340 . S
C331 H363 0.951 . S
C332 C331 1.340 . S
C332 C333 1.439 . S
C332 H364 0.950 . S
C333 N329 1.374 . S
C333 C332 1.439 . S
C333 C358 1.395 . S
N334 Co323 1.995 . S
N334 C335 1.376 . S
N334 C338 1.383 . S
C335 N334 1.376 . S
C335 C336 1.446 . S
C335 C358 1.391 . S
C336 C335 1.446 . S
C336 C337 1.339 . S
C336 H365 0.949 . S
C337 C336 1.339 . S
C337 C338 1.439 . S
C337 H366 0.950 . S
C338 N334 1.383 . S
C338 C337 1.439 . S
C338 C356 1.392 . S
N339 Co323 2.282 . S
N339 C342 1.332 . S
N339 C344 1.332 . S
C340 C341 1.386 . S
C340 C343 1.388 . S
C341 C340 1.386 . S
C341 C342 1.382 . S
C341 H367 0.950 . S
C342 N339 1.332 . S
C342 C341 1.382 . S
C342 H353 0.952 . S
C343 C340 1.388 . S
C343 C344 1.382 . S
C343 H368 0.950 . S
C344 N339 1.332 . S
C344 C343 1.382 . S
C344 H354 0.948 . S
N345 Co323 2.282 . S
N345 C349 1.332 . S
N345 C350 1.332 . S
C346 C347 1.388 . S
C346 C350 1.382 . S
C346 H369 0.950 . S
C347 C346 1.388 . S
C347 C348 1.386 . S
C348 C347 1.386 . S
C348 C349 1.382 . S
C348 H370 0.950 . S
C349 N345 1.332 . S
C349 C348 1.382 . S
C349 H351 0.952 . S
C350 N345 1.332 . S
C350 C346 1.382 . S
C350 H352 0.948 . S
H351 C349 0.952 . S
H352 C350 0.948 . S
H353 C342 0.952 . S
H354 C344 0.948 . S
C355 C321 1.395 . S
C355 C325 1.391 . S
C356 C318 1.389 . S
C356 C338 1.392 . S
C357 C328 1.392 . S
C357 C330 1.389 . S
C358 C333 1.395 . S
C358 C335 1.391 . S
H359 C319 0.951 . S
H360 C320 0.950 . S
H361 C326 0.949 . S
H362 C327 0.950 . S
H363 C331 0.951 . S
H364 C332 0.950 . S
H365 C336 0.949 . S
H366 C337 0.950 . S
H367 C341 0.950 . S
H368 C343 0.950 . S
H369 C346 0.950 . S
H370 C348 0.950 . S
C371 C372 1.443 . S
C371 N375 1.376 . S
C371 C409 1.389 . S
C372 C371 1.443 . S
C372 C373 1.340 . S
C372 H412 0.951 . S
C373 C372 1.340 . S
C373 C374 1.439 . S
C373 H413 0.950 . S
C374 C373 1.439 . S
C374 N375 1.374 . S
C374 C408 1.395 . S
N375 C371 1.376 . S
N375 C374 1.374 . S
N375 Co376 2.008 . S
Co376 N375 2.008 . S
Co376 N377 1.995 . S
Co376 N382 2.008 . S
Co376 N387 1.995 . S
Co376 N392 2.282 . S
Co376 N398 2.282 . S
N377 Co376 1.995 . S
N377 C378 1.376 . S
N377 C381 1.383 . S
C378 N377 1.376 . S
C378 C379 1.446 . S
C378 C408 1.391 . S
C379 C378 1.446 . S
C379 C380 1.339 . S
C379 H414 0.949 . S
C380 C379 1.339 . S
C380 C381 1.439 . S
C380 H415 0.950 . S
C381 N377 1.383 . S
C381 C380 1.439 . S
C381 C410 1.392 . S
N382 Co376 2.008 . S
N382 C383 1.376 . S
N382 C386 1.374 . S
C383 N382 1.376 . S
C383 C384 1.443 . S
C383 C410 1.389 . S
C384 C383 1.443 . S
C384 C385 1.340 . S
C384 H416 0.951 . S
C385 C384 1.340 . S
C385 C386 1.439 . S
C385 H417 0.950 . S
C386 N382 1.374 . S
C386 C385 1.439 . S
C386 C411 1.395 . S
N387 Co376 1.995 . S
N387 C388 1.376 . S
N387 C391 1.383 . S
C388 N387 1.376 . S
C388 C389 1.446 . S
C388 C411 1.391 . S
C389 C388 1.446 . S
C389 C390 1.339 . S
C389 H418 0.949 . S
C390 C389 1.339 . S
C390 C391 1.439 . S
C390 H419 0.950 . S
C391 N387 1.383 . S
C391 C390 1.439 . S
C391 C409 1.392 . S
N392 Co376 2.282 . S
N392 C395 1.332 . S
N392 C397 1.332 . S
C393 C394 1.386 . S
C393 C396 1.388 . S
C394 C393 1.386 . S
C394 C395 1.382 . S
C394 H420 0.950 . S
C395 N392 1.332 . S
C395 C394 1.382 . S
C395 H406 0.952 . S
C396 C393 1.388 . S
C396 C397 1.382 . S
C396 H421 0.950 . S
C397 N392 1.332 . S
C397 C396 1.382 . S
C397 H407 0.948 . S
N398 Co376 2.282 . S
N398 C402 1.332 . S
N398 C403 1.332 . S
C399 C400 1.388 . S
C399 C403 1.382 1_554 S
C399 H422 0.950 . S
C400 C399 1.388 . S
C400 C401 1.386 . S
C401 C400 1.386 . S
C401 C402 1.382 1_554 S
C401 H423 0.950 . S
C402 N398 1.332 . S
C402 C401 1.382 1_556 S
C402 H404 0.952 . S
C403 N398 1.332 . S
C403 C399 1.382 1_556 S
C403 H405 0.948 . S
H404 C402 0.952 . S
H405 C403 0.948 . S
H406 C395 0.952 . S
H407 C397 0.948 . S
C408 C374 1.395 . S
C408 C378 1.391 . S
C409 C371 1.389 . S
C409 C391 1.392 . S
C410 C381 1.392 . S
C410 C383 1.389 . S
C411 C386 1.395 . S
C411 C388 1.391 . S
H412 C372 0.951 . S
H413 C373 0.950 . S
H414 C379 0.949 . S
H415 C380 0.950 . S
H416 C384 0.951 . S
H417 C385 0.950 . S
H418 C389 0.949 . S
H419 C390 0.950 . S
H420 C394 0.950 . S
H421 C396 0.950 . S
H422 C399 0.950 . S
H423 C401 0.950 . S
C424 C425 1.443 . S
C424 N428 1.376 . S
C424 C462 1.389 . S
C425 C424 1.443 . S
C425 C426 1.340 . S
C425 H465 0.951 . S
C426 C425 1.340 . S
C426 C427 1.439 . S
C426 H466 0.950 . S
C427 C426 1.439 . S
C427 N428 1.374 . S
C427 C461 1.395 . S
N428 C424 1.376 . S
N428 C427 1.374 . S
N428 Co429 2.008 . S
Co429 N428 2.008 . S
Co429 N430 1.995 . S
Co429 N435 2.008 . S
Co429 N440 1.995 . S
Co429 N445 2.282 . S
Co429 N451 2.282 . S
N430 Co429 1.995 . S
N430 C431 1.376 . S
N430 C434 1.383 . S
C431 N430 1.376 . S
C431 C432 1.446 . S
C431 C461 1.391 . S
C432 C431 1.446 . S
C432 C433 1.339 . S
C432 H467 0.949 . S
C433 C432 1.339 . S
C433 C434 1.439 . S
C433 H468 0.950 . S
C434 N430 1.383 . S
C434 C433 1.439 . S
C434 C463 1.392 . S
N435 Co429 2.008 . S
N435 C436 1.376 . S
N435 C439 1.374 . S
C436 N435 1.376 . S
C436 C437 1.443 . S
C436 C463 1.389 . S
C437 C436 1.443 . S
C437 C438 1.340 . S
C437 H469 0.951 . S
C438 C437 1.340 . S
C438 C439 1.439 . S
C438 H470 0.950 . S
C439 N435 1.374 . S
C439 C438 1.439 . S
C439 C464 1.395 . S
N440 Co429 1.995 . S
N440 C441 1.376 . S
N440 C444 1.383 . S
C441 N440 1.376 . S
C441 C442 1.446 . S
C441 C464 1.391 . S
C442 C441 1.446 . S
C442 C443 1.339 . S
C442 H471 0.949 . S
C443 C442 1.339 . S
C443 C444 1.439 . S
C443 H472 0.950 . S
C444 N440 1.383 . S
C444 C443 1.439 . S
C444 C462 1.392 . S
N445 Co429 2.282 . S
N445 C448 1.332 . S
N445 C450 1.332 . S
C446 C447 1.386 . S
C446 C449 1.388 . S
C447 C446 1.386 . S
C447 C448 1.382 . S
C447 H473 0.950 . S
C448 N445 1.332 . S
C448 C447 1.382 . S
C448 H459 0.952 . S
C449 C446 1.388 . S
C449 C450 1.382 . S
C449 H474 0.950 . S
C450 N445 1.332 . S
C450 C449 1.382 . S
C450 H460 0.948 . S
N451 Co429 2.282 . S
N451 C455 1.332 . S
N451 C456 1.332 . S
C452 C453 1.388 . S
C452 C456 1.382 . S
C452 H475 0.950 . S
C453 C452 1.388 . S
C453 C454 1.386 . S
C454 C453 1.386 . S
C454 C455 1.382 . S
C454 H476 0.950 . S
C455 N451 1.332 . S
C455 C454 1.382 . S
C455 H457 0.952 . S
C456 N451 1.332 . S
C456 C452 1.382 . S
C456 H458 0.948 . S
H457 C455 0.952 . S
H458 C456 0.948 . S
H459 C448 0.952 . S
H460 C450 0.948 . S
C461 C427 1.395 . S
C461 C431 1.391 . S
C462 C424 1.389 . S
C462 C444 1.392 . S
C463 C434 1.392 . S
C463 C436 1.389 . S
C464 C439 1.395 . S
C464 C441 1.391 . S
H465 C425 0.951 . S
H466 C426 0.950 . S
H467 C432 0.949 . S
H468 C433 0.950 . S
H469 C437 0.951 . S
H470 C438 0.950 . S
H471 C442 0.949 . S
H472 C443 0.950 . S
H473 C447 0.950 . S
H474 C449 0.950 . S
H475 C452 0.950 . S
H476 C454 0.950 . S
C477 C478 1.443 . S
C477 N481 1.376 . S
C477 C515 1.389 . S
C478 C477 1.443 . S
C478 C479 1.340 . S
C478 H518 0.951 . S
C479 C478 1.340 . S
C479 C480 1.439 . S
C479 H519 0.950 . S
C480 C479 1.439 . S
C480 N481 1.374 . S
C480 C514 1.395 . S
N481 C477 1.376 . S
N481 C480 1.374 . S
N481 Co482 2.008 . S
Co482 N481 2.008 . S
Co482 N483 1.995 . S
Co482 N488 2.008 . S
Co482 N493 1.995 . S
Co482 N498 2.282 . S
Co482 N504 2.282 . S
N483 Co482 1.995 . S
N483 C484 1.376 . S
N483 C487 1.383 . S
C484 N483 1.376 . S
C484 C485 1.446 . S
C484 C514 1.391 . S
C485 C484 1.446 . S
C485 C486 1.339 . S
C485 H520 0.949 . S
C486 C485 1.339 . S
C486 C487 1.439 . S
C486 H521 0.950 . S
C487 N483 1.383 . S
C487 C486 1.439 . S
C487 C516 1.392 . S
N488 Co482 2.008 . S
N488 C489 1.376 . S
N488 C492 1.374 . S
C489 N488 1.376 . S
C489 C490 1.443 . S
C489 C516 1.389 . S
C490 C489 1.443 . S
C490 C491 1.340 . S
C490 H522 0.951 . S
C491 C490 1.340 . S
C491 C492 1.439 . S
C491 H523 0.950 . S
C492 N488 1.374 . S
C492 C491 1.439 . S
C492 C517 1.395 . S
N493 Co482 1.995 . S
N493 C494 1.376 . S
N493 C497 1.383 . S
C494 N493 1.376 . S
C494 C495 1.446 . S
C494 C517 1.391 . S
C495 C494 1.446 . S
C495 C496 1.339 . S
C495 H524 0.949 . S
C496 C495 1.339 . S
C496 C497 1.439 . S
C496 H525 0.950 . S
C497 N493 1.383 . S
C497 C496 1.439 . S
C497 C515 1.392 . S
N498 Co482 2.282 . S
N498 C501 1.332 . S
N498 C503 1.332 . S
C499 C500 1.386 . S
C499 C502 1.388 . S
C500 C499 1.386 . S
C500 C501 1.382 . S
C500 H526 0.950 . S
C501 N498 1.332 . S
C501 C500 1.382 . S
C501 H512 0.952 . S
C502 C499 1.388 . S
C502 C503 1.382 . S
C502 H527 0.950 . S
C503 N498 1.332 . S
C503 C502 1.382 . S
C503 H513 0.948 . S
N504 Co482 2.282 . S
N504 C508 1.332 . S
N504 C509 1.332 . S
C505 C506 1.388 . S
C505 C509 1.382 . S
C505 H528 0.950 . S
C506 C505 1.388 . S
C506 C507 1.386 . S
C507 C506 1.386 . S
C507 C508 1.382 . S
C507 H529 0.950 . S
C508 N504 1.332 . S
C508 C507 1.382 . S
C508 H510 0.952 . S
C509 N504 1.332 . S
C509 C505 1.382 . S
C509 H511 0.948 . S
H510 C508 0.952 . S
H511 C509 0.948 . S
H512 C501 0.952 . S
H513 C503 0.948 . S
C514 C480 1.395 . S
C514 C484 1.391 . S
C515 C477 1.389 . S
C515 C497 1.392 . S
C516 C487 1.392 . S
C516 C489 1.389 . S
C517 C492 1.395 . S
C517 C494 1.391 . S
H518 C478 0.951 . S
H519 C479 0.950 . S
H520 C485 0.949 . S
H521 C486 0.950 . S
H522 C490 0.951 . S
H523 C491 0.950 . S
H524 C495 0.949 . S
H525 C496 0.950 . S
H526 C500 0.950 . S
H527 C502 0.950 . S
H528 C505 0.950 . S
H529 C507 0.950 . S
C530 C531 1.443 . S
C530 N534 1.376 . S
C530 C568 1.389 . S
C531 C530 1.443 . S
C531 C532 1.340 . S
C531 H571 0.951 . S
C532 C531 1.340 . S
C532 C533 1.439 . S
C532 H572 0.950 . S
C533 C532 1.439 . S
C533 N534 1.374 . S
C533 C567 1.395 . S
N534 C530 1.376 . S
N534 C533 1.374 . S
N534 Co535 2.008 . S
Co535 N534 2.008 . S
Co535 N536 1.995 . S
Co535 N541 2.008 . S
Co535 N546 1.995 . S
Co535 N551 2.282 . S
Co535 N557 2.282 . S
N536 Co535 1.995 . S
N536 C537 1.376 . S
N536 C540 1.383 . S
C537 N536 1.376 . S
C537 C538 1.446 . S
C537 C567 1.391 . S
C538 C537 1.446 . S
C538 C539 1.339 . S
C538 H573 0.949 . S
C539 C538 1.339 . S
C539 C540 1.439 . S
C539 H574 0.950 . S
C540 N536 1.383 . S
C540 C539 1.439 . S
C540 C569 1.392 . S
N541 Co535 2.008 . S
N541 C542 1.376 . S
N541 C545 1.374 . S
C542 N541 1.376 . S
C542 C543 1.443 . S
C542 C569 1.389 . S
C543 C542 1.443 . S
C543 C544 1.340 . S
C543 H575 0.951 . S
C544 C543 1.340 . S
C544 C545 1.439 . S
C544 H576 0.950 . S
C545 N541 1.374 . S
C545 C544 1.439 . S
C545 C570 1.395 . S
N546 Co535 1.995 . S
N546 C547 1.376 . S
N546 C550 1.383 . S
C547 N546 1.376 . S
C547 C548 1.446 . S
C547 C570 1.391 . S
C548 C547 1.446 . S
C548 C549 1.339 . S
C548 H577 0.949 . S
C549 C548 1.339 . S
C549 C550 1.439 . S
C549 H578 0.950 . S
C550 N546 1.383 . S
C550 C549 1.439 . S
C550 C568 1.392 . S
N551 Co535 2.282 . S
N551 C554 1.332 . S
N551 C556 1.332 . S
C552 C553 1.386 . S
C552 C555 1.388 . S
C553 C552 1.386 . S
C553 C554 1.382 . S
C553 H579 0.950 . S
C554 N551 1.332 . S
C554 C553 1.382 . S
C554 H565 0.952 . S
C555 C552 1.388 . S
C555 C556 1.382 . S
C555 H580 0.950 . S
C556 N551 1.332 . S
C556 C555 1.382 . S
C556 H566 0.948 . S
N557 Co535 2.282 . S
N557 C561 1.332 . S
N557 C562 1.332 . S
C558 C559 1.388 . S
C558 C562 1.382 1_554 S
C558 H581 0.950 . S
C559 C558 1.388 . S
C559 C560 1.386 . S
C560 C559 1.386 . S
C560 C561 1.382 1_554 S
C560 H582 0.950 . S
C561 N557 1.332 . S
C561 C560 1.382 1_556 S
C561 H563 0.952 . S
C562 N557 1.332 . S
C562 C558 1.382 1_556 S
C562 H564 0.948 . S
H563 C561 0.952 . S
H564 C562 0.948 . S
H565 C554 0.952 . S
H566 C556 0.948 . S
C567 C533 1.395 . S
C567 C537 1.391 . S
C568 C530 1.389 . S
C568 C550 1.392 . S
C569 C540 1.392 . S
C569 C542 1.389 . S
C570 C545 1.395 . S
C570 C547 1.391 . S
H571 C531 0.951 . S
H572 C532 0.950 . S
H573 C538 0.949 . S
H574 C539 0.950 . S
H575 C543 0.951 . S
H576 C544 0.950 . S
H577 C548 0.949 . S
H578 C549 0.950 . S
H579 C553 0.950 . S
H580 C555 0.950 . S
H581 C558 0.950 . S
H582 C560 0.950 . S
C583 C584 1.443 . S
C583 N587 1.376 . S
C583 C621 1.389 . S
C584 C583 1.443 . S
C584 C585 1.340 . S
C584 H624 0.951 . S
C585 C584 1.340 . S
C585 C586 1.439 . S
C585 H625 0.950 . S
C586 C585 1.439 . S
C586 N587 1.374 . S
C586 C620 1.395 . S
N587 C583 1.376 . S
N587 C586 1.374 . S
N587 Co588 2.008 . S
Co588 N587 2.008 . S
Co588 N589 1.995 . S
Co588 N594 2.008 . S
Co588 N599 1.995 . S
Co588 N604 2.282 . S
Co588 N610 2.282 . S
N589 Co588 1.995 . S
N589 C590 1.376 . S
N589 C593 1.383 . S
C590 N589 1.376 . S
C590 C591 1.446 . S
C590 C620 1.391 . S
C591 C590 1.446 . S
C591 C592 1.339 . S
C591 H626 0.949 . S
C592 C591 1.339 . S
C592 C593 1.439 . S
C592 H627 0.950 . S
C593 N589 1.383 . S
C593 C592 1.439 . S
C593 C622 1.392 . S
N594 Co588 2.008 . S
N594 C595 1.376 . S
N594 C598 1.374 . S
C595 N594 1.376 . S
C595 C596 1.443 . S
C595 C622 1.389 . S
C596 C595 1.443 . S
C596 C597 1.340 . S
C596 H628 0.951 . S
C597 C596 1.340 . S
C597 C598 1.439 . S
C597 H629 0.950 . S
C598 N594 1.374 . S
C598 C597 1.439 . S
C598 C623 1.395 . S
N599 Co588 1.995 . S
N599 C600 1.376 . S
N599 C603 1.383 . S
C600 N599 1.376 . S
C600 C601 1.446 . S
C600 C623 1.391 . S
C601 C600 1.446 . S
C601 C602 1.339 . S
C601 H630 0.949 . S
C602 C601 1.339 . S
C602 C603 1.439 . S
C602 H631 0.950 . S
C603 N599 1.383 . S
C603 C602 1.439 . S
C603 C621 1.392 . S
N604 Co588 2.282 . S
N604 C607 1.332 . S
N604 C609 1.332 . S
C605 C606 1.386 . S
C605 C608 1.388 . S
C606 C605 1.386 . S
C606 C607 1.382 . S
C606 H632 0.950 . S
C607 N604 1.332 . S
C607 C606 1.382 . S
C607 H618 0.952 . S
C608 C605 1.388 . S
C608 C609 1.382 . S
C608 H633 0.950 . S
C609 N604 1.332 . S
C609 C608 1.382 . S
C609 H619 0.948 . S
N610 Co588 2.282 . S
N610 C614 1.332 . S
N610 C615 1.332 . S
C611 C612 1.388 . S
C611 C615 1.382 . S
C611 H634 0.950 . S
C612 C611 1.388 . S
C612 C613 1.386 . S
C613 C612 1.386 . S
C613 C614 1.382 . S
C613 H635 0.950 . S
C614 N610 1.332 . S
C614 C613 1.382 . S
C614 H616 0.952 . S
C615 N610 1.332 . S
C615 C611 1.382 . S
C615 H617 0.948 . S
H616 C614 0.952 . S
H617 C615 0.948 . S
H618 C607 0.952 . S
H619 C609 0.948 . S
C620 C586 1.395 . S
C620 C590 1.391 . S
C621 C583 1.389 . S
C621 C603 1.392 . S
C622 C593 1.392 . S
C622 C595 1.389 . S
C623 C598 1.395 . S
C623 C600 1.391 . S
H624 C584 0.951 . S
H625 C585 0.950 . S
H626 C591 0.949 . S
H627 C592 0.950 . S
H628 C596 0.951 . S
H629 C597 0.950 . S
H630 C601 0.949 . S
H631 C602 0.950 . S
H632 C606 0.950 . S
H633 C608 0.950 . S
H634 C611 0.950 . S
H635 C613 0.950 . S
H636 C642 0.930 . S
H637 C646 0.930 . S
H638 C651 0.929 . S
H639 C649 0.929 . S
H640 C644 0.929 . S
H641 C650 0.929 . S
C642 H636 0.930 . S
C642 C643 1.367 . S
C642 C650 1.378 . S
C643 C642 1.367 . S
C643 C651 1.433 . S
C644 H640 0.929 . S
C644 C646 1.378 . S
C644 C648 1.350 . S
C645 C648 1.463 . S
C645 C650 1.350 . S
C645 N653 1.427 . S
C646 H637 0.930 . S
C646 C644 1.378 . S
C646 C647 1.367 . S
C647 C646 1.367 . S
C647 C649 1.433 . S
C648 C644 1.350 . S
C648 C645 1.463 . S
C648 N652 1.427 . S
C649 H639 0.929 . S
C649 C647 1.433 . S
C649 N652 1.384 . S
C650 H641 0.929 . S
C650 C642 1.378 . S
C650 C645 1.350 . S
C651 H638 0.929 . S
C651 C643 1.433 . S
C651 N653 1.384 . S
N652 C648 1.427 . S
N652 C649 1.384 . S
N653 C645 1.427 . S
N653 C651 1.384 . S
H654 C660 0.930 . S
H655 C664 0.930 . S
H656 C669 0.929 . S
H657 C667 0.929 . S
H658 C662 0.929 . S
H659 C668 0.929 . S
C660 H654 0.930 . S
C660 C661 1.367 . S
C660 C668 1.378 . S
C661 C660 1.367 . S
C661 C669 1.433 . S
C662 H658 0.929 . S
C662 C664 1.378 . S
C662 C666 1.350 . S
C663 C666 1.463 . S
C663 C668 1.350 . S
C663 N671 1.427 . S
C664 H655 0.930 . S
C664 C662 1.378 . S
C664 C665 1.367 . S
C665 C664 1.367 . S
C665 C667 1.433 . S
C666 C662 1.350 . S
C666 C663 1.463 . S
C666 N670 1.427 . S
C667 H657 0.929 . S
C667 C665 1.433 . S
C667 N670 1.384 . S
C668 H659 0.929 . S
C668 C660 1.378 . S
C668 C663 1.350 . S
C669 H656 0.929 . S
C669 C661 1.433 . S
C669 N671 1.384 . S
N670 C666 1.427 . S
N670 C667 1.384 . S
N671 C663 1.427 . S
N671 C669 1.384 . S
H672 C678 0.930 . S
H673 C682 0.930 . S
H674 C687 0.929 . S
H675 C685 0.929 . S
H676 C680 0.929 . S
H677 C686 0.929 . S
C678 H672 0.930 . S
C678 C679 1.367 . S
C678 C686 1.378 . S
C679 C678 1.367 . S
C679 C687 1.433 . S
C680 H676 0.929 . S
C680 C682 1.378 . S
C680 C684 1.350 . S
C681 C684 1.463 1_556 S
C681 C686 1.350 . S
C681 N689 1.427 . S
C682 H673 0.930 . S
C682 C680 1.378 . S
C682 C683 1.367 . S
C683 C682 1.367 . S
C683 C685 1.433 . S
C684 C680 1.350 . S
C684 C681 1.463 1_554 S
C684 N688 1.427 . S
C685 H675 0.929 . S
C685 C683 1.433 . S
C685 N688 1.384 . S
C686 H677 0.929 . S
C686 C678 1.378 . S
C686 C681 1.350 . S
C687 H674 0.929 . S
C687 C679 1.433 . S
C687 N689 1.384 . S
N688 C684 1.427 . S
N688 C685 1.384 . S
N689 C681 1.427 . S
N689 C687 1.384 . S
H690 C696 0.930 . S
H691 C700 0.930 . S
H692 C705 0.929 . S
H693 C703 0.929 . S
H694 C698 0.929 . S
H695 C704 0.929 . S
C696 H690 0.930 . S
C696 C697 1.367 . S
C696 C704 1.378 . S
C697 C696 1.367 . S
C697 C705 1.433 . S
C698 H694 0.929 . S
C698 C700 1.378 . S
C698 C702 1.350 . S
C699 C702 1.463 . S
C699 C704 1.350 . S
C699 N707 1.427 . S
C700 H691 0.930 . S
C700 C698 1.378 . S
C700 C701 1.367 . S
C701 C700 1.367 . S
C701 C703 1.433 . S
C702 C698 1.350 . S
C702 C699 1.463 . S
C702 N706 1.427 . S
C703 H693 0.929 . S
C703 C701 1.433 . S
C703 N706 1.384 . S
C704 H695 0.929 . S
C704 C696 1.378 . S
C704 C699 1.350 . S
C705 H692 0.929 . S
C705 C697 1.433 . S
C705 N707 1.384 . S
N706 C702 1.427 . S
N706 C703 1.384 . S
N707 C699 1.427 . S
N707 C705 1.384 . S
H708 C714 0.930 . S
H709 C718 0.930 . S
H710 C723 0.929 . S
H711 C721 0.929 . S
H712 C716 0.929 . S
H713 C722 0.929 . S
C714 H708 0.930 . S
C714 C715 1.367 . S
C714 C722 1.378 . S
C715 C714 1.367 . S
C715 C723 1.433 . S
C716 H712 0.929 . S
C716 C718 1.378 . S
C716 C720 1.350 . S
C717 C720 1.463 . S
C717 C722 1.350 . S
C717 N725 1.427 . S
C718 H709 0.930 . S
C718 C716 1.378 . S
C718 C719 1.367 . S
C719 C718 1.367 . S
C719 C721 1.433 . S
C720 C716 1.350 . S
C720 C717 1.463 . S
C720 N724 1.427 . S
C721 H711 0.929 . S
C721 C719 1.433 . S
C721 N724 1.384 . S
C722 H713 0.929 . S
C722 C714 1.378 . S
C722 C717 1.350 . S
C723 H710 0.929 . S
C723 C715 1.433 . S
C723 N725 1.384 . S
N724 C720 1.427 . S
N724 C721 1.384 . S
N725 C717 1.427 . S
N725 C723 1.384 . S
H726 C732 0.930 . S
H727 C736 0.930 . S
H728 C741 0.929 . S
H729 C739 0.929 . S
H730 C734 0.929 . S
H731 C740 0.929 . S
C732 H726 0.930 . S
C732 C733 1.367 . S
C732 C740 1.378 . S
C733 C732 1.367 . S
C733 C741 1.433 . S
C734 H730 0.929 . S
C734 C736 1.378 . S
C734 C738 1.350 . S
C735 C738 1.463 1_554 S
C735 C740 1.350 . S
C735 N743 1.427 . S
C736 H727 0.930 . S
C736 C734 1.378 . S
C736 C737 1.367 . S
C737 C736 1.367 . S
C737 C739 1.433 . S
C738 C734 1.350 . S
C738 C735 1.463 1_556 S
C738 N742 1.427 . S
C739 H729 0.929 . S
C739 C737 1.433 . S
C739 N742 1.384 . S
C740 H731 0.929 . S
C740 C732 1.378 . S
C740 C735 1.350 . S
C741 H728 0.929 . S
C741 C733 1.433 . S
C741 N743 1.384 . S
N742 C738 1.427 . S
N742 C739 1.384 . S
N743 C735 1.427 . S
N743 C741 1.384 . S
H744 C750 0.930 . S
H745 C754 0.930 . S
H746 C759 0.929 1_556 S
H747 C757 0.929 1_554 S
H748 C752 0.929 . S
H749 C758 0.929 . S
C750 H744 0.930 . S
C750 C751 1.367 . S
C750 C758 1.378 . S
C751 C750 1.367 . S
C751 C759 1.433 . S
C752 H748 0.929 . S
C752 C754 1.378 . S
C752 C756 1.350 . S
C753 C756 1.463 1_554 S
C753 C758 1.350 . S
C753 N761 1.427 1_554 S
C754 H745 0.930 . S
C754 C752 1.378 . S
C754 C755 1.367 . S
C755 C754 1.367 . S
C755 C757 1.433 . S
C756 C752 1.350 . S
C756 C753 1.463 1_556 S
C756 N760 1.427 1_556 S
C757 H747 0.929 1_556 S
C757 C755 1.433 . S
C757 N760 1.384 1_556 S
C758 H749 0.929 . S
C758 C750 1.378 . S
C758 C753 1.350 . S
C759 H746 0.929 1_554 S
C759 C751 1.433 . S
C759 N761 1.384 1_554 S
N760 C756 1.427 1_554 S
N760 C757 1.384 1_554 S
N761 C753 1.427 1_556 S
N761 C759 1.384 1_556 S
H762 C768 0.930 . S
H763 C772 0.930 . S
H764 C777 0.929 . S
H765 C775 0.929 . S
H766 C770 0.929 . S
H767 C776 0.929 . S
C768 H762 0.930 . S
C768 C769 1.367 . S
C768 C776 1.378 . S
C769 C768 1.367 . S
C769 C777 1.433 . S
C770 H766 0.929 . S
C770 C772 1.378 . S
C770 C774 1.350 . S
C771 C774 1.463 . S
C771 C776 1.350 . S
C771 N779 1.427 . S
C772 H763 0.930 . S
C772 C770 1.378 . S
C772 C773 1.367 . S
C773 C772 1.367 . S
C773 C775 1.433 . S
C774 C770 1.350 . S
C774 C771 1.463 . S
C774 N778 1.427 . S
C775 H765 0.929 . S
C775 C773 1.433 . S
C775 N778 1.384 . S
C776 H767 0.929 . S
C776 C768 1.378 . S
C776 C771 1.350 . S
C777 H764 0.929 . S
C777 C769 1.433 . S
C777 N779 1.384 . S
N778 C774 1.427 . S
N778 C775 1.384 . S
N779 C771 1.427 . S
N779 C777 1.384 . S
H780 C786 0.930 . S
H781 C790 0.930 . S
H782 C795 0.929 . S
H783 C793 0.929 . S
H784 C788 0.929 . S
H785 C794 0.929 . S
C786 H780 0.930 . S
C786 C787 1.367 . S
C786 C794 1.378 . S
C787 C786 1.367 . S
C787 C795 1.433 . S
C788 H784 0.929 . S
C788 C790 1.378 . S
C788 C792 1.350 . S
C789 C792 1.463 . S
C789 C794 1.350 . S
C789 N797 1.427 . S
C790 H781 0.930 . S
C790 C788 1.378 . S
C790 C791 1.367 . S
C791 C790 1.367 . S
C791 C793 1.433 . S
C792 C788 1.350 . S
C792 C789 1.463 . S
C792 N796 1.427 . S
C793 H783 0.929 . S
C793 C791 1.433 . S
C793 N796 1.384 . S
C794 H785 0.929 . S
C794 C786 1.378 . S
C794 C789 1.350 . S
C795 H782 0.929 . S
C795 C787 1.433 . S
C795 N797 1.384 . S
N796 C792 1.427 . S
N796 C793 1.384 . S
N797 C789 1.427 . S
N797 C795 1.384 . S
H798 C804 0.930 . S
H799 C808 0.930 . S
H800 C813 0.929 1_556 S
H801 C811 0.929 1_554 S
H802 C806 0.929 . S
H803 C812 0.929 . S
C804 H798 0.930 . S
C804 C805 1.367 . S
C804 C812 1.378 . S
C805 C804 1.367 . S
C805 C813 1.433 . S
C806 H802 0.929 . S
C806 C808 1.378 . S
C806 C810 1.350 . S
C807 C810 1.463 1_554 S
C807 C812 1.350 . S
C807 N815 1.427 1_554 S
C808 H799 0.930 . S
C808 C806 1.378 . S
C808 C809 1.367 . S
C809 C808 1.367 . S
C809 C811 1.433 . S
C810 C806 1.350 . S
C810 C807 1.463 1_556 S
C810 N814 1.427 1_556 S
C811 H801 0.929 1_556 S
C811 C809 1.433 . S
C811 N814 1.384 1_556 S
C812 H803 0.929 . S
C812 C804 1.378 . S
C812 C807 1.350 . S
C813 H800 0.929 1_554 S
C813 C805 1.433 . S
C813 N815 1.384 1_554 S
N814 C810 1.427 1_554 S
N814 C811 1.384 1_554 S
N815 C807 1.427 1_556 S
N815 C813 1.384 1_556 S
H816 C822 0.930 . S
H817 C826 0.930 . S
H818 C831 0.929 . S
H819 C829 0.929 . S
H820 C824 0.929 . S
H821 C830 0.929 . S
C822 H816 0.930 . S
C822 C823 1.367 . S
C822 C830 1.378 . S
C823 C822 1.367 . S
C823 C831 1.433 . S
C824 H820 0.929 . S
C824 C826 1.378 . S
C824 C828 1.350 . S
C825 C828 1.463 . S
C825 C830 1.350 . S
C825 N833 1.427 . S
C826 H817 0.930 . S
C826 C824 1.378 . S
C826 C827 1.367 . S
C827 C826 1.367 . S
C827 C829 1.433 . S
C828 C824 1.350 . S
C828 C825 1.463 . S
C828 N832 1.427 . S
C829 H819 0.929 . S
C829 C827 1.433 . S
C829 N832 1.384 . S
C830 H821 0.929 . S
C830 C822 1.378 . S
C830 C825 1.350 . S
C831 H818 0.929 . S
C831 C823 1.433 . S
C831 N833 1.384 . S
N832 C828 1.427 . S
N832 C829 1.384 . S
N833 C825 1.427 . S
N833 C831 1.384 . S
H834 C840 0.930 . S
H835 C844 0.930 . S
H836 C849 0.929 . S
H837 C847 0.929 . S
H838 C842 0.929 . S
H839 C848 0.929 . S
C840 H834 0.930 . S
C840 C841 1.367 . S
C840 C848 1.378 . S
C841 C840 1.367 . S
C841 C849 1.433 . S
C842 H838 0.929 . S
C842 C844 1.378 . S
C842 C846 1.350 . S
C843 C846 1.463 . S
C843 C848 1.350 . S
C843 N851 1.427 . S
C844 H835 0.930 . S
C844 C842 1.378 . S
C844 C845 1.367 . S
C845 C844 1.367 . S
C845 C847 1.433 . S
C846 C842 1.350 . S
C846 C843 1.463 . S
C846 N850 1.427 . S
C847 H837 0.929 . S
C847 C845 1.433 . S
C847 N850 1.384 . S
C848 H839 0.929 . S
C848 C840 1.378 . S
C848 C843 1.350 . S
C849 H836 0.929 . S
C849 C841 1.433 . S
C849 N851 1.384 . S
N850 C846 1.427 . S
N850 C847 1.384 . S
N851 C843 1.427 . S
N851 C849 1.384 . S
H852 C858 0.930 . S
H853 C862 0.930 . S
H854 C867 0.929 . S
H855 C865 0.929 . S
H856 C860 0.929 . S
H857 C866 0.929 . S
C858 H852 0.930 . S
C858 C859 1.367 . S
C858 C866 1.378 . S
C859 C858 1.367 . S
C859 C867 1.433 . S
C860 H856 0.929 . S
C860 C862 1.378 . S
C860 C864 1.350 . S
C861 C864 1.463 . S
C861 C866 1.350 . S
C861 N869 1.427 . S
C862 H853 0.930 . S
C862 C860 1.378 . S
C862 C863 1.367 . S
C863 C862 1.367 . S
C863 C865 1.433 . S
C864 C860 1.350 . S
C864 C861 1.463 . S
C864 N868 1.427 . S
C865 H855 0.929 . S
C865 C863 1.433 . S
C865 N868 1.384 . S
C866 H857 0.929 . S
C866 C858 1.378 . S
C866 C861 1.350 . S
C867 H854 0.929 . S
C867 C859 1.433 . S
C867 N869 1.384 . S
N868 C864 1.427 . S
N868 C865 1.384 . S
N869 C861 1.427 . S
N869 C867 1.384 . S
H870 C876 0.930 . S
H871 C880 0.930 . S
H872 C885 0.929 . S
H873 C883 0.929 . S
H874 C878 0.929 . S
H875 C884 0.929 . S
C876 H870 0.930 . S
C876 C877 1.367 . S
C876 C884 1.378 . S
C877 C876 1.367 . S
C877 C885 1.433 . S
C878 H874 0.929 . S
C878 C880 1.378 . S
C878 C882 1.350 . S
C879 C882 1.463 1_655 S
C879 C884 1.350 . S
C879 N887 1.427 . S
C880 H871 0.930 . S
C880 C878 1.378 . S
C880 C881 1.367 . S
C881 C880 1.367 . S
C881 C883 1.433 . S
C882 C878 1.350 . S
C882 C879 1.463 1_455 S
C882 N886 1.427 . S
C883 H873 0.929 . S
C883 C881 1.433 . S
C883 N886 1.384 . S
C884 H875 0.929 . S
C884 C876 1.378 . S
C884 C879 1.350 . S
C885 H872 0.929 . S
C885 C877 1.433 . S
C885 N887 1.384 . S
N886 C882 1.427 . S
N886 C883 1.384 . S
N887 C879 1.427 . S
N887 C885 1.384 . S
H888 C894 0.930 . S
H889 C898 0.930 . S
H890 C903 0.929 . S
H891 C901 0.929 . S
H892 C896 0.929 . S
H893 C902 0.929 . S
C894 H888 0.930 . S
C894 C895 1.367 . S
C894 C902 1.378 . S
C895 C894 1.367 . S
C895 C903 1.433 . S
C896 H892 0.929 . S
C896 C898 1.378 . S
C896 C900 1.350 . S
C897 C900 1.463 1_545 S
C897 C902 1.350 . S
C897 N905 1.427 . S
C898 H889 0.930 . S
C898 C896 1.378 . S
C898 C899 1.367 . S
C899 C898 1.367 . S
C899 C901 1.433 . S
C900 C896 1.350 . S
C900 C897 1.463 1_565 S
C900 N904 1.427 . S
C901 H891 0.929 . S
C901 C899 1.433 . S
C901 N904 1.384 . S
C902 H893 0.929 . S
C902 C894 1.378 . S
C902 C897 1.350 . S
C903 H890 0.929 . S
C903 C895 1.433 . S
C903 N905 1.384 . S
N904 C900 1.427 . S
N904 C901 1.384 . S
N905 C897 1.427 . S
N905 C903 1.384 . S
H906 C912 0.930 . S
H907 C916 0.930 . S
H908 C921 0.929 . S
H909 C919 0.929 . S
H910 C914 0.929 . S
H911 C920 0.929 . S
C912 H906 0.930 . S
C912 C913 1.367 . S
C912 C920 1.378 . S
C913 C912 1.367 . S
C913 C921 1.433 . S
C914 H910 0.929 . S
C914 C916 1.378 . S
C914 C918 1.350 . S
C915 C918 1.463 . S
C915 C920 1.350 . S
C915 N923 1.427 . S
C916 H907 0.930 . S
C916 C914 1.378 . S
C916 C917 1.367 . S
C917 C916 1.367 . S
C917 C919 1.433 . S
C918 C914 1.350 . S
C918 C915 1.463 . S
C918 N922 1.427 . S
C919 H909 0.929 . S
C919 C917 1.433 . S
C919 N922 1.384 . S
C920 H911 0.929 . S
C920 C912 1.378 . S
C920 C915 1.350 . S
C921 H908 0.929 . S
C921 C913 1.433 . S
C921 N923 1.384 . S
N922 C918 1.427 . S
N922 C919 1.384 . S
N923 C915 1.427 . S
N923 C921 1.384 . S
H924 C930 0.930 . S
H925 C934 0.930 . S
H926 C939 0.929 . S
H927 C937 0.929 . S
H928 C932 0.929 . S
H929 C938 0.929 . S
C930 H924 0.930 . S
C930 C931 1.367 . S
C930 C938 1.378 . S
C931 C930 1.367 . S
C931 C939 1.433 . S
C932 H928 0.929 . S
C932 C934 1.378 . S
C932 C936 1.350 . S
C933 C936 1.463 1_455 S
C933 C938 1.350 . S
C933 N941 1.427 . S
C934 H925 0.930 . S
C934 C932 1.378 . S
C934 C935 1.367 . S
C935 C934 1.367 . S
C935 C937 1.433 . S
C936 C932 1.350 . S
C936 C933 1.463 1_655 S
C936 N940 1.427 . S
C937 H927 0.929 . S
C937 C935 1.433 . S
C937 N940 1.384 . S
C938 H929 0.929 . S
C938 C930 1.378 . S
C938 C933 1.350 . S
C939 H926 0.929 . S
C939 C931 1.433 . S
C939 N941 1.384 . S
N940 C936 1.427 . S
N940 C937 1.384 . S
N941 C933 1.427 . S
N941 C939 1.384 . S
H942 C948 0.930 . S
H943 C952 0.930 . S
H944 C957 0.929 . S
H945 C955 0.929 . S
H946 C950 0.929 . S
H947 C956 0.929 . S
C948 H942 0.930 . S
C948 C949 1.367 . S
C948 C956 1.378 . S
C949 C948 1.367 . S
C949 C957 1.433 . S
C950 H946 0.929 . S
C950 C952 1.378 . S
C950 C954 1.350 . S
C951 C954 1.463 1_565 S
C951 C956 1.350 . S
C951 N959 1.427 . S
C952 H943 0.930 . S
C952 C950 1.378 . S
C952 C953 1.367 . S
C953 C952 1.367 . S
C953 C955 1.433 . S
C954 C950 1.350 . S
C954 C951 1.463 1_545 S
C954 N958 1.427 . S
C955 H945 0.929 . S
C955 C953 1.433 . S
C955 N958 1.384 . S
C956 H947 0.929 . S
C956 C948 1.378 . S
C956 C951 1.350 . S
C957 H944 0.929 . S
C957 C949 1.433 . S
C957 N959 1.384 . S
N958 C954 1.427 . S
N958 C955 1.384 . S
N959 C951 1.427 . S
N959 C957 1.384 . S
H960 C966 0.930 . S
H961 C970 0.930 . S
H962 C975 0.929 . S
H963 C973 0.929 . S
H964 C968 0.929 . S
H965 C974 0.929 . S
C966 H960 0.930 . S
C966 C967 1.367 . S
C966 C974 1.378 . S
C967 C966 1.367 . S
C967 C975 1.433 . S
C968 H964 0.929 . S
C968 C970 1.378 . S
C968 C972 1.350 . S
C969 C972 1.463 . S
C969 C974 1.350 . S
C969 N977 1.427 . S
C970 H961 0.930 . S
C970 C968 1.378 . S
C970 C971 1.367 . S
C971 C970 1.367 . S
C971 C973 1.433 . S
C972 C968 1.350 . S
C972 C969 1.463 . S
C972 N976 1.427 . S
C973 H963 0.929 . S
C973 C971 1.433 . S
C973 N976 1.384 . S
C974 H965 0.929 . S
C974 C966 1.378 . S
C974 C969 1.350 . S
C975 H962 0.929 . S
C975 C967 1.433 . S
C975 N977 1.384 . S
N976 C972 1.427 . S
N976 C973 1.384 . S
N977 C969 1.427 . S
N977 C975 1.384 . S
H978 C984 0.930 . S
H979 C988 0.930 . S
H980 C993 0.929 . S
H981 C991 0.929 . S
H982 C986 0.929 . S
H983 C992 0.929 . S
C984 H978 0.930 . S
C984 C985 1.367 . S
C984 C992 1.378 . S
C985 C984 1.367 . S
C985 C993 1.433 . S
C986 H982 0.929 . S
C986 C988 1.378 . S
C986 C990 1.350 . S
C987 C990 1.463 . S
C987 C992 1.350 . S
C987 N995 1.427 . S
C988 H979 0.930 . S
C988 C986 1.378 . S
C988 C989 1.367 . S
C989 C988 1.367 . S
C989 C991 1.433 . S
C990 C986 1.350 . S
C990 C987 1.463 . S
C990 N994 1.427 . S
C991 H981 0.929 . S
C991 C989 1.433 . S
C991 N994 1.384 . S
C992 H983 0.929 . S
C992 C984 1.378 . S
C992 C987 1.350 . S
C993 H980 0.929 . S
C993 C985 1.433 . S
C993 N995 1.384 . S
N994 C990 1.427 . S
N994 C991 1.384 . S
N995 C987 1.427 . S
N995 C993 1.384 . S
H996 C1002 0.930 . S
H997 C1006 0.930 . S
H998 C1011 0.929 . S
H999 C1009 0.929 . S
H1000 C1004 0.929 . S
H1001 C1010 0.929 . S
C1002 H996 0.930 . S
C1002 C1003 1.367 . S
C1002 C1010 1.378 . S
C1003 C1002 1.367 . S
C1003 C1011 1.433 . S
C1004 H1000 0.929 . S
C1004 C1006 1.378 . S
C1004 C1008 1.350 . S
C1005 C1008 1.463 . S
C1005 C1010 1.350 . S
C1005 N1013 1.427 . S
C1006 H997 0.930 . S
C1006 C1004 1.378 . S
C1006 C1007 1.367 . S
C1007 C1006 1.367 . S
C1007 C1009 1.433 . S
C1008 C1004 1.350 . S
C1008 C1005 1.463 . S
C1008 N1012 1.427 . S
C1009 H999 0.929 . S
C1009 C1007 1.433 . S
C1009 N1012 1.384 . S
C1010 H1001 0.929 . S
C1010 C1002 1.378 . S
C1010 C1005 1.350 . S
C1011 H998 0.929 . S
C1011 C1003 1.433 . S
C1011 N1013 1.384 . S
N1012 C1008 1.427 . S
N1012 C1009 1.384 . S
N1013 C1005 1.427 . S
N1013 C1011 1.384 . S
H1014 C1020 0.930 . S
H1015 C1024 0.930 . S
H1016 C1029 0.929 . S
H1017 C1027 0.929 . S
H1018 C1022 0.929 . S
H1019 C1028 0.929 . S
C1020 H1014 0.930 . S
C1020 C1021 1.367 . S
C1020 C1028 1.378 . S
C1021 C1020 1.367 . S
C1021 C1029 1.433 . S
C1022 H1018 0.929 . S
C1022 C1024 1.378 . S
C1022 C1026 1.350 . S
C1023 C1026 1.463 . S
C1023 C1028 1.350 . S
C1023 N1031 1.427 . S
C1024 H1015 0.930 . S
C1024 C1022 1.378 . S
C1024 C1025 1.367 . S
C1025 C1024 1.367 . S
C1025 C1027 1.433 . S
C1026 C1022 1.350 . S
C1026 C1023 1.463 . S
C1026 N1030 1.427 . S
C1027 H1017 0.929 . S
C1027 C1025 1.433 . S
C1027 N1030 1.384 . S
C1028 H1019 0.929 . S
C1028 C1020 1.378 . S
C1028 C1023 1.350 . S
C1029 H1016 0.929 . S
C1029 C1021 1.433 . S
C1029 N1031 1.384 . S
N1030 C1026 1.427 . S
N1030 C1027 1.384 . S
N1031 C1023 1.427 . S
N1031 C1029 1.384 . S
H1032 C1038 0.930 . S
H1033 C1042 0.930 . S
H1034 C1047 0.929 . S
H1035 C1045 0.929 . S
H1036 C1040 0.929 . S
H1037 C1046 0.929 . S
C1038 H1032 0.930 . S
C1038 C1039 1.367 . S
C1038 C1046 1.378 . S
C1039 C1038 1.367 . S
C1039 C1047 1.433 . S
C1040 H1036 0.929 . S
C1040 C1042 1.378 . S
C1040 C1044 1.350 . S
C1041 C1044 1.463 . S
C1041 C1046 1.350 . S
C1041 N1049 1.427 . S
C1042 H1033 0.930 . S
C1042 C1040 1.378 . S
C1042 C1043 1.367 . S
C1043 C1042 1.367 . S
C1043 C1045 1.433 . S
C1044 C1040 1.350 . S
C1044 C1041 1.463 . S
C1044 N1048 1.427 . S
C1045 H1035 0.929 . S
C1045 C1043 1.433 . S
C1045 N1048 1.384 . S
C1046 H1037 0.929 . S
C1046 C1038 1.378 . S
C1046 C1041 1.350 . S
C1047 H1034 0.929 . S
C1047 C1039 1.433 . S
C1047 N1049 1.384 . S
N1048 C1044 1.427 . S
N1048 C1045 1.384 . S
N1049 C1041 1.427 . S
N1049 C1047 1.384 . S
H1050 C1056 0.930 . S
H1051 C1060 0.930 . S
H1052 C1065 0.929 . S
H1053 C1063 0.929 . S
H1054 C1058 0.929 . S
H1055 C1064 0.929 . S
C1056 H1050 0.930 . S
C1056 C1057 1.367 . S
C1056 C1064 1.378 . S
C1057 C1056 1.367 . S
C1057 C1065 1.433 . S
C1058 H1054 0.929 . S
C1058 C1060 1.378 . S
C1058 C1062 1.350 . S
C1059 C1062 1.463 . S
C1059 C1064 1.350 . S
C1059 N1067 1.427 . S
C1060 H1051 0.930 . S
C1060 C1058 1.378 . S
C1060 C1061 1.367 . S
C1061 C1060 1.367 . S
C1061 C1063 1.433 . S
C1062 C1058 1.350 . S
C1062 C1059 1.463 . S
C1062 N1066 1.427 . S
C1063 H1053 0.929 . S
C1063 C1061 1.433 . S
C1063 N1066 1.384 . S
C1064 H1055 0.929 . S
C1064 C1056 1.378 . S
C1064 C1059 1.350 . S
C1065 H1052 0.929 . S
C1065 C1057 1.433 . S
C1065 N1067 1.384 . S
N1066 C1062 1.427 . S
N1066 C1063 1.384 . S
N1067 C1059 1.427 . S
N1067 C1065 1.384 . S
C643 C22 1.635 . S
C647 C340 1.637 . S
C661 C75 1.638 . S
C665 C393 1.638 . S
C679 C128 1.636 . S
C683 C446 1.634 . S
C697 C181 1.637 . S
C701 C499 1.635 . S
C715 C234 1.638 . S
C719 C552 1.637 . S
C733 C605 1.636 . S
C737 C287 1.634 . S
C751 C38 1.866 . S
C755 C568 1.866 . S
C769 C91 1.866 . S
C773 C621 1.866 . S
C787 C144 1.861 . S
C791 C356 1.866 . S
C805 C197 1.865 . S
C809 C409 1.867 . S
C823 C250 1.867 . S
C827 C462 1.862 . S
C841 C303 1.861 . S
C845 C515 1.866 . S
C859 C39 1.930 . S
C863 C198 1.936 . S
C877 C92 1.934 . S
C881 C251 1.928 . S
C895 C304 1.929 . S
C899 C145 1.935 . S
C913 C357 1.929 . S
C917 C516 1.935 . S
C931 C569 1.928 . S
C935 C410 1.934 . S
C949 C463 1.927 . S
C953 C622 1.933 . S
C967 C347 1.316 . S
C971 C29 1.313 . S
C985 C82 1.309 . S
C989 C400 1.312 . S
C1003 C135 1.314 . S
C1007 C453 1.316 . S
C1021 C506 1.315 . S
C1025 C188 1.312 . S
C1039 C559 1.316 . S
C1043 C241 1.316 . S
C1057 C294 1.312 . S
C1061 C612 1.310 . S
