# Generated by pormake.
# Topology wgs, (5)-cn, num edge types: 1
# Building blocks:
#     Node 0, Type 0, BuildingBlock: BEQFEK_clean_sbu_0, # of connection points: 5
#     Node 1, Type 0, BuildingBlock: BEQFEK_clean_sbu_0, # of connection points: 5
#     Node 2, Type 0, BuildingBlock: BEQFEK_clean_sbu_0, # of connection points: 5
#     Node 3, Type 0, BuildingBlock: BEQFEK_clean_sbu_0, # of connection points: 5
#     Node 4, Type 0, BuildingBlock: BEQFEK_clean_sbu_0, # of connection points: 5
#     Node 5, Type 0, BuildingBlock: BEQFEK_clean_sbu_0, # of connection points: 5
#     Node 6, Type 0, BuildingBlock: BEQFEK_clean_sbu_0, # of connection points: 5
#     Node 7, Type 0, BuildingBlock: BEQFEK_clean_sbu_0, # of connection points: 5
#     Node 8, Type 0, BuildingBlock: BEQFEK_clean_sbu_0, # of connection points: 5
#     Node 9, Type 0, BuildingBlock: BEQFEK_clean_sbu_0, # of connection points: 5
#     Node 10, Type 0, BuildingBlock: BEQFEK_clean_sbu_0, # of connection points: 5
#     Node 11, Type 0, BuildingBlock: BEQFEK_clean_sbu_0, # of connection points: 5
#     Node 12, Type 0, BuildingBlock: BEQFEK_clean_sbu_0, # of connection points: 5
#     Node 13, Type 0, BuildingBlock: BEQFEK_clean_sbu_0, # of connection points: 5
#     Node 14, Type 0, BuildingBlock: BEQFEK_clean_sbu_0, # of connection points: 5
#     Node 15, Type 0, BuildingBlock: BEQFEK_clean_sbu_0, # of connection points: 5
#     Node 16, Type 0, BuildingBlock: BEQFEK_clean_sbu_0, # of connection points: 5
#     Node 17, Type 0, BuildingBlock: BEQFEK_clean_sbu_0, # of connection points: 5
#     Node 18, Type 0, BuildingBlock: BEQFEK_clean_sbu_0, # of connection points: 5
#     Node 19, Type 0, BuildingBlock: BEQFEK_clean_sbu_0, # of connection points: 5
#     Node 20, Type 0, BuildingBlock: BEQFEK_clean_sbu_0, # of connection points: 5
#     Node 21, Type 0, BuildingBlock: BEQFEK_clean_sbu_0, # of connection points: 5
#     Node 22, Type 0, BuildingBlock: BEQFEK_clean_sbu_0, # of connection points: 5
#     Node 23, Type 0, BuildingBlock: BEQFEK_clean_sbu_0, # of connection points: 5
#     Node 24, Type 0, BuildingBlock: BEQFEK_clean_sbu_0, # of connection points: 5
#     Node 25, Type 0, BuildingBlock: BEQFEK_clean_sbu_0, # of connection points: 5
#     Node 26, Type 0, BuildingBlock: BEQFEK_clean_sbu_0, # of connection points: 5
#     Node 27, Type 0, BuildingBlock: BEQFEK_clean_sbu_0, # of connection points: 5
#     Node 28, Type 0, BuildingBlock: BEQFEK_clean_sbu_0, # of connection points: 5
#     Node 29, Type 0, BuildingBlock: BEQFEK_clean_sbu_0, # of connection points: 5
#     Node 30, Type 0, BuildingBlock: BEQFEK_clean_sbu_0, # of connection points: 5
#     Node 31, Type 0, BuildingBlock: BEQFEK_clean_sbu_0, # of connection points: 5
#     Edge 32, Type (0, 0), None
#     Edge 33, Type (0, 0), None
#     Edge 34, Type (0, 0), None
#     Edge 35, Type (0, 0), None
#     Edge 36, Type (0, 0), None
#     Edge 37, Type (0, 0), None
#     Edge 38, Type (0, 0), None
#     Edge 39, Type (0, 0), None
#     Edge 40, Type (0, 0), None
#     Edge 41, Type (0, 0), None
#     Edge 42, Type (0, 0), None
#     Edge 43, Type (0, 0), None
#     Edge 44, Type (0, 0), None
#     Edge 45, Type (0, 0), None
#     Edge 46, Type (0, 0), None
#     Edge 47, Type (0, 0), None
#     Edge 48, Type (0, 0), None
#     Edge 49, Type (0, 0), None
#     Edge 50, Type (0, 0), None
#     Edge 51, Type (0, 0), None
#     Edge 52, Type (0, 0), None
#     Edge 53, Type (0, 0), None
#     Edge 54, Type (0, 0), None
#     Edge 55, Type (0, 0), None
#     Edge 56, Type (0, 0), None
#     Edge 57, Type (0, 0), None
#     Edge 58, Type (0, 0), None
#     Edge 59, Type (0, 0), None
#     Edge 60, Type (0, 0), None
#     Edge 61, Type (0, 0), None
#     Edge 62, Type (0, 0), None
#     Edge 63, Type (0, 0), None
#     Edge 64, Type (0, 0), None
#     Edge 65, Type (0, 0), None
#     Edge 66, Type (0, 0), None
#     Edge 67, Type (0, 0), None
#     Edge 68, Type (0, 0), None
#     Edge 69, Type (0, 0), None
#     Edge 70, Type (0, 0), None
#     Edge 71, Type (0, 0), None
#     Edge 72, Type (0, 0), None
#     Edge 73, Type (0, 0), None
#     Edge 74, Type (0, 0), None
#     Edge 75, Type (0, 0), None
#     Edge 76, Type (0, 0), None
#     Edge 77, Type (0, 0), None
#     Edge 78, Type (0, 0), None
#     Edge 79, Type (0, 0), None
#     Edge 80, Type (0, 0), None
#     Edge 81, Type (0, 0), None
#     Edge 82, Type (0, 0), None
#     Edge 83, Type (0, 0), None
#     Edge 84, Type (0, 0), None
#     Edge 85, Type (0, 0), None
#     Edge 86, Type (0, 0), None
#     Edge 87, Type (0, 0), None
#     Edge 88, Type (0, 0), None
#     Edge 89, Type (0, 0), None
#     Edge 90, Type (0, 0), None
#     Edge 91, Type (0, 0), None
#     Edge 92, Type (0, 0), None
#     Edge 93, Type (0, 0), None
#     Edge 94, Type (0, 0), None
#     Edge 95, Type (0, 0), None
#     Edge 96, Type (0, 0), None
#     Edge 97, Type (0, 0), None
#     Edge 98, Type (0, 0), None
#     Edge 99, Type (0, 0), None
#     Edge 100, Type (0, 0), None
#     Edge 101, Type (0, 0), None
#     Edge 102, Type (0, 0), None
#     Edge 103, Type (0, 0), None
#     Edge 104, Type (0, 0), None
#     Edge 105, Type (0, 0), None
#     Edge 106, Type (0, 0), None
#     Edge 107, Type (0, 0), None
#     Edge 108, Type (0, 0), None
#     Edge 109, Type (0, 0), None
#     Edge 110, Type (0, 0), None
#     Edge 111, Type (0, 0), None
# Relax obj value: 0.067
# Max RMSD: 0.147
# Mean RMSD: 0.147
data_MOF--net-wgs--node1-BEQFEK_clean_sbu_0--edge1-none
_symmetry_space_group_name_H-M    P1
_symmetry_Int_Tables_number       1
_symmetry_cell_setting            triclinic
loop_
_symmetry_equiv_pos_as_xyz
'x, y, z'
_cell_length_a     14.062467
_cell_length_b     14.062422
_cell_length_c     88.434373
_cell_angle_alpha  90.000028
_cell_angle_beta   90.000002
_cell_angle_gamma 90.000023
loop_
_atom_site_label
_atom_site_type_symbol
_atom_site_fract_x
_atom_site_fract_y
_atom_site_fract_z
_atom_type_partial_charge
Co0 Co 0.35115 0.12773 0.33752 0.0
Co1 Co 0.36833 0.12954 0.3013 0.0
C2 C 0.50552 0.1921 0.32253 0.0
O3 O 0.48797 0.14702 0.33462 0.0
O4 O 0.49586 0.14653 0.31024 0.0
C5 C 0.37184 0.09922 0.36999 0.0
O6 O 0.45059 0.05356 0.36668 0.0
C7 C 0.4236 0.02827 0.27369 0.0
C8 C 0.36089 0.11785 0.25585 0.0
C9 C 0.4087 0.03295 0.25823 0.0
N10 N 0.38503 0.10576 0.28018 0.0
N11 N 0.34975 0.1603 0.26938 0.0
C12 C 0.47407 0.95106 0.28215 0.0
H13 H 0.47355 0.9652 0.29449 0.0
H14 H 0.44109 0.88108 0.27977 0.0
H15 H 0.54871 0.947 0.27813 0.0
C16 C 0.28365 0.93132 0.33045 0.0
N17 N 0.31228 0.01863 0.32618 0.0
N18 N 0.30847 0.02427 0.31128 0.0
C19 C 0.2711 0.94293 0.30577 0.0
C20 C 0.25794 0.87989 0.31766 0.0
C21 C 0.27871 0.89823 0.34651 0.0
H22 H 0.31165 0.95019 0.35419 0.0
H23 H 0.31604 0.8291 0.34771 0.0
H24 H 0.20322 0.88781 0.34979 0.0
O25 O 0.28557 0.24202 0.32968 0.0
O26 O 0.29427 0.24737 0.30463 0.0
H27 H 0.23692 -0.00126 0.28364 0.0
H28 H 0.16002 0.90593 0.29024 0.0
C29 C 0.2349 0.93082 0.28995 0.0
H30 H 0.27676 0.87556 0.284 0.0
H31 H 0.31393 0.22415 0.27132 0.0
O32 O 0.31881 0.12994 0.35946 0.0
C33 C 0.26829 0.28329 0.31719 0.0
Co34 Co 0.10788 0.10115 0.58752 0.0
Co35 Co 0.10607 0.11834 0.5513 0.0
C36 C 0.0435 0.25552 0.57253 0.0
O37 O 0.08858 0.23798 0.58462 0.0
O38 O 0.08907 0.24587 0.56024 0.0
C39 C 0.13638 0.12184 0.61999 0.0
O40 O 0.18205 0.2006 0.61667 0.0
C41 C 0.20734 0.17362 0.52369 0.0
C42 C 0.11776 0.11092 0.50585 0.0
C43 C 0.20266 0.15873 0.50823 0.0
N44 N 0.12984 0.13505 0.53018 0.0
N45 N 0.07531 0.09977 0.51938 0.0
C46 C 0.28455 0.22409 0.53215 0.0
H47 H 0.2704 0.22357 0.54449 0.0
H48 H 0.35453 0.19111 0.52977 0.0
H49 H 0.28861 0.29873 0.52813 0.0
C50 C 0.30429 0.03366 0.58045 0.0
N51 N 0.21698 0.06229 0.57618 0.0
N52 N 0.21135 0.05848 0.56128 0.0
C53 C 0.29269 0.02111 0.55577 0.0
C54 C 0.35573 0.00796 0.56766 0.0
C55 C 0.33738 0.02872 0.59651 0.0
H56 H 0.28542 0.06165 0.60419 0.0
H57 H 0.40651 0.06605 0.59771 0.0
H58 H 0.34781 0.95323 0.59979 0.0
O59 O -0.00641 0.03558 0.57968 0.0
O60 O 0.98824 0.04429 0.55462 0.0
H61 H 0.23689 0.98695 0.53364 0.0
H62 H 0.32969 0.91004 0.54024 0.0
C63 C 0.3048 0.98492 0.53995 0.0
H64 H 0.36006 0.02679 0.534 0.0
H65 H 0.01146 0.06395 0.52132 0.0
O66 O 0.10567 0.06881 0.60946 0.0
C67 C 0.95231 0.01831 0.56719 0.0
Co68 Co 0.13446 0.85788 0.83752 0.0
Co69 Co 0.11727 0.85607 0.8013 0.0
C70 C 0.98009 0.7935 0.82253 0.0
O71 O -0.00237 0.83858 0.83462 0.0
O72 O 0.98974 0.83907 0.81024 0.0
C73 C 0.11376 0.88639 0.86999 0.0
O74 O 0.03501 0.93205 0.86668 0.0
C75 C 0.062 0.95734 0.77369 0.0
C76 C 0.12471 0.86776 0.75585 0.0
C77 C 0.0769 0.95266 0.75823 0.0
N78 N 0.10057 0.87984 0.78018 0.0
N79 N 0.13585 0.8253 0.76938 0.0
C80 C 0.01153 0.03455 0.78215 0.0
H81 H 0.01205 0.0204 0.79449 0.0
H82 H 0.04451 0.10453 0.77977 0.0
H83 H 0.9369 0.03861 0.77813 0.0
C84 C 0.20196 0.05428 0.83045 0.0
N85 N 0.17332 0.96697 0.82618 0.0
N86 N 0.17713 0.96134 0.81128 0.0
C87 C 0.2145 0.04268 0.80577 0.0
C88 C 0.22766 0.10572 0.81766 0.0
C89 C 0.20689 0.08737 0.84651 0.0
H90 H 0.17396 0.03541 0.85419 0.0
H91 H 0.16956 0.1565 0.84771 0.0
H92 H 0.28238 0.0978 0.84979 0.0
O93 O 0.20003 0.74358 0.82968 0.0
O94 O 0.19133 0.73824 0.80463 0.0
H95 H 0.24868 0.98687 0.78364 0.0
H96 H 0.32558 0.07967 0.79024 0.0
C97 C 0.2507 0.05478 0.78995 0.0
H98 H 0.20884 0.11004 0.784 0.0
H99 H 0.17167 0.76146 0.77132 0.0
O100 O 0.1668 0.85566 0.85946 0.0
C101 C 0.21731 0.70231 0.81719 0.0
Co102 Co 0.37772 0.88446 0.08752 0.0
Co103 Co 0.37953 0.86726 0.0513 0.0
C104 C 0.4421 0.73008 0.07253 0.0
O105 O 0.39702 0.74763 0.08462 0.0
O106 O 0.39653 0.73974 0.06024 0.0
C107 C 0.34922 0.86376 0.11999 0.0
O108 O 0.30355 0.78501 0.11667 0.0
C109 C 0.27827 0.81199 0.02369 0.0
C110 C 0.36784 0.87469 0.00585 0.0
C111 C 0.28294 0.82688 0.00823 0.0
N112 N 0.35576 0.85056 0.03018 0.0
N113 N 0.4103 0.88583 0.01938 0.0
C114 C 0.20106 0.76152 0.03215 0.0
H115 H 0.2152 0.76204 0.04449 0.0
H116 H 0.13107 0.79449 0.02977 0.0
H117 H 0.197 0.68688 0.02813 0.0
C118 C 0.18131 0.95195 0.08045 0.0
N119 N 0.26862 0.92331 0.07618 0.0
N120 N 0.27425 0.92712 0.06128 0.0
C121 C 0.19291 0.96449 0.05577 0.0
C122 C 0.12988 0.97765 0.06766 0.0
C123 C 0.14823 0.95689 0.09651 0.0
H124 H 0.20019 0.92397 0.10419 0.0
H125 H 0.0791 0.91955 0.09771 0.0
H126 H 0.13779 0.03238 0.09979 0.0
O127 O 0.49201 0.95003 0.07968 0.0
O128 O 0.49736 0.94132 0.05462 0.0
H129 H 0.24872 -0.00134 0.03364 0.0
H130 H 0.15592 0.07556 0.04024 0.0
C131 C 0.1808 0.00068 0.03995 0.0
H132 H 0.12554 0.95882 0.034 0.0
H133 H 0.47414 0.92166 0.02132 0.0
O134 O 0.37994 0.9168 0.10946 0.0
C135 C 0.53329 0.9673 0.06719 0.0
Co136 Co 0.35115 0.85786 0.16823 0.0
Co137 Co 0.3683 0.85609 0.20445 0.0
C138 C 0.50551 0.7935 0.18323 0.0
O139 O 0.48798 0.83858 0.17114 0.0
O140 O 0.49584 0.83908 0.19552 0.0
C141 C 0.37183 0.88638 0.13576 0.0
O142 O 0.45054 0.93212 0.13908 0.0
C143 C 0.42352 0.95754 0.23204 0.0
C144 C 0.36066 0.86816 0.24991 0.0
C145 C 0.40839 0.95307 0.24749 0.0
N146 N 0.38496 0.87998 0.22557 0.0
N147 N 0.3496 0.82557 0.23638 0.0
C148 C 0.47407 0.03464 0.22357 0.0
H149 H 0.47359 0.02039 0.21123 0.0
H150 H 0.44113 0.10467 0.22594 0.0
H151 H 0.5487 0.03868 0.2276 0.0
C152 C 0.28363 0.05427 0.1753 0.0
N153 N 0.31226 0.96696 0.17956 0.0
N154 N 0.30844 0.96134 0.19446 0.0
C155 C 0.27106 0.04268 0.19997 0.0
C156 C 0.25792 0.10571 0.18809 0.0
C157 C 0.27867 0.08735 0.15924 0.0
H158 H 0.31153 0.03536 0.15155 0.0
H159 H 0.31606 0.15645 0.15803 0.0
H160 H 0.20318 0.09785 0.15596 0.0
O161 O 0.28557 0.74358 0.17607 0.0
O162 O 0.29425 0.73825 0.20113 0.0
H163 H 0.23676 0.98684 0.2221 0.0
H164 H 0.15996 0.07973 0.2155 0.0
C165 C 0.23482 0.05478 0.2158 0.0
H166 H 0.27672 0.10998 0.22175 0.0
H167 H 0.31379 0.7617 0.23445 0.0
O168 O 0.31883 0.8556 0.14629 0.0
C169 C 0.26828 0.70231 0.18857 0.0
Co170 Co 0.37774 0.10115 0.41823 0.0
Co171 Co 0.37951 0.11831 0.45445 0.0
C172 C 0.4421 0.25552 0.43323 0.0
O173 O 0.39702 0.23798 0.42114 0.0
O174 O 0.39653 0.24585 0.44552 0.0
C175 C 0.34922 0.12183 0.38576 0.0
O176 O 0.30348 0.20054 0.38908 0.0
C177 C 0.27807 0.17354 0.48204 0.0
C178 C 0.36744 0.11068 0.49991 0.0
C179 C 0.28254 0.15842 0.49749 0.0
N180 N 0.35562 0.13497 0.47557 0.0
N181 N 0.41003 0.09961 0.48638 0.0
C182 C 0.20097 0.22409 0.47357 0.0
H183 H 0.21522 0.22361 0.46123 0.0
H184 H 0.13094 0.19116 0.47594 0.0
H185 H 0.19693 0.29872 0.4776 0.0
C186 C 0.18133 0.03363 0.4253 0.0
N187 N 0.26863 0.06227 0.42956 0.0
N188 N 0.27426 0.05845 0.44447 0.0
C189 C 0.19291 0.02107 0.44997 0.0
C190 C 0.12988 0.00793 0.43809 0.0
C191 C 0.14825 0.02867 0.40924 0.0
H192 H 0.20025 0.06152 0.40155 0.0
H193 H 0.07916 0.06607 0.40803 0.0
H194 H 0.13774 0.95318 0.40596 0.0
O195 O 0.49202 0.03558 0.42608 0.0
O196 O 0.49735 0.04426 0.45113 0.0
H197 H 0.24874 0.98679 0.4721 0.0
H198 H 0.15586 0.90999 0.4655 0.0
C199 C 0.18081 0.98485 0.4658 0.0
H200 H 0.12561 0.02674 0.47175 0.0
H201 H 0.4739 0.06381 0.48445 0.0
O202 O 0.38 0.06883 0.3963 0.0
C203 C 0.53329 0.01829 0.43857 0.0
Co204 Co 0.13445 0.12775 0.66823 0.0
Co205 Co 0.1173 0.12952 0.70445 0.0
C206 C 0.98009 0.1921 0.68323 0.0
O207 O -0.00237 0.14702 0.67114 0.0
O208 O 0.98976 0.14653 0.69552 0.0
C209 C 0.11377 0.09923 0.63576 0.0
O210 O 0.03507 0.05348 0.63908 0.0
C211 C 0.06209 0.02807 0.73204 0.0
C212 C 0.12494 0.11744 0.74991 0.0
C213 C 0.07721 0.03254 0.74749 0.0
N214 N 0.10064 0.10562 0.72557 0.0
N215 N 0.13601 0.16004 0.73638 0.0
C216 C 0.01153 0.95097 0.72357 0.0
H217 H 0.01202 0.96522 0.71123 0.0
H218 H 0.04447 0.88094 0.72594 0.0
H219 H 0.9369 0.94693 0.7276 0.0
C220 C 0.20198 0.93134 0.6753 0.0
N221 N 0.17334 0.01864 0.67956 0.0
N222 N 0.17716 0.02427 0.69446 0.0
C223 C 0.21455 0.94293 0.69997 0.0
C224 C 0.22769 0.87989 0.68809 0.0
C225 C 0.20694 0.89825 0.65924 0.0
H226 H 0.17408 0.95025 0.65155 0.0
H227 H 0.16954 0.82916 0.65803 0.0
H228 H 0.28243 0.88775 0.65596 0.0
O229 O 0.20003 0.24203 0.67607 0.0
O230 O 0.19136 0.24736 0.70113 0.0
H231 H 0.24884 -0.00123 0.7221 0.0
H232 H 0.32564 0.90588 0.7155 0.0
C233 C 0.25078 0.93083 0.7158 0.0
H234 H 0.20888 0.87563 0.72175 0.0
H235 H 0.17181 0.22391 0.73445 0.0
O236 O 0.16677 0.13001 0.64629 0.0
C237 C 0.21732 0.28329 0.68857 0.0
Co238 Co 0.10786 0.88445 0.91823 0.0
Co239 Co 0.10609 0.8673 0.95445 0.0
C240 C 0.0435 0.73009 0.93323 0.0
O241 O 0.08858 0.74763 0.92114 0.0
O242 O 0.08907 0.73975 0.94552 0.0
C243 C 0.13638 0.86377 0.88576 0.0
O244 O 0.18212 0.78506 0.88908 0.0
C245 C 0.20754 0.81207 0.98204 0.0
C246 C 0.11816 0.87492 0.99991 0.0
C247 C 0.20306 0.82719 0.99749 0.0
N248 N 0.12998 0.85063 0.97557 0.0
N249 N 0.07557 0.88599 0.98638 0.0
C250 C 0.28464 0.76151 0.97357 0.0
H251 H 0.27039 0.762 0.96123 0.0
H252 H 0.35466 0.79445 0.97594 0.0
H253 H 0.28867 0.68688 0.9776 0.0
C254 C 0.30428 0.95197 0.9253 0.0
N255 N 0.21697 0.92333 0.92956 0.0
N256 N 0.21135 0.92716 0.94447 0.0
C257 C 0.29269 0.96453 0.94998 0.0
C258 C 0.35572 0.97768 0.93809 0.0
C259 C 0.33736 0.95693 0.90924 0.0
H260 H 0.28536 0.92407 0.90155 0.0
H261 H 0.40645 0.91953 0.90803 0.0
H262 H 0.34786 0.03242 0.90596 0.0
O263 O -0.00642 0.95002 0.92608 0.0
O264 O 0.98825 0.94134 0.95113 0.0
H265 H 0.23686 -0.00118 0.9721 0.0
H266 H 0.32974 0.07562 0.9655 0.0
C267 C 0.30479 0.00076 0.9658 0.0
H268 H 0.36 0.95886 0.97175 0.0
H269 H 0.0117 0.9218 0.98445 0.0
O270 O 0.1056 0.91677 0.8963 0.0
C271 C 0.95231 0.96731 0.93857 0.0
Co272 Co 0.63446 0.85788 0.66823 0.0
Co273 Co 0.61727 0.85607 0.70445 0.0
C274 C 0.48009 0.7935 0.68322 0.0
O275 O 0.49763 0.83858 0.67113 0.0
O276 O 0.48974 0.83908 0.69551 0.0
C277 C 0.61376 0.88637 0.63576 0.0
O278 O 0.53499 0.93199 0.63908 0.0
C279 C 0.56201 0.95734 0.73206 0.0
C280 C 0.62471 0.86776 0.7499 0.0
C281 C 0.5769 0.95266 0.74752 0.0
N282 N 0.60057 0.87984 0.72557 0.0
N283 N 0.63585 0.8253 0.73637 0.0
C284 C 0.51154 0.03455 0.7236 0.0
H285 H 0.51206 0.0204 0.71126 0.0
H286 H 0.54452 0.10453 0.72599 0.0
H287 H 0.4369 0.03861 0.72763 0.0
C288 C 0.70194 0.05428 0.6753 0.0
N289 N 0.67331 0.96697 0.67957 0.0
N290 N 0.67714 0.96134 0.69447 0.0
C291 C 0.71451 0.04268 0.69998 0.0
C292 C 0.72766 0.10572 0.68809 0.0
C293 C 0.70686 0.08738 0.65924 0.0
H294 H 0.67388 0.03544 0.65156 0.0
H295 H 0.66955 0.15653 0.65804 0.0
H296 H 0.78234 0.09777 0.65596 0.0
O297 O 0.70003 0.74359 0.67607 0.0
O298 O 0.69133 0.73824 0.70113 0.0
H299 H 0.74869 0.98687 0.72211 0.0
H300 H 0.82559 0.07967 0.71551 0.0
C301 C 0.7507 0.05478 0.71581 0.0
H302 H 0.70884 0.11004 0.72176 0.0
H303 H 0.67167 0.76146 0.73443 0.0
O304 O 0.66681 0.85567 0.64629 0.0
C305 C 0.71731 0.70231 0.68856 0.0
Co306 Co 0.87773 0.88444 0.41823 0.0
Co307 Co 0.87953 0.86724 0.45445 0.0
C308 C 0.9421 0.73007 0.43322 0.0
O309 O 0.89702 0.74761 0.42113 0.0
O310 O 0.89653 0.73971 0.44551 0.0
C311 C 0.84921 0.86375 0.38576 0.0
O312 O 0.8035 0.78503 0.38908 0.0
C313 C 0.77826 0.81196 0.48206 0.0
C314 C 0.86785 0.87466 0.4999 0.0
C315 C 0.78294 0.82685 0.49752 0.0
N316 N 0.85576 0.85053 0.47557 0.0
N317 N 0.9103 0.8858 0.48637 0.0
C318 C 0.70105 0.7615 0.4736 0.0
H319 H 0.71519 0.76203 0.46126 0.0
H320 H 0.63107 0.79447 0.47599 0.0
H321 H 0.69699 0.68685 0.47762 0.0
C322 C 0.68134 0.95199 0.4253 0.0
N323 N 0.76863 0.92331 0.42957 0.0
N324 N 0.77426 0.9271 0.44447 0.0
C325 C 0.69293 0.9645 0.44998 0.0
C326 C 0.62992 0.97773 0.43809 0.0
C327 C 0.64826 0.95696 0.40924 0.0
H328 H 0.70024 0.9241 0.40156 0.0
H329 H 0.57916 0.91958 0.40803 0.0
H330 H 0.63777 0.03245 0.40597 0.0
O331 O 0.99201 0.95003 0.42607 0.0
O332 O -0.00265 0.94131 0.45113 0.0
H333 H 0.74873 -0.00137 0.47211 0.0
H334 H 0.65592 0.07554 0.46552 0.0
C335 C 0.68082 0.00066 0.46581 0.0
H336 H 0.62556 0.95879 0.47175 0.0
H337 H 0.97414 0.92162 0.48443 0.0
O338 O 0.87996 0.91677 0.39629 0.0
C339 C 0.03327 0.96732 0.43857 0.0
Co340 Co 0.85115 0.12772 0.16823 0.0
Co341 Co 0.86833 0.12954 0.20445 0.0
C342 C 0.00552 0.1921 0.18322 0.0
O343 O 0.98797 0.14702 0.17113 0.0
O344 O -0.00414 0.14653 0.19551 0.0
C345 C 0.87184 0.09924 0.13576 0.0
O346 O 0.95061 0.05361 0.13908 0.0
C347 C 0.9236 0.02827 0.23206 0.0
C348 C 0.86089 0.11785 0.2499 0.0
C349 C 0.9087 0.03295 0.24752 0.0
N350 N 0.88503 0.10577 0.22557 0.0
N351 N 0.84975 0.1603 0.23637 0.0
C352 C 0.97406 0.95106 0.2236 0.0
H353 H 0.97355 0.9652 0.21126 0.0
H354 H 0.94108 0.88108 0.22599 0.0
H355 H 0.0487 0.947 0.22763 0.0
C356 C 0.78366 0.93132 0.1753 0.0
N357 N 0.81229 0.01863 0.17957 0.0
N358 N 0.80847 0.02427 0.19447 0.0
C359 C 0.7711 0.94293 0.19998 0.0
C360 C 0.75795 0.87989 0.18809 0.0
C361 C 0.77874 0.89823 0.15924 0.0
H362 H 0.81171 0.95017 0.15156 0.0
H363 H 0.81605 0.82908 0.15804 0.0
H364 H 0.70325 0.88783 0.15596 0.0
O365 O 0.78557 0.24202 0.17607 0.0
O366 O 0.79427 0.24737 0.20113 0.0
H367 H 0.73692 -0.00126 0.22211 0.0
H368 H 0.66002 0.90593 0.21551 0.0
C369 C 0.7349 0.93082 0.21581 0.0
H370 H 0.77676 0.87556 0.22176 0.0
H371 H 0.81393 0.22415 0.23443 0.0
O372 O 0.8188 0.12993 0.14629 0.0
C373 C 0.76829 0.28329 0.18856 0.0
Co374 Co 0.60787 0.10117 0.91823 0.0
Co375 Co 0.60607 0.11837 0.95445 0.0
C376 C 0.5435 0.25554 0.93322 0.0
O377 O 0.58858 0.23799 0.92113 0.0
O378 O 0.58907 0.24589 0.94551 0.0
C379 C 0.63639 0.12185 0.88576 0.0
O380 O 0.68211 0.20057 0.88908 0.0
C381 C 0.70734 0.17364 0.98206 0.0
C382 C 0.61776 0.11095 0.9999 0.0
C383 C 0.70266 0.15876 0.99752 0.0
N384 N 0.62985 0.13508 0.97557 0.0
N385 N 0.57531 0.0998 0.98637 0.0
C386 C 0.78455 0.22411 0.9736 0.0
H387 H 0.77041 0.22358 0.96126 0.0
H388 H 0.85454 0.19114 0.97599 0.0
H389 H 0.78861 0.29875 0.97762 0.0
C390 C 0.80426 0.03361 0.9253 0.0
N391 N 0.71697 0.06229 0.92957 0.0
N392 N 0.71135 0.0585 0.94447 0.0
C393 C 0.79268 0.0211 0.94998 0.0
C394 C 0.85568 0.00787 0.93809 0.0
C395 C 0.83734 0.02864 0.90924 0.0
H396 H 0.78536 0.06149 0.90156 0.0
H397 H 0.90644 0.06602 0.90803 0.0
H398 H 0.84784 0.95314 0.90597 0.0
O399 O 0.49359 0.03557 0.92607 0.0
O400 O 0.48825 0.04429 0.95113 0.0
H401 H 0.73687 0.98697 0.97211 0.0
H402 H 0.82968 0.91006 0.96552 0.0
C403 C 0.80479 0.98494 0.96581 0.0
H404 H 0.86004 0.02682 0.97175 0.0
H405 H 0.51146 0.06398 0.98443 0.0
O406 O 0.60564 0.06884 0.89629 0.0
C407 C 0.45233 0.01829 0.93857 0.0
Co408 Co 0.63445 0.12775 0.83752 0.0
Co409 Co 0.6173 0.12952 0.8013 0.0
C410 C 0.48009 0.1921 0.82253 0.0
O411 O 0.49763 0.14702 0.83461 0.0
O412 O 0.48976 0.14653 0.81023 0.0
C413 C 0.61377 0.09925 0.86999 0.0
O414 O 0.53504 0.05354 0.86668 0.0
C415 C 0.56209 0.02807 0.77371 0.0
C416 C 0.62494 0.11744 0.75584 0.0
C417 C 0.57721 0.03254 0.75826 0.0
N418 N 0.60065 0.10563 0.78018 0.0
N419 N 0.63601 0.16004 0.76937 0.0
C420 C 0.51153 0.95097 0.78218 0.0
H421 H 0.51202 0.96522 0.79452 0.0
H422 H 0.54447 0.88094 0.77981 0.0
H423 H 0.43691 0.94693 0.77815 0.0
C424 C 0.70197 0.93133 0.83045 0.0
N425 N 0.67333 0.01864 0.82619 0.0
N426 N 0.67717 0.02427 0.81129 0.0
C427 C 0.71455 0.94293 0.80578 0.0
C428 C 0.72768 0.87989 0.81766 0.0
C429 C 0.7069 0.89825 0.84651 0.0
H430 H 0.67399 0.95022 0.8542 0.0
H431 H 0.66953 0.82914 0.84772 0.0
H432 H 0.78238 0.88778 0.84979 0.0
O433 O 0.70003 0.24203 0.82968 0.0
O434 O 0.69136 0.24736 0.80462 0.0
H435 H 0.74884 -0.00124 0.78365 0.0
H436 H 0.82564 0.90588 0.79025 0.0
C437 C 0.75078 0.93083 0.78995 0.0
H438 H 0.70889 0.87562 0.784 0.0
H439 H 0.67181 0.22391 0.7713 0.0
O440 O 0.66678 0.13 0.85946 0.0
C441 C 0.71732 0.28329 0.81718 0.0
Co442 Co 0.60785 0.88444 0.58752 0.0
Co443 Co 0.60609 0.86727 0.5513 0.0
C444 C 0.5435 0.73007 0.57253 0.0
O445 O 0.58858 0.74761 0.58461 0.0
O446 O 0.58907 0.73973 0.56023 0.0
C447 C 0.63638 0.86377 0.61999 0.0
O448 O 0.68218 0.78509 0.61668 0.0
C449 C 0.70754 0.81204 0.52371 0.0
C450 C 0.61816 0.87489 0.50584 0.0
C451 C 0.70307 0.82716 0.50826 0.0
N452 N 0.62999 0.8506 0.53018 0.0
N453 N 0.57557 0.88596 0.51937 0.0
C454 C 0.78464 0.76149 0.53218 0.0
H455 H 0.7704 0.76199 0.54452 0.0
H456 H 0.85467 0.79442 0.52981 0.0
H457 H 0.78868 0.68686 0.52815 0.0
C458 C 0.80425 0.95202 0.58046 0.0
N459 N 0.71696 0.92333 0.57619 0.0
N460 N 0.71134 0.92714 0.56129 0.0
C461 C 0.79267 0.96454 0.55578 0.0
C462 C 0.85568 0.97776 0.56767 0.0
C463 C 0.83732 0.95701 0.59652 0.0
H464 H 0.7853 0.92423 0.6042 0.0
H465 H 0.90638 0.91956 0.59773 0.0
H466 H 0.84789 0.0325 0.59978 0.0
O467 O 0.49358 0.95003 0.57967 0.0
O468 O 0.48826 0.94134 0.55462 0.0
H469 H 0.73685 -0.00121 0.53365 0.0
H470 H 0.82974 0.0756 0.54025 0.0
C471 C 0.80478 0.00074 0.53995 0.0
H472 H 0.85998 0.95883 0.534 0.0
H473 H 0.5117 0.92177 0.5213 0.0
O474 O 0.60557 0.91674 0.60946 0.0
C475 C 0.45233 0.96733 0.56718 0.0
Co476 Co 0.85115 0.85786 0.33752 0.0
Co477 Co 0.8683 0.85609 0.3013 0.0
C478 C 0.00551 0.79351 0.32253 0.0
O479 O 0.98798 0.83858 0.33461 0.0
O480 O -0.00416 0.83908 0.31023 0.0
C481 C 0.87183 0.88636 0.36999 0.0
O482 O 0.95056 0.93207 0.36668 0.0
C483 C 0.92351 0.95754 0.27371 0.0
C484 C 0.86066 0.86816 0.25584 0.0
C485 C 0.90839 0.95307 0.25826 0.0
N486 N 0.88496 0.87998 0.28018 0.0
N487 N 0.8496 0.82557 0.26937 0.0
C488 C 0.97407 0.03464 0.28218 0.0
H489 H 0.97359 0.02039 0.29452 0.0
H490 H 0.94113 0.10467 0.27981 0.0
H491 H 0.0487 0.03868 0.27815 0.0
C492 C 0.78363 0.05427 0.33045 0.0
N493 N 0.81227 0.96696 0.32619 0.0
N494 N 0.80844 0.96134 0.31129 0.0
C495 C 0.77105 0.04268 0.30578 0.0
C496 C 0.75792 0.10571 0.31766 0.0
C497 C 0.7787 0.08736 0.34651 0.0
H498 H 0.8116 0.03538 0.3542 0.0
H499 H 0.81607 0.15647 0.34772 0.0
H500 H 0.70321 0.09783 0.34979 0.0
O501 O 0.78557 0.74358 0.32968 0.0
O502 O 0.79425 0.73825 0.30462 0.0
H503 H 0.73676 0.98684 0.28365 0.0
H504 H 0.65996 0.07973 0.29025 0.0
C505 C 0.73482 0.05478 0.28995 0.0
H506 H 0.77671 0.10998 0.284 0.0
H507 H 0.81379 0.7617 0.2713 0.0
O508 O 0.81882 0.85561 0.35946 0.0
C509 C 0.76828 0.70231 0.31718 0.0
Co510 Co 0.87775 0.10117 0.08752 0.0
Co511 Co 0.87951 0.11833 0.0513 0.0
C512 C 0.9421 0.25553 0.07253 0.0
O513 O 0.89702 0.238 0.08461 0.0
O514 O 0.89653 0.24588 0.06023 0.0
C515 C 0.84922 0.12184 0.11999 0.0
O516 O 0.80343 0.20052 0.11668 0.0
C517 C 0.77806 0.17356 0.02371 0.0
C518 C 0.86744 0.11072 0.00584 0.0
C519 C 0.78254 0.15845 0.00826 0.0
N520 N 0.85562 0.135 0.03018 0.0
N521 N 0.91003 0.09965 0.01937 0.0
C522 C 0.70096 0.22411 0.03218 0.0
H523 H 0.7152 0.22362 0.04452 0.0
H524 H 0.63093 0.19118 0.02981 0.0
H525 H 0.69693 0.29875 0.02815 0.0
C526 C 0.68135 0.03359 0.08046 0.0
N527 N 0.76864 0.06228 0.07619 0.0
N528 N 0.77426 0.05847 0.06129 0.0
C529 C 0.69293 0.02106 0.05578 0.0
C530 C 0.62993 0.00784 0.06767 0.0
C531 C 0.64828 0.0286 0.09652 0.0
H532 H 0.7003 0.06139 0.1042 0.0
H533 H 0.57922 0.06605 0.09773 0.0
H534 H 0.63772 0.95311 0.09979 0.0
O535 O 0.99202 0.03558 0.07967 0.0
O536 O -0.00266 0.04426 0.05462 0.0
H537 H 0.74876 0.98681 0.03365 0.0
H538 H 0.65587 0.91 0.04025 0.0
C539 C 0.68082 0.98486 0.03995 0.0
H540 H 0.62562 0.02677 0.034 0.0
H541 H 0.9739 0.06384 0.0213 0.0
O542 O 0.88003 0.06886 0.10946 0.0
C543 C 0.03327 0.01828 0.06718 0.0
Co544 Co 0.85117 0.62774 0.83752 0.0
Co545 Co 0.86836 0.62954 0.8013 0.0
C546 C 0.00558 0.69207 0.82253 0.0
O547 O 0.98798 0.64704 0.83462 0.0
O548 O -0.0041 0.64661 0.81023 0.0
C549 C 0.87186 0.59922 0.86999 0.0
O550 O 0.95058 0.55351 0.86667 0.0
C551 C 0.92361 0.52828 0.77369 0.0
C552 C 0.86086 0.61783 0.75585 0.0
C553 C 0.9087 0.53295 0.75823 0.0
N554 N 0.88503 0.60577 0.78018 0.0
N555 N 0.84973 0.66029 0.76938 0.0
C556 C 0.97411 0.45108 0.78215 0.0
H557 H 0.97358 0.46522 0.79449 0.0
H558 H 0.94115 0.38109 0.77976 0.0
H559 H 0.04875 0.44705 0.77812 0.0
C560 C 0.78363 0.43135 0.83045 0.0
N561 N 0.81231 0.51864 0.82619 0.0
N562 N 0.80852 0.52426 0.81128 0.0
C563 C 0.77112 0.44293 0.80577 0.0
C564 C 0.75789 0.37992 0.81766 0.0
C565 C 0.77865 0.39827 0.84651 0.0
H566 H 0.81151 0.45025 0.8542 0.0
H567 H 0.81603 0.32916 0.84772 0.0
H568 H 0.70315 0.38778 0.84979 0.0
O569 O 0.78559 0.74202 0.82968 0.0
O570 O 0.79428 0.74736 0.80462 0.0
H571 H 0.73695 0.49874 0.78364 0.0
H572 H 0.66007 0.40591 0.79024 0.0
C573 C 0.73495 0.43082 0.78995 0.0
H574 H 0.77683 0.37558 0.784 0.0
H575 H 0.81389 0.72413 0.77132 0.0
O576 O 0.81884 0.62997 0.85946 0.0
C577 C 0.7683 0.78328 0.81718 0.0
Co578 Co 0.60787 0.60115 0.08752 0.0
Co579 Co 0.60605 0.61832 0.0513 0.0
C580 C 0.54354 0.75556 0.07253 0.0
O581 O 0.58857 0.73797 0.08462 0.0
O582 O 0.589 0.74587 0.06023 0.0
C583 C 0.63636 0.62185 0.11999 0.0
O584 O 0.68198 0.70062 0.11667 0.0
C585 C 0.70732 0.67356 0.02369 0.0
C586 C 0.61777 0.61081 0.00585 0.0
C587 C 0.70265 0.65864 0.00823 0.0
N588 N 0.62983 0.63499 0.03018 0.0
N589 N 0.57531 0.59967 0.01938 0.0
C590 C 0.78451 0.72406 0.03215 0.0
H591 H 0.77036 0.72355 0.04449 0.0
H592 H 0.8545 0.6911 0.02976 0.0
H593 H 0.78855 0.7987 0.02812 0.0
C594 C 0.80428 0.53367 0.08045 0.0
N595 N 0.71697 0.5623 0.07618 0.0
N596 N 0.71133 0.55848 0.06128 0.0
C597 C 0.79268 0.52111 0.05577 0.0
C598 C 0.85571 0.50796 0.06766 0.0
C599 C 0.83737 0.52875 0.09651 0.0
H600 H 0.78543 0.56173 0.10419 0.0
H601 H 0.90651 0.56605 0.09771 0.0
H602 H 0.84776 0.45326 0.09979 0.0
O603 O 0.49357 0.53558 0.07968 0.0
O604 O 0.48823 0.54426 0.05463 0.0
H605 H 0.73686 0.4869 0.03364 0.0
H606 H 0.82968 0.41003 0.04024 0.0
C607 C 0.80478 0.4849 0.03995 0.0
H608 H 0.86002 0.52677 0.034 0.0
H609 H 0.51147 0.56384 0.02132 0.0
O610 O 0.60566 0.5688 0.10946 0.0
C611 C 0.4523 0.5183 0.06719 0.0
Co612 Co 0.63444 0.35787 0.33752 0.0
Co613 Co 0.61724 0.35606 0.3013 0.0
C614 C 0.48002 0.29354 0.32253 0.0
O615 O 0.49762 0.33857 0.33462 0.0
O616 O 0.4897 0.339 0.31023 0.0
C617 C 0.61375 0.38638 0.36999 0.0
O618 O 0.53502 0.43209 0.36667 0.0
C619 C 0.56199 0.45733 0.27369 0.0
C620 C 0.62474 0.36777 0.25585 0.0
C621 C 0.5769 0.45266 0.25823 0.0
N622 N 0.60057 0.37984 0.28018 0.0
N623 N 0.63588 0.32531 0.26938 0.0
C624 C 0.5115 0.53452 0.28215 0.0
H625 H 0.51202 0.52038 0.29449 0.0
H626 H 0.54445 0.60452 0.27976 0.0
H627 H 0.43686 0.53856 0.27812 0.0
C628 C 0.70197 0.55426 0.33045 0.0
N629 N 0.67329 0.46697 0.32619 0.0
N630 N 0.67708 0.46135 0.31128 0.0
C631 C 0.71448 0.54268 0.30577 0.0
C632 C 0.72772 0.60568 0.31766 0.0
C633 C 0.70695 0.58734 0.34651 0.0
H634 H 0.67408 0.53536 0.35419 0.0
H635 H 0.66957 0.65644 0.34772 0.0
H636 H 0.78244 0.59782 0.34979 0.0
O637 O 0.70002 0.24358 0.32968 0.0
O638 O 0.69132 0.23825 0.30462 0.0
H639 H 0.74865 0.48687 0.28364 0.0
H640 H 0.82553 0.5797 0.29024 0.0
C641 C 0.75066 0.55478 0.28995 0.0
H642 H 0.70877 0.61003 0.284 0.0
H643 H 0.67171 0.26148 0.27132 0.0
O644 O 0.66677 0.35563 0.35946 0.0
C645 C 0.71731 0.20232 0.31718 0.0
Co646 Co 0.87773 0.38446 0.58752 0.0
Co647 Co 0.87955 0.36729 0.5513 0.0
C648 C 0.94206 0.23004 0.57253 0.0
O649 O 0.89704 0.24764 0.58462 0.0
O650 O 0.8966 0.23973 0.56023 0.0
C651 C 0.84925 0.36375 0.61999 0.0
O652 O 0.80362 0.28498 0.61667 0.0
C653 C 0.77829 0.31204 0.52369 0.0
C654 C 0.86783 0.3748 0.50585 0.0
C655 C 0.78295 0.32696 0.50823 0.0
N656 N 0.85577 0.35062 0.53018 0.0
N657 N 0.9103 0.38593 0.51938 0.0
C658 C 0.70109 0.26154 0.53215 0.0
H659 H 0.71524 0.26206 0.54449 0.0
H660 H 0.6311 0.2945 0.52976 0.0
H661 H 0.69705 0.18691 0.52812 0.0
C662 C 0.68133 0.45193 0.58045 0.0
N663 N 0.76864 0.42331 0.57618 0.0
N664 N 0.77427 0.42712 0.56128 0.0
C665 C 0.69293 0.46449 0.55577 0.0
C666 C 0.62989 0.47764 0.56766 0.0
C667 C 0.64823 0.45685 0.59651 0.0
H668 H 0.70017 0.42387 0.60419 0.0
H669 H 0.57909 0.41955 0.59771 0.0
H670 H 0.63784 0.53234 0.59979 0.0
O671 O 0.99203 0.45002 0.57968 0.0
O672 O -0.00263 0.44134 0.55463 0.0
H673 H 0.74874 0.49871 0.53364 0.0
H674 H 0.65592 0.57558 0.54024 0.0
C675 C 0.68083 0.5007 0.53995 0.0
H676 H 0.62558 0.45883 0.534 0.0
H677 H 0.97413 0.42177 0.52132 0.0
O678 O 0.87994 0.41681 0.60946 0.0
C679 C 0.0333 0.4673 0.56719 0.0
Co680 Co 0.85117 0.35784 0.66823 0.0
Co681 Co 0.86832 0.35608 0.70445 0.0
C682 C 0.00558 0.29354 0.68323 0.0
O683 O 0.98799 0.33857 0.67114 0.0
O684 O -0.00411 0.33899 0.69553 0.0
C685 C 0.87185 0.38638 0.63576 0.0
O686 O 0.95052 0.43217 0.63908 0.0
C687 C 0.92353 0.45753 0.73204 0.0
C688 C 0.86063 0.36817 0.74991 0.0
C689 C 0.90839 0.45306 0.74749 0.0
N690 N 0.88496 0.37998 0.72557 0.0
N691 N 0.84957 0.32558 0.73638 0.0
C692 C 0.97411 0.53461 0.72358 0.0
H693 H 0.97362 0.52037 0.71123 0.0
H694 H 0.9412 0.60465 0.72594 0.0
H695 H 0.04874 0.53862 0.7276 0.0
C696 C 0.78361 0.55425 0.67529 0.0
N697 N 0.81229 0.46696 0.67956 0.0
N698 N 0.80849 0.46134 0.69446 0.0
C699 C 0.77108 0.54267 0.69997 0.0
C700 C 0.75786 0.60567 0.68808 0.0
C701 C 0.77861 0.58732 0.65923 0.0
H702 H 0.81139 0.5353 0.65155 0.0
H703 H 0.81605 0.65638 0.65802 0.0
H704 H 0.70311 0.59787 0.65597 0.0
O705 O 0.78559 0.24357 0.67608 0.0
O706 O 0.79425 0.23825 0.70114 0.0
H707 H 0.73679 0.48684 0.7221 0.0
H708 H 0.66001 0.57975 0.7155 0.0
C709 C 0.73487 0.55478 0.7158 0.0
H710 H 0.77679 0.60996 0.72175 0.0
H711 H 0.81375 0.26172 0.73445 0.0
O712 O 0.81886 0.35557 0.64629 0.0
C713 C 0.76828 0.20232 0.68857 0.0
Co714 Co 0.87776 0.60115 0.91823 0.0
Co715 Co 0.87953 0.61829 0.95445 0.0
C716 C 0.94206 0.75556 0.93323 0.0
O717 O 0.89704 0.73797 0.92114 0.0
O718 O 0.8966 0.74585 0.94553 0.0
C719 C 0.84925 0.62184 0.88576 0.0
O720 O 0.80355 0.70057 0.88908 0.0
C721 C 0.77808 0.67348 0.98204 0.0
C722 C 0.86743 0.61058 0.99991 0.0
C723 C 0.78254 0.65833 0.99749 0.0
N724 N 0.85563 0.63491 0.97557 0.0
N725 N 0.91003 0.59952 0.98638 0.0
C726 C 0.701 0.72407 0.97358 0.0
H727 H 0.71525 0.72359 0.96124 0.0
H728 H 0.63096 0.69115 0.97594 0.0
H729 H 0.69699 0.79869 0.97761 0.0
C730 C 0.68134 0.53365 0.9253 0.0
N731 N 0.76865 0.56228 0.92956 0.0
N732 N 0.77427 0.55845 0.94446 0.0
C733 C 0.69293 0.52107 0.94997 0.0
C734 C 0.62989 0.50794 0.93809 0.0
C735 C 0.64825 0.52872 0.90924 0.0
H736 H 0.70023 0.56162 0.90155 0.0
H737 H 0.57914 0.56608 0.90803 0.0
H738 H 0.6378 0.45323 0.90596 0.0
O739 O 0.99204 0.53559 0.92608 0.0
O740 O -0.00263 0.54424 0.95113 0.0
H741 H 0.74877 0.48674 0.9721 0.0
H742 H 0.65586 0.40997 0.9655 0.0
C743 C 0.68083 0.48482 0.9658 0.0
H744 H 0.62564 0.52672 0.97176 0.0
H745 H 0.97389 0.5637 0.98445 0.0
O746 O 0.88 0.56882 0.8963 0.0
C747 C 0.0333 0.51829 0.93857 0.0
Co748 Co 0.63443 0.62776 0.16823 0.0
Co749 Co 0.61728 0.62952 0.20445 0.0
C750 C 0.48002 0.69207 0.18323 0.0
O751 O 0.49762 0.64704 0.17114 0.0
O752 O 0.48972 0.64661 0.19553 0.0
C753 C 0.61376 0.59923 0.13576 0.0
O754 O 0.53508 0.55344 0.13908 0.0
C755 C 0.56207 0.52808 0.23204 0.0
C756 C 0.62497 0.61743 0.24991 0.0
C757 C 0.57721 0.53254 0.24749 0.0
N758 N 0.60065 0.60563 0.22557 0.0
N759 N 0.63603 0.66003 0.23638 0.0
C760 C 0.51149 0.45099 0.22358 0.0
H761 H 0.51198 0.46524 0.21123 0.0
H762 H 0.54441 0.38096 0.22594 0.0
H763 H 0.43686 0.44698 0.2276 0.0
C764 C 0.702 0.43136 0.17529 0.0
N765 N 0.67331 0.51865 0.17956 0.0
N766 N 0.67712 0.52426 0.19446 0.0
C767 C 0.71452 0.44293 0.19997 0.0
C768 C 0.72774 0.37993 0.18808 0.0
C769 C 0.70699 0.39829 0.15923 0.0
H770 H 0.6742 0.45031 0.15155 0.0
H771 H 0.66955 0.32922 0.15802 0.0
H772 H 0.78248 0.38774 0.15597 0.0
O773 O 0.70001 0.74203 0.17608 0.0
O774 O 0.69135 0.74735 0.20114 0.0
H775 H 0.74881 0.49877 0.2221 0.0
H776 H 0.82559 0.40586 0.2155 0.0
C777 C 0.75074 0.43083 0.2158 0.0
H778 H 0.70882 0.37564 0.22175 0.0
H779 H 0.67185 0.72389 0.23445 0.0
O780 O 0.66674 0.63004 0.14629 0.0
C781 C 0.71732 0.78328 0.18857 0.0
Co782 Co 0.60785 0.38445 0.41823 0.0
Co783 Co 0.60607 0.36732 0.45445 0.0
C784 C 0.54354 0.23005 0.43323 0.0
O785 O 0.58856 0.24764 0.42114 0.0
O786 O 0.589 0.23975 0.44553 0.0
C787 C 0.63635 0.36377 0.38576 0.0
O788 O 0.68205 0.28504 0.38908 0.0
C789 C 0.70752 0.31212 0.48204 0.0
C790 C 0.61817 0.37503 0.49991 0.0
C791 C 0.70306 0.32727 0.49749 0.0
N792 N 0.62997 0.35069 0.47557 0.0
N793 N 0.57557 0.38609 0.48638 0.0
C794 C 0.7846 0.26154 0.47358 0.0
H795 H 0.77035 0.26202 0.46124 0.0
H796 H 0.85464 0.29446 0.47594 0.0
H797 H 0.78862 0.18691 0.47761 0.0
C798 C 0.80426 0.45195 0.4253 0.0
N799 N 0.71696 0.42332 0.42956 0.0
N800 N 0.71133 0.42715 0.44446 0.0
C801 C 0.79267 0.46453 0.44997 0.0
C802 C 0.85571 0.47767 0.43809 0.0
C803 C 0.83735 0.45689 0.40924 0.0
H804 H 0.78537 0.42399 0.40155 0.0
H805 H 0.90646 0.41953 0.40803 0.0
H806 H 0.84781 0.53238 0.40596 0.0
O807 O 0.49356 0.45002 0.42608 0.0
O808 O 0.48824 0.44137 0.45113 0.0
H809 H 0.73683 0.49887 0.4721 0.0
H810 H 0.82974 0.57564 0.4655 0.0
C811 C 0.80477 0.50078 0.4658 0.0
H812 H 0.85996 0.45888 0.47176 0.0
H813 H 0.51171 0.42191 0.48445 0.0
O814 O 0.6056 0.41678 0.3963 0.0
C815 C 0.4523 0.46732 0.43857 0.0
Co816 Co 0.13444 0.35787 0.16823 0.0
Co817 Co 0.11725 0.35606 0.20445 0.0
C818 C 0.98002 0.29354 0.18322 0.0
O819 O -0.00238 0.33857 0.17113 0.0
O820 O 0.9897 0.339 0.19552 0.0
C821 C 0.11374 0.38637 0.13576 0.0
O822 O 0.035 0.43204 0.13908 0.0
C823 C 0.06199 0.45732 0.23206 0.0
C824 C 0.12474 0.36777 0.24991 0.0
C825 C 0.07691 0.45266 0.24752 0.0
N826 N 0.10057 0.37984 0.22557 0.0
N827 N 0.13588 0.32531 0.23637 0.0
C828 C 0.0115 0.53452 0.22361 0.0
H829 H 0.01203 0.52038 0.21126 0.0
H830 H 0.04446 0.60452 0.22599 0.0
H831 H 0.93686 0.53856 0.22763 0.0
C832 C 0.20196 0.55426 0.1753 0.0
N833 N 0.17329 0.46697 0.17957 0.0
N834 N 0.17709 0.46135 0.19447 0.0
C835 C 0.21448 0.54268 0.19998 0.0
C836 C 0.22771 0.60568 0.18809 0.0
C837 C 0.20692 0.58735 0.15924 0.0
H838 H 0.17401 0.53538 0.15156 0.0
H839 H 0.16957 0.65646 0.15803 0.0
H840 H 0.28241 0.5978 0.15596 0.0
O841 O 0.20002 0.24358 0.17607 0.0
O842 O 0.19132 0.23825 0.20113 0.0
H843 H 0.24865 0.48687 0.22211 0.0
H844 H 0.32553 0.5797 0.21551 0.0
C845 C 0.25066 0.55479 0.2158 0.0
H846 H 0.20878 0.61003 0.22175 0.0
H847 H 0.17171 0.26147 0.23443 0.0
O848 O 0.16678 0.35564 0.14629 0.0
C849 C 0.2173 0.20232 0.18857 0.0
Co850 Co 0.37774 0.38444 0.91823 0.0
Co851 Co 0.37955 0.36726 0.95445 0.0
C852 C 0.44207 0.23003 0.93322 0.0
O853 O 0.39704 0.24762 0.92113 0.0
O854 O 0.39661 0.23971 0.94552 0.0
C855 C 0.34924 0.36375 0.88576 0.0
O856 O 0.30356 0.285 0.88908 0.0
C857 C 0.27828 0.31202 0.98206 0.0
C858 C 0.36783 0.37476 0.99991 0.0
C859 C 0.28295 0.32693 0.99752 0.0
N860 N 0.35577 0.35059 0.97557 0.0
N861 N 0.41029 0.3859 0.98637 0.0
C862 C 0.20108 0.26152 0.97361 0.0
H863 H 0.21522 0.26204 0.96126 0.0
H864 H 0.13109 0.29448 0.97599 0.0
H865 H 0.19705 0.18688 0.97763 0.0
C866 C 0.18135 0.45198 0.9253 0.0
N867 N 0.26865 0.4233 0.92957 0.0
N868 N 0.27427 0.4271 0.94447 0.0
C869 C 0.19294 0.4645 0.94998 0.0
C870 C 0.12994 0.47773 0.93809 0.0
C871 C 0.14827 0.45693 0.90924 0.0
H872 H 0.20023 0.42402 0.90156 0.0
H873 H 0.07915 0.41958 0.90803 0.0
H874 H 0.13782 0.53242 0.90596 0.0
O875 O 0.49203 0.45003 0.92607 0.0
O876 O 0.49736 0.44134 0.95113 0.0
H877 H 0.24876 0.49868 0.97211 0.0
H878 H 0.15592 0.57556 0.96551 0.0
C879 C 0.18084 0.50068 0.9658 0.0
H880 H 0.1256 0.4588 0.97175 0.0
H881 H 0.47413 0.42173 0.98443 0.0
O882 O 0.37997 0.41678 0.89629 0.0
C883 C 0.53329 0.46732 0.93857 0.0
Co884 Co 0.35117 0.62774 0.66823 0.0
Co885 Co 0.36836 0.62954 0.70445 0.0
C886 C 0.50558 0.69207 0.68322 0.0
O887 O 0.48798 0.64704 0.67113 0.0
O888 O 0.4959 0.64661 0.69552 0.0
C889 C 0.37186 0.59924 0.63576 0.0
O890 O 0.45061 0.55357 0.63908 0.0
C891 C 0.42361 0.52828 0.73206 0.0
C892 C 0.36086 0.61784 0.74991 0.0
C893 C 0.4087 0.53295 0.74752 0.0
N894 N 0.38503 0.60577 0.72557 0.0
N895 N 0.34972 0.66029 0.73637 0.0
C896 C 0.4741 0.45108 0.72361 0.0
H897 H 0.47358 0.46522 0.71126 0.0
H898 H 0.44115 0.38109 0.72599 0.0
H899 H 0.54874 0.44705 0.72763 0.0
C900 C 0.28364 0.43134 0.6753 0.0
N901 N 0.31231 0.51864 0.67957 0.0
N902 N 0.30852 0.52426 0.69447 0.0
C903 C 0.27112 0.44293 0.69998 0.0
C904 C 0.25789 0.37992 0.68809 0.0
C905 C 0.27869 0.39826 0.65924 0.0
H906 H 0.3116 0.45023 0.65156 0.0
H907 H 0.31603 0.32914 0.65803 0.0
H908 H 0.2032 0.38781 0.65596 0.0
O909 O 0.28559 0.74202 0.67607 0.0
O910 O 0.29428 0.74736 0.70113 0.0
H911 H 0.23695 0.49874 0.72211 0.0
H912 H 0.16007 0.40591 0.71551 0.0
C913 C 0.23494 0.43082 0.7158 0.0
H914 H 0.27683 0.37558 0.72175 0.0
H915 H 0.31389 0.72413 0.73443 0.0
O916 O 0.31883 0.62996 0.64629 0.0
C917 C 0.2683 0.78328 0.68857 0.0
Co918 Co 0.10786 0.60116 0.41823 0.0
Co919 Co 0.10605 0.61835 0.45445 0.0
C920 C 0.04354 0.75558 0.43322 0.0
O921 O 0.08857 0.73798 0.42113 0.0
O922 O 0.08899 0.7459 0.44552 0.0
C923 C 0.13636 0.62186 0.38576 0.0
O924 O 0.18204 0.7006 0.38908 0.0
C925 C 0.20732 0.67359 0.48206 0.0
C926 C 0.11777 0.61084 0.49991 0.0
C927 C 0.20265 0.65867 0.49752 0.0
N928 N 0.12983 0.63501 0.47557 0.0
N929 N 0.07531 0.59971 0.48637 0.0
C930 C 0.28452 0.72408 0.47361 0.0
H931 H 0.27038 0.72356 0.46126 0.0
H932 H 0.35451 0.69113 0.47599 0.0
H933 H 0.28855 0.79872 0.47763 0.0
C934 C 0.30425 0.53363 0.4253 0.0
N935 N 0.21696 0.56231 0.42957 0.0
N936 N 0.21133 0.55851 0.44447 0.0
C937 C 0.29266 0.5211 0.44998 0.0
C938 C 0.35567 0.50788 0.43809 0.0
C939 C 0.33734 0.52868 0.40924 0.0
H940 H 0.28537 0.56159 0.40156 0.0
H941 H 0.40646 0.56603 0.40803 0.0
H942 H 0.34778 0.45319 0.40596 0.0
O943 O -0.00643 0.53558 0.42607 0.0
O944 O 0.98824 0.54427 0.45113 0.0
H945 H 0.23685 0.48692 0.47211 0.0
H946 H 0.32968 0.41005 0.46551 0.0
C947 C 0.30477 0.48492 0.4658 0.0
H948 H 0.36 0.52681 0.47175 0.0
H949 H 0.01147 0.56387 0.48443 0.0
O950 O 0.10563 0.56883 0.39629 0.0
C951 C 0.95232 0.51828 0.43857 0.0
Co952 Co 0.13443 0.62776 0.33752 0.0
Co953 Co 0.11728 0.62952 0.3013 0.0
C954 C 0.98003 0.69207 0.32252 0.0
O955 O -0.00238 0.64704 0.33461 0.0
O956 O 0.98972 0.64661 0.31022 0.0
C957 C 0.11375 0.59925 0.36999 0.0
O958 O 0.03505 0.55349 0.36667 0.0
C959 C 0.06208 0.52808 0.27371 0.0
C960 C 0.12497 0.61743 0.25584 0.0
C961 C 0.07721 0.53254 0.25826 0.0
N962 N 0.10065 0.60563 0.28018 0.0
N963 N 0.13603 0.66003 0.26937 0.0
C964 C 0.01149 0.45099 0.28218 0.0
H965 H 0.01199 0.46524 0.29452 0.0
H966 H 0.04441 0.38096 0.27981 0.0
H967 H 0.93686 0.44698 0.27815 0.0
C968 C 0.20199 0.43136 0.33046 0.0
N969 N 0.17331 0.51865 0.32619 0.0
N970 N 0.17712 0.52426 0.31129 0.0
C971 C 0.21453 0.44293 0.30578 0.0
C972 C 0.22774 0.37993 0.31767 0.0
C973 C 0.20696 0.39828 0.34652 0.0
H974 H 0.17413 0.45029 0.3542 0.0
H975 H 0.16955 0.3292 0.34773 0.0
H976 H 0.28245 0.38776 0.34979 0.0
O977 O 0.20001 0.74203 0.32967 0.0
O978 O 0.19135 0.74735 0.30462 0.0
H979 H 0.24881 0.49877 0.28365 0.0
H980 H 0.32559 0.40586 0.29025 0.0
C981 C 0.25074 0.43083 0.28996 0.0
H982 H 0.20882 0.37564 0.284 0.0
H983 H 0.17185 0.72389 0.2713 0.0
O984 O 0.16675 0.63003 0.35946 0.0
C985 C 0.21732 0.78328 0.31718 0.0
Co986 Co 0.10784 0.38444 0.08752 0.0
Co987 Co 0.10607 0.36729 0.0513 0.0
C988 C 0.04354 0.23003 0.07252 0.0
O989 O 0.08856 0.24762 0.08461 0.0
O990 O 0.08899 0.23973 0.06022 0.0
C991 C 0.13635 0.36376 0.11999 0.0
O992 O 0.18211 0.28506 0.11668 0.0
C993 C 0.20752 0.3121 0.02371 0.0
C994 C 0.11817 0.375 0.00584 0.0
C995 C 0.20306 0.32724 0.00826 0.0
N996 N 0.12997 0.35067 0.03018 0.0
N997 N 0.07557 0.38605 0.01937 0.0
C998 C 0.28461 0.26152 0.03218 0.0
H999 H 0.27036 0.26201 0.04452 0.0
H1000 H 0.35465 0.29443 0.02981 0.0
H1001 H 0.28862 0.18689 0.02815 0.0
C1002 C 0.30424 0.452 0.08046 0.0
N1003 N 0.21695 0.42332 0.07619 0.0
N1004 N 0.21133 0.42713 0.06129 0.0
C1005 C 0.29266 0.46454 0.05578 0.0
C1006 C 0.35566 0.47775 0.06767 0.0
C1007 C 0.33732 0.45697 0.09652 0.0
H1008 H 0.28531 0.42413 0.1042 0.0
H1009 H 0.4064 0.41956 0.09773 0.0
H1010 H 0.34783 0.53246 0.09979 0.0
O1011 O -0.00644 0.45002 0.07968 0.0
O1012 O 0.98825 0.44137 0.05462 0.0
H1013 H 0.23682 0.49884 0.03365 0.0
H1014 H 0.32973 0.57562 0.04025 0.0
C1015 C 0.30476 0.50076 0.03996 0.0
H1016 H 0.35994 0.45885 0.034 0.0
H1017 H 0.01171 0.42187 0.0213 0.0
O1018 O 0.10557 0.41675 0.10946 0.0
C1019 C 0.95232 0.46733 0.06718 0.0
Co1020 Co 0.35117 0.35784 0.83752 0.0
Co1021 Co 0.36832 0.35608 0.8013 0.0
C1022 C 0.50558 0.29354 0.82252 0.0
O1023 O 0.48799 0.33857 0.83461 0.0
O1024 O 0.49588 0.33899 0.81022 0.0
C1025 C 0.37185 0.38636 0.86999 0.0
O1026 O 0.45055 0.43211 0.86667 0.0
C1027 C 0.42353 0.45753 0.77371 0.0
C1028 C 0.36063 0.36817 0.75584 0.0
C1029 C 0.40839 0.45306 0.75826 0.0
N1030 N 0.38495 0.37998 0.78018 0.0
N1031 N 0.34957 0.32558 0.76937 0.0
C1032 C 0.47411 0.53461 0.78218 0.0
H1033 H 0.47362 0.52037 0.79452 0.0
H1034 H 0.44119 0.60465 0.77981 0.0
H1035 H 0.54874 0.53862 0.77815 0.0
C1036 C 0.28362 0.55425 0.83046 0.0
N1037 N 0.31229 0.46696 0.82619 0.0
N1038 N 0.30848 0.46134 0.81129 0.0
C1039 C 0.27108 0.54267 0.80578 0.0
C1040 C 0.25786 0.60568 0.81767 0.0
C1041 C 0.27865 0.58732 0.84652 0.0
H1042 H 0.31148 0.53532 0.8542 0.0
H1043 H 0.31605 0.65641 0.84773 0.0
H1044 H 0.20315 0.59784 0.84979 0.0
O1045 O 0.28559 0.24357 0.82967 0.0
O1046 O 0.29425 0.23825 0.80462 0.0
H1047 H 0.23679 0.48684 0.78365 0.0
H1048 H 0.16001 0.57975 0.79025 0.0
C1049 C 0.23486 0.55478 0.78996 0.0
H1050 H 0.27678 0.60996 0.784 0.0
H1051 H 0.31375 0.26171 0.7713 0.0
O1052 O 0.31885 0.35558 0.85946 0.0
C1053 C 0.26828 0.20232 0.81718 0.0
Co1054 Co 0.37777 0.60117 0.58752 0.0
Co1055 Co 0.37953 0.61831 0.5513 0.0
C1056 C 0.44207 0.75557 0.57252 0.0
O1057 O 0.39704 0.73799 0.58461 0.0
O1058 O 0.39661 0.74588 0.56022 0.0
C1059 C 0.34925 0.62185 0.61999 0.0
O1060 O 0.30349 0.70055 0.61668 0.0
C1061 C 0.27808 0.67351 0.52371 0.0
C1062 C 0.36743 0.61061 0.50584 0.0
C1063 C 0.28254 0.65836 0.50826 0.0
N1064 N 0.35563 0.63494 0.53018 0.0
N1065 N 0.41003 0.59955 0.51937 0.0
C1066 C 0.20099 0.72409 0.53218 0.0
H1067 H 0.21524 0.7236 0.54452 0.0
H1068 H 0.13096 0.69117 0.52981 0.0
H1069 H 0.19698 0.79872 0.52815 0.0
C1070 C 0.18137 0.53361 0.58046 0.0
N1071 N 0.26866 0.56229 0.57619 0.0
N1072 N 0.27427 0.55847 0.56129 0.0
C1073 C 0.19294 0.52106 0.55578 0.0
C1074 C 0.12994 0.50785 0.56767 0.0
C1075 C 0.14829 0.52864 0.59652 0.0
H1076 H 0.20029 0.56147 0.6042 0.0
H1077 H 0.07921 0.56605 0.59773 0.0
H1078 H 0.13777 0.45315 0.59979 0.0
O1079 O 0.49204 0.53558 0.57968 0.0
O1080 O 0.49736 0.54424 0.55462 0.0
H1081 H 0.24878 0.48676 0.53365 0.0
H1082 H 0.15587 0.40999 0.54025 0.0
C1083 C 0.18085 0.48484 0.53996 0.0
H1084 H 0.12566 0.52676 0.534 0.0
H1085 H 0.47389 0.56374 0.5213 0.0
O1086 O 0.38003 0.56885 0.60946 0.0
C1087 C 0.53329 0.51827 0.56718 0.0
loop_
_geom_bond_atom_site_label_1
_geom_bond_atom_site_label_2
_geom_bond_distance
_geom_bond_site_symmetry_2
_ccdc_geom_bond_type
Co0 O3 1.970 . S
Co0 N17 1.989 . S
Co0 O25 1.967 . S
Co0 O32 1.920 . S
Co1 O4 1.966 . S
Co1 N10 2.022 . S
Co1 N18 1.993 1_545 S
Co1 O26 1.941 . S
C2 O3 1.258 . S
C2 O4 1.263 . S
O3 Co0 1.970 . S
O3 C2 1.258 . S
O4 Co1 1.966 . S
O4 C2 1.263 . S
C5 O6 1.235 . S
C5 O32 1.289 . S
O6 C5 1.235 . S
C7 C9 1.400 . S
C7 N10 1.351 . S
C7 C12 1.501 . S
C8 C9 1.387 . S
C8 N11 1.341 . S
C9 C7 1.400 . S
C9 C8 1.387 . S
N10 Co1 2.022 . S
N10 C7 1.351 . S
N10 N11 1.365 . S
N11 C8 1.341 . S
N11 N10 1.365 . S
N11 H31 0.862 . S
C12 C7 1.501 . S
C12 H13 0.961 . S
C12 H14 0.961 . S
C12 H15 0.960 . S
H13 C12 0.961 . S
H14 C12 0.961 . S
H15 C12 0.960 . S
C16 N17 1.342 1_565 S
C16 C20 1.401 . S
C16 C21 1.499 . S
N17 Co0 1.989 . S
N17 C16 1.342 1_545 S
N17 N18 1.388 1_545 S
N18 Co1 1.993 1_565 S
N18 N17 1.388 1_565 S
N18 C19 1.346 . S
C19 N18 1.346 . S
C19 C20 1.396 . S
C19 C29 1.510 . S
C20 C16 1.401 . S
C20 C19 1.396 . S
C21 C16 1.499 . S
C21 H22 0.959 . S
C21 H23 0.960 . S
C21 H24 0.961 . S
H22 C21 0.959 . S
H23 C21 0.960 . S
H24 C21 0.961 . S
O25 Co0 1.967 . S
O25 C33 1.258 . S
O26 Co1 1.941 . S
O26 C33 1.266 . S
H27 C29 0.959 . S
H28 C29 0.961 . S
C29 C19 1.510 . S
C29 H27 0.959 . S
C29 H28 0.961 . S
C29 H30 0.960 . S
H30 C29 0.960 . S
H31 N11 0.862 . S
O32 Co0 1.920 . S
O32 C5 1.289 . S
C33 O25 1.258 . S
C33 O26 1.266 . S
Co34 O37 1.970 . S
Co34 N51 1.989 . S
Co34 O59 1.967 . S
Co34 O66 1.920 . S
Co35 O38 1.966 . S
Co35 N44 2.022 . S
Co35 N52 1.993 . S
Co35 O60 1.941 . S
C36 O37 1.258 . S
C36 O38 1.263 . S
O37 Co34 1.970 . S
O37 C36 1.258 . S
O38 Co35 1.966 . S
O38 C36 1.263 . S
C39 O40 1.235 . S
C39 O66 1.289 . S
O40 C39 1.235 . S
C41 C43 1.400 . S
C41 N44 1.351 . S
C41 C46 1.501 . S
C42 C43 1.387 . S
C42 N45 1.341 . S
C43 C41 1.400 . S
C43 C42 1.387 . S
N44 Co35 2.022 . S
N44 C41 1.351 . S
N44 N45 1.365 . S
N45 C42 1.341 . S
N45 N44 1.365 . S
N45 H65 0.862 1_545 S
C46 C41 1.501 . S
C46 H47 0.961 . S
C46 H48 0.961 . S
C46 H49 0.960 . S
H47 C46 0.961 . S
H48 C46 0.961 . S
H49 C46 0.960 . S
C50 N51 1.342 . S
C50 C54 1.401 . S
C50 C55 1.499 . S
N51 Co34 1.989 . S
N51 C50 1.342 . S
N51 N52 1.388 . S
N52 Co35 1.993 . S
N52 N51 1.388 . S
N52 C53 1.346 . S
C53 N52 1.346 . S
C53 C54 1.396 . S
C53 C63 1.510 . S
C54 C50 1.401 . S
C54 C53 1.396 . S
C55 C50 1.499 . S
C55 H56 0.959 . S
C55 H57 0.960 . S
C55 H58 0.961 1_545 S
H56 C55 0.959 . S
H57 C55 0.960 . S
H58 C55 0.961 1_565 S
O59 Co34 1.967 . S
O59 C67 1.258 1_445 S
O60 Co35 1.941 . S
O60 C67 1.266 1_445 S
H61 C63 0.959 1_565 S
H62 C63 0.961 . S
C63 C53 1.510 . S
C63 H61 0.959 1_545 S
C63 H62 0.961 . S
C63 H64 0.960 . S
H64 C63 0.960 . S
H65 N45 0.862 1_565 S
O66 Co34 1.920 . S
O66 C39 1.289 . S
C67 O59 1.258 1_665 S
C67 O60 1.266 1_665 S
Co68 O71 1.970 . S
Co68 N85 1.989 . S
Co68 O93 1.967 . S
Co68 O100 1.920 . S
Co69 O72 1.966 . S
Co69 N78 2.022 . S
Co69 N86 1.993 1_565 S
Co69 O94 1.941 . S
C70 O71 1.258 1_655 S
C70 O72 1.263 1_655 S
O71 Co68 1.970 . S
O71 C70 1.258 1_455 S
O72 Co69 1.966 . S
O72 C70 1.263 1_455 S
C73 O74 1.235 . S
C73 O100 1.289 . S
O74 C73 1.235 . S
C75 C77 1.400 . S
C75 N78 1.351 . S
C75 C80 1.501 1_455 S
C76 C77 1.387 . S
C76 N79 1.341 . S
C77 C75 1.400 . S
C77 C76 1.387 . S
N78 Co69 2.022 . S
N78 C75 1.351 . S
N78 N79 1.365 . S
N79 C76 1.341 . S
N79 N78 1.365 . S
N79 H99 0.862 . S
C80 C75 1.501 1_655 S
C80 H81 0.961 . S
C80 H82 0.961 . S
C80 H83 0.960 . S
H81 C80 0.961 . S
H82 C80 0.961 . S
H83 C80 0.960 . S
C84 N85 1.342 1_545 S
C84 C88 1.401 . S
C84 C89 1.499 . S
N85 Co68 1.989 . S
N85 C84 1.342 1_565 S
N85 N86 1.388 1_565 S
N86 Co69 1.993 1_545 S
N86 N85 1.388 1_545 S
N86 C87 1.346 . S
C87 N86 1.346 . S
C87 C88 1.396 . S
C87 C97 1.510 . S
C88 C84 1.401 . S
C88 C87 1.396 . S
C89 C84 1.499 . S
C89 H90 0.959 . S
C89 H91 0.960 . S
C89 H92 0.961 . S
H90 C89 0.959 . S
H91 C89 0.960 . S
H92 C89 0.961 . S
O93 Co68 1.967 . S
O93 C101 1.258 . S
O94 Co69 1.941 . S
O94 C101 1.266 . S
H95 C97 0.959 . S
H96 C97 0.961 . S
C97 C87 1.510 . S
C97 H95 0.959 . S
C97 H96 0.961 . S
C97 H98 0.960 . S
H98 C97 0.960 . S
H99 N79 0.862 . S
O100 Co68 1.920 . S
O100 C73 1.289 . S
C101 O93 1.258 . S
C101 O94 1.266 . S
Co102 O105 1.970 . S
Co102 N119 1.989 . S
Co102 O127 1.967 . S
Co102 O134 1.920 . S
Co103 O106 1.966 . S
Co103 N112 2.022 . S
Co103 N120 1.993 . S
Co103 O128 1.941 . S
C104 O105 1.258 . S
C104 O106 1.263 . S
O105 Co102 1.970 . S
O105 C104 1.258 . S
O106 Co103 1.966 . S
O106 C104 1.263 . S
C107 O108 1.235 . S
C107 O134 1.289 . S
O108 C107 1.235 . S
C109 C111 1.400 . S
C109 N112 1.351 . S
C109 C114 1.501 . S
C110 C111 1.387 . S
C110 N113 1.341 . S
C111 C109 1.400 . S
C111 C110 1.387 . S
N112 Co103 2.022 . S
N112 C109 1.351 . S
N112 N113 1.365 . S
N113 C110 1.341 . S
N113 N112 1.365 . S
N113 H133 0.862 1_565 S
C114 C109 1.501 . S
C114 H115 0.961 . S
C114 H116 0.961 . S
C114 H117 0.960 . S
H115 C114 0.961 . S
H116 C114 0.961 . S
H117 C114 0.960 . S
C118 N119 1.342 . S
C118 C122 1.401 . S
C118 C123 1.499 . S
N119 Co102 1.989 . S
N119 C118 1.342 . S
N119 N120 1.388 . S
N120 Co103 1.993 . S
N120 N119 1.388 . S
N120 C121 1.346 . S
C121 N120 1.346 . S
C121 C122 1.396 . S
C121 C131 1.510 . S
C122 C118 1.401 . S
C122 C121 1.396 . S
C123 C118 1.499 . S
C123 H124 0.959 . S
C123 H125 0.960 . S
C123 H126 0.961 1_565 S
H124 C123 0.959 . S
H125 C123 0.960 . S
H126 C123 0.961 1_545 S
O127 Co102 1.967 . S
O127 C135 1.258 1_565 S
O128 Co103 1.941 . S
O128 C135 1.266 1_565 S
H129 C131 0.959 1_545 S
H130 C131 0.961 . S
C131 C121 1.510 . S
C131 H129 0.959 1_565 S
C131 H130 0.961 . S
C131 H132 0.960 . S
H132 C131 0.960 . S
H133 N113 0.862 1_545 S
O134 Co102 1.920 . S
O134 C107 1.289 . S
C135 O127 1.258 1_545 S
C135 O128 1.266 1_545 S
Co136 O139 1.970 . S
Co136 N153 1.989 . S
Co136 O161 1.967 . S
Co136 O168 1.920 . S
Co137 O140 1.966 . S
Co137 N146 2.022 . S
Co137 N154 1.993 1_565 S
Co137 O162 1.941 . S
C138 O139 1.258 . S
C138 O140 1.263 . S
O139 Co136 1.970 . S
O139 C138 1.258 . S
O140 Co137 1.966 . S
O140 C138 1.263 . S
C141 O142 1.235 . S
C141 O168 1.289 . S
O142 C141 1.235 . S
C143 C145 1.400 . S
C143 N146 1.351 . S
C143 C148 1.501 . S
C144 C145 1.387 . S
C144 N147 1.341 . S
C145 C143 1.400 . S
C145 C144 1.387 . S
N146 Co137 2.022 . S
N146 C143 1.351 . S
N146 N147 1.365 . S
N147 C144 1.341 . S
N147 N146 1.365 . S
N147 H167 0.862 . S
C148 C143 1.501 . S
C148 H149 0.961 . S
C148 H150 0.961 . S
C148 H151 0.960 . S
H149 C148 0.961 . S
H150 C148 0.961 . S
H151 C148 0.960 . S
C152 N153 1.342 1_545 S
C152 C156 1.401 . S
C152 C157 1.499 . S
N153 Co136 1.989 . S
N153 C152 1.342 1_565 S
N153 N154 1.388 1_565 S
N154 Co137 1.993 1_545 S
N154 N153 1.388 1_545 S
N154 C155 1.346 . S
C155 N154 1.346 . S
C155 C156 1.396 . S
C155 C165 1.510 . S
C156 C152 1.401 . S
C156 C155 1.396 . S
C157 C152 1.499 . S
C157 H158 0.959 . S
C157 H159 0.960 . S
C157 H160 0.961 . S
H158 C157 0.959 . S
H159 C157 0.960 . S
H160 C157 0.961 . S
O161 Co136 1.967 . S
O161 C169 1.258 . S
O162 Co137 1.941 . S
O162 C169 1.266 . S
H163 C165 0.959 . S
H164 C165 0.961 . S
C165 C155 1.510 . S
C165 H163 0.959 . S
C165 H164 0.961 . S
C165 H166 0.960 . S
H166 C165 0.960 . S
H167 N147 0.862 . S
O168 Co136 1.920 . S
O168 C141 1.289 . S
C169 O161 1.258 . S
C169 O162 1.266 . S
Co170 O173 1.970 . S
Co170 N187 1.989 . S
Co170 O195 1.967 . S
Co170 O202 1.920 . S
Co171 O174 1.966 . S
Co171 N180 2.022 . S
Co171 N188 1.993 . S
Co171 O196 1.941 . S
C172 O173 1.258 . S
C172 O174 1.263 . S
O173 Co170 1.970 . S
O173 C172 1.258 . S
O174 Co171 1.966 . S
O174 C172 1.263 . S
C175 O176 1.235 . S
C175 O202 1.289 . S
O176 C175 1.235 . S
C177 C179 1.400 . S
C177 N180 1.351 . S
C177 C182 1.501 . S
C178 C179 1.387 . S
C178 N181 1.341 . S
C179 C177 1.400 . S
C179 C178 1.387 . S
N180 Co171 2.022 . S
N180 C177 1.351 . S
N180 N181 1.365 . S
N181 C178 1.341 . S
N181 N180 1.365 . S
N181 H201 0.862 1_545 S
C182 C177 1.501 . S
C182 H183 0.961 . S
C182 H184 0.961 . S
C182 H185 0.960 . S
H183 C182 0.961 . S
H184 C182 0.961 . S
H185 C182 0.960 . S
C186 N187 1.342 . S
C186 C190 1.401 . S
C186 C191 1.499 . S
N187 Co170 1.989 . S
N187 C186 1.342 . S
N187 N188 1.388 . S
N188 Co171 1.993 . S
N188 N187 1.388 . S
N188 C189 1.346 . S
C189 N188 1.346 . S
C189 C190 1.396 . S
C189 C199 1.510 . S
C190 C186 1.401 . S
C190 C189 1.396 . S
C191 C186 1.499 . S
C191 H192 0.959 . S
C191 H193 0.960 . S
C191 H194 0.961 1_545 S
H192 C191 0.959 . S
H193 C191 0.960 . S
H194 C191 0.961 1_565 S
O195 Co170 1.967 . S
O195 C203 1.258 1_545 S
O196 Co171 1.941 . S
O196 C203 1.266 1_545 S
H197 C199 0.959 1_565 S
H198 C199 0.961 . S
C199 C189 1.510 . S
C199 H197 0.959 1_545 S
C199 H198 0.961 . S
C199 H200 0.960 . S
H200 C199 0.960 . S
H201 N181 0.862 1_565 S
O202 Co170 1.920 . S
O202 C175 1.289 . S
C203 O195 1.258 1_565 S
C203 O196 1.266 1_565 S
Co204 O207 1.970 . S
Co204 N221 1.989 . S
Co204 O229 1.967 . S
Co204 O236 1.920 . S
Co205 O208 1.966 . S
Co205 N214 2.022 . S
Co205 N222 1.993 1_545 S
Co205 O230 1.941 . S
C206 O207 1.258 1_655 S
C206 O208 1.263 1_655 S
O207 Co204 1.970 . S
O207 C206 1.258 1_455 S
O208 Co205 1.966 . S
O208 C206 1.263 1_455 S
C209 O210 1.235 . S
C209 O236 1.289 . S
O210 C209 1.235 . S
C211 C213 1.400 . S
C211 N214 1.351 . S
C211 C216 1.501 1_455 S
C212 C213 1.387 . S
C212 N215 1.341 . S
C213 C211 1.400 . S
C213 C212 1.387 . S
N214 Co205 2.022 . S
N214 C211 1.351 . S
N214 N215 1.365 . S
N215 C212 1.341 . S
N215 N214 1.365 . S
N215 H235 0.862 . S
C216 C211 1.501 1_655 S
C216 H217 0.961 . S
C216 H218 0.961 . S
C216 H219 0.960 . S
H217 C216 0.961 . S
H218 C216 0.961 . S
H219 C216 0.960 . S
C220 N221 1.342 1_565 S
C220 C224 1.401 . S
C220 C225 1.499 . S
N221 Co204 1.989 . S
N221 C220 1.342 1_545 S
N221 N222 1.388 1_545 S
N222 Co205 1.993 1_565 S
N222 N221 1.388 1_565 S
N222 C223 1.346 . S
C223 N222 1.346 . S
C223 C224 1.396 . S
C223 C233 1.510 . S
C224 C220 1.401 . S
C224 C223 1.396 . S
C225 C220 1.499 . S
C225 H226 0.959 . S
C225 H227 0.960 . S
C225 H228 0.961 . S
H226 C225 0.959 . S
H227 C225 0.960 . S
H228 C225 0.961 . S
O229 Co204 1.967 . S
O229 C237 1.258 . S
O230 Co205 1.941 . S
O230 C237 1.266 . S
H231 C233 0.959 . S
H232 C233 0.961 . S
C233 C223 1.510 . S
C233 H231 0.959 . S
C233 H232 0.961 . S
C233 H234 0.960 . S
H234 C233 0.960 . S
H235 N215 0.862 . S
O236 Co204 1.920 . S
O236 C209 1.289 . S
C237 O229 1.258 . S
C237 O230 1.266 . S
Co238 O241 1.970 . S
Co238 N255 1.989 . S
Co238 O263 1.967 . S
Co238 O270 1.920 . S
Co239 O242 1.966 . S
Co239 N248 2.022 . S
Co239 N256 1.993 . S
Co239 O264 1.941 . S
C240 O241 1.258 . S
C240 O242 1.263 . S
O241 Co238 1.970 . S
O241 C240 1.258 . S
O242 Co239 1.966 . S
O242 C240 1.263 . S
C243 O244 1.235 . S
C243 O270 1.289 . S
O244 C243 1.235 . S
C245 C247 1.400 . S
C245 N248 1.351 . S
C245 C250 1.501 . S
C246 C247 1.387 . S
C246 N249 1.341 . S
C247 C245 1.400 . S
C247 C246 1.387 . S
N248 Co239 2.022 . S
N248 C245 1.351 . S
N248 N249 1.365 . S
N249 C246 1.341 . S
N249 N248 1.365 . S
N249 H269 0.862 1_565 S
C250 C245 1.501 . S
C250 H251 0.961 . S
C250 H252 0.961 . S
C250 H253 0.960 . S
H251 C250 0.961 . S
H252 C250 0.961 . S
H253 C250 0.960 . S
C254 N255 1.342 . S
C254 C258 1.401 . S
C254 C259 1.499 . S
N255 Co238 1.989 . S
N255 C254 1.342 . S
N255 N256 1.388 . S
N256 Co239 1.993 . S
N256 N255 1.388 . S
N256 C257 1.346 . S
C257 N256 1.346 . S
C257 C258 1.396 . S
C257 C267 1.510 . S
C258 C254 1.401 . S
C258 C257 1.396 . S
C259 C254 1.499 . S
C259 H260 0.959 . S
C259 H261 0.960 . S
C259 H262 0.961 1_565 S
H260 C259 0.959 . S
H261 C259 0.960 . S
H262 C259 0.961 1_545 S
O263 Co238 1.967 . S
O263 C271 1.258 1_465 S
O264 Co239 1.941 . S
O264 C271 1.266 1_465 S
H265 C267 0.959 1_545 S
H266 C267 0.961 . S
C267 C257 1.510 . S
C267 H265 0.959 1_565 S
C267 H266 0.961 . S
C267 H268 0.960 . S
H268 C267 0.960 . S
H269 N249 0.862 1_545 S
O270 Co238 1.920 . S
O270 C243 1.289 . S
C271 O263 1.258 1_645 S
C271 O264 1.266 1_645 S
Co272 O275 1.970 . S
Co272 N289 1.989 . S
Co272 O297 1.967 . S
Co272 O304 1.920 . S
Co273 O276 1.966 . S
Co273 N282 2.022 . S
Co273 N290 1.993 1_565 S
Co273 O298 1.941 . S
C274 O275 1.258 . S
C274 O276 1.263 . S
O275 Co272 1.970 . S
O275 C274 1.258 . S
O276 Co273 1.966 . S
O276 C274 1.263 . S
C277 O278 1.235 . S
C277 O304 1.289 . S
O278 C277 1.235 . S
C279 C281 1.400 . S
C279 N282 1.351 . S
C279 C284 1.501 . S
C280 C281 1.387 . S
C280 N283 1.341 . S
C281 C279 1.400 . S
C281 C280 1.387 . S
N282 Co273 2.022 . S
N282 C279 1.351 . S
N282 N283 1.365 . S
N283 C280 1.341 . S
N283 N282 1.365 . S
N283 H303 0.862 . S
C284 C279 1.501 . S
C284 H285 0.961 . S
C284 H286 0.961 . S
C284 H287 0.960 . S
H285 C284 0.961 . S
H286 C284 0.961 . S
H287 C284 0.960 . S
C288 N289 1.342 1_545 S
C288 C292 1.401 . S
C288 C293 1.499 . S
N289 Co272 1.989 . S
N289 C288 1.342 1_565 S
N289 N290 1.388 1_565 S
N290 Co273 1.993 1_545 S
N290 N289 1.388 1_545 S
N290 C291 1.346 . S
C291 N290 1.346 . S
C291 C292 1.396 . S
C291 C301 1.510 . S
C292 C288 1.401 . S
C292 C291 1.396 . S
C293 C288 1.499 . S
C293 H294 0.959 . S
C293 H295 0.960 . S
C293 H296 0.961 . S
H294 C293 0.959 . S
H295 C293 0.960 . S
H296 C293 0.961 . S
O297 Co272 1.967 . S
O297 C305 1.258 . S
O298 Co273 1.941 . S
O298 C305 1.266 . S
H299 C301 0.959 . S
H300 C301 0.961 . S
C301 C291 1.510 . S
C301 H299 0.959 . S
C301 H300 0.961 . S
C301 H302 0.960 . S
H302 C301 0.960 . S
H303 N283 0.862 . S
O304 Co272 1.920 . S
O304 C277 1.289 . S
C305 O297 1.258 . S
C305 O298 1.266 . S
Co306 O309 1.970 . S
Co306 N323 1.989 . S
Co306 O331 1.967 . S
Co306 O338 1.920 . S
Co307 O310 1.966 . S
Co307 N316 2.022 . S
Co307 N324 1.993 . S
Co307 O332 1.941 . S
C308 O309 1.258 . S
C308 O310 1.263 . S
O309 Co306 1.970 . S
O309 C308 1.258 . S
O310 Co307 1.966 . S
O310 C308 1.263 . S
C311 O312 1.235 . S
C311 O338 1.289 . S
O312 C311 1.235 . S
C313 C315 1.400 . S
C313 N316 1.351 . S
C313 C318 1.501 . S
C314 C315 1.387 . S
C314 N317 1.341 . S
C315 C313 1.400 . S
C315 C314 1.387 . S
N316 Co307 2.022 . S
N316 C313 1.351 . S
N316 N317 1.365 . S
N317 C314 1.341 . S
N317 N316 1.365 . S
N317 H337 0.862 1_565 S
C318 C313 1.501 . S
C318 H319 0.961 . S
C318 H320 0.961 . S
C318 H321 0.960 . S
H319 C318 0.961 . S
H320 C318 0.961 . S
H321 C318 0.960 . S
C322 N323 1.342 . S
C322 C326 1.401 . S
C322 C327 1.499 . S
N323 Co306 1.989 . S
N323 C322 1.342 . S
N323 N324 1.388 . S
N324 Co307 1.993 . S
N324 N323 1.388 . S
N324 C325 1.346 . S
C325 N324 1.346 . S
C325 C326 1.396 . S
C325 C335 1.510 . S
C326 C322 1.401 . S
C326 C325 1.396 . S
C327 C322 1.499 . S
C327 H328 0.959 . S
C327 H329 0.960 . S
C327 H330 0.961 1_565 S
H328 C327 0.959 . S
H329 C327 0.960 . S
H330 C327 0.961 1_545 S
O331 Co306 1.967 . S
O331 C339 1.258 1_665 S
O332 Co307 1.941 . S
O332 C339 1.266 1_665 S
H333 C335 0.959 1_545 S
H334 C335 0.961 . S
C335 C325 1.510 . S
C335 H333 0.959 1_565 S
C335 H334 0.961 . S
C335 H336 0.960 . S
H336 C335 0.960 . S
H337 N317 0.862 1_545 S
O338 Co306 1.920 . S
O338 C311 1.289 . S
C339 O331 1.258 1_445 S
C339 O332 1.266 1_445 S
Co340 O343 1.970 . S
Co340 N357 1.989 . S
Co340 O365 1.967 . S
Co340 O372 1.920 . S
Co341 O344 1.966 . S
Co341 N350 2.022 . S
Co341 N358 1.993 1_545 S
Co341 O366 1.941 . S
C342 O343 1.258 1_455 S
C342 O344 1.263 1_455 S
O343 Co340 1.970 . S
O343 C342 1.258 1_655 S
O344 Co341 1.966 . S
O344 C342 1.263 1_655 S
C345 O346 1.235 . S
C345 O372 1.289 . S
O346 C345 1.235 . S
C347 C349 1.400 . S
C347 N350 1.351 . S
C347 C352 1.501 1_655 S
C348 C349 1.387 . S
C348 N351 1.341 . S
C349 C347 1.400 . S
C349 C348 1.387 . S
N350 Co341 2.022 . S
N350 C347 1.351 . S
N350 N351 1.365 . S
N351 C348 1.341 . S
N351 N350 1.365 . S
N351 H371 0.862 . S
C352 C347 1.501 1_455 S
C352 H353 0.961 . S
C352 H354 0.961 . S
C352 H355 0.960 . S
H353 C352 0.961 . S
H354 C352 0.961 . S
H355 C352 0.960 . S
C356 N357 1.342 1_565 S
C356 C360 1.401 . S
C356 C361 1.499 . S
N357 Co340 1.989 . S
N357 C356 1.342 1_545 S
N357 N358 1.388 1_545 S
N358 Co341 1.993 1_565 S
N358 N357 1.388 1_565 S
N358 C359 1.346 . S
C359 N358 1.346 . S
C359 C360 1.396 . S
C359 C369 1.510 . S
C360 C356 1.401 . S
C360 C359 1.396 . S
C361 C356 1.499 . S
C361 H362 0.959 . S
C361 H363 0.960 . S
C361 H364 0.961 . S
H362 C361 0.959 . S
H363 C361 0.960 . S
H364 C361 0.961 . S
O365 Co340 1.967 . S
O365 C373 1.258 . S
O366 Co341 1.941 . S
O366 C373 1.266 . S
H367 C369 0.959 . S
H368 C369 0.961 . S
C369 C359 1.510 . S
C369 H367 0.959 . S
C369 H368 0.961 . S
C369 H370 0.960 . S
H370 C369 0.960 . S
H371 N351 0.862 . S
O372 Co340 1.920 . S
O372 C345 1.289 . S
C373 O365 1.258 . S
C373 O366 1.266 . S
Co374 O377 1.970 . S
Co374 N391 1.989 . S
Co374 O399 1.967 . S
Co374 O406 1.920 . S
Co375 O378 1.966 . S
Co375 N384 2.022 . S
Co375 N392 1.993 . S
Co375 O400 1.941 . S
C376 O377 1.258 . S
C376 O378 1.263 . S
O377 Co374 1.970 . S
O377 C376 1.258 . S
O378 Co375 1.966 . S
O378 C376 1.263 . S
C379 O380 1.235 . S
C379 O406 1.289 . S
O380 C379 1.235 . S
C381 C383 1.400 . S
C381 N384 1.351 . S
C381 C386 1.501 . S
C382 C383 1.387 . S
C382 N385 1.341 . S
C383 C381 1.400 . S
C383 C382 1.387 . S
N384 Co375 2.022 . S
N384 C381 1.351 . S
N384 N385 1.365 . S
N385 C382 1.341 . S
N385 N384 1.365 . S
N385 H405 0.862 1_545 S
C386 C381 1.501 . S
C386 H387 0.961 . S
C386 H388 0.961 . S
C386 H389 0.960 . S
H387 C386 0.961 . S
H388 C386 0.961 . S
H389 C386 0.960 . S
C390 N391 1.342 . S
C390 C394 1.401 . S
C390 C395 1.499 . S
N391 Co374 1.989 . S
N391 C390 1.342 . S
N391 N392 1.388 . S
N392 Co375 1.993 . S
N392 N391 1.388 . S
N392 C393 1.346 . S
C393 N392 1.346 . S
C393 C394 1.396 . S
C393 C403 1.510 . S
C394 C390 1.401 . S
C394 C393 1.396 . S
C395 C390 1.499 . S
C395 H396 0.959 . S
C395 H397 0.960 . S
C395 H398 0.961 1_545 S
H396 C395 0.959 . S
H397 C395 0.960 . S
H398 C395 0.961 1_565 S
O399 Co374 1.967 . S
O399 C407 1.258 1_545 S
O400 Co375 1.941 . S
O400 C407 1.266 1_545 S
H401 C403 0.959 1_565 S
H402 C403 0.961 . S
C403 C393 1.510 . S
C403 H401 0.959 1_545 S
C403 H402 0.961 . S
C403 H404 0.960 . S
H404 C403 0.960 . S
H405 N385 0.862 1_565 S
O406 Co374 1.920 . S
O406 C379 1.289 . S
C407 O399 1.258 1_565 S
C407 O400 1.266 1_565 S
Co408 O411 1.970 . S
Co408 N425 1.989 . S
Co408 O433 1.967 . S
Co408 O440 1.920 . S
Co409 O412 1.966 . S
Co409 N418 2.022 . S
Co409 N426 1.993 1_545 S
Co409 O434 1.941 . S
C410 O411 1.258 . S
C410 O412 1.263 . S
O411 Co408 1.970 . S
O411 C410 1.258 . S
O412 Co409 1.966 . S
O412 C410 1.263 . S
C413 O414 1.235 . S
C413 O440 1.289 . S
O414 C413 1.235 . S
C415 C417 1.400 . S
C415 N418 1.351 . S
C415 C420 1.501 . S
C416 C417 1.387 . S
C416 N419 1.341 . S
C417 C415 1.400 . S
C417 C416 1.387 . S
N418 Co409 2.022 . S
N418 C415 1.351 . S
N418 N419 1.365 . S
N419 C416 1.341 . S
N419 N418 1.365 . S
N419 H439 0.862 . S
C420 C415 1.501 . S
C420 H421 0.961 . S
C420 H422 0.961 . S
C420 H423 0.960 . S
H421 C420 0.961 . S
H422 C420 0.961 . S
H423 C420 0.960 . S
C424 N425 1.342 1_565 S
C424 C428 1.401 . S
C424 C429 1.499 . S
N425 Co408 1.989 . S
N425 C424 1.342 1_545 S
N425 N426 1.388 1_545 S
N426 Co409 1.993 1_565 S
N426 N425 1.388 1_565 S
N426 C427 1.346 . S
C427 N426 1.346 . S
C427 C428 1.396 . S
C427 C437 1.510 . S
C428 C424 1.401 . S
C428 C427 1.396 . S
C429 C424 1.499 . S
C429 H430 0.959 . S
C429 H431 0.960 . S
C429 H432 0.961 . S
H430 C429 0.959 . S
H431 C429 0.960 . S
H432 C429 0.961 . S
O433 Co408 1.967 . S
O433 C441 1.258 . S
O434 Co409 1.941 . S
O434 C441 1.266 . S
H435 C437 0.959 . S
H436 C437 0.961 . S
C437 C427 1.510 . S
C437 H435 0.959 . S
C437 H436 0.961 . S
C437 H438 0.960 . S
H438 C437 0.960 . S
H439 N419 0.862 . S
O440 Co408 1.920 . S
O440 C413 1.289 . S
C441 O433 1.258 . S
C441 O434 1.266 . S
Co442 O445 1.970 . S
Co442 N459 1.989 . S
Co442 O467 1.967 . S
Co442 O474 1.920 . S
Co443 O446 1.966 . S
Co443 N452 2.022 . S
Co443 N460 1.993 . S
Co443 O468 1.941 . S
C444 O445 1.258 . S
C444 O446 1.263 . S
O445 Co442 1.970 . S
O445 C444 1.258 . S
O446 Co443 1.966 . S
O446 C444 1.263 . S
C447 O448 1.235 . S
C447 O474 1.289 . S
O448 C447 1.235 . S
C449 C451 1.400 . S
C449 N452 1.351 . S
C449 C454 1.501 . S
C450 C451 1.387 . S
C450 N453 1.341 . S
C451 C449 1.400 . S
C451 C450 1.387 . S
N452 Co443 2.022 . S
N452 C449 1.351 . S
N452 N453 1.365 . S
N453 C450 1.341 . S
N453 N452 1.365 . S
N453 H473 0.862 1_565 S
C454 C449 1.501 . S
C454 H455 0.961 . S
C454 H456 0.961 . S
C454 H457 0.960 . S
H455 C454 0.961 . S
H456 C454 0.961 . S
H457 C454 0.960 . S
C458 N459 1.342 . S
C458 C462 1.401 . S
C458 C463 1.499 . S
N459 Co442 1.989 . S
N459 C458 1.342 . S
N459 N460 1.388 . S
N460 Co443 1.993 . S
N460 N459 1.388 . S
N460 C461 1.346 . S
C461 N460 1.346 . S
C461 C462 1.396 . S
C461 C471 1.510 . S
C462 C458 1.401 . S
C462 C461 1.396 . S
C463 C458 1.499 . S
C463 H464 0.959 . S
C463 H465 0.960 . S
C463 H466 0.961 1_565 S
H464 C463 0.959 . S
H465 C463 0.960 . S
H466 C463 0.961 1_545 S
O467 Co442 1.967 . S
O467 C475 1.258 1_565 S
O468 Co443 1.941 . S
O468 C475 1.266 1_565 S
H469 C471 0.959 1_545 S
H470 C471 0.961 . S
C471 C461 1.510 . S
C471 H469 0.959 1_565 S
C471 H470 0.961 . S
C471 H472 0.960 . S
H472 C471 0.960 . S
H473 N453 0.862 1_545 S
O474 Co442 1.920 . S
O474 C447 1.289 . S
C475 O467 1.258 1_545 S
C475 O468 1.266 1_545 S
Co476 O479 1.970 . S
Co476 N493 1.989 . S
Co476 O501 1.967 . S
Co476 O508 1.920 . S
Co477 O480 1.966 . S
Co477 N486 2.022 . S
Co477 N494 1.993 1_565 S
Co477 O502 1.941 . S
C478 O479 1.258 1_455 S
C478 O480 1.263 1_455 S
O479 Co476 1.970 . S
O479 C478 1.258 1_655 S
O480 Co477 1.966 . S
O480 C478 1.263 1_655 S
C481 O482 1.235 . S
C481 O508 1.289 . S
O482 C481 1.235 . S
C483 C485 1.400 . S
C483 N486 1.351 . S
C483 C488 1.501 1_655 S
C484 C485 1.387 . S
C484 N487 1.341 . S
C485 C483 1.400 . S
C485 C484 1.387 . S
N486 Co477 2.022 . S
N486 C483 1.351 . S
N486 N487 1.365 . S
N487 C484 1.341 . S
N487 N486 1.365 . S
N487 H507 0.862 . S
C488 C483 1.501 1_455 S
C488 H489 0.961 . S
C488 H490 0.961 . S
C488 H491 0.960 . S
H489 C488 0.961 . S
H490 C488 0.961 . S
H491 C488 0.960 . S
C492 N493 1.342 1_545 S
C492 C496 1.401 . S
C492 C497 1.499 . S
N493 Co476 1.989 . S
N493 C492 1.342 1_565 S
N493 N494 1.388 1_565 S
N494 Co477 1.993 1_545 S
N494 N493 1.388 1_545 S
N494 C495 1.346 . S
C495 N494 1.346 . S
C495 C496 1.396 . S
C495 C505 1.510 . S
C496 C492 1.401 . S
C496 C495 1.396 . S
C497 C492 1.499 . S
C497 H498 0.959 . S
C497 H499 0.960 . S
C497 H500 0.961 . S
H498 C497 0.959 . S
H499 C497 0.960 . S
H500 C497 0.961 . S
O501 Co476 1.967 . S
O501 C509 1.258 . S
O502 Co477 1.941 . S
O502 C509 1.266 . S
H503 C505 0.959 . S
H504 C505 0.961 . S
C505 C495 1.510 . S
C505 H503 0.959 . S
C505 H504 0.961 . S
C505 H506 0.960 . S
H506 C505 0.960 . S
H507 N487 0.862 . S
O508 Co476 1.920 . S
O508 C481 1.289 . S
C509 O501 1.258 . S
C509 O502 1.266 . S
Co510 O513 1.970 . S
Co510 N527 1.989 . S
Co510 O535 1.967 . S
Co510 O542 1.920 . S
Co511 O514 1.966 . S
Co511 N520 2.022 . S
Co511 N528 1.993 . S
Co511 O536 1.941 . S
C512 O513 1.258 . S
C512 O514 1.263 . S
O513 Co510 1.970 . S
O513 C512 1.258 . S
O514 Co511 1.966 . S
O514 C512 1.263 . S
C515 O516 1.235 . S
C515 O542 1.289 . S
O516 C515 1.235 . S
C517 C519 1.400 . S
C517 N520 1.351 . S
C517 C522 1.501 . S
C518 C519 1.387 . S
C518 N521 1.341 . S
C519 C517 1.400 . S
C519 C518 1.387 . S
N520 Co511 2.022 . S
N520 C517 1.351 . S
N520 N521 1.365 . S
N521 C518 1.341 . S
N521 N520 1.365 . S
N521 H541 0.862 1_545 S
C522 C517 1.501 . S
C522 H523 0.961 . S
C522 H524 0.961 . S
C522 H525 0.960 . S
H523 C522 0.961 . S
H524 C522 0.961 . S
H525 C522 0.960 . S
C526 N527 1.342 . S
C526 C530 1.401 . S
C526 C531 1.499 . S
N527 Co510 1.989 . S
N527 C526 1.342 . S
N527 N528 1.388 . S
N528 Co511 1.993 . S
N528 N527 1.388 . S
N528 C529 1.346 . S
C529 N528 1.346 . S
C529 C530 1.396 . S
C529 C539 1.510 . S
C530 C526 1.401 . S
C530 C529 1.396 . S
C531 C526 1.499 . S
C531 H532 0.959 . S
C531 H533 0.960 . S
C531 H534 0.961 1_545 S
H532 C531 0.959 . S
H533 C531 0.960 . S
H534 C531 0.961 1_565 S
O535 Co510 1.967 . S
O535 C543 1.258 1_645 S
O536 Co511 1.941 . S
O536 C543 1.266 1_645 S
H537 C539 0.959 1_565 S
H538 C539 0.961 . S
C539 C529 1.510 . S
C539 H537 0.959 1_545 S
C539 H538 0.961 . S
C539 H540 0.960 . S
H540 C539 0.960 . S
H541 N521 0.862 1_565 S
O542 Co510 1.920 . S
O542 C515 1.289 . S
C543 O535 1.258 1_465 S
C543 O536 1.266 1_465 S
Co544 O547 1.970 . S
Co544 N561 1.989 . S
Co544 O569 1.967 . S
Co544 O576 1.920 . S
Co545 O548 1.966 . S
Co545 N554 2.022 . S
Co545 N562 1.993 . S
Co545 O570 1.941 . S
C546 O547 1.258 1_455 S
C546 O548 1.263 1_455 S
O547 Co544 1.970 . S
O547 C546 1.258 1_655 S
O548 Co545 1.966 . S
O548 C546 1.263 1_655 S
C549 O550 1.235 . S
C549 O576 1.289 . S
O550 C549 1.235 . S
C551 C553 1.400 . S
C551 N554 1.351 . S
C551 C556 1.501 1_655 S
C552 C553 1.387 . S
C552 N555 1.341 . S
C553 C551 1.400 . S
C553 C552 1.387 . S
N554 Co545 2.022 . S
N554 C551 1.351 . S
N554 N555 1.365 . S
N555 C552 1.341 . S
N555 N554 1.365 . S
N555 H575 0.862 . S
C556 C551 1.501 1_455 S
C556 H557 0.961 . S
C556 H558 0.961 . S
C556 H559 0.960 . S
H557 C556 0.961 . S
H558 C556 0.961 . S
H559 C556 0.960 . S
C560 N561 1.342 . S
C560 C564 1.401 . S
C560 C565 1.499 . S
N561 Co544 1.989 . S
N561 C560 1.342 . S
N561 N562 1.388 . S
N562 Co545 1.993 . S
N562 N561 1.388 . S
N562 C563 1.346 . S
C563 N562 1.346 . S
C563 C564 1.396 . S
C563 C573 1.510 . S
C564 C560 1.401 . S
C564 C563 1.396 . S
C565 C560 1.499 . S
C565 H566 0.959 . S
C565 H567 0.960 . S
C565 H568 0.961 . S
H566 C565 0.959 . S
H567 C565 0.960 . S
H568 C565 0.961 . S
O569 Co544 1.967 . S
O569 C577 1.258 . S
O570 Co545 1.941 . S
O570 C577 1.266 . S
H571 C573 0.959 . S
H572 C573 0.961 . S
C573 C563 1.510 . S
C573 H571 0.959 . S
C573 H572 0.961 . S
C573 H574 0.960 . S
H574 C573 0.960 . S
H575 N555 0.862 . S
O576 Co544 1.920 . S
O576 C549 1.289 . S
C577 O569 1.258 . S
C577 O570 1.266 . S
Co578 O581 1.970 . S
Co578 N595 1.989 . S
Co578 O603 1.967 . S
Co578 O610 1.920 . S
Co579 O582 1.966 . S
Co579 N588 2.022 . S
Co579 N596 1.993 . S
Co579 O604 1.941 . S
C580 O581 1.258 . S
C580 O582 1.263 . S
O581 Co578 1.970 . S
O581 C580 1.258 . S
O582 Co579 1.966 . S
O582 C580 1.263 . S
C583 O584 1.235 . S
C583 O610 1.289 . S
O584 C583 1.235 . S
C585 C587 1.400 . S
C585 N588 1.351 . S
C585 C590 1.501 . S
C586 C587 1.387 . S
C586 N589 1.341 . S
C587 C585 1.400 . S
C587 C586 1.387 . S
N588 Co579 2.022 . S
N588 C585 1.351 . S
N588 N589 1.365 . S
N589 C586 1.341 . S
N589 N588 1.365 . S
N589 H609 0.862 . S
C590 C585 1.501 . S
C590 H591 0.961 . S
C590 H592 0.961 . S
C590 H593 0.960 . S
H591 C590 0.961 . S
H592 C590 0.961 . S
H593 C590 0.960 . S
C594 N595 1.342 . S
C594 C598 1.401 . S
C594 C599 1.499 . S
N595 Co578 1.989 . S
N595 C594 1.342 . S
N595 N596 1.388 . S
N596 Co579 1.993 . S
N596 N595 1.388 . S
N596 C597 1.346 . S
C597 N596 1.346 . S
C597 C598 1.396 . S
C597 C607 1.510 . S
C598 C594 1.401 . S
C598 C597 1.396 . S
C599 C594 1.499 . S
C599 H600 0.959 . S
C599 H601 0.960 . S
C599 H602 0.961 . S
H600 C599 0.959 . S
H601 C599 0.960 . S
H602 C599 0.961 . S
O603 Co578 1.967 . S
O603 C611 1.258 . S
O604 Co579 1.941 . S
O604 C611 1.266 . S
H605 C607 0.959 . S
H606 C607 0.961 . S
C607 C597 1.510 . S
C607 H605 0.959 . S
C607 H606 0.961 . S
C607 H608 0.960 . S
H608 C607 0.960 . S
H609 N589 0.862 . S
O610 Co578 1.920 . S
O610 C583 1.289 . S
C611 O603 1.258 . S
C611 O604 1.266 . S
Co612 O615 1.970 . S
Co612 N629 1.989 . S
Co612 O637 1.967 . S
Co612 O644 1.920 . S
Co613 O616 1.966 . S
Co613 N622 2.022 . S
Co613 N630 1.993 . S
Co613 O638 1.941 . S
C614 O615 1.258 . S
C614 O616 1.263 . S
O615 Co612 1.970 . S
O615 C614 1.258 . S
O616 Co613 1.966 . S
O616 C614 1.263 . S
C617 O618 1.235 . S
C617 O644 1.289 . S
O618 C617 1.235 . S
C619 C621 1.400 . S
C619 N622 1.351 . S
C619 C624 1.501 . S
C620 C621 1.387 . S
C620 N623 1.341 . S
C621 C619 1.400 . S
C621 C620 1.387 . S
N622 Co613 2.022 . S
N622 C619 1.351 . S
N622 N623 1.365 . S
N623 C620 1.341 . S
N623 N622 1.365 . S
N623 H643 0.862 . S
C624 C619 1.501 . S
C624 H625 0.961 . S
C624 H626 0.961 . S
C624 H627 0.960 . S
H625 C624 0.961 . S
H626 C624 0.961 . S
H627 C624 0.960 . S
C628 N629 1.342 . S
C628 C632 1.401 . S
C628 C633 1.499 . S
N629 Co612 1.989 . S
N629 C628 1.342 . S
N629 N630 1.388 . S
N630 Co613 1.993 . S
N630 N629 1.388 . S
N630 C631 1.346 . S
C631 N630 1.346 . S
C631 C632 1.396 . S
C631 C641 1.510 . S
C632 C628 1.401 . S
C632 C631 1.396 . S
C633 C628 1.499 . S
C633 H634 0.959 . S
C633 H635 0.960 . S
C633 H636 0.961 . S
H634 C633 0.959 . S
H635 C633 0.960 . S
H636 C633 0.961 . S
O637 Co612 1.967 . S
O637 C645 1.258 . S
O638 Co613 1.941 . S
O638 C645 1.266 . S
H639 C641 0.959 . S
H640 C641 0.961 . S
C641 C631 1.510 . S
C641 H639 0.959 . S
C641 H640 0.961 . S
C641 H642 0.960 . S
H642 C641 0.960 . S
H643 N623 0.862 . S
O644 Co612 1.920 . S
O644 C617 1.289 . S
C645 O637 1.258 . S
C645 O638 1.266 . S
Co646 O649 1.970 . S
Co646 N663 1.989 . S
Co646 O671 1.967 . S
Co646 O678 1.920 . S
Co647 O650 1.966 . S
Co647 N656 2.022 . S
Co647 N664 1.993 . S
Co647 O672 1.941 . S
C648 O649 1.258 . S
C648 O650 1.263 . S
O649 Co646 1.970 . S
O649 C648 1.258 . S
O650 Co647 1.966 . S
O650 C648 1.263 . S
C651 O652 1.235 . S
C651 O678 1.289 . S
O652 C651 1.235 . S
C653 C655 1.400 . S
C653 N656 1.351 . S
C653 C658 1.501 . S
C654 C655 1.387 . S
C654 N657 1.341 . S
C655 C653 1.400 . S
C655 C654 1.387 . S
N656 Co647 2.022 . S
N656 C653 1.351 . S
N656 N657 1.365 . S
N657 C654 1.341 . S
N657 N656 1.365 . S
N657 H677 0.862 . S
C658 C653 1.501 . S
C658 H659 0.961 . S
C658 H660 0.961 . S
C658 H661 0.960 . S
H659 C658 0.961 . S
H660 C658 0.961 . S
H661 C658 0.960 . S
C662 N663 1.342 . S
C662 C666 1.401 . S
C662 C667 1.499 . S
N663 Co646 1.989 . S
N663 C662 1.342 . S
N663 N664 1.388 . S
N664 Co647 1.993 . S
N664 N663 1.388 . S
N664 C665 1.346 . S
C665 N664 1.346 . S
C665 C666 1.396 . S
C665 C675 1.510 . S
C666 C662 1.401 . S
C666 C665 1.396 . S
C667 C662 1.499 . S
C667 H668 0.959 . S
C667 H669 0.960 . S
C667 H670 0.961 . S
H668 C667 0.959 . S
H669 C667 0.960 . S
H670 C667 0.961 . S
O671 Co646 1.967 . S
O671 C679 1.258 1_655 S
O672 Co647 1.941 . S
O672 C679 1.266 1_655 S
H673 C675 0.959 . S
H674 C675 0.961 . S
C675 C665 1.510 . S
C675 H673 0.959 . S
C675 H674 0.961 . S
C675 H676 0.960 . S
H676 C675 0.960 . S
H677 N657 0.862 . S
O678 Co646 1.920 . S
O678 C651 1.289 . S
C679 O671 1.258 1_455 S
C679 O672 1.266 1_455 S
Co680 O683 1.970 . S
Co680 N697 1.989 . S
Co680 O705 1.967 . S
Co680 O712 1.920 . S
Co681 O684 1.966 . S
Co681 N690 2.022 . S
Co681 N698 1.993 . S
Co681 O706 1.941 . S
C682 O683 1.258 1_455 S
C682 O684 1.263 1_455 S
O683 Co680 1.970 . S
O683 C682 1.258 1_655 S
O684 Co681 1.966 . S
O684 C682 1.263 1_655 S
C685 O686 1.235 . S
C685 O712 1.289 . S
O686 C685 1.235 . S
C687 C689 1.400 . S
C687 N690 1.351 . S
C687 C692 1.501 1_655 S
C688 C689 1.387 . S
C688 N691 1.341 . S
C689 C687 1.400 . S
C689 C688 1.387 . S
N690 Co681 2.022 . S
N690 C687 1.351 . S
N690 N691 1.365 . S
N691 C688 1.341 . S
N691 N690 1.365 . S
N691 H711 0.862 . S
C692 C687 1.501 1_455 S
C692 H693 0.961 . S
C692 H694 0.961 . S
C692 H695 0.960 . S
H693 C692 0.961 . S
H694 C692 0.961 . S
H695 C692 0.960 . S
C696 N697 1.342 . S
C696 C700 1.401 . S
C696 C701 1.499 . S
N697 Co680 1.989 . S
N697 C696 1.342 . S
N697 N698 1.388 . S
N698 Co681 1.993 . S
N698 N697 1.388 . S
N698 C699 1.346 . S
C699 N698 1.346 . S
C699 C700 1.396 . S
C699 C709 1.510 . S
C700 C696 1.401 . S
C700 C699 1.396 . S
C701 C696 1.499 . S
C701 H702 0.959 . S
C701 H703 0.960 . S
C701 H704 0.961 . S
H702 C701 0.959 . S
H703 C701 0.960 . S
H704 C701 0.961 . S
O705 Co680 1.967 . S
O705 C713 1.258 . S
O706 Co681 1.941 . S
O706 C713 1.266 . S
H707 C709 0.959 . S
H708 C709 0.961 . S
C709 C699 1.510 . S
C709 H707 0.959 . S
C709 H708 0.961 . S
C709 H710 0.960 . S
H710 C709 0.960 . S
H711 N691 0.862 . S
O712 Co680 1.920 . S
O712 C685 1.289 . S
C713 O705 1.258 . S
C713 O706 1.266 . S
Co714 O717 1.970 . S
Co714 N731 1.989 . S
Co714 O739 1.967 . S
Co714 O746 1.920 . S
Co715 O718 1.966 . S
Co715 N724 2.022 . S
Co715 N732 1.993 . S
Co715 O740 1.941 . S
C716 O717 1.258 . S
C716 O718 1.263 . S
O717 Co714 1.970 . S
O717 C716 1.258 . S
O718 Co715 1.966 . S
O718 C716 1.263 . S
C719 O720 1.235 . S
C719 O746 1.289 . S
O720 C719 1.235 . S
C721 C723 1.400 . S
C721 N724 1.351 . S
C721 C726 1.501 . S
C722 C723 1.387 . S
C722 N725 1.341 . S
C723 C721 1.400 . S
C723 C722 1.387 . S
N724 Co715 2.022 . S
N724 C721 1.351 . S
N724 N725 1.365 . S
N725 C722 1.341 . S
N725 N724 1.365 . S
N725 H745 0.862 . S
C726 C721 1.501 . S
C726 H727 0.961 . S
C726 H728 0.961 . S
C726 H729 0.960 . S
H727 C726 0.961 . S
H728 C726 0.961 . S
H729 C726 0.960 . S
C730 N731 1.342 . S
C730 C734 1.401 . S
C730 C735 1.499 . S
N731 Co714 1.989 . S
N731 C730 1.342 . S
N731 N732 1.388 . S
N732 Co715 1.993 . S
N732 N731 1.388 . S
N732 C733 1.346 . S
C733 N732 1.346 . S
C733 C734 1.396 . S
C733 C743 1.510 . S
C734 C730 1.401 . S
C734 C733 1.396 . S
C735 C730 1.499 . S
C735 H736 0.959 . S
C735 H737 0.960 . S
C735 H738 0.961 . S
H736 C735 0.959 . S
H737 C735 0.960 . S
H738 C735 0.961 . S
O739 Co714 1.967 . S
O739 C747 1.258 1_655 S
O740 Co715 1.941 . S
O740 C747 1.266 1_655 S
H741 C743 0.959 . S
H742 C743 0.961 . S
C743 C733 1.510 . S
C743 H741 0.959 . S
C743 H742 0.961 . S
C743 H744 0.960 . S
H744 C743 0.960 . S
H745 N725 0.862 . S
O746 Co714 1.920 . S
O746 C719 1.289 . S
C747 O739 1.258 1_455 S
C747 O740 1.266 1_455 S
Co748 O751 1.970 . S
Co748 N765 1.989 . S
Co748 O773 1.967 . S
Co748 O780 1.920 . S
Co749 O752 1.966 . S
Co749 N758 2.022 . S
Co749 N766 1.993 . S
Co749 O774 1.941 . S
C750 O751 1.258 . S
C750 O752 1.263 . S
O751 Co748 1.970 . S
O751 C750 1.258 . S
O752 Co749 1.966 . S
O752 C750 1.263 . S
C753 O754 1.235 . S
C753 O780 1.289 . S
O754 C753 1.235 . S
C755 C757 1.400 . S
C755 N758 1.351 . S
C755 C760 1.501 . S
C756 C757 1.387 . S
C756 N759 1.341 . S
C757 C755 1.400 . S
C757 C756 1.387 . S
N758 Co749 2.022 . S
N758 C755 1.351 . S
N758 N759 1.365 . S
N759 C756 1.341 . S
N759 N758 1.365 . S
N759 H779 0.862 . S
C760 C755 1.501 . S
C760 H761 0.961 . S
C760 H762 0.961 . S
C760 H763 0.960 . S
H761 C760 0.961 . S
H762 C760 0.961 . S
H763 C760 0.960 . S
C764 N765 1.342 . S
C764 C768 1.401 . S
C764 C769 1.499 . S
N765 Co748 1.989 . S
N765 C764 1.342 . S
N765 N766 1.388 . S
N766 Co749 1.993 . S
N766 N765 1.388 . S
N766 C767 1.346 . S
C767 N766 1.346 . S
C767 C768 1.396 . S
C767 C777 1.510 . S
C768 C764 1.401 . S
C768 C767 1.396 . S
C769 C764 1.499 . S
C769 H770 0.959 . S
C769 H771 0.960 . S
C769 H772 0.961 . S
H770 C769 0.959 . S
H771 C769 0.960 . S
H772 C769 0.961 . S
O773 Co748 1.967 . S
O773 C781 1.258 . S
O774 Co749 1.941 . S
O774 C781 1.266 . S
H775 C777 0.959 . S
H776 C777 0.961 . S
C777 C767 1.510 . S
C777 H775 0.959 . S
C777 H776 0.961 . S
C777 H778 0.960 . S
H778 C777 0.960 . S
H779 N759 0.862 . S
O780 Co748 1.920 . S
O780 C753 1.289 . S
C781 O773 1.258 . S
C781 O774 1.266 . S
Co782 O785 1.970 . S
Co782 N799 1.989 . S
Co782 O807 1.967 . S
Co782 O814 1.920 . S
Co783 O786 1.966 . S
Co783 N792 2.022 . S
Co783 N800 1.993 . S
Co783 O808 1.941 . S
C784 O785 1.258 . S
C784 O786 1.263 . S
O785 Co782 1.970 . S
O785 C784 1.258 . S
O786 Co783 1.966 . S
O786 C784 1.263 . S
C787 O788 1.235 . S
C787 O814 1.289 . S
O788 C787 1.235 . S
C789 C791 1.400 . S
C789 N792 1.351 . S
C789 C794 1.501 . S
C790 C791 1.387 . S
C790 N793 1.341 . S
C791 C789 1.400 . S
C791 C790 1.387 . S
N792 Co783 2.022 . S
N792 C789 1.351 . S
N792 N793 1.365 . S
N793 C790 1.341 . S
N793 N792 1.365 . S
N793 H813 0.862 . S
C794 C789 1.501 . S
C794 H795 0.961 . S
C794 H796 0.961 . S
C794 H797 0.960 . S
H795 C794 0.961 . S
H796 C794 0.961 . S
H797 C794 0.960 . S
C798 N799 1.342 . S
C798 C802 1.401 . S
C798 C803 1.499 . S
N799 Co782 1.989 . S
N799 C798 1.342 . S
N799 N800 1.388 . S
N800 Co783 1.993 . S
N800 N799 1.388 . S
N800 C801 1.346 . S
C801 N800 1.346 . S
C801 C802 1.396 . S
C801 C811 1.510 . S
C802 C798 1.401 . S
C802 C801 1.396 . S
C803 C798 1.499 . S
C803 H804 0.959 . S
C803 H805 0.960 . S
C803 H806 0.961 . S
H804 C803 0.959 . S
H805 C803 0.960 . S
H806 C803 0.961 . S
O807 Co782 1.967 . S
O807 C815 1.258 . S
O808 Co783 1.941 . S
O808 C815 1.266 . S
H809 C811 0.959 . S
H810 C811 0.961 . S
C811 C801 1.510 . S
C811 H809 0.959 . S
C811 H810 0.961 . S
C811 H812 0.960 . S
H812 C811 0.960 . S
H813 N793 0.862 . S
O814 Co782 1.920 . S
O814 C787 1.289 . S
C815 O807 1.258 . S
C815 O808 1.266 . S
Co816 O819 1.970 . S
Co816 N833 1.989 . S
Co816 O841 1.967 . S
Co816 O848 1.920 . S
Co817 O820 1.966 . S
Co817 N826 2.022 . S
Co817 N834 1.993 . S
Co817 O842 1.941 . S
C818 O819 1.258 1_655 S
C818 O820 1.263 1_655 S
O819 Co816 1.970 . S
O819 C818 1.258 1_455 S
O820 Co817 1.966 . S
O820 C818 1.263 1_455 S
C821 O822 1.235 . S
C821 O848 1.289 . S
O822 C821 1.235 . S
C823 C825 1.400 . S
C823 N826 1.351 . S
C823 C828 1.501 1_455 S
C824 C825 1.387 . S
C824 N827 1.341 . S
C825 C823 1.400 . S
C825 C824 1.387 . S
N826 Co817 2.022 . S
N826 C823 1.351 . S
N826 N827 1.365 . S
N827 C824 1.341 . S
N827 N826 1.365 . S
N827 H847 0.862 . S
C828 C823 1.501 1_655 S
C828 H829 0.961 . S
C828 H830 0.961 . S
C828 H831 0.960 . S
H829 C828 0.961 . S
H830 C828 0.961 . S
H831 C828 0.960 . S
C832 N833 1.342 . S
C832 C836 1.401 . S
C832 C837 1.499 . S
N833 Co816 1.989 . S
N833 C832 1.342 . S
N833 N834 1.388 . S
N834 Co817 1.993 . S
N834 N833 1.388 . S
N834 C835 1.346 . S
C835 N834 1.346 . S
C835 C836 1.396 . S
C835 C845 1.510 . S
C836 C832 1.401 . S
C836 C835 1.396 . S
C837 C832 1.499 . S
C837 H838 0.959 . S
C837 H839 0.960 . S
C837 H840 0.961 . S
H838 C837 0.959 . S
H839 C837 0.960 . S
H840 C837 0.961 . S
O841 Co816 1.967 . S
O841 C849 1.258 . S
O842 Co817 1.941 . S
O842 C849 1.266 . S
H843 C845 0.959 . S
H844 C845 0.961 . S
C845 C835 1.510 . S
C845 H843 0.959 . S
C845 H844 0.961 . S
C845 H846 0.960 . S
H846 C845 0.960 . S
H847 N827 0.862 . S
O848 Co816 1.920 . S
O848 C821 1.289 . S
C849 O841 1.258 . S
C849 O842 1.266 . S
Co850 O853 1.970 . S
Co850 N867 1.989 . S
Co850 O875 1.967 . S
Co850 O882 1.920 . S
Co851 O854 1.966 . S
Co851 N860 2.022 . S
Co851 N868 1.993 . S
Co851 O876 1.941 . S
C852 O853 1.258 . S
C852 O854 1.263 . S
O853 Co850 1.970 . S
O853 C852 1.258 . S
O854 Co851 1.966 . S
O854 C852 1.263 . S
C855 O856 1.235 . S
C855 O882 1.289 . S
O856 C855 1.235 . S
C857 C859 1.400 . S
C857 N860 1.351 . S
C857 C862 1.501 . S
C858 C859 1.387 . S
C858 N861 1.341 . S
C859 C857 1.400 . S
C859 C858 1.387 . S
N860 Co851 2.022 . S
N860 C857 1.351 . S
N860 N861 1.365 . S
N861 C858 1.341 . S
N861 N860 1.365 . S
N861 H881 0.862 . S
C862 C857 1.501 . S
C862 H863 0.961 . S
C862 H864 0.961 . S
C862 H865 0.960 . S
H863 C862 0.961 . S
H864 C862 0.961 . S
H865 C862 0.960 . S
C866 N867 1.342 . S
C866 C870 1.401 . S
C866 C871 1.499 . S
N867 Co850 1.989 . S
N867 C866 1.342 . S
N867 N868 1.388 . S
N868 Co851 1.993 . S
N868 N867 1.388 . S
N868 C869 1.346 . S
C869 N868 1.346 . S
C869 C870 1.396 . S
C869 C879 1.510 . S
C870 C866 1.401 . S
C870 C869 1.396 . S
C871 C866 1.499 . S
C871 H872 0.959 . S
C871 H873 0.960 . S
C871 H874 0.961 . S
H872 C871 0.959 . S
H873 C871 0.960 . S
H874 C871 0.961 . S
O875 Co850 1.967 . S
O875 C883 1.258 . S
O876 Co851 1.941 . S
O876 C883 1.266 . S
H877 C879 0.959 . S
H878 C879 0.961 . S
C879 C869 1.510 . S
C879 H877 0.959 . S
C879 H878 0.961 . S
C879 H880 0.960 . S
H880 C879 0.960 . S
H881 N861 0.862 . S
O882 Co850 1.920 . S
O882 C855 1.289 . S
C883 O875 1.258 . S
C883 O876 1.266 . S
Co884 O887 1.970 . S
Co884 N901 1.989 . S
Co884 O909 1.967 . S
Co884 O916 1.920 . S
Co885 O888 1.966 . S
Co885 N894 2.022 . S
Co885 N902 1.993 . S
Co885 O910 1.941 . S
C886 O887 1.258 . S
C886 O888 1.263 . S
O887 Co884 1.970 . S
O887 C886 1.258 . S
O888 Co885 1.966 . S
O888 C886 1.263 . S
C889 O890 1.235 . S
C889 O916 1.289 . S
O890 C889 1.235 . S
C891 C893 1.400 . S
C891 N894 1.351 . S
C891 C896 1.501 . S
C892 C893 1.387 . S
C892 N895 1.341 . S
C893 C891 1.400 . S
C893 C892 1.387 . S
N894 Co885 2.022 . S
N894 C891 1.351 . S
N894 N895 1.365 . S
N895 C892 1.341 . S
N895 N894 1.365 . S
N895 H915 0.862 . S
C896 C891 1.501 . S
C896 H897 0.961 . S
C896 H898 0.961 . S
C896 H899 0.960 . S
H897 C896 0.961 . S
H898 C896 0.961 . S
H899 C896 0.960 . S
C900 N901 1.342 . S
C900 C904 1.401 . S
C900 C905 1.499 . S
N901 Co884 1.989 . S
N901 C900 1.342 . S
N901 N902 1.388 . S
N902 Co885 1.993 . S
N902 N901 1.388 . S
N902 C903 1.346 . S
C903 N902 1.346 . S
C903 C904 1.396 . S
C903 C913 1.510 . S
C904 C900 1.401 . S
C904 C903 1.396 . S
C905 C900 1.499 . S
C905 H906 0.959 . S
C905 H907 0.960 . S
C905 H908 0.961 . S
H906 C905 0.959 . S
H907 C905 0.960 . S
H908 C905 0.961 . S
O909 Co884 1.967 . S
O909 C917 1.258 . S
O910 Co885 1.941 . S
O910 C917 1.266 . S
H911 C913 0.959 . S
H912 C913 0.961 . S
C913 C903 1.510 . S
C913 H911 0.959 . S
C913 H912 0.961 . S
C913 H914 0.960 . S
H914 C913 0.960 . S
H915 N895 0.862 . S
O916 Co884 1.920 . S
O916 C889 1.289 . S
C917 O909 1.258 . S
C917 O910 1.266 . S
Co918 O921 1.970 . S
Co918 N935 1.989 . S
Co918 O943 1.967 . S
Co918 O950 1.920 . S
Co919 O922 1.966 . S
Co919 N928 2.022 . S
Co919 N936 1.993 . S
Co919 O944 1.941 . S
C920 O921 1.258 . S
C920 O922 1.263 . S
O921 Co918 1.970 . S
O921 C920 1.258 . S
O922 Co919 1.966 . S
O922 C920 1.263 . S
C923 O924 1.235 . S
C923 O950 1.289 . S
O924 C923 1.235 . S
C925 C927 1.400 . S
C925 N928 1.351 . S
C925 C930 1.501 . S
C926 C927 1.387 . S
C926 N929 1.341 . S
C927 C925 1.400 . S
C927 C926 1.387 . S
N928 Co919 2.022 . S
N928 C925 1.351 . S
N928 N929 1.365 . S
N929 C926 1.341 . S
N929 N928 1.365 . S
N929 H949 0.862 . S
C930 C925 1.501 . S
C930 H931 0.961 . S
C930 H932 0.961 . S
C930 H933 0.960 . S
H931 C930 0.961 . S
H932 C930 0.961 . S
H933 C930 0.960 . S
C934 N935 1.342 . S
C934 C938 1.401 . S
C934 C939 1.499 . S
N935 Co918 1.989 . S
N935 C934 1.342 . S
N935 N936 1.388 . S
N936 Co919 1.993 . S
N936 N935 1.388 . S
N936 C937 1.346 . S
C937 N936 1.346 . S
C937 C938 1.396 . S
C937 C947 1.510 . S
C938 C934 1.401 . S
C938 C937 1.396 . S
C939 C934 1.499 . S
C939 H940 0.959 . S
C939 H941 0.960 . S
C939 H942 0.961 . S
H940 C939 0.959 . S
H941 C939 0.960 . S
H942 C939 0.961 . S
O943 Co918 1.967 . S
O943 C951 1.258 1_455 S
O944 Co919 1.941 . S
O944 C951 1.266 1_455 S
H945 C947 0.959 . S
H946 C947 0.961 . S
C947 C937 1.510 . S
C947 H945 0.959 . S
C947 H946 0.961 . S
C947 H948 0.960 . S
H948 C947 0.960 . S
H949 N929 0.862 . S
O950 Co918 1.920 . S
O950 C923 1.289 . S
C951 O943 1.258 1_655 S
C951 O944 1.266 1_655 S
Co952 O955 1.970 . S
Co952 N969 1.989 . S
Co952 O977 1.967 . S
Co952 O984 1.920 . S
Co953 O956 1.966 . S
Co953 N962 2.022 . S
Co953 N970 1.993 . S
Co953 O978 1.941 . S
C954 O955 1.258 1_655 S
C954 O956 1.263 1_655 S
O955 Co952 1.970 . S
O955 C954 1.258 1_455 S
O956 Co953 1.966 . S
O956 C954 1.263 1_455 S
C957 O958 1.235 . S
C957 O984 1.289 . S
O958 C957 1.235 . S
C959 C961 1.400 . S
C959 N962 1.351 . S
C959 C964 1.501 1_455 S
C960 C961 1.387 . S
C960 N963 1.341 . S
C961 C959 1.400 . S
C961 C960 1.387 . S
N962 Co953 2.022 . S
N962 C959 1.351 . S
N962 N963 1.365 . S
N963 C960 1.341 . S
N963 N962 1.365 . S
N963 H983 0.862 . S
C964 C959 1.501 1_655 S
C964 H965 0.961 . S
C964 H966 0.961 . S
C964 H967 0.960 . S
H965 C964 0.961 . S
H966 C964 0.961 . S
H967 C964 0.960 . S
C968 N969 1.342 . S
C968 C972 1.401 . S
C968 C973 1.499 . S
N969 Co952 1.989 . S
N969 C968 1.342 . S
N969 N970 1.388 . S
N970 Co953 1.993 . S
N970 N969 1.388 . S
N970 C971 1.346 . S
C971 N970 1.346 . S
C971 C972 1.396 . S
C971 C981 1.510 . S
C972 C968 1.401 . S
C972 C971 1.396 . S
C973 C968 1.499 . S
C973 H974 0.959 . S
C973 H975 0.960 . S
C973 H976 0.961 . S
H974 C973 0.959 . S
H975 C973 0.960 . S
H976 C973 0.961 . S
O977 Co952 1.967 . S
O977 C985 1.258 . S
O978 Co953 1.941 . S
O978 C985 1.266 . S
H979 C981 0.959 . S
H980 C981 0.961 . S
C981 C971 1.510 . S
C981 H979 0.959 . S
C981 H980 0.961 . S
C981 H982 0.960 . S
H982 C981 0.960 . S
H983 N963 0.862 . S
O984 Co952 1.920 . S
O984 C957 1.289 . S
C985 O977 1.258 . S
C985 O978 1.266 . S
Co986 O989 1.970 . S
Co986 N1003 1.989 . S
Co986 O1011 1.967 . S
Co986 O1018 1.920 . S
Co987 O990 1.966 . S
Co987 N996 2.022 . S
Co987 N1004 1.993 . S
Co987 O1012 1.941 . S
C988 O989 1.258 . S
C988 O990 1.263 . S
O989 Co986 1.970 . S
O989 C988 1.258 . S
O990 Co987 1.966 . S
O990 C988 1.263 . S
C991 O992 1.235 . S
C991 O1018 1.289 . S
O992 C991 1.235 . S
C993 C995 1.400 . S
C993 N996 1.351 . S
C993 C998 1.501 . S
C994 C995 1.387 . S
C994 N997 1.341 . S
C995 C993 1.400 . S
C995 C994 1.387 . S
N996 Co987 2.022 . S
N996 C993 1.351 . S
N996 N997 1.365 . S
N997 C994 1.341 . S
N997 N996 1.365 . S
N997 H1017 0.862 . S
C998 C993 1.501 . S
C998 H999 0.961 . S
C998 H1000 0.961 . S
C998 H1001 0.960 . S
H999 C998 0.961 . S
H1000 C998 0.961 . S
H1001 C998 0.960 . S
C1002 N1003 1.342 . S
C1002 C1006 1.401 . S
C1002 C1007 1.499 . S
N1003 Co986 1.989 . S
N1003 C1002 1.342 . S
N1003 N1004 1.388 . S
N1004 Co987 1.993 . S
N1004 N1003 1.388 . S
N1004 C1005 1.346 . S
C1005 N1004 1.346 . S
C1005 C1006 1.396 . S
C1005 C1015 1.510 . S
C1006 C1002 1.401 . S
C1006 C1005 1.396 . S
C1007 C1002 1.499 . S
C1007 H1008 0.959 . S
C1007 H1009 0.960 . S
C1007 H1010 0.961 . S
H1008 C1007 0.959 . S
H1009 C1007 0.960 . S
H1010 C1007 0.961 . S
O1011 Co986 1.967 . S
O1011 C1019 1.258 1_455 S
O1012 Co987 1.941 . S
O1012 C1019 1.266 1_455 S
H1013 C1015 0.959 . S
H1014 C1015 0.961 . S
C1015 C1005 1.510 . S
C1015 H1013 0.959 . S
C1015 H1014 0.961 . S
C1015 H1016 0.960 . S
H1016 C1015 0.960 . S
H1017 N997 0.862 . S
O1018 Co986 1.920 . S
O1018 C991 1.289 . S
C1019 O1011 1.258 1_655 S
C1019 O1012 1.266 1_655 S
Co1020 O1023 1.970 . S
Co1020 N1037 1.989 . S
Co1020 O1045 1.967 . S
Co1020 O1052 1.920 . S
Co1021 O1024 1.966 . S
Co1021 N1030 2.022 . S
Co1021 N1038 1.993 . S
Co1021 O1046 1.941 . S
C1022 O1023 1.258 . S
C1022 O1024 1.263 . S
O1023 Co1020 1.970 . S
O1023 C1022 1.258 . S
O1024 Co1021 1.966 . S
O1024 C1022 1.263 . S
C1025 O1026 1.235 . S
C1025 O1052 1.289 . S
O1026 C1025 1.235 . S
C1027 C1029 1.400 . S
C1027 N1030 1.351 . S
C1027 C1032 1.501 . S
C1028 C1029 1.387 . S
C1028 N1031 1.341 . S
C1029 C1027 1.400 . S
C1029 C1028 1.387 . S
N1030 Co1021 2.022 . S
N1030 C1027 1.351 . S
N1030 N1031 1.365 . S
N1031 C1028 1.341 . S
N1031 N1030 1.365 . S
N1031 H1051 0.862 . S
C1032 C1027 1.501 . S
C1032 H1033 0.961 . S
C1032 H1034 0.961 . S
C1032 H1035 0.960 . S
H1033 C1032 0.961 . S
H1034 C1032 0.961 . S
H1035 C1032 0.960 . S
C1036 N1037 1.342 . S
C1036 C1040 1.401 . S
C1036 C1041 1.499 . S
N1037 Co1020 1.989 . S
N1037 C1036 1.342 . S
N1037 N1038 1.388 . S
N1038 Co1021 1.993 . S
N1038 N1037 1.388 . S
N1038 C1039 1.346 . S
C1039 N1038 1.346 . S
C1039 C1040 1.396 . S
C1039 C1049 1.510 . S
C1040 C1036 1.401 . S
C1040 C1039 1.396 . S
C1041 C1036 1.499 . S
C1041 H1042 0.959 . S
C1041 H1043 0.960 . S
C1041 H1044 0.961 . S
H1042 C1041 0.959 . S
H1043 C1041 0.960 . S
H1044 C1041 0.961 . S
O1045 Co1020 1.967 . S
O1045 C1053 1.258 . S
O1046 Co1021 1.941 . S
O1046 C1053 1.266 . S
H1047 C1049 0.959 . S
H1048 C1049 0.961 . S
C1049 C1039 1.510 . S
C1049 H1047 0.959 . S
C1049 H1048 0.961 . S
C1049 H1050 0.960 . S
H1050 C1049 0.960 . S
H1051 N1031 0.862 . S
O1052 Co1020 1.920 . S
O1052 C1025 1.289 . S
C1053 O1045 1.258 . S
C1053 O1046 1.266 . S
Co1054 O1057 1.970 . S
Co1054 N1071 1.989 . S
Co1054 O1079 1.967 . S
Co1054 O1086 1.920 . S
Co1055 O1058 1.966 . S
Co1055 N1064 2.022 . S
Co1055 N1072 1.993 . S
Co1055 O1080 1.941 . S
C1056 O1057 1.258 . S
C1056 O1058 1.263 . S
O1057 Co1054 1.970 . S
O1057 C1056 1.258 . S
O1058 Co1055 1.966 . S
O1058 C1056 1.263 . S
C1059 O1060 1.235 . S
C1059 O1086 1.289 . S
O1060 C1059 1.235 . S
C1061 C1063 1.400 . S
C1061 N1064 1.351 . S
C1061 C1066 1.501 . S
C1062 C1063 1.387 . S
C1062 N1065 1.341 . S
C1063 C1061 1.400 . S
C1063 C1062 1.387 . S
N1064 Co1055 2.022 . S
N1064 C1061 1.351 . S
N1064 N1065 1.365 . S
N1065 C1062 1.341 . S
N1065 N1064 1.365 . S
N1065 H1085 0.862 . S
C1066 C1061 1.501 . S
C1066 H1067 0.961 . S
C1066 H1068 0.961 . S
C1066 H1069 0.960 . S
H1067 C1066 0.961 . S
H1068 C1066 0.961 . S
H1069 C1066 0.960 . S
C1070 N1071 1.342 . S
C1070 C1074 1.401 . S
C1070 C1075 1.499 . S
N1071 Co1054 1.989 . S
N1071 C1070 1.342 . S
N1071 N1072 1.388 . S
N1072 Co1055 1.993 . S
N1072 N1071 1.388 . S
N1072 C1073 1.346 . S
C1073 N1072 1.346 . S
C1073 C1074 1.396 . S
C1073 C1083 1.510 . S
C1074 C1070 1.401 . S
C1074 C1073 1.396 . S
C1075 C1070 1.499 . S
C1075 H1076 0.959 . S
C1075 H1077 0.960 . S
C1075 H1078 0.961 . S
H1076 C1075 0.959 . S
H1077 C1075 0.960 . S
H1078 C1075 0.961 . S
O1079 Co1054 1.967 . S
O1079 C1087 1.258 . S
O1080 Co1055 1.941 . S
O1080 C1087 1.266 . S
H1081 C1083 0.959 . S
H1082 C1083 0.961 . S
C1083 C1073 1.510 . S
C1083 H1081 0.959 . S
C1083 H1082 0.961 . S
C1083 H1084 0.960 . S
H1084 C1083 0.960 . S
H1085 N1065 0.862 . S
O1086 Co1054 1.920 . S
O1086 C1059 1.289 . S
C1087 O1079 1.258 . S
C1087 O1080 1.266 . S
C20 C985 1.394 . S
C54 C475 1.394 . S
C88 C1053 1.392 . S
C122 C543 1.392 . S
C849 C156 1.394 . S
C190 C339 1.392 . S
C224 C917 1.392 . S
C407 C258 1.394 . S
C713 C292 1.394 . S
C326 C203 1.394 . S
C360 C781 1.392 . S
C271 C394 1.392 . S
C577 C428 1.394 . S
C67 C462 1.392 . S
C496 C645 1.392 . S
C530 C135 1.394 . S
C564 C441 1.392 . S
C1019 C598 1.392 . S
C509 C632 1.394 . S
C1087 C666 1.394 . S
C305 C700 1.392 . S
C734 C883 1.394 . S
C373 C768 1.394 . S
C951 C802 1.392 . S
C169 C836 1.392 . S
C747 C870 1.392 . S
C237 C904 1.394 . S
C815 C938 1.394 . S
C33 C972 1.392 . S
C611 C1006 1.394 . S
C1040 C101 1.394 . S
C679 C1074 1.392 . S
C614 C2 1.712 . S
C36 C648 1.713 1_455 S
C546 C70 1.714 1_455 S
C104 C580 1.715 . S
C750 C138 1.712 . S
C784 C172 1.715 . S
C206 C682 1.714 1_655 S
C716 C240 1.713 1_655 S
C274 C886 1.712 . S
C308 C920 1.713 1_655 S
C818 C342 1.714 1_655 S
C852 C376 1.715 . S
C410 C1022 1.712 . S
C1056 C444 1.715 . S
C954 C478 1.714 1_655 S
C988 C512 1.713 1_455 S
C5 C175 1.961 . S
C39 C209 1.961 . S
C73 C243 1.961 . S
C107 C141 1.961 . S
C277 C447 1.961 . S
C481 C311 1.961 . S
C515 C345 1.961 . S
C413 C379 1.961 . S
C549 C719 1.961 . S
C583 C753 1.961 . S
C787 C617 1.961 . S
C685 C651 1.961 . S
C821 C991 1.961 . S
C1025 C855 1.961 . S
C1059 C889 1.961 . S
C923 C957 1.961 . S
C145 C9 1.375 1_565 S
C43 C179 1.375 . S
C77 C213 1.375 1_565 S
C111 C247 1.375 1_554 S
C417 C281 1.375 1_545 S
C315 C451 1.375 . S
C485 C349 1.375 1_565 S
C383 C519 1.375 1_556 S
C553 C689 1.375 . S
C723 C587 1.375 1_556 S
C757 C621 1.375 . S
C791 C655 1.375 . S
C825 C961 1.375 . S
C859 C995 1.375 1_556 S
C893 C1029 1.375 . S
C927 C1063 1.375 . S
