# Generated by pormake.
# Topology wjx, (5)-cn, num edge types: 1
# Building blocks:
#     Node 0, Type 0, BuildingBlock: XOMCOT_clean_sbu_0, # of connection points: 5
#     Node 1, Type 0, BuildingBlock: XOMCOT_clean_sbu_0, # of connection points: 5
#     Node 2, Type 0, BuildingBlock: XOMCOT_clean_sbu_0, # of connection points: 5
#     Node 3, Type 0, BuildingBlock: XOMCOT_clean_sbu_0, # of connection points: 5
#     Node 4, Type 0, BuildingBlock: XOMCOT_clean_sbu_0, # of connection points: 5
#     Node 5, Type 0, BuildingBlock: XOMCOT_clean_sbu_0, # of connection points: 5
#     Node 6, Type 0, BuildingBlock: XOMCOT_clean_sbu_0, # of connection points: 5
#     Node 7, Type 0, BuildingBlock: XOMCOT_clean_sbu_0, # of connection points: 5
#     Node 8, Type 0, BuildingBlock: XOMCOT_clean_sbu_0, # of connection points: 5
#     Node 9, Type 0, BuildingBlock: XOMCOT_clean_sbu_0, # of connection points: 5
#     Node 10, Type 0, BuildingBlock: XOMCOT_clean_sbu_0, # of connection points: 5
#     Node 11, Type 0, BuildingBlock: XOMCOT_clean_sbu_0, # of connection points: 5
#     Edge 12, Type (0, 0), BuildingBlock: AJUNOK_clean_linker_0, # of connection points: 2
#     Edge 13, Type (0, 0), BuildingBlock: AJUNOK_clean_linker_0, # of connection points: 2
#     Edge 14, Type (0, 0), BuildingBlock: AJUNOK_clean_linker_0, # of connection points: 2
#     Edge 15, Type (0, 0), BuildingBlock: AJUNOK_clean_linker_0, # of connection points: 2
#     Edge 16, Type (0, 0), BuildingBlock: AJUNOK_clean_linker_0, # of connection points: 2
#     Edge 17, Type (0, 0), BuildingBlock: AJUNOK_clean_linker_0, # of connection points: 2
#     Edge 18, Type (0, 0), BuildingBlock: AJUNOK_clean_linker_0, # of connection points: 2
#     Edge 19, Type (0, 0), BuildingBlock: AJUNOK_clean_linker_0, # of connection points: 2
#     Edge 20, Type (0, 0), BuildingBlock: AJUNOK_clean_linker_0, # of connection points: 2
#     Edge 21, Type (0, 0), BuildingBlock: AJUNOK_clean_linker_0, # of connection points: 2
#     Edge 22, Type (0, 0), BuildingBlock: AJUNOK_clean_linker_0, # of connection points: 2
#     Edge 23, Type (0, 0), BuildingBlock: AJUNOK_clean_linker_0, # of connection points: 2
#     Edge 24, Type (0, 0), BuildingBlock: AJUNOK_clean_linker_0, # of connection points: 2
#     Edge 25, Type (0, 0), BuildingBlock: AJUNOK_clean_linker_0, # of connection points: 2
#     Edge 26, Type (0, 0), BuildingBlock: AJUNOK_clean_linker_0, # of connection points: 2
#     Edge 27, Type (0, 0), BuildingBlock: AJUNOK_clean_linker_0, # of connection points: 2
#     Edge 28, Type (0, 0), BuildingBlock: AJUNOK_clean_linker_0, # of connection points: 2
#     Edge 29, Type (0, 0), BuildingBlock: AJUNOK_clean_linker_0, # of connection points: 2
#     Edge 30, Type (0, 0), BuildingBlock: AJUNOK_clean_linker_0, # of connection points: 2
#     Edge 31, Type (0, 0), BuildingBlock: AJUNOK_clean_linker_0, # of connection points: 2
#     Edge 32, Type (0, 0), BuildingBlock: AJUNOK_clean_linker_0, # of connection points: 2
#     Edge 33, Type (0, 0), BuildingBlock: AJUNOK_clean_linker_0, # of connection points: 2
#     Edge 34, Type (0, 0), BuildingBlock: AJUNOK_clean_linker_0, # of connection points: 2
#     Edge 35, Type (0, 0), BuildingBlock: AJUNOK_clean_linker_0, # of connection points: 2
#     Edge 36, Type (0, 0), BuildingBlock: AJUNOK_clean_linker_0, # of connection points: 2
#     Edge 37, Type (0, 0), BuildingBlock: AJUNOK_clean_linker_0, # of connection points: 2
#     Edge 38, Type (0, 0), BuildingBlock: AJUNOK_clean_linker_0, # of connection points: 2
#     Edge 39, Type (0, 0), BuildingBlock: AJUNOK_clean_linker_0, # of connection points: 2
#     Edge 40, Type (0, 0), BuildingBlock: AJUNOK_clean_linker_0, # of connection points: 2
#     Edge 41, Type (0, 0), BuildingBlock: AJUNOK_clean_linker_0, # of connection points: 2
# Relax obj value: 0.149
# Max RMSD: 0.137
# Mean RMSD: 0.137
data_MOF--net-wjx--node1-XOMCOT_clean_sbu_0--edge1-AJUNOK_clean_linker_0
_symmetry_space_group_name_H-M    P1
_symmetry_Int_Tables_number       1
_symmetry_cell_setting            triclinic
loop_
_symmetry_equiv_pos_as_xyz
'x, y, z'
_cell_length_a     53.748231
_cell_length_b     53.692812
_cell_length_c     13.650778
_cell_angle_alpha  89.902672
_cell_angle_beta   90.073209
_cell_angle_gamma 120.01064
loop_
_atom_site_label
_atom_site_type_symbol
_atom_site_fract_x
_atom_site_fract_y
_atom_site_fract_z
_atom_type_partial_charge
Co0 Co 0.12021 0.42929 0.11271 0.0
C1 C 0.12112 0.43073 0.32886 0.0
C2 C 0.14337 0.40998 0.27211 0.0
C3 C 0.14442 0.40967 0.37293 0.0
N4 N 0.12888 0.4233 0.24487 0.0
N5 N 0.13053 0.42283 0.40853 0.0
H6 H 0.10823 0.44103 0.33117 0.0
H7 H 0.15234 0.4009 0.22229 0.0
C8 C 0.17796 0.4533 1.01627 0.0
O9 O 0.17382 0.47382 0.9819 0.0
N10 N 0.11093 0.4344 0.97789 0.0
C11 C 0.09082 0.44087 0.94789 0.0
C12 C 0.09024 0.44133 0.84733 0.0
C13 C 0.12084 0.42911 0.89376 0.0
N14 N 0.10932 0.43421 0.81353 0.0
C15 C 0.12081 0.48267 0.13184 0.0
C16 C 0.17651 0.51618 0.19774 0.0
C17 C 0.15978 0.52908 0.18021 0.0
C18 C 0.13152 0.51182 0.14846 0.0
C19 C 0.16496 0.48667 0.17808 0.0
N20 N 0.13781 0.47058 0.1403 0.0
H21 H 0.09838 0.46974 0.11578 0.0
H22 H 0.17779 0.47679 0.19365 0.0
H23 H 0.07601 0.44333 0.99442 0.0
H24 H 0.13593 0.42139 0.89059 0.0
O25 O 0.08153 0.41799 0.15271 0.0
O26 O 0.09498 0.38778 0.0973 0.0
O27 O 0.1583 0.43319 0.06812 0.0
C28 C 0.07451 0.39183 0.13038 0.0
H29 H 0.1547 0.40054 0.41668 0.0
H30 H 0.07602 0.44538 0.80243 0.0
H31 H 0.19813 0.52869 0.22634 0.0
H32 H 0.11742 0.52067 0.13958 0.0
Co33 Co 0.69752 0.11691 0.47297 0.0
C34 C 0.69835 0.119 0.69255 0.0
C35 C 0.73953 0.13066 0.63277 0.0
C36 C 0.74154 0.13142 0.73369 0.0
N37 N 0.71255 0.12357 0.60664 0.0
N38 N 0.71562 0.12432 0.77103 0.0
H39 H 0.67558 0.11028 0.69909 0.0
H40 H 0.75654 0.13468 0.58186 0.0
C41 C 0.74972 0.17637 0.46232 0.0
O42 O 0.74218 0.1822 0.54694 0.0
N43 N 0.68305 0.10992 0.34018 0.0
C44 C 0.65558 0.09943 0.31197 0.0
C45 C 0.65457 0.09939 0.21105 0.0
C46 C 0.69836 0.11585 0.25641 0.0
N47 N 0.68151 0.10992 0.1763 0.0
C48 C 0.65447 0.12715 0.5533 0.0
C49 C 0.6678 0.17698 0.45353 0.0
C50 C 0.64419 0.16513 0.51768 0.0
C51 C 0.63773 0.13985 0.5673 0.0
C52 C 0.68459 0.1637 0.44297 0.0
N53 N 0.67838 0.13944 0.49526 0.0
H54 H 0.6468 0.10631 0.58551 0.0
H55 H 0.70156 0.17218 0.38913 0.0
H56 H 0.63759 0.09263 0.36135 0.0
H57 H 0.72143 0.12494 0.25397 0.0
O58 O 0.66631 0.08017 0.51253 0.0
O59 O 0.70774 0.08659 0.45888 0.0
O60 O 0.73426 0.15159 0.42326 0.0
C61 C 0.68207 0.0689 0.49258 0.0
H62 H 0.76055 0.13664 0.77622 0.0
H63 H 0.63545 0.09203 0.16671 0.0
H64 H 0.67273 0.19579 0.41007 0.0
H65 H 0.61863 0.12879 0.61234 0.0
Co66 Co 0.59608 0.69806 0.80947 0.0
C67 C 0.59522 0.69849 0.0264 0.0
C68 C 0.61856 0.74113 0.96626 0.0
C69 C 0.62001 0.74306 0.06695 0.0
N70 N 0.60289 0.71323 0.94108 0.0
N71 N 0.60524 0.71625 0.10471 0.0
H72 H 0.58279 0.67526 0.03103 0.0
H73 H 0.62893 0.75877 0.91499 0.0
C74 C 0.57486 0.73242 0.69998 0.0
O75 O 0.55487 0.70781 0.66351 0.0
N76 N 0.59026 0.6833 0.6755 0.0
C77 C 0.57677 0.6558 0.64383 0.0
C78 C 0.578 0.65561 0.54307 0.0
C79 C 0.60063 0.6993 0.59307 0.0
N80 N 0.59265 0.683 0.51103 0.0
C81 C 0.54358 0.64611 0.85004 0.0
C82 C 0.50849 0.66941 0.87735 0.0
C83 C 0.49642 0.63946 0.87942 0.0
C84 C 0.51449 0.62798 0.86854 0.0
C85 C 0.53815 0.68697 0.86083 0.0
N86 N 0.55494 0.67512 0.8397 0.0
H87 H 0.55691 0.63648 0.84452 0.0
H88 H 0.5474 0.71 0.86479 0.0
H89 H 0.56699 0.63688 0.68928 0.0
H90 H 0.61377 0.72249 0.59337 0.0
O91 O 0.6069 0.67036 0.84992 0.0
O92 O 0.63741 0.71361 0.79192 0.0
O93 O 0.59291 0.73251 0.76182 0.0
C94 C 0.63301 0.68903 0.82613 0.0
H95 H 0.63193 0.76264 0.10891 0.0
H96 H 0.56837 0.63671 0.49681 0.0
H97 H 0.49521 0.67906 0.88891 0.0
H98 H 0.50605 0.60496 0.87237 0.0
Co99 Co 0.90545 0.58876 0.16985 0.0
C100 C 0.91206 0.59907 0.3881 0.0
C101 C 0.87153 0.59207 0.33514 0.0
C102 C 0.87147 0.59321 0.43585 0.0
N103 N 0.89689 0.59555 0.3041 0.0
N104 N 0.89677 0.59721 0.46954 0.0
H105 H 0.93299 0.60081 0.39049 0.0
H106 H 0.85336 0.58704 0.28906 0.0
C107 C 0.85387 0.57628 0.03974 0.0
O108 O 0.86097 0.56152 0.98122 0.0
N109 N 0.91506 0.58247 0.03694 0.0
C110 C 0.9196 0.56109 1.00771 0.0
C111 C 0.92294 0.56246 0.9073 0.0
C112 C 0.91737 0.59753 0.95389 0.0
N113 N 0.92135 0.58521 0.87324 0.0
C114 C 0.90081 0.5405 0.27062 0.0
C115 C 0.85683 0.49674 0.16623 0.0
C116 C 0.87354 0.4902 0.2286 0.0
C117 C 0.89417 0.51227 0.28669 0.0
C118 C 0.86339 0.52548 0.1555 0.0
N119 N 0.88679 0.54738 0.20146 0.0
H120 H 0.91857 0.55695 0.31115 0.0
H121 H 0.84996 0.52948 0.10838 0.0
H122 H 0.91914 0.54473 0.0552 0.0
H123 H 0.91316 0.61524 0.9513 0.0
O124 O 0.94355 0.59811 0.20827 0.0
O125 O 0.93264 0.63015 0.15292 0.0
O126 O 0.8681 0.58696 0.11967 0.0
C127 C 0.95227 0.62449 0.18399 0.0
H128 H 0.85352 0.58982 0.48117 0.0
H129 H 0.92446 0.54676 0.86187 0.0
H130 H 0.83982 0.4801 0.12252 0.0
H131 H 0.9066 0.50807 0.33993 0.0
Co132 Co 0.32424 0.89901 0.52011 0.0
C133 C 0.32357 0.8983 0.74113 0.0
C134 C 0.28324 0.88835 0.67726 0.0
C135 C 0.28047 0.88771 0.7776 0.0
N136 N 0.3101 0.89441 0.65401 0.0
N137 N 0.30585 0.89389 0.81733 0.0
H138 H 0.34579 0.90452 0.75051 0.0
H139 H 0.26679 0.88488 0.62444 0.0
C140 C 0.27518 0.83885 0.52815 0.0
O141 O 0.28686 0.83689 0.61033 0.0
N142 N 0.33747 0.90401 0.38648 0.0
C143 C 0.36471 0.91427 0.35617 0.0
C144 C 0.36506 0.91463 0.25536 0.0
C145 C 0.32163 0.89847 0.30433 0.0
N146 N 0.33796 0.90459 0.22285 0.0
C147 C 0.36861 0.89068 0.60125 0.0
C148 C 0.35753 0.84259 0.49452 0.0
C149 C 0.38203 0.85557 0.5544 0.0
C150 C 0.38726 0.87983 0.60838 0.0
C151 C 0.33916 0.85412 0.48995 0.0
N152 N 0.34437 0.8776 0.54494 0.0
H153 H 0.37525 0.9111 0.63533 0.0
H154 H 0.32188 0.84524 0.43718 0.0
H155 H 0.38302 0.92099 0.40406 0.0
H156 H 0.29879 0.89078 0.30454 0.0
O157 O 0.35562 0.93664 0.55055 0.0
O158 O 0.31314 0.92848 0.49986 0.0
O159 O 0.28724 0.86266 0.48052 0.0
C160 C 0.33933 0.94704 0.52679 0.0
H161 H 0.26155 0.88382 0.81811 0.0
H162 H 0.38379 0.92153 0.20943 0.0
H163 H 0.35327 0.82447 0.44849 0.0
H164 H 0.40683 0.89176 0.65054 0.0
Co165 Co 0.43749 0.32687 0.79813 0.0
C166 C 0.43739 0.32585 1.01872 0.0
C167 C 0.407 0.28542 0.95544 0.0
C168 C 0.4047 0.28286 0.05593 0.0
N169 N 0.42796 0.31221 0.93173 0.0
N170 N 0.4239 0.30832 0.09535 0.0
H171 H 0.45329 0.34812 0.02771 0.0
H172 H 0.39392 0.26894 0.90293 0.0
C173 C 0.44494 0.27474 0.79631 0.0
O174 O 0.45779 0.28297 0.88172 0.0
N175 N 0.44583 0.34067 0.66475 0.0
C176 C 0.46357 0.36779 0.63438 0.0
C177 C 0.46351 0.3682 0.53339 0.0
C178 C 0.43507 0.32498 0.58246 0.0
N179 N 0.44571 0.34124 0.50082 0.0
C180 C 0.49028 0.37029 0.88041 0.0
C181 C 0.52721 0.35808 0.77875 0.0
C182 C 0.53876 0.38258 0.83889 0.0
C183 C 0.51975 0.38817 0.89097 0.0
C184 C 0.49719 0.34021 0.77157 0.0
N185 N 0.47897 0.34612 0.82363 0.0
H186 H 0.47676 0.37742 0.91312 0.0
H187 H 0.48881 0.32279 0.71941 0.0
H188 H 0.47578 0.38596 0.68226 0.0
H189 H 0.41938 0.30227 0.58267 0.0
O190 O 0.43196 0.35851 0.8316 0.0
O191 O 0.39711 0.31665 0.77903 0.0
O192 O 0.43572 0.28982 0.75343 0.0
C193 C 0.40518 0.34279 0.80794 0.0
H194 H 0.38948 0.26405 0.09666 0.0
H195 H 0.47592 0.38684 0.4874 0.0
H196 H 0.54115 0.35336 0.73511 0.0
H197 H 0.52756 0.40751 0.93457 0.0
Co198 Co 0.58937 0.89659 0.545 0.0
C199 C 0.59008 0.89742 0.32469 0.0
C200 C 0.61591 0.88125 0.38583 0.0
C201 C 0.61856 0.88183 0.2854 0.0
N202 N 0.59738 0.89025 0.41079 0.0
N203 N 0.60247 0.89222 0.24734 0.0
H204 H 0.57673 0.90695 0.31744 0.0
H205 H 0.6273 0.87526 0.4374 0.0
C206 C 0.57771 0.83616 0.54808 0.0
O207 O 0.56273 0.83275 0.46798 0.0
N208 N 0.58263 0.90353 0.67848 0.0
C209 C 0.56646 0.91488 0.70736 0.0
C210 C 0.56741 0.91681 0.80792 0.0
C211 C 0.59332 0.89879 0.76145 0.0
N212 N 0.58445 0.90689 0.84178 0.0
C213 C 0.53571 0.88678 0.46716 0.0
C214 C 0.50019 0.84135 0.58722 0.0
C215 C 0.48799 0.85372 0.52743 0.0
C216 C 0.5062 0.87629 0.46542 0.0
C217 C 0.53005 0.85259 0.5868 0.0
N218 N 0.54758 0.87487 0.52596 0.0
H219 H 0.54899 0.90634 0.42777 0.0
H220 H 0.53909 0.84458 0.64046 0.0
H221 H 0.55464 0.92111 0.65863 0.0
H222 H 0.6075 0.88993 0.763 0.0
O223 O 0.59521 0.93375 0.50917 0.0
O224 O 0.63007 0.92617 0.55856 0.0
O225 O 0.59046 0.86085 0.58982 0.0
C226 C 0.62214 0.9444 0.52992 0.0
H227 H 0.63201 0.87601 0.24372 0.0
H228 H 0.55591 0.92434 0.85271 0.0
H229 H 0.48702 0.82403 0.63719 0.0
H230 H 0.49804 0.88739 0.42107 0.0
Co231 Co 0.70357 0.59113 0.89573 0.0
C232 C 0.70405 0.58955 0.676 0.0
C233 C 0.74562 0.61789 0.73585 0.0
C234 C 0.74764 0.61913 0.63503 0.0
N235 N 0.71837 0.59878 0.76187 0.0
N236 N 0.72146 0.60106 0.59764 0.0
H237 H 0.68118 0.57612 0.66946 0.0
H238 H 0.76284 0.63038 0.78687 0.0
C239 C 0.75189 0.57863 0.89882 0.0
O240 O 0.7411 0.56466 0.81649 0.0
N241 N 0.6893 0.58444 0.02855 0.0
C242 C 0.66165 0.56875 0.05665 0.0
C243 C 0.66061 0.56778 0.1575 0.0
C244 C 0.70471 0.59311 0.11229 0.0
N245 N 0.6877 0.58292 0.19226 0.0
C246 C 0.65773 0.53898 0.81607 0.0
C247 C 0.66815 0.50051 0.91651 0.0
C248 C 0.64453 0.48982 0.85263 0.0
C249 C 0.63946 0.50962 0.80282 0.0
C250 C 0.68633 0.53039 0.92672 0.0
N251 N 0.68169 0.54938 0.87362 0.0
H252 H 0.65134 0.55319 0.78374 0.0
H253 H 0.70326 0.53807 0.98068 0.0
H254 H 0.64355 0.55844 1.00721 0.0
H255 H 0.72789 0.60608 0.11475 0.0
O256 O 0.67426 0.59979 0.85664 0.0
O257 O 0.7172 0.63226 0.91099 0.0
O258 O 0.7392 0.59024 0.9427 0.0
C259 C 0.69222 0.62647 0.87664 0.0
H260 H 0.76682 0.63239 0.59258 0.0
H261 H 0.64139 0.55692 0.20183 0.0
H262 H 0.67209 0.48594 0.96007 0.0
H263 H 0.62042 0.5025 0.75808 0.0
Co264 Co 0.12034 0.69412 0.2817 0.0
C265 C 0.12154 0.69211 0.06418 0.0
C266 C 0.15282 0.73354 0.11893 0.0
C267 C 0.15342 0.73461 1.01817 0.0
N268 N 0.13293 0.70684 0.14807 0.0
N269 N 0.13353 0.70868 0.98422 0.0
H270 H 0.10451 0.66991 0.06125 0.0
H271 H 0.16547 0.75145 0.16678 0.0
C272 C 0.17648 0.73164 0.386 0.0
O273 O 0.17439 0.70781 0.42055 0.0
N274 N 0.10675 0.68195 0.41665 0.0
C275 C 0.08226 0.65803 0.44444 0.0
C276 C 0.07986 0.65743 0.54473 0.0
C277 C 0.11779 0.69632 0.50164 0.0
N278 N 0.10229 0.68153 0.58053 0.0
C279 C 0.12454 0.64355 0.31062 0.0
C280 C 0.17729 0.6625 0.22313 0.0
C281 C 0.16203 0.63422 0.25898 0.0
C282 C 0.13547 0.625 0.3035 0.0
C283 C 0.16581 0.68085 0.23427 0.0
N284 N 0.13975 0.67138 0.27897 0.0
H285 H 0.103 0.6347 0.33708 0.0
H286 H 0.17769 0.7025 0.20576 0.0
H287 H 0.067 0.64165 0.39569 0.0
H288 H 0.13612 0.71763 0.50719 0.0
O289 O 0.08415 0.66449 0.23209 0.0
O290 O 0.09287 0.70809 0.27041 0.0
O291 O 0.15615 0.73018 0.33239 0.0
C292 C 0.07477 0.68247 0.23684 0.0
H293 H 0.16651 0.75333 0.97328 0.0
H294 H 0.06325 0.64024 0.58787 0.0
H295 H 0.19761 0.67016 0.18578 0.0
H296 H 0.12237 0.60293 0.32787 0.0
Co297 Co 0.43734 0.11957 0.57524 0.0
C298 C 0.43915 0.12257 0.35548 0.0
C299 C 0.40909 0.13342 0.41573 0.0
C300 C 0.40776 0.13422 0.31481 0.0
N301 N 0.42928 0.12672 0.44162 0.0
N302 N 0.4269 0.12762 0.27715 0.0
H303 H 0.4536 0.11433 0.34863 0.0
H304 H 0.39585 0.13702 0.46685 0.0
C305 C 0.44502 0.17932 0.58801 0.0
O306 O 0.45759 0.1852 0.50189 0.0
N307 N 0.4445 0.1121 0.708 0.0
C308 C 0.4624 0.10274 0.7366 0.0
C309 C 0.46336 0.10282 0.83754 0.0
C310 C 0.43444 0.11729 0.79161 0.0
N311 N 0.44601 0.11226 0.872 0.0
C312 C 0.49068 0.12943 0.4962 0.0
C313 C 0.52714 0.17871 0.59826 0.0
C314 C 0.53899 0.16637 0.53668 0.0
C315 C 0.52018 0.14159 0.48486 0.0
C316 C 0.49708 0.16593 0.60644 0.0
N317 N 0.47907 0.14185 0.55361 0.0
H318 H 0.47741 0.1088 0.46283 0.0
H319 H 0.48856 0.17459 0.65941 0.0
H320 H 0.47438 0.09685 0.6875 0.0
H321 H 0.41958 0.12532 0.79363 0.0
O322 O 0.43145 0.08273 0.53493 0.0
O323 O 0.39671 0.08953 0.58885 0.0
O324 O 0.43566 0.15438 0.6261 0.0
C325 C 0.40444 0.07168 0.55503 0.0
H326 H 0.39365 0.13906 0.27248 0.0
H327 H 0.47591 0.09643 0.88205 0.0
H328 H 0.54091 0.19747 0.64193 0.0
H329 H 0.52821 0.13043 0.44034 0.0
Co330 Co 0.32743 0.4377 0.87151 0.0
C331 C 0.32687 0.4373 0.65071 0.0
C332 C 0.28476 0.41494 0.71301 0.0
C333 C 0.28216 0.4126 0.61278 0.0
N334 N 0.31276 0.43145 0.73737 0.0
N335 N 0.30867 0.42688 0.57374 0.0
H336 H 0.34983 0.44755 0.64288 0.0
H337 H 0.26731 0.40434 0.76474 0.0
C338 C 0.28045 0.45134 0.88385 0.0
O339 O 0.29298 0.46766 0.80712 0.0
N340 N 0.34112 0.44229 1.00483 0.0
C341 C 0.36865 0.45673 0.03521 0.0
C342 C 0.36904 0.45603 0.1361 0.0
C343 C 0.32515 0.43282 0.087 0.0
N344 N 0.34168 0.44121 0.16844 0.0
C345 C 0.3686 0.49293 0.79338 0.0
C346 C 0.36352 0.52576 0.93901 0.0
C347 C 0.38552 0.53923 0.86966 0.0
C348 C 0.38744 0.52251 0.79501 0.0
C349 C 0.34445 0.49601 0.93306 0.0
N350 N 0.3471 0.47978 0.86072 0.0
H351 H 0.37336 0.48057 0.74341 0.0
H352 H 0.32885 0.48579 0.99089 0.0
H353 H 0.38709 0.46758 0.98742 0.0
H354 H 0.30195 0.42006 0.08704 0.0
O355 O 0.35895 0.43323 0.82947 0.0
O356 O 0.31719 0.39695 0.87599 0.0
O357 O 0.29056 0.43609 0.91991 0.0
C358 C 0.34329 0.40584 0.84441 0.0
H359 H 0.2624 0.40029 0.5721 0.0
H360 H 0.38793 0.46637 0.18224 0.0
H361 H 0.36191 0.53784 0.9997 0.0
H362 H 0.40502 0.53182 0.74298 0.0
Co363 Co 0.90598 0.3156 0.21234 0.0
C364 C 0.90668 0.31441 0.99287 0.0
C365 C 0.87984 0.27235 0.05108 0.0
C366 C 0.8798 0.2705 0.95001 0.0
N367 N 0.89579 0.3002 0.07841 0.0
N368 N 0.89642 0.29716 0.91378 0.0
H369 H 0.92325 0.33666 0.98738 0.0
H370 H 0.86945 0.25431 0.10073 0.0
C371 C 0.84437 0.2692 0.2434 0.0
O372 O 0.83729 0.27912 0.16665 0.0
N373 N 0.91687 0.33034 0.34462 0.0
C374 C 0.93123 0.35815 0.3718 0.0
C375 C 0.93258 0.35948 0.47265 0.0
C376 C 0.91014 0.31514 0.42908 0.0
N377 N 0.91889 0.33241 0.50882 0.0
C378 C 0.89299 0.35652 0.12602 0.0
C379 C 0.86093 0.35902 0.27945 0.0
C380 C 0.87047 0.38011 0.20602 0.0
C381 C 0.88498 0.37741 0.12571 0.0
C382 C 0.86838 0.33735 0.27462 0.0
N383 N 0.8852 0.33689 0.19995 0.0
H384 H 0.90809 0.3586 0.07163 0.0
H385 H 0.86283 0.32264 0.33558 0.0
H386 H 0.93953 0.37621 0.32182 0.0
H387 H 0.89848 0.29192 0.43226 0.0
O388 O 0.9427 0.34538 0.16484 0.0
O389 O 0.93425 0.30277 0.21721 0.0
O390 O 0.87078 0.28053 0.26904 0.0
C391 C 0.95243 0.32801 0.18127 0.0
H392 H 0.86848 0.25112 0.90665 0.0
H393 H 0.94287 0.37899 0.51571 0.0
H394 H 0.84985 0.36053 0.34337 0.0
H395 H 0.89282 0.39333 0.06761 0.0
C396 C 0.03168 0.35482 0.22325 0.0
C397 C 0.04399 0.36902 0.13442 0.0
C398 C 1.00158 0.33902 0.23573 0.0
C399 C 0.98299 0.33763 0.16046 0.0
H400 H 0.04538 0.35735 0.28518 0.0
H401 H 0.99293 0.32978 0.30685 0.0
S402 S 1.0046 0.36943 0.91221 0.0
N403 N 0.03528 0.37885 0.96839 0.0
N404 N 0.97911 0.35019 0.99243 0.0
C405 C 0.99513 0.35059 0.07012 0.0
C406 C 0.02556 0.36608 0.05698 0.0
C407 C 0.64388 0.02231 0.55977 0.0
C408 C 0.67013 0.03746 0.50896 0.0
C409 C 0.62963 0.99243 0.56964 0.0
C410 C 0.64099 0.97608 0.53046 0.0
H411 H 0.63362 0.03349 0.59046 0.0
H412 H 0.60901 0.9819 0.60656 0.0
S413 S 0.70979 1.00472 0.39591 0.0
N414 N 0.70767 0.03364 0.42255 0.0
N415 N 0.68068 0.97702 0.44247 0.0
C416 C 0.66785 0.99073 0.48347 0.0
C417 C 0.68246 0.02152 0.47244 0.0
C418 C 0.68305 0.66569 0.93272 0.0
C419 C 0.68403 0.64852 0.85679 0.0
C420 C 0.66852 0.68125 0.91991 0.0
C421 C 0.65528 0.68066 0.83016 0.0
H422 H 0.69154 0.6653 1.00437 0.0
H423 H 0.66607 0.69231 0.98226 0.0
S424 S 0.6542 0.6412 0.6066 0.0
N425 N 0.6722 0.63339 0.6874 0.0
N426 N 0.64569 0.66311 0.66307 0.0
C427 C 0.65786 0.66515 0.75222 0.0
C428 C 0.6721 0.64899 0.76559 0.0
C429 C 0.02782 0.68258 0.25528 0.0
C430 C 0.04455 0.67272 0.20752 0.0
C431 C 0.99767 0.66861 0.24155 0.0
C432 C 0.98361 0.64473 0.17865 0.0
H433 H 0.0377 0.69976 0.30852 0.0
H434 H 0.98518 0.67523 0.28522 0.0
S435 S 0.01782 0.61286 0.02766 0.0
N436 N 0.04469 0.63917 0.08813 0.0
N437 N 0.98885 0.61373 0.06188 0.0
C438 C 1.00042 0.63625 0.12542 0.0
C439 C 0.03068 0.65005 0.13984 0.0
C440 C 0.3955 0.02468 0.48969 0.0
C441 C 0.3847 0.04022 0.53969 0.0
C442 C 0.37971 0.99474 0.48186 0.0
C443 C 0.35211 0.97872 0.52234 0.0
H444 H 0.41689 0.03562 0.45838 0.0
H445 H 0.38962 0.9839 0.44588 0.0
S446 S 0.31264 1.00845 0.6549 0.0
N447 N 0.34368 0.03711 0.62626 0.0
N448 N 0.31374 0.9804 0.61023 0.0
C449 C 0.34017 0.99376 0.56821 0.0
C450 C 0.35651 0.0246 0.57715 0.0
C451 C 0.38489 0.40052 0.79483 0.0
C452 C 0.35626 0.38718 0.82828 0.0
C453 C 0.39964 0.38541 0.78556 0.0
C454 C 0.38659 0.356 0.80793 0.0
H455 H 0.39657 0.42326 0.77752 0.0
H456 H 0.42186 0.39718 0.76187 0.0
S457 S 0.31152 0.30988 0.89234 0.0
N458 N 0.31485 0.34206 0.87984 0.0
N459 N 0.34282 0.3134 0.86074 0.0
C460 C 0.3576 0.34177 0.8374 0.0
C461 C 0.34242 0.35741 0.84808 0.0
C462 C 0.11747 0.40834 0.67932 0.0
C463 C 0.11553 0.43206 0.71236 0.0
C464 C 0.12241 0.4055 0.58008 0.0
C465 C 0.12586 0.42643 0.51045 0.0
H466 H 0.11448 0.39158 0.73023 0.0
H467 H 0.12301 0.3865 0.55744 0.0
S468 S 0.12627 0.49442 0.5631 0.0
N469 N 0.11953 0.47785 0.67 0.0
N470 N 0.12949 0.47295 0.48411 0.0
C471 C 0.12486 0.45072 0.54354 0.0
C472 C 0.11956 0.45343 0.64431 0.0
C473 C 0.71994 0.11178 0.94292 0.0
C474 C 0.70753 0.1217 0.87323 0.0
C475 C 0.7116 0.10828 0.04194 0.0
C476 C 0.69046 0.11444 0.07495 0.0
H477 H 0.73577 0.10611 0.92042 0.0
H478 H 0.7213 0.1001 0.09272 0.0
S479 S 0.65409 0.14455 0.92495 0.0
N480 N 0.67496 0.14017 0.84663 0.0
N481 N 0.65915 0.13328 0.03175 0.0
C482 C 0.67851 0.12514 1.00667 0.0
C483 C 0.68707 0.12885 0.90617 0.0
C484 C 0.60049 0.67592 0.33687 0.0
C485 C 0.59688 0.69237 0.40989 0.0
C486 C 0.60307 0.68372 0.23748 0.0
C487 C 0.60218 0.70832 0.20707 0.0
H488 H 0.60148 0.65691 0.35683 0.0
H489 H 0.60614 0.67061 0.18413 0.0
S490 S 0.59073 0.75741 0.36739 0.0
N491 N 0.59099 0.73359 0.44342 0.0
N492 N 0.59591 0.74821 0.25724 0.0
C493 C 0.59833 0.72481 0.27903 0.0
C494 C 0.59568 0.71688 0.38017 0.0
C495 C 0.93523 0.61176 0.71441 0.0
C496 C 0.91513 0.58883 0.77273 0.0
C497 C 0.9295 0.61424 0.61462 0.0
C498 C 0.90325 0.59416 0.57063 0.0
H499 H 0.95557 0.62758 0.74588 0.0
H500 H 0.94543 0.63214 0.57196 0.0
S501 S 0.84421 0.52974 0.69172 0.0
N502 N 0.86864 0.54535 0.77843 0.0
N503 N 0.8576 0.55014 0.59342 0.0
C504 C 0.88319 0.57117 0.62873 0.0
C505 C 0.88919 0.56848 0.72902 0.0
C506 C 0.3474 0.92174 0.05162 0.0
C507 C 0.32898 0.90181 0.12185 0.0
C508 C 0.33965 0.91908 0.95251 0.0
C509 C 0.31311 0.8965 0.91981 0.0
H510 H 0.36793 0.93967 0.07356 0.0
H511 H 0.35441 0.93496 0.90107 0.0
S512 S 0.25801 0.83743 0.07195 0.0
N513 N 0.28358 0.85783 0.15034 0.0
N514 N 0.26891 0.85315 0.96407 0.0
C515 C 0.29449 0.87638 0.98886 0.0
C516 C 0.30243 0.87896 0.08985 0.0
C517 C 0.43343 0.34282 0.22954 0.0
C518 C 0.42858 0.31584 0.19779 0.0
C519 C 0.43871 0.3508 0.32856 0.0
C520 C 0.43947 0.33218 0.39973 0.0
H521 H 0.43289 0.35777 0.17746 0.0
H522 H 0.44202 0.37167 0.34968 0.0
S523 S 0.43056 0.26008 0.35252 0.0
N524 N 0.42625 0.27107 0.2441 0.0
N525 N 0.4365 0.28612 0.42977 0.0
C526 C 0.43492 0.30523 0.36856 0.0
C527 C 0.42941 0.29706 0.26777 0.0
C528 C 0.59206 0.88017 0.9752 0.0
C529 C 0.5907 0.90437 0.94294 0.0
C530 C 0.59635 0.87655 0.07455 0.0
C531 C 0.59939 0.89696 0.14514 0.0
H532 H 0.589 0.86355 0.92369 0.0
H533 H 0.59656 0.85728 0.0968 0.0
S534 S 0.6018 0.96609 0.09643 0.0
N535 N 0.59572 0.95044 0.98812 0.0
N536 N 0.6037 0.94356 0.17444 0.0
C537 C 0.59919 0.92175 0.11329 0.0
C538 C 0.59487 0.92547 1.01231 0.0
C539 C 0.72667 0.61828 0.42609 0.0
C540 C 0.71337 0.59595 0.49544 0.0
C541 C 0.71848 0.61381 0.32694 0.0
C542 C 0.69658 0.58692 0.29358 0.0
H543 H 0.74312 0.63952 0.44895 0.0
H544 H 0.72888 0.63169 0.27636 0.0
S545 S 0.6576 0.52046 0.44253 0.0
N546 N 0.67908 0.54523 0.52133 0.0
N547 N 0.66349 0.53705 0.3359 0.0
C548 C 0.68369 0.56423 0.36148 0.0
C549 C 0.69212 0.56869 0.46211 0.0
C550 C 0.13863 0.70217 0.7121 0.0
C551 C 0.1097 0.68887 0.68209 0.0
C552 C 0.14625 0.70844 0.81106 0.0
C553 C 0.12522 0.70143 0.88351 0.0
H554 H 0.15545 0.70732 0.65887 0.0
H555 H 0.16869 0.71853 0.83147 0.0
S556 S 0.04706 0.67016 0.84226 0.0
N557 N 0.0603 0.67137 0.7321 0.0
N558 N 0.07471 0.68301 0.91809 0.0
C559 C 0.09636 0.68882 0.85446 0.0
C560 C 0.08858 0.68256 0.75374 0.0
C561 C 0.40962 0.11417 0.106 0.0
C562 C 0.4322 0.12492 0.17481 0.0
C563 C 0.4143 0.1104 1.00704 0.0
C564 C 0.4417 0.11712 0.97317 0.0
H565 H 0.38805 0.10802 0.12924 0.0
H566 H 0.39624 0.10156 0.95706 0.0
S567 S 0.50876 0.14976 0.12031 0.0
N568 N 0.48351 0.1449 0.19941 0.0
N569 N 0.49219 0.13766 1.01442 0.0
C570 C 0.46461 0.1288 0.04045 0.0
C571 C 0.45989 0.13272 0.1409 0.0
C572 C 0.34053 0.42859 0.44014 0.0
C573 C 0.31615 0.42967 0.47127 0.0
C574 C 0.3485 0.43201 0.34104 0.0
C575 C 0.33241 0.43665 0.2693 0.0
H576 H 0.35342 0.42486 0.49271 0.0
H577 H 0.36734 0.43088 0.32023 0.0
S578 S 0.26809 0.44364 0.31391 0.0
N579 N 0.27681 0.43713 0.42317 0.0
N580 N 0.29183 0.44366 0.23724 0.0
C581 C 0.30809 0.43796 0.29956 0.0
C582 C 0.29996 0.43445 0.40042 0.0
C583 C 0.91179 0.29811 0.64315 0.0
C584 C 0.91308 0.32369 0.61071 0.0
C585 C 0.90615 0.28936 0.74192 0.0
C586 C 0.90176 0.30594 0.81214 0.0
H587 H 0.91552 0.28493 0.59205 0.0
H588 H 0.9057 0.26975 0.76387 0.0
S589 S 0.89902 0.37252 0.76362 0.0
N590 N 0.90663 0.36389 0.65623 0.0
N591 N 0.89663 0.34774 0.84086 0.0
C592 C 0.90227 0.33111 0.78029 0.0
C593 C 0.90778 0.33991 0.68 0.0
C594 C 0.17081 0.57784 0.12434 0.0
C595 C 0.1699 0.5598 0.20095 0.0
C596 C 0.17161 0.60394 0.14372 0.0
C597 C 0.17104 0.6126 0.24044 0.0
H598 H 0.16879 0.57071 0.04904 0.0
H599 H 0.17006 0.61605 0.08281 0.0
S600 S 0.17199 0.57467 0.46645 0.0
N601 N 0.17137 0.55379 0.3766 0.0
N602 N 0.17247 0.60259 0.41332 0.0
C603 C 0.17243 0.59585 0.3174 0.0
C604 C 0.17195 0.56949 0.29759 0.0
C605 C 0.60955 0.17723 0.43827 0.0
C606 C 0.62327 0.17562 0.5238 0.0
C607 C 0.58353 0.17742 0.44327 0.0
C608 C 0.57029 0.17602 0.53392 0.0
H609 H 0.61749 0.17565 0.36699 0.0
H610 H 0.57253 0.17634 0.37547 0.0
S611 S 0.60053 0.17704 0.77924 0.0
N612 N 0.6242 0.17727 0.7017 0.0
N613 N 0.57505 0.17693 0.71115 0.0
C614 C 0.58542 0.17756 0.61989 0.0
C615 C 0.61196 0.17749 0.61476 0.0
C616 C 0.45458 0.60044 0.96893 0.0
C617 C 0.46513 0.61938 0.8886 0.0
C618 C 0.42714 0.57584 0.96653 0.0
C619 C 0.40961 0.56911 0.88291 0.0
H620 H 0.4684 0.60363 0.03114 0.0
H621 H 0.42069 0.56075 0.02694 0.0
S622 S 0.42613 0.61344 0.65815 0.0
N623 N 0.45496 0.6313 0.72752 0.0
N624 N 0.40357 0.58481 0.72214 0.0
C625 C 0.41909 0.58901 0.8053 0.0
C626 C 0.44684 0.61424 0.80837 0.0
C627 C 0.84524 0.40892 0.22826 0.0
C628 C 0.87071 0.40772 0.2193 0.0
C629 C 0.84599 0.43559 0.23114 0.0
C630 C 0.87226 0.46179 0.22608 0.0
H631 H 0.82467 0.38921 0.23067 0.0
H632 H 0.82597 0.43571 0.23751 0.0
S633 S 0.94486 0.46992 0.20279 0.0
N634 N 0.92279 0.43489 0.20856 0.0
N635 N 0.9242 0.48446 0.20927 0.0
C636 C 0.89776 0.46061 0.21766 0.0
C637 C 0.89699 0.43375 0.21577 0.0
C638 C 0.44145 0.84466 0.45282 0.0
C639 C 0.45743 0.84648 0.53721 0.0
C640 C 0.41557 0.84504 0.45924 0.0
C641 C 0.40463 0.84723 0.55039 0.0
H642 H 0.44989 0.84466 0.38079 0.0
H643 H 0.40525 0.84578 0.39195 0.0
S644 S 0.4356 0.84798 0.79413 0.0
N645 N 0.45865 0.8475 0.71542 0.0
N646 N 0.40959 0.84718 0.72732 0.0
C647 C 0.41897 0.84638 0.63559 0.0
C648 C 0.44543 0.8462 0.62911 0.0
C649 C 0.60945 0.44332 0.93307 0.0
C650 C 0.62257 0.45866 0.84689 0.0
C651 C 0.58354 0.41695 0.92948 0.0
C652 C 0.56984 0.40487 0.83965 0.0
H653 H 0.6179 0.45283 1.00402 0.0
H654 H 0.57307 0.40695 0.99787 0.0
S655 S 0.59817 0.43418 0.5927 0.0
N656 N 0.62222 0.45789 0.66887 0.0
N657 N 0.57331 0.40868 0.6622 0.0
C658 C 0.58423 0.41862 0.75281 0.0
C659 C 0.61061 0.44545 0.75647 0.0
C660 C 0.23205 0.42771 0.96921 0.0
C661 C 0.25561 0.45228 0.92836 0.0
C662 C 0.20719 0.42821 1.00006 0.0
C663 C 0.20509 0.45333 0.99146 0.0
H664 H 0.23235 0.40773 0.9739 0.0
H665 H 0.18921 0.40857 0.02806 0.0
S666 S 0.263 0.52459 0.90458 0.0
N667 N 0.27652 0.50316 0.89172 0.0
N668 N 0.23044 0.50421 0.94944 0.0
C669 C 0.22927 0.47837 0.95586 0.0
C670 C 0.25433 0.47781 0.92446 0.0
C671 C 0.79804 0.22206 0.2524 0.0
C672 C 0.82137 0.24503 0.30079 0.0
C673 C 0.77544 0.19952 0.30501 0.0
C674 C 0.77486 0.19943 0.40826 0.0
H675 H 0.79726 0.22147 0.17308 0.0
H676 H 0.75791 0.18245 0.26429 0.0
S677 S 0.83057 0.25494 0.56998 0.0
N678 N 0.84237 0.26631 0.45794 0.0
N679 N 0.79994 0.22444 0.55669 0.0
C680 C 0.7981 0.22231 0.45743 0.0
C681 C 0.82132 0.24495 0.40382 0.0
C682 C 0.55848 0.78305 0.55439 0.0
C683 C 0.57777 0.81059 0.59137 0.0
C684 C 0.55761 0.75828 0.59132 0.0
C685 C 0.57621 0.75963 0.66651 0.0
H686 H 0.5437 0.7804 0.49597 0.0
H687 H 0.5423 0.73784 0.55902 0.0
S688 S 0.6303 0.82633 0.79206 0.0
N689 N 0.61549 0.83768 0.71039 0.0
N690 N 0.61417 0.79105 0.77895 0.0
C691 C 0.59549 0.78698 0.70536 0.0
C692 C 0.59618 0.8124 0.66811 0.0
C693 C 0.81981 0.57357 0.91023 0.0
C694 C 0.82887 0.57953 1.00874 0.0
C695 C 0.79538 0.57386 0.8764 0.0
C696 C 0.77859 0.58029 0.93885 0.0
H697 H 0.83157 0.5683 0.85777 0.0
H698 H 0.7896 0.5688 0.8 0.0
S699 S 0.79307 0.59874 0.20278 0.0
N700 N 0.81931 0.59314 0.16805 0.0
N701 N 0.77321 0.59372 0.10429 0.0
C702 C 0.78767 0.58719 0.03708 0.0
C703 C 0.8128 0.58685 0.07194 0.0
C704 C 0.2428 0.78546 0.52791 0.0
C705 C 0.24969 0.81244 0.48866 0.0
C706 C 0.2193 0.7599 0.49383 0.0
C707 C 0.20112 0.75984 0.41921 0.0
H708 H 0.25585 0.78387 0.58538 0.0
H709 H 0.21537 0.73995 0.52725 0.0
S710 S 0.20907 0.82481 0.29291 0.0
N711 N 0.23619 0.83763 0.37097 0.0
N712 N 0.1915 0.78956 0.30825 0.0
C713 C 0.2075 0.78671 0.37967 0.0
C714 C 0.23186 0.81292 0.4138 0.0
C715 C 0.44183 0.24739 0.64281 0.0
C716 C 0.44344 0.24934 0.74573 0.0
C717 C 0.44219 0.22466 0.59277 0.0
C718 C 0.44354 0.2025 0.6435 0.0
H719 H 0.44104 0.26399 0.60035 0.0
H720 H 0.4414 0.22446 0.5135 0.0
S721 S 0.44748 0.19693 0.91368 0.0
N722 N 0.44612 0.22669 0.89684 0.0
N723 N 0.44638 0.18397 0.80316 0.0
C724 C 0.44461 0.20387 0.74657 0.0
C725 C 0.4447 0.22725 0.7975 0.0
loop_
_geom_bond_atom_site_label_1
_geom_bond_atom_site_label_2
_geom_bond_distance
_geom_bond_site_symmetry_2
_ccdc_geom_bond_type
Co0 N4 2.148 . S
Co0 N10 2.128 1_554 S
Co0 N20 2.194 . S
Co0 O25 2.351 . S
Co0 O26 2.155 . S
Co0 O27 2.096 . S
C1 N4 1.301 . S
C1 N5 1.328 . S
C1 H6 0.930 . S
C2 C3 1.333 . S
C2 N4 1.317 . S
C2 H7 0.930 . S
C3 C2 1.333 . S
C3 N5 1.350 . S
C3 H29 0.931 . S
N4 Co0 2.148 . S
N4 C1 1.301 . S
N4 C2 1.317 . S
N5 C1 1.328 . S
N5 C3 1.350 . S
H6 C1 0.930 . S
H7 C2 0.930 . S
C8 O9 1.224 . S
C8 O27 1.247 . S
O9 C8 1.224 . S
N10 Co0 2.128 1_556 S
N10 C11 1.355 . S
N10 C13 1.311 . S
C11 N10 1.355 . S
C11 C12 1.363 . S
C11 H23 0.929 . S
C12 C11 1.363 . S
C12 N14 1.375 . S
C12 H30 0.931 . S
C13 N10 1.311 . S
C13 N14 1.347 . S
C13 H24 0.929 . S
N14 C12 1.375 . S
N14 C13 1.347 . S
C15 C18 1.365 . S
C15 N20 1.328 . S
C15 H21 0.929 . S
C16 C17 1.362 . S
C16 C19 1.378 . S
C16 H31 0.929 . S
C17 C16 1.362 . S
C17 C18 1.366 . S
C18 C15 1.365 . S
C18 C17 1.366 . S
C18 H32 0.930 . S
C19 C16 1.378 . S
C19 N20 1.315 . S
C19 H22 0.930 . S
N20 Co0 2.194 . S
N20 C15 1.328 . S
N20 C19 1.315 . S
H21 C15 0.929 . S
H22 C19 0.930 . S
H23 C11 0.929 . S
H24 C13 0.929 . S
O25 Co0 2.351 . S
O25 C28 1.244 . S
O26 Co0 2.155 . S
O26 C28 1.240 . S
O27 Co0 2.096 . S
O27 C8 1.247 . S
C28 O25 1.244 . S
C28 O26 1.240 . S
H29 C3 0.931 . S
H30 C12 0.931 . S
H31 C16 0.929 . S
H32 C18 0.930 . S
Co33 N37 2.148 . S
Co33 N43 2.128 . S
Co33 N53 2.194 . S
Co33 O58 2.351 . S
Co33 O59 2.155 . S
Co33 O60 2.096 . S
C34 N37 1.301 . S
C34 N38 1.328 . S
C34 H39 0.930 . S
C35 C36 1.333 . S
C35 N37 1.317 . S
C35 H40 0.930 . S
C36 C35 1.333 . S
C36 N38 1.350 . S
C36 H62 0.931 . S
N37 Co33 2.148 . S
N37 C34 1.301 . S
N37 C35 1.317 . S
N38 C34 1.328 . S
N38 C36 1.350 . S
H39 C34 0.930 . S
H40 C35 0.930 . S
C41 O42 1.224 . S
C41 O60 1.247 . S
O42 C41 1.224 . S
N43 Co33 2.128 . S
N43 C44 1.355 . S
N43 C46 1.311 . S
C44 N43 1.355 . S
C44 C45 1.363 . S
C44 H56 0.929 . S
C45 C44 1.363 . S
C45 N47 1.375 . S
C45 H63 0.931 . S
C46 N43 1.311 . S
C46 N47 1.347 . S
C46 H57 0.929 . S
N47 C45 1.375 . S
N47 C46 1.347 . S
C48 C51 1.365 . S
C48 N53 1.328 . S
C48 H54 0.929 . S
C49 C50 1.362 . S
C49 C52 1.378 . S
C49 H64 0.929 . S
C50 C49 1.362 . S
C50 C51 1.366 . S
C51 C48 1.365 . S
C51 C50 1.366 . S
C51 H65 0.930 . S
C52 C49 1.378 . S
C52 N53 1.315 . S
C52 H55 0.930 . S
N53 Co33 2.194 . S
N53 C48 1.328 . S
N53 C52 1.315 . S
H54 C48 0.929 . S
H55 C52 0.930 . S
H56 C44 0.929 . S
H57 C46 0.929 . S
O58 Co33 2.351 . S
O58 C61 1.244 . S
O59 Co33 2.155 . S
O59 C61 1.240 . S
O60 Co33 2.096 . S
O60 C41 1.247 . S
C61 O58 1.244 . S
C61 O59 1.240 . S
H62 C36 0.931 . S
H63 C45 0.931 . S
H64 C49 0.929 . S
H65 C51 0.930 . S
Co66 N70 2.148 . S
Co66 N76 2.128 . S
Co66 N86 2.194 . S
Co66 O91 2.351 . S
Co66 O92 2.155 . S
Co66 O93 2.096 . S
C67 N70 1.301 1_554 S
C67 N71 1.328 . S
C67 H72 0.930 . S
C68 C69 1.333 1_556 S
C68 N70 1.317 . S
C68 H73 0.930 . S
C69 C68 1.333 1_554 S
C69 N71 1.350 . S
C69 H95 0.931 . S
N70 Co66 2.148 . S
N70 C67 1.301 1_556 S
N70 C68 1.317 . S
N71 C67 1.328 . S
N71 C69 1.350 . S
H72 C67 0.930 . S
H73 C68 0.930 . S
C74 O75 1.224 . S
C74 O93 1.247 . S
O75 C74 1.224 . S
N76 Co66 2.128 . S
N76 C77 1.355 . S
N76 C79 1.311 . S
C77 N76 1.355 . S
C77 C78 1.363 . S
C77 H89 0.929 . S
C78 C77 1.363 . S
C78 N80 1.375 . S
C78 H96 0.931 . S
C79 N76 1.311 . S
C79 N80 1.347 . S
C79 H90 0.929 . S
N80 C78 1.375 . S
N80 C79 1.347 . S
C81 C84 1.365 . S
C81 N86 1.328 . S
C81 H87 0.929 . S
C82 C83 1.362 . S
C82 C85 1.378 . S
C82 H97 0.929 . S
C83 C82 1.362 . S
C83 C84 1.366 . S
C84 C81 1.365 . S
C84 C83 1.366 . S
C84 H98 0.930 . S
C85 C82 1.378 . S
C85 N86 1.315 . S
C85 H88 0.930 . S
N86 Co66 2.194 . S
N86 C81 1.328 . S
N86 C85 1.315 . S
H87 C81 0.929 . S
H88 C85 0.930 . S
H89 C77 0.929 . S
H90 C79 0.929 . S
O91 Co66 2.351 . S
O91 C94 1.244 . S
O92 Co66 2.155 . S
O92 C94 1.240 . S
O93 Co66 2.096 . S
O93 C74 1.247 . S
C94 O91 1.244 . S
C94 O92 1.240 . S
H95 C69 0.931 . S
H96 C78 0.931 . S
H97 C82 0.929 . S
H98 C84 0.930 . S
Co99 N103 2.148 . S
Co99 N109 2.128 1_554 S
Co99 N119 2.194 . S
Co99 O124 2.351 . S
Co99 O125 2.155 . S
Co99 O126 2.096 . S
C100 N103 1.301 . S
C100 N104 1.328 . S
C100 H105 0.930 . S
C101 C102 1.333 . S
C101 N103 1.317 . S
C101 H106 0.930 . S
C102 C101 1.333 . S
C102 N104 1.350 . S
C102 H128 0.931 . S
N103 Co99 2.148 . S
N103 C100 1.301 . S
N103 C101 1.317 . S
N104 C100 1.328 . S
N104 C102 1.350 . S
H105 C100 0.930 . S
H106 C101 0.930 . S
C107 O108 1.224 . S
C107 O126 1.247 . S
O108 C107 1.224 . S
N109 Co99 2.128 1_556 S
N109 C110 1.355 . S
N109 C112 1.311 . S
C110 N109 1.355 . S
C110 C111 1.363 . S
C110 H122 0.929 . S
C111 C110 1.363 . S
C111 N113 1.375 . S
C111 H129 0.931 . S
C112 N109 1.311 . S
C112 N113 1.347 . S
C112 H123 0.929 . S
N113 C111 1.375 . S
N113 C112 1.347 . S
C114 C117 1.365 . S
C114 N119 1.328 . S
C114 H120 0.929 . S
C115 C116 1.362 . S
C115 C118 1.378 . S
C115 H130 0.929 . S
C116 C115 1.362 . S
C116 C117 1.366 . S
C117 C114 1.365 . S
C117 C116 1.366 . S
C117 H131 0.930 . S
C118 C115 1.378 . S
C118 N119 1.315 . S
C118 H121 0.930 . S
N119 Co99 2.194 . S
N119 C114 1.328 . S
N119 C118 1.315 . S
H120 C114 0.929 . S
H121 C118 0.930 . S
H122 C110 0.929 . S
H123 C112 0.929 . S
O124 Co99 2.351 . S
O124 C127 1.244 . S
O125 Co99 2.155 . S
O125 C127 1.240 . S
O126 Co99 2.096 . S
O126 C107 1.247 . S
C127 O124 1.244 . S
C127 O125 1.240 . S
H128 C102 0.931 . S
H129 C111 0.931 . S
H130 C115 0.929 . S
H131 C117 0.930 . S
Co132 N136 2.148 . S
Co132 N142 2.128 . S
Co132 N152 2.194 . S
Co132 O157 2.351 . S
Co132 O158 2.155 . S
Co132 O159 2.096 . S
C133 N136 1.301 . S
C133 N137 1.328 . S
C133 H138 0.930 . S
C134 C135 1.333 . S
C134 N136 1.317 . S
C134 H139 0.930 . S
C135 C134 1.333 . S
C135 N137 1.350 . S
C135 H161 0.931 . S
N136 Co132 2.148 . S
N136 C133 1.301 . S
N136 C134 1.317 . S
N137 C133 1.328 . S
N137 C135 1.350 . S
H138 C133 0.930 . S
H139 C134 0.930 . S
C140 O141 1.224 . S
C140 O159 1.247 . S
O141 C140 1.224 . S
N142 Co132 2.128 . S
N142 C143 1.355 . S
N142 C145 1.311 . S
C143 N142 1.355 . S
C143 C144 1.363 . S
C143 H155 0.929 . S
C144 C143 1.363 . S
C144 N146 1.375 . S
C144 H162 0.931 . S
C145 N142 1.311 . S
C145 N146 1.347 . S
C145 H156 0.929 . S
N146 C144 1.375 . S
N146 C145 1.347 . S
C147 C150 1.365 . S
C147 N152 1.328 . S
C147 H153 0.929 . S
C148 C149 1.362 . S
C148 C151 1.378 . S
C148 H163 0.929 . S
C149 C148 1.362 . S
C149 C150 1.366 . S
C150 C147 1.365 . S
C150 C149 1.366 . S
C150 H164 0.930 . S
C151 C148 1.378 . S
C151 N152 1.315 . S
C151 H154 0.930 . S
N152 Co132 2.194 . S
N152 C147 1.328 . S
N152 C151 1.315 . S
H153 C147 0.929 . S
H154 C151 0.930 . S
H155 C143 0.929 . S
H156 C145 0.929 . S
O157 Co132 2.351 . S
O157 C160 1.244 . S
O158 Co132 2.155 . S
O158 C160 1.240 . S
O159 Co132 2.096 . S
O159 C140 1.247 . S
C160 O157 1.244 . S
C160 O158 1.240 . S
H161 C135 0.931 . S
H162 C144 0.931 . S
H163 C148 0.929 . S
H164 C150 0.930 . S
Co165 N169 2.148 . S
Co165 N175 2.128 . S
Co165 N185 2.194 . S
Co165 O190 2.351 . S
Co165 O191 2.155 . S
Co165 O192 2.096 . S
C166 N169 1.301 1_554 S
C166 N170 1.328 . S
C166 H171 0.930 . S
C167 C168 1.333 1_556 S
C167 N169 1.317 . S
C167 H172 0.930 . S
C168 C167 1.333 1_554 S
C168 N170 1.350 . S
C168 H194 0.931 . S
N169 Co165 2.148 . S
N169 C166 1.301 1_556 S
N169 C167 1.317 . S
N170 C166 1.328 . S
N170 C168 1.350 . S
H171 C166 0.930 . S
H172 C167 0.930 . S
C173 O174 1.224 . S
C173 O192 1.247 . S
O174 C173 1.224 . S
N175 Co165 2.128 . S
N175 C176 1.355 . S
N175 C178 1.311 . S
C176 N175 1.355 . S
C176 C177 1.363 . S
C176 H188 0.929 . S
C177 C176 1.363 . S
C177 N179 1.375 . S
C177 H195 0.931 . S
C178 N175 1.311 . S
C178 N179 1.347 . S
C178 H189 0.929 . S
N179 C177 1.375 . S
N179 C178 1.347 . S
C180 C183 1.365 . S
C180 N185 1.328 . S
C180 H186 0.929 . S
C181 C182 1.362 . S
C181 C184 1.378 . S
C181 H196 0.929 . S
C182 C181 1.362 . S
C182 C183 1.366 . S
C183 C180 1.365 . S
C183 C182 1.366 . S
C183 H197 0.930 . S
C184 C181 1.378 . S
C184 N185 1.315 . S
C184 H187 0.930 . S
N185 Co165 2.194 . S
N185 C180 1.328 . S
N185 C184 1.315 . S
H186 C180 0.929 . S
H187 C184 0.930 . S
H188 C176 0.929 . S
H189 C178 0.929 . S
O190 Co165 2.351 . S
O190 C193 1.244 . S
O191 Co165 2.155 . S
O191 C193 1.240 . S
O192 Co165 2.096 . S
O192 C173 1.247 . S
C193 O190 1.244 . S
C193 O191 1.240 . S
H194 C168 0.931 . S
H195 C177 0.931 . S
H196 C181 0.929 . S
H197 C183 0.930 . S
Co198 N202 2.148 . S
Co198 N208 2.128 . S
Co198 N218 2.194 . S
Co198 O223 2.351 . S
Co198 O224 2.155 . S
Co198 O225 2.096 . S
C199 N202 1.301 . S
C199 N203 1.328 . S
C199 H204 0.930 . S
C200 C201 1.333 . S
C200 N202 1.317 . S
C200 H205 0.930 . S
C201 C200 1.333 . S
C201 N203 1.350 . S
C201 H227 0.931 . S
N202 Co198 2.148 . S
N202 C199 1.301 . S
N202 C200 1.317 . S
N203 C199 1.328 . S
N203 C201 1.350 . S
H204 C199 0.930 . S
H205 C200 0.930 . S
C206 O207 1.224 . S
C206 O225 1.247 . S
O207 C206 1.224 . S
N208 Co198 2.128 . S
N208 C209 1.355 . S
N208 C211 1.311 . S
C209 N208 1.355 . S
C209 C210 1.363 . S
C209 H221 0.929 . S
C210 C209 1.363 . S
C210 N212 1.375 . S
C210 H228 0.931 . S
C211 N208 1.311 . S
C211 N212 1.347 . S
C211 H222 0.929 . S
N212 C210 1.375 . S
N212 C211 1.347 . S
C213 C216 1.365 . S
C213 N218 1.328 . S
C213 H219 0.929 . S
C214 C215 1.362 . S
C214 C217 1.378 . S
C214 H229 0.929 . S
C215 C214 1.362 . S
C215 C216 1.366 . S
C216 C213 1.365 . S
C216 C215 1.366 . S
C216 H230 0.930 . S
C217 C214 1.378 . S
C217 N218 1.315 . S
C217 H220 0.930 . S
N218 Co198 2.194 . S
N218 C213 1.328 . S
N218 C217 1.315 . S
H219 C213 0.929 . S
H220 C217 0.930 . S
H221 C209 0.929 . S
H222 C211 0.929 . S
O223 Co198 2.351 . S
O223 C226 1.244 . S
O224 Co198 2.155 . S
O224 C226 1.240 . S
O225 Co198 2.096 . S
O225 C206 1.247 . S
C226 O223 1.244 . S
C226 O224 1.240 . S
H227 C201 0.931 . S
H228 C210 0.931 . S
H229 C214 0.929 . S
H230 C216 0.930 . S
Co231 N235 2.148 . S
Co231 N241 2.128 1_556 S
Co231 N251 2.194 . S
Co231 O256 2.351 . S
Co231 O257 2.155 . S
Co231 O258 2.096 . S
C232 N235 1.301 . S
C232 N236 1.328 . S
C232 H237 0.930 . S
C233 C234 1.333 . S
C233 N235 1.317 . S
C233 H238 0.930 . S
C234 C233 1.333 . S
C234 N236 1.350 . S
C234 H260 0.931 . S
N235 Co231 2.148 . S
N235 C232 1.301 . S
N235 C233 1.317 . S
N236 C232 1.328 . S
N236 C234 1.350 . S
H237 C232 0.930 . S
H238 C233 0.930 . S
C239 O240 1.224 . S
C239 O258 1.247 . S
O240 C239 1.224 . S
N241 Co231 2.128 1_554 S
N241 C242 1.355 . S
N241 C244 1.311 . S
C242 N241 1.355 . S
C242 C243 1.363 . S
C242 H254 0.929 . S
C243 C242 1.363 . S
C243 N245 1.375 . S
C243 H261 0.931 . S
C244 N241 1.311 . S
C244 N245 1.347 . S
C244 H255 0.929 . S
N245 C243 1.375 . S
N245 C244 1.347 . S
C246 C249 1.365 . S
C246 N251 1.328 . S
C246 H252 0.929 . S
C247 C248 1.362 . S
C247 C250 1.378 . S
C247 H262 0.929 . S
C248 C247 1.362 . S
C248 C249 1.366 . S
C249 C246 1.365 . S
C249 C248 1.366 . S
C249 H263 0.930 . S
C250 C247 1.378 . S
C250 N251 1.315 . S
C250 H253 0.930 . S
N251 Co231 2.194 . S
N251 C246 1.328 . S
N251 C250 1.315 . S
H252 C246 0.929 . S
H253 C250 0.930 . S
H254 C242 0.929 . S
H255 C244 0.929 . S
O256 Co231 2.351 . S
O256 C259 1.244 . S
O257 Co231 2.155 . S
O257 C259 1.240 . S
O258 Co231 2.096 . S
O258 C239 1.247 . S
C259 O256 1.244 . S
C259 O257 1.240 . S
H260 C234 0.931 . S
H261 C243 0.931 . S
H262 C247 0.929 . S
H263 C249 0.930 . S
Co264 N268 2.148 . S
Co264 N274 2.128 . S
Co264 N284 2.194 . S
Co264 O289 2.351 . S
Co264 O290 2.155 . S
Co264 O291 2.096 . S
C265 N268 1.301 1_556 S
C265 N269 1.328 . S
C265 H270 0.930 . S
C266 C267 1.333 1_554 S
C266 N268 1.317 . S
C266 H271 0.930 . S
C267 C266 1.333 1_556 S
C267 N269 1.350 . S
C267 H293 0.931 . S
N268 Co264 2.148 . S
N268 C265 1.301 1_554 S
N268 C266 1.317 . S
N269 C265 1.328 . S
N269 C267 1.350 . S
H270 C265 0.930 . S
H271 C266 0.930 . S
C272 O273 1.224 . S
C272 O291 1.247 . S
O273 C272 1.224 . S
N274 Co264 2.128 . S
N274 C275 1.355 . S
N274 C277 1.311 . S
C275 N274 1.355 . S
C275 C276 1.363 . S
C275 H287 0.929 . S
C276 C275 1.363 . S
C276 N278 1.375 . S
C276 H294 0.931 . S
C277 N274 1.311 . S
C277 N278 1.347 . S
C277 H288 0.929 . S
N278 C276 1.375 . S
N278 C277 1.347 . S
C279 C282 1.365 . S
C279 N284 1.328 . S
C279 H285 0.929 . S
C280 C281 1.362 . S
C280 C283 1.378 . S
C280 H295 0.929 . S
C281 C280 1.362 . S
C281 C282 1.366 . S
C282 C279 1.365 . S
C282 C281 1.366 . S
C282 H296 0.930 . S
C283 C280 1.378 . S
C283 N284 1.315 . S
C283 H286 0.930 . S
N284 Co264 2.194 . S
N284 C279 1.328 . S
N284 C283 1.315 . S
H285 C279 0.929 . S
H286 C283 0.930 . S
H287 C275 0.929 . S
H288 C277 0.929 . S
O289 Co264 2.351 . S
O289 C292 1.244 . S
O290 Co264 2.155 . S
O290 C292 1.240 . S
O291 Co264 2.096 . S
O291 C272 1.247 . S
C292 O289 1.244 . S
C292 O290 1.240 . S
H293 C267 0.931 . S
H294 C276 0.931 . S
H295 C280 0.929 . S
H296 C282 0.930 . S
Co297 N301 2.148 . S
Co297 N307 2.128 . S
Co297 N317 2.194 . S
Co297 O322 2.351 . S
Co297 O323 2.155 . S
Co297 O324 2.096 . S
C298 N301 1.301 . S
C298 N302 1.328 . S
C298 H303 0.930 . S
C299 C300 1.333 . S
C299 N301 1.317 . S
C299 H304 0.930 . S
C300 C299 1.333 . S
C300 N302 1.350 . S
C300 H326 0.931 . S
N301 Co297 2.148 . S
N301 C298 1.301 . S
N301 C299 1.317 . S
N302 C298 1.328 . S
N302 C300 1.350 . S
H303 C298 0.930 . S
H304 C299 0.930 . S
C305 O306 1.224 . S
C305 O324 1.247 . S
O306 C305 1.224 . S
N307 Co297 2.128 . S
N307 C308 1.355 . S
N307 C310 1.311 . S
C308 N307 1.355 . S
C308 C309 1.363 . S
C308 H320 0.929 . S
C309 C308 1.363 . S
C309 N311 1.375 . S
C309 H327 0.931 . S
C310 N307 1.311 . S
C310 N311 1.347 . S
C310 H321 0.929 . S
N311 C309 1.375 . S
N311 C310 1.347 . S
C312 C315 1.365 . S
C312 N317 1.328 . S
C312 H318 0.929 . S
C313 C314 1.362 . S
C313 C316 1.378 . S
C313 H328 0.929 . S
C314 C313 1.362 . S
C314 C315 1.366 . S
C315 C312 1.365 . S
C315 C314 1.366 . S
C315 H329 0.930 . S
C316 C313 1.378 . S
C316 N317 1.315 . S
C316 H319 0.930 . S
N317 Co297 2.194 . S
N317 C312 1.328 . S
N317 C316 1.315 . S
H318 C312 0.929 . S
H319 C316 0.930 . S
H320 C308 0.929 . S
H321 C310 0.929 . S
O322 Co297 2.351 . S
O322 C325 1.244 . S
O323 Co297 2.155 . S
O323 C325 1.240 . S
O324 Co297 2.096 . S
O324 C305 1.247 . S
C325 O322 1.244 . S
C325 O323 1.240 . S
H326 C300 0.931 . S
H327 C309 0.931 . S
H328 C313 0.929 . S
H329 C315 0.930 . S
Co330 N334 2.148 . S
Co330 N340 2.128 1_556 S
Co330 N350 2.194 . S
Co330 O355 2.351 . S
Co330 O356 2.155 . S
Co330 O357 2.096 . S
C331 N334 1.301 . S
C331 N335 1.328 . S
C331 H336 0.930 . S
C332 C333 1.333 . S
C332 N334 1.317 . S
C332 H337 0.930 . S
C333 C332 1.333 . S
C333 N335 1.350 . S
C333 H359 0.931 . S
N334 Co330 2.148 . S
N334 C331 1.301 . S
N334 C332 1.317 . S
N335 C331 1.328 . S
N335 C333 1.350 . S
H336 C331 0.930 . S
H337 C332 0.930 . S
C338 O339 1.224 . S
C338 O357 1.247 . S
O339 C338 1.224 . S
N340 Co330 2.128 1_554 S
N340 C341 1.355 . S
N340 C343 1.311 . S
C341 N340 1.355 . S
C341 C342 1.363 . S
C341 H353 0.929 . S
C342 C341 1.363 . S
C342 N344 1.375 . S
C342 H360 0.931 . S
C343 N340 1.311 . S
C343 N344 1.347 . S
C343 H354 0.929 . S
N344 C342 1.375 . S
N344 C343 1.347 . S
C345 C348 1.365 . S
C345 N350 1.328 . S
C345 H351 0.929 . S
C346 C347 1.362 . S
C346 C349 1.378 . S
C346 H361 0.929 . S
C347 C346 1.362 . S
C347 C348 1.366 . S
C348 C345 1.365 . S
C348 C347 1.366 . S
C348 H362 0.930 . S
C349 C346 1.378 . S
C349 N350 1.315 . S
C349 H352 0.930 . S
N350 Co330 2.194 . S
N350 C345 1.328 . S
N350 C349 1.315 . S
H351 C345 0.929 . S
H352 C349 0.930 . S
H353 C341 0.929 . S
H354 C343 0.929 . S
O355 Co330 2.351 . S
O355 C358 1.244 . S
O356 Co330 2.155 . S
O356 C358 1.240 . S
O357 Co330 2.096 . S
O357 C338 1.247 . S
C358 O355 1.244 . S
C358 O356 1.240 . S
H359 C333 0.931 . S
H360 C342 0.931 . S
H361 C346 0.929 . S
H362 C348 0.930 . S
Co363 N367 2.148 . S
Co363 N373 2.128 . S
Co363 N383 2.194 . S
Co363 O388 2.351 . S
Co363 O389 2.155 . S
Co363 O390 2.096 . S
C364 N367 1.301 1_556 S
C364 N368 1.328 . S
C364 H369 0.930 . S
C365 C366 1.333 1_554 S
C365 N367 1.317 . S
C365 H370 0.930 . S
C366 C365 1.333 1_556 S
C366 N368 1.350 . S
C366 H392 0.931 . S
N367 Co363 2.148 . S
N367 C364 1.301 1_554 S
N367 C365 1.317 . S
N368 C364 1.328 . S
N368 C366 1.350 . S
H369 C364 0.930 . S
H370 C365 0.930 . S
C371 O372 1.224 . S
C371 O390 1.247 . S
O372 C371 1.224 . S
N373 Co363 2.128 . S
N373 C374 1.355 . S
N373 C376 1.311 . S
C374 N373 1.355 . S
C374 C375 1.363 . S
C374 H386 0.929 . S
C375 C374 1.363 . S
C375 N377 1.375 . S
C375 H393 0.931 . S
C376 N373 1.311 . S
C376 N377 1.347 . S
C376 H387 0.929 . S
N377 C375 1.375 . S
N377 C376 1.347 . S
C378 C381 1.365 . S
C378 N383 1.328 . S
C378 H384 0.929 . S
C379 C380 1.362 . S
C379 C382 1.378 . S
C379 H394 0.929 . S
C380 C379 1.362 . S
C380 C381 1.366 . S
C381 C378 1.365 . S
C381 C380 1.366 . S
C381 H395 0.930 . S
C382 C379 1.378 . S
C382 N383 1.315 . S
C382 H385 0.930 . S
N383 Co363 2.194 . S
N383 C378 1.328 . S
N383 C382 1.315 . S
H384 C378 0.929 . S
H385 C382 0.930 . S
H386 C374 0.929 . S
H387 C376 0.929 . S
O388 Co363 2.351 . S
O388 C391 1.244 . S
O389 Co363 2.155 . S
O389 C391 1.240 . S
O390 Co363 2.096 . S
O390 C371 1.247 . S
C391 O388 1.244 . S
C391 O389 1.240 . S
H392 C366 0.931 . S
H393 C375 0.931 . S
H394 C379 0.929 . S
H395 C381 0.930 . S
C396 C397 1.369 . S
C396 C398 1.419 1_455 S
C396 H400 0.930 . S
C397 C396 1.369 . S
C397 C406 1.429 . S
C398 C396 1.419 1_655 S
C398 C399 1.363 . S
C398 H401 0.929 . S
C399 C398 1.363 . S
C399 C405 1.428 . S
H400 C396 0.930 . S
H401 C398 0.929 . S
S402 N403 1.590 1_655 S
S402 N404 1.619 . S
N403 S402 1.590 1_455 S
N403 C406 1.350 . S
N404 S402 1.619 . S
N404 C405 1.351 . S
C405 C399 1.428 . S
C405 N404 1.351 . S
C405 C406 1.434 1_655 S
C406 C397 1.429 . S
C406 N403 1.350 . S
C406 C405 1.434 1_455 S
C407 C408 1.369 . S
C407 C409 1.419 1_545 S
C407 H411 0.930 . S
C408 C407 1.369 . S
C408 C417 1.429 . S
C409 C407 1.419 1_565 S
C409 C410 1.363 . S
C409 H412 0.929 . S
C410 C409 1.363 . S
C410 C416 1.428 . S
H411 C407 0.930 . S
H412 C409 0.929 . S
S413 N414 1.613 1_565 S
S413 N415 1.610 . S
N414 S413 1.613 1_545 S
N414 C417 1.350 . S
N415 S413 1.610 . S
N415 C416 1.351 . S
C416 C410 1.428 . S
C416 N415 1.351 . S
C416 C417 1.434 1_565 S
C417 C408 1.429 . S
C417 N414 1.350 . S
C417 C416 1.434 1_545 S
C418 C419 1.369 . S
C418 C420 1.419 . S
C418 H422 0.930 . S
C419 C418 1.369 . S
C419 C428 1.429 . S
C420 C418 1.419 . S
C420 C421 1.363 . S
C420 H423 0.929 . S
C421 C420 1.363 . S
C421 C427 1.428 . S
H422 C418 0.930 . S
H423 C420 0.929 . S
S424 N425 1.613 . S
S424 N426 1.610 . S
N425 S424 1.613 . S
N425 C428 1.350 . S
N426 S424 1.610 . S
N426 C427 1.351 . S
C427 C421 1.428 . S
C427 N426 1.351 . S
C427 C428 1.434 . S
C428 C419 1.429 . S
C428 N425 1.350 . S
C428 C427 1.434 . S
C429 C430 1.369 . S
C429 C431 1.419 1_455 S
C429 H433 0.930 . S
C430 C429 1.369 . S
C430 C439 1.429 . S
C431 C429 1.419 1_655 S
C431 C432 1.363 . S
C431 H434 0.929 . S
C432 C431 1.363 . S
C432 C438 1.428 . S
H433 C429 0.930 . S
H434 C431 0.929 . S
S435 N436 1.619 . S
S435 N437 1.594 1_455 S
N436 S435 1.619 . S
N436 C439 1.350 . S
N437 S435 1.594 1_655 S
N437 C438 1.351 . S
C438 C432 1.428 . S
C438 N437 1.351 . S
C438 C439 1.434 1_655 S
C439 C430 1.429 . S
C439 N436 1.350 . S
C439 C438 1.434 1_455 S
C440 C441 1.369 . S
C440 C442 1.419 1_545 S
C440 H444 0.930 . S
C441 C440 1.369 . S
C441 C450 1.429 . S
C442 C440 1.419 1_565 S
C442 C443 1.363 . S
C442 H445 0.929 . S
C443 C442 1.363 . S
C443 C449 1.428 . S
H444 C440 0.930 . S
H445 C442 0.929 . S
S446 N447 1.613 1_565 S
S446 N448 1.610 . S
N447 S446 1.613 1_545 S
N447 C450 1.350 . S
N448 S446 1.610 . S
N448 C449 1.351 . S
C449 C443 1.428 . S
C449 N448 1.351 . S
C449 C450 1.434 1_565 S
C450 C441 1.429 . S
C450 N447 1.350 . S
C450 C449 1.434 1_545 S
C451 C452 1.369 . S
C451 C453 1.419 . S
C451 H455 0.930 . S
C452 C451 1.369 . S
C452 C461 1.429 . S
C453 C451 1.419 . S
C453 C454 1.363 . S
C453 H456 0.929 . S
C454 C453 1.363 . S
C454 C460 1.428 . S
H455 C451 0.930 . S
H456 C453 0.929 . S
S457 N458 1.613 . S
S457 N459 1.610 . S
N458 S457 1.613 . S
N458 C461 1.350 . S
N459 S457 1.610 . S
N459 C460 1.351 . S
C460 C454 1.428 . S
C460 N459 1.351 . S
C460 C461 1.434 . S
C461 C452 1.429 . S
C461 N458 1.350 . S
C461 C460 1.434 . S
C462 C463 1.369 . S
C462 C464 1.419 . S
C462 H466 0.930 . S
C463 C462 1.369 . S
C463 C472 1.429 . S
C464 C462 1.419 . S
C464 C465 1.363 . S
C464 H467 0.929 . S
C465 C464 1.363 . S
C465 C471 1.428 . S
H466 C462 0.930 . S
H467 C464 0.929 . S
S468 N469 1.613 . S
S468 N470 1.610 . S
N469 S468 1.613 . S
N469 C472 1.350 . S
N470 S468 1.610 . S
N470 C471 1.351 . S
C471 C465 1.428 . S
C471 N470 1.351 . S
C471 C472 1.434 . S
C472 C463 1.429 . S
C472 N469 1.350 . S
C472 C471 1.434 . S
C473 C474 1.369 . S
C473 C475 1.419 1_556 S
C473 H477 0.930 . S
C474 C473 1.369 . S
C474 C483 1.429 . S
C475 C473 1.419 1_554 S
C475 C476 1.363 . S
C475 H478 0.929 . S
C476 C475 1.363 . S
C476 C482 1.428 . S
H477 C473 0.930 . S
H478 C475 0.929 . S
S479 N480 1.613 . S
S479 N481 1.610 1_556 S
N480 S479 1.613 . S
N480 C483 1.350 . S
N481 S479 1.610 1_554 S
N481 C482 1.351 . S
C482 C476 1.428 . S
C482 N481 1.351 . S
C482 C483 1.434 1_554 S
C483 C474 1.429 . S
C483 N480 1.350 . S
C483 C482 1.434 1_556 S
C484 C485 1.369 . S
C484 C486 1.419 . S
C484 H488 0.930 . S
C485 C484 1.369 . S
C485 C494 1.429 . S
C486 C484 1.419 . S
C486 C487 1.363 . S
C486 H489 0.929 . S
C487 C486 1.363 . S
C487 C493 1.428 . S
H488 C484 0.930 . S
H489 C486 0.929 . S
S490 N491 1.613 . S
S490 N492 1.610 . S
N491 S490 1.613 . S
N491 C494 1.350 . S
N492 S490 1.610 . S
N492 C493 1.351 . S
C493 C487 1.428 . S
C493 N492 1.351 . S
C493 C494 1.434 . S
C494 C485 1.429 . S
C494 N491 1.350 . S
C494 C493 1.434 . S
C495 C496 1.369 . S
C495 C497 1.419 . S
C495 H499 0.930 . S
C496 C495 1.369 . S
C496 C505 1.429 . S
C497 C495 1.419 . S
C497 C498 1.363 . S
C497 H500 0.929 . S
C498 C497 1.363 . S
C498 C504 1.428 . S
H499 C495 0.930 . S
H500 C497 0.929 . S
S501 N502 1.613 . S
S501 N503 1.610 . S
N502 S501 1.613 . S
N502 C505 1.350 . S
N503 S501 1.610 . S
N503 C504 1.351 . S
C504 C498 1.428 . S
C504 N503 1.351 . S
C504 C505 1.434 . S
C505 C496 1.429 . S
C505 N502 1.350 . S
C505 C504 1.434 . S
C506 C507 1.369 . S
C506 C508 1.419 1_554 S
C506 H510 0.930 . S
C507 C506 1.369 . S
C507 C516 1.429 . S
C508 C506 1.419 1_556 S
C508 C509 1.363 . S
C508 H511 0.929 . S
C509 C508 1.363 . S
C509 C515 1.428 . S
H510 C506 0.930 . S
H511 C508 0.929 . S
S512 N513 1.613 1_556 S
S512 N514 1.610 . S
N513 S512 1.613 1_554 S
N513 C516 1.350 . S
N514 S512 1.610 . S
N514 C515 1.351 . S
C515 C509 1.428 . S
C515 N514 1.351 . S
C515 C516 1.434 1_556 S
C516 C507 1.429 . S
C516 N513 1.350 . S
C516 C515 1.434 1_554 S
C517 C518 1.369 . S
C517 C519 1.419 . S
C517 H521 0.930 . S
C518 C517 1.369 . S
C518 C527 1.429 . S
C519 C517 1.419 . S
C519 C520 1.363 . S
C519 H522 0.929 . S
C520 C519 1.363 . S
C520 C526 1.428 . S
H521 C517 0.930 . S
H522 C519 0.929 . S
S523 N524 1.613 . S
S523 N525 1.610 . S
N524 S523 1.613 . S
N524 C527 1.350 . S
N525 S523 1.610 . S
N525 C526 1.351 . S
C526 C520 1.428 . S
C526 N525 1.351 . S
C526 C527 1.434 . S
C527 C518 1.429 . S
C527 N524 1.350 . S
C527 C526 1.434 . S
C528 C529 1.369 . S
C528 C530 1.419 1_556 S
C528 H532 0.930 . S
C529 C528 1.369 . S
C529 C538 1.429 . S
C530 C528 1.419 1_554 S
C530 C531 1.363 . S
C530 H533 0.929 . S
C531 C530 1.363 . S
C531 C537 1.428 . S
H532 C528 0.930 . S
H533 C530 0.929 . S
S534 N535 1.613 1_554 S
S534 N536 1.610 . S
N535 S534 1.613 1_556 S
N535 C538 1.350 . S
N536 S534 1.610 . S
N536 C537 1.351 . S
C537 C531 1.428 . S
C537 N536 1.351 . S
C537 C538 1.434 1_554 S
C538 C529 1.429 . S
C538 N535 1.350 . S
C538 C537 1.434 1_556 S
C539 C540 1.369 . S
C539 C541 1.419 . S
C539 H543 0.930 . S
C540 C539 1.369 . S
C540 C549 1.429 . S
C541 C539 1.419 . S
C541 C542 1.363 . S
C541 H544 0.929 . S
C542 C541 1.363 . S
C542 C548 1.428 . S
H543 C539 0.930 . S
H544 C541 0.929 . S
S545 N546 1.613 . S
S545 N547 1.610 . S
N546 S545 1.613 . S
N546 C549 1.350 . S
N547 S545 1.610 . S
N547 C548 1.351 . S
C548 C542 1.428 . S
C548 N547 1.351 . S
C548 C549 1.434 . S
C549 C540 1.429 . S
C549 N546 1.350 . S
C549 C548 1.434 . S
C550 C551 1.369 . S
C550 C552 1.419 . S
C550 H554 0.930 . S
C551 C550 1.369 . S
C551 C560 1.429 . S
C552 C550 1.419 . S
C552 C553 1.363 . S
C552 H555 0.929 . S
C553 C552 1.363 . S
C553 C559 1.428 . S
H554 C550 0.930 . S
H555 C552 0.929 . S
S556 N557 1.613 . S
S556 N558 1.610 . S
N557 S556 1.613 . S
N557 C560 1.350 . S
N558 S556 1.610 . S
N558 C559 1.351 . S
C559 C553 1.428 . S
C559 N558 1.351 . S
C559 C560 1.434 . S
C560 C551 1.429 . S
C560 N557 1.350 . S
C560 C559 1.434 . S
C561 C562 1.369 . S
C561 C563 1.419 1_554 S
C561 H565 0.930 . S
C562 C561 1.369 . S
C562 C571 1.429 . S
C563 C561 1.419 1_556 S
C563 C564 1.363 . S
C563 H566 0.929 . S
C564 C563 1.363 . S
C564 C570 1.428 . S
H565 C561 0.930 . S
H566 C563 0.929 . S
S567 N568 1.613 . S
S567 N569 1.610 1_554 S
N568 S567 1.613 . S
N568 C571 1.350 . S
N569 S567 1.610 1_556 S
N569 C570 1.351 . S
C570 C564 1.428 . S
C570 N569 1.351 . S
C570 C571 1.434 1_556 S
C571 C562 1.429 . S
C571 N568 1.350 . S
C571 C570 1.434 1_554 S
C572 C573 1.369 . S
C572 C574 1.419 . S
C572 H576 0.930 . S
C573 C572 1.369 . S
C573 C582 1.429 . S
C574 C572 1.419 . S
C574 C575 1.363 . S
C574 H577 0.929 . S
C575 C574 1.363 . S
C575 C581 1.428 . S
H576 C572 0.930 . S
H577 C574 0.929 . S
S578 N579 1.613 . S
S578 N580 1.610 . S
N579 S578 1.613 . S
N579 C582 1.350 . S
N580 S578 1.610 . S
N580 C581 1.351 . S
C581 C575 1.428 . S
C581 N580 1.351 . S
C581 C582 1.434 . S
C582 C573 1.429 . S
C582 N579 1.350 . S
C582 C581 1.434 . S
C583 C584 1.369 . S
C583 C585 1.419 . S
C583 H587 0.930 . S
C584 C583 1.369 . S
C584 C593 1.429 . S
C585 C583 1.419 . S
C585 C586 1.363 . S
C585 H588 0.929 . S
C586 C585 1.363 . S
C586 C592 1.428 . S
H587 C583 0.930 . S
H588 C585 0.929 . S
S589 N590 1.613 . S
S589 N591 1.610 . S
N590 S589 1.613 . S
N590 C593 1.350 . S
N591 S589 1.610 . S
N591 C592 1.351 . S
C592 C586 1.428 . S
C592 N591 1.351 . S
C592 C593 1.434 . S
C593 C584 1.429 . S
C593 N590 1.350 . S
C593 C592 1.434 . S
C594 C595 1.369 . S
C594 C596 1.419 . S
C594 H598 0.930 . S
C595 C594 1.369 . S
C595 C604 1.429 . S
C596 C594 1.419 . S
C596 C597 1.363 . S
C596 H599 0.929 . S
C597 C596 1.363 . S
C597 C603 1.428 . S
H598 C594 0.930 . S
H599 C596 0.929 . S
S600 N601 1.613 . S
S600 N602 1.610 . S
N601 S600 1.613 . S
N601 C604 1.350 . S
N602 S600 1.610 . S
N602 C603 1.351 . S
C603 C597 1.428 . S
C603 N602 1.351 . S
C603 C604 1.434 . S
C604 C595 1.429 . S
C604 N601 1.350 . S
C604 C603 1.434 . S
C605 C606 1.369 . S
C605 C607 1.419 . S
C605 H609 0.930 . S
C606 C605 1.369 . S
C606 C615 1.429 . S
C607 C605 1.419 . S
C607 C608 1.363 . S
C607 H610 0.929 . S
C608 C607 1.363 . S
C608 C614 1.428 . S
H609 C605 0.930 . S
H610 C607 0.929 . S
S611 N612 1.613 . S
S611 N613 1.610 . S
N612 S611 1.613 . S
N612 C615 1.350 . S
N613 S611 1.610 . S
N613 C614 1.351 . S
C614 C608 1.428 . S
C614 N613 1.351 . S
C614 C615 1.434 . S
C615 C606 1.429 . S
C615 N612 1.350 . S
C615 C614 1.434 . S
C616 C617 1.369 . S
C616 C618 1.419 . S
C616 H620 0.930 . S
C617 C616 1.369 . S
C617 C626 1.429 . S
C618 C616 1.419 . S
C618 C619 1.363 . S
C618 H621 0.929 . S
C619 C618 1.363 . S
C619 C625 1.428 . S
H620 C616 0.930 . S
H621 C618 0.929 . S
S622 N623 1.613 . S
S622 N624 1.610 . S
N623 S622 1.613 . S
N623 C626 1.350 . S
N624 S622 1.610 . S
N624 C625 1.351 . S
C625 C619 1.428 . S
C625 N624 1.351 . S
C625 C626 1.434 . S
C626 C617 1.429 . S
C626 N623 1.350 . S
C626 C625 1.434 . S
C627 C628 1.369 . S
C627 C629 1.419 . S
C627 H631 0.930 . S
C628 C627 1.369 . S
C628 C637 1.429 . S
C629 C627 1.419 . S
C629 C630 1.363 . S
C629 H632 0.929 . S
C630 C629 1.363 . S
C630 C636 1.428 . S
H631 C627 0.930 . S
H632 C629 0.929 . S
S633 N634 1.613 . S
S633 N635 1.610 . S
N634 S633 1.613 . S
N634 C637 1.350 . S
N635 S633 1.610 . S
N635 C636 1.351 . S
C636 C630 1.428 . S
C636 N635 1.351 . S
C636 C637 1.434 . S
C637 C628 1.429 . S
C637 N634 1.350 . S
C637 C636 1.434 . S
C638 C639 1.369 . S
C638 C640 1.419 . S
C638 H642 0.930 . S
C639 C638 1.369 . S
C639 C648 1.429 . S
C640 C638 1.419 . S
C640 C641 1.363 . S
C640 H643 0.929 . S
C641 C640 1.363 . S
C641 C647 1.428 . S
H642 C638 0.930 . S
H643 C640 0.929 . S
S644 N645 1.613 . S
S644 N646 1.610 . S
N645 S644 1.613 . S
N645 C648 1.350 . S
N646 S644 1.610 . S
N646 C647 1.351 . S
C647 C641 1.428 . S
C647 N646 1.351 . S
C647 C648 1.434 . S
C648 C639 1.429 . S
C648 N645 1.350 . S
C648 C647 1.434 . S
C649 C650 1.369 . S
C649 C651 1.419 . S
C649 H653 0.930 . S
C650 C649 1.369 . S
C650 C659 1.429 . S
C651 C649 1.419 . S
C651 C652 1.363 . S
C651 H654 0.929 . S
C652 C651 1.363 . S
C652 C658 1.428 . S
H653 C649 0.930 . S
H654 C651 0.929 . S
S655 N656 1.613 . S
S655 N657 1.610 . S
N656 S655 1.613 . S
N656 C659 1.350 . S
N657 S655 1.610 . S
N657 C658 1.351 . S
C658 C652 1.428 . S
C658 N657 1.351 . S
C658 C659 1.434 . S
C659 C650 1.429 . S
C659 N656 1.350 . S
C659 C658 1.434 . S
C660 C661 1.369 . S
C660 C662 1.419 1_556 S
C660 H664 0.930 . S
C661 C660 1.369 . S
C661 C670 1.429 1_556 S
C662 C660 1.419 1_554 S
C662 C663 1.363 . S
C662 H665 0.929 . S
C663 C662 1.363 . S
C663 C669 1.428 . S
H664 C660 0.930 . S
H665 C662 0.929 . S
S666 N667 1.613 . S
S666 N668 1.610 . S
N667 S666 1.613 . S
N667 C670 1.350 . S
N668 S666 1.610 . S
N668 C669 1.351 . S
C669 C663 1.428 . S
C669 N668 1.351 . S
C669 C670 1.434 . S
C670 C661 1.429 1_554 S
C670 N667 1.350 . S
C670 C669 1.434 . S
C671 C672 1.369 . S
C671 C673 1.419 . S
C671 H675 0.930 . S
C672 C671 1.369 . S
C672 C681 1.429 . S
C673 C671 1.419 . S
C673 C674 1.363 . S
C673 H676 0.929 . S
C674 C673 1.363 . S
C674 C680 1.428 . S
H675 C671 0.930 . S
H676 C673 0.929 . S
S677 N678 1.613 . S
S677 N679 1.610 . S
N678 S677 1.613 . S
N678 C681 1.350 . S
N679 S677 1.610 . S
N679 C680 1.351 . S
C680 C674 1.428 . S
C680 N679 1.351 . S
C680 C681 1.434 . S
C681 C672 1.429 . S
C681 N678 1.350 . S
C681 C680 1.434 . S
C682 C683 1.369 . S
C682 C684 1.419 . S
C682 H686 0.930 . S
C683 C682 1.369 . S
C683 C692 1.429 . S
C684 C682 1.419 . S
C684 C685 1.363 . S
C684 H687 0.929 . S
C685 C684 1.363 . S
C685 C691 1.428 . S
H686 C682 0.930 . S
H687 C684 0.929 . S
S688 N689 1.613 . S
S688 N690 1.610 . S
N689 S688 1.613 . S
N689 C692 1.350 . S
N690 S688 1.610 . S
N690 C691 1.351 . S
C691 C685 1.428 . S
C691 N690 1.351 . S
C691 C692 1.434 . S
C692 C683 1.429 . S
C692 N689 1.350 . S
C692 C691 1.434 . S
C693 C694 1.369 1_556 S
C693 C695 1.419 . S
C693 H697 0.930 . S
C694 C693 1.369 1_554 S
C694 C703 1.429 . S
C695 C693 1.419 . S
C695 C696 1.363 . S
C695 H698 0.929 . S
C696 C695 1.363 . S
C696 C702 1.428 1_556 S
H697 C693 0.930 . S
H698 C695 0.929 . S
S699 N700 1.613 . S
S699 N701 1.610 . S
N700 S699 1.613 . S
N700 C703 1.350 . S
N701 S699 1.610 . S
N701 C702 1.351 . S
C702 C696 1.428 1_554 S
C702 N701 1.351 . S
C702 C703 1.434 . S
C703 C694 1.429 . S
C703 N700 1.350 . S
C703 C702 1.434 . S
C704 C705 1.369 . S
C704 C706 1.419 . S
C704 H708 0.930 . S
C705 C704 1.369 . S
C705 C714 1.429 . S
C706 C704 1.419 . S
C706 C707 1.363 . S
C706 H709 0.929 . S
C707 C706 1.363 . S
C707 C713 1.428 . S
H708 C704 0.930 . S
H709 C706 0.929 . S
S710 N711 1.613 . S
S710 N712 1.610 . S
N711 S710 1.613 . S
N711 C714 1.350 . S
N712 S710 1.610 . S
N712 C713 1.351 . S
C713 C707 1.428 . S
C713 N712 1.351 . S
C713 C714 1.434 . S
C714 C705 1.429 . S
C714 N711 1.350 . S
C714 C713 1.434 . S
C715 C716 1.369 . S
C715 C717 1.419 . S
C715 H719 0.930 . S
C716 C715 1.369 . S
C716 C725 1.429 . S
C717 C715 1.419 . S
C717 C718 1.363 . S
C717 H720 0.929 . S
C718 C717 1.363 . S
C718 C724 1.428 . S
H719 C715 0.930 . S
H720 C717 0.929 . S
S721 N722 1.613 . S
S721 N723 1.610 . S
N722 S721 1.613 . S
N722 C725 1.350 . S
N723 S721 1.610 . S
N723 C724 1.351 . S
C724 C718 1.428 . S
C724 N723 1.351 . S
C724 C725 1.434 . S
C725 C716 1.429 . S
C725 N722 1.350 . S
C725 C724 1.434 . S
C397 C28 1.412 . S
C399 C391 1.413 . S
C408 C61 1.414 . S
C410 C226 1.417 . S
C419 C259 1.415 . S
C421 C94 1.413 . S
C430 C292 1.414 . S
C432 C127 1.413 . S
C441 C325 1.414 . S
C443 C160 1.417 . S
C452 C358 1.417 . S
C454 C193 1.418 . S
C463 N14 1.440 . S
C465 N5 1.443 . S
C474 N38 1.444 . S
C476 N47 1.440 . S
C485 N80 1.441 . S
C487 N71 1.442 . S
C496 N113 1.441 . S
C498 N104 1.442 . S
C507 N146 1.441 . S
C509 N137 1.443 . S
C518 N170 1.441 . S
C520 N179 1.443 . S
C529 N212 1.437 . S
C531 N203 1.446 . S
C540 N236 1.444 . S
C542 N245 1.439 . S
C551 N278 1.440 . S
C553 N269 1.445 . S
C562 N302 1.440 . S
C564 N311 1.443 . S
C573 N335 1.442 . S
C575 N344 1.442 . S
C584 N377 1.438 . S
C586 N368 1.445 . S
C595 C17 1.595 . S
C597 C281 1.597 . S
C606 C50 1.594 . S
C608 C314 1.597 . S
C617 C83 1.597 . S
C619 C347 1.594 . S
C628 C380 1.595 . S
C630 C116 1.594 . S
C639 C215 1.597 . S
C641 C149 1.595 . S
C650 C248 1.593 . S
C652 C182 1.596 . S
C661 C338 1.220 . S
C663 C8 1.224 . S
C672 C371 1.221 . S
C674 C41 1.226 . S
C683 C206 1.227 . S
C685 C74 1.224 . S
C694 C107 1.222 . S
C696 C239 1.221 . S
C705 C140 1.227 . S
C707 C272 1.223 . S
C716 C173 1.224 . S
C718 C305 1.220 . S
