# Generated by pormake.
# Topology mok, (4)-cn, num edge types: 1
# Building blocks:
#     Node 0, Type 0, BuildingBlock: ICAMEG_clean_sbu_1, # of connection points: 4
#     Node 1, Type 0, BuildingBlock: ICAMEG_clean_sbu_1, # of connection points: 4
#     Node 2, Type 0, BuildingBlock: ICAMEG_clean_sbu_1, # of connection points: 4
#     Node 3, Type 0, BuildingBlock: ICAMEG_clean_sbu_1, # of connection points: 4
#     Node 4, Type 0, BuildingBlock: ICAMEG_clean_sbu_1, # of connection points: 4
#     Node 5, Type 0, BuildingBlock: ICAMEG_clean_sbu_1, # of connection points: 4
#     Node 6, Type 0, BuildingBlock: ICAMEG_clean_sbu_1, # of connection points: 4
#     Node 7, Type 0, BuildingBlock: ICAMEG_clean_sbu_1, # of connection points: 4
#     Edge 8, Type (0, 0), BuildingBlock: ZUJKAS_clean_linker_0, # of connection points: 2
#     Edge 9, Type (0, 0), BuildingBlock: ZUJKAS_clean_linker_0, # of connection points: 2
#     Edge 10, Type (0, 0), BuildingBlock: ZUJKAS_clean_linker_0, # of connection points: 2
#     Edge 11, Type (0, 0), BuildingBlock: ZUJKAS_clean_linker_0, # of connection points: 2
#     Edge 12, Type (0, 0), BuildingBlock: ZUJKAS_clean_linker_0, # of connection points: 2
#     Edge 13, Type (0, 0), BuildingBlock: ZUJKAS_clean_linker_0, # of connection points: 2
#     Edge 14, Type (0, 0), BuildingBlock: ZUJKAS_clean_linker_0, # of connection points: 2
#     Edge 15, Type (0, 0), BuildingBlock: ZUJKAS_clean_linker_0, # of connection points: 2
#     Edge 16, Type (0, 0), BuildingBlock: ZUJKAS_clean_linker_0, # of connection points: 2
#     Edge 17, Type (0, 0), BuildingBlock: ZUJKAS_clean_linker_0, # of connection points: 2
#     Edge 18, Type (0, 0), BuildingBlock: ZUJKAS_clean_linker_0, # of connection points: 2
#     Edge 19, Type (0, 0), BuildingBlock: ZUJKAS_clean_linker_0, # of connection points: 2
#     Edge 20, Type (0, 0), BuildingBlock: ZUJKAS_clean_linker_0, # of connection points: 2
#     Edge 21, Type (0, 0), BuildingBlock: ZUJKAS_clean_linker_0, # of connection points: 2
#     Edge 22, Type (0, 0), BuildingBlock: ZUJKAS_clean_linker_0, # of connection points: 2
#     Edge 23, Type (0, 0), BuildingBlock: ZUJKAS_clean_linker_0, # of connection points: 2
# Relax obj value: 0.014
# Max RMSD: 0.055
# Mean RMSD: 0.055
data_MOF--net-mok--node1-ICAMEG_clean_sbu_1--edge1-ZUJKAS_clean_linker_0
_symmetry_space_group_name_H-M    P1
_symmetry_Int_Tables_number       1
_symmetry_cell_setting            triclinic
loop_
_symmetry_equiv_pos_as_xyz
'x, y, z'
_cell_length_a     74.665077
_cell_length_b     18.616377
_cell_length_c     38.452152
_cell_angle_alpha  90.003704
_cell_angle_beta   89.998333
_cell_angle_gamma 89.982601
loop_
_atom_site_label
_atom_site_type_symbol
_atom_site_fract_x
_atom_site_fract_y
_atom_site_fract_z
_atom_type_partial_charge
Co0 Co 0.62452 0.40559 0.04412 0.0
Co1 Co 0.6219 0.23303 0.01326 0.0
O2 O 0.61453 0.3083 0.04607 0.0
C3 C 0.62968 0.3716 0.11924 0.0
O4 O 0.63778 0.31164 0.11043 0.0
C5 C 0.58198 0.22525 0.01331 0.0
O6 O 0.58134 0.29556 0.01519 0.0
O7 O 0.61583 0.29607 0.97313 0.0
O8 O 0.62582 0.40254 0.99213 0.0
H9 H 0.65353 0.13694 0.90772 0.0
H10 H 0.59099 0.38198 0.08368 0.0
O11 O 0.62334 0.413 0.09597 0.0
H12 H 0.57547 0.55866 0.99301 0.0
H13 H 0.62957 0.66507 0.07996 0.0
H14 H 0.65404 0.47422 0.00475 0.0
H15 H 0.60621 0.51136 0.99764 0.0
H16 H 0.61669 0.54312 0.08111 0.0
O17 O 0.59698 0.19277 0.01251 0.0
H18 H 0.64445 0.23003 0.94983 0.0
H19 H 0.6142 0.07628 0.00647 0.0
H20 H 0.66723 0.5956 0.00255 0.0
H21 H 0.56012 0.42875 0.08031 0.0
H22 H 0.65498 0.69203 0.04036 0.0
H23 H 0.55218 0.51752 0.03462 0.0
O24 O 0.64923 0.3661 0.04742 0.0
H25 H 0.61052 0.11837 0.12941 0.0
H26 H 0.65341 0.14241 0.03257 0.0
H27 H 0.66129 0.06736 0.08314 0.0
H28 H 0.63975 0.05483 0.13199 0.0
H29 H 0.60324 0.19342 0.07844 0.0
H30 H 0.62284 0.98166 0.96482 0.0
H31 H 0.6427 0.0117 0.91509 0.0
O32 O 0.64722 0.26925 0.01297 0.0
C33 C 0.62026 0.36134 0.96793 0.0
C34 C 0.64492 0.12312 0.92935 0.0
C35 C 0.62767 0.036 0.96137 0.0
N36 N 0.62893 0.15851 0.98073 0.0
C37 C 0.63977 0.17556 0.95333 0.0
C38 C 0.6228 0.08984 0.98483 0.0
C39 C 0.63882 0.05289 0.93348 0.0
C40 C 0.58768 0.42115 0.06396 0.0
N41 N 0.60039 0.44385 0.0409 0.0
C42 C 0.57016 0.4472 0.06208 0.0
C43 C 0.5657 0.4969 0.03639 0.0
C44 C 0.57876 0.51993 0.01301 0.0
C45 C 0.59613 0.49267 0.01566 0.0
C46 C 0.63501 0.62354 0.06332 0.0
C47 C 0.64858 0.516 0.02114 0.0
C48 C 0.6278 0.55433 0.06391 0.0
N49 N 0.63453 0.50171 0.04283 0.0
C50 C 0.65613 0.58458 0.01985 0.0
C51 C 0.64926 0.63864 0.04109 0.0
C52 C 0.65634 0.31484 0.03031 0.0
C53 C 0.62 0.12324 0.10824 0.0
C54 C 0.64398 0.13741 0.05376 0.0
C55 C 0.64851 0.0947 0.0823 0.0
C56 C 0.63641 0.08767 0.10969 0.0
N57 N 0.62783 0.17197 0.05249 0.0
C58 C 0.61592 0.16544 0.07927 0.0
Co59 Co 0.3781 0.59462 0.04303 0.0
Co60 Co 0.38449 0.7686 0.01576 0.0
O61 O 0.39013 0.68812 0.04691 0.0
C62 C 0.37413 0.62605 0.11851 0.0
O63 O 0.36762 0.68933 0.11023 0.0
C64 C 0.42469 0.77556 0.02745 0.0
O65 O 0.42449 0.71622 0.04579 0.0
O66 O 0.38929 0.70665 0.97458 0.0
O67 O 0.37673 0.60268 0.9911 0.0
H68 H 0.35451 0.88221 0.91252 0.0
H69 H 0.4119 0.60038 0.08348 0.0
O70 O 0.37916 0.5828 0.09479 0.0
H71 H 0.42364 0.43094 0.98758 0.0
H72 H 0.36771 0.33502 0.07383 0.0
H73 H 0.34717 0.53946 0.00269 0.0
H74 H 0.39411 0.48874 0.99355 0.0
H75 H 0.38306 0.45211 0.07725 0.0
O76 O 0.41029 0.8009 0.01448 0.0
H77 H 0.36177 0.78364 0.95301 0.0
H78 H 0.39557 0.92256 0.01107 0.0
H79 H 0.33152 0.42316 0.99827 0.0
H80 H 0.44156 0.54291 0.07876 0.0
H81 H 0.34179 0.31991 0.03401 0.0
H82 H 0.44761 0.45774 0.03044 0.0
O83 O 0.35434 0.64174 0.04722 0.0
H84 H 0.39691 0.86766 0.13527 0.0
H85 H 0.35554 0.87123 0.03541 0.0
H86 H 0.34891 0.94555 0.08681 0.0
H87 H 0.36971 0.94438 0.1372 0.0
H88 H 0.4029 0.79358 0.08363 0.0
H89 H 0.38881 0.02242 0.97102 0.0
H90 H 0.36808 0.00264 0.92141 0.0
O91 O 0.35843 0.74131 0.01541 0.0
C92 C 0.3834 0.64385 0.96796 0.0
C93 C 0.36352 0.89156 0.9341 0.0
C94 C 0.38279 0.97023 0.9669 0.0
N95 N 0.37897 0.84744 0.98452 0.0
C96 C 0.36764 0.83601 0.95716 0.0
C97 C 0.38661 0.91341 0.98944 0.0
C98 C 0.37115 0.9591 0.93908 0.0
C99 C 0.41439 0.56307 0.0625 0.0
N100 N 0.40131 0.54843 0.0387 0.0
C101 C 0.43123 0.53083 0.0599 0.0
C102 C 0.43463 0.48312 0.03276 0.0
C103 C 0.42119 0.46815 0.00868 0.0
C104 C 0.40452 0.50143 0.01209 0.0
C105 C 0.36314 0.37956 0.05807 0.0
C106 C 0.35179 0.49467 0.01816 0.0
C107 C 0.37175 0.44603 0.05993 0.0
N108 N 0.36611 0.50241 0.03996 0.0
C109 C 0.34284 0.429 0.01562 0.0
C110 C 0.3486 0.37111 0.03571 0.0
C111 C 0.34833 0.6969 0.03144 0.0
C112 C 0.38782 0.8691 0.11337 0.0
C113 C 0.3647 0.87036 0.05716 0.0
C114 C 0.36086 0.91266 0.08622 0.0
C115 C 0.37253 0.91199 0.11447 0.0
N116 N 0.3798 0.82884 0.05609 0.0
C117 C 0.39122 0.82755 0.08385 0.0
Co118 Co 0.62466 0.60743 0.5464 0.0
Co119 Co 0.62252 0.78186 0.57448 0.0
O120 O 0.61495 0.7048 0.54305 0.0
C121 C 0.62965 0.6377 0.47102 0.0
O122 O 0.63755 0.69834 0.47933 0.0
C123 C 0.58274 0.79044 0.57808 0.0
O124 O 0.58237 0.72067 0.58305 0.0
O125 O 0.61642 0.72193 0.61578 0.0
O126 O 0.62601 0.61374 0.59827 0.0
H127 H 0.65429 0.88513 0.67825 0.0
H128 H 0.59104 0.63237 0.50741 0.0
O129 O 0.62341 0.59694 0.49467 0.0
H130 H 0.57518 0.46046 0.59999 0.0
H131 H 0.62886 0.34562 0.51435 0.0
H132 H 0.65402 0.53974 0.58665 0.0
H133 H 0.60617 0.50455 0.59406 0.0
H134 H 0.61636 0.46813 0.51149 0.0
O135 O 0.59764 0.8226 0.57404 0.0
H136 H 0.64505 0.78908 0.63786 0.0
H137 H 0.61512 0.9392 0.57836 0.0
H138 H 0.66683 0.41785 0.59056 0.0
H139 H 0.5599 0.58907 0.51218 0.0
H140 H 0.65423 0.31978 0.55423 0.0
H141 H 0.5518 0.50265 0.55881 0.0
O142 O 0.6495 0.64549 0.5425 0.0
H143 H 0.61136 0.88859 0.45647 0.0
H144 H 0.65426 0.8695 0.55354 0.0
H145 H 0.66232 0.94043 0.5017 0.0
H146 H 0.64077 0.95045 0.45272 0.0
H147 H 0.60391 0.81765 0.50869 0.0
H148 H 0.6239 0.03677 0.61825 0.0
H149 H 0.64369 0.01003 0.66855 0.0
O150 O 0.64776 0.74468 0.57548 0.0
C151 C 0.62065 0.65675 0.6219 0.0
C152 C 0.64571 0.8975 0.65637 0.0
C153 C 0.62863 0.98258 0.62272 0.0
N154 N 0.62967 0.8586 0.60565 0.0
C155 C 0.64047 0.84337 0.63336 0.0
C156 C 0.62367 0.92708 0.60027 0.0
C157 C 0.63974 0.96755 0.65093 0.0
C158 C 0.58764 0.59428 0.52757 0.0
N159 N 0.60041 0.57088 0.55035 0.0
C160 C 0.56998 0.57016 0.53023 0.0
C161 C 0.56544 0.52175 0.55643 0.0
C162 C 0.57855 0.4981 0.57956 0.0
C163 C 0.59606 0.52344 0.57613 0.0
C164 C 0.63444 0.38787 0.53035 0.0
C165 C 0.64841 0.49726 0.57089 0.0
C166 C 0.62745 0.45739 0.52878 0.0
N167 N 0.63438 0.51093 0.54906 0.0
C168 C 0.65574 0.42839 0.57315 0.0
C169 C 0.64867 0.37341 0.55274 0.0
C170 C 0.65675 0.69743 0.55891 0.0
C171 C 0.62084 0.8848 0.47768 0.0
C172 C 0.64483 0.87339 0.5323 0.0
C173 C 0.64945 0.91378 0.50304 0.0
C174 C 0.63735 0.91941 0.47557 0.0
N175 N 0.62859 0.83971 0.5342 0.0
C176 C 0.61667 0.84492 0.50736 0.0
Co177 Co 0.37829 0.39633 0.54719 0.0
Co178 Co 0.38085 0.22191 0.57461 0.0
O179 O 0.3883 0.29948 0.54344 0.0
C180 C 0.37381 0.36698 0.47165 0.0
O181 O 0.36595 0.30616 0.47982 0.0
C182 C 0.42065 0.21317 0.57796 0.0
O183 O 0.42103 0.28281 0.58335 0.0
O184 O 0.38719 0.28146 0.61587 0.0
O185 O 0.37655 0.38872 0.59914 0.0
H186 H 0.34945 0.1172 0.67845 0.0
H187 H 0.41225 0.37427 0.50886 0.0
O188 O 0.37985 0.40789 0.49546 0.0
H189 H 0.42692 0.54413 0.60306 0.0
H190 H 0.37351 0.65851 0.5163 0.0
H191 H 0.34846 0.46178 0.58706 0.0
H192 H 0.39613 0.49859 0.59605 0.0
H193 H 0.38637 0.53664 0.51312 0.0
O194 O 0.40573 0.18121 0.57367 0.0
H195 H 0.35854 0.21381 0.63826 0.0
H196 H 0.38832 0.06456 0.57794 0.0
H197 H 0.33529 0.58299 0.59128 0.0
H198 H 0.4432 0.41904 0.51472 0.0
H199 H 0.34783 0.68238 0.55572 0.0
H200 H 0.45071 0.50445 0.56216 0.0
O201 O 0.35364 0.35709 0.5425 0.0
H202 H 0.3915 0.11679 0.45609 0.0
H203 H 0.34904 0.1343 0.55397 0.0
H204 H 0.34077 0.06407 0.50204 0.0
H205 H 0.36209 0.05484 0.45265 0.0
H206 H 0.39917 0.18708 0.50841 0.0
H207 H 0.37969 0.96645 0.61765 0.0
H208 H 0.36005 0.99247 0.66825 0.0
O209 O 0.35556 0.25896 0.57612 0.0
C210 C 0.38244 0.34587 0.62238 0.0
C211 C 0.35797 0.10515 0.65644 0.0
C212 C 0.37496 0.02056 0.62234 0.0
N213 N 0.37384 0.14476 0.60566 0.0
C214 C 0.36313 0.15959 0.63355 0.0
C215 C 0.37984 0.07637 0.6 0.0
C216 C 0.36394 0.03519 0.65072 0.0
C217 C 0.41539 0.41193 0.52937 0.0
N218 N 0.40239 0.43398 0.55199 0.0
C219 C 0.43294 0.43689 0.53264 0.0
C220 C 0.43715 0.48472 0.5593 0.0
C221 C 0.42382 0.50697 0.58227 0.0
C222 C 0.40641 0.48084 0.57822 0.0
C223 C 0.36795 0.61569 0.53198 0.0
C224 C 0.35406 0.50485 0.57167 0.0
C225 C 0.37515 0.54653 0.53023 0.0
N226 N 0.36826 0.49228 0.55011 0.0
C227 C 0.34652 0.57333 0.5741 0.0
C228 C 0.35355 0.62905 0.55411 0.0
C229 C 0.34647 0.30527 0.55911 0.0
C230 C 0.38212 0.12025 0.47748 0.0
C231 C 0.35838 0.13077 0.53255 0.0
C232 C 0.35363 0.09076 0.50324 0.0
C233 C 0.36561 0.08558 0.47555 0.0
N234 N 0.37461 0.16454 0.53427 0.0
C235 C 0.38641 0.15975 0.50721 0.0
Co236 Co 0.12466 0.89486 0.04044 0.0
Co237 Co 0.12307 0.71825 0.01456 0.0
O238 O 0.11528 0.79708 0.04473 0.0
C239 C 0.13025 0.86657 0.11577 0.0
O240 O 0.13822 0.80601 0.10756 0.0
C241 C 0.08333 0.71087 0.00936 0.0
O242 O 0.08315 0.78056 0.0041 0.0
O243 O 0.11762 0.77601 0.97212 0.0
O244 O 0.12563 0.88691 0.98873 0.0
H245 H 0.15615 0.60877 0.91387 0.0
H246 H 0.09146 0.86924 0.08073 0.0
O247 O 0.12379 0.90672 0.0921 0.0
H248 H 0.07416 0.03684 0.98727 0.0
H249 H 0.12807 0.15776 0.07063 0.0
H250 H 0.15342 0.96319 0.99883 0.0
H251 H 0.10536 0.99482 0.99256 0.0
H252 H 0.11608 0.0346 0.07467 0.0
O253 O 0.09813 0.67832 0.01416 0.0
H254 H 0.14653 0.7071 0.95261 0.0
H255 H 0.11538 0.561 0.01209 0.0
H256 H 0.16572 0.0857 0.99376 0.0
H257 H 0.06013 0.91045 0.07659 0.0
H258 H 0.15302 0.184 0.02984 0.0
H259 H 0.0513 0.99471 0.02953 0.0
O260 O 0.14973 0.85882 0.04372 0.0
H261 H 0.11009 0.61844 0.13328 0.0
H262 H 0.15426 0.63023 0.03813 0.0
H263 H 0.16145 0.56182 0.09122 0.0
H264 H 0.13926 0.55548 0.13925 0.0
H265 H 0.10351 0.68683 0.07983 0.0
H266 H 0.12454 0.46119 0.97382 0.0
H267 H 0.14513 0.48476 0.92438 0.0
O268 O 0.14831 0.75465 0.0145 0.0
C269 C 0.12112 0.84167 0.96544 0.0
C270 C 0.14721 0.59778 0.93538 0.0
C271 C 0.12945 0.51497 0.969 0.0
N272 N 0.1305 0.63972 0.9847 0.0
C273 C 0.14175 0.65321 0.95745 0.0
C274 C 0.12428 0.57174 0.99053 0.0
C275 C 0.14101 0.52823 0.94128 0.0
C276 C 0.08775 0.9064 0.06037 0.0
N277 N 0.10024 0.92976 0.037 0.0
C278 C 0.06997 0.92934 0.05808 0.0
C279 C 0.06503 0.97653 0.03163 0.0
C280 C 0.07784 1.00014 0.00789 0.0
C281 C 0.09548 0.97599 0.01097 0.0
C282 C 0.13369 0.11541 0.05473 0.0
C283 C 0.14776 0.00577 0.01447 0.0
C284 C 0.12699 0.04553 0.05696 0.0
N285 N 0.13396 0.99187 0.03681 0.0
C286 C 0.15481 0.07499 0.01156 0.0
C287 C 0.14769 0.1301 0.03183 0.0
C288 C 0.15716 0.80492 0.02914 0.0
C289 C 0.11985 0.62066 0.1125 0.0
C290 C 0.14456 0.628 0.05896 0.0
C291 C 0.14869 0.589 0.08893 0.0
C292 C 0.13623 0.58542 0.11585 0.0
N293 N 0.12845 0.66232 0.05584 0.0
C294 C 0.11617 0.65909 0.08213 0.0
Co295 Co 0.8794 0.10653 0.04285 0.0
Co296 Co 0.88151 0.28071 0.01437 0.0
O297 O 0.8891 0.20392 0.04592 0.0
C298 C 0.87413 0.13714 0.11814 0.0
O299 O 0.86579 0.19675 0.10967 0.0
C300 C 0.92127 0.28863 0.01032 0.0
O301 O 0.92154 0.21884 0.00536 0.0
O302 O 0.88751 0.22033 0.97315 0.0
O303 O 0.87805 0.11216 0.99096 0.0
H304 H 0.84964 0.3834 0.91058 0.0
H305 H 0.91302 0.13208 0.08176 0.0
O306 O 0.88068 0.09684 0.09461 0.0
H307 H 0.92891 0.95887 0.98974 0.0
H308 H 0.87523 0.84526 0.07585 0.0
H309 H 0.8501 0.03814 0.00272 0.0
H310 H 0.89792 0.00301 0.99553 0.0
H311 H 0.88768 0.96784 0.07834 0.0
O312 O 0.90641 0.32109 0.01456 0.0
H313 H 0.85888 0.28762 0.95112 0.0
H314 H 0.88902 0.4379 0.01009 0.0
H315 H 0.83734 0.91616 0.99919 0.0
H316 H 0.94416 0.08878 0.07711 0.0
H317 H 0.84992 0.81871 0.03594 0.0
H318 H 0.95228 0.00169 0.03077 0.0
O319 O 0.85454 0.14459 0.04657 0.0
H320 H 0.89291 0.38825 0.13213 0.0
H321 H 0.84987 0.36899 0.03529 0.0
H322 H 0.84194 0.44047 0.08703 0.0
H323 H 0.86355 0.45057 0.13589 0.0
H324 H 0.90024 0.31679 0.08 0.0
H325 H 0.88023 0.5352 0.97003 0.0
H326 H 0.86034 0.50824 0.91993 0.0
O327 O 0.85628 0.24382 0.01362 0.0
C328 C 0.88333 0.15503 0.96721 0.0
C329 C 0.85827 0.39586 0.93237 0.0
C330 C 0.87546 0.48104 0.96572 0.0
N331 N 0.87436 0.35724 0.98308 0.0
C332 C 0.86351 0.34189 0.95546 0.0
C333 C 0.88042 0.42569 0.98827 0.0
C334 C 0.86429 0.46588 0.93762 0.0
C335 C 0.91643 0.09371 0.06172 0.0
N336 N 0.90366 0.06996 0.03903 0.0
C337 C 0.93409 0.06958 0.05914 0.0
C338 C 0.93864 0.02081 0.0331 0.0
C339 C 0.92554 0.9968 0.01005 0.0
C340 C 0.90802 0.02216 0.0134 0.0
C341 C 0.86965 0.88723 0.05966 0.0
C342 C 0.85571 0.99592 0.01865 0.0
C343 C 0.87662 0.95679 0.06101 0.0
N344 N 0.86971 0.00998 0.0405 0.0
C345 C 0.8484 0.927 0.01661 0.0
C346 C 0.85546 0.87237 0.03726 0.0
C347 C 0.84728 0.19659 0.03017 0.0
C348 C 0.8834 0.38442 0.11096 0.0
C349 C 0.85934 0.37293 0.05648 0.0
C350 C 0.85478 0.41362 0.08568 0.0
C351 C 0.86692 0.4193 0.11308 0.0
N352 N 0.87555 0.33901 0.05456 0.0
C353 C 0.8875 0.34425 0.08134 0.0
Co354 Co 0.12471 0.09178 0.54304 0.0
Co355 Co 0.12018 0.26385 0.57423 0.0
O356 O 0.1137 0.18746 0.54123 0.0
C357 C 0.12926 0.12793 0.46812 0.0
O358 O 0.13653 0.18936 0.47723 0.0
C359 C 0.08007 0.27675 0.56347 0.0
O360 O 0.07973 0.21652 0.54586 0.0
O361 O 0.11473 0.19917 0.61408 0.0
O362 O 0.12606 0.09493 0.59499 0.0
H363 H 0.15101 0.36261 0.68007 0.0
H364 H 0.09107 0.10642 0.5026 0.0
O365 O 0.12359 0.08457 0.4912 0.0
H366 H 0.07752 0.93042 0.59473 0.0
H367 H 0.13252 0.83355 0.50698 0.0
H368 H 0.155 0.02816 0.58223 0.0
H369 H 0.10758 0.98411 0.59016 0.0
H370 H 0.11836 0.95322 0.50592 0.0
O371 O 0.09472 0.30072 0.57596 0.0
H372 H 0.14279 0.26911 0.63751 0.0
H373 H 0.1109 0.41918 0.58192 0.0
H374 H 0.16947 0.90912 0.58431 0.0
H375 H 0.06089 0.05306 0.50586 0.0
H376 H 0.15822 0.8108 0.5465 0.0
H377 H 0.05392 0.96465 0.55231 0.0
O378 O 0.1489 0.13548 0.53967 0.0
H379 H 0.10872 0.37676 0.45736 0.0
H380 H 0.15048 0.36148 0.55641 0.0
H381 H 0.15794 0.43899 0.50655 0.0
H382 H 0.13695 0.44727 0.45659 0.0
H383 H 0.10189 0.29935 0.50751 0.0
H384 H 0.11865 0.51413 0.62404 0.0
H385 H 0.13891 0.48616 0.67346 0.0
O386 O 0.14592 0.23183 0.57419 0.0
C387 C 0.11993 0.13477 0.6192 0.0
C388 C 0.14222 0.37552 0.65858 0.0
C389 C 0.12403 0.46053 0.62716 0.0
N390 N 0.1265 0.33877 0.60712 0.0
C391 C 0.13756 0.32285 0.63435 0.0
C392 C 0.11966 0.40649 0.60344 0.0
C393 C 0.13541 0.44481 0.65488 0.0
C394 C 0.08818 0.06766 0.52275 0.0
N395 N 0.10105 0.04902 0.54634 0.0
C396 C 0.07105 0.03777 0.52453 0.0
C397 C 0.06714 0.98825 0.55062 0.0
C398 C 0.08036 0.96913 0.57447 0.0
C399 C 0.09734 1.00014 0.57189 0.0
C400 C 0.13752 0.87591 0.52363 0.0
C401 C 0.14997 0.98555 0.56583 0.0
C402 C 0.12958 0.94384 0.52309 0.0
N403 N 0.13576 0.99749 0.54419 0.0
C404 C 0.15824 0.9183 0.56706 0.0
C405 C 0.15194 0.86318 0.54581 0.0
C406 C 0.15549 0.1878 0.55677 0.0
C407 C 0.11791 0.37404 0.47909 0.0
C408 C 0.14124 0.36479 0.53482 0.0
C409 C 0.14555 0.40884 0.50665 0.0
C410 C 0.13377 0.41346 0.47864 0.0
N411 N 0.12558 0.32669 0.53525 0.0
C412 C 0.11404 0.33058 0.50773 0.0
Co413 Co 0.87941 0.9051 0.54507 0.0
Co414 Co 0.88263 0.73212 0.57529 0.0
O415 O 0.88979 0.80842 0.54284 0.0
C416 C 0.87474 0.87108 0.46987 0.0
O417 O 0.86739 0.80953 0.47852 0.0
C418 C 0.92262 0.72661 0.57545 0.0
O419 O 0.92305 0.7969 0.57326 0.0
O420 O 0.88833 0.79486 0.61573 0.0
O421 O 0.87808 0.90119 0.59703 0.0
H422 H 0.85108 0.63235 0.68009 0.0
H423 H 0.91304 0.88428 0.50547 0.0
O424 O 0.88056 0.91342 0.49326 0.0
H425 H 0.92782 0.06033 0.59689 0.0
H426 H 0.87339 0.16488 0.5103 0.0
H427 H 0.84955 0.97121 0.58453 0.0
H428 H 0.89727 0.01115 0.59203 0.0
H429 H 0.88676 0.04379 0.50875 0.0
O430 O 0.90773 0.6934 0.57627 0.0
H431 H 0.85991 0.72667 0.63844 0.0
H432 H 0.89095 0.57576 0.58157 0.0
H433 H 0.83587 0.0917 0.58713 0.0
H434 H 0.94371 0.93298 0.50905 0.0
H435 H 0.84779 0.18954 0.54982 0.0
H436 H 0.95128 0.02143 0.55513 0.0
O437 O 0.85486 0.86424 0.5415 0.0
H438 H 0.89491 0.61989 0.45893 0.0
H439 H 0.85156 0.6399 0.55519 0.0
H440 H 0.84417 0.56514 0.50424 0.0
H441 H 0.86595 0.55465 0.45567 0.0
H442 H 0.9017 0.69461 0.51026 0.0
H443 H 0.88257 0.47994 0.62276 0.0
H444 H 0.86244 0.50793 0.67237 0.0
O445 O 0.85716 0.76669 0.57542 0.0
C446 C 0.8837 0.85986 0.62113 0.0
C447 C 0.85981 0.61942 0.65851 0.0
C448 C 0.87751 0.53391 0.62636 0.0
N449 N 0.87581 0.65663 0.60745 0.0
C450 C 0.86482 0.67257 0.6348 0.0
C451 C 0.88223 0.58843 0.60316 0.0
C452 C 0.86621 0.54965 0.65419 0.0
C453 C 0.91619 0.92331 0.52536 0.0
N454 N 0.90338 0.94477 0.54851 0.0
C455 C 0.93359 0.95045 0.52736 0.0
C456 C 0.93784 0.99998 0.55326 0.0
C457 C 0.92469 0.02174 0.57673 0.0
C458 C 0.90743 0.99342 0.57395 0.0
C459 C 0.86809 0.12273 0.52673 0.0
C460 C 0.85487 0.01361 0.56835 0.0
C461 C 0.87558 0.05399 0.5259 0.0
N462 N 0.86901 1.00058 0.5467 0.0
C463 C 0.84704 0.08168 0.56987 0.0
C464 C 0.85373 0.13653 0.54891 0.0
C465 C 0.8479 0.81225 0.55831 0.0
C466 C 0.88534 0.62387 0.47997 0.0
C467 C 0.86109 0.63579 0.53413 0.0
C468 C 0.85684 0.59324 0.50537 0.0
C469 C 0.86907 0.58735 0.47814 0.0
N470 N 0.87709 0.6713 0.53576 0.0
C471 C 0.88913 0.66587 0.50915 0.0
H472 H 0.82323 0.13709 0.07586 0.0
H473 H 0.79082 0.1569 0.07805 0.0
H474 H 0.79425 0.29197 0.98712 0.0
H475 H 0.8266 0.27471 0.98556 0.0
H476 H 0.77401 0.35335 0.03432 0.0
H477 H 0.75212 0.0705 0.01971 0.0
H478 H 0.76653 0.08399 0.05645 0.0
H479 H 0.77504 0.0979 0.01316 0.0
C480 C 0.81704 0.17042 0.05614 0.0
C481 C 0.82751 0.20409 0.03047 0.0
C482 C 0.79848 0.18147 0.05732 0.0
C483 C 0.78999 0.22508 0.03242 0.0
C484 C 0.80044 0.25808 0.00663 0.0
H485 H 0.67692 0.23743 0.98514 0.0
H486 H 0.70925 0.21911 0.9867 0.0
C487 C 0.81897 0.24797 0.00572 0.0
C488 C 0.77034 0.23858 0.03361 0.0
H489 H 0.72954 0.15569 0.03333 0.0
C490 C 0.76428 0.31007 0.03403 0.0
C491 C 0.75762 0.18223 0.03284 0.0
C492 C 0.76312 0.1044 0.03016 0.0
C493 C 0.74594 0.32682 0.03347 0.0
C494 C 0.73321 0.27046 0.03368 0.0
C495 C 0.73927 0.19895 0.03347 0.0
C496 C 0.71356 0.2841 0.03263 0.0
C497 C 0.74044 0.40476 0.03144 0.0
C498 C 0.70512 0.32689 0.05792 0.0
C499 C 0.68659 0.33855 0.05674 0.0
C500 C 0.67609 0.30634 0.03068 0.0
C501 C 0.68458 0.26311 0.00559 0.0
C502 C 0.70309 0.25237 0.0065 0.0
H503 H 0.75145 0.43899 0.02127 0.0
H504 H 0.72854 0.4119 0.01449 0.0
H505 H 0.73705 0.42425 0.05789 0.0
H506 H 0.7128 0.35042 0.0789 0.0
H507 H 0.68044 0.37132 0.07674 0.0
H508 H 0.18175 0.89812 0.05765 0.0
H509 H 0.21445 0.88623 0.05787 0.0
H510 H 0.21015 0.68632 0.00189 0.0
H511 H 0.1777 0.698 1.00095 0.0
H512 H 0.23569 0.77741 0.08573 0.0
H513 H 0.24604 0.79837 0.94342 0.0
H514 H 0.22524 0.82317 0.96412 0.0
H515 H 0.23013 0.73034 0.9552 0.0
C516 C 0.18776 0.85182 0.0452 0.0
C517 C 0.17702 0.7992 0.02919 0.0
C518 C 0.20645 0.84507 0.04541 0.0
C519 C 0.21476 0.78593 0.02943 0.0
C520 C 0.20408 0.73317 0.01373 0.0
H521 H 0.32173 0.61486 0.06079 0.0
H522 H 0.28953 0.63885 0.06108 0.0
C523 C 0.18546 0.73983 0.01344 0.0
C524 C 0.23455 0.77805 0.02978 0.0
H525 H 0.27079 0.7554 0.9767 0.0
C526 C 0.2434 0.77314 0.06191 0.0
C527 C 0.24463 0.77335 0.99869 0.0
C528 C 0.23607 0.78229 0.9634 0.0
C529 C 0.26199 0.76169 0.06378 0.0
C530 C 0.27193 0.7537 0.03266 0.0
C531 C 0.26314 0.76059 1.00055 0.0
C532 C 0.2915 0.73898 0.03273 0.0
C533 C 0.27082 0.7591 0.09904 0.0
C534 C 0.30328 0.78613 0.01582 0.0
C535 C 0.32168 0.77223 0.01526 0.0
C536 C 0.32873 0.71068 0.0316 0.0
C537 C 0.31684 0.66305 0.04819 0.0
C538 C 0.29841 0.67694 0.04861 0.0
H539 H 0.26249 0.78569 0.11923 0.0
H540 H 0.2727 0.70221 0.10684 0.0
H541 H 0.28417 0.78537 0.09846 0.0
H542 H 0.29825 0.83405 0.00316 0.0
H543 H 0.33035 0.80999 0.00203 0.0
H544 H 0.82362 0.86974 0.51254 0.0
H545 H 0.79126 0.84909 0.51072 0.0
H546 H 0.79517 0.71466 0.6018 0.0
H547 H 0.82751 0.73269 0.60296 0.0
H548 H 0.77445 0.65335 0.55544 0.0
H549 H 0.75307 0.93686 0.56962 0.0
H550 H 0.76724 0.92293 0.53257 0.0
H551 H 0.77599 0.90901 0.57568 0.0
C552 C 0.81756 0.83626 0.53234 0.0
C553 C 0.82816 0.80319 0.55799 0.0
C554 C 0.79902 0.82476 0.53138 0.0
C555 C 0.79066 0.7813 0.55649 0.0
C556 C 0.80125 0.7485 0.58215 0.0
H557 H 0.67749 0.77472 0.6038 0.0
H558 H 0.70987 0.79106 0.6025 0.0
C559 C 0.81977 0.75905 0.58283 0.0
C560 C 0.77098 0.76823 0.55575 0.0
H561 H 0.73033 0.85238 0.55598 0.0
C562 C 0.7648 0.69692 0.55566 0.0
C563 C 0.75835 0.82497 0.55647 0.0
C564 C 0.76397 0.90268 0.55895 0.0
C565 C 0.74641 0.68074 0.55637 0.0
C566 C 0.73378 0.73749 0.55598 0.0
C567 C 0.73997 0.80879 0.55596 0.0
C568 C 0.7141 0.72457 0.55704 0.0
C569 C 0.74079 0.60302 0.55871 0.0
C570 C 0.70557 0.68153 0.53196 0.0
C571 C 0.687 0.67099 0.533 0.0
C572 C 0.67654 0.70463 0.5587 0.0
C573 C 0.68511 0.74802 0.58362 0.0
C574 C 0.70366 0.75759 0.58286 0.0
H575 H 0.75173 0.56868 0.5691 0.0
H576 H 0.72884 0.59653 0.5756 0.0
H577 H 0.73741 0.58312 0.53231 0.0
H578 H 0.71322 0.65702 0.51119 0.0
H579 H 0.68079 0.63804 0.51316 0.0
H580 H 0.17555 0.26977 0.60114 0.0
H581 H 0.2078 0.29041 0.59964 0.0
H582 H 0.21225 0.1545 0.50917 0.0
H583 H 0.18002 0.13125 0.51132 0.0
H584 H 0.23836 0.12641 0.55245 0.0
H585 H 0.23487 0.42122 0.53668 0.0
H586 H 0.22337 0.39235 0.57512 0.0
H587 H 0.21537 0.3646 0.53299 0.0
C588 C 0.18337 0.24424 0.58087 0.0
C589 C 0.17516 0.19904 0.55625 0.0
C590 C 0.20182 0.25667 0.57986 0.0
C591 C 0.21245 0.22558 0.55375 0.0
C592 C 0.20434 0.17957 0.52943 0.0
H593 H 0.32255 0.36435 0.51313 0.0
H594 H 0.29018 0.3438 0.51028 0.0
C595 C 0.1859 0.16624 0.53072 0.0
C596 C 0.23209 0.23936 0.55243 0.0
H597 H 0.26345 0.37307 0.55264 0.0
C598 C 0.24383 0.18039 0.55221 0.0
C599 C 0.2393 0.30974 0.55139 0.0
C600 C 0.22756 0.3755 0.54866 0.0
C601 C 0.26249 0.18974 0.5519 0.0
C602 C 0.2697 0.26012 0.55307 0.0
C603 C 0.25798 0.31911 0.55232 0.0
C604 C 0.28932 0.27365 0.55518 0.0
C605 C 0.27425 0.12392 0.54967 0.0
C606 C 0.2996 0.24253 0.5818 0.0
C607 C 0.3181 0.25339 0.5832 0.0
C608 C 0.32672 0.29708 0.55848 0.0
C609 C 0.31633 0.33047 0.53259 0.0
C610 C 0.29782 0.31867 0.53091 0.0
H611 H 0.26705 0.07814 0.53751 0.0
H612 H 0.28658 0.13468 0.53439 0.0
H613 H 0.27821 0.10724 0.57629 0.0
H614 H 0.29331 0.20961 0.60154 0.0
H615 H 0.32564 0.22755 0.60376 0.0
H616 H 0.61325 0.49103 0.14509 0.0
H617 H 0.61335 0.53509 0.20469 0.0
H618 H 0.64388 0.3501 0.237 0.0
H619 H 0.64415 0.30579 0.17688 0.0
H620 H 0.60026 0.47495 0.26441 0.0
H621 H 0.67369 0.51777 0.27425 0.0
H622 H 0.66256 0.50145 0.23333 0.0
H623 H 0.66724 0.42812 0.26235 0.0
C624 C 0.62001 0.45942 0.16477 0.0
C625 C 0.62883 0.39499 0.15609 0.0
C626 C 0.62002 0.48481 0.1989 0.0
C627 C 0.62887 0.4466 0.2252 0.0
C628 C 0.63729 0.38125 0.21694 0.0
H629 H 0.61504 0.51342 0.44634 0.0
H630 H 0.61475 0.46942 0.38672 0.0
C631 C 0.63732 0.35571 0.18264 0.0
C632 C 0.62905 0.47557 0.26118 0.0
H633 H 0.65672 0.53593 0.32564 0.0
C634 C 0.61261 0.48826 0.2778 0.0
C635 C 0.64516 0.49418 0.27837 0.0
C636 C 0.66318 0.4854 0.26112 0.0
C637 C 0.61182 0.51816 0.31129 0.0
C638 C 0.62794 0.53464 0.32892 0.0
C639 C 0.64439 0.5229 0.31215 0.0
C640 C 0.62801 0.56255 0.36509 0.0
C641 C 0.59372 0.53296 0.32721 0.0
C642 C 0.63591 0.62911 0.37296 0.0
C643 C 0.63622 0.65448 0.40728 0.0
C644 C 0.62874 0.61343 0.43432 0.0
C645 C 0.62085 0.5468 0.42621 0.0
C646 C 0.62058 0.52156 0.39204 0.0
H647 H 0.5831 0.53706 0.30706 0.0
H648 H 0.59012 0.48813 0.3449 0.0
H649 H 0.59387 0.58346 0.34258 0.0
H650 H 0.6418 0.66145 0.35253 0.0
H651 H 0.64246 0.70583 0.41262 0.0
H652 H 0.36223 0.69754 0.17664 0.0
H653 H 0.36297 0.6553 0.23707 0.0
H654 H 0.38847 0.45908 0.20395 0.0
H655 H 0.38796 0.50073 0.14384 0.0
H656 H 0.34726 0.52936 0.26469 0.0
H657 H 0.42096 0.52949 0.28302 0.0
H658 H 0.41015 0.57652 0.24772 0.0
H659 H 0.41359 0.48107 0.24525 0.0
C660 C 0.36812 0.64566 0.18226 0.0
C661 C 0.37507 0.60268 0.15536 0.0
C662 C 0.36849 0.62154 0.21678 0.0
C663 C 0.37597 0.55442 0.22505 0.0
C664 C 0.38293 0.51158 0.19827 0.0
H665 H 0.36015 0.30071 0.41354 0.0
H666 H 0.36062 0.34526 0.35354 0.0
C667 C 0.38254 0.53545 0.16385 0.0
C668 C 0.37604 0.52791 0.26146 0.0
H669 H 0.40371 0.47108 0.32666 0.0
C670 C 0.35959 0.51689 0.27833 0.0
C671 C 0.39215 0.5122 0.27928 0.0
C672 C 0.41023 0.52599 0.26307 0.0
C673 C 0.35882 0.48944 0.31235 0.0
C674 C 0.37492 0.47165 0.32977 0.0
C675 C 0.39137 0.48387 0.3131 0.0
C676 C 0.37503 0.44292 0.36581 0.0
C677 C 0.34079 0.48084 0.32958 0.0
C678 C 0.38344 0.48187 0.3924 0.0
C679 C 0.38328 0.45644 0.42658 0.0
C680 C 0.37478 0.39118 0.43493 0.0
C681 C 0.36674 0.35128 0.40807 0.0
C682 C 0.36689 0.37691 0.3738 0.0
H683 H 0.33024 0.51249 0.31614 0.0
H684 H 0.33682 0.42342 0.32881 0.0
H685 H 0.34134 0.49786 0.35724 0.0
H686 H 0.38989 0.5327 0.3868 0.0
H687 H 0.38968 0.48852 0.44652 0.0
H688 H 0.36169 0.54409 0.93799 0.0
H689 H 0.36364 0.49417 0.87952 0.0
H690 H 0.40959 0.6277 0.85831 0.0
H691 H 0.40708 0.68084 0.91647 0.0
H692 H 0.38946 0.62593 0.80423 0.0
H693 H 0.39674 0.34402 0.84589 0.0
H694 H 0.37636 0.38087 0.86276 0.0
H695 H 0.39761 0.41755 0.87635 0.0
C696 C 0.37221 0.56291 0.92087 0.0
C697 C 0.38431 0.6161 0.93192 0.0
C698 C 0.37344 0.53369 0.88751 0.0
C699 C 0.38713 0.55523 0.86474 0.0
C700 C 0.39901 0.60953 0.87546 0.0
H701 H 0.40547 0.30414 0.67415 0.0
H702 H 0.40836 0.35652 0.73245 0.0
C703 C 0.39755 0.64001 0.90867 0.0
C704 C 0.38861 0.52262 0.82944 0.0
H705 H 0.38797 0.36218 0.78627 0.0
C706 C 0.38935 0.56821 0.80038 0.0
C707 C 0.38897 0.44724 0.82417 0.0
C708 C 0.3901 0.39474 0.85401 0.0
C709 C 0.38971 0.54074 0.76635 0.0
C710 C 0.38851 0.46551 0.76106 0.0
C711 C 0.38852 0.41985 0.79013 0.0
C712 C 0.38681 0.43328 0.72572 0.0
C713 C 0.39165 0.59296 0.73655 0.0
C714 C 0.37349 0.45751 0.70275 0.0
C715 C 0.37208 0.42871 0.66934 0.0
C716 C 0.38358 0.37329 0.65844 0.0
C717 C 0.39642 0.34673 0.68186 0.0
C718 C 0.39809 0.37677 0.71514 0.0
H719 H 0.39885 0.6423 0.74483 0.0
H720 H 0.399 0.5687 0.71437 0.0
H721 H 0.37815 0.60955 0.72751 0.0
H722 H 0.36413 0.49884 0.71062 0.0
H723 H 0.36186 0.44957 0.65209 0.0
H724 H 0.60768 0.29673 0.90828 0.0
H725 H 0.60676 0.3479 0.84948 0.0
H726 H 0.62974 0.54478 0.88796 0.0
H727 H 0.63073 0.49488 0.94648 0.0
H728 H 0.58959 0.48605 0.8267 0.0
H729 H 0.66332 0.47498 0.80676 0.0
H730 H 0.65199 0.4213 0.83912 0.0
H731 H 0.65593 0.51508 0.84683 0.0
C732 C 0.61252 0.35093 0.90426 0.0
C733 C 0.61934 0.39144 0.9322 0.0
C734 C 0.61194 0.3801 0.87068 0.0
C735 C 0.61831 0.44984 0.86443 0.0
C736 C 0.62492 0.4906 0.89222 0.0
H737 H 0.60832 0.72499 0.68089 0.0
H738 H 0.60697 0.67611 0.74014 0.0
C739 C 0.62543 0.46183 0.92572 0.0
C740 C 0.61835 0.48017 0.82883 0.0
H741 H 0.64633 0.53569 0.76396 0.0
C742 C 0.60196 0.49684 0.81289 0.0
C743 C 0.63454 0.49385 0.81094 0.0
C744 C 0.65247 0.47498 0.82655 0.0
C745 C 0.60136 0.52767 0.77952 0.0
C746 C 0.61757 0.5424 0.76188 0.0
C747 C 0.63393 0.52498 0.77772 0.0
C748 C 0.61789 0.57237 0.72617 0.0
C749 C 0.58343 0.54311 0.76307 0.0
C750 C 0.62469 0.5306 0.6989 0.0
C751 C 0.62549 0.55815 0.66521 0.0
C752 C 0.61963 0.62854 0.65798 0.0
C753 C 0.61289 0.67059 0.68546 0.0
C754 C 0.61203 0.64265 0.71929 0.0
H755 H 0.57227 0.5168 0.77732 0.0
H756 H 0.58104 0.60194 0.76314 0.0
H757 H 0.58324 0.52462 0.73561 0.0
H758 H 0.62935 0.47636 0.70369 0.0
H759 H 0.63081 0.52403 0.64487 0.0
H760 H 0.11481 0.98927 0.14036 0.0
H761 H 0.1148 0.03475 0.19974 0.0
H762 H 0.14361 0.84678 0.23391 0.0
H763 H 0.14396 0.80097 0.17409 0.0
H764 H 0.10063 0.97654 0.25914 0.0
H765 H 0.17419 0.01167 0.27184 0.0
H766 H 0.16339 0.99621 0.23051 0.0
H767 H 0.16732 0.92261 0.25978 0.0
C768 C 0.12117 0.95735 0.1604 0.0
C769 C 0.12951 0.89155 0.15236 0.0
C770 C 0.12113 0.98355 0.1944 0.0
C771 C 0.12945 0.94481 0.22116 0.0
C772 C 0.13744 0.87831 0.21349 0.0
H773 H 0.11434 0.00596 0.44166 0.0
H774 H 0.11423 0.96509 0.38153 0.0
C775 C 0.13752 0.85195 0.17935 0.0
C776 C 0.12945 0.97415 0.25705 0.0
H777 H 0.15684 0.03063 0.32276 0.0
C778 C 0.11292 0.98845 0.27304 0.0
C779 C 0.14549 0.99088 0.27489 0.0
C780 C 0.16362 0.98026 0.25834 0.0
C781 C 0.11199 0.01784 0.3066 0.0
C782 C 0.12803 0.03224 0.32492 0.0
C783 C 0.14456 0.01919 0.30873 0.0
C784 C 0.12789 0.05862 0.36132 0.0
C785 C 0.09384 0.03406 0.32198 0.0
C786 C 0.13592 0.12442 0.37011 0.0
C787 C 0.1361 0.14806 0.40471 0.0
C788 C 0.1284 0.10588 0.43111 0.0
C789 C 0.12035 0.04008 0.42205 0.0
C790 C 0.12018 0.01665 0.3876 0.0
H791 H 0.08343 0.03952 0.30149 0.0
H792 H 0.08982 0.98928 0.33936 0.0
H793 H 0.09415 0.08425 0.33757 0.0
H794 H 0.14203 0.15745 0.35018 0.0
H795 H 0.14247 0.19879 0.41081 0.0
H796 H 0.88778 0.99769 0.44482 0.0
H797 H 0.88753 0.04105 0.38515 0.0
H798 H 0.86344 0.84251 0.35126 0.0
H799 H 0.86326 0.79882 0.41148 0.0
H800 H 0.90363 0.98825 0.32721 0.0
H801 H 0.82977 0.99265 0.3102 0.0
H802 H 0.84024 0.9817 0.35217 0.0
H803 H 0.83874 0.90695 0.32272 0.0
C804 C 0.88239 0.96295 0.4248 0.0
C805 C 0.87541 0.89481 0.43306 0.0
C806 C 0.88229 0.98796 0.39061 0.0
C807 C 0.87521 0.94561 0.36379 0.0
C808 C 0.86861 0.87679 0.37167 0.0
H809 H 0.89162 0.01976 0.14369 0.0
H810 H 0.89198 0.97539 0.20329 0.0
C811 C 0.86864 0.85167 0.40606 0.0
C812 C 0.87501 0.974 0.32769 0.0
H813 H 0.8473 0.01995 0.26053 0.0
C814 C 0.89131 0.99513 0.31263 0.0
C815 C 0.85889 0.98409 0.30891 0.0
C816 C 0.84088 0.96583 0.32436 0.0
C817 C 0.89197 0.02539 0.27922 0.0
C818 C 0.87593 0.03364 0.26007 0.0
C819 C 0.85959 0.01325 0.27522 0.0
C820 C 0.87588 0.06198 0.22401 0.0
C821 C 0.90982 0.04945 0.26494 0.0
C822 C 0.86647 0.12504 0.2157 0.0
C823 C 0.86617 0.15069 0.18144 0.0
C824 C 0.87515 0.11325 0.15488 0.0
C825 C 0.8846 0.05021 0.16345 0.0
C826 C 0.8849 0.0248 0.19759 0.0
H827 H 0.91982 0.05764 0.28597 0.0
H828 H 0.91509 0.00758 0.24713 0.0
H829 H 0.90845 0.10024 0.25003 0.0
H830 H 0.85935 0.15437 0.23573 0.0
H831 H 0.8587 0.19916 0.17571 0.0
H832 H 0.89657 0.79526 0.68054 0.0
H833 H 0.89744 0.84593 0.73946 0.0
H834 H 0.87367 0.04187 0.70161 0.0
H835 H 0.87272 0.99246 0.64299 0.0
H836 H 0.91423 0.98425 0.7623 0.0
H837 H 0.8406 0.97047 0.78307 0.0
H838 H 0.85195 0.91762 0.7504 0.0
H839 H 0.84773 0.01132 0.74301 0.0
C840 C 0.89154 0.84914 0.68473 0.0
C841 C 0.88452 0.88954 0.65694 0.0
C842 C 0.89209 0.87801 0.71838 0.0
C843 C 0.88548 0.94734 0.72483 0.0
C844 C 0.87866 0.98798 0.69719 0.0
H845 H 0.89543 0.22307 0.90801 0.0
H846 H 0.89673 0.17378 0.84884 0.0
C847 C 0.87818 0.9595 0.66364 0.0
C848 C 0.88547 0.97746 0.76048 0.0
H849 H 0.85756 0.03206 0.82565 0.0
C850 C 0.90187 0.99462 0.77625 0.0
C851 C 0.86931 0.99057 0.77855 0.0
C852 C 0.85137 0.97113 0.76313 0.0
C853 C 0.9025 0.02544 0.80962 0.0
C854 C 0.88631 0.03969 0.82742 0.0
C855 C 0.86994 0.02172 0.81175 0.0
C856 C 0.88602 0.06988 0.86309 0.0
C857 C 0.92044 0.04144 0.82588 0.0
C858 C 0.87935 0.02814 0.89048 0.0
C859 C 0.87858 0.05594 0.92413 0.0
C860 C 0.88433 0.12653 0.93118 0.0
C861 C 0.89094 0.16852 0.90357 0.0
C862 C 0.89178 0.14035 0.86979 0.0
H863 H 0.93161 0.01528 0.81157 0.0
H864 H 0.92274 0.10033 0.82566 0.0
H865 H 0.92073 0.0232 0.85337 0.0
H866 H 0.87477 0.97376 0.88582 0.0
H867 H 0.87336 0.02185 0.94457 0.0
H868 H 0.10985 0.76912 0.90684 0.0
H869 H 0.10869 0.81511 0.84696 0.0
H870 H 0.129 0.01933 0.882 0.0
H871 H 0.13019 0.97478 0.9414 0.0
H872 H 0.08993 0.94991 0.82179 0.0
H873 H 0.16372 0.94868 0.80234 0.0
H874 H 0.15281 0.89485 0.83519 0.0
H875 H 0.15598 0.9894 0.84201 0.0
C876 C 0.11406 0.8238 0.90179 0.0
C877 C 0.12017 0.86801 0.92903 0.0
C878 C 0.11335 0.84998 0.86762 0.0
C879 C 0.1189 0.92036 0.86015 0.0
C880 C 0.12482 0.96465 0.88723 0.0
H881 H 0.10633 0.19603 0.67887 0.0
H882 H 0.10526 0.14292 0.73723 0.0
C883 C 0.12545 0.93889 0.92124 0.0
C884 C 0.11873 0.94822 0.8241 0.0
H885 H 0.14632 0.00792 0.7595 0.0
C886 C 0.10223 0.96223 0.808 0.0
C887 C 0.13481 0.96398 0.80628 0.0
C888 C 0.15287 0.94804 0.82212 0.0
C889 C 0.10141 0.99301 0.77465 0.0
C890 C 0.11752 0.01051 0.75721 0.0
C891 C 0.134 0.9951 0.77309 0.0
C892 C 0.11765 0.04265 0.72195 0.0
C893 C 0.08338 0.00594 0.75813 0.0
C894 C 0.12521 0.00436 0.69425 0.0
C895 C 0.12589 0.0344 0.66104 0.0
C896 C 0.11911 0.10385 0.65477 0.0
C897 C 0.11161 0.14241 0.6827 0.0
C898 C 0.11089 0.11201 0.71601 0.0
H899 H 0.07254 0.97616 0.77169 0.0
H900 H 0.0802 0.06412 0.75932 0.0
H901 H 0.08352 0.98969 0.73034 0.0
H902 H 0.13059 0.95094 0.69833 0.0
H903 H 0.13182 0.00299 0.64032 0.0
H904 H 0.43431 0.86571 0.97484 0.0
H905 H 0.46135 0.93931 0.97058 0.0
H906 H 0.47884 0.86006 0.07047 0.0
H907 H 0.45242 0.78278 0.07358 0.0
H908 H 0.47257 0.04523 0.00517 0.0
H909 H 0.52401 0.83431 0.02004 0.0
H910 H 0.50067 0.81302 0.0143 0.0
H911 H 0.5093 0.83526 0.05679 0.0
C912 C 0.4441 0.86316 0.99559 0.0
C913 C 0.4414 0.81779 0.02431 0.0
C914 C 0.45953 0.9055 0.99323 0.0
C915 C 0.47244 0.90455 0.01987 0.0
C916 C 0.46953 0.86006 0.04891 0.0
H917 H 0.54999 0.25504 0.04485 0.0
H918 H 0.52329 0.17867 0.04677 0.0
C919 C 0.45434 0.81616 0.05081 0.0
C920 C 0.4885 0.95223 0.01779 0.0
H921 H 0.53396 0.95525 0.0275 0.0
C922 C 0.48601 0.02524 0.0097 0.0
C923 C 0.50615 0.92649 0.02313 0.0
C924 C 0.51021 0.84785 0.02865 0.0
C925 C 0.50054 0.07301 0.00703 0.0
C926 C 0.51808 0.0481 0.01436 0.0
C927 C 0.52056 0.975 0.02225 0.0
C928 C 0.53415 0.09588 0.01313 0.0
C929 C 0.49686 0.14894 0.99524 0.0
C930 C 0.5495 0.0741 0.99477 0.0
C931 C 0.56496 0.11641 0.99478 0.0
C932 C 0.56532 0.18234 0.01253 0.0
C933 C 0.54995 0.20496 0.03049 0.0
C934 C 0.53463 0.1615 0.03134 0.0
H935 H 0.48438 0.15206 0.97957 0.0
H936 H 0.49501 0.18379 0.01837 0.0
H937 H 0.50806 0.17055 0.9794 0.0
H938 H 0.54959 0.02393 0.98048 0.0
H939 H 0.57663 0.09767 0.98068 0.0
H940 H 0.54803 0.74125 0.58012 0.0
H941 H 0.52047 0.8129 0.57872 0.0
H942 H 0.55182 0.00714 0.57408 0.0
H943 H 0.57929 0.93638 0.57473 0.0
H944 H 0.50837 0.91551 0.62409 0.0
H945 H 0.51774 0.03673 0.49374 0.0
H946 H 0.53096 0.96175 0.5088 0.0
H947 H 0.5364 0.05176 0.52221 0.0
C948 C 0.54905 0.7992 0.57862 0.0
C949 C 0.5659 0.83294 0.57732 0.0
C950 C 0.53328 0.8401 0.57783 0.0
C951 C 0.53405 0.91541 0.57562 0.0
C952 C 0.55085 0.94912 0.57484 0.0
H953 H 0.45537 0.26184 0.5815 0.0
H954 H 0.48289 0.18965 0.58145 0.0
C955 C 0.56658 0.90842 0.57545 0.0
C956 C 0.51733 0.95905 0.57522 0.0
H957 H 0.49474 0.08734 0.52905 0.0
C958 C 0.50533 0.95268 0.60318 0.0
C959 C 0.51337 0.00777 0.54797 0.0
C960 C 0.5252 0.01453 0.51632 0.0
C961 C 0.48969 0.99458 0.60495 0.0
C962 C 0.48584 0.04366 0.57787 0.0
C963 C 0.49779 0.05002 0.54989 0.0
C964 C 0.46921 0.08752 0.57773 0.0
C965 C 0.47756 0.987 0.63612 0.0
C966 C 0.45244 0.0541 0.57511 0.0
C967 C 0.43674 0.09504 0.57499 0.0
C968 C 0.43746 0.17047 0.57748 0.0
C969 C 0.45432 0.20393 0.57971 0.0
C970 C 0.47005 0.16279 0.57965 0.0
H971 H 0.48443 0.96015 0.65821 0.0
H972 H 0.47265 0.04032 0.6449 0.0
H973 H 0.46576 0.95403 0.62886 0.0
H974 H 0.45149 0.9962 0.573 0.0
H975 H 0.42403 0.06733 0.57309 0.0
H976 H 0.07965 0.56502 0.01215 0.0
H977 H 0.05207 0.49494 0.01175 0.0
H978 H 0.02107 0.69023 0.00747 0.0
H979 H 0.04873 0.7611 0.00707 0.0
H980 H 0.02459 0.49233 0.05755 0.0
H981 H 0.99965 0.57683 0.92794 0.0
H982 H 0.02217 0.59517 0.94241 0.0
H983 H 0.00387 0.65036 0.95698 0.0
C984 C 0.06699 0.59331 0.01098 0.0
C985 C 0.06643 0.66884 0.00941 0.0
C986 C 0.05121 0.55301 0.01078 0.0
C987 C 0.03447 0.5871 0.00901 0.0
C988 C 0.03382 0.66256 0.00798 0.0
H989 H 0.92488 0.43443 0.0145 0.0
H990 H 0.95247 0.50471 0.01468 0.0
C991 C 0.04965 0.70306 0.00796 0.0
C992 C 0.0178 0.54331 0.00902 0.0
H993 H 0.9798 0.50739 0.96256 0.0
C994 C 0.01484 0.49541 0.03669 0.0
C995 C 0.00508 0.54713 0.98175 0.0
C996 C 0.00789 0.5946 0.95041 0.0
C997 C 0.99942 0.45223 0.03812 0.0
C998 C 0.98668 0.45644 0.01098 0.0
C999 C 0.9896 0.50429 0.98334 0.0
C1000 C 0.97005 0.41269 0.01111 0.0
C1001 C 0.99667 0.40348 0.06901 0.0
C1002 C 0.97075 0.33742 0.00877 0.0
C1003 C 0.95494 0.2968 0.00856 0.0
C1004 C 0.93815 0.33081 0.01067 0.0
C1005 C 0.93755 0.40629 0.01292 0.0
C1006 C 0.95332 0.44671 0.01297 0.0
H1007 H 0.00563 0.41778 0.09101 0.0
H1008 H 0.98257 0.40574 0.07812 0.0
H1009 H 0.99962 0.34729 0.06127 0.0
H1010 H 0.98352 0.31014 0.00679 0.0
H1011 H 0.95589 0.23887 0.00672 0.0
H1012 H 0.07134 0.37175 0.61482 0.0
H1013 H 0.04446 0.44657 0.61899 0.0
H1014 H 0.02584 0.36166 0.52099 0.0
H1015 H 0.05205 0.28331 0.51806 0.0
H1016 H 0.03257 0.55049 0.58366 0.0
H1017 H 0.98136 0.33772 0.57374 0.0
H1018 H 0.00479 0.31724 0.57877 0.0
H1019 H 0.99563 0.33662 0.53635 0.0
C1020 C 0.06134 0.36835 0.59446 0.0
C1021 C 0.06365 0.32092 0.56638 0.0
C1022 C 0.04601 0.41137 0.59676 0.0
C1023 C 0.03279 0.40896 0.5707 0.0
C1024 C 0.03537 0.36277 0.54218 0.0
H1025 H 0.95445 0.75597 0.54322 0.0
H1026 H 0.98134 0.68054 0.54196 0.0
C1027 C 0.05046 0.31827 0.54037 0.0
C1028 C 0.01669 0.45645 0.57286 0.0
H1029 H 0.97115 0.45785 0.56459 0.0
C1030 C 0.01912 0.52996 0.57986 0.0
C1031 C 0.99903 0.43001 0.56852 0.0
C1032 C 0.99504 0.35097 0.56433 0.0
C1033 C 0.00454 0.57755 0.58233 0.0
C1034 C 0.98697 0.55185 0.57589 0.0
C1035 C 0.98455 0.47823 0.56915 0.0
C1036 C 0.97082 0.59931 0.57685 0.0
C1037 C 0.00819 0.65424 0.59292 0.0
C1038 C 0.95559 0.57805 0.59572 0.0
C1039 C 0.94001 0.61971 0.59531 0.0
C1040 C 0.93941 0.68454 0.57667 0.0
C1041 C 0.95467 0.70676 0.55825 0.0
C1042 C 0.97011 0.66386 0.55779 0.0
H1043 H 0.02077 0.65852 0.60824 0.0
H1044 H 0.00986 0.68766 0.56925 0.0
H1045 H 0.99707 0.67665 0.60871 0.0
H1046 H 0.95567 0.52874 0.61068 0.0
H1047 H 0.92843 0.60132 0.60978 0.0
loop_
_geom_bond_atom_site_label_1
_geom_bond_atom_site_label_2
_geom_bond_distance
_geom_bond_site_symmetry_2
_ccdc_geom_bond_type
Co0 O2 2.143 . S
Co0 O8 2.074 1_554 S
Co0 O11 2.093 . S
Co0 O24 2.097 . S
Co0 N41 2.151 . S
Co0 N49 2.214 . S
Co1 O2 2.160 . S
Co1 O7 2.058 1_554 S
Co1 O17 2.057 . S
Co1 O32 2.037 . S
Co1 N36 2.145 1_554 S
Co1 N57 2.257 . S
O2 Co0 2.143 . S
O2 Co1 2.160 . S
C3 O4 1.278 . S
C3 O11 1.224 . S
O4 C3 1.278 . S
C5 O6 1.245 . S
C5 O17 1.232 . S
O6 C5 1.245 . S
O7 Co1 2.058 1_556 S
O7 C33 1.269 . S
O8 Co0 2.074 1_556 S
O8 C33 1.257 . S
H9 C34 0.930 . S
H10 C40 0.930 . S
O11 Co0 2.093 . S
O11 C3 1.224 . S
H12 C44 0.929 1_556 S
H13 C46 0.930 . S
H14 C47 0.930 . S
H15 C45 0.914 1_556 S
H16 C48 0.928 . S
O17 Co1 2.057 . S
O17 C5 1.232 . S
H18 C37 0.929 . S
H19 C38 0.929 . S
H20 C50 0.931 1_556 S
H21 C42 0.929 . S
H22 C51 0.930 . S
H23 C43 0.931 . S
O24 Co0 2.097 . S
O24 C52 1.214 . S
H25 C53 0.929 . S
H26 C54 0.929 . S
H27 C55 0.930 . S
H28 C56 0.929 . S
H29 C58 0.930 . S
H30 C35 0.930 1_565 S
H31 C39 0.930 1_565 S
O32 Co1 2.037 . S
O32 C52 1.234 . S
C33 O7 1.269 . S
C33 O8 1.257 . S
C34 H9 0.930 . S
C34 C37 1.388 . S
C34 C39 1.418 . S
C35 H30 0.930 1_545 S
C35 C38 1.404 . S
C35 C39 1.353 . S
N36 Co1 2.145 1_556 S
N36 C37 1.397 . S
N36 C38 1.334 . S
C37 H18 0.929 . S
C37 C34 1.388 . S
C37 N36 1.397 . S
C38 H19 0.929 . S
C38 C35 1.404 . S
C38 N36 1.334 . S
C39 H31 0.930 1_545 S
C39 C34 1.418 . S
C39 C35 1.353 . S
C40 H10 0.930 . S
C40 N41 1.330 . S
C40 C42 1.446 . S
N41 Co0 2.151 . S
N41 C40 1.330 . S
N41 C45 1.418 . S
C42 H21 0.929 . S
C42 C40 1.446 . S
C42 C43 1.332 . S
C43 H23 0.931 . S
C43 C42 1.332 . S
C43 C44 1.267 . S
C44 H12 0.929 1_554 S
C44 C43 1.267 . S
C44 C45 1.251 . S
C45 H15 0.914 1_554 S
C45 N41 1.418 . S
C45 C44 1.251 . S
C46 H13 0.930 . S
C46 C48 1.406 . S
C46 C51 1.261 . S
C47 H14 0.930 . S
C47 N49 1.325 . S
C47 C50 1.357 . S
C48 H16 0.928 . S
C48 C46 1.406 . S
C48 N49 1.261 . S
N49 Co0 2.214 . S
N49 C47 1.325 . S
N49 C48 1.261 . S
C50 H20 0.931 1_554 S
C50 C47 1.357 . S
C50 C51 1.312 . S
C51 H22 0.930 . S
C51 C46 1.261 . S
C51 C50 1.312 . S
C52 O24 1.214 . S
C52 O32 1.234 . S
C53 H25 0.929 . S
C53 C56 1.391 . S
C53 C58 1.391 . S
C54 H26 0.929 . S
C54 C55 1.390 . S
C54 N57 1.391 . S
C55 H27 0.930 . S
C55 C54 1.390 . S
C55 C56 1.392 . S
C56 H28 0.929 . S
C56 C53 1.391 . S
C56 C55 1.392 . S
N57 Co1 2.257 . S
N57 C54 1.391 . S
N57 C58 1.388 . S
C58 H29 0.930 . S
C58 C53 1.391 . S
C58 N57 1.388 . S
Co59 O61 2.143 . S
Co59 O67 2.074 1_554 S
Co59 O70 2.093 . S
Co59 O83 2.097 . S
Co59 N100 2.151 . S
Co59 N108 2.214 . S
Co60 O61 2.160 . S
Co60 O66 2.058 1_554 S
Co60 O76 2.057 . S
Co60 O91 2.037 . S
Co60 N95 2.145 1_554 S
Co60 N116 2.257 . S
O61 Co59 2.143 . S
O61 Co60 2.160 . S
C62 O63 1.278 . S
C62 O70 1.224 . S
O63 C62 1.278 . S
C64 O65 1.245 . S
C64 O76 1.232 . S
O65 C64 1.245 . S
O66 Co60 2.058 1_556 S
O66 C92 1.269 . S
O67 Co59 2.074 1_556 S
O67 C92 1.257 . S
H68 C93 0.930 . S
H69 C99 0.930 . S
O70 Co59 2.093 . S
O70 C62 1.224 . S
H71 C103 0.929 1_556 S
H72 C105 0.930 . S
H73 C106 0.930 . S
H74 C104 0.914 1_556 S
H75 C107 0.928 . S
O76 Co60 2.057 . S
O76 C64 1.232 . S
H77 C96 0.929 . S
H78 C97 0.929 . S
H79 C109 0.931 1_556 S
H80 C101 0.929 . S
H81 C110 0.930 . S
H82 C102 0.931 . S
O83 Co59 2.097 . S
O83 C111 1.214 . S
H84 C112 0.929 . S
H85 C113 0.929 . S
H86 C114 0.930 . S
H87 C115 0.929 . S
H88 C117 0.930 . S
H89 C94 0.930 1_545 S
H90 C98 0.930 1_545 S
O91 Co60 2.037 . S
O91 C111 1.234 . S
C92 O66 1.269 . S
C92 O67 1.257 . S
C93 H68 0.930 . S
C93 C96 1.388 . S
C93 C98 1.418 . S
C94 H89 0.930 1_565 S
C94 C97 1.404 . S
C94 C98 1.353 . S
N95 Co60 2.145 1_556 S
N95 C96 1.397 . S
N95 C97 1.334 . S
C96 H77 0.929 . S
C96 C93 1.388 . S
C96 N95 1.397 . S
C97 H78 0.929 . S
C97 C94 1.404 . S
C97 N95 1.334 . S
C98 H90 0.930 1_565 S
C98 C93 1.418 . S
C98 C94 1.353 . S
C99 H69 0.930 . S
C99 N100 1.330 . S
C99 C101 1.446 . S
N100 Co59 2.151 . S
N100 C99 1.330 . S
N100 C104 1.418 . S
C101 H80 0.929 . S
C101 C99 1.446 . S
C101 C102 1.332 . S
C102 H82 0.931 . S
C102 C101 1.332 . S
C102 C103 1.267 . S
C103 H71 0.929 1_554 S
C103 C102 1.267 . S
C103 C104 1.251 . S
C104 H74 0.914 1_554 S
C104 N100 1.418 . S
C104 C103 1.251 . S
C105 H72 0.930 . S
C105 C107 1.406 . S
C105 C110 1.261 . S
C106 H73 0.930 . S
C106 N108 1.325 . S
C106 C109 1.357 . S
C107 H75 0.928 . S
C107 C105 1.406 . S
C107 N108 1.261 . S
N108 Co59 2.214 . S
N108 C106 1.325 . S
N108 C107 1.261 . S
C109 H79 0.931 1_554 S
C109 C106 1.357 . S
C109 C110 1.312 . S
C110 H81 0.930 . S
C110 C105 1.261 . S
C110 C109 1.312 . S
C111 O83 1.214 . S
C111 O91 1.234 . S
C112 H84 0.929 . S
C112 C115 1.391 . S
C112 C117 1.391 . S
C113 H85 0.929 . S
C113 C114 1.390 . S
C113 N116 1.391 . S
C114 H86 0.930 . S
C114 C113 1.390 . S
C114 C115 1.392 . S
C115 H87 0.929 . S
C115 C112 1.391 . S
C115 C114 1.392 . S
N116 Co60 2.257 . S
N116 C113 1.391 . S
N116 C117 1.388 . S
C117 H88 0.930 . S
C117 C112 1.391 . S
C117 N116 1.388 . S
Co118 O120 2.143 . S
Co118 O126 2.074 . S
Co118 O129 2.093 . S
Co118 O142 2.097 . S
Co118 N159 2.151 . S
Co118 N167 2.214 . S
Co119 O120 2.160 . S
Co119 O125 2.058 . S
Co119 O135 2.057 . S
Co119 O150 2.037 . S
Co119 N154 2.145 . S
Co119 N175 2.257 . S
O120 Co118 2.143 . S
O120 Co119 2.160 . S
C121 O122 1.278 . S
C121 O129 1.224 . S
O122 C121 1.278 . S
C123 O124 1.245 . S
C123 O135 1.232 . S
O124 C123 1.245 . S
O125 Co119 2.058 . S
O125 C151 1.269 . S
O126 Co118 2.074 . S
O126 C151 1.257 . S
H127 C152 0.930 . S
H128 C158 0.930 . S
O129 Co118 2.093 . S
O129 C121 1.224 . S
H130 C162 0.929 . S
H131 C164 0.930 . S
H132 C165 0.930 . S
H133 C163 0.929 . S
H134 C166 0.928 . S
O135 Co119 2.057 . S
O135 C123 1.232 . S
H136 C155 0.929 . S
H137 C156 0.929 . S
H138 C168 0.931 . S
H139 C160 0.929 . S
H140 C169 0.930 . S
H141 C161 0.931 . S
O142 Co118 2.097 . S
O142 C170 1.214 . S
H143 C171 0.929 . S
H144 C172 0.929 . S
H145 C173 0.930 . S
H146 C174 0.929 . S
H147 C176 0.930 . S
H148 C153 0.930 1_545 S
H149 C157 0.930 1_545 S
O150 Co119 2.037 . S
O150 C170 1.234 . S
C151 O125 1.269 . S
C151 O126 1.257 . S
C152 H127 0.930 . S
C152 C155 1.388 . S
C152 C157 1.418 . S
C153 H148 0.930 1_565 S
C153 C156 1.404 . S
C153 C157 1.353 . S
N154 Co119 2.145 . S
N154 C155 1.397 . S
N154 C156 1.334 . S
C155 H136 0.929 . S
C155 C152 1.388 . S
C155 N154 1.397 . S
C156 H137 0.929 . S
C156 C153 1.404 . S
C156 N154 1.334 . S
C157 H149 0.930 1_565 S
C157 C152 1.418 . S
C157 C153 1.353 . S
C158 H128 0.930 . S
C158 N159 1.330 . S
C158 C160 1.446 . S
N159 Co118 2.151 . S
N159 C158 1.330 . S
N159 C163 1.418 . S
C160 H139 0.929 . S
C160 C158 1.446 . S
C160 C161 1.332 . S
C161 H141 0.931 . S
C161 C160 1.332 . S
C161 C162 1.267 . S
C162 H130 0.929 . S
C162 C161 1.267 . S
C162 C163 1.251 . S
C163 H133 0.929 . S
C163 N159 1.418 . S
C163 C162 1.251 . S
C164 H131 0.930 . S
C164 C166 1.406 . S
C164 C169 1.261 . S
C165 H132 0.930 . S
C165 N167 1.325 . S
C165 C168 1.357 . S
C166 H134 0.928 . S
C166 C164 1.406 . S
C166 N167 1.261 . S
N167 Co118 2.214 . S
N167 C165 1.325 . S
N167 C166 1.261 . S
C168 H138 0.931 . S
C168 C165 1.357 . S
C168 C169 1.312 . S
C169 H140 0.930 . S
C169 C164 1.261 . S
C169 C168 1.312 . S
C170 O142 1.214 . S
C170 O150 1.234 . S
C171 H143 0.929 . S
C171 C174 1.391 . S
C171 C176 1.391 . S
C172 H144 0.929 . S
C172 C173 1.390 . S
C172 N175 1.391 . S
C173 H145 0.930 . S
C173 C172 1.390 . S
C173 C174 1.392 . S
C174 H146 0.929 . S
C174 C171 1.391 . S
C174 C173 1.392 . S
N175 Co119 2.257 . S
N175 C172 1.391 . S
N175 C176 1.388 . S
C176 H147 0.930 . S
C176 C171 1.391 . S
C176 N175 1.388 . S
Co177 O179 2.143 . S
Co177 O185 2.074 . S
Co177 O188 2.093 . S
Co177 O201 2.097 . S
Co177 N218 2.151 . S
Co177 N226 2.214 . S
Co178 O179 2.160 . S
Co178 O184 2.058 . S
Co178 O194 2.057 . S
Co178 O209 2.037 . S
Co178 N213 2.145 . S
Co178 N234 2.257 . S
O179 Co177 2.143 . S
O179 Co178 2.160 . S
C180 O181 1.278 . S
C180 O188 1.224 . S
O181 C180 1.278 . S
C182 O183 1.245 . S
C182 O194 1.232 . S
O183 C182 1.245 . S
O184 Co178 2.058 . S
O184 C210 1.269 . S
O185 Co177 2.074 . S
O185 C210 1.257 . S
H186 C211 0.930 . S
H187 C217 0.930 . S
O188 Co177 2.093 . S
O188 C180 1.224 . S
H189 C221 0.929 . S
H190 C223 0.930 . S
H191 C224 0.930 . S
H192 C222 0.929 . S
H193 C225 0.928 . S
O194 Co178 2.057 . S
O194 C182 1.232 . S
H195 C214 0.929 . S
H196 C215 0.929 . S
H197 C227 0.931 . S
H198 C219 0.929 . S
H199 C228 0.930 . S
H200 C220 0.931 . S
O201 Co177 2.097 . S
O201 C229 1.214 . S
H202 C230 0.929 . S
H203 C231 0.929 . S
H204 C232 0.930 . S
H205 C233 0.929 . S
H206 C235 0.930 . S
H207 C212 0.930 1_565 S
H208 C216 0.930 1_565 S
O209 Co178 2.037 . S
O209 C229 1.234 . S
C210 O184 1.269 . S
C210 O185 1.257 . S
C211 H186 0.930 . S
C211 C214 1.388 . S
C211 C216 1.418 . S
C212 H207 0.930 1_545 S
C212 C215 1.404 . S
C212 C216 1.353 . S
N213 Co178 2.145 . S
N213 C214 1.397 . S
N213 C215 1.334 . S
C214 H195 0.929 . S
C214 C211 1.388 . S
C214 N213 1.397 . S
C215 H196 0.929 . S
C215 C212 1.404 . S
C215 N213 1.334 . S
C216 H208 0.930 1_545 S
C216 C211 1.418 . S
C216 C212 1.353 . S
C217 H187 0.930 . S
C217 N218 1.330 . S
C217 C219 1.446 . S
N218 Co177 2.151 . S
N218 C217 1.330 . S
N218 C222 1.418 . S
C219 H198 0.929 . S
C219 C217 1.446 . S
C219 C220 1.332 . S
C220 H200 0.931 . S
C220 C219 1.332 . S
C220 C221 1.267 . S
C221 H189 0.929 . S
C221 C220 1.267 . S
C221 C222 1.251 . S
C222 H192 0.929 . S
C222 N218 1.418 . S
C222 C221 1.251 . S
C223 H190 0.930 . S
C223 C225 1.406 . S
C223 C228 1.261 . S
C224 H191 0.930 . S
C224 N226 1.325 . S
C224 C227 1.357 . S
C225 H193 0.928 . S
C225 C223 1.406 . S
C225 N226 1.261 . S
N226 Co177 2.214 . S
N226 C224 1.325 . S
N226 C225 1.261 . S
C227 H197 0.931 . S
C227 C224 1.357 . S
C227 C228 1.312 . S
C228 H199 0.930 . S
C228 C223 1.261 . S
C228 C227 1.312 . S
C229 O201 1.214 . S
C229 O209 1.234 . S
C230 H202 0.929 . S
C230 C233 1.391 . S
C230 C235 1.391 . S
C231 H203 0.929 . S
C231 C232 1.390 . S
C231 N234 1.391 . S
C232 H204 0.930 . S
C232 C231 1.390 . S
C232 C233 1.392 . S
C233 H205 0.929 . S
C233 C230 1.391 . S
C233 C232 1.392 . S
N234 Co178 2.257 . S
N234 C231 1.391 . S
N234 C235 1.388 . S
C235 H206 0.930 . S
C235 C230 1.391 . S
C235 N234 1.388 . S
Co236 O238 2.143 . S
Co236 O244 2.074 1_554 S
Co236 O247 2.093 . S
Co236 O260 2.097 . S
Co236 N277 2.151 . S
Co236 N285 2.214 1_565 S
Co237 O238 2.160 . S
Co237 O243 2.058 1_554 S
Co237 O253 2.057 . S
Co237 O268 2.037 . S
Co237 N272 2.145 1_554 S
Co237 N293 2.257 . S
O238 Co236 2.143 . S
O238 Co237 2.160 . S
C239 O240 1.278 . S
C239 O247 1.224 . S
O240 C239 1.278 . S
C241 O242 1.245 . S
C241 O253 1.232 . S
O242 C241 1.245 . S
O243 Co237 2.058 1_556 S
O243 C269 1.269 . S
O244 Co236 2.074 1_556 S
O244 C269 1.257 . S
H245 C270 0.930 . S
H246 C276 0.930 . S
O247 Co236 2.093 . S
O247 C239 1.224 . S
H248 C280 0.929 1_556 S
H249 C282 0.930 . S
H250 C283 0.923 1_565 S
H251 C281 0.914 1_556 S
H252 C284 0.928 . S
O253 Co237 2.057 . S
O253 C241 1.232 . S
H254 C273 0.929 . S
H255 C274 0.929 . S
H256 C286 0.931 1_556 S
H257 C278 0.929 . S
H258 C287 0.930 . S
H259 C279 0.931 . S
O260 Co236 2.097 . S
O260 C288 1.214 . S
H261 C289 0.929 . S
H262 C290 0.929 . S
H263 C291 0.930 . S
H264 C292 0.929 . S
H265 C294 0.930 . S
H266 C271 0.930 . S
H267 C275 0.930 . S
O268 Co237 2.037 . S
O268 C288 1.234 . S
C269 O243 1.269 . S
C269 O244 1.257 . S
C270 H245 0.930 . S
C270 C273 1.388 . S
C270 C275 1.418 . S
C271 H266 0.930 . S
C271 C274 1.404 . S
C271 C275 1.353 . S
N272 Co237 2.145 1_556 S
N272 C273 1.397 . S
N272 C274 1.334 . S
C273 H254 0.929 . S
C273 C270 1.388 . S
C273 N272 1.397 . S
C274 H255 0.929 . S
C274 C271 1.404 . S
C274 N272 1.334 . S
C275 H267 0.930 . S
C275 C270 1.418 . S
C275 C271 1.353 . S
C276 H246 0.930 . S
C276 N277 1.330 . S
C276 C278 1.446 1_565 S
N277 Co236 2.151 . S
N277 C276 1.330 . S
N277 C281 1.418 1_565 S
C278 H257 0.929 . S
C278 C276 1.446 1_545 S
C278 C279 1.332 . S
C279 H259 0.931 . S
C279 C278 1.332 . S
C279 C280 1.267 . S
C280 H248 0.929 1_554 S
C280 C279 1.267 . S
C280 C281 1.251 . S
C281 H251 0.914 1_554 S
C281 N277 1.418 1_545 S
C281 C280 1.251 . S
C282 H249 0.930 . S
C282 C284 1.406 . S
C282 C287 1.261 . S
C283 H250 0.923 1_545 S
C283 N285 1.326 . S
C283 C286 1.363 . S
C284 H252 0.928 . S
C284 C282 1.406 . S
C284 N285 1.261 . S
N285 Co236 2.214 1_545 S
N285 C283 1.326 . S
N285 C284 1.261 . S
C286 H256 0.931 1_554 S
C286 C283 1.363 . S
C286 C287 1.312 . S
C287 H258 0.930 . S
C287 C282 1.261 . S
C287 C286 1.312 . S
C288 O260 1.214 . S
C288 O268 1.234 . S
C289 H261 0.929 . S
C289 C292 1.391 . S
C289 C294 1.391 . S
C290 H262 0.929 . S
C290 C291 1.390 . S
C290 N293 1.391 . S
C291 H263 0.930 . S
C291 C290 1.390 . S
C291 C292 1.392 . S
C292 H264 0.929 . S
C292 C289 1.391 . S
C292 C291 1.392 . S
N293 Co237 2.257 . S
N293 C290 1.391 . S
N293 C294 1.388 . S
C294 H265 0.930 . S
C294 C289 1.391 . S
C294 N293 1.388 . S
Co295 O297 2.143 . S
Co295 O303 2.074 1_554 S
Co295 O306 2.093 . S
Co295 O319 2.097 . S
Co295 N336 2.151 . S
Co295 N344 2.214 1_545 S
Co296 O297 2.160 . S
Co296 O302 2.058 1_554 S
Co296 O312 2.057 . S
Co296 O327 2.037 . S
Co296 N331 2.145 1_554 S
Co296 N352 2.257 . S
O297 Co295 2.143 . S
O297 Co296 2.160 . S
C298 O299 1.278 . S
C298 O306 1.224 . S
O299 C298 1.278 . S
C300 O301 1.245 . S
C300 O312 1.232 . S
O301 C300 1.245 . S
O302 Co296 2.058 1_556 S
O302 C328 1.269 . S
O303 Co295 2.074 1_556 S
O303 C328 1.257 . S
H304 C329 0.930 . S
H305 C335 0.930 . S
O306 Co295 2.093 . S
O306 C298 1.224 . S
H307 C339 0.929 1_556 S
H308 C341 0.930 . S
H309 C342 0.923 1_545 S
H310 C340 0.914 1_556 S
H311 C343 0.928 . S
O312 Co296 2.057 . S
O312 C300 1.232 . S
H313 C332 0.929 . S
H314 C333 0.929 . S
H315 C345 0.931 1_556 S
H316 C337 0.929 . S
H317 C346 0.930 . S
H318 C338 0.931 . S
O319 Co295 2.097 . S
O319 C347 1.214 . S
H320 C348 0.929 . S
H321 C349 0.929 . S
H322 C350 0.930 . S
H323 C351 0.929 . S
H324 C353 0.930 . S
H325 C330 0.930 . S
H326 C334 0.930 . S
O327 Co296 2.037 . S
O327 C347 1.234 . S
C328 O302 1.269 . S
C328 O303 1.257 . S
C329 H304 0.930 . S
C329 C332 1.388 . S
C329 C334 1.418 . S
C330 H325 0.930 . S
C330 C333 1.404 . S
C330 C334 1.353 . S
N331 Co296 2.145 1_556 S
N331 C332 1.397 . S
N331 C333 1.334 . S
C332 H313 0.929 . S
C332 C329 1.388 . S
C332 N331 1.397 . S
C333 H314 0.929 . S
C333 C330 1.404 . S
C333 N331 1.334 . S
C334 H326 0.930 . S
C334 C329 1.418 . S
C334 C330 1.353 . S
C335 H305 0.930 . S
C335 N336 1.330 . S
C335 C337 1.446 1_545 S
N336 Co295 2.151 . S
N336 C335 1.330 . S
N336 C340 1.418 1_545 S
C337 H316 0.929 . S
C337 C335 1.446 1_565 S
C337 C338 1.332 . S
C338 H318 0.931 . S
C338 C337 1.332 . S
C338 C339 1.267 . S
C339 H307 0.929 1_554 S
C339 C338 1.267 . S
C339 C340 1.251 . S
C340 H310 0.914 1_554 S
C340 N336 1.418 1_565 S
C340 C339 1.251 . S
C341 H308 0.930 . S
C341 C343 1.406 . S
C341 C346 1.261 . S
C342 H309 0.923 1_565 S
C342 N344 1.326 . S
C342 C345 1.363 . S
C343 H311 0.928 . S
C343 C341 1.406 . S
C343 N344 1.261 . S
N344 Co295 2.214 1_565 S
N344 C342 1.326 . S
N344 C343 1.261 . S
C345 H315 0.931 1_554 S
C345 C342 1.363 . S
C345 C346 1.312 . S
C346 H317 0.930 . S
C346 C341 1.261 . S
C346 C345 1.312 . S
C347 O319 1.214 . S
C347 O327 1.234 . S
C348 H320 0.929 . S
C348 C351 1.391 . S
C348 C353 1.391 . S
C349 H321 0.929 . S
C349 C350 1.390 . S
C349 N352 1.391 . S
C350 H322 0.930 . S
C350 C349 1.390 . S
C350 C351 1.392 . S
C351 H323 0.929 . S
C351 C348 1.391 . S
C351 C350 1.392 . S
N352 Co296 2.257 . S
N352 C349 1.391 . S
N352 C353 1.388 . S
C353 H324 0.930 . S
C353 C348 1.391 . S
C353 N352 1.388 . S
Co354 O356 2.143 . S
Co354 O362 2.074 . S
Co354 O365 2.093 . S
Co354 O378 2.097 . S
Co354 N395 2.151 . S
Co354 N403 2.214 1_545 S
Co355 O356 2.160 . S
Co355 O361 2.058 . S
Co355 O371 2.057 . S
Co355 O386 2.037 . S
Co355 N390 2.145 . S
Co355 N411 2.257 . S
O356 Co354 2.143 . S
O356 Co355 2.160 . S
C357 O358 1.278 . S
C357 O365 1.224 . S
O358 C357 1.278 . S
C359 O360 1.245 . S
C359 O371 1.232 . S
O360 C359 1.245 . S
O361 Co355 2.058 . S
O361 C387 1.269 . S
O362 Co354 2.074 . S
O362 C387 1.257 . S
H363 C388 0.930 . S
H364 C394 0.930 . S
O365 Co354 2.093 . S
O365 C357 1.224 . S
H366 C398 0.929 . S
H367 C400 0.930 . S
H368 C401 0.923 1_545 S
H369 C399 0.929 . S
H370 C402 0.928 . S
O371 Co355 2.057 . S
O371 C359 1.232 . S
H372 C391 0.929 . S
H373 C392 0.929 . S
H374 C404 0.931 . S
H375 C396 0.929 . S
H376 C405 0.930 . S
H377 C397 0.931 . S
O378 Co354 2.097 . S
O378 C406 1.214 . S
H379 C407 0.929 . S
H380 C408 0.929 . S
H381 C409 0.930 . S
H382 C410 0.929 . S
H383 C412 0.930 . S
H384 C389 0.930 . S
H385 C393 0.930 . S
O386 Co355 2.037 . S
O386 C406 1.234 . S
C387 O361 1.269 . S
C387 O362 1.257 . S
C388 H363 0.930 . S
C388 C391 1.388 . S
C388 C393 1.418 . S
C389 H384 0.930 . S
C389 C392 1.404 . S
C389 C393 1.353 . S
N390 Co355 2.145 . S
N390 C391 1.397 . S
N390 C392 1.334 . S
C391 H372 0.929 . S
C391 C388 1.388 . S
C391 N390 1.397 . S
C392 H373 0.929 . S
C392 C389 1.404 . S
C392 N390 1.334 . S
C393 H385 0.930 . S
C393 C388 1.418 . S
C393 C389 1.353 . S
C394 H364 0.930 . S
C394 N395 1.330 . S
C394 C396 1.446 1_545 S
N395 Co354 2.151 . S
N395 C394 1.330 . S
N395 C399 1.418 1_545 S
C396 H375 0.929 . S
C396 C394 1.446 1_565 S
C396 C397 1.332 . S
C397 H377 0.931 . S
C397 C396 1.332 . S
C397 C398 1.267 . S
C398 H366 0.929 . S
C398 C397 1.267 . S
C398 C399 1.251 . S
C399 H369 0.929 . S
C399 N395 1.418 1_565 S
C399 C398 1.251 . S
C400 H367 0.930 . S
C400 C402 1.406 . S
C400 C405 1.261 . S
C401 H368 0.923 1_565 S
C401 N403 1.326 . S
C401 C404 1.363 . S
C402 H370 0.928 . S
C402 C400 1.406 . S
C402 N403 1.261 . S
N403 Co354 2.214 1_565 S
N403 C401 1.326 . S
N403 C402 1.261 . S
C404 H374 0.931 . S
C404 C401 1.363 . S
C404 C405 1.312 . S
C405 H376 0.930 . S
C405 C400 1.261 . S
C405 C404 1.312 . S
C406 O378 1.214 . S
C406 O386 1.234 . S
C407 H379 0.929 . S
C407 C410 1.391 . S
C407 C412 1.391 . S
C408 H380 0.929 . S
C408 C409 1.390 . S
C408 N411 1.391 . S
C409 H381 0.930 . S
C409 C408 1.390 . S
C409 C410 1.392 . S
C410 H382 0.929 . S
C410 C407 1.391 . S
C410 C409 1.392 . S
N411 Co355 2.257 . S
N411 C408 1.391 . S
N411 C412 1.388 . S
C412 H383 0.930 . S
C412 C407 1.391 . S
C412 N411 1.388 . S
Co413 O415 2.143 . S
Co413 O421 2.074 . S
Co413 O424 2.093 . S
Co413 O437 2.097 . S
Co413 N454 2.151 . S
Co413 N462 2.214 1_565 S
Co414 O415 2.160 . S
Co414 O420 2.058 . S
Co414 O430 2.057 . S
Co414 O445 2.037 . S
Co414 N449 2.145 . S
Co414 N470 2.257 . S
O415 Co413 2.143 . S
O415 Co414 2.160 . S
C416 O417 1.278 . S
C416 O424 1.224 . S
O417 C416 1.278 . S
C418 O419 1.245 . S
C418 O430 1.232 . S
O419 C418 1.245 . S
O420 Co414 2.058 . S
O420 C446 1.269 . S
O421 Co413 2.074 . S
O421 C446 1.257 . S
H422 C447 0.930 . S
H423 C453 0.930 . S
O424 Co413 2.093 . S
O424 C416 1.224 . S
H425 C457 0.929 . S
H426 C459 0.930 . S
H427 C460 0.923 1_565 S
H428 C458 0.929 . S
H429 C461 0.928 . S
O430 Co414 2.057 . S
O430 C418 1.232 . S
H431 C450 0.929 . S
H432 C451 0.929 . S
H433 C463 0.931 . S
H434 C455 0.929 . S
H435 C464 0.930 . S
H436 C456 0.931 . S
O437 Co413 2.097 . S
O437 C465 1.214 . S
H438 C466 0.929 . S
H439 C467 0.929 . S
H440 C468 0.930 . S
H441 C469 0.929 . S
H442 C471 0.930 . S
H443 C448 0.930 . S
H444 C452 0.930 . S
O445 Co414 2.037 . S
O445 C465 1.234 . S
C446 O420 1.269 . S
C446 O421 1.257 . S
C447 H422 0.930 . S
C447 C450 1.388 . S
C447 C452 1.418 . S
C448 H443 0.930 . S
C448 C451 1.404 . S
C448 C452 1.353 . S
N449 Co414 2.145 . S
N449 C450 1.397 . S
N449 C451 1.334 . S
C450 H431 0.929 . S
C450 C447 1.388 . S
C450 N449 1.397 . S
C451 H432 0.929 . S
C451 C448 1.404 . S
C451 N449 1.334 . S
C452 H444 0.930 . S
C452 C447 1.418 . S
C452 C448 1.353 . S
C453 H423 0.930 . S
C453 N454 1.330 . S
C453 C455 1.446 1_565 S
N454 Co413 2.151 . S
N454 C453 1.330 . S
N454 C458 1.418 1_565 S
C455 H434 0.929 . S
C455 C453 1.446 1_545 S
C455 C456 1.332 . S
C456 H436 0.931 . S
C456 C455 1.332 . S
C456 C457 1.267 . S
C457 H425 0.929 . S
C457 C456 1.267 . S
C457 C458 1.251 . S
C458 H428 0.929 . S
C458 N454 1.418 1_545 S
C458 C457 1.251 . S
C459 H426 0.930 . S
C459 C461 1.406 . S
C459 C464 1.261 . S
C460 H427 0.923 1_545 S
C460 N462 1.326 . S
C460 C463 1.363 . S
C461 H429 0.928 . S
C461 C459 1.406 . S
C461 N462 1.261 . S
N462 Co413 2.214 1_545 S
N462 C460 1.326 . S
N462 C461 1.261 . S
C463 H433 0.931 . S
C463 C460 1.363 . S
C463 C464 1.312 . S
C464 H435 0.930 . S
C464 C459 1.261 . S
C464 C463 1.312 . S
C465 O437 1.214 . S
C465 O445 1.234 . S
C466 H438 0.929 . S
C466 C469 1.391 . S
C466 C471 1.391 . S
C467 H439 0.929 . S
C467 C468 1.390 . S
C467 N470 1.391 . S
C468 H440 0.930 . S
C468 C467 1.390 . S
C468 C469 1.392 . S
C469 H441 0.929 . S
C469 C466 1.391 . S
C469 C468 1.392 . S
N470 Co414 2.257 . S
N470 C467 1.391 . S
N470 C471 1.388 . S
C471 H442 0.930 . S
C471 C466 1.391 . S
C471 N470 1.388 . S
H472 C480 0.929 . S
H473 C482 0.930 . S
H474 C484 0.930 . S
H475 C487 0.929 . S
H476 C490 0.930 . S
H477 C492 0.960 . S
H478 C492 0.960 . S
H479 C492 0.960 . S
C480 H472 0.929 . S
C480 C481 1.377 . S
C480 C482 1.384 . S
C481 C480 1.377 . S
C481 C487 1.390 1_554 S
C482 H473 0.930 . S
C482 C480 1.384 . S
C482 C483 1.372 . S
C483 C482 1.372 . S
C483 C484 1.400 1_554 S
C483 C488 1.490 . S
C484 H474 0.930 . S
C484 C483 1.400 1_556 S
C484 C487 1.386 . S
H485 C501 0.930 . S
H486 C502 0.931 . S
C487 H475 0.929 . S
C487 C481 1.390 1_556 S
C487 C484 1.386 . S
C488 C483 1.490 . S
C488 C490 1.395 . S
C488 C491 1.403 . S
H489 C495 0.930 . S
C490 H476 0.930 . S
C490 C488 1.395 . S
C490 C493 1.403 . S
C491 C488 1.403 . S
C491 C492 1.524 . S
C491 C495 1.400 . S
C492 H477 0.960 . S
C492 H478 0.960 . S
C492 H479 0.960 . S
C492 C491 1.524 . S
C493 C490 1.403 . S
C493 C494 1.392 . S
C493 C497 1.495 . S
C494 C493 1.392 . S
C494 C495 1.385 . S
C494 C496 1.478 . S
C495 H489 0.930 . S
C495 C491 1.400 . S
C495 C494 1.385 . S
C496 C494 1.478 . S
C496 C498 1.381 . S
C496 C502 1.383 1_554 S
C497 C493 1.495 . S
C497 H503 0.959 . S
C497 H504 0.961 . S
C497 H505 0.960 . S
C498 C496 1.381 . S
C498 C499 1.394 . S
C498 H506 0.930 . S
C499 C498 1.394 . S
C499 C500 1.383 . S
C499 H507 0.929 . S
C500 C499 1.383 . S
C500 C501 1.377 1_554 S
C501 H485 0.930 . S
C501 C500 1.377 1_556 S
C501 C502 1.379 . S
C502 H486 0.931 . S
C502 C496 1.383 1_556 S
C502 C501 1.379 . S
H503 C497 0.959 . S
H504 C497 0.961 . S
H505 C497 0.960 . S
H506 C498 0.930 . S
H507 C499 0.929 . S
H508 C516 0.929 . S
H509 C518 0.930 . S
H510 C520 0.918 1_556 S
H511 C523 0.920 1_556 S
H512 C526 0.930 . S
H513 C528 0.960 . S
H514 C528 0.960 . S
H515 C528 0.960 . S
C516 H508 0.929 . S
C516 C517 1.377 . S
C516 C518 1.384 . S
C517 C516 1.377 . S
C517 C523 1.390 . S
C518 H509 0.930 . S
C518 C516 1.384 . S
C518 C519 1.372 . S
C519 C518 1.372 . S
C519 C520 1.400 . S
C519 C524 1.490 . S
C520 H510 0.918 1_554 S
C520 C519 1.400 . S
C520 C523 1.386 . S
H521 C537 0.930 . S
H522 C538 0.931 . S
C523 H511 0.920 1_554 S
C523 C517 1.390 . S
C523 C520 1.386 . S
C524 C519 1.490 . S
C524 C526 1.395 . S
C524 C527 1.403 1_554 S
H525 C531 0.945 . S
C526 H512 0.930 . S
C526 C524 1.395 . S
C526 C529 1.403 . S
C527 C524 1.403 1_556 S
C527 C528 1.524 . S
C527 C531 1.402 . S
C528 H513 0.960 . S
C528 H514 0.960 . S
C528 H515 0.960 . S
C528 C527 1.524 . S
C529 C526 1.403 . S
C529 C530 1.392 . S
C529 C533 1.495 . S
C530 C529 1.392 . S
C530 C531 1.369 1_554 S
C530 C532 1.478 . S
C531 H525 0.945 . S
C531 C527 1.402 . S
C531 C530 1.369 1_556 S
C532 C530 1.478 . S
C532 C534 1.381 . S
C532 C538 1.383 . S
C533 C529 1.495 . S
C533 H539 0.959 . S
C533 H540 0.961 . S
C533 H541 0.960 . S
C534 C532 1.381 . S
C534 C535 1.394 . S
C534 H542 0.930 . S
C535 C534 1.394 . S
C535 C536 1.383 . S
C535 H543 0.929 . S
C536 C535 1.383 . S
C536 C537 1.377 . S
C537 H521 0.930 . S
C537 C536 1.377 . S
C537 C538 1.379 . S
C538 H522 0.931 . S
C538 C532 1.383 . S
C538 C537 1.379 . S
H539 C533 0.959 . S
H540 C533 0.961 . S
H541 C533 0.960 . S
H542 C534 0.930 . S
H543 C535 0.929 . S
H544 C552 0.929 . S
H545 C554 0.930 . S
H546 C556 0.930 . S
H547 C559 0.929 . S
H548 C562 0.930 . S
H549 C564 0.960 . S
H550 C564 0.960 . S
H551 C564 0.960 . S
C552 H544 0.929 . S
C552 C553 1.377 . S
C552 C554 1.384 . S
C553 C552 1.377 . S
C553 C559 1.390 . S
C554 H545 0.930 . S
C554 C552 1.384 . S
C554 C555 1.372 . S
C555 C554 1.372 . S
C555 C556 1.400 . S
C555 C560 1.490 . S
C556 H546 0.930 . S
C556 C555 1.400 . S
C556 C559 1.386 . S
H557 C573 0.930 . S
H558 C574 0.931 . S
C559 H547 0.929 . S
C559 C553 1.390 . S
C559 C556 1.386 . S
C560 C555 1.490 . S
C560 C562 1.395 . S
C560 C563 1.403 . S
H561 C567 0.930 . S
C562 H548 0.930 . S
C562 C560 1.395 . S
C562 C565 1.403 . S
C563 C560 1.403 . S
C563 C564 1.524 . S
C563 C567 1.400 . S
C564 H549 0.960 . S
C564 H550 0.960 . S
C564 H551 0.960 . S
C564 C563 1.524 . S
C565 C562 1.403 . S
C565 C566 1.392 . S
C565 C569 1.495 . S
C566 C565 1.392 . S
C566 C567 1.385 . S
C566 C568 1.478 . S
C567 H561 0.930 . S
C567 C563 1.400 . S
C567 C566 1.385 . S
C568 C566 1.478 . S
C568 C570 1.381 . S
C568 C574 1.383 . S
C569 C565 1.495 . S
C569 H575 0.959 . S
C569 H576 0.961 . S
C569 H577 0.960 . S
C570 C568 1.381 . S
C570 C571 1.394 . S
C570 H578 0.930 . S
C571 C570 1.394 . S
C571 C572 1.383 . S
C571 H579 0.929 . S
C572 C571 1.383 . S
C572 C573 1.377 . S
C573 H557 0.930 . S
C573 C572 1.377 . S
C573 C574 1.379 . S
C574 H558 0.931 . S
C574 C568 1.383 . S
C574 C573 1.379 . S
H575 C569 0.959 . S
H576 C569 0.961 . S
H577 C569 0.960 . S
H578 C570 0.930 . S
H579 C571 0.929 . S
H580 C588 0.929 . S
H581 C590 0.930 . S
H582 C592 0.930 . S
H583 C595 0.929 . S
H584 C598 0.930 . S
H585 C600 0.960 . S
H586 C600 0.960 . S
H587 C600 0.960 . S
C588 H580 0.929 . S
C588 C589 1.377 . S
C588 C590 1.384 . S
C589 C588 1.377 . S
C589 C595 1.390 . S
C590 H581 0.930 . S
C590 C588 1.384 . S
C590 C591 1.372 . S
C591 C590 1.372 . S
C591 C592 1.400 . S
C591 C596 1.490 . S
C592 H582 0.930 . S
C592 C591 1.400 . S
C592 C595 1.386 . S
H593 C609 0.930 . S
H594 C610 0.931 . S
C595 H583 0.929 . S
C595 C589 1.390 . S
C595 C592 1.386 . S
C596 C591 1.490 . S
C596 C598 1.395 . S
C596 C599 1.403 . S
H597 C603 0.930 . S
C598 H584 0.930 . S
C598 C596 1.395 . S
C598 C601 1.403 . S
C599 C596 1.403 . S
C599 C600 1.524 . S
C599 C603 1.400 . S
C600 H585 0.960 . S
C600 H586 0.960 . S
C600 H587 0.960 . S
C600 C599 1.524 . S
C601 C598 1.403 . S
C601 C602 1.392 . S
C601 C605 1.495 . S
C602 C601 1.392 . S
C602 C603 1.385 . S
C602 C604 1.478 . S
C603 H597 0.930 . S
C603 C599 1.400 . S
C603 C602 1.385 . S
C604 C602 1.478 . S
C604 C606 1.381 . S
C604 C610 1.383 . S
C605 C601 1.495 . S
C605 H611 0.959 . S
C605 H612 0.961 . S
C605 H613 0.960 . S
C606 C604 1.381 . S
C606 C607 1.394 . S
C606 H614 0.930 . S
C607 C606 1.394 . S
C607 C608 1.383 . S
C607 H615 0.929 . S
C608 C607 1.383 . S
C608 C609 1.377 . S
C609 H593 0.930 . S
C609 C608 1.377 . S
C609 C610 1.379 . S
C610 H594 0.931 . S
C610 C604 1.383 . S
C610 C609 1.379 . S
H611 C605 0.959 . S
H612 C605 0.961 . S
H613 C605 0.960 . S
H614 C606 0.930 . S
H615 C607 0.929 . S
H616 C624 0.929 . S
H617 C626 0.930 . S
H618 C628 0.930 . S
H619 C631 0.929 . S
H620 C634 0.930 . S
H621 C636 0.960 . S
H622 C636 0.960 . S
H623 C636 0.960 . S
C624 H616 0.929 . S
C624 C625 1.377 . S
C624 C626 1.384 . S
C625 C624 1.377 . S
C625 C631 1.390 . S
C626 H617 0.930 . S
C626 C624 1.384 . S
C626 C627 1.372 . S
C627 C626 1.372 . S
C627 C628 1.400 . S
C627 C632 1.490 . S
C628 H618 0.930 . S
C628 C627 1.400 . S
C628 C631 1.386 . S
H629 C645 0.930 . S
H630 C646 0.931 . S
C631 H619 0.929 . S
C631 C625 1.390 . S
C631 C628 1.386 . S
C632 C627 1.490 . S
C632 C634 1.395 . S
C632 C635 1.403 . S
H633 C639 0.930 . S
C634 H620 0.930 . S
C634 C632 1.395 . S
C634 C637 1.403 . S
C635 C632 1.403 . S
C635 C636 1.524 . S
C635 C639 1.400 . S
C636 H621 0.960 . S
C636 H622 0.960 . S
C636 H623 0.960 . S
C636 C635 1.524 . S
C637 C634 1.403 . S
C637 C638 1.392 . S
C637 C641 1.495 . S
C638 C637 1.392 . S
C638 C639 1.385 . S
C638 C640 1.478 . S
C639 H633 0.930 . S
C639 C635 1.400 . S
C639 C638 1.385 . S
C640 C638 1.478 . S
C640 C642 1.381 . S
C640 C646 1.383 . S
C641 C637 1.495 . S
C641 H647 0.959 . S
C641 H648 0.961 . S
C641 H649 0.960 . S
C642 C640 1.381 . S
C642 C643 1.394 . S
C642 H650 0.930 . S
C643 C642 1.394 . S
C643 C644 1.383 . S
C643 H651 0.929 . S
C644 C643 1.383 . S
C644 C645 1.377 . S
C645 H629 0.930 . S
C645 C644 1.377 . S
C645 C646 1.379 . S
C646 H630 0.931 . S
C646 C640 1.383 . S
C646 C645 1.379 . S
H647 C641 0.959 . S
H648 C641 0.961 . S
H649 C641 0.960 . S
H650 C642 0.930 . S
H651 C643 0.929 . S
H652 C660 0.929 . S
H653 C662 0.930 . S
H654 C664 0.930 . S
H655 C667 0.929 . S
H656 C670 0.930 . S
H657 C672 0.960 . S
H658 C672 0.960 . S
H659 C672 0.960 . S
C660 H652 0.929 . S
C660 C661 1.377 . S
C660 C662 1.384 . S
C661 C660 1.377 . S
C661 C667 1.390 . S
C662 H653 0.930 . S
C662 C660 1.384 . S
C662 C663 1.372 . S
C663 C662 1.372 . S
C663 C664 1.400 . S
C663 C668 1.490 . S
C664 H654 0.930 . S
C664 C663 1.400 . S
C664 C667 1.386 . S
H665 C681 0.930 . S
H666 C682 0.931 . S
C667 H655 0.929 . S
C667 C661 1.390 . S
C667 C664 1.386 . S
C668 C663 1.490 . S
C668 C670 1.395 . S
C668 C671 1.403 . S
H669 C675 0.930 . S
C670 H656 0.930 . S
C670 C668 1.395 . S
C670 C673 1.403 . S
C671 C668 1.403 . S
C671 C672 1.524 . S
C671 C675 1.400 . S
C672 H657 0.960 . S
C672 H658 0.960 . S
C672 H659 0.960 . S
C672 C671 1.524 . S
C673 C670 1.403 . S
C673 C674 1.392 . S
C673 C677 1.495 . S
C674 C673 1.392 . S
C674 C675 1.385 . S
C674 C676 1.478 . S
C675 H669 0.930 . S
C675 C671 1.400 . S
C675 C674 1.385 . S
C676 C674 1.478 . S
C676 C678 1.381 . S
C676 C682 1.383 . S
C677 C673 1.495 . S
C677 H683 0.959 . S
C677 H684 0.961 . S
C677 H685 0.960 . S
C678 C676 1.381 . S
C678 C679 1.394 . S
C678 H686 0.930 . S
C679 C678 1.394 . S
C679 C680 1.383 . S
C679 H687 0.929 . S
C680 C679 1.383 . S
C680 C681 1.377 . S
C681 H665 0.930 . S
C681 C680 1.377 . S
C681 C682 1.379 . S
C682 H666 0.931 . S
C682 C676 1.383 . S
C682 C681 1.379 . S
H683 C677 0.959 . S
H684 C677 0.961 . S
H685 C677 0.960 . S
H686 C678 0.930 . S
H687 C679 0.929 . S
H688 C696 0.929 . S
H689 C698 0.930 . S
H690 C700 0.930 . S
H691 C703 0.929 . S
H692 C706 0.930 . S
H693 C708 0.960 . S
H694 C708 0.960 . S
H695 C708 0.960 . S
C696 H688 0.929 . S
C696 C697 1.377 . S
C696 C698 1.384 . S
C697 C696 1.377 . S
C697 C703 1.390 . S
C698 H689 0.930 . S
C698 C696 1.384 . S
C698 C699 1.372 . S
C699 C698 1.372 . S
C699 C700 1.400 . S
C699 C704 1.490 . S
C700 H690 0.930 . S
C700 C699 1.400 . S
C700 C703 1.386 . S
H701 C717 0.930 . S
H702 C718 0.931 . S
C703 H691 0.929 . S
C703 C697 1.390 . S
C703 C700 1.386 . S
C704 C699 1.490 . S
C704 C706 1.395 . S
C704 C707 1.403 . S
H705 C711 0.930 . S
C706 H692 0.930 . S
C706 C704 1.395 . S
C706 C709 1.403 . S
C707 C704 1.403 . S
C707 C708 1.524 . S
C707 C711 1.400 . S
C708 H693 0.960 . S
C708 H694 0.960 . S
C708 H695 0.960 . S
C708 C707 1.524 . S
C709 C706 1.403 . S
C709 C710 1.392 . S
C709 C713 1.495 . S
C710 C709 1.392 . S
C710 C711 1.385 . S
C710 C712 1.478 . S
C711 H705 0.930 . S
C711 C707 1.400 . S
C711 C710 1.385 . S
C712 C710 1.478 . S
C712 C714 1.381 . S
C712 C718 1.383 . S
C713 C709 1.495 . S
C713 H719 0.959 . S
C713 H720 0.961 . S
C713 H721 0.960 . S
C714 C712 1.381 . S
C714 C715 1.394 . S
C714 H722 0.930 . S
C715 C714 1.394 . S
C715 C716 1.383 . S
C715 H723 0.929 . S
C716 C715 1.383 . S
C716 C717 1.377 . S
C717 H701 0.930 . S
C717 C716 1.377 . S
C717 C718 1.379 . S
C718 H702 0.931 . S
C718 C712 1.383 . S
C718 C717 1.379 . S
H719 C713 0.959 . S
H720 C713 0.961 . S
H721 C713 0.960 . S
H722 C714 0.930 . S
H723 C715 0.929 . S
H724 C732 0.929 . S
H725 C734 0.930 . S
H726 C736 0.930 . S
H727 C739 0.929 . S
H728 C742 0.930 . S
H729 C744 0.960 . S
H730 C744 0.960 . S
H731 C744 0.960 . S
C732 H724 0.929 . S
C732 C733 1.377 . S
C732 C734 1.384 . S
C733 C732 1.377 . S
C733 C739 1.390 . S
C734 H725 0.930 . S
C734 C732 1.384 . S
C734 C735 1.372 . S
C735 C734 1.372 . S
C735 C736 1.400 . S
C735 C740 1.490 . S
C736 H726 0.930 . S
C736 C735 1.400 . S
C736 C739 1.386 . S
H737 C753 0.930 . S
H738 C754 0.931 . S
C739 H727 0.929 . S
C739 C733 1.390 . S
C739 C736 1.386 . S
C740 C735 1.490 . S
C740 C742 1.395 . S
C740 C743 1.403 . S
H741 C747 0.930 . S
C742 H728 0.930 . S
C742 C740 1.395 . S
C742 C745 1.403 . S
C743 C740 1.403 . S
C743 C744 1.524 . S
C743 C747 1.400 . S
C744 H729 0.960 . S
C744 H730 0.960 . S
C744 H731 0.960 . S
C744 C743 1.524 . S
C745 C742 1.403 . S
C745 C746 1.392 . S
C745 C749 1.495 . S
C746 C745 1.392 . S
C746 C747 1.385 . S
C746 C748 1.478 . S
C747 H741 0.930 . S
C747 C743 1.400 . S
C747 C746 1.385 . S
C748 C746 1.478 . S
C748 C750 1.381 . S
C748 C754 1.383 . S
C749 C745 1.495 . S
C749 H755 0.959 . S
C749 H756 0.961 . S
C749 H757 0.960 . S
C750 C748 1.381 . S
C750 C751 1.394 . S
C750 H758 0.930 . S
C751 C750 1.394 . S
C751 C752 1.383 . S
C751 H759 0.929 . S
C752 C751 1.383 . S
C752 C753 1.377 . S
C753 H737 0.930 . S
C753 C752 1.377 . S
C753 C754 1.379 . S
C754 H738 0.931 . S
C754 C748 1.383 . S
C754 C753 1.379 . S
H755 C749 0.959 . S
H756 C749 0.961 . S
H757 C749 0.960 . S
H758 C750 0.930 . S
H759 C751 0.929 . S
H760 C768 0.929 . S
H761 C770 0.930 1_545 S
H762 C772 0.930 . S
H763 C775 0.929 . S
H764 C778 0.930 . S
H765 C780 0.960 . S
H766 C780 0.960 . S
H767 C780 0.960 1_565 S
C768 H760 0.929 . S
C768 C769 1.377 . S
C768 C770 1.384 . S
C769 C768 1.377 . S
C769 C775 1.390 . S
C770 H761 0.930 1_565 S
C770 C768 1.384 . S
C770 C771 1.372 . S
C771 C770 1.372 . S
C771 C772 1.400 . S
C771 C776 1.490 . S
C772 H762 0.930 . S
C772 C771 1.400 . S
C772 C775 1.386 . S
H773 C789 0.930 . S
H774 C790 0.931 1_565 S
C775 H763 0.929 . S
C775 C769 1.390 . S
C775 C772 1.386 . S
C776 C771 1.490 . S
C776 C778 1.395 . S
C776 C779 1.403 1_565 S
H777 C783 0.930 . S
C778 H764 0.930 . S
C778 C776 1.395 . S
C778 C781 1.401 1_565 S
C779 C776 1.403 1_545 S
C779 C780 1.524 . S
C779 C783 1.400 . S
C780 H765 0.960 . S
C780 H766 0.960 . S
C780 H767 0.960 1_545 S
C780 C779 1.524 . S
C781 C778 1.401 1_545 S
C781 C782 1.395 . S
C781 C785 1.495 1_545 S
C782 C781 1.395 . S
C782 C783 1.385 . S
C782 C784 1.478 . S
C783 H777 0.930 . S
C783 C779 1.400 . S
C783 C782 1.385 . S
C784 C782 1.478 . S
C784 C786 1.381 . S
C784 C790 1.383 . S
C785 C781 1.495 1_565 S
C785 H791 0.959 . S
C785 H792 0.961 . S
C785 H793 0.960 1_565 S
C786 C784 1.381 . S
C786 C787 1.394 . S
C786 H794 0.930 . S
C787 C786 1.394 . S
C787 C788 1.383 . S
C787 H795 0.929 . S
C788 C787 1.383 . S
C788 C789 1.377 . S
C789 H773 0.930 . S
C789 C788 1.377 . S
C789 C790 1.379 . S
C790 H774 0.931 1_545 S
C790 C784 1.383 . S
C790 C789 1.379 . S
H791 C785 0.959 . S
H792 C785 0.961 . S
H793 C785 0.960 1_545 S
H794 C786 0.930 . S
H795 C787 0.929 . S
H796 C804 0.929 . S
H797 C806 0.930 1_545 S
H798 C808 0.930 . S
H799 C811 0.929 . S
H800 C814 0.930 . S
H801 C816 0.960 . S
H802 C816 0.960 . S
H803 C816 0.960 . S
C804 H796 0.929 . S
C804 C805 1.377 . S
C804 C806 1.384 . S
C805 C804 1.377 . S
C805 C811 1.390 . S
C806 H797 0.930 1_565 S
C806 C804 1.384 . S
C806 C807 1.372 . S
C807 C806 1.372 . S
C807 C808 1.400 . S
C807 C812 1.490 . S
C808 H798 0.930 . S
C808 C807 1.400 . S
C808 C811 1.386 . S
H809 C825 0.930 . S
H810 C826 0.931 1_565 S
C811 H799 0.929 . S
C811 C805 1.390 . S
C811 C808 1.386 . S
C812 C807 1.490 . S
C812 C814 1.395 1_565 S
C812 C815 1.403 . S
H813 C819 0.930 . S
C814 H800 0.930 . S
C814 C812 1.395 1_545 S
C814 C817 1.403 . S
C815 C812 1.403 . S
C815 C816 1.524 . S
C815 C819 1.400 . S
C816 H801 0.960 . S
C816 H802 0.960 . S
C816 H803 0.960 . S
C816 C815 1.524 . S
C817 C814 1.403 . S
C817 C818 1.392 . S
C817 C821 1.495 . S
C818 C817 1.392 . S
C818 C819 1.385 1_545 S
C818 C820 1.478 . S
C819 H813 0.930 . S
C819 C815 1.400 . S
C819 C818 1.385 1_565 S
C820 C818 1.478 . S
C820 C822 1.381 . S
C820 C826 1.383 . S
C821 C817 1.495 . S
C821 H827 0.959 . S
C821 H828 0.961 . S
C821 H829 0.960 . S
C822 C820 1.381 . S
C822 C823 1.394 . S
C822 H830 0.930 . S
C823 C822 1.394 . S
C823 C824 1.383 . S
C823 H831 0.929 . S
C824 C823 1.383 . S
C824 C825 1.377 . S
C825 H809 0.930 . S
C825 C824 1.377 . S
C825 C826 1.379 . S
C826 H810 0.931 1_545 S
C826 C820 1.383 . S
C826 C825 1.379 . S
H827 C821 0.959 . S
H828 C821 0.961 . S
H829 C821 0.960 . S
H830 C822 0.930 . S
H831 C823 0.929 . S
H832 C840 0.929 . S
H833 C842 0.930 . S
H834 C844 0.930 1_545 S
H835 C847 0.929 . S
H836 C850 0.930 . S
H837 C852 0.960 . S
H838 C852 0.960 . S
H839 C852 0.960 . S
C840 H832 0.929 . S
C840 C841 1.377 . S
C840 C842 1.384 . S
C841 C840 1.377 . S
C841 C847 1.390 . S
C842 H833 0.930 . S
C842 C840 1.384 . S
C842 C843 1.372 . S
C843 C842 1.372 . S
C843 C844 1.400 . S
C843 C848 1.490 . S
C844 H834 0.930 1_565 S
C844 C843 1.400 . S
C844 C847 1.386 . S
H845 C861 0.930 . S
H846 C862 0.931 . S
C847 H835 0.929 . S
C847 C841 1.390 . S
C847 C844 1.386 . S
C848 C843 1.490 . S
C848 C850 1.395 . S
C848 C851 1.403 . S
H849 C855 0.930 . S
C850 H836 0.930 . S
C850 C848 1.395 . S
C850 C853 1.403 1_565 S
C851 C848 1.403 . S
C851 C852 1.524 . S
C851 C855 1.400 1_565 S
C852 H837 0.960 . S
C852 H838 0.960 . S
C852 H839 0.960 . S
C852 C851 1.524 . S
C853 C850 1.403 1_545 S
C853 C854 1.392 . S
C853 C857 1.495 . S
C854 C853 1.392 . S
C854 C855 1.385 . S
C854 C856 1.478 . S
C855 H849 0.930 . S
C855 C851 1.400 1_545 S
C855 C854 1.385 . S
C856 C854 1.478 . S
C856 C858 1.381 . S
C856 C862 1.383 . S
C857 C853 1.495 . S
C857 H863 0.959 . S
C857 H864 0.961 . S
C857 H865 0.960 1_545 S
C858 C856 1.381 . S
C858 C859 1.394 . S
C858 H866 0.930 1_545 S
C859 C858 1.394 . S
C859 C860 1.383 . S
C859 H867 0.929 . S
C860 C859 1.383 . S
C860 C861 1.377 . S
C861 H845 0.930 . S
C861 C860 1.377 . S
C861 C862 1.379 . S
C862 H846 0.931 . S
C862 C856 1.383 . S
C862 C861 1.379 . S
H863 C857 0.959 . S
H864 C857 0.961 . S
H865 C857 0.960 1_565 S
H866 C858 0.930 1_565 S
H867 C859 0.929 . S
H868 C876 0.929 . S
H869 C878 0.930 . S
H870 C880 0.930 1_545 S
H871 C883 0.929 . S
H872 C886 0.930 . S
H873 C888 0.960 . S
H874 C888 0.960 . S
H875 C888 0.960 . S
C876 H868 0.929 . S
C876 C877 1.377 . S
C876 C878 1.384 . S
C877 C876 1.377 . S
C877 C883 1.390 . S
C878 H869 0.930 . S
C878 C876 1.384 . S
C878 C879 1.372 . S
C879 C878 1.372 . S
C879 C880 1.400 . S
C879 C884 1.490 . S
C880 H870 0.930 1_565 S
C880 C879 1.400 . S
C880 C883 1.386 . S
H881 C897 0.930 . S
H882 C898 0.931 . S
C883 H871 0.929 . S
C883 C877 1.390 . S
C883 C880 1.386 . S
C884 C879 1.490 . S
C884 C886 1.395 . S
C884 C887 1.403 . S
H885 C891 0.930 . S
C886 H872 0.930 . S
C886 C884 1.395 . S
C886 C889 1.403 1_565 S
C887 C884 1.403 . S
C887 C888 1.524 . S
C887 C891 1.400 1_565 S
C888 H873 0.960 . S
C888 H874 0.960 . S
C888 H875 0.960 . S
C888 C887 1.524 . S
C889 C886 1.403 1_545 S
C889 C890 1.392 . S
C889 C893 1.495 . S
C890 C889 1.392 . S
C890 C891 1.385 . S
C890 C892 1.478 . S
C891 H885 0.930 . S
C891 C887 1.400 1_545 S
C891 C890 1.385 . S
C892 C890 1.478 . S
C892 C894 1.381 . S
C892 C898 1.383 . S
C893 C889 1.495 . S
C893 H899 0.959 . S
C893 H900 0.961 . S
C893 H901 0.960 . S
C894 C892 1.381 . S
C894 C895 1.394 . S
C894 H902 0.930 1_545 S
C895 C894 1.394 . S
C895 C896 1.383 . S
C895 H903 0.929 . S
C896 C895 1.383 . S
C896 C897 1.377 . S
C897 H881 0.930 . S
C897 C896 1.377 . S
C897 C898 1.379 . S
C898 H882 0.931 . S
C898 C892 1.383 . S
C898 C897 1.379 . S
H899 C893 0.959 . S
H900 C893 0.961 . S
H901 C893 0.960 . S
H902 C894 0.930 1_565 S
H903 C895 0.929 . S
H904 C912 0.929 . S
H905 C914 0.930 . S
H906 C916 0.930 . S
H907 C919 0.929 . S
H908 C922 0.930 1_556 S
H909 C924 0.960 . S
H910 C924 0.960 . S
H911 C924 0.960 . S
C912 H904 0.929 . S
C912 C913 1.377 1_556 S
C912 C914 1.384 . S
C913 C912 1.377 1_554 S
C913 C919 1.390 . S
C914 H905 0.930 . S
C914 C912 1.384 . S
C914 C915 1.372 1_556 S
C915 C914 1.372 1_554 S
C915 C916 1.400 . S
C915 C920 1.490 . S
C916 H906 0.930 . S
C916 C915 1.400 . S
C916 C919 1.386 . S
H917 C933 0.930 . S
H918 C934 0.931 . S
C919 H907 0.929 . S
C919 C913 1.390 . S
C919 C916 1.386 . S
C920 C915 1.490 . S
C920 C922 1.395 1_565 S
C920 C923 1.403 . S
H921 C927 0.930 . S
C922 H908 0.930 1_554 S
C922 C920 1.395 1_545 S
C922 C925 1.403 . S
C923 C920 1.403 . S
C923 C924 1.524 . S
C923 C927 1.400 . S
C924 H909 0.960 . S
C924 H910 0.960 . S
C924 H911 0.960 . S
C924 C923 1.524 . S
C925 C922 1.403 . S
C925 C926 1.392 . S
C925 C929 1.495 1_554 S
C926 C925 1.392 . S
C926 C927 1.385 1_545 S
C926 C928 1.478 . S
C927 H921 0.930 . S
C927 C923 1.400 . S
C927 C926 1.385 1_565 S
C928 C926 1.478 . S
C928 C930 1.381 1_554 S
C928 C934 1.383 . S
C929 C925 1.495 1_556 S
C929 H935 0.959 . S
C929 H936 0.961 1_556 S
C929 H937 0.960 . S
C930 C928 1.381 1_556 S
C930 C931 1.394 . S
C930 H938 0.930 . S
C931 C930 1.394 . S
C931 C932 1.383 1_556 S
C931 H939 0.929 . S
C932 C931 1.383 1_554 S
C932 C933 1.377 . S
C933 H917 0.930 . S
C933 C932 1.377 . S
C933 C934 1.379 . S
C934 H918 0.931 . S
C934 C928 1.383 . S
C934 C933 1.379 . S
H935 C929 0.959 . S
H936 C929 0.961 1_554 S
H937 C929 0.960 . S
H938 C930 0.930 . S
H939 C931 0.929 . S
H940 C948 0.929 . S
H941 C950 0.930 . S
H942 C952 0.930 . S
H943 C955 0.929 . S
H944 C958 0.930 . S
H945 C960 0.960 . S
H946 C960 0.960 . S
H947 C960 0.960 . S
C948 H940 0.929 . S
C948 C949 1.377 . S
C948 C950 1.384 . S
C949 C948 1.377 . S
C949 C955 1.390 . S
C950 H941 0.930 . S
C950 C948 1.384 . S
C950 C951 1.372 . S
C951 C950 1.372 . S
C951 C952 1.400 . S
C951 C956 1.490 . S
C952 H942 0.930 . S
C952 C951 1.400 . S
C952 C955 1.386 . S
H953 C969 0.930 . S
H954 C970 0.931 . S
C955 H943 0.929 . S
C955 C949 1.390 . S
C955 C952 1.386 . S
C956 C951 1.490 . S
C956 C958 1.395 . S
C956 C959 1.403 1_565 S
H957 C963 0.930 . S
C958 H944 0.930 . S
C958 C956 1.395 . S
C958 C961 1.403 . S
C959 C956 1.403 1_545 S
C959 C960 1.524 . S
C959 C963 1.400 . S
C960 H945 0.960 . S
C960 H946 0.960 . S
C960 H947 0.960 . S
C960 C959 1.524 . S
C961 C958 1.403 . S
C961 C962 1.392 1_565 S
C961 C965 1.495 . S
C962 C961 1.392 1_545 S
C962 C963 1.385 . S
C962 C964 1.478 . S
C963 H957 0.930 . S
C963 C959 1.400 . S
C963 C962 1.385 . S
C964 C962 1.478 . S
C964 C966 1.381 . S
C964 C970 1.383 . S
C965 C961 1.495 . S
C965 H971 0.959 . S
C965 H972 0.961 . S
C965 H973 0.960 . S
C966 C964 1.381 . S
C966 C967 1.394 . S
C966 H974 0.930 . S
C967 C966 1.394 . S
C967 C968 1.383 . S
C967 H975 0.929 . S
C968 C967 1.383 . S
C968 C969 1.377 . S
C969 H953 0.930 . S
C969 C968 1.377 . S
C969 C970 1.379 . S
C970 H954 0.931 . S
C970 C964 1.383 . S
C970 C969 1.379 . S
H971 C965 0.959 . S
H972 C965 0.961 . S
H973 C965 0.960 . S
H974 C966 0.930 . S
H975 C967 0.929 . S
H976 C984 0.929 1_556 S
H977 C986 0.930 1_556 S
H978 C988 0.930 . S
H979 C991 0.929 . S
H980 C994 0.930 . S
H981 C996 0.960 . S
H982 C996 0.960 1_456 S
H983 C996 0.953 1_455 S
C984 H976 0.929 1_554 S
C984 C985 1.377 . S
C984 C986 1.384 . S
C985 C984 1.377 . S
C985 C991 1.390 . S
C986 H977 0.930 1_554 S
C986 C984 1.384 . S
C986 C987 1.372 . S
C987 C986 1.372 . S
C987 C988 1.400 . S
C987 C992 1.490 . S
C988 H978 0.930 . S
C988 C987 1.400 . S
C988 C991 1.386 . S
H989 C1005 0.930 . S
H990 C1006 0.931 . S
C991 H979 0.929 . S
C991 C985 1.390 . S
C991 C988 1.386 . S
C992 C987 1.490 . S
C992 C994 1.395 . S
C992 C995 1.346 1_455 S
H993 C999 0.930 . S
C994 H980 0.930 . S
C994 C992 1.395 . S
C994 C997 1.403 . S
C995 C992 1.346 1_655 S
C995 C996 1.535 . S
C995 C999 1.450 . S
C996 H981 0.960 . S
C996 H982 0.960 1_654 S
C996 H983 0.953 1_655 S
C996 C995 1.535 . S
C997 C994 1.403 . S
C997 C998 1.392 1_455 S
C997 C1001 1.495 . S
C998 C997 1.392 1_655 S
C998 C999 1.385 . S
C998 C1000 1.478 . S
C999 H993 0.930 . S
C999 C995 1.450 . S
C999 C998 1.385 . S
C1000 C998 1.478 . S
C1000 C1002 1.381 . S
C1000 C1006 1.383 . S
C1001 C997 1.495 . S
C1001 H1007 0.959 . S
C1001 H1008 0.951 1_455 S
C1001 H1009 0.960 . S
C1002 C1000 1.381 . S
C1002 C1003 1.394 . S
C1002 H1010 0.930 1_554 S
C1003 C1002 1.394 . S
C1003 C1004 1.383 . S
C1003 H1011 0.929 1_554 S
C1004 C1003 1.383 . S
C1004 C1005 1.377 . S
C1005 H989 0.930 . S
C1005 C1004 1.377 . S
C1005 C1006 1.379 . S
C1006 H990 0.931 . S
C1006 C1000 1.383 . S
C1006 C1005 1.379 . S
H1007 C1001 0.959 . S
H1008 C1001 0.951 1_655 S
H1009 C1001 0.960 . S
H1010 C1002 0.930 1_556 S
H1011 C1003 0.929 1_556 S
H1012 C1020 0.929 . S
H1013 C1022 0.930 . S
H1014 C1024 0.930 . S
H1015 C1027 0.929 . S
H1016 C1030 0.930 . S
H1017 C1032 0.960 . S
H1018 C1032 0.974 . S
H1019 C1032 0.960 1_455 S
C1020 H1012 0.929 . S
C1020 C1021 1.377 . S
C1020 C1022 1.384 . S
C1021 C1020 1.377 . S
C1021 C1027 1.390 . S
C1022 H1013 0.930 . S
C1022 C1020 1.384 . S
C1022 C1023 1.372 . S
C1023 C1022 1.372 . S
C1023 C1024 1.400 . S
C1023 C1028 1.490 . S
C1024 H1014 0.930 . S
C1024 C1023 1.400 . S
C1024 C1027 1.386 . S
H1025 C1041 0.930 . S
H1026 C1042 0.931 . S
C1027 H1015 0.929 . S
C1027 C1021 1.390 . S
C1027 C1024 1.386 . S
C1028 C1023 1.490 . S
C1028 C1030 1.395 . S
C1028 C1031 1.361 1_455 S
H1029 C1035 0.930 . S
C1030 H1016 0.930 . S
C1030 C1028 1.395 . S
C1030 C1033 1.403 . S
C1031 C1028 1.361 1_655 S
C1031 C1032 1.531 . S
C1031 C1035 1.437 . S
C1032 H1017 0.960 . S
C1032 H1018 0.974 . S
C1032 H1019 0.960 1_655 S
C1032 C1031 1.531 . S
C1033 C1030 1.403 . S
C1033 C1034 1.392 1_455 S
C1033 C1037 1.495 . S
C1034 C1033 1.392 1_655 S
C1034 C1035 1.385 . S
C1034 C1036 1.478 . S
C1035 H1029 0.930 . S
C1035 C1031 1.437 . S
C1035 C1034 1.385 . S
C1036 C1034 1.478 . S
C1036 C1038 1.381 . S
C1036 C1042 1.383 . S
C1037 C1033 1.495 . S
C1037 H1043 0.959 . S
C1037 H1044 0.961 . S
C1037 H1045 0.960 1_455 S
C1038 C1036 1.381 . S
C1038 C1039 1.394 . S
C1038 H1046 0.930 . S
C1039 C1038 1.394 . S
C1039 C1040 1.383 . S
C1039 H1047 0.929 . S
C1040 C1039 1.383 . S
C1040 C1041 1.377 . S
C1041 H1025 0.930 . S
C1041 C1040 1.377 . S
C1041 C1042 1.379 . S
C1042 H1026 0.931 . S
C1042 C1036 1.383 . S
C1042 C1041 1.379 . S
H1043 C1037 0.959 . S
H1044 C1037 0.961 . S
H1045 C1037 0.960 1_655 S
H1046 C1038 0.930 . S
H1047 C1039 0.929 . S
C481 C347 1.511 . S
C500 C52 1.509 . S
C517 C288 1.513 . S
C536 C111 1.502 . S
C553 C465 1.511 . S
C572 C170 1.509 . S
C589 C406 1.512 . S
C608 C229 1.515 . S
C625 C3 1.499 . S
C644 C121 1.502 . S
C661 C62 1.497 . S
C680 C180 1.485 . S
C697 C92 1.513 . S
C716 C210 1.510 . S
C733 C33 1.513 . S
C752 C151 1.511 . S
C769 C239 1.497 . S
C788 C357 1.507 . S
C805 C416 1.495 . S
C824 C298 1.501 . S
C841 C446 1.513 . S
C860 C328 1.511 . S
C877 C269 1.513 . S
C896 C387 1.511 . S
C913 C64 1.506 . S
C932 C5 1.502 . S
C949 C123 1.507 . S
C968 C182 1.504 . S
C985 C241 1.506 . S
C1004 C300 1.502 . S
C1021 C359 1.506 . S
C1040 C418 1.502 . S
