# Generated by pormake.
# Topology som, (6)-cn, num edge types: 1
# Building blocks:
#     Node 0, Type 0, BuildingBlock: PAMTOO_clean_sbu_0, # of connection points: 6
#     Node 1, Type 0, BuildingBlock: PAMTOO_clean_sbu_0, # of connection points: 6
#     Node 2, Type 0, BuildingBlock: PAMTOO_clean_sbu_0, # of connection points: 6
#     Node 3, Type 0, BuildingBlock: PAMTOO_clean_sbu_0, # of connection points: 6
#     Node 4, Type 0, BuildingBlock: PAMTOO_clean_sbu_0, # of connection points: 6
#     Node 5, Type 0, BuildingBlock: PAMTOO_clean_sbu_0, # of connection points: 6
#     Node 6, Type 0, BuildingBlock: PAMTOO_clean_sbu_0, # of connection points: 6
#     Node 7, Type 0, BuildingBlock: PAMTOO_clean_sbu_0, # of connection points: 6
#     Node 8, Type 0, BuildingBlock: PAMTOO_clean_sbu_0, # of connection points: 6
#     Node 9, Type 0, BuildingBlock: PAMTOO_clean_sbu_0, # of connection points: 6
#     Node 10, Type 0, BuildingBlock: PAMTOO_clean_sbu_0, # of connection points: 6
#     Node 11, Type 0, BuildingBlock: PAMTOO_clean_sbu_0, # of connection points: 6
#     Node 12, Type 0, BuildingBlock: PAMTOO_clean_sbu_0, # of connection points: 6
#     Node 13, Type 0, BuildingBlock: PAMTOO_clean_sbu_0, # of connection points: 6
#     Node 14, Type 0, BuildingBlock: PAMTOO_clean_sbu_0, # of connection points: 6
#     Node 15, Type 0, BuildingBlock: PAMTOO_clean_sbu_0, # of connection points: 6
#     Node 16, Type 0, BuildingBlock: PAMTOO_clean_sbu_0, # of connection points: 6
#     Node 17, Type 0, BuildingBlock: PAMTOO_clean_sbu_0, # of connection points: 6
#     Node 18, Type 0, BuildingBlock: PAMTOO_clean_sbu_0, # of connection points: 6
#     Node 19, Type 0, BuildingBlock: PAMTOO_clean_sbu_0, # of connection points: 6
#     Node 20, Type 0, BuildingBlock: PAMTOO_clean_sbu_0, # of connection points: 6
#     Node 21, Type 0, BuildingBlock: PAMTOO_clean_sbu_0, # of connection points: 6
#     Node 22, Type 0, BuildingBlock: PAMTOO_clean_sbu_0, # of connection points: 6
#     Node 23, Type 0, BuildingBlock: PAMTOO_clean_sbu_0, # of connection points: 6
#     Node 24, Type 0, BuildingBlock: PAMTOO_clean_sbu_0, # of connection points: 6
#     Node 25, Type 0, BuildingBlock: PAMTOO_clean_sbu_0, # of connection points: 6
#     Node 26, Type 0, BuildingBlock: PAMTOO_clean_sbu_0, # of connection points: 6
#     Node 27, Type 0, BuildingBlock: PAMTOO_clean_sbu_0, # of connection points: 6
#     Node 28, Type 0, BuildingBlock: PAMTOO_clean_sbu_0, # of connection points: 6
#     Node 29, Type 0, BuildingBlock: PAMTOO_clean_sbu_0, # of connection points: 6
#     Node 30, Type 0, BuildingBlock: PAMTOO_clean_sbu_0, # of connection points: 6
#     Node 31, Type 0, BuildingBlock: PAMTOO_clean_sbu_0, # of connection points: 6
#     Edge 32, Type (0, 0), None
#     Edge 33, Type (0, 0), None
#     Edge 34, Type (0, 0), None
#     Edge 35, Type (0, 0), None
#     Edge 36, Type (0, 0), None
#     Edge 37, Type (0, 0), None
#     Edge 38, Type (0, 0), None
#     Edge 39, Type (0, 0), None
#     Edge 40, Type (0, 0), None
#     Edge 41, Type (0, 0), None
#     Edge 42, Type (0, 0), None
#     Edge 43, Type (0, 0), None
#     Edge 44, Type (0, 0), None
#     Edge 45, Type (0, 0), None
#     Edge 46, Type (0, 0), None
#     Edge 47, Type (0, 0), None
#     Edge 48, Type (0, 0), None
#     Edge 49, Type (0, 0), None
#     Edge 50, Type (0, 0), None
#     Edge 51, Type (0, 0), None
#     Edge 52, Type (0, 0), None
#     Edge 53, Type (0, 0), None
#     Edge 54, Type (0, 0), None
#     Edge 55, Type (0, 0), None
#     Edge 56, Type (0, 0), None
#     Edge 57, Type (0, 0), None
#     Edge 58, Type (0, 0), None
#     Edge 59, Type (0, 0), None
#     Edge 60, Type (0, 0), None
#     Edge 61, Type (0, 0), None
#     Edge 62, Type (0, 0), None
#     Edge 63, Type (0, 0), None
#     Edge 64, Type (0, 0), None
#     Edge 65, Type (0, 0), None
#     Edge 66, Type (0, 0), None
#     Edge 67, Type (0, 0), None
#     Edge 68, Type (0, 0), None
#     Edge 69, Type (0, 0), None
#     Edge 70, Type (0, 0), None
#     Edge 71, Type (0, 0), None
#     Edge 72, Type (0, 0), None
#     Edge 73, Type (0, 0), None
#     Edge 74, Type (0, 0), None
#     Edge 75, Type (0, 0), None
#     Edge 76, Type (0, 0), None
#     Edge 77, Type (0, 0), None
#     Edge 78, Type (0, 0), None
#     Edge 79, Type (0, 0), None
#     Edge 80, Type (0, 0), None
#     Edge 81, Type (0, 0), None
#     Edge 82, Type (0, 0), None
#     Edge 83, Type (0, 0), None
#     Edge 84, Type (0, 0), None
#     Edge 85, Type (0, 0), None
#     Edge 86, Type (0, 0), None
#     Edge 87, Type (0, 0), None
#     Edge 88, Type (0, 0), None
#     Edge 89, Type (0, 0), None
#     Edge 90, Type (0, 0), None
#     Edge 91, Type (0, 0), None
#     Edge 92, Type (0, 0), None
#     Edge 93, Type (0, 0), None
#     Edge 94, Type (0, 0), None
#     Edge 95, Type (0, 0), None
#     Edge 96, Type (0, 0), None
#     Edge 97, Type (0, 0), None
#     Edge 98, Type (0, 0), None
#     Edge 99, Type (0, 0), None
#     Edge 100, Type (0, 0), None
#     Edge 101, Type (0, 0), None
#     Edge 102, Type (0, 0), None
#     Edge 103, Type (0, 0), None
#     Edge 104, Type (0, 0), None
#     Edge 105, Type (0, 0), None
#     Edge 106, Type (0, 0), None
#     Edge 107, Type (0, 0), None
#     Edge 108, Type (0, 0), None
#     Edge 109, Type (0, 0), None
#     Edge 110, Type (0, 0), None
#     Edge 111, Type (0, 0), None
#     Edge 112, Type (0, 0), None
#     Edge 113, Type (0, 0), None
#     Edge 114, Type (0, 0), None
#     Edge 115, Type (0, 0), None
#     Edge 116, Type (0, 0), None
#     Edge 117, Type (0, 0), None
#     Edge 118, Type (0, 0), None
#     Edge 119, Type (0, 0), None
#     Edge 120, Type (0, 0), None
#     Edge 121, Type (0, 0), None
#     Edge 122, Type (0, 0), None
#     Edge 123, Type (0, 0), None
#     Edge 124, Type (0, 0), None
#     Edge 125, Type (0, 0), None
#     Edge 126, Type (0, 0), None
#     Edge 127, Type (0, 0), None
# Relax obj value: 0.102
# Max RMSD: 0.187
# Mean RMSD: 0.187
data_MOF--net-som--node1-PAMTOO_clean_sbu_0--edge1-none
_symmetry_space_group_name_H-M    P1
_symmetry_Int_Tables_number       1
_symmetry_cell_setting            triclinic
loop_
_symmetry_equiv_pos_as_xyz
'x, y, z'
_cell_length_a     15.990067
_cell_length_b     22.963919
_cell_length_c     50.59519
_cell_angle_alpha  89.852341
_cell_angle_beta   90.055738
_cell_angle_gamma 90.001445
loop_
_atom_site_label
_atom_site_type_symbol
_atom_site_fract_x
_atom_site_fract_y
_atom_site_fract_z
_atom_type_partial_charge
Dy0 Dy 0.1465 0.38652 0.04084 0.0
Dy1 Dy 0.99705 0.46975 0.0469 0.0
C2 C 0.12684 0.44255 0.09209 0.0
O3 O 1.03227 0.32872 0.03109 0.0
O4 O 0.93973 0.38306 0.05424 0.0
O5 O 0.23888 0.34812 0.0666 0.0
O6 O 0.24427 0.33284 0.02441 0.0
O7 O 1.01131 0.44422 0.00321 0.0
O8 O 0.15002 0.42069 0.00093 0.0
O9 O 0.07686 0.53741 0.03149 0.0
O10 O 0.19441 0.4821 0.03919 0.0
O11 O 0.89613 0.5218 0.03142 0.0
O12 O 0.90416 0.50331 0.07363 0.0
C13 C 0.95514 0.33694 0.0402 0.0
O14 O 0.10618 0.39293 0.082 0.0
O15 O 0.09318 0.48783 0.08037 0.0
C16 C 0.36912 0.35792 0.04702 0.0
C17 C 0.52537 0.41491 0.05066 0.0
C18 C 0.50289 0.3708 0.06883 0.0
C19 C 0.42504 0.34356 0.06729 0.0
C20 C 0.38989 0.40257 0.02924 0.0
C21 C 0.46657 0.43113 0.03121 0.0
C22 C 0.28509 0.33218 0.04681 0.0
C23 C 0.08089 0.43485 -0.0106 0.0
C24 C 0.15734 0.53268 0.03313 0.0
C25 C 0.77127 0.49362 0.05309 0.0
C26 C 0.60986 0.44288 0.05159 0.0
C27 C 0.64583 0.46759 0.02869 0.0
C28 C 0.72475 0.49351 0.02957 0.0
C29 C 0.73685 0.46768 0.0757 0.0
C30 C 0.65663 0.44397 0.07519 0.0
C31 C 0.85622 0.51909 0.05389 0.0
H32 H 0.54563 0.35573 0.08392 0.0
H33 H 0.40886 0.31062 0.0818 0.0
H34 H 0.34602 0.41648 0.01417 0.0
H35 H 0.47857 0.4665 0.01758 0.0
H36 H 0.61428 0.46632 0.0098 0.0
H37 H 0.74977 0.51272 0.01165 0.0
H38 H 0.77219 0.46546 0.09382 0.0
H39 H 0.63195 0.42675 0.0935 0.0
Dy40 Dy 0.20453 0.73265 0.02749 0.0
Dy41 Dy 0.35743 0.65782 0.05037 0.0
C42 C 0.19177 0.6902 0.0847 0.0
O43 O 0.32254 0.79147 0.02401 0.0
O44 O 0.39563 0.74906 0.05762 0.0
O45 O 0.10684 0.79612 0.03336 0.0
O46 O 0.11218 0.74872 -0.00321 0.0
O47 O 0.37553 0.68488 0.00738 0.0
O48 O 0.24111 0.68276 -0.00652 0.0
O49 O 0.28458 0.58515 0.03486 0.0
O50 O 0.16256 0.63811 0.03399 0.0
O51 O 0.45207 0.59307 0.04308 0.0
O52 O 0.4586 0.64619 0.07842 0.0
C53 C 0.38967 0.78978 0.03976 0.0
O54 O 0.19558 0.73742 0.07062 0.0
O55 O 0.24862 0.64891 0.08068 0.0
C56 C 0.98205 0.75233 0.01819 0.0
C57 C 0.825 0.70016 0.02965 0.0
C58 C 0.89093 0.69906 0.04817 0.0
C59 C 0.96852 0.72333 0.04226 0.0
C60 C 0.91805 0.75251 -0.00079 0.0
C61 C 0.84061 0.72617 0.00476 0.0
C62 C 1.06501 0.77826 0.01278 0.0
C63 C 0.31943 0.68255 -0.01177 0.0
C64 C 0.20386 0.58777 0.03272 0.0
C65 C 0.58176 0.63415 0.05331 0.0
C66 C 0.7404 0.67629 0.03689 0.0
C67 C 0.66622 0.69827 0.02555 0.0
C68 C 0.5879 0.67769 0.03382 0.0
C69 C 0.65459 0.61148 0.06421 0.0
C70 C 0.73256 0.63259 0.05633 0.0
C71 C 0.49946 0.61263 0.06205 0.0
H72 H 0.88297 0.68126 0.06779 0.0
H73 H 1.01734 0.72108 0.05708 0.0
H74 H 0.92793 0.77286 -0.01988 0.0
H75 H 0.79293 0.72693 -0.01041 0.0
H76 H 0.66783 0.73246 0.01083 0.0
H77 H 0.53206 0.69609 0.02506 0.0
H78 H 0.65117 0.57765 0.07895 0.0
H79 H 0.78661 0.61487 0.06605 0.0
Dy80 Dy 0.14589 0.74503 0.15717 0.0
Dy81 Dy 0.99608 0.66259 0.15012 0.0
C82 C 0.12591 0.69007 0.10572 0.0
O83 O 1.03165 0.80283 0.16693 0.0
O84 O 0.93944 0.74965 0.14298 0.0
O85 O 0.23815 0.78396 0.13165 0.0
O86 O 0.24378 0.79813 0.17395 0.0
O87 O 1.00842 0.69264 0.19304 0.0
O88 O 0.14837 0.71022 0.197 0.0
O89 O 1.07422 0.5949 0.16656 0.0
O90 O 0.19252 0.64924 0.15875 0.0
O91 O 0.89564 0.60979 0.16527 0.0
O92 O 0.90312 0.63001 0.12317 0.0
C93 C 0.95466 0.7951 0.15754 0.0
O94 O 0.10524 0.73949 0.11598 0.0
O95 O 0.09267 0.64455 0.1172 0.0
C96 C 0.3683 0.77364 0.15117 0.0
C97 C 0.52458 0.71702 0.14711 0.0
C98 C 0.50149 0.76141 0.12913 0.0
C99 C 0.42362 0.78838 0.13085 0.0
C100 C 0.38946 0.72871 0.16875 0.0
C101 C 0.46615 0.70028 0.16657 0.0
C102 C 0.28441 0.79936 0.15155 0.0
C103 C 0.07676 0.69988 0.2077 0.0
C104 C 0.15476 0.599 0.16495 0.0
C105 C 0.77076 0.63901 0.14392 0.0
C106 C 0.60926 0.68938 0.14596 0.0
C107 C 0.64495 0.66277 0.1685 0.0
C108 C 0.72392 0.63702 0.16732 0.0
C109 C 0.7371 0.66743 0.12184 0.0
C110 C 0.65673 0.69067 0.12252 0.0
C111 C 0.85547 0.61345 0.14283 0.0
H112 H 0.5437 0.7771 0.11406 0.0
H113 H 0.40703 0.82153 0.11648 0.0
H114 H 0.34591 0.71448 0.18384 0.0
H115 H 0.47835 0.66469 0.18005 0.0
H116 H 0.61321 0.66226 0.18733 0.0
H117 H 0.74875 0.61611 0.18484 0.0
H118 H 0.77324 0.6722 0.104 0.0
H119 H 0.63274 0.70946 0.10445 0.0
Dy120 Dy 0.20397 0.39848 0.17081 0.0
Dy121 Dy 0.35602 0.47379 0.14977 0.0
C122 C 0.19132 0.44233 0.11377 0.0
O123 O 0.32263 0.34024 0.17442 0.0
O124 O 0.39444 0.3835 0.14098 0.0
O125 O 0.1067 0.33512 0.16422 0.0
O126 O 0.11307 0.37944 0.20158 0.0
O127 O 0.37114 0.44706 0.19333 0.0
O128 O 0.23502 0.45041 0.20469 0.0
O129 O 0.28181 0.54686 0.16381 0.0
O130 O 0.16043 0.49317 0.1646 0.0
O131 O 0.45134 0.53734 0.15829 0.0
O132 O 0.45767 0.48708 0.12211 0.0
C133 C 0.38917 0.34218 0.1585 0.0
O134 O 0.19338 0.39491 0.12773 0.0
O135 O 0.2486 0.48322 0.11849 0.0
C136 C 0.98241 0.37767 0.18028 0.0
C137 C 0.8251 0.4304 0.16971 0.0
C138 C 0.89016 0.43176 0.15092 0.0
C139 C 0.96796 0.40739 0.15644 0.0
C140 C 0.91931 0.37714 0.19951 0.0
C141 C 0.84185 0.40402 0.19446 0.0
C142 C 1.06544 0.3513 0.18517 0.0
C143 C 0.31205 0.44979 0.21158 0.0
C144 C 0.20114 0.54385 0.16571 0.0
C145 C 0.58107 0.49726 0.14729 0.0
C146 C 0.74023 0.45439 0.16284 0.0
C147 C 0.66652 0.43254 0.1745 0.0
C148 C 0.58789 0.45351 0.16668 0.0
C149 C 0.65344 0.51955 0.13598 0.0
C150 C 0.73165 0.49815 0.14346 0.0
C151 C 0.49859 0.51932 0.13901 0.0
H152 H 0.88133 0.44981 0.13138 0.0
H153 H 1.01606 0.40995 0.14142 0.0
H154 H 0.92993 0.35605 0.2184 0.0
H155 H 0.79506 0.40329 0.20989 0.0
H156 H 0.66871 0.39824 0.18916 0.0
H157 H 0.53234 0.43533 0.1757 0.0
H158 H 0.64947 0.55362 0.12134 0.0
H159 H 0.78533 0.516 0.13363 0.0
Dy160 Dy 0.16556 0.40057 0.9032 0.0
Dy161 Dy 1.01584 0.48408 0.90867 0.0
C162 C 0.08111 0.43686 0.96043 0.0
O163 O 0.08503 0.33349 0.91877 0.0
O164 O 0.96786 0.38857 0.91029 0.0
O165 O 0.26623 0.3492 0.91932 0.0
O166 O 0.25815 0.36507 0.8769 0.0
O167 O 1.05786 0.47739 0.8677 0.0
O168 O 1.07001 0.38248 0.86958 0.0
O169 O 0.13019 0.54217 0.91803 0.0
O170 O 0.22337 0.48696 0.89546 0.0
O171 O 0.92344 0.52156 0.88263 0.0
O172 O 0.9178 0.53802 0.92472 0.0
C173 C 1.00466 0.33811 0.91665 0.0
O174 O 0.15074 0.42712 0.94671 0.0
O175 O 1.01212 0.451 0.9488 0.0
C176 C 0.39107 0.37577 0.8973 0.0
C177 C 0.55249 0.42662 0.89832 0.0
C178 C 0.51767 0.40112 0.92124 0.0
C179 C 0.43877 0.37513 0.92058 0.0
C180 C 0.42426 0.40252 0.87471 0.0
C181 C 0.50447 0.42625 0.87496 0.0
C182 C 0.30608 0.35038 0.89681 0.0
C183 C 1.03709 0.42776 0.85766 0.0
C184 C 0.20747 0.5337 0.90903 0.0
C185 C 0.7932 0.51194 0.90223 0.0
C186 C 0.63701 0.45468 0.89901 0.0
C187 C 0.65899 0.49876 0.88075 0.0
C188 C 0.73681 0.52609 0.88207 0.0
C189 C 0.77302 0.46728 0.92008 0.0
C190 C 0.69642 0.43856 0.9183 0.0
C191 C 0.87706 0.53794 0.9023 0.0
H192 H 0.55005 0.40182 0.93999 0.0
H193 H 0.41462 0.35532 0.93848 0.0
H194 H 0.38799 0.40537 0.85678 0.0
H195 H 0.52807 0.44406 0.85664 0.0
H196 H 0.61593 0.5138 0.86575 0.0
H197 H 0.75256 0.55899 0.86749 0.0
H198 H 0.81729 0.4535 0.93505 0.0
H199 H 0.685 0.40317 0.93196 0.0
Dy200 Dy 0.80575 0.21264 0.89845 0.0
Dy201 Dy 0.95839 0.13798 0.92149 0.0
C202 C 0.84323 0.18805 0.96068 0.0
O203 O 0.87771 0.28543 0.91422 0.0
O204 O 0.99993 0.23272 0.91539 0.0
O205 O 0.71074 0.27715 0.90573 0.0
O206 O 0.70457 0.22408 0.87037 0.0
O207 O 0.96957 0.13417 0.87838 0.0
O208 O 0.91511 0.22224 0.86824 0.0
O209 O 0.84038 0.07911 0.92493 0.0
O210 O 0.76739 0.12135 0.89127 0.0
O211 O 1.0558 0.07419 0.91585 0.0
O212 O 1.05075 0.12236 0.95223 0.0
C213 C 0.95834 0.28294 0.91668 0.0
O214 O 0.78729 0.18571 0.94147 0.0
O215 O 0.92159 0.18773 0.9555 0.0
C216 C 0.5812 0.23578 0.89546 0.0
C217 C 0.42255 0.19354 0.91182 0.0
C218 C 0.49674 0.17137 0.92308 0.0
C219 C 0.57509 0.19191 0.91481 0.0
C220 C 0.50831 0.25878 0.88476 0.0
C221 C 0.43034 0.23739 0.89247 0.0
C222 C 0.66348 0.25749 0.88675 0.0
C223 C 0.97297 0.1815 0.86435 0.0
C224 C 0.77321 0.08076 0.9092 0.0
C225 C 0.18078 0.11813 0.93082 0.0
C226 C 0.33792 0.16991 0.91916 0.0
C227 C 0.27193 0.17092 0.90066 0.0
C228 C 0.19428 0.14684 0.90668 0.0
C229 C 0.24485 0.1181 0.94978 0.0
C230 C 0.32234 0.14427 0.94412 0.0
C231 C 0.09776 0.09241 0.93635 0.0
H232 H 0.49512 0.13712 0.93777 0.0
H233 H 0.63095 0.17337 0.92349 0.0
H234 H 0.51172 0.29333 0.87042 0.0
H235 H 0.37622 0.25542 0.88288 0.0
H236 H 0.27996 0.18851 0.88101 0.0
H237 H 0.1454 0.14898 0.89188 0.0
H238 H 0.23499 0.098 0.96892 0.0
H239 H 0.37011 0.14363 0.95927 0.0
Dy240 Dy 0.16476 0.20885 0.79743 0.0
Dy241 Dy 1.01452 0.12583 0.79246 0.0
C242 C 0.07976 0.16943 0.74071 0.0
O243 O 0.08451 0.27569 0.78136 0.0
O244 O 0.96737 0.22144 0.79076 0.0
O245 O 0.26505 0.25935 0.78057 0.0
O246 O 0.25779 0.24571 0.82318 0.0
O247 O 1.05959 0.13221 0.83313 0.0
O248 O 1.07044 0.22712 0.83114 0.0
O249 O 0.1286 0.0675 0.78302 0.0
O250 O 0.22261 0.12258 0.80542 0.0
O251 O 0.9222 0.08982 0.81889 0.0
O252 O 0.91661 0.07106 0.777 0.0
C253 C 1.00426 0.27158 0.78397 0.0
O254 O 0.14923 0.17818 0.75465 0.0
O255 O 1.00958 0.15813 0.75218 0.0
C256 C 0.39013 0.23384 0.80272 0.0
C257 C 0.55124 0.18275 0.80211 0.0
C258 C 0.51707 0.20839 0.7791 0.0
C259 C 0.43826 0.23451 0.77956 0.0
C260 C 0.42263 0.20679 0.82536 0.0
C261 C 0.50269 0.18297 0.82531 0.0
C262 C 0.30531 0.25934 0.80304 0.0
C263 C 1.03893 0.18174 0.84327 0.0
C264 C 0.20617 0.07586 0.79187 0.0
C265 C 0.79208 0.09785 0.79912 0.0
C266 C 0.63572 0.15476 0.80171 0.0
C267 C 0.65706 0.11052 0.81999 0.0
C268 C 0.73497 0.08331 0.81897 0.0
C269 C 0.77254 0.14264 0.78128 0.0
C270 C 0.69579 0.17118 0.78273 0.0
C271 C 0.87596 0.07212 0.7994 0.0
H272 H 0.54993 0.20775 0.76045 0.0
H273 H 0.41454 0.2545 0.76164 0.0
H274 H 0.38594 0.20375 0.84318 0.0
H275 H 0.52578 0.165 0.84368 0.0
H276 H 0.61343 0.09522 0.83474 0.0
H277 H 0.75022 0.05024 0.83353 0.0
H278 H 0.81743 0.15666 0.76655 0.0
H279 H 0.68476 0.20667 0.76908 0.0
Dy280 Dy 0.80498 0.39714 0.80133 0.0
Dy281 Dy 0.95691 0.47213 0.77921 0.0
C282 C 0.84579 0.42083 0.73918 0.0
O283 O 0.87757 0.32407 0.78642 0.0
O284 O 0.99938 0.37724 0.78502 0.0
O285 O 0.70954 0.33331 0.79333 0.0
O286 O 0.70354 0.38476 0.82917 0.0
O287 O 0.96893 0.47538 0.82229 0.0
O288 O 0.91379 0.38731 0.832 0.0
O289 O 0.8383 0.53052 0.77572 0.0
O290 O 0.76637 0.48786 0.80935 0.0
O291 O 1.05389 0.53592 0.78541 0.0
O292 O 1.04853 0.48983 0.7485 0.0
C293 C 0.95809 0.32681 0.78391 0.0
O294 O 0.78838 0.42356 0.75795 0.0
O295 O 0.9236 0.42139 0.74514 0.0
C296 C 0.58005 0.37423 0.80397 0.0
C297 C 0.42119 0.41731 0.78812 0.0
C298 C 0.49531 0.43959 0.77686 0.0
C299 C 0.57375 0.41861 0.78488 0.0
C300 C 0.50729 0.35112 0.81466 0.0
C301 C 0.42925 0.37284 0.80718 0.0
C302 C 0.66237 0.35213 0.81247 0.0
C303 C 0.9717 0.42796 0.83626 0.0
C304 C 0.77157 0.52874 0.79159 0.0
C305 C 0.17883 0.49319 0.76993 0.0
C306 C 0.3364 0.44129 0.78106 0.0
C307 C 0.27039 0.439 0.7995 0.0
C308 C 0.19257 0.46314 0.79373 0.0
C309 C 0.24294 0.49471 0.75105 0.0
C310 C 0.32065 0.46854 0.75644 0.0
C311 C 0.09564 0.51898 0.76469 0.0
H312 H 0.49366 0.47419 0.76235 0.0
H313 H 0.62955 0.43721 0.7762 0.0
H314 H 0.51084 0.31615 0.82879 0.0
H315 H 0.37533 0.35455 0.81674 0.0
H316 H 0.27846 0.42035 0.81895 0.0
H317 H 0.14372 0.45994 0.80847 0.0
H318 H 0.23301 0.51606 0.73219 0.0
H319 H 0.36855 0.47065 0.74141 0.0
Dy320 Dy 0.16999 0.87635 0.53888 0.0
Dy321 Dy 1.01605 -0.04041 0.54744 0.0
C322 C 0.1492 0.92691 0.59142 0.0
O323 O 1.05515 0.8176 0.53131 0.0
O324 O 0.95943 0.87234 0.55386 0.0
O325 O 0.26795 0.83684 0.56186 0.0
O326 O 0.26637 0.82614 0.51927 0.0
O327 O 1.02364 0.92589 0.50514 0.0
O328 O 0.16398 0.91402 0.49961 0.0
O329 O 0.09728 0.02545 0.53093 0.0
O330 O 0.2153 -0.0283 0.53971 0.0
O331 O 0.92512 0.01935 0.53149 0.0
O332 O 0.91567 -0.00997 0.57236 0.0
C333 C 0.97798 0.82531 0.54069 0.0
O334 O 0.13064 0.87809 0.58019 0.0
O335 O 0.113 -0.02682 0.58113 0.0
C336 C 0.39507 0.85223 0.54019 0.0
C337 C 0.55008 0.91106 0.54124 0.0
C338 C 0.51842 0.88418 0.56415 0.0
C339 C 0.44175 0.8555 0.56366 0.0
C340 C 0.42654 0.87883 0.51718 0.0
C341 C 0.50348 0.90785 0.51772 0.0
C342 C 0.31146 0.8249 0.54084 0.0
C343 C 0.0904 0.92097 0.48973 0.0
C344 C 0.17754 0.02165 0.53344 0.0
C345 C 0.7917 -0.00756 0.54725 0.0
C346 C 0.63183 -0.05832 0.54222 0.0
C347 C 0.69074 -0.06366 0.52172 0.0
C348 C 0.77023 -0.03847 0.52422 0.0
C349 C 0.73267 -0.00162 0.56719 0.0
C350 C 0.65317 -0.02577 0.56465 0.0
C351 C 0.87715 0.01379 0.55218 0.0
H352 H 0.5534 0.88461 0.58249 0.0
H353 H 0.41901 0.83549 0.5817 0.0
H354 H 0.39162 0.87771 0.49883 0.0
H355 H 0.52582 0.92847 0.49986 0.0
H356 H 0.67664 0.91102 0.50425 0.0
H357 H 0.8154 -0.04476 0.50854 0.0
H358 H 0.74938 0.02198 0.58475 0.0
H359 H 0.60828 -0.01942 0.58035 0.0
Dy360 Dy 0.22609 0.22199 0.52966 0.0
Dy361 Dy 0.37774 0.14659 0.54936 0.0
C362 C 0.21221 0.17311 0.58647 0.0
O363 O 0.34378 0.28018 0.5252 0.0
O364 O 0.41956 0.23646 0.55753 0.0
O365 O 0.13184 0.28734 0.53666 0.0
O366 O 0.13457 0.24209 0.4993 0.0
O367 O 0.38943 0.17211 0.50539 0.0
O368 O 0.25209 0.17021 0.49535 0.0
O369 O 0.30408 0.07362 0.53532 0.0
O370 O 0.18262 0.12719 0.53478 0.0
O371 O 0.47372 0.08367 0.54069 0.0
O372 O 0.47825 0.13252 0.57736 0.0
C373 C 0.41204 0.27804 0.54025 0.0
O374 O 0.20806 0.22058 0.57254 0.0
O375 O 0.27331 0.13519 0.58143 0.0
C376 C 1.00614 0.24433 0.52166 0.0
C377 C 0.85045 0.18978 0.53278 0.0
C378 C 0.90917 0.20113 0.553 0.0
C379 C 0.98627 0.22628 0.54741 0.0
C380 C 0.94987 0.23212 0.50119 0.0
C381 C 0.87369 0.20425 0.50655 0.0
C382 C 0.08875 0.27043 0.51614 0.0
C383 C 0.32834 0.16972 0.48768 0.0
C384 C 0.2235 0.07668 0.53341 0.0
C385 C 0.60335 0.12413 0.55294 0.0
C386 C 0.76494 0.16605 0.53935 0.0
C387 C 0.69781 0.16944 0.52122 0.0
C388 C 0.61865 0.14777 0.52776 0.0
C389 C 0.66749 0.12421 0.57149 0.0
C390 C 0.74793 0.14188 0.56449 0.0
C391 C 0.52014 0.10157 0.56026 0.0
H392 H 0.89628 0.19291 0.57359 0.0
H393 H 1.02918 0.23342 0.56365 0.0
H394 H 0.96517 0.24371 0.481 0.0
H395 H 0.83371 0.19472 0.48993 0.0
H396 H 0.70473 0.18931 0.50198 0.0
H397 H 0.56908 0.15049 0.51321 0.0
H398 H 0.65594 0.10874 0.59129 0.0
H399 H 0.79617 0.13495 0.57899 0.0
Dy400 Dy 0.16163 0.22227 0.66494 0.0
Dy401 Dy 1.01126 0.14144 0.65263 0.0
C402 C 0.15684 0.17259 0.61045 0.0
O403 O 1.04462 0.27892 0.67271 0.0
O404 O 0.95986 0.22953 0.6446 0.0
O405 O 0.25761 0.27561 0.64759 0.0
O406 O 0.25712 0.26064 0.6899 0.0
O407 O 1.01537 0.16718 0.6966 0.0
O408 O 0.15559 0.17466 0.70154 0.0
O409 O 0.0905 0.072 0.66695 0.0
O410 O 0.20896 0.12746 0.66201 0.0
O411 O 0.91432 0.08463 0.66726 0.0
O412 O 0.9143 0.11208 0.62609 0.0
C413 C 0.97161 0.27365 0.66027 0.0
O414 O 0.14654 0.22212 0.62209 0.0
O415 O 0.10987 0.12885 0.61896 0.0
C416 C 0.38432 0.24416 0.66674 0.0
C417 C 0.54039 0.18804 0.66122 0.0
C418 C 0.49504 0.20605 0.63887 0.0
C419 C 0.41831 0.23386 0.64157 0.0
C420 C 0.4279 0.22421 0.68917 0.0
C421 C 0.50537 0.19645 0.68644 0.0
C422 C 0.30209 0.27321 0.66916 0.0
C423 C 0.08295 0.16821 0.71186 0.0
C424 C 0.17103 0.07656 0.6663 0.0
C425 C 0.78591 0.11564 0.64971 0.0
C426 C 0.62565 0.16357 0.65794 0.0
C427 C 0.65469 0.11789 0.67406 0.0
C428 C 0.73449 0.09454 0.67013 0.0
C429 C 0.75834 0.16308 0.63452 0.0
C430 C 0.67909 0.18644 0.63844 0.0
C431 C 0.87032 0.09112 0.64576 0.0
H432 H 0.51929 0.19927 0.61915 0.0
H433 H 0.38617 0.24785 0.62379 0.0
H434 H 0.403 0.23111 0.70882 0.0
H435 H 0.53902 0.18357 0.7041 0.0
H436 H 0.6153 0.09932 0.6893 0.0
H437 H 0.75539 0.05912 0.68269 0.0
H438 H 0.79814 0.18283 0.61972 0.0
H439 H 0.66018 0.22295 0.62624 0.0
Dy440 Dy 0.22146 0.87677 0.66721 0.0
Dy441 Dy 0.37365 -0.04462 0.64963 0.0
C442 C 0.21765 0.9255 0.61185 0.0
O443 O 0.33785 0.81848 0.67331 0.0
O444 O 0.41973 0.86513 0.64316 0.0
O445 O 0.12512 0.81847 0.65361 0.0
O446 O 0.12412 0.84823 0.69408 0.0
O447 O 0.38397 0.92731 0.69287 0.0
O448 O 0.24702 0.91947 0.70434 0.0
O449 O 0.29856 0.02531 0.66604 0.0
O450 O 0.17771 -0.02846 0.66342 0.0
O451 O 0.46809 0.0184 0.65966 0.0
O452 O 0.4727 -0.02602 0.62178 0.0
C453 C 0.40942 0.82258 0.65998 0.0
O454 O 0.22897 0.87631 0.62393 0.0
O455 O 0.2682 -0.03129 0.61841 0.0
C456 C 0.99714 0.85487 0.67023 0.0
C457 C 0.84018 0.90807 0.66169 0.0
C458 C 0.89038 0.89155 0.64021 0.0
C459 C 0.9679 0.86539 0.6444 0.0
C460 C 0.94784 0.87258 0.69176 0.0
C461 C 0.86992 0.89875 0.68751 0.0
C462 C 0.07995 0.82767 0.6746 0.0
C463 C 0.32423 0.9247 0.71099 0.0
C464 C 0.21777 0.02188 0.66654 0.0
C465 C 0.59725 -0.01905 0.64627 0.0
C466 C 0.7563 -0.06644 0.65693 0.0
C467 C 0.68647 0.91592 0.67182 0.0
C468 C 0.60729 -0.06108 0.66629 0.0
C469 C 0.66672 -0.00061 0.6321 0.0
C470 C 0.74532 -0.02484 0.63689 0.0
C471 C 0.51413 0.00377 0.63949 0.0
H472 H 0.86884 0.8975 0.62007 0.0
H473 H 1.00427 0.85273 0.62731 0.0
H474 H 0.96899 0.86545 0.71186 0.0
H475 H 0.83239 0.91102 0.70436 0.0
H476 H 0.69258 0.88332 0.68721 0.0
H477 H 0.55395 0.92367 0.67751 0.0
H478 H 0.65967 0.03337 0.61767 0.0
H479 H 0.79821 -0.00992 0.62543 0.0
Dy480 Dy 0.13336 0.90005 0.40029 0.0
Dy481 Dy 0.98117 -0.02425 0.42046 0.0
C482 C 0.08024 0.91714 0.46125 0.0
O483 O 1.0565 0.82677 0.41257 0.0
O484 O 0.93591 0.8815 0.41363 0.0
O485 O 0.22789 0.83631 0.40946 0.0
O486 O 0.23648 0.88674 0.37323 0.0
O487 O 0.97622 -0.01753 0.37739 0.0
O488 O 1.02862 0.89337 0.36828 0.0
O489 O 0.1005 0.03228 0.4257 0.0
O490 O 0.17225 -0.00949 0.39203 0.0
O491 O 0.88284 0.03759 0.41278 0.0
O492 O 0.89194 -0.00207 0.4513 0.0
C493 C 0.97589 0.83043 0.41454 0.0
O494 O 0.14238 0.92334 0.44425 0.0
O495 O 1.00477 0.91749 0.45288 0.0
C496 C 0.35863 0.87538 0.39889 0.0
C497 C 0.51801 0.91747 0.41447 0.0
C498 C 0.44453 -0.0607 0.42622 0.0
C499 C 0.36575 0.91846 0.41849 0.0
C500 C 0.43073 0.85332 0.38738 0.0
C501 C 0.50908 0.87376 0.39519 0.0
C502 C 0.27616 0.8541 0.39034 0.0
C503 C 0.97394 -0.06434 0.36317 0.0
C504 C 0.16712 0.03093 0.40986 0.0
C505 C 0.76032 -0.00447 0.43026 0.0
C506 C 0.60294 -0.05801 0.42079 0.0
C507 C 0.6667 -0.05883 0.40158 0.0
C508 C 0.74448 -0.03401 0.40651 0.0
C509 C 0.69854 -0.00442 0.44992 0.0
C510 C 0.62093 -0.03145 0.44534 0.0
C511 C 0.84286 0.02332 0.43429 0.0
H512 H 0.44706 -0.02637 0.44079 0.0
H513 H 0.31027 -0.06345 0.42758 0.0
H514 H 0.42637 0.82094 0.37198 0.0
H515 H 0.56258 0.8564 0.38515 0.0
H516 H 0.65676 0.92331 0.38212 0.0
H517 H 0.79137 -0.0361 0.3911 0.0
H518 H 0.70997 0.01684 0.46866 0.0
H519 H 0.57471 -0.03024 0.46086 0.0
Dy520 Dy 0.77179 0.71034 0.39959 0.0
Dy521 Dy 0.92155 0.62934 0.41008 0.0
C522 C 0.84138 0.67443 0.45897 0.0
O523 O 0.84856 0.77939 0.41557 0.0
O524 O 0.96777 0.72486 0.40985 0.0
O525 O 0.67195 0.76688 0.41185 0.0
O526 O 0.67808 0.73556 0.37119 0.0
O527 O 0.89233 0.63372 0.36779 0.0
O528 O 0.8704 0.72829 0.36718 0.0
O529 O 0.80722 0.57165 0.41949 0.0
O530 O 0.71882 0.62206 0.39303 0.0
O531 O 1.01359 0.58304 0.38721 0.0
O532 O 1.02015 0.58213 0.42999 0.0
C533 C 0.92926 0.77543 0.4146 0.0
O534 O 0.77593 0.68164 0.44301 0.0
O535 O 0.9152 0.66544 0.44959 0.0
C536 C 0.5462 0.73299 0.39241 0.0
C537 C 0.38399 0.6849 0.39671 0.0
C538 C 0.42668 0.70542 0.41924 0.0
C539 C 0.50612 0.73004 0.41705 0.0
C540 C 0.50522 0.71085 0.37016 0.0
C541 C 0.42444 0.68857 0.37206 0.0
C542 C 0.63119 0.75752 0.38985 0.0
C543 C 0.91007 0.68357 0.35721 0.0
C544 C 0.73173 0.57831 0.40893 0.0
C545 C 0.14399 0.60156 0.40575 0.0
C546 C 0.29933 0.65805 0.39911 0.0
C547 C 0.27184 0.61578 0.38086 0.0
C548 C 0.1945 0.58865 0.38396 0.0
C549 C 0.16969 0.64465 0.42362 0.0
C550 C 0.24596 0.67299 0.42018 0.0
C551 C 1.0607 0.57503 0.40783 0.0
H552 H 0.39993 0.70173 0.43878 0.0
H553 H 0.53644 0.746 0.43476 0.0
H554 H 0.53601 0.71055 0.35127 0.0
H555 H 0.39434 0.67443 0.35403 0.0
H556 H 0.31059 0.6018 0.36458 0.0
H557 H 0.17466 0.55674 0.3695 0.0
H558 H 0.13029 0.65735 0.44002 0.0
H559 H 0.2622 0.70697 0.43403 0.0
Dy560 Dy 0.12809 0.72058 0.29697 0.0
Dy561 Dy 0.97609 0.64367 0.27834 0.0
C562 C 1.06972 0.70262 0.23637 0.0
O563 O 1.05011 0.79334 0.28494 0.0
O564 O 0.93002 0.73804 0.28481 0.0
O565 O 0.22271 0.78361 0.287 0.0
O566 O 0.23087 0.73587 0.32398 0.0
O567 O 0.97686 0.63728 0.32141 0.0
O568 O 1.02466 0.72787 0.32933 0.0
O569 O 0.09549 0.58748 0.27268 0.0
O570 O 0.16857 0.63064 0.30571 0.0
O571 O 0.87744 0.58338 0.28771 0.0
O572 O 0.88618 0.61802 0.24818 0.0
C573 C 0.96943 0.78932 0.28349 0.0
O574 O 0.13374 0.69734 0.25283 0.0
O575 O 0.99515 0.70132 0.24544 0.0
C576 C 0.35337 0.74571 0.29854 0.0
C577 C 0.51306 0.70325 0.28387 0.0
C578 C 0.4401 0.68094 0.27199 0.0
C579 C 0.3611 0.70202 0.27925 0.0
C580 C 0.42504 0.76795 0.31032 0.0
C581 C 0.50363 0.74734 0.30292 0.0
C582 C 0.27067 0.76738 0.30651 0.0
C583 C 0.97242 0.68464 0.33516 0.0
C584 C 0.16274 0.58945 0.28828 0.0
C585 C 0.75501 0.62417 0.26945 0.0
C586 C 0.59803 0.67872 0.27797 0.0
C587 C 0.66037 0.67868 0.29766 0.0
C588 C 0.73806 0.65341 0.29319 0.0
C589 C 0.69463 0.62521 0.2493 0.0
C590 C 0.61729 0.65298 0.25336 0.0
C591 C 0.83712 0.59536 0.26596 0.0
H592 H 0.44332 0.64613 0.25766 0.0
H593 H 0.30592 0.68371 0.27003 0.0
H594 H 0.42017 0.80095 0.32545 0.0
H595 H 0.55706 0.76524 0.31282 0.0
H596 H 0.64924 0.69625 0.31712 0.0
H597 H 0.7838 0.65481 0.30899 0.0
H598 H 0.70684 0.60405 0.23062 0.0
H599 H 0.57221 0.65308 0.2374 0.0
Dy600 Dy 0.76769 0.91051 0.30018 0.0
Dy601 Dy 0.9167 -0.00967 0.28709 0.0
C602 C 0.82851 -0.05552 0.23977 0.0
O603 O 0.84197 0.84065 0.28363 0.0
O604 O 0.96208 0.89479 0.28788 0.0
O605 O 0.66819 0.85186 0.28984 0.0
O606 O 0.67463 0.88924 0.3294 0.0
O607 O 0.8968 -0.01298 0.32995 0.0
O608 O 0.86924 0.89301 0.3318 0.0
O609 O 0.8021 0.04802 0.27807 0.0
O610 O 0.71623 -0.00041 0.30601 0.0
O611 O 1.00874 0.04187 0.30763 0.0
O612 O 1.01612 0.03185 0.26513 0.0
C613 C 0.92276 0.8443 0.28373 0.0
O614 O 0.76545 -0.06212 0.25663 0.0
O615 O 0.90376 -0.04699 0.24803 0.0
C616 C 0.54271 0.88882 0.30806 0.0
C617 C 0.37973 -0.06486 0.3023 0.0
C618 C 0.42355 0.91288 0.28032 0.0
C619 C 0.50325 0.88907 0.28327 0.0
C620 C 0.50133 0.91364 0.3296 0.0
C621 C 0.42005 -0.06531 0.32706 0.0
C622 C 0.62757 0.86455 0.31148 0.0
C623 C 0.91308 -0.06291 0.3407 0.0
C624 C 0.72763 0.04219 0.28934 0.0
C625 C 0.13904 0.01625 0.29045 0.0
C626 C 0.29434 -0.03929 0.29909 0.0
C627 C 0.26392 0.0028 0.31697 0.0
C628 C 0.1866 0.02931 0.31291 0.0
C629 C 0.16722 -0.02701 0.27306 0.0
C630 C 0.24322 -0.05501 0.27755 0.0
C631 C 1.05659 0.04353 0.28688 0.0
H632 H 0.39761 0.91442 0.26064 0.0
H633 H 0.5341 0.87143 0.26597 0.0
H634 H 0.53228 0.91724 0.34838 0.0
H635 H 0.38972 -0.04951 0.34474 0.0
H636 H 0.30035 0.01744 0.33365 0.0
H637 H 0.16481 0.06129 0.32707 0.0
H638 H 0.13017 -0.03996 0.25616 0.0
H639 H 0.26108 0.91082 0.26399 0.0
Dy640 Dy 0.6686 0.37627 0.53902 0.0
Dy641 Dy 0.51507 0.45979 0.54761 0.0
C642 C 0.64737 0.42634 0.59161 0.0
O643 O 0.55353 0.31787 0.53121 0.0
O644 O 0.45841 0.37252 0.55401 0.0
O645 O 0.76599 0.3365 0.56217 0.0
O646 O 0.76513 0.32594 0.51956 0.0
O647 O 0.52291 0.4267 0.50522 0.0
O648 O 0.66321 0.41419 0.4998 0.0
O649 O 0.59695 0.52582 0.53149 0.0
O650 O 0.71462 0.47144 0.54 0.0
O651 O 0.4232 0.51915 0.53185 0.0
O652 O 0.41571 0.49051 0.57286 0.0
C653 C 0.47646 0.32565 0.54066 0.0
O654 O 0.62874 0.37767 0.58028 0.0
O655 O 0.6117 0.47283 0.58138 0.0
C656 C 0.89345 0.35183 0.54077 0.0
C657 C 1.04846 0.41069 0.54239 0.0
C658 C 1.01745 0.38182 0.5649 0.0
C659 C 0.94068 0.35329 0.56415 0.0
C660 C 0.92415 0.38043 0.51815 0.0
C661 C 1.00096 0.40958 0.51898 0.0
C662 C 0.80982 0.32456 0.54122 0.0
C663 C 0.58978 0.42157 0.48987 0.0
C664 C 0.67724 0.52163 0.53391 0.0
C665 C 0.29048 0.49201 0.54831 0.0
C666 C 0.13051 0.44103 0.54359 0.0
C667 C 0.18711 0.43924 0.5223 0.0
C668 C 0.26648 0.46461 0.52462 0.0
C669 C 0.23396 0.49408 0.56916 0.0
C670 C 0.15442 0.46995 0.5668 0.0
C671 C 0.37611 0.51373 0.55276 0.0
H672 H 1.05299 0.38046 0.58313 0.0
H673 H 0.91838 0.33183 0.5819 0.0
H674 H 0.88861 0.38093 0.49992 0.0
H675 H 1.02244 0.43195 0.50144 0.0
H676 H 0.17131 0.41661 0.50422 0.0
H677 H 0.30961 0.46124 0.5082 0.0
H678 H 0.25223 0.51516 0.58723 0.0
H679 H 0.11156 0.47371 0.58321 0.0
Dy680 Dy 0.72743 0.72162 0.52965 0.0
Dy681 Dy 0.88002 0.64589 0.54892 0.0
C682 C 0.71532 0.67247 0.58662 0.0
O683 O 0.84508 0.77994 0.52542 0.0
O684 O 0.92235 0.73552 0.55726 0.0
O685 O 0.63335 0.78703 0.53676 0.0
O686 O 0.63614 0.74215 0.4993 0.0
O687 O 0.89044 0.67199 0.50505 0.0
O688 O 0.75291 0.66958 0.49535 0.0
O689 O 0.80449 0.57304 0.53559 0.0
O690 O 0.68342 0.6271 0.53499 0.0
O691 O 0.97571 0.5832 0.53961 0.0
O692 O 0.9811 0.63082 0.5766 0.0
C693 C 0.91378 0.77758 0.54028 0.0
O694 O 0.7083 0.71938 0.57242 0.0
O695 O 0.77752 0.63539 0.58157 0.0
C696 C 0.50753 0.74439 0.5216 0.0
C697 C 0.35196 0.68966 0.53239 0.0
C698 C 0.40945 0.70192 0.55282 0.0
C699 C 0.48659 0.72724 0.54741 0.0
C700 C 0.45209 0.73147 0.50097 0.0
C701 C 0.37587 0.70357 0.5062 0.0
C702 C 0.59031 0.77036 0.51619 0.0
C703 C 0.82897 0.66945 0.48749 0.0
C704 C 0.72386 0.57643 0.5338 0.0
C705 C 0.10573 0.62271 0.55201 0.0
C706 C 0.26689 0.66537 0.53871 0.0
C707 C 0.19908 0.67135 0.521 0.0
C708 C 0.11997 0.64938 0.52739 0.0
C709 C 0.17092 0.61988 0.57016 0.0
C710 C 0.25114 0.63813 0.56325 0.0
C711 C 1.02249 0.6002 0.55927 0.0
H712 H 0.39512 0.69423 0.57338 0.0
H713 H 0.5287 0.7351 0.56379 0.0
H714 H 0.46811 0.74251 0.48079 0.0
H715 H 0.33626 0.69335 0.48954 0.0
H716 H 0.20566 0.69367 0.50229 0.0
H717 H 1.06961 0.65428 0.51323 0.0
H718 H 0.16015 0.60202 0.58956 0.0
H719 H 0.30039 0.62957 0.57729 0.0
Dy720 Dy 0.66317 0.72217 0.6667 0.0
Dy721 Dy 0.51232 0.64338 0.65257 0.0
C722 C 0.66382 0.67265 0.61133 0.0
O723 O 0.54546 0.77893 0.67373 0.0
O724 O 0.46377 0.73179 0.64404 0.0
O725 O 0.75923 0.78012 0.65271 0.0
O726 O 0.75675 0.75484 0.69398 0.0
O727 O 0.51443 0.66837 0.69669 0.0
O728 O 0.65439 0.67059 0.70204 0.0
O729 O 0.59042 0.57241 0.66601 0.0
O730 O 0.70989 0.62742 0.66271 0.0
O731 O 0.41553 0.58557 0.66638 0.0
O732 O 0.4138 0.61736 0.62587 0.0
C733 C 0.47406 0.77498 0.66028 0.0
O734 O 0.66056 0.72195 0.6236 0.0
O735 O 0.61086 0.63123 0.61888 0.0
C736 C 0.88438 0.74287 0.67089 0.0
C737 C 1.03957 0.68649 0.66387 0.0
C738 C 0.98861 0.69964 0.64206 0.0
C739 C 0.91215 0.72739 0.64549 0.0
C740 C 0.93327 0.7273 0.69291 0.0
C741 C 1.01032 0.69934 0.68944 0.0
C742 C 0.80276 0.77221 0.67423 0.0
C743 C 0.58134 0.66656 0.71221 0.0
C744 C 0.67103 0.5765 0.66601 0.0
C745 C 0.28584 0.61751 0.64991 0.0
C746 C 0.12473 0.66281 0.65951 0.0
C747 C 0.15858 0.62007 0.67632 0.0
C748 C 0.23864 0.59791 0.67164 0.0
C749 C 0.253 0.66163 0.63373 0.0
C750 C 0.17329 0.68366 0.63835 0.0
C751 C 0.37068 0.59422 0.64521 0.0
H752 H 1.00831 0.68909 0.62219 0.0
H753 H 0.87546 0.73733 0.62804 0.0
H754 H 0.91277 0.73791 0.71271 0.0
H755 H 1.04832 0.69002 0.70667 0.0
H756 H 0.12278 0.60298 0.69276 0.0
H757 H 0.26311 0.56462 0.68475 0.0
H758 H 0.28902 0.67984 0.61763 0.0
H759 H 0.15025 0.71775 0.62542 0.0
Dy760 Dy 0.71992 0.37676 0.66853 0.0
Dy761 Dy 0.87269 0.45399 0.64983 0.0
C762 C 0.71382 0.42448 0.6126 0.0
O763 O 0.83645 0.31805 0.67398 0.0
O764 O 0.91684 0.36352 0.64304 0.0
O765 O 0.62299 0.31648 0.65735 0.0
O766 O 0.62422 0.3522 0.6968 0.0
O767 O 0.88441 0.42592 0.69302 0.0
O768 O 0.74772 0.42212 0.7048 0.0
O769 O 0.79801 0.52453 0.66598 0.0
O770 O 0.67662 0.47135 0.66365 0.0
O771 O 0.96678 0.51751 0.65955 0.0
O772 O 0.97276 0.47131 0.62217 0.0
C773 C 0.90697 0.32127 0.66003 0.0
O774 O 0.72141 0.37552 0.6252 0.0
O775 O 0.76719 0.46661 0.61856 0.0
C776 C 0.49631 0.35574 0.67362 0.0
C777 C 0.33936 0.40856 0.66448 0.0
C778 C 0.39364 0.3967 0.64334 0.0
C779 C 0.47127 0.37102 0.64785 0.0
C780 C 0.44317 0.36885 0.69489 0.0
C781 C 0.36524 0.39487 0.69034 0.0
C782 C 0.579 0.32875 0.67828 0.0
C783 C 0.82517 0.42529 0.7113 0.0
C784 C 0.71718 0.52158 0.66642 0.0
C785 C 0.09639 0.47964 0.64708 0.0
C786 C 0.25535 0.43358 0.65919 0.0
C787 C 0.184 0.41361 0.67269 0.0
C788 C 0.10496 0.436 0.66644 0.0
C789 C 0.16722 0.50047 0.63433 0.0
C790 C 0.24574 0.47686 0.63982 0.0
C791 C 1.01354 0.50203 0.63969 0.0
H792 H 0.37536 0.40585 0.62313 0.0
H793 H 0.51093 0.36231 0.63097 0.0
H794 H 0.46142 0.35823 0.71497 0.0
H795 H 0.3247 0.40346 0.70698 0.0
H796 H 0.18882 0.37965 0.6875 0.0
H797 H 1.05058 0.41902 0.6766 0.0
H798 H 0.16138 0.53544 0.6203 0.0
H799 H 0.2995 0.49332 0.62927 0.0
Dy800 Dy 0.6331 0.40012 0.40045 0.0
Dy801 Dy 0.48083 0.47594 0.42047 0.0
C802 C 0.57979 0.41768 0.46138 0.0
O803 O 0.55626 0.32693 0.41282 0.0
O804 O 0.43564 0.38164 0.4137 0.0
O805 O 0.72747 0.33634 0.40972 0.0
O806 O 0.73628 0.38659 0.37345 0.0
O807 O 0.47622 0.48256 0.37741 0.0
O808 O 0.52845 0.39337 0.36841 0.0
O809 O 0.60015 0.53253 0.42563 0.0
O810 O 0.67215 0.49047 0.39207 0.0
O811 O 0.38236 0.5376 0.41269 0.0
O812 O 0.39161 0.49835 0.45129 0.0
C813 C 0.47564 0.33058 0.41471 0.0
O814 O 0.64201 0.42373 0.44439 0.0
O815 O 0.50436 0.4179 0.45297 0.0
C816 C 0.85832 0.37522 0.39915 0.0
C817 C 1.01771 0.41727 0.41471 0.0
C818 C 0.94428 0.43912 0.42647 0.0
C819 C 0.86548 0.4183 0.41875 0.0
C820 C 0.93039 0.35312 0.38764 0.0
C821 C 1.00876 0.37353 0.39545 0.0
C822 C 0.77583 0.35399 0.3906 0.0
C823 C 0.47389 0.4357 0.36323 0.0
C824 C 0.66683 0.53107 0.40981 0.0
C825 C 0.25992 0.49565 0.43028 0.0
C826 C 0.10262 0.44186 0.42097 0.0
C827 C 0.16616 0.4412 0.40168 0.0
C828 C 0.24391 0.46611 0.40655 0.0
C829 C 0.19832 0.49558 0.45001 0.0
C830 C 0.12078 0.46837 0.44552 0.0
C831 C 0.34245 0.52352 0.43423 0.0
H832 H 0.94687 0.47347 0.44103 0.0
H833 H 0.81002 0.43641 0.42784 0.0
H834 H 0.92599 0.32075 0.37223 0.0
H835 H 1.06226 0.35615 0.38542 0.0
H836 H 0.15604 0.42337 0.38222 0.0
H837 H 0.29064 0.4641 0.39108 0.0
H838 H 0.20989 0.51683 0.46874 0.0
H839 H 1.07479 0.46927 0.46112 0.0
Dy840 Dy 0.27198 0.21025 0.39966 0.0
Dy841 Dy 0.42167 0.12943 0.41031 0.0
C842 C 0.3412 0.17448 0.45916 0.0
O843 O 0.34839 0.27945 0.41566 0.0
O844 O 0.46772 0.225 0.41007 0.0
O845 O 0.17212 0.26688 0.41181 0.0
O846 O 0.17827 0.2352 0.37122 0.0
O847 O 0.39299 0.13368 0.36798 0.0
O848 O 0.37067 0.22822 0.36729 0.0
O849 O 0.30735 0.07166 0.41966 0.0
O850 O 0.21911 0.12194 0.39309 0.0
O851 O 0.51368 0.08293 0.38751 0.0
O852 O 0.52038 0.08248 0.43028 0.0
C853 C 0.42909 0.27555 0.41476 0.0
O854 O 0.27595 0.18173 0.44312 0.0
O855 O 0.41509 0.1653 0.44988 0.0
C856 C 1.04641 0.23281 0.39244 0.0
C857 C 0.88421 0.18478 0.3968 0.0
C858 C 0.92712 0.20509 0.41933 0.0
C859 C 1.00656 0.22968 0.41711 0.0
C860 C 1.00522 0.21085 0.37019 0.0
C861 C 0.92443 0.18859 0.37212 0.0
C862 C 0.13137 0.25733 0.38983 0.0
C863 C 0.41056 0.18353 0.35736 0.0
C864 C 0.23197 0.07822 0.40901 0.0
C865 C 0.64413 0.10169 0.40598 0.0
C866 C 0.79952 0.15803 0.39924 0.0
C867 C 0.77186 0.11579 0.38101 0.0
C868 C 0.69449 0.08873 0.38415 0.0
C869 C 0.67001 0.14477 0.42382 0.0
C870 C 0.74631 0.17304 0.42034 0.0
C871 C 0.56086 0.07517 0.40813 0.0
H872 H 0.90053 0.20126 0.43889 0.0
H873 H 1.03705 0.24547 0.43483 0.0
H874 H 1.03585 0.21069 0.35127 0.0
H875 H 0.89414 0.17458 0.35411 0.0
H876 H 0.81051 0.10179 0.3647 0.0
H877 H 0.67451 0.05682 0.36971 0.0
H878 H 0.63074 0.15751 0.44026 0.0
H879 H 0.76271 0.207 0.43418 0.0
Dy880 Dy 0.62813 0.22056 0.29696 0.0
Dy881 Dy 0.47609 0.1437 0.27832 0.0
C882 C 0.56975 0.20263 0.23635 0.0
O883 O 0.5501 0.29333 0.28497 0.0
O884 O 0.43 0.23804 0.28484 0.0
O885 O 0.72273 0.28359 0.28698 0.0
O886 O 0.73096 0.23583 0.32395 0.0
O887 O 0.47653 0.13731 0.3214 0.0
O888 O 0.52485 0.22778 0.32936 0.0
O889 O 0.59549 0.0875 0.27267 0.0
O890 O 0.66859 0.13063 0.30571 0.0
O891 O 0.37745 0.08333 0.28761 0.0
O892 O 0.38626 0.11818 0.24812 0.0
C893 C 0.46942 0.28931 0.28354 0.0
O894 O 0.63376 0.19731 0.25281 0.0
O895 O 0.49519 0.2014 0.24544 0.0
C896 C 0.85342 0.24571 0.2985 0.0
C897 C 1.01311 0.20327 0.28381 0.0
C898 C 0.94015 0.18101 0.27191 0.0
C899 C 0.86115 0.20208 0.27918 0.0
C900 C 0.92509 0.26789 0.3103 0.0
C901 C 1.00368 0.24731 0.30288 0.0
C902 C 0.77072 0.26736 0.30648 0.0
C903 C 0.47248 0.18463 0.33519 0.0
C904 C 0.66273 0.08944 0.28827 0.0
C905 C 0.25505 0.12419 0.26936 0.0
C906 C 0.09808 0.17875 0.2779 0.0
C907 C 0.16046 0.17871 0.29759 0.0
C908 C 0.23814 0.15346 0.29311 0.0
C909 C 0.19464 0.12521 0.24923 0.0
C910 C 0.11731 0.15299 0.25329 0.0
C911 C 0.33718 0.09541 0.26586 0.0
H912 H 0.94337 0.14623 0.25756 0.0
H913 H 0.80598 0.18381 0.26994 0.0
H914 H 0.92021 0.30079 0.32547 0.0
H915 H 1.05711 0.26518 0.3128 0.0
H916 H 0.14935 0.19628 0.31705 0.0
H917 H 0.28391 0.15488 0.3089 0.0
H918 H 0.20683 0.10404 0.23055 0.0
H919 H 1.07222 0.15308 0.23734 0.0
Dy920 Dy 0.26766 0.41049 0.30024 0.0
Dy921 Dy 0.41671 0.49031 0.28713 0.0
C922 C 0.32847 0.44442 0.23982 0.0
O923 O 0.34195 0.34064 0.28369 0.0
O924 O 0.46207 0.39478 0.28794 0.0
O925 O 0.16821 0.35177 0.28995 0.0
O926 O 0.1746 0.38932 0.32948 0.0
O927 O 0.39678 0.48701 0.32999 0.0
O928 O 0.36922 0.39301 0.33186 0.0
O929 O 0.30212 0.54802 0.27811 0.0
O930 O 0.21614 0.49958 0.30602 0.0
O931 O 0.50878 0.54185 0.30766 0.0
O932 O 0.51615 0.53179 0.26516 0.0
C933 C 0.42274 0.34429 0.28379 0.0
O934 O 0.26541 0.43782 0.25669 0.0
O935 O 0.40372 0.45297 0.24808 0.0
C936 C 1.04269 0.38875 0.30814 0.0
C937 C 0.87974 0.43507 0.30235 0.0
C938 C 0.92376 0.41309 0.28035 0.0
C939 C 1.00346 0.38929 0.28331 0.0
C940 C 1.00107 0.41325 0.32971 0.0
C941 C 0.91981 0.43431 0.32714 0.0
C942 C 0.12757 0.36453 0.31158 0.0
C943 C 0.41307 0.43708 0.34075 0.0
C944 C 0.22763 0.54219 0.28936 0.0
C945 C 0.63908 0.5162 0.29049 0.0
C946 C 0.79438 0.46067 0.29913 0.0
C947 C 0.7639 0.50267 0.31704 0.0
C948 C 0.68658 0.52919 0.31296 0.0
C949 C 0.66736 0.47304 0.27306 0.0
C950 C 0.74336 0.44504 0.27755 0.0
C951 C 0.55662 0.54348 0.28692 0.0
H952 H 0.89798 0.41487 0.26065 0.0
H953 H 1.0345 0.37189 0.266 0.0
H954 H 1.03182 0.41657 0.34854 0.0
H955 H 0.88927 0.44989 0.34484 0.0
H956 H 0.80029 0.51723 0.33373 0.0
H957 H 0.66474 0.56111 0.32715 0.0
H958 H 0.63038 0.46016 0.25613 0.0
H959 H 0.76132 0.41095 0.26395 0.0
Dy960 Dy 0.64655 0.88653 0.04076 0.0
Dy961 Dy 0.4971 -0.03023 0.04681 0.0
C962 C 0.62688 -0.05743 0.09201 0.0
O963 O 0.53231 0.82869 0.03106 0.0
O964 O 0.43973 0.8831 0.05418 0.0
O965 O 0.73893 0.84816 0.06653 0.0
O966 O 0.74434 0.83286 0.02434 0.0
O967 O 0.51135 -0.05578 0.00312 0.0
O968 O 0.65003 0.9206 0.00083 0.0
O969 O 0.57689 0.03741 0.03138 0.0
O970 O 0.69444 -0.01789 0.0391 0.0
O971 O 0.39619 0.02181 0.03132 0.0
O972 O 0.40423 0.00337 0.07353 0.0
C973 C 0.45518 0.83692 0.04018 0.0
O974 O 0.60624 0.89294 0.08193 0.0
O975 O 0.59322 -0.01216 0.08029 0.0
C976 C 0.86917 0.85799 0.04696 0.0
C977 C 1.0254 0.91501 0.05059 0.0
C978 C 1.00289 0.87095 0.06878 0.0
C979 C 0.92505 0.8437 0.06725 0.0
C980 C 0.88995 0.90259 0.02915 0.0
C981 C 0.96662 0.93117 0.03112 0.0
C982 C 0.78516 0.83223 0.04674 0.0
C983 C 0.58091 -0.06519 -0.0107 0.0
C984 C 0.65737 0.03269 0.03304 0.0
C985 C 0.27133 -0.00631 0.053 0.0
C986 C 0.10989 -0.05703 0.05152 0.0
C987 C 0.14587 -0.03235 0.02861 0.0
C988 C 0.22481 -0.00645 0.02947 0.0
C989 C 0.2369 -0.0322 0.07562 0.0
C990 C 0.15666 -0.0559 0.07512 0.0
C991 C 0.35628 0.01914 0.05379 0.0
H992 H 1.0456 0.85593 0.08389 0.0
H993 H 0.90886 0.8108 0.08178 0.0
H994 H 0.84611 0.91646 0.01407 0.0
H995 H 0.97864 -0.03349 0.01747 0.0
H996 H 0.11434 -0.03366 0.00972 0.0
H997 H 0.24984 0.01273 0.01156 0.0
H998 H 0.27223 -0.03439 0.09374 0.0
H999 H 0.13198 0.92692 0.09343 0.0
Dy1000 Dy 0.70453 0.23267 0.02742 0.0
Dy1001 Dy 0.85741 0.15784 0.0503 0.0
C1002 C 0.69172 0.1902 0.08464 0.0
O1003 O 0.82255 0.29149 0.02398 0.0
O1004 O 0.89553 0.24907 0.05761 0.0
O1005 O 0.60686 0.29616 0.03329 0.0
O1006 O 0.61216 0.24873 -0.00328 0.0
O1007 O 0.87556 0.18491 0.00731 0.0
O1008 O 0.74116 0.18287 -0.00662 0.0
O1009 O 0.7846 0.08516 0.03479 0.0
O1010 O 0.66258 0.13812 0.03391 0.0
O1011 O 0.95207 0.0931 0.04301 0.0
O1012 O 0.95858 0.14622 0.07836 0.0
C1013 C 0.88962 0.2898 0.03975 0.0
O1014 O 0.69547 0.23741 0.07055 0.0
O1015 O 0.74859 0.14892 0.08061 0.0
C1016 C 0.48204 0.25238 0.01813 0.0
C1017 C 0.32499 0.20021 0.02959 0.0
C1018 C 0.39096 0.19907 0.0481 0.0
C1019 C 0.46855 0.22334 0.04218 0.0
C1020 C 0.41802 0.25261 -0.00085 0.0
C1021 C 0.34058 0.22627 0.00471 0.0
C1022 C 0.56502 0.27829 0.01271 0.0
C1023 C 0.81949 0.18258 -0.01185 0.0
C1024 C 0.70388 0.08778 0.03263 0.0
C1025 C 0.08175 0.1342 0.05325 0.0
C1026 C 0.24039 0.17634 0.03683 0.0
C1027 C 0.16621 0.19833 0.02549 0.0
C1028 C 0.08789 0.17775 0.03376 0.0
C1029 C 0.15458 0.11153 0.06414 0.0
C1030 C 0.23255 0.13263 0.05626 0.0
C1031 C 0.99945 0.11267 0.06198 0.0
H1032 H 0.38301 0.18124 0.06771 0.0
H1033 H 0.51738 0.22105 0.05699 0.0
H1034 H 0.42788 0.27299 -0.01993 0.0
H1035 H 0.29289 0.22706 -0.01046 0.0
H1036 H 0.16781 0.23252 0.01078 0.0
H1037 H 1.03205 0.19615 0.025 0.0
H1038 H 0.15116 0.0777 0.07889 0.0
H1039 H 0.28661 0.1149 0.06598 0.0
Dy1040 Dy 0.64592 0.24503 0.15716 0.0
Dy1041 Dy 0.49611 0.1626 0.15009 0.0
C1042 C 0.62596 0.19008 0.10569 0.0
O1043 O 0.53169 0.30283 0.16693 0.0
O1044 O 0.43942 0.24966 0.14298 0.0
O1045 O 0.73818 0.284 0.13164 0.0
O1046 O 0.74382 0.29811 0.17395 0.0
O1047 O 0.50844 0.19262 0.19302 0.0
O1048 O 0.64838 0.21021 0.19699 0.0
O1049 O 0.57425 0.09492 0.16653 0.0
O1050 O 0.69255 0.14926 0.15871 0.0
O1051 O 0.39567 0.10977 0.16523 0.0
O1052 O 0.40316 0.13006 0.12313 0.0
C1053 C 0.45468 0.29511 0.15755 0.0
O1054 O 0.60534 0.23951 0.11595 0.0
O1055 O 0.59268 0.14457 0.11717 0.0
C1056 C 0.86833 0.27364 0.15116 0.0
C1057 C 1.02461 0.21702 0.14709 0.0
C1058 C 1.00152 0.26142 0.12912 0.0
C1059 C 0.92365 0.2884 0.13084 0.0
C1060 C 0.8895 0.2287 0.16873 0.0
C1061 C 0.96619 0.20027 0.16654 0.0
C1062 C 0.78445 0.29937 0.15154 0.0
C1063 C 0.57677 0.19986 0.20769 0.0
C1064 C 0.65479 0.09902 0.16491 0.0
C1065 C 0.27079 0.13901 0.14388 0.0
C1066 C 0.10929 0.18937 0.14593 0.0
C1067 C 0.145 0.16277 0.16846 0.0
C1068 C 0.22396 0.13703 0.16729 0.0
C1069 C 0.2371 0.16741 0.1218 0.0
C1070 C 0.15673 0.19065 0.12248 0.0
C1071 C 0.3555 0.11346 0.14278 0.0
H1072 H 1.04373 0.27712 0.11404 0.0
H1073 H 0.90706 0.32156 0.11648 0.0
H1074 H 0.84595 0.21445 0.18382 0.0
H1075 H 0.97839 0.16466 0.18001 0.0
H1076 H 0.11327 0.16228 0.1873 0.0
H1077 H 0.24881 0.11613 0.18481 0.0
H1078 H 0.27323 0.17216 0.10395 0.0
H1079 H 0.13272 0.20943 0.10441 0.0
Dy1080 Dy 0.70396 0.89851 0.17077 0.0
Dy1081 Dy 0.85603 -0.02621 0.14971 0.0
C1082 C 0.69129 -0.05765 0.11372 0.0
O1083 O 0.82261 0.84026 0.17439 0.0
O1084 O 0.89445 0.88348 0.14095 0.0
O1085 O 0.6067 0.83512 0.16421 0.0
O1086 O 0.61307 0.87953 0.20155 0.0
O1087 O 0.87118 -0.0529 0.19327 0.0
O1088 O 0.73506 -0.04954 0.20464 0.0
O1089 O 0.78183 0.04686 0.16376 0.0
O1090 O 0.66044 -0.00681 0.16455 0.0
O1091 O 0.95135 0.03735 0.15821 0.0
O1092 O 0.95768 -0.01296 0.12204 0.0
C1093 C 0.88915 0.84218 0.15847 0.0
O1094 O 0.69326 0.89494 0.12769 0.0
O1095 O 0.74861 -0.01679 0.11843 0.0
C1096 C 0.48241 0.87771 0.18025 0.0
C1097 C 0.3251 0.93043 0.16967 0.0
C1098 C 0.39017 0.93177 0.15088 0.0
C1099 C 0.46796 0.90741 0.15641 0.0
C1100 C 0.4193 0.87718 0.19948 0.0
C1101 C 0.34185 0.90406 0.19442 0.0
C1102 C 0.56544 0.85135 0.18515 0.0
C1103 C 0.81209 -0.05016 0.21152 0.0
C1104 C 0.70117 0.04386 0.16566 0.0
C1105 C 0.08108 -0.00273 0.14723 0.0
C1106 C 0.24023 -0.04558 0.16279 0.0
C1107 C 0.16652 0.93256 0.17445 0.0
C1108 C 0.0879 -0.04647 0.16662 0.0
C1109 C 0.15345 0.01956 0.13592 0.0
C1110 C 0.23167 -0.00184 0.14341 0.0
C1111 C 0.9986 0.01931 0.13894 0.0
H1112 H 0.38134 -0.05019 0.13134 0.0
H1113 H 0.51607 0.90997 0.14139 0.0
H1114 H 0.42991 0.8561 0.21836 0.0
H1115 H 0.29504 0.90335 0.20985 0.0
H1116 H 0.1687 0.89828 0.18911 0.0
H1117 H 1.03234 -0.06465 0.17564 0.0
H1118 H 0.14948 0.05362 0.12128 0.0
H1119 H 0.28535 0.01601 0.13358 0.0
Dy1120 Dy 0.6654 0.9006 0.90306 0.0
Dy1121 Dy 0.51581 -0.01588 0.90858 0.0
C1122 C 0.58111 -0.06315 0.96033 0.0
O1123 O 0.58499 0.83352 0.91867 0.0
O1124 O 0.46781 0.88861 0.91024 0.0
O1125 O 0.76608 0.84917 0.91914 0.0
O1126 O 0.75797 0.86516 0.87673 0.0
O1127 O 0.55741 -0.02257 0.86757 0.0
O1128 O 0.56972 0.88252 0.86946 0.0
O1129 O 0.63023 0.04218 0.91793 0.0
O1130 O 0.72331 -0.01305 0.89533 0.0
O1131 O 0.4234 0.02171 0.88257 0.0
O1132 O 0.41771 0.03795 0.92468 0.0
C1133 C 0.50461 0.83815 0.91661 0.0
O1134 O 0.6507 0.92709 0.94659 0.0
O1135 O 0.51212 -0.04895 0.94872 0.0
C1136 C 0.89091 0.87582 0.89713 0.0
C1137 C 1.05236 0.92665 0.89818 0.0
C1138 C 1.0176 0.90098 0.92107 0.0
C1139 C 0.93868 0.87502 0.9204 0.0
C1140 C 0.92403 0.90277 0.87458 0.0
C1141 C 1.00425 0.92647 0.87484 0.0
C1142 C 0.80592 0.85042 0.89663 0.0
C1143 C 0.5367 0.92777 0.85754 0.0
C1144 C 0.7075 0.03368 0.90892 0.0
C1145 C 0.29313 0.01192 0.90216 0.0
C1146 C 0.13692 -0.04533 0.89889 0.0
C1147 C 0.15895 -0.0012 0.88065 0.0
C1148 C 0.23678 0.02611 0.88199 0.0
C1149 C 0.27293 -0.03278 0.91997 0.0
C1150 C 0.19632 -0.0615 0.91817 0.0
C1151 C 0.37698 0.03795 0.90226 0.0
H1152 H 1.05001 0.90153 0.93981 0.0
H1153 H 0.91458 0.85507 0.93828 0.0
H1154 H 0.88768 0.9058 0.85667 0.0
H1155 H 1.02779 -0.05559 0.85653 0.0
H1156 H 0.11592 0.01389 0.86565 0.0
H1157 H 0.25255 0.05906 0.86744 0.0
H1158 H 0.31718 -0.04661 0.93495 0.0
H1159 H 0.1849 0.90307 0.93182 0.0
Dy1160 Dy 0.30552 0.71274 0.89855 0.0
Dy1161 Dy 0.45823 0.63805 0.92159 0.0
C1162 C 0.3431 0.68812 0.96076 0.0
O1163 O 0.37761 0.78551 0.9143 0.0
O1164 O 0.49982 0.73277 0.91545 0.0
O1165 O 0.21049 0.77723 0.90583 0.0
O1166 O 0.20444 0.72423 0.87045 0.0
O1167 O 0.46892 0.63421 0.87847 0.0
O1168 O 0.41489 0.72239 0.86837 0.0
O1169 O 0.34026 0.57919 0.92505 0.0
O1170 O 0.26725 0.62142 0.89139 0.0
O1171 O 0.5556 0.57426 0.91589 0.0
O1172 O 0.55066 0.62233 0.9523 0.0
C1173 C 0.45826 0.783 0.91672 0.0
O1174 O 0.28713 0.68579 0.94157 0.0
O1175 O 0.42145 0.68785 0.95557 0.0
C1176 C 0.08101 0.73586 0.89551 0.0
C1177 C 0.92235 0.69356 0.91182 0.0
C1178 C 0.99654 0.67144 0.92312 0.0
C1179 C 1.07488 0.69202 0.91486 0.0
C1180 C 1.00813 0.75878 0.88476 0.0
C1181 C 0.93016 0.73736 0.89245 0.0
C1182 C 0.16329 0.7576 0.88683 0.0
C1183 C 0.47262 0.68158 0.86448 0.0
C1184 C 0.27311 0.58081 0.90931 0.0
C1185 C 0.68062 0.61814 0.93084 0.0
C1186 C 0.83773 0.66993 0.91917 0.0
C1187 C 0.77172 0.67094 0.90068 0.0
C1188 C 0.69408 0.64685 0.9067 0.0
C1189 C 0.7447 0.61812 0.94979 0.0
C1190 C 0.82218 0.64429 0.94413 0.0
C1191 C 0.59761 0.59242 0.93638 0.0
H1192 H 0.99491 0.63723 0.93782 0.0
H1193 H 0.13073 0.67352 0.92357 0.0
H1194 H 1.01156 0.79332 0.87041 0.0
H1195 H 0.87606 0.75534 0.88283 0.0
H1196 H 0.7797 0.68854 0.88102 0.0
H1197 H 0.64519 0.64898 0.89191 0.0
H1198 H 0.73486 0.59802 0.96894 0.0
H1199 H 0.86995 0.64366 0.95928 0.0
Dy1200 Dy 0.66412 0.70867 0.79757 0.0
Dy1201 Dy 0.51396 0.6256 0.79287 0.0
C1202 C 0.57798 0.66874 0.74103 0.0
O1203 O 0.58399 0.77533 0.78132 0.0
O1204 O 0.46689 0.72125 0.79097 0.0
O1205 O 0.76467 0.75866 0.78055 0.0
O1206 O 0.75701 0.74607 0.82321 0.0
O1207 O 0.55979 0.63233 0.83343 0.0
O1208 O 0.56999 0.72722 0.83128 0.0
O1209 O 0.62816 0.5673 0.78339 0.0
O1210 O 0.7222 0.62256 0.8057 0.0
O1211 O 0.42187 0.59011 0.81953 0.0
O1212 O 0.41603 0.57043 0.77772 0.0
C1213 C 0.50376 0.77129 0.784 0.0
O1214 O 0.64768 0.6773 0.75491 0.0
O1215 O 0.50786 0.65782 0.75259 0.0
C1216 C 0.88956 0.73373 0.80294 0.0
C1217 C 1.05079 0.68273 0.80258 0.0
C1218 C 1.01723 0.70884 0.77959 0.0
C1219 C 0.93839 0.73493 0.77994 0.0
C1220 C 0.92141 0.70624 0.82556 0.0
C1221 C 1.00153 0.68246 0.82564 0.0
C1222 C 0.80471 0.75922 0.80305 0.0
C1223 C 0.53891 0.68186 0.84351 0.0
C1224 C 0.7058 0.57576 0.79219 0.0
C1225 C 0.29165 0.5977 0.79981 0.0
C1226 C 0.13534 0.65476 0.8023 0.0
C1227 C 0.15648 0.61044 0.82057 0.0
C1228 C 0.23434 0.58315 0.8196 0.0
C1229 C 0.27238 0.6426 0.782 0.0
C1230 C 0.19568 0.67122 0.7834 0.0
C1231 C 0.37552 0.57195 0.80014 0.0
H1232 H 1.05058 0.70863 0.76103 0.0
H1233 H 0.91521 0.75539 0.76207 0.0
H1234 H 0.88419 0.70281 0.84326 0.0
H1235 H 1.02405 0.66415 0.84401 0.0
H1236 H 0.1127 0.59509 0.83527 0.0
H1237 H 0.2494 0.55 0.83414 0.0
H1238 H 0.31744 0.65663 0.76733 0.0
H1239 H 0.18493 0.70678 0.76978 0.0
Dy1240 Dy 0.30464 0.89706 0.80115 0.0
Dy1241 Dy 0.45673 -0.0282 0.77894 0.0
C1242 C 0.34481 0.92063 0.73892 0.0
O1243 O 0.37711 0.82388 0.7863 0.0
O1244 O 0.49902 0.87693 0.78487 0.0
O1245 O 0.20908 0.83316 0.79342 0.0
O1246 O 0.2035 0.88503 0.82913 0.0
O1247 O 0.46901 -0.02476 0.82202 0.0
O1248 O 0.4135 0.88733 0.83183 0.0
O1249 O 0.33838 0.03033 0.77541 0.0
O1250 O 0.26636 -0.0121 0.80908 0.0
O1251 O 0.5536 0.03577 0.78497 0.0
O1252 O 0.54858 -0.01108 0.74825 0.0
C1253 C 0.45765 0.82654 0.78382 0.0
O1254 O 0.28745 0.92307 0.75772 0.0
O1255 O 0.42267 0.92142 0.74484 0.0
C1256 C 0.07981 0.87431 0.80408 0.0
C1257 C 0.92101 0.91732 0.78818 0.0
C1258 C 0.99515 -0.06028 0.77699 0.0
C1259 C 1.07355 0.91878 0.78504 0.0
C1260 C 1.00702 0.85107 0.8147 0.0
C1261 C 0.92899 0.87278 0.8072 0.0
C1262 C 0.16213 0.85222 0.81256 0.0
C1263 C 0.47153 0.92791 0.83606 0.0
C1264 C 0.27172 0.02872 0.79129 0.0
C1265 C 0.6787 -0.00714 0.76971 0.0
C1266 C 0.83625 -0.0588 0.78104 0.0
C1267 C 0.77009 -0.06108 0.79942 0.0
C1268 C 0.69227 -0.03703 0.79356 0.0
C1269 C 0.74298 -0.00565 0.75089 0.0
C1270 C 0.82068 -0.0317 0.75639 0.0
C1271 C 0.5955 0.01847 0.76434 0.0
H1272 H 0.99355 -0.02563 0.76251 0.0
H1273 H 0.12937 -0.06254 0.77641 0.0
H1274 H 1.01053 0.81598 0.82878 0.0
H1275 H 0.87501 0.85442 0.81671 0.0
H1276 H 0.77805 0.92033 0.8189 0.0
H1277 H 0.64328 -0.04019 0.80826 0.0
H1278 H 0.73318 0.01561 0.732 0.0
H1279 H 0.86877 -0.02955 0.74142 0.0
loop_
_geom_bond_atom_site_label_1
_geom_bond_atom_site_label_2
_geom_bond_distance
_geom_bond_site_symmetry_2
_ccdc_geom_bond_type
Dy0 O3 2.307 . S
Dy0 O5 2.395 . S
Dy0 O6 2.379 . S
Dy0 O8 2.339 . S
Dy0 O10 2.298 . S
Dy0 O14 2.275 . S
Dy0 C22 2.738 . S
Dy1 O4 2.298 . S
Dy1 O7 2.275 . S
Dy1 O9 2.307 1_655 S
Dy1 O11 2.395 . S
Dy1 O12 2.379 . S
Dy1 O15 2.339 . S
Dy1 C31 2.738 . S
C2 O14 1.254 . S
C2 O15 1.257 1_455 S
O3 Dy0 2.307 . S
O3 C13 1.266 1_455 S
O4 Dy1 2.298 . S
O4 C13 1.236 . S
O5 Dy0 2.395 . S
O5 C22 1.255 . S
O6 Dy0 2.379 . S
O6 C22 1.249 . S
O7 Dy1 2.275 . S
O7 C23 1.254 1_655 S
O8 Dy0 2.339 . S
O8 C23 1.257 . S
O9 Dy1 2.307 1_455 S
O9 C24 1.266 . S
O10 Dy0 2.298 . S
O10 C24 1.236 . S
O11 Dy1 2.395 . S
O11 C31 1.255 . S
O12 Dy1 2.379 . S
O12 C31 1.249 . S
C13 O3 1.266 1_655 S
C13 O4 1.236 . S
O14 Dy0 2.275 . S
O14 C2 1.254 . S
O15 Dy1 2.339 . S
O15 C2 1.257 1_655 S
C16 C19 1.344 . S
C16 C20 1.328 . S
C16 C22 1.516 . S
C17 C18 1.304 . S
C17 C21 1.323 . S
C18 C17 1.304 . S
C18 C19 1.371 . S
C18 H32 0.930 . S
C19 C16 1.344 . S
C19 C18 1.371 . S
C19 H33 0.931 . S
C20 C16 1.328 . S
C20 C21 1.433 . S
C20 H34 0.931 . S
C21 C17 1.323 . S
C21 C20 1.433 . S
C21 H35 0.933 . S
C22 Dy0 2.738 . S
C22 O5 1.255 . S
C22 O6 1.249 . S
C22 C16 1.516 . S
C23 O7 1.254 1_455 S
C23 O8 1.257 . S
C24 O9 1.266 . S
C24 O10 1.236 . S
C25 C28 1.344 . S
C25 C29 1.328 . S
C25 C31 1.516 . S
C26 C27 1.304 . S
C26 C30 1.323 . S
C27 C26 1.304 . S
C27 C28 1.371 . S
C27 H36 0.930 . S
C28 C25 1.344 . S
C28 C27 1.371 . S
C28 H37 0.931 . S
C29 C25 1.328 . S
C29 C30 1.433 . S
C29 H38 0.931 . S
C30 C26 1.323 . S
C30 C29 1.433 . S
C30 H39 0.933 . S
C31 Dy1 2.738 . S
C31 O11 1.255 . S
C31 O12 1.249 . S
C31 C25 1.516 . S
H32 C18 0.930 . S
H33 C19 0.931 . S
H34 C20 0.931 . S
H35 C21 0.933 . S
H36 C27 0.930 . S
H37 C28 0.931 . S
H38 C29 0.931 . S
H39 C30 0.933 . S
Dy40 O43 2.307 . S
Dy40 O45 2.395 . S
Dy40 O46 2.379 . S
Dy40 O48 2.339 . S
Dy40 O50 2.298 . S
Dy40 O54 2.275 . S
Dy40 C62 2.738 1_455 S
Dy41 O44 2.298 . S
Dy41 O47 2.275 . S
Dy41 O49 2.307 . S
Dy41 O51 2.395 . S
Dy41 O52 2.379 . S
Dy41 O55 2.339 . S
Dy41 C71 2.738 . S
C42 O54 1.254 . S
C42 O55 1.257 . S
O43 Dy40 2.307 . S
O43 C53 1.266 . S
O44 Dy41 2.298 . S
O44 C53 1.236 . S
O45 Dy40 2.395 . S
O45 C62 1.255 1_455 S
O46 Dy40 2.379 . S
O46 C62 1.249 1_455 S
O47 Dy41 2.275 . S
O47 C63 1.254 . S
O48 Dy40 2.339 . S
O48 C63 1.257 . S
O49 Dy41 2.307 . S
O49 C64 1.266 . S
O50 Dy40 2.298 . S
O50 C64 1.236 . S
O51 Dy41 2.395 . S
O51 C71 1.255 . S
O52 Dy41 2.379 . S
O52 C71 1.249 . S
C53 O43 1.266 . S
C53 O44 1.236 . S
O54 Dy40 2.275 . S
O54 C42 1.254 . S
O55 Dy41 2.339 . S
O55 C42 1.257 . S
C56 C59 1.344 . S
C56 C60 1.328 . S
C56 C62 1.516 . S
C57 C58 1.304 . S
C57 C61 1.323 . S
C58 C57 1.304 . S
C58 C59 1.371 . S
C58 H72 0.930 . S
C59 C56 1.344 . S
C59 C58 1.371 . S
C59 H73 0.931 . S
C60 C56 1.328 . S
C60 C61 1.433 . S
C60 H74 0.931 . S
C61 C57 1.323 . S
C61 C60 1.433 . S
C61 H75 0.933 . S
C62 Dy40 2.738 1_655 S
C62 O45 1.255 1_655 S
C62 O46 1.249 1_655 S
C62 C56 1.516 . S
C63 O47 1.254 . S
C63 O48 1.257 . S
C64 O49 1.266 . S
C64 O50 1.236 . S
C65 C68 1.344 . S
C65 C69 1.328 . S
C65 C71 1.516 . S
C66 C67 1.304 . S
C66 C70 1.323 . S
C67 C66 1.304 . S
C67 C68 1.371 . S
C67 H76 0.930 . S
C68 C65 1.344 . S
C68 C67 1.371 . S
C68 H77 0.931 . S
C69 C65 1.328 . S
C69 C70 1.433 . S
C69 H78 0.931 . S
C70 C66 1.323 . S
C70 C69 1.433 . S
C70 H79 0.933 . S
C71 Dy41 2.738 . S
C71 O51 1.255 . S
C71 O52 1.249 . S
C71 C65 1.516 . S
H72 C58 0.930 . S
H73 C59 0.931 . S
H74 C60 0.931 . S
H75 C61 0.933 . S
H76 C67 0.930 . S
H77 C68 0.931 . S
H78 C69 0.931 . S
H79 C70 0.933 . S
Dy80 O83 2.307 . S
Dy80 O85 2.395 . S
Dy80 O86 2.379 . S
Dy80 O88 2.339 . S
Dy80 O90 2.298 . S
Dy80 O94 2.275 . S
Dy80 C102 2.738 . S
Dy81 O84 2.298 . S
Dy81 O87 2.275 . S
Dy81 O89 2.307 1_655 S
Dy81 O91 2.395 . S
Dy81 O92 2.379 . S
Dy81 O95 2.339 . S
Dy81 C111 2.738 . S
C82 O94 1.254 . S
C82 O95 1.257 1_455 S
O83 Dy80 2.307 . S
O83 C93 1.266 1_455 S
O84 Dy81 2.298 . S
O84 C93 1.236 . S
O85 Dy80 2.395 . S
O85 C102 1.255 . S
O86 Dy80 2.379 . S
O86 C102 1.249 . S
O87 Dy81 2.275 . S
O87 C103 1.254 1_655 S
O88 Dy80 2.339 . S
O88 C103 1.257 . S
O89 Dy81 2.307 1_455 S
O89 C104 1.266 . S
O90 Dy80 2.298 . S
O90 C104 1.236 . S
O91 Dy81 2.395 . S
O91 C111 1.255 . S
O92 Dy81 2.379 . S
O92 C111 1.249 . S
C93 O83 1.266 1_655 S
C93 O84 1.236 . S
O94 Dy80 2.275 . S
O94 C82 1.254 . S
O95 Dy81 2.339 . S
O95 C82 1.257 1_655 S
C96 C99 1.344 . S
C96 C100 1.328 . S
C96 C102 1.516 . S
C97 C98 1.304 . S
C97 C101 1.323 . S
C98 C97 1.304 . S
C98 C99 1.371 . S
C98 H112 0.930 . S
C99 C96 1.344 . S
C99 C98 1.371 . S
C99 H113 0.931 . S
C100 C96 1.328 . S
C100 C101 1.433 . S
C100 H114 0.931 . S
C101 C97 1.323 . S
C101 C100 1.433 . S
C101 H115 0.933 . S
C102 Dy80 2.738 . S
C102 O85 1.255 . S
C102 O86 1.249 . S
C102 C96 1.516 . S
C103 O87 1.254 1_455 S
C103 O88 1.257 . S
C104 O89 1.266 . S
C104 O90 1.236 . S
C105 C108 1.344 . S
C105 C109 1.328 . S
C105 C111 1.516 . S
C106 C107 1.304 . S
C106 C110 1.323 . S
C107 C106 1.304 . S
C107 C108 1.371 . S
C107 H116 0.930 . S
C108 C105 1.344 . S
C108 C107 1.371 . S
C108 H117 0.931 . S
C109 C105 1.328 . S
C109 C110 1.433 . S
C109 H118 0.931 . S
C110 C106 1.323 . S
C110 C109 1.433 . S
C110 H119 0.933 . S
C111 Dy81 2.738 . S
C111 O91 1.255 . S
C111 O92 1.249 . S
C111 C105 1.516 . S
H112 C98 0.930 . S
H113 C99 0.931 . S
H114 C100 0.931 . S
H115 C101 0.933 . S
H116 C107 0.930 . S
H117 C108 0.931 . S
H118 C109 0.931 . S
H119 C110 0.933 . S
Dy120 O123 2.307 . S
Dy120 O125 2.395 . S
Dy120 O126 2.379 . S
Dy120 O128 2.339 . S
Dy120 O130 2.298 . S
Dy120 O134 2.275 . S
Dy120 C142 2.738 1_455 S
Dy121 O124 2.298 . S
Dy121 O127 2.275 . S
Dy121 O129 2.307 . S
Dy121 O131 2.395 . S
Dy121 O132 2.379 . S
Dy121 O135 2.339 . S
Dy121 C151 2.738 . S
C122 O134 1.254 . S
C122 O135 1.257 . S
O123 Dy120 2.307 . S
O123 C133 1.266 . S
O124 Dy121 2.298 . S
O124 C133 1.236 . S
O125 Dy120 2.395 . S
O125 C142 1.255 1_455 S
O126 Dy120 2.379 . S
O126 C142 1.249 1_455 S
O127 Dy121 2.275 . S
O127 C143 1.254 . S
O128 Dy120 2.339 . S
O128 C143 1.257 . S
O129 Dy121 2.307 . S
O129 C144 1.266 . S
O130 Dy120 2.298 . S
O130 C144 1.236 . S
O131 Dy121 2.395 . S
O131 C151 1.255 . S
O132 Dy121 2.379 . S
O132 C151 1.249 . S
C133 O123 1.266 . S
C133 O124 1.236 . S
O134 Dy120 2.275 . S
O134 C122 1.254 . S
O135 Dy121 2.339 . S
O135 C122 1.257 . S
C136 C139 1.344 . S
C136 C140 1.328 . S
C136 C142 1.516 . S
C137 C138 1.304 . S
C137 C141 1.323 . S
C138 C137 1.304 . S
C138 C139 1.371 . S
C138 H152 0.930 . S
C139 C136 1.344 . S
C139 C138 1.371 . S
C139 H153 0.931 . S
C140 C136 1.328 . S
C140 C141 1.433 . S
C140 H154 0.931 . S
C141 C137 1.323 . S
C141 C140 1.433 . S
C141 H155 0.933 . S
C142 Dy120 2.738 1_655 S
C142 O125 1.255 1_655 S
C142 O126 1.249 1_655 S
C142 C136 1.516 . S
C143 O127 1.254 . S
C143 O128 1.257 . S
C144 O129 1.266 . S
C144 O130 1.236 . S
C145 C148 1.344 . S
C145 C149 1.328 . S
C145 C151 1.516 . S
C146 C147 1.304 . S
C146 C150 1.323 . S
C147 C146 1.304 . S
C147 C148 1.371 . S
C147 H156 0.930 . S
C148 C145 1.344 . S
C148 C147 1.371 . S
C148 H157 0.931 . S
C149 C145 1.328 . S
C149 C150 1.433 . S
C149 H158 0.931 . S
C150 C146 1.323 . S
C150 C149 1.433 . S
C150 H159 0.933 . S
C151 Dy121 2.738 . S
C151 O131 1.255 . S
C151 O132 1.249 . S
C151 C145 1.516 . S
H152 C138 0.930 . S
H153 C139 0.931 . S
H154 C140 0.931 . S
H155 C141 0.933 . S
H156 C147 0.930 . S
H157 C148 0.931 . S
H158 C149 0.931 . S
H159 C150 0.933 . S
Dy160 O163 2.307 1_455 S
Dy160 O165 2.395 . S
Dy160 O166 2.379 . S
Dy160 O168 2.339 . S
Dy160 O170 2.298 . S
Dy160 O174 2.275 . S
Dy160 C182 2.738 . S
Dy161 O164 2.298 . S
Dy161 O167 2.275 . S
Dy161 O169 2.307 . S
Dy161 O171 2.395 . S
Dy161 O172 2.379 . S
Dy161 O175 2.339 . S
Dy161 C191 2.738 . S
C162 O174 1.254 1_655 S
C162 O175 1.257 . S
O163 Dy160 2.307 1_655 S
O163 C173 1.266 . S
O164 Dy161 2.298 . S
O164 C173 1.236 . S
O165 Dy160 2.395 . S
O165 C182 1.255 . S
O166 Dy160 2.379 . S
O166 C182 1.249 . S
O167 Dy161 2.275 . S
O167 C183 1.254 . S
O168 Dy160 2.339 . S
O168 C183 1.257 1_455 S
O169 Dy161 2.307 . S
O169 C184 1.266 1_655 S
O170 Dy160 2.298 . S
O170 C184 1.236 . S
O171 Dy161 2.395 . S
O171 C191 1.255 . S
O172 Dy161 2.379 . S
O172 C191 1.249 . S
C173 O163 1.266 . S
C173 O164 1.236 . S
O174 Dy160 2.275 . S
O174 C162 1.254 1_455 S
O175 Dy161 2.339 . S
O175 C162 1.257 . S
C176 C179 1.344 . S
C176 C180 1.328 . S
C176 C182 1.516 . S
C177 C178 1.304 . S
C177 C181 1.323 . S
C178 C177 1.304 . S
C178 C179 1.371 . S
C178 H192 0.930 . S
C179 C176 1.344 . S
C179 C178 1.371 . S
C179 H193 0.931 . S
C180 C176 1.328 . S
C180 C181 1.433 . S
C180 H194 0.931 . S
C181 C177 1.323 . S
C181 C180 1.433 . S
C181 H195 0.933 . S
C182 Dy160 2.738 . S
C182 O165 1.255 . S
C182 O166 1.249 . S
C182 C176 1.516 . S
C183 O167 1.254 . S
C183 O168 1.257 1_655 S
C184 O169 1.266 1_455 S
C184 O170 1.236 . S
C185 C188 1.344 . S
C185 C189 1.328 . S
C185 C191 1.516 . S
C186 C187 1.304 . S
C186 C190 1.323 . S
C187 C186 1.304 . S
C187 C188 1.371 . S
C187 H196 0.930 . S
C188 C185 1.344 . S
C188 C187 1.371 . S
C188 H197 0.931 . S
C189 C185 1.328 . S
C189 C190 1.433 . S
C189 H198 0.931 . S
C190 C186 1.323 . S
C190 C189 1.433 . S
C190 H199 0.933 . S
C191 Dy161 2.738 . S
C191 O171 1.255 . S
C191 O172 1.249 . S
C191 C185 1.516 . S
H192 C178 0.930 . S
H193 C179 0.931 . S
H194 C180 0.931 . S
H195 C181 0.933 . S
H196 C187 0.930 . S
H197 C188 0.931 . S
H198 C189 0.931 . S
H199 C190 0.933 . S
Dy200 O203 2.307 . S
Dy200 O205 2.395 . S
Dy200 O206 2.379 . S
Dy200 O208 2.339 . S
Dy200 O210 2.298 . S
Dy200 O214 2.275 . S
Dy200 C222 2.738 . S
Dy201 O204 2.298 . S
Dy201 O207 2.275 . S
Dy201 O209 2.307 . S
Dy201 O211 2.395 . S
Dy201 O212 2.379 . S
Dy201 O215 2.339 . S
Dy201 C231 2.738 1_655 S
C202 O214 1.254 . S
C202 O215 1.257 . S
O203 Dy200 2.307 . S
O203 C213 1.266 . S
O204 Dy201 2.298 . S
O204 C213 1.236 . S
O205 Dy200 2.395 . S
O205 C222 1.255 . S
O206 Dy200 2.379 . S
O206 C222 1.249 . S
O207 Dy201 2.275 . S
O207 C223 1.254 . S
O208 Dy200 2.339 . S
O208 C223 1.257 . S
O209 Dy201 2.307 . S
O209 C224 1.266 . S
O210 Dy200 2.298 . S
O210 C224 1.236 . S
O211 Dy201 2.395 . S
O211 C231 1.255 1_655 S
O212 Dy201 2.379 . S
O212 C231 1.249 1_655 S
C213 O203 1.266 . S
C213 O204 1.236 . S
O214 Dy200 2.275 . S
O214 C202 1.254 . S
O215 Dy201 2.339 . S
O215 C202 1.257 . S
C216 C219 1.344 . S
C216 C220 1.328 . S
C216 C222 1.516 . S
C217 C218 1.304 . S
C217 C221 1.323 . S
C218 C217 1.304 . S
C218 C219 1.371 . S
C218 H232 0.930 . S
C219 C216 1.344 . S
C219 C218 1.371 . S
C219 H233 0.931 . S
C220 C216 1.328 . S
C220 C221 1.433 . S
C220 H234 0.931 . S
C221 C217 1.323 . S
C221 C220 1.433 . S
C221 H235 0.933 . S
C222 Dy200 2.738 . S
C222 O205 1.255 . S
C222 O206 1.249 . S
C222 C216 1.516 . S
C223 O207 1.254 . S
C223 O208 1.257 . S
C224 O209 1.266 . S
C224 O210 1.236 . S
C225 C228 1.344 . S
C225 C229 1.328 . S
C225 C231 1.516 . S
C226 C227 1.304 . S
C226 C230 1.323 . S
C227 C226 1.304 . S
C227 C228 1.371 . S
C227 H236 0.930 . S
C228 C225 1.344 . S
C228 C227 1.371 . S
C228 H237 0.931 . S
C229 C225 1.328 . S
C229 C230 1.433 . S
C229 H238 0.931 . S
C230 C226 1.323 . S
C230 C229 1.433 . S
C230 H239 0.933 . S
C231 Dy201 2.738 1_455 S
C231 O211 1.255 1_455 S
C231 O212 1.249 1_455 S
C231 C225 1.516 . S
H232 C218 0.930 . S
H233 C219 0.931 . S
H234 C220 0.931 . S
H235 C221 0.933 . S
H236 C227 0.930 . S
H237 C228 0.931 . S
H238 C229 0.931 . S
H239 C230 0.933 . S
Dy240 O243 2.307 1_455 S
Dy240 O245 2.395 . S
Dy240 O246 2.379 . S
Dy240 O248 2.339 . S
Dy240 O250 2.298 . S
Dy240 O254 2.275 . S
Dy240 C262 2.738 . S
Dy241 O244 2.298 . S
Dy241 O247 2.275 . S
Dy241 O249 2.307 . S
Dy241 O251 2.395 . S
Dy241 O252 2.379 . S
Dy241 O255 2.339 . S
Dy241 C271 2.738 . S
C242 O254 1.254 1_655 S
C242 O255 1.257 . S
O243 Dy240 2.307 1_655 S
O243 C253 1.266 . S
O244 Dy241 2.298 . S
O244 C253 1.236 . S
O245 Dy240 2.395 . S
O245 C262 1.255 . S
O246 Dy240 2.379 . S
O246 C262 1.249 . S
O247 Dy241 2.275 . S
O247 C263 1.254 . S
O248 Dy240 2.339 . S
O248 C263 1.257 1_455 S
O249 Dy241 2.307 . S
O249 C264 1.266 1_655 S
O250 Dy240 2.298 . S
O250 C264 1.236 . S
O251 Dy241 2.395 . S
O251 C271 1.255 . S
O252 Dy241 2.379 . S
O252 C271 1.249 . S
C253 O243 1.266 . S
C253 O244 1.236 . S
O254 Dy240 2.275 . S
O254 C242 1.254 1_455 S
O255 Dy241 2.339 . S
O255 C242 1.257 . S
C256 C259 1.344 . S
C256 C260 1.328 . S
C256 C262 1.516 . S
C257 C258 1.304 . S
C257 C261 1.323 . S
C258 C257 1.304 . S
C258 C259 1.371 . S
C258 H272 0.930 . S
C259 C256 1.344 . S
C259 C258 1.371 . S
C259 H273 0.931 . S
C260 C256 1.328 . S
C260 C261 1.433 . S
C260 H274 0.931 . S
C261 C257 1.323 . S
C261 C260 1.433 . S
C261 H275 0.933 . S
C262 Dy240 2.738 . S
C262 O245 1.255 . S
C262 O246 1.249 . S
C262 C256 1.516 . S
C263 O247 1.254 . S
C263 O248 1.257 1_655 S
C264 O249 1.266 1_455 S
C264 O250 1.236 . S
C265 C268 1.344 . S
C265 C269 1.328 . S
C265 C271 1.516 . S
C266 C267 1.304 . S
C266 C270 1.323 . S
C267 C266 1.304 . S
C267 C268 1.371 . S
C267 H276 0.930 . S
C268 C265 1.344 . S
C268 C267 1.371 . S
C268 H277 0.931 . S
C269 C265 1.328 . S
C269 C270 1.433 . S
C269 H278 0.931 . S
C270 C266 1.323 . S
C270 C269 1.433 . S
C270 H279 0.933 . S
C271 Dy241 2.738 . S
C271 O251 1.255 . S
C271 O252 1.249 . S
C271 C265 1.516 . S
H272 C258 0.930 . S
H273 C259 0.931 . S
H274 C260 0.931 . S
H275 C261 0.933 . S
H276 C267 0.930 . S
H277 C268 0.931 . S
H278 C269 0.931 . S
H279 C270 0.933 . S
Dy280 O283 2.307 . S
Dy280 O285 2.395 . S
Dy280 O286 2.379 . S
Dy280 O288 2.339 . S
Dy280 O290 2.298 . S
Dy280 O294 2.275 . S
Dy280 C302 2.738 . S
Dy281 O284 2.298 . S
Dy281 O287 2.275 . S
Dy281 O289 2.307 . S
Dy281 O291 2.395 . S
Dy281 O292 2.379 . S
Dy281 O295 2.339 . S
Dy281 C311 2.738 1_655 S
C282 O294 1.254 . S
C282 O295 1.257 . S
O283 Dy280 2.307 . S
O283 C293 1.266 . S
O284 Dy281 2.298 . S
O284 C293 1.236 . S
O285 Dy280 2.395 . S
O285 C302 1.255 . S
O286 Dy280 2.379 . S
O286 C302 1.249 . S
O287 Dy281 2.275 . S
O287 C303 1.254 . S
O288 Dy280 2.339 . S
O288 C303 1.257 . S
O289 Dy281 2.307 . S
O289 C304 1.266 . S
O290 Dy280 2.298 . S
O290 C304 1.236 . S
O291 Dy281 2.395 . S
O291 C311 1.255 1_655 S
O292 Dy281 2.379 . S
O292 C311 1.249 1_655 S
C293 O283 1.266 . S
C293 O284 1.236 . S
O294 Dy280 2.275 . S
O294 C282 1.254 . S
O295 Dy281 2.339 . S
O295 C282 1.257 . S
C296 C299 1.344 . S
C296 C300 1.328 . S
C296 C302 1.516 . S
C297 C298 1.304 . S
C297 C301 1.323 . S
C298 C297 1.304 . S
C298 C299 1.371 . S
C298 H312 0.930 . S
C299 C296 1.344 . S
C299 C298 1.371 . S
C299 H313 0.931 . S
C300 C296 1.328 . S
C300 C301 1.433 . S
C300 H314 0.931 . S
C301 C297 1.323 . S
C301 C300 1.433 . S
C301 H315 0.933 . S
C302 Dy280 2.738 . S
C302 O285 1.255 . S
C302 O286 1.249 . S
C302 C296 1.516 . S
C303 O287 1.254 . S
C303 O288 1.257 . S
C304 O289 1.266 . S
C304 O290 1.236 . S
C305 C308 1.344 . S
C305 C309 1.328 . S
C305 C311 1.516 . S
C306 C307 1.304 . S
C306 C310 1.323 . S
C307 C306 1.304 . S
C307 C308 1.371 . S
C307 H316 0.930 . S
C308 C305 1.344 . S
C308 C307 1.371 . S
C308 H317 0.931 . S
C309 C305 1.328 . S
C309 C310 1.433 . S
C309 H318 0.931 . S
C310 C306 1.323 . S
C310 C309 1.433 . S
C310 H319 0.933 . S
C311 Dy281 2.738 1_455 S
C311 O291 1.255 1_455 S
C311 O292 1.249 1_455 S
C311 C305 1.516 . S
H312 C298 0.930 . S
H313 C299 0.931 . S
H314 C300 0.931 . S
H315 C301 0.933 . S
H316 C307 0.930 . S
H317 C308 0.931 . S
H318 C309 0.931 . S
H319 C310 0.933 . S
Dy320 O323 2.307 . S
Dy320 O325 2.395 . S
Dy320 O326 2.379 . S
Dy320 O328 2.339 . S
Dy320 O330 2.298 1_565 S
Dy320 O334 2.275 . S
Dy320 C342 2.738 . S
Dy321 O324 2.298 1_545 S
Dy321 O327 2.277 . S
Dy321 O329 2.307 1_655 S
Dy321 O331 2.395 . S
Dy321 O332 2.379 . S
Dy321 O335 2.339 . S
Dy321 C351 2.738 . S
C322 O334 1.254 . S
C322 O335 1.257 1_465 S
O323 Dy320 2.307 . S
O323 C333 1.266 1_455 S
O324 Dy321 2.298 1_565 S
O324 C333 1.236 . S
O325 Dy320 2.395 . S
O325 C342 1.255 . S
O326 Dy320 2.379 . S
O326 C342 1.249 . S
O327 Dy321 2.277 . S
O327 C343 1.252 1_645 S
O328 Dy320 2.339 . S
O328 C343 1.257 . S
O329 Dy321 2.307 1_455 S
O329 C344 1.266 . S
O330 Dy320 2.298 1_545 S
O330 C344 1.236 . S
O331 Dy321 2.395 . S
O331 C351 1.255 . S
O332 Dy321 2.379 . S
O332 C351 1.249 . S
C333 O323 1.266 1_655 S
C333 O324 1.236 . S
O334 Dy320 2.275 . S
O334 C322 1.254 . S
O335 Dy321 2.339 . S
O335 C322 1.257 1_645 S
C336 C339 1.344 . S
C336 C340 1.328 . S
C336 C342 1.516 . S
C337 C338 1.304 . S
C337 C341 1.323 . S
C338 C337 1.304 . S
C338 C339 1.371 . S
C338 H352 0.930 . S
C339 C336 1.344 . S
C339 C338 1.371 . S
C339 H353 0.931 . S
C340 C336 1.328 . S
C340 C341 1.433 . S
C340 H354 0.931 . S
C341 C337 1.323 . S
C341 C340 1.433 . S
C341 H355 0.933 . S
C342 Dy320 2.738 . S
C342 O325 1.255 . S
C342 O326 1.249 . S
C342 C336 1.516 . S
C343 O327 1.252 1_465 S
C343 O328 1.257 . S
C344 O329 1.266 . S
C344 O330 1.236 . S
C345 C348 1.344 . S
C345 C349 1.328 . S
C345 C351 1.516 . S
C346 C347 1.304 . S
C346 C350 1.323 . S
C347 C346 1.304 . S
C347 C348 1.371 . S
C347 H356 0.930 1_545 S
C348 C345 1.344 . S
C348 C347 1.371 . S
C348 H357 0.931 1_545 S
C349 C345 1.328 . S
C349 C350 1.433 . S
C349 H358 0.931 . S
C350 C346 1.323 . S
C350 C349 1.433 . S
C350 H359 0.933 . S
C351 Dy321 2.738 . S
C351 O331 1.255 . S
C351 O332 1.249 . S
C351 C345 1.516 . S
H352 C338 0.930 . S
H353 C339 0.931 . S
H354 C340 0.931 . S
H355 C341 0.933 . S
H356 C347 0.930 1_565 S
H357 C348 0.931 1_565 S
H358 C349 0.931 . S
H359 C350 0.933 . S
Dy360 O363 2.307 . S
Dy360 O365 2.395 . S
Dy360 O366 2.379 . S
Dy360 O368 2.339 . S
Dy360 O370 2.298 . S
Dy360 O374 2.275 . S
Dy360 C382 2.738 1_455 S
Dy361 O364 2.298 . S
Dy361 O367 2.275 . S
Dy361 O369 2.307 . S
Dy361 O371 2.395 . S
Dy361 O372 2.379 . S
Dy361 O375 2.339 . S
Dy361 C391 2.738 . S
C362 O374 1.254 . S
C362 O375 1.257 . S
O363 Dy360 2.307 . S
O363 C373 1.266 . S
O364 Dy361 2.298 . S
O364 C373 1.236 . S
O365 Dy360 2.395 . S
O365 C382 1.255 1_455 S
O366 Dy360 2.379 . S
O366 C382 1.249 1_455 S
O367 Dy361 2.275 . S
O367 C383 1.254 . S
O368 Dy360 2.339 . S
O368 C383 1.257 . S
O369 Dy361 2.307 . S
O369 C384 1.266 . S
O370 Dy360 2.298 . S
O370 C384 1.236 . S
O371 Dy361 2.395 . S
O371 C391 1.255 . S
O372 Dy361 2.379 . S
O372 C391 1.249 . S
C373 O363 1.266 . S
C373 O364 1.236 . S
O374 Dy360 2.275 . S
O374 C362 1.254 . S
O375 Dy361 2.339 . S
O375 C362 1.257 . S
C376 C379 1.344 . S
C376 C380 1.328 . S
C376 C382 1.516 . S
C377 C378 1.304 . S
C377 C381 1.323 . S
C378 C377 1.304 . S
C378 C379 1.371 . S
C378 H392 0.930 . S
C379 C376 1.344 . S
C379 C378 1.371 . S
C379 H393 0.931 . S
C380 C376 1.328 . S
C380 C381 1.433 . S
C380 H394 0.931 . S
C381 C377 1.323 . S
C381 C380 1.433 . S
C381 H395 0.933 . S
C382 Dy360 2.738 1_655 S
C382 O365 1.255 1_655 S
C382 O366 1.249 1_655 S
C382 C376 1.516 . S
C383 O367 1.254 . S
C383 O368 1.257 . S
C384 O369 1.266 . S
C384 O370 1.236 . S
C385 C388 1.344 . S
C385 C389 1.328 . S
C385 C391 1.516 . S
C386 C387 1.304 . S
C386 C390 1.323 . S
C387 C386 1.304 . S
C387 C388 1.371 . S
C387 H396 0.930 . S
C388 C385 1.344 . S
C388 C387 1.371 . S
C388 H397 0.931 . S
C389 C385 1.328 . S
C389 C390 1.433 . S
C389 H398 0.931 . S
C390 C386 1.323 . S
C390 C389 1.433 . S
C390 H399 0.933 . S
C391 Dy361 2.738 . S
C391 O371 1.255 . S
C391 O372 1.249 . S
C391 C385 1.516 . S
H392 C378 0.930 . S
H393 C379 0.931 . S
H394 C380 0.931 . S
H395 C381 0.933 . S
H396 C387 0.930 . S
H397 C388 0.931 . S
H398 C389 0.931 . S
H399 C390 0.933 . S
Dy400 O403 2.307 . S
Dy400 O405 2.395 . S
Dy400 O406 2.379 . S
Dy400 O408 2.339 . S
Dy400 O410 2.298 . S
Dy400 O414 2.275 . S
Dy400 C422 2.738 . S
Dy401 O404 2.298 . S
Dy401 O407 2.275 . S
Dy401 O409 2.307 1_655 S
Dy401 O411 2.395 . S
Dy401 O412 2.379 . S
Dy401 O415 2.339 . S
Dy401 C431 2.738 . S
C402 O414 1.254 . S
C402 O415 1.257 1_455 S
O403 Dy400 2.307 . S
O403 C413 1.266 1_455 S
O404 Dy401 2.298 . S
O404 C413 1.236 . S
O405 Dy400 2.395 . S
O405 C422 1.255 . S
O406 Dy400 2.379 . S
O406 C422 1.249 . S
O407 Dy401 2.275 . S
O407 C423 1.254 1_655 S
O408 Dy400 2.339 . S
O408 C423 1.257 . S
O409 Dy401 2.307 1_455 S
O409 C424 1.266 . S
O410 Dy400 2.298 . S
O410 C424 1.236 . S
O411 Dy401 2.395 . S
O411 C431 1.255 . S
O412 Dy401 2.379 . S
O412 C431 1.249 . S
C413 O403 1.266 1_655 S
C413 O404 1.236 . S
O414 Dy400 2.275 . S
O414 C402 1.254 . S
O415 Dy401 2.339 . S
O415 C402 1.257 1_655 S
C416 C419 1.344 . S
C416 C420 1.328 . S
C416 C422 1.516 . S
C417 C418 1.304 . S
C417 C421 1.323 . S
C418 C417 1.304 . S
C418 C419 1.371 . S
C418 H432 0.930 . S
C419 C416 1.344 . S
C419 C418 1.371 . S
C419 H433 0.931 . S
C420 C416 1.328 . S
C420 C421 1.433 . S
C420 H434 0.931 . S
C421 C417 1.323 . S
C421 C420 1.433 . S
C421 H435 0.933 . S
C422 Dy400 2.738 . S
C422 O405 1.255 . S
C422 O406 1.249 . S
C422 C416 1.516 . S
C423 O407 1.254 1_455 S
C423 O408 1.257 . S
C424 O409 1.266 . S
C424 O410 1.236 . S
C425 C428 1.344 . S
C425 C429 1.328 . S
C425 C431 1.516 . S
C426 C427 1.304 . S
C426 C430 1.323 . S
C427 C426 1.304 . S
C427 C428 1.371 . S
C427 H436 0.930 . S
C428 C425 1.344 . S
C428 C427 1.371 . S
C428 H437 0.931 . S
C429 C425 1.328 . S
C429 C430 1.433 . S
C429 H438 0.931 . S
C430 C426 1.323 . S
C430 C429 1.433 . S
C430 H439 0.933 . S
C431 Dy401 2.738 . S
C431 O411 1.255 . S
C431 O412 1.249 . S
C431 C425 1.516 . S
H432 C418 0.930 . S
H433 C419 0.931 . S
H434 C420 0.931 . S
H435 C421 0.933 . S
H436 C427 0.930 . S
H437 C428 0.931 . S
H438 C429 0.931 . S
H439 C430 0.933 . S
Dy440 O443 2.307 . S
Dy440 O445 2.395 . S
Dy440 O446 2.379 . S
Dy440 O448 2.339 . S
Dy440 O450 2.298 1_565 S
Dy440 O454 2.275 . S
Dy440 C462 2.738 1_455 S
Dy441 O444 2.298 1_545 S
Dy441 O447 2.277 . S
Dy441 O449 2.307 . S
Dy441 O451 2.395 . S
Dy441 O452 2.379 . S
Dy441 O455 2.339 . S
Dy441 C471 2.738 . S
C442 O454 1.254 . S
C442 O455 1.257 1_565 S
O443 Dy440 2.307 . S
O443 C453 1.266 . S
O444 Dy441 2.298 1_565 S
O444 C453 1.236 . S
O445 Dy440 2.395 . S
O445 C462 1.255 1_455 S
O446 Dy440 2.379 . S
O446 C462 1.249 1_455 S
O447 Dy441 2.277 . S
O447 C463 1.252 1_545 S
O448 Dy440 2.339 . S
O448 C463 1.257 . S
O449 Dy441 2.307 . S
O449 C464 1.266 . S
O450 Dy440 2.298 1_545 S
O450 C464 1.236 . S
O451 Dy441 2.395 . S
O451 C471 1.255 . S
O452 Dy441 2.379 . S
O452 C471 1.249 . S
C453 O443 1.266 . S
C453 O444 1.236 . S
O454 Dy440 2.275 . S
O454 C442 1.254 . S
O455 Dy441 2.339 . S
O455 C442 1.257 1_545 S
C456 C459 1.344 . S
C456 C460 1.328 . S
C456 C462 1.516 . S
C457 C458 1.304 . S
C457 C461 1.323 . S
C458 C457 1.304 . S
C458 C459 1.371 . S
C458 H472 0.930 . S
C459 C456 1.344 . S
C459 C458 1.371 . S
C459 H473 0.931 . S
C460 C456 1.328 . S
C460 C461 1.433 . S
C460 H474 0.931 . S
C461 C457 1.323 . S
C461 C460 1.433 . S
C461 H475 0.933 . S
C462 Dy440 2.738 1_655 S
C462 O445 1.255 1_655 S
C462 O446 1.249 1_655 S
C462 C456 1.516 . S
C463 O447 1.252 1_565 S
C463 O448 1.257 . S
C464 O449 1.266 . S
C464 O450 1.236 . S
C465 C468 1.344 . S
C465 C469 1.328 . S
C465 C471 1.516 . S
C466 C467 1.304 . S
C466 C470 1.323 . S
C467 C466 1.304 . S
C467 C468 1.371 . S
C467 H476 0.930 1_545 S
C468 C465 1.344 . S
C468 C467 1.371 . S
C468 H477 0.931 1_545 S
C469 C465 1.328 . S
C469 C470 1.433 . S
C469 H478 0.931 . S
C470 C466 1.323 . S
C470 C469 1.433 . S
C470 H479 0.933 . S
C471 Dy441 2.738 . S
C471 O451 1.255 . S
C471 O452 1.249 . S
C471 C465 1.516 . S
H472 C458 0.930 . S
H473 C459 0.931 . S
H474 C460 0.931 . S
H475 C461 0.933 . S
H476 C467 0.930 1_565 S
H477 C468 0.931 1_565 S
H478 C469 0.931 . S
H479 C470 0.933 . S
Dy480 O483 2.307 1_455 S
Dy480 O485 2.395 . S
Dy480 O486 2.379 . S
Dy480 O488 2.339 . S
Dy480 O490 2.298 1_565 S
Dy480 O494 2.277 . S
Dy480 C502 2.738 . S
Dy481 O484 2.298 1_545 S
Dy481 O487 2.275 . S
Dy481 O489 2.307 . S
Dy481 O491 2.395 . S
Dy481 O492 2.379 . S
Dy481 O495 2.339 . S
Dy481 C511 2.738 . S
C482 O494 1.252 1_645 S
C482 O495 1.257 . S
O483 Dy480 2.307 1_655 S
O483 C493 1.266 . S
O484 Dy481 2.298 1_565 S
O484 C493 1.236 . S
O485 Dy480 2.395 . S
O485 C502 1.255 . S
O486 Dy480 2.379 . S
O486 C502 1.249 . S
O487 Dy481 2.275 . S
O487 C503 1.254 . S
O488 Dy480 2.339 . S
O488 C503 1.257 1_465 S
O489 Dy481 2.307 . S
O489 C504 1.266 1_655 S
O490 Dy480 2.298 1_545 S
O490 C504 1.236 . S
O491 Dy481 2.395 . S
O491 C511 1.255 . S
O492 Dy481 2.379 . S
O492 C511 1.249 . S
C493 O483 1.266 . S
C493 O484 1.236 . S
O494 Dy480 2.277 . S
O494 C482 1.252 1_465 S
O495 Dy481 2.339 . S
O495 C482 1.257 . S
C496 C499 1.344 . S
C496 C500 1.328 . S
C496 C502 1.516 . S
C497 C498 1.304 . S
C497 C501 1.323 . S
C498 C497 1.304 . S
C498 C499 1.371 . S
C498 H512 0.930 1_565 S
C499 C496 1.344 . S
C499 C498 1.371 . S
C499 H513 0.931 1_565 S
C500 C496 1.328 . S
C500 C501 1.433 . S
C500 H514 0.931 . S
C501 C497 1.323 . S
C501 C500 1.433 . S
C501 H515 0.933 . S
C502 Dy480 2.738 . S
C502 O485 1.255 . S
C502 O486 1.249 . S
C502 C496 1.516 . S
C503 O487 1.254 . S
C503 O488 1.257 1_645 S
C504 O489 1.266 1_455 S
C504 O490 1.236 . S
C505 C508 1.344 . S
C505 C509 1.328 . S
C505 C511 1.516 . S
C506 C507 1.304 . S
C506 C510 1.323 . S
C507 C506 1.304 . S
C507 C508 1.371 . S
C507 H516 0.930 . S
C508 C505 1.344 . S
C508 C507 1.371 . S
C508 H517 0.931 . S
C509 C505 1.328 . S
C509 C510 1.433 . S
C509 H518 0.931 . S
C510 C506 1.323 . S
C510 C509 1.433 . S
C510 H519 0.933 . S
C511 Dy481 2.738 . S
C511 O491 1.255 . S
C511 O492 1.249 . S
C511 C505 1.516 . S
H512 C498 0.930 1_545 S
H513 C499 0.931 1_545 S
H514 C500 0.931 . S
H515 C501 0.933 . S
H516 C507 0.930 . S
H517 C508 0.931 . S
H518 C509 0.931 . S
H519 C510 0.933 . S
Dy520 O523 2.307 . S
Dy520 O525 2.395 . S
Dy520 O526 2.379 . S
Dy520 O528 2.339 . S
Dy520 O530 2.298 . S
Dy520 O534 2.275 . S
Dy520 C542 2.738 . S
Dy521 O524 2.298 . S
Dy521 O527 2.275 . S
Dy521 O529 2.307 . S
Dy521 O531 2.395 . S
Dy521 O532 2.379 . S
Dy521 O535 2.339 . S
Dy521 C551 2.738 1_655 S
C522 O534 1.254 . S
C522 O535 1.257 . S
O523 Dy520 2.307 . S
O523 C533 1.266 . S
O524 Dy521 2.298 . S
O524 C533 1.236 . S
O525 Dy520 2.395 . S
O525 C542 1.255 . S
O526 Dy520 2.379 . S
O526 C542 1.249 . S
O527 Dy521 2.275 . S
O527 C543 1.254 . S
O528 Dy520 2.339 . S
O528 C543 1.257 . S
O529 Dy521 2.307 . S
O529 C544 1.266 . S
O530 Dy520 2.298 . S
O530 C544 1.236 . S
O531 Dy521 2.395 . S
O531 C551 1.255 1_655 S
O532 Dy521 2.379 . S
O532 C551 1.249 1_655 S
C533 O523 1.266 . S
C533 O524 1.236 . S
O534 Dy520 2.275 . S
O534 C522 1.254 . S
O535 Dy521 2.339 . S
O535 C522 1.257 . S
C536 C539 1.344 . S
C536 C540 1.328 . S
C536 C542 1.516 . S
C537 C538 1.304 . S
C537 C541 1.323 . S
C538 C537 1.304 . S
C538 C539 1.371 . S
C538 H552 0.930 . S
C539 C536 1.344 . S
C539 C538 1.371 . S
C539 H553 0.931 . S
C540 C536 1.328 . S
C540 C541 1.433 . S
C540 H554 0.931 . S
C541 C537 1.323 . S
C541 C540 1.433 . S
C541 H555 0.933 . S
C542 Dy520 2.738 . S
C542 O525 1.255 . S
C542 O526 1.249 . S
C542 C536 1.516 . S
C543 O527 1.254 . S
C543 O528 1.257 . S
C544 O529 1.266 . S
C544 O530 1.236 . S
C545 C548 1.344 . S
C545 C549 1.328 . S
C545 C551 1.516 . S
C546 C547 1.304 . S
C546 C550 1.323 . S
C547 C546 1.304 . S
C547 C548 1.371 . S
C547 H556 0.930 . S
C548 C545 1.344 . S
C548 C547 1.371 . S
C548 H557 0.931 . S
C549 C545 1.328 . S
C549 C550 1.433 . S
C549 H558 0.931 . S
C550 C546 1.323 . S
C550 C549 1.433 . S
C550 H559 0.933 . S
C551 Dy521 2.738 1_455 S
C551 O531 1.255 1_455 S
C551 O532 1.249 1_455 S
C551 C545 1.516 . S
H552 C538 0.930 . S
H553 C539 0.931 . S
H554 C540 0.931 . S
H555 C541 0.933 . S
H556 C547 0.930 . S
H557 C548 0.931 . S
H558 C549 0.931 . S
H559 C550 0.933 . S
Dy560 O563 2.307 1_455 S
Dy560 O565 2.395 . S
Dy560 O566 2.379 . S
Dy560 O568 2.339 . S
Dy560 O570 2.298 . S
Dy560 O574 2.275 . S
Dy560 C582 2.738 . S
Dy561 O564 2.298 . S
Dy561 O567 2.275 . S
Dy561 O569 2.307 . S
Dy561 O571 2.395 . S
Dy561 O572 2.379 . S
Dy561 O575 2.339 . S
Dy561 C591 2.738 . S
C562 O574 1.254 1_655 S
C562 O575 1.257 . S
O563 Dy560 2.307 1_655 S
O563 C573 1.266 . S
O564 Dy561 2.298 . S
O564 C573 1.236 . S
O565 Dy560 2.395 . S
O565 C582 1.255 . S
O566 Dy560 2.379 . S
O566 C582 1.249 . S
O567 Dy561 2.275 . S
O567 C583 1.254 . S
O568 Dy560 2.339 . S
O568 C583 1.257 1_455 S
O569 Dy561 2.307 . S
O569 C584 1.266 1_655 S
O570 Dy560 2.298 . S
O570 C584 1.236 . S
O571 Dy561 2.395 . S
O571 C591 1.255 . S
O572 Dy561 2.379 . S
O572 C591 1.249 . S
C573 O563 1.266 . S
C573 O564 1.236 . S
O574 Dy560 2.275 . S
O574 C562 1.254 1_455 S
O575 Dy561 2.339 . S
O575 C562 1.257 . S
C576 C579 1.344 . S
C576 C580 1.328 . S
C576 C582 1.516 . S
C577 C578 1.304 . S
C577 C581 1.323 . S
C578 C577 1.304 . S
C578 C579 1.371 . S
C578 H592 0.930 . S
C579 C576 1.344 . S
C579 C578 1.371 . S
C579 H593 0.931 . S
C580 C576 1.328 . S
C580 C581 1.433 . S
C580 H594 0.931 . S
C581 C577 1.323 . S
C581 C580 1.433 . S
C581 H595 0.933 . S
C582 Dy560 2.738 . S
C582 O565 1.255 . S
C582 O566 1.249 . S
C582 C576 1.516 . S
C583 O567 1.254 . S
C583 O568 1.257 1_655 S
C584 O569 1.266 1_455 S
C584 O570 1.236 . S
C585 C588 1.344 . S
C585 C589 1.328 . S
C585 C591 1.516 . S
C586 C587 1.304 . S
C586 C590 1.323 . S
C587 C586 1.304 . S
C587 C588 1.371 . S
C587 H596 0.930 . S
C588 C585 1.344 . S
C588 C587 1.371 . S
C588 H597 0.931 . S
C589 C585 1.328 . S
C589 C590 1.433 . S
C589 H598 0.931 . S
C590 C586 1.323 . S
C590 C589 1.433 . S
C590 H599 0.933 . S
C591 Dy561 2.738 . S
C591 O571 1.255 . S
C591 O572 1.249 . S
C591 C585 1.516 . S
H592 C578 0.930 . S
H593 C579 0.931 . S
H594 C580 0.931 . S
H595 C581 0.933 . S
H596 C587 0.930 . S
H597 C588 0.931 . S
H598 C589 0.931 . S
H599 C590 0.933 . S
Dy600 O603 2.307 . S
Dy600 O605 2.395 . S
Dy600 O606 2.379 . S
Dy600 O608 2.339 . S
Dy600 O610 2.298 1_565 S
Dy600 O614 2.277 . S
Dy600 C622 2.738 . S
Dy601 O604 2.298 1_545 S
Dy601 O607 2.275 . S
Dy601 O609 2.307 . S
Dy601 O611 2.395 . S
Dy601 O612 2.379 . S
Dy601 O615 2.339 . S
Dy601 C631 2.738 1_655 S
C602 O614 1.252 1_545 S
C602 O615 1.257 . S
O603 Dy600 2.307 . S
O603 C613 1.266 . S
O604 Dy601 2.298 1_565 S
O604 C613 1.236 . S
O605 Dy600 2.395 . S
O605 C622 1.255 . S
O606 Dy600 2.379 . S
O606 C622 1.249 . S
O607 Dy601 2.275 . S
O607 C623 1.254 . S
O608 Dy600 2.339 . S
O608 C623 1.257 1_565 S
O609 Dy601 2.307 . S
O609 C624 1.266 . S
O610 Dy600 2.298 1_545 S
O610 C624 1.236 . S
O611 Dy601 2.395 . S
O611 C631 1.255 1_655 S
O612 Dy601 2.379 . S
O612 C631 1.249 1_655 S
C613 O603 1.266 . S
C613 O604 1.236 . S
O614 Dy600 2.277 . S
O614 C602 1.252 1_565 S
O615 Dy601 2.339 . S
O615 C602 1.257 . S
C616 C619 1.344 . S
C616 C620 1.328 . S
C616 C622 1.516 . S
C617 C618 1.304 . S
C617 C621 1.323 . S
C618 C617 1.304 . S
C618 C619 1.371 . S
C618 H632 0.930 1_565 S
C619 C616 1.344 . S
C619 C618 1.371 . S
C619 H633 0.931 1_565 S
C620 C616 1.328 . S
C620 C621 1.433 . S
C620 H634 0.931 . S
C621 C617 1.323 . S
C621 C620 1.433 . S
C621 H635 0.933 . S
C622 Dy600 2.738 . S
C622 O605 1.255 . S
C622 O606 1.249 . S
C622 C616 1.516 . S
C623 O607 1.254 . S
C623 O608 1.257 1_545 S
C624 O609 1.266 . S
C624 O610 1.236 . S
C625 C628 1.344 . S
C625 C629 1.328 . S
C625 C631 1.516 . S
C626 C627 1.304 . S
C626 C630 1.323 . S
C627 C626 1.304 . S
C627 C628 1.371 . S
C627 H636 0.930 . S
C628 C625 1.344 . S
C628 C627 1.371 . S
C628 H637 0.931 . S
C629 C625 1.328 . S
C629 C630 1.433 . S
C629 H638 0.931 . S
C630 C626 1.323 . S
C630 C629 1.433 . S
C630 H639 0.933 . S
C631 Dy601 2.738 1_455 S
C631 O611 1.255 1_455 S
C631 O612 1.249 1_455 S
C631 C625 1.516 . S
H632 C618 0.930 1_545 S
H633 C619 0.931 1_545 S
H634 C620 0.931 . S
H635 C621 0.933 . S
H636 C627 0.930 . S
H637 C628 0.931 . S
H638 C629 0.931 . S
H639 C630 0.933 . S
Dy640 O643 2.307 . S
Dy640 O645 2.395 . S
Dy640 O646 2.379 . S
Dy640 O648 2.339 . S
Dy640 O650 2.298 . S
Dy640 O654 2.275 . S
Dy640 C662 2.738 . S
Dy641 O644 2.298 . S
Dy641 O647 2.275 . S
Dy641 O649 2.307 . S
Dy641 O651 2.395 . S
Dy641 O652 2.379 . S
Dy641 O655 2.339 . S
Dy641 C671 2.738 . S
C642 O654 1.254 . S
C642 O655 1.257 . S
O643 Dy640 2.307 . S
O643 C653 1.266 . S
O644 Dy641 2.298 . S
O644 C653 1.236 . S
O645 Dy640 2.395 . S
O645 C662 1.255 . S
O646 Dy640 2.379 . S
O646 C662 1.249 . S
O647 Dy641 2.275 . S
O647 C663 1.254 . S
O648 Dy640 2.339 . S
O648 C663 1.257 . S
O649 Dy641 2.307 . S
O649 C664 1.266 . S
O650 Dy640 2.298 . S
O650 C664 1.236 . S
O651 Dy641 2.395 . S
O651 C671 1.255 . S
O652 Dy641 2.379 . S
O652 C671 1.249 . S
C653 O643 1.266 . S
C653 O644 1.236 . S
O654 Dy640 2.275 . S
O654 C642 1.254 . S
O655 Dy641 2.339 . S
O655 C642 1.257 . S
C656 C659 1.344 . S
C656 C660 1.328 . S
C656 C662 1.516 . S
C657 C658 1.304 . S
C657 C661 1.323 . S
C658 C657 1.304 . S
C658 C659 1.371 . S
C658 H672 0.930 . S
C659 C656 1.344 . S
C659 C658 1.371 . S
C659 H673 0.931 . S
C660 C656 1.328 . S
C660 C661 1.433 . S
C660 H674 0.931 . S
C661 C657 1.323 . S
C661 C660 1.433 . S
C661 H675 0.933 . S
C662 Dy640 2.738 . S
C662 O645 1.255 . S
C662 O646 1.249 . S
C662 C656 1.516 . S
C663 O647 1.254 . S
C663 O648 1.257 . S
C664 O649 1.266 . S
C664 O650 1.236 . S
C665 C668 1.344 . S
C665 C669 1.328 . S
C665 C671 1.516 . S
C666 C667 1.304 . S
C666 C670 1.323 . S
C667 C666 1.304 . S
C667 C668 1.371 . S
C667 H676 0.930 . S
C668 C665 1.344 . S
C668 C667 1.371 . S
C668 H677 0.931 . S
C669 C665 1.328 . S
C669 C670 1.433 . S
C669 H678 0.931 . S
C670 C666 1.323 . S
C670 C669 1.433 . S
C670 H679 0.933 . S
C671 Dy641 2.738 . S
C671 O651 1.255 . S
C671 O652 1.249 . S
C671 C665 1.516 . S
H672 C658 0.930 . S
H673 C659 0.931 . S
H674 C660 0.931 . S
H675 C661 0.933 . S
H676 C667 0.930 . S
H677 C668 0.931 . S
H678 C669 0.931 . S
H679 C670 0.933 . S
Dy680 O683 2.307 . S
Dy680 O685 2.395 . S
Dy680 O686 2.379 . S
Dy680 O688 2.339 . S
Dy680 O690 2.298 . S
Dy680 O694 2.275 . S
Dy680 C702 2.738 . S
Dy681 O684 2.298 . S
Dy681 O687 2.275 . S
Dy681 O689 2.307 . S
Dy681 O691 2.395 . S
Dy681 O692 2.379 . S
Dy681 O695 2.339 . S
Dy681 C711 2.738 . S
C682 O694 1.254 . S
C682 O695 1.257 . S
O683 Dy680 2.307 . S
O683 C693 1.266 . S
O684 Dy681 2.298 . S
O684 C693 1.236 . S
O685 Dy680 2.395 . S
O685 C702 1.255 . S
O686 Dy680 2.379 . S
O686 C702 1.249 . S
O687 Dy681 2.275 . S
O687 C703 1.254 . S
O688 Dy680 2.339 . S
O688 C703 1.257 . S
O689 Dy681 2.307 . S
O689 C704 1.266 . S
O690 Dy680 2.298 . S
O690 C704 1.236 . S
O691 Dy681 2.395 . S
O691 C711 1.255 . S
O692 Dy681 2.379 . S
O692 C711 1.249 . S
C693 O683 1.266 . S
C693 O684 1.236 . S
O694 Dy680 2.275 . S
O694 C682 1.254 . S
O695 Dy681 2.339 . S
O695 C682 1.257 . S
C696 C699 1.344 . S
C696 C700 1.328 . S
C696 C702 1.516 . S
C697 C698 1.304 . S
C697 C701 1.323 . S
C698 C697 1.304 . S
C698 C699 1.371 . S
C698 H712 0.930 . S
C699 C696 1.344 . S
C699 C698 1.371 . S
C699 H713 0.931 . S
C700 C696 1.328 . S
C700 C701 1.433 . S
C700 H714 0.931 . S
C701 C697 1.323 . S
C701 C700 1.433 . S
C701 H715 0.933 . S
C702 Dy680 2.738 . S
C702 O685 1.255 . S
C702 O686 1.249 . S
C702 C696 1.516 . S
C703 O687 1.254 . S
C703 O688 1.257 . S
C704 O689 1.266 . S
C704 O690 1.236 . S
C705 C708 1.344 . S
C705 C709 1.328 . S
C705 C711 1.516 1_455 S
C706 C707 1.304 . S
C706 C710 1.323 . S
C707 C706 1.304 . S
C707 C708 1.371 . S
C707 H716 0.930 . S
C708 C705 1.344 . S
C708 C707 1.371 . S
C708 H717 0.931 . S
C709 C705 1.328 . S
C709 C710 1.433 . S
C709 H718 0.931 . S
C710 C706 1.323 . S
C710 C709 1.433 . S
C710 H719 0.933 . S
C711 Dy681 2.738 . S
C711 O691 1.255 . S
C711 O692 1.249 . S
C711 C705 1.516 1_655 S
H712 C698 0.930 . S
H713 C699 0.931 . S
H714 C700 0.931 . S
H715 C701 0.933 . S
H716 C707 0.930 . S
H717 C708 0.931 . S
H718 C709 0.931 . S
H719 C710 0.933 . S
Dy720 O723 2.307 . S
Dy720 O725 2.395 . S
Dy720 O726 2.379 . S
Dy720 O728 2.339 . S
Dy720 O730 2.298 . S
Dy720 O734 2.275 . S
Dy720 C742 2.738 . S
Dy721 O724 2.298 . S
Dy721 O727 2.275 . S
Dy721 O729 2.307 . S
Dy721 O731 2.395 . S
Dy721 O732 2.379 . S
Dy721 O735 2.339 . S
Dy721 C751 2.738 . S
C722 O734 1.254 . S
C722 O735 1.257 . S
O723 Dy720 2.307 . S
O723 C733 1.266 . S
O724 Dy721 2.298 . S
O724 C733 1.236 . S
O725 Dy720 2.395 . S
O725 C742 1.255 . S
O726 Dy720 2.379 . S
O726 C742 1.249 . S
O727 Dy721 2.275 . S
O727 C743 1.254 . S
O728 Dy720 2.339 . S
O728 C743 1.257 . S
O729 Dy721 2.307 . S
O729 C744 1.266 . S
O730 Dy720 2.298 . S
O730 C744 1.236 . S
O731 Dy721 2.395 . S
O731 C751 1.255 . S
O732 Dy721 2.379 . S
O732 C751 1.249 . S
C733 O723 1.266 . S
C733 O724 1.236 . S
O734 Dy720 2.275 . S
O734 C722 1.254 . S
O735 Dy721 2.339 . S
O735 C722 1.257 . S
C736 C739 1.344 . S
C736 C740 1.328 . S
C736 C742 1.516 . S
C737 C738 1.304 . S
C737 C741 1.323 . S
C738 C737 1.304 . S
C738 C739 1.371 . S
C738 H752 0.930 . S
C739 C736 1.344 . S
C739 C738 1.371 . S
C739 H753 0.931 . S
C740 C736 1.328 . S
C740 C741 1.433 . S
C740 H754 0.931 . S
C741 C737 1.323 . S
C741 C740 1.433 . S
C741 H755 0.933 . S
C742 Dy720 2.738 . S
C742 O725 1.255 . S
C742 O726 1.249 . S
C742 C736 1.516 . S
C743 O727 1.254 . S
C743 O728 1.257 . S
C744 O729 1.266 . S
C744 O730 1.236 . S
C745 C748 1.344 . S
C745 C749 1.328 . S
C745 C751 1.516 . S
C746 C747 1.304 . S
C746 C750 1.323 . S
C747 C746 1.304 . S
C747 C748 1.371 . S
C747 H756 0.930 . S
C748 C745 1.344 . S
C748 C747 1.371 . S
C748 H757 0.931 . S
C749 C745 1.328 . S
C749 C750 1.433 . S
C749 H758 0.931 . S
C750 C746 1.323 . S
C750 C749 1.433 . S
C750 H759 0.933 . S
C751 Dy721 2.738 . S
C751 O731 1.255 . S
C751 O732 1.249 . S
C751 C745 1.516 . S
H752 C738 0.930 . S
H753 C739 0.931 . S
H754 C740 0.931 . S
H755 C741 0.933 . S
H756 C747 0.930 . S
H757 C748 0.931 . S
H758 C749 0.931 . S
H759 C750 0.933 . S
Dy760 O763 2.307 . S
Dy760 O765 2.395 . S
Dy760 O766 2.379 . S
Dy760 O768 2.339 . S
Dy760 O770 2.298 . S
Dy760 O774 2.275 . S
Dy760 C782 2.738 . S
Dy761 O764 2.298 . S
Dy761 O767 2.275 . S
Dy761 O769 2.307 . S
Dy761 O771 2.395 . S
Dy761 O772 2.379 . S
Dy761 O775 2.339 . S
Dy761 C791 2.738 . S
C762 O774 1.254 . S
C762 O775 1.257 . S
O763 Dy760 2.307 . S
O763 C773 1.266 . S
O764 Dy761 2.298 . S
O764 C773 1.236 . S
O765 Dy760 2.395 . S
O765 C782 1.255 . S
O766 Dy760 2.379 . S
O766 C782 1.249 . S
O767 Dy761 2.275 . S
O767 C783 1.254 . S
O768 Dy760 2.339 . S
O768 C783 1.257 . S
O769 Dy761 2.307 . S
O769 C784 1.266 . S
O770 Dy760 2.298 . S
O770 C784 1.236 . S
O771 Dy761 2.395 . S
O771 C791 1.255 . S
O772 Dy761 2.379 . S
O772 C791 1.249 . S
C773 O763 1.266 . S
C773 O764 1.236 . S
O774 Dy760 2.275 . S
O774 C762 1.254 . S
O775 Dy761 2.339 . S
O775 C762 1.257 . S
C776 C779 1.344 . S
C776 C780 1.328 . S
C776 C782 1.516 . S
C777 C778 1.304 . S
C777 C781 1.323 . S
C778 C777 1.304 . S
C778 C779 1.371 . S
C778 H792 0.930 . S
C779 C776 1.344 . S
C779 C778 1.371 . S
C779 H793 0.931 . S
C780 C776 1.328 . S
C780 C781 1.433 . S
C780 H794 0.931 . S
C781 C777 1.323 . S
C781 C780 1.433 . S
C781 H795 0.933 . S
C782 Dy760 2.738 . S
C782 O765 1.255 . S
C782 O766 1.249 . S
C782 C776 1.516 . S
C783 O767 1.254 . S
C783 O768 1.257 . S
C784 O769 1.266 . S
C784 O770 1.236 . S
C785 C788 1.344 . S
C785 C789 1.328 . S
C785 C791 1.516 1_455 S
C786 C787 1.304 . S
C786 C790 1.323 . S
C787 C786 1.304 . S
C787 C788 1.371 . S
C787 H796 0.930 . S
C788 C785 1.344 . S
C788 C787 1.371 . S
C788 H797 0.931 . S
C789 C785 1.328 . S
C789 C790 1.433 . S
C789 H798 0.931 . S
C790 C786 1.323 . S
C790 C789 1.433 . S
C790 H799 0.933 . S
C791 Dy761 2.738 . S
C791 O771 1.255 . S
C791 O772 1.249 . S
C791 C785 1.516 1_655 S
H792 C778 0.930 . S
H793 C779 0.931 . S
H794 C780 0.931 . S
H795 C781 0.933 . S
H796 C787 0.930 . S
H797 C788 0.931 . S
H798 C789 0.931 . S
H799 C790 0.933 . S
Dy800 O803 2.307 . S
Dy800 O805 2.395 . S
Dy800 O806 2.379 . S
Dy800 O808 2.339 . S
Dy800 O810 2.298 . S
Dy800 O814 2.275 . S
Dy800 C822 2.738 . S
Dy801 O804 2.298 . S
Dy801 O807 2.275 . S
Dy801 O809 2.307 . S
Dy801 O811 2.395 . S
Dy801 O812 2.379 . S
Dy801 O815 2.339 . S
Dy801 C831 2.738 . S
C802 O814 1.254 . S
C802 O815 1.257 . S
O803 Dy800 2.307 . S
O803 C813 1.266 . S
O804 Dy801 2.298 . S
O804 C813 1.236 . S
O805 Dy800 2.395 . S
O805 C822 1.255 . S
O806 Dy800 2.379 . S
O806 C822 1.249 . S
O807 Dy801 2.275 . S
O807 C823 1.254 . S
O808 Dy800 2.339 . S
O808 C823 1.257 . S
O809 Dy801 2.307 . S
O809 C824 1.266 . S
O810 Dy800 2.298 . S
O810 C824 1.236 . S
O811 Dy801 2.395 . S
O811 C831 1.255 . S
O812 Dy801 2.379 . S
O812 C831 1.249 . S
C813 O803 1.266 . S
C813 O804 1.236 . S
O814 Dy800 2.275 . S
O814 C802 1.254 . S
O815 Dy801 2.339 . S
O815 C802 1.257 . S
C816 C819 1.344 . S
C816 C820 1.328 . S
C816 C822 1.516 . S
C817 C818 1.304 . S
C817 C821 1.323 . S
C818 C817 1.304 . S
C818 C819 1.371 . S
C818 H832 0.930 . S
C819 C816 1.344 . S
C819 C818 1.371 . S
C819 H833 0.931 . S
C820 C816 1.328 . S
C820 C821 1.433 . S
C820 H834 0.931 . S
C821 C817 1.323 . S
C821 C820 1.433 . S
C821 H835 0.933 . S
C822 Dy800 2.738 . S
C822 O805 1.255 . S
C822 O806 1.249 . S
C822 C816 1.516 . S
C823 O807 1.254 . S
C823 O808 1.257 . S
C824 O809 1.266 . S
C824 O810 1.236 . S
C825 C828 1.344 . S
C825 C829 1.328 . S
C825 C831 1.516 . S
C826 C827 1.304 . S
C826 C830 1.323 . S
C827 C826 1.304 . S
C827 C828 1.371 . S
C827 H836 0.930 . S
C828 C825 1.344 . S
C828 C827 1.371 . S
C828 H837 0.931 . S
C829 C825 1.328 . S
C829 C830 1.433 . S
C829 H838 0.931 . S
C830 C826 1.323 . S
C830 C829 1.433 . S
C830 H839 0.933 . S
C831 Dy801 2.738 . S
C831 O811 1.255 . S
C831 O812 1.249 . S
C831 C825 1.516 . S
H832 C818 0.930 . S
H833 C819 0.931 . S
H834 C820 0.931 . S
H835 C821 0.933 . S
H836 C827 0.930 . S
H837 C828 0.931 . S
H838 C829 0.931 . S
H839 C830 0.933 . S
Dy840 O843 2.307 . S
Dy840 O845 2.395 . S
Dy840 O846 2.379 . S
Dy840 O848 2.339 . S
Dy840 O850 2.298 . S
Dy840 O854 2.275 . S
Dy840 C862 2.738 . S
Dy841 O844 2.298 . S
Dy841 O847 2.275 . S
Dy841 O849 2.307 . S
Dy841 O851 2.395 . S
Dy841 O852 2.379 . S
Dy841 O855 2.339 . S
Dy841 C871 2.738 . S
C842 O854 1.254 . S
C842 O855 1.257 . S
O843 Dy840 2.307 . S
O843 C853 1.266 . S
O844 Dy841 2.298 . S
O844 C853 1.236 . S
O845 Dy840 2.395 . S
O845 C862 1.255 . S
O846 Dy840 2.379 . S
O846 C862 1.249 . S
O847 Dy841 2.275 . S
O847 C863 1.254 . S
O848 Dy840 2.339 . S
O848 C863 1.257 . S
O849 Dy841 2.307 . S
O849 C864 1.266 . S
O850 Dy840 2.298 . S
O850 C864 1.236 . S
O851 Dy841 2.395 . S
O851 C871 1.255 . S
O852 Dy841 2.379 . S
O852 C871 1.249 . S
C853 O843 1.266 . S
C853 O844 1.236 . S
O854 Dy840 2.275 . S
O854 C842 1.254 . S
O855 Dy841 2.339 . S
O855 C842 1.257 . S
C856 C859 1.344 . S
C856 C860 1.328 . S
C856 C862 1.516 1_655 S
C857 C858 1.304 . S
C857 C861 1.323 . S
C858 C857 1.304 . S
C858 C859 1.371 . S
C858 H872 0.930 . S
C859 C856 1.344 . S
C859 C858 1.371 . S
C859 H873 0.931 . S
C860 C856 1.328 . S
C860 C861 1.433 . S
C860 H874 0.931 . S
C861 C857 1.323 . S
C861 C860 1.433 . S
C861 H875 0.933 . S
C862 Dy840 2.738 . S
C862 O845 1.255 . S
C862 O846 1.249 . S
C862 C856 1.516 1_455 S
C863 O847 1.254 . S
C863 O848 1.257 . S
C864 O849 1.266 . S
C864 O850 1.236 . S
C865 C868 1.344 . S
C865 C869 1.328 . S
C865 C871 1.516 . S
C866 C867 1.304 . S
C866 C870 1.323 . S
C867 C866 1.304 . S
C867 C868 1.371 . S
C867 H876 0.930 . S
C868 C865 1.344 . S
C868 C867 1.371 . S
C868 H877 0.931 . S
C869 C865 1.328 . S
C869 C870 1.433 . S
C869 H878 0.931 . S
C870 C866 1.323 . S
C870 C869 1.433 . S
C870 H879 0.933 . S
C871 Dy841 2.738 . S
C871 O851 1.255 . S
C871 O852 1.249 . S
C871 C865 1.516 . S
H872 C858 0.930 . S
H873 C859 0.931 . S
H874 C860 0.931 . S
H875 C861 0.933 . S
H876 C867 0.930 . S
H877 C868 0.931 . S
H878 C869 0.931 . S
H879 C870 0.933 . S
Dy880 O883 2.307 . S
Dy880 O885 2.395 . S
Dy880 O886 2.379 . S
Dy880 O888 2.339 . S
Dy880 O890 2.298 . S
Dy880 O894 2.275 . S
Dy880 C902 2.738 . S
Dy881 O884 2.298 . S
Dy881 O887 2.275 . S
Dy881 O889 2.307 . S
Dy881 O891 2.395 . S
Dy881 O892 2.379 . S
Dy881 O895 2.339 . S
Dy881 C911 2.738 . S
C882 O894 1.254 . S
C882 O895 1.257 . S
O883 Dy880 2.307 . S
O883 C893 1.266 . S
O884 Dy881 2.298 . S
O884 C893 1.236 . S
O885 Dy880 2.395 . S
O885 C902 1.255 . S
O886 Dy880 2.379 . S
O886 C902 1.249 . S
O887 Dy881 2.275 . S
O887 C903 1.254 . S
O888 Dy880 2.339 . S
O888 C903 1.257 . S
O889 Dy881 2.307 . S
O889 C904 1.266 . S
O890 Dy880 2.298 . S
O890 C904 1.236 . S
O891 Dy881 2.395 . S
O891 C911 1.255 . S
O892 Dy881 2.379 . S
O892 C911 1.249 . S
C893 O883 1.266 . S
C893 O884 1.236 . S
O894 Dy880 2.275 . S
O894 C882 1.254 . S
O895 Dy881 2.339 . S
O895 C882 1.257 . S
C896 C899 1.344 . S
C896 C900 1.328 . S
C896 C902 1.516 . S
C897 C898 1.304 . S
C897 C901 1.323 . S
C898 C897 1.304 . S
C898 C899 1.371 . S
C898 H912 0.930 . S
C899 C896 1.344 . S
C899 C898 1.371 . S
C899 H913 0.931 . S
C900 C896 1.328 . S
C900 C901 1.433 . S
C900 H914 0.931 . S
C901 C897 1.323 . S
C901 C900 1.433 . S
C901 H915 0.933 . S
C902 Dy880 2.738 . S
C902 O885 1.255 . S
C902 O886 1.249 . S
C902 C896 1.516 . S
C903 O887 1.254 . S
C903 O888 1.257 . S
C904 O889 1.266 . S
C904 O890 1.236 . S
C905 C908 1.344 . S
C905 C909 1.328 . S
C905 C911 1.516 . S
C906 C907 1.304 . S
C906 C910 1.323 . S
C907 C906 1.304 . S
C907 C908 1.371 . S
C907 H916 0.930 . S
C908 C905 1.344 . S
C908 C907 1.371 . S
C908 H917 0.931 . S
C909 C905 1.328 . S
C909 C910 1.433 . S
C909 H918 0.931 . S
C910 C906 1.323 . S
C910 C909 1.433 . S
C910 H919 0.933 . S
C911 Dy881 2.738 . S
C911 O891 1.255 . S
C911 O892 1.249 . S
C911 C905 1.516 . S
H912 C898 0.930 . S
H913 C899 0.931 . S
H914 C900 0.931 . S
H915 C901 0.933 . S
H916 C907 0.930 . S
H917 C908 0.931 . S
H918 C909 0.931 . S
H919 C910 0.933 . S
Dy920 O923 2.307 . S
Dy920 O925 2.395 . S
Dy920 O926 2.379 . S
Dy920 O928 2.339 . S
Dy920 O930 2.298 . S
Dy920 O934 2.275 . S
Dy920 C942 2.738 . S
Dy921 O924 2.298 . S
Dy921 O927 2.275 . S
Dy921 O929 2.307 . S
Dy921 O931 2.395 . S
Dy921 O932 2.379 . S
Dy921 O935 2.339 . S
Dy921 C951 2.738 . S
C922 O934 1.254 . S
C922 O935 1.257 . S
O923 Dy920 2.307 . S
O923 C933 1.266 . S
O924 Dy921 2.298 . S
O924 C933 1.236 . S
O925 Dy920 2.395 . S
O925 C942 1.255 . S
O926 Dy920 2.379 . S
O926 C942 1.249 . S
O927 Dy921 2.275 . S
O927 C943 1.254 . S
O928 Dy920 2.339 . S
O928 C943 1.257 . S
O929 Dy921 2.307 . S
O929 C944 1.266 . S
O930 Dy920 2.298 . S
O930 C944 1.236 . S
O931 Dy921 2.395 . S
O931 C951 1.255 . S
O932 Dy921 2.379 . S
O932 C951 1.249 . S
C933 O923 1.266 . S
C933 O924 1.236 . S
O934 Dy920 2.275 . S
O934 C922 1.254 . S
O935 Dy921 2.339 . S
O935 C922 1.257 . S
C936 C939 1.344 . S
C936 C940 1.328 . S
C936 C942 1.516 1_655 S
C937 C938 1.304 . S
C937 C941 1.323 . S
C938 C937 1.304 . S
C938 C939 1.371 . S
C938 H952 0.930 . S
C939 C936 1.344 . S
C939 C938 1.371 . S
C939 H953 0.931 . S
C940 C936 1.328 . S
C940 C941 1.433 . S
C940 H954 0.931 . S
C941 C937 1.323 . S
C941 C940 1.433 . S
C941 H955 0.933 . S
C942 Dy920 2.738 . S
C942 O925 1.255 . S
C942 O926 1.249 . S
C942 C936 1.516 1_455 S
C943 O927 1.254 . S
C943 O928 1.257 . S
C944 O929 1.266 . S
C944 O930 1.236 . S
C945 C948 1.344 . S
C945 C949 1.328 . S
C945 C951 1.516 . S
C946 C947 1.304 . S
C946 C950 1.323 . S
C947 C946 1.304 . S
C947 C948 1.371 . S
C947 H956 0.930 . S
C948 C945 1.344 . S
C948 C947 1.371 . S
C948 H957 0.931 . S
C949 C945 1.328 . S
C949 C950 1.433 . S
C949 H958 0.931 . S
C950 C946 1.323 . S
C950 C949 1.433 . S
C950 H959 0.933 . S
C951 Dy921 2.738 . S
C951 O931 1.255 . S
C951 O932 1.249 . S
C951 C945 1.516 . S
H952 C938 0.930 . S
H953 C939 0.931 . S
H954 C940 0.931 . S
H955 C941 0.933 . S
H956 C947 0.930 . S
H957 C948 0.931 . S
H958 C949 0.931 . S
H959 C950 0.933 . S
Dy960 O963 2.307 . S
Dy960 O965 2.395 . S
Dy960 O966 2.379 . S
Dy960 O968 2.339 . S
Dy960 O970 2.298 1_565 S
Dy960 O974 2.275 . S
Dy960 C982 2.738 . S
Dy961 O964 2.298 1_545 S
Dy961 O967 2.277 . S
Dy961 O969 2.307 . S
Dy961 O971 2.395 . S
Dy961 O972 2.379 . S
Dy961 O975 2.339 . S
Dy961 C991 2.738 . S
C962 O974 1.254 . S
C962 O975 1.257 1_565 S
O963 Dy960 2.307 . S
O963 C973 1.266 . S
O964 Dy961 2.298 1_565 S
O964 C973 1.236 . S
O965 Dy960 2.395 . S
O965 C982 1.255 . S
O966 Dy960 2.379 . S
O966 C982 1.249 . S
O967 Dy961 2.277 . S
O967 C983 1.252 1_545 S
O968 Dy960 2.339 . S
O968 C983 1.257 . S
O969 Dy961 2.307 . S
O969 C984 1.266 . S
O970 Dy960 2.298 1_545 S
O970 C984 1.236 . S
O971 Dy961 2.395 . S
O971 C991 1.255 . S
O972 Dy961 2.379 . S
O972 C991 1.249 . S
C973 O963 1.266 . S
C973 O964 1.236 . S
O974 Dy960 2.275 . S
O974 C962 1.254 . S
O975 Dy961 2.339 . S
O975 C962 1.257 1_545 S
C976 C979 1.344 . S
C976 C980 1.328 . S
C976 C982 1.516 . S
C977 C978 1.304 . S
C977 C981 1.323 . S
C978 C977 1.304 . S
C978 C979 1.371 . S
C978 H992 0.930 . S
C979 C976 1.344 . S
C979 C978 1.371 . S
C979 H993 0.931 . S
C980 C976 1.328 . S
C980 C981 1.433 . S
C980 H994 0.931 . S
C981 C977 1.323 . S
C981 C980 1.433 . S
C981 H995 0.933 . S
C982 Dy960 2.738 . S
C982 O965 1.255 . S
C982 O966 1.249 . S
C982 C976 1.516 . S
C983 O967 1.252 1_565 S
C983 O968 1.257 . S
C984 O969 1.266 . S
C984 O970 1.236 . S
C985 C988 1.344 . S
C985 C989 1.328 . S
C985 C991 1.516 . S
C986 C987 1.304 . S
C986 C990 1.323 . S
C987 C986 1.304 . S
C987 C988 1.371 . S
C987 H996 0.930 1_545 S
C988 C985 1.344 . S
C988 C987 1.371 . S
C988 H997 0.931 1_545 S
C989 C985 1.328 . S
C989 C990 1.433 . S
C989 H998 0.931 . S
C990 C986 1.323 . S
C990 C989 1.433 . S
C990 H999 0.933 . S
C991 Dy961 2.738 . S
C991 O971 1.255 . S
C991 O972 1.249 . S
C991 C985 1.516 . S
H992 C978 0.930 . S
H993 C979 0.931 . S
H994 C980 0.931 . S
H995 C981 0.933 . S
H996 C987 0.930 1_565 S
H997 C988 0.931 1_565 S
H998 C989 0.931 . S
H999 C990 0.933 . S
Dy1000 O1003 2.307 . S
Dy1000 O1005 2.395 . S
Dy1000 O1006 2.379 . S
Dy1000 O1008 2.339 . S
Dy1000 O1010 2.298 . S
Dy1000 O1014 2.275 . S
Dy1000 C1022 2.738 . S
Dy1001 O1004 2.298 . S
Dy1001 O1007 2.275 . S
Dy1001 O1009 2.307 . S
Dy1001 O1011 2.395 . S
Dy1001 O1012 2.379 . S
Dy1001 O1015 2.339 . S
Dy1001 C1031 2.738 . S
C1002 O1014 1.254 . S
C1002 O1015 1.257 . S
O1003 Dy1000 2.307 . S
O1003 C1013 1.266 . S
O1004 Dy1001 2.298 . S
O1004 C1013 1.236 . S
O1005 Dy1000 2.395 . S
O1005 C1022 1.255 . S
O1006 Dy1000 2.379 . S
O1006 C1022 1.249 . S
O1007 Dy1001 2.275 . S
O1007 C1023 1.254 . S
O1008 Dy1000 2.339 . S
O1008 C1023 1.257 . S
O1009 Dy1001 2.307 . S
O1009 C1024 1.266 . S
O1010 Dy1000 2.298 . S
O1010 C1024 1.236 . S
O1011 Dy1001 2.395 . S
O1011 C1031 1.255 . S
O1012 Dy1001 2.379 . S
O1012 C1031 1.249 . S
C1013 O1003 1.266 . S
C1013 O1004 1.236 . S
O1014 Dy1000 2.275 . S
O1014 C1002 1.254 . S
O1015 Dy1001 2.339 . S
O1015 C1002 1.257 . S
C1016 C1019 1.344 . S
C1016 C1020 1.328 . S
C1016 C1022 1.516 . S
C1017 C1018 1.304 . S
C1017 C1021 1.323 . S
C1018 C1017 1.304 . S
C1018 C1019 1.371 . S
C1018 H1032 0.930 . S
C1019 C1016 1.344 . S
C1019 C1018 1.371 . S
C1019 H1033 0.931 . S
C1020 C1016 1.328 . S
C1020 C1021 1.433 . S
C1020 H1034 0.931 . S
C1021 C1017 1.323 . S
C1021 C1020 1.433 . S
C1021 H1035 0.933 . S
C1022 Dy1000 2.738 . S
C1022 O1005 1.255 . S
C1022 O1006 1.249 . S
C1022 C1016 1.516 . S
C1023 O1007 1.254 . S
C1023 O1008 1.257 . S
C1024 O1009 1.266 . S
C1024 O1010 1.236 . S
C1025 C1028 1.344 . S
C1025 C1029 1.328 . S
C1025 C1031 1.516 1_455 S
C1026 C1027 1.304 . S
C1026 C1030 1.323 . S
C1027 C1026 1.304 . S
C1027 C1028 1.371 . S
C1027 H1036 0.930 . S
C1028 C1025 1.344 . S
C1028 C1027 1.371 . S
C1028 H1037 0.931 . S
C1029 C1025 1.328 . S
C1029 C1030 1.433 . S
C1029 H1038 0.931 . S
C1030 C1026 1.323 . S
C1030 C1029 1.433 . S
C1030 H1039 0.933 . S
C1031 Dy1001 2.738 . S
C1031 O1011 1.255 . S
C1031 O1012 1.249 . S
C1031 C1025 1.516 1_655 S
H1032 C1018 0.930 . S
H1033 C1019 0.931 . S
H1034 C1020 0.931 . S
H1035 C1021 0.933 . S
H1036 C1027 0.930 . S
H1037 C1028 0.931 . S
H1038 C1029 0.931 . S
H1039 C1030 0.933 . S
Dy1040 O1043 2.307 . S
Dy1040 O1045 2.395 . S
Dy1040 O1046 2.379 . S
Dy1040 O1048 2.339 . S
Dy1040 O1050 2.298 . S
Dy1040 O1054 2.275 . S
Dy1040 C1062 2.738 . S
Dy1041 O1044 2.298 . S
Dy1041 O1047 2.275 . S
Dy1041 O1049 2.307 . S
Dy1041 O1051 2.395 . S
Dy1041 O1052 2.379 . S
Dy1041 O1055 2.339 . S
Dy1041 C1071 2.738 . S
C1042 O1054 1.254 . S
C1042 O1055 1.257 . S
O1043 Dy1040 2.307 . S
O1043 C1053 1.266 . S
O1044 Dy1041 2.298 . S
O1044 C1053 1.236 . S
O1045 Dy1040 2.395 . S
O1045 C1062 1.255 . S
O1046 Dy1040 2.379 . S
O1046 C1062 1.249 . S
O1047 Dy1041 2.275 . S
O1047 C1063 1.254 . S
O1048 Dy1040 2.339 . S
O1048 C1063 1.257 . S
O1049 Dy1041 2.307 . S
O1049 C1064 1.266 . S
O1050 Dy1040 2.298 . S
O1050 C1064 1.236 . S
O1051 Dy1041 2.395 . S
O1051 C1071 1.255 . S
O1052 Dy1041 2.379 . S
O1052 C1071 1.249 . S
C1053 O1043 1.266 . S
C1053 O1044 1.236 . S
O1054 Dy1040 2.275 . S
O1054 C1042 1.254 . S
O1055 Dy1041 2.339 . S
O1055 C1042 1.257 . S
C1056 C1059 1.344 . S
C1056 C1060 1.328 . S
C1056 C1062 1.516 . S
C1057 C1058 1.304 . S
C1057 C1061 1.323 . S
C1058 C1057 1.304 . S
C1058 C1059 1.371 . S
C1058 H1072 0.930 . S
C1059 C1056 1.344 . S
C1059 C1058 1.371 . S
C1059 H1073 0.931 . S
C1060 C1056 1.328 . S
C1060 C1061 1.433 . S
C1060 H1074 0.931 . S
C1061 C1057 1.323 . S
C1061 C1060 1.433 . S
C1061 H1075 0.933 . S
C1062 Dy1040 2.738 . S
C1062 O1045 1.255 . S
C1062 O1046 1.249 . S
C1062 C1056 1.516 . S
C1063 O1047 1.254 . S
C1063 O1048 1.257 . S
C1064 O1049 1.266 . S
C1064 O1050 1.236 . S
C1065 C1068 1.344 . S
C1065 C1069 1.328 . S
C1065 C1071 1.516 . S
C1066 C1067 1.304 . S
C1066 C1070 1.323 . S
C1067 C1066 1.304 . S
C1067 C1068 1.371 . S
C1067 H1076 0.930 . S
C1068 C1065 1.344 . S
C1068 C1067 1.371 . S
C1068 H1077 0.931 . S
C1069 C1065 1.328 . S
C1069 C1070 1.433 . S
C1069 H1078 0.931 . S
C1070 C1066 1.323 . S
C1070 C1069 1.433 . S
C1070 H1079 0.933 . S
C1071 Dy1041 2.738 . S
C1071 O1051 1.255 . S
C1071 O1052 1.249 . S
C1071 C1065 1.516 . S
H1072 C1058 0.930 . S
H1073 C1059 0.931 . S
H1074 C1060 0.931 . S
H1075 C1061 0.933 . S
H1076 C1067 0.930 . S
H1077 C1068 0.931 . S
H1078 C1069 0.931 . S
H1079 C1070 0.933 . S
Dy1080 O1083 2.307 . S
Dy1080 O1085 2.395 . S
Dy1080 O1086 2.379 . S
Dy1080 O1088 2.339 . S
Dy1080 O1090 2.298 1_565 S
Dy1080 O1094 2.275 . S
Dy1080 C1102 2.738 . S
Dy1081 O1084 2.298 1_545 S
Dy1081 O1087 2.277 . S
Dy1081 O1089 2.307 . S
Dy1081 O1091 2.395 . S
Dy1081 O1092 2.379 . S
Dy1081 O1095 2.339 . S
Dy1081 C1111 2.738 . S
C1082 O1094 1.254 . S
C1082 O1095 1.257 1_565 S
O1083 Dy1080 2.307 . S
O1083 C1093 1.266 . S
O1084 Dy1081 2.298 1_565 S
O1084 C1093 1.236 . S
O1085 Dy1080 2.395 . S
O1085 C1102 1.255 . S
O1086 Dy1080 2.379 . S
O1086 C1102 1.249 . S
O1087 Dy1081 2.277 . S
O1087 C1103 1.252 1_545 S
O1088 Dy1080 2.339 . S
O1088 C1103 1.257 . S
O1089 Dy1081 2.307 . S
O1089 C1104 1.266 . S
O1090 Dy1080 2.298 1_545 S
O1090 C1104 1.236 . S
O1091 Dy1081 2.395 . S
O1091 C1111 1.255 . S
O1092 Dy1081 2.379 . S
O1092 C1111 1.249 . S
C1093 O1083 1.266 . S
C1093 O1084 1.236 . S
O1094 Dy1080 2.275 . S
O1094 C1082 1.254 . S
O1095 Dy1081 2.339 . S
O1095 C1082 1.257 1_545 S
C1096 C1099 1.344 . S
C1096 C1100 1.328 . S
C1096 C1102 1.516 . S
C1097 C1098 1.304 . S
C1097 C1101 1.323 . S
C1098 C1097 1.304 . S
C1098 C1099 1.371 . S
C1098 H1112 0.930 . S
C1099 C1096 1.344 . S
C1099 C1098 1.371 . S
C1099 H1113 0.931 . S
C1100 C1096 1.328 . S
C1100 C1101 1.433 . S
C1100 H1114 0.931 . S
C1101 C1097 1.323 . S
C1101 C1100 1.433 . S
C1101 H1115 0.933 . S
C1102 Dy1080 2.738 . S
C1102 O1085 1.255 . S
C1102 O1086 1.249 . S
C1102 C1096 1.516 . S
C1103 O1087 1.252 1_565 S
C1103 O1088 1.257 . S
C1104 O1089 1.266 . S
C1104 O1090 1.236 . S
C1105 C1108 1.344 . S
C1105 C1109 1.328 . S
C1105 C1111 1.516 1_455 S
C1106 C1107 1.304 . S
C1106 C1110 1.323 . S
C1107 C1106 1.304 . S
C1107 C1108 1.371 . S
C1107 H1116 0.930 1_545 S
C1108 C1105 1.344 . S
C1108 C1107 1.371 . S
C1108 H1117 0.931 1_545 S
C1109 C1105 1.328 . S
C1109 C1110 1.433 . S
C1109 H1118 0.931 . S
C1110 C1106 1.323 . S
C1110 C1109 1.433 . S
C1110 H1119 0.933 . S
C1111 Dy1081 2.738 . S
C1111 O1091 1.255 . S
C1111 O1092 1.249 . S
C1111 C1105 1.516 1_655 S
H1112 C1098 0.930 . S
H1113 C1099 0.931 . S
H1114 C1100 0.931 . S
H1115 C1101 0.933 . S
H1116 C1107 0.930 1_565 S
H1117 C1108 0.931 1_565 S
H1118 C1109 0.931 . S
H1119 C1110 0.933 . S
Dy1120 O1123 2.307 . S
Dy1120 O1125 2.395 . S
Dy1120 O1126 2.379 . S
Dy1120 O1128 2.339 . S
Dy1120 O1130 2.298 1_565 S
Dy1120 O1134 2.277 . S
Dy1120 C1142 2.738 . S
Dy1121 O1124 2.298 1_545 S
Dy1121 O1127 2.275 . S
Dy1121 O1129 2.307 . S
Dy1121 O1131 2.395 . S
Dy1121 O1132 2.379 . S
Dy1121 O1135 2.339 . S
Dy1121 C1151 2.738 . S
C1122 O1134 1.252 1_545 S
C1122 O1135 1.257 . S
O1123 Dy1120 2.307 . S
O1123 C1133 1.266 . S
O1124 Dy1121 2.298 1_565 S
O1124 C1133 1.236 . S
O1125 Dy1120 2.395 . S
O1125 C1142 1.255 . S
O1126 Dy1120 2.379 . S
O1126 C1142 1.249 . S
O1127 Dy1121 2.275 . S
O1127 C1143 1.254 . S
O1128 Dy1120 2.339 . S
O1128 C1143 1.257 1_565 S
O1129 Dy1121 2.307 . S
O1129 C1144 1.266 . S
O1130 Dy1120 2.298 1_545 S
O1130 C1144 1.236 . S
O1131 Dy1121 2.395 . S
O1131 C1151 1.255 . S
O1132 Dy1121 2.379 . S
O1132 C1151 1.249 . S
C1133 O1123 1.266 . S
C1133 O1124 1.236 . S
O1134 Dy1120 2.277 . S
O1134 C1122 1.252 1_565 S
O1135 Dy1121 2.339 . S
O1135 C1122 1.257 . S
C1136 C1139 1.344 . S
C1136 C1140 1.328 . S
C1136 C1142 1.516 . S
C1137 C1138 1.304 . S
C1137 C1141 1.323 . S
C1138 C1137 1.304 . S
C1138 C1139 1.371 . S
C1138 H1152 0.930 1_565 S
C1139 C1136 1.344 . S
C1139 C1138 1.371 . S
C1139 H1153 0.931 1_565 S
C1140 C1136 1.328 . S
C1140 C1141 1.433 . S
C1140 H1154 0.931 . S
C1141 C1137 1.323 . S
C1141 C1140 1.433 . S
C1141 H1155 0.933 . S
C1142 Dy1120 2.738 . S
C1142 O1125 1.255 . S
C1142 O1126 1.249 . S
C1142 C1136 1.516 . S
C1143 O1127 1.254 . S
C1143 O1128 1.257 1_545 S
C1144 O1129 1.266 . S
C1144 O1130 1.236 . S
C1145 C1148 1.344 . S
C1145 C1149 1.328 . S
C1145 C1151 1.516 . S
C1146 C1147 1.304 . S
C1146 C1150 1.323 . S
C1147 C1146 1.304 . S
C1147 C1148 1.371 . S
C1147 H1156 0.930 . S
C1148 C1145 1.344 . S
C1148 C1147 1.371 . S
C1148 H1157 0.931 . S
C1149 C1145 1.328 . S
C1149 C1150 1.433 . S
C1149 H1158 0.931 . S
C1150 C1146 1.323 . S
C1150 C1149 1.433 . S
C1150 H1159 0.933 . S
C1151 Dy1121 2.738 . S
C1151 O1131 1.255 . S
C1151 O1132 1.249 . S
C1151 C1145 1.516 . S
H1152 C1138 0.930 1_545 S
H1153 C1139 0.931 1_545 S
H1154 C1140 0.931 . S
H1155 C1141 0.933 . S
H1156 C1147 0.930 . S
H1157 C1148 0.931 . S
H1158 C1149 0.931 . S
H1159 C1150 0.933 . S
Dy1160 O1163 2.307 . S
Dy1160 O1165 2.395 . S
Dy1160 O1166 2.379 . S
Dy1160 O1168 2.339 . S
Dy1160 O1170 2.298 . S
Dy1160 O1174 2.275 . S
Dy1160 C1182 2.738 . S
Dy1161 O1164 2.298 . S
Dy1161 O1167 2.275 . S
Dy1161 O1169 2.307 . S
Dy1161 O1171 2.395 . S
Dy1161 O1172 2.379 . S
Dy1161 O1175 2.339 . S
Dy1161 C1191 2.738 . S
C1162 O1174 1.254 . S
C1162 O1175 1.257 . S
O1163 Dy1160 2.307 . S
O1163 C1173 1.266 . S
O1164 Dy1161 2.298 . S
O1164 C1173 1.236 . S
O1165 Dy1160 2.395 . S
O1165 C1182 1.255 . S
O1166 Dy1160 2.379 . S
O1166 C1182 1.249 . S
O1167 Dy1161 2.275 . S
O1167 C1183 1.254 . S
O1168 Dy1160 2.339 . S
O1168 C1183 1.257 . S
O1169 Dy1161 2.307 . S
O1169 C1184 1.266 . S
O1170 Dy1160 2.298 . S
O1170 C1184 1.236 . S
O1171 Dy1161 2.395 . S
O1171 C1191 1.255 . S
O1172 Dy1161 2.379 . S
O1172 C1191 1.249 . S
C1173 O1163 1.266 . S
C1173 O1164 1.236 . S
O1174 Dy1160 2.275 . S
O1174 C1162 1.254 . S
O1175 Dy1161 2.339 . S
O1175 C1162 1.257 . S
C1176 C1179 1.344 . S
C1176 C1180 1.328 . S
C1176 C1182 1.516 1_655 S
C1177 C1178 1.304 . S
C1177 C1181 1.323 . S
C1178 C1177 1.304 . S
C1178 C1179 1.371 . S
C1178 H1192 0.930 . S
C1179 C1176 1.344 . S
C1179 C1178 1.371 . S
C1179 H1193 0.931 . S
C1180 C1176 1.328 . S
C1180 C1181 1.433 . S
C1180 H1194 0.931 . S
C1181 C1177 1.323 . S
C1181 C1180 1.433 . S
C1181 H1195 0.933 . S
C1182 Dy1160 2.738 . S
C1182 O1165 1.255 . S
C1182 O1166 1.249 . S
C1182 C1176 1.516 1_455 S
C1183 O1167 1.254 . S
C1183 O1168 1.257 . S
C1184 O1169 1.266 . S
C1184 O1170 1.236 . S
C1185 C1188 1.344 . S
C1185 C1189 1.328 . S
C1185 C1191 1.516 . S
C1186 C1187 1.304 . S
C1186 C1190 1.323 . S
C1187 C1186 1.304 . S
C1187 C1188 1.371 . S
C1187 H1196 0.930 . S
C1188 C1185 1.344 . S
C1188 C1187 1.371 . S
C1188 H1197 0.931 . S
C1189 C1185 1.328 . S
C1189 C1190 1.433 . S
C1189 H1198 0.931 . S
C1190 C1186 1.323 . S
C1190 C1189 1.433 . S
C1190 H1199 0.933 . S
C1191 Dy1161 2.738 . S
C1191 O1171 1.255 . S
C1191 O1172 1.249 . S
C1191 C1185 1.516 . S
H1192 C1178 0.930 . S
H1193 C1179 0.931 . S
H1194 C1180 0.931 . S
H1195 C1181 0.933 . S
H1196 C1187 0.930 . S
H1197 C1188 0.931 . S
H1198 C1189 0.931 . S
H1199 C1190 0.933 . S
Dy1200 O1203 2.307 . S
Dy1200 O1205 2.395 . S
Dy1200 O1206 2.379 . S
Dy1200 O1208 2.339 . S
Dy1200 O1210 2.298 . S
Dy1200 O1214 2.275 . S
Dy1200 C1222 2.738 . S
Dy1201 O1204 2.298 . S
Dy1201 O1207 2.275 . S
Dy1201 O1209 2.307 . S
Dy1201 O1211 2.395 . S
Dy1201 O1212 2.379 . S
Dy1201 O1215 2.339 . S
Dy1201 C1231 2.738 . S
C1202 O1214 1.254 . S
C1202 O1215 1.257 . S
O1203 Dy1200 2.307 . S
O1203 C1213 1.266 . S
O1204 Dy1201 2.298 . S
O1204 C1213 1.236 . S
O1205 Dy1200 2.395 . S
O1205 C1222 1.255 . S
O1206 Dy1200 2.379 . S
O1206 C1222 1.249 . S
O1207 Dy1201 2.275 . S
O1207 C1223 1.254 . S
O1208 Dy1200 2.339 . S
O1208 C1223 1.257 . S
O1209 Dy1201 2.307 . S
O1209 C1224 1.266 . S
O1210 Dy1200 2.298 . S
O1210 C1224 1.236 . S
O1211 Dy1201 2.395 . S
O1211 C1231 1.255 . S
O1212 Dy1201 2.379 . S
O1212 C1231 1.249 . S
C1213 O1203 1.266 . S
C1213 O1204 1.236 . S
O1214 Dy1200 2.275 . S
O1214 C1202 1.254 . S
O1215 Dy1201 2.339 . S
O1215 C1202 1.257 . S
C1216 C1219 1.344 . S
C1216 C1220 1.328 . S
C1216 C1222 1.516 . S
C1217 C1218 1.304 . S
C1217 C1221 1.323 . S
C1218 C1217 1.304 . S
C1218 C1219 1.371 . S
C1218 H1232 0.930 . S
C1219 C1216 1.344 . S
C1219 C1218 1.371 . S
C1219 H1233 0.931 . S
C1220 C1216 1.328 . S
C1220 C1221 1.433 . S
C1220 H1234 0.931 . S
C1221 C1217 1.323 . S
C1221 C1220 1.433 . S
C1221 H1235 0.933 . S
C1222 Dy1200 2.738 . S
C1222 O1205 1.255 . S
C1222 O1206 1.249 . S
C1222 C1216 1.516 . S
C1223 O1207 1.254 . S
C1223 O1208 1.257 . S
C1224 O1209 1.266 . S
C1224 O1210 1.236 . S
C1225 C1228 1.344 . S
C1225 C1229 1.328 . S
C1225 C1231 1.516 . S
C1226 C1227 1.304 . S
C1226 C1230 1.323 . S
C1227 C1226 1.304 . S
C1227 C1228 1.371 . S
C1227 H1236 0.930 . S
C1228 C1225 1.344 . S
C1228 C1227 1.371 . S
C1228 H1237 0.931 . S
C1229 C1225 1.328 . S
C1229 C1230 1.433 . S
C1229 H1238 0.931 . S
C1230 C1226 1.323 . S
C1230 C1229 1.433 . S
C1230 H1239 0.933 . S
C1231 Dy1201 2.738 . S
C1231 O1211 1.255 . S
C1231 O1212 1.249 . S
C1231 C1225 1.516 . S
H1232 C1218 0.930 . S
H1233 C1219 0.931 . S
H1234 C1220 0.931 . S
H1235 C1221 0.933 . S
H1236 C1227 0.930 . S
H1237 C1228 0.931 . S
H1238 C1229 0.931 . S
H1239 C1230 0.933 . S
Dy1240 O1243 2.307 . S
Dy1240 O1245 2.395 . S
Dy1240 O1246 2.379 . S
Dy1240 O1248 2.339 . S
Dy1240 O1250 2.298 1_565 S
Dy1240 O1254 2.277 . S
Dy1240 C1262 2.738 . S
Dy1241 O1244 2.298 1_545 S
Dy1241 O1247 2.275 . S
Dy1241 O1249 2.307 . S
Dy1241 O1251 2.395 . S
Dy1241 O1252 2.379 . S
Dy1241 O1255 2.339 . S
Dy1241 C1271 2.738 . S
C1242 O1254 1.252 1_545 S
C1242 O1255 1.257 . S
O1243 Dy1240 2.307 . S
O1243 C1253 1.266 . S
O1244 Dy1241 2.298 1_565 S
O1244 C1253 1.236 . S
O1245 Dy1240 2.395 . S
O1245 C1262 1.255 . S
O1246 Dy1240 2.379 . S
O1246 C1262 1.249 . S
O1247 Dy1241 2.275 . S
O1247 C1263 1.254 . S
O1248 Dy1240 2.339 . S
O1248 C1263 1.257 1_565 S
O1249 Dy1241 2.307 . S
O1249 C1264 1.266 . S
O1250 Dy1240 2.298 1_545 S
O1250 C1264 1.236 . S
O1251 Dy1241 2.395 . S
O1251 C1271 1.255 . S
O1252 Dy1241 2.379 . S
O1252 C1271 1.249 . S
C1253 O1243 1.266 . S
C1253 O1244 1.236 . S
O1254 Dy1240 2.277 . S
O1254 C1242 1.252 1_565 S
O1255 Dy1241 2.339 . S
O1255 C1242 1.257 . S
C1256 C1259 1.344 . S
C1256 C1260 1.328 . S
C1256 C1262 1.516 1_655 S
C1257 C1258 1.304 . S
C1257 C1261 1.323 . S
C1258 C1257 1.304 . S
C1258 C1259 1.371 . S
C1258 H1272 0.930 1_565 S
C1259 C1256 1.344 . S
C1259 C1258 1.371 . S
C1259 H1273 0.931 1_565 S
C1260 C1256 1.328 . S
C1260 C1261 1.433 . S
C1260 H1274 0.931 . S
C1261 C1257 1.323 . S
C1261 C1260 1.433 . S
C1261 H1275 0.933 . S
C1262 Dy1240 2.738 . S
C1262 O1245 1.255 . S
C1262 O1246 1.249 . S
C1262 C1256 1.516 1_455 S
C1263 O1247 1.254 . S
C1263 O1248 1.257 1_545 S
C1264 O1249 1.266 . S
C1264 O1250 1.236 . S
C1265 C1268 1.344 . S
C1265 C1269 1.328 . S
C1265 C1271 1.516 . S
C1266 C1267 1.304 . S
C1266 C1270 1.323 . S
C1267 C1266 1.304 . S
C1267 C1268 1.371 . S
C1267 H1276 0.930 . S
C1268 C1265 1.344 . S
C1268 C1267 1.371 . S
C1268 H1277 0.931 . S
C1269 C1265 1.328 . S
C1269 C1270 1.433 . S
C1269 H1278 0.931 . S
C1270 C1266 1.323 . S
C1270 C1269 1.433 . S
C1270 H1279 0.933 . S
C1271 Dy1241 2.738 . S
C1271 O1251 1.255 . S
C1271 O1252 1.249 . S
C1271 C1265 1.516 . S
H1272 C1258 0.930 1_545 S
H1273 C1259 0.931 1_545 S
H1274 C1260 0.931 . S
H1275 C1261 0.933 . S
H1276 C1267 0.930 . S
H1277 C1268 0.931 . S
H1278 C1269 0.931 . S
H1279 C1270 0.933 . S
C13 C1013 2.715 . S
C973 C53 2.715 . S
C1093 C93 2.715 . S
C133 C1053 2.715 . S
C184 C1184 2.715 . S
C224 C1144 2.715 . S
C264 C1264 2.715 . S
C1224 C304 2.715 . S
C333 C693 2.715 . S
C373 C653 2.715 . S
C413 C773 2.715 . S
C733 C453 2.715 . S
C504 C864 2.715 . S
C544 C824 2.715 . S
C944 C584 2.715 . S
C624 C904 2.715 . S
C2 C122 2.704 . S
C42 C82 2.704 . S
C303 C183 2.704 . S
C263 C223 2.704 . S
C322 C442 2.704 . S
C362 C402 2.704 . S
C503 C623 2.704 . S
C583 C543 2.704 . S
C642 C762 2.704 . S
C682 C722 2.704 . S
C943 C823 2.704 . S
C863 C903 2.704 . S
C1082 C962 2.704 . S
C1002 C1042 2.704 . S
C1263 C1143 2.704 . S
C1223 C1183 2.704 . S
C64 C24 1.442 . S
C104 C144 1.442 . S
C213 C173 1.442 . S
C293 C253 1.442 . S
C344 C384 1.443 . S
C424 C464 1.443 . S
C533 C493 1.443 . S
C573 C613 1.443 . S
C664 C704 1.442 . S
C784 C744 1.442 . S
C813 C853 1.442 . S
C893 C933 1.442 . S
C984 C1024 1.443 . S
C1064 C1104 1.443 . S
C1173 C1133 1.443 . S
C1213 C1253 1.443 . S
C26 C17 2.811 . S
C66 C57 2.809 . S
C106 C97 2.809 . S
C137 C146 2.811 . S
C186 C177 2.811 . S
C217 C226 2.809 . S
C266 C257 2.809 . S
C306 C297 2.811 . S
C337 C346 2.809 1_565 S
C386 C377 2.810 . S
C426 C417 2.810 . S
C457 C466 2.809 1_565 S
C506 C497 2.809 1_545 S
C537 C546 2.810 . S
C577 C586 2.810 . S
C626 C617 2.809 1_545 S
C666 C657 2.811 1_455 S
C697 C706 2.809 . S
C737 C746 2.809 1_655 S
C786 C777 2.811 . S
C817 C826 2.811 1_655 S
C857 C866 2.809 . S
C906 C897 2.809 1_455 S
C937 C946 2.811 . S
C977 C986 2.809 1_665 S
C1026 C1017 2.810 . S
C1057 C1066 2.810 1_655 S
C1097 C1106 2.809 1_565 S
C1137 C1146 2.809 1_665 S
C1177 C1186 2.810 . S
C1226 C1217 2.810 1_455 S
C1266 C1257 2.809 1_545 S
C23 C162 1.552 1_454 S
C1162 C63 1.551 1_556 S
C562 C103 1.551 1_655 S
C143 C922 1.552 . S
C202 C1023 1.551 1_556 S
C242 C423 1.551 1_655 S
C282 C783 1.552 . S
C343 C482 1.552 1_465 S
C842 C383 1.551 . S
C1242 C463 1.552 1_545 S
C522 C703 1.551 . S
C1103 C602 1.552 1_565 S
C663 C802 1.552 . S
C1202 C743 1.551 . S
C882 C1063 1.551 . S
C983 C1122 1.552 1_564 S
