# Generated by pormake.
# Topology smm, (6)-cn, num edge types: 1
# Building blocks:
#     Node 0, Type 0, BuildingBlock: UKALOJ_clean_sbu_0, # of connection points: 6
#     Node 1, Type 0, BuildingBlock: UKALOJ_clean_sbu_0, # of connection points: 6
#     Node 2, Type 0, BuildingBlock: UKALOJ_clean_sbu_0, # of connection points: 6
#     Node 3, Type 0, BuildingBlock: UKALOJ_clean_sbu_0, # of connection points: 6
#     Node 4, Type 0, BuildingBlock: UKALOJ_clean_sbu_0, # of connection points: 6
#     Node 5, Type 0, BuildingBlock: UKALOJ_clean_sbu_0, # of connection points: 6
#     Node 6, Type 0, BuildingBlock: UKALOJ_clean_sbu_0, # of connection points: 6
#     Node 7, Type 0, BuildingBlock: UKALOJ_clean_sbu_0, # of connection points: 6
#     Node 8, Type 0, BuildingBlock: UKALOJ_clean_sbu_0, # of connection points: 6
#     Edge 9, Type (0, 0), BuildingBlock: TEMPAE_clean_linker_10, # of connection points: 2
#     Edge 10, Type (0, 0), BuildingBlock: TEMPAE_clean_linker_10, # of connection points: 2
#     Edge 11, Type (0, 0), BuildingBlock: TEMPAE_clean_linker_10, # of connection points: 2
#     Edge 12, Type (0, 0), BuildingBlock: TEMPAE_clean_linker_10, # of connection points: 2
#     Edge 13, Type (0, 0), BuildingBlock: TEMPAE_clean_linker_10, # of connection points: 2
#     Edge 14, Type (0, 0), BuildingBlock: TEMPAE_clean_linker_10, # of connection points: 2
#     Edge 15, Type (0, 0), BuildingBlock: TEMPAE_clean_linker_10, # of connection points: 2
#     Edge 16, Type (0, 0), BuildingBlock: TEMPAE_clean_linker_10, # of connection points: 2
#     Edge 17, Type (0, 0), BuildingBlock: TEMPAE_clean_linker_10, # of connection points: 2
#     Edge 18, Type (0, 0), BuildingBlock: TEMPAE_clean_linker_10, # of connection points: 2
#     Edge 19, Type (0, 0), BuildingBlock: TEMPAE_clean_linker_10, # of connection points: 2
#     Edge 20, Type (0, 0), BuildingBlock: TEMPAE_clean_linker_10, # of connection points: 2
#     Edge 21, Type (0, 0), BuildingBlock: TEMPAE_clean_linker_10, # of connection points: 2
#     Edge 22, Type (0, 0), BuildingBlock: TEMPAE_clean_linker_10, # of connection points: 2
#     Edge 23, Type (0, 0), BuildingBlock: TEMPAE_clean_linker_10, # of connection points: 2
#     Edge 24, Type (0, 0), BuildingBlock: TEMPAE_clean_linker_10, # of connection points: 2
#     Edge 25, Type (0, 0), BuildingBlock: TEMPAE_clean_linker_10, # of connection points: 2
#     Edge 26, Type (0, 0), BuildingBlock: TEMPAE_clean_linker_10, # of connection points: 2
#     Edge 27, Type (0, 0), BuildingBlock: TEMPAE_clean_linker_10, # of connection points: 2
#     Edge 28, Type (0, 0), BuildingBlock: TEMPAE_clean_linker_10, # of connection points: 2
#     Edge 29, Type (0, 0), BuildingBlock: TEMPAE_clean_linker_10, # of connection points: 2
#     Edge 30, Type (0, 0), BuildingBlock: TEMPAE_clean_linker_10, # of connection points: 2
#     Edge 31, Type (0, 0), BuildingBlock: TEMPAE_clean_linker_10, # of connection points: 2
#     Edge 32, Type (0, 0), BuildingBlock: TEMPAE_clean_linker_10, # of connection points: 2
#     Edge 33, Type (0, 0), BuildingBlock: TEMPAE_clean_linker_10, # of connection points: 2
#     Edge 34, Type (0, 0), BuildingBlock: TEMPAE_clean_linker_10, # of connection points: 2
#     Edge 35, Type (0, 0), BuildingBlock: TEMPAE_clean_linker_10, # of connection points: 2
# Relax obj value: 0.319
# Max RMSD: 0.270
# Mean RMSD: 0.256
data_MOF--net-smm--node1-UKALOJ_clean_sbu_0--edge1-TEMPAE_clean_linker_10
_symmetry_space_group_name_H-M    P1
_symmetry_Int_Tables_number       1
_symmetry_cell_setting            triclinic
loop_
_symmetry_equiv_pos_as_xyz
'x, y, z'
_cell_length_a     49.014237
_cell_length_b     48.2737
_cell_length_c     19.899429
_cell_angle_alpha  92.925357
_cell_angle_beta   92.827977
_cell_angle_gamma 119.91118
loop_
_atom_site_label
_atom_site_type_symbol
_atom_site_fract_x
_atom_site_fract_y
_atom_site_fract_z
_atom_type_partial_charge
Zn0 Zn 0.0345 0.21487 0.10776 0.0
O1 O 0.00204 0.16442 0.11971 0.0
C2 C 0.06707 0.18823 0.03576 0.0
Zn3 Zn 0.01654 0.20498 0.0014 0.0
C4 C 0.98087 0.14789 0.07156 0.0
O5 O 0.98051 0.16077 0.01804 0.0
C6 C 0.06991 0.27067 0.02941 0.0
O7 O 0.9859 0.22466 0.01833 0.0
O8 O -0.00029 0.22577 0.12546 0.0
N9 N 0.0027 0.19492 0.90097 0.0
C10 C 0.00601 0.214 0.85116 0.0
C11 C 0.9888 0.16679 0.80511 0.0
N12 N 0.99176 0.16557 0.87229 0.0
N13 N 0.99777 0.19694 0.79031 0.0
C14 C 0.03352 0.22049 0.2632 0.0
C15 C 0.08229 0.24147 0.29701 0.0
N16 N 0.04946 0.22441 0.20792 0.0
N17 N 0.07975 0.23745 0.229 0.0
N18 N 0.05362 0.23132 0.31943 0.0
H19 H 0.98641 0.18726 0.21773 0.0
H20 H 0.99131 0.22319 0.26183 0.0
H21 H 0.99002 0.19182 0.30878 0.0
C22 C -0.00174 0.20457 0.26265 0.0
C23 C 0.01573 0.2488 0.86259 0.0
H24 H 0.00797 0.25357 0.91102 0.0
H25 H 0.00548 0.25604 0.82073 0.0
H26 H 0.04184 0.26374 0.86503 0.0
O27 O 0.05299 0.24895 0.9832 0.0
O28 O 0.06645 0.26464 0.09099 0.0
C29 C 0.98284 0.2293 0.08046 0.0
O30 O 0.06916 0.20352 0.09116 0.0
O31 O 0.04658 0.18447 0.98872 0.0
Zn32 Zn 0.81677 0.85298 0.11659 0.0
O33 O 0.76837 0.84256 0.09401 0.0
C34 C 0.79305 0.78299 0.09804 0.0
Zn35 Zn 0.81925 0.83683 0.01323 0.0
C36 C 0.75958 0.83688 0.03102 0.0
O37 O 0.77704 0.83414 0.98981 0.0
C38 C 0.87767 0.85425 0.08968 0.0
O39 O 0.84453 0.88788 0.99627 0.0
O40 O 0.8323 0.89877 0.09491 0.0
N41 N 0.82046 0.82391 0.91466 0.0
C42 C 0.81068 0.83087 0.85674 0.0
C43 C 0.83096 0.80216 0.82986 0.0
N44 N 0.83298 0.806 0.89784 0.0
N45 N 0.81673 0.81726 0.80306 0.0
C46 C 0.79989 0.84947 0.26507 0.0
C47 C 0.8376 0.89374 0.31182 0.0
N48 N 0.81735 0.86617 0.21584 0.0
N49 N 0.84062 0.89378 0.24493 0.0
N50 N 0.81235 0.86611 0.32596 0.0
H51 H 0.75779 0.81533 0.20281 0.0
H52 H 0.75375 0.81492 0.29268 0.0
H53 H 0.77532 0.79805 0.25458 0.0
C54 C 0.76988 0.8177 0.25303 0.0
C55 C 0.79684 0.85239 0.85236 0.0
H56 H 0.8046 0.86974 0.89738 0.0
H57 H 0.7707 0.83745 0.84862 0.0
H58 H 0.80368 0.8658 0.8067 0.0
O59 O 0.86136 0.83935 0.03518 0.0
O60 O 0.86589 0.86436 0.13377 0.0
C61 C 0.84483 0.90819 0.04044 0.0
O62 O 0.80166 0.807 0.13994 0.0
O63 O 0.79509 0.78694 0.03527 0.0
Zn64 Zn 0.15783 0.99739 0.91101 0.0
O65 O 0.20806 0.03083 0.90817 0.0
C66 C 0.17282 0.94445 0.9068 0.0
Zn67 Zn 0.16728 0.98581 0.01237 0.0
C68 C 0.22523 0.03602 0.96274 0.0
O69 O 0.21329 0.02033 0.01255 0.0
C70 C 0.09979 0.9484 0.97166 0.0
O71 O 0.15687 0.02286 0.04914 0.0
O72 O 0.15312 0.035 0.94537 0.0
N73 N 0.17684 0.97842 0.10857 0.0
C74 C 0.16165 0.97529 0.16485 0.0
C75 C 0.20488 0.97678 0.19361 0.0
N76 N 0.20357 0.9791 0.1265 0.0
N77 N 0.17876 0.97415 0.21882 0.0
C78 C 0.1625 0.00362 0.75789 0.0
C79 C 0.11875 0.00026 0.72547 0.0
N80 N 0.14777 0.00314 0.81365 0.0
N81 N 0.12068 0.00122 0.79346 0.0
N82 N 0.1446 0.00149 0.70197 0.0
H83 H 0.21218 0.03245 0.78529 0.0
H84 H 0.20309 0.0087 0.70733 0.0
H85 H 0.19718 0.99015 0.78586 0.0
C86 C 0.19539 0.00869 0.75869 0.0
C87 C 0.13117 0.97547 0.16806 0.0
H88 H 0.13288 0.9915 0.21205 0.0
H89 H 0.1119 0.95088 0.17471 0.0
H90 H 0.12454 0.98304 0.12168 0.0
O91 O 0.12101 0.95105 0.01461 0.0
O92 O 0.10785 0.96506 0.9209 0.0
C93 C 0.15309 0.04041 0.00818 0.0
O94 O 0.16254 0.95959 0.87411 0.0
O95 O 0.17854 0.9505 0.97071 0.0
Zn96 Zn 0.62412 0.50923 0.24443 0.0
O97 O 0.65852 0.4946 0.21984 0.0
C98 C 0.59117 0.44531 0.29212 0.0
Zn99 Zn 0.63918 0.51125 0.35028 0.0
C100 C 0.67864 0.49774 0.26726 0.0
O101 O 0.67655 0.50656 0.3267 0.0
C102 C 0.58527 0.52213 0.33505 0.0
O103 O 0.66924 0.56265 0.35114 0.0
O104 O 0.6575 0.55657 0.24147 0.0
N105 N 0.65139 0.51246 0.44943 0.0
C106 C 0.6483 0.52806 0.50395 0.0
C107 C 0.66488 0.49769 0.53937 0.0
N108 N 0.6619 0.49377 0.47142 0.0
N109 N 0.65634 0.51896 0.56104 0.0
C110 C 0.62592 0.51972 0.09261 0.0
C111 C 0.57728 0.49036 0.05707 0.0
N112 N 0.60991 0.50655 0.14616 0.0
N113 N 0.57969 0.48848 0.12413 0.0
N114 N 0.60591 0.51011 0.0364 0.0
H115 H 0.67319 0.53618 0.13772 0.0
H116 H 0.66742 0.56608 0.09989 0.0
H117 H 0.66994 0.53626 0.04705 0.0
C118 C 0.66115 0.54054 0.09457 0.0
C119 C 0.6386 0.55305 0.50123 0.0
H120 H 0.64597 0.56603 0.45538 0.0
H121 H 0.64908 0.5706 0.54637 0.0
H122 H 0.61251 0.54134 0.49995 0.0
O123 O 0.60128 0.5155 0.37584 0.0
O124 O 0.59056 0.52355 0.273 0.0
C125 C 0.673 0.57435 0.29418 0.0
O126 O 0.59064 0.46174 0.24517 0.0
O127 O 0.61005 0.45954 0.3448 0.0
Zn128 Zn 0.49039 0.16015 0.29849 0.0
O129 O 0.43959 0.13944 0.27983 0.0
C130 C 0.4817 0.09433 0.28822 0.0
Zn131 Zn 0.49305 0.14328 0.19537 0.0
C132 C 0.42857 0.12934 0.21861 0.0
O133 O 0.44625 0.12841 0.17555 0.0
C134 C 0.55607 0.17706 0.26509 0.0
O135 O 0.50564 0.19188 0.17107 0.0
O136 O 0.49496 0.20196 0.27232 0.0
N137 N 0.4954 0.13047 0.09756 0.0
C138 C 0.48273 0.13372 0.03889 0.0
C139 C 0.51305 0.11555 0.01431 0.0
N140 N 0.51406 0.11897 0.08215 0.0
N141 N 0.49331 0.12435 0.98611 0.0
C142 C 0.47568 0.1549 0.44804 0.0
C143 C 0.50651 0.20254 0.49206 0.0
N144 N 0.48989 0.17311 0.39749 0.0
N145 N 0.50887 0.20275 0.42487 0.0
N146 N 0.486 0.17274 0.50799 0.0
H147 H 0.43721 0.11414 0.38863 0.0
H148 H 0.43432 0.11375 0.4788 0.0
H149 H 0.46209 0.10509 0.441 0.0
C150 C 0.45078 0.12002 0.43847 0.0
C151 C 0.46153 0.14778 0.03288 0.0
H152 H 0.4647 0.1636 0.07814 0.0
H153 H 0.43658 0.12798 0.02682 0.0
H154 H 0.46607 0.16166 0.98793 0.0
O155 O 0.54013 0.15871 0.21321 0.0
O156 O 0.54171 0.18254 0.31114 0.0
C157 C 0.50256 0.21049 0.214 0.0
O158 O 0.48616 0.11812 0.32647 0.0
O159 O 0.48106 0.09583 0.22446 0.0
Zn160 Zn 0.83931 0.35802 0.37192 0.0
O161 O 0.86311 0.33029 0.36312 0.0
C162 C 0.90285 0.41694 0.38532 0.0
Zn163 Zn 0.85492 0.37701 0.27494 0.0
C164 C 0.87276 0.32884 0.30544 0.0
O165 O 0.87104 0.34551 0.26036 0.0
C166 C 0.81964 0.4051 0.33049 0.0
O167 O 0.80703 0.34018 0.23396 0.0
O168 O 0.79907 0.31875 0.33085 0.0
N169 N 0.86698 0.39223 0.18186 0.0
C170 C 0.86393 0.37609 0.12208 0.0
C171 C 0.88133 0.42504 0.10404 0.0
N172 N 0.87798 0.42266 0.17062 0.0
N173 N 0.87294 0.39619 0.07267 0.0
C174 C 0.84508 0.34891 0.52333 0.0
C175 C 0.79792 0.33102 0.54977 0.0
N176 N 0.82697 0.34456 0.46613 0.0
N177 N 0.79764 0.33322 0.48254 0.0
N178 N 0.82745 0.34096 0.5767 0.0
H179 H 0.88596 0.35239 0.47889 0.0
H180 H 0.88633 0.34957 0.56892 0.0
H181 H 0.89375 0.38623 0.53471 0.0
C182 C 0.87969 0.35971 0.52652 0.0
C183 C 0.85049 0.34047 0.11113 0.0
H184 H 0.83584 0.32771 0.15184 0.0
H185 H 0.87022 0.33543 0.11001 0.0
H186 H 0.83599 0.33086 0.06203 0.0
O187 O 0.83871 0.40843 0.28693 0.0
O188 O 0.81436 0.38497 0.37429 0.0
C189 C 0.78954 0.31796 0.27027 0.0
O190 O 0.87946 0.39777 0.4153 0.0
O191 O 0.90151 0.4135 0.32106 0.0
Zn192 Zn 0.35544 0.88468 0.70247 0.0
O193 O 0.31868 0.83681 0.72647 0.0
C194 C 0.39194 0.85337 0.66945 0.0
Zn195 Zn 0.34183 0.86184 0.59764 0.0
C196 C 0.30141 0.8145 0.68041 0.0
O197 O 0.30634 0.8191 0.61927 0.0
C198 C 0.3952 0.93044 0.61121 0.0
O199 O 0.30714 0.87725 0.58827 0.0
O200 O 0.32196 0.89804 0.69333 0.0
N201 N 0.33332 0.8458 0.49787 0.0
C202 C 0.33452 0.8613 0.4426 0.0
C203 C 0.32598 0.81478 0.40875 0.0
N204 N 0.32778 0.81685 0.4768 0.0
N205 N 0.32993 0.84228 0.38614 0.0
C206 C 0.36059 0.88548 0.85791 0.0
C207 C 0.36876 0.93201 0.89003 0.0
N208 N 0.36357 0.90115 0.80214 0.0
N209 N 0.36884 0.93012 0.82219 0.0
N210 N 0.36331 0.90417 0.91359 0.0
H211 H 0.36663 0.84689 0.81514 0.0
H212 H 0.33067 0.8344 0.85429 0.0
H213 H 0.36732 0.84992 0.90579 0.0
C214 C 0.35624 0.85239 0.85819 0.0
C215 C 0.34408 0.89618 0.44424 0.0
H216 H 0.33822 0.90432 0.49147 0.0
H217 H 0.33241 0.90114 0.40143 0.0
H218 H 0.36995 0.91061 0.4406 0.0
O219 O 0.37826 0.90487 0.57373 0.0
O220 O 0.39092 0.93125 0.67375 0.0
C221 C 0.30399 0.89166 0.64018 0.0
O222 O 0.38917 0.8715 0.71337 0.0
O223 O 0.37497 0.84492 0.61329 0.0
Zn224 Zn 0.14958 0.52882 0.78304 0.0
O225 O 0.09923 0.51164 0.77219 0.0
C226 C 0.1366 0.46115 0.77299 0.0
Zn227 Zn 0.149 0.51002 0.67941 0.0
C228 C 0.08652 0.50091 0.71216 0.0
O229 O 0.1026 0.49868 0.66673 0.0
C230 C 0.21252 0.53893 0.74195 0.0
O231 O 0.16409 0.55886 0.65405 0.0
O232 O 0.15722 0.57207 0.75615 0.0
N233 N 0.14478 0.49436 0.58046 0.0
C234 C 0.15877 0.51012 0.52705 0.0
C235 C 0.12137 0.46378 0.48886 0.0
N236 N 0.12172 0.46548 0.5567 0.0
N237 N 0.14423 0.4916 0.46891 0.0
C238 C 0.14062 0.52959 0.93619 0.0
C239 C 0.17601 0.57742 0.97118 0.0
N240 N 0.15364 0.54497 0.88161 0.0
N241 N 0.17536 0.57476 0.90339 0.0
N242 N 0.15435 0.54946 0.99302 0.0
H243 H 0.10274 0.48566 0.88472 0.0
H244 H 0.10074 0.48916 0.97432 0.0
H245 H 0.12972 0.48106 0.94205 0.0
C246 C 0.117 0.49442 0.93409 0.0
C247 C 0.18748 0.54299 0.5321 0.0
H248 H 0.18011 0.56128 0.53147 0.0
H249 H 0.20174 0.54569 0.48869 0.0
H250 H 0.20231 0.54757 0.57975 0.0
O251 O 0.19526 0.52129 0.69034 0.0
O252 O 0.20014 0.54684 0.78867 0.0
C253 C 0.16458 0.57961 0.6972 0.0
O254 O 0.14289 0.48549 0.81187 0.0
O255 O 0.13489 0.46254 0.70931 0.0
Zn256 Zn 0.5111 0.67596 0.75475 0.0
O257 O 0.50207 0.71373 0.79284 0.0
C258 C 0.44595 0.64403 0.69754 0.0
Zn259 Zn 0.50928 0.69357 0.65496 0.0
C260 C 0.50129 0.73347 0.75368 0.0
O261 O 0.50445 0.73053 0.69159 0.0
C262 C 0.51797 0.63634 0.64853 0.0
O263 O 0.55961 0.72617 0.66526 0.0
O264 O 0.55881 0.7085 0.76511 0.0
N265 N 0.50468 0.70422 0.55886 0.0
C266 C 0.5171 0.69996 0.50303 0.0
C267 C 0.4821 0.71156 0.47137 0.0
N268 N 0.48308 0.71163 0.53919 0.0
N269 N 0.503 0.70397 0.44741 0.0
C270 C 0.5027 0.66558 0.90669 0.0
C271 C 0.53682 0.6518 0.93179 0.0
N272 N 0.51542 0.66367 0.84937 0.0
N273 N 0.53635 0.65479 0.86493 0.0
N274 N 0.51581 0.65828 0.95914 0.0
H275 H 0.4938 0.70441 0.92204 0.0
H276 H 0.46482 0.66816 0.95367 0.0
H277 H 0.46481 0.67156 0.86432 0.0
C278 C 0.48011 0.67791 0.91199 0.0
C279 C 0.54386 0.69316 0.50321 0.0
H280 H 0.55916 0.70299 0.55104 0.0
H281 H 0.55832 0.70368 0.46037 0.0
H282 H 0.53434 0.66688 0.4978 0.0
O283 O 0.51357 0.65571 0.61588 0.0
O284 O 0.5198 0.63913 0.71273 0.0
C285 C 0.57387 0.72732 0.7215 0.0
O286 O 0.46331 0.64372 0.74644 0.0
O287 O 0.4587 0.66244 0.65097 0.0
C288 C 0.08259 0.32679 0.02332 0.0
C289 C 0.09009 0.30289 0.00835 0.0
C290 C 0.09303 0.35321 0.98446 0.0
C291 C 0.11174 0.35578 0.93034 0.0
C292 C 0.12137 0.3329 0.91874 0.0
C293 C 0.11004 0.30647 0.95739 0.0
C294 C 0.0821 0.37702 -0.00191 0.0
C295 C 0.14194 0.33518 0.86282 0.0
C296 C 0.10688 0.40209 0.78532 0.0
C297 C 0.13271 0.43262 0.80454 0.0
C298 C 0.10013 0.37645 0.82506 0.0
C299 C 0.12007 0.38164 0.88427 0.0
C300 C 0.14726 0.41201 0.9011 0.0
C301 C 0.15302 0.43719 0.86146 0.0
C302 C 0.07081 0.34432 0.80572 0.0
C303 C 0.16962 0.41829 0.96245 0.0
H304 H 0.06634 0.3234 0.06135 0.0
H305 H 0.1152 0.2875 0.94503 0.0
H306 H 0.10255 0.40184 0.00415 0.0
H307 H 0.06634 0.37554 0.95433 0.0
H308 H 0.06907 0.37258 0.04413 0.0
H309 H 0.151 0.31827 0.86688 0.0
H310 H 0.12807 0.32946 0.81324 0.0
H311 H 0.16232 0.35992 0.86349 0.0
H312 H 0.09103 0.39874 0.74176 0.0
H313 H 0.17308 0.4609 0.87613 0.0
H314 H 0.05426 0.33856 0.84576 0.0
H315 H 0.07695 0.3251 0.80158 0.0
H316 H 0.05844 0.34387 0.75702 0.0
H317 H 0.15761 0.41699 0.00898 0.0
H318 H 0.19131 0.44225 0.96452 0.0
H319 H 0.1766 0.39968 0.96264 0.0
C320 C 0.73197 0.85084 0.94566 0.0
C321 C 0.72994 0.83348 0.00146 0.0
C322 C 0.70692 0.83941 0.89542 0.0
C323 C 0.67882 0.81036 0.90239 0.0
C324 C 0.67522 0.79497 0.963 0.0
C325 C 0.7011 0.80659 0.01182 0.0
C326 C 0.71208 0.85643 0.83166 0.0
C327 C 0.64513 0.76451 0.97331 0.0
C328 C 0.60481 0.78004 0.78377 0.0
C329 C 0.60473 0.7547 0.74594 0.0
C330 C 0.62954 0.79954 0.83304 0.0
C331 C 0.65501 0.79386 0.84342 0.0
C332 C 0.65653 0.7704 0.80033 0.0
C333 C 0.63095 0.75057 0.75288 0.0
C334 C 0.62682 0.82404 0.87803 0.0
C335 C 0.68402 0.76456 0.80782 0.0
H336 H 0.75449 0.87157 0.93761 0.0
H337 H 0.69969 0.79291 0.0544 0.0
H338 H 0.71718 0.84324 0.79154 0.0
H339 H 0.69067 0.85703 0.8132 0.0
H340 H 0.73232 0.8814 0.83928 0.0
H341 H 0.64426 0.75841 0.02655 0.0
H342 H 0.6242 0.76674 0.95883 0.0
H343 H 0.64347 0.74434 0.94049 0.0
H344 H 0.58396 0.78249 0.77966 0.0
H345 H 0.63042 0.73043 0.72482 0.0
H346 H 0.64963 0.84696 0.88551 0.0
H347 H 0.62065 0.81498 0.92845 0.0
H348 H 0.60829 0.82885 0.85715 0.0
H349 H 0.70674 0.78757 0.81005 0.0
H350 H 0.68342 0.74828 0.7655 0.0
H351 H 0.68348 0.75363 0.85581 0.0
C352 C 0.20766 0.92075 0.89006 0.0
C353 C 0.18236 0.92446 0.86672 0.0
C354 C 0.22265 0.91038 0.84489 0.0
C355 C 0.21218 0.90396 0.77504 0.0
C356 C 0.18496 0.905 0.7526 0.0
C357 C 0.17021 0.91489 0.79878 0.0
C358 C 0.25116 0.90868 0.87103 0.0
C359 C 0.17307 0.89846 0.67884 0.0
C360 C 0.27935 0.92431 0.66443 0.0
C361 C 0.27568 0.89407 0.64794 0.0
C362 C 0.2574 0.92761 0.70169 0.0
C363 C 0.23184 0.90002 0.72486 0.0
C364 C 0.22673 0.86922 0.70374 0.0
C365 C 0.24862 0.86662 0.66478 0.0
C366 C 0.26305 0.96085 0.72093 0.0
C367 C 0.2001 0.83921 0.72779 0.0
H368 H 0.21722 0.92817 0.94231 0.0
H369 H 0.15041 0.91739 0.78042 0.0
H370 H 0.2496 0.88607 0.85053 0.0
H371 H 0.27281 0.92888 0.85387 0.0
H372 H 0.25369 0.91008 0.92708 0.0
H373 H 0.1907 0.91756 0.65016 0.0
H374 H 0.1702 0.87535 0.65785 0.0
H375 H 0.15015 0.89777 0.67037 0.0
H376 H 0.30072 0.94553 0.65291 0.0
H377 H 0.2464 0.84329 0.654 0.0
H378 H 0.27046 0.9672 0.77574 0.0
H379 H 0.24096 0.96163 0.71123 0.0
H380 H 0.28169 0.97928 0.69263 0.0
H381 H 0.2061 0.83747 0.78133 0.0
H382 H 0.19601 0.81725 0.69767 0.0
H383 H 0.17782 0.83994 0.72542 0.0
C384 C 0.39855 0.14389 0.14066 0.0
C385 C 0.39805 0.12468 0.19166 0.0
C386 C 0.37166 0.13502 0.09721 0.0
C387 C 0.34338 0.1065 0.10595 0.0
C388 C 0.34204 0.08838 0.1611 0.0
C389 C 0.36966 0.09755 0.20316 0.0
C390 C 0.37432 0.15482 0.03889 0.0
C391 C 0.31195 0.05824 0.17305 0.0
C392 C 0.26407 0.08704 0.02269 0.0
C393 C 0.25804 0.06193 0.97478 0.0
C394 C 0.29262 0.10323 0.06355 0.0
C395 C 0.3158 0.09437 0.05508 0.0
C396 C 0.31124 0.07166 0.00121 0.0
C397 C 0.2821 0.05533 0.96203 0.0
C398 C 0.29642 0.1272 0.1203 0.0
C399 C 0.33595 0.06245 0.98898 0.0
H400 H 0.42074 0.16486 0.13185 0.0
H401 H 0.36952 0.0825 0.24192 0.0
H402 H 0.37376 0.14153 0.99118 0.0
H403 H 0.35408 0.15906 0.03409 0.0
H404 H 0.39661 0.17836 0.04441 0.0
H405 H 0.31394 0.04882 0.22172 0.0
H406 H 0.29194 0.06288 0.17294 0.0
H407 H 0.30621 0.03943 0.13153 0.0
H408 H 0.24503 0.0915 0.0335 0.0
H409 H 0.27709 0.03535 0.92613 0.0
H410 H 0.32034 0.14874 0.12388 0.0
H411 H 0.29361 0.11615 0.16891 0.0
H412 H 0.27857 0.13485 0.11387 0.0
H413 H 0.35965 0.08418 0.98962 0.0
H414 H 0.3307 0.04794 0.93994 0.0
H415 H 0.33698 0.04818 0.02999 0.0
C416 C 0.91394 0.31317 0.30657 0.0
C417 C 0.88344 0.3064 0.28568 0.0
C418 C 0.92791 0.29799 0.27179 0.0
C419 C 0.91084 0.27574 0.21504 0.0
C420 C 0.87933 0.2676 0.1965 0.0
C421 C 0.86612 0.28322 0.23183 0.0
C422 C 0.96154 0.30716 0.29324 0.0
C423 C 0.86018 0.24375 0.13702 0.0
C424 C 0.95943 0.26495 0.08339 0.0
C425 C 0.9597 0.23777 0.10356 0.0
C426 C 0.94287 0.27721 0.11826 0.0
C427 C 0.92622 0.26167 0.17391 0.0
C428 C 0.92503 0.23313 0.19153 0.0
C429 C 0.94187 0.22162 0.15624 0.0
C430 C 0.94455 0.30768 0.09789 0.0
C431 C 0.90721 0.21555 0.24966 0.0
H432 H 0.92756 0.33182 0.34697 0.0
H433 H 0.84274 0.27866 0.21491 0.0
H434 H 0.96311 0.28539 0.30111 0.0
H435 H 0.97688 0.31935 0.25265 0.0
H436 H 0.97091 0.32343 0.34049 0.0
H437 H 0.83515 0.23793 0.13317 0.0
H438 H 0.8706 0.25372 0.08962 0.0
H439 H 0.86077 0.22121 0.14093 0.0
H440 H 0.97367 0.27767 0.04336 0.0
H441 H 0.94213 0.20051 0.17163 0.0
H442 H 0.95716 0.32699 0.13947 0.0
H443 H 0.92042 0.30409 0.08904 0.0
H444 H 0.95701 0.31586 0.05148 0.0
H445 H 0.91853 0.2307 0.29777 0.0
H446 H 0.90668 0.1924 0.25347 0.0
H447 H 0.88256 0.21075 0.24399 0.0
C448 C 0.78993 0.75043 0.19241 0.0
C449 C 0.78048 0.75141 0.12519 0.0
C450 C 0.77505 0.72228 0.22511 0.0
C451 C 0.75025 0.69418 0.1895 0.0
C452 C 0.74166 0.69445 0.12042 0.0
C453 C 0.75699 0.72321 0.08885 0.0
C454 C 0.78502 0.723 0.29858 0.0
C455 C 0.71538 0.66473 0.08086 0.0
C456 C 0.72403 0.61331 0.25631 0.0
C457 C 0.69647 0.60751 0.28548 0.0
C458 C 0.74238 0.64191 0.22657 0.0
C459 C 0.73257 0.66493 0.22552 0.0
C460 C 0.7055 0.65977 0.25799 0.0
C461 C 0.68761 0.63089 0.28743 0.0
C462 C 0.77119 0.64663 0.19298 0.0
C463 C 0.69447 0.68392 0.25834 0.0
H464 H 0.80847 0.77216 0.22046 0.0
H465 H 0.7496 0.72396 0.03705 0.0
H466 H 0.76516 0.71813 0.32965 0.0
H467 H 0.791 0.70394 0.30563 0.0
H468 H 0.80572 0.7465 0.31804 0.0
H469 H 0.71292 0.66833 0.02669 0.0
H470 H 0.71968 0.64434 0.08453 0.0
H471 H 0.69267 0.65785 0.10267 0.0
H472 H 0.73014 0.59457 0.25313 0.0
H473 H 0.66565 0.62573 0.30812 0.0
H474 H 0.79195 0.67031 0.2108 0.0
H475 H 0.76703 0.64639 0.13758 0.0
H476 H 0.77697 0.62763 0.20297 0.0
H477 H 0.71398 0.70794 0.27867 0.0
H478 H 0.67404 0.67709 0.28898 0.0
H479 H 0.68744 0.68606 0.20585 0.0
C480 C 0.05327 0.5188 0.65566 0.0
C481 C 0.05499 0.49487 0.68941 0.0
C482 C 0.02825 0.51107 0.60693 0.0
C483 C 0.00438 0.47861 0.59207 0.0
C484 C 0.00454 0.45477 0.63066 0.0
C485 C 0.03013 0.46316 0.67839 0.0
C486 C 0.02907 0.53724 0.56718 0.0
C487 C 0.97896 0.41999 0.61785 0.0
C488 C 0.92693 0.45274 0.49023 0.0
C489 C 0.93126 0.44057 0.42855 0.0
C490 C 0.95107 0.46677 0.54285 0.0
C491 C 0.98045 0.46902 0.53337 0.0
C492 C 0.98588 0.45933 0.46913 0.0
C493 C 0.9611 0.44512 0.41724 0.0
C494 C 0.9444 0.47714 0.61 0.0
C495 C 0.01713 0.4618 0.45681 0.0
H496 H 0.07308 0.54318 0.66262 0.0
H497 H 0.03199 0.44456 0.70299 0.0
H498 H 0.03648 0.53532 0.51616 0.0
H499 H 0.00532 0.5347 0.5604 0.0
H500 H 0.04595 0.56151 0.59199 0.0
H501 H 0.98096 0.40499 0.65616 0.0
H502 H 0.95527 0.41768 0.6181 0.0
H503 H 0.9805 0.41037 0.56721 0.0
H504 H 0.90379 0.44927 0.49895 0.0
H505 H 0.96437 0.43538 0.37 0.0
H506 H 0.96171 0.50283 0.62436 0.0
H507 H 0.94718 0.46332 0.64993 0.0
H508 H 0.92019 0.47362 0.60916 0.0
H509 H 0.03691 0.48619 0.47398 0.0
H510 H 0.01873 0.45647 0.40264 0.0
H511 H 0.02023 0.44456 0.48651 0.0
C512 C 0.54672 0.60726 0.62073 0.0
C513 C 0.52062 0.61132 0.60919 0.0
C514 C 0.55323 0.58944 0.57253 0.0
C515 C 0.53281 0.57518 0.5124 0.0
C516 C 0.50526 0.57747 0.50316 0.0
C517 C 0.4997 0.5958 0.55136 0.0
C518 C 0.58299 0.58766 0.58387 0.0
C519 C 0.48252 0.56196 0.44076 0.0
C520 C 0.5707 0.5636 0.35964 0.0
C521 C 0.56436 0.53217 0.36432 0.0
C522 C 0.55949 0.57763 0.40615 0.0
C523 C 0.54123 0.55947 0.45753 0.0
C524 C 0.53257 0.52684 0.45851 0.0
C525 C 0.5446 0.5137 0.41232 0.0
C526 C 0.56943 0.6126 0.40372 0.0
C527 C 0.51246 0.50644 0.51119 0.0
H528 H 0.56313 0.61977 0.66489 0.0
H529 H 0.47956 0.59916 0.54249 0.0
H530 H 0.57765 0.56248 0.57616 0.0
H531 H 0.59968 0.60133 0.54642 0.0
H532 H 0.5949 0.59764 0.6354 0.0
H533 H 0.46061 0.56318 0.44469 0.0
H534 H 0.49401 0.5742 0.39601 0.0
H535 H 0.476 0.53644 0.43175 0.0
H536 H 0.58673 0.57809 0.3237 0.0
H537 H 0.5402 0.48951 0.41645 0.0
H538 H 0.58679 0.62677 0.44735 0.0
H539 H 0.54893 0.61624 0.40785 0.0
H540 H 0.58043 0.62223 0.35649 0.0
H541 H 0.52648 0.51407 0.56094 0.0
H542 H 0.50401 0.48057 0.49884 0.0
H543 H 0.4917 0.50957 0.51633 0.0
C544 C 0.49729 0.07046 0.37739 0.0
C545 C 0.47638 0.0658 0.32159 0.0
C546 C 0.48827 0.04874 0.4271 0.0
C547 C 0.4575 0.02168 0.4209 0.0
C548 C 0.43717 0.01542 0.36175 0.0
C549 C 0.44688 0.03771 0.31258 0.0
C550 C 0.51081 0.05612 0.48873 0.0
C551 C 0.40436 0.98641 0.35271 0.0
C552 C 0.43558 0.95273 0.53016 0.0
C553 C 0.41819 0.95817 0.57775 0.0
C554 C 0.44955 0.97383 0.4804 0.0
C555 C 0.44597 0.00105 0.47802 0.0
C556 C 0.43032 0.00791 0.52894 0.0
C557 C 0.41655 0.98627 0.57844 0.0
C558 C 0.46621 0.96572 0.4277 0.0
C559 C 0.42606 0.03678 0.52824 0.0
H560 H 0.51994 0.09254 0.38478 0.0
H561 H 0.43046 0.03452 0.27031 0.0
H562 H 0.50162 0.06238 0.53334 0.0
H563 H 0.51267 0.03476 0.4993 0.0
H564 H 0.53482 0.07644 0.48291 0.0
H565 H 0.39245 0.98368 0.30184 0.0
H566 H 0.40532 0.96429 0.3603 0.0
H567 H 0.38978 0.98856 0.39131 0.0
H568 H 0.43642 0.93068 0.52912 0.0
H569 H 0.40243 0.99005 0.61408 0.0
H570 H 0.48929 0.98704 0.4204 0.0
H571 H 0.45169 0.95824 0.37858 0.0
H572 H 0.47026 0.94595 0.44138 0.0
H573 H 0.44836 0.05846 0.51842 0.0
H574 H 0.41816 0.04162 0.5766 0.0
H575 H 0.40806 0.03254 0.48679 0.0
C576 C 0.16299 0.09525 -0.00103 0.0
C577 C 0.14777 0.06665 0.03045 0.0
C578 C 0.153 0.11775 0.00422 0.0
C579 C 0.12682 0.1112 0.04112 0.0
C580 C 0.11268 0.0833 0.07685 0.0
C581 C 0.12351 0.06129 0.07136 0.0
C582 C 0.16906 0.14739 0.96631 0.0
C583 C 0.08472 0.07558 0.1168 0.0
C584 C 0.10911 0.17794 0.08192 0.0
C585 C 0.0851 0.17122 0.03128 0.0
C586 C 0.12307 0.15876 0.08556 0.0
C587 C 0.11276 0.1322 0.03748 0.0
C588 C 0.08929 0.12589 0.98489 0.0
C589 C 0.0758 0.14558 0.98227 0.0
C590 C 0.14829 0.16646 0.14179 0.0
C591 C 0.07782 0.09781 0.93242 0.0
H592 H 0.18178 0.09922 0.96722 0.0
H593 H 0.11151 0.0389 0.0948 0.0
H594 H 0.15289 0.14548 0.923 0.0
H595 H 0.17467 0.1691 -0.00064 0.0
H596 H 0.19123 0.15072 0.94664 0.0
H597 H 0.07856 0.05486 0.14712 0.0
H598 H 0.0896 0.09665 0.1512 0.0
H599 H 0.0639 0.06978 0.08171 0.0
H600 H 0.11645 0.19775 0.12003 0.0
H601 H 0.05709 0.14008 0.94343 0.0
H602 H 0.17001 0.16943 0.12054 0.0
H603 H 0.14008 0.14627 0.17433 0.0
H604 H 0.15443 0.18866 0.17378 0.0
H605 H 0.09793 0.09975 0.90558 0.0
H606 H 0.05961 0.09634 0.89458 0.0
H607 H 0.06765 0.07511 0.95737 0.0
C608 C 0.85385 0.9623 0.07401 0.0
C609 C 0.86197 0.94304 0.03437 0.0
C610 C 0.87298 0.99566 0.08125 0.0
C611 C 0.90084 0.01026 0.04743 0.0
C612 C 0.90854 0.99114 0.0048 0.0
C613 C 0.88891 0.95757 -0.0013 0.0
C614 C 0.8638 0.01518 0.12672 0.0
C615 C 0.93795 0.00609 0.96734 0.0
C616 C 0.93355 0.09787 0.02144 0.0
C617 C 0.95873 0.11311 0.07203 0.0
C618 C 0.91492 0.06447 0.01241 0.0
C619 C 0.92126 0.04569 0.0556 0.0
C620 C 0.94596 0.06081 0.10828 0.0
C621 C 0.96452 0.09448 0.11589 0.0
C622 C 0.8887 0.04929 0.95593 0.0
C623 C 0.95304 0.04137 0.15582 0.0
H624 H 0.83291 0.95113 0.10149 0.0
H625 H 0.89542 0.94271 0.96873 0.0
H626 H 0.88263 0.02873 0.16827 0.0
H627 H 0.86133 0.03301 0.09794 0.0
H628 H 0.84123 2e-05 0.1492 0.0
H629 H 0.94007 0.98801 0.93467 0.0
H630 H 0.93789 0.02426 0.93546 0.0
H631 H 0.95916 0.0187 0.00396 0.0
H632 H 0.9288 0.1121 0.98741 0.0
H633 H 0.98411 0.10611 0.15457 0.0
H634 H 0.86564 0.03471 0.97689 0.0
H635 H 0.8924 0.03287 0.9215 0.0
H636 H 0.88731 0.06739 0.92588 0.0
H637 H 0.9318 0.02603 0.18214 0.0
H638 H 0.97293 0.05675 0.19429 0.0
H639 H 0.95904 0.02517 0.12681 0.0
C640 C 0.93457 0.89456 0.11949 0.0
C641 C 0.91131 0.86364 0.09361 0.0
C642 C 0.96603 0.90718 0.10361 0.0
C643 C 0.97404 0.88835 0.06091 0.0
C644 C 0.95107 0.85625 0.03939 0.0
C645 C 0.92004 0.84425 0.05637 0.0
C646 C 0.99014 0.94133 0.12867 0.0
C647 C 0.95863 0.83532 0.99409 0.0
C648 C 0.04242 0.93183 0.95222 0.0
C649 C 0.06654 0.92973 0.98808 0.0
C650 C 0.01204 0.91821 0.97513 0.0
C651 C 0.0059 0.90254 0.03564 0.0
C652 C 0.02994 0.8997 0.07101 0.0
C653 C 0.05976 0.91291 0.04635 0.0
C654 C 0.98667 0.92112 0.9354 0.0
C655 C 0.02443 0.88343 0.13592 0.0
H656 H 0.9278 0.90971 0.14756 0.0
H657 H 0.90201 0.82028 0.0364 0.0
H658 H 0.01215 0.94275 0.15028 0.0
H659 H 0.99636 0.95657 0.0857 0.0
H660 H 0.98119 0.95137 0.16758 0.0
H661 H 0.93877 0.81015 0.98638 0.0
H662 H 0.96388 0.8451 0.94407 0.0
H663 H 0.97993 0.8353 0.01555 0.0
H664 H 0.04749 0.9449 0.90749 0.0
H665 H 0.07816 0.91095 0.07438 0.0
H666 H 0.97875 0.93495 0.96694 0.0
H667 H 0.9658 0.89696 0.92157 0.0
H668 H 0.99498 0.93322 0.88849 0.0
H669 H 0.0172 0.89567 0.17375 0.0
H670 H 0.04582 0.88359 0.15776 0.0
H671 H 0.00491 0.8582 0.12692 0.0
C672 C 0.73106 0.50512 0.30008 0.0
C673 C 0.70275 0.48851 0.2584 0.0
C674 C 0.75083 0.49228 0.30978 0.0
C675 C 0.74223 0.46215 0.2764 0.0
C676 C 0.71478 0.44627 0.23035 0.0
C677 C 0.69522 0.45969 0.22188 0.0
C678 C 0.77993 0.51012 0.35895 0.0
C679 C 0.70522 0.41433 0.19298 0.0
C680 C 0.8076 0.44222 0.27042 0.0
C681 C 0.80114 0.42155 0.32223 0.0
C682 C 0.78819 0.45488 0.25401 0.0
C683 C 0.76188 0.4473 0.29105 0.0
C684 C 0.75551 0.42711 0.34452 0.0
C685 C 0.77516 0.4143 0.35931 0.0
C686 C 0.79571 0.47618 0.19652 0.0
C687 C 0.72785 0.41895 0.38579 0.0
H688 H 0.73682 0.52743 0.32844 0.0
H689 H 0.67306 0.4466 0.19055 0.0
H690 H 0.77743 0.49577 0.40246 0.0
H691 H 0.80115 0.51358 0.33456 0.0
H692 H 0.78399 0.53398 0.37841 0.0
H693 H 0.68496 0.40657 0.15462 0.0
H694 H 0.72539 0.41558 0.16751 0.0
H695 H 0.69846 0.39578 0.2294 0.0
H696 H 0.82756 0.448 0.24114 0.0
H697 H 0.76983 0.39816 0.39886 0.0
H698 H 0.80067 0.50038 0.21557 0.0
H699 H 0.77505 0.46621 0.1585 0.0
H700 H 0.81643 0.47877 0.17104 0.0
H701 H 0.73016 0.44125 0.41046 0.0
H702 H 0.72602 0.40283 0.42538 0.0
H703 H 0.70555 0.40711 0.35235 0.0
C704 C 0.55417 0.39607 0.21813 0.0
C705 C 0.57331 0.40997 0.27908 0.0
C706 C 0.54102 0.36341 0.19819 0.0
C707 C 0.54666 0.34396 0.2407 0.0
C708 C 0.56491 0.35746 0.30352 0.0
C709 C 0.57817 0.39042 0.32191 0.0
C710 C 0.52176 0.3499 0.13086 0.0
C711 C 0.57087 0.33716 0.3507 0.0
C712 C 0.49136 0.25449 0.22988 0.0
C713 C 0.50978 0.24301 0.20127 0.0
C714 C 0.50246 0.28737 0.23999 0.0
C715 C 0.53267 0.30923 0.22054 0.0
C716 C 0.55018 0.29771 0.18602 0.0
C717 C 0.53846 0.26448 0.17673 0.0
C718 C 0.48296 0.29861 0.27653 0.0
C719 C 0.58226 0.32044 0.16344 0.0
H720 H 0.55022 0.41095 0.18453 0.0
H721 H 0.59305 0.401 0.36876 0.0
H722 H 0.53297 0.33979 0.09831 0.0
H723 H 0.49776 0.33002 0.13806 0.0
H724 H 0.51943 0.36831 0.10386 0.0
H725 H 0.58505 0.35117 0.39817 0.0
H726 H 0.54808 0.31702 0.36371 0.0
H727 H 0.58359 0.32652 0.3253 0.0
H728 H 0.46914 0.23769 0.24887 0.0
H729 H 0.55283 0.25553 0.15547 0.0
H730 H 0.4811 0.31718 0.24937 0.0
H731 H 0.49472 0.3097 0.32763 0.0
H732 H 0.45874 0.27862 0.28213 0.0
H733 H 0.58144 0.33946 0.1359 0.0
H734 H 0.59101 0.30786 0.13033 0.0
H735 H 0.59948 0.33243 0.20834 0.0
C736 C 0.60487 0.18854 0.21065 0.0
C737 C 0.59095 0.19473 0.26528 0.0
C738 C 0.63717 0.20758 0.2033 0.0
C739 C 0.65632 0.2332 0.25233 0.0
C740 C 0.64274 0.23914 0.3087 0.0
C741 C 0.61011 0.21988 0.31438 0.0
C742 C 0.6507 0.20055 0.14242 0.0
C743 C 0.66265 0.26604 0.36256 0.0
C744 C 0.74404 0.26376 0.27606 0.0
C745 C 0.75667 0.29342 0.24842 0.0
C746 C 0.71139 0.24343 0.27548 0.0
C747 C 0.69083 0.25292 0.24613 0.0
C748 C 0.70338 0.28171 0.21338 0.0
C749 C 0.73635 0.30174 0.21489 0.0
C750 C 0.69903 0.21286 0.31045 0.0
C751 C 0.68209 0.29232 0.18061 0.0
H752 H 0.59034 0.16921 0.17218 0.0
H753 H 0.59955 0.22498 0.35635 0.0
H754 H 0.66196 0.222 0.11344 0.0
H755 H 0.66934 0.19509 0.15882 0.0
H756 H 0.63244 0.18001 0.1082 0.0
H757 H 0.64857 0.26739 0.40336 0.0
H758 H 0.68183 0.2627 0.38532 0.0
H759 H 0.67401 0.2893 0.33973 0.0
H760 H 0.75984 0.25741 0.30215 0.0
H761 H 0.7461 0.32491 0.1945 0.0
H762 H 0.68087 0.19212 0.27667 0.0
H763 H 0.68754 0.21473 0.35579 0.0
H764 H 0.71808 0.20788 0.32655 0.0
H765 H 0.66309 0.27246 0.14637 0.0
H766 H 0.69528 0.31341 0.15136 0.0
H767 H 0.67054 0.29881 0.22008 0.0
C768 C 0.50932 0.78771 0.75114 0.0
C769 C 0.49257 0.75729 0.77489 0.0
C770 C 0.49518 0.80643 0.74234 0.0
C771 C 0.46353 0.79425 0.75763 0.0
C772 C 0.44778 0.7651 0.78875 0.0
C773 C 0.46263 0.74687 0.79721 0.0
C774 C 0.51297 0.83755 0.70994 0.0
C775 C 0.41418 0.75159 0.80676 0.0
C776 C 0.4292 0.84923 0.75259 0.0
C777 C 0.41234 0.83998 0.68844 0.0
C778 C 0.44583 0.8345 0.77594 0.0
C779 C 0.44595 0.81011 0.73397 0.0
C780 C 0.4297 0.80115 0.6685 0.0
C781 C 0.41299 0.81616 0.64653 0.0
C782 C 0.46279 0.84465 0.84596 0.0
C783 C 0.42963 0.77538 0.62203 0.0
H784 H 0.53242 0.79549 0.73336 0.0
H785 H 0.44954 0.72306 0.81443 0.0
H786 H 0.50325 0.83411 0.65667 0.0
H787 H 0.5101 0.85667 0.73605 0.0
H788 H 0.53859 0.84584 0.71043 0.0
H789 H 0.4072 0.73167 0.83986 0.0
H790 H 0.41094 0.77054 0.83255 0.0
H791 H 0.39799 0.74226 0.75985 0.0
H792 H 0.42886 0.8676 0.78562 0.0
H793 H 0.39994 0.80878 0.5972 0.0
H794 H 0.48822 0.85281 0.84327 0.0
H795 H 0.453 0.82387 0.87704 0.0
H796 H 0.46065 0.86429 0.87206 0.0
H797 H 0.45423 0.782 0.61302 0.0
H798 H 0.41616 0.77145 0.57253 0.0
H799 H 0.41906 0.75243 0.64609 0.0
C800 C 0.16983 0.63276 0.72488 0.0
C801 C 0.1779 0.61361 0.68471 0.0
C802 C 0.18733 0.66627 0.72728 0.0
C803 C 0.21358 0.68099 0.68859 0.0
C804 C 0.22075 0.66179 0.64484 0.0
C805 C 0.20269 0.62819 0.64324 0.0
C806 C 0.17865 0.68588 0.77373 0.0
C807 C 0.24845 0.67673 0.60231 0.0
C808 C 0.24852 0.76757 0.65068 0.0
C809 C 0.27613 0.78271 0.69478 0.0
C810 C 0.22723 0.73468 0.65014 0.0
C811 C 0.23386 0.71648 0.69456 0.0
C812 C 0.26068 0.73204 0.74238 0.0
C813 C 0.28157 0.76521 0.74211 0.0
C814 C 0.19871 0.71916 0.59918 0.0
C815 C 0.26831 0.71334 0.79091 0.0
H816 H 0.15059 0.62149 0.75699 0.0
H817 H 0.20927 0.61349 0.61295 0.0
H818 H 0.1977 0.69901 0.81505 0.0
H819 H 0.17637 0.70406 0.74591 0.0
H820 H 0.15615 0.67076 0.79651 0.0
H821 H 0.2499 0.65854 0.56856 0.0
H822 H 0.2467 0.69422 0.57092 0.0
H823 H 0.27074 0.6901 0.63564 0.0
H824 H 0.24441 0.78128 0.61408 0.0
H825 H 0.30316 0.77692 0.77548 0.0
H826 H 0.17701 0.70374 0.62405 0.0
H827 H 0.20153 0.70352 0.56071 0.0
H828 H 0.19533 0.73715 0.57296 0.0
H829 H 0.24747 0.69827 0.81856 0.0
H830 H 0.28856 0.72926 0.82819 0.0
H831 H 0.27422 0.69696 0.7623 0.0
C832 C 0.39831 0.60383 0.74918 0.0
C833 C 0.41131 0.62574 0.70013 0.0
C834 C 0.36612 0.5891 0.75897 0.0
C835 C 0.34637 0.59642 0.71873 0.0
C836 C 0.35912 0.61797 0.66808 0.0
C837 C 0.3915 0.63235 0.65924 0.0
C838 C 0.35333 0.56605 0.81307 0.0
C839 C 0.33865 0.62623 0.62412 0.0
C840 C 0.25849 0.53737 0.69904 0.0
C841 C 0.24694 0.55199 0.74304 0.0
C842 C 0.29082 0.55138 0.69144 0.0
C843 C 0.31218 0.58084 0.72858 0.0
C844 C 0.30086 0.59531 0.7747 0.0
C845 C 0.26826 0.58059 0.78164 0.0
C846 C 0.302 0.53503 0.64236 0.0
C847 C 0.32307 0.62677 0.81514 0.0
H848 H 0.41346 0.59859 0.78107 0.0
H849 H 0.40145 0.64948 0.62175 0.0
H850 H 0.34291 0.57494 0.85076 0.0
H851 H 0.3342 0.54229 0.79045 0.0
H852 H 0.37186 0.56281 0.83978 0.0
H853 H 0.35217 0.64333 0.58691 0.0
H854 H 0.31906 0.60413 0.59638 0.0
H855 H 0.32782 0.63701 0.65608 0.0
H856 H 0.2421 0.51515 0.66924 0.0
H857 H 0.25939 0.59211 0.8152 0.0
H858 H 0.31999 0.53084 0.66847 0.0
H859 H 0.31343 0.55074 0.6016 0.0
H860 H 0.28238 0.51166 0.61895 0.0
H861 H 0.3417 0.62481 0.84483 0.0
H862 H 0.31063 0.63437 0.85028 0.0
H863 H 0.33508 0.6458 0.78047 0.0
C864 C 0.03035 0.23596 0.71162 0.0
C865 C 0.00284 0.20765 0.72355 0.0
C866 C 0.03806 0.24378 0.6457 0.0
C867 C 0.01838 0.22215 0.59052 0.0
C868 C 0.98996 0.19419 0.60206 0.0
C869 C 0.98248 0.1874 0.66851 0.0
C870 C 0.06832 0.27411 0.63545 0.0
C871 C 0.96851 0.17035 0.54451 0.0
C872 C 0.02847 0.24444 0.40975 0.0
C873 C 0.04649 0.23103 0.38837 0.0
C874 C 0.01984 0.24264 0.47621 0.0
C875 C 0.02921 0.22669 0.52159 0.0
C876 C 0.0481 0.21379 0.50038 0.0
C877 C 0.05679 0.21644 0.434 0.0
C878 C 0.00035 0.25732 0.49755 0.0
C879 C 0.05831 0.19632 0.54712 0.0
H880 H 0.04696 0.2511 0.75344 0.0
H881 H 0.96135 0.16542 0.67776 0.0
H882 H 0.08631 0.26795 0.62066 0.0
H883 H 0.06448 0.28671 0.59414 0.0
H884 H 0.07797 0.29082 0.68209 0.0
H885 H 0.94602 0.15131 0.56159 0.0
H886 H 0.96294 0.18268 0.50517 0.0
H887 H 0.98074 0.1588 0.52054 0.0
H888 H 0.02111 0.25622 0.3742 0.0
H889 H 0.07073 0.20616 0.41679 0.0
H890 H 0.01217 0.27417 0.54339 0.0
H891 H 0.97699 0.23828 0.5108 0.0
H892 H 0.99654 0.27043 0.45722 0.0
H893 H 0.07182 0.2122 0.59323 0.0
H894 H 0.07322 0.18803 0.52285 0.0
H895 H 0.0372 0.17515 0.56339 0.0
C896 C 0.78279 0.81401 0.70419 0.0
C897 C 0.8123 0.82058 0.73284 0.0
C898 C 0.77879 0.8191 0.63651 0.0
C899 C 0.80505 0.8313 0.59725 0.0
C900 C 0.83476 0.83731 0.62588 0.0
C901 C 0.83791 0.83156 0.69331 0.0
C902 C 0.74664 0.81178 0.60731 0.0
C903 C 0.86341 0.85061 0.58588 0.0
C904 C 0.7985 0.82466 0.40619 0.0
C905 C 0.80553 0.85567 0.39264 0.0
C906 C 0.79613 0.81567 0.47245 0.0
C907 C 0.802 0.8386 0.52664 0.0
C908 C 0.80826 0.86968 0.51327 0.0
C909 C 0.80987 0.87779 0.44632 0.0
C910 C 0.78915 0.78221 0.48453 0.0
C911 C 0.81504 0.89492 0.5698 0.0
H912 H 0.76297 0.80501 0.73502 0.0
H913 H 0.86065 0.83663 0.71608 0.0
H914 H 0.74782 0.83407 0.59178 0.0
H915 H 0.7391 0.79481 0.56138 0.0
H916 H 0.72843 0.80125 0.64389 0.0
H917 H 0.8847 0.85375 0.61563 0.0
H918 H 0.85869 0.83437 0.5399 0.0
H919 H 0.86863 0.8742 0.56904 0.0
H920 H 0.79659 0.80788 0.36559 0.0
H921 H 0.81565 0.90184 0.43585 0.0
H922 H 0.77112 0.7717 0.52137 0.0
H923 H 0.81093 0.7832 0.5063 0.0
H924 H 0.78062 0.76601 0.43715 0.0
H925 H 0.79622 0.88543 0.60511 0.0
H926 H 0.81693 0.917 0.55078 0.0
H927 H 0.8376 0.90147 0.59911 0.0
C928 C 0.15658 0.97298 0.61285 0.0
C929 C 0.14876 0.99626 0.63251 0.0
C930 C 0.16111 0.9678 0.54548 0.0
C931 C 0.1571 0.98599 0.4964 0.0
C932 C 0.14792 0.00864 0.51564 0.0
C933 C 0.14381 0.01347 0.58367 0.0
C934 C 0.17077 0.9432 0.52864 0.0
C935 C 0.14271 0.02793 0.46442 0.0
C936 C 0.19835 0.99786 0.33534 0.0
C937 C 0.17366 0.97555 0.28907 0.0
C938 C 0.19338 0.00119 0.40332 0.0
C939 C 0.16295 0.98186 0.42516 0.0
C940 C 0.13825 0.95843 0.37915 0.0
C941 C 0.144 0.95537 0.31163 0.0
C942 C 0.22061 0.0254 0.45176 0.0
C943 C 0.10588 0.93652 0.40147 0.0
H944 H 0.15925 0.95883 0.65045 0.0
H945 H 0.13716 0.03099 0.5991 0.0
H946 H 0.15508 0.92062 0.55136 0.0
H947 H 0.17011 0.93748 0.47375 0.0
H948 H 0.19516 0.95225 0.55153 0.0
H949 H 0.13461 0.04377 0.48723 0.0
H950 H 0.165 0.04299 0.44102 0.0
H951 H 0.12485 0.01157 0.42335 0.0
H952 H 0.22137 0.01319 0.31783 0.0
H953 H 0.12535 0.93717 0.27646 0.0
H954 H 0.22439 0.01312 0.49387 0.0
H955 H 0.21497 0.04329 0.4741 0.0
H956 H 0.24293 0.03825 0.4269 0.0
H957 H 0.10768 0.92191 0.44091 0.0
H958 H 0.089 0.9201 0.35904 0.0
H959 H 0.09622 0.95094 0.42428 0.0
C960 C 0.67371 0.52758 0.68168 0.0
C961 C 0.6522 0.52539 0.62984 0.0
C962 C 0.66782 0.52921 0.7495 0.0
C963 C 0.63983 0.52886 0.76541 0.0
C964 C 0.61886 0.52838 0.71341 0.0
C965 C 0.62498 0.52598 0.64613 0.0
C966 C 0.69048 0.52919 0.80372 0.0
C967 C 0.58892 0.52831 0.72854 0.0
C968 C 0.60321 0.48884 0.92098 0.0
C969 C 0.61333 0.51524 0.96801 0.0
C970 C 0.61176 0.49304 0.85474 0.0
C971 C 0.63037 0.52452 0.83518 0.0
C972 C 0.63994 0.55137 0.8822 0.0
C973 C 0.63141 0.54636 0.94859 0.0
C974 C 0.60139 0.46379 0.80613 0.0
C975 C 0.65922 0.58521 0.86247 0.0
H976 H 0.69458 0.52683 0.66884 0.0
H977 H 0.60751 0.52278 0.60652 0.0
H978 H 0.69659 0.54833 0.84464 0.0
H979 H 0.67902 0.50593 0.82663 0.0
H980 H 0.71262 0.5327 0.78354 0.0
H981 H 0.57747 0.53227 0.68336 0.0
H982 H 0.57191 0.50489 0.74645 0.0
H983 H 0.59396 0.54719 0.76935 0.0
H984 H 0.58934 0.46487 0.93689 0.0
H985 H 0.63876 0.56663 0.98545 0.0
H986 H 0.62238 0.46398 0.78707 0.0
H987 H 0.58695 0.46416 0.76185 0.0
H988 H 0.58729 0.44104 0.82985 0.0
H989 H 0.68201 0.58919 0.84545 0.0
H990 H 0.66418 0.60343 0.90486 0.0
H991 H 0.64652 0.58898 0.8194 0.0
C992 C 0.47942 0.18181 0.62722 0.0
C993 C 0.48158 0.16254 0.5752 0.0
C994 C 0.47857 0.17411 0.69443 0.0
C995 C 0.47996 0.14649 0.70966 0.0
C996 C 0.48133 0.12648 0.6571 0.0
C997 C 0.48252 0.13498 0.59059 0.0
C998 C 0.47757 0.19626 0.74938 0.0
C999 C 0.48275 0.09678 0.67151 0.0
C1000 C 0.51641 0.14667 0.88201 0.0
C1001 C 0.48964 0.1285 0.91612 0.0
C1002 C 0.51352 0.15293 0.81491 0.0
C1003 C 0.48305 0.14013 0.78098 0.0
C1004 C 0.45587 0.12112 0.81492 0.0
C1005 C 0.45953 0.11568 0.88253 0.0
C1006 C 0.54307 0.17351 0.78061 0.0
C1007 C 0.42307 0.10666 0.77993 0.0
H1008 H 0.47909 0.2033 0.61526 0.0
H1009 H 0.4857 0.12082 0.55121 0.0
H1010 H 0.4581 0.1825 0.78144 0.0
H1011 H 0.49996 0.20768 0.78252 0.0
H1012 H 0.4743 0.21545 0.72868 0.0
H1013 H 0.48373 0.08377 0.62496 0.0
H1014 H 0.50389 0.10331 0.70619 0.0
H1015 H 0.4617 0.08026 0.69704 0.0
H1016 H 0.53961 0.15667 0.90871 0.0
H1017 H 0.43895 0.10141 0.90935 0.0
H1018 H 0.54258 0.19472 0.76304 0.0
H1019 H 0.54415 0.15976 0.73542 0.0
H1020 H 0.56492 0.182 0.81457 0.0
H1021 H 0.4191 0.1259 0.76235 0.0
H1022 H 0.40443 0.09234 0.81345 0.0
H1023 H 0.42056 0.09093 0.73461 0.0
C1024 C 0.818 0.32509 0.69242 0.0
C1025 C 0.83736 0.34651 0.6477 0.0
C1026 C 0.82538 0.33187 0.76248 0.0
C1027 C 0.85293 0.36068 0.78814 0.0
C1028 C 0.8732 0.38181 0.74316 0.0
C1029 C 0.86477 0.37482 0.67359 0.0
C1030 C 0.80298 0.30897 0.80902 0.0
C1031 C 0.90294 0.41269 0.76824 0.0
C1032 C 0.85242 0.39808 0.95952 0.0
C1033 C 0.86932 0.38836 0.00119 0.0
C1034 C 0.84681 0.38906 0.89004 0.0
C1035 C 0.85888 0.37029 0.8617 0.0
C1036 C 0.8767 0.36108 0.90347 0.0
C1037 C 0.88162 0.37018 0.97306 0.0
C1038 C 0.82763 0.39928 0.84715 0.0
C1039 C 0.89061 0.3418 0.87458 0.0
H1040 H 0.79663 0.30341 0.67237 0.0
H1041 H 0.87899 0.39237 0.6399 0.0
H1042 H 0.81599 0.3026 0.84651 0.0
H1043 H 0.79209 0.32077 0.83756 0.0
H1044 H 0.78382 0.28657 0.78111 0.0
H1045 H 0.91953 0.4221 0.72825 0.0
H1046 H 0.89667 0.43103 0.78417 0.0
H1047 H 0.91532 0.40933 0.8125 0.0
H1048 H 0.8429 0.41206 0.98188 0.0
H1049 H 0.89512 0.3632 0.00565 0.0
H1050 H 0.80667 0.37786 0.82079 0.0
H1051 H 0.84195 0.41416 0.80782 0.0
H1052 H 0.81943 0.41328 0.87741 0.0
H1053 H 0.87154 0.31869 0.84912 0.0
H1054 H 0.904 0.33672 0.91395 0.0
H1055 H 0.90669 0.35501 0.83582 0.0
C1056 C 0.31627 0.86325 0.28789 0.0
C1057 C 0.33367 0.85063 0.31776 0.0
C1058 C 0.32139 0.87358 0.22278 0.0
C1059 C 0.34351 0.86987 0.18594 0.0
C1060 C 0.36029 0.85598 0.21508 0.0
C1061 C 0.35525 0.84666 0.28098 0.0
C1062 C 0.30329 0.88858 0.19363 0.0
C1063 C 0.38345 0.85089 0.17662 0.0
C1064 C 0.33325 0.86594 0.99543 0.0
C1065 C 0.3581 0.89593 0.98204 0.0
C1066 C 0.32848 0.85705 0.06152 0.0
C1067 C 0.34819 0.87929 0.11584 0.0
C1068 C 0.37236 0.91027 0.10303 0.0
C1069 C 0.37715 0.91816 0.03601 0.0
C1070 C 0.30255 0.82372 0.07307 0.0
C1071 C 0.39321 0.93491 0.16002 0.0
H1072 H 0.29871 0.86508 0.31571 0.0
H1073 H 0.36843 0.83662 0.30433 0.0
H1074 H 0.31998 0.91265 0.1779 0.0
H1075 H 0.28812 0.87375 0.1479 0.0
H1076 H 0.28813 0.89113 0.23025 0.0
H1077 H 0.39428 0.83941 0.20636 0.0
H1078 H 0.37135 0.83554 0.12906 0.0
H1079 H 0.40257 0.87421 0.1625 0.0
H1080 H 0.31729 0.84943 0.95419 0.0
H1081 H 0.39595 0.94158 0.02556 0.0
H1082 H 0.2851 0.82516 0.1043 0.0
H1083 H 0.31263 0.81117 0.10126 0.0
H1084 H 0.28994 0.80902 0.02503 0.0
H1085 H 0.37847 0.9386 0.19599 0.0
H1086 H 0.4099 0.95838 0.14166 0.0
H1087 H 0.40702 0.92615 0.18852 0.0
C1088 C 0.12416 0.52733 0.09102 0.0
C1089 C 0.15287 0.54136 0.06155 0.0
C1090 C 0.12251 0.51824 0.15718 0.0
C1091 C 0.15046 0.52418 0.1949 0.0
C1092 C 0.17966 0.53906 0.16567 0.0
C1093 C 0.18047 0.5474 0.09914 0.0
C1094 C 0.09094 0.50233 0.1867 0.0
C1095 C 0.21001 0.54627 0.20474 0.0
C1096 C 0.15123 0.53003 0.38538 0.0
C1097 C 0.14738 0.50032 0.40058 0.0
C1098 C 0.15278 0.53828 0.31872 0.0
C1099 C 0.14938 0.51583 0.26575 0.0
C1100 C 0.14487 0.48551 0.28051 0.0
C1101 C 0.14396 0.47814 0.34797 0.0
C1102 C 0.15771 0.5709 0.30498 0.0
C1103 C 0.14069 0.46082 0.22507 0.0
H1104 H 0.1031 0.52367 0.06231 0.0
H1105 H 0.20263 0.55839 0.07593 0.0
H1106 H 0.08586 0.4789 0.20426 0.0
H1107 H 0.09154 0.51741 0.23134 0.0
H1108 H 0.07131 0.49828 0.1497 0.0
H1109 H 0.23072 0.55796 0.17452 0.0
H1110 H 0.21437 0.56226 0.25097 0.0
H1111 H 0.20804 0.52378 0.22123 0.0
H1112 H 0.15212 0.54654 0.42542 0.0
H1113 H 0.1404 0.45496 0.35983 0.0
H1114 H 0.13699 0.56814 0.27376 0.0
H1115 H 0.17864 0.58369 0.27591 0.0
H1116 H 0.16122 0.58603 0.35218 0.0
H1117 H 0.11996 0.45495 0.18965 0.0
H1118 H 0.13724 0.43832 0.24508 0.0
H1119 H 0.16168 0.47067 0.19552 0.0
C1120 C 0.50726 0.67 0.35665 0.0
C1121 C 0.50545 0.69718 0.37753 0.0
C1122 C 0.50937 0.66293 0.28868 0.0
C1123 C 0.50843 0.68289 0.24011 0.0
C1124 C 0.50559 0.70981 0.26053 0.0
C1125 C 0.50423 0.71669 0.32922 0.0
C1126 C 0.51266 0.63415 0.26896 0.0
C1127 C 0.50388 0.73124 0.20983 0.0
C1128 C 0.5414 0.68328 0.07181 0.0
C1129 C 0.51386 0.66314 0.02998 0.0
C1130 C 0.54005 0.68957 0.14068 0.0
C1131 C 0.51034 0.67554 0.16786 0.0
C1132 C 0.48249 0.65456 0.126 0.0
C1133 C 0.48469 0.64818 0.05757 0.0
C1134 C 0.57031 0.71145 0.18412 0.0
C1135 C 0.4504 0.63926 0.15322 0.0
H1136 H 0.5064 0.65384 0.39324 0.0
H1137 H 0.50226 0.73735 0.34543 0.0
H1138 H 0.49282 0.61723 0.23199 0.0
H1139 H 0.53482 0.64192 0.24408 0.0
H1140 H 0.51304 0.62113 0.31309 0.0
H1141 H 0.50099 0.7508 0.23386 0.0
H1142 H 0.5257 0.74213 0.18295 0.0
H1143 H 0.48375 0.71685 0.17129 0.0
H1144 H 0.56395 0.69453 0.0501 0.0
H1145 H 0.46363 0.63166 0.02537 0.0
H1146 H 0.57257 0.69895 0.22748 0.0
H1147 H 0.56981 0.73292 0.20514 0.0
H1148 H 0.59153 0.71952 0.15552 0.0
H1149 H 0.44963 0.62444 0.19466 0.0
H1150 H 0.43106 0.62385 0.11367 0.0
H1151 H 0.44593 0.65815 0.17476 0.0
loop_
_geom_bond_atom_site_label_1
_geom_bond_atom_site_label_2
_geom_bond_distance
_geom_bond_site_symmetry_2
_ccdc_geom_bond_type
Zn0 O1 2.055 1_455 S
Zn0 O8 2.046 1_455 S
Zn0 N16 2.036 . S
Zn0 O28 2.053 . S
Zn0 O30 2.066 . S
O1 Zn0 2.055 1_655 S
O1 C4 1.259 . S
C2 O30 1.256 . S
C2 O31 1.244 1_554 S
Zn3 O5 2.046 . S
Zn3 O7 2.055 . S
Zn3 N9 2.036 . S
Zn3 O27 2.066 1_655 S
Zn3 O31 2.053 1_655 S
C4 O1 1.259 . S
C4 O5 1.254 1_554 S
O5 Zn3 2.046 . S
O5 C4 1.254 1_556 S
C6 O27 1.256 1_554 S
C6 O28 1.244 . S
O7 Zn3 2.055 . S
O7 C29 1.259 1_556 S
O8 Zn0 2.046 1_655 S
O8 C29 1.254 . S
N9 Zn3 2.036 . S
N9 C10 1.298 . S
N9 N12 1.398 1_655 S
C10 N9 1.298 . S
C10 N13 1.367 . S
C10 C23 1.481 . S
C11 N12 1.299 . S
C11 N13 1.379 1_455 S
N12 N9 1.398 1_455 S
N12 C11 1.299 . S
N13 C10 1.367 . S
N13 C11 1.379 1_655 S
C14 N16 1.298 . S
C14 N18 1.367 . S
C14 C22 1.481 . S
C15 N17 1.299 . S
C15 N18 1.379 . S
N16 Zn0 2.036 . S
N16 C14 1.298 . S
N16 N17 1.398 . S
N17 C15 1.299 . S
N17 N16 1.398 . S
N18 C14 1.367 . S
N18 C15 1.379 . S
H19 C22 0.980 1_655 S
H20 C22 0.981 . S
H21 C22 0.981 . S
C22 C14 1.481 . S
C22 H19 0.980 1_455 S
C22 H20 0.981 . S
C22 H21 0.981 . S
C23 C10 1.481 . S
C23 H24 0.980 . S
C23 H25 0.981 . S
C23 H26 0.981 . S
H24 C23 0.980 . S
H25 C23 0.981 . S
H26 C23 0.981 . S
O27 Zn3 2.066 1_455 S
O27 C6 1.256 1_556 S
O28 Zn0 2.053 . S
O28 C6 1.244 . S
C29 O7 1.259 1_554 S
C29 O8 1.254 . S
O30 Zn0 2.066 . S
O30 C2 1.256 . S
O31 C2 1.244 1_556 S
O31 Zn3 2.053 1_455 S
Zn32 O33 2.055 . S
Zn32 O40 2.046 . S
Zn32 N48 2.036 . S
Zn32 O60 2.053 . S
Zn32 O62 2.066 . S
O33 Zn32 2.055 . S
O33 C36 1.259 . S
C34 O62 1.256 . S
C34 O63 1.243 1_554 S
Zn35 O37 2.046 . S
Zn35 O39 2.055 . S
Zn35 N41 2.036 . S
Zn35 O59 2.066 . S
Zn35 O63 2.053 . S
C36 O33 1.259 . S
C36 O37 1.254 1_554 S
O37 Zn35 2.046 . S
O37 C36 1.254 1_556 S
C38 O59 1.256 1_554 S
C38 O60 1.244 . S
O39 Zn35 2.055 . S
O39 C61 1.259 1_556 S
O40 Zn32 2.046 . S
O40 C61 1.254 . S
N41 Zn35 2.036 . S
N41 C42 1.298 . S
N41 N44 1.398 . S
C42 N41 1.298 . S
C42 N45 1.367 . S
C42 C55 1.481 . S
C43 N44 1.299 . S
C43 N45 1.379 . S
N44 N41 1.398 . S
N44 C43 1.299 . S
N45 C42 1.367 . S
N45 C43 1.379 . S
C46 N48 1.298 . S
C46 N50 1.367 . S
C46 C54 1.481 . S
C47 N49 1.299 . S
C47 N50 1.379 . S
N48 Zn32 2.036 . S
N48 C46 1.298 . S
N48 N49 1.398 . S
N49 C47 1.299 . S
N49 N48 1.398 . S
N50 C46 1.367 . S
N50 C47 1.379 . S
H51 C54 0.980 . S
H52 C54 0.981 . S
H53 C54 0.981 . S
C54 C46 1.481 . S
C54 H51 0.980 . S
C54 H52 0.981 . S
C54 H53 0.981 . S
C55 C42 1.481 . S
C55 H56 0.980 . S
C55 H57 0.981 . S
C55 H58 0.981 . S
H56 C55 0.980 . S
H57 C55 0.981 . S
H58 C55 0.981 . S
O59 Zn35 2.066 . S
O59 C38 1.256 1_556 S
O60 Zn32 2.053 . S
O60 C38 1.244 . S
C61 O39 1.259 1_554 S
C61 O40 1.254 . S
O62 Zn32 2.066 . S
O62 C34 1.256 . S
O63 C34 1.243 1_556 S
O63 Zn35 2.053 . S
Zn64 O65 2.055 . S
Zn64 O72 2.046 . S
Zn64 N80 2.036 . S
Zn64 O92 2.053 1_545 S
Zn64 O94 2.066 1_545 S
O65 Zn64 2.055 . S
O65 C68 1.259 1_556 S
C66 O94 1.256 . S
C66 O95 1.244 1_556 S
Zn67 O69 2.046 . S
Zn67 O71 2.055 . S
Zn67 N73 2.036 . S
Zn67 O91 2.066 1_545 S
Zn67 O95 2.053 1_545 S
C68 O65 1.259 1_554 S
C68 O69 1.254 . S
O69 Zn67 2.046 . S
O69 C68 1.254 . S
C70 O91 1.256 1_556 S
C70 O92 1.244 . S
O71 Zn67 2.055 . S
O71 C93 1.259 . S
O72 Zn64 2.046 . S
O72 C93 1.254 1_556 S
N73 Zn67 2.036 . S
N73 C74 1.286 . S
N73 N76 1.398 1_545 S
C74 N73 1.286 . S
C74 N77 1.340 1_545 S
C74 C87 1.516 . S
C75 N76 1.299 . S
C75 N77 1.379 . S
N76 N73 1.398 1_565 S
N76 C75 1.299 . S
N77 C74 1.340 1_565 S
N77 C75 1.379 . S
C78 N80 1.298 . S
C78 N82 1.367 . S
C78 C86 1.481 . S
C79 N81 1.299 . S
C79 N82 1.379 . S
N80 Zn64 2.036 . S
N80 C78 1.298 . S
N80 N81 1.398 . S
N81 C79 1.299 . S
N81 N80 1.398 . S
N82 C78 1.367 . S
N82 C79 1.379 . S
H83 C86 0.980 . S
H84 C86 0.981 . S
H85 C86 0.981 . S
C86 C78 1.481 . S
C86 H83 0.980 . S
C86 H84 0.981 . S
C86 H85 0.981 . S
C87 C74 1.516 . S
C87 H88 0.980 . S
C87 H89 0.981 . S
C87 H90 0.981 1_545 S
H88 C87 0.980 . S
H89 C87 0.981 . S
H90 C87 0.981 1_565 S
O91 Zn67 2.066 1_565 S
O91 C70 1.256 1_554 S
O92 Zn64 2.053 1_565 S
O92 C70 1.244 . S
C93 O71 1.259 . S
C93 O72 1.254 1_554 S
O94 Zn64 2.066 1_565 S
O94 C66 1.256 . S
O95 C66 1.244 1_554 S
O95 Zn67 2.053 1_565 S
Zn96 O97 2.055 . S
Zn96 O104 2.046 . S
Zn96 N112 2.036 . S
Zn96 O124 2.053 . S
Zn96 O126 2.066 . S
O97 Zn96 2.055 . S
O97 C100 1.259 . S
C98 O126 1.256 . S
C98 O127 1.244 . S
Zn99 O101 2.046 . S
Zn99 O103 2.055 . S
Zn99 N105 2.036 . S
Zn99 O123 2.066 . S
Zn99 O127 2.053 . S
C100 O97 1.259 . S
C100 O101 1.254 . S
O101 Zn99 2.046 . S
O101 C100 1.254 . S
C102 O123 1.256 . S
C102 O124 1.244 . S
O103 Zn99 2.055 . S
O103 C125 1.259 . S
O104 Zn96 2.046 . S
O104 C125 1.254 . S
N105 Zn99 2.036 . S
N105 C106 1.298 . S
N105 N108 1.398 . S
C106 N105 1.298 . S
C106 N109 1.367 . S
C106 C119 1.481 . S
C107 N108 1.299 . S
C107 N109 1.379 . S
N108 N105 1.398 . S
N108 C107 1.299 . S
N109 C106 1.367 . S
N109 C107 1.379 . S
C110 N112 1.298 . S
C110 N114 1.367 . S
C110 C118 1.481 . S
C111 N113 1.299 . S
C111 N114 1.379 . S
N112 Zn96 2.036 . S
N112 C110 1.298 . S
N112 N113 1.398 . S
N113 C111 1.299 . S
N113 N112 1.398 . S
N114 C110 1.367 . S
N114 C111 1.379 . S
H115 C118 0.980 . S
H116 C118 0.981 . S
H117 C118 0.981 . S
C118 C110 1.481 . S
C118 H115 0.980 . S
C118 H116 0.981 . S
C118 H117 0.981 . S
C119 C106 1.481 . S
C119 H120 0.980 . S
C119 H121 0.981 . S
C119 H122 0.981 . S
H120 C119 0.980 . S
H121 C119 0.981 . S
H122 C119 0.981 . S
O123 Zn99 2.066 . S
O123 C102 1.256 . S
O124 Zn96 2.053 . S
O124 C102 1.244 . S
C125 O103 1.259 . S
C125 O104 1.254 . S
O126 Zn96 2.066 . S
O126 C98 1.256 . S
O127 C98 1.244 . S
O127 Zn99 2.053 . S
Zn128 O129 2.055 . S
Zn128 O136 2.046 . S
Zn128 N144 2.036 . S
Zn128 O156 2.053 . S
Zn128 O158 2.066 . S
O129 Zn128 2.055 . S
O129 C132 1.259 . S
C130 O158 1.256 . S
C130 O159 1.244 . S
Zn131 O133 2.046 . S
Zn131 O135 2.055 . S
Zn131 N137 2.036 . S
Zn131 O155 2.066 . S
Zn131 O159 2.053 . S
C132 O129 1.259 . S
C132 O133 1.254 . S
O133 Zn131 2.046 . S
O133 C132 1.254 . S
C134 O155 1.256 . S
C134 O156 1.244 . S
O135 Zn131 2.055 . S
O135 C157 1.259 . S
O136 Zn128 2.046 . S
O136 C157 1.254 . S
N137 Zn131 2.036 . S
N137 C138 1.298 . S
N137 N140 1.398 . S
C138 N137 1.298 . S
C138 N141 1.367 . S
C138 C151 1.481 . S
C139 N140 1.299 . S
C139 N141 1.379 . S
N140 N137 1.398 . S
N140 C139 1.299 . S
N141 C138 1.367 . S
N141 C139 1.379 . S
C142 N144 1.298 . S
C142 N146 1.367 . S
C142 C150 1.481 . S
C143 N145 1.299 . S
C143 N146 1.379 . S
N144 Zn128 2.036 . S
N144 C142 1.298 . S
N144 N145 1.398 . S
N145 C143 1.299 . S
N145 N144 1.398 . S
N146 C142 1.367 . S
N146 C143 1.379 . S
H147 C150 0.980 . S
H148 C150 0.981 . S
H149 C150 0.981 . S
C150 C142 1.481 . S
C150 H147 0.980 . S
C150 H148 0.981 . S
C150 H149 0.981 . S
C151 C138 1.481 . S
C151 H152 0.980 . S
C151 H153 0.981 . S
C151 H154 0.981 . S
H152 C151 0.980 . S
H153 C151 0.981 . S
H154 C151 0.981 . S
O155 Zn131 2.066 . S
O155 C134 1.256 . S
O156 Zn128 2.053 . S
O156 C134 1.244 . S
C157 O135 1.259 . S
C157 O136 1.254 . S
O158 Zn128 2.066 . S
O158 C130 1.256 . S
O159 C130 1.244 . S
O159 Zn131 2.053 . S
Zn160 O161 2.055 . S
Zn160 O168 2.046 . S
Zn160 N176 2.036 . S
Zn160 O188 2.053 . S
Zn160 O190 2.066 . S
O161 Zn160 2.055 . S
O161 C164 1.259 . S
C162 O190 1.256 . S
C162 O191 1.244 . S
Zn163 O165 2.046 . S
Zn163 O167 2.055 . S
Zn163 N169 2.036 . S
Zn163 O187 2.066 . S
Zn163 O191 2.053 . S
C164 O161 1.259 . S
C164 O165 1.254 . S
O165 Zn163 2.046 . S
O165 C164 1.254 . S
C166 O187 1.256 . S
C166 O188 1.244 . S
O167 Zn163 2.055 . S
O167 C189 1.259 . S
O168 Zn160 2.046 . S
O168 C189 1.254 . S
N169 Zn163 2.036 . S
N169 C170 1.298 . S
N169 N172 1.398 . S
C170 N169 1.298 . S
C170 N173 1.367 . S
C170 C183 1.481 . S
C171 N172 1.299 . S
C171 N173 1.379 . S
N172 N169 1.398 . S
N172 C171 1.299 . S
N173 C170 1.367 . S
N173 C171 1.379 . S
C174 N176 1.298 . S
C174 N178 1.367 . S
C174 C182 1.481 . S
C175 N177 1.299 . S
C175 N178 1.379 . S
N176 Zn160 2.036 . S
N176 C174 1.298 . S
N176 N177 1.398 . S
N177 C175 1.299 . S
N177 N176 1.398 . S
N178 C174 1.367 . S
N178 C175 1.379 . S
H179 C182 0.980 . S
H180 C182 0.981 . S
H181 C182 0.981 . S
C182 C174 1.481 . S
C182 H179 0.980 . S
C182 H180 0.981 . S
C182 H181 0.981 . S
C183 C170 1.481 . S
C183 H184 0.980 . S
C183 H185 0.981 . S
C183 H186 0.981 . S
H184 C183 0.980 . S
H185 C183 0.981 . S
H186 C183 0.981 . S
O187 Zn163 2.066 . S
O187 C166 1.256 . S
O188 Zn160 2.053 . S
O188 C166 1.244 . S
C189 O167 1.259 . S
C189 O168 1.254 . S
O190 Zn160 2.066 . S
O190 C162 1.256 . S
O191 C162 1.244 . S
O191 Zn163 2.053 . S
Zn192 O193 2.055 . S
Zn192 O200 2.046 . S
Zn192 N208 2.036 . S
Zn192 O220 2.053 . S
Zn192 O222 2.066 . S
O193 Zn192 2.055 . S
O193 C196 1.259 . S
C194 O222 1.256 . S
C194 O223 1.244 . S
Zn195 O197 2.046 . S
Zn195 O199 2.055 . S
Zn195 N201 2.036 . S
Zn195 O219 2.066 . S
Zn195 O223 2.053 . S
C196 O193 1.259 . S
C196 O197 1.254 . S
O197 Zn195 2.046 . S
O197 C196 1.254 . S
C198 O219 1.256 . S
C198 O220 1.244 . S
O199 Zn195 2.055 . S
O199 C221 1.259 . S
O200 Zn192 2.046 . S
O200 C221 1.254 . S
N201 Zn195 2.036 . S
N201 C202 1.298 . S
N201 N204 1.398 . S
C202 N201 1.298 . S
C202 N205 1.367 . S
C202 C215 1.481 . S
C203 N204 1.299 . S
C203 N205 1.379 . S
N204 N201 1.398 . S
N204 C203 1.299 . S
N205 C202 1.367 . S
N205 C203 1.379 . S
C206 N208 1.298 . S
C206 N210 1.367 . S
C206 C214 1.481 . S
C207 N209 1.299 . S
C207 N210 1.379 . S
N208 Zn192 2.036 . S
N208 C206 1.298 . S
N208 N209 1.398 . S
N209 C207 1.299 . S
N209 N208 1.398 . S
N210 C206 1.367 . S
N210 C207 1.379 . S
H211 C214 0.980 . S
H212 C214 0.981 . S
H213 C214 0.981 . S
C214 C206 1.481 . S
C214 H211 0.980 . S
C214 H212 0.981 . S
C214 H213 0.981 . S
C215 C202 1.481 . S
C215 H216 0.980 . S
C215 H217 0.981 . S
C215 H218 0.981 . S
H216 C215 0.980 . S
H217 C215 0.981 . S
H218 C215 0.981 . S
O219 Zn195 2.066 . S
O219 C198 1.256 . S
O220 Zn192 2.053 . S
O220 C198 1.244 . S
C221 O199 1.259 . S
C221 O200 1.254 . S
O222 Zn192 2.066 . S
O222 C194 1.256 . S
O223 C194 1.244 . S
O223 Zn195 2.053 . S
Zn224 O225 2.055 . S
Zn224 O232 2.046 . S
Zn224 N240 2.036 . S
Zn224 O252 2.053 . S
Zn224 O254 2.066 . S
O225 Zn224 2.055 . S
O225 C228 1.259 . S
C226 O254 1.256 . S
C226 O255 1.244 . S
Zn227 O229 2.046 . S
Zn227 O231 2.055 . S
Zn227 N233 2.036 . S
Zn227 O251 2.066 . S
Zn227 O255 2.053 . S
C228 O225 1.259 . S
C228 O229 1.254 . S
O229 Zn227 2.046 . S
O229 C228 1.254 . S
C230 O251 1.256 . S
C230 O252 1.244 . S
O231 Zn227 2.055 . S
O231 C253 1.259 . S
O232 Zn224 2.046 . S
O232 C253 1.254 . S
N233 Zn227 2.036 . S
N233 C234 1.298 . S
N233 N236 1.398 . S
C234 N233 1.298 . S
C234 N237 1.367 . S
C234 C247 1.481 . S
C235 N236 1.299 . S
C235 N237 1.379 . S
N236 N233 1.398 . S
N236 C235 1.299 . S
N237 C234 1.367 . S
N237 C235 1.379 . S
C238 N240 1.298 . S
C238 N242 1.367 . S
C238 C246 1.481 . S
C239 N241 1.299 . S
C239 N242 1.379 . S
N240 Zn224 2.036 . S
N240 C238 1.298 . S
N240 N241 1.398 . S
N241 C239 1.299 . S
N241 N240 1.398 . S
N242 C238 1.367 . S
N242 C239 1.379 . S
H243 C246 0.980 . S
H244 C246 0.981 . S
H245 C246 0.981 . S
C246 C238 1.481 . S
C246 H243 0.980 . S
C246 H244 0.981 . S
C246 H245 0.981 . S
C247 C234 1.481 . S
C247 H248 0.980 . S
C247 H249 0.981 . S
C247 H250 0.981 . S
H248 C247 0.980 . S
H249 C247 0.981 . S
H250 C247 0.981 . S
O251 Zn227 2.066 . S
O251 C230 1.256 . S
O252 Zn224 2.053 . S
O252 C230 1.244 . S
C253 O231 1.259 . S
C253 O232 1.254 . S
O254 Zn224 2.066 . S
O254 C226 1.256 . S
O255 C226 1.244 . S
O255 Zn227 2.053 . S
Zn256 O257 2.055 . S
Zn256 O264 2.046 . S
Zn256 N272 2.036 . S
Zn256 O284 2.053 . S
Zn256 O286 2.066 . S
O257 Zn256 2.055 . S
O257 C260 1.259 . S
C258 O286 1.256 . S
C258 O287 1.244 . S
Zn259 O261 2.046 . S
Zn259 O263 2.055 . S
Zn259 N265 2.036 . S
Zn259 O283 2.066 . S
Zn259 O287 2.053 . S
C260 O257 1.259 . S
C260 O261 1.254 . S
O261 Zn259 2.046 . S
O261 C260 1.254 . S
C262 O283 1.256 . S
C262 O284 1.244 . S
O263 Zn259 2.055 . S
O263 C285 1.259 . S
O264 Zn256 2.046 . S
O264 C285 1.254 . S
N265 Zn259 2.036 . S
N265 C266 1.298 . S
N265 N268 1.398 . S
C266 N265 1.298 . S
C266 N269 1.367 . S
C266 C279 1.481 . S
C267 N268 1.299 . S
C267 N269 1.379 . S
N268 N265 1.398 . S
N268 C267 1.299 . S
N269 C266 1.367 . S
N269 C267 1.379 . S
C270 N272 1.298 . S
C270 N274 1.367 . S
C270 C278 1.481 . S
C271 N273 1.299 . S
C271 N274 1.379 . S
N272 Zn256 2.036 . S
N272 C270 1.298 . S
N272 N273 1.398 . S
N273 C271 1.299 . S
N273 N272 1.398 . S
N274 C270 1.367 . S
N274 C271 1.379 . S
H275 C278 0.980 . S
H276 C278 0.981 . S
H277 C278 0.981 . S
C278 C270 1.481 . S
C278 H275 0.980 . S
C278 H276 0.981 . S
C278 H277 0.981 . S
C279 C266 1.481 . S
C279 H280 0.980 . S
C279 H281 0.981 . S
C279 H282 0.981 . S
H280 C279 0.980 . S
H281 C279 0.981 . S
H282 C279 0.981 . S
O283 Zn259 2.066 . S
O283 C262 1.256 . S
O284 Zn256 2.053 . S
O284 C262 1.244 . S
C285 O263 1.259 . S
C285 O264 1.254 . S
O286 Zn256 2.066 . S
O286 C258 1.256 . S
O287 C258 1.244 . S
O287 Zn259 2.053 . S
C288 C289 1.391 . S
C288 C290 1.394 . S
C288 H304 0.931 1_556 S
C289 C288 1.391 . S
C289 C293 1.376 . S
C290 C288 1.394 . S
C290 C291 1.369 . S
C290 C294 1.531 . S
C291 C290 1.369 . S
C291 C292 1.410 . S
C291 C299 1.503 . S
C292 C291 1.410 . S
C292 C293 1.392 . S
C292 C295 1.511 . S
C293 C289 1.376 . S
C293 C292 1.392 . S
C293 H305 0.929 . S
C294 C290 1.531 . S
C294 H306 0.960 . S
C294 H307 0.962 . S
C294 H308 0.960 . S
C295 C292 1.511 . S
C295 H309 0.961 . S
C295 H310 0.961 . S
C295 H311 0.961 . S
C296 C297 1.370 . S
C296 C298 1.363 . S
C296 H312 0.931 . S
C297 C296 1.370 . S
C297 C301 1.408 . S
C298 C296 1.363 . S
C298 C299 1.370 . S
C298 C302 1.524 . S
C299 C291 1.503 . S
C299 C298 1.370 . S
C299 C300 1.403 . S
C300 C299 1.403 . S
C300 C301 1.404 . S
C300 C303 1.539 . S
C301 C297 1.408 . S
C301 C300 1.404 . S
C301 H313 0.930 . S
C302 C298 1.524 . S
C302 H314 0.956 . S
C302 H315 0.961 . S
C302 H316 0.961 . S
C303 C300 1.539 . S
C303 H317 0.958 . S
C303 H318 0.961 . S
C303 H319 0.960 . S
H304 C288 0.931 1_554 S
H305 C293 0.929 . S
H306 C294 0.960 . S
H307 C294 0.962 . S
H308 C294 0.960 . S
H309 C295 0.961 . S
H310 C295 0.961 . S
H311 C295 0.961 . S
H312 C296 0.931 . S
H313 C301 0.930 . S
H314 C302 0.956 . S
H315 C302 0.961 . S
H316 C302 0.961 . S
H317 C303 0.958 . S
H318 C303 0.961 . S
H319 C303 0.960 . S
C320 C321 1.391 . S
C320 C322 1.394 . S
C320 H336 0.931 . S
C321 C320 1.391 . S
C321 C325 1.376 1_556 S
C322 C320 1.394 . S
C322 C323 1.369 . S
C322 C326 1.531 . S
C323 C322 1.369 . S
C323 C324 1.410 . S
C323 C331 1.503 . S
C324 C323 1.410 . S
C324 C325 1.392 1_556 S
C324 C327 1.511 . S
C325 C321 1.376 1_554 S
C325 C324 1.392 1_554 S
C325 H337 0.929 . S
C326 C322 1.531 . S
C326 H338 0.960 . S
C326 H339 0.962 . S
C326 H340 0.960 . S
C327 C324 1.511 . S
C327 H341 0.961 1_556 S
C327 H342 0.961 . S
C327 H343 0.961 . S
C328 C329 1.370 . S
C328 C330 1.363 . S
C328 H344 0.931 . S
C329 C328 1.370 . S
C329 C333 1.408 . S
C330 C328 1.363 . S
C330 C331 1.370 . S
C330 C334 1.524 . S
C331 C323 1.503 . S
C331 C330 1.370 . S
C331 C332 1.403 . S
C332 C331 1.403 . S
C332 C333 1.404 . S
C332 C335 1.539 . S
C333 C329 1.408 . S
C333 C332 1.404 . S
C333 H345 0.930 . S
C334 C330 1.524 . S
C334 H346 0.956 . S
C334 H347 0.961 . S
C334 H348 0.961 . S
C335 C332 1.539 . S
C335 H349 0.958 . S
C335 H350 0.961 . S
C335 H351 0.960 . S
H336 C320 0.931 . S
H337 C325 0.929 . S
H338 C326 0.960 . S
H339 C326 0.962 . S
H340 C326 0.960 . S
H341 C327 0.961 1_554 S
H342 C327 0.961 . S
H343 C327 0.961 . S
H344 C328 0.931 . S
H345 C333 0.930 . S
H346 C334 0.956 . S
H347 C334 0.961 . S
H348 C334 0.961 . S
H349 C335 0.958 . S
H350 C335 0.961 . S
H351 C335 0.960 . S
C352 C353 1.391 . S
C352 C354 1.394 . S
C352 H368 0.931 . S
C353 C352 1.391 . S
C353 C357 1.376 . S
C354 C352 1.394 . S
C354 C355 1.369 . S
C354 C358 1.531 . S
C355 C354 1.369 . S
C355 C356 1.410 . S
C355 C363 1.503 . S
C356 C355 1.410 . S
C356 C357 1.392 . S
C356 C359 1.511 . S
C357 C353 1.376 . S
C357 C356 1.392 . S
C357 H369 0.929 . S
C358 C354 1.531 . S
C358 H370 0.960 . S
C358 H371 0.962 . S
C358 H372 0.960 . S
C359 C356 1.511 . S
C359 H373 0.961 . S
C359 H374 0.961 . S
C359 H375 0.961 . S
C360 C361 1.370 . S
C360 C362 1.363 . S
C360 H376 0.931 . S
C361 C360 1.370 . S
C361 C365 1.408 . S
C362 C360 1.363 . S
C362 C363 1.370 . S
C362 C366 1.524 . S
C363 C355 1.503 . S
C363 C362 1.370 . S
C363 C364 1.403 . S
C364 C363 1.403 . S
C364 C365 1.404 . S
C364 C367 1.539 . S
C365 C361 1.408 . S
C365 C364 1.404 . S
C365 H377 0.930 . S
C366 C362 1.524 . S
C366 H378 0.956 . S
C366 H379 0.961 . S
C366 H380 0.961 . S
C367 C364 1.539 . S
C367 H381 0.958 . S
C367 H382 0.961 . S
C367 H383 0.960 . S
H368 C352 0.931 . S
H369 C357 0.929 . S
H370 C358 0.960 . S
H371 C358 0.962 . S
H372 C358 0.960 . S
H373 C359 0.961 . S
H374 C359 0.961 . S
H375 C359 0.961 . S
H376 C360 0.931 . S
H377 C365 0.930 . S
H378 C366 0.956 . S
H379 C366 0.961 . S
H380 C366 0.961 . S
H381 C367 0.958 . S
H382 C367 0.961 . S
H383 C367 0.960 . S
C384 C385 1.391 . S
C384 C386 1.394 . S
C384 H400 0.931 . S
C385 C384 1.391 . S
C385 C389 1.376 . S
C386 C384 1.394 . S
C386 C387 1.369 . S
C386 C390 1.531 . S
C387 C386 1.369 . S
C387 C388 1.410 . S
C387 C395 1.503 . S
C388 C387 1.410 . S
C388 C389 1.392 . S
C388 C391 1.511 . S
C389 C385 1.376 . S
C389 C388 1.392 . S
C389 H401 0.929 . S
C390 C386 1.531 . S
C390 H402 0.960 . S
C390 H403 0.962 . S
C390 H404 0.960 . S
C391 C388 1.511 . S
C391 H405 0.961 . S
C391 H406 0.961 . S
C391 H407 0.961 . S
C392 C393 1.370 . S
C392 C394 1.363 . S
C392 H408 0.931 . S
C393 C392 1.370 . S
C393 C397 1.408 . S
C394 C392 1.363 . S
C394 C395 1.370 . S
C394 C398 1.524 . S
C395 C387 1.503 . S
C395 C394 1.370 . S
C395 C396 1.403 . S
C396 C395 1.403 . S
C396 C397 1.404 . S
C396 C399 1.539 . S
C397 C393 1.408 . S
C397 C396 1.404 . S
C397 H409 0.930 1_554 S
C398 C394 1.524 . S
C398 H410 0.956 . S
C398 H411 0.961 . S
C398 H412 0.961 . S
C399 C396 1.539 . S
C399 H413 0.958 . S
C399 H414 0.961 . S
C399 H415 0.960 . S
H400 C384 0.931 . S
H401 C389 0.929 . S
H402 C390 0.960 . S
H403 C390 0.962 . S
H404 C390 0.960 . S
H405 C391 0.961 . S
H406 C391 0.961 . S
H407 C391 0.961 . S
H408 C392 0.931 . S
H409 C397 0.930 1_556 S
H410 C398 0.956 . S
H411 C398 0.961 . S
H412 C398 0.961 . S
H413 C399 0.958 . S
H414 C399 0.961 . S
H415 C399 0.960 . S
C416 C417 1.391 . S
C416 C418 1.394 . S
C416 H432 0.931 . S
C417 C416 1.391 . S
C417 C421 1.376 . S
C418 C416 1.394 . S
C418 C419 1.369 . S
C418 C422 1.531 . S
C419 C418 1.369 . S
C419 C420 1.410 . S
C419 C427 1.503 . S
C420 C419 1.410 . S
C420 C421 1.392 . S
C420 C423 1.511 . S
C421 C417 1.376 . S
C421 C420 1.392 . S
C421 H433 0.929 . S
C422 C418 1.531 . S
C422 H434 0.960 . S
C422 H435 0.962 . S
C422 H436 0.960 . S
C423 C420 1.511 . S
C423 H437 0.961 . S
C423 H438 0.961 . S
C423 H439 0.961 . S
C424 C425 1.370 . S
C424 C426 1.363 . S
C424 H440 0.931 . S
C425 C424 1.370 . S
C425 C429 1.408 . S
C426 C424 1.363 . S
C426 C427 1.370 . S
C426 C430 1.524 . S
C427 C419 1.503 . S
C427 C426 1.370 . S
C427 C428 1.403 . S
C428 C427 1.403 . S
C428 C429 1.404 . S
C428 C431 1.539 . S
C429 C425 1.408 . S
C429 C428 1.404 . S
C429 H441 0.930 . S
C430 C426 1.524 . S
C430 H442 0.956 . S
C430 H443 0.961 . S
C430 H444 0.961 . S
C431 C428 1.539 . S
C431 H445 0.958 . S
C431 H446 0.961 . S
C431 H447 0.960 . S
H432 C416 0.931 . S
H433 C421 0.929 . S
H434 C422 0.960 . S
H435 C422 0.962 . S
H436 C422 0.960 . S
H437 C423 0.961 . S
H438 C423 0.961 . S
H439 C423 0.961 . S
H440 C424 0.931 . S
H441 C429 0.930 . S
H442 C430 0.956 . S
H443 C430 0.961 . S
H444 C430 0.961 . S
H445 C431 0.958 . S
H446 C431 0.961 . S
H447 C431 0.960 . S
C448 C449 1.391 . S
C448 C450 1.394 . S
C448 H464 0.931 . S
C449 C448 1.391 . S
C449 C453 1.376 . S
C450 C448 1.394 . S
C450 C451 1.369 . S
C450 C454 1.531 . S
C451 C450 1.369 . S
C451 C452 1.410 . S
C451 C459 1.503 . S
C452 C451 1.410 . S
C452 C453 1.392 . S
C452 C455 1.511 . S
C453 C449 1.376 . S
C453 C452 1.392 . S
C453 H465 0.929 . S
C454 C450 1.531 . S
C454 H466 0.960 . S
C454 H467 0.962 . S
C454 H468 0.960 . S
C455 C452 1.511 . S
C455 H469 0.961 . S
C455 H470 0.961 . S
C455 H471 0.961 . S
C456 C457 1.370 . S
C456 C458 1.363 . S
C456 H472 0.931 . S
C457 C456 1.370 . S
C457 C461 1.408 . S
C458 C456 1.363 . S
C458 C459 1.370 . S
C458 C462 1.524 . S
C459 C451 1.503 . S
C459 C458 1.370 . S
C459 C460 1.403 . S
C460 C459 1.403 . S
C460 C461 1.404 . S
C460 C463 1.539 . S
C461 C457 1.408 . S
C461 C460 1.404 . S
C461 H473 0.930 . S
C462 C458 1.524 . S
C462 H474 0.956 . S
C462 H475 0.961 . S
C462 H476 0.961 . S
C463 C460 1.539 . S
C463 H477 0.958 . S
C463 H478 0.961 . S
C463 H479 0.960 . S
H464 C448 0.931 . S
H465 C453 0.929 . S
H466 C454 0.960 . S
H467 C454 0.962 . S
H468 C454 0.960 . S
H469 C455 0.961 . S
H470 C455 0.961 . S
H471 C455 0.961 . S
H472 C456 0.931 . S
H473 C461 0.930 . S
H474 C462 0.956 . S
H475 C462 0.961 . S
H476 C462 0.961 . S
H477 C463 0.958 . S
H478 C463 0.961 . S
H479 C463 0.960 . S
C480 C481 1.391 . S
C480 C482 1.394 . S
C480 H496 0.931 . S
C481 C480 1.391 . S
C481 C485 1.376 . S
C482 C480 1.394 . S
C482 C483 1.369 . S
C482 C486 1.531 . S
C483 C482 1.369 . S
C483 C484 1.410 . S
C483 C491 1.503 1_455 S
C484 C483 1.410 . S
C484 C485 1.392 . S
C484 C487 1.511 1_455 S
C485 C481 1.376 . S
C485 C484 1.392 . S
C485 H497 0.929 . S
C486 C482 1.531 . S
C486 H498 0.960 . S
C486 H499 0.962 . S
C486 H500 0.960 . S
C487 C484 1.511 1_655 S
C487 H501 0.961 . S
C487 H502 0.961 . S
C487 H503 0.961 . S
C488 C489 1.370 . S
C488 C490 1.363 . S
C488 H504 0.931 . S
C489 C488 1.370 . S
C489 C493 1.408 . S
C490 C488 1.363 . S
C490 C491 1.370 . S
C490 C494 1.524 1_655 S
C491 C483 1.503 1_655 S
C491 C490 1.370 . S
C491 C492 1.403 . S
C492 C491 1.403 . S
C492 C493 1.404 . S
C492 C495 1.539 . S
C493 C489 1.408 . S
C493 C492 1.404 . S
C493 H505 0.930 . S
C494 C490 1.524 1_455 S
C494 H506 0.956 . S
C494 H507 0.961 . S
C494 H508 0.961 . S
C495 C492 1.539 . S
C495 H509 0.958 . S
C495 H510 0.961 . S
C495 H511 0.960 . S
H496 C480 0.931 . S
H497 C485 0.929 . S
H498 C486 0.960 . S
H499 C486 0.962 . S
H500 C486 0.960 . S
H501 C487 0.961 . S
H502 C487 0.961 . S
H503 C487 0.961 . S
H504 C488 0.931 . S
H505 C493 0.930 . S
H506 C494 0.956 . S
H507 C494 0.961 . S
H508 C494 0.961 . S
H509 C495 0.958 . S
H510 C495 0.961 . S
H511 C495 0.960 . S
C512 C513 1.391 . S
C512 C514 1.394 . S
C512 H528 0.931 . S
C513 C512 1.391 . S
C513 C517 1.376 . S
C514 C512 1.394 . S
C514 C515 1.369 . S
C514 C518 1.531 . S
C515 C514 1.369 . S
C515 C516 1.410 . S
C515 C523 1.503 . S
C516 C515 1.410 . S
C516 C517 1.392 . S
C516 C519 1.511 . S
C517 C513 1.376 . S
C517 C516 1.392 . S
C517 H529 0.929 . S
C518 C514 1.531 . S
C518 H530 0.960 . S
C518 H531 0.962 . S
C518 H532 0.960 . S
C519 C516 1.511 . S
C519 H533 0.961 . S
C519 H534 0.961 . S
C519 H535 0.961 . S
C520 C521 1.370 . S
C520 C522 1.363 . S
C520 H536 0.931 . S
C521 C520 1.370 . S
C521 C525 1.408 . S
C522 C520 1.363 . S
C522 C523 1.370 . S
C522 C526 1.524 . S
C523 C515 1.503 . S
C523 C522 1.370 . S
C523 C524 1.403 . S
C524 C523 1.403 . S
C524 C525 1.404 . S
C524 C527 1.539 . S
C525 C521 1.408 . S
C525 C524 1.404 . S
C525 H537 0.930 . S
C526 C522 1.524 . S
C526 H538 0.956 . S
C526 H539 0.961 . S
C526 H540 0.961 . S
C527 C524 1.539 . S
C527 H541 0.958 . S
C527 H542 0.961 . S
C527 H543 0.960 . S
H528 C512 0.931 . S
H529 C517 0.929 . S
H530 C518 0.960 . S
H531 C518 0.962 . S
H532 C518 0.960 . S
H533 C519 0.961 . S
H534 C519 0.961 . S
H535 C519 0.961 . S
H536 C520 0.931 . S
H537 C525 0.930 . S
H538 C526 0.956 . S
H539 C526 0.961 . S
H540 C526 0.961 . S
H541 C527 0.958 . S
H542 C527 0.961 . S
H543 C527 0.960 . S
C544 C545 1.391 . S
C544 C546 1.394 . S
C544 H560 0.931 . S
C545 C544 1.391 . S
C545 C549 1.376 . S
C546 C544 1.394 . S
C546 C547 1.369 . S
C546 C550 1.531 . S
C547 C546 1.369 . S
C547 C548 1.410 . S
C547 C555 1.503 . S
C548 C547 1.410 . S
C548 C549 1.392 . S
C548 C551 1.511 . S
C549 C545 1.376 . S
C549 C548 1.392 . S
C549 H561 0.929 . S
C550 C546 1.531 . S
C550 H562 0.960 . S
C550 H563 0.962 . S
C550 H564 0.960 . S
C551 C548 1.511 . S
C551 H565 0.961 . S
C551 H566 0.961 . S
C551 H567 0.961 . S
C552 C553 1.370 . S
C552 C554 1.363 . S
C552 H568 0.931 . S
C553 C552 1.370 . S
C553 C557 1.408 . S
C554 C552 1.363 . S
C554 C555 1.370 1_565 S
C554 C558 1.524 . S
C555 C547 1.503 . S
C555 C554 1.370 1_545 S
C555 C556 1.403 . S
C556 C555 1.403 . S
C556 C557 1.404 1_545 S
C556 C559 1.539 . S
C557 C553 1.408 . S
C557 C556 1.404 1_565 S
C557 H569 0.930 1_565 S
C558 C554 1.524 . S
C558 H570 0.956 . S
C558 H571 0.961 . S
C558 H572 0.961 . S
C559 C556 1.539 . S
C559 H573 0.958 . S
C559 H574 0.961 . S
C559 H575 0.960 . S
H560 C544 0.931 . S
H561 C549 0.929 . S
H562 C550 0.960 . S
H563 C550 0.962 . S
H564 C550 0.960 . S
H565 C551 0.961 . S
H566 C551 0.961 . S
H567 C551 0.961 . S
H568 C552 0.931 . S
H569 C557 0.930 1_545 S
H570 C558 0.956 . S
H571 C558 0.961 . S
H572 C558 0.961 . S
H573 C559 0.958 . S
H574 C559 0.961 . S
H575 C559 0.960 . S
C576 C577 1.391 . S
C576 C578 1.394 1_554 S
C576 H592 0.931 1_554 S
C577 C576 1.391 . S
C577 C581 1.376 . S
C578 C576 1.394 1_556 S
C578 C579 1.369 1_556 S
C578 C582 1.531 . S
C579 C578 1.369 1_554 S
C579 C580 1.410 . S
C579 C587 1.503 . S
C580 C579 1.410 . S
C580 C581 1.392 . S
C580 C583 1.511 . S
C581 C577 1.376 . S
C581 C580 1.392 . S
C581 H593 0.929 . S
C582 C578 1.531 . S
C582 H594 0.960 . S
C582 H595 0.962 1_556 S
C582 H596 0.960 . S
C583 C580 1.511 . S
C583 H597 0.961 . S
C583 H598 0.961 . S
C583 H599 0.961 . S
C584 C585 1.370 . S
C584 C586 1.363 . S
C584 H600 0.931 . S
C585 C584 1.370 . S
C585 C589 1.408 1_554 S
C586 C584 1.363 . S
C586 C587 1.370 . S
C586 C590 1.524 . S
C587 C579 1.503 . S
C587 C586 1.370 . S
C587 C588 1.403 1_554 S
C588 C587 1.403 1_556 S
C588 C589 1.404 . S
C588 C591 1.539 . S
C589 C585 1.408 1_556 S
C589 C588 1.404 . S
C589 H601 0.930 . S
C590 C586 1.524 . S
C590 H602 0.956 . S
C590 H603 0.961 . S
C590 H604 0.961 . S
C591 C588 1.539 . S
C591 H605 0.958 . S
C591 H606 0.961 . S
C591 H607 0.960 . S
H592 C576 0.931 1_556 S
H593 C581 0.929 . S
H594 C582 0.960 . S
H595 C582 0.962 1_554 S
H596 C582 0.960 . S
H597 C583 0.961 . S
H598 C583 0.961 . S
H599 C583 0.961 . S
H600 C584 0.931 . S
H601 C589 0.930 . S
H602 C590 0.956 . S
H603 C590 0.961 . S
H604 C590 0.961 . S
H605 C591 0.958 . S
H606 C591 0.961 . S
H607 C591 0.960 . S
C608 C609 1.391 . S
C608 C610 1.394 . S
C608 H624 0.931 . S
C609 C608 1.391 . S
C609 C613 1.376 . S
C610 C608 1.394 . S
C610 C611 1.369 1_565 S
C610 C614 1.531 1_565 S
C611 C610 1.369 1_545 S
C611 C612 1.410 1_545 S
C611 C619 1.503 . S
C612 C611 1.410 1_565 S
C612 C613 1.392 . S
C612 C615 1.511 1_565 S
C613 C609 1.376 . S
C613 C612 1.392 . S
C613 H625 0.929 . S
C614 C610 1.531 1_545 S
C614 H626 0.960 . S
C614 H627 0.962 . S
C614 H628 0.960 1_545 S
C615 C612 1.511 1_545 S
C615 H629 0.961 1_544 S
C615 H630 0.961 . S
C615 H631 0.961 . S
C616 C617 1.370 1_556 S
C616 C618 1.363 . S
C616 H632 0.931 . S
C617 C616 1.370 1_554 S
C617 C621 1.408 . S
C618 C616 1.363 . S
C618 C619 1.370 1_556 S
C618 C622 1.524 . S
C619 C611 1.503 . S
C619 C618 1.370 1_554 S
C619 C620 1.403 . S
C620 C619 1.403 . S
C620 C621 1.404 . S
C620 C623 1.539 . S
C621 C617 1.408 . S
C621 C620 1.404 . S
C621 H633 0.930 . S
C622 C618 1.524 . S
C622 H634 0.956 . S
C622 H635 0.961 . S
C622 H636 0.961 . S
C623 C620 1.539 . S
C623 H637 0.958 . S
C623 H638 0.961 . S
C623 H639 0.960 . S
H624 C608 0.931 . S
H625 C613 0.929 . S
H626 C614 0.960 . S
H627 C614 0.962 . S
H628 C614 0.960 1_565 S
H629 C615 0.961 1_566 S
H630 C615 0.961 . S
H631 C615 0.961 . S
H632 C616 0.931 . S
H633 C621 0.930 . S
H634 C622 0.956 . S
H635 C622 0.961 . S
H636 C622 0.961 . S
H637 C623 0.958 . S
H638 C623 0.961 . S
H639 C623 0.960 . S
C640 C641 1.391 . S
C640 C642 1.394 . S
C640 H656 0.931 . S
C641 C640 1.391 . S
C641 C645 1.376 1_554 S
C642 C640 1.394 . S
C642 C643 1.369 . S
C642 C646 1.531 . S
C643 C642 1.369 . S
C643 C644 1.410 1_554 S
C643 C651 1.503 1_655 S
C644 C643 1.410 1_556 S
C644 C645 1.392 . S
C644 C647 1.511 . S
C645 C641 1.376 1_556 S
C645 C644 1.392 . S
C645 H657 0.929 . S
C646 C642 1.531 . S
C646 H658 0.960 1_655 S
C646 H659 0.962 . S
C646 H660 0.960 . S
C647 C644 1.511 . S
C647 H661 0.961 . S
C647 H662 0.961 . S
C647 H663 0.961 . S
C648 C649 1.370 . S
C648 C650 1.363 . S
C648 H664 0.931 . S
C649 C648 1.370 . S
C649 C653 1.408 1_556 S
C650 C648 1.363 . S
C650 C651 1.370 1_556 S
C650 C654 1.524 . S
C651 C643 1.503 1_455 S
C651 C650 1.370 1_554 S
C651 C652 1.403 . S
C652 C651 1.403 . S
C652 C653 1.404 . S
C652 C655 1.539 . S
C653 C649 1.408 1_554 S
C653 C652 1.404 . S
C653 H665 0.930 . S
C654 C650 1.524 . S
C654 H666 0.954 1_556 S
C654 H667 0.961 1_455 S
C654 H668 0.961 . S
C655 C652 1.539 . S
C655 H669 0.958 . S
C655 H670 0.961 . S
C655 H671 0.960 1_455 S
H656 C640 0.931 . S
H657 C645 0.929 . S
H658 C646 0.960 1_455 S
H659 C646 0.962 . S
H660 C646 0.960 . S
H661 C647 0.961 . S
H662 C647 0.961 . S
H663 C647 0.961 . S
H664 C648 0.931 . S
H665 C653 0.930 . S
H666 C654 0.954 1_554 S
H667 C654 0.961 1_655 S
H668 C654 0.961 . S
H669 C655 0.958 . S
H670 C655 0.961 . S
H671 C655 0.960 1_655 S
C672 C673 1.391 . S
C672 C674 1.394 . S
C672 H688 0.931 . S
C673 C672 1.391 . S
C673 C677 1.376 . S
C674 C672 1.394 . S
C674 C675 1.369 . S
C674 C678 1.531 . S
C675 C674 1.369 . S
C675 C676 1.410 . S
C675 C683 1.503 . S
C676 C675 1.410 . S
C676 C677 1.392 . S
C676 C679 1.511 . S
C677 C673 1.376 . S
C677 C676 1.392 . S
C677 H689 0.929 . S
C678 C674 1.531 . S
C678 H690 0.960 . S
C678 H691 0.962 . S
C678 H692 0.960 . S
C679 C676 1.511 . S
C679 H693 0.961 . S
C679 H694 0.961 . S
C679 H695 0.961 . S
C680 C681 1.370 . S
C680 C682 1.363 . S
C680 H696 0.931 . S
C681 C680 1.370 . S
C681 C685 1.408 . S
C682 C680 1.363 . S
C682 C683 1.370 . S
C682 C686 1.524 . S
C683 C675 1.503 . S
C683 C682 1.370 . S
C683 C684 1.403 . S
C684 C683 1.403 . S
C684 C685 1.404 . S
C684 C687 1.539 . S
C685 C681 1.408 . S
C685 C684 1.404 . S
C685 H697 0.930 . S
C686 C682 1.524 . S
C686 H698 0.956 . S
C686 H699 0.961 . S
C686 H700 0.961 . S
C687 C684 1.539 . S
C687 H701 0.958 . S
C687 H702 0.961 . S
C687 H703 0.960 . S
H688 C672 0.931 . S
H689 C677 0.929 . S
H690 C678 0.960 . S
H691 C678 0.962 . S
H692 C678 0.960 . S
H693 C679 0.961 . S
H694 C679 0.961 . S
H695 C679 0.961 . S
H696 C680 0.931 . S
H697 C685 0.930 . S
H698 C686 0.956 . S
H699 C686 0.961 . S
H700 C686 0.961 . S
H701 C687 0.958 . S
H702 C687 0.961 . S
H703 C687 0.960 . S
C704 C705 1.391 . S
C704 C706 1.394 . S
C704 H720 0.931 . S
C705 C704 1.391 . S
C705 C709 1.376 . S
C706 C704 1.394 . S
C706 C707 1.369 . S
C706 C710 1.531 . S
C707 C706 1.369 . S
C707 C708 1.410 . S
C707 C715 1.503 . S
C708 C707 1.410 . S
C708 C709 1.392 . S
C708 C711 1.511 . S
C709 C705 1.376 . S
C709 C708 1.392 . S
C709 H721 0.929 . S
C710 C706 1.531 . S
C710 H722 0.960 . S
C710 H723 0.962 . S
C710 H724 0.960 . S
C711 C708 1.511 . S
C711 H725 0.961 . S
C711 H726 0.961 . S
C711 H727 0.961 . S
C712 C713 1.370 . S
C712 C714 1.363 . S
C712 H728 0.931 . S
C713 C712 1.370 . S
C713 C717 1.408 . S
C714 C712 1.363 . S
C714 C715 1.370 . S
C714 C718 1.524 . S
C715 C707 1.503 . S
C715 C714 1.370 . S
C715 C716 1.403 . S
C716 C715 1.403 . S
C716 C717 1.404 . S
C716 C719 1.539 . S
C717 C713 1.408 . S
C717 C716 1.404 . S
C717 H729 0.930 . S
C718 C714 1.524 . S
C718 H730 0.956 . S
C718 H731 0.961 . S
C718 H732 0.961 . S
C719 C716 1.539 . S
C719 H733 0.958 . S
C719 H734 0.961 . S
C719 H735 0.960 . S
H720 C704 0.931 . S
H721 C709 0.929 . S
H722 C710 0.960 . S
H723 C710 0.962 . S
H724 C710 0.960 . S
H725 C711 0.961 . S
H726 C711 0.961 . S
H727 C711 0.961 . S
H728 C712 0.931 . S
H729 C717 0.930 . S
H730 C718 0.956 . S
H731 C718 0.961 . S
H732 C718 0.961 . S
H733 C719 0.958 . S
H734 C719 0.961 . S
H735 C719 0.960 . S
C736 C737 1.391 . S
C736 C738 1.394 . S
C736 H752 0.931 . S
C737 C736 1.391 . S
C737 C741 1.376 . S
C738 C736 1.394 . S
C738 C739 1.369 . S
C738 C742 1.531 . S
C739 C738 1.369 . S
C739 C740 1.410 . S
C739 C747 1.503 . S
C740 C739 1.410 . S
C740 C741 1.392 . S
C740 C743 1.511 . S
C741 C737 1.376 . S
C741 C740 1.392 . S
C741 H753 0.929 . S
C742 C738 1.531 . S
C742 H754 0.960 . S
C742 H755 0.962 . S
C742 H756 0.960 . S
C743 C740 1.511 . S
C743 H757 0.961 . S
C743 H758 0.961 . S
C743 H759 0.961 . S
C744 C745 1.370 . S
C744 C746 1.363 . S
C744 H760 0.931 . S
C745 C744 1.370 . S
C745 C749 1.408 . S
C746 C744 1.363 . S
C746 C747 1.370 . S
C746 C750 1.524 . S
C747 C739 1.503 . S
C747 C746 1.370 . S
C747 C748 1.403 . S
C748 C747 1.403 . S
C748 C749 1.404 . S
C748 C751 1.539 . S
C749 C745 1.408 . S
C749 C748 1.404 . S
C749 H761 0.930 . S
C750 C746 1.524 . S
C750 H762 0.956 . S
C750 H763 0.961 . S
C750 H764 0.961 . S
C751 C748 1.539 . S
C751 H765 0.958 . S
C751 H766 0.961 . S
C751 H767 0.960 . S
H752 C736 0.931 . S
H753 C741 0.929 . S
H754 C742 0.960 . S
H755 C742 0.962 . S
H756 C742 0.960 . S
H757 C743 0.961 . S
H758 C743 0.961 . S
H759 C743 0.961 . S
H760 C744 0.931 . S
H761 C749 0.930 . S
H762 C750 0.956 . S
H763 C750 0.961 . S
H764 C750 0.961 . S
H765 C751 0.958 . S
H766 C751 0.961 . S
H767 C751 0.960 . S
C768 C769 1.391 . S
C768 C770 1.394 . S
C768 H784 0.931 . S
C769 C768 1.391 . S
C769 C773 1.376 . S
C770 C768 1.394 . S
C770 C771 1.369 . S
C770 C774 1.531 . S
C771 C770 1.369 . S
C771 C772 1.410 . S
C771 C779 1.503 . S
C772 C771 1.410 . S
C772 C773 1.392 . S
C772 C775 1.511 . S
C773 C769 1.376 . S
C773 C772 1.392 . S
C773 H785 0.929 . S
C774 C770 1.531 . S
C774 H786 0.960 . S
C774 H787 0.962 . S
C774 H788 0.960 . S
C775 C772 1.511 . S
C775 H789 0.961 . S
C775 H790 0.961 . S
C775 H791 0.961 . S
C776 C777 1.370 . S
C776 C778 1.363 . S
C776 H792 0.931 . S
C777 C776 1.370 . S
C777 C781 1.408 . S
C778 C776 1.363 . S
C778 C779 1.370 . S
C778 C782 1.524 . S
C779 C771 1.503 . S
C779 C778 1.370 . S
C779 C780 1.403 . S
C780 C779 1.403 . S
C780 C781 1.404 . S
C780 C783 1.539 . S
C781 C777 1.408 . S
C781 C780 1.404 . S
C781 H793 0.930 . S
C782 C778 1.524 . S
C782 H794 0.956 . S
C782 H795 0.961 . S
C782 H796 0.961 . S
C783 C780 1.539 . S
C783 H797 0.958 . S
C783 H798 0.961 . S
C783 H799 0.960 . S
H784 C768 0.931 . S
H785 C773 0.929 . S
H786 C774 0.960 . S
H787 C774 0.962 . S
H788 C774 0.960 . S
H789 C775 0.961 . S
H790 C775 0.961 . S
H791 C775 0.961 . S
H792 C776 0.931 . S
H793 C781 0.930 . S
H794 C782 0.956 . S
H795 C782 0.961 . S
H796 C782 0.961 . S
H797 C783 0.958 . S
H798 C783 0.961 . S
H799 C783 0.960 . S
C800 C801 1.391 . S
C800 C802 1.394 . S
C800 H816 0.931 . S
C801 C800 1.391 . S
C801 C805 1.376 . S
C802 C800 1.394 . S
C802 C803 1.369 . S
C802 C806 1.531 . S
C803 C802 1.369 . S
C803 C804 1.410 . S
C803 C811 1.503 . S
C804 C803 1.410 . S
C804 C805 1.392 . S
C804 C807 1.511 . S
C805 C801 1.376 . S
C805 C804 1.392 . S
C805 H817 0.929 . S
C806 C802 1.531 . S
C806 H818 0.960 . S
C806 H819 0.962 . S
C806 H820 0.960 . S
C807 C804 1.511 . S
C807 H821 0.961 . S
C807 H822 0.961 . S
C807 H823 0.961 . S
C808 C809 1.370 . S
C808 C810 1.363 . S
C808 H824 0.931 . S
C809 C808 1.370 . S
C809 C813 1.408 . S
C810 C808 1.363 . S
C810 C811 1.370 . S
C810 C814 1.524 . S
C811 C803 1.503 . S
C811 C810 1.370 . S
C811 C812 1.403 . S
C812 C811 1.403 . S
C812 C813 1.404 . S
C812 C815 1.539 . S
C813 C809 1.408 . S
C813 C812 1.404 . S
C813 H825 0.930 . S
C814 C810 1.524 . S
C814 H826 0.956 . S
C814 H827 0.961 . S
C814 H828 0.961 . S
C815 C812 1.539 . S
C815 H829 0.958 . S
C815 H830 0.961 . S
C815 H831 0.960 . S
H816 C800 0.931 . S
H817 C805 0.929 . S
H818 C806 0.960 . S
H819 C806 0.962 . S
H820 C806 0.960 . S
H821 C807 0.961 . S
H822 C807 0.961 . S
H823 C807 0.961 . S
H824 C808 0.931 . S
H825 C813 0.930 . S
H826 C814 0.956 . S
H827 C814 0.961 . S
H828 C814 0.961 . S
H829 C815 0.958 . S
H830 C815 0.961 . S
H831 C815 0.960 . S
C832 C833 1.391 . S
C832 C834 1.394 . S
C832 H848 0.931 . S
C833 C832 1.391 . S
C833 C837 1.376 . S
C834 C832 1.394 . S
C834 C835 1.369 . S
C834 C838 1.531 . S
C835 C834 1.369 . S
C835 C836 1.410 . S
C835 C843 1.503 . S
C836 C835 1.410 . S
C836 C837 1.392 . S
C836 C839 1.511 . S
C837 C833 1.376 . S
C837 C836 1.392 . S
C837 H849 0.929 . S
C838 C834 1.531 . S
C838 H850 0.960 . S
C838 H851 0.962 . S
C838 H852 0.960 . S
C839 C836 1.511 . S
C839 H853 0.961 . S
C839 H854 0.961 . S
C839 H855 0.961 . S
C840 C841 1.370 . S
C840 C842 1.363 . S
C840 H856 0.931 . S
C841 C840 1.370 . S
C841 C845 1.408 . S
C842 C840 1.363 . S
C842 C843 1.370 . S
C842 C846 1.524 . S
C843 C835 1.503 . S
C843 C842 1.370 . S
C843 C844 1.403 . S
C844 C843 1.403 . S
C844 C845 1.404 . S
C844 C847 1.539 . S
C845 C841 1.408 . S
C845 C844 1.404 . S
C845 H857 0.930 . S
C846 C842 1.524 . S
C846 H858 0.956 . S
C846 H859 0.961 . S
C846 H860 0.961 . S
C847 C844 1.539 . S
C847 H861 0.958 . S
C847 H862 0.961 . S
C847 H863 0.960 . S
H848 C832 0.931 . S
H849 C837 0.929 . S
H850 C838 0.960 . S
H851 C838 0.962 . S
H852 C838 0.960 . S
H853 C839 0.961 . S
H854 C839 0.961 . S
H855 C839 0.961 . S
H856 C840 0.931 . S
H857 C845 0.930 . S
H858 C846 0.956 . S
H859 C846 0.961 . S
H860 C846 0.961 . S
H861 C847 0.958 . S
H862 C847 0.961 . S
H863 C847 0.960 . S
C864 C865 1.391 1_455 S
C864 C866 1.394 . S
C864 H880 0.931 . S
C865 C864 1.391 1_655 S
C865 C869 1.376 . S
C866 C864 1.394 . S
C866 C867 1.369 . S
C866 C870 1.531 . S
C867 C866 1.369 . S
C867 C868 1.410 1_455 S
C867 C875 1.503 . S
C868 C867 1.410 1_655 S
C868 C869 1.392 . S
C868 C871 1.511 . S
C869 C865 1.376 . S
C869 C868 1.392 . S
C869 H881 0.929 . S
C870 C866 1.531 . S
C870 H882 0.960 . S
C870 H883 0.962 . S
C870 H884 0.960 . S
C871 C868 1.511 . S
C871 H885 0.961 . S
C871 H886 0.961 . S
C871 H887 0.961 . S
C872 C873 1.370 . S
C872 C874 1.363 . S
C872 H888 0.931 . S
C873 C872 1.370 . S
C873 C877 1.408 . S
C874 C872 1.363 . S
C874 C875 1.370 . S
C874 C878 1.524 . S
C875 C867 1.503 . S
C875 C874 1.370 . S
C875 C876 1.403 . S
C876 C875 1.403 . S
C876 C877 1.404 . S
C876 C879 1.539 . S
C877 C873 1.408 . S
C877 C876 1.404 . S
C877 H889 0.930 . S
C878 C874 1.524 . S
C878 H890 0.956 . S
C878 H891 0.961 . S
C878 H892 0.961 . S
C879 C876 1.539 . S
C879 H893 0.958 . S
C879 H894 0.961 . S
C879 H895 0.960 . S
H880 C864 0.931 . S
H881 C869 0.929 . S
H882 C870 0.960 . S
H883 C870 0.962 . S
H884 C870 0.960 . S
H885 C871 0.961 . S
H886 C871 0.961 . S
H887 C871 0.961 . S
H888 C872 0.931 . S
H889 C877 0.930 . S
H890 C878 0.956 . S
H891 C878 0.961 . S
H892 C878 0.961 . S
H893 C879 0.958 . S
H894 C879 0.961 . S
H895 C879 0.960 . S
C896 C897 1.391 . S
C896 C898 1.394 . S
C896 H912 0.931 . S
C897 C896 1.391 . S
C897 C901 1.376 . S
C898 C896 1.394 . S
C898 C899 1.369 . S
C898 C902 1.531 . S
C899 C898 1.369 . S
C899 C900 1.410 . S
C899 C907 1.503 . S
C900 C899 1.410 . S
C900 C901 1.392 . S
C900 C903 1.511 . S
C901 C897 1.376 . S
C901 C900 1.392 . S
C901 H913 0.929 . S
C902 C898 1.531 . S
C902 H914 0.960 . S
C902 H915 0.962 . S
C902 H916 0.960 . S
C903 C900 1.511 . S
C903 H917 0.961 . S
C903 H918 0.961 . S
C903 H919 0.961 . S
C904 C905 1.370 . S
C904 C906 1.363 . S
C904 H920 0.931 . S
C905 C904 1.370 . S
C905 C909 1.408 . S
C906 C904 1.363 . S
C906 C907 1.370 . S
C906 C910 1.524 . S
C907 C899 1.503 . S
C907 C906 1.370 . S
C907 C908 1.403 . S
C908 C907 1.403 . S
C908 C909 1.404 . S
C908 C911 1.539 . S
C909 C905 1.408 . S
C909 C908 1.404 . S
C909 H921 0.930 . S
C910 C906 1.524 . S
C910 H922 0.956 . S
C910 H923 0.961 . S
C910 H924 0.961 . S
C911 C908 1.539 . S
C911 H925 0.958 . S
C911 H926 0.961 . S
C911 H927 0.960 . S
H912 C896 0.931 . S
H913 C901 0.929 . S
H914 C902 0.960 . S
H915 C902 0.962 . S
H916 C902 0.960 . S
H917 C903 0.961 . S
H918 C903 0.961 . S
H919 C903 0.961 . S
H920 C904 0.931 . S
H921 C909 0.930 . S
H922 C910 0.956 . S
H923 C910 0.961 . S
H924 C910 0.961 . S
H925 C911 0.958 . S
H926 C911 0.961 . S
H927 C911 0.960 . S
C928 C929 1.391 1_565 S
C928 C930 1.394 . S
C928 H944 0.931 . S
C929 C928 1.391 1_545 S
C929 C933 1.376 . S
C930 C928 1.394 . S
C930 C931 1.369 . S
C930 C934 1.531 . S
C931 C930 1.369 . S
C931 C932 1.410 1_565 S
C931 C939 1.503 . S
C932 C931 1.410 1_545 S
C932 C933 1.392 . S
C932 C935 1.511 . S
C933 C929 1.376 . S
C933 C932 1.392 . S
C933 H945 0.929 . S
C934 C930 1.531 . S
C934 H946 0.960 . S
C934 H947 0.962 . S
C934 H948 0.960 . S
C935 C932 1.511 . S
C935 H949 0.961 . S
C935 H950 0.961 . S
C935 H951 0.961 . S
C936 C937 1.370 1_545 S
C936 C938 1.363 . S
C936 H952 0.931 . S
C937 C936 1.370 1_565 S
C937 C941 1.408 . S
C938 C936 1.363 . S
C938 C939 1.370 1_545 S
C938 C942 1.524 . S
C939 C931 1.503 . S
C939 C938 1.370 1_565 S
C939 C940 1.403 . S
C940 C939 1.403 . S
C940 C941 1.404 . S
C940 C943 1.539 . S
C941 C937 1.408 . S
C941 C940 1.404 . S
C941 H953 0.930 . S
C942 C938 1.524 . S
C942 H954 0.956 . S
C942 H955 0.961 . S
C942 H956 0.961 . S
C943 C940 1.539 . S
C943 H957 0.958 . S
C943 H958 0.961 . S
C943 H959 0.960 . S
H944 C928 0.931 . S
H945 C933 0.929 . S
H946 C934 0.960 . S
H947 C934 0.962 . S
H948 C934 0.960 . S
H949 C935 0.961 . S
H950 C935 0.961 . S
H951 C935 0.961 . S
H952 C936 0.931 . S
H953 C941 0.930 . S
H954 C942 0.956 . S
H955 C942 0.961 . S
H956 C942 0.961 . S
H957 C943 0.958 . S
H958 C943 0.961 . S
H959 C943 0.960 . S
C960 C961 1.391 . S
C960 C962 1.394 . S
C960 H976 0.931 . S
C961 C960 1.391 . S
C961 C965 1.376 . S
C962 C960 1.394 . S
C962 C963 1.369 . S
C962 C966 1.531 . S
C963 C962 1.369 . S
C963 C964 1.410 . S
C963 C971 1.503 . S
C964 C963 1.410 . S
C964 C965 1.392 . S
C964 C967 1.511 . S
C965 C961 1.376 . S
C965 C964 1.392 . S
C965 H977 0.929 . S
C966 C962 1.531 . S
C966 H978 0.960 . S
C966 H979 0.962 . S
C966 H980 0.960 . S
C967 C964 1.511 . S
C967 H981 0.961 . S
C967 H982 0.961 . S
C967 H983 0.961 . S
C968 C969 1.370 . S
C968 C970 1.363 . S
C968 H984 0.931 . S
C969 C968 1.370 . S
C969 C973 1.408 . S
C970 C968 1.363 . S
C970 C971 1.370 . S
C970 C974 1.524 . S
C971 C963 1.503 . S
C971 C970 1.370 . S
C971 C972 1.403 . S
C972 C971 1.403 . S
C972 C973 1.404 . S
C972 C975 1.539 . S
C973 C969 1.408 . S
C973 C972 1.404 . S
C973 H985 0.925 1_556 S
C974 C970 1.524 . S
C974 H986 0.956 . S
C974 H987 0.961 . S
C974 H988 0.961 . S
C975 C972 1.539 . S
C975 H989 0.958 . S
C975 H990 0.961 . S
C975 H991 0.960 . S
H976 C960 0.931 . S
H977 C965 0.929 . S
H978 C966 0.960 . S
H979 C966 0.962 . S
H980 C966 0.960 . S
H981 C967 0.961 . S
H982 C967 0.961 . S
H983 C967 0.961 . S
H984 C968 0.931 . S
H985 C973 0.925 1_554 S
H986 C974 0.956 . S
H987 C974 0.961 . S
H988 C974 0.961 . S
H989 C975 0.958 . S
H990 C975 0.961 . S
H991 C975 0.960 . S
C992 C993 1.391 . S
C992 C994 1.394 . S
C992 H1008 0.931 . S
C993 C992 1.391 . S
C993 C997 1.376 . S
C994 C992 1.394 . S
C994 C995 1.369 . S
C994 C998 1.531 . S
C995 C994 1.369 . S
C995 C996 1.410 . S
C995 C1003 1.503 . S
C996 C995 1.410 . S
C996 C997 1.392 . S
C996 C999 1.511 . S
C997 C993 1.376 . S
C997 C996 1.392 . S
C997 H1009 0.929 . S
C998 C994 1.531 . S
C998 H1010 0.960 . S
C998 H1011 0.962 . S
C998 H1012 0.960 . S
C999 C996 1.511 . S
C999 H1013 0.961 . S
C999 H1014 0.961 . S
C999 H1015 0.961 . S
C1000 C1001 1.370 . S
C1000 C1002 1.363 . S
C1000 H1016 0.931 . S
C1001 C1000 1.370 . S
C1001 C1005 1.408 . S
C1002 C1000 1.363 . S
C1002 C1003 1.370 . S
C1002 C1006 1.524 . S
C1003 C995 1.503 . S
C1003 C1002 1.370 . S
C1003 C1004 1.403 . S
C1004 C1003 1.403 . S
C1004 C1005 1.404 . S
C1004 C1007 1.539 . S
C1005 C1001 1.408 . S
C1005 C1004 1.404 . S
C1005 H1017 0.930 . S
C1006 C1002 1.524 . S
C1006 H1018 0.956 . S
C1006 H1019 0.961 . S
C1006 H1020 0.961 . S
C1007 C1004 1.539 . S
C1007 H1021 0.958 . S
C1007 H1022 0.961 . S
C1007 H1023 0.960 . S
H1008 C992 0.931 . S
H1009 C997 0.929 . S
H1010 C998 0.960 . S
H1011 C998 0.962 . S
H1012 C998 0.960 . S
H1013 C999 0.961 . S
H1014 C999 0.961 . S
H1015 C999 0.961 . S
H1016 C1000 0.931 . S
H1017 C1005 0.930 . S
H1018 C1006 0.956 . S
H1019 C1006 0.961 . S
H1020 C1006 0.961 . S
H1021 C1007 0.958 . S
H1022 C1007 0.961 . S
H1023 C1007 0.960 . S
C1024 C1025 1.391 . S
C1024 C1026 1.394 . S
C1024 H1040 0.931 . S
C1025 C1024 1.391 . S
C1025 C1029 1.376 . S
C1026 C1024 1.394 . S
C1026 C1027 1.369 . S
C1026 C1030 1.531 . S
C1027 C1026 1.369 . S
C1027 C1028 1.410 . S
C1027 C1035 1.503 . S
C1028 C1027 1.410 . S
C1028 C1029 1.392 . S
C1028 C1031 1.511 . S
C1029 C1025 1.376 . S
C1029 C1028 1.392 . S
C1029 H1041 0.929 . S
C1030 C1026 1.531 . S
C1030 H1042 0.960 . S
C1030 H1043 0.962 . S
C1030 H1044 0.960 . S
C1031 C1028 1.511 . S
C1031 H1045 0.961 . S
C1031 H1046 0.961 . S
C1031 H1047 0.961 . S
C1032 C1033 1.370 . S
C1032 C1034 1.363 . S
C1032 H1048 0.931 . S
C1033 C1032 1.370 . S
C1033 C1037 1.408 . S
C1034 C1032 1.363 . S
C1034 C1035 1.370 . S
C1034 C1038 1.524 . S
C1035 C1027 1.503 . S
C1035 C1034 1.370 . S
C1035 C1036 1.403 . S
C1036 C1035 1.403 . S
C1036 C1037 1.404 . S
C1036 C1039 1.539 . S
C1037 C1033 1.408 . S
C1037 C1036 1.404 . S
C1037 H1049 0.930 1_556 S
C1038 C1034 1.524 . S
C1038 H1050 0.956 . S
C1038 H1051 0.961 . S
C1038 H1052 0.961 . S
C1039 C1036 1.539 . S
C1039 H1053 0.958 . S
C1039 H1054 0.961 . S
C1039 H1055 0.960 . S
H1040 C1024 0.931 . S
H1041 C1029 0.929 . S
H1042 C1030 0.960 . S
H1043 C1030 0.962 . S
H1044 C1030 0.960 . S
H1045 C1031 0.961 . S
H1046 C1031 0.961 . S
H1047 C1031 0.961 . S
H1048 C1032 0.931 . S
H1049 C1037 0.930 1_554 S
H1050 C1038 0.956 . S
H1051 C1038 0.961 . S
H1052 C1038 0.961 . S
H1053 C1039 0.958 . S
H1054 C1039 0.961 . S
H1055 C1039 0.960 . S
C1056 C1057 1.391 . S
C1056 C1058 1.394 . S
C1056 H1072 0.931 . S
C1057 C1056 1.391 . S
C1057 C1061 1.376 . S
C1058 C1056 1.394 . S
C1058 C1059 1.369 . S
C1058 C1062 1.531 . S
C1059 C1058 1.369 . S
C1059 C1060 1.410 . S
C1059 C1067 1.503 . S
C1060 C1059 1.410 . S
C1060 C1061 1.392 . S
C1060 C1063 1.511 . S
C1061 C1057 1.376 . S
C1061 C1060 1.392 . S
C1061 H1073 0.929 . S
C1062 C1058 1.531 . S
C1062 H1074 0.960 . S
C1062 H1075 0.962 . S
C1062 H1076 0.960 . S
C1063 C1060 1.511 . S
C1063 H1077 0.961 . S
C1063 H1078 0.961 . S
C1063 H1079 0.961 . S
C1064 C1065 1.370 . S
C1064 C1066 1.363 . S
C1064 H1080 0.931 1_554 S
C1065 C1064 1.370 . S
C1065 C1069 1.408 . S
C1066 C1064 1.363 . S
C1066 C1067 1.370 . S
C1066 C1070 1.524 . S
C1067 C1059 1.503 . S
C1067 C1066 1.370 . S
C1067 C1068 1.403 . S
C1068 C1067 1.403 . S
C1068 C1069 1.404 . S
C1068 C1071 1.539 . S
C1069 C1065 1.408 . S
C1069 C1068 1.404 . S
C1069 H1081 0.930 . S
C1070 C1066 1.524 . S
C1070 H1082 0.956 . S
C1070 H1083 0.961 . S
C1070 H1084 0.961 . S
C1071 C1068 1.539 . S
C1071 H1085 0.958 . S
C1071 H1086 0.961 . S
C1071 H1087 0.960 . S
H1072 C1056 0.931 . S
H1073 C1061 0.929 . S
H1074 C1062 0.960 . S
H1075 C1062 0.962 . S
H1076 C1062 0.960 . S
H1077 C1063 0.961 . S
H1078 C1063 0.961 . S
H1079 C1063 0.961 . S
H1080 C1064 0.931 1_556 S
H1081 C1069 0.930 . S
H1082 C1070 0.956 . S
H1083 C1070 0.961 . S
H1084 C1070 0.961 . S
H1085 C1071 0.958 . S
H1086 C1071 0.961 . S
H1087 C1071 0.960 . S
C1088 C1089 1.391 . S
C1088 C1090 1.394 . S
C1088 H1104 0.931 . S
C1089 C1088 1.391 . S
C1089 C1093 1.376 . S
C1090 C1088 1.394 . S
C1090 C1091 1.369 . S
C1090 C1094 1.531 . S
C1091 C1090 1.369 . S
C1091 C1092 1.410 . S
C1091 C1099 1.503 . S
C1092 C1091 1.410 . S
C1092 C1093 1.392 . S
C1092 C1095 1.511 . S
C1093 C1089 1.376 . S
C1093 C1092 1.392 . S
C1093 H1105 0.929 . S
C1094 C1090 1.531 . S
C1094 H1106 0.960 . S
C1094 H1107 0.962 . S
C1094 H1108 0.960 . S
C1095 C1092 1.511 . S
C1095 H1109 0.961 . S
C1095 H1110 0.961 . S
C1095 H1111 0.961 . S
C1096 C1097 1.370 . S
C1096 C1098 1.363 . S
C1096 H1112 0.931 . S
C1097 C1096 1.370 . S
C1097 C1101 1.408 . S
C1098 C1096 1.363 . S
C1098 C1099 1.370 . S
C1098 C1102 1.524 . S
C1099 C1091 1.503 . S
C1099 C1098 1.370 . S
C1099 C1100 1.403 . S
C1100 C1099 1.403 . S
C1100 C1101 1.404 . S
C1100 C1103 1.539 . S
C1101 C1097 1.408 . S
C1101 C1100 1.404 . S
C1101 H1113 0.930 . S
C1102 C1098 1.524 . S
C1102 H1114 0.956 . S
C1102 H1115 0.961 . S
C1102 H1116 0.961 . S
C1103 C1100 1.539 . S
C1103 H1117 0.958 . S
C1103 H1118 0.961 . S
C1103 H1119 0.960 . S
H1104 C1088 0.931 . S
H1105 C1093 0.929 . S
H1106 C1094 0.960 . S
H1107 C1094 0.962 . S
H1108 C1094 0.960 . S
H1109 C1095 0.961 . S
H1110 C1095 0.961 . S
H1111 C1095 0.961 . S
H1112 C1096 0.931 . S
H1113 C1101 0.930 . S
H1114 C1102 0.956 . S
H1115 C1102 0.961 . S
H1116 C1102 0.961 . S
H1117 C1103 0.958 . S
H1118 C1103 0.961 . S
H1119 C1103 0.960 . S
C1120 C1121 1.391 . S
C1120 C1122 1.394 . S
C1120 H1136 0.931 . S
C1121 C1120 1.391 . S
C1121 C1125 1.376 . S
C1122 C1120 1.394 . S
C1122 C1123 1.369 . S
C1122 C1126 1.531 . S
C1123 C1122 1.369 . S
C1123 C1124 1.410 . S
C1123 C1131 1.503 . S
C1124 C1123 1.410 . S
C1124 C1125 1.392 . S
C1124 C1127 1.511 . S
C1125 C1121 1.376 . S
C1125 C1124 1.392 . S
C1125 H1137 0.929 . S
C1126 C1122 1.531 . S
C1126 H1138 0.960 . S
C1126 H1139 0.962 . S
C1126 H1140 0.960 . S
C1127 C1124 1.511 . S
C1127 H1141 0.961 . S
C1127 H1142 0.961 . S
C1127 H1143 0.961 . S
C1128 C1129 1.370 . S
C1128 C1130 1.363 . S
C1128 H1144 0.931 . S
C1129 C1128 1.370 . S
C1129 C1133 1.408 . S
C1130 C1128 1.363 . S
C1130 C1131 1.370 . S
C1130 C1134 1.524 . S
C1131 C1123 1.503 . S
C1131 C1130 1.370 . S
C1131 C1132 1.403 . S
C1132 C1131 1.403 . S
C1132 C1133 1.404 . S
C1132 C1135 1.539 . S
C1133 C1129 1.408 . S
C1133 C1132 1.404 . S
C1133 H1145 0.930 . S
C1134 C1130 1.524 . S
C1134 H1146 0.956 . S
C1134 H1147 0.961 . S
C1134 H1148 0.961 . S
C1135 C1132 1.539 . S
C1135 H1149 0.958 . S
C1135 H1150 0.961 . S
C1135 H1151 0.960 . S
H1136 C1120 0.931 . S
H1137 C1125 0.929 . S
H1138 C1126 0.960 . S
H1139 C1126 0.962 . S
H1140 C1126 0.960 . S
H1141 C1127 0.961 . S
H1142 C1127 0.961 . S
H1143 C1127 0.961 . S
H1144 C1128 0.931 . S
H1145 C1133 0.930 . S
H1146 C1134 0.956 . S
H1147 C1134 0.961 . S
H1148 C1134 0.961 . S
H1149 C1135 0.958 . S
H1150 C1135 0.961 . S
H1151 C1135 0.960 . S
C289 C6 1.825 1_556 S
C297 C226 1.803 . S
C321 C36 1.574 1_556 S
C329 C285 1.593 . S
C353 C66 1.717 . S
C361 C221 1.698 . S
C385 C132 1.382 . S
C393 C68 1.401 . S
C417 C164 1.539 . S
C425 C29 1.549 . S
C449 C34 1.681 . S
C457 C125 1.698 . S
C481 C228 1.722 . S
C489 C162 1.724 . S
C513 C262 1.852 . S
C521 C102 1.863 . S
C545 C130 1.986 . S
C553 C198 2.038 . S
C577 C93 1.256 . S
C585 C2 1.268 . S
C609 C61 1.233 . S
C617 C4 1.251 . S
C641 C38 1.291 . S
C649 C70 1.284 . S
C673 C100 1.269 . S
C681 C166 1.289 . S
C705 C98 1.306 . S
C713 C157 1.325 . S
C737 C134 1.275 . S
C745 C189 1.296 . S
C769 C260 1.302 . S
C777 C194 1.323 . S
C801 C253 1.282 . S
C809 C196 1.274 . S
C833 C258 1.310 . S
C841 C230 1.302 . S
C865 N13 1.083 . S
C873 N18 1.116 . S
C897 N45 0.996 . S
C905 N50 1.014 . S
C929 N82 0.932 . S
C937 N77 0.985 . S
C961 N109 1.175 . S
C969 N114 1.075 1_556 S
C993 N146 1.088 . S
C1001 N141 1.027 1_556 S
C1025 N178 1.080 . S
C1033 N173 0.997 1_556 S
C1057 N205 1.168 . S
C1065 N210 1.135 1_554 S
C1089 N242 1.102 1_554 S
C1097 N237 1.091 . S
C1121 N269 0.953 . S
C1129 N274 1.016 1_554 S
