# Generated by pormake.
# Topology ukg, (4)-cn, num edge types: 1
# Building blocks:
#     Node 0, Type 0, BuildingBlock: NAWXER_clean_sbu_0, # of connection points: 4
#     Node 1, Type 0, BuildingBlock: NAWXER_clean_sbu_0, # of connection points: 4
#     Node 2, Type 0, BuildingBlock: NAWXER_clean_sbu_0, # of connection points: 4
#     Node 3, Type 0, BuildingBlock: NAWXER_clean_sbu_0, # of connection points: 4
#     Node 4, Type 0, BuildingBlock: NAWXER_clean_sbu_0, # of connection points: 4
#     Node 5, Type 0, BuildingBlock: NAWXER_clean_sbu_0, # of connection points: 4
#     Node 6, Type 0, BuildingBlock: NAWXER_clean_sbu_0, # of connection points: 4
#     Node 7, Type 0, BuildingBlock: NAWXER_clean_sbu_0, # of connection points: 4
#     Edge 8, Type (0, 0), BuildingBlock: FUNLAD_clean_linker_0, # of connection points: 2
#     Edge 9, Type (0, 0), BuildingBlock: FUNLAD_clean_linker_0, # of connection points: 2
#     Edge 10, Type (0, 0), BuildingBlock: FUNLAD_clean_linker_0, # of connection points: 2
#     Edge 11, Type (0, 0), BuildingBlock: FUNLAD_clean_linker_0, # of connection points: 2
#     Edge 12, Type (0, 0), BuildingBlock: FUNLAD_clean_linker_0, # of connection points: 2
#     Edge 13, Type (0, 0), BuildingBlock: FUNLAD_clean_linker_0, # of connection points: 2
#     Edge 14, Type (0, 0), BuildingBlock: FUNLAD_clean_linker_0, # of connection points: 2
#     Edge 15, Type (0, 0), BuildingBlock: FUNLAD_clean_linker_0, # of connection points: 2
#     Edge 16, Type (0, 0), BuildingBlock: FUNLAD_clean_linker_0, # of connection points: 2
#     Edge 17, Type (0, 0), BuildingBlock: FUNLAD_clean_linker_0, # of connection points: 2
#     Edge 18, Type (0, 0), BuildingBlock: FUNLAD_clean_linker_0, # of connection points: 2
#     Edge 19, Type (0, 0), BuildingBlock: FUNLAD_clean_linker_0, # of connection points: 2
#     Edge 20, Type (0, 0), BuildingBlock: FUNLAD_clean_linker_0, # of connection points: 2
#     Edge 21, Type (0, 0), BuildingBlock: FUNLAD_clean_linker_0, # of connection points: 2
#     Edge 22, Type (0, 0), BuildingBlock: FUNLAD_clean_linker_0, # of connection points: 2
#     Edge 23, Type (0, 0), BuildingBlock: FUNLAD_clean_linker_0, # of connection points: 2
# Relax obj value: 0.100
# Max RMSD: 0.242
# Mean RMSD: 0.242
data_MOF--net-ukg--node1-NAWXER_clean_sbu_0--edge1-FUNLAD_clean_linker_0
_symmetry_space_group_name_H-M    P1
_symmetry_Int_Tables_number       1
_symmetry_cell_setting            triclinic
loop_
_symmetry_equiv_pos_as_xyz
'x, y, z'
_cell_length_a     36.115839
_cell_length_b     36.076861
_cell_length_c     44.93365
_cell_angle_alpha  89.952532
_cell_angle_beta   89.96032
_cell_angle_gamma 90.048578
loop_
_atom_site_label
_atom_site_type_symbol
_atom_site_fract_x
_atom_site_fract_y
_atom_site_fract_z
_atom_type_partial_charge
C0 C 0.09105 0.68318 0.14435 0.0
C1 C 0.98073 0.61975 0.18049 0.0
O2 O 0.08852 0.65673 0.16286 0.0
Zn3 Zn 0.03566 0.65008 0.16126 0.0
O4 O 0.06174 0.69492 0.13129 0.0
Zn5 Zn 0.00358 0.68167 0.13174 0.0
O6 O 0.98197 0.72809 0.14296 0.0
O7 O 0.01389 0.70162 0.17904 0.0
O8 O 0.97322 0.64336 0.15995 0.0
O9 O 0.0142 0.61472 0.18822 0.0
O10 O 0.0257 0.62425 0.11871 0.0
O11 O 0.99319 0.66402 0.09226 0.0
C12 C 0.99372 0.72848 0.1696 0.0
C13 C 0.0089 0.6327 0.09448 0.0
C14 C 0.3259 0.6017 0.64877 0.0
C15 C 0.38669 0.49352 0.69055 0.0
O16 O 0.34836 0.59904 0.67032 0.0
Zn17 Zn 0.35708 0.54693 0.6684 0.0
O18 O 0.31739 0.57251 0.63391 0.0
Zn19 Zn 0.332 0.51423 0.63605 0.0
O20 O 0.28544 0.49024 0.64217 0.0
O21 O 0.30405 0.52281 0.68092 0.0
O22 O 0.36687 0.48489 0.66784 0.0
O23 O 0.38896 0.52721 0.69848 0.0
O24 O 0.38963 0.53912 0.62829 0.0
O25 O 0.35545 0.50445 0.59877 0.0
C26 C 0.28012 0.50139 0.6686 0.0
C27 C 0.38534 0.5219 0.60352 0.0
C28 C 0.49793 0.78646 0.17011 0.0
C29 C 0.48123 0.88663 0.09889 0.0
O30 O 0.51091 0.78946 0.14394 0.0
Zn31 Zn 0.4877 0.83557 0.13439 0.0
O32 O 0.47646 0.81182 0.1804 0.0
Zn33 Zn 0.45423 0.86444 0.1646 0.0
O34 O 0.4017 0.85669 0.16559 0.0
O35 O 0.42972 0.8205 0.13317 0.0
O36 O 0.46367 0.89293 0.12318 0.0
O37 O 0.49823 0.85613 0.09574 0.0
O38 O 0.51658 0.87239 0.16447 0.0
O39 O 0.4744 0.89912 0.19278 0.0
C40 C 0.4 0.83097 0.14641 0.0
C41 C 0.50812 0.89489 0.18551 0.0
C42 C 0.12601 0.98835 0.59271 0.0
C43 C 0.22562 0.99901 0.66458 0.0
O44 O 0.15854 1.00092 0.58939 0.0
Zn45 Zn 0.17606 0.99161 0.62894 0.0
O46 O 0.11667 0.97407 0.6178 0.0
Zn47 Zn 0.14311 0.96496 0.66034 0.0
O48 O 0.1112 0.99101 0.68698 0.0
O49 O 0.14193 0.02778 0.65648 0.0
O50 O 0.19772 0.9818 0.67576 0.0
O51 O 0.22448 0.0099 0.63773 0.0
O52 O 0.18361 0.93182 0.63118 0.0
O53 O 0.1439 0.91245 0.665 0.0
C54 C 0.11862 0.02346 0.67783 0.0
C55 C 0.1692 0.90524 0.64633 0.0
C56 C 0.01936 0.38721 0.82081 0.0
C57 C 0.90758 0.32788 0.85748 0.0
O58 O 0.02661 0.36437 0.84198 0.0
Zn59 Zn 0.99471 0.32869 0.87165 0.0
O60 O 0.98601 0.39252 0.81303 0.0
Zn61 Zn 0.96413 0.3585 0.84055 0.0
O62 O 0.97285 0.38691 0.8824 0.0
O63 O 0.00484 0.34837 0.91034 0.0
O64 O 0.91159 0.35244 0.83754 0.0
O65 O 0.936 0.31674 0.87208 0.0
O66 O 0.01548 0.2812 0.86346 0.0
O67 O 0.98569 0.3053 0.82521 0.0
C68 C 0.98926 0.37958 0.90705 0.0
C69 C 0.00483 0.27883 0.83662 0.0
C70 C 0.72821 0.50001 0.33801 0.0
C71 C 0.62176 0.48957 0.40375 0.0
O72 O 0.70068 0.48437 0.32494 0.0
Zn73 Zn 0.64467 0.46768 0.33703 0.0
O74 O 0.72528 0.50938 0.36515 0.0
Zn75 Zn 0.67534 0.49303 0.37065 0.0
O76 O 0.68136 0.43326 0.3684 0.0
O77 O 0.64539 0.41519 0.3316 0.0
O78 O 0.65381 0.50234 0.40904 0.0
O79 O 0.61484 0.47571 0.37806 0.0
O80 O 0.61518 0.49501 0.30937 0.0
O81 O 0.64553 0.5305 0.34107 0.0
C82 C 0.66823 0.40721 0.35203 0.0
C83 C 0.6236 0.52711 0.31872 0.0
C84 C 0.5245 0.11973 0.89729 0.0
C85 C 0.51108 0.22306 0.8284 0.0
O86 O 0.53879 0.11232 0.87184 0.0
Zn87 Zn 0.54655 0.14076 0.83021 0.0
O88 O 0.51104 0.15169 0.90186 0.0
Zn89 Zn 0.52003 0.17232 0.86299 0.0
O90 O 0.4839 0.14032 0.83411 0.0
O91 O 0.52 0.10925 0.80328 0.0
O92 O 0.50193 0.22148 0.85569 0.0
O93 O 0.52779 0.1954 0.8164 0.0
O94 O 0.59913 0.14351 0.82502 0.0
O95 O 0.57926 0.18047 0.86059 0.0
C96 C 0.48775 0.11758 0.81235 0.0
C97 C 0.60594 0.16771 0.84474 0.0
C98 C 0.87175 0.01684 0.40752 0.0
C99 C 0.76863 0.0025 0.3398 0.0
O100 O 0.87821 0.03434 0.38316 0.0
Zn101 Zn 0.84744 0.04491 0.34247 0.0
O102 O 0.8407 1.0011 0.41112 0.0
Zn103 Zn 0.81971 0.01262 0.37337 0.0
O104 O 0.8546 0.98253 0.34178 0.0
O105 O 0.87952 0.02514 0.31277 0.0
O106 O 0.77277 0.99049 0.36612 0.0
O107 O 0.79371 0.0233 0.32819 0.0
O108 O 0.84121 0.0973 0.34106 0.0
O109 O 0.80667 0.07135 0.37566 0.0
C110 C 0.87561 0.99128 0.31975 0.0
C111 C 0.81729 0.10044 0.36153 0.0
C112 C 0.97781 0.44382 0.92645 0.0
C113 C 0.99188 0.40791 0.93082 0.0
C114 C 0.98253 0.47119 0.94819 0.0
C115 C 0.00127 0.46313 0.97492 0.0
C116 C 0.01496 0.42712 0.97929 0.0
C117 C 0.01026 0.39982 0.9576 0.0
C118 C 0.00851 0.49143 0.99834 0.0
C119 C 0.98958 0.52347 0.00109 0.0
C120 C 0.99666 0.5513 0.02494 0.0
C121 C 0.9832 0.58752 0.02113 0.0
C122 C 0.98788 0.61422 0.04336 0.0
C123 C 0.00605 0.60526 0.07006 0.0
H124 H 0.02489 0.51469 0.05616 0.0
C125 C 0.0198 0.56913 0.07385 0.0
C126 C 0.01502 0.54241 0.05168 0.0
H127 H 0.03357 0.56116 0.09428 0.0
H128 H 0.96381 0.45107 0.90595 0.0
H129 H 0.97232 0.49871 0.94341 0.0
H130 H 0.02961 0.42006 0.99956 0.0
H131 H 0.02155 0.37249 0.9617 0.0
H132 H 0.03037 0.48502 0.01405 0.0
H133 H 0.96783 0.53001 0.98532 0.0
H134 H 0.96877 0.59519 0.00091 0.0
H135 H 0.97681 0.64175 0.03974 0.0
C136 C 0.41136 0.50017 0.55491 0.0
C137 C 0.41553 0.52086 0.58119 0.0
C138 C 0.44034 0.49745 0.53444 0.0
C139 C 0.4742 0.51572 0.53961 0.0
C140 C 0.47832 0.53644 0.56587 0.0
C141 C 0.4493 0.53911 0.5864 0.0
C142 C 0.50627 0.51254 0.51891 0.0
C143 C 0.5029 0.50362 0.48987 0.0
C144 C 0.53459 0.49953 0.46886 0.0
C145 C 0.52828 0.48165 0.44157 0.0
C146 C 0.55668 0.47785 0.42067 0.0
C147 C 0.59218 0.49202 0.42652 0.0
H148 H 0.57636 0.52844 0.49506 0.0
C149 C 0.59868 0.50978 0.45386 0.0
C150 C 0.57023 0.51364 0.47476 0.0
H151 H 0.62564 0.5213 0.45896 0.0
H152 H 0.38586 0.48541 0.55034 0.0
H153 H 0.43623 0.48013 0.5151 0.0
H154 H 0.50414 0.55056 0.57058 0.0
H155 H 0.45352 0.55513 0.60649 0.0
H156 H 0.5334 0.51799 0.52824 0.0
H157 H 0.47554 0.49877 0.4807 0.0
H158 H 0.50116 0.4706 0.43629 0.0
H159 H 0.55065 0.4641 0.39981 0.0
C160 C 0.50532 0.91037 0.05004 0.0
C161 C 0.48352 0.91568 0.07561 0.0
C162 C 0.5096 0.93882 0.02914 0.0
C163 C 0.49187 0.97323 0.03325 0.0
C164 C 0.46983 0.97829 0.05868 0.0
C165 C 0.46558 0.94988 0.07956 0.0
C166 C 0.49683 0.00504 0.01244 0.0
C167 C 0.50805 0.00151 0.98393 0.0
C168 C 0.5131 0.03319 0.96295 0.0
C169 C 0.53278 0.02701 0.93643 0.0
C170 C 0.5372 0.05529 0.91546 0.0
C171 C 0.52191 0.09055 0.92043 0.0
H172 H 0.48183 0.07472 0.98765 0.0
C173 C 0.50253 0.09699 0.94706 0.0
C174 C 0.498 0.06866 0.96802 0.0
H175 H 0.4901 0.12374 0.95147 0.0
H176 H 0.51982 0.88448 0.04645 0.0
H177 H 0.52771 0.93389 0.0104 0.0
H178 H 0.45599 0.00449 0.06255 0.0
H179 H 0.44869 0.955 0.09905 0.0
H180 H 0.49059 0.03226 0.02127 0.0
H181 H 0.51396 0.97413 0.97519 0.0
H182 H 0.54464 1.00004 0.93179 0.0
H183 H 0.55222 0.0493 0.89515 0.0
C184 C 0.93667 0.02674 0.42605 0.0
C185 C 0.90063 0.01322 0.43073 0.0
C186 C 0.96433 0.0211 0.44741 0.0
C187 C 0.95638 0.00195 0.47404 0.0
C188 C 0.92024 0.98883 0.47869 0.0
C189 C 0.89271 0.99444 0.45741 0.0
C190 C 0.98474 0.99384 0.49719 0.0
C191 C 0.01753 0.01148 0.49953 0.0
C192 C 0.04502 0.00345 0.52338 0.0
C193 C 0.08212 0.0136 0.51881 0.0
C194 C 0.1086 0.0079 0.54101 0.0
C195 C 0.09851 0.99208 0.56845 0.0
H196 H 0.00654 0.98031 0.55584 0.0
C197 C 0.06145 0.9817 0.57303 0.0
C198 C 0.03495 0.98746 0.55085 0.0
H199 H 0.05264 0.96984 0.59403 0.0
H200 H 0.94375 0.04103 0.40561 0.0
H201 H 0.99191 0.03099 0.44245 0.0
H202 H 0.91324 0.97395 0.49889 0.0
H203 H 0.86527 0.98358 0.46177 0.0
H204 H 0.97777 0.97236 0.51315 0.0
H205 H 0.02501 0.03263 0.48345 0.0
H206 H 0.09067 0.02619 0.498 0.0
H207 H 0.1369 0.01639 0.53678 0.0
C208 C 0.15998 0.687 0.15081 0.0
C209 C 0.12704 0.70189 0.13923 0.0
C210 C 0.19349 0.70614 0.14786 0.0
C211 C 0.19473 0.74071 0.13333 0.0
C212 C 0.1619 0.75532 0.12146 0.0
C213 C 0.12849 0.73601 0.12412 0.0
C214 C 0.22902 0.76349 0.13229 0.0
C215 C 0.26334 0.74889 0.13268 0.0
C216 C 0.29745 0.7719 0.13421 0.0
C217 C 0.33068 0.75778 0.12266 0.0
C218 C 0.36379 0.77758 0.12565 0.0
C219 C 0.36447 0.81166 0.14079 0.0
H220 H 0.27314 0.81774 0.15873 0.0
C221 C 0.33113 0.82599 0.1521 0.0
C222 C 0.29798 0.80639 0.14882 0.0
H223 H 0.33072 0.85209 0.16401 0.0
H224 H 0.15979 0.66085 0.16267 0.0
H225 H 0.21802 0.69441 0.15798 0.0
H226 H 0.16202 0.78201 0.11038 0.0
H227 H 0.10361 0.74839 0.11507 0.0
H228 H 0.22571 0.79335 0.13065 0.0
H229 H 0.26677 0.71903 0.13133 0.0
H230 H 0.33111 0.73114 0.11154 0.0
H231 H 0.38903 0.76562 0.11685 0.0
C232 C 0.31179 0.66742 0.66212 0.0
C233 C 0.30859 0.63792 0.64187 0.0
C234 C 0.29401 0.70108 0.65674 0.0
C235 C 0.27274 0.70616 0.63088 0.0
C236 C 0.27062 0.67727 0.61004 0.0
C237 C 0.28804 0.64326 0.61563 0.0
C238 C 0.25275 0.74149 0.62548 0.0
C239 C 0.23621 0.75993 0.64788 0.0
C240 C 0.21675 0.79589 0.64442 0.0
C241 C 0.18912 0.80503 0.66508 0.0
C242 C 0.17263 0.83997 0.66477 0.0
C243 C 0.18386 0.86698 0.64407 0.0
H244 H 0.24889 0.81645 0.60702 0.0
C245 C 0.21092 0.85762 0.62283 0.0
C246 C 0.22716 0.82233 0.62292 0.0
H247 H 0.22026 0.87783 0.60664 0.0
H248 H 0.32757 0.66438 0.68247 0.0
H249 H 0.29706 0.72319 0.67285 0.0
H250 H 0.25471 0.68069 0.5898 0.0
H251 H 0.28528 0.62115 0.59948 0.0
H252 H 0.25013 0.75136 0.60274 0.0
H253 H 0.23598 0.74756 0.66996 0.0
H254 H 0.1807 0.78524 0.68195 0.0
H255 H 0.15194 0.84617 0.68149 0.0
C256 C 0.65254 0.20787 0.87092 0.0
C257 C 0.64377 0.18319 0.84773 0.0
C258 C 0.68728 0.22509 0.872 0.0
C259 C 0.71383 0.21811 0.84977 0.0
C260 C 0.70527 0.19293 0.827 0.0
C261 C 0.67081 0.17541 0.82612 0.0
C262 C 0.74943 0.23863 0.84817 0.0
C263 C 0.76719 0.25257 0.87202 0.0
C264 C 0.80245 0.27341 0.86894 0.0
C265 C 0.83037 0.26921 0.89039 0.0
C266 C 0.86445 0.2873 0.887 0.0
C267 C 0.87086 0.31061 0.86241 0.0
H268 H 0.7871 0.30221 0.82836 0.0
C269 C 0.84225 0.31601 0.84166 0.0
C270 C 0.80849 0.29754 0.84483 0.0
H271 H 0.84617 0.3339 0.82255 0.0
H272 H 0.63227 0.21455 0.88786 0.0
H273 H 0.69262 0.24492 0.88954 0.0
H274 H 0.72516 0.1872 0.80953 0.0
H275 H 0.66497 0.15669 0.80788 0.0
H276 H 0.76216 0.24131 0.82633 0.0
H277 H 0.75691 0.24693 0.89429 0.0
H278 H 0.82619 0.25111 0.90935 0.0
H279 H 0.88585 0.28276 0.90347 0.0
C280 C 0.70521 0.35847 0.37885 0.0
C281 C 0.68165 0.36861 0.3553 0.0
C282 C 0.72051 0.32281 0.3801 0.0
C283 C 0.71267 0.29677 0.35767 0.0
C284 C 0.68847 0.3067 0.33461 0.0
C285 C 0.67287 0.34204 0.33355 0.0
C286 C 0.73167 0.26038 0.35592 0.0
C287 C 0.74467 0.24159 0.37961 0.0
C288 C 0.76473 0.20598 0.37591 0.0
C289 C 0.75918 0.17691 0.39622 0.0
C290 C 0.77655 0.14258 0.39192 0.0
C291 C 0.80042 0.1371 0.36756 0.0
H292 H 0.79518 0.22304 0.33656 0.0
C293 C 0.80712 0.16683 0.34803 0.0
C294 C 0.78944 0.2008 0.35211 0.0
H295 H 0.82551 0.16372 0.32915 0.0
H296 H 0.71258 0.37833 0.39591 0.0
H297 H 0.73964 0.31634 0.39789 0.0
H298 H 0.68211 0.28722 0.31699 0.0
H299 H 0.65491 0.34888 0.31505 0.0
H300 H 0.73427 0.24807 0.33393 0.0
H301 H 0.73911 0.25141 0.40201 0.0
H302 H 0.74058 0.18042 0.41493 0.0
H303 H 0.77102 0.1203 0.40747 0.0
C304 C 0.76532 0.49969 0.29083 0.0
C305 C 0.76258 0.50827 0.32126 0.0
C306 C 0.79697 0.50933 0.27463 0.0
C307 C 0.82652 0.528 0.28852 0.0
C308 C 0.8243 0.53532 0.31914 0.0
C309 C 0.79264 0.52575 0.33533 0.0
C310 C 0.85987 0.54051 0.27187 0.0
C311 C 0.85933 0.54875 0.2426 0.0
C312 C 0.89138 0.56511 0.22648 0.0
C313 C 0.88452 0.5867 0.20109 0.0
C314 C 0.91358 0.60398 0.18595 0.0
C315 C 0.95031 0.5997 0.19568 0.0
H316 H 0.9348 0.54244 0.25463 0.0
C317 C 0.95739 0.57703 0.22049 0.0
C318 C 0.92824 0.55986 0.23574 0.0
H319 H 0.98541 0.57289 0.2284 0.0
H320 H 0.74285 0.48585 0.27937 0.0
H321 H 0.79812 0.502 0.25131 0.0
H322 H 0.84679 0.5493 0.33049 0.0
H323 H 0.79158 0.53253 0.35879 0.0
H324 H 0.88466 0.54612 0.28476 0.0
H325 H 0.83351 0.54647 0.23037 0.0
H326 H 0.85646 0.59092 0.19328 0.0
H327 H 0.90713 0.62102 0.16679 0.0
C328 C 0.40257 0.42685 0.69972 0.0
C329 C 0.40548 0.46427 0.70806 0.0
C330 C 0.41871 0.39905 0.71709 0.0
C331 C 0.43835 0.40812 0.74316 0.0
C332 C 0.44136 0.44553 0.75139 0.0
C333 C 0.42529 0.47332 0.73399 0.0
C334 C 0.45416 0.37932 0.76315 0.0
C335 C 0.46356 0.34509 0.75387 0.0
C336 C 0.47754 0.31552 0.77402 0.0
C337 C 0.49743 0.28587 0.76169 0.0
C338 C 0.50915 0.25635 0.77948 0.0
C339 C 0.50092 0.25563 0.81006 0.0
H340 H 0.45349 0.33676 0.81503 0.0
C341 C 0.48134 0.28548 0.82253 0.0
C342 C 0.46966 0.31505 0.80473 0.0
H343 H 0.47429 0.28566 0.84597 0.0
H344 H 0.38724 0.41888 0.68003 0.0
H345 H 0.41471 0.37053 0.71041 0.0
H346 H 0.45603 0.4533 0.77146 0.0
H347 H 0.42795 0.50186 0.74115 0.0
H348 H 0.4591 0.38717 0.78613 0.0
H349 H 0.46192 0.33845 0.73034 0.0
H350 H 0.50367 0.28533 0.7381 0.0
H351 H 0.52407 0.23376 0.76909 0.0
C352 C 0.57433 0.90148 0.20052 0.0
C353 C 0.53775 0.91463 0.20173 0.0
C354 C 0.60225 0.91884 0.21682 0.0
C355 C 0.59426 0.95002 0.23441 0.0
C356 C 0.55805 0.96406 0.23479 0.0
C357 C 0.52988 0.94623 0.2189 0.0
C358 C 0.6234 0.96788 0.25265 0.0
C359 C 0.64833 0.94757 0.26773 0.0
C360 C 0.67743 0.96394 0.28683 0.0
C361 C 0.68842 0.94463 0.31241 0.0
C362 C 0.71723 0.95795 0.33009 0.0
C363 C 0.73635 0.99041 0.3221 0.0
H364 H 0.68842 0.01202 0.25915 0.0
C365 C 0.72535 0.00987 0.29648 0.0
C366 C 0.69588 0.99692 0.2791 0.0
H367 H 0.73968 0.03491 0.28976 0.0
H368 H 0.5813 0.87727 0.18741 0.0
H369 H 0.63013 0.90791 0.21559 0.0
H370 H 0.55137 0.98824 0.24803 0.0
H371 H 0.50199 0.95716 0.22004 0.0
H372 H 0.62278 0.99781 0.2553 0.0
H373 H 0.64615 0.9175 0.26741 0.0
H374 H 0.67477 0.91902 0.31868 0.0
H375 H 0.72523 0.94214 0.34955 0.0
C376 C 0.00804 0.24502 0.78782 0.0
C377 C 0.01503 0.24603 0.8186 0.0
C378 C 0.0187 0.21431 0.77083 0.0
C379 C 0.03655 0.18397 0.78433 0.0
C380 C 0.04276 0.18474 0.81515 0.0
C381 C 0.03237 0.21546 0.83206 0.0
C382 C 0.04843 0.1507 0.76735 0.0
C383 C 0.05692 0.15117 0.73814 0.0
C384 C 0.07113 0.118 0.72217 0.0
C385 C 0.09465 0.12286 0.69758 0.0
C386 C 0.10978 0.09222 0.68289 0.0
C387 C 0.10134 0.05601 0.69233 0.0
H388 H 0.04264 0.07682 0.74915 0.0
C389 C 0.07675 0.05116 0.7163 0.0
C390 C 0.06173 0.08176 0.731 0.0
H391 H 0.06928 0.02367 0.72393 0.0
H392 H 0.99452 0.26803 0.7768 0.0
H393 H 0.01246 0.21431 0.74728 0.0
H394 H 0.05614 0.16163 0.82618 0.0
H395 H 0.03798 0.21519 0.85574 0.0
H396 H 0.05277 0.12544 0.78005 0.0
H397 H 0.05615 0.17717 0.72596 0.0
H398 H 0.10201 0.15046 0.6901 0.0
H399 H 0.12842 0.09694 0.66438 0.0
C400 C 0.08561 0.39167 0.80499 0.0
C401 C 0.04968 0.40654 0.80508 0.0
C402 C 0.11389 0.40896 0.78887 0.0
C403 C 0.10685 0.44176 0.77293 0.0
C404 C 0.07131 0.45732 0.77389 0.0
C405 C 0.04281 0.43961 0.78947 0.0
C406 C 0.13623 0.4602 0.75527 0.0
C407 C 0.16069 0.44071 0.73902 0.0
C408 C 0.18969 0.45831 0.72042 0.0
C409 C 0.20077 0.44068 0.69408 0.0
C410 C 0.22926 0.45547 0.67672 0.0
C411 C 0.24791 0.48776 0.68575 0.0
H412 H 0.20031 0.50492 0.74973 0.0
C413 C 0.23677 0.50553 0.7121 0.0
C414 C 0.20774 0.49108 0.7292 0.0
H415 H 0.25073 0.53037 0.71968 0.0
H416 H 0.09172 0.36626 0.81687 0.0
H417 H 0.14128 0.39677 0.78905 0.0
H418 H 0.06536 0.48275 0.76198 0.0
H419 H 0.01544 0.45186 0.78937 0.0
H420 H 0.13604 0.49028 0.75397 0.0
H421 H 0.15813 0.4107 0.73798 0.0
H422 H 0.18742 0.41528 0.68696 0.0
H423 H 0.23739 0.44095 0.65666 0.0
C424 C 0.57835 0.55772 0.28444 0.0
C425 C 0.60943 0.5603 0.30314 0.0
C426 C 0.56604 0.58862 0.26849 0.0
C427 C 0.58488 0.62263 0.27067 0.0
C428 C 0.61589 0.62522 0.28936 0.0
C429 C 0.62779 0.5945 0.30575 0.0
C430 C 0.57423 0.65505 0.25226 0.0
C431 C 0.53893 0.66252 0.24477 0.0
C432 C 0.52889 0.69438 0.22556 0.0
C433 C 0.496 0.71387 0.2311 0.0
C434 C 0.48599 0.74399 0.21321 0.0
C435 C 0.50821 0.75446 0.18892 0.0
H436 H 0.57614 0.68967 0.19595 0.0
C437 C 0.54068 0.73435 0.18295 0.0
C438 C 0.55106 0.70476 0.20121 0.0
H439 H 0.55834 0.74175 0.16437 0.0
H440 H 0.56369 0.5317 0.28192 0.0
H441 H 0.54254 0.58547 0.25375 0.0
H442 H 0.63103 0.65106 0.2912 0.0
H443 H 0.652 0.59727 0.31979 0.0
H444 H 0.59607 0.67404 0.24551 0.0
H445 H 0.51661 0.64588 0.25401 0.0
H446 H 0.47829 0.70611 0.24956 0.0
H447 H 0.46069 0.75884 0.21822 0.0
C448 C 0.45703 0.07116 0.77901 0.0
C449 C 0.45476 0.10311 0.79679 0.0
C450 C 0.42622 0.05894 0.7629 0.0
C451 C 0.39278 0.07885 0.76395 0.0
C452 C 0.39052 0.11062 0.78181 0.0
C453 C 0.42102 0.12238 0.79839 0.0
C454 C 0.36075 0.06869 0.74509 0.0
C455 C 0.35174 0.03343 0.73862 0.0
C456 C 0.31982 0.02439 0.71925 0.0
C457 C 0.29691 0.99421 0.72631 0.0
C458 C 0.26612 0.98595 0.70862 0.0
C459 C 0.25842 0.00711 0.68308 0.0
H460 H 0.33002 0.06828 0.68725 0.0
C461 C 0.28207 0.0366 0.67555 0.0
C462 C 0.31231 0.04534 0.69357 0.0
H463 H 0.27687 0.05336 0.65598 0.0
H464 H 0.48272 0.05583 0.77731 0.0
H465 H 0.42903 0.03474 0.74884 0.0
H466 H 0.36512 0.12655 0.78278 0.0
H467 H 0.41851 0.14728 0.8117 0.0
H468 H 0.34312 0.09105 0.7372 0.0
H469 H 0.36679 0.01072 0.74892 0.0
H470 H 0.3024 0.9775 0.74585 0.0
H471 H 0.2485 0.96289 0.71481 0.0
C472 C 0.96224 0.78911 0.17965 0.0
C473 C 0.98313 0.75889 0.19001 0.0
C474 C 0.95087 0.817 0.1992 0.0
C475 C 0.96028 0.81534 0.22958 0.0
C476 C 0.98112 0.78514 0.23989 0.0
C477 C 0.99264 0.75734 0.22033 0.0
C478 C 0.9472 0.84352 0.25128 0.0
C479 C 0.93934 0.87874 0.24361 0.0
C480 C 0.92479 0.90683 0.26478 0.0
C481 C 0.92948 0.9445 0.25797 0.0
C482 C 0.91435 0.97187 0.27624 0.0
C483 C 0.89374 0.96218 0.30165 0.0
H484 H 0.89944 0.86834 0.29605 0.0
C485 C 0.88929 0.92447 0.30869 0.0
C486 C 0.90458 0.89705 0.29044 0.0
H487 H 0.87336 0.91606 0.32798 0.0
H488 H 0.95419 0.79102 0.15648 0.0
H489 H 0.93388 0.83918 0.19051 0.0
H490 H 0.98846 0.783 0.26321 0.0
H491 H 0.00853 0.73435 0.22909 0.0
H492 H 0.94527 0.83513 0.27444 0.0
H493 H 0.94477 0.88796 0.221 0.0
H494 H 0.94468 0.95284 0.23826 0.0
H495 H 0.91825 1.00064 0.27008 0.0
loop_
_geom_bond_atom_site_label_1
_geom_bond_atom_site_label_2
_geom_bond_distance
_geom_bond_site_symmetry_2
_ccdc_geom_bond_type
C0 O2 1.247 . S
C0 O4 1.258 . S
C1 O8 1.247 . S
C1 O9 1.258 . S
O2 C0 1.247 . S
O2 Zn3 2.028 . S
Zn3 O2 2.028 . S
Zn3 O7 2.035 . S
Zn3 O9 2.035 1_455 S
Zn3 O10 2.028 . S
O4 C0 1.258 . S
O4 Zn5 2.035 1_455 S
Zn5 O4 2.035 1_655 S
Zn5 O6 2.028 . S
Zn5 O8 2.028 . S
Zn5 O11 2.036 . S
O6 Zn5 2.028 . S
O6 C12 1.247 . S
O7 Zn3 2.035 . S
O7 C12 1.258 1_455 S
O8 C1 1.247 . S
O8 Zn5 2.028 . S
O9 C1 1.258 . S
O9 Zn3 2.035 1_655 S
O10 Zn3 2.028 . S
O10 C13 1.247 . S
O11 Zn5 2.036 . S
O11 C13 1.255 1_655 S
C12 O6 1.247 . S
C12 O7 1.258 1_655 S
C13 O10 1.247 . S
C13 O11 1.255 1_455 S
C14 O16 1.247 . S
C14 O18 1.258 . S
C15 O22 1.247 . S
C15 O23 1.258 . S
O16 C14 1.247 . S
O16 Zn17 2.028 . S
Zn17 O16 2.028 . S
Zn17 O21 2.035 . S
Zn17 O23 2.035 . S
Zn17 O24 2.028 . S
O18 C14 1.258 . S
O18 Zn19 2.035 . S
Zn19 O18 2.035 . S
Zn19 O20 2.028 . S
Zn19 O22 2.028 . S
Zn19 O25 2.035 . S
O20 Zn19 2.028 . S
O20 C26 1.247 . S
O21 Zn17 2.035 . S
O21 C26 1.258 . S
O22 C15 1.247 . S
O22 Zn19 2.028 . S
O23 C15 1.258 . S
O23 Zn17 2.035 . S
O24 Zn17 2.028 . S
O24 C27 1.247 . S
O25 Zn19 2.035 . S
O25 C27 1.258 . S
C26 O20 1.247 . S
C26 O21 1.258 . S
C27 O24 1.247 . S
C27 O25 1.258 . S
C28 O30 1.247 . S
C28 O32 1.258 . S
C29 O36 1.247 . S
C29 O37 1.258 . S
O30 C28 1.247 . S
O30 Zn31 2.028 . S
Zn31 O30 2.028 . S
Zn31 O35 2.035 . S
Zn31 O37 2.035 . S
Zn31 O38 2.028 . S
O32 C28 1.258 . S
O32 Zn33 2.035 . S
Zn33 O32 2.035 . S
Zn33 O34 2.028 . S
Zn33 O36 2.028 . S
Zn33 O39 2.035 . S
O34 Zn33 2.028 . S
O34 C40 1.247 . S
O35 Zn31 2.035 . S
O35 C40 1.258 . S
O36 C29 1.247 . S
O36 Zn33 2.028 . S
O37 C29 1.258 . S
O37 Zn31 2.035 . S
O38 Zn31 2.028 . S
O38 C41 1.247 . S
O39 Zn33 2.035 . S
O39 C41 1.258 . S
C40 O34 1.247 . S
C40 O35 1.258 . S
C41 O38 1.247 . S
C41 O39 1.258 . S
C42 O44 1.239 1_565 S
C42 O46 1.258 . S
C43 O50 1.247 1_545 S
C43 O51 1.258 . S
O44 C42 1.239 1_545 S
O44 Zn45 2.031 . S
Zn45 O44 2.031 . S
Zn45 O49 2.035 . S
Zn45 O51 2.035 . S
Zn45 O52 2.028 1_545 S
O46 C42 1.258 . S
O46 Zn47 2.035 . S
Zn47 O46 2.035 . S
Zn47 O48 2.028 1_565 S
Zn47 O50 2.028 . S
Zn47 O53 2.035 . S
O48 Zn47 2.028 1_545 S
O48 C54 1.247 . S
O49 Zn45 2.035 . S
O49 C54 1.258 . S
O50 C43 1.247 1_565 S
O50 Zn47 2.028 . S
O51 C43 1.258 . S
O51 Zn45 2.035 . S
O52 Zn45 2.028 1_565 S
O52 C55 1.247 . S
O53 Zn47 2.035 . S
O53 C55 1.258 . S
C54 O48 1.247 . S
C54 O49 1.258 . S
C55 O52 1.247 . S
C55 O53 1.258 . S
C56 O58 1.247 . S
C56 O60 1.258 . S
C57 O64 1.247 . S
C57 O65 1.258 . S
O58 C56 1.247 . S
O58 Zn59 2.028 . S
Zn59 O58 2.028 . S
Zn59 O63 2.036 . S
Zn59 O65 2.035 1_455 S
Zn59 O66 2.028 . S
O60 C56 1.258 . S
O60 Zn61 2.035 1_455 S
Zn61 O60 2.035 1_655 S
Zn61 O62 2.028 . S
Zn61 O64 2.028 . S
Zn61 O67 2.035 . S
O62 Zn61 2.028 . S
O62 C68 1.247 . S
O63 Zn59 2.036 . S
O63 C68 1.255 1_455 S
O64 C57 1.247 . S
O64 Zn61 2.028 . S
O65 C57 1.258 . S
O65 Zn59 2.035 1_655 S
O66 Zn59 2.028 . S
O66 C69 1.247 . S
O67 Zn61 2.035 . S
O67 C69 1.258 1_655 S
C68 O62 1.247 . S
C68 O63 1.255 1_655 S
C69 O66 1.247 . S
C69 O67 1.258 1_455 S
C70 O72 1.247 . S
C70 O74 1.258 . S
C71 O78 1.247 . S
C71 O79 1.258 . S
O72 C70 1.247 . S
O72 Zn73 2.028 . S
Zn73 O72 2.028 . S
Zn73 O77 2.035 . S
Zn73 O79 2.035 . S
Zn73 O80 2.028 . S
O74 C70 1.258 . S
O74 Zn75 2.035 . S
Zn75 O74 2.035 . S
Zn75 O76 2.028 . S
Zn75 O78 2.028 . S
Zn75 O81 2.035 . S
O76 Zn75 2.028 . S
O76 C82 1.247 . S
O77 Zn73 2.035 . S
O77 C82 1.258 . S
O78 C71 1.247 . S
O78 Zn75 2.028 . S
O79 C71 1.258 . S
O79 Zn73 2.035 . S
O80 Zn73 2.028 . S
O80 C83 1.247 . S
O81 Zn75 2.035 . S
O81 C83 1.258 . S
C82 O76 1.247 . S
C82 O77 1.258 . S
C83 O80 1.247 . S
C83 O81 1.258 . S
C84 O86 1.247 . S
C84 O88 1.258 . S
C85 O92 1.247 . S
C85 O93 1.258 . S
O86 C84 1.247 . S
O86 Zn87 2.028 . S
Zn87 O86 2.028 . S
Zn87 O91 2.035 . S
Zn87 O93 2.035 . S
Zn87 O94 2.028 . S
O88 C84 1.258 . S
O88 Zn89 2.035 . S
Zn89 O88 2.035 . S
Zn89 O90 2.028 . S
Zn89 O92 2.028 . S
Zn89 O95 2.035 . S
O90 Zn89 2.028 . S
O90 C96 1.247 . S
O91 Zn87 2.035 . S
O91 C96 1.258 . S
O92 C85 1.247 . S
O92 Zn89 2.028 . S
O93 C85 1.258 . S
O93 Zn87 2.035 . S
O94 Zn87 2.028 . S
O94 C97 1.247 . S
O95 Zn89 2.035 . S
O95 C97 1.258 . S
C96 O90 1.247 . S
C96 O91 1.258 . S
C97 O94 1.247 . S
C97 O95 1.258 . S
C98 O100 1.247 . S
C98 O102 1.255 1_545 S
C99 O106 1.247 . S
C99 O107 1.258 1_565 S
O100 C98 1.247 . S
O100 Zn101 2.028 . S
Zn101 O100 2.028 . S
Zn101 O105 2.035 1_545 S
Zn101 O107 2.035 . S
Zn101 O108 2.028 . S
O102 C98 1.255 1_565 S
O102 Zn103 2.037 . S
Zn103 O102 2.037 . S
Zn103 O104 2.028 . S
Zn103 O106 2.028 . S
Zn103 O109 2.035 1_565 S
O104 Zn103 2.028 . S
O104 C110 1.247 . S
O105 Zn101 2.035 1_565 S
O105 C110 1.258 . S
O106 C99 1.247 . S
O106 Zn103 2.028 . S
O107 C99 1.258 1_545 S
O107 Zn101 2.035 . S
O108 Zn101 2.028 . S
O108 C111 1.247 . S
O109 Zn103 2.035 1_545 S
O109 C111 1.258 . S
C110 O104 1.247 . S
C110 O105 1.258 . S
C111 O108 1.247 . S
C111 O109 1.258 . S
C112 C113 1.386 . S
C112 C114 1.383 . S
C112 H128 0.951 . S
C113 C112 1.386 . S
C113 C117 1.383 1_655 S
C114 C112 1.383 . S
C114 C115 1.402 . S
C114 H129 0.951 . S
C115 C114 1.402 . S
C115 C116 1.375 1_655 S
C115 C118 1.481 1_656 S
C116 C115 1.375 1_455 S
C116 C117 1.367 . S
C116 H130 0.951 . S
C117 C113 1.383 1_455 S
C117 C116 1.367 . S
C117 H131 0.950 . S
C118 C115 1.481 1_454 S
C118 C119 1.297 1_455 S
C118 H132 0.950 . S
C119 C118 1.297 1_655 S
C119 C120 1.479 . S
C119 H133 0.950 . S
C120 C119 1.479 . S
C120 C121 1.375 . S
C120 C126 1.404 1_655 S
C121 C120 1.375 . S
C121 C122 1.369 . S
C121 H134 0.950 . S
C122 C121 1.369 . S
C122 C123 1.392 1_655 S
C122 H135 0.951 . S
C123 C122 1.392 1_455 S
C123 C125 1.384 . S
H124 C126 0.949 . S
C125 C123 1.384 . S
C125 C126 1.385 . S
C125 H127 0.950 . S
C126 C120 1.404 1_455 S
C126 H124 0.949 . S
C126 C125 1.385 . S
H127 C125 0.950 . S
H128 C112 0.951 . S
H129 C114 0.951 . S
H130 C116 0.951 . S
H131 C117 0.950 . S
H132 C118 0.950 . S
H133 C119 0.950 . S
H134 C121 0.950 . S
H135 C122 0.951 . S
C136 C137 1.386 . S
C136 C138 1.383 . S
C136 H152 0.951 . S
C137 C136 1.386 . S
C137 C141 1.383 . S
C138 C136 1.383 . S
C138 C139 1.402 . S
C138 H153 0.951 . S
C139 C138 1.402 . S
C139 C140 1.375 . S
C139 C142 1.481 . S
C140 C139 1.375 . S
C140 C141 1.367 . S
C140 H154 0.951 . S
C141 C137 1.383 . S
C141 C140 1.367 . S
C141 H155 0.950 . S
C142 C139 1.481 . S
C142 C143 1.297 . S
C142 H156 0.950 . S
C143 C142 1.297 . S
C143 C144 1.479 . S
C143 H157 0.950 . S
C144 C143 1.479 . S
C144 C145 1.375 . S
C144 C150 1.404 . S
C145 C144 1.375 . S
C145 C146 1.369 . S
C145 H158 0.950 . S
C146 C145 1.369 . S
C146 C147 1.392 . S
C146 H159 0.951 . S
C147 C146 1.392 . S
C147 C149 1.384 . S
H148 C150 0.949 . S
C149 C147 1.384 . S
C149 C150 1.385 . S
C149 H151 0.950 . S
C150 C144 1.404 . S
C150 H148 0.949 . S
C150 C149 1.385 . S
H151 C149 0.950 . S
H152 C136 0.951 . S
H153 C138 0.951 . S
H154 C140 0.951 . S
H155 C141 0.950 . S
H156 C142 0.950 . S
H157 C143 0.950 . S
H158 C145 0.950 . S
H159 C146 0.951 . S
C160 C161 1.386 . S
C160 C162 1.383 . S
C160 H176 0.951 . S
C161 C160 1.386 . S
C161 C165 1.383 . S
C162 C160 1.383 . S
C162 C163 1.402 . S
C162 H177 0.951 . S
C163 C162 1.402 . S
C163 C164 1.375 . S
C163 C166 1.481 1_565 S
C164 C163 1.375 . S
C164 C165 1.367 . S
C164 H178 0.951 . S
C165 C161 1.383 . S
C165 C164 1.367 . S
C165 H179 0.950 . S
C166 C163 1.481 1_545 S
C166 C167 1.297 1_554 S
C166 H180 0.950 . S
C167 C166 1.297 1_556 S
C167 C168 1.479 . S
C167 H181 0.950 1_545 S
C168 C167 1.479 . S
C168 C169 1.375 . S
C168 C174 1.404 . S
C169 C168 1.375 . S
C169 C170 1.369 . S
C169 H182 0.950 . S
C170 C169 1.369 . S
C170 C171 1.392 . S
C170 H183 0.951 . S
C171 C170 1.392 . S
C171 C173 1.384 . S
H172 C174 0.949 . S
C173 C171 1.384 . S
C173 C174 1.385 . S
C173 H175 0.950 . S
C174 C168 1.404 . S
C174 H172 0.949 . S
C174 C173 1.385 . S
H175 C173 0.950 . S
H176 C160 0.951 . S
H177 C162 0.951 . S
H178 C164 0.951 . S
H179 C165 0.950 . S
H180 C166 0.950 . S
H181 C167 0.950 1_565 S
H182 C169 0.950 . S
H183 C170 0.951 . S
C184 C185 1.386 . S
C184 C186 1.383 . S
C184 H200 0.951 . S
C185 C184 1.386 . S
C185 C189 1.383 1_545 S
C186 C184 1.383 . S
C186 C187 1.402 . S
C186 H201 0.951 . S
C187 C186 1.402 . S
C187 C188 1.375 1_545 S
C187 C190 1.481 1_545 S
C188 C187 1.375 1_565 S
C188 C189 1.367 . S
C188 H202 0.951 . S
C189 C185 1.383 1_565 S
C189 C188 1.367 . S
C189 H203 0.950 . S
C190 C187 1.481 1_565 S
C190 C191 1.297 1_665 S
C190 H204 0.950 . S
C191 C190 1.297 1_445 S
C191 C192 1.479 . S
C191 H205 0.950 . S
C192 C191 1.479 . S
C192 C193 1.375 . S
C192 C198 1.404 1_545 S
C193 C192 1.375 . S
C193 C194 1.369 . S
C193 H206 0.950 . S
C194 C193 1.369 . S
C194 C195 1.392 1_545 S
C194 H207 0.951 . S
C195 C194 1.392 1_565 S
C195 C197 1.384 . S
H196 C198 0.947 1_655 S
C197 C195 1.384 . S
C197 C198 1.385 . S
C197 H199 0.950 . S
C198 C192 1.404 1_565 S
C198 H196 0.947 1_455 S
C198 C197 1.385 . S
H199 C197 0.950 . S
H200 C184 0.951 . S
H201 C186 0.951 . S
H202 C188 0.951 . S
H203 C189 0.950 . S
H204 C190 0.950 . S
H205 C191 0.950 . S
H206 C193 0.950 . S
H207 C194 0.951 . S
C208 C209 1.386 . S
C208 C210 1.383 . S
C208 H224 0.951 . S
C209 C208 1.386 . S
C209 C213 1.383 . S
C210 C208 1.383 . S
C210 C211 1.402 . S
C210 H225 0.951 . S
C211 C210 1.402 . S
C211 C212 1.375 . S
C211 C214 1.481 . S
C212 C211 1.375 . S
C212 C213 1.367 . S
C212 H226 0.951 . S
C213 C209 1.383 . S
C213 C212 1.367 . S
C213 H227 0.950 . S
C214 C211 1.481 . S
C214 C215 1.297 . S
C214 H228 0.950 . S
C215 C214 1.297 . S
C215 C216 1.479 . S
C215 H229 0.950 . S
C216 C215 1.479 . S
C216 C217 1.375 . S
C216 C222 1.404 . S
C217 C216 1.375 . S
C217 C218 1.369 . S
C217 H230 0.950 . S
C218 C217 1.369 . S
C218 C219 1.392 . S
C218 H231 0.951 . S
C219 C218 1.392 . S
C219 C221 1.384 . S
H220 C222 0.949 . S
C221 C219 1.384 . S
C221 C222 1.385 . S
C221 H223 0.950 . S
C222 C216 1.404 . S
C222 H220 0.949 . S
C222 C221 1.385 . S
H223 C221 0.950 . S
H224 C208 0.951 . S
H225 C210 0.951 . S
H226 C212 0.951 . S
H227 C213 0.950 . S
H228 C214 0.950 . S
H229 C215 0.950 . S
H230 C217 0.950 . S
H231 C218 0.951 . S
C232 C233 1.386 . S
C232 C234 1.383 . S
C232 H248 0.951 . S
C233 C232 1.386 . S
C233 C237 1.383 . S
C234 C232 1.383 . S
C234 C235 1.402 . S
C234 H249 0.951 . S
C235 C234 1.402 . S
C235 C236 1.375 . S
C235 C238 1.481 . S
C236 C235 1.375 . S
C236 C237 1.367 . S
C236 H250 0.951 . S
C237 C233 1.383 . S
C237 C236 1.367 . S
C237 H251 0.950 . S
C238 C235 1.481 . S
C238 C239 1.297 . S
C238 H252 0.950 . S
C239 C238 1.297 . S
C239 C240 1.479 . S
C239 H253 0.950 . S
C240 C239 1.479 . S
C240 C241 1.375 . S
C240 C246 1.404 . S
C241 C240 1.375 . S
C241 C242 1.369 . S
C241 H254 0.950 . S
C242 C241 1.369 . S
C242 C243 1.392 . S
C242 H255 0.951 . S
C243 C242 1.392 . S
C243 C245 1.384 . S
H244 C246 0.949 . S
C245 C243 1.384 . S
C245 C246 1.385 . S
C245 H247 0.950 . S
C246 C240 1.404 . S
C246 H244 0.949 . S
C246 C245 1.385 . S
H247 C245 0.950 . S
H248 C232 0.951 . S
H249 C234 0.951 . S
H250 C236 0.951 . S
H251 C237 0.950 . S
H252 C238 0.950 . S
H253 C239 0.950 . S
H254 C241 0.950 . S
H255 C242 0.951 . S
C256 C257 1.386 . S
C256 C258 1.383 . S
C256 H272 0.951 . S
C257 C256 1.386 . S
C257 C261 1.383 . S
C258 C256 1.383 . S
C258 C259 1.402 . S
C258 H273 0.951 . S
C259 C258 1.402 . S
C259 C260 1.375 . S
C259 C262 1.481 . S
C260 C259 1.375 . S
C260 C261 1.367 . S
C260 H274 0.951 . S
C261 C257 1.383 . S
C261 C260 1.367 . S
C261 H275 0.950 . S
C262 C259 1.481 . S
C262 C263 1.297 . S
C262 H276 0.950 . S
C263 C262 1.297 . S
C263 C264 1.479 . S
C263 H277 0.950 . S
C264 C263 1.479 . S
C264 C265 1.375 . S
C264 C270 1.404 . S
C265 C264 1.375 . S
C265 C266 1.369 . S
C265 H278 0.950 . S
C266 C265 1.369 . S
C266 C267 1.392 . S
C266 H279 0.951 . S
C267 C266 1.392 . S
C267 C269 1.384 . S
H268 C270 0.949 . S
C269 C267 1.384 . S
C269 C270 1.385 . S
C269 H271 0.950 . S
C270 C264 1.404 . S
C270 H268 0.949 . S
C270 C269 1.385 . S
H271 C269 0.950 . S
H272 C256 0.951 . S
H273 C258 0.951 . S
H274 C260 0.951 . S
H275 C261 0.950 . S
H276 C262 0.950 . S
H277 C263 0.950 . S
H278 C265 0.950 . S
H279 C266 0.951 . S
C280 C281 1.386 . S
C280 C282 1.383 . S
C280 H296 0.951 . S
C281 C280 1.386 . S
C281 C285 1.383 . S
C282 C280 1.383 . S
C282 C283 1.402 . S
C282 H297 0.951 . S
C283 C282 1.402 . S
C283 C284 1.375 . S
C283 C286 1.481 . S
C284 C283 1.375 . S
C284 C285 1.367 . S
C284 H298 0.951 . S
C285 C281 1.383 . S
C285 C284 1.367 . S
C285 H299 0.950 . S
C286 C283 1.481 . S
C286 C287 1.297 . S
C286 H300 0.950 . S
C287 C286 1.297 . S
C287 C288 1.479 . S
C287 H301 0.950 . S
C288 C287 1.479 . S
C288 C289 1.375 . S
C288 C294 1.404 . S
C289 C288 1.375 . S
C289 C290 1.369 . S
C289 H302 0.950 . S
C290 C289 1.369 . S
C290 C291 1.392 . S
C290 H303 0.951 . S
C291 C290 1.392 . S
C291 C293 1.384 . S
H292 C294 0.949 . S
C293 C291 1.384 . S
C293 C294 1.385 . S
C293 H295 0.950 . S
C294 C288 1.404 . S
C294 H292 0.949 . S
C294 C293 1.385 . S
H295 C293 0.950 . S
H296 C280 0.951 . S
H297 C282 0.951 . S
H298 C284 0.951 . S
H299 C285 0.950 . S
H300 C286 0.950 . S
H301 C287 0.950 . S
H302 C289 0.950 . S
H303 C290 0.951 . S
C304 C305 1.386 . S
C304 C306 1.383 . S
C304 H320 0.951 . S
C305 C304 1.386 . S
C305 C309 1.383 . S
C306 C304 1.383 . S
C306 C307 1.402 . S
C306 H321 0.951 . S
C307 C306 1.402 . S
C307 C308 1.375 . S
C307 C310 1.481 . S
C308 C307 1.375 . S
C308 C309 1.367 . S
C308 H322 0.951 . S
C309 C305 1.383 . S
C309 C308 1.367 . S
C309 H323 0.950 . S
C310 C307 1.481 . S
C310 C311 1.297 . S
C310 H324 0.950 . S
C311 C310 1.297 . S
C311 C312 1.479 . S
C311 H325 0.950 . S
C312 C311 1.479 . S
C312 C313 1.375 . S
C312 C318 1.404 . S
C313 C312 1.375 . S
C313 C314 1.369 . S
C313 H326 0.950 . S
C314 C313 1.369 . S
C314 C315 1.392 . S
C314 H327 0.951 . S
C315 C314 1.392 . S
C315 C317 1.384 . S
H316 C318 0.949 . S
C317 C315 1.384 . S
C317 C318 1.385 . S
C317 H319 0.950 . S
C318 C312 1.404 . S
C318 H316 0.949 . S
C318 C317 1.385 . S
H319 C317 0.950 . S
H320 C304 0.951 . S
H321 C306 0.951 . S
H322 C308 0.951 . S
H323 C309 0.950 . S
H324 C310 0.950 . S
H325 C311 0.950 . S
H326 C313 0.950 . S
H327 C314 0.951 . S
C328 C329 1.386 . S
C328 C330 1.383 . S
C328 H344 0.951 . S
C329 C328 1.386 . S
C329 C333 1.383 . S
C330 C328 1.383 . S
C330 C331 1.402 . S
C330 H345 0.951 . S
C331 C330 1.402 . S
C331 C332 1.375 . S
C331 C334 1.481 . S
C332 C331 1.375 . S
C332 C333 1.367 . S
C332 H346 0.951 . S
C333 C329 1.383 . S
C333 C332 1.367 . S
C333 H347 0.950 . S
C334 C331 1.481 . S
C334 C335 1.297 . S
C334 H348 0.950 . S
C335 C334 1.297 . S
C335 C336 1.479 . S
C335 H349 0.950 . S
C336 C335 1.479 . S
C336 C337 1.375 . S
C336 C342 1.404 . S
C337 C336 1.375 . S
C337 C338 1.369 . S
C337 H350 0.950 . S
C338 C337 1.369 . S
C338 C339 1.392 . S
C338 H351 0.951 . S
C339 C338 1.392 . S
C339 C341 1.384 . S
H340 C342 0.949 . S
C341 C339 1.384 . S
C341 C342 1.385 . S
C341 H343 0.950 . S
C342 C336 1.404 . S
C342 H340 0.949 . S
C342 C341 1.385 . S
H343 C341 0.950 . S
H344 C328 0.951 . S
H345 C330 0.951 . S
H346 C332 0.951 . S
H347 C333 0.950 . S
H348 C334 0.950 . S
H349 C335 0.950 . S
H350 C337 0.950 . S
H351 C338 0.951 . S
C352 C353 1.386 . S
C352 C354 1.383 . S
C352 H368 0.951 . S
C353 C352 1.386 . S
C353 C357 1.383 . S
C354 C352 1.383 . S
C354 C355 1.402 . S
C354 H369 0.951 . S
C355 C354 1.402 . S
C355 C356 1.375 . S
C355 C358 1.481 . S
C356 C355 1.375 . S
C356 C357 1.367 . S
C356 H370 0.951 . S
C357 C353 1.383 . S
C357 C356 1.367 . S
C357 H371 0.950 . S
C358 C355 1.481 . S
C358 C359 1.297 . S
C358 H372 0.950 . S
C359 C358 1.297 . S
C359 C360 1.479 . S
C359 H373 0.950 . S
C360 C359 1.479 . S
C360 C361 1.375 . S
C360 C366 1.404 . S
C361 C360 1.375 . S
C361 C362 1.369 . S
C361 H374 0.950 . S
C362 C361 1.369 . S
C362 C363 1.392 . S
C362 H375 0.951 . S
C363 C362 1.392 . S
C363 C365 1.383 1_565 S
H364 C366 0.949 . S
C365 C363 1.383 1_545 S
C365 C366 1.384 1_545 S
C365 H367 0.952 . S
C366 C360 1.404 . S
C366 H364 0.949 . S
C366 C365 1.384 1_565 S
H367 C365 0.952 . S
H368 C352 0.951 . S
H369 C354 0.951 . S
H370 C356 0.951 . S
H371 C357 0.950 . S
H372 C358 0.950 . S
H373 C359 0.950 . S
H374 C361 0.950 . S
H375 C362 0.951 . S
C376 C377 1.386 . S
C376 C378 1.383 . S
C376 H392 0.951 . S
C377 C376 1.386 . S
C377 C381 1.383 . S
C378 C376 1.383 . S
C378 C379 1.402 . S
C378 H393 0.951 . S
C379 C378 1.402 . S
C379 C380 1.375 . S
C379 C382 1.481 . S
C380 C379 1.375 . S
C380 C381 1.367 . S
C380 H394 0.951 . S
C381 C377 1.383 . S
C381 C380 1.367 . S
C381 H395 0.950 . S
C382 C379 1.481 . S
C382 C383 1.297 . S
C382 H396 0.950 . S
C383 C382 1.297 . S
C383 C384 1.479 . S
C383 H397 0.950 . S
C384 C383 1.479 . S
C384 C385 1.375 . S
C384 C390 1.404 . S
C385 C384 1.375 . S
C385 C386 1.369 . S
C385 H398 0.950 . S
C386 C385 1.369 . S
C386 C387 1.392 . S
C386 H399 0.951 . S
C387 C386 1.392 . S
C387 C389 1.384 . S
H388 C390 0.949 . S
C389 C387 1.384 . S
C389 C390 1.385 . S
C389 H391 0.950 . S
C390 C384 1.404 . S
C390 H388 0.949 . S
C390 C389 1.385 . S
H391 C389 0.950 . S
H392 C376 0.951 . S
H393 C378 0.951 . S
H394 C380 0.951 . S
H395 C381 0.950 . S
H396 C382 0.950 . S
H397 C383 0.950 . S
H398 C385 0.950 . S
H399 C386 0.951 . S
C400 C401 1.386 . S
C400 C402 1.383 . S
C400 H416 0.951 . S
C401 C400 1.386 . S
C401 C405 1.383 . S
C402 C400 1.383 . S
C402 C403 1.402 . S
C402 H417 0.951 . S
C403 C402 1.402 . S
C403 C404 1.375 . S
C403 C406 1.481 . S
C404 C403 1.375 . S
C404 C405 1.367 . S
C404 H418 0.951 . S
C405 C401 1.383 . S
C405 C404 1.367 . S
C405 H419 0.950 . S
C406 C403 1.481 . S
C406 C407 1.297 . S
C406 H420 0.950 . S
C407 C406 1.297 . S
C407 C408 1.479 . S
C407 H421 0.950 . S
C408 C407 1.479 . S
C408 C409 1.375 . S
C408 C414 1.404 . S
C409 C408 1.375 . S
C409 C410 1.369 . S
C409 H422 0.950 . S
C410 C409 1.369 . S
C410 C411 1.392 . S
C410 H423 0.951 . S
C411 C410 1.392 . S
C411 C413 1.384 . S
H412 C414 0.949 . S
C413 C411 1.384 . S
C413 C414 1.385 . S
C413 H415 0.950 . S
C414 C408 1.404 . S
C414 H412 0.949 . S
C414 C413 1.385 . S
H415 C413 0.950 . S
H416 C400 0.951 . S
H417 C402 0.951 . S
H418 C404 0.951 . S
H419 C405 0.950 . S
H420 C406 0.950 . S
H421 C407 0.950 . S
H422 C409 0.950 . S
H423 C410 0.951 . S
C424 C425 1.386 . S
C424 C426 1.383 . S
C424 H440 0.951 . S
C425 C424 1.386 . S
C425 C429 1.383 . S
C426 C424 1.383 . S
C426 C427 1.402 . S
C426 H441 0.951 . S
C427 C426 1.402 . S
C427 C428 1.375 . S
C427 C430 1.481 . S
C428 C427 1.375 . S
C428 C429 1.367 . S
C428 H442 0.951 . S
C429 C425 1.383 . S
C429 C428 1.367 . S
C429 H443 0.950 . S
C430 C427 1.481 . S
C430 C431 1.297 . S
C430 H444 0.950 . S
C431 C430 1.297 . S
C431 C432 1.479 . S
C431 H445 0.950 . S
C432 C431 1.479 . S
C432 C433 1.375 . S
C432 C438 1.404 . S
C433 C432 1.375 . S
C433 C434 1.369 . S
C433 H446 0.950 . S
C434 C433 1.369 . S
C434 C435 1.392 . S
C434 H447 0.951 . S
C435 C434 1.392 . S
C435 C437 1.384 . S
H436 C438 0.949 . S
C437 C435 1.384 . S
C437 C438 1.385 . S
C437 H439 0.950 . S
C438 C432 1.404 . S
C438 H436 0.949 . S
C438 C437 1.385 . S
H439 C437 0.950 . S
H440 C424 0.951 . S
H441 C426 0.951 . S
H442 C428 0.951 . S
H443 C429 0.950 . S
H444 C430 0.950 . S
H445 C431 0.950 . S
H446 C433 0.950 . S
H447 C434 0.951 . S
C448 C449 1.386 . S
C448 C450 1.383 . S
C448 H464 0.951 . S
C449 C448 1.386 . S
C449 C453 1.383 . S
C450 C448 1.383 . S
C450 C451 1.402 . S
C450 H465 0.951 . S
C451 C450 1.402 . S
C451 C452 1.375 . S
C451 C454 1.481 . S
C452 C451 1.375 . S
C452 C453 1.367 . S
C452 H466 0.951 . S
C453 C449 1.383 . S
C453 C452 1.367 . S
C453 H467 0.950 . S
C454 C451 1.481 . S
C454 C455 1.297 . S
C454 H468 0.950 . S
C455 C454 1.297 . S
C455 C456 1.479 . S
C455 H469 0.950 . S
C456 C455 1.479 . S
C456 C457 1.375 . S
C456 C462 1.404 . S
C457 C456 1.375 . S
C457 C458 1.369 1_545 S
C457 H470 0.950 1_545 S
C458 C457 1.369 1_565 S
C458 C459 1.392 1_565 S
C458 H471 0.951 . S
C459 C458 1.392 1_545 S
C459 C461 1.384 . S
H460 C462 0.949 . S
C461 C459 1.384 . S
C461 C462 1.385 . S
C461 H463 0.950 . S
C462 C456 1.404 . S
C462 H460 0.949 . S
C462 C461 1.385 . S
H463 C461 0.950 . S
H464 C448 0.951 . S
H465 C450 0.951 . S
H466 C452 0.951 . S
H467 C453 0.950 . S
H468 C454 0.950 . S
H469 C455 0.950 . S
H470 C457 0.950 1_565 S
H471 C458 0.951 . S
C472 C473 1.386 . S
C472 C474 1.383 . S
C472 H488 0.951 . S
C473 C472 1.386 . S
C473 C477 1.383 . S
C474 C472 1.383 . S
C474 C475 1.402 . S
C474 H489 0.951 . S
C475 C474 1.402 . S
C475 C476 1.375 . S
C475 C478 1.481 . S
C476 C475 1.375 . S
C476 C477 1.367 . S
C476 H490 0.951 . S
C477 C473 1.383 . S
C477 C476 1.367 . S
C477 H491 0.950 . S
C478 C475 1.481 . S
C478 C479 1.297 . S
C478 H492 0.950 . S
C479 C478 1.297 . S
C479 C480 1.479 . S
C479 H493 0.950 . S
C480 C479 1.479 . S
C480 C481 1.375 . S
C480 C486 1.404 . S
C481 C480 1.375 . S
C481 C482 1.369 . S
C481 H494 0.950 . S
C482 C481 1.369 . S
C482 C483 1.392 . S
C482 H495 0.951 . S
C483 C482 1.392 . S
C483 C485 1.384 . S
H484 C486 0.949 . S
C485 C483 1.384 . S
C485 C486 1.385 . S
C485 H487 0.950 . S
C486 C480 1.404 . S
C486 H484 0.949 . S
C486 C485 1.385 . S
H487 C485 0.950 . S
H488 C472 0.951 . S
H489 C474 0.951 . S
H490 C476 0.951 . S
H491 C477 0.950 . S
H492 C478 0.950 . S
H493 C479 0.950 . S
H494 C481 0.950 . S
H495 C482 0.951 . S
C113 C68 1.769 . S
C123 C13 1.749 . S
C137 C27 1.787 . S
C147 C71 1.732 . S
C161 C29 1.781 . S
C171 C84 1.736 . S
C185 C98 1.772 . S
C195 C42 1.743 . S
C209 C0 2.204 . S
C219 C40 2.211 . S
C233 C14 2.213 . S
C243 C55 2.195 . S
C257 C97 2.190 . S
C267 C57 2.191 . S
C281 C82 2.192 . S
C291 C111 2.185 . S
C305 C70 1.351 . S
C315 C1 1.360 . S
C329 C15 1.316 . S
C339 C85 1.369 . S
C353 C41 1.333 . S
C363 C99 1.360 . S
C377 C69 1.348 . S
C387 C54 1.366 . S
C401 C56 1.324 . S
C411 C26 1.356 . S
C425 C83 1.357 . S
C435 C28 1.353 . S
C449 C96 1.358 . S
C459 C43 1.351 . S
C473 C12 1.351 . S
C483 C110 1.339 . S
