# Generated by pormake.
# Topology umr, (4)-cn, num edge types: 1
# Building blocks:
#     Node 0, Type 0, BuildingBlock: CEKHIL_clean_sbu_0, # of connection points: 4
#     Node 1, Type 0, BuildingBlock: CEKHIL_clean_sbu_0, # of connection points: 4
#     Node 2, Type 0, BuildingBlock: CEKHIL_clean_sbu_0, # of connection points: 4
#     Node 3, Type 0, BuildingBlock: CEKHIL_clean_sbu_0, # of connection points: 4
#     Node 4, Type 0, BuildingBlock: CEKHIL_clean_sbu_0, # of connection points: 4
#     Node 5, Type 0, BuildingBlock: CEKHIL_clean_sbu_0, # of connection points: 4
#     Node 6, Type 0, BuildingBlock: CEKHIL_clean_sbu_0, # of connection points: 4
#     Node 7, Type 0, BuildingBlock: CEKHIL_clean_sbu_0, # of connection points: 4
#     Node 8, Type 0, BuildingBlock: CEKHIL_clean_sbu_0, # of connection points: 4
#     Node 9, Type 0, BuildingBlock: CEKHIL_clean_sbu_0, # of connection points: 4
#     Node 10, Type 0, BuildingBlock: CEKHIL_clean_sbu_0, # of connection points: 4
#     Node 11, Type 0, BuildingBlock: CEKHIL_clean_sbu_0, # of connection points: 4
#     Node 12, Type 0, BuildingBlock: CEKHIL_clean_sbu_0, # of connection points: 4
#     Node 13, Type 0, BuildingBlock: CEKHIL_clean_sbu_0, # of connection points: 4
#     Node 14, Type 0, BuildingBlock: CEKHIL_clean_sbu_0, # of connection points: 4
#     Node 15, Type 0, BuildingBlock: CEKHIL_clean_sbu_0, # of connection points: 4
#     Node 16, Type 0, BuildingBlock: CEKHIL_clean_sbu_0, # of connection points: 4
#     Node 17, Type 0, BuildingBlock: CEKHIL_clean_sbu_0, # of connection points: 4
#     Node 18, Type 0, BuildingBlock: CEKHIL_clean_sbu_0, # of connection points: 4
#     Node 19, Type 0, BuildingBlock: CEKHIL_clean_sbu_0, # of connection points: 4
#     Node 20, Type 0, BuildingBlock: CEKHIL_clean_sbu_0, # of connection points: 4
#     Node 21, Type 0, BuildingBlock: CEKHIL_clean_sbu_0, # of connection points: 4
#     Node 22, Type 0, BuildingBlock: CEKHIL_clean_sbu_0, # of connection points: 4
#     Node 23, Type 0, BuildingBlock: CEKHIL_clean_sbu_0, # of connection points: 4
#     Node 24, Type 0, BuildingBlock: CEKHIL_clean_sbu_0, # of connection points: 4
#     Node 25, Type 0, BuildingBlock: CEKHIL_clean_sbu_0, # of connection points: 4
#     Node 26, Type 0, BuildingBlock: CEKHIL_clean_sbu_0, # of connection points: 4
#     Node 27, Type 0, BuildingBlock: CEKHIL_clean_sbu_0, # of connection points: 4
#     Node 28, Type 0, BuildingBlock: CEKHIL_clean_sbu_0, # of connection points: 4
#     Node 29, Type 0, BuildingBlock: CEKHIL_clean_sbu_0, # of connection points: 4
#     Node 30, Type 0, BuildingBlock: CEKHIL_clean_sbu_0, # of connection points: 4
#     Node 31, Type 0, BuildingBlock: CEKHIL_clean_sbu_0, # of connection points: 4
#     Edge 32, Type (0, 0), BuildingBlock: ZUJKAS_clean_linker_0, # of connection points: 2
#     Edge 33, Type (0, 0), BuildingBlock: ZUJKAS_clean_linker_0, # of connection points: 2
#     Edge 34, Type (0, 0), BuildingBlock: ZUJKAS_clean_linker_0, # of connection points: 2
#     Edge 35, Type (0, 0), BuildingBlock: ZUJKAS_clean_linker_0, # of connection points: 2
#     Edge 36, Type (0, 0), BuildingBlock: ZUJKAS_clean_linker_0, # of connection points: 2
#     Edge 37, Type (0, 0), BuildingBlock: ZUJKAS_clean_linker_0, # of connection points: 2
#     Edge 38, Type (0, 0), BuildingBlock: ZUJKAS_clean_linker_0, # of connection points: 2
#     Edge 39, Type (0, 0), BuildingBlock: ZUJKAS_clean_linker_0, # of connection points: 2
#     Edge 40, Type (0, 0), BuildingBlock: ZUJKAS_clean_linker_0, # of connection points: 2
#     Edge 41, Type (0, 0), BuildingBlock: ZUJKAS_clean_linker_0, # of connection points: 2
#     Edge 42, Type (0, 0), BuildingBlock: ZUJKAS_clean_linker_0, # of connection points: 2
#     Edge 43, Type (0, 0), BuildingBlock: ZUJKAS_clean_linker_0, # of connection points: 2
#     Edge 44, Type (0, 0), BuildingBlock: ZUJKAS_clean_linker_0, # of connection points: 2
#     Edge 45, Type (0, 0), BuildingBlock: ZUJKAS_clean_linker_0, # of connection points: 2
#     Edge 46, Type (0, 0), BuildingBlock: ZUJKAS_clean_linker_0, # of connection points: 2
#     Edge 47, Type (0, 0), BuildingBlock: ZUJKAS_clean_linker_0, # of connection points: 2
#     Edge 48, Type (0, 0), BuildingBlock: ZUJKAS_clean_linker_0, # of connection points: 2
#     Edge 49, Type (0, 0), BuildingBlock: ZUJKAS_clean_linker_0, # of connection points: 2
#     Edge 50, Type (0, 0), BuildingBlock: ZUJKAS_clean_linker_0, # of connection points: 2
#     Edge 51, Type (0, 0), BuildingBlock: ZUJKAS_clean_linker_0, # of connection points: 2
#     Edge 52, Type (0, 0), BuildingBlock: ZUJKAS_clean_linker_0, # of connection points: 2
#     Edge 53, Type (0, 0), BuildingBlock: ZUJKAS_clean_linker_0, # of connection points: 2
#     Edge 54, Type (0, 0), BuildingBlock: ZUJKAS_clean_linker_0, # of connection points: 2
#     Edge 55, Type (0, 0), BuildingBlock: ZUJKAS_clean_linker_0, # of connection points: 2
#     Edge 56, Type (0, 0), BuildingBlock: ZUJKAS_clean_linker_0, # of connection points: 2
#     Edge 57, Type (0, 0), BuildingBlock: ZUJKAS_clean_linker_0, # of connection points: 2
#     Edge 58, Type (0, 0), BuildingBlock: ZUJKAS_clean_linker_0, # of connection points: 2
#     Edge 59, Type (0, 0), BuildingBlock: ZUJKAS_clean_linker_0, # of connection points: 2
#     Edge 60, Type (0, 0), BuildingBlock: ZUJKAS_clean_linker_0, # of connection points: 2
#     Edge 61, Type (0, 0), BuildingBlock: ZUJKAS_clean_linker_0, # of connection points: 2
#     Edge 62, Type (0, 0), BuildingBlock: ZUJKAS_clean_linker_0, # of connection points: 2
#     Edge 63, Type (0, 0), BuildingBlock: ZUJKAS_clean_linker_0, # of connection points: 2
#     Edge 64, Type (0, 0), BuildingBlock: ZUJKAS_clean_linker_0, # of connection points: 2
#     Edge 65, Type (0, 0), BuildingBlock: ZUJKAS_clean_linker_0, # of connection points: 2
#     Edge 66, Type (0, 0), BuildingBlock: ZUJKAS_clean_linker_0, # of connection points: 2
#     Edge 67, Type (0, 0), BuildingBlock: ZUJKAS_clean_linker_0, # of connection points: 2
#     Edge 68, Type (0, 0), BuildingBlock: ZUJKAS_clean_linker_0, # of connection points: 2
#     Edge 69, Type (0, 0), BuildingBlock: ZUJKAS_clean_linker_0, # of connection points: 2
#     Edge 70, Type (0, 0), BuildingBlock: ZUJKAS_clean_linker_0, # of connection points: 2
#     Edge 71, Type (0, 0), BuildingBlock: ZUJKAS_clean_linker_0, # of connection points: 2
#     Edge 72, Type (0, 0), BuildingBlock: ZUJKAS_clean_linker_0, # of connection points: 2
#     Edge 73, Type (0, 0), BuildingBlock: ZUJKAS_clean_linker_0, # of connection points: 2
#     Edge 74, Type (0, 0), BuildingBlock: ZUJKAS_clean_linker_0, # of connection points: 2
#     Edge 75, Type (0, 0), BuildingBlock: ZUJKAS_clean_linker_0, # of connection points: 2
#     Edge 76, Type (0, 0), BuildingBlock: ZUJKAS_clean_linker_0, # of connection points: 2
#     Edge 77, Type (0, 0), BuildingBlock: ZUJKAS_clean_linker_0, # of connection points: 2
#     Edge 78, Type (0, 0), BuildingBlock: ZUJKAS_clean_linker_0, # of connection points: 2
#     Edge 79, Type (0, 0), BuildingBlock: ZUJKAS_clean_linker_0, # of connection points: 2
#     Edge 80, Type (0, 0), BuildingBlock: ZUJKAS_clean_linker_0, # of connection points: 2
#     Edge 81, Type (0, 0), BuildingBlock: ZUJKAS_clean_linker_0, # of connection points: 2
#     Edge 82, Type (0, 0), BuildingBlock: ZUJKAS_clean_linker_0, # of connection points: 2
#     Edge 83, Type (0, 0), BuildingBlock: ZUJKAS_clean_linker_0, # of connection points: 2
#     Edge 84, Type (0, 0), BuildingBlock: ZUJKAS_clean_linker_0, # of connection points: 2
#     Edge 85, Type (0, 0), BuildingBlock: ZUJKAS_clean_linker_0, # of connection points: 2
#     Edge 86, Type (0, 0), BuildingBlock: ZUJKAS_clean_linker_0, # of connection points: 2
#     Edge 87, Type (0, 0), BuildingBlock: ZUJKAS_clean_linker_0, # of connection points: 2
#     Edge 88, Type (0, 0), BuildingBlock: ZUJKAS_clean_linker_0, # of connection points: 2
#     Edge 89, Type (0, 0), BuildingBlock: ZUJKAS_clean_linker_0, # of connection points: 2
#     Edge 90, Type (0, 0), BuildingBlock: ZUJKAS_clean_linker_0, # of connection points: 2
#     Edge 91, Type (0, 0), BuildingBlock: ZUJKAS_clean_linker_0, # of connection points: 2
#     Edge 92, Type (0, 0), BuildingBlock: ZUJKAS_clean_linker_0, # of connection points: 2
#     Edge 93, Type (0, 0), BuildingBlock: ZUJKAS_clean_linker_0, # of connection points: 2
#     Edge 94, Type (0, 0), BuildingBlock: ZUJKAS_clean_linker_0, # of connection points: 2
#     Edge 95, Type (0, 0), BuildingBlock: ZUJKAS_clean_linker_0, # of connection points: 2
# Relax obj value: 0.091
# Max RMSD: 0.108
# Mean RMSD: 0.108
data_MOF--net-umr--node1-CEKHIL_clean_sbu_0--edge1-ZUJKAS_clean_linker_0
_symmetry_space_group_name_H-M    P1
_symmetry_Int_Tables_number       1
_symmetry_cell_setting            triclinic
loop_
_symmetry_equiv_pos_as_xyz
'x, y, z'
_cell_length_a     107.64498
_cell_length_b     107.68468
_cell_length_c     34.515173
_cell_angle_alpha  90.054634
_cell_angle_beta   89.991005
_cell_angle_gamma 89.994491
loop_
_atom_site_label
_atom_site_type_symbol
_atom_site_fract_x
_atom_site_fract_y
_atom_site_fract_z
_atom_type_partial_charge
Co0 Co 0.1585 0.29145 0.03934 0.0
O1 O 0.14169 0.29663 0.0497 0.0
O2 O 0.15843 0.30785 0.06239 0.0
C3 C 0.15493 0.28429 0.97895 0.0
O4 O 0.17722 0.28967 0.03121 0.0
Co5 Co 0.16528 0.26386 0.02145 0.0
O6 O 0.18141 0.27101 0.00499 0.0
C7 C 0.1584 0.27158 0.10093 0.0
C8 C 0.14638 0.30692 0.06273 0.0
C9 C 0.18474 0.28191 0.01509 0.0
O10 O 0.15938 0.28316 0.09187 0.0
O11 O 0.15924 0.26276 0.07614 0.0
O12 O 0.1567 0.2961 0.98457 0.0
O13 O 0.15443 0.27759 0.00973 0.0
Co14 Co 0.96194 0.90857 0.28722 0.0
O15 O 0.95705 0.8918 0.2993 0.0
O16 O 0.94538 0.90844 0.30904 0.0
C17 C 0.96956 0.90434 0.22782 0.0
O18 O 0.96335 0.9272 0.27687 0.0
Co19 Co 0.98944 0.91587 0.26999 0.0
O20 O 0.98199 0.93151 0.25084 0.0
C21 C 0.98121 0.91135 0.35077 0.0
C22 C 0.94654 0.89643 0.31081 0.0
C23 C 0.971 0.93471 0.26026 0.0
O24 O 0.96976 0.91041 0.34021 0.0
O25 O 0.99023 0.91263 0.32692 0.0
O26 O 0.95768 0.90594 0.23262 0.0
O27 O 0.97613 0.90441 0.25897 0.0
Co28 Co 0.3429 0.71004 0.53564 0.0
O29 O 0.3597 0.70506 0.547 0.0
O30 O 0.34302 0.69366 0.55884 0.0
C31 C 0.34683 0.71715 0.47547 0.0
O32 O 0.32421 0.71173 0.52647 0.0
Co33 Co 0.33619 0.73763 0.51756 0.0
O34 O 0.32011 0.73046 0.50069 0.0
C35 C 0.34261 0.72992 0.59725 0.0
C36 C 0.35505 0.69473 0.55992 0.0
C37 C 0.31675 0.71954 0.51041 0.0
O38 O 0.34164 0.71835 0.58805 0.0
O39 O 0.34196 0.73875 0.57254 0.0
O40 O 0.34509 0.70533 0.48105 0.0
O41 O 0.34707 0.72389 0.50624 0.0
Co42 Co 0.54159 0.09348 0.7855 0.0
O43 O 0.54699 0.11016 0.79644 0.0
O44 O 0.55765 0.09321 0.81087 0.0
C45 C 0.5355 0.0972 0.72411 0.0
O46 O 0.5394 0.07481 0.7772 0.0
Co47 Co 0.51411 0.08751 0.76368 0.0
O48 O 0.52125 0.07141 0.74672 0.0
C49 C 0.52082 0.09386 0.84446 0.0
C50 C 0.557 0.10528 0.81083 0.0
C51 C 0.53179 0.06767 0.7589 0.0
O52 O 0.53251 0.09282 0.83677 0.0
O53 O 0.5123 0.0932 0.81864 0.0
O54 O 0.54715 0.09509 0.73156 0.0
O55 O 0.52832 0.09792 0.75383 0.0
Co56 Co 0.16009 0.71147 0.44467 0.0
O57 O 0.14321 0.70657 0.43426 0.0
O58 O 0.1597 0.69482 0.42335 0.0
C59 C 0.15653 0.71931 0.50428 0.0
O60 O 0.1788 0.71302 0.4533 0.0
Co61 Co 0.16708 0.73923 0.45867 0.0
O62 O 0.18319 0.73214 0.47574 0.0
C63 C 0.16033 0.73047 0.38057 0.0
C64 C 0.14768 0.69603 0.42248 0.0
C65 C 0.1864 0.72102 0.46782 0.0
O66 O 0.16139 0.71906 0.39126 0.0
O67 O 0.16092 0.7397 0.40388 0.0
O68 O 0.158 0.70741 0.49968 0.0
O69 O 0.1562 0.72573 0.47285 0.0
Co70 Co 0.54124 0.91009 0.69282 0.0
O71 O 0.54566 0.89319 0.68067 0.0
O72 O 0.55738 0.90956 0.66799 0.0
C73 C 0.53472 0.90612 0.75363 0.0
O74 O 0.54019 0.92882 0.70258 0.0
Co75 Co 0.51425 0.91783 0.7154 0.0
O76 O 0.52272 0.93275 0.73618 0.0
C77 C 0.52062 0.91211 0.63356 0.0
C78 C 0.55603 0.89756 0.66713 0.0
C79 C 0.53331 0.93604 0.72329 0.0
O80 O 0.53234 0.91168 0.64145 0.0
O81 O 0.5122 0.91354 0.65942 0.0
O82 O 0.5465 0.90761 0.74677 0.0
O83 O 0.52761 0.90623 0.72369 0.0
Co84 Co 0.34133 0.2909 0.9423 0.0
O85 O 0.35831 0.29566 0.93298 0.0
O86 O 0.34194 0.30721 0.91864 0.0
C87 C 0.34432 0.28397 0.00317 0.0
O88 O 0.32247 0.28941 0.94935 0.0
Co89 Co 0.33425 0.26335 0.96011 0.0
O90 O 0.31792 0.27055 0.9735 0.0
C91 C 0.34156 0.2708 0.881 0.0
C92 C 0.35397 0.30601 0.91925 0.0
C93 C 0.31474 0.28151 0.96375 0.0
O94 O 0.34073 0.28241 0.88993 0.0
O95 O 0.34048 0.26206 0.90585 0.0
O96 O 0.34287 0.2958 -0.00306 0.0
O97 O 0.34495 0.27712 0.97271 0.0
Co98 Co 0.96052 0.09093 0.1954 0.0
O99 O 0.95574 0.10782 0.18492 0.0
O100 O 0.94412 0.09133 0.17221 0.0
C101 C 0.96779 0.0948 0.25549 0.0
O102 O 0.96183 0.07221 0.20424 0.0
Co103 Co 0.98784 0.08339 0.21401 0.0
O104 O 0.98004 0.06788 0.23301 0.0
C105 C 0.98022 0.08849 0.13292 0.0
C106 C 0.94532 0.10335 0.17218 0.0
C107 C 0.9692 0.0647 0.222 0.0
O108 O 0.9687 0.08948 0.14278 0.0
O109 O 0.98905 0.08698 0.15734 0.0
O110 O 0.95595 0.09314 0.25009 0.0
O111 O 0.97452 0.09484 0.2247 0.0
Co112 Co 0.84165 0.71094 0.94268 0.0
O113 O 0.85832 0.70623 0.9287 0.0
O114 O 0.84166 0.69454 0.91954 0.0
C115 C 0.8465 0.71805 0.00222 0.0
O116 O 0.82309 0.71226 0.95468 0.0
Co117 Co 0.83453 0.73825 0.96318 0.0
O118 O 0.81909 0.73061 0.98318 0.0
C119 C 0.83863 0.73081 0.88132 0.0
C120 C 0.85365 0.69579 0.9168 0.0
C121 C 0.81576 0.71975 0.97281 0.0
O122 O 0.83936 0.71923 0.8906 0.0
O123 O 0.83767 0.73957 0.90626 0.0
O124 O 0.84477 0.70623 -0.00328 0.0
O125 O 0.84609 0.72486 0.97165 0.0
Co126 Co 0.04121 0.09418 0.69554 0.0
O127 O 0.04697 0.11085 0.68617 0.0
O128 O 0.05776 0.09383 0.6736 0.0
C129 C 0.03372 0.09769 0.75554 0.0
O130 O 0.03876 0.07551 0.70278 0.0
Co131 Co 0.01323 0.08834 0.71045 0.0
O132 O 0.01952 0.07167 0.72509 0.0
C133 C 0.02191 0.09532 0.63232 0.0
C134 C 0.05719 0.10589 0.67349 0.0
C135 C 0.03048 0.06809 0.71653 0.0
O136 O 0.03333 0.0937 0.64239 0.0
O137 O 0.01282 0.09488 0.6562 0.0
O138 O 0.04552 0.0956 0.75062 0.0
O139 O 0.02725 0.09858 0.72432 0.0
Co140 Co 0.65949 0.29183 0.44675 0.0
O141 O 0.64279 0.29746 0.4375 0.0
O142 O 0.65973 0.30768 0.42011 0.0
C143 C 0.65641 0.28639 0.50888 0.0
O144 O 0.6782 0.28931 0.45297 0.0
Co145 Co 0.66511 0.26445 0.46959 0.0
O146 O 0.68164 0.27124 0.48366 0.0
C147 C 0.65863 0.27068 0.38856 0.0
C148 C 0.64765 0.30724 0.42161 0.0
C149 C 0.68544 0.28163 0.47055 0.0
O150 O 0.65936 0.2824 0.396 0.0
O151 O 0.65961 0.26228 0.41461 0.0
O152 O 0.65881 0.29789 0.50025 0.0
O153 O 0.65507 0.27891 0.48008 0.0
Co154 Co 0.46169 0.90792 0.19366 0.0
O155 O 0.4567 0.89134 0.17938 0.0
O156 O 0.44563 0.90831 0.1685 0.0
C157 C 0.46795 0.90304 0.25407 0.0
O158 O 0.46328 0.92646 0.20546 0.0
Co159 Co 0.48879 0.91462 0.21776 0.0
O160 O 0.4809 0.92984 0.23879 0.0
C161 C 0.4825 0.91003 0.13517 0.0
C162 C 0.44656 0.89629 0.1661 0.0
C163 C 0.47038 0.93344 0.22616 0.0
O164 O 0.47076 0.90986 0.14271 0.0
O165 O 0.49088 0.91086 0.16138 0.0
O166 O 0.45623 0.90501 0.24721 0.0
O167 O 0.47512 0.90326 0.22429 0.0
Co168 Co 0.84241 0.2916 0.53446 0.0
O169 O 0.85902 0.29728 0.54517 0.0
O170 O 0.84196 0.30815 0.55653 0.0
C171 C 0.84646 0.28414 0.47472 0.0
O172 O 0.8238 0.28914 0.52561 0.0
Co173 Co 0.83679 0.2636 0.51895 0.0
O174 O 0.82031 0.26991 0.50255 0.0
C175 C 0.84316 0.27229 0.59761 0.0
C176 C 0.85402 0.30752 0.55754 0.0
C177 C 0.81658 0.28083 0.5109 0.0
O178 O 0.84152 0.28369 0.58753 0.0
O179 O 0.84296 0.26321 0.57363 0.0
O180 O 0.84434 0.29594 0.47951 0.0
O181 O 0.84705 0.27767 0.50597 0.0
Co182 Co 0.46194 0.09097 0.28572 0.0
O183 O 0.45737 0.1077 0.29952 0.0
O184 O 0.44594 0.09105 0.31141 0.0
C185 C 0.46808 0.09553 0.2249 0.0
O186 O 0.46317 0.07236 0.27465 0.0
Co187 Co 0.48889 0.08376 0.26142 0.0
O188 O 0.48076 0.0685 0.24168 0.0
C189 C 0.48274 0.08802 0.34427 0.0
C190 C 0.44716 0.10306 0.31334 0.0
C191 C 0.47021 0.06511 0.25462 0.0
O192 O 0.47105 0.08897 0.33656 0.0
O193 O 0.49113 0.0868 0.31819 0.0
O194 O 0.45636 0.09379 0.2323 0.0
O195 O 0.47537 0.09528 0.25441 0.0
Co196 Co 0.65901 0.71104 0.03748 0.0
O197 O 0.64237 0.70577 0.04979 0.0
O198 O 0.65934 0.69473 0.06093 0.0
C199 C 0.65472 0.71791 0.9773 0.0
O200 O 0.67762 0.71292 0.02743 0.0
Co201 Co 0.66547 0.73855 0.01798 0.0
O202 O 0.68152 0.7315 0.00052 0.0
C203 C 0.66089 0.73101 0.09931 0.0
C204 C 0.6473 0.69556 0.06256 0.0
C205 C 0.685 0.72068 0.01079 0.0
O206 O 0.66048 0.71944 0.08973 0.0
O207 O 0.66187 0.73983 0.07466 0.0
O208 O 0.65668 0.70615 0.98324 0.0
O209 O 0.65447 0.72479 0.00781 0.0
Co210 Co 0.04189 0.91152 0.78724 0.0
O211 O 0.04673 0.89486 0.8008 0.0
O212 O 0.05846 0.91152 0.80923 0.0
C213 C 0.03439 0.90656 0.72825 0.0
O214 O 0.04044 0.93008 0.77537 0.0
Co215 Co 0.01447 0.91865 0.76852 0.0
O216 O 0.02203 0.93394 0.74718 0.0
C217 C 0.02243 0.91456 0.84991 0.0
C218 C 0.05726 0.89954 0.81194 0.0
C219 C 0.03291 0.93733 0.75716 0.0
O220 O 0.03395 0.91378 0.83987 0.0
O221 O 0.01351 0.91559 0.82558 0.0
O222 O 0.04624 0.90837 0.73293 0.0
O223 O 0.02777 0.90703 0.75925 0.0
Co224 Co 0.65958 0.79111 0.53766 0.0
O225 O 0.64287 0.7956 0.55196 0.0
O226 O 0.65935 0.8076 0.56015 0.0
C227 C 0.65468 0.78366 0.47854 0.0
O228 O 0.67814 0.79008 0.52503 0.0
Co229 Co 0.66718 0.76388 0.51809 0.0
O230 O 0.68223 0.7718 0.49629 0.0
C231 C 0.66366 0.77165 0.59991 0.0
C232 C 0.64739 0.80618 0.56328 0.0
C233 C 0.68545 0.78272 0.50634 0.0
O234 O 0.66222 0.78311 0.59005 0.0
O235 O 0.6649 0.76278 0.57545 0.0
O236 O 0.65619 0.79554 0.4836 0.0
O237 O 0.6553 0.77697 0.50935 0.0
Co238 Co 0.46078 0.40921 0.79036 0.0
O239 O 0.45641 0.39239 0.80378 0.0
O240 O 0.44439 0.40878 0.81331 0.0
C241 C 0.4681 0.40482 0.73068 0.0
O242 O 0.46159 0.42782 0.77893 0.0
Co243 Co 0.48786 0.41726 0.77048 0.0
O244 O 0.47973 0.4324 0.75009 0.0
C245 C 0.48046 0.41291 0.85219 0.0
C246 C 0.44587 0.39682 0.81576 0.0
C247 C 0.46878 0.43538 0.76062 0.0
O248 O 0.46895 0.41157 0.84265 0.0
O249 O 0.48922 0.41436 0.8275 0.0
O250 O 0.45622 0.40614 0.73617 0.0
O251 O 0.47487 0.40528 0.76137 0.0
Co252 Co 0.84287 0.21034 0.03499 0.0
O253 O 0.85968 0.20449 0.04008 0.0
O254 O 0.84298 0.1938 0.05715 0.0
C255 C 0.84509 0.21791 0.9745 0.0
O256 O 0.8241 0.21294 0.0319 0.0
Co257 Co 0.83713 0.23845 0.02227 0.0
O258 O 0.82003 0.23242 0.01208 0.0
C259 C 0.84553 0.22948 0.09854 0.0
C260 C 0.85501 0.19432 0.05398 0.0
C261 C 0.8165 0.22146 0.02063 0.0
O262 O 0.84364 0.21812 0.08832 0.0
O263 O 0.84476 0.23866 0.07511 0.0
O264 O 0.84303 0.20611 0.97957 0.0
O265 O 0.8467 0.22428 0.00561 0.0
Co266 Co 0.04146 0.59318 0.28686 0.0
O267 O 0.04632 0.60993 0.29942 0.0
O268 O 0.05777 0.59324 0.31049 0.0
C269 C 0.03448 0.59747 0.22673 0.0
O270 O 0.03997 0.57453 0.27653 0.0
Co271 Co 0.01405 0.58618 0.26707 0.0
O272 O 0.02157 0.57047 0.2484 0.0
C273 C 0.02136 0.59199 0.34778 0.0
C274 C 0.05666 0.60526 0.31219 0.0
C275 C 0.03242 0.56714 0.25893 0.0
O276 O 0.03299 0.59151 0.33892 0.0
O277 O 0.01263 0.59123 0.32268 0.0
O278 O 0.0463 0.59578 0.23259 0.0
O279 O 0.02764 0.5974 0.25727 0.0
Co280 Co 0.65996 0.2108 0.9467 0.0
O281 O 0.64331 0.20528 0.9358 0.0
O282 O 0.6603 0.19437 0.92372 0.0
C283 C 0.65613 0.21785 0.0071 0.0
O284 O 0.67858 0.21315 0.9556 0.0
Co285 Co 0.66546 0.23877 0.96326 0.0
O286 O 0.68208 0.23244 0.97822 0.0
C287 C 0.65918 0.23043 0.88436 0.0
C288 C 0.64824 0.19508 0.92294 0.0
C289 C 0.68582 0.22152 0.96988 0.0
O290 O 0.6609 0.219 0.89402 0.0
O291 O 0.65921 0.23941 0.90869 0.0
O292 O 0.65809 0.20608 0.00129 0.0
O293 O 0.65542 0.22455 0.97632 0.0
Co294 Co 0.04028 0.41043 0.19376 0.0
O295 O 0.04573 0.3936 0.18553 0.0
O296 O 0.05688 0.41032 0.17206 0.0
C297 C 0.03261 0.40743 0.25375 0.0
O298 O 0.03809 0.42919 0.19996 0.0
Co299 Co 0.01233 0.41671 0.20764 0.0
O300 O 0.01885 0.4333 0.2219 0.0
C301 C 0.0211 0.40899 0.1302 0.0
C302 C 0.05605 0.39826 0.1726 0.0
C303 C 0.02985 0.43674 0.21344 0.0
O304 O 0.03251 0.41058 0.14041 0.0
O305 O 0.01197 0.40979 0.15386 0.0
O306 O 0.04446 0.4093 0.24903 0.0
O307 O 0.02622 0.40644 0.22244 0.0
Co308 Co 0.84236 0.79123 0.44204 0.0
O309 O 0.85921 0.79645 0.43293 0.0
O310 O 0.84254 0.80771 0.41962 0.0
C311 C 0.84554 0.78386 0.50229 0.0
O312 O 0.8236 0.78932 0.4489 0.0
Co313 Co 0.83577 0.76346 0.45747 0.0
O314 O 0.81926 0.77024 0.47166 0.0
C315 C 0.84334 0.77173 0.37945 0.0
C316 C 0.85459 0.80677 0.41983 0.0
C317 C 0.81595 0.78125 0.46277 0.0
O318 O 0.84186 0.7832 0.38911 0.0
O319 O 0.84259 0.76273 0.40357 0.0
O320 O 0.84378 0.79569 0.49702 0.0
O321 O 0.8463 0.77727 0.47127 0.0
Co322 Co 0.46092 0.59103 0.69168 0.0
O323 O 0.45643 0.60785 0.67869 0.0
O324 O 0.44436 0.59145 0.66993 0.0
C325 C 0.46867 0.59548 0.75076 0.0
O326 O 0.46189 0.57241 0.70297 0.0
Co327 Co 0.48821 0.58312 0.70943 0.0
O328 O 0.48036 0.56782 0.72966 0.0
C329 C 0.48014 0.58751 0.62838 0.0
C330 C 0.4458 0.60342 0.66747 0.0
C331 C 0.46932 0.56483 0.7202 0.0
O332 O 0.46869 0.58873 0.63878 0.0
O333 O 0.4891 0.58612 0.65238 0.0
O334 O 0.45676 0.59408 0.74619 0.0
O335 O 0.47522 0.59502 0.7196 0.0
Co336 Co 0.34488 0.2104 0.44317 0.0
O337 O 0.36166 0.20529 0.43205 0.0
O338 O 0.34493 0.19392 0.42066 0.0
C339 C 0.34888 0.21776 0.50302 0.0
O340 O 0.32618 0.21216 0.45232 0.0
Co341 Co 0.33813 0.23804 0.46095 0.0
O342 O 0.32205 0.23093 0.47786 0.0
C343 C 0.3448 0.23014 0.38147 0.0
C344 C 0.35697 0.19491 0.41974 0.0
C345 C 0.3187 0.21999 0.4683 0.0
O346 O 0.3437 0.21857 0.39055 0.0
O347 O 0.34414 0.23897 0.40624 0.0
O348 O 0.34707 0.20592 0.49793 0.0
O349 O 0.34909 0.22436 0.47203 0.0
Co350 Co 0.54143 0.5922 0.19175 0.0
O351 O 0.54685 0.6089 0.18166 0.0
O352 O 0.55799 0.59205 0.16975 0.0
C353 C 0.53399 0.59598 0.25162 0.0
O354 O 0.53925 0.57352 0.19989 0.0
Co355 Co 0.51355 0.58609 0.20741 0.0
O356 O 0.52016 0.56971 0.22356 0.0
C357 C 0.52205 0.59268 0.12863 0.0
C358 C 0.55718 0.60411 0.16929 0.0
C359 C 0.5311 0.56615 0.21472 0.0
O360 O 0.53351 0.59138 0.13869 0.0
O361 O 0.51299 0.59214 0.15262 0.0
O362 O 0.5458 0.59397 0.24666 0.0
O363 O 0.52745 0.59657 0.22048 0.0
Co364 Co 0.15943 0.79284 0.9447 0.0
O365 O 0.14279 0.79836 0.93372 0.0
O366 O 0.15982 0.80886 0.91913 0.0
C367 C 0.15562 0.78693 0.00612 0.0
O368 O 0.17809 0.79057 0.95309 0.0
Co369 Co 0.16524 0.76543 0.96663 0.0
O370 O 0.18147 0.77236 0.98302 0.0
C371 C 0.15953 0.77204 0.88527 0.0
C372 C 0.14775 0.80829 0.91909 0.0
C373 C 0.18525 0.78289 0.97102 0.0
O374 O 0.16003 0.78373 0.89338 0.0
O375 O 0.16039 0.76352 0.91099 0.0
O376 O 0.15794 0.79852 -0.00149 0.0
O377 O 0.1548 0.77965 0.97663 0.0
Co378 Co 0.95992 0.41009 0.69495 0.0
O379 O 0.95466 0.39342 0.68323 0.0
O380 O 0.9432 0.41023 0.67411 0.0
C381 C 0.96787 0.40571 0.75378 0.0
O382 O 0.96191 0.42869 0.7051 0.0
Co383 Co 0.98782 0.41646 0.7096 0.0
O384 O 0.98102 0.43245 0.72867 0.0
C385 C 0.97889 0.41044 0.63081 0.0
C386 C 0.94418 0.3982 0.67213 0.0
C387 C 0.97001 0.43597 0.72069 0.0
O388 O 0.96747 0.41161 0.64155 0.0
O389 O 0.98807 0.41081 0.65434 0.0
O390 O 0.956 0.40759 0.74995 0.0
O391 O 0.97416 0.40561 0.72211 0.0
Co392 Co 0.34244 0.79089 0.03624 0.0
O393 O 0.35935 0.79603 0.0446 0.0
O394 O 0.34282 0.80739 0.05869 0.0
C395 C 0.34539 0.78353 0.9758 0.0
O396 O 0.32365 0.78901 0.02996 0.0
Co397 Co 0.33583 0.76309 0.02077 0.0
O398 O 0.31937 0.76997 0.00662 0.0
C399 C 0.34364 0.77135 0.09859 0.0
C400 C 0.35487 0.80641 0.05772 0.0
C401 C 0.31603 0.78095 0.0158 0.0
O402 O 0.34211 0.78283 0.08915 0.0
O403 O 0.34285 0.76237 0.07438 0.0
O404 O 0.34368 0.79536 0.98123 0.0
O405 O 0.34625 0.77694 0.00674 0.0
Co406 Co 0.9608 0.59306 0.78764 0.0
O407 O 0.95518 0.60987 0.79516 0.0
O408 O 0.94443 0.59311 0.81098 0.0
C409 C 0.96779 0.59571 0.72665 0.0
O410 O 0.96319 0.57429 0.78257 0.0
Co411 Co 0.98869 0.58709 0.77125 0.0
O412 O 0.98223 0.57032 0.75873 0.0
C413 C 0.98065 0.59523 0.84899 0.0
C414 C 0.94504 0.60516 0.80929 0.0
C415 C 0.97138 0.56678 0.76864 0.0
O416 O 0.96916 0.59338 0.84017 0.0
O417 O 0.98952 0.59446 0.82437 0.0
O418 O 0.95602 0.59374 0.73273 0.0
O419 O 0.97449 0.59701 0.75722 0.0
Co420 Co 0.16193 0.21029 0.53972 0.0
O421 O 0.14502 0.20532 0.54935 0.0
O422 O 0.16153 0.19374 0.56178 0.0
C423 C 0.15861 0.21783 0.47969 0.0
O424 O 0.1807 0.21196 0.53203 0.0
Co425 Co 0.16876 0.23804 0.5248 0.0
O426 O 0.18501 0.23102 0.509 0.0
C427 C 0.16133 0.22967 0.60274 0.0
C428 C 0.14949 0.19487 0.5619 0.0
C429 C 0.18829 0.21998 0.51753 0.0
O430 O 0.16276 0.21821 0.59285 0.0
O431 O 0.16202 0.23871 0.57878 0.0
O432 O 0.16015 0.20596 0.48471 0.0
O433 O 0.15809 0.22437 0.51087 0.0
Co434 Co 0.54105 0.40958 0.28977 0.0
O435 O 0.54618 0.393 0.30325 0.0
O436 O 0.55739 0.40993 0.31331 0.0
C437 C 0.53425 0.40479 0.22981 0.0
O438 O 0.53924 0.42813 0.27831 0.0
Co439 Co 0.51357 0.41595 0.26906 0.0
O440 O 0.5208 0.4317 0.24989 0.0
C441 C 0.52092 0.41181 0.35089 0.0
C442 C 0.55647 0.3979 0.31553 0.0
C443 C 0.53157 0.4353 0.26039 0.0
O444 O 0.53254 0.41148 0.34176 0.0
O445 O 0.51218 0.41254 0.32581 0.0
O446 O 0.546 0.40679 0.23576 0.0
O447 O 0.52733 0.40485 0.26021 0.0
H448 H 0.29545 0.26604 0.98012 0.0
H449 H 0.27374 0.27127 0.98981 0.0
H450 H 0.28188 0.30993 0.96952 0.0
H451 H 0.30388 0.30473 0.95908 0.0
H452 H 0.26375 0.28733 0.04595 0.0
H453 H 0.25247 0.30262 0.89571 0.0
H454 H 0.26637 0.29389 0.90653 0.0
H455 H 0.26532 0.30995 0.91998 0.0
C456 C 0.29272 0.27568 0.97763 0.0
C457 C 0.30147 0.28497 0.96883 0.0
C458 C 0.28026 0.27865 0.98324 0.0
C459 C 0.27617 0.29097 0.98028 0.0
C460 C 0.28481 0.30033 0.97146 0.0
H461 H 0.197 0.30259 0.04244 0.0
H462 H 0.21912 0.30762 0.03489 0.0
C463 C 0.29738 0.29735 0.96561 0.0
C464 C 0.26282 0.29367 0.98688 0.0
H465 H 0.23581 0.30011 0.93893 0.0
C466 C 0.25766 0.29042 0.02286 0.0
C467 C 0.2549 0.29765 0.95662 0.0
C468 C 0.25996 0.30119 0.91739 0.0
C469 C 0.24476 0.29036 0.02869 0.0
C470 C 0.23684 0.29369 -0.00218 0.0
C471 C 0.24197 0.29761 0.96252 0.0
C472 C 0.2233 0.29144 0.00013 0.0
C473 C 0.23961 0.28594 0.06692 0.0
C474 C 0.21837 0.28077 0.98271 0.0
C475 C 0.20583 0.27782 0.98714 0.0
C476 C 0.19791 0.28552 0.00898 0.0
C477 C 0.20282 0.29643 0.02551 0.0
C478 C 0.21545 0.29934 0.02123 0.0
H479 H 0.24705 0.28354 0.08793 0.0
H480 H 0.23366 0.29327 0.07982 0.0
H481 H 0.2337 0.27762 0.06219 0.0
H482 H 0.22432 0.27455 0.96643 0.0
H483 H 0.2024 0.26939 0.97377 0.0
H484 H 0.94892 0.94613 0.27928 0.0
H485 H 0.94341 0.96804 0.27021 0.0
H486 H 0.97909 0.97476 0.21745 0.0
H487 H 0.98459 0.95304 0.2257 0.0
H488 H 0.95516 0.98834 0.30092 0.0
H489 H 0.95589 0.99145 0.1413 0.0
H490 H 0.95526 0.97677 0.16652 0.0
H491 H 0.9699 0.98455 0.15928 0.0
C492 C 0.95553 0.95224 0.26529 0.0
C493 C 0.9672 0.94778 0.25319 0.0
C494 C 0.95236 0.96475 0.26015 0.0
C495 C 0.96074 0.97298 0.2425 0.0
C496 C 0.97233 0.96852 0.23018 0.0
H497 H 0.98043 0.0474 0.26792 0.0
H498 H 0.97534 0.02548 0.27418 0.0
C499 C 0.9755 0.95608 0.23527 0.0
C500 C 0.95794 0.98644 0.23937 0.0
H501 H 0.95949 0.01071 0.17605 0.0
C502 C 0.95584 0.99322 0.2735 0.0
C503 C 0.95857 0.99279 0.20355 0.0
C504 C 0.95989 0.98598 0.16556 0.0
C505 C 0.95531 0.00625 0.2731 0.0
C506 C 0.95714 0.01263 0.23776 0.0
C507 C 0.95827 0.00582 0.20325 0.0
C508 C 0.9593 0.02623 0.23646 0.0
C509 C 0.95313 0.01306 0.31069 0.0
C510 C 0.95205 0.03397 0.21278 0.0
C511 C 0.95498 0.04658 0.20894 0.0
C512 C 0.96533 0.05162 0.22828 0.0
C513 C 0.97241 0.04386 0.25249 0.0
C514 C 0.96944 0.03132 0.25644 0.0
H515 H 0.94776 0.00727 0.3314 0.0
H516 H 0.96222 0.01522 0.32429 0.0
H517 H 0.94806 0.02191 0.30588 0.0
H518 H 0.94425 0.03019 0.19681 0.0
H519 H 0.94935 0.05229 0.18997 0.0
H520 H 0.19833 0.69949 0.44602 0.0
H521 H 0.22031 0.69424 0.45525 0.0
H522 H 0.22613 0.72914 0.5138 0.0
H523 H 0.20433 0.73441 0.50516 0.0
H524 H 0.2406 0.70731 0.42722 0.0
H525 H 0.24284 0.70456 0.58689 0.0
H526 H 0.22834 0.70396 0.56058 0.0
H527 H 0.23557 0.71866 0.5711 0.0
C528 C 0.20425 0.70599 0.46127 0.0
C529 C 0.19953 0.71739 0.47479 0.0
C530 C 0.21681 0.70297 0.4665 0.0
C531 C 0.22481 0.71121 0.48579 0.0
C532 C 0.22008 0.72251 0.49964 0.0
H533 H 0.2993 0.73216 0.46867 0.0
H534 H 0.27735 0.72733 0.46136 0.0
C535 C 0.2076 0.72555 0.49432 0.0
C536 C 0.23831 0.7086 0.4891 0.0
H537 H 0.26222 0.70897 0.55406 0.0
C538 C 0.24531 0.70741 0.455 0.0
C539 C 0.24446 0.70849 0.52534 0.0
C540 C 0.23739 0.70885 0.56306 0.0
C541 C 0.25835 0.70706 0.45606 0.0
C542 C 0.26452 0.70811 0.49211 0.0
C543 C 0.2575 0.70834 0.52637 0.0
C544 C 0.2781 0.71033 0.49464 0.0
C545 C 0.2654 0.70589 0.41847 0.0
C546 C 0.28584 0.70246 0.51633 0.0
C547 C 0.29849 0.70523 0.52076 0.0
C548 C 0.30356 0.71602 0.50402 0.0
C549 C 0.29576 0.72378 0.48202 0.0
C550 C 0.28319 0.72097 0.47749 0.0
H551 H 0.25977 0.70106 0.39608 0.0
H552 H 0.26761 0.71531 0.40742 0.0
H553 H 0.27425 0.70075 0.42254 0.0
H554 H 0.28206 0.69426 0.53012 0.0
H555 H 0.30421 0.69908 0.53799 0.0
H556 H 0.52201 0.05166 0.70585 0.0
H557 H 0.52553 0.02935 0.70047 0.0
H558 H 0.55201 0.03108 0.79405 0.0
H559 H 0.54877 0.0536 0.79901 0.0
H560 H 0.55917 0.01457 0.73522 0.0
H561 H 0.51055 0.0062 0.78086 0.0
H562 H 0.5116 0.01591 0.73881 0.0
H563 H 0.51779 0.02126 0.78433 0.0
C564 C 0.52866 0.04734 0.72516 0.0
C565 C 0.53495 0.05438 0.75333 0.0
C566 C 0.53065 0.03457 0.72206 0.0
C567 C 0.5388 0.02851 0.74749 0.0
C568 C 0.54561 0.03557 0.77432 0.0
H569 H 0.52887 0.94983 0.78757 0.0
H570 H 0.53246 0.97203 0.79645 0.0
C571 C 0.54373 0.04843 0.77715 0.0
C572 C 0.53955 0.01474 0.74744 0.0
H573 H 0.52154 0.98884 0.75595 0.0
C574 C 0.55098 0.0089 0.74003 0.0
C575 C 0.52892 0.00736 0.75451 0.0
C576 C 0.51655 0.01299 0.76548 0.0
C577 C 0.55197 0.99587 0.73842 0.0
C578 C 0.54117 0.98852 0.74355 0.0
C579 C 0.52983 0.99442 0.75178 0.0
C580 C 0.54117 0.97473 0.74053 0.0
C581 C 0.56457 0.99013 0.73182 0.0
C582 C 0.54525 0.96869 0.70666 0.0
C583 C 0.54344 0.95589 0.7019 0.0
C584 C 0.53722 0.949 0.7305 0.0
C585 C 0.5336 0.95494 0.76493 0.0
C586 C 0.53565 0.96763 0.77001 0.0
H587 H 0.57215 0.99649 0.74105 0.0
H588 H 0.56555 0.98123 0.74773 0.0
H589 H 0.5658 0.98827 0.70043 0.0
H590 H 0.54926 0.97396 0.68307 0.0
H591 H 0.54621 0.95154 0.67493 0.0
H592 H 0.69674 0.6988 0.0299 0.0
H593 H 0.71887 0.69385 0.02283 0.0
H594 H 0.72528 0.72984 0.97192 0.0
H595 H 0.70331 0.73478 0.97812 0.0
H596 H 0.73738 0.71076 0.93298 0.0
H597 H 0.74609 0.70868 0.0919 0.0
H598 H 0.7343 0.69849 0.07314 0.0
H599 H 0.73194 0.71499 0.07197 0.0
C600 C 0.70285 0.70564 0.01701 0.0
C601 C 0.69823 0.71724 0.00489 0.0
C602 C 0.7155 0.70281 0.01317 0.0
C603 C 0.72374 0.71155 -0.00264 0.0
C604 C 0.71909 0.72296 0.98428 0.0
H605 H 0.79833 0.73216 0.01534 0.0
H606 H 0.77632 0.72743 0.02165 0.0
C607 C 0.7065 0.72578 0.98798 0.0
C608 C 0.7373 0.70916 -0.00489 0.0
H609 H 0.7634 0.70693 0.05095 0.0
C610 C 0.74308 0.70971 0.95869 0.0
C611 C 0.74468 0.70786 0.02877 0.0
C612 C 0.73901 0.70755 0.06875 0.0
C613 C 0.75607 0.70959 0.9551 0.0
C614 C 0.76347 0.70868 0.98886 0.0
C615 C 0.75768 0.70755 0.02514 0.0
C616 C 0.77711 0.71058 0.98757 0.0
C617 C 0.76177 0.71119 0.91546 0.0
C618 C 0.78497 0.70249 0.96709 0.0
C619 C 0.79764 0.70521 0.96321 0.0
C620 C 0.80266 0.71605 0.97983 0.0
C621 C 0.79481 0.7238 0.00177 0.0
C622 C 0.78221 0.72108 0.0056 0.0
H623 H 0.75476 0.71382 0.8933 0.0
H624 H 0.76911 0.71844 0.91612 0.0
H625 H 0.76614 0.70233 0.90631 0.0
H626 H 0.78126 0.69422 0.95349 0.0
H627 H 0.80342 0.69899 0.94635 0.0
H628 H 0.02175 0.95374 0.70808 0.0
H629 H 0.02607 0.9758 0.70064 0.0
H630 H 0.05641 0.97287 0.78165 0.0
H631 H 0.05209 0.95064 0.78958 0.0
H632 H 0.03977 0.99173 0.7996 0.0
H633 H 0.05368 0.99494 0.64578 0.0
H634 H 0.03952 0.98637 0.65181 0.0
H635 H 0.05374 0.98046 0.67216 0.0
C636 C 0.02946 0.95771 0.72399 0.0
C637 C 0.03653 0.9504 0.7496 0.0
C638 C 0.03199 0.97033 0.71941 0.0
C639 C 0.04166 0.97596 0.74019 0.0
C640 C 0.04896 0.96867 0.76509 0.0
H641 H 0.05251 0.05616 0.70041 0.0
H642 H 0.05729 0.03406 0.70873 0.0
C643 C 0.04649 0.95597 0.76952 0.0
C644 C 0.04323 0.98964 0.73847 0.0
H645 H 0.04568 0.01376 0.67477 0.0
C646 C 0.0413 0.99655 0.77244 0.0
C647 C 0.04541 0.99594 0.70317 0.0
C648 C 0.04834 0.98904 0.66624 0.0
C649 C 0.04069 0.00957 0.77157 0.0
C650 C 0.04184 0.01582 0.7357 0.0
C651 C 0.04461 0.00896 0.70218 0.0
C652 C 0.03923 0.0293 0.7319 0.0
C653 C 0.03854 0.01649 0.809 0.0
C654 C 0.02747 0.03393 0.74172 0.0
C655 C 0.0247 0.0465 0.73702 0.0
C656 C 0.03362 0.05476 0.72206 0.0
C657 C 0.04542 0.05009 0.71209 0.0
C658 C 0.04818 0.03746 0.71682 0.0
H659 H 0.04187 0.01106 0.8343 0.0
H660 H 0.04329 0.02564 0.80887 0.0
H661 H 0.02843 0.01809 0.81283 0.0
H662 H 0.02032 0.02775 0.75251 0.0
H663 H 0.0155 0.04969 0.74485 0.0
H664 H 0.70266 0.2695 0.51458 0.0
H665 H 0.72479 0.27381 0.52007 0.0
H666 H 0.72091 0.30493 0.44252 0.0
H667 H 0.6986 0.30064 0.43653 0.0
H668 H 0.74046 0.2888 0.42307 0.0
H669 H 0.74276 0.30181 0.57795 0.0
H670 H 0.73455 0.2875 0.57038 0.0
H671 H 0.72839 0.30173 0.5509 0.0
C672 C 0.70644 0.27733 0.49881 0.0
C673 C 0.69881 0.28471 0.47504 0.0
C674 C 0.71911 0.27984 0.50228 0.0
C675 C 0.72447 0.28981 0.48222 0.0
C676 C 0.71693 0.29725 0.45854 0.0
H677 H 0.80414 0.30259 0.52724 0.0
H678 H 0.78202 0.30702 0.5172 0.0
C679 C 0.70418 0.29479 0.45518 0.0
C680 C 0.73808 0.2918 0.48433 0.0
H681 H 0.76191 0.29476 0.54897 0.0
C682 C 0.74515 0.29034 0.45047 0.0
C683 C 0.7442 0.29403 0.51994 0.0
C684 C 0.73708 0.29649 0.55679 0.0
C685 C 0.75819 0.2902 0.45174 0.0
C686 C 0.76429 0.29137 0.4879 0.0
C687 C 0.75724 0.29369 0.52132 0.0
C688 C 0.77782 0.28908 0.49215 0.0
C689 C 0.76531 0.28854 0.41443 0.0
C690 C 0.78276 0.2775 0.4818 0.0
C691 C 0.79533 0.27493 0.4875 0.0
C692 C 0.80328 0.28386 0.50403 0.0
C693 C 0.79831 0.2955 0.51437 0.0
C694 C 0.78568 0.29806 0.50865 0.0
H695 H 0.75987 0.29193 0.38921 0.0
H696 H 0.77433 0.29353 0.41529 0.0
H697 H 0.76718 0.27851 0.40984 0.0
H698 H 0.77683 0.27031 0.46996 0.0
H699 H 0.79876 0.26584 0.47929 0.0
H700 H 0.47705 0.94798 0.28721 0.0
H701 H 0.47327 0.97017 0.29562 0.0
H702 H 0.45243 0.97079 0.18881 0.0
H703 H 0.45574 0.94843 0.1812 0.0
H704 H 0.482 0.98711 0.25044 0.0
H705 H 0.43095 0.99282 0.25354 0.0
H706 H 0.43833 0.97786 0.25876 0.0
H707 H 0.43601 0.98448 0.21141 0.0
C708 C 0.47145 0.9528 0.26592 0.0
C709 C 0.46675 0.94649 0.23343 0.0
C710 C 0.46927 0.96549 0.27077 0.0
C711 C 0.4625 0.9722 0.243 0.0
C712 C 0.45743 0.96582 0.21116 0.0
H713 H 0.47782 0.04938 0.19753 0.0
H714 H 0.47447 0.02699 0.19363 0.0
C715 C 0.4594 0.95304 0.20667 0.0
C716 C 0.46208 0.98599 0.24518 0.0
H717 H 0.44289 0.01129 0.24127 0.0
C718 C 0.47341 0.99235 0.24881 0.0
C719 C 0.45089 0.99289 0.24341 0.0
C720 C 0.43835 0.98666 0.24198 0.0
C721 C 0.47391 0.00534 0.2501 0.0
C722 C 0.46281 0.01226 0.24623 0.0
C723 C 0.45142 0.00596 0.24353 0.0
C724 C 0.46303 0.02604 0.24508 0.0
C725 C 0.48637 0.0115 0.25616 0.0
C726 C 0.45703 0.03305 0.27387 0.0
C727 C 0.45877 0.04593 0.27581 0.0
C728 C 0.4666 0.05195 0.24913 0.0
C729 C 0.47191 0.04499 0.21891 0.0
C730 C 0.47004 0.03218 0.2167 0.0
H731 H 0.49316 0.00507 0.26977 0.0
H732 H 0.49019 0.01437 0.22769 0.0
H733 H 0.4855 0.01988 0.27474 0.0
H734 H 0.4515 0.02849 0.29589 0.0
H735 H 0.45452 0.05106 0.29936 0.0
H736 H 0.70245 0.77094 0.46054 0.0
H737 H 0.7244 0.77576 0.4529 0.0
H738 H 0.72009 0.80809 0.52547 0.0
H739 H 0.69798 0.80322 0.53391 0.0
H740 H 0.73733 0.79664 0.42545 0.0
H741 H 0.74679 0.78747 0.58153 0.0
H742 H 0.73229 0.78325 0.55892 0.0
H743 H 0.73543 0.79919 0.57058 0.0
C744 C 0.70609 0.77914 0.47478 0.0
C745 C 0.69845 0.78659 0.49836 0.0
C746 C 0.71866 0.78191 0.47018 0.0
C747 C 0.72393 0.79217 0.48907 0.0
C748 C 0.71625 0.8 0.51114 0.0
H749 H 0.80446 0.80352 0.44631 0.0
H750 H 0.78238 0.80863 0.45378 0.0
C751 C 0.70361 0.79724 0.51576 0.0
C752 C 0.73758 0.79399 0.48722 0.0
H753 H 0.76397 0.79071 0.54118 0.0
C754 C 0.74318 0.79557 0.4508 0.0
C755 C 0.74517 0.7925 0.52037 0.0
C756 C 0.73968 0.79043 0.56009 0.0
C757 C 0.75616 0.79513 0.44637 0.0
C758 C 0.76371 0.7932 0.47935 0.0
C759 C 0.75814 0.79222 0.51599 0.0
C760 C 0.77721 0.79057 0.47598 0.0
C761 C 0.76163 0.79599 0.40621 0.0
C762 C 0.78166 0.77885 0.48681 0.0
C763 C 0.79422 0.77591 0.48279 0.0
C764 C 0.80267 0.78466 0.46788 0.0
C765 C 0.79822 0.79652 0.45766 0.0
C766 C 0.78559 0.79946 0.46175 0.0
H767 H 0.7544 0.79551 0.3833 0.0
H768 H 0.76663 0.80495 0.40316 0.0
H769 H 0.76843 0.78839 0.40133 0.0
H770 H 0.77536 0.77185 0.49788 0.0
H771 H 0.79725 0.76671 0.49114 0.0
H772 H 0.44808 0.44723 0.78939 0.0
H773 H 0.44241 0.46914 0.78134 0.0
H774 H 0.47445 0.47465 0.70835 0.0
H775 H 0.48008 0.45291 0.71568 0.0
H776 H 0.45636 0.48897 0.80414 0.0
H777 H 0.44766 0.49225 0.64699 0.0
H778 H 0.44806 0.47757 0.67226 0.0
H779 H 0.46226 0.48481 0.65633 0.0
C780 C 0.4538 0.45306 0.77107 0.0
C781 C 0.46457 0.4483 0.75331 0.0
C782 C 0.45054 0.46558 0.76654 0.0
C783 C 0.4579 0.47349 0.74376 0.0
C784 C 0.46846 0.46867 0.7253 0.0
H785 H 0.48193 0.54674 0.75924 0.0
H786 H 0.47622 0.52507 0.76728 0.0
C787 C 0.47174 0.45623 0.72988 0.0
C788 C 0.4554 0.48704 0.74206 0.0
H789 H 0.45429 0.51132 0.67868 0.0
C790 C 0.45562 0.49385 0.77675 0.0
C791 C 0.45416 0.49341 0.70644 0.0
C792 C 0.45288 0.4866 0.66846 0.0
C793 C 0.45567 0.50688 0.77653 0.0
C794 C 0.45573 0.51325 0.74068 0.0
C795 C 0.45446 0.50645 0.70618 0.0
C796 C 0.4585 0.52672 0.73811 0.0
C797 C 0.45601 0.5137 0.81472 0.0
C798 C 0.45054 0.53488 0.71838 0.0
C799 C 0.45384 0.54737 0.71337 0.0
C800 C 0.46524 0.55187 0.72765 0.0
C801 C 0.47307 0.54366 0.74786 0.0
C802 C 0.46977 0.53125 0.75285 0.0
H803 H 0.45148 0.50819 0.83796 0.0
H804 H 0.46583 0.51521 0.82333 0.0
H805 H 0.45134 0.52287 0.8127 0.0
H806 H 0.44184 0.53155 0.70644 0.0
H807 H 0.44759 0.55341 0.69759 0.0
H808 H 0.70414 0.23744 -0.0073 0.0
H809 H 0.72599 0.23295 0.00346 0.0
H810 H 0.71981 0.19452 0.97412 0.0
H811 H 0.69776 0.19897 0.96247 0.0
H812 H 0.73666 0.2167 0.05587 0.0
H813 H 0.74903 0.20404 0.90408 0.0
H814 H 0.73461 0.2117 0.91604 0.0
H815 H 0.73658 0.19548 0.92626 0.0
C816 C 0.70735 0.22801 0.9884 0.0
C817 C 0.69914 0.21858 0.97654 0.0
C818 C 0.71989 0.22546 -0.00534 0.0
C819 C 0.72457 0.21343 0.98929 0.0
C820 C 0.71644 0.20392 0.97782 0.0
H821 H 0.80505 0.19858 0.02264 0.0
H822 H 0.7827 0.19421 0.01712 0.0
C823 C 0.70383 0.20647 0.97133 0.0
C824 C 0.73799 0.21113 -0.00395 0.0
H825 H 0.76536 0.20536 0.94907 0.0
C826 C 0.74291 0.21401 0.03267 0.0
C827 C 0.74614 0.20757 0.96578 0.0
C828 C 0.7414 0.20458 0.92571 0.0
C829 C 0.75576 0.21404 0.03928 0.0
C830 C 0.7639 0.21115 0.00852 0.0
C831 C 0.75903 0.20755 0.97255 0.0
C832 C 0.77739 0.2135 0.01182 0.0
C833 C 0.76063 0.2177 0.07865 0.0
C834 C 0.78172 0.22575 0.01042 0.0
C835 C 0.7944 0.22828 0.01328 0.0
C836 C 0.80304 0.21858 0.01784 0.0
C837 C 0.79865 0.20626 0.01933 0.0
C838 C 0.78591 0.20374 0.01608 0.0
H839 H 0.75328 0.21724 0.10122 0.0
H840 H 0.76846 0.21158 0.08727 0.0
H841 H 0.76418 0.22737 0.0774 0.0
H842 H 0.77526 0.23339 0.00699 0.0
H843 H 0.79739 0.23787 0.01211 0.0
H844 H 0.0525 0.44821 0.20292 0.0
H845 H 0.0575 0.47022 0.21305 0.0
H846 H 0.01954 0.4773 0.2462 0.0
H847 H 0.01449 0.45551 0.23675 0.0
H848 H 0.04737 0.49107 0.17717 0.0
H849 H 0.03891 0.49294 0.33506 0.0
H850 H 0.04083 0.47847 0.30918 0.0
H851 H 0.02603 0.48627 0.30948 0.0
C852 C 0.04523 0.45444 0.21255 0.0
C853 C 0.0331 0.45003 0.21921 0.0
C854 C 0.04812 0.46701 0.21835 0.0
C855 C 0.03895 0.47534 0.23116 0.0
C856 C 0.02684 0.47098 0.23732 0.0
H857 H 0.02212 0.55075 0.208 0.0
H858 H 0.02668 0.5287 0.20079 0.0
C859 C 0.02396 0.45849 0.23162 0.0
C860 C 0.04172 0.48873 0.23659 0.0
H861 H 0.03789 0.5125 0.30103 0.0
C862 C 0.04554 0.49574 0.20444 0.0
C863 C 0.03956 0.4948 0.27236 0.0
C864 C 0.03623 0.4877 0.30858 0.0
C865 C 0.04636 0.50875 0.20643 0.0
C866 C 0.04315 0.51487 0.24129 0.0
C867 C 0.04021 0.50781 0.27417 0.0
C868 C 0.04148 0.52853 0.2432 0.0
C869 C 0.05036 0.51586 0.17094 0.0
C870 C 0.04825 0.53578 0.26962 0.0
C871 C 0.04567 0.54847 0.27382 0.0
C872 C 0.0361 0.55404 0.25218 0.0
C873 C 0.02951 0.54676 0.22525 0.0
C874 C 0.03218 0.53416 0.22082 0.0
H875 H 0.0561 0.51 0.15136 0.0
H876 H 0.042 0.51885 0.15464 0.0
H877 H 0.05575 0.52427 0.17897 0.0
H878 H 0.05538 0.53157 0.28744 0.0
H879 H 0.05087 0.5538 0.29493 0.0
H880 H 0.30651 0.19875 0.44485 0.0
H881 H 0.28444 0.19375 0.4535 0.0
H882 H 0.27905 0.22822 0.51488 0.0
H883 H 0.30094 0.23323 0.50691 0.0
H884 H 0.26733 0.20748 0.54998 0.0
H885 H 0.25646 0.21148 0.39263 0.0
H886 H 0.26857 0.20085 0.40645 0.0
H887 H 0.2708 0.21724 0.4129 0.0
C888 C 0.30064 0.20523 0.46039 0.0
C889 C 0.30552 0.21645 0.47486 0.0
C890 C 0.28802 0.20237 0.46517 0.0
C891 C 0.28009 0.21068 0.48447 0.0
C892 C 0.28501 0.22168 0.49986 0.0
H893 H 0.20638 0.23395 0.48335 0.0
H894 H 0.22824 0.22894 0.47509 0.0
C895 C 0.29755 0.22455 0.49508 0.0
C896 C 0.26654 0.20836 0.48776 0.0
H897 H 0.23968 0.20907 0.43518 0.0
C898 C 0.26126 0.20759 0.52489 0.0
C899 C 0.25868 0.20856 0.45493 0.0
C900 C 0.26384 0.20965 0.41441 0.0
C901 C 0.24832 0.20763 0.53019 0.0
C902 C 0.24046 0.20835 0.49742 0.0
C903 C 0.24574 0.20848 0.46021 0.0
C904 C 0.22694 0.21074 0.50123 0.0
C905 C 0.24316 0.20769 0.57085 0.0
C906 C 0.21886 0.20209 0.51832 0.0
C907 C 0.20624 0.20495 0.52328 0.0
C908 C 0.20151 0.21651 0.51118 0.0
C909 C 0.20964 0.22499 0.4933 0.0
C910 C 0.22217 0.22212 0.48836 0.0
H911 H 0.25054 0.20886 0.59304 0.0
H912 H 0.23627 0.21529 0.57434 0.0
H913 H 0.23833 0.19877 0.57645 0.0
H914 H 0.22232 0.19317 0.52801 0.0
H915 H 0.20024 0.19817 0.53696 0.0
H916 H 0.55234 0.44798 0.28521 0.0
H917 H 0.55687 0.47014 0.27688 0.0
H918 H 0.52299 0.47457 0.21175 0.0
H919 H 0.51848 0.45256 0.21929 0.0
H920 H 0.54331 0.48715 0.17935 0.0
H921 H 0.53789 0.49726 0.33676 0.0
H922 H 0.54918 0.48568 0.32364 0.0
H923 H 0.53297 0.48275 0.31558 0.0
C924 C 0.54591 0.45365 0.26884 0.0
C925 C 0.53497 0.44848 0.2533 0.0
C926 C 0.54849 0.46633 0.26428 0.0
C927 C 0.54017 0.47403 0.24417 0.0
C928 C 0.52952 0.4688 0.22746 0.0
H929 H 0.51672 0.54823 0.24821 0.0
H930 H 0.52133 0.52624 0.2557 0.0
C931 C 0.52693 0.45619 0.23198 0.0
C932 C 0.54209 0.48765 0.24156 0.0
H933 H 0.54072 0.51426 0.29532 0.0
C934 C 0.54296 0.4931 0.20471 0.0
C935 C 0.54154 0.49536 0.27473 0.0
C936 C 0.54026 0.49004 0.31497 0.0
C937 C 0.54275 0.50606 0.19999 0.0
C938 C 0.54181 0.51376 0.2331 0.0
C939 C 0.5415 0.50832 0.27004 0.0
C940 C 0.5396 0.52732 0.22983 0.0
C941 C 0.54281 0.51138 0.15956 0.0
C942 C 0.54844 0.53531 0.21325 0.0
C943 C 0.54581 0.54798 0.20874 0.0
C944 C 0.5343 0.55287 0.22082 0.0
C945 C 0.52564 0.54483 0.23829 0.0
C946 C 0.52828 0.53223 0.24277 0.0
H947 H 0.54152 0.5041 0.13707 0.0
H948 H 0.53534 0.51842 0.15629 0.0
H949 H 0.55183 0.51605 0.15418 0.0
H950 H 0.55732 0.53174 0.2036 0.0
H951 H 0.55272 0.55389 0.19539 0.0
H952 H 0.30435 0.80307 0.03329 0.0
H953 H 0.28227 0.80812 0.02502 0.0
H954 H 0.27568 0.77158 0.97819 0.0
H955 H 0.29755 0.7665 0.98575 0.0
H956 H 0.26446 0.79081 0.93543 0.0
H957 H 0.25398 0.7942 0.09319 0.0
H958 H 0.26628 0.8038 0.07465 0.0
H959 H 0.26812 0.78724 0.07533 0.0
C960 C 0.2982 0.79612 0.02117 0.0
C961 C 0.30276 0.78434 0.01043 0.0
C962 C 0.28558 0.79902 0.0166 0.0
C963 C 0.27732 0.79018 0.00133 0.0
C964 C 0.28189 0.77854 0.99003 0.0
H965 H 0.20256 0.7699 0.01227 0.0
H966 H 0.2246 0.77437 0.01938 0.0
C967 C 0.29443 0.77564 -0.00546 0.0
C968 C 0.26383 0.79273 -0.00255 0.0
H969 H 0.23712 0.79528 0.05027 0.0
C970 C 0.25847 0.79201 0.96043 0.0
C971 C 0.25608 0.79426 0.03019 0.0
C972 C 0.26133 0.79486 0.07068 0.0
C973 C 0.24552 0.79215 0.95541 0.0
C974 C 0.23775 0.79319 0.9883 0.0
C975 C 0.24313 0.79453 0.02514 0.0
C976 C 0.22413 0.79127 0.98561 0.0
C977 C 0.24026 0.79042 0.91524 0.0
C978 C 0.21646 0.79942 0.96472 0.0
C979 C 0.20376 0.79686 0.96041 0.0
C980 C 0.19854 0.78611 0.97696 0.0
C981 C 0.20623 0.77821 -0.0012 0.0
C982 C 0.21886 0.78077 0.0031 0.0
H983 H 0.24752 0.78786 0.8938 0.0
H984 H 0.233 0.78308 0.91529 0.0
H985 H 0.23585 0.7992 0.9056 0.0
H986 H 0.22032 0.80766 0.95142 0.0
H987 H 0.19811 0.8032 0.94362 0.0
H988 H 0.94939 0.44892 0.69617 0.0
H989 H 0.94504 0.4711 0.70549 0.0
H990 H 0.97878 0.47493 0.77166 0.0
H991 H 0.98317 0.45292 0.76286 0.0
H992 H 0.95753 0.48756 0.80381 0.0
H993 H 0.96556 0.49818 0.6478 0.0
H994 H 0.9543 0.4864 0.65922 0.0
H995 H 0.97042 0.48371 0.66934 0.0
C996 C 0.95582 0.45446 0.713 0.0
C997 C 0.96671 0.44914 0.72838 0.0
C998 C 0.95334 0.46714 0.71817 0.0
C999 C 0.96166 0.47467 0.73891 0.0
C1000 C 0.97225 0.46928 0.7555 0.0
H1001 H 0.98638 0.54832 0.74106 0.0
H1002 H 0.98164 0.52635 0.73405 0.0
C1003 C 0.97477 0.45669 0.75023 0.0
C1004 C 0.95988 0.48829 0.74195 0.0
H1005 H 0.96268 0.51506 0.68974 0.0
C1006 C 0.95843 0.4936 0.77885 0.0
C1007 C 0.96113 0.49611 0.70929 0.0
C1008 C 0.96301 0.49089 0.66912 0.0
C1009 C 0.95872 0.50655 0.78416 0.0
C1010 C 0.96043 0.51434 0.75164 0.0
C1011 C 0.96133 0.50904 0.71457 0.0
C1012 C 0.96286 0.52784 0.75581 0.0
C1013 C 0.95792 0.51175 0.82469 0.0
C1014 C 0.95383 0.53604 0.77025 0.0
C1015 C 0.95652 0.54871 0.77447 0.0
C1016 C 0.96829 0.55339 0.76419 0.0
C1017 C 0.97722 0.54511 0.74938 0.0
C1018 C 0.97453 0.53251 0.74522 0.0
H1019 H 0.95844 0.50437 0.84711 0.0
H1020 H 0.96552 0.51852 0.82985 0.0
H1021 H 0.94896 0.51671 0.82823 0.0
H1022 H 0.9447 0.53264 0.77811 0.0
H1023 H 0.94939 0.55482 0.78576 0.0
H1024 H 0.15076 0.26002 0.96304 0.0
H1025 H 0.15164 0.24961 0.90049 0.0
H1026 H 0.15981 0.2845 0.84474 0.0
H1027 H 0.15912 0.29508 0.90789 0.0
H1028 H 0.13736 0.254 0.83438 0.0
H1029 H 0.18778 0.26106 0.80722 0.0
H1030 H 0.18082 0.26332 0.85432 0.0
H1031 H 0.17913 0.27496 0.81745 0.0
C1032 C 0.15276 0.26553 0.93754 0.0
C1033 C 0.15494 0.27838 0.94037 0.0
C1034 C 0.15324 0.25954 0.90181 0.0
C1035 C 0.15595 0.26625 0.86816 0.0
C1036 C 0.15792 0.27913 0.87059 0.0
H1037 H 0.148 0.24916 0.62948 0.0
H1038 H 0.1462 0.25641 0.69622 0.0
C1039 C 0.15744 0.28517 0.90654 0.0
C1040 C 0.15653 0.25965 0.83062 0.0
H1041 H 0.17598 0.25215 0.75608 0.0
C1042 C 0.14581 0.25356 0.81731 0.0
C1043 C 0.16764 0.25891 0.80886 0.0
C1044 C 0.17954 0.26481 0.82274 0.0
C1045 C 0.14582 0.24704 0.78212 0.0
C1046 C 0.1568 0.24666 0.75981 0.0
C1047 C 0.1676 0.25246 0.77352 0.0
C1048 C 0.15693 0.24134 0.72045 0.0
C1049 C 0.1341 0.24069 0.76873 0.0
C1050 C 0.16342 0.23034 0.71226 0.0
C1051 C 0.16436 0.22606 0.67401 0.0
C1052 C 0.15905 0.23292 0.64363 0.0
C1053 C 0.15227 0.24373 0.6523 0.0
C1054 C 0.15118 0.24787 0.69037 0.0
H1055 H 0.12719 0.23979 0.79248 0.0
H1056 H 0.12985 0.24618 0.745 0.0
H1057 H 0.13624 0.2313 0.75714 0.0
H1058 H 0.16795 0.22523 0.7353 0.0
H1059 H 0.1697 0.21774 0.66804 0.0
H1060 H 1.00015 0.92066 0.88164 0.0
H1061 H 0.99342 0.91803 0.94827 0.0
H1062 H 0.02978 0.90457 0.97951 0.0
H1063 H 0.03674 0.90716 0.91209 0.0
H1064 H 0.99466 0.89381 0.98801 0.0
H1065 H 0.02011 0.93211 0.06244 0.0
H1066 H 0.01707 0.93242 0.01096 0.0
H1067 H 0.02858 0.92208 0.03005 0.0
C1068 C 0.00681 0.9172 0.90253 0.0
C1069 C 0.01898 0.91401 0.89139 0.0
C1070 C 0.00292 0.91573 0.94066 0.0
C1071 C 0.01109 0.9111 0.96861 0.0
C1072 C 0.02338 0.90824 0.9582 0.0
H1073 H 0.99391 0.90008 0.21262 0.0
H1074 H 0.0044 0.90067 0.15001 0.0
C1075 C 0.02732 0.90972 0.91977 0.0
C1076 C 0.00633 0.90874 0.008 0.0
H1077 H 0.00611 0.9204 0.09985 0.0
C1078 C 0.99723 0.89953 0.01263 0.0
C1079 C 0.00976 0.91621 0.03984 0.0
C1080 C 0.01938 0.92632 0.03588 0.0
C1081 C 0.99128 0.89773 0.04828 0.0
C1082 C 0.99432 0.90555 0.07978 0.0
C1083 C 0.00373 0.91449 0.07549 0.0
C1084 C 0.98776 0.90472 0.11733 0.0
C1085 C 0.98179 0.88748 0.05188 0.0
C1086 C 0.97489 0.90683 0.11966 0.0
C1087 C 0.96882 0.90645 0.15549 0.0
C1088 C 0.97558 0.90408 0.18947 0.0
C1089 C 0.98844 0.90193 0.18692 0.0
C1090 C 0.99447 0.90228 0.1512 0.0
H1091 H 0.98311 0.88025 0.02926 0.0
H1092 H 0.98227 0.883 0.0808 0.0
H1093 H 0.97235 0.89145 0.04821 0.0
H1094 H 0.96958 0.90898 0.09387 0.0
H1095 H 0.95893 0.90823 0.15666 0.0
H1096 H 0.34441 0.706 0.40418 0.0
H1097 H 0.345 0.71628 0.34058 0.0
H1098 H 0.35078 0.75162 0.39661 0.0
H1099 H 0.35036 0.74153 0.45964 0.0
H1100 H 0.32925 0.73599 0.31433 0.0
H1101 H 0.37894 0.74993 0.31613 0.0
H1102 H 0.37272 0.73823 0.34818 0.0
H1103 H 0.3703 0.75442 0.35842 0.0
C1104 C 0.34589 0.71594 0.4028 0.0
C1105 C 0.34738 0.72295 0.43681 0.0
C1106 C 0.34621 0.72179 0.36659 0.0
C1107 C 0.34812 0.73467 0.36403 0.0
C1108 C 0.34954 0.74165 0.39796 0.0
H1109 H 0.33576 0.78337 0.16439 0.0
H1110 H 0.3372 0.77554 0.23128 0.0
C1111 C 0.34922 0.73585 0.43397 0.0
C1112 C 0.34825 0.74098 0.32605 0.0
H1113 H 0.36644 0.75839 0.26591 0.0
C1114 C 0.33737 0.74088 0.3037 0.0
C1115 C 0.35888 0.74736 0.31243 0.0
C1116 C 0.37091 0.74743 0.33483 0.0
C1117 C 0.33683 0.74707 0.26801 0.0
C1118 C 0.34741 0.75352 0.2546 0.0
C1119 C 0.3583 0.75359 0.2768 0.0
C1120 C 0.34766 0.75912 0.21569 0.0
C1121 C 0.32507 0.74648 0.24431 0.0
C1122 C 0.35335 0.75261 0.18545 0.0
C1123 C 0.35246 0.75695 0.14759 0.0
C1124 C 0.34596 0.76797 0.13935 0.0
C1125 C 0.34085 0.77488 0.17001 0.0
C1126 C 0.34162 0.77041 0.20805 0.0
H1127 H 0.31791 0.74042 0.25776 0.0
H1128 H 0.32116 0.75596 0.24112 0.0
H1129 H 0.32716 0.74293 0.2148 0.0
H1130 H 0.35807 0.7439 0.19097 0.0
H1131 H 0.3566 0.7515 0.12456 0.0
H1132 H 0.54697 0.09087 0.6558 0.0
H1133 H 0.53731 0.08966 0.59135 0.0
H1134 H 0.5025 0.10205 0.63973 0.0
H1135 H 0.51202 0.10336 0.70364 0.0
H1136 H 0.51587 0.07473 0.57254 0.0
H1137 H 0.50765 0.12491 0.5452 0.0
H1138 H 0.51858 0.11943 0.58102 0.0
H1139 H 0.50221 0.11935 0.59125 0.0
C1140 C 0.53731 0.09348 0.65249 0.0
C1141 C 0.53025 0.09722 0.68466 0.0
C1142 C 0.53181 0.09276 0.61581 0.0
C1143 C 0.51924 0.09591 0.61085 0.0
C1144 C 0.51226 0.09979 0.64286 0.0
H1145 H 0.46963 0.09489 0.40949 0.0
H1146 H 0.47753 0.09614 0.47621 0.0
C1147 C 0.51771 0.10046 0.67939 0.0
C1148 C 0.51317 0.09453 0.5727 0.0
H1149 H 0.4983 0.11072 0.50148 0.0
C1150 C 0.51208 0.08259 0.55688 0.0
C1151 C 0.50807 0.10481 0.55278 0.0
C1152 C 0.50924 0.11787 0.56819 0.0
C1153 C 0.506 0.08063 0.52148 0.0
C1154 C 0.50109 0.09092 0.50118 0.0
C1155 C 0.50201 0.10285 0.5173 0.0
C1156 C 0.49597 0.08964 0.46166 0.0
C1157 C 0.5048 0.06755 0.50622 0.0
C1158 C 0.50376 0.08565 0.43165 0.0
C1159 C 0.49933 0.08496 0.39385 0.0
C1160 C 0.487 0.08831 0.38507 0.0
C1161 C 0.47914 0.0922 0.4153 0.0
C1162 C 0.48364 0.09295 0.45334 0.0
H1163 H 0.50562 0.06058 0.52982 0.0
H1164 H 0.49577 0.06618 0.49124 0.0
H1165 H 0.51235 0.06576 0.48507 0.0
H1166 H 0.51337 0.08329 0.43737 0.0
H1167 H 0.50567 0.08189 0.37143 0.0
H1168 H 0.15848 0.7864 0.81909 0.0
H1169 H 0.15657 0.77905 0.75192 0.0
H1170 H 0.15576 0.74118 0.79225 0.0
H1171 H 0.15749 0.74829 0.8587 0.0
H1172 H 0.17276 0.76286 0.71185 0.0
H1173 H 0.12551 0.7428 0.72124 0.0
H1174 H 0.13149 0.75357 0.75679 0.0
H1175 H 0.13555 0.73737 0.7591 0.0
C1176 C 0.15779 0.77652 0.81364 0.0
C1177 C 0.1581 0.76796 0.84443 0.0
C1178 C 0.15671 0.77235 0.77529 0.0
C1179 C 0.15579 0.75959 0.76726 0.0
C1180 C 0.15615 0.75108 0.79786 0.0
H1181 H 0.15753 0.70838 0.57592 0.0
H1182 H 0.15725 0.71886 0.63915 0.0
C1183 C 0.15723 0.7552 0.83594 0.0
C1184 C 0.15506 0.75492 0.72697 0.0
H1185 H 0.13813 0.73585 0.66814 0.0
C1186 C 0.16511 0.75712 0.702 0.0
C1187 C 0.14507 0.7474 0.71433 0.0
C1188 C 0.13374 0.74524 0.73914 0.0
C1189 C 0.16568 0.75154 0.66526 0.0
C1190 C 0.15588 0.74369 0.65321 0.0
C1191 C 0.14568 0.74177 0.67773 0.0
C1192 C 0.15604 0.73738 0.61516 0.0
C1193 C 0.17694 0.75373 0.64012 0.0
C1194 C 0.15529 0.74434 0.58099 0.0
C1195 C 0.15541 0.73841 0.54505 0.0
C1196 C 0.15626 0.72539 0.54262 0.0
C1197 C 0.1569 0.71842 0.57692 0.0
C1198 C 0.15674 0.72438 0.61297 0.0
H1199 H 0.18475 0.75789 0.6567 0.0
H1200 H 0.18015 0.74489 0.62685 0.0
H1201 H 0.17444 0.76019 0.61633 0.0
H1202 H 0.15454 0.75437 0.58213 0.0
H1203 H 0.15483 0.74405 0.51915 0.0
H1204 H 0.46856 0.90889 0.06806 0.0
H1205 H 0.47641 0.90733 0.00132 0.0
H1206 H 0.51403 0.90783 0.04408 0.0
H1207 H 0.50647 0.9093 0.11003 0.0
H1208 H 0.49328 0.92423 0.96245 0.0
H1209 H 0.51273 0.8767 0.9744 0.0
H1210 H 0.50136 0.88274 0.00796 0.0
H1211 H 0.51746 0.88688 0.01292 0.0
C1212 C 0.47849 0.90862 0.06321 0.0
C1213 C 0.48685 0.90916 0.09452 0.0
C1214 C 0.48295 0.90773 0.02514 0.0
C1215 C 0.49579 0.90724 0.01802 0.0
C1216 C 0.5041 0.90793 0.04908 0.0
H1217 H 0.54673 0.90785 0.82377 0.0
H1218 H 0.53704 0.90816 0.88836 0.0
C1219 C 0.4997 0.90885 0.08685 0.0
C1220 C 0.50075 0.9064 0.97822 0.0
H1221 H 0.5197 0.88886 0.92074 0.0
C1222 C 0.49892 0.91644 0.95306 0.0
C1223 C 0.50816 0.89624 0.96633 0.0
C1224 C 0.50997 0.88497 -0.00834 0.0
C1225 C 0.50467 0.91677 0.9166 0.0
C1226 C 0.51231 0.90674 0.90513 0.0
C1227 C 0.51396 0.8966 0.92999 0.0
C1228 C 0.51826 0.90639 0.86666 0.0
C1229 C 0.5028 0.92795 0.89093 0.0
C1230 C 0.51089 0.90506 0.83356 0.0
C1231 C 0.51635 0.90481 0.79703 0.0
C1232 C 0.52931 0.90589 0.79288 0.0
C1233 C 0.53673 0.90702 0.82615 0.0
C1234 C 0.53122 0.90722 0.86291 0.0
H1235 H 0.49877 0.93593 0.90707 0.0
H1236 H 0.51174 0.93089 0.87775 0.0
H1237 H 0.49635 0.92549 0.86706 0.0
H1238 H 0.50089 0.90422 0.83601 0.0
H1239 H 0.51036 0.90383 0.772 0.0
H1240 H 0.34201 0.25953 0.02043 0.0
H1241 H 0.34194 0.24982 0.08388 0.0
H1242 H 0.34712 0.28565 0.13762 0.0
H1243 H 0.3466 0.29559 0.07363 0.0
H1244 H 0.35973 0.24876 0.13628 0.0
H1245 H 0.31864 0.27227 0.1999 0.0
H1246 H 0.32236 0.27327 0.14903 0.0
H1247 H 0.33033 0.28292 0.18362 0.0
C1248 C 0.34299 0.26541 0.04567 0.0
C1249 C 0.3442 0.27835 0.04208 0.0
C1250 C 0.343 0.25981 0.08198 0.0
C1251 C 0.34436 0.26701 0.11552 0.0
C1252 C 0.34573 0.27995 0.11213 0.0
H1253 H 0.35442 0.25181 0.35524 0.0
H1254 H 0.35473 0.25949 0.28904 0.0
C1255 C 0.34552 0.28561 0.07563 0.0
C1256 C 0.3447 0.26078 0.15373 0.0
H1257 H 0.33106 0.26025 0.24292 0.0
C1258 C 0.35339 0.25121 0.15951 0.0
C1259 C 0.33635 0.26391 0.18383 0.0
C1260 C 0.32631 0.27356 0.17873 0.0
C1261 C 0.35414 0.24489 0.19494 0.0
C1262 C 0.34603 0.24827 0.2252 0.0
C1263 C 0.33726 0.25772 0.2194 0.0
C1264 C 0.34701 0.24277 0.26415 0.0
C1265 C 0.36378 0.23487 0.20028 0.0
C1266 C 0.34282 0.23067 0.27177 0.0
C1267 C 0.34261 0.22618 0.30987 0.0
C1268 C 0.34649 0.23383 0.3406 0.0
C1269 C 0.35119 0.24573 0.33232 0.0
C1270 C 0.35141 0.25016 0.29451 0.0
H1271 H 0.37015 0.23413 0.17504 0.0
H1272 H 0.36936 0.23674 0.22672 0.0
H1273 H 0.35908 0.22579 0.20434 0.0
H1274 H 0.33933 0.22489 0.24849 0.0
H1275 H 0.33893 0.21699 0.31541 0.0
H1276 H 0.03418 0.08667 0.568 0.0
H1277 H 0.0268 0.0876 0.50057 0.0
H1278 H 0.99509 0.10907 0.53715 0.0
H1279 H 0.00227 0.10814 0.60407 0.0
H1280 H 0.00177 0.07824 0.47893 0.0
H1281 H 0.00939 0.12771 0.44025 0.0
H1282 H 0.01796 0.12 0.47829 0.0
H1283 H 0.00233 0.12517 0.4868 0.0
C1284 C 0.02579 0.0918 0.56142 0.0
C1285 C 0.01876 0.09728 0.5912 0.0
C1286 C 0.02157 0.09228 0.52306 0.0
C1287 C 0.01045 0.09845 0.51407 0.0
C1288 C 0.00375 0.10438 0.54353 0.0
H1289 H 0.95718 0.09079 0.32692 0.0
H1290 H 0.96772 0.09147 0.39015 0.0
C1291 C 0.00784 0.10377 0.58173 0.0
C1292 C 0.00513 0.0979 0.47471 0.0
H1293 H 0.9958 0.11614 0.39942 0.0
C1294 C 1.00057 0.08648 0.46127 0.0
C1295 C 0.00359 0.10869 0.452 0.0
C1296 C 0.00865 0.12109 0.46481 0.0
C1297 C 0.99419 0.08563 0.42594 0.0
C1298 C 0.99226 0.0965 0.40387 0.0
C1299 C 0.99714 0.10786 0.41681 0.0
C1300 C 0.98571 0.0962 0.3663 0.0
C1301 C 0.98959 0.07313 0.41235 0.0
C1302 C 0.99231 0.09884 0.33238 0.0
C1303 C 0.98637 0.09846 0.29659 0.0
C1304 C 0.97366 0.09552 0.29402 0.0
C1305 C 0.96697 0.09307 0.3281 0.0
C1306 C 0.97298 0.09339 0.36408 0.0
H1307 H 0.99389 0.06539 0.42887 0.0
H1308 H 0.97937 0.07264 0.41633 0.0
H1309 H 0.9916 0.0718 0.38105 0.0
H1310 H 0.00212 0.10107 0.33357 0.0
H1311 H 0.99177 0.10045 0.27086 0.0
H1312 H 0.84184 0.70751 0.0732 0.0
H1313 H 0.84221 0.71803 0.13648 0.0
H1314 H 0.85357 0.75206 0.08104 0.0
H1315 H 0.85322 0.74171 0.01817 0.0
H1316 H 0.86742 0.7451 0.15024 0.0
H1317 H 0.81609 0.74532 0.16934 0.0
H1318 H 0.82301 0.73057 0.15773 0.0
H1319 H 0.82341 0.7429 0.12283 0.0
C1320 C 0.84449 0.7172 0.07465 0.0
C1321 C 0.84744 0.72381 0.04084 0.0
C1322 C 0.84464 0.7232 0.11065 0.0
C1323 C 0.84779 0.73584 0.11315 0.0
C1324 C 0.85106 0.74232 0.07958 0.0
H1325 H 0.83627 0.78439 0.31401 0.0
H1326 H 0.83814 0.77714 0.24662 0.0
C1327 C 0.85083 0.73639 0.04373 0.0
C1328 C 0.8476 0.74242 0.15065 0.0
H1329 H 0.82818 0.75264 0.22199 0.0
C1330 C 0.85885 0.74679 0.16594 0.0
C1331 C 0.83636 0.74481 0.17046 0.0
C1332 C 0.82399 0.74076 0.15425 0.0
C1333 C 0.8592 0.75315 0.2014 0.0
C1334 C 0.84802 0.75512 0.22191 0.0
C1335 C 0.83672 0.75111 0.20603 0.0
C1336 C 0.84796 0.76027 0.26152 0.0
C1337 C 0.87152 0.75763 0.21688 0.0
C1338 C 0.85296 0.75322 0.29177 0.0
C1339 C 0.85181 0.75724 0.32993 0.0
C1340 C 0.84567 0.76843 0.33859 0.0
C1341 C 0.84109 0.77577 0.30811 0.0
C1342 C 0.84211 0.77163 0.26976 0.0
H1343 H 0.87867 0.75815 0.19372 0.0
H1344 H 0.87054 0.76693 0.2305 0.0
H1345 H 0.87485 0.75107 0.23936 0.0
H1346 H 0.85738 0.74437 0.28596 0.0
H1347 H 0.85551 0.75143 0.35279 0.0
H1348 H 0.96611 0.09586 0.07016 0.0
H1349 H 0.97289 0.09706 0.00214 0.0
H1350 H 0.00907 0.08345 0.03474 0.0
H1351 H 0.00251 0.08211 0.10176 0.0
H1352 H 0.9936 0.11119 0.97331 0.0
H1353 H 0.99927 0.06098 0.94356 0.0
H1354 H 0.99009 0.06679 0.98347 0.0
H1355 H 0.00672 0.06572 0.98769 0.0
C1356 C 0.97546 0.09301 0.06268 0.0
C1357 C 0.98376 0.08891 0.09146 0.0
C1358 C 0.97931 0.09372 0.02392 0.0
C1359 C 0.99141 0.09016 0.01348 0.0
C1360 C 0.99962 0.08601 0.04208 0.0
H1361 H 0.04368 0.09129 0.82594 0.0
H1362 H 0.03266 0.08997 0.88818 0.0
C1363 C 0.99585 0.08536 0.08054 0.0
C1364 C 0.99595 0.09134 0.97324 0.0
H1365 H 0.01042 0.0749 0.9017 0.0
C1366 C 0.99708 0.10325 0.95725 0.0
C1367 C 1.00051 0.08095 0.95257 0.0
C1368 C 0.99898 0.06787 0.96752 0.0
C1369 C 0.00323 0.10512 0.92186 0.0
C1370 C 0.00824 0.09477 0.90203 0.0
C1371 C 0.00672 0.08282 0.91736 0.0
C1372 C 0.01502 0.09612 0.86507 0.0
C1373 C 0.00474 0.11816 0.90664 0.0
C1374 C 0.0087 0.09999 0.83176 0.0
C1375 C 0.01493 0.10072 0.79643 0.0
C1376 C 0.02758 0.09757 0.79374 0.0
C1377 C 0.03395 0.09383 0.82724 0.0
C1378 C 0.02768 0.09304 0.86268 0.0
H1379 H 0.00261 0.12525 0.92906 0.0
H1380 H 0.01435 0.11967 0.89596 0.0
H1381 H 0.9983 0.11958 0.88193 0.0
H1382 H 0.99889 0.10222 0.83295 0.0
H1383 H 0.00975 0.10362 0.77108 0.0
H1384 H 0.63926 0.27158 0.54158 0.0
H1385 H 0.64011 0.26172 0.6053 0.0
H1386 H 0.67556 0.27921 0.62679 0.0
H1387 H 0.6742 0.2898 0.56397 0.0
H1388 H 0.65512 0.24541 0.632 0.0
H1389 H 0.65923 0.28698 0.72603 0.0
H1390 H 0.65574 0.28815 0.67512 0.0
H1391 H 0.67152 0.28594 0.69117 0.0
C1392 C 0.64706 0.27353 0.56047 0.0
C1393 C 0.65652 0.2816 0.5486 0.0
C1394 C 0.64761 0.26783 0.59667 0.0
C1395 C 0.65782 0.26983 0.62125 0.0
C1396 C 0.66738 0.27783 0.60906 0.0
H1397 H 0.67142 0.22094 0.82136 0.0
H1398 H 0.67144 0.2296 0.75555 0.0
C1399 C 0.66663 0.28386 0.57321 0.0
C1400 C 0.65848 0.26318 0.65891 0.0
H1401 H 0.66194 0.26746 0.75623 0.0
C1402 C 0.65655 0.25025 0.65921 0.0
C1403 C 0.66031 0.26947 0.69446 0.0
C1404 C 0.6617 0.28341 0.69681 0.0
C1405 C 0.65612 0.24351 0.69399 0.0
C1406 C 0.65815 0.24979 0.7294 0.0
C1407 C 0.66039 0.26265 0.72903 0.0
C1408 C 0.65737 0.24348 0.76755 0.0
C1409 C 0.65303 0.22985 0.69246 0.0
C1410 C 0.64944 0.24833 0.79607 0.0
C1411 C 0.64963 0.2436 0.83359 0.0
C1412 C 0.65762 0.23378 0.8433 0.0
C1413 C 0.66507 0.22842 0.81438 0.0
C1414 C 0.66506 0.23335 0.7768 0.0
H1415 H 0.64836 0.2273 0.66486 0.0
H1416 H 0.66174 0.22438 0.69446 0.0
H1417 H 0.64691 0.22714 0.71692 0.0
H1418 H 0.64337 0.25609 0.7896 0.0
H1419 H 0.64377 0.24787 0.85538 0.0
H1420 H 0.45628 0.90667 0.32412 0.0
H1421 H 0.46621 0.90727 0.38835 0.0
H1422 H 0.5016 0.89877 0.33615 0.0
H1423 H 0.49188 0.89813 0.27247 0.0
H1424 H 0.48203 0.88763 0.42587 0.0
H1425 H 0.50668 0.93215 0.39744 0.0
H1426 H 0.49324 0.9273 0.36996 0.0
H1427 H 0.5081 0.92033 0.36084 0.0
C1428 C 0.46615 0.90484 0.32649 0.0
C1429 C 0.47332 0.90247 0.29332 0.0
C1430 C 0.47179 0.9052 0.36304 0.0
C1431 C 0.48464 0.90326 0.36665 0.0
C1432 C 0.49171 0.90049 0.33376 0.0
H1433 H 0.53457 0.90786 0.56763 0.0
H1434 H 0.52673 0.90492 0.5013 0.0
C1435 C 0.48611 0.90011 0.29744 0.0
C1436 C 0.49081 0.90424 0.40468 0.0
H1437 H 0.51129 0.92194 0.45626 0.0
C1438 C 0.48841 0.89513 0.43261 0.0
C1439 C 0.49926 0.91395 0.41294 0.0
C1440 C 0.50196 0.92407 0.3839 0.0
C1441 C 0.49422 0.89551 0.46893 0.0
C1442 C 0.50243 0.90538 0.47759 0.0
C1443 C 0.50503 0.91436 0.44934 0.0
C1444 C 0.5074 0.9072 0.51705 0.0
C1445 C 0.49154 0.88534 0.4978 0.0
C1446 C 0.49914 0.90973 0.54731 0.0
C1447 C 0.50353 0.91145 0.5848 0.0
C1448 C 0.51633 0.91073 0.59299 0.0
C1449 C 0.52466 0.90844 0.56237 0.0
C1450 C 0.52022 0.90674 0.52456 0.0
H1451 H 0.48805 0.87681 0.48333 0.0
H1452 H 0.49998 0.88296 0.51476 0.0
H1453 H 0.48428 0.88858 0.51831 0.0
H1454 H 0.48925 0.91039 0.54188 0.0
H1455 H 0.49679 0.91329 0.60739 0.0
H1456 H 0.8372 0.21727 0.16323 0.0
H1457 H 0.83828 0.22482 0.23046 0.0
H1458 H 0.86011 0.25615 0.19296 0.0
H1459 H 0.85901 0.24878 0.12616 0.0
H1460 H 0.86787 0.24311 0.26653 0.0
H1461 H 0.81845 0.25835 0.25793 0.0
H1462 H 0.8221 0.24264 0.24394 0.0
H1463 H 0.82765 0.25534 0.21518 0.0
C1464 C 0.84245 0.2256 0.16955 0.0
C1465 C 0.84792 0.23251 0.13953 0.0
C1466 C 0.843 0.22993 0.20779 0.0
C1467 C 0.84916 0.2411 0.21634 0.0
C1468 C 0.85528 0.24755 0.18679 0.0
H1469 H 0.8433 0.29463 0.40285 0.0
H1470 H 0.84419 0.28395 0.33989 0.0
C1471 C 0.85462 0.24333 0.1487 0.0
C1472 C 0.84854 0.24669 0.25532 0.0
H1473 H 0.82932 0.26306 0.3152 0.0
C1474 C 0.85943 0.24737 0.27745 0.0
C1475 C 0.83756 0.25244 0.26885 0.0
C1476 C 0.82575 0.25227 0.24532 0.0
C1477 C 0.85963 0.25368 0.31303 0.0
C1478 C 0.84862 0.25937 0.32669 0.0
C1479 C 0.83773 0.25869 0.30452 0.0
C1480 C 0.84818 0.26588 0.36436 0.0
C1481 C 0.87166 0.25444 0.33532 0.0
C1482 C 0.84999 0.25921 0.39866 0.0
C1483 C 0.8495 0.26524 0.43434 0.0
C1484 C 0.84711 0.27807 0.43644 0.0
C1485 C 0.84521 0.28476 0.40205 0.0
C1486 C 0.84569 0.27868 0.36619 0.0
H1487 H 0.87981 0.25222 0.31678 0.0
H1488 H 0.87295 0.26384 0.34794 0.0
H1489 H 0.87143 0.24765 0.35948 0.0
H1490 H 0.8517 0.2493 0.39785 0.0
H1491 H 0.85096 0.2598 0.46033 0.0
H1492 H 0.49169 0.10142 0.20522 0.0
H1493 H 0.50084 0.10209 0.14067 0.0
H1494 H 0.46551 0.09226 0.09047 0.0
H1495 H 0.45617 0.09154 0.15553 0.0
H1496 H 0.48748 0.07769 0.06547 0.0
H1497 H 0.49424 0.12877 0.05506 0.0
H1498 H 0.4996 0.12169 0.09916 0.0
H1499 H 0.48329 0.12178 0.08821 0.0
C1500 C 0.48581 0.09947 0.18049 0.0
C1501 C 0.4732 0.09645 0.18537 0.0
C1502 C 0.49106 0.09991 0.14364 0.0
C1503 C 0.48381 0.09735 0.11095 0.0
C1504 C 0.4712 0.09433 0.11552 0.0
H1505 H 0.49922 0.10423 0.86887 0.0
H1506 H 0.49114 0.10527 0.93478 0.0
C1507 C 0.46589 0.09396 0.15255 0.0
C1508 C 0.48963 0.09744 0.0722 0.0
H1509 H 0.50374 0.11643 0.00642 0.0
C1510 C 0.49101 0.08614 0.05245 0.0
C1511 C 0.49424 0.10851 0.05555 0.0
C1512 C 0.49271 0.12092 0.07535 0.0
C1513 C 0.49701 0.08561 0.01639 0.0
C1514 C 0.50173 0.09666 -4e-05 0.0
C1515 C 0.50025 0.10797 0.01954 0.0
C1516 C 0.50727 0.09676 0.96088 0.0
C1517 C 0.4981 0.07332 -0.00433 0.0
C1518 C 0.51917 0.09188 0.95407 0.0
C1519 C 0.5239 0.09135 0.91628 0.0
C1520 C 0.5167 0.09556 0.88496 0.0
C1521 C 0.50495 0.10079 0.89232 0.0
C1522 C 0.50032 0.10143 0.92993 0.0
H1523 H 0.49287 0.06583 0.01059 0.0
H1524 H 0.49458 0.07418 0.96554 0.0
H1525 H 0.50802 0.07058 -0.00598 0.0
H1526 H 0.52467 0.0883 0.97784 0.0
H1527 H 0.53297 0.08726 0.91146 0.0
H1528 H 0.6476 0.74133 0.95933 0.0
H1529 H 0.64824 0.75147 0.8962 0.0
H1530 H 0.6623 0.71776 0.84468 0.0
H1531 H 0.66138 0.70741 0.90791 0.0
H1532 H 0.66829 0.75586 0.85124 0.0
H1533 H 0.63435 0.72675 0.77158 0.0
H1534 H 0.63588 0.72623 0.82362 0.0
H1535 H 0.6466 0.71786 0.79329 0.0
C1536 C 0.6507 0.73602 0.93447 0.0
C1537 C 0.6544 0.72356 0.93844 0.0
C1538 C 0.65108 0.74184 0.89845 0.0
C1539 C 0.65518 0.73534 0.86569 0.0
C1540 C 0.65883 0.72286 0.86947 0.0
H1541 H 0.67329 0.75069 0.63144 0.0
H1542 H 0.67124 0.74334 0.69772 0.0
C1543 C 0.65835 0.71697 0.90556 0.0
C1544 C 0.65611 0.74182 0.82798 0.0
H1545 H 0.64695 0.74029 0.73352 0.0
C1546 C 0.66353 0.75254 0.82555 0.0
C1547 C 0.64979 0.73753 0.79466 0.0
C1548 C 0.64111 0.72654 0.79591 0.0
C1549 C 0.66517 0.7588 0.79026 0.0
C1550 C 0.65919 0.75424 0.75679 0.0
C1551 C 0.65154 0.74372 0.75939 0.0
C1552 C 0.66142 0.7596 0.71805 0.0
C1553 C 0.67361 0.76997 0.78862 0.0
C1554 C 0.65679 0.77135 0.7078 0.0
C1555 C 0.65796 0.77564 0.66964 0.0
C1556 C 0.66366 0.76815 0.64133 0.0
C1557 C 0.66869 0.75662 0.65236 0.0
C1558 C 0.66756 0.7524 0.69025 0.0
H1559 H 0.67879 0.77137 0.81612 0.0
H1560 H 0.68038 0.76897 0.76453 0.0
H1561 H 0.66798 0.77841 0.7829 0.0
H1562 H 0.65193 0.77698 0.72893 0.0
H1563 H 0.65397 0.78454 0.66197 0.0
H1564 H 0.96763 0.90161 0.4113 0.0
H1565 H 0.97456 0.89922 0.47889 0.0
H1566 H 0.00902 0.91753 0.45098 0.0
H1567 H 0.00232 0.91995 0.38418 0.0
H1568 H 0.0103 0.89247 0.48874 0.0
H1569 H 0.98066 0.92741 0.56436 0.0
H1570 H 0.9737 0.91698 0.52969 0.0
H1571 H 0.98422 0.92876 0.51337 0.0
C1572 C 0.9766 0.90527 0.4198 0.0
C1573 C 0.98447 0.91085 0.39234 0.0
C1574 C 0.98053 0.90389 0.45829 0.0
C1575 C 0.99231 0.90817 0.46962 0.0
C1576 C 0.99995 0.9141 0.4426 0.0
H1577 H 0.04465 0.91045 0.65652 0.0
H1578 H 0.03391 0.90961 0.59388 0.0
C1579 C 0.99608 0.91545 0.40442 0.0
C1580 C 0.99716 0.90608 0.50902 0.0
H1581 H 0.99622 0.91759 0.60095 0.0
C1582 C 0.00714 0.89783 0.51349 0.0
C1583 C 0.99295 0.91307 0.54099 0.0
C1584 C 0.98232 0.92211 0.53721 0.0
C1585 C 0.01327 0.8966 0.54909 0.0
C1586 C 0.00948 0.90406 0.58067 0.0
C1587 C 0.99917 0.91197 0.57655 0.0
C1588 C 0.0162 0.90402 0.61807 0.0
C1589 C 0.02375 0.88736 0.55247 0.0
C1590 C 0.00976 0.90136 0.65233 0.0
C1591 C 0.01581 0.90199 0.68795 0.0
C1592 C 0.02843 0.90529 0.69002 0.0
C1593 C 0.03495 0.90779 0.65569 0.0
C1594 C 0.02884 0.90724 0.61995 0.0
H1595 H 0.02297 0.87991 0.53028 0.0
H1596 H 0.03272 0.8922 0.54783 0.0
H1597 H 0.02393 0.883 0.58161 0.0
H1598 H 1.00001 0.89888 0.65153 0.0
H1599 H 0.01055 0.89998 0.71395 0.0
H1600 H 0.64872 0.75973 0.46279 0.0
H1601 H 0.6492 0.74922 0.40003 0.0
H1602 H 0.65976 0.78351 0.3447 0.0
H1603 H 0.65923 0.79419 0.40764 0.0
H1604 H 0.63589 0.75717 0.32463 0.0
H1605 H 0.68758 0.7554 0.32135 0.0
H1606 H 0.67889 0.75688 0.36591 0.0
H1607 H 0.68051 0.76999 0.33432 0.0
C1608 C 0.65105 0.76508 0.43723 0.0
C1609 C 0.654 0.77778 0.44004 0.0
C1610 C 0.65129 0.75906 0.40147 0.0
C1611 C 0.6546 0.76559 0.36804 0.0
C1612 C 0.65725 0.77834 0.37044 0.0
H1613 H 0.66752 0.75319 0.13054 0.0
H1614 H 0.6658 0.75988 0.19754 0.0
C1615 C 0.65691 0.78442 0.40626 0.0
C1616 C 0.6557 0.75896 0.33083 0.0
H1617 H 0.677 0.7487 0.26507 0.0
C1618 C 0.64485 0.75521 0.31162 0.0
C1619 C 0.66743 0.75632 0.31449 0.0
C1620 C 0.67931 0.75976 0.33504 0.0
C1621 C 0.64544 0.74934 0.27532 0.0
C1622 C 0.65718 0.74704 0.25841 0.0
C1623 C 0.66802 0.75045 0.2783 0.0
C1624 C 0.6584 0.74245 0.21827 0.0
C1625 C 0.63354 0.74614 0.25449 0.0
C1626 C 0.65495 0.73032 0.20788 0.0
C1627 C 0.65595 0.72639 0.16926 0.0
C1628 C 0.66033 0.7346 0.14067 0.0
C1629 C 0.66397 0.74665 0.15164 0.0
C1630 C 0.66305 0.7505 0.18999 0.0
H1631 H 0.62524 0.74998 0.2694 0.0
H1632 H 0.63378 0.74975 0.22437 0.0
H1633 H 0.63255 0.7359 0.25291 0.0
H1634 H 0.65147 0.72394 0.22954 0.0
H1635 H 0.65309 0.71705 0.16171 0.0
H1636 H 0.49228 0.40023 0.71415 0.0
H1637 H 0.50261 0.40154 0.65137 0.0
H1638 H 0.46765 0.41037 0.59697 0.0
H1639 H 0.45717 0.40916 0.66011 0.0
H1640 H 0.49785 0.38829 0.58156 0.0
H1641 H 0.49131 0.4392 0.56587 0.0
H1642 H 0.48936 0.43124 0.6115 0.0
H1643 H 0.47732 0.43062 0.57551 0.0
C1644 C 0.48675 0.40241 0.68882 0.0
C1645 C 0.47392 0.40468 0.69201 0.0
C1646 C 0.49268 0.40313 0.65301 0.0
C1647 C 0.48592 0.40623 0.61977 0.0
C1648 C 0.47304 0.40816 0.62254 0.0
H1649 H 0.49775 0.41567 0.37998 0.0
H1650 H 0.49094 0.41441 0.44678 0.0
C1651 C 0.46706 0.40738 0.65847 0.0
C1652 C 0.49243 0.40753 0.5823 0.0
H1653 H 0.49917 0.4284 0.51109 0.0
C1654 C 0.49824 0.39706 0.56619 0.0
C1655 C 0.49305 0.41904 0.5628 0.0
C1656 C 0.48754 0.43071 0.57988 0.0
C1657 C 0.50417 0.39767 0.53002 0.0
C1658 C 0.50444 0.40911 0.50994 0.0
C1659 C 0.49896 0.41966 0.52667 0.0
C1660 C 0.50909 0.41004 0.46976 0.0
C1661 C 0.50965 0.38601 0.51281 0.0
C1662 C 0.52166 0.40811 0.46054 0.0
C1663 C 0.52567 0.4088 0.42194 0.0
C1664 C 0.51714 0.41142 0.39216 0.0
C1665 C 0.50461 0.41353 0.40194 0.0
C1666 C 0.50066 0.41287 0.44023 0.0
H1667 H 0.50694 0.37757 0.5293 0.0
H1668 H 0.50663 0.38488 0.48224 0.0
H1669 H 0.51993 0.38671 0.51304 0.0
H1670 H 0.52834 0.40608 0.48313 0.0
H1671 H 0.53538 0.40717 0.41542 0.0
H1672 H 0.85604 0.25277 0.62626 0.0
H1673 H 0.85675 0.24552 0.69311 0.0
H1674 H 0.83486 0.27702 0.72917 0.0
H1675 H 0.83416 0.28445 0.66177 0.0
H1676 H 0.86463 0.25849 0.76508 0.0
H1677 H 0.81492 0.24413 0.75949 0.0
H1678 H 0.8239 0.247 0.71622 0.0
H1679 H 0.81871 0.25978 0.74534 0.0
C1680 C 0.85149 0.25825 0.64844 0.0
C1681 C 0.84493 0.26911 0.63881 0.0
C1682 C 0.85194 0.25411 0.68659 0.0
C1683 C 0.84573 0.26065 0.71579 0.0
C1684 C 0.83962 0.27181 0.70678 0.0
H1685 H 0.84902 0.24232 0.95989 0.0
H1686 H 0.84903 0.25283 0.89748 0.0
C1687 C 0.83929 0.27607 0.66844 0.0
C1688 C 0.84518 0.25526 0.75503 0.0
H1689 H 0.82602 0.23939 0.81633 0.0
C1690 C 0.85618 0.25443 0.77656 0.0
C1691 C 0.83417 0.24977 0.76932 0.0
C1692 C 0.82223 0.2501 0.74647 0.0
C1693 C 0.85648 0.24819 0.81219 0.0
C1694 C 0.84546 0.24273 0.82658 0.0
C1695 C 0.83444 0.24359 0.80508 0.0
C1696 C 0.84517 0.23625 0.86426 0.0
C1697 C 0.86864 0.24722 0.83374 0.0
C1698 C 0.84269 0.22346 0.86626 0.0
C1699 C 0.84263 0.21736 0.9021 0.0
C1700 C 0.84496 0.22404 0.9363 0.0
C1701 C 0.84724 0.23688 0.93406 0.0
C1702 C 0.84731 0.24293 0.89841 0.0
H1703 H 0.87671 0.24932 0.81475 0.0
H1704 H 0.86867 0.25398 0.85802 0.0
H1705 H 0.86986 0.23779 0.84613 0.0
H1706 H 0.84095 0.21818 0.84007 0.0
H1707 H 0.8408 0.20748 0.90301 0.0
H1708 H 0.0461 0.59776 0.1558 0.0
H1709 H 0.0361 0.59902 0.09188 0.0
H1710 H 1.0001 0.59984 0.14675 0.0
H1711 H 0.00992 0.59893 0.21008 0.0
H1712 H 0.01934 0.58272 0.05912 0.0
H1713 H 0.99788 0.6293 0.07429 0.0
H1714 H 0.00979 0.62374 0.10677 0.0
H1715 H 0.9939 0.61895 0.11305 0.0
C1716 C 0.03607 0.5983 0.15411 0.0
C1717 C 0.02881 0.59829 0.18791 0.0
C1718 C 0.03037 0.59902 0.1177 0.0
C1719 C 0.01737 0.59977 0.11469 0.0
C1720 C 0.01015 0.59962 0.14842 0.0
H1721 H 0.96826 0.58888 0.91582 0.0
H1722 H 0.97628 0.59059 0.98243 0.0
C1723 C 0.0158 0.59898 0.18463 0.0
C1724 C 0.01123 0.60015 0.07637 0.0
H1725 H 0.99093 0.61693 0.02107 0.0
C1726 C 0.01317 0.59022 0.05076 0.0
C1727 C 0.00316 0.60996 0.06559 0.0
C1728 C 1.00114 0.62115 0.09121 0.0
C1729 C 0.00715 0.58977 0.01479 0.0
C1730 C 0.99899 0.59947 0.00433 0.0
C1731 C 0.99706 0.60943 0.0297 0.0
C1732 C 0.99329 0.59981 0.96558 0.0
C1733 C 0.00959 0.579 0.98783 0.0
C1734 C 1.0001 0.60474 0.93473 0.0
C1735 C 0.99562 0.60374 0.89703 0.0
C1736 C 0.98422 0.59781 0.88951 0.0
C1737 C 0.97706 0.5935 0.92079 0.0
C1738 C 0.98162 0.59444 0.9587 0.0
H1739 H 0.01558 0.5718 0.00129 0.0
H1740 H 1.00066 0.57468 0.97901 0.0
H1741 H 0.01422 0.58243 0.96116 0.0
H1742 H 0.0091 0.60895 0.93969 0.0
H1743 H 0.00129 0.6073 0.8736 0.0
H1744 H 0.65896 0.28462 0.32153 0.0
H1745 H 0.65796 0.27685 0.25465 0.0
H1746 H 0.65385 0.23945 0.29717 0.0
H1747 H 0.65482 0.24697 0.36349 0.0
H1748 H 0.67373 0.24374 0.24064 0.0
H1749 H 0.6274 0.26146 0.19446 0.0
H1750 H 0.63786 0.27216 0.2178 0.0
H1751 H 0.63146 0.25949 0.24489 0.0
C1752 C 0.6577 0.27476 0.31663 0.0
C1753 C 0.65706 0.26643 0.34797 0.0
C1754 C 0.65711 0.27035 0.27845 0.0
C1755 C 0.65581 0.25759 0.27117 0.0
C1756 C 0.65487 0.24933 0.30229 0.0
H1757 H 0.65739 0.20625 0.07766 0.0
H1758 H 0.65736 0.21611 0.14175 0.0
C1759 C 0.65545 0.25368 0.34023 0.0
C1760 C 0.65605 0.25258 0.23132 0.0
H1761 H 0.63885 0.24993 0.14875 0.0
C1762 C 0.66614 0.24512 0.2204 0.0
C1763 C 0.64615 0.25447 0.20517 0.0
C1764 C 0.63504 0.26227 0.21599 0.0
C1765 C 0.6666 0.23943 0.18389 0.0
C1766 C 0.65652 0.24099 0.15806 0.0
C1767 C 0.64652 0.24866 0.16876 0.0
C1768 C 0.65624 0.2349 0.11958 0.0
C1769 C 0.67795 0.23195 0.17315 0.0
C1770 C 0.65521 0.24214 0.08605 0.0
C1771 C 0.65506 0.23654 0.04962 0.0
C1772 C 0.65595 0.22356 0.04599 0.0
C1773 C 0.65679 0.21627 0.07959 0.0
C1774 C 0.65686 0.2219 0.11615 0.0
H1775 H 0.68611 0.23456 0.19112 0.0
H1776 H 0.67604 0.22196 0.17812 0.0
H1777 H 0.68039 0.23323 0.14215 0.0
H1778 H 0.65467 0.25217 0.08804 0.0
H1779 H 0.65434 0.24242 0.02429 0.0
H1780 H 0.96608 0.4191 0.56746 0.0
H1781 H 0.97292 0.41821 0.49939 0.0
H1782 H 0.0053 0.39734 0.53356 0.0
H1783 H 0.99867 0.39826 0.60099 0.0
H1784 H 0.99816 0.42757 0.47468 0.0
H1785 H 0.98946 0.37799 0.43934 0.0
H1786 H 0.98124 0.38611 0.47739 0.0
H1787 H 0.99682 0.38073 0.48533 0.0
C1788 C 0.97454 0.41415 0.56023 0.0
C1789 C 0.98189 0.40881 0.58944 0.0
C1790 C 0.97844 0.4137 0.52152 0.0
C1791 C 0.98957 0.40766 0.51168 0.0
C1792 C 0.99664 0.40194 0.54063 0.0
H1793 H 0.04266 0.41285 0.325 0.0
H1794 H 0.03165 0.41343 0.38742 0.0
C1795 C 0.99286 0.40254 0.57913 0.0
C1796 C 0.99443 0.40795 0.47177 0.0
H1797 H 0.00314 0.38902 0.39733 0.0
C1798 C 0.99911 0.4192 0.45742 0.0
C1799 C 0.99564 0.39699 0.4496 0.0
C1800 C 0.99044 0.38477 0.46345 0.0
C1801 C 0.00537 0.41968 0.4218 0.0
C1802 C 0.00705 0.40861 0.40041 0.0
C1803 C 0.00197 0.39745 0.41415 0.0
C1804 C 0.01379 0.40843 0.36315 0.0
C1805 C 0.01015 0.432 0.40732 0.0
C1806 C 0.00742 0.4052 0.32928 0.0
C1807 C 0.01364 0.40483 0.29393 0.0
C1808 C 0.02639 0.40759 0.2918 0.0
C1809 C 0.03283 0.41069 0.32584 0.0
C1810 C 0.02655 0.41111 0.36135 0.0
H1811 H 0.00577 0.43993 0.42276 0.0
H1812 H 0.02034 0.43248 0.41212 0.0
H1813 H 0.00842 0.43302 0.37577 0.0
H1814 H 0.99759 0.40304 0.33016 0.0
H1815 H 0.00842 0.40236 0.26823 0.0
H1816 H 0.83332 0.75358 0.85166 0.0
H1817 H 0.83518 0.76052 0.78508 0.0
H1818 H 0.84663 0.72382 0.75004 0.0
H1819 H 0.84478 0.71663 0.81744 0.0
H1820 H 0.8581 0.75901 0.7407 0.0
H1821 H 0.8181 0.73431 0.67289 0.0
H1822 H 0.81902 0.73692 0.72452 0.0
H1823 H 0.82871 0.72542 0.70218 0.0
C1824 C 0.8362 0.74689 0.82999 0.0
C1825 C 0.83899 0.73453 0.84004 0.0
C1826 C 0.83723 0.75091 0.79187 0.0
C1827 C 0.84103 0.74269 0.76281 0.0
C1828 C 0.84358 0.73027 0.77221 0.0
H1829 H 0.84936 0.75948 0.51793 0.0
H1830 H 0.84902 0.7492 0.5808 0.0
C1831 C 0.84254 0.72619 0.81065 0.0
C1832 C 0.84273 0.74752 0.72315 0.0
H1833 H 0.82955 0.74792 0.63333 0.0
C1834 C 0.85194 0.75652 0.71706 0.0
C1835 C 0.83466 0.74421 0.69259 0.0
C1836 C 0.8245 0.73473 0.69811 0.0
C1837 C 0.85319 0.7625 0.68123 0.0
C1838 C 0.84483 0.75953 0.65103 0.0
C1839 C 0.83586 0.75024 0.65674 0.0
C1840 C 0.84525 0.76596 0.61324 0.0
C1841 C 0.86345 0.77188 0.67597 0.0
C1842 C 0.84317 0.77883 0.61068 0.0
C1843 C 0.84338 0.78478 0.57465 0.0
C1844 C 0.84558 0.77791 0.54075 0.0
C1845 C 0.84763 0.76504 0.54353 0.0
C1846 C 0.84743 0.75912 0.57941 0.0
H1847 H 0.87093 0.77066 0.69782 0.0
H1848 H 0.8676 0.77118 0.64658 0.0
H1849 H 0.85958 0.78137 0.67947 0.0
H1850 H 0.84124 0.78422 0.63648 0.0
H1851 H 0.8417 0.79468 0.57331 0.0
H1852 H 0.50136 0.60377 0.10033 0.0
H1853 H 0.49458 0.60496 0.03313 0.0
H1854 H 0.52837 0.587 -0.00381 0.0
H1855 H 0.53535 0.58578 0.06401 0.0
H1856 H 0.50769 0.6156 0.96421 0.0
H1857 H 0.49767 0.56482 0.95825 0.0
H1858 H 0.49915 0.57305 0.00365 0.0
H1859 H 0.5127 0.56978 0.97521 0.0
C1860 C 0.50743 0.60014 0.07797 0.0
C1861 C 0.51884 0.59455 0.08746 0.0
C1862 C 0.50355 0.60089 0.0396 0.0
C1863 C 0.51092 0.59596 0.00995 0.0
C1864 C 0.52254 0.59077 0.01891 0.0
H1865 H 0.49288 0.60062 0.76509 0.0
H1866 H 0.5035 0.60096 0.82753 0.0
C1867 C 0.52652 0.59013 0.05751 0.0
C1868 C 0.50595 0.59579 0.97014 0.0
H1869 H 0.49183 0.5768 0.9043 0.0
C1870 C 0.50436 0.60712 0.95079 0.0
C1871 C 0.50146 0.5847 0.95326 0.0
C1872 C 0.50273 0.57236 0.97354 0.0
C1873 C 0.49824 0.60767 0.91496 0.0
C1874 C 0.49363 0.5966 0.8983 0.0
C1875 C 0.49535 0.58525 0.91741 0.0
C1876 C 0.48705 0.59663 0.86082 0.0
C1877 C 0.49645 0.62009 0.89558 0.0
C1878 C 0.47429 0.59401 0.85903 0.0
C1879 C 0.46814 0.59386 0.8233 0.0
C1880 C 0.47474 0.59618 0.78898 0.0
C1881 C 0.48753 0.5988 0.79106 0.0
C1882 C 0.49362 0.59904 0.82666 0.0
H1883 H 0.49864 0.62795 0.91531 0.0
H1884 H 0.50266 0.62071 0.86998 0.0
H1885 H 0.48673 0.6211 0.88523 0.0
H1886 H 0.46911 0.59209 0.88526 0.0
H1887 H 0.4583 0.59175 0.82249 0.0
H1888 H 0.34657 0.207 0.57488 0.0
H1889 H 0.3466 0.21775 0.63784 0.0
H1890 H 0.35218 0.25278 0.58001 0.0
H1891 H 0.35221 0.24225 0.51755 0.0
H1892 H 0.36667 0.23506 0.66777 0.0
H1893 H 0.32019 0.25706 0.64949 0.0
H1894 H 0.32484 0.24343 0.62253 0.0
H1895 H 0.33094 0.25838 0.60978 0.0
C1896 C 0.34783 0.21697 0.57571 0.0
C1897 C 0.3493 0.22379 0.54135 0.0
C1898 C 0.34785 0.22308 0.61154 0.0
C1899 C 0.34923 0.23604 0.61326 0.0
C1900 C 0.35092 0.2428 0.5791 0.0
H1901 H 0.34342 0.28556 0.81575 0.0
H1902 H 0.34666 0.27852 0.74865 0.0
C1903 C 0.35095 0.23673 0.54348 0.0
C1904 C 0.34898 0.24259 0.65075 0.0
H1905 H 0.33138 0.26211 0.70603 0.0
C1906 C 0.35898 0.24099 0.67619 0.0
C1907 C 0.33904 0.25051 0.66105 0.0
C1908 C 0.32808 0.25245 0.63449 0.0
C1909 C 0.3592 0.24696 0.71228 0.0
C1910 C 0.349 0.25445 0.72338 0.0
C1911 C 0.33919 0.25639 0.69732 0.0
C1912 C 0.34761 0.25902 0.7635 0.0
C1913 C 0.3703 0.24512 0.73831 0.0
C1914 C 0.34691 0.25038 0.79362 0.0
C1915 C 0.34507 0.25431 0.83152 0.0
C1916 C 0.34376 0.26702 0.8403 0.0
C1917 C 0.34443 0.27572 0.81 0.0
C1918 C 0.34628 0.27173 0.77175 0.0
H1919 H 0.37877 0.24288 0.72127 0.0
H1920 H 0.37215 0.25351 0.75611 0.0
H1921 H 0.36849 0.23721 0.75812 0.0
H1922 H 0.34759 0.24052 0.78774 0.0
H1923 H 0.34457 0.24728 0.85389 0.0
H1924 H 0.46672 0.59718 0.5674 0.0
H1925 H 0.4739 0.59967 0.50012 0.0
H1926 H 0.50825 0.5813 0.52897 0.0
H1927 H 0.5013 0.57878 0.59547 0.0
H1928 H 0.51001 0.60614 0.4928 0.0
H1929 H 0.48016 0.57237 0.41312 0.0
H1930 H 0.473 0.58282 0.4473 0.0
H1931 H 0.48316 0.57084 0.4644 0.0
C1932 C 0.47571 0.5935 0.55916 0.0
C1933 C 0.48349 0.5879 0.58684 0.0
C1934 C 0.47978 0.59494 0.52083 0.0
C1935 C 0.49161 0.59069 0.50985 0.0
C1936 C 0.49913 0.58469 0.53705 0.0
H1937 H 0.54413 0.59034 0.32233 0.0
H1938 H 0.53339 0.59 0.38503 0.0
C1939 C 0.49512 0.58329 0.57507 0.0
C1940 C 0.49667 0.59301 0.47081 0.0
H1941 H 0.49562 0.5827 0.37748 0.0
C1942 C 0.5068 0.60112 0.46742 0.0
C1943 C 0.4924 0.58647 0.43798 0.0
C1944 C 0.48161 0.57757 0.44055 0.0
C1945 C 0.51299 0.6027 0.43203 0.0
C1946 C 0.50908 0.59574 0.3995 0.0
C1947 C 0.49866 0.58794 0.4026 0.0
C1948 C 0.51575 0.59629 0.36205 0.0
C1949 C 0.52361 0.61182 0.42986 0.0
C1950 C 0.50934 0.5997 0.32841 0.0
C1951 C 0.51539 0.59976 0.29272 0.0
C1952 C 0.52798 0.59639 0.28998 0.0
C1953 C 0.53446 0.59307 0.3237 0.0
C1954 C 0.52835 0.59294 0.35948 0.0
H1955 H 0.52301 0.61891 0.45319 0.0
H1956 H 0.53251 0.60675 0.43351 0.0
H1957 H 0.5238 0.61663 0.40143 0.0
H1958 H 0.49962 0.60229 0.32975 0.0
H1959 H 0.51016 0.60238 0.26721 0.0
H1960 H 0.14091 0.74247 0.34869 0.0
H1961 H 0.13951 0.75082 0.28294 0.0
H1962 H 0.17531 0.73487 0.25603 0.0
H1963 H 0.17629 0.72587 0.32124 0.0
H1964 H 0.15356 0.76768 0.25416 0.0
H1965 H 0.15749 0.72643 0.15919 0.0
H1966 H 0.15486 0.72513 0.21061 0.0
H1967 H 0.17031 0.7276 0.19208 0.0
C1968 C 0.14826 0.74042 0.32816 0.0
C1969 C 0.15861 0.73342 0.33947 0.0
C1970 C 0.14752 0.74526 0.29078 0.0
C1971 C 0.15726 0.74343 0.2643 0.0
C1972 C 0.16751 0.73614 0.27543 0.0
H1973 H 0.16845 0.79481 0.07004 0.0
H1974 H 0.16931 0.78452 0.13341 0.0
C1975 C 0.16809 0.73103 0.31266 0.0
C1976 C 0.15709 0.75006 0.22655 0.0
H1977 H 0.16027 0.74614 0.12898 0.0
C1978 C 0.15492 0.76293 0.22675 0.0
C1979 C 0.15881 0.74389 0.19074 0.0
C1980 C 0.16037 0.72999 0.18805 0.0
C1981 C 0.15429 0.76979 0.19227 0.0
C1982 C 0.15644 0.7637 0.15655 0.0
C1983 C 0.15872 0.75084 0.15636 0.0
C1984 C 0.15583 0.7703 0.11881 0.0
C1985 C 0.15093 0.78338 0.1946 0.0
C1986 C 0.14822 0.76561 0.08922 0.0
C1987 C 0.14801 0.77125 0.05291 0.0
C1988 C 0.15521 0.78185 0.04562 0.0
C1989 C 0.16263 0.78677 0.0753 0.0
C1990 C 0.16309 0.78092 0.1115 0.0
H1991 H 0.14591 0.78558 0.22189 0.0
H1992 H 0.15956 0.78902 0.19417 0.0
H1993 H 0.14502 0.78623 0.16979 0.0
H1994 H 0.14252 0.75746 0.09407 0.0
H1995 H 0.14223 0.76727 0.03038 0.0
H1996 H 0.95783 0.40837 0.82648 0.0
H1997 H 0.96903 0.4076 0.88859 0.0
H1998 H 0.0033 0.40044 0.82802 0.0
H1999 H 0.99232 0.40118 0.76621 0.0
H2000 H 0.99176 0.38405 0.90557 0.0
H2001 H 0.00203 0.43479 0.91098 0.0
H2002 H 0.98738 0.42939 0.89187 0.0
H2003 H 0.00141 0.42649 0.86551 0.0
C2004 C 0.96773 0.40658 0.82649 0.0
C2005 C 0.97421 0.40487 0.79156 0.0
C2006 C 0.97409 0.40615 0.86184 0.0
C2007 C 0.98695 0.404 0.86252 0.0
C2008 C 0.99338 0.40213 0.82784 0.0
H2009 H 0.0354 0.41309 0.06526 0.0
H2010 H 0.02893 0.41053 -0.00263 0.0
C2011 C 0.98707 0.40258 0.79263 0.0
C2012 C 0.99377 0.40383 0.89946 0.0
H2013 H 0.0083 0.42274 0.96444 0.0
C2014 C 0.99543 0.39247 0.91849 0.0
C2015 C 0.99876 0.41481 0.91543 0.0
C2016 C 0.99738 0.42712 0.89507 0.0
C2017 C 0.00165 0.39188 0.95414 0.0
C2018 C 0.00611 0.40297 0.97119 0.0
C2019 C 0.00487 0.41426 0.95125 0.0
C2020 C 0.01072 0.4033 0.01149 0.0
C2021 C 0.00328 0.37942 0.97342 0.0
C2022 C 0.00264 0.40005 0.0416 0.0
C2023 C 0.00626 0.40154 0.08 0.0
C2024 C 0.01802 0.4064 0.08923 0.0
C2025 C 0.02629 0.40931 0.05904 0.0
C2026 C 0.02261 0.40787 0.02035 0.0
H2027 H 0.00318 0.37175 0.95185 0.0
H2028 H 0.01211 0.379 0.98998 0.0
H2029 H 0.99548 0.37785 -0.00614 0.0
H2030 H 0.99335 0.39674 0.03541 0.0
H2031 H 0.99967 0.39912 0.1025 0.0
H2032 H 0.34823 0.75902 0.96019 0.0
H2033 H 0.34811 0.7488 0.89724 0.0
H2034 H 0.3425 0.78413 0.84115 0.0
H2035 H 0.34244 0.79452 0.90461 0.0
H2036 H 0.32657 0.76444 0.81508 0.0
H2037 H 0.37626 0.75041 0.81657 0.0
H2038 H 0.36759 0.74599 0.85882 0.0
H2039 H 0.37009 0.76215 0.84861 0.0
C2040 C 0.34699 0.76466 0.93453 0.0
C2041 C 0.34539 0.77759 0.93729 0.0
C2042 C 0.34699 0.75879 0.89857 0.0
C2043 C 0.3455 0.76573 0.86464 0.0
C2044 C 0.34375 0.77864 0.86715 0.0
H2045 H 0.35289 0.75119 0.6243 0.0
H2046 H 0.35369 0.75853 0.69106 0.0
C2047 C 0.34374 0.78455 0.90329 0.0
C2048 C 0.34557 0.75942 0.82666 0.0
H2049 H 0.36384 0.74234 0.7657 0.0
C2050 C 0.33469 0.75959 0.80428 0.0
C2051 C 0.35621 0.75309 0.81282 0.0
C2052 C 0.36824 0.75295 0.83524 0.0
C2053 C 0.33419 0.75358 0.76827 0.0
C2054 C 0.34481 0.74727 0.75453 0.0
C2055 C 0.35567 0.74704 0.77686 0.0
C2056 C 0.34518 0.74208 0.71508 0.0
C2057 C 0.32245 0.75421 0.74452 0.0
C2058 C 0.34038 0.73025 0.7069 0.0
C2059 C 0.33997 0.72595 0.6686 0.0
C2060 C 0.34423 0.73353 0.63822 0.0
C2061 C 0.34941 0.74519 0.647 0.0
C2062 C 0.34991 0.7494 0.68509 0.0
H2063 H 0.31496 0.75946 0.75942 0.0
H2064 H 0.32443 0.75873 0.71628 0.0
H2065 H 0.31908 0.74467 0.73833 0.0
H2066 H 0.3367 0.72451 0.72997 0.0
H2067 H 0.33591 0.71694 0.66265 0.0
H2068 H 0.95672 0.59134 0.65615 0.0
H2069 H 0.96701 0.5905 0.59263 0.0
H2070 H 0.00228 0.59806 0.64708 0.0
H2071 H 0.99214 0.59914 0.70999 0.0
H2072 H 0.99807 0.61256 0.58276 0.0
H2073 H 0.98948 0.5627 0.55114 0.0
H2074 H 0.97575 0.57149 0.56224 0.0
H2075 H 0.98742 0.5693 0.59883 0.0
C2076 C 0.96666 0.59282 0.65446 0.0
C2077 C 0.97362 0.59527 0.688 0.0
C2078 C 0.97253 0.59224 0.61829 0.0
C2079 C 0.98544 0.59404 0.61534 0.0
C2080 C 0.99234 0.59659 0.64878 0.0
H2081 H 0.03497 0.58698 0.41355 0.0
H2082 H 0.02748 0.58761 0.48096 0.0
C2083 C 0.9865 0.59719 0.68472 0.0
C2084 C 0.99181 0.59362 0.57742 0.0
H2085 H 0.99795 0.57487 0.49994 0.0
C2086 C 0.99813 0.60429 0.56479 0.0
C2087 C 0.99199 0.58277 0.55433 0.0
C2088 C 0.9859 0.57086 0.56739 0.0
C2089 C 0.00429 0.6045 0.52901 0.0
C2090 C 0.00412 0.59379 0.50552 0.0
C2091 C 0.99807 0.58304 0.51838 0.0
C2092 C 0.00907 0.59401 0.46578 0.0
C2093 C 0.01071 0.61621 0.5159 0.0
C2094 C 1.0012 0.59754 0.43554 0.0
C2095 C 0.00538 0.59717 0.39743 0.0
C2096 C 0.01755 0.59325 0.38876 0.0
C2097 C 0.02557 0.59005 0.41933 0.0
C2098 C 0.02131 0.59036 0.4577 0.0
H2099 H 0.01078 0.62348 0.53877 0.0
H2100 H 0.02043 0.6141 0.50739 0.0
H2101 H 0.00589 0.61995 0.48995 0.0
H2102 H 0.99174 0.60042 0.44144 0.0
H2103 H 0.99899 0.59983 0.37467 0.0
H2104 H 0.16372 0.28495 0.16704 0.0
H2105 H 0.16321 0.27718 0.23412 0.0
H2106 H 0.14876 0.24216 0.19367 0.0
H2107 H 0.1492 0.24971 0.12727 0.0
H2108 H 0.14091 0.26366 0.27785 0.0
H2109 H 0.18374 0.23593 0.25173 0.0
H2110 H 0.17996 0.24959 0.22374 0.0
H2111 H 0.1719 0.23528 0.215 0.0
C2112 C 0.16026 0.27567 0.1726 0.0
C2113 C 0.15669 0.26788 0.14183 0.0
C2114 C 0.15999 0.27126 0.2108 0.0
C2115 C 0.15612 0.25906 0.21846 0.0
C2116 C 0.15193 0.25155 0.1881 0.0
H2117 H 0.15708 0.20671 0.40832 0.0
H2118 H 0.15612 0.21709 0.34505 0.0
C2119 C 0.15222 0.2559 0.15019 0.0
C2120 C 0.15699 0.25373 0.2577 0.0
H2121 H 0.17293 0.23213 0.3101 0.0
C2122 C 0.14797 0.25687 0.28523 0.0
C2123 C 0.16612 0.24477 0.2667 0.0
C2124 C 0.17606 0.2412 0.23792 0.0
C2125 C 0.14765 0.25101 0.32153 0.0
C2126 C 0.1568 0.242 0.3306 0.0
C2127 C 0.16591 0.239 0.30306 0.0
C2128 C 0.15723 0.2357 0.36869 0.0
C2129 C 0.13728 0.25421 0.34922 0.0
C2130 C 0.15839 0.2427 0.40272 0.0
C2131 C 0.1588 0.23683 0.43864 0.0
C2132 C 0.15831 0.2238 0.44125 0.0
C2133 C 0.15745 0.21675 0.40713 0.0
C2134 C 0.1569 0.22267 0.37108 0.0
H2135 H 0.12916 0.25825 0.33384 0.0
H2136 H 0.13415 0.24591 0.36558 0.0
H2137 H 0.14065 0.26124 0.37029 0.0
H2138 H 0.15905 0.25273 0.40152 0.0
H2139 H 0.15956 0.24254 0.46435 0.0
H2140 H 0.5108 0.39763 0.21227 0.0
H2141 H 0.50069 0.39776 0.14905 0.0
H2142 H 0.53456 0.41099 0.0965 0.0
H2143 H 0.54487 0.41061 0.15989 0.0
H2144 H 0.49661 0.4176 0.10281 0.0
H2145 H 0.52507 0.38258 0.02535 0.0
H2146 H 0.52561 0.38446 0.07729 0.0
H2147 H 0.53418 0.39482 0.04633 0.0
C2148 C 0.51616 0.40044 0.18718 0.0
C2149 C 0.52864 0.40409 0.19092 0.0
C2150 C 0.51035 0.40051 0.15111 0.0
C2151 C 0.5169 0.40425 0.11804 0.0
C2152 C 0.52942 0.40781 0.12156 0.0
H2153 H 0.50194 0.42155 0.88337 0.0
H2154 H 0.50933 0.41923 0.94947 0.0
C2155 C 0.53529 0.40763 0.15774 0.0
C2156 C 0.5104 0.40499 0.08032 0.0
H2157 H 0.51173 0.39516 0.98647 0.0
C2158 C 0.49983 0.4126 0.07743 0.0
C2159 C 0.51456 0.39836 0.04743 0.0
C2160 C 0.5254 0.3895 0.04925 0.0
C2161 C 0.49359 0.41413 0.04205 0.0
C2162 C 0.49803 0.40784 0.00895 0.0
C2163 C 0.50839 0.39999 0.01204 0.0
C2164 C 0.49276 0.41001 0.97005 0.0
C2165 C 0.48261 0.4228 0.03988 0.0
C2166 C 0.48084 0.40579 0.95996 0.0
C2167 C 0.47652 0.40711 0.92187 0.0
C2168 C 0.48413 0.41258 0.89348 0.0
C2169 C 0.49588 0.41715 0.90431 0.0
C2170 C 0.50014 0.41585 0.94212 0.0
H2171 H 0.48135 0.42821 0.06702 0.0
H2172 H 0.48374 0.42937 0.01534 0.0
H2173 H 0.47404 0.41733 0.0346 0.0
H2174 H 0.47507 0.40116 0.98119 0.0
H2175 H 0.46745 0.40348 0.91438 0.0
H2176 H 0.15307 0.33081 0.08099 0.0
H2177 H 0.13929 0.34805 0.09856 0.0
H2178 H 0.10769 0.32352 0.09187 0.0
H2179 H 0.12132 0.30639 0.07346 0.0
H2180 H 0.10383 0.34512 0.05286 0.0
H2181 H 0.12193 0.35527 0.2004 0.0
H2182 H 0.13333 0.3557 0.16244 0.0
H2183 H 0.12589 0.34127 0.17444 0.0
C2184 C 0.1432 0.32908 0.08364 0.0
C2185 C 0.13829 0.31723 0.07588 0.0
C2186 C 0.13534 0.33893 0.09387 0.0
C2187 C 0.12246 0.33706 0.09699 0.0
C2188 C 0.11759 0.32519 0.08968 0.0
H2189 H 0.05539 0.3732 0.16257 0.0
H2190 H 0.07226 0.35952 0.14214 0.0
C2191 C 0.12541 0.31539 0.07922 0.0
C2192 C 0.11388 0.34746 0.10633 0.0
H2193 H 0.10597 0.36833 0.17691 0.0
C2194 C 0.10434 0.35022 0.07993 0.0
C2195 C 0.11461 0.3542 0.14154 0.0
C2196 C 0.12442 0.35143 0.17154 0.0
C2197 C 0.09536 0.3593 0.08813 0.0
C2198 C 0.09587 0.36574 0.12375 0.0
C2199 C 0.10564 0.36335 0.1496 0.0
C2200 C 0.08576 0.37424 0.13585 0.0
C2201 C 0.08528 0.36184 0.05883 0.0
C2202 C 0.08782 0.38706 0.13944 0.0
C2203 C 0.07813 0.39496 0.15093 0.0
C2204 C 0.06631 0.39011 0.15951 0.0
C2205 C 0.06436 0.37725 0.15613 0.0
C2206 C 0.07398 0.36941 0.14436 0.0
H2207 H 0.08779 0.35831 0.02959 0.0
H2208 H 0.07661 0.35714 0.06812 0.0
H2209 H 0.08335 0.37195 0.05684 0.0
H2210 H 0.09687 0.39095 0.13312 0.0
H2211 H 0.07993 0.40483 0.15344 0.0
H2212 H 0.87965 0.80596 0.40925 0.0
H2213 H 0.89339 0.82282 0.38911 0.0
H2214 H 0.86202 0.84753 0.38045 0.0
H2215 H 0.84809 0.83062 0.40048 0.0
H2216 H 0.89066 0.83813 0.31625 0.0
H2217 H 0.8887 0.86497 0.45432 0.0
H2218 H 0.88506 0.8486 0.45242 0.0
H2219 H 0.87436 0.85972 0.43295 0.0
C2220 C 0.87564 0.81496 0.40303 0.0
C2221 C 0.86278 0.81696 0.40653 0.0
C2222 C 0.88351 0.82458 0.39151 0.0
C2223 C 0.87872 0.83641 0.38364 0.0
C2224 C 0.86589 0.83846 0.38676 0.0
H2225 H 0.92268 0.90309 0.32967 0.0
H2226 H 0.90534 0.88923 0.34587 0.0
C2227 C 0.85796 0.8288 0.39803 0.0
C2228 C 0.88729 0.84649 0.3719 0.0
H2229 H 0.90217 0.87233 0.4058 0.0
C2230 C 0.89311 0.84568 0.33565 0.0
C2231 C 0.89036 0.85636 0.39718 0.0
C2232 C 0.88437 0.85754 0.43652 0.0
C2233 C 0.90213 0.85435 0.32426 0.0
C2234 C 0.90568 0.86388 0.3503 0.0
C2235 C 0.89951 0.86497 0.38601 0.0
C2236 C 0.91619 0.87237 0.34171 0.0
C2237 C 0.90778 0.8532 0.2844 0.0
C2238 C 0.9281 0.86752 0.33504 0.0
C2239 C 0.93799 0.87538 0.32575 0.0
C2240 C 0.9362 0.88828 0.32331 0.0
C2241 C 0.92435 0.89318 0.33125 0.0
C2242 C 0.91443 0.88529 0.34046 0.0
H2243 H 0.9015 0.84816 0.26424 0.0
H2244 H 0.90988 0.86247 0.27193 0.0
H2245 H 0.91658 0.84787 0.28639 0.0
H2246 H 0.92976 0.85762 0.33684 0.0
H2247 H 0.94701 0.8713 0.3201 0.0
H2248 H 0.34864 0.67082 0.57893 0.0
H2249 H 0.36259 0.65401 0.59956 0.0
H2250 H 0.39379 0.67901 0.59287 0.0
H2251 H 0.38001 0.69576 0.57228 0.0
H2252 H 0.3844 0.64489 0.55713 0.0
H2253 H 0.39611 0.66325 0.70285 0.0
H2254 H 0.38255 0.66822 0.6762 0.0
H2255 H 0.3976 0.67437 0.66434 0.0
C2256 C 0.35846 0.67275 0.58217 0.0
C2257 C 0.36322 0.68463 0.57408 0.0
C2258 C 0.3664 0.66313 0.59384 0.0
C2259 C 0.37919 0.66531 0.59811 0.0
C2260 C 0.38393 0.67718 0.59028 0.0
H2261 H 0.4471 0.62834 0.65436 0.0
H2262 H 0.43022 0.6424 0.6368 0.0
C2263 C 0.37604 0.68674 0.57838 0.0
C2264 C 0.38776 0.65517 0.60956 0.0
H2265 H 0.40907 0.64714 0.67832 0.0
C2266 C 0.3897 0.64526 0.58384 0.0
C2267 C 0.39464 0.65571 0.6444 0.0
C2268 C 0.39257 0.66589 0.67377 0.0
C2269 C 0.39877 0.63616 0.5912 0.0
C2270 C 0.40591 0.6369 0.62558 0.0
C2271 C 0.40366 0.64661 0.65185 0.0
C2272 C 0.41616 0.62806 0.63426 0.0
C2273 C 0.401 0.62616 0.56135 0.0
C2274 C 0.4139 0.61529 0.63851 0.0
C2275 C 0.42359 0.60718 0.64829 0.0
C2276 C 0.43568 0.61174 0.65441 0.0
C2277 C 0.43791 0.62452 0.64983 0.0
C2278 C 0.42825 0.63258 0.63988 0.0
H2279 H 0.3969 0.6286 0.53281 0.0
H2280 H 0.41109 0.62444 0.55743 0.0
H2281 H 0.39663 0.61739 0.57128 0.0
H2282 H 0.4046 0.61161 0.63511 0.0
H2283 H 0.42155 0.5974 0.65192 0.0
H2284 H 0.62329 0.19549 0.9102 0.0
H2285 H 0.60992 0.17833 0.89004 0.0
H2286 H 0.64167 0.15399 0.8849 0.0
H2287 H 0.65523 0.17121 0.90497 0.0
H2288 H 0.61363 0.1625 0.81791 0.0
H2289 H 0.61433 0.1368 0.95805 0.0
H2290 H 0.61768 0.15322 0.95557 0.0
H2291 H 0.62878 0.14221 0.93774 0.0
C2292 C 0.62747 0.1865 0.90472 0.0
C2293 C 0.64033 0.18471 0.90923 0.0
C2294 C 0.61981 0.17672 0.8932 0.0
C2295 C 0.6248 0.1649 0.88633 0.0
C2296 C 0.63764 0.16304 0.89042 0.0
H2297 H 0.58047 0.09817 0.833 0.0
H2298 H 0.59794 0.11177 0.85029 0.0
C2299 C 0.64537 0.17289 0.90169 0.0
C2300 C 0.61642 0.15466 0.87452 0.0
H2301 H 0.60105 0.12924 0.90929 0.0
C2302 C 0.61097 0.15515 0.8377 0.0
C2303 C 0.61308 0.14503 0.90032 0.0
C2304 C 0.61869 0.1442 0.94026 0.0
C2305 C 0.60199 0.14643 0.82626 0.0
C2306 C 0.59811 0.13719 0.85281 0.0
C2307 C 0.60396 0.13639 0.8891 0.0
C2308 C 0.5875 0.12882 0.84414 0.0
C2309 C 0.5967 0.14726 0.78585 0.0
C2310 C 0.57576 0.13387 0.83613 0.0
C2311 C 0.56582 0.12617 0.82619 0.0
C2312 C 0.56736 0.11322 0.82447 0.0
C2313 C 0.579 0.10811 0.83399 0.0
C2314 C 0.58899 0.11586 0.84381 0.0
H2315 H 0.60323 0.15199 0.76578 0.0
H2316 H 0.59455 0.1379 0.77407 0.0
H2317 H 0.58798 0.15275 0.78661 0.0
H2318 H 0.57429 0.14382 0.83724 0.0
H2319 H 0.55696 0.1304 0.81941 0.0
H2320 H 0.05586 0.63027 0.32402 0.0
H2321 H 0.07276 0.64392 0.34464 0.0
H2322 H 0.09733 0.61243 0.35315 0.0
H2323 H 0.08041 0.59863 0.33246 0.0
H2324 H 0.08752 0.64211 0.41577 0.0
H2325 H 0.1157 0.63792 0.28099 0.0
H2326 H 0.09942 0.63389 0.28245 0.0
H2327 H 0.11071 0.62379 0.30402 0.0
C2328 C 0.06484 0.62622 0.33036 0.0
C2329 C 0.0668 0.61337 0.3265 0.0
C2330 C 0.07448 0.63404 0.34215 0.0
C2331 C 0.08632 0.6292 0.34998 0.0
C2332 C 0.0883 0.61636 0.34674 0.0
H2333 H 0.15376 0.6718 0.40635 0.0
H2334 H 0.1395 0.65475 0.39029 0.0
C2335 C 0.07861 0.60849 0.33513 0.0
C2336 C 0.09647 0.63772 0.36173 0.0
H2337 H 0.12323 0.65132 0.32953 0.0
C2338 C 0.09538 0.64407 0.39706 0.0
C2339 C 0.10676 0.64016 0.33741 0.0
C2340 C 0.10827 0.63367 0.29895 0.0
C2341 C 0.10419 0.65296 0.40848 0.0
C2342 C 0.11419 0.65584 0.38337 0.0
C2343 C 0.11552 0.64917 0.34861 0.0
C2344 C 0.12295 0.66615 0.39188 0.0
C2345 C 0.1027 0.65915 0.44745 0.0
C2346 C 0.11844 0.67827 0.39704 0.0
C2347 C 0.12652 0.68797 0.40637 0.0
C2348 C 0.13934 0.68581 0.41021 0.0
C2349 C 0.14393 0.67375 0.40367 0.0
C2350 C 0.1358 0.66401 0.39454 0.0
H2351 H 0.09724 0.65327 0.4677 0.0
H2352 H 0.11186 0.66118 0.46084 0.0
H2353 H 0.09762 0.66803 0.44372 0.0
H2354 H 0.10862 0.68023 0.39403 0.0
H2355 H 0.12269 0.69716 0.4108 0.0
H2356 H 0.62256 0.80482 0.5781 0.0
H2357 H 0.60857 0.82167 0.59677 0.0
H2358 H 0.63936 0.84726 0.59803 0.0
H2359 H 0.65349 0.8304 0.57923 0.0
H2360 H 0.6101 0.8378 0.66407 0.0
H2361 H 0.61309 0.86348 0.5244 0.0
H2362 H 0.61776 0.84743 0.5289 0.0
H2363 H 0.6275 0.85953 0.54777 0.0
C2364 C 0.62639 0.81402 0.58249 0.0
C2365 C 0.63914 0.81628 0.57706 0.0
C2366 C 0.61837 0.82363 0.59315 0.0
C2367 C 0.62289 0.83574 0.59827 0.0
C2368 C 0.63565 0.83802 0.59366 0.0
H2369 H 0.58005 0.90346 0.64779 0.0
H2370 H 0.59695 0.88902 0.63178 0.0
C2371 C 0.64372 0.82836 0.58318 0.0
C2372 C 0.61415 0.84588 0.6085 0.0
H2373 H 0.6 0.87183 0.5725 0.0
C2374 C 0.60793 0.84528 0.64416 0.0
C2375 C 0.61142 0.85567 0.58257 0.0
C2376 C 0.6177 0.85661 0.54361 0.0
C2377 C 0.59894 0.85413 0.65444 0.0
C2378 C 0.59583 0.86367 0.6279 0.0
C2379 C 0.60233 0.86448 0.5927 0.0
C2380 C 0.58553 0.87253 0.63564 0.0
C2381 C 0.59289 0.85322 0.69379 0.0
C2382 C 0.57344 0.86809 0.6419 0.0
C2383 C 0.56382 0.87628 0.65114 0.0
C2384 C 0.56604 0.88912 0.65386 0.0
C2385 C 0.57805 0.89362 0.64597 0.0
C2386 C 0.58771 0.88538 0.63689 0.0
H2387 H 0.59882 0.84803 0.71457 0.0
H2388 H 0.59093 0.86256 0.70598 0.0
H2389 H 0.58397 0.84813 0.69104 0.0
H2390 H 0.57146 0.85825 0.64003 0.0
H2391 H 0.55466 0.87252 0.65667 0.0
H2392 H 0.4216 0.40277 0.8312 0.0
H2393 H 0.40485 0.38861 0.85066 0.0
H2394 H 0.43069 0.35803 0.85079 0.0
H2395 H 0.44743 0.37203 0.83125 0.0
H2396 H 0.39714 0.36611 0.80832 0.0
H2397 H 0.41289 0.3565 0.95848 0.0
H2398 H 0.41794 0.36995 0.93148 0.0
H2399 H 0.42471 0.35501 0.92195 0.0
C2400 C 0.42374 0.39305 0.83574 0.0
C2401 C 0.43585 0.38852 0.82979 0.0
C2402 C 0.41415 0.38498 0.84672 0.0
C2403 C 0.41656 0.37231 0.85247 0.0
C2404 C 0.42867 0.36781 0.84697 0.0
H2405 H 0.37912 0.30483 0.91161 0.0
H2406 H 0.39339 0.32154 0.89434 0.0
C2407 C 0.43821 0.37582 0.8357 0.0
C2408 C 0.40641 0.36362 0.86298 0.0
H2409 H 0.39722 0.34327 0.93307 0.0
C2410 C 0.39704 0.36119 0.83574 0.0
C2411 C 0.40635 0.35725 0.89874 0.0
C2412 C 0.41594 0.35985 0.92956 0.0
C2413 C 0.38788 0.35214 0.84268 0.0
C2414 C 0.38798 0.34555 0.87817 0.0
C2415 C 0.39717 0.34827 0.9058 0.0
C2416 C 0.37903 0.33539 0.8867 0.0
C2417 C 0.37852 0.34936 0.81132 0.0
C2418 C 0.36617 0.33758 0.888 0.0
C2419 C 0.35794 0.32797 0.89761 0.0
C2420 C 0.36245 0.31605 0.90653 0.0
C2421 C 0.37532 0.3139 0.90492 0.0
C2422 C 0.38351 0.32345 0.89513 0.0
H2423 H 0.38154 0.35299 0.78271 0.0
H2424 H 0.37691 0.33921 0.80869 0.0
H2425 H 0.36955 0.35384 0.8188 0.0
H2426 H 0.3625 0.34676 0.88239 0.0
H2427 H 0.34808 0.32995 0.8989 0.0
H2428 H 0.85125 0.17699 0.11087 0.0
H2429 H 0.86581 0.16077 0.13197 0.0
H2430 H 0.89111 0.17137 0.04078 0.0
H2431 H 0.87703 0.18802 0.02154 0.0
H2432 H 0.87558 0.14088 0.10284 0.0
H2433 H 0.91408 0.17365 0.12928 0.0
H2434 H 0.8986 0.17889 0.11822 0.0
H2435 H 0.90913 0.17453 0.07985 0.0
C2436 C 0.85996 0.17584 0.09551 0.0
C2437 C 0.86315 0.18388 0.06508 0.0
C2438 C 0.86826 0.16657 0.10749 0.0
C2439 C 0.87978 0.16507 0.08877 0.0
C2440 C 0.88256 0.17265 0.05682 0.0
H2441 H 0.92795 0.0998 0.11521 0.0
H2442 H 0.91164 0.11434 0.09498 0.0
C2443 C 0.87446 0.18211 0.04562 0.0
C2444 C 0.88898 0.15574 0.10276 0.0
H2445 H 0.91958 0.15223 0.12602 0.0
C2446 C 0.88518 0.14338 0.10831 0.0
C2447 C 0.90147 0.159 0.1108 0.0
C2448 C 0.90601 0.17227 0.10966 0.0
C2449 C 0.89355 0.13419 0.12096 0.0
C2450 C 0.90622 0.13731 0.12657 0.0
C2451 C 0.90994 0.14971 0.12138 0.0
C2452 C 0.91581 0.12811 0.13901 0.0
C2453 C 0.88857 0.12136 0.12921 0.0
C2454 C 0.92395 0.13111 0.1695 0.0
C2455 C 0.93356 0.12307 0.1798 0.0
C2456 C 0.9351 0.11169 0.16059 0.0
C2457 C 0.92687 0.10849 0.13065 0.0
C2458 C 0.91746 0.11675 0.11942 0.0
H2459 H 0.8785 0.12163 0.13632 0.0
H2460 H 0.88969 0.11548 0.10302 0.0
H2461 H 0.89357 0.11691 0.15366 0.0
H2462 H 0.92292 0.13975 0.18527 0.0
H2463 H 0.93972 0.1257 0.20324 0.0
H2464 H 0.84766 0.67129 0.90513 0.0
H2465 H 0.86189 0.65426 0.88864 0.0
H2466 H 0.89214 0.68037 0.88021 0.0
H2467 H 0.87812 0.6973 0.89755 0.0
H2468 H 0.87697 0.64957 0.82584 0.0
H2469 H 0.90563 0.6556 0.95754 0.0
H2470 H 0.89072 0.66304 0.95173 0.0
H2471 H 0.90443 0.6697 0.93019 0.0
C2472 C 0.85734 0.67339 0.89954 0.0
C2473 C 0.8618 0.68561 0.90306 0.0
C2474 C 0.86545 0.66365 0.89018 0.0
C2475 C 0.87815 0.66599 0.88419 0.0
C2476 C 0.88247 0.67828 0.88588 0.0
H2477 H 0.94485 0.63042 0.81302 0.0
H2478 H 0.92774 0.64397 0.83233 0.0
C2479 C 0.87441 0.68797 0.89553 0.0
C2480 C 0.88698 0.65568 0.87638 0.0
H2481 H 0.91461 0.64342 0.90656 0.0
C2482 C 0.88511 0.6481 0.84376 0.0
C2483 C 0.89753 0.65366 0.90007 0.0
C2484 C 0.89964 0.66084 0.93706 0.0
C2485 C 0.89387 0.63901 0.83306 0.0
C2486 C 0.90471 0.63746 0.8557 0.0
C2487 C 0.90633 0.64471 0.88908 0.0
C2488 C 0.9149 0.62899 0.84393 0.0
C2489 C 0.89175 0.63148 0.79679 0.0
C2490 C 0.91338 0.61604 0.84447 0.0
C2491 C 0.9232 0.60822 0.83359 0.0
C2492 C 0.93467 0.61326 0.82196 0.0
C2493 C 0.93614 0.62623 0.82176 0.0
C2494 C 0.92637 0.634 0.83279 0.0
H2495 H 0.88377 0.635 0.77958 0.0
H2496 H 0.9002 0.63156 0.77832 0.0
H2497 H 0.88983 0.62169 0.80485 0.0
H2498 H 0.90463 0.61199 0.85349 0.0
H2499 H 0.92178 0.59827 0.83408 0.0
H2500 H 0.15568 0.17095 0.58177 0.0
H2501 H 0.14144 0.15395 0.59846 0.0
H2502 H 0.11031 0.1789 0.58741 0.0
H2503 H 0.12436 0.19577 0.57013 0.0
H2504 H 0.12437 0.15135 0.65802 0.0
H2505 H 0.1003 0.15054 0.51645 0.0
H2506 H 0.11476 0.15869 0.52386 0.0
H2507 H 0.10025 0.16573 0.53778 0.0
C2508 C 0.1458 0.1728 0.58296 0.0
C2509 C 0.14114 0.18468 0.57429 0.0
C2510 C 0.13768 0.16308 0.59246 0.0
C2511 C 0.12479 0.16508 0.5933 0.0
C2512 C 0.12019 0.17704 0.58588 0.0
H2513 H 0.05725 0.13094 0.66255 0.0
H2514 H 0.07459 0.14406 0.64218 0.0
C2515 C 0.12826 0.18671 0.57626 0.0
C2516 C 0.11604 0.1548 0.60234 0.0
H2517 H 0.08982 0.14041 0.56913 0.0
C2518 C 0.11693 0.1488 0.63836 0.0
C2519 C 0.1064 0.1514 0.5765 0.0
C2520 C 0.10543 0.15683 0.53633 0.0
C2521 C 0.10804 0.13999 0.65001 0.0
C2522 C 0.09806 0.13711 0.62495 0.0
C2523 C 0.09744 0.14273 0.58839 0.0
C2524 C 0.0877 0.12894 0.63713 0.0
C2525 C 0.10903 0.13419 0.68964 0.0
C2526 C 0.08932 0.11605 0.64061 0.0
C2527 C 0.07937 0.10848 0.652 0.0
C2528 C 0.06768 0.11371 0.66027 0.0
C2529 C 0.06613 0.12662 0.6565 0.0
C2530 C 0.07602 0.13414 0.64485 0.0
H2531 H 0.11664 0.13833 0.70714 0.0
H2532 H 0.10013 0.13529 0.70559 0.0
H2533 H 0.11083 0.12409 0.68654 0.0
H2534 H 0.09825 0.11186 0.63441 0.0
H2535 H 0.08086 0.09857 0.65466 0.0
H2536 H 0.55569 0.37326 0.33278 0.0
H2537 H 0.57297 0.35968 0.34992 0.0
H2538 H 0.59816 0.39078 0.34428 0.0
H2539 H 0.58076 0.40454 0.32804 0.0
H2540 H 0.59319 0.35466 0.30561 0.0
H2541 H 0.60822 0.37502 0.44611 0.0
H2542 H 0.59356 0.37892 0.42379 0.0
H2543 H 0.60774 0.38569 0.40618 0.0
C2544 C 0.56487 0.37726 0.33568 0.0
C2545 C 0.56685 0.38999 0.32912 0.0
C2546 C 0.57476 0.36947 0.34541 0.0
C2547 C 0.58687 0.3742 0.34869 0.0
C2548 C 0.58887 0.38695 0.3427 0.0
H2549 H 0.65467 0.3305 0.39713 0.0
H2550 H 0.64099 0.34756 0.37646 0.0
C2551 C 0.57893 0.3948 0.33327 0.0
C2552 C 0.59735 0.36554 0.3564 0.0
H2553 H 0.62001 0.35821 0.42193 0.0
C2554 C 0.59908 0.35549 0.33097 0.0
C2555 C 0.60514 0.36668 0.38927 0.0
C2556 C 0.60355 0.37709 0.41813 0.0
C2557 C 0.60812 0.34638 0.33804 0.0
C2558 C 0.61559 0.34728 0.37158 0.0
C2559 C 0.61425 0.35757 0.39622 0.0
C2560 C 0.62402 0.33704 0.38323 0.0
C2561 C 0.60952 0.33576 0.30983 0.0
C2562 C 0.61898 0.32554 0.39401 0.0
C2563 C 0.62671 0.31586 0.4059 0.0
C2564 C 0.63967 0.31746 0.40723 0.0
C2565 C 0.64473 0.32897 0.39619 0.0
C2566 C 0.63695 0.33872 0.38452 0.0
H2567 H 0.60552 0.33806 0.28104 0.0
H2568 H 0.61944 0.33322 0.30607 0.0
H2569 H 0.60453 0.32753 0.32128 0.0
H2570 H 0.60902 0.32411 0.39368 0.0
H2571 H 0.6225 0.30714 0.41432 0.0
H2572 H 0.34855 0.83014 0.07955 0.0
H2573 H 0.36273 0.84733 0.09484 0.0
H2574 H 0.3941 0.823 0.07798 0.0
H2575 H 0.3801 0.80594 0.06217 0.0
H2576 H 0.38072 0.8498 0.15217 0.0
H2577 H 0.40245 0.85197 0.00705 0.0
H2578 H 0.38823 0.84357 0.01613 0.0
H2579 H 0.40303 0.83664 0.02732 0.0
C2580 C 0.35848 0.82847 0.07917 0.0
C2581 C 0.36321 0.8167 0.06934 0.0
C2582 C 0.36656 0.8383 0.08785 0.0
C2583 C 0.37948 0.83652 0.08666 0.0
C2584 C 0.38418 0.82468 0.07803 0.0
H2585 H 0.44723 0.87153 0.14984 0.0
H2586 H 0.43006 0.85825 0.1289 0.0
C2587 C 0.37614 0.8149 0.06927 0.0
C2588 C 0.38817 0.8469 0.09498 0.0
H2589 H 0.41355 0.86201 0.05869 0.0
C2590 C 0.38777 0.85263 0.13153 0.0
C2591 C 0.39732 0.85065 0.0679 0.0
C2592 C 0.39772 0.84548 0.02726 0.0
C2593 C 0.39668 0.86152 0.14241 0.0
C2594 C 0.40617 0.86477 0.11598 0.0
C2595 C 0.4063 0.85941 0.07896 0.0
C2596 C 0.41653 0.87309 0.12716 0.0
C2597 C 0.39625 0.86699 0.18262 0.0
C2598 C 0.41464 0.88587 0.1324 0.0
C2599 C 0.42448 0.89353 0.14408 0.0
C2600 C 0.43634 0.88848 0.15092 0.0
C2601 C 0.43821 0.8757 0.14492 0.0
C2602 C 0.42842 0.8681 0.13295 0.0
H2603 H 0.3891 0.86249 0.20109 0.0
H2604 H 0.40545 0.86605 0.19689 0.0
H2605 H 0.3941 0.87705 0.18068 0.0
H2606 H 0.40554 0.8899 0.12771 0.0
H2607 H 0.42274 0.90333 0.14851 0.0
H2608 H 0.91987 0.40473 0.65883 0.0
H2609 H 0.90256 0.39084 0.64214 0.0
H2610 H 0.92784 0.35978 0.63907 0.0
H2611 H 0.94501 0.37345 0.65646 0.0
H2612 H 0.89842 0.37538 0.57945 0.0
H2613 H 0.90151 0.34761 0.71379 0.0
H2614 H 0.90941 0.36228 0.70817 0.0
H2615 H 0.91609 0.34826 0.68876 0.0
C2616 C 0.92172 0.39494 0.6545 0.0
C2617 C 0.93378 0.39017 0.65936 0.0
C2618 C 0.91183 0.38702 0.64501 0.0
C2619 C 0.91385 0.37422 0.6403 0.0
C2620 C 0.92598 0.36955 0.64369 0.0
H2621 H 0.87914 0.30771 0.56662 0.0
H2622 H 0.89228 0.32487 0.58795 0.0
C2623 C 0.93581 0.37741 0.65339 0.0
C2624 C 0.90341 0.36563 0.63159 0.0
H2625 H 0.89018 0.3384 0.66115 0.0
C2626 C 0.89646 0.3674 0.59759 0.0
C2627 C 0.90077 0.35528 0.65553 0.0
C2628 C 0.90725 0.35331 0.69381 0.0
C2629 C 0.88747 0.3587 0.58577 0.0
C2630 C 0.88535 0.34803 0.60869 0.0
C2631 C 0.89191 0.34654 0.64348 0.0
C2632 C 0.87711 0.3378 0.59573 0.0
C2633 C 0.88068 0.36067 0.54804 0.0
C2634 C 0.86418 0.33935 0.5934 0.0
C2635 C 0.85659 0.32949 0.58133 0.0
C2636 C 0.86184 0.31795 0.57136 0.0
C2637 C 0.87479 0.31646 0.57402 0.0
C2638 C 0.88232 0.32626 0.58621 0.0
H2639 H 0.88458 0.36855 0.53118 0.0
H2640 H 0.8811 0.35214 0.53001 0.0
H2641 H 0.87076 0.36266 0.55411 0.0
H2642 H 0.85996 0.34814 0.60111 0.0
H2643 H 0.84664 0.33092 0.57961 0.0
H2644 H 0.38193 0.19562 0.40725 0.0
H2645 H 0.39569 0.1784 0.3906 0.0
H2646 H 0.36436 0.15343 0.38884 0.0
H2647 H 0.35045 0.17074 0.40464 0.0
H2648 H 0.39995 0.15746 0.43275 0.0
H2649 H 0.38145 0.14484 0.28758 0.0
H2650 H 0.3774 0.15918 0.31155 0.0
H2651 H 0.37019 0.14487 0.32598 0.0
C2652 C 0.37793 0.1865 0.4029 0.0
C2653 C 0.36509 0.18455 0.40715 0.0
C2654 C 0.38582 0.17665 0.39346 0.0
C2655 C 0.38107 0.16463 0.38811 0.0
C2656 C 0.36822 0.16266 0.39203 0.0
H2657 H 0.42332 0.0967 0.33338 0.0
H2658 H 0.40662 0.11069 0.35468 0.0
C2659 C 0.36029 0.17255 0.40122 0.0
C2660 C 0.38974 0.15419 0.38004 0.0
H2661 H 0.39763 0.13235 0.31242 0.0
C2662 C 0.3994 0.15195 0.40648 0.0
C2663 C 0.38897 0.14691 0.34593 0.0
C2664 C 0.37902 0.1491 0.31592 0.0
C2665 C 0.40845 0.14284 0.3994 0.0
C2666 C 0.4079 0.13585 0.36477 0.0
C2667 C 0.39801 0.13774 0.33895 0.0
C2668 C 0.41803 0.12722 0.35352 0.0
C2669 C 0.41859 0.14082 0.4289 0.0
C2670 C 0.42993 0.1319 0.34575 0.0
C2671 C 0.43943 0.12398 0.33349 0.0
C2672 C 0.43723 0.1112 0.32874 0.0
C2673 C 0.42532 0.10649 0.33699 0.0
C2674 C 0.41577 0.11446 0.34902 0.0
H2675 H 0.41589 0.14439 0.45791 0.0
H2676 H 0.42092 0.13081 0.43146 0.0
H2677 H 0.42707 0.14584 0.41954 0.0
H2678 H 0.43182 0.14174 0.34849 0.0
H2679 H 0.44847 0.12792 0.32726 0.0
H2680 H 0.62239 0.69596 0.07633 0.0
H2681 H 0.60916 0.6788 0.09727 0.0
H2682 H 0.64103 0.65459 0.10164 0.0
H2683 H 0.65442 0.6718 0.08071 0.0
H2684 H 0.619 0.64513 0.05985 0.0
H2685 H 0.60821 0.66258 0.20734 0.0
H2686 H 0.60633 0.67389 0.16954 0.0
H2687 H 0.62152 0.66783 0.17993 0.0
C2688 C 0.62663 0.68702 0.082 0.0
C2689 C 0.63946 0.68525 0.07699 0.0
C2690 C 0.61905 0.67723 0.09408 0.0
C2691 C 0.62414 0.66547 0.10133 0.0
C2692 C 0.63695 0.66363 0.09635 0.0
H2693 H 0.58128 0.59741 0.15341 0.0
H2694 H 0.59865 0.61124 0.13728 0.0
C2695 C 0.64458 0.67347 0.08453 0.0
C2696 C 0.6159 0.65511 0.11302 0.0
H2697 H 0.59514 0.64655 0.18273 0.0
C2698 C 0.6139 0.6453 0.08694 0.0
C2699 C 0.60931 0.65538 0.14841 0.0
C2700 C 0.6115 0.66542 0.17814 0.0
C2701 C 0.60493 0.6361 0.0944 0.0
C2702 C 0.59797 0.63665 0.12918 0.0
C2703 C 0.6004 0.64619 0.15595 0.0
C2704 C 0.58755 0.62801 0.13744 0.0
C2705 C 0.60255 0.62625 0.06418 0.0
C2706 C 0.57559 0.63283 0.14331 0.0
C2707 C 0.56572 0.625 0.15289 0.0
C2708 C 0.56759 0.61215 0.15678 0.0
C2709 C 0.57953 0.60726 0.15033 0.0
C2710 C 0.58946 0.61515 0.14096 0.0
H2711 H 0.60673 0.6287 0.03576 0.0
H2712 H 0.60672 0.61736 0.0739 0.0
H2713 H 0.59243 0.62475 0.06013 0.0
H2714 H 0.57389 0.64271 0.14073 0.0
H2715 H 0.55664 0.62907 0.1576 0.0
H2716 H 0.08164 0.9058 0.82489 0.0
H2717 H 0.09889 0.89169 0.84015 0.0
H2718 H 0.07332 0.86089 0.84364 0.0
H2719 H 0.05618 0.8748 0.82773 0.0
H2720 H 0.10329 0.87582 0.90191 0.0
H2721 H 0.099 0.84896 0.76586 0.0
H2722 H 0.09133 0.86369 0.77302 0.0
H2723 H 0.08463 0.84964 0.79205 0.0
C2724 C 0.07971 0.89603 0.82912 0.0
C2725 C 0.06757 0.89139 0.82473 0.0
C2726 C 0.08957 0.88798 0.83776 0.0
C2727 C 0.08744 0.87519 0.84207 0.0
C2728 C 0.07525 0.87066 0.83933 0.0
H2729 H 0.12264 0.80826 0.90992 0.0
H2730 H 0.10935 0.8254 0.88931 0.0
C2731 C 0.06543 0.87865 0.8305 0.0
C2732 C 0.09787 0.86646 0.84944 0.0
H2733 H 0.11082 0.83944 0.81675 0.0
C2734 C 0.10508 0.86797 0.88302 0.0
C2735 C 0.10029 0.85629 0.82452 0.0
C2736 C 0.09349 0.85461 0.78664 0.0
C2737 C 0.11416 0.85918 0.89345 0.0
C2738 C 0.11609 0.84869 0.86951 0.0
C2739 C 0.10924 0.84745 0.83518 0.0
C2740 C 0.12444 0.83838 0.88107 0.0
C2741 C 0.12123 0.86086 0.93081 0.0
C2742 C 0.13738 0.83995 0.88266 0.0
C2743 C 0.14506 0.8301 0.89428 0.0
C2744 C 0.13988 0.81857 0.90458 0.0
C2745 C 0.12693 0.81702 0.9023 0.0
C2746 C 0.11931 0.82681 0.89051 0.0
H2747 H 0.11746 0.86859 0.94862 0.0
H2748 H 0.12096 0.85218 0.94816 0.0
H2749 H 0.13111 0.86291 0.92417 0.0
H2750 H 0.14153 0.84877 0.875 0.0
H2751 H 0.155 0.83158 0.89572 0.0
loop_
_geom_bond_atom_site_label_1
_geom_bond_atom_site_label_2
_geom_bond_distance
_geom_bond_site_symmetry_2
_ccdc_geom_bond_type
Co0 O1 2.216 . S
Co0 O2 2.091 . S
Co0 O4 2.004 . S
Co0 O10 2.021 . S
Co0 O12 2.137 1_554 S
Co0 O13 2.244 . S
O1 Co0 2.216 . S
O1 C8 1.247 . S
O2 Co0 2.091 . S
O2 C8 1.261 . S
C3 O12 1.247 . S
C3 O13 1.272 1_556 S
O4 Co0 2.004 . S
O4 C9 1.259 . S
Co5 O6 2.061 . S
Co5 O11 2.052 . S
Co5 O13 2.135 . S
O6 Co5 2.061 . S
O6 C9 1.235 . S
C7 O10 1.238 . S
C7 O11 1.241 . S
C8 O1 1.247 . S
C8 O2 1.261 . S
C9 O4 1.259 . S
C9 O6 1.235 . S
O10 Co0 2.021 . S
O10 C7 1.238 . S
O11 Co5 2.052 . S
O11 C7 1.241 . S
O12 Co0 2.137 1_556 S
O12 C3 1.247 . S
O13 Co0 2.244 . S
O13 C3 1.272 1_554 S
O13 Co5 2.135 . S
Co14 O15 2.216 . S
Co14 O16 2.091 . S
Co14 O18 2.004 . S
Co14 O24 2.021 . S
Co14 O26 2.137 . S
Co14 O27 2.244 . S
O15 Co14 2.216 . S
O15 C22 1.247 . S
O16 Co14 2.091 . S
O16 C22 1.261 . S
C17 O26 1.247 . S
C17 O27 1.272 . S
O18 Co14 2.004 . S
O18 C23 1.259 . S
Co19 O20 2.061 . S
Co19 O25 2.052 . S
Co19 O27 2.135 . S
O20 Co19 2.061 . S
O20 C23 1.235 . S
C21 O24 1.238 . S
C21 O25 1.241 . S
C22 O15 1.247 . S
C22 O16 1.261 . S
C23 O18 1.259 . S
C23 O20 1.235 . S
O24 Co14 2.021 . S
O24 C21 1.238 . S
O25 Co19 2.052 . S
O25 C21 1.241 . S
O26 Co14 2.137 . S
O26 C17 1.247 . S
O27 Co14 2.244 . S
O27 C17 1.272 . S
O27 Co19 2.135 . S
Co28 O29 2.216 . S
Co28 O30 2.091 . S
Co28 O32 2.004 . S
Co28 O38 2.021 . S
Co28 O40 2.137 . S
Co28 O41 2.244 . S
O29 Co28 2.216 . S
O29 C36 1.247 . S
O30 Co28 2.091 . S
O30 C36 1.261 . S
C31 O40 1.247 . S
C31 O41 1.272 . S
O32 Co28 2.004 . S
O32 C37 1.259 . S
Co33 O34 2.061 . S
Co33 O39 2.052 . S
Co33 O41 2.135 . S
O34 Co33 2.061 . S
O34 C37 1.235 . S
C35 O38 1.238 . S
C35 O39 1.241 . S
C36 O29 1.247 . S
C36 O30 1.261 . S
C37 O32 1.259 . S
C37 O34 1.235 . S
O38 Co28 2.021 . S
O38 C35 1.238 . S
O39 Co33 2.052 . S
O39 C35 1.241 . S
O40 Co28 2.137 . S
O40 C31 1.247 . S
O41 Co28 2.244 . S
O41 C31 1.272 . S
O41 Co33 2.135 . S
Co42 O43 2.216 . S
Co42 O44 2.091 . S
Co42 O46 2.004 . S
Co42 O52 2.021 . S
Co42 O54 2.137 . S
Co42 O55 2.244 . S
O43 Co42 2.216 . S
O43 C50 1.247 . S
O44 Co42 2.091 . S
O44 C50 1.261 . S
C45 O54 1.247 . S
C45 O55 1.272 . S
O46 Co42 2.004 . S
O46 C51 1.259 . S
Co47 O48 2.061 . S
Co47 O53 2.052 . S
Co47 O55 2.135 . S
O48 Co47 2.061 . S
O48 C51 1.235 . S
C49 O52 1.238 . S
C49 O53 1.241 . S
C50 O43 1.247 . S
C50 O44 1.261 . S
C51 O46 1.259 . S
C51 O48 1.235 . S
O52 Co42 2.021 . S
O52 C49 1.238 . S
O53 Co47 2.052 . S
O53 C49 1.241 . S
O54 Co42 2.137 . S
O54 C45 1.247 . S
O55 Co42 2.244 . S
O55 C45 1.272 . S
O55 Co47 2.135 . S
Co56 O57 2.216 . S
Co56 O58 2.091 . S
Co56 O60 2.004 . S
Co56 O66 2.021 . S
Co56 O68 2.137 . S
Co56 O69 2.244 . S
O57 Co56 2.216 . S
O57 C64 1.247 . S
O58 Co56 2.091 . S
O58 C64 1.261 . S
C59 O68 1.247 . S
C59 O69 1.272 . S
O60 Co56 2.004 . S
O60 C65 1.259 . S
Co61 O62 2.061 . S
Co61 O67 2.052 . S
Co61 O69 2.135 . S
O62 Co61 2.061 . S
O62 C65 1.235 . S
C63 O66 1.238 . S
C63 O67 1.241 . S
C64 O57 1.247 . S
C64 O58 1.261 . S
C65 O60 1.259 . S
C65 O62 1.235 . S
O66 Co56 2.021 . S
O66 C63 1.238 . S
O67 Co61 2.052 . S
O67 C63 1.241 . S
O68 Co56 2.137 . S
O68 C59 1.247 . S
O69 Co56 2.244 . S
O69 C59 1.272 . S
O69 Co61 2.135 . S
Co70 O71 2.216 . S
Co70 O72 2.091 . S
Co70 O74 2.004 . S
Co70 O80 2.021 . S
Co70 O82 2.137 . S
Co70 O83 2.244 . S
O71 Co70 2.216 . S
O71 C78 1.247 . S
O72 Co70 2.091 . S
O72 C78 1.261 . S
C73 O82 1.247 . S
C73 O83 1.272 . S
O74 Co70 2.004 . S
O74 C79 1.259 . S
Co75 O76 2.061 . S
Co75 O81 2.052 . S
Co75 O83 2.135 . S
O76 Co75 2.061 . S
O76 C79 1.235 . S
C77 O80 1.238 . S
C77 O81 1.241 . S
C78 O71 1.247 . S
C78 O72 1.261 . S
C79 O74 1.259 . S
C79 O76 1.235 . S
O80 Co70 2.021 . S
O80 C77 1.238 . S
O81 Co75 2.052 . S
O81 C77 1.241 . S
O82 Co70 2.137 . S
O82 C73 1.247 . S
O83 Co70 2.244 . S
O83 C73 1.272 . S
O83 Co75 2.135 . S
Co84 O85 2.216 . S
Co84 O86 2.091 . S
Co84 O88 2.004 . S
Co84 O94 2.021 . S
Co84 O96 2.137 1_556 S
Co84 O97 2.244 . S
O85 Co84 2.216 . S
O85 C92 1.247 . S
O86 Co84 2.091 . S
O86 C92 1.261 . S
C87 O96 1.247 . S
C87 O97 1.272 1_554 S
O88 Co84 2.004 . S
O88 C93 1.259 . S
Co89 O90 2.061 . S
Co89 O95 2.052 . S
Co89 O97 2.135 . S
O90 Co89 2.061 . S
O90 C93 1.235 . S
C91 O94 1.238 . S
C91 O95 1.241 . S
C92 O85 1.247 . S
C92 O86 1.261 . S
C93 O88 1.259 . S
C93 O90 1.235 . S
O94 Co84 2.021 . S
O94 C91 1.238 . S
O95 Co89 2.052 . S
O95 C91 1.241 . S
O96 Co84 2.137 1_554 S
O96 C87 1.247 . S
O97 Co84 2.244 . S
O97 C87 1.272 1_556 S
O97 Co89 2.135 . S
Co98 O99 2.216 . S
Co98 O100 2.091 . S
Co98 O102 2.004 . S
Co98 O108 2.021 . S
Co98 O110 2.137 . S
Co98 O111 2.244 . S
O99 Co98 2.216 . S
O99 C106 1.247 . S
O100 Co98 2.091 . S
O100 C106 1.261 . S
C101 O110 1.247 . S
C101 O111 1.272 . S
O102 Co98 2.004 . S
O102 C107 1.259 . S
Co103 O104 2.061 . S
Co103 O109 2.052 . S
Co103 O111 2.135 . S
O104 Co103 2.061 . S
O104 C107 1.235 . S
C105 O108 1.238 . S
C105 O109 1.241 . S
C106 O99 1.247 . S
C106 O100 1.261 . S
C107 O102 1.259 . S
C107 O104 1.235 . S
O108 Co98 2.021 . S
O108 C105 1.238 . S
O109 Co103 2.052 . S
O109 C105 1.241 . S
O110 Co98 2.137 . S
O110 C101 1.247 . S
O111 Co98 2.244 . S
O111 C101 1.272 . S
O111 Co103 2.135 . S
Co112 O113 2.216 . S
Co112 O114 2.091 . S
Co112 O116 2.004 . S
Co112 O122 2.021 . S
Co112 O124 2.137 1_556 S
Co112 O125 2.244 . S
O113 Co112 2.216 . S
O113 C120 1.247 . S
O114 Co112 2.091 . S
O114 C120 1.261 . S
C115 O124 1.247 . S
C115 O125 1.272 1_554 S
O116 Co112 2.004 . S
O116 C121 1.259 . S
Co117 O118 2.061 . S
Co117 O123 2.052 . S
Co117 O125 2.135 . S
O118 Co117 2.061 . S
O118 C121 1.235 . S
C119 O122 1.238 . S
C119 O123 1.241 . S
C120 O113 1.247 . S
C120 O114 1.261 . S
C121 O116 1.259 . S
C121 O118 1.235 . S
O122 Co112 2.021 . S
O122 C119 1.238 . S
O123 Co117 2.052 . S
O123 C119 1.241 . S
O124 Co112 2.137 1_554 S
O124 C115 1.247 . S
O125 Co112 2.244 . S
O125 C115 1.272 1_556 S
O125 Co117 2.135 . S
Co126 O127 2.216 . S
Co126 O128 2.091 . S
Co126 O130 2.004 . S
Co126 O136 2.021 . S
Co126 O138 2.137 . S
Co126 O139 2.244 . S
O127 Co126 2.216 . S
O127 C134 1.247 . S
O128 Co126 2.091 . S
O128 C134 1.261 . S
C129 O138 1.247 . S
C129 O139 1.272 . S
O130 Co126 2.004 . S
O130 C135 1.259 . S
Co131 O132 2.061 . S
Co131 O137 2.052 . S
Co131 O139 2.135 . S
O132 Co131 2.061 . S
O132 C135 1.235 . S
C133 O136 1.238 . S
C133 O137 1.241 . S
C134 O127 1.247 . S
C134 O128 1.261 . S
C135 O130 1.259 . S
C135 O132 1.235 . S
O136 Co126 2.021 . S
O136 C133 1.238 . S
O137 Co131 2.052 . S
O137 C133 1.241 . S
O138 Co126 2.137 . S
O138 C129 1.247 . S
O139 Co126 2.244 . S
O139 C129 1.272 . S
O139 Co131 2.135 . S
Co140 O141 2.216 . S
Co140 O142 2.091 . S
Co140 O144 2.004 . S
Co140 O150 2.021 . S
Co140 O152 2.137 . S
Co140 O153 2.244 . S
O141 Co140 2.216 . S
O141 C148 1.247 . S
O142 Co140 2.091 . S
O142 C148 1.261 . S
C143 O152 1.247 . S
C143 O153 1.272 . S
O144 Co140 2.004 . S
O144 C149 1.259 . S
Co145 O146 2.061 . S
Co145 O151 2.052 . S
Co145 O153 2.135 . S
O146 Co145 2.061 . S
O146 C149 1.235 . S
C147 O150 1.238 . S
C147 O151 1.241 . S
C148 O141 1.247 . S
C148 O142 1.261 . S
C149 O144 1.259 . S
C149 O146 1.235 . S
O150 Co140 2.021 . S
O150 C147 1.238 . S
O151 Co145 2.052 . S
O151 C147 1.241 . S
O152 Co140 2.137 . S
O152 C143 1.247 . S
O153 Co140 2.244 . S
O153 C143 1.272 . S
O153 Co145 2.135 . S
Co154 O155 2.216 . S
Co154 O156 2.091 . S
Co154 O158 2.004 . S
Co154 O164 2.021 . S
Co154 O166 2.137 . S
Co154 O167 2.244 . S
O155 Co154 2.216 . S
O155 C162 1.247 . S
O156 Co154 2.091 . S
O156 C162 1.261 . S
C157 O166 1.247 . S
C157 O167 1.272 . S
O158 Co154 2.004 . S
O158 C163 1.259 . S
Co159 O160 2.061 . S
Co159 O165 2.052 . S
Co159 O167 2.135 . S
O160 Co159 2.061 . S
O160 C163 1.235 . S
C161 O164 1.238 . S
C161 O165 1.241 . S
C162 O155 1.247 . S
C162 O156 1.261 . S
C163 O158 1.259 . S
C163 O160 1.235 . S
O164 Co154 2.021 . S
O164 C161 1.238 . S
O165 Co159 2.052 . S
O165 C161 1.241 . S
O166 Co154 2.137 . S
O166 C157 1.247 . S
O167 Co154 2.244 . S
O167 C157 1.272 . S
O167 Co159 2.135 . S
Co168 O169 2.216 . S
Co168 O170 2.091 . S
Co168 O172 2.004 . S
Co168 O178 2.021 . S
Co168 O180 2.137 . S
Co168 O181 2.244 . S
O169 Co168 2.216 . S
O169 C176 1.247 . S
O170 Co168 2.091 . S
O170 C176 1.261 . S
C171 O180 1.247 . S
C171 O181 1.272 . S
O172 Co168 2.004 . S
O172 C177 1.259 . S
Co173 O174 2.061 . S
Co173 O179 2.052 . S
Co173 O181 2.135 . S
O174 Co173 2.061 . S
O174 C177 1.235 . S
C175 O178 1.238 . S
C175 O179 1.241 . S
C176 O169 1.247 . S
C176 O170 1.261 . S
C177 O172 1.259 . S
C177 O174 1.235 . S
O178 Co168 2.021 . S
O178 C175 1.238 . S
O179 Co173 2.052 . S
O179 C175 1.241 . S
O180 Co168 2.137 . S
O180 C171 1.247 . S
O181 Co168 2.244 . S
O181 C171 1.272 . S
O181 Co173 2.135 . S
Co182 O183 2.216 . S
Co182 O184 2.091 . S
Co182 O186 2.004 . S
Co182 O192 2.021 . S
Co182 O194 2.137 . S
Co182 O195 2.244 . S
O183 Co182 2.216 . S
O183 C190 1.247 . S
O184 Co182 2.091 . S
O184 C190 1.261 . S
C185 O194 1.247 . S
C185 O195 1.272 . S
O186 Co182 2.004 . S
O186 C191 1.259 . S
Co187 O188 2.061 . S
Co187 O193 2.052 . S
Co187 O195 2.135 . S
O188 Co187 2.061 . S
O188 C191 1.235 . S
C189 O192 1.238 . S
C189 O193 1.241 . S
C190 O183 1.247 . S
C190 O184 1.261 . S
C191 O186 1.259 . S
C191 O188 1.235 . S
O192 Co182 2.021 . S
O192 C189 1.238 . S
O193 Co187 2.052 . S
O193 C189 1.241 . S
O194 Co182 2.137 . S
O194 C185 1.247 . S
O195 Co182 2.244 . S
O195 C185 1.272 . S
O195 Co187 2.135 . S
Co196 O197 2.216 . S
Co196 O198 2.091 . S
Co196 O200 2.004 . S
Co196 O206 2.021 . S
Co196 O208 2.137 1_554 S
Co196 O209 2.244 . S
O197 Co196 2.216 . S
O197 C204 1.247 . S
O198 Co196 2.091 . S
O198 C204 1.261 . S
C199 O208 1.247 . S
C199 O209 1.272 1_556 S
O200 Co196 2.004 . S
O200 C205 1.259 . S
Co201 O202 2.061 . S
Co201 O207 2.052 . S
Co201 O209 2.135 . S
O202 Co201 2.061 . S
O202 C205 1.235 . S
C203 O206 1.238 . S
C203 O207 1.241 . S
C204 O197 1.247 . S
C204 O198 1.261 . S
C205 O200 1.259 . S
C205 O202 1.235 . S
O206 Co196 2.021 . S
O206 C203 1.238 . S
O207 Co201 2.052 . S
O207 C203 1.241 . S
O208 Co196 2.137 1_556 S
O208 C199 1.247 . S
O209 Co196 2.244 . S
O209 C199 1.272 1_554 S
O209 Co201 2.135 . S
Co210 O211 2.216 . S
Co210 O212 2.091 . S
Co210 O214 2.004 . S
Co210 O220 2.021 . S
Co210 O222 2.137 . S
Co210 O223 2.244 . S
O211 Co210 2.216 . S
O211 C218 1.247 . S
O212 Co210 2.091 . S
O212 C218 1.261 . S
C213 O222 1.247 . S
C213 O223 1.272 . S
O214 Co210 2.004 . S
O214 C219 1.259 . S
Co215 O216 2.061 . S
Co215 O221 2.052 . S
Co215 O223 2.135 . S
O216 Co215 2.061 . S
O216 C219 1.235 . S
C217 O220 1.238 . S
C217 O221 1.241 . S
C218 O211 1.247 . S
C218 O212 1.261 . S
C219 O214 1.259 . S
C219 O216 1.235 . S
O220 Co210 2.021 . S
O220 C217 1.238 . S
O221 Co215 2.052 . S
O221 C217 1.241 . S
O222 Co210 2.137 . S
O222 C213 1.247 . S
O223 Co210 2.244 . S
O223 C213 1.272 . S
O223 Co215 2.135 . S
Co224 O225 2.216 . S
Co224 O226 2.091 . S
Co224 O228 2.004 . S
Co224 O234 2.021 . S
Co224 O236 2.137 . S
Co224 O237 2.244 . S
O225 Co224 2.216 . S
O225 C232 1.247 . S
O226 Co224 2.091 . S
O226 C232 1.261 . S
C227 O236 1.247 . S
C227 O237 1.272 . S
O228 Co224 2.004 . S
O228 C233 1.259 . S
Co229 O230 2.061 . S
Co229 O235 2.052 . S
Co229 O237 2.135 . S
O230 Co229 2.061 . S
O230 C233 1.235 . S
C231 O234 1.238 . S
C231 O235 1.241 . S
C232 O225 1.247 . S
C232 O226 1.261 . S
C233 O228 1.259 . S
C233 O230 1.235 . S
O234 Co224 2.021 . S
O234 C231 1.238 . S
O235 Co229 2.052 . S
O235 C231 1.241 . S
O236 Co224 2.137 . S
O236 C227 1.247 . S
O237 Co224 2.244 . S
O237 C227 1.272 . S
O237 Co229 2.135 . S
Co238 O239 2.216 . S
Co238 O240 2.091 . S
Co238 O242 2.004 . S
Co238 O248 2.021 . S
Co238 O250 2.137 . S
Co238 O251 2.244 . S
O239 Co238 2.216 . S
O239 C246 1.247 . S
O240 Co238 2.091 . S
O240 C246 1.261 . S
C241 O250 1.247 . S
C241 O251 1.272 . S
O242 Co238 2.004 . S
O242 C247 1.259 . S
Co243 O244 2.061 . S
Co243 O249 2.052 . S
Co243 O251 2.135 . S
O244 Co243 2.061 . S
O244 C247 1.235 . S
C245 O248 1.238 . S
C245 O249 1.241 . S
C246 O239 1.247 . S
C246 O240 1.261 . S
C247 O242 1.259 . S
C247 O244 1.235 . S
O248 Co238 2.021 . S
O248 C245 1.238 . S
O249 Co243 2.052 . S
O249 C245 1.241 . S
O250 Co238 2.137 . S
O250 C241 1.247 . S
O251 Co238 2.244 . S
O251 C241 1.272 . S
O251 Co243 2.135 . S
Co252 O253 2.216 . S
Co252 O254 2.091 . S
Co252 O256 2.004 . S
Co252 O262 2.021 . S
Co252 O264 2.137 1_554 S
Co252 O265 2.244 . S
O253 Co252 2.216 . S
O253 C260 1.247 . S
O254 Co252 2.091 . S
O254 C260 1.261 . S
C255 O264 1.247 . S
C255 O265 1.272 1_556 S
O256 Co252 2.004 . S
O256 C261 1.259 . S
Co257 O258 2.061 . S
Co257 O263 2.052 . S
Co257 O265 2.135 . S
O258 Co257 2.061 . S
O258 C261 1.235 . S
C259 O262 1.238 . S
C259 O263 1.241 . S
C260 O253 1.247 . S
C260 O254 1.261 . S
C261 O256 1.259 . S
C261 O258 1.235 . S
O262 Co252 2.021 . S
O262 C259 1.238 . S
O263 Co257 2.052 . S
O263 C259 1.241 . S
O264 Co252 2.137 1_556 S
O264 C255 1.247 . S
O265 Co252 2.244 . S
O265 C255 1.272 1_554 S
O265 Co257 2.135 . S
Co266 O267 2.216 . S
Co266 O268 2.091 . S
Co266 O270 2.004 . S
Co266 O276 2.021 . S
Co266 O278 2.137 . S
Co266 O279 2.244 . S
O267 Co266 2.216 . S
O267 C274 1.247 . S
O268 Co266 2.091 . S
O268 C274 1.261 . S
C269 O278 1.247 . S
C269 O279 1.272 . S
O270 Co266 2.004 . S
O270 C275 1.259 . S
Co271 O272 2.061 . S
Co271 O277 2.052 . S
Co271 O279 2.135 . S
O272 Co271 2.061 . S
O272 C275 1.235 . S
C273 O276 1.238 . S
C273 O277 1.241 . S
C274 O267 1.247 . S
C274 O268 1.261 . S
C275 O270 1.259 . S
C275 O272 1.235 . S
O276 Co266 2.021 . S
O276 C273 1.238 . S
O277 Co271 2.052 . S
O277 C273 1.241 . S
O278 Co266 2.137 . S
O278 C269 1.247 . S
O279 Co266 2.244 . S
O279 C269 1.272 . S
O279 Co271 2.135 . S
Co280 O281 2.216 . S
Co280 O282 2.091 . S
Co280 O284 2.004 . S
Co280 O290 2.021 . S
Co280 O292 2.137 1_556 S
Co280 O293 2.244 . S
O281 Co280 2.216 . S
O281 C288 1.247 . S
O282 Co280 2.091 . S
O282 C288 1.261 . S
C283 O292 1.247 . S
C283 O293 1.272 1_554 S
O284 Co280 2.004 . S
O284 C289 1.259 . S
Co285 O286 2.061 . S
Co285 O291 2.052 . S
Co285 O293 2.135 . S
O286 Co285 2.061 . S
O286 C289 1.235 . S
C287 O290 1.238 . S
C287 O291 1.241 . S
C288 O281 1.247 . S
C288 O282 1.261 . S
C289 O284 1.259 . S
C289 O286 1.235 . S
O290 Co280 2.021 . S
O290 C287 1.238 . S
O291 Co285 2.052 . S
O291 C287 1.241 . S
O292 Co280 2.137 1_554 S
O292 C283 1.247 . S
O293 Co280 2.244 . S
O293 C283 1.272 1_556 S
O293 Co285 2.135 . S
Co294 O295 2.216 . S
Co294 O296 2.091 . S
Co294 O298 2.004 . S
Co294 O304 2.021 . S
Co294 O306 2.137 . S
Co294 O307 2.244 . S
O295 Co294 2.216 . S
O295 C302 1.247 . S
O296 Co294 2.091 . S
O296 C302 1.261 . S
C297 O306 1.247 . S
C297 O307 1.272 . S
O298 Co294 2.004 . S
O298 C303 1.259 . S
Co299 O300 2.061 . S
Co299 O305 2.052 . S
Co299 O307 2.135 . S
O300 Co299 2.061 . S
O300 C303 1.235 . S
C301 O304 1.238 . S
C301 O305 1.241 . S
C302 O295 1.247 . S
C302 O296 1.261 . S
C303 O298 1.259 . S
C303 O300 1.235 . S
O304 Co294 2.021 . S
O304 C301 1.238 . S
O305 Co299 2.052 . S
O305 C301 1.241 . S
O306 Co294 2.137 . S
O306 C297 1.247 . S
O307 Co294 2.244 . S
O307 C297 1.272 . S
O307 Co299 2.135 . S
Co308 O309 2.216 . S
Co308 O310 2.091 . S
Co308 O312 2.004 . S
Co308 O318 2.021 . S
Co308 O320 2.137 . S
Co308 O321 2.244 . S
O309 Co308 2.216 . S
O309 C316 1.247 . S
O310 Co308 2.091 . S
O310 C316 1.261 . S
C311 O320 1.247 . S
C311 O321 1.272 . S
O312 Co308 2.004 . S
O312 C317 1.259 . S
Co313 O314 2.061 . S
Co313 O319 2.052 . S
Co313 O321 2.135 . S
O314 Co313 2.061 . S
O314 C317 1.235 . S
C315 O318 1.238 . S
C315 O319 1.241 . S
C316 O309 1.247 . S
C316 O310 1.261 . S
C317 O312 1.259 . S
C317 O314 1.235 . S
O318 Co308 2.021 . S
O318 C315 1.238 . S
O319 Co313 2.052 . S
O319 C315 1.241 . S
O320 Co308 2.137 . S
O320 C311 1.247 . S
O321 Co308 2.244 . S
O321 C311 1.272 . S
O321 Co313 2.135 . S
Co322 O323 2.216 . S
Co322 O324 2.091 . S
Co322 O326 2.004 . S
Co322 O332 2.021 . S
Co322 O334 2.137 . S
Co322 O335 2.244 . S
O323 Co322 2.216 . S
O323 C330 1.247 . S
O324 Co322 2.091 . S
O324 C330 1.261 . S
C325 O334 1.247 . S
C325 O335 1.272 . S
O326 Co322 2.004 . S
O326 C331 1.259 . S
Co327 O328 2.061 . S
Co327 O333 2.052 . S
Co327 O335 2.135 . S
O328 Co327 2.061 . S
O328 C331 1.235 . S
C329 O332 1.238 . S
C329 O333 1.241 . S
C330 O323 1.247 . S
C330 O324 1.261 . S
C331 O326 1.259 . S
C331 O328 1.235 . S
O332 Co322 2.021 . S
O332 C329 1.238 . S
O333 Co327 2.052 . S
O333 C329 1.241 . S
O334 Co322 2.137 . S
O334 C325 1.247 . S
O335 Co322 2.244 . S
O335 C325 1.272 . S
O335 Co327 2.135 . S
Co336 O337 2.216 . S
Co336 O338 2.091 . S
Co336 O340 2.004 . S
Co336 O346 2.021 . S
Co336 O348 2.137 . S
Co336 O349 2.244 . S
O337 Co336 2.216 . S
O337 C344 1.247 . S
O338 Co336 2.091 . S
O338 C344 1.261 . S
C339 O348 1.247 . S
C339 O349 1.272 . S
O340 Co336 2.004 . S
O340 C345 1.259 . S
Co341 O342 2.061 . S
Co341 O347 2.052 . S
Co341 O349 2.135 . S
O342 Co341 2.061 . S
O342 C345 1.235 . S
C343 O346 1.238 . S
C343 O347 1.241 . S
C344 O337 1.247 . S
C344 O338 1.261 . S
C345 O340 1.259 . S
C345 O342 1.235 . S
O346 Co336 2.021 . S
O346 C343 1.238 . S
O347 Co341 2.052 . S
O347 C343 1.241 . S
O348 Co336 2.137 . S
O348 C339 1.247 . S
O349 Co336 2.244 . S
O349 C339 1.272 . S
O349 Co341 2.135 . S
Co350 O351 2.216 . S
Co350 O352 2.091 . S
Co350 O354 2.004 . S
Co350 O360 2.021 . S
Co350 O362 2.137 . S
Co350 O363 2.244 . S
O351 Co350 2.216 . S
O351 C358 1.247 . S
O352 Co350 2.091 . S
O352 C358 1.261 . S
C353 O362 1.247 . S
C353 O363 1.272 . S
O354 Co350 2.004 . S
O354 C359 1.259 . S
Co355 O356 2.061 . S
Co355 O361 2.052 . S
Co355 O363 2.135 . S
O356 Co355 2.061 . S
O356 C359 1.235 . S
C357 O360 1.238 . S
C357 O361 1.241 . S
C358 O351 1.247 . S
C358 O352 1.261 . S
C359 O354 1.259 . S
C359 O356 1.235 . S
O360 Co350 2.021 . S
O360 C357 1.238 . S
O361 Co355 2.052 . S
O361 C357 1.241 . S
O362 Co350 2.137 . S
O362 C353 1.247 . S
O363 Co350 2.244 . S
O363 C353 1.272 . S
O363 Co355 2.135 . S
Co364 O365 2.216 . S
Co364 O366 2.091 . S
Co364 O368 2.004 . S
Co364 O374 2.021 . S
Co364 O376 2.137 1_556 S
Co364 O377 2.244 . S
O365 Co364 2.216 . S
O365 C372 1.247 . S
O366 Co364 2.091 . S
O366 C372 1.261 . S
C367 O376 1.247 . S
C367 O377 1.272 1_554 S
O368 Co364 2.004 . S
O368 C373 1.259 . S
Co369 O370 2.061 . S
Co369 O375 2.052 . S
Co369 O377 2.135 . S
O370 Co369 2.061 . S
O370 C373 1.235 . S
C371 O374 1.238 . S
C371 O375 1.241 . S
C372 O365 1.247 . S
C372 O366 1.261 . S
C373 O368 1.259 . S
C373 O370 1.235 . S
O374 Co364 2.021 . S
O374 C371 1.238 . S
O375 Co369 2.052 . S
O375 C371 1.241 . S
O376 Co364 2.137 1_554 S
O376 C367 1.247 . S
O377 Co364 2.244 . S
O377 C367 1.272 1_556 S
O377 Co369 2.135 . S
Co378 O379 2.216 . S
Co378 O380 2.091 . S
Co378 O382 2.004 . S
Co378 O388 2.021 . S
Co378 O390 2.137 . S
Co378 O391 2.244 . S
O379 Co378 2.216 . S
O379 C386 1.247 . S
O380 Co378 2.091 . S
O380 C386 1.261 . S
C381 O390 1.247 . S
C381 O391 1.272 . S
O382 Co378 2.004 . S
O382 C387 1.259 . S
Co383 O384 2.061 . S
Co383 O389 2.052 . S
Co383 O391 2.135 . S
O384 Co383 2.061 . S
O384 C387 1.235 . S
C385 O388 1.238 . S
C385 O389 1.241 . S
C386 O379 1.247 . S
C386 O380 1.261 . S
C387 O382 1.259 . S
C387 O384 1.235 . S
O388 Co378 2.021 . S
O388 C385 1.238 . S
O389 Co383 2.052 . S
O389 C385 1.241 . S
O390 Co378 2.137 . S
O390 C381 1.247 . S
O391 Co378 2.244 . S
O391 C381 1.272 . S
O391 Co383 2.135 . S
Co392 O393 2.216 . S
Co392 O394 2.091 . S
Co392 O396 2.004 . S
Co392 O402 2.021 . S
Co392 O404 2.137 1_554 S
Co392 O405 2.244 . S
O393 Co392 2.216 . S
O393 C400 1.247 . S
O394 Co392 2.091 . S
O394 C400 1.261 . S
C395 O404 1.247 . S
C395 O405 1.272 1_556 S
O396 Co392 2.004 . S
O396 C401 1.259 . S
Co397 O398 2.061 . S
Co397 O403 2.052 . S
Co397 O405 2.135 . S
O398 Co397 2.061 . S
O398 C401 1.235 . S
C399 O402 1.238 . S
C399 O403 1.241 . S
C400 O393 1.247 . S
C400 O394 1.261 . S
C401 O396 1.259 . S
C401 O398 1.235 . S
O402 Co392 2.021 . S
O402 C399 1.238 . S
O403 Co397 2.052 . S
O403 C399 1.241 . S
O404 Co392 2.137 1_556 S
O404 C395 1.247 . S
O405 Co392 2.244 . S
O405 C395 1.272 1_554 S
O405 Co397 2.135 . S
Co406 O407 2.216 . S
Co406 O408 2.091 . S
Co406 O410 2.004 . S
Co406 O416 2.021 . S
Co406 O418 2.137 . S
Co406 O419 2.244 . S
O407 Co406 2.216 . S
O407 C414 1.247 . S
O408 Co406 2.091 . S
O408 C414 1.261 . S
C409 O418 1.247 . S
C409 O419 1.272 . S
O410 Co406 2.004 . S
O410 C415 1.259 . S
Co411 O412 2.061 . S
Co411 O417 2.052 . S
Co411 O419 2.135 . S
O412 Co411 2.061 . S
O412 C415 1.235 . S
C413 O416 1.238 . S
C413 O417 1.241 . S
C414 O407 1.247 . S
C414 O408 1.261 . S
C415 O410 1.259 . S
C415 O412 1.235 . S
O416 Co406 2.021 . S
O416 C413 1.238 . S
O417 Co411 2.052 . S
O417 C413 1.241 . S
O418 Co406 2.137 . S
O418 C409 1.247 . S
O419 Co406 2.244 . S
O419 C409 1.272 . S
O419 Co411 2.135 . S
Co420 O421 2.216 . S
Co420 O422 2.091 . S
Co420 O424 2.004 . S
Co420 O430 2.021 . S
Co420 O432 2.137 . S
Co420 O433 2.244 . S
O421 Co420 2.216 . S
O421 C428 1.247 . S
O422 Co420 2.091 . S
O422 C428 1.261 . S
C423 O432 1.247 . S
C423 O433 1.272 . S
O424 Co420 2.004 . S
O424 C429 1.259 . S
Co425 O426 2.061 . S
Co425 O431 2.052 . S
Co425 O433 2.135 . S
O426 Co425 2.061 . S
O426 C429 1.235 . S
C427 O430 1.238 . S
C427 O431 1.241 . S
C428 O421 1.247 . S
C428 O422 1.261 . S
C429 O424 1.259 . S
C429 O426 1.235 . S
O430 Co420 2.021 . S
O430 C427 1.238 . S
O431 Co425 2.052 . S
O431 C427 1.241 . S
O432 Co420 2.137 . S
O432 C423 1.247 . S
O433 Co420 2.244 . S
O433 C423 1.272 . S
O433 Co425 2.135 . S
Co434 O435 2.216 . S
Co434 O436 2.091 . S
Co434 O438 2.004 . S
Co434 O444 2.021 . S
Co434 O446 2.137 . S
Co434 O447 2.244 . S
O435 Co434 2.216 . S
O435 C442 1.247 . S
O436 Co434 2.091 . S
O436 C442 1.261 . S
C437 O446 1.247 . S
C437 O447 1.272 . S
O438 Co434 2.004 . S
O438 C443 1.259 . S
Co439 O440 2.061 . S
Co439 O445 2.052 . S
Co439 O447 2.135 . S
O440 Co439 2.061 . S
O440 C443 1.235 . S
C441 O444 1.238 . S
C441 O445 1.241 . S
C442 O435 1.247 . S
C442 O436 1.261 . S
C443 O438 1.259 . S
C443 O440 1.235 . S
O444 Co434 2.021 . S
O444 C441 1.238 . S
O445 Co439 2.052 . S
O445 C441 1.241 . S
O446 Co434 2.137 . S
O446 C437 1.247 . S
O447 Co434 2.244 . S
O447 C437 1.272 . S
O447 Co439 2.135 . S
H448 C456 0.929 . S
H449 C458 0.930 . S
H450 C460 0.930 1_554 S
H451 C463 0.928 . S
H452 C466 0.930 . S
H453 C468 0.960 . S
H454 C468 0.960 . S
H455 C468 0.960 . S
C456 H448 0.929 . S
C456 C457 1.377 . S
C456 C458 1.384 . S
C457 C456 1.377 . S
C457 C463 1.390 . S
C458 H449 0.930 . S
C458 C456 1.384 . S
C458 C459 1.372 . S
C459 C458 1.372 . S
C459 C460 1.400 . S
C459 C464 1.490 . S
C460 H450 0.930 1_556 S
C460 C459 1.400 . S
C460 C463 1.386 . S
H461 C477 0.930 . S
H462 C478 0.931 . S
C463 H451 0.928 . S
C463 C457 1.390 . S
C463 C460 1.386 . S
C464 C459 1.490 . S
C464 C466 1.395 1_556 S
C464 C467 1.403 . S
H465 C471 0.930 . S
C466 H452 0.930 . S
C466 C464 1.395 1_554 S
C466 C469 1.403 . S
C467 C464 1.403 . S
C467 C468 1.524 . S
C467 C471 1.400 . S
C468 H453 0.960 . S
C468 H454 0.960 . S
C468 H455 0.960 . S
C468 C467 1.524 . S
C469 C466 1.403 . S
C469 C470 1.392 . S
C469 C473 1.495 . S
C470 C469 1.392 . S
C470 C471 1.385 1_554 S
C470 C472 1.478 . S
C471 H465 0.930 . S
C471 C467 1.400 . S
C471 C470 1.385 1_556 S
C472 C470 1.478 . S
C472 C474 1.381 . S
C472 C478 1.383 . S
C473 C469 1.495 . S
C473 H479 0.959 . S
C473 H480 0.961 . S
C473 H481 0.960 . S
C474 C472 1.381 . S
C474 C475 1.394 . S
C474 H482 0.930 1_554 S
C475 C474 1.394 . S
C475 C476 1.383 . S
C475 H483 0.929 1_554 S
C476 C475 1.383 . S
C476 C477 1.377 . S
C477 H461 0.930 . S
C477 C476 1.377 . S
C477 C478 1.379 . S
C478 H462 0.931 . S
C478 C472 1.383 . S
C478 C477 1.379 . S
H479 C473 0.959 . S
H480 C473 0.961 . S
H481 C473 0.960 . S
H482 C474 0.930 1_556 S
H483 C475 0.929 1_556 S
H484 C492 0.929 . S
H485 C494 0.930 . S
H486 C496 0.930 . S
H487 C499 0.929 . S
H488 C502 0.930 . S
H489 C504 0.960 . S
H490 C504 0.960 . S
H491 C504 0.960 . S
C492 H484 0.929 . S
C492 C493 1.377 . S
C492 C494 1.384 . S
C493 C492 1.377 . S
C493 C499 1.390 . S
C494 H485 0.930 . S
C494 C492 1.384 . S
C494 C495 1.372 . S
C495 C494 1.372 . S
C495 C496 1.400 . S
C495 C500 1.490 . S
C496 H486 0.930 . S
C496 C495 1.400 . S
C496 C499 1.386 . S
H497 C513 0.930 . S
H498 C514 0.931 . S
C499 H487 0.929 . S
C499 C493 1.390 . S
C499 C496 1.386 . S
C500 C495 1.490 . S
C500 C502 1.395 . S
C500 C503 1.403 . S
H501 C507 0.930 . S
C502 H488 0.930 . S
C502 C500 1.395 . S
C502 C505 1.403 1_565 S
C503 C500 1.403 . S
C503 C504 1.524 . S
C503 C507 1.400 1_565 S
C504 H489 0.960 . S
C504 H490 0.960 . S
C504 H491 0.960 . S
C504 C503 1.524 . S
C505 C502 1.403 1_545 S
C505 C506 1.392 . S
C505 C509 1.495 . S
C506 C505 1.392 . S
C506 C507 1.385 . S
C506 C508 1.478 . S
C507 H501 0.930 . S
C507 C503 1.400 1_545 S
C507 C506 1.385 . S
C508 C506 1.478 . S
C508 C510 1.381 . S
C508 C514 1.383 . S
C509 C505 1.495 . S
C509 H515 0.959 . S
C509 H516 0.961 . S
C509 H517 0.960 . S
C510 C508 1.381 . S
C510 C511 1.394 . S
C510 H518 0.930 . S
C511 C510 1.394 . S
C511 C512 1.383 . S
C511 H519 0.929 . S
C512 C511 1.383 . S
C512 C513 1.377 . S
C513 H497 0.930 . S
C513 C512 1.377 . S
C513 C514 1.379 . S
C514 H498 0.931 . S
C514 C508 1.383 . S
C514 C513 1.379 . S
H515 C509 0.959 . S
H516 C509 0.961 . S
H517 C509 0.960 . S
H518 C510 0.930 . S
H519 C511 0.929 . S
H520 C528 0.929 . S
H521 C530 0.930 . S
H522 C532 0.930 . S
H523 C535 0.929 . S
H524 C538 0.930 . S
H525 C540 0.960 . S
H526 C540 0.960 . S
H527 C540 0.960 . S
C528 H520 0.929 . S
C528 C529 1.377 . S
C528 C530 1.384 . S
C529 C528 1.377 . S
C529 C535 1.390 . S
C530 H521 0.930 . S
C530 C528 1.384 . S
C530 C531 1.372 . S
C531 C530 1.372 . S
C531 C532 1.400 . S
C531 C536 1.490 . S
C532 H522 0.930 . S
C532 C531 1.400 . S
C532 C535 1.386 . S
H533 C549 0.930 . S
H534 C550 0.931 . S
C535 H523 0.929 . S
C535 C529 1.390 . S
C535 C532 1.386 . S
C536 C531 1.490 . S
C536 C538 1.395 . S
C536 C539 1.403 . S
H537 C543 0.930 . S
C538 H524 0.930 . S
C538 C536 1.395 . S
C538 C541 1.403 . S
C539 C536 1.403 . S
C539 C540 1.524 . S
C539 C543 1.400 . S
C540 H525 0.960 . S
C540 H526 0.960 . S
C540 H527 0.960 . S
C540 C539 1.524 . S
C541 C538 1.403 . S
C541 C542 1.392 . S
C541 C545 1.495 . S
C542 C541 1.392 . S
C542 C543 1.385 . S
C542 C544 1.478 . S
C543 H537 0.930 . S
C543 C539 1.400 . S
C543 C542 1.385 . S
C544 C542 1.478 . S
C544 C546 1.381 . S
C544 C550 1.383 . S
C545 C541 1.495 . S
C545 H551 0.959 . S
C545 H552 0.961 . S
C545 H553 0.960 . S
C546 C544 1.381 . S
C546 C547 1.394 . S
C546 H554 0.930 . S
C547 C546 1.394 . S
C547 C548 1.383 . S
C547 H555 0.929 . S
C548 C547 1.383 . S
C548 C549 1.377 . S
C549 H533 0.930 . S
C549 C548 1.377 . S
C549 C550 1.379 . S
C550 H534 0.931 . S
C550 C544 1.383 . S
C550 C549 1.379 . S
H551 C545 0.959 . S
H552 C545 0.961 . S
H553 C545 0.960 . S
H554 C546 0.930 . S
H555 C547 0.929 . S
H556 C564 0.929 . S
H557 C566 0.930 . S
H558 C568 0.930 . S
H559 C571 0.929 . S
H560 C574 0.930 . S
H561 C576 0.960 . S
H562 C576 0.960 . S
H563 C576 0.960 . S
C564 H556 0.929 . S
C564 C565 1.377 . S
C564 C566 1.384 . S
C565 C564 1.377 . S
C565 C571 1.390 . S
C566 H557 0.930 . S
C566 C564 1.384 . S
C566 C567 1.372 . S
C567 C566 1.372 . S
C567 C568 1.400 . S
C567 C572 1.490 . S
C568 H558 0.930 . S
C568 C567 1.400 . S
C568 C571 1.386 . S
H569 C585 0.930 . S
H570 C586 0.931 . S
C571 H559 0.929 . S
C571 C565 1.390 . S
C571 C568 1.386 . S
C572 C567 1.490 . S
C572 C574 1.395 . S
C572 C575 1.403 . S
H573 C579 0.930 . S
C574 H560 0.930 . S
C574 C572 1.395 . S
C574 C577 1.403 1_545 S
C575 C572 1.403 . S
C575 C576 1.524 . S
C575 C579 1.400 1_545 S
C576 H561 0.960 . S
C576 H562 0.960 . S
C576 H563 0.960 . S
C576 C575 1.524 . S
C577 C574 1.403 1_565 S
C577 C578 1.392 . S
C577 C581 1.495 . S
C578 C577 1.392 . S
C578 C579 1.385 . S
C578 C580 1.478 . S
C579 H573 0.930 . S
C579 C575 1.400 1_565 S
C579 C578 1.385 . S
C580 C578 1.478 . S
C580 C582 1.381 . S
C580 C586 1.383 . S
C581 C577 1.495 . S
C581 H587 0.959 . S
C581 H588 0.961 . S
C581 H589 0.960 . S
C582 C580 1.381 . S
C582 C583 1.394 . S
C582 H590 0.930 . S
C583 C582 1.394 . S
C583 C584 1.383 . S
C583 H591 0.929 . S
C584 C583 1.383 . S
C584 C585 1.377 . S
C585 H569 0.930 . S
C585 C584 1.377 . S
C585 C586 1.379 . S
C586 H570 0.931 . S
C586 C580 1.383 . S
C586 C585 1.379 . S
H587 C581 0.959 . S
H588 C581 0.961 . S
H589 C581 0.960 . S
H590 C582 0.930 . S
H591 C583 0.929 . S
H592 C600 0.929 1_556 S
H593 C602 0.930 . S
H594 C604 0.930 . S
H595 C607 0.929 . S
H596 C610 0.930 . S
H597 C612 0.960 . S
H598 C612 0.960 . S
H599 C612 0.960 . S
C600 H592 0.929 1_554 S
C600 C601 1.377 . S
C600 C602 1.384 1_554 S
C601 C600 1.377 . S
C601 C607 1.390 . S
C602 H593 0.930 . S
C602 C600 1.384 1_556 S
C602 C603 1.372 1_556 S
C603 C602 1.372 1_554 S
C603 C604 1.400 . S
C603 C608 1.490 . S
C604 H594 0.930 . S
C604 C603 1.400 . S
C604 C607 1.386 . S
H605 C621 0.930 1_554 S
H606 C622 0.931 1_554 S
C607 H595 0.929 . S
C607 C601 1.390 . S
C607 C604 1.386 . S
C608 C603 1.490 . S
C608 C610 1.395 1_554 S
C608 C611 1.403 . S
H609 C615 0.930 . S
C610 H596 0.930 . S
C610 C608 1.395 1_556 S
C610 C613 1.403 . S
C611 C608 1.403 . S
C611 C612 1.524 . S
C611 C615 1.400 . S
C612 H597 0.960 . S
C612 H598 0.960 . S
C612 H599 0.960 . S
C612 C611 1.524 . S
C613 C610 1.403 . S
C613 C614 1.392 . S
C613 C617 1.495 . S
C614 C613 1.392 . S
C614 C615 1.385 1_556 S
C614 C616 1.478 . S
C615 H609 0.930 . S
C615 C611 1.400 . S
C615 C614 1.385 1_554 S
C616 C614 1.478 . S
C616 C618 1.381 . S
C616 C622 1.383 . S
C617 C613 1.495 . S
C617 H623 0.959 . S
C617 H624 0.961 . S
C617 H625 0.960 . S
C618 C616 1.381 . S
C618 C619 1.394 . S
C618 H626 0.930 . S
C619 C618 1.394 . S
C619 C620 1.383 . S
C619 H627 0.929 . S
C620 C619 1.383 . S
C620 C621 1.377 . S
C621 H605 0.930 1_556 S
C621 C620 1.377 . S
C621 C622 1.379 . S
C622 H606 0.931 1_556 S
C622 C616 1.383 . S
C622 C621 1.379 . S
H623 C617 0.959 . S
H624 C617 0.961 . S
H625 C617 0.960 . S
H626 C618 0.930 . S
H627 C619 0.929 . S
H628 C636 0.929 . S
H629 C638 0.930 . S
H630 C640 0.930 . S
H631 C643 0.929 . S
H632 C646 0.930 . S
H633 C648 0.960 . S
H634 C648 0.960 . S
H635 C648 0.960 . S
C636 H628 0.929 . S
C636 C637 1.377 . S
C636 C638 1.384 . S
C637 C636 1.377 . S
C637 C643 1.390 . S
C638 H629 0.930 . S
C638 C636 1.384 . S
C638 C639 1.372 . S
C639 C638 1.372 . S
C639 C640 1.400 . S
C639 C644 1.490 . S
C640 H630 0.930 . S
C640 C639 1.400 . S
C640 C643 1.386 . S
H641 C657 0.930 . S
H642 C658 0.931 . S
C643 H631 0.929 . S
C643 C637 1.390 . S
C643 C640 1.386 . S
C644 C639 1.490 . S
C644 C646 1.395 . S
C644 C647 1.403 . S
H645 C651 0.930 . S
C646 H632 0.930 . S
C646 C644 1.395 . S
C646 C649 1.403 1_565 S
C647 C644 1.403 . S
C647 C648 1.524 . S
C647 C651 1.400 1_565 S
C648 H633 0.960 . S
C648 H634 0.960 . S
C648 H635 0.960 . S
C648 C647 1.524 . S
C649 C646 1.403 1_545 S
C649 C650 1.392 . S
C649 C653 1.495 . S
C650 C649 1.392 . S
C650 C651 1.385 . S
C650 C652 1.478 . S
C651 H645 0.930 . S
C651 C647 1.400 1_545 S
C651 C650 1.385 . S
C652 C650 1.478 . S
C652 C654 1.381 . S
C652 C658 1.383 . S
C653 C649 1.495 . S
C653 H659 0.959 . S
C653 H660 0.961 . S
C653 H661 0.960 . S
C654 C652 1.381 . S
C654 C655 1.394 . S
C654 H662 0.930 . S
C655 C654 1.394 . S
C655 C656 1.383 . S
C655 H663 0.929 . S
C656 C655 1.383 . S
C656 C657 1.377 . S
C657 H641 0.930 . S
C657 C656 1.377 . S
C657 C658 1.379 . S
C658 H642 0.931 . S
C658 C652 1.383 . S
C658 C657 1.379 . S
H659 C653 0.959 . S
H660 C653 0.961 . S
H661 C653 0.960 . S
H662 C654 0.930 . S
H663 C655 0.929 . S
H664 C672 0.929 . S
H665 C674 0.930 . S
H666 C676 0.930 . S
H667 C679 0.929 . S
H668 C682 0.930 . S
H669 C684 0.960 . S
H670 C684 0.960 . S
H671 C684 0.960 . S
C672 H664 0.929 . S
C672 C673 1.377 . S
C672 C674 1.384 . S
C673 C672 1.377 . S
C673 C679 1.390 . S
C674 H665 0.930 . S
C674 C672 1.384 . S
C674 C675 1.372 . S
C675 C674 1.372 . S
C675 C676 1.400 . S
C675 C680 1.490 . S
C676 H666 0.930 . S
C676 C675 1.400 . S
C676 C679 1.386 . S
H677 C693 0.930 . S
H678 C694 0.931 . S
C679 H667 0.929 . S
C679 C673 1.390 . S
C679 C676 1.386 . S
C680 C675 1.490 . S
C680 C682 1.395 . S
C680 C683 1.403 . S
H681 C687 0.930 . S
C682 H668 0.930 . S
C682 C680 1.395 . S
C682 C685 1.403 . S
C683 C680 1.403 . S
C683 C684 1.524 . S
C683 C687 1.400 . S
C684 H669 0.960 . S
C684 H670 0.960 . S
C684 H671 0.960 . S
C684 C683 1.524 . S
C685 C682 1.403 . S
C685 C686 1.392 . S
C685 C689 1.495 . S
C686 C685 1.392 . S
C686 C687 1.385 . S
C686 C688 1.478 . S
C687 H681 0.930 . S
C687 C683 1.400 . S
C687 C686 1.385 . S
C688 C686 1.478 . S
C688 C690 1.381 . S
C688 C694 1.383 . S
C689 C685 1.495 . S
C689 H695 0.959 . S
C689 H696 0.961 . S
C689 H697 0.960 . S
C690 C688 1.381 . S
C690 C691 1.394 . S
C690 H698 0.930 . S
C691 C690 1.394 . S
C691 C692 1.383 . S
C691 H699 0.929 . S
C692 C691 1.383 . S
C692 C693 1.377 . S
C693 H677 0.930 . S
C693 C692 1.377 . S
C693 C694 1.379 . S
C694 H678 0.931 . S
C694 C688 1.383 . S
C694 C693 1.379 . S
H695 C689 0.959 . S
H696 C689 0.961 . S
H697 C689 0.960 . S
H698 C690 0.930 . S
H699 C691 0.929 . S
H700 C708 0.929 . S
H701 C710 0.930 . S
H702 C712 0.930 . S
H703 C715 0.929 . S
H704 C718 0.930 . S
H705 C720 0.960 . S
H706 C720 0.960 . S
H707 C720 0.960 . S
C708 H700 0.929 . S
C708 C709 1.377 . S
C708 C710 1.384 . S
C709 C708 1.377 . S
C709 C715 1.390 . S
C710 H701 0.930 . S
C710 C708 1.384 . S
C710 C711 1.372 . S
C711 C710 1.372 . S
C711 C712 1.400 . S
C711 C716 1.490 . S
C712 H702 0.930 . S
C712 C711 1.400 . S
C712 C715 1.386 . S
H713 C729 0.930 . S
H714 C730 0.931 . S
C715 H703 0.929 . S
C715 C709 1.390 . S
C715 C712 1.386 . S
C716 C711 1.490 . S
C716 C718 1.395 . S
C716 C719 1.403 . S
H717 C723 0.930 . S
C718 H704 0.930 . S
C718 C716 1.395 . S
C718 C721 1.403 1_565 S
C719 C716 1.403 . S
C719 C720 1.524 . S
C719 C723 1.400 1_565 S
C720 H705 0.960 . S
C720 H706 0.960 . S
C720 H707 0.960 . S
C720 C719 1.524 . S
C721 C718 1.403 1_545 S
C721 C722 1.392 . S
C721 C725 1.495 . S
C722 C721 1.392 . S
C722 C723 1.385 . S
C722 C724 1.478 . S
C723 H717 0.930 . S
C723 C719 1.400 1_545 S
C723 C722 1.385 . S
C724 C722 1.478 . S
C724 C726 1.381 . S
C724 C730 1.383 . S
C725 C721 1.495 . S
C725 H731 0.959 . S
C725 H732 0.961 . S
C725 H733 0.960 . S
C726 C724 1.381 . S
C726 C727 1.394 . S
C726 H734 0.930 . S
C727 C726 1.394 . S
C727 C728 1.383 . S
C727 H735 0.929 . S
C728 C727 1.383 . S
C728 C729 1.377 . S
C729 H713 0.930 . S
C729 C728 1.377 . S
C729 C730 1.379 . S
C730 H714 0.931 . S
C730 C724 1.383 . S
C730 C729 1.379 . S
H731 C725 0.959 . S
H732 C725 0.961 . S
H733 C725 0.960 . S
H734 C726 0.930 . S
H735 C727 0.929 . S
H736 C744 0.929 . S
H737 C746 0.930 . S
H738 C748 0.930 . S
H739 C751 0.929 . S
H740 C754 0.930 . S
H741 C756 0.960 . S
H742 C756 0.960 . S
H743 C756 0.960 . S
C744 H736 0.929 . S
C744 C745 1.377 . S
C744 C746 1.384 . S
C745 C744 1.377 . S
C745 C751 1.390 . S
C746 H737 0.930 . S
C746 C744 1.384 . S
C746 C747 1.372 . S
C747 C746 1.372 . S
C747 C748 1.400 . S
C747 C752 1.490 . S
C748 H738 0.930 . S
C748 C747 1.400 . S
C748 C751 1.386 . S
H749 C765 0.930 . S
H750 C766 0.931 . S
C751 H739 0.929 . S
C751 C745 1.390 . S
C751 C748 1.386 . S
C752 C747 1.490 . S
C752 C754 1.395 . S
C752 C755 1.403 . S
H753 C759 0.930 . S
C754 H740 0.930 . S
C754 C752 1.395 . S
C754 C757 1.403 . S
C755 C752 1.403 . S
C755 C756 1.524 . S
C755 C759 1.400 . S
C756 H741 0.960 . S
C756 H742 0.960 . S
C756 H743 0.960 . S
C756 C755 1.524 . S
C757 C754 1.403 . S
C757 C758 1.392 . S
C757 C761 1.495 . S
C758 C757 1.392 . S
C758 C759 1.385 . S
C758 C760 1.478 . S
C759 H753 0.930 . S
C759 C755 1.400 . S
C759 C758 1.385 . S
C760 C758 1.478 . S
C760 C762 1.381 . S
C760 C766 1.383 . S
C761 C757 1.495 . S
C761 H767 0.959 . S
C761 H768 0.961 . S
C761 H769 0.960 . S
C762 C760 1.381 . S
C762 C763 1.394 . S
C762 H770 0.930 . S
C763 C762 1.394 . S
C763 C764 1.383 . S
C763 H771 0.929 . S
C764 C763 1.383 . S
C764 C765 1.377 . S
C765 H749 0.930 . S
C765 C764 1.377 . S
C765 C766 1.379 . S
C766 H750 0.931 . S
C766 C760 1.383 . S
C766 C765 1.379 . S
H767 C761 0.959 . S
H768 C761 0.961 . S
H769 C761 0.960 . S
H770 C762 0.930 . S
H771 C763 0.929 . S
H772 C780 0.929 . S
H773 C782 0.930 . S
H774 C784 0.930 . S
H775 C787 0.929 . S
H776 C790 0.930 . S
H777 C792 0.960 . S
H778 C792 0.960 . S
H779 C792 0.960 . S
C780 H772 0.929 . S
C780 C781 1.377 . S
C780 C782 1.384 . S
C781 C780 1.377 . S
C781 C787 1.390 . S
C782 H773 0.930 . S
C782 C780 1.384 . S
C782 C783 1.372 . S
C783 C782 1.372 . S
C783 C784 1.400 . S
C783 C788 1.490 . S
C784 H774 0.930 . S
C784 C783 1.400 . S
C784 C787 1.386 . S
H785 C801 0.930 . S
H786 C802 0.931 . S
C787 H775 0.929 . S
C787 C781 1.390 . S
C787 C784 1.386 . S
C788 C783 1.490 . S
C788 C790 1.395 . S
C788 C791 1.403 . S
H789 C795 0.930 . S
C790 H776 0.930 . S
C790 C788 1.395 . S
C790 C793 1.403 . S
C791 C788 1.403 . S
C791 C792 1.524 . S
C791 C795 1.400 . S
C792 H777 0.960 . S
C792 H778 0.960 . S
C792 H779 0.960 . S
C792 C791 1.524 . S
C793 C790 1.403 . S
C793 C794 1.392 . S
C793 C797 1.495 . S
C794 C793 1.392 . S
C794 C795 1.385 . S
C794 C796 1.478 . S
C795 H789 0.930 . S
C795 C791 1.400 . S
C795 C794 1.385 . S
C796 C794 1.478 . S
C796 C798 1.381 . S
C796 C802 1.383 . S
C797 C793 1.495 . S
C797 H803 0.959 . S
C797 H804 0.961 . S
C797 H805 0.960 . S
C798 C796 1.381 . S
C798 C799 1.394 . S
C798 H806 0.930 . S
C799 C798 1.394 . S
C799 C800 1.383 . S
C799 H807 0.929 . S
C800 C799 1.383 . S
C800 C801 1.377 . S
C801 H785 0.930 . S
C801 C800 1.377 . S
C801 C802 1.379 . S
C802 H786 0.931 . S
C802 C796 1.383 . S
C802 C801 1.379 . S
H803 C797 0.959 . S
H804 C797 0.961 . S
H805 C797 0.960 . S
H806 C798 0.930 . S
H807 C799 0.929 . S
H808 C816 0.929 . S
H809 C818 0.930 . S
H810 C820 0.930 . S
H811 C823 0.929 . S
H812 C826 0.930 . S
H813 C828 0.960 . S
H814 C828 0.960 . S
H815 C828 0.960 . S
C816 H808 0.929 . S
C816 C817 1.377 . S
C816 C818 1.384 . S
C817 C816 1.377 . S
C817 C823 1.390 . S
C818 H809 0.930 . S
C818 C816 1.384 . S
C818 C819 1.372 . S
C819 C818 1.372 . S
C819 C820 1.400 . S
C819 C824 1.490 . S
C820 H810 0.930 . S
C820 C819 1.400 . S
C820 C823 1.386 . S
H821 C837 0.930 . S
H822 C838 0.931 . S
C823 H811 0.929 . S
C823 C817 1.390 . S
C823 C820 1.386 . S
C824 C819 1.490 . S
C824 C826 1.395 1_556 S
C824 C827 1.403 . S
H825 C831 0.930 . S
C826 H812 0.930 . S
C826 C824 1.395 1_554 S
C826 C829 1.403 . S
C827 C824 1.403 . S
C827 C828 1.524 . S
C827 C831 1.400 . S
C828 H813 0.960 . S
C828 H814 0.960 . S
C828 H815 0.960 . S
C828 C827 1.524 . S
C829 C826 1.403 . S
C829 C830 1.392 . S
C829 C833 1.495 . S
C830 C829 1.392 . S
C830 C831 1.385 1_554 S
C830 C832 1.478 . S
C831 H825 0.930 . S
C831 C827 1.400 . S
C831 C830 1.385 1_556 S
C832 C830 1.478 . S
C832 C834 1.381 . S
C832 C838 1.383 . S
C833 C829 1.495 . S
C833 H839 0.959 . S
C833 H840 0.961 . S
C833 H841 0.960 . S
C834 C832 1.381 . S
C834 C835 1.394 . S
C834 H842 0.930 . S
C835 C834 1.394 . S
C835 C836 1.383 . S
C835 H843 0.929 . S
C836 C835 1.383 . S
C836 C837 1.377 . S
C837 H821 0.930 . S
C837 C836 1.377 . S
C837 C838 1.379 . S
C838 H822 0.931 . S
C838 C832 1.383 . S
C838 C837 1.379 . S
H839 C833 0.959 . S
H840 C833 0.961 . S
H841 C833 0.960 . S
H842 C834 0.930 . S
H843 C835 0.929 . S
H844 C852 0.929 . S
H845 C854 0.930 . S
H846 C856 0.930 . S
H847 C859 0.929 . S
H848 C862 0.930 . S
H849 C864 0.960 . S
H850 C864 0.960 . S
H851 C864 0.960 . S
C852 H844 0.929 . S
C852 C853 1.377 . S
C852 C854 1.384 . S
C853 C852 1.377 . S
C853 C859 1.390 . S
C854 H845 0.930 . S
C854 C852 1.384 . S
C854 C855 1.372 . S
C855 C854 1.372 . S
C855 C856 1.400 . S
C855 C860 1.490 . S
C856 H846 0.930 . S
C856 C855 1.400 . S
C856 C859 1.386 . S
H857 C873 0.930 . S
H858 C874 0.931 . S
C859 H847 0.929 . S
C859 C853 1.390 . S
C859 C856 1.386 . S
C860 C855 1.490 . S
C860 C862 1.395 . S
C860 C863 1.403 . S
H861 C867 0.930 . S
C862 H848 0.930 . S
C862 C860 1.395 . S
C862 C865 1.403 . S
C863 C860 1.403 . S
C863 C864 1.524 . S
C863 C867 1.400 . S
C864 H849 0.960 . S
C864 H850 0.960 . S
C864 H851 0.960 . S
C864 C863 1.524 . S
C865 C862 1.403 . S
C865 C866 1.392 . S
C865 C869 1.495 . S
C866 C865 1.392 . S
C866 C867 1.385 . S
C866 C868 1.478 . S
C867 H861 0.930 . S
C867 C863 1.400 . S
C867 C866 1.385 . S
C868 C866 1.478 . S
C868 C870 1.381 . S
C868 C874 1.383 . S
C869 C865 1.495 . S
C869 H875 0.959 . S
C869 H876 0.961 . S
C869 H877 0.960 . S
C870 C868 1.381 . S
C870 C871 1.394 . S
C870 H878 0.930 . S
C871 C870 1.394 . S
C871 C872 1.383 . S
C871 H879 0.929 . S
C872 C871 1.383 . S
C872 C873 1.377 . S
C873 H857 0.930 . S
C873 C872 1.377 . S
C873 C874 1.379 . S
C874 H858 0.931 . S
C874 C868 1.383 . S
C874 C873 1.379 . S
H875 C869 0.959 . S
H876 C869 0.961 . S
H877 C869 0.960 . S
H878 C870 0.930 . S
H879 C871 0.929 . S
H880 C888 0.929 . S
H881 C890 0.930 . S
H882 C892 0.930 . S
H883 C895 0.929 . S
H884 C898 0.930 . S
H885 C900 0.960 . S
H886 C900 0.960 . S
H887 C900 0.960 . S
C888 H880 0.929 . S
C888 C889 1.377 . S
C888 C890 1.384 . S
C889 C888 1.377 . S
C889 C895 1.390 . S
C890 H881 0.930 . S
C890 C888 1.384 . S
C890 C891 1.372 . S
C891 C890 1.372 . S
C891 C892 1.400 . S
C891 C896 1.490 . S
C892 H882 0.930 . S
C892 C891 1.400 . S
C892 C895 1.386 . S
H893 C909 0.930 . S
H894 C910 0.931 . S
C895 H883 0.929 . S
C895 C889 1.390 . S
C895 C892 1.386 . S
C896 C891 1.490 . S
C896 C898 1.395 . S
C896 C899 1.403 . S
H897 C903 0.930 . S
C898 H884 0.930 . S
C898 C896 1.395 . S
C898 C901 1.403 . S
C899 C896 1.403 . S
C899 C900 1.524 . S
C899 C903 1.400 . S
C900 H885 0.960 . S
C900 H886 0.960 . S
C900 H887 0.960 . S
C900 C899 1.524 . S
C901 C898 1.403 . S
C901 C902 1.392 . S
C901 C905 1.495 . S
C902 C901 1.392 . S
C902 C903 1.385 . S
C902 C904 1.478 . S
C903 H897 0.930 . S
C903 C899 1.400 . S
C903 C902 1.385 . S
C904 C902 1.478 . S
C904 C906 1.381 . S
C904 C910 1.383 . S
C905 C901 1.495 . S
C905 H911 0.959 . S
C905 H912 0.961 . S
C905 H913 0.960 . S
C906 C904 1.381 . S
C906 C907 1.394 . S
C906 H914 0.930 . S
C907 C906 1.394 . S
C907 C908 1.383 . S
C907 H915 0.929 . S
C908 C907 1.383 . S
C908 C909 1.377 . S
C909 H893 0.930 . S
C909 C908 1.377 . S
C909 C910 1.379 . S
C910 H894 0.931 . S
C910 C904 1.383 . S
C910 C909 1.379 . S
H911 C905 0.959 . S
H912 C905 0.961 . S
H913 C905 0.960 . S
H914 C906 0.930 . S
H915 C907 0.929 . S
H916 C924 0.929 . S
H917 C926 0.930 . S
H918 C928 0.930 . S
H919 C931 0.929 . S
H920 C934 0.930 . S
H921 C936 0.960 . S
H922 C936 0.960 . S
H923 C936 0.960 . S
C924 H916 0.929 . S
C924 C925 1.377 . S
C924 C926 1.384 . S
C925 C924 1.377 . S
C925 C931 1.390 . S
C926 H917 0.930 . S
C926 C924 1.384 . S
C926 C927 1.372 . S
C927 C926 1.372 . S
C927 C928 1.400 . S
C927 C932 1.490 . S
C928 H918 0.930 . S
C928 C927 1.400 . S
C928 C931 1.386 . S
H929 C945 0.930 . S
H930 C946 0.931 . S
C931 H919 0.929 . S
C931 C925 1.390 . S
C931 C928 1.386 . S
C932 C927 1.490 . S
C932 C934 1.395 . S
C932 C935 1.403 . S
H933 C939 0.930 . S
C934 H920 0.930 . S
C934 C932 1.395 . S
C934 C937 1.403 . S
C935 C932 1.403 . S
C935 C936 1.524 . S
C935 C939 1.400 . S
C936 H921 0.960 . S
C936 H922 0.960 . S
C936 H923 0.960 . S
C936 C935 1.524 . S
C937 C934 1.403 . S
C937 C938 1.392 . S
C937 C941 1.495 . S
C938 C937 1.392 . S
C938 C939 1.385 . S
C938 C940 1.478 . S
C939 H933 0.930 . S
C939 C935 1.400 . S
C939 C938 1.385 . S
C940 C938 1.478 . S
C940 C942 1.381 . S
C940 C946 1.383 . S
C941 C937 1.495 . S
C941 H947 0.959 . S
C941 H948 0.961 . S
C941 H949 0.960 . S
C942 C940 1.381 . S
C942 C943 1.394 . S
C942 H950 0.930 . S
C943 C942 1.394 . S
C943 C944 1.383 . S
C943 H951 0.929 . S
C944 C943 1.383 . S
C944 C945 1.377 . S
C945 H929 0.930 . S
C945 C944 1.377 . S
C945 C946 1.379 . S
C946 H930 0.931 . S
C946 C940 1.383 . S
C946 C945 1.379 . S
H947 C941 0.959 . S
H948 C941 0.961 . S
H949 C941 0.960 . S
H950 C942 0.930 . S
H951 C943 0.929 . S
H952 C960 0.929 1_556 S
H953 C962 0.918 1_556 S
H954 C964 0.930 . S
H955 C967 0.929 . S
H956 C970 0.930 . S
H957 C972 0.960 . S
H958 C972 0.960 . S
H959 C972 0.960 . S
C960 H952 0.929 1_554 S
C960 C961 1.377 . S
C960 C962 1.388 . S
C961 C960 1.377 . S
C961 C967 1.390 . S
C962 H953 0.918 1_554 S
C962 C960 1.388 . S
C962 C963 1.379 . S
C963 C962 1.379 . S
C963 C964 1.400 . S
C963 C968 1.490 . S
C964 H954 0.930 . S
C964 C963 1.400 . S
C964 C967 1.386 . S
H965 C981 0.930 . S
H966 C982 0.931 1_554 S
C967 H955 0.929 . S
C967 C961 1.390 . S
C967 C964 1.386 . S
C968 C963 1.490 . S
C968 C970 1.395 1_554 S
C968 C971 1.403 . S
H969 C975 0.930 . S
C970 H956 0.930 . S
C970 C968 1.395 1_556 S
C970 C973 1.403 . S
C971 C968 1.403 . S
C971 C972 1.524 . S
C971 C975 1.400 . S
C972 H957 0.960 . S
C972 H958 0.960 . S
C972 H959 0.960 . S
C972 C971 1.524 . S
C973 C970 1.403 . S
C973 C974 1.392 . S
C973 C977 1.495 . S
C974 C973 1.392 . S
C974 C975 1.385 1_556 S
C974 C976 1.478 . S
C975 H969 0.930 . S
C975 C971 1.400 . S
C975 C974 1.385 1_554 S
C976 C974 1.478 . S
C976 C978 1.381 . S
C976 C982 1.383 . S
C977 C973 1.495 . S
C977 H983 0.959 . S
C977 H984 0.961 . S
C977 H985 0.960 . S
C978 C976 1.381 . S
C978 C979 1.394 . S
C978 H986 0.930 . S
C979 C978 1.394 . S
C979 C980 1.383 . S
C979 H987 0.929 . S
C980 C979 1.383 . S
C980 C981 1.377 . S
C981 H965 0.930 . S
C981 C980 1.377 . S
C981 C982 1.379 . S
C982 H966 0.931 1_556 S
C982 C976 1.383 . S
C982 C981 1.379 . S
H983 C977 0.959 . S
H984 C977 0.961 . S
H985 C977 0.960 . S
H986 C978 0.930 . S
H987 C979 0.929 . S
H988 C996 0.929 . S
H989 C998 0.930 . S
H990 C1000 0.930 . S
H991 C1003 0.929 . S
H992 C1006 0.930 . S
H993 C1008 0.960 . S
H994 C1008 0.960 . S
H995 C1008 0.960 . S
C996 H988 0.929 . S
C996 C997 1.377 . S
C996 C998 1.384 . S
C997 C996 1.377 . S
C997 C1003 1.390 . S
C998 H989 0.930 . S
C998 C996 1.384 . S
C998 C999 1.372 . S
C999 C998 1.372 . S
C999 C1000 1.400 . S
C999 C1004 1.490 . S
C1000 H990 0.930 . S
C1000 C999 1.400 . S
C1000 C1003 1.386 . S
H1001 C1017 0.930 . S
H1002 C1018 0.931 . S
C1003 H991 0.929 . S
C1003 C997 1.390 . S
C1003 C1000 1.386 . S
C1004 C999 1.490 . S
C1004 C1006 1.395 . S
C1004 C1007 1.403 . S
H1005 C1011 0.930 . S
C1006 H992 0.930 . S
C1006 C1004 1.395 . S
C1006 C1009 1.403 . S
C1007 C1004 1.403 . S
C1007 C1008 1.524 . S
C1007 C1011 1.400 . S
C1008 H993 0.960 . S
C1008 H994 0.960 . S
C1008 H995 0.960 . S
C1008 C1007 1.524 . S
C1009 C1006 1.403 . S
C1009 C1010 1.392 . S
C1009 C1013 1.495 . S
C1010 C1009 1.392 . S
C1010 C1011 1.385 . S
C1010 C1012 1.478 . S
C1011 H1005 0.930 . S
C1011 C1007 1.400 . S
C1011 C1010 1.385 . S
C1012 C1010 1.478 . S
C1012 C1014 1.381 . S
C1012 C1018 1.383 . S
C1013 C1009 1.495 . S
C1013 H1019 0.959 . S
C1013 H1020 0.961 . S
C1013 H1021 0.960 . S
C1014 C1012 1.381 . S
C1014 C1015 1.394 . S
C1014 H1022 0.930 . S
C1015 C1014 1.394 . S
C1015 C1016 1.383 . S
C1015 H1023 0.929 . S
C1016 C1015 1.383 . S
C1016 C1017 1.377 . S
C1017 H1001 0.930 . S
C1017 C1016 1.377 . S
C1017 C1018 1.379 . S
C1018 H1002 0.931 . S
C1018 C1012 1.383 . S
C1018 C1017 1.379 . S
H1019 C1013 0.959 . S
H1020 C1013 0.961 . S
H1021 C1013 0.960 . S
H1022 C1014 0.930 . S
H1023 C1015 0.929 . S
H1024 C1032 0.929 . S
H1025 C1034 0.930 . S
H1026 C1036 0.930 . S
H1027 C1039 0.929 . S
H1028 C1042 0.930 . S
H1029 C1044 0.960 . S
H1030 C1044 0.960 . S
H1031 C1044 0.960 . S
C1032 H1024 0.929 . S
C1032 C1033 1.377 . S
C1032 C1034 1.384 . S
C1033 C1032 1.377 . S
C1033 C1039 1.390 . S
C1034 H1025 0.930 . S
C1034 C1032 1.384 . S
C1034 C1035 1.372 . S
C1035 C1034 1.372 . S
C1035 C1036 1.400 . S
C1035 C1040 1.490 . S
C1036 H1026 0.930 . S
C1036 C1035 1.400 . S
C1036 C1039 1.386 . S
H1037 C1053 0.930 . S
H1038 C1054 0.931 . S
C1039 H1027 0.929 . S
C1039 C1033 1.390 . S
C1039 C1036 1.386 . S
C1040 C1035 1.490 . S
C1040 C1042 1.395 . S
C1040 C1043 1.403 . S
H1041 C1047 0.930 . S
C1042 H1028 0.930 . S
C1042 C1040 1.395 . S
C1042 C1045 1.403 . S
C1043 C1040 1.403 . S
C1043 C1044 1.524 . S
C1043 C1047 1.400 . S
C1044 H1029 0.960 . S
C1044 H1030 0.960 . S
C1044 H1031 0.960 . S
C1044 C1043 1.524 . S
C1045 C1042 1.403 . S
C1045 C1046 1.392 . S
C1045 C1049 1.495 . S
C1046 C1045 1.392 . S
C1046 C1047 1.385 . S
C1046 C1048 1.478 . S
C1047 H1041 0.930 . S
C1047 C1043 1.400 . S
C1047 C1046 1.385 . S
C1048 C1046 1.478 . S
C1048 C1050 1.381 . S
C1048 C1054 1.383 . S
C1049 C1045 1.495 . S
C1049 H1055 0.959 . S
C1049 H1056 0.961 . S
C1049 H1057 0.960 . S
C1050 C1048 1.381 . S
C1050 C1051 1.394 . S
C1050 H1058 0.930 . S
C1051 C1050 1.394 . S
C1051 C1052 1.383 . S
C1051 H1059 0.929 . S
C1052 C1051 1.383 . S
C1052 C1053 1.377 . S
C1053 H1037 0.930 . S
C1053 C1052 1.377 . S
C1053 C1054 1.379 . S
C1054 H1038 0.931 . S
C1054 C1048 1.383 . S
C1054 C1053 1.379 . S
H1055 C1049 0.959 . S
H1056 C1049 0.961 . S
H1057 C1049 0.960 . S
H1058 C1050 0.930 . S
H1059 C1051 0.929 . S
H1060 C1068 0.929 . S
H1061 C1070 0.930 1_655 S
H1062 C1072 0.930 . S
H1063 C1075 0.929 . S
H1064 C1078 0.930 . S
H1065 C1080 0.960 . S
H1066 C1080 0.960 . S
H1067 C1080 0.960 . S
C1068 H1060 0.929 . S
C1068 C1069 1.377 . S
C1068 C1070 1.384 . S
C1069 C1068 1.377 . S
C1069 C1075 1.390 . S
C1070 H1061 0.930 1_455 S
C1070 C1068 1.384 . S
C1070 C1071 1.372 . S
C1071 C1070 1.372 . S
C1071 C1072 1.400 . S
C1071 C1076 1.490 1_556 S
C1072 H1062 0.930 . S
C1072 C1071 1.400 . S
C1072 C1075 1.386 . S
H1073 C1089 0.930 . S
H1074 C1090 0.931 . S
C1075 H1063 0.929 . S
C1075 C1069 1.390 . S
C1075 C1072 1.386 . S
C1076 C1071 1.490 1_554 S
C1076 C1078 1.395 1_455 S
C1076 C1079 1.403 . S
H1077 C1083 0.930 . S
C1078 H1064 0.930 . S
C1078 C1076 1.395 1_655 S
C1078 C1081 1.403 . S
C1079 C1076 1.403 . S
C1079 C1080 1.524 . S
C1079 C1083 1.400 . S
C1080 H1065 0.960 . S
C1080 H1066 0.960 . S
C1080 H1067 0.960 . S
C1080 C1079 1.524 . S
C1081 C1078 1.403 . S
C1081 C1082 1.392 . S
C1081 C1085 1.495 . S
C1082 C1081 1.392 . S
C1082 C1083 1.385 1_655 S
C1082 C1084 1.478 . S
C1083 H1077 0.930 . S
C1083 C1079 1.400 . S
C1083 C1082 1.385 1_455 S
C1084 C1082 1.478 . S
C1084 C1086 1.381 . S
C1084 C1090 1.383 . S
C1085 C1081 1.495 . S
C1085 H1091 0.959 . S
C1085 H1092 0.961 . S
C1085 H1093 0.960 . S
C1086 C1084 1.381 . S
C1086 C1087 1.394 . S
C1086 H1094 0.930 . S
C1087 C1086 1.394 . S
C1087 C1088 1.383 . S
C1087 H1095 0.929 . S
C1088 C1087 1.383 . S
C1088 C1089 1.377 . S
C1089 H1073 0.930 . S
C1089 C1088 1.377 . S
C1089 C1090 1.379 . S
C1090 H1074 0.931 . S
C1090 C1084 1.383 . S
C1090 C1089 1.379 . S
H1091 C1085 0.959 . S
H1092 C1085 0.961 . S
H1093 C1085 0.960 . S
H1094 C1086 0.930 . S
H1095 C1087 0.929 . S
H1096 C1104 0.929 . S
H1097 C1106 0.930 . S
H1098 C1108 0.930 . S
H1099 C1111 0.929 . S
H1100 C1114 0.930 . S
H1101 C1116 0.960 . S
H1102 C1116 0.960 . S
H1103 C1116 0.960 . S
C1104 H1096 0.929 . S
C1104 C1105 1.377 . S
C1104 C1106 1.384 . S
C1105 C1104 1.377 . S
C1105 C1111 1.390 . S
C1106 H1097 0.930 . S
C1106 C1104 1.384 . S
C1106 C1107 1.372 . S
C1107 C1106 1.372 . S
C1107 C1108 1.400 . S
C1107 C1112 1.490 . S
C1108 H1098 0.930 . S
C1108 C1107 1.400 . S
C1108 C1111 1.386 . S
H1109 C1125 0.930 . S
H1110 C1126 0.931 . S
C1111 H1099 0.929 . S
C1111 C1105 1.390 . S
C1111 C1108 1.386 . S
C1112 C1107 1.490 . S
C1112 C1114 1.395 . S
C1112 C1115 1.403 . S
H1113 C1119 0.930 . S
C1114 H1100 0.930 . S
C1114 C1112 1.395 . S
C1114 C1117 1.403 . S
C1115 C1112 1.403 . S
C1115 C1116 1.524 . S
C1115 C1119 1.400 . S
C1116 H1101 0.960 . S
C1116 H1102 0.960 . S
C1116 H1103 0.960 . S
C1116 C1115 1.524 . S
C1117 C1114 1.403 . S
C1117 C1118 1.392 . S
C1117 C1121 1.495 . S
C1118 C1117 1.392 . S
C1118 C1119 1.385 . S
C1118 C1120 1.478 . S
C1119 H1113 0.930 . S
C1119 C1115 1.400 . S
C1119 C1118 1.385 . S
C1120 C1118 1.478 . S
C1120 C1122 1.381 . S
C1120 C1126 1.383 . S
C1121 C1117 1.495 . S
C1121 H1127 0.959 . S
C1121 H1128 0.961 . S
C1121 H1129 0.960 . S
C1122 C1120 1.381 . S
C1122 C1123 1.394 . S
C1122 H1130 0.930 . S
C1123 C1122 1.394 . S
C1123 C1124 1.383 . S
C1123 H1131 0.929 . S
C1124 C1123 1.383 . S
C1124 C1125 1.377 . S
C1125 H1109 0.930 . S
C1125 C1124 1.377 . S
C1125 C1126 1.379 . S
C1126 H1110 0.931 . S
C1126 C1120 1.383 . S
C1126 C1125 1.379 . S
H1127 C1121 0.959 . S
H1128 C1121 0.961 . S
H1129 C1121 0.960 . S
H1130 C1122 0.930 . S
H1131 C1123 0.929 . S
H1132 C1140 0.929 . S
H1133 C1142 0.930 . S
H1134 C1144 0.930 . S
H1135 C1147 0.929 . S
H1136 C1150 0.930 . S
H1137 C1152 0.960 . S
H1138 C1152 0.960 . S
H1139 C1152 0.960 . S
C1140 H1132 0.929 . S
C1140 C1141 1.377 . S
C1140 C1142 1.384 . S
C1141 C1140 1.377 . S
C1141 C1147 1.390 . S
C1142 H1133 0.930 . S
C1142 C1140 1.384 . S
C1142 C1143 1.372 . S
C1143 C1142 1.372 . S
C1143 C1144 1.400 . S
C1143 C1148 1.490 . S
C1144 H1134 0.930 . S
C1144 C1143 1.400 . S
C1144 C1147 1.386 . S
H1145 C1161 0.930 . S
H1146 C1162 0.931 . S
C1147 H1135 0.929 . S
C1147 C1141 1.390 . S
C1147 C1144 1.386 . S
C1148 C1143 1.490 . S
C1148 C1150 1.395 . S
C1148 C1151 1.403 . S
H1149 C1155 0.930 . S
C1150 H1136 0.930 . S
C1150 C1148 1.395 . S
C1150 C1153 1.403 . S
C1151 C1148 1.403 . S
C1151 C1152 1.524 . S
C1151 C1155 1.400 . S
C1152 H1137 0.960 . S
C1152 H1138 0.960 . S
C1152 H1139 0.960 . S
C1152 C1151 1.524 . S
C1153 C1150 1.403 . S
C1153 C1154 1.392 . S
C1153 C1157 1.495 . S
C1154 C1153 1.392 . S
C1154 C1155 1.385 . S
C1154 C1156 1.478 . S
C1155 H1149 0.930 . S
C1155 C1151 1.400 . S
C1155 C1154 1.385 . S
C1156 C1154 1.478 . S
C1156 C1158 1.381 . S
C1156 C1162 1.383 . S
C1157 C1153 1.495 . S
C1157 H1163 0.959 . S
C1157 H1164 0.961 . S
C1157 H1165 0.960 . S
C1158 C1156 1.381 . S
C1158 C1159 1.394 . S
C1158 H1166 0.930 . S
C1159 C1158 1.394 . S
C1159 C1160 1.383 . S
C1159 H1167 0.929 . S
C1160 C1159 1.383 . S
C1160 C1161 1.377 . S
C1161 H1145 0.930 . S
C1161 C1160 1.377 . S
C1161 C1162 1.379 . S
C1162 H1146 0.931 . S
C1162 C1156 1.383 . S
C1162 C1161 1.379 . S
H1163 C1157 0.959 . S
H1164 C1157 0.961 . S
H1165 C1157 0.960 . S
H1166 C1158 0.930 . S
H1167 C1159 0.929 . S
H1168 C1176 0.929 . S
H1169 C1178 0.930 . S
H1170 C1180 0.930 . S
H1171 C1183 0.929 . S
H1172 C1186 0.930 . S
H1173 C1188 0.960 . S
H1174 C1188 0.960 . S
H1175 C1188 0.960 . S
C1176 H1168 0.929 . S
C1176 C1177 1.377 . S
C1176 C1178 1.384 . S
C1177 C1176 1.377 . S
C1177 C1183 1.390 . S
C1178 H1169 0.930 . S
C1178 C1176 1.384 . S
C1178 C1179 1.372 . S
C1179 C1178 1.372 . S
C1179 C1180 1.400 . S
C1179 C1184 1.490 . S
C1180 H1170 0.930 . S
C1180 C1179 1.400 . S
C1180 C1183 1.386 . S
H1181 C1197 0.930 . S
H1182 C1198 0.931 . S
C1183 H1171 0.929 . S
C1183 C1177 1.390 . S
C1183 C1180 1.386 . S
C1184 C1179 1.490 . S
C1184 C1186 1.395 . S
C1184 C1187 1.403 . S
H1185 C1191 0.930 . S
C1186 H1172 0.930 . S
C1186 C1184 1.395 . S
C1186 C1189 1.403 . S
C1187 C1184 1.403 . S
C1187 C1188 1.524 . S
C1187 C1191 1.400 . S
C1188 H1173 0.960 . S
C1188 H1174 0.960 . S
C1188 H1175 0.960 . S
C1188 C1187 1.524 . S
C1189 C1186 1.403 . S
C1189 C1190 1.392 . S
C1189 C1193 1.495 . S
C1190 C1189 1.392 . S
C1190 C1191 1.385 . S
C1190 C1192 1.478 . S
C1191 H1185 0.930 . S
C1191 C1187 1.400 . S
C1191 C1190 1.385 . S
C1192 C1190 1.478 . S
C1192 C1194 1.381 . S
C1192 C1198 1.383 . S
C1193 C1189 1.495 . S
C1193 H1199 0.959 . S
C1193 H1200 0.961 . S
C1193 H1201 0.960 . S
C1194 C1192 1.381 . S
C1194 C1195 1.394 . S
C1194 H1202 0.930 . S
C1195 C1194 1.394 . S
C1195 C1196 1.383 . S
C1195 H1203 0.929 . S
C1196 C1195 1.383 . S
C1196 C1197 1.377 . S
C1197 H1181 0.930 . S
C1197 C1196 1.377 . S
C1197 C1198 1.379 . S
C1198 H1182 0.931 . S
C1198 C1192 1.383 . S
C1198 C1197 1.379 . S
H1199 C1193 0.959 . S
H1200 C1193 0.961 . S
H1201 C1193 0.960 . S
H1202 C1194 0.930 . S
H1203 C1195 0.929 . S
H1204 C1212 0.929 . S
H1205 C1214 0.938 . S
H1206 C1216 0.930 . S
H1207 C1219 0.929 . S
H1208 C1222 0.930 . S
H1209 C1224 0.960 . S
H1210 C1224 0.960 . S
H1211 C1224 0.960 1_554 S
C1212 H1204 0.929 . S
C1212 C1213 1.377 . S
C1212 C1214 1.384 . S
C1213 C1212 1.377 . S
C1213 C1219 1.390 . S
C1214 H1205 0.938 . S
C1214 C1212 1.384 . S
C1214 C1215 1.372 . S
C1215 C1214 1.372 . S
C1215 C1216 1.400 . S
C1215 C1220 1.490 1_554 S
C1216 H1206 0.930 . S
C1216 C1215 1.400 . S
C1216 C1219 1.386 . S
H1217 C1233 0.930 . S
H1218 C1234 0.931 . S
C1219 H1207 0.929 . S
C1219 C1213 1.390 . S
C1219 C1216 1.386 . S
C1220 C1215 1.490 1_556 S
C1220 C1222 1.395 . S
C1220 C1223 1.403 . S
H1221 C1227 0.930 . S
C1222 H1208 0.930 . S
C1222 C1220 1.395 . S
C1222 C1225 1.403 . S
C1223 C1220 1.403 . S
C1223 C1224 1.524 . S
C1223 C1227 1.400 . S
C1224 H1209 0.960 . S
C1224 H1210 0.960 . S
C1224 H1211 0.960 1_556 S
C1224 C1223 1.524 . S
C1225 C1222 1.403 . S
C1225 C1226 1.392 . S
C1225 C1229 1.495 . S
C1226 C1225 1.392 . S
C1226 C1227 1.385 . S
C1226 C1228 1.478 . S
C1227 H1221 0.930 . S
C1227 C1223 1.400 . S
C1227 C1226 1.385 . S
C1228 C1226 1.478 . S
C1228 C1230 1.381 . S
C1228 C1234 1.383 . S
C1229 C1225 1.495 . S
C1229 H1235 0.959 . S
C1229 H1236 0.961 . S
C1229 H1237 0.960 . S
C1230 C1228 1.381 . S
C1230 C1231 1.394 . S
C1230 H1238 0.930 . S
C1231 C1230 1.394 . S
C1231 C1232 1.383 . S
C1231 H1239 0.929 . S
C1232 C1231 1.383 . S
C1232 C1233 1.377 . S
C1233 H1217 0.930 . S
C1233 C1232 1.377 . S
C1233 C1234 1.379 . S
C1234 H1218 0.931 . S
C1234 C1228 1.383 . S
C1234 C1233 1.379 . S
H1235 C1229 0.959 . S
H1236 C1229 0.961 . S
H1237 C1229 0.960 . S
H1238 C1230 0.930 . S
H1239 C1231 0.929 . S
H1240 C1248 0.929 . S
H1241 C1250 0.930 . S
H1242 C1252 0.930 . S
H1243 C1255 0.929 . S
H1244 C1258 0.930 . S
H1245 C1260 0.960 . S
H1246 C1260 0.960 . S
H1247 C1260 0.960 . S
C1248 H1240 0.929 . S
C1248 C1249 1.377 . S
C1248 C1250 1.384 . S
C1249 C1248 1.377 . S
C1249 C1255 1.390 . S
C1250 H1241 0.930 . S
C1250 C1248 1.384 . S
C1250 C1251 1.372 . S
C1251 C1250 1.372 . S
C1251 C1252 1.400 . S
C1251 C1256 1.490 . S
C1252 H1242 0.930 . S
C1252 C1251 1.400 . S
C1252 C1255 1.386 . S
H1253 C1269 0.930 . S
H1254 C1270 0.931 . S
C1255 H1243 0.929 . S
C1255 C1249 1.390 . S
C1255 C1252 1.386 . S
C1256 C1251 1.490 . S
C1256 C1258 1.395 . S
C1256 C1259 1.403 . S
H1257 C1263 0.930 . S
C1258 H1244 0.930 . S
C1258 C1256 1.395 . S
C1258 C1261 1.403 . S
C1259 C1256 1.403 . S
C1259 C1260 1.524 . S
C1259 C1263 1.400 . S
C1260 H1245 0.960 . S
C1260 H1246 0.960 . S
C1260 H1247 0.960 . S
C1260 C1259 1.524 . S
C1261 C1258 1.403 . S
C1261 C1262 1.392 . S
C1261 C1265 1.495 . S
C1262 C1261 1.392 . S
C1262 C1263 1.385 . S
C1262 C1264 1.478 . S
C1263 H1257 0.930 . S
C1263 C1259 1.400 . S
C1263 C1262 1.385 . S
C1264 C1262 1.478 . S
C1264 C1266 1.381 . S
C1264 C1270 1.383 . S
C1265 C1261 1.495 . S
C1265 H1271 0.959 . S
C1265 H1272 0.961 . S
C1265 H1273 0.960 . S
C1266 C1264 1.381 . S
C1266 C1267 1.394 . S
C1266 H1274 0.930 . S
C1267 C1266 1.394 . S
C1267 C1268 1.383 . S
C1267 H1275 0.929 . S
C1268 C1267 1.383 . S
C1268 C1269 1.377 . S
C1269 H1253 0.930 . S
C1269 C1268 1.377 . S
C1269 C1270 1.379 . S
C1270 H1254 0.931 . S
C1270 C1264 1.383 . S
C1270 C1269 1.379 . S
H1271 C1265 0.959 . S
H1272 C1265 0.961 . S
H1273 C1265 0.960 . S
H1274 C1266 0.930 . S
H1275 C1267 0.929 . S
H1276 C1284 0.929 . S
H1277 C1286 0.930 . S
H1278 C1288 0.930 1_655 S
H1279 C1291 0.929 . S
H1280 C1294 0.938 . S
H1281 C1296 0.960 . S
H1282 C1296 0.960 . S
H1283 C1296 0.960 . S
C1284 H1276 0.929 . S
C1284 C1285 1.377 . S
C1284 C1286 1.384 . S
C1285 C1284 1.377 . S
C1285 C1291 1.390 . S
C1286 H1277 0.930 . S
C1286 C1284 1.384 . S
C1286 C1287 1.372 . S
C1287 C1286 1.372 . S
C1287 C1288 1.400 . S
C1287 C1292 1.490 . S
C1288 H1278 0.930 1_455 S
C1288 C1287 1.400 . S
C1288 C1291 1.386 . S
H1289 C1305 0.930 . S
H1290 C1306 0.931 . S
C1291 H1279 0.929 . S
C1291 C1285 1.390 . S
C1291 C1288 1.386 . S
C1292 C1287 1.490 . S
C1292 C1294 1.415 . S
C1292 C1295 1.403 . S
H1293 C1299 0.930 . S
C1294 H1280 0.938 . S
C1294 C1292 1.415 . S
C1294 C1297 1.379 1_455 S
C1295 C1292 1.403 . S
C1295 C1296 1.524 . S
C1295 C1299 1.400 1_455 S
C1296 H1281 0.960 . S
C1296 H1282 0.960 . S
C1296 H1283 0.960 . S
C1296 C1295 1.524 . S
C1297 C1294 1.379 1_655 S
C1297 C1298 1.392 . S
C1297 C1301 1.495 . S
C1298 C1297 1.392 . S
C1298 C1299 1.385 . S
C1298 C1300 1.478 . S
C1299 H1293 0.930 . S
C1299 C1295 1.400 1_655 S
C1299 C1298 1.385 . S
C1300 C1298 1.478 . S
C1300 C1302 1.381 . S
C1300 C1306 1.383 . S
C1301 C1297 1.495 . S
C1301 H1307 0.959 . S
C1301 H1308 0.961 . S
C1301 H1309 0.960 . S
C1302 C1300 1.381 . S
C1302 C1303 1.394 . S
C1302 H1310 0.930 1_655 S
C1303 C1302 1.394 . S
C1303 C1304 1.383 . S
C1303 H1311 0.929 . S
C1304 C1303 1.383 . S
C1304 C1305 1.377 . S
C1305 H1289 0.930 . S
C1305 C1304 1.377 . S
C1305 C1306 1.379 . S
C1306 H1290 0.931 . S
C1306 C1300 1.383 . S
C1306 C1305 1.379 . S
H1307 C1301 0.959 . S
H1308 C1301 0.961 . S
H1309 C1301 0.960 . S
H1310 C1302 0.930 1_455 S
H1311 C1303 0.929 . S
H1312 C1320 0.929 . S
H1313 C1322 0.930 . S
H1314 C1324 0.930 . S
H1315 C1327 0.929 . S
H1316 C1330 0.930 . S
H1317 C1332 0.960 . S
H1318 C1332 0.960 . S
H1319 C1332 0.960 . S
C1320 H1312 0.929 . S
C1320 C1321 1.377 . S
C1320 C1322 1.384 . S
C1321 C1320 1.377 . S
C1321 C1327 1.390 . S
C1322 H1313 0.930 . S
C1322 C1320 1.384 . S
C1322 C1323 1.372 . S
C1323 C1322 1.372 . S
C1323 C1324 1.400 . S
C1323 C1328 1.490 . S
C1324 H1314 0.930 . S
C1324 C1323 1.400 . S
C1324 C1327 1.386 . S
H1325 C1341 0.930 . S
H1326 C1342 0.931 . S
C1327 H1315 0.929 . S
C1327 C1321 1.390 . S
C1327 C1324 1.386 . S
C1328 C1323 1.490 . S
C1328 C1330 1.395 . S
C1328 C1331 1.403 . S
H1329 C1335 0.930 . S
C1330 H1316 0.930 . S
C1330 C1328 1.395 . S
C1330 C1333 1.403 . S
C1331 C1328 1.403 . S
C1331 C1332 1.524 . S
C1331 C1335 1.400 . S
C1332 H1317 0.960 . S
C1332 H1318 0.960 . S
C1332 H1319 0.960 . S
C1332 C1331 1.524 . S
C1333 C1330 1.403 . S
C1333 C1334 1.392 . S
C1333 C1337 1.495 . S
C1334 C1333 1.392 . S
C1334 C1335 1.385 . S
C1334 C1336 1.478 . S
C1335 H1329 0.930 . S
C1335 C1331 1.400 . S
C1335 C1334 1.385 . S
C1336 C1334 1.478 . S
C1336 C1338 1.381 . S
C1336 C1342 1.383 . S
C1337 C1333 1.495 . S
C1337 H1343 0.959 . S
C1337 H1344 0.961 . S
C1337 H1345 0.960 . S
C1338 C1336 1.381 . S
C1338 C1339 1.394 . S
C1338 H1346 0.930 . S
C1339 C1338 1.394 . S
C1339 C1340 1.383 . S
C1339 H1347 0.929 . S
C1340 C1339 1.383 . S
C1340 C1341 1.377 . S
C1341 H1325 0.930 . S
C1341 C1340 1.377 . S
C1341 C1342 1.379 . S
C1342 H1326 0.931 . S
C1342 C1336 1.383 . S
C1342 C1341 1.379 . S
H1343 C1337 0.959 . S
H1344 C1337 0.961 . S
H1345 C1337 0.960 . S
H1346 C1338 0.930 . S
H1347 C1339 0.929 . S
H1348 C1356 0.929 . S
H1349 C1358 0.930 . S
H1350 C1360 0.930 1_455 S
H1351 C1363 0.929 . S
H1352 C1366 0.930 . S
H1353 C1368 1.001 . S
H1354 C1368 0.886 1_655 S
H1355 C1368 1.001 . S
C1356 H1348 0.929 . S
C1356 C1357 1.377 . S
C1356 C1358 1.384 . S
C1357 C1356 1.377 . S
C1357 C1363 1.390 . S
C1358 H1349 0.930 . S
C1358 C1356 1.384 . S
C1358 C1359 1.372 . S
C1359 C1358 1.372 . S
C1359 C1360 1.400 . S
C1359 C1364 1.490 1_554 S
C1360 H1350 0.930 1_655 S
C1360 C1359 1.400 . S
C1360 C1363 1.386 . S
H1361 C1377 0.930 . S
H1362 C1378 0.931 . S
C1363 H1351 0.929 . S
C1363 C1357 1.390 . S
C1363 C1360 1.386 . S
C1364 C1359 1.490 1_556 S
C1364 C1366 1.395 . S
C1364 C1367 1.388 1_655 S
H1365 C1371 0.930 . S
C1366 H1352 0.930 . S
C1366 C1364 1.395 . S
C1366 C1369 1.427 . S
C1367 C1364 1.388 1_455 S
C1367 C1368 1.523 . S
C1367 C1371 1.414 . S
C1368 H1353 1.001 . S
C1368 H1354 0.886 1_455 S
C1368 H1355 1.001 . S
C1368 C1367 1.523 . S
C1369 C1366 1.427 . S
C1369 C1370 1.368 1_655 S
C1369 C1373 1.499 . S
C1370 C1369 1.368 1_455 S
C1370 C1371 1.385 . S
C1370 C1372 1.478 . S
C1371 H1365 0.930 . S
C1371 C1367 1.414 . S
C1371 C1370 1.385 . S
C1372 C1370 1.478 . S
C1372 C1374 1.381 . S
C1372 C1378 1.383 . S
C1373 C1369 1.499 . S
C1373 H1379 0.959 . S
C1373 H1380 0.961 1_655 S
C1373 H1381 0.960 . S
C1374 C1372 1.381 . S
C1374 C1375 1.394 . S
C1374 H1382 0.930 1_455 S
C1375 C1374 1.394 . S
C1375 C1376 1.383 . S
C1375 H1383 0.929 . S
C1376 C1375 1.383 . S
C1376 C1377 1.377 . S
C1377 H1361 0.930 . S
C1377 C1376 1.377 . S
C1377 C1378 1.379 . S
C1378 H1362 0.931 . S
C1378 C1372 1.383 . S
C1378 C1377 1.379 . S
H1379 C1373 0.959 . S
H1380 C1373 0.961 1_455 S
H1381 C1373 0.960 . S
H1382 C1374 0.930 1_655 S
H1383 C1375 0.929 . S
H1384 C1392 0.929 . S
H1385 C1394 0.930 . S
H1386 C1396 0.930 . S
H1387 C1399 0.929 . S
H1388 C1402 0.930 . S
H1389 C1404 0.960 . S
H1390 C1404 0.960 . S
H1391 C1404 0.960 . S
C1392 H1384 0.929 . S
C1392 C1393 1.377 . S
C1392 C1394 1.384 . S
C1393 C1392 1.377 . S
C1393 C1399 1.390 . S
C1394 H1385 0.930 . S
C1394 C1392 1.384 . S
C1394 C1395 1.372 . S
C1395 C1394 1.372 . S
C1395 C1396 1.400 . S
C1395 C1400 1.490 . S
C1396 H1386 0.930 . S
C1396 C1395 1.400 . S
C1396 C1399 1.386 . S
H1397 C1413 0.930 . S
H1398 C1414 0.931 . S
C1399 H1387 0.929 . S
C1399 C1393 1.390 . S
C1399 C1396 1.386 . S
C1400 C1395 1.490 . S
C1400 C1402 1.395 . S
C1400 C1403 1.403 . S
H1401 C1407 0.930 . S
C1402 H1388 0.930 . S
C1402 C1400 1.395 . S
C1402 C1405 1.403 . S
C1403 C1400 1.403 . S
C1403 C1404 1.524 . S
C1403 C1407 1.400 . S
C1404 H1389 0.960 . S
C1404 H1390 0.960 . S
C1404 H1391 0.960 . S
C1404 C1403 1.524 . S
C1405 C1402 1.403 . S
C1405 C1406 1.392 . S
C1405 C1409 1.495 . S
C1406 C1405 1.392 . S
C1406 C1407 1.385 . S
C1406 C1408 1.478 . S
C1407 H1401 0.930 . S
C1407 C1403 1.400 . S
C1407 C1406 1.385 . S
C1408 C1406 1.478 . S
C1408 C1410 1.381 . S
C1408 C1414 1.383 . S
C1409 C1405 1.495 . S
C1409 H1415 0.959 . S
C1409 H1416 0.961 . S
C1409 H1417 0.960 . S
C1410 C1408 1.381 . S
C1410 C1411 1.394 . S
C1410 H1418 0.930 . S
C1411 C1410 1.394 . S
C1411 C1412 1.383 . S
C1411 H1419 0.929 . S
C1412 C1411 1.383 . S
C1412 C1413 1.377 . S
C1413 H1397 0.930 . S
C1413 C1412 1.377 . S
C1413 C1414 1.379 . S
C1414 H1398 0.931 . S
C1414 C1408 1.383 . S
C1414 C1413 1.379 . S
H1415 C1409 0.959 . S
H1416 C1409 0.961 . S
H1417 C1409 0.960 . S
H1418 C1410 0.930 . S
H1419 C1411 0.929 . S
H1420 C1428 0.929 . S
H1421 C1430 0.930 . S
H1422 C1432 0.930 . S
H1423 C1435 0.929 . S
H1424 C1438 0.930 . S
H1425 C1440 0.960 . S
H1426 C1440 0.960 . S
H1427 C1440 0.960 . S
C1428 H1420 0.929 . S
C1428 C1429 1.377 . S
C1428 C1430 1.384 . S
C1429 C1428 1.377 . S
C1429 C1435 1.390 . S
C1430 H1421 0.930 . S
C1430 C1428 1.384 . S
C1430 C1431 1.372 . S
C1431 C1430 1.372 . S
C1431 C1432 1.400 . S
C1431 C1436 1.490 . S
C1432 H1422 0.930 . S
C1432 C1431 1.400 . S
C1432 C1435 1.386 . S
H1433 C1449 0.930 . S
H1434 C1450 0.931 . S
C1435 H1423 0.929 . S
C1435 C1429 1.390 . S
C1435 C1432 1.386 . S
C1436 C1431 1.490 . S
C1436 C1438 1.395 . S
C1436 C1439 1.403 . S
H1437 C1443 0.930 . S
C1438 H1424 0.930 . S
C1438 C1436 1.395 . S
C1438 C1441 1.403 . S
C1439 C1436 1.403 . S
C1439 C1440 1.524 . S
C1439 C1443 1.400 . S
C1440 H1425 0.960 . S
C1440 H1426 0.960 . S
C1440 H1427 0.960 . S
C1440 C1439 1.524 . S
C1441 C1438 1.403 . S
C1441 C1442 1.392 . S
C1441 C1445 1.495 . S
C1442 C1441 1.392 . S
C1442 C1443 1.385 . S
C1442 C1444 1.478 . S
C1443 H1437 0.930 . S
C1443 C1439 1.400 . S
C1443 C1442 1.385 . S
C1444 C1442 1.478 . S
C1444 C1446 1.381 . S
C1444 C1450 1.383 . S
C1445 C1441 1.495 . S
C1445 H1451 0.959 . S
C1445 H1452 0.961 . S
C1445 H1453 0.960 . S
C1446 C1444 1.381 . S
C1446 C1447 1.394 . S
C1446 H1454 0.930 . S
C1447 C1446 1.394 . S
C1447 C1448 1.383 . S
C1447 H1455 0.929 . S
C1448 C1447 1.383 . S
C1448 C1449 1.377 . S
C1449 H1433 0.930 . S
C1449 C1448 1.377 . S
C1449 C1450 1.379 . S
C1450 H1434 0.931 . S
C1450 C1444 1.383 . S
C1450 C1449 1.379 . S
H1451 C1445 0.959 . S
H1452 C1445 0.961 . S
H1453 C1445 0.960 . S
H1454 C1446 0.930 . S
H1455 C1447 0.929 . S
H1456 C1464 0.929 . S
H1457 C1466 0.930 . S
H1458 C1468 0.930 . S
H1459 C1471 0.929 . S
H1460 C1474 0.930 . S
H1461 C1476 0.960 . S
H1462 C1476 0.960 . S
H1463 C1476 0.960 . S
C1464 H1456 0.929 . S
C1464 C1465 1.377 . S
C1464 C1466 1.384 . S
C1465 C1464 1.377 . S
C1465 C1471 1.390 . S
C1466 H1457 0.930 . S
C1466 C1464 1.384 . S
C1466 C1467 1.372 . S
C1467 C1466 1.372 . S
C1467 C1468 1.400 . S
C1467 C1472 1.490 . S
C1468 H1458 0.930 . S
C1468 C1467 1.400 . S
C1468 C1471 1.386 . S
H1469 C1485 0.930 . S
H1470 C1486 0.931 . S
C1471 H1459 0.929 . S
C1471 C1465 1.390 . S
C1471 C1468 1.386 . S
C1472 C1467 1.490 . S
C1472 C1474 1.395 . S
C1472 C1475 1.403 . S
H1473 C1479 0.930 . S
C1474 H1460 0.930 . S
C1474 C1472 1.395 . S
C1474 C1477 1.403 . S
C1475 C1472 1.403 . S
C1475 C1476 1.524 . S
C1475 C1479 1.400 . S
C1476 H1461 0.960 . S
C1476 H1462 0.960 . S
C1476 H1463 0.960 . S
C1476 C1475 1.524 . S
C1477 C1474 1.403 . S
C1477 C1478 1.392 . S
C1477 C1481 1.495 . S
C1478 C1477 1.392 . S
C1478 C1479 1.385 . S
C1478 C1480 1.478 . S
C1479 H1473 0.930 . S
C1479 C1475 1.400 . S
C1479 C1478 1.385 . S
C1480 C1478 1.478 . S
C1480 C1482 1.381 . S
C1480 C1486 1.383 . S
C1481 C1477 1.495 . S
C1481 H1487 0.959 . S
C1481 H1488 0.961 . S
C1481 H1489 0.960 . S
C1482 C1480 1.381 . S
C1482 C1483 1.394 . S
C1482 H1490 0.930 . S
C1483 C1482 1.394 . S
C1483 C1484 1.383 . S
C1483 H1491 0.929 . S
C1484 C1483 1.383 . S
C1484 C1485 1.377 . S
C1485 H1469 0.930 . S
C1485 C1484 1.377 . S
C1485 C1486 1.379 . S
C1486 H1470 0.931 . S
C1486 C1480 1.383 . S
C1486 C1485 1.379 . S
H1487 C1481 0.959 . S
H1488 C1481 0.961 . S
H1489 C1481 0.960 . S
H1490 C1482 0.930 . S
H1491 C1483 0.929 . S
H1492 C1500 0.929 . S
H1493 C1502 0.930 . S
H1494 C1504 0.930 . S
H1495 C1507 0.929 . S
H1496 C1510 0.930 . S
H1497 C1512 0.960 . S
H1498 C1512 0.960 . S
H1499 C1512 0.960 . S
C1500 H1492 0.929 . S
C1500 C1501 1.377 . S
C1500 C1502 1.384 . S
C1501 C1500 1.377 . S
C1501 C1507 1.390 . S
C1502 H1493 0.930 . S
C1502 C1500 1.384 . S
C1502 C1503 1.372 . S
C1503 C1502 1.372 . S
C1503 C1504 1.400 . S
C1503 C1508 1.490 . S
C1504 H1494 0.930 . S
C1504 C1503 1.400 . S
C1504 C1507 1.386 . S
H1505 C1521 0.930 . S
H1506 C1522 0.931 . S
C1507 H1495 0.929 . S
C1507 C1501 1.390 . S
C1507 C1504 1.386 . S
C1508 C1503 1.490 . S
C1508 C1510 1.395 . S
C1508 C1511 1.403 . S
H1509 C1515 0.930 . S
C1510 H1496 0.930 . S
C1510 C1508 1.395 . S
C1510 C1513 1.403 . S
C1511 C1508 1.403 . S
C1511 C1512 1.524 . S
C1511 C1515 1.400 . S
C1512 H1497 0.960 . S
C1512 H1498 0.960 . S
C1512 H1499 0.960 . S
C1512 C1511 1.524 . S
C1513 C1510 1.403 . S
C1513 C1514 1.392 . S
C1513 C1517 1.495 . S
C1514 C1513 1.392 . S
C1514 C1515 1.385 . S
C1514 C1516 1.478 1_554 S
C1515 H1509 0.930 . S
C1515 C1511 1.400 . S
C1515 C1514 1.385 . S
C1516 C1514 1.478 1_556 S
C1516 C1518 1.381 . S
C1516 C1522 1.383 . S
C1517 C1513 1.495 . S
C1517 H1523 0.959 . S
C1517 H1524 0.961 1_554 S
C1517 H1525 0.960 . S
C1518 C1516 1.381 . S
C1518 C1519 1.394 . S
C1518 H1526 0.930 . S
C1519 C1518 1.394 . S
C1519 C1520 1.383 . S
C1519 H1527 0.929 . S
C1520 C1519 1.383 . S
C1520 C1521 1.377 . S
C1521 H1505 0.930 . S
C1521 C1520 1.377 . S
C1521 C1522 1.379 . S
C1522 H1506 0.931 . S
C1522 C1516 1.383 . S
C1522 C1521 1.379 . S
H1523 C1517 0.959 . S
H1524 C1517 0.961 1_556 S
H1525 C1517 0.960 . S
H1526 C1518 0.930 . S
H1527 C1519 0.929 . S
H1528 C1536 0.929 . S
H1529 C1538 0.930 . S
H1530 C1540 0.930 . S
H1531 C1543 0.929 . S
H1532 C1546 0.930 . S
H1533 C1548 0.960 . S
H1534 C1548 0.960 . S
H1535 C1548 0.960 . S
C1536 H1528 0.929 . S
C1536 C1537 1.377 . S
C1536 C1538 1.384 . S
C1537 C1536 1.377 . S
C1537 C1543 1.390 . S
C1538 H1529 0.930 . S
C1538 C1536 1.384 . S
C1538 C1539 1.372 . S
C1539 C1538 1.372 . S
C1539 C1540 1.400 . S
C1539 C1544 1.490 . S
C1540 H1530 0.930 . S
C1540 C1539 1.400 . S
C1540 C1543 1.386 . S
H1541 C1557 0.930 . S
H1542 C1558 0.931 . S
C1543 H1531 0.929 . S
C1543 C1537 1.390 . S
C1543 C1540 1.386 . S
C1544 C1539 1.490 . S
C1544 C1546 1.395 . S
C1544 C1547 1.403 . S
H1545 C1551 0.930 . S
C1546 H1532 0.930 . S
C1546 C1544 1.395 . S
C1546 C1549 1.403 . S
C1547 C1544 1.403 . S
C1547 C1548 1.524 . S
C1547 C1551 1.400 . S
C1548 H1533 0.960 . S
C1548 H1534 0.960 . S
C1548 H1535 0.960 . S
C1548 C1547 1.524 . S
C1549 C1546 1.403 . S
C1549 C1550 1.392 . S
C1549 C1553 1.495 . S
C1550 C1549 1.392 . S
C1550 C1551 1.385 . S
C1550 C1552 1.478 . S
C1551 H1545 0.930 . S
C1551 C1547 1.400 . S
C1551 C1550 1.385 . S
C1552 C1550 1.478 . S
C1552 C1554 1.381 . S
C1552 C1558 1.383 . S
C1553 C1549 1.495 . S
C1553 H1559 0.959 . S
C1553 H1560 0.961 . S
C1553 H1561 0.960 . S
C1554 C1552 1.381 . S
C1554 C1555 1.394 . S
C1554 H1562 0.930 . S
C1555 C1554 1.394 . S
C1555 C1556 1.383 . S
C1555 H1563 0.929 . S
C1556 C1555 1.383 . S
C1556 C1557 1.377 . S
C1557 H1541 0.930 . S
C1557 C1556 1.377 . S
C1557 C1558 1.379 . S
C1558 H1542 0.931 . S
C1558 C1552 1.383 . S
C1558 C1557 1.379 . S
H1559 C1553 0.959 . S
H1560 C1553 0.961 . S
H1561 C1553 0.960 . S
H1562 C1554 0.930 . S
H1563 C1555 0.929 . S
H1564 C1572 0.929 . S
H1565 C1574 0.930 . S
H1566 C1576 0.930 . S
H1567 C1579 0.929 . S
H1568 C1582 0.930 . S
H1569 C1584 0.960 . S
H1570 C1584 0.960 . S
H1571 C1584 0.960 . S
C1572 H1564 0.929 . S
C1572 C1573 1.377 . S
C1572 C1574 1.384 . S
C1573 C1572 1.377 . S
C1573 C1579 1.390 . S
C1574 H1565 0.930 . S
C1574 C1572 1.384 . S
C1574 C1575 1.372 . S
C1575 C1574 1.372 . S
C1575 C1576 1.400 . S
C1575 C1580 1.490 . S
C1576 H1566 0.930 . S
C1576 C1575 1.400 . S
C1576 C1579 1.386 . S
H1577 C1593 0.930 . S
H1578 C1594 0.931 . S
C1579 H1567 0.929 . S
C1579 C1573 1.390 . S
C1579 C1576 1.386 . S
C1580 C1575 1.490 . S
C1580 C1582 1.395 1_655 S
C1580 C1583 1.403 . S
H1581 C1587 0.930 . S
C1582 H1568 0.930 . S
C1582 C1580 1.395 1_455 S
C1582 C1585 1.403 . S
C1583 C1580 1.403 . S
C1583 C1584 1.524 . S
C1583 C1587 1.400 . S
C1584 H1569 0.960 . S
C1584 H1570 0.960 . S
C1584 H1571 0.960 . S
C1584 C1583 1.524 . S
C1585 C1582 1.403 . S
C1585 C1586 1.392 . S
C1585 C1589 1.495 . S
C1586 C1585 1.392 . S
C1586 C1587 1.385 1_455 S
C1586 C1588 1.478 . S
C1587 H1581 0.930 . S
C1587 C1583 1.400 . S
C1587 C1586 1.385 1_655 S
C1588 C1586 1.478 . S
C1588 C1590 1.381 . S
C1588 C1594 1.383 . S
C1589 C1585 1.495 . S
C1589 H1595 0.959 . S
C1589 H1596 0.961 . S
C1589 H1597 0.960 . S
C1590 C1588 1.381 . S
C1590 C1591 1.394 . S
C1590 H1598 0.930 . S
C1591 C1590 1.394 . S
C1591 C1592 1.383 . S
C1591 H1599 0.929 . S
C1592 C1591 1.383 . S
C1592 C1593 1.377 . S
C1593 H1577 0.930 . S
C1593 C1592 1.377 . S
C1593 C1594 1.379 . S
C1594 H1578 0.931 . S
C1594 C1588 1.383 . S
C1594 C1593 1.379 . S
H1595 C1589 0.959 . S
H1596 C1589 0.961 . S
H1597 C1589 0.960 . S
H1598 C1590 0.930 . S
H1599 C1591 0.929 . S
H1600 C1608 0.929 . S
H1601 C1610 0.930 . S
H1602 C1612 0.930 . S
H1603 C1615 0.929 . S
H1604 C1618 0.930 . S
H1605 C1620 0.960 . S
H1606 C1620 0.960 . S
H1607 C1620 0.960 . S
C1608 H1600 0.929 . S
C1608 C1609 1.377 . S
C1608 C1610 1.384 . S
C1609 C1608 1.377 . S
C1609 C1615 1.390 . S
C1610 H1601 0.930 . S
C1610 C1608 1.384 . S
C1610 C1611 1.372 . S
C1611 C1610 1.372 . S
C1611 C1612 1.400 . S
C1611 C1616 1.490 . S
C1612 H1602 0.930 . S
C1612 C1611 1.400 . S
C1612 C1615 1.386 . S
H1613 C1629 0.930 . S
H1614 C1630 0.931 . S
C1615 H1603 0.929 . S
C1615 C1609 1.390 . S
C1615 C1612 1.386 . S
C1616 C1611 1.490 . S
C1616 C1618 1.395 . S
C1616 C1619 1.403 . S
H1617 C1623 0.930 . S
C1618 H1604 0.930 . S
C1618 C1616 1.395 . S
C1618 C1621 1.403 . S
C1619 C1616 1.403 . S
C1619 C1620 1.524 . S
C1619 C1623 1.400 . S
C1620 H1605 0.960 . S
C1620 H1606 0.960 . S
C1620 H1607 0.960 . S
C1620 C1619 1.524 . S
C1621 C1618 1.403 . S
C1621 C1622 1.392 . S
C1621 C1625 1.495 . S
C1622 C1621 1.392 . S
C1622 C1623 1.385 . S
C1622 C1624 1.478 . S
C1623 H1617 0.930 . S
C1623 C1619 1.400 . S
C1623 C1622 1.385 . S
C1624 C1622 1.478 . S
C1624 C1626 1.381 . S
C1624 C1630 1.383 . S
C1625 C1621 1.495 . S
C1625 H1631 0.959 . S
C1625 H1632 0.961 . S
C1625 H1633 0.960 . S
C1626 C1624 1.381 . S
C1626 C1627 1.394 . S
C1626 H1634 0.930 . S
C1627 C1626 1.394 . S
C1627 C1628 1.383 . S
C1627 H1635 0.929 . S
C1628 C1627 1.383 . S
C1628 C1629 1.377 . S
C1629 H1613 0.930 . S
C1629 C1628 1.377 . S
C1629 C1630 1.379 . S
C1630 H1614 0.931 . S
C1630 C1624 1.383 . S
C1630 C1629 1.379 . S
H1631 C1625 0.959 . S
H1632 C1625 0.961 . S
H1633 C1625 0.960 . S
H1634 C1626 0.930 . S
H1635 C1627 0.929 . S
H1636 C1644 0.929 . S
H1637 C1646 0.930 . S
H1638 C1648 0.930 . S
H1639 C1651 0.929 . S
H1640 C1654 0.930 . S
H1641 C1656 0.960 . S
H1642 C1656 0.960 . S
H1643 C1656 0.960 . S
C1644 H1636 0.929 . S
C1644 C1645 1.377 . S
C1644 C1646 1.384 . S
C1645 C1644 1.377 . S
C1645 C1651 1.390 . S
C1646 H1637 0.930 . S
C1646 C1644 1.384 . S
C1646 C1647 1.372 . S
C1647 C1646 1.372 . S
C1647 C1648 1.400 . S
C1647 C1652 1.490 . S
C1648 H1638 0.930 . S
C1648 C1647 1.400 . S
C1648 C1651 1.386 . S
H1649 C1665 0.930 . S
H1650 C1666 0.931 . S
C1651 H1639 0.929 . S
C1651 C1645 1.390 . S
C1651 C1648 1.386 . S
C1652 C1647 1.490 . S
C1652 C1654 1.395 . S
C1652 C1655 1.403 . S
H1653 C1659 0.930 . S
C1654 H1640 0.930 . S
C1654 C1652 1.395 . S
C1654 C1657 1.403 . S
C1655 C1652 1.403 . S
C1655 C1656 1.524 . S
C1655 C1659 1.400 . S
C1656 H1641 0.960 . S
C1656 H1642 0.960 . S
C1656 H1643 0.960 . S
C1656 C1655 1.524 . S
C1657 C1654 1.403 . S
C1657 C1658 1.392 . S
C1657 C1661 1.495 . S
C1658 C1657 1.392 . S
C1658 C1659 1.385 . S
C1658 C1660 1.478 . S
C1659 H1653 0.930 . S
C1659 C1655 1.400 . S
C1659 C1658 1.385 . S
C1660 C1658 1.478 . S
C1660 C1662 1.381 . S
C1660 C1666 1.383 . S
C1661 C1657 1.495 . S
C1661 H1667 0.959 . S
C1661 H1668 0.961 . S
C1661 H1669 0.960 . S
C1662 C1660 1.381 . S
C1662 C1663 1.394 . S
C1662 H1670 0.930 . S
C1663 C1662 1.394 . S
C1663 C1664 1.383 . S
C1663 H1671 0.929 . S
C1664 C1663 1.383 . S
C1664 C1665 1.377 . S
C1665 H1649 0.930 . S
C1665 C1664 1.377 . S
C1665 C1666 1.379 . S
C1666 H1650 0.931 . S
C1666 C1660 1.383 . S
C1666 C1665 1.379 . S
H1667 C1661 0.959 . S
H1668 C1661 0.961 . S
H1669 C1661 0.960 . S
H1670 C1662 0.930 . S
H1671 C1663 0.929 . S
H1672 C1680 0.929 . S
H1673 C1682 0.930 . S
H1674 C1684 0.930 . S
H1675 C1687 0.929 . S
H1676 C1690 0.930 . S
H1677 C1692 0.960 . S
H1678 C1692 0.960 . S
H1679 C1692 0.960 . S
C1680 H1672 0.929 . S
C1680 C1681 1.377 . S
C1680 C1682 1.384 . S
C1681 C1680 1.377 . S
C1681 C1687 1.390 . S
C1682 H1673 0.930 . S
C1682 C1680 1.384 . S
C1682 C1683 1.372 . S
C1683 C1682 1.372 . S
C1683 C1684 1.400 . S
C1683 C1688 1.490 . S
C1684 H1674 0.930 . S
C1684 C1683 1.400 . S
C1684 C1687 1.386 . S
H1685 C1701 0.930 . S
H1686 C1702 0.931 . S
C1687 H1675 0.929 . S
C1687 C1681 1.390 . S
C1687 C1684 1.386 . S
C1688 C1683 1.490 . S
C1688 C1690 1.395 . S
C1688 C1691 1.403 . S
H1689 C1695 0.930 . S
C1690 H1676 0.930 . S
C1690 C1688 1.395 . S
C1690 C1693 1.403 . S
C1691 C1688 1.403 . S
C1691 C1692 1.524 . S
C1691 C1695 1.400 . S
C1692 H1677 0.960 . S
C1692 H1678 0.960 . S
C1692 H1679 0.960 . S
C1692 C1691 1.524 . S
C1693 C1690 1.403 . S
C1693 C1694 1.392 . S
C1693 C1697 1.495 . S
C1694 C1693 1.392 . S
C1694 C1695 1.385 . S
C1694 C1696 1.478 . S
C1695 H1689 0.930 . S
C1695 C1691 1.400 . S
C1695 C1694 1.385 . S
C1696 C1694 1.478 . S
C1696 C1698 1.381 . S
C1696 C1702 1.383 . S
C1697 C1693 1.495 . S
C1697 H1703 0.959 . S
C1697 H1704 0.961 . S
C1697 H1705 0.960 . S
C1698 C1696 1.381 . S
C1698 C1699 1.394 . S
C1698 H1706 0.930 . S
C1699 C1698 1.394 . S
C1699 C1700 1.383 . S
C1699 H1707 0.929 . S
C1700 C1699 1.383 . S
C1700 C1701 1.377 . S
C1701 H1685 0.930 . S
C1701 C1700 1.377 . S
C1701 C1702 1.379 . S
C1702 H1686 0.931 . S
C1702 C1696 1.383 . S
C1702 C1701 1.379 . S
H1703 C1697 0.959 . S
H1704 C1697 0.961 . S
H1705 C1697 0.960 . S
H1706 C1698 0.930 . S
H1707 C1699 0.929 . S
H1708 C1716 0.929 . S
H1709 C1718 0.930 . S
H1710 C1720 0.930 . S
H1711 C1723 0.929 . S
H1712 C1726 0.930 . S
H1713 C1728 0.960 . S
H1714 C1728 0.960 . S
H1715 C1728 0.960 . S
C1716 H1708 0.929 . S
C1716 C1717 1.377 . S
C1716 C1718 1.384 . S
C1717 C1716 1.377 . S
C1717 C1723 1.390 . S
C1718 H1709 0.930 . S
C1718 C1716 1.384 . S
C1718 C1719 1.372 . S
C1719 C1718 1.372 . S
C1719 C1720 1.400 . S
C1719 C1724 1.490 . S
C1720 H1710 0.930 . S
C1720 C1719 1.400 . S
C1720 C1723 1.386 . S
H1721 C1737 0.930 . S
H1722 C1738 0.931 . S
C1723 H1711 0.929 . S
C1723 C1717 1.390 . S
C1723 C1720 1.386 . S
C1724 C1719 1.490 . S
C1724 C1726 1.395 . S
C1724 C1727 1.403 1_455 S
H1725 C1731 0.930 . S
C1726 H1712 0.930 . S
C1726 C1724 1.395 . S
C1726 C1729 1.403 . S
C1727 C1724 1.403 1_655 S
C1727 C1728 1.524 . S
C1727 C1731 1.400 . S
C1728 H1713 0.960 . S
C1728 H1714 0.960 . S
C1728 H1715 0.960 . S
C1728 C1727 1.524 . S
C1729 C1726 1.403 . S
C1729 C1730 1.392 1_455 S
C1729 C1733 1.495 1_554 S
C1730 C1729 1.392 1_655 S
C1730 C1731 1.385 . S
C1730 C1732 1.478 1_554 S
C1731 H1725 0.930 . S
C1731 C1727 1.400 . S
C1731 C1730 1.385 . S
C1732 C1730 1.478 1_556 S
C1732 C1734 1.381 . S
C1732 C1738 1.383 . S
C1733 C1729 1.495 1_556 S
C1733 H1739 0.959 1_556 S
C1733 H1740 0.961 . S
C1733 H1741 0.960 . S
C1734 C1732 1.381 . S
C1734 C1735 1.394 . S
C1734 H1742 0.930 . S
C1735 C1734 1.394 . S
C1735 C1736 1.383 . S
C1735 H1743 0.929 . S
C1736 C1735 1.383 . S
C1736 C1737 1.377 . S
C1737 H1721 0.930 . S
C1737 C1736 1.377 . S
C1737 C1738 1.379 . S
C1738 H1722 0.931 . S
C1738 C1732 1.383 . S
C1738 C1737 1.379 . S
H1739 C1733 0.959 1_554 S
H1740 C1733 0.961 . S
H1741 C1733 0.960 . S
H1742 C1734 0.930 . S
H1743 C1735 0.929 . S
H1744 C1752 0.929 . S
H1745 C1754 0.930 . S
H1746 C1756 0.930 . S
H1747 C1759 0.929 . S
H1748 C1762 0.930 . S
H1749 C1764 0.960 . S
H1750 C1764 0.960 . S
H1751 C1764 0.960 . S
C1752 H1744 0.929 . S
C1752 C1753 1.377 . S
C1752 C1754 1.384 . S
C1753 C1752 1.377 . S
C1753 C1759 1.390 . S
C1754 H1745 0.930 . S
C1754 C1752 1.384 . S
C1754 C1755 1.372 . S
C1755 C1754 1.372 . S
C1755 C1756 1.400 . S
C1755 C1760 1.490 . S
C1756 H1746 0.930 . S
C1756 C1755 1.400 . S
C1756 C1759 1.386 . S
H1757 C1773 0.930 . S
H1758 C1774 0.931 . S
C1759 H1747 0.929 . S
C1759 C1753 1.390 . S
C1759 C1756 1.386 . S
C1760 C1755 1.490 . S
C1760 C1762 1.395 . S
C1760 C1763 1.403 . S
H1761 C1767 0.930 . S
C1762 H1748 0.930 . S
C1762 C1760 1.395 . S
C1762 C1765 1.403 . S
C1763 C1760 1.403 . S
C1763 C1764 1.524 . S
C1763 C1767 1.400 . S
C1764 H1749 0.960 . S
C1764 H1750 0.960 . S
C1764 H1751 0.960 . S
C1764 C1763 1.524 . S
C1765 C1762 1.403 . S
C1765 C1766 1.392 . S
C1765 C1769 1.495 . S
C1766 C1765 1.392 . S
C1766 C1767 1.385 . S
C1766 C1768 1.478 . S
C1767 H1761 0.930 . S
C1767 C1763 1.400 . S
C1767 C1766 1.385 . S
C1768 C1766 1.478 . S
C1768 C1770 1.381 . S
C1768 C1774 1.383 . S
C1769 C1765 1.495 . S
C1769 H1775 0.959 . S
C1769 H1776 0.961 . S
C1769 H1777 0.960 . S
C1770 C1768 1.381 . S
C1770 C1771 1.394 . S
C1770 H1778 0.930 . S
C1771 C1770 1.394 . S
C1771 C1772 1.383 . S
C1771 H1779 0.929 . S
C1772 C1771 1.383 . S
C1772 C1773 1.377 . S
C1773 H1757 0.930 . S
C1773 C1772 1.377 . S
C1773 C1774 1.379 . S
C1774 H1758 0.931 . S
C1774 C1768 1.383 . S
C1774 C1773 1.379 . S
H1775 C1769 0.959 . S
H1776 C1769 0.961 . S
H1777 C1769 0.960 . S
H1778 C1770 0.930 . S
H1779 C1771 0.929 . S
H1780 C1788 0.929 . S
H1781 C1790 0.930 . S
H1782 C1792 0.877 1_455 S
H1783 C1795 0.929 . S
H1784 C1798 0.929 1_655 S
H1785 C1800 0.960 . S
H1786 C1800 0.960 . S
H1787 C1800 0.960 . S
C1788 H1780 0.929 . S
C1788 C1789 1.377 . S
C1788 C1790 1.384 . S
C1789 C1788 1.377 . S
C1789 C1795 1.390 . S
C1790 H1781 0.930 . S
C1790 C1788 1.384 . S
C1790 C1791 1.372 . S
C1791 C1790 1.372 . S
C1791 C1792 1.400 . S
C1791 C1796 1.490 . S
C1792 H1782 0.877 1_655 S
C1792 C1791 1.400 . S
C1792 C1795 1.386 . S
H1793 C1809 0.930 . S
H1794 C1810 0.931 . S
C1795 H1783 0.929 . S
C1795 C1789 1.390 . S
C1795 C1792 1.386 . S
C1796 C1791 1.490 . S
C1796 C1798 1.386 1_655 S
C1796 C1799 1.403 . S
H1797 C1803 0.930 . S
C1798 H1784 0.929 1_455 S
C1798 C1796 1.386 1_455 S
C1798 C1801 1.413 . S
C1799 C1796 1.403 . S
C1799 C1800 1.524 . S
C1799 C1803 1.400 1_655 S
C1800 H1785 0.960 . S
C1800 H1786 0.960 . S
C1800 H1787 0.960 . S
C1800 C1799 1.524 . S
C1801 C1798 1.413 . S
C1801 C1802 1.392 . S
C1801 C1805 1.495 . S
C1802 C1801 1.392 . S
C1802 C1803 1.385 . S
C1802 C1804 1.478 . S
C1803 H1797 0.930 . S
C1803 C1799 1.400 1_455 S
C1803 C1802 1.385 . S
C1804 C1802 1.478 . S
C1804 C1806 1.381 . S
C1804 C1810 1.383 . S
C1805 C1801 1.495 . S
C1805 H1811 0.959 . S
C1805 H1812 0.961 . S
C1805 H1813 0.960 . S
C1806 C1804 1.381 . S
C1806 C1807 1.394 . S
C1806 H1814 0.931 1_455 S
C1807 C1806 1.394 . S
C1807 C1808 1.383 . S
C1807 H1815 0.929 . S
C1808 C1807 1.383 . S
C1808 C1809 1.377 . S
C1809 H1793 0.930 . S
C1809 C1808 1.377 . S
C1809 C1810 1.379 . S
C1810 H1794 0.931 . S
C1810 C1804 1.383 . S
C1810 C1809 1.379 . S
H1811 C1805 0.959 . S
H1812 C1805 0.961 . S
H1813 C1805 0.960 . S
H1814 C1806 0.931 1_655 S
H1815 C1807 0.929 . S
H1816 C1824 0.929 . S
H1817 C1826 0.930 . S
H1818 C1828 0.930 . S
H1819 C1831 0.929 . S
H1820 C1834 0.930 . S
H1821 C1836 0.960 . S
H1822 C1836 0.960 . S
H1823 C1836 0.960 . S
C1824 H1816 0.929 . S
C1824 C1825 1.377 . S
C1824 C1826 1.384 . S
C1825 C1824 1.377 . S
C1825 C1831 1.390 . S
C1826 H1817 0.930 . S
C1826 C1824 1.384 . S
C1826 C1827 1.372 . S
C1827 C1826 1.372 . S
C1827 C1828 1.400 . S
C1827 C1832 1.490 . S
C1828 H1818 0.930 . S
C1828 C1827 1.400 . S
C1828 C1831 1.386 . S
H1829 C1845 0.930 . S
H1830 C1846 0.931 . S
C1831 H1819 0.929 . S
C1831 C1825 1.390 . S
C1831 C1828 1.386 . S
C1832 C1827 1.490 . S
C1832 C1834 1.395 . S
C1832 C1835 1.403 . S
H1833 C1839 0.930 . S
C1834 H1820 0.930 . S
C1834 C1832 1.395 . S
C1834 C1837 1.403 . S
C1835 C1832 1.403 . S
C1835 C1836 1.524 . S
C1835 C1839 1.400 . S
C1836 H1821 0.960 . S
C1836 H1822 0.960 . S
C1836 H1823 0.960 . S
C1836 C1835 1.524 . S
C1837 C1834 1.403 . S
C1837 C1838 1.392 . S
C1837 C1841 1.495 . S
C1838 C1837 1.392 . S
C1838 C1839 1.385 . S
C1838 C1840 1.478 . S
C1839 H1833 0.930 . S
C1839 C1835 1.400 . S
C1839 C1838 1.385 . S
C1840 C1838 1.478 . S
C1840 C1842 1.381 . S
C1840 C1846 1.383 . S
C1841 C1837 1.495 . S
C1841 H1847 0.959 . S
C1841 H1848 0.961 . S
C1841 H1849 0.960 . S
C1842 C1840 1.381 . S
C1842 C1843 1.394 . S
C1842 H1850 0.930 . S
C1843 C1842 1.394 . S
C1843 C1844 1.383 . S
C1843 H1851 0.929 . S
C1844 C1843 1.383 . S
C1844 C1845 1.377 . S
C1845 H1829 0.930 . S
C1845 C1844 1.377 . S
C1845 C1846 1.379 . S
C1846 H1830 0.931 . S
C1846 C1840 1.383 . S
C1846 C1845 1.379 . S
H1847 C1841 0.959 . S
H1848 C1841 0.961 . S
H1849 C1841 0.960 . S
H1850 C1842 0.930 . S
H1851 C1843 0.929 . S
H1852 C1860 0.929 . S
H1853 C1862 0.930 . S
H1854 C1864 0.930 . S
H1855 C1867 0.929 . S
H1856 C1870 0.930 . S
H1857 C1872 0.960 . S
H1858 C1872 0.946 1_554 S
H1859 C1872 0.960 . S
C1860 H1852 0.929 . S
C1860 C1861 1.377 . S
C1860 C1862 1.384 . S
C1861 C1860 1.377 . S
C1861 C1867 1.390 . S
C1862 H1853 0.930 . S
C1862 C1860 1.384 . S
C1862 C1863 1.372 . S
C1863 C1862 1.372 . S
C1863 C1864 1.400 . S
C1863 C1868 1.490 1_554 S
C1864 H1854 0.930 . S
C1864 C1863 1.400 . S
C1864 C1867 1.386 . S
H1865 C1881 0.930 . S
H1866 C1882 0.931 . S
C1867 H1855 0.929 . S
C1867 C1861 1.390 . S
C1867 C1864 1.386 . S
C1868 C1863 1.490 1_556 S
C1868 C1870 1.395 . S
C1868 C1871 1.403 . S
H1869 C1875 0.930 . S
C1870 H1856 0.930 . S
C1870 C1868 1.395 . S
C1870 C1873 1.403 . S
C1871 C1868 1.403 . S
C1871 C1872 1.524 . S
C1871 C1875 1.400 . S
C1872 H1857 0.960 . S
C1872 H1858 0.946 1_556 S
C1872 H1859 0.960 . S
C1872 C1871 1.524 . S
C1873 C1870 1.403 . S
C1873 C1874 1.392 . S
C1873 C1877 1.495 . S
C1874 C1873 1.392 . S
C1874 C1875 1.385 . S
C1874 C1876 1.478 . S
C1875 H1869 0.930 . S
C1875 C1871 1.400 . S
C1875 C1874 1.385 . S
C1876 C1874 1.478 . S
C1876 C1878 1.381 . S
C1876 C1882 1.383 . S
C1877 C1873 1.495 . S
C1877 H1883 0.959 . S
C1877 H1884 0.961 . S
C1877 H1885 0.960 . S
C1878 C1876 1.381 . S
C1878 C1879 1.394 . S
C1878 H1886 0.930 . S
C1879 C1878 1.394 . S
C1879 C1880 1.383 . S
C1879 H1887 0.929 . S
C1880 C1879 1.383 . S
C1880 C1881 1.377 . S
C1881 H1865 0.930 . S
C1881 C1880 1.377 . S
C1881 C1882 1.379 . S
C1882 H1866 0.931 . S
C1882 C1876 1.383 . S
C1882 C1881 1.379 . S
H1883 C1877 0.959 . S
H1884 C1877 0.961 . S
H1885 C1877 0.960 . S
H1886 C1878 0.930 . S
H1887 C1879 0.929 . S
H1888 C1896 0.929 . S
H1889 C1898 0.930 . S
H1890 C1900 0.930 . S
H1891 C1903 0.929 . S
H1892 C1906 0.930 . S
H1893 C1908 0.960 . S
H1894 C1908 0.960 . S
H1895 C1908 0.960 . S
C1896 H1888 0.929 . S
C1896 C1897 1.377 . S
C1896 C1898 1.384 . S
C1897 C1896 1.377 . S
C1897 C1903 1.390 . S
C1898 H1889 0.930 . S
C1898 C1896 1.384 . S
C1898 C1899 1.372 . S
C1899 C1898 1.372 . S
C1899 C1900 1.400 . S
C1899 C1904 1.490 . S
C1900 H1890 0.930 . S
C1900 C1899 1.400 . S
C1900 C1903 1.386 . S
H1901 C1917 0.930 . S
H1902 C1918 0.931 . S
C1903 H1891 0.929 . S
C1903 C1897 1.390 . S
C1903 C1900 1.386 . S
C1904 C1899 1.490 . S
C1904 C1906 1.395 . S
C1904 C1907 1.403 . S
H1905 C1911 0.930 . S
C1906 H1892 0.930 . S
C1906 C1904 1.395 . S
C1906 C1909 1.403 . S
C1907 C1904 1.403 . S
C1907 C1908 1.524 . S
C1907 C1911 1.400 . S
C1908 H1893 0.960 . S
C1908 H1894 0.960 . S
C1908 H1895 0.960 . S
C1908 C1907 1.524 . S
C1909 C1906 1.403 . S
C1909 C1910 1.392 . S
C1909 C1913 1.495 . S
C1910 C1909 1.392 . S
C1910 C1911 1.385 . S
C1910 C1912 1.478 . S
C1911 H1905 0.930 . S
C1911 C1907 1.400 . S
C1911 C1910 1.385 . S
C1912 C1910 1.478 . S
C1912 C1914 1.381 . S
C1912 C1918 1.383 . S
C1913 C1909 1.495 . S
C1913 H1919 0.959 . S
C1913 H1920 0.961 . S
C1913 H1921 0.960 . S
C1914 C1912 1.381 . S
C1914 C1915 1.394 . S
C1914 H1922 0.930 . S
C1915 C1914 1.394 . S
C1915 C1916 1.383 . S
C1915 H1923 0.929 . S
C1916 C1915 1.383 . S
C1916 C1917 1.377 . S
C1917 H1901 0.930 . S
C1917 C1916 1.377 . S
C1917 C1918 1.379 . S
C1918 H1902 0.931 . S
C1918 C1912 1.383 . S
C1918 C1917 1.379 . S
H1919 C1913 0.959 . S
H1920 C1913 0.961 . S
H1921 C1913 0.960 . S
H1922 C1914 0.930 . S
H1923 C1915 0.929 . S
H1924 C1932 0.929 . S
H1925 C1934 0.930 . S
H1926 C1936 0.930 . S
H1927 C1939 0.929 . S
H1928 C1942 0.930 . S
H1929 C1944 0.960 . S
H1930 C1944 0.960 . S
H1931 C1944 0.960 . S
C1932 H1924 0.929 . S
C1932 C1933 1.377 . S
C1932 C1934 1.384 . S
C1933 C1932 1.377 . S
C1933 C1939 1.390 . S
C1934 H1925 0.930 . S
C1934 C1932 1.384 . S
C1934 C1935 1.372 . S
C1935 C1934 1.372 . S
C1935 C1936 1.400 . S
C1935 C1940 1.490 . S
C1936 H1926 0.930 . S
C1936 C1935 1.400 . S
C1936 C1939 1.386 . S
H1937 C1953 0.930 . S
H1938 C1954 0.931 . S
C1939 H1927 0.929 . S
C1939 C1933 1.390 . S
C1939 C1936 1.386 . S
C1940 C1935 1.490 . S
C1940 C1942 1.395 . S
C1940 C1943 1.403 . S
H1941 C1947 0.930 . S
C1942 H1928 0.930 . S
C1942 C1940 1.395 . S
C1942 C1945 1.403 . S
C1943 C1940 1.403 . S
C1943 C1944 1.524 . S
C1943 C1947 1.400 . S
C1944 H1929 0.960 . S
C1944 H1930 0.960 . S
C1944 H1931 0.960 . S
C1944 C1943 1.524 . S
C1945 C1942 1.403 . S
C1945 C1946 1.392 . S
C1945 C1949 1.495 . S
C1946 C1945 1.392 . S
C1946 C1947 1.385 . S
C1946 C1948 1.478 . S
C1947 H1941 0.930 . S
C1947 C1943 1.400 . S
C1947 C1946 1.385 . S
C1948 C1946 1.478 . S
C1948 C1950 1.381 . S
C1948 C1954 1.383 . S
C1949 C1945 1.495 . S
C1949 H1955 0.959 . S
C1949 H1956 0.961 . S
C1949 H1957 0.960 . S
C1950 C1948 1.381 . S
C1950 C1951 1.394 . S
C1950 H1958 0.930 . S
C1951 C1950 1.394 . S
C1951 C1952 1.383 . S
C1951 H1959 0.929 . S
C1952 C1951 1.383 . S
C1952 C1953 1.377 . S
C1953 H1937 0.930 . S
C1953 C1952 1.377 . S
C1953 C1954 1.379 . S
C1954 H1938 0.931 . S
C1954 C1948 1.383 . S
C1954 C1953 1.379 . S
H1955 C1949 0.959 . S
H1956 C1949 0.961 . S
H1957 C1949 0.960 . S
H1958 C1950 0.930 . S
H1959 C1951 0.929 . S
H1960 C1968 0.929 . S
H1961 C1970 0.930 . S
H1962 C1972 0.930 . S
H1963 C1975 0.929 . S
H1964 C1978 0.930 . S
H1965 C1980 0.960 . S
H1966 C1980 0.960 . S
H1967 C1980 0.960 . S
C1968 H1960 0.929 . S
C1968 C1969 1.377 . S
C1968 C1970 1.384 . S
C1969 C1968 1.377 . S
C1969 C1975 1.390 . S
C1970 H1961 0.930 . S
C1970 C1968 1.384 . S
C1970 C1971 1.372 . S
C1971 C1970 1.372 . S
C1971 C1972 1.400 . S
C1971 C1976 1.490 . S
C1972 H1962 0.930 . S
C1972 C1971 1.400 . S
C1972 C1975 1.386 . S
H1973 C1989 0.930 . S
H1974 C1990 0.931 . S
C1975 H1963 0.929 . S
C1975 C1969 1.390 . S
C1975 C1972 1.386 . S
C1976 C1971 1.490 . S
C1976 C1978 1.395 . S
C1976 C1979 1.403 . S
H1977 C1983 0.930 . S
C1978 H1964 0.930 . S
C1978 C1976 1.395 . S
C1978 C1981 1.403 . S
C1979 C1976 1.403 . S
C1979 C1980 1.524 . S
C1979 C1983 1.400 . S
C1980 H1965 0.960 . S
C1980 H1966 0.960 . S
C1980 H1967 0.960 . S
C1980 C1979 1.524 . S
C1981 C1978 1.403 . S
C1981 C1982 1.392 . S
C1981 C1985 1.495 . S
C1982 C1981 1.392 . S
C1982 C1983 1.385 . S
C1982 C1984 1.478 . S
C1983 H1977 0.930 . S
C1983 C1979 1.400 . S
C1983 C1982 1.385 . S
C1984 C1982 1.478 . S
C1984 C1986 1.381 . S
C1984 C1990 1.383 . S
C1985 C1981 1.495 . S
C1985 H1991 0.959 . S
C1985 H1992 0.961 . S
C1985 H1993 0.960 . S
C1986 C1984 1.381 . S
C1986 C1987 1.394 . S
C1986 H1994 0.930 . S
C1987 C1986 1.394 . S
C1987 C1988 1.383 . S
C1987 H1995 0.929 . S
C1988 C1987 1.383 . S
C1988 C1989 1.377 . S
C1989 H1973 0.930 . S
C1989 C1988 1.377 . S
C1989 C1990 1.379 . S
C1990 H1974 0.931 . S
C1990 C1984 1.383 . S
C1990 C1989 1.379 . S
H1991 C1985 0.959 . S
H1992 C1985 0.961 . S
H1993 C1985 0.960 . S
H1994 C1986 0.930 . S
H1995 C1987 0.929 . S
H1996 C2004 0.929 . S
H1997 C2006 0.930 . S
H1998 C2008 0.930 1_455 S
H1999 C2011 0.929 . S
H2000 C2014 0.930 . S
H2001 C2016 0.957 . S
H2002 C2016 0.965 1_655 S
H2003 C2016 0.957 . S
C2004 H1996 0.929 . S
C2004 C2005 1.377 . S
C2004 C2006 1.384 . S
C2005 C2004 1.377 . S
C2005 C2011 1.390 . S
C2006 H1997 0.930 . S
C2006 C2004 1.384 . S
C2006 C2007 1.372 . S
C2007 C2006 1.372 . S
C2007 C2008 1.400 . S
C2007 C2012 1.490 . S
C2008 H1998 0.930 1_655 S
C2008 C2007 1.400 . S
C2008 C2011 1.386 . S
H2009 C2025 0.930 . S
H2010 C2026 0.942 . S
C2011 H1999 0.929 . S
C2011 C2005 1.390 . S
C2011 C2008 1.386 . S
C2012 C2007 1.490 . S
C2012 C2014 1.395 . S
C2012 C2015 1.437 . S
H2013 C2019 0.930 . S
C2014 H2000 0.930 . S
C2014 C2012 1.395 . S
C2014 C2017 1.403 . S
C2015 C2012 1.437 . S
C2015 C2016 1.521 1_655 S
C2015 C2019 1.373 1_655 S
C2016 H2001 0.957 . S
C2016 H2002 0.965 1_455 S
C2016 H2003 0.957 . S
C2016 C2015 1.521 1_455 S
C2017 C2014 1.403 . S
C2017 C2018 1.392 1_655 S
C2017 C2021 1.495 . S
C2018 C2017 1.392 1_455 S
C2018 C2019 1.385 . S
C2018 C2020 1.478 1_556 S
C2019 H2013 0.930 . S
C2019 C2015 1.373 1_455 S
C2019 C2018 1.385 . S
C2020 C2018 1.478 1_554 S
C2020 C2022 1.381 . S
C2020 C2026 1.383 . S
C2021 C2017 1.495 . S
C2021 H2027 0.959 . S
C2021 H2028 0.961 1_655 S
C2021 H2029 0.960 1_556 S
C2022 C2020 1.381 . S
C2022 C2023 1.394 . S
C2022 H2030 0.930 1_455 S
C2023 C2022 1.394 . S
C2023 C2024 1.383 . S
C2023 H2031 0.929 . S
C2024 C2023 1.383 . S
C2024 C2025 1.377 . S
C2025 H2009 0.930 . S
C2025 C2024 1.377 . S
C2025 C2026 1.379 . S
C2026 H2010 0.942 . S
C2026 C2020 1.383 . S
C2026 C2025 1.379 . S
H2027 C2021 0.959 . S
H2028 C2021 0.961 1_455 S
H2029 C2021 0.960 1_554 S
H2030 C2022 0.930 1_655 S
H2031 C2023 0.929 . S
H2032 C2040 0.929 . S
H2033 C2042 0.930 . S
H2034 C2044 0.930 . S
H2035 C2047 0.929 . S
H2036 C2050 0.930 . S
H2037 C2052 0.960 . S
H2038 C2052 0.960 . S
H2039 C2052 0.960 . S
C2040 H2032 0.929 . S
C2040 C2041 1.377 . S
C2040 C2042 1.384 . S
C2041 C2040 1.377 . S
C2041 C2047 1.390 . S
C2042 H2033 0.930 . S
C2042 C2040 1.384 . S
C2042 C2043 1.372 . S
C2043 C2042 1.372 . S
C2043 C2044 1.400 . S
C2043 C2048 1.490 . S
C2044 H2034 0.930 . S
C2044 C2043 1.400 . S
C2044 C2047 1.386 . S
H2045 C2061 0.930 . S
H2046 C2062 0.931 . S
C2047 H2035 0.929 . S
C2047 C2041 1.390 . S
C2047 C2044 1.386 . S
C2048 C2043 1.490 . S
C2048 C2050 1.395 . S
C2048 C2051 1.403 . S
H2049 C2055 0.930 . S
C2050 H2036 0.930 . S
C2050 C2048 1.395 . S
C2050 C2053 1.403 . S
C2051 C2048 1.403 . S
C2051 C2052 1.524 . S
C2051 C2055 1.400 . S
C2052 H2037 0.960 . S
C2052 H2038 0.960 . S
C2052 H2039 0.960 . S
C2052 C2051 1.524 . S
C2053 C2050 1.403 . S
C2053 C2054 1.392 . S
C2053 C2057 1.495 . S
C2054 C2053 1.392 . S
C2054 C2055 1.385 . S
C2054 C2056 1.478 . S
C2055 H2049 0.930 . S
C2055 C2051 1.400 . S
C2055 C2054 1.385 . S
C2056 C2054 1.478 . S
C2056 C2058 1.381 . S
C2056 C2062 1.383 . S
C2057 C2053 1.495 . S
C2057 H2063 0.959 . S
C2057 H2064 0.961 . S
C2057 H2065 0.960 . S
C2058 C2056 1.381 . S
C2058 C2059 1.394 . S
C2058 H2066 0.930 . S
C2059 C2058 1.394 . S
C2059 C2060 1.383 . S
C2059 H2067 0.929 . S
C2060 C2059 1.383 . S
C2060 C2061 1.377 . S
C2061 H2045 0.930 . S
C2061 C2060 1.377 . S
C2061 C2062 1.379 . S
C2062 H2046 0.931 . S
C2062 C2056 1.383 . S
C2062 C2061 1.379 . S
H2063 C2057 0.959 . S
H2064 C2057 0.961 . S
H2065 C2057 0.960 . S
H2066 C2058 0.930 . S
H2067 C2059 0.929 . S
H2068 C2076 0.929 . S
H2069 C2078 0.930 . S
H2070 C2080 0.930 . S
H2071 C2083 0.929 . S
H2072 C2086 0.930 . S
H2073 C2088 0.960 . S
H2074 C2088 0.960 . S
H2075 C2088 0.960 . S
C2076 H2068 0.929 . S
C2076 C2077 1.377 . S
C2076 C2078 1.384 . S
C2077 C2076 1.377 . S
C2077 C2083 1.390 . S
C2078 H2069 0.930 . S
C2078 C2076 1.384 . S
C2078 C2079 1.372 . S
C2079 C2078 1.372 . S
C2079 C2080 1.400 . S
C2079 C2084 1.490 . S
C2080 H2070 0.930 . S
C2080 C2079 1.400 . S
C2080 C2083 1.386 . S
H2081 C2097 0.930 . S
H2082 C2098 0.931 . S
C2083 H2071 0.929 . S
C2083 C2077 1.390 . S
C2083 C2080 1.386 . S
C2084 C2079 1.490 . S
C2084 C2086 1.395 1_655 S
C2084 C2087 1.403 . S
H2085 C2091 0.930 . S
C2086 H2072 0.930 . S
C2086 C2084 1.395 1_455 S
C2086 C2089 1.403 . S
C2087 C2084 1.403 . S
C2087 C2088 1.524 . S
C2087 C2091 1.400 . S
C2088 H2073 0.960 . S
C2088 H2074 0.960 . S
C2088 H2075 0.960 . S
C2088 C2087 1.524 . S
C2089 C2086 1.403 . S
C2089 C2090 1.392 . S
C2089 C2093 1.495 . S
C2090 C2089 1.392 . S
C2090 C2091 1.385 1_455 S
C2090 C2092 1.478 . S
C2091 H2085 0.930 . S
C2091 C2087 1.400 . S
C2091 C2090 1.385 1_655 S
C2092 C2090 1.478 . S
C2092 C2094 1.381 . S
C2092 C2098 1.383 . S
C2093 C2089 1.495 . S
C2093 H2099 0.959 . S
C2093 H2100 0.961 . S
C2093 H2101 0.960 . S
C2094 C2092 1.381 . S
C2094 C2095 1.394 . S
C2094 H2102 0.930 . S
C2095 C2094 1.394 . S
C2095 C2096 1.383 . S
C2095 H2103 0.929 . S
C2096 C2095 1.383 . S
C2096 C2097 1.377 . S
C2097 H2081 0.930 . S
C2097 C2096 1.377 . S
C2097 C2098 1.379 . S
C2098 H2082 0.931 . S
C2098 C2092 1.383 . S
C2098 C2097 1.379 . S
H2099 C2093 0.959 . S
H2100 C2093 0.961 . S
H2101 C2093 0.960 . S
H2102 C2094 0.930 . S
H2103 C2095 0.929 . S
H2104 C2112 0.929 . S
H2105 C2114 0.930 . S
H2106 C2116 0.930 . S
H2107 C2119 0.929 . S
H2108 C2122 0.930 . S
H2109 C2124 0.960 . S
H2110 C2124 0.960 . S
H2111 C2124 0.960 . S
C2112 H2104 0.929 . S
C2112 C2113 1.377 . S
C2112 C2114 1.384 . S
C2113 C2112 1.377 . S
C2113 C2119 1.390 . S
C2114 H2105 0.930 . S
C2114 C2112 1.384 . S
C2114 C2115 1.372 . S
C2115 C2114 1.372 . S
C2115 C2116 1.400 . S
C2115 C2120 1.490 . S
C2116 H2106 0.930 . S
C2116 C2115 1.400 . S
C2116 C2119 1.386 . S
H2117 C2133 0.930 . S
H2118 C2134 0.931 . S
C2119 H2107 0.929 . S
C2119 C2113 1.390 . S
C2119 C2116 1.386 . S
C2120 C2115 1.490 . S
C2120 C2122 1.395 . S
C2120 C2123 1.403 . S
H2121 C2127 0.930 . S
C2122 H2108 0.930 . S
C2122 C2120 1.395 . S
C2122 C2125 1.403 . S
C2123 C2120 1.403 . S
C2123 C2124 1.524 . S
C2123 C2127 1.400 . S
C2124 H2109 0.960 . S
C2124 H2110 0.960 . S
C2124 H2111 0.960 . S
C2124 C2123 1.524 . S
C2125 C2122 1.403 . S
C2125 C2126 1.392 . S
C2125 C2129 1.495 . S
C2126 C2125 1.392 . S
C2126 C2127 1.385 . S
C2126 C2128 1.478 . S
C2127 H2121 0.930 . S
C2127 C2123 1.400 . S
C2127 C2126 1.385 . S
C2128 C2126 1.478 . S
C2128 C2130 1.381 . S
C2128 C2134 1.383 . S
C2129 C2125 1.495 . S
C2129 H2135 0.959 . S
C2129 H2136 0.961 . S
C2129 H2137 0.960 . S
C2130 C2128 1.381 . S
C2130 C2131 1.394 . S
C2130 H2138 0.930 . S
C2131 C2130 1.394 . S
C2131 C2132 1.383 . S
C2131 H2139 0.929 . S
C2132 C2131 1.383 . S
C2132 C2133 1.377 . S
C2133 H2117 0.930 . S
C2133 C2132 1.377 . S
C2133 C2134 1.379 . S
C2134 H2118 0.931 . S
C2134 C2128 1.383 . S
C2134 C2133 1.379 . S
H2135 C2129 0.959 . S
H2136 C2129 0.961 . S
H2137 C2129 0.960 . S
H2138 C2130 0.930 . S
H2139 C2131 0.929 . S
H2140 C2148 0.929 . S
H2141 C2150 0.930 . S
H2142 C2152 0.930 . S
H2143 C2155 0.929 . S
H2144 C2158 0.930 . S
H2145 C2160 0.960 . S
H2146 C2160 0.960 . S
H2147 C2160 0.960 . S
C2148 H2140 0.929 . S
C2148 C2149 1.377 . S
C2148 C2150 1.384 . S
C2149 C2148 1.377 . S
C2149 C2155 1.390 . S
C2150 H2141 0.930 . S
C2150 C2148 1.384 . S
C2150 C2151 1.372 . S
C2151 C2150 1.372 . S
C2151 C2152 1.400 . S
C2151 C2156 1.490 . S
C2152 H2142 0.930 . S
C2152 C2151 1.400 . S
C2152 C2155 1.386 . S
H2153 C2169 0.930 . S
H2154 C2170 0.931 . S
C2155 H2143 0.929 . S
C2155 C2149 1.390 . S
C2155 C2152 1.386 . S
C2156 C2151 1.490 . S
C2156 C2158 1.395 . S
C2156 C2159 1.403 . S
H2157 C2163 0.930 . S
C2158 H2144 0.930 . S
C2158 C2156 1.395 . S
C2158 C2161 1.403 . S
C2159 C2156 1.403 . S
C2159 C2160 1.524 . S
C2159 C2163 1.400 . S
C2160 H2145 0.960 . S
C2160 H2146 0.960 . S
C2160 H2147 0.960 . S
C2160 C2159 1.524 . S
C2161 C2158 1.403 . S
C2161 C2162 1.392 . S
C2161 C2165 1.495 . S
C2162 C2161 1.392 . S
C2162 C2163 1.385 . S
C2162 C2164 1.478 1_554 S
C2163 H2157 0.930 . S
C2163 C2159 1.400 . S
C2163 C2162 1.385 . S
C2164 C2162 1.478 1_556 S
C2164 C2166 1.381 . S
C2164 C2170 1.383 . S
C2165 C2161 1.495 . S
C2165 H2171 0.959 . S
C2165 H2172 0.961 . S
C2165 H2173 0.960 . S
C2166 C2164 1.381 . S
C2166 C2167 1.394 . S
C2166 H2174 0.930 . S
C2167 C2166 1.394 . S
C2167 C2168 1.383 . S
C2167 H2175 0.929 . S
C2168 C2167 1.383 . S
C2168 C2169 1.377 . S
C2169 H2153 0.930 . S
C2169 C2168 1.377 . S
C2169 C2170 1.379 . S
C2170 H2154 0.931 . S
C2170 C2164 1.383 . S
C2170 C2169 1.379 . S
H2171 C2165 0.959 . S
H2172 C2165 0.961 . S
H2173 C2165 0.960 . S
H2174 C2166 0.930 . S
H2175 C2167 0.929 . S
H2176 C2184 0.929 . S
H2177 C2186 0.930 . S
H2178 C2188 0.930 . S
H2179 C2191 0.929 . S
H2180 C2194 0.930 . S
H2181 C2196 0.960 . S
H2182 C2196 0.960 . S
H2183 C2196 0.960 . S
C2184 H2176 0.929 . S
C2184 C2185 1.377 . S
C2184 C2186 1.384 . S
C2185 C2184 1.377 . S
C2185 C2191 1.390 . S
C2186 H2177 0.930 . S
C2186 C2184 1.384 . S
C2186 C2187 1.372 . S
C2187 C2186 1.372 . S
C2187 C2188 1.400 . S
C2187 C2192 1.490 . S
C2188 H2178 0.930 . S
C2188 C2187 1.400 . S
C2188 C2191 1.386 . S
H2189 C2205 0.930 . S
H2190 C2206 0.931 . S
C2191 H2179 0.929 . S
C2191 C2185 1.390 . S
C2191 C2188 1.386 . S
C2192 C2187 1.490 . S
C2192 C2194 1.395 . S
C2192 C2195 1.403 . S
H2193 C2199 0.930 . S
C2194 H2180 0.930 . S
C2194 C2192 1.395 . S
C2194 C2197 1.403 . S
C2195 C2192 1.403 . S
C2195 C2196 1.524 . S
C2195 C2199 1.400 . S
C2196 H2181 0.960 . S
C2196 H2182 0.960 . S
C2196 H2183 0.960 . S
C2196 C2195 1.524 . S
C2197 C2194 1.403 . S
C2197 C2198 1.392 . S
C2197 C2201 1.495 . S
C2198 C2197 1.392 . S
C2198 C2199 1.385 . S
C2198 C2200 1.478 . S
C2199 H2193 0.930 . S
C2199 C2195 1.400 . S
C2199 C2198 1.385 . S
C2200 C2198 1.478 . S
C2200 C2202 1.381 . S
C2200 C2206 1.383 . S
C2201 C2197 1.495 . S
C2201 H2207 0.959 . S
C2201 H2208 0.961 . S
C2201 H2209 0.960 . S
C2202 C2200 1.381 . S
C2202 C2203 1.394 . S
C2202 H2210 0.930 . S
C2203 C2202 1.394 . S
C2203 C2204 1.383 . S
C2203 H2211 0.929 . S
C2204 C2203 1.383 . S
C2204 C2205 1.377 . S
C2205 H2189 0.930 . S
C2205 C2204 1.377 . S
C2205 C2206 1.379 . S
C2206 H2190 0.931 . S
C2206 C2200 1.383 . S
C2206 C2205 1.379 . S
H2207 C2201 0.959 . S
H2208 C2201 0.961 . S
H2209 C2201 0.960 . S
H2210 C2202 0.930 . S
H2211 C2203 0.929 . S
H2212 C2220 0.929 . S
H2213 C2222 0.930 . S
H2214 C2224 0.930 . S
H2215 C2227 0.929 . S
H2216 C2230 0.930 . S
H2217 C2232 0.960 . S
H2218 C2232 0.960 . S
H2219 C2232 0.960 . S
C2220 H2212 0.929 . S
C2220 C2221 1.377 . S
C2220 C2222 1.384 . S
C2221 C2220 1.377 . S
C2221 C2227 1.390 . S
C2222 H2213 0.930 . S
C2222 C2220 1.384 . S
C2222 C2223 1.372 . S
C2223 C2222 1.372 . S
C2223 C2224 1.400 . S
C2223 C2228 1.490 . S
C2224 H2214 0.930 . S
C2224 C2223 1.400 . S
C2224 C2227 1.386 . S
H2225 C2241 0.930 . S
H2226 C2242 0.931 . S
C2227 H2215 0.929 . S
C2227 C2221 1.390 . S
C2227 C2224 1.386 . S
C2228 C2223 1.490 . S
C2228 C2230 1.395 . S
C2228 C2231 1.403 . S
H2229 C2235 0.930 . S
C2230 H2216 0.930 . S
C2230 C2228 1.395 . S
C2230 C2233 1.403 . S
C2231 C2228 1.403 . S
C2231 C2232 1.524 . S
C2231 C2235 1.400 . S
C2232 H2217 0.960 . S
C2232 H2218 0.960 . S
C2232 H2219 0.960 . S
C2232 C2231 1.524 . S
C2233 C2230 1.403 . S
C2233 C2234 1.392 . S
C2233 C2237 1.495 . S
C2234 C2233 1.392 . S
C2234 C2235 1.385 . S
C2234 C2236 1.478 . S
C2235 H2229 0.930 . S
C2235 C2231 1.400 . S
C2235 C2234 1.385 . S
C2236 C2234 1.478 . S
C2236 C2238 1.381 . S
C2236 C2242 1.383 . S
C2237 C2233 1.495 . S
C2237 H2243 0.959 . S
C2237 H2244 0.961 . S
C2237 H2245 0.960 . S
C2238 C2236 1.381 . S
C2238 C2239 1.394 . S
C2238 H2246 0.930 . S
C2239 C2238 1.394 . S
C2239 C2240 1.383 . S
C2239 H2247 0.929 . S
C2240 C2239 1.383 . S
C2240 C2241 1.377 . S
C2241 H2225 0.930 . S
C2241 C2240 1.377 . S
C2241 C2242 1.379 . S
C2242 H2226 0.931 . S
C2242 C2236 1.383 . S
C2242 C2241 1.379 . S
H2243 C2237 0.959 . S
H2244 C2237 0.961 . S
H2245 C2237 0.960 . S
H2246 C2238 0.930 . S
H2247 C2239 0.929 . S
H2248 C2256 0.929 . S
H2249 C2258 0.930 . S
H2250 C2260 0.930 . S
H2251 C2263 0.929 . S
H2252 C2266 0.930 . S
H2253 C2268 0.960 . S
H2254 C2268 0.960 . S
H2255 C2268 0.960 . S
C2256 H2248 0.929 . S
C2256 C2257 1.377 . S
C2256 C2258 1.384 . S
C2257 C2256 1.377 . S
C2257 C2263 1.390 . S
C2258 H2249 0.930 . S
C2258 C2256 1.384 . S
C2258 C2259 1.372 . S
C2259 C2258 1.372 . S
C2259 C2260 1.400 . S
C2259 C2264 1.490 . S
C2260 H2250 0.930 . S
C2260 C2259 1.400 . S
C2260 C2263 1.386 . S
H2261 C2277 0.930 . S
H2262 C2278 0.931 . S
C2263 H2251 0.929 . S
C2263 C2257 1.390 . S
C2263 C2260 1.386 . S
C2264 C2259 1.490 . S
C2264 C2266 1.395 . S
C2264 C2267 1.403 . S
H2265 C2271 0.930 . S
C2266 H2252 0.930 . S
C2266 C2264 1.395 . S
C2266 C2269 1.403 . S
C2267 C2264 1.403 . S
C2267 C2268 1.524 . S
C2267 C2271 1.400 . S
C2268 H2253 0.960 . S
C2268 H2254 0.960 . S
C2268 H2255 0.960 . S
C2268 C2267 1.524 . S
C2269 C2266 1.403 . S
C2269 C2270 1.392 . S
C2269 C2273 1.495 . S
C2270 C2269 1.392 . S
C2270 C2271 1.385 . S
C2270 C2272 1.478 . S
C2271 H2265 0.930 . S
C2271 C2267 1.400 . S
C2271 C2270 1.385 . S
C2272 C2270 1.478 . S
C2272 C2274 1.381 . S
C2272 C2278 1.383 . S
C2273 C2269 1.495 . S
C2273 H2279 0.959 . S
C2273 H2280 0.961 . S
C2273 H2281 0.960 . S
C2274 C2272 1.381 . S
C2274 C2275 1.394 . S
C2274 H2282 0.930 . S
C2275 C2274 1.394 . S
C2275 C2276 1.383 . S
C2275 H2283 0.929 . S
C2276 C2275 1.383 . S
C2276 C2277 1.377 . S
C2277 H2261 0.930 . S
C2277 C2276 1.377 . S
C2277 C2278 1.379 . S
C2278 H2262 0.931 . S
C2278 C2272 1.383 . S
C2278 C2277 1.379 . S
H2279 C2273 0.959 . S
H2280 C2273 0.961 . S
H2281 C2273 0.960 . S
H2282 C2274 0.930 . S
H2283 C2275 0.929 . S
H2284 C2292 0.929 . S
H2285 C2294 0.930 . S
H2286 C2296 0.930 . S
H2287 C2299 0.929 . S
H2288 C2302 0.930 . S
H2289 C2304 0.960 . S
H2290 C2304 0.960 . S
H2291 C2304 0.960 . S
C2292 H2284 0.929 . S
C2292 C2293 1.377 . S
C2292 C2294 1.384 . S
C2293 C2292 1.377 . S
C2293 C2299 1.390 . S
C2294 H2285 0.930 . S
C2294 C2292 1.384 . S
C2294 C2295 1.372 . S
C2295 C2294 1.372 . S
C2295 C2296 1.400 . S
C2295 C2300 1.490 . S
C2296 H2286 0.930 . S
C2296 C2295 1.400 . S
C2296 C2299 1.386 . S
H2297 C2313 0.930 . S
H2298 C2314 0.931 . S
C2299 H2287 0.929 . S
C2299 C2293 1.390 . S
C2299 C2296 1.386 . S
C2300 C2295 1.490 . S
C2300 C2302 1.395 . S
C2300 C2303 1.403 . S
H2301 C2307 0.930 . S
C2302 H2288 0.930 . S
C2302 C2300 1.395 . S
C2302 C2305 1.403 . S
C2303 C2300 1.403 . S
C2303 C2304 1.524 . S
C2303 C2307 1.400 . S
C2304 H2289 0.960 . S
C2304 H2290 0.960 . S
C2304 H2291 0.960 . S
C2304 C2303 1.524 . S
C2305 C2302 1.403 . S
C2305 C2306 1.392 . S
C2305 C2309 1.495 . S
C2306 C2305 1.392 . S
C2306 C2307 1.385 . S
C2306 C2308 1.478 . S
C2307 H2301 0.930 . S
C2307 C2303 1.400 . S
C2307 C2306 1.385 . S
C2308 C2306 1.478 . S
C2308 C2310 1.381 . S
C2308 C2314 1.383 . S
C2309 C2305 1.495 . S
C2309 H2315 0.959 . S
C2309 H2316 0.961 . S
C2309 H2317 0.960 . S
C2310 C2308 1.381 . S
C2310 C2311 1.394 . S
C2310 H2318 0.930 . S
C2311 C2310 1.394 . S
C2311 C2312 1.383 . S
C2311 H2319 0.929 . S
C2312 C2311 1.383 . S
C2312 C2313 1.377 . S
C2313 H2297 0.930 . S
C2313 C2312 1.377 . S
C2313 C2314 1.379 . S
C2314 H2298 0.931 . S
C2314 C2308 1.383 . S
C2314 C2313 1.379 . S
H2315 C2309 0.959 . S
H2316 C2309 0.961 . S
H2317 C2309 0.960 . S
H2318 C2310 0.930 . S
H2319 C2311 0.929 . S
H2320 C2328 0.929 . S
H2321 C2330 0.930 . S
H2322 C2332 0.930 . S
H2323 C2335 0.929 . S
H2324 C2338 0.930 . S
H2325 C2340 0.960 . S
H2326 C2340 0.960 . S
H2327 C2340 0.960 . S
C2328 H2320 0.929 . S
C2328 C2329 1.377 . S
C2328 C2330 1.384 . S
C2329 C2328 1.377 . S
C2329 C2335 1.390 . S
C2330 H2321 0.930 . S
C2330 C2328 1.384 . S
C2330 C2331 1.372 . S
C2331 C2330 1.372 . S
C2331 C2332 1.400 . S
C2331 C2336 1.490 . S
C2332 H2322 0.930 . S
C2332 C2331 1.400 . S
C2332 C2335 1.386 . S
H2333 C2349 0.930 . S
H2334 C2350 0.931 . S
C2335 H2323 0.929 . S
C2335 C2329 1.390 . S
C2335 C2332 1.386 . S
C2336 C2331 1.490 . S
C2336 C2338 1.395 . S
C2336 C2339 1.403 . S
H2337 C2343 0.930 . S
C2338 H2324 0.930 . S
C2338 C2336 1.395 . S
C2338 C2341 1.403 . S
C2339 C2336 1.403 . S
C2339 C2340 1.524 . S
C2339 C2343 1.400 . S
C2340 H2325 0.960 . S
C2340 H2326 0.960 . S
C2340 H2327 0.960 . S
C2340 C2339 1.524 . S
C2341 C2338 1.403 . S
C2341 C2342 1.392 . S
C2341 C2345 1.495 . S
C2342 C2341 1.392 . S
C2342 C2343 1.385 . S
C2342 C2344 1.478 . S
C2343 H2337 0.930 . S
C2343 C2339 1.400 . S
C2343 C2342 1.385 . S
C2344 C2342 1.478 . S
C2344 C2346 1.381 . S
C2344 C2350 1.383 . S
C2345 C2341 1.495 . S
C2345 H2351 0.959 . S
C2345 H2352 0.961 . S
C2345 H2353 0.960 . S
C2346 C2344 1.381 . S
C2346 C2347 1.394 . S
C2346 H2354 0.930 . S
C2347 C2346 1.394 . S
C2347 C2348 1.383 . S
C2347 H2355 0.929 . S
C2348 C2347 1.383 . S
C2348 C2349 1.377 . S
C2349 H2333 0.930 . S
C2349 C2348 1.377 . S
C2349 C2350 1.379 . S
C2350 H2334 0.931 . S
C2350 C2344 1.383 . S
C2350 C2349 1.379 . S
H2351 C2345 0.959 . S
H2352 C2345 0.961 . S
H2353 C2345 0.960 . S
H2354 C2346 0.930 . S
H2355 C2347 0.929 . S
H2356 C2364 0.929 . S
H2357 C2366 0.930 . S
H2358 C2368 0.930 . S
H2359 C2371 0.929 . S
H2360 C2374 0.930 . S
H2361 C2376 0.960 . S
H2362 C2376 0.960 . S
H2363 C2376 0.960 . S
C2364 H2356 0.929 . S
C2364 C2365 1.377 . S
C2364 C2366 1.384 . S
C2365 C2364 1.377 . S
C2365 C2371 1.390 . S
C2366 H2357 0.930 . S
C2366 C2364 1.384 . S
C2366 C2367 1.372 . S
C2367 C2366 1.372 . S
C2367 C2368 1.400 . S
C2367 C2372 1.490 . S
C2368 H2358 0.930 . S
C2368 C2367 1.400 . S
C2368 C2371 1.386 . S
H2369 C2385 0.930 . S
H2370 C2386 0.931 . S
C2371 H2359 0.929 . S
C2371 C2365 1.390 . S
C2371 C2368 1.386 . S
C2372 C2367 1.490 . S
C2372 C2374 1.395 . S
C2372 C2375 1.403 . S
H2373 C2379 0.930 . S
C2374 H2360 0.930 . S
C2374 C2372 1.395 . S
C2374 C2377 1.403 . S
C2375 C2372 1.403 . S
C2375 C2376 1.524 . S
C2375 C2379 1.400 . S
C2376 H2361 0.960 . S
C2376 H2362 0.960 . S
C2376 H2363 0.960 . S
C2376 C2375 1.524 . S
C2377 C2374 1.403 . S
C2377 C2378 1.392 . S
C2377 C2381 1.495 . S
C2378 C2377 1.392 . S
C2378 C2379 1.385 . S
C2378 C2380 1.478 . S
C2379 H2373 0.930 . S
C2379 C2375 1.400 . S
C2379 C2378 1.385 . S
C2380 C2378 1.478 . S
C2380 C2382 1.381 . S
C2380 C2386 1.383 . S
C2381 C2377 1.495 . S
C2381 H2387 0.959 . S
C2381 H2388 0.961 . S
C2381 H2389 0.960 . S
C2382 C2380 1.381 . S
C2382 C2383 1.394 . S
C2382 H2390 0.930 . S
C2383 C2382 1.394 . S
C2383 C2384 1.383 . S
C2383 H2391 0.929 . S
C2384 C2383 1.383 . S
C2384 C2385 1.377 . S
C2385 H2369 0.930 . S
C2385 C2384 1.377 . S
C2385 C2386 1.379 . S
C2386 H2370 0.931 . S
C2386 C2380 1.383 . S
C2386 C2385 1.379 . S
H2387 C2381 0.959 . S
H2388 C2381 0.961 . S
H2389 C2381 0.960 . S
H2390 C2382 0.930 . S
H2391 C2383 0.929 . S
H2392 C2400 0.929 . S
H2393 C2402 0.930 . S
H2394 C2404 0.930 . S
H2395 C2407 0.929 . S
H2396 C2410 0.930 . S
H2397 C2412 0.960 . S
H2398 C2412 0.960 . S
H2399 C2412 0.960 . S
C2400 H2392 0.929 . S
C2400 C2401 1.377 . S
C2400 C2402 1.384 . S
C2401 C2400 1.377 . S
C2401 C2407 1.390 . S
C2402 H2393 0.930 . S
C2402 C2400 1.384 . S
C2402 C2403 1.372 . S
C2403 C2402 1.372 . S
C2403 C2404 1.400 . S
C2403 C2408 1.490 . S
C2404 H2394 0.930 . S
C2404 C2403 1.400 . S
C2404 C2407 1.386 . S
H2405 C2421 0.930 . S
H2406 C2422 0.931 . S
C2407 H2395 0.929 . S
C2407 C2401 1.390 . S
C2407 C2404 1.386 . S
C2408 C2403 1.490 . S
C2408 C2410 1.395 . S
C2408 C2411 1.403 . S
H2409 C2415 0.930 . S
C2410 H2396 0.930 . S
C2410 C2408 1.395 . S
C2410 C2413 1.403 . S
C2411 C2408 1.403 . S
C2411 C2412 1.524 . S
C2411 C2415 1.400 . S
C2412 H2397 0.960 . S
C2412 H2398 0.960 . S
C2412 H2399 0.960 . S
C2412 C2411 1.524 . S
C2413 C2410 1.403 . S
C2413 C2414 1.392 . S
C2413 C2417 1.495 . S
C2414 C2413 1.392 . S
C2414 C2415 1.385 . S
C2414 C2416 1.478 . S
C2415 H2409 0.930 . S
C2415 C2411 1.400 . S
C2415 C2414 1.385 . S
C2416 C2414 1.478 . S
C2416 C2418 1.381 . S
C2416 C2422 1.383 . S
C2417 C2413 1.495 . S
C2417 H2423 0.959 . S
C2417 H2424 0.961 . S
C2417 H2425 0.960 . S
C2418 C2416 1.381 . S
C2418 C2419 1.394 . S
C2418 H2426 0.930 . S
C2419 C2418 1.394 . S
C2419 C2420 1.383 . S
C2419 H2427 0.929 . S
C2420 C2419 1.383 . S
C2420 C2421 1.377 . S
C2421 H2405 0.930 . S
C2421 C2420 1.377 . S
C2421 C2422 1.379 . S
C2422 H2406 0.931 . S
C2422 C2416 1.383 . S
C2422 C2421 1.379 . S
H2423 C2417 0.959 . S
H2424 C2417 0.961 . S
H2425 C2417 0.960 . S
H2426 C2418 0.930 . S
H2427 C2419 0.929 . S
H2428 C2436 0.929 . S
H2429 C2438 0.930 . S
H2430 C2440 0.930 . S
H2431 C2443 0.929 . S
H2432 C2446 0.930 . S
H2433 C2448 0.960 . S
H2434 C2448 0.960 . S
H2435 C2448 0.960 . S
C2436 H2428 0.929 . S
C2436 C2437 1.377 . S
C2436 C2438 1.384 . S
C2437 C2436 1.377 . S
C2437 C2443 1.390 . S
C2438 H2429 0.930 . S
C2438 C2436 1.384 . S
C2438 C2439 1.372 . S
C2439 C2438 1.372 . S
C2439 C2440 1.400 . S
C2439 C2444 1.490 . S
C2440 H2430 0.930 . S
C2440 C2439 1.400 . S
C2440 C2443 1.386 . S
H2441 C2457 0.930 . S
H2442 C2458 0.931 . S
C2443 H2431 0.929 . S
C2443 C2437 1.390 . S
C2443 C2440 1.386 . S
C2444 C2439 1.490 . S
C2444 C2446 1.395 . S
C2444 C2447 1.403 . S
H2445 C2451 0.930 . S
C2446 H2432 0.930 . S
C2446 C2444 1.395 . S
C2446 C2449 1.403 . S
C2447 C2444 1.403 . S
C2447 C2448 1.524 . S
C2447 C2451 1.400 . S
C2448 H2433 0.960 . S
C2448 H2434 0.960 . S
C2448 H2435 0.960 . S
C2448 C2447 1.524 . S
C2449 C2446 1.403 . S
C2449 C2450 1.392 . S
C2449 C2453 1.495 . S
C2450 C2449 1.392 . S
C2450 C2451 1.385 . S
C2450 C2452 1.478 . S
C2451 H2445 0.930 . S
C2451 C2447 1.400 . S
C2451 C2450 1.385 . S
C2452 C2450 1.478 . S
C2452 C2454 1.381 . S
C2452 C2458 1.383 . S
C2453 C2449 1.495 . S
C2453 H2459 0.959 . S
C2453 H2460 0.961 . S
C2453 H2461 0.960 . S
C2454 C2452 1.381 . S
C2454 C2455 1.394 . S
C2454 H2462 0.930 . S
C2455 C2454 1.394 . S
C2455 C2456 1.383 . S
C2455 H2463 0.929 . S
C2456 C2455 1.383 . S
C2456 C2457 1.377 . S
C2457 H2441 0.930 . S
C2457 C2456 1.377 . S
C2457 C2458 1.379 . S
C2458 H2442 0.931 . S
C2458 C2452 1.383 . S
C2458 C2457 1.379 . S
H2459 C2453 0.959 . S
H2460 C2453 0.961 . S
H2461 C2453 0.960 . S
H2462 C2454 0.930 . S
H2463 C2455 0.929 . S
H2464 C2472 0.929 . S
H2465 C2474 0.930 . S
H2466 C2476 0.930 . S
H2467 C2479 0.929 . S
H2468 C2482 0.930 . S
H2469 C2484 0.960 . S
H2470 C2484 0.960 . S
H2471 C2484 0.960 . S
C2472 H2464 0.929 . S
C2472 C2473 1.377 . S
C2472 C2474 1.384 . S
C2473 C2472 1.377 . S
C2473 C2479 1.390 . S
C2474 H2465 0.930 . S
C2474 C2472 1.384 . S
C2474 C2475 1.372 . S
C2475 C2474 1.372 . S
C2475 C2476 1.400 . S
C2475 C2480 1.490 . S
C2476 H2466 0.930 . S
C2476 C2475 1.400 . S
C2476 C2479 1.386 . S
H2477 C2493 0.930 . S
H2478 C2494 0.931 . S
C2479 H2467 0.929 . S
C2479 C2473 1.390 . S
C2479 C2476 1.386 . S
C2480 C2475 1.490 . S
C2480 C2482 1.395 . S
C2480 C2483 1.403 . S
H2481 C2487 0.930 . S
C2482 H2468 0.930 . S
C2482 C2480 1.395 . S
C2482 C2485 1.403 . S
C2483 C2480 1.403 . S
C2483 C2484 1.524 . S
C2483 C2487 1.400 . S
C2484 H2469 0.960 . S
C2484 H2470 0.960 . S
C2484 H2471 0.960 . S
C2484 C2483 1.524 . S
C2485 C2482 1.403 . S
C2485 C2486 1.392 . S
C2485 C2489 1.495 . S
C2486 C2485 1.392 . S
C2486 C2487 1.385 . S
C2486 C2488 1.478 . S
C2487 H2481 0.930 . S
C2487 C2483 1.400 . S
C2487 C2486 1.385 . S
C2488 C2486 1.478 . S
C2488 C2490 1.381 . S
C2488 C2494 1.383 . S
C2489 C2485 1.495 . S
C2489 H2495 0.959 . S
C2489 H2496 0.961 . S
C2489 H2497 0.960 . S
C2490 C2488 1.381 . S
C2490 C2491 1.394 . S
C2490 H2498 0.930 . S
C2491 C2490 1.394 . S
C2491 C2492 1.383 . S
C2491 H2499 0.929 . S
C2492 C2491 1.383 . S
C2492 C2493 1.377 . S
C2493 H2477 0.930 . S
C2493 C2492 1.377 . S
C2493 C2494 1.379 . S
C2494 H2478 0.931 . S
C2494 C2488 1.383 . S
C2494 C2493 1.379 . S
H2495 C2489 0.959 . S
H2496 C2489 0.961 . S
H2497 C2489 0.960 . S
H2498 C2490 0.930 . S
H2499 C2491 0.929 . S
H2500 C2508 0.929 . S
H2501 C2510 0.930 . S
H2502 C2512 0.930 . S
H2503 C2515 0.929 . S
H2504 C2518 0.930 . S
H2505 C2520 0.960 . S
H2506 C2520 0.960 . S
H2507 C2520 0.960 . S
C2508 H2500 0.929 . S
C2508 C2509 1.377 . S
C2508 C2510 1.384 . S
C2509 C2508 1.377 . S
C2509 C2515 1.390 . S
C2510 H2501 0.930 . S
C2510 C2508 1.384 . S
C2510 C2511 1.372 . S
C2511 C2510 1.372 . S
C2511 C2512 1.400 . S
C2511 C2516 1.490 . S
C2512 H2502 0.930 . S
C2512 C2511 1.400 . S
C2512 C2515 1.386 . S
H2513 C2529 0.930 . S
H2514 C2530 0.931 . S
C2515 H2503 0.929 . S
C2515 C2509 1.390 . S
C2515 C2512 1.386 . S
C2516 C2511 1.490 . S
C2516 C2518 1.395 . S
C2516 C2519 1.403 . S
H2517 C2523 0.930 . S
C2518 H2504 0.930 . S
C2518 C2516 1.395 . S
C2518 C2521 1.403 . S
C2519 C2516 1.403 . S
C2519 C2520 1.524 . S
C2519 C2523 1.400 . S
C2520 H2505 0.960 . S
C2520 H2506 0.960 . S
C2520 H2507 0.960 . S
C2520 C2519 1.524 . S
C2521 C2518 1.403 . S
C2521 C2522 1.392 . S
C2521 C2525 1.495 . S
C2522 C2521 1.392 . S
C2522 C2523 1.385 . S
C2522 C2524 1.478 . S
C2523 H2517 0.930 . S
C2523 C2519 1.400 . S
C2523 C2522 1.385 . S
C2524 C2522 1.478 . S
C2524 C2526 1.381 . S
C2524 C2530 1.383 . S
C2525 C2521 1.495 . S
C2525 H2531 0.959 . S
C2525 H2532 0.961 . S
C2525 H2533 0.960 . S
C2526 C2524 1.381 . S
C2526 C2527 1.394 . S
C2526 H2534 0.930 . S
C2527 C2526 1.394 . S
C2527 C2528 1.383 . S
C2527 H2535 0.929 . S
C2528 C2527 1.383 . S
C2528 C2529 1.377 . S
C2529 H2513 0.930 . S
C2529 C2528 1.377 . S
C2529 C2530 1.379 . S
C2530 H2514 0.931 . S
C2530 C2524 1.383 . S
C2530 C2529 1.379 . S
H2531 C2525 0.959 . S
H2532 C2525 0.961 . S
H2533 C2525 0.960 . S
H2534 C2526 0.930 . S
H2535 C2527 0.929 . S
H2536 C2544 0.929 . S
H2537 C2546 0.930 . S
H2538 C2548 0.930 . S
H2539 C2551 0.929 . S
H2540 C2554 0.930 . S
H2541 C2556 0.960 . S
H2542 C2556 0.960 . S
H2543 C2556 0.960 . S
C2544 H2536 0.929 . S
C2544 C2545 1.377 . S
C2544 C2546 1.384 . S
C2545 C2544 1.377 . S
C2545 C2551 1.390 . S
C2546 H2537 0.930 . S
C2546 C2544 1.384 . S
C2546 C2547 1.372 . S
C2547 C2546 1.372 . S
C2547 C2548 1.400 . S
C2547 C2552 1.490 . S
C2548 H2538 0.930 . S
C2548 C2547 1.400 . S
C2548 C2551 1.386 . S
H2549 C2565 0.930 . S
H2550 C2566 0.931 . S
C2551 H2539 0.929 . S
C2551 C2545 1.390 . S
C2551 C2548 1.386 . S
C2552 C2547 1.490 . S
C2552 C2554 1.395 . S
C2552 C2555 1.403 . S
H2553 C2559 0.930 . S
C2554 H2540 0.930 . S
C2554 C2552 1.395 . S
C2554 C2557 1.403 . S
C2555 C2552 1.403 . S
C2555 C2556 1.524 . S
C2555 C2559 1.400 . S
C2556 H2541 0.960 . S
C2556 H2542 0.960 . S
C2556 H2543 0.960 . S
C2556 C2555 1.524 . S
C2557 C2554 1.403 . S
C2557 C2558 1.392 . S
C2557 C2561 1.495 . S
C2558 C2557 1.392 . S
C2558 C2559 1.385 . S
C2558 C2560 1.478 . S
C2559 H2553 0.930 . S
C2559 C2555 1.400 . S
C2559 C2558 1.385 . S
C2560 C2558 1.478 . S
C2560 C2562 1.381 . S
C2560 C2566 1.383 . S
C2561 C2557 1.495 . S
C2561 H2567 0.959 . S
C2561 H2568 0.961 . S
C2561 H2569 0.960 . S
C2562 C2560 1.381 . S
C2562 C2563 1.394 . S
C2562 H2570 0.930 . S
C2563 C2562 1.394 . S
C2563 C2564 1.383 . S
C2563 H2571 0.929 . S
C2564 C2563 1.383 . S
C2564 C2565 1.377 . S
C2565 H2549 0.930 . S
C2565 C2564 1.377 . S
C2565 C2566 1.379 . S
C2566 H2550 0.931 . S
C2566 C2560 1.383 . S
C2566 C2565 1.379 . S
H2567 C2561 0.959 . S
H2568 C2561 0.961 . S
H2569 C2561 0.960 . S
H2570 C2562 0.930 . S
H2571 C2563 0.929 . S
H2572 C2580 0.929 . S
H2573 C2582 0.930 . S
H2574 C2584 0.930 . S
H2575 C2587 0.929 . S
H2576 C2590 0.930 . S
H2577 C2592 0.960 . S
H2578 C2592 0.960 . S
H2579 C2592 0.960 . S
C2580 H2572 0.929 . S
C2580 C2581 1.377 . S
C2580 C2582 1.384 . S
C2581 C2580 1.377 . S
C2581 C2587 1.390 . S
C2582 H2573 0.930 . S
C2582 C2580 1.384 . S
C2582 C2583 1.372 . S
C2583 C2582 1.372 . S
C2583 C2584 1.400 . S
C2583 C2588 1.490 . S
C2584 H2574 0.930 . S
C2584 C2583 1.400 . S
C2584 C2587 1.386 . S
H2585 C2601 0.930 . S
H2586 C2602 0.931 . S
C2587 H2575 0.929 . S
C2587 C2581 1.390 . S
C2587 C2584 1.386 . S
C2588 C2583 1.490 . S
C2588 C2590 1.395 . S
C2588 C2591 1.403 . S
H2589 C2595 0.930 . S
C2590 H2576 0.930 . S
C2590 C2588 1.395 . S
C2590 C2593 1.403 . S
C2591 C2588 1.403 . S
C2591 C2592 1.524 . S
C2591 C2595 1.400 . S
C2592 H2577 0.960 . S
C2592 H2578 0.960 . S
C2592 H2579 0.960 . S
C2592 C2591 1.524 . S
C2593 C2590 1.403 . S
C2593 C2594 1.392 . S
C2593 C2597 1.495 . S
C2594 C2593 1.392 . S
C2594 C2595 1.385 . S
C2594 C2596 1.478 . S
C2595 H2589 0.930 . S
C2595 C2591 1.400 . S
C2595 C2594 1.385 . S
C2596 C2594 1.478 . S
C2596 C2598 1.381 . S
C2596 C2602 1.383 . S
C2597 C2593 1.495 . S
C2597 H2603 0.959 . S
C2597 H2604 0.961 . S
C2597 H2605 0.960 . S
C2598 C2596 1.381 . S
C2598 C2599 1.394 . S
C2598 H2606 0.930 . S
C2599 C2598 1.394 . S
C2599 C2600 1.383 . S
C2599 H2607 0.929 . S
C2600 C2599 1.383 . S
C2600 C2601 1.377 . S
C2601 H2585 0.930 . S
C2601 C2600 1.377 . S
C2601 C2602 1.379 . S
C2602 H2586 0.931 . S
C2602 C2596 1.383 . S
C2602 C2601 1.379 . S
H2603 C2597 0.959 . S
H2604 C2597 0.961 . S
H2605 C2597 0.960 . S
H2606 C2598 0.930 . S
H2607 C2599 0.929 . S
H2608 C2616 0.929 . S
H2609 C2618 0.930 . S
H2610 C2620 0.930 . S
H2611 C2623 0.929 . S
H2612 C2626 0.930 . S
H2613 C2628 0.960 . S
H2614 C2628 0.960 . S
H2615 C2628 0.960 . S
C2616 H2608 0.929 . S
C2616 C2617 1.377 . S
C2616 C2618 1.384 . S
C2617 C2616 1.377 . S
C2617 C2623 1.390 . S
C2618 H2609 0.930 . S
C2618 C2616 1.384 . S
C2618 C2619 1.372 . S
C2619 C2618 1.372 . S
C2619 C2620 1.400 . S
C2619 C2624 1.490 . S
C2620 H2610 0.930 . S
C2620 C2619 1.400 . S
C2620 C2623 1.386 . S
H2621 C2637 0.930 . S
H2622 C2638 0.931 . S
C2623 H2611 0.929 . S
C2623 C2617 1.390 . S
C2623 C2620 1.386 . S
C2624 C2619 1.490 . S
C2624 C2626 1.395 . S
C2624 C2627 1.403 . S
H2625 C2631 0.930 . S
C2626 H2612 0.930 . S
C2626 C2624 1.395 . S
C2626 C2629 1.403 . S
C2627 C2624 1.403 . S
C2627 C2628 1.524 . S
C2627 C2631 1.400 . S
C2628 H2613 0.960 . S
C2628 H2614 0.960 . S
C2628 H2615 0.960 . S
C2628 C2627 1.524 . S
C2629 C2626 1.403 . S
C2629 C2630 1.392 . S
C2629 C2633 1.495 . S
C2630 C2629 1.392 . S
C2630 C2631 1.385 . S
C2630 C2632 1.478 . S
C2631 H2625 0.930 . S
C2631 C2627 1.400 . S
C2631 C2630 1.385 . S
C2632 C2630 1.478 . S
C2632 C2634 1.381 . S
C2632 C2638 1.383 . S
C2633 C2629 1.495 . S
C2633 H2639 0.959 . S
C2633 H2640 0.961 . S
C2633 H2641 0.960 . S
C2634 C2632 1.381 . S
C2634 C2635 1.394 . S
C2634 H2642 0.930 . S
C2635 C2634 1.394 . S
C2635 C2636 1.383 . S
C2635 H2643 0.929 . S
C2636 C2635 1.383 . S
C2636 C2637 1.377 . S
C2637 H2621 0.930 . S
C2637 C2636 1.377 . S
C2637 C2638 1.379 . S
C2638 H2622 0.931 . S
C2638 C2632 1.383 . S
C2638 C2637 1.379 . S
H2639 C2633 0.959 . S
H2640 C2633 0.961 . S
H2641 C2633 0.960 . S
H2642 C2634 0.930 . S
H2643 C2635 0.929 . S
H2644 C2652 0.929 . S
H2645 C2654 0.930 . S
H2646 C2656 0.930 . S
H2647 C2659 0.929 . S
H2648 C2662 0.930 . S
H2649 C2664 0.960 . S
H2650 C2664 0.960 . S
H2651 C2664 0.960 . S
C2652 H2644 0.929 . S
C2652 C2653 1.377 . S
C2652 C2654 1.384 . S
C2653 C2652 1.377 . S
C2653 C2659 1.390 . S
C2654 H2645 0.930 . S
C2654 C2652 1.384 . S
C2654 C2655 1.372 . S
C2655 C2654 1.372 . S
C2655 C2656 1.400 . S
C2655 C2660 1.490 . S
C2656 H2646 0.930 . S
C2656 C2655 1.400 . S
C2656 C2659 1.386 . S
H2657 C2673 0.930 . S
H2658 C2674 0.931 . S
C2659 H2647 0.929 . S
C2659 C2653 1.390 . S
C2659 C2656 1.386 . S
C2660 C2655 1.490 . S
C2660 C2662 1.395 . S
C2660 C2663 1.403 . S
H2661 C2667 0.930 . S
C2662 H2648 0.930 . S
C2662 C2660 1.395 . S
C2662 C2665 1.403 . S
C2663 C2660 1.403 . S
C2663 C2664 1.524 . S
C2663 C2667 1.400 . S
C2664 H2649 0.960 . S
C2664 H2650 0.960 . S
C2664 H2651 0.960 . S
C2664 C2663 1.524 . S
C2665 C2662 1.403 . S
C2665 C2666 1.392 . S
C2665 C2669 1.495 . S
C2666 C2665 1.392 . S
C2666 C2667 1.385 . S
C2666 C2668 1.478 . S
C2667 H2661 0.930 . S
C2667 C2663 1.400 . S
C2667 C2666 1.385 . S
C2668 C2666 1.478 . S
C2668 C2670 1.381 . S
C2668 C2674 1.383 . S
C2669 C2665 1.495 . S
C2669 H2675 0.959 . S
C2669 H2676 0.961 . S
C2669 H2677 0.960 . S
C2670 C2668 1.381 . S
C2670 C2671 1.394 . S
C2670 H2678 0.930 . S
C2671 C2670 1.394 . S
C2671 C2672 1.383 . S
C2671 H2679 0.929 . S
C2672 C2671 1.383 . S
C2672 C2673 1.377 . S
C2673 H2657 0.930 . S
C2673 C2672 1.377 . S
C2673 C2674 1.379 . S
C2674 H2658 0.931 . S
C2674 C2668 1.383 . S
C2674 C2673 1.379 . S
H2675 C2669 0.959 . S
H2676 C2669 0.961 . S
H2677 C2669 0.960 . S
H2678 C2670 0.930 . S
H2679 C2671 0.929 . S
H2680 C2688 0.929 . S
H2681 C2690 0.930 . S
H2682 C2692 0.930 . S
H2683 C2695 0.929 . S
H2684 C2698 0.930 . S
H2685 C2700 0.960 . S
H2686 C2700 0.960 . S
H2687 C2700 0.960 . S
C2688 H2680 0.929 . S
C2688 C2689 1.377 . S
C2688 C2690 1.384 . S
C2689 C2688 1.377 . S
C2689 C2695 1.390 . S
C2690 H2681 0.930 . S
C2690 C2688 1.384 . S
C2690 C2691 1.372 . S
C2691 C2690 1.372 . S
C2691 C2692 1.400 . S
C2691 C2696 1.490 . S
C2692 H2682 0.930 . S
C2692 C2691 1.400 . S
C2692 C2695 1.386 . S
H2693 C2709 0.930 . S
H2694 C2710 0.931 . S
C2695 H2683 0.929 . S
C2695 C2689 1.390 . S
C2695 C2692 1.386 . S
C2696 C2691 1.490 . S
C2696 C2698 1.395 . S
C2696 C2699 1.403 . S
H2697 C2703 0.930 . S
C2698 H2684 0.930 . S
C2698 C2696 1.395 . S
C2698 C2701 1.403 . S
C2699 C2696 1.403 . S
C2699 C2700 1.524 . S
C2699 C2703 1.400 . S
C2700 H2685 0.960 . S
C2700 H2686 0.960 . S
C2700 H2687 0.960 . S
C2700 C2699 1.524 . S
C2701 C2698 1.403 . S
C2701 C2702 1.392 . S
C2701 C2705 1.495 . S
C2702 C2701 1.392 . S
C2702 C2703 1.385 . S
C2702 C2704 1.478 . S
C2703 H2697 0.930 . S
C2703 C2699 1.400 . S
C2703 C2702 1.385 . S
C2704 C2702 1.478 . S
C2704 C2706 1.381 . S
C2704 C2710 1.383 . S
C2705 C2701 1.495 . S
C2705 H2711 0.959 . S
C2705 H2712 0.961 . S
C2705 H2713 0.960 . S
C2706 C2704 1.381 . S
C2706 C2707 1.394 . S
C2706 H2714 0.930 . S
C2707 C2706 1.394 . S
C2707 C2708 1.383 . S
C2707 H2715 0.929 . S
C2708 C2707 1.383 . S
C2708 C2709 1.377 . S
C2709 H2693 0.930 . S
C2709 C2708 1.377 . S
C2709 C2710 1.379 . S
C2710 H2694 0.931 . S
C2710 C2704 1.383 . S
C2710 C2709 1.379 . S
H2711 C2705 0.959 . S
H2712 C2705 0.961 . S
H2713 C2705 0.960 . S
H2714 C2706 0.930 . S
H2715 C2707 0.929 . S
H2716 C2724 0.929 . S
H2717 C2726 0.930 . S
H2718 C2728 0.930 . S
H2719 C2731 0.929 . S
H2720 C2734 0.930 . S
H2721 C2736 0.960 . S
H2722 C2736 0.960 . S
H2723 C2736 0.960 . S
C2724 H2716 0.929 . S
C2724 C2725 1.377 . S
C2724 C2726 1.384 . S
C2725 C2724 1.377 . S
C2725 C2731 1.390 . S
C2726 H2717 0.930 . S
C2726 C2724 1.384 . S
C2726 C2727 1.372 . S
C2727 C2726 1.372 . S
C2727 C2728 1.400 . S
C2727 C2732 1.490 . S
C2728 H2718 0.930 . S
C2728 C2727 1.400 . S
C2728 C2731 1.386 . S
H2729 C2745 0.930 . S
H2730 C2746 0.931 . S
C2731 H2719 0.929 . S
C2731 C2725 1.390 . S
C2731 C2728 1.386 . S
C2732 C2727 1.490 . S
C2732 C2734 1.395 . S
C2732 C2735 1.403 . S
H2733 C2739 0.930 . S
C2734 H2720 0.930 . S
C2734 C2732 1.395 . S
C2734 C2737 1.403 . S
C2735 C2732 1.403 . S
C2735 C2736 1.524 . S
C2735 C2739 1.400 . S
C2736 H2721 0.960 . S
C2736 H2722 0.960 . S
C2736 H2723 0.960 . S
C2736 C2735 1.524 . S
C2737 C2734 1.403 . S
C2737 C2738 1.392 . S
C2737 C2741 1.495 . S
C2738 C2737 1.392 . S
C2738 C2739 1.385 . S
C2738 C2740 1.478 . S
C2739 H2733 0.930 . S
C2739 C2735 1.400 . S
C2739 C2738 1.385 . S
C2740 C2738 1.478 . S
C2740 C2742 1.381 . S
C2740 C2746 1.383 . S
C2741 C2737 1.495 . S
C2741 H2747 0.959 . S
C2741 H2748 0.961 . S
C2741 H2749 0.960 . S
C2742 C2740 1.381 . S
C2742 C2743 1.394 . S
C2742 H2750 0.930 . S
C2743 C2742 1.394 . S
C2743 C2744 1.383 . S
C2743 H2751 0.929 . S
C2744 C2743 1.383 . S
C2744 C2745 1.377 . S
C2745 H2729 0.930 . S
C2745 C2744 1.377 . S
C2745 C2746 1.379 . S
C2746 H2730 0.931 . S
C2746 C2740 1.383 . S
C2746 C2745 1.379 . S
H2747 C2741 0.959 . S
H2748 C2741 0.961 . S
H2749 C2741 0.960 . S
H2750 C2742 0.930 . S
H2751 C2743 0.929 . S
C457 C93 1.463 . S
C476 C9 1.444 . S
C493 C23 1.459 . S
C512 C107 1.465 . S
C529 C65 1.463 . S
C548 C37 1.449 . S
C565 C51 1.456 . S
C584 C79 1.477 . S
C601 C205 1.464 . S
C620 C121 1.456 . S
C637 C219 1.458 . S
C656 C135 1.438 . S
C673 C149 1.457 . S
C692 C177 1.441 . S
C709 C163 1.461 . S
C728 C191 1.442 . S
C745 C233 1.457 . S
C764 C317 1.474 . S
C781 C247 1.464 . S
C800 C331 1.440 . S
C817 C289 1.460 . S
C836 C261 1.457 . S
C853 C303 1.458 . S
C872 C275 1.472 . S
C889 C345 1.465 . S
C908 C429 1.469 . S
C925 C443 1.465 . S
C944 C359 1.469 . S
C961 C401 1.464 . S
C980 C373 1.459 . S
C997 C387 1.464 . S
C1016 C415 1.473 . S
C1033 C3 1.147 . S
C1052 C427 1.166 . S
C1069 C217 1.143 . S
C1088 C17 1.148 . S
C1105 C31 1.153 . S
C1124 C399 1.121 . S
C1141 C45 1.152 . S
C1160 C189 1.127 . S
C1177 C371 1.150 . S
C1196 C59 1.138 . S
C1213 C161 1.150 . S
C1232 C73 1.133 . S
C1249 C87 1.146 . S
C1268 C343 1.162 . S
C1285 C133 1.150 . S
C1304 C101 1.129 . S
C1321 C115 1.147 . S
C1340 C315 1.159 . S
C1357 C105 1.147 . S
C1376 C129 1.166 . S
C1393 C143 1.150 . S
C1412 C287 1.165 . S
C1429 C157 1.146 . S
C1448 C77 1.149 . S
C1465 C259 1.144 . S
C1484 C171 1.164 . S
C1501 C185 1.151 . S
C1520 C49 1.123 . S
C1537 C199 1.152 . S
C1556 C231 1.161 . S
C1573 C21 1.150 . S
C1592 C213 1.146 . S
C1609 C227 1.151 . S
C1628 C203 1.150 . S
C1645 C241 1.150 . S
C1664 C441 1.155 . S
C1681 C175 1.143 . S
C1700 C255 1.165 . S
C1717 C269 1.154 . S
C1736 C413 1.125 . S
C1753 C147 1.148 . S
C1772 C283 1.131 . S
C1789 C385 1.150 . S
C1808 C297 1.129 . S
C1825 C119 1.141 . S
C1844 C311 1.160 . S
C1861 C357 1.142 . S
C1880 C325 1.167 . S
C1897 C339 1.146 . S
C1916 C91 1.139 . S
C1933 C329 1.150 . S
C1952 C353 1.146 . S
C1969 C63 1.150 . S
C1988 C367 1.142 . S
C2005 C381 1.146 . S
C2024 C301 1.151 . S
C2041 C395 1.150 . S
C2060 C35 1.121 . S
C2077 C409 1.149 . S
C2096 C273 1.165 . S
C2113 C7 1.141 . S
C2132 C423 1.153 . S
C2149 C437 1.153 . S
C2168 C245 1.160 . S
C2185 C8 1.381 . S
C2204 C302 1.377 . S
C2221 C316 1.383 . S
C2240 C22 1.385 . S
C2257 C36 1.381 . S
C2276 C330 1.372 . S
C2293 C288 1.383 . S
C2312 C50 1.384 . S
C2329 C274 1.383 . S
C2348 C64 1.385 . S
C2365 C232 1.383 . S
C2384 C78 1.386 . S
C2401 C246 1.381 . S
C2420 C92 1.373 . S
C2437 C260 1.381 . S
C2456 C106 1.375 . S
C2473 C120 1.383 . S
C2492 C414 1.374 . S
C2509 C428 1.382 . S
C2528 C134 1.381 . S
C2545 C442 1.381 . S
C2564 C148 1.383 . S
C2581 C400 1.381 . S
C2600 C162 1.384 . S
C2617 C386 1.383 . S
C2636 C176 1.374 . S
C2653 C344 1.381 . S
C2672 C190 1.382 . S
C2689 C204 1.383 . S
C2708 C358 1.372 . S
C2725 C218 1.383 . S
C2744 C372 1.375 . S
