# Generated by pormake.
# Topology umn, (4)-cn, num edge types: 1
# Building blocks:
#     Node 0, Type 0, BuildingBlock: CEKHIL_clean_sbu_0, # of connection points: 4
#     Node 1, Type 0, BuildingBlock: CEKHIL_clean_sbu_0, # of connection points: 4
#     Node 2, Type 0, BuildingBlock: CEKHIL_clean_sbu_0, # of connection points: 4
#     Node 3, Type 0, BuildingBlock: CEKHIL_clean_sbu_0, # of connection points: 4
#     Node 4, Type 0, BuildingBlock: CEKHIL_clean_sbu_0, # of connection points: 4
#     Node 5, Type 0, BuildingBlock: CEKHIL_clean_sbu_0, # of connection points: 4
#     Node 6, Type 0, BuildingBlock: CEKHIL_clean_sbu_0, # of connection points: 4
#     Node 7, Type 0, BuildingBlock: CEKHIL_clean_sbu_0, # of connection points: 4
#     Node 8, Type 0, BuildingBlock: CEKHIL_clean_sbu_0, # of connection points: 4
#     Node 9, Type 0, BuildingBlock: CEKHIL_clean_sbu_0, # of connection points: 4
#     Node 10, Type 0, BuildingBlock: CEKHIL_clean_sbu_0, # of connection points: 4
#     Node 11, Type 0, BuildingBlock: CEKHIL_clean_sbu_0, # of connection points: 4
#     Node 12, Type 0, BuildingBlock: CEKHIL_clean_sbu_0, # of connection points: 4
#     Node 13, Type 0, BuildingBlock: CEKHIL_clean_sbu_0, # of connection points: 4
#     Node 14, Type 0, BuildingBlock: CEKHIL_clean_sbu_0, # of connection points: 4
#     Node 15, Type 0, BuildingBlock: CEKHIL_clean_sbu_0, # of connection points: 4
#     Node 16, Type 0, BuildingBlock: CEKHIL_clean_sbu_0, # of connection points: 4
#     Node 17, Type 0, BuildingBlock: CEKHIL_clean_sbu_0, # of connection points: 4
#     Node 18, Type 0, BuildingBlock: CEKHIL_clean_sbu_0, # of connection points: 4
#     Node 19, Type 0, BuildingBlock: CEKHIL_clean_sbu_0, # of connection points: 4
#     Node 20, Type 0, BuildingBlock: CEKHIL_clean_sbu_0, # of connection points: 4
#     Node 21, Type 0, BuildingBlock: CEKHIL_clean_sbu_0, # of connection points: 4
#     Node 22, Type 0, BuildingBlock: CEKHIL_clean_sbu_0, # of connection points: 4
#     Node 23, Type 0, BuildingBlock: CEKHIL_clean_sbu_0, # of connection points: 4
#     Node 24, Type 0, BuildingBlock: CEKHIL_clean_sbu_0, # of connection points: 4
#     Node 25, Type 0, BuildingBlock: CEKHIL_clean_sbu_0, # of connection points: 4
#     Node 26, Type 0, BuildingBlock: CEKHIL_clean_sbu_0, # of connection points: 4
#     Node 27, Type 0, BuildingBlock: CEKHIL_clean_sbu_0, # of connection points: 4
#     Node 28, Type 0, BuildingBlock: CEKHIL_clean_sbu_0, # of connection points: 4
#     Node 29, Type 0, BuildingBlock: CEKHIL_clean_sbu_0, # of connection points: 4
#     Node 30, Type 0, BuildingBlock: CEKHIL_clean_sbu_0, # of connection points: 4
#     Node 31, Type 0, BuildingBlock: CEKHIL_clean_sbu_0, # of connection points: 4
#     Node 32, Type 0, BuildingBlock: CEKHIL_clean_sbu_0, # of connection points: 4
#     Node 33, Type 0, BuildingBlock: CEKHIL_clean_sbu_0, # of connection points: 4
#     Node 34, Type 0, BuildingBlock: CEKHIL_clean_sbu_0, # of connection points: 4
#     Node 35, Type 0, BuildingBlock: CEKHIL_clean_sbu_0, # of connection points: 4
#     Edge 36, Type (0, 0), BuildingBlock: AJUNOK_clean_linker_0, # of connection points: 2
#     Edge 37, Type (0, 0), BuildingBlock: AJUNOK_clean_linker_0, # of connection points: 2
#     Edge 38, Type (0, 0), BuildingBlock: AJUNOK_clean_linker_0, # of connection points: 2
#     Edge 39, Type (0, 0), BuildingBlock: AJUNOK_clean_linker_0, # of connection points: 2
#     Edge 40, Type (0, 0), BuildingBlock: AJUNOK_clean_linker_0, # of connection points: 2
#     Edge 41, Type (0, 0), BuildingBlock: AJUNOK_clean_linker_0, # of connection points: 2
#     Edge 42, Type (0, 0), BuildingBlock: AJUNOK_clean_linker_0, # of connection points: 2
#     Edge 43, Type (0, 0), BuildingBlock: AJUNOK_clean_linker_0, # of connection points: 2
#     Edge 44, Type (0, 0), BuildingBlock: AJUNOK_clean_linker_0, # of connection points: 2
#     Edge 45, Type (0, 0), BuildingBlock: AJUNOK_clean_linker_0, # of connection points: 2
#     Edge 46, Type (0, 0), BuildingBlock: AJUNOK_clean_linker_0, # of connection points: 2
#     Edge 47, Type (0, 0), BuildingBlock: AJUNOK_clean_linker_0, # of connection points: 2
#     Edge 48, Type (0, 0), BuildingBlock: AJUNOK_clean_linker_0, # of connection points: 2
#     Edge 49, Type (0, 0), BuildingBlock: AJUNOK_clean_linker_0, # of connection points: 2
#     Edge 50, Type (0, 0), BuildingBlock: AJUNOK_clean_linker_0, # of connection points: 2
#     Edge 51, Type (0, 0), BuildingBlock: AJUNOK_clean_linker_0, # of connection points: 2
#     Edge 52, Type (0, 0), BuildingBlock: AJUNOK_clean_linker_0, # of connection points: 2
#     Edge 53, Type (0, 0), BuildingBlock: AJUNOK_clean_linker_0, # of connection points: 2
#     Edge 54, Type (0, 0), BuildingBlock: AJUNOK_clean_linker_0, # of connection points: 2
#     Edge 55, Type (0, 0), BuildingBlock: AJUNOK_clean_linker_0, # of connection points: 2
#     Edge 56, Type (0, 0), BuildingBlock: AJUNOK_clean_linker_0, # of connection points: 2
#     Edge 57, Type (0, 0), BuildingBlock: AJUNOK_clean_linker_0, # of connection points: 2
#     Edge 58, Type (0, 0), BuildingBlock: AJUNOK_clean_linker_0, # of connection points: 2
#     Edge 59, Type (0, 0), BuildingBlock: AJUNOK_clean_linker_0, # of connection points: 2
#     Edge 60, Type (0, 0), BuildingBlock: AJUNOK_clean_linker_0, # of connection points: 2
#     Edge 61, Type (0, 0), BuildingBlock: AJUNOK_clean_linker_0, # of connection points: 2
#     Edge 62, Type (0, 0), BuildingBlock: AJUNOK_clean_linker_0, # of connection points: 2
#     Edge 63, Type (0, 0), BuildingBlock: AJUNOK_clean_linker_0, # of connection points: 2
#     Edge 64, Type (0, 0), BuildingBlock: AJUNOK_clean_linker_0, # of connection points: 2
#     Edge 65, Type (0, 0), BuildingBlock: AJUNOK_clean_linker_0, # of connection points: 2
#     Edge 66, Type (0, 0), BuildingBlock: AJUNOK_clean_linker_0, # of connection points: 2
#     Edge 67, Type (0, 0), BuildingBlock: AJUNOK_clean_linker_0, # of connection points: 2
#     Edge 68, Type (0, 0), BuildingBlock: AJUNOK_clean_linker_0, # of connection points: 2
#     Edge 69, Type (0, 0), BuildingBlock: AJUNOK_clean_linker_0, # of connection points: 2
#     Edge 70, Type (0, 0), BuildingBlock: AJUNOK_clean_linker_0, # of connection points: 2
#     Edge 71, Type (0, 0), BuildingBlock: AJUNOK_clean_linker_0, # of connection points: 2
#     Edge 72, Type (0, 0), BuildingBlock: AJUNOK_clean_linker_0, # of connection points: 2
#     Edge 73, Type (0, 0), BuildingBlock: AJUNOK_clean_linker_0, # of connection points: 2
#     Edge 74, Type (0, 0), BuildingBlock: AJUNOK_clean_linker_0, # of connection points: 2
#     Edge 75, Type (0, 0), BuildingBlock: AJUNOK_clean_linker_0, # of connection points: 2
#     Edge 76, Type (0, 0), BuildingBlock: AJUNOK_clean_linker_0, # of connection points: 2
#     Edge 77, Type (0, 0), BuildingBlock: AJUNOK_clean_linker_0, # of connection points: 2
#     Edge 78, Type (0, 0), BuildingBlock: AJUNOK_clean_linker_0, # of connection points: 2
#     Edge 79, Type (0, 0), BuildingBlock: AJUNOK_clean_linker_0, # of connection points: 2
#     Edge 80, Type (0, 0), BuildingBlock: AJUNOK_clean_linker_0, # of connection points: 2
#     Edge 81, Type (0, 0), BuildingBlock: AJUNOK_clean_linker_0, # of connection points: 2
#     Edge 82, Type (0, 0), BuildingBlock: AJUNOK_clean_linker_0, # of connection points: 2
#     Edge 83, Type (0, 0), BuildingBlock: AJUNOK_clean_linker_0, # of connection points: 2
#     Edge 84, Type (0, 0), BuildingBlock: AJUNOK_clean_linker_0, # of connection points: 2
#     Edge 85, Type (0, 0), BuildingBlock: AJUNOK_clean_linker_0, # of connection points: 2
#     Edge 86, Type (0, 0), BuildingBlock: AJUNOK_clean_linker_0, # of connection points: 2
#     Edge 87, Type (0, 0), BuildingBlock: AJUNOK_clean_linker_0, # of connection points: 2
#     Edge 88, Type (0, 0), BuildingBlock: AJUNOK_clean_linker_0, # of connection points: 2
#     Edge 89, Type (0, 0), BuildingBlock: AJUNOK_clean_linker_0, # of connection points: 2
#     Edge 90, Type (0, 0), BuildingBlock: AJUNOK_clean_linker_0, # of connection points: 2
#     Edge 91, Type (0, 0), BuildingBlock: AJUNOK_clean_linker_0, # of connection points: 2
#     Edge 92, Type (0, 0), BuildingBlock: AJUNOK_clean_linker_0, # of connection points: 2
#     Edge 93, Type (0, 0), BuildingBlock: AJUNOK_clean_linker_0, # of connection points: 2
#     Edge 94, Type (0, 0), BuildingBlock: AJUNOK_clean_linker_0, # of connection points: 2
#     Edge 95, Type (0, 0), BuildingBlock: AJUNOK_clean_linker_0, # of connection points: 2
#     Edge 96, Type (0, 0), BuildingBlock: AJUNOK_clean_linker_0, # of connection points: 2
#     Edge 97, Type (0, 0), BuildingBlock: AJUNOK_clean_linker_0, # of connection points: 2
#     Edge 98, Type (0, 0), BuildingBlock: AJUNOK_clean_linker_0, # of connection points: 2
#     Edge 99, Type (0, 0), BuildingBlock: AJUNOK_clean_linker_0, # of connection points: 2
#     Edge 100, Type (0, 0), BuildingBlock: AJUNOK_clean_linker_0, # of connection points: 2
#     Edge 101, Type (0, 0), BuildingBlock: AJUNOK_clean_linker_0, # of connection points: 2
#     Edge 102, Type (0, 0), BuildingBlock: AJUNOK_clean_linker_0, # of connection points: 2
#     Edge 103, Type (0, 0), BuildingBlock: AJUNOK_clean_linker_0, # of connection points: 2
#     Edge 104, Type (0, 0), BuildingBlock: AJUNOK_clean_linker_0, # of connection points: 2
#     Edge 105, Type (0, 0), BuildingBlock: AJUNOK_clean_linker_0, # of connection points: 2
#     Edge 106, Type (0, 0), BuildingBlock: AJUNOK_clean_linker_0, # of connection points: 2
#     Edge 107, Type (0, 0), BuildingBlock: AJUNOK_clean_linker_0, # of connection points: 2
# Relax obj value: 0.182
# Max RMSD: 0.213
# Mean RMSD: 0.213
data_MOF--net-umn--node1-CEKHIL_clean_sbu_0--edge1-AJUNOK_clean_linker_0
_symmetry_space_group_name_H-M    P1
_symmetry_Int_Tables_number       1
_symmetry_cell_setting            triclinic
loop_
_symmetry_equiv_pos_as_xyz
'x, y, z'
_cell_length_a     60.697866
_cell_length_b     60.763024
_cell_length_c     26.034122
_cell_angle_alpha  89.960607
_cell_angle_beta   90.012875
_cell_angle_gamma 120.06579
loop_
_atom_site_label
_atom_site_type_symbol
_atom_site_fract_x
_atom_site_fract_y
_atom_site_fract_z
_atom_type_partial_charge
Co0 Co 0.36459 0.0998 0.22279 0.0
O1 O 0.37415 0.13415 0.20805 0.0
O2 O 0.33442 0.10217 0.21047 0.0
C3 C 0.39268 0.09733 0.16777 0.0
O4 O 0.34873 0.06211 0.23737 0.0
Co5 Co 0.40555 0.09385 0.27942 0.0
O6 O 0.37987 0.05757 0.27386 0.0
C7 C 0.36849 0.10019 0.34108 0.0
C8 C 0.35014 0.12637 0.2034 0.0
C9 C 0.35697 0.04852 0.25877 0.0
O10 O 0.36044 0.10448 0.29868 0.0
O11 O 0.38749 0.09651 0.34267 0.0
O12 O 0.37124 0.09452 0.152 0.0
O13 O 0.3983 0.10525 0.21507 0.0
Co14 Co 0.89122 0.25949 0.23111 0.0
O15 O 0.85705 0.23486 0.21448 0.0
O16 O 0.88883 0.22693 0.21832 0.0
C17 C 0.89414 0.29025 0.17591 0.0
O18 O 0.92877 0.28129 0.2479 0.0
Co19 Co 0.89658 0.30586 0.28794 0.0
O20 O 0.93295 0.31654 0.28562 0.0
C21 C 0.88933 0.262 0.34931 0.0
C22 C 0.86471 0.21857 0.21021 0.0
C23 C 0.94204 0.30273 0.27105 0.0
O24 O 0.88541 0.24995 0.30667 0.0
O25 O 0.8932 0.28474 0.35112 0.0
O26 O 0.89751 0.27192 0.16071 0.0
O27 O 0.88569 0.28773 0.22287 0.0
Co28 Co 0.7319 0.63117 0.23025 0.0
O29 O 0.75616 0.6215 0.21138 0.0
O30 O 0.76404 0.66123 0.21472 0.0
C31 C 0.69985 0.60285 0.17828 0.0
O32 O 0.71075 0.64732 0.2485 0.0
Co33 Co 0.68677 0.59141 0.29176 0.0
O34 O 0.67658 0.6174 0.29132 0.0
C35 C 0.73177 0.62934 0.34835 0.0
C36 C 0.77224 0.64547 0.20557 0.0
C37 C 0.69003 0.63988 0.27392 0.0
O38 O 0.74319 0.63579 0.30475 0.0
O39 O 0.70889 0.61085 0.35267 0.0
O40 O 0.71795 0.6243 0.16121 0.0
O41 O 0.70331 0.59728 0.22493 0.0
Co42 Co 0.10289 0.36128 0.30856 0.0
O43 O 0.13851 0.37224 0.31249 0.0
O44 O 0.10711 0.3325 0.3217 0.0
C45 C 0.10272 0.39117 0.36199 0.0
O46 O 0.0645 0.34366 0.30778 0.0
Co47 Co 0.08884 0.39702 0.25279 0.0
O48 O 0.05505 0.37342 0.28204 0.0
C49 C 0.09532 0.36037 0.19036 0.0
C50 C 0.13148 0.34862 0.32129 0.0
C51 C 0.0487 0.35139 0.29905 0.0
O52 O 0.10168 0.35356 0.23206 0.0
O53 O 0.09063 0.37871 0.18933 0.0
O54 O 0.10294 0.37139 0.37967 0.0
O55 O 0.10679 0.39447 0.31258 0.0
Co56 Co 0.6297 0.73992 0.31231 0.0
O57 O 0.61856 0.76444 0.31547 0.0
O58 O 0.6582 0.77261 0.32735 0.0
C59 C 0.59913 0.70953 0.36406 0.0
O60 O 0.64768 0.71965 0.31289 0.0
Co61 Co 0.59577 0.69 0.256 0.0
O62 O 0.61825 0.67982 0.29048 0.0
C63 C 0.63305 0.73374 0.19496 0.0
C64 C 0.64206 0.78076 0.32654 0.0
C65 C 0.64025 0.69604 0.30681 0.0
O66 O 0.63857 0.74702 0.23638 0.0
O67 O 0.61535 0.71037 0.19355 0.0
O68 O 0.61867 0.72947 0.38269 0.0
O69 O 0.59646 0.71039 0.31442 0.0
Co70 Co 0.2523 0.88826 0.30016 0.0
O71 O 0.22634 0.85323 0.30564 0.0
O72 O 0.22 0.88609 0.31024 0.0
C73 C 0.28047 0.88708 0.35711 0.0
O74 O 0.2745 0.92658 0.29751 0.0
Co75 Co 0.30283 0.90081 0.25081 0.0
O76 O 0.31417 0.93434 0.28171 0.0
C77 C 0.26206 0.89831 0.18469 0.0
C78 C 0.21062 0.8616 0.31215 0.0
C79 C 0.29856 0.94171 0.29338 0.0
O80 O 0.24677 0.88839 0.22292 0.0
O81 O 0.28552 0.90442 0.18747 0.0
O82 O 0.26104 0.8887 0.37216 0.0
O83 O 0.28045 0.88249 0.30809 0.0
Co84 Co 0.63028 0.89067 0.8098 0.0
O85 O 0.62332 0.85736 0.82785 0.0
O86 O 0.66192 0.89092 0.81898 0.0
C87 C 0.60364 0.89376 0.8672 0.0
O88 O 0.6437 0.92771 0.79175 0.0
Co89 Co 0.5869 0.89308 0.75682 0.0
O90 O 0.61 0.92991 0.76215 0.0
C91 C 0.62458 0.88909 0.69253 0.0
C92 C 0.64774 0.8668 0.82939 0.0
C93 C 0.63348 0.9402 0.77359 0.0
O94 O 0.63259 0.88411 0.73416 0.0
O95 O 0.60545 0.89258 0.69229 0.0
O96 O 0.62585 0.89769 0.88023 0.0
O97 O 0.59605 0.88364 0.82173 0.0
Co98 Co 0.09961 0.73763 0.81139 0.0
O99 O 0.13321 0.7626 0.83086 0.0
O100 O 0.10096 0.7697 0.82514 0.0
C101 C 0.09667 0.70661 0.86552 0.0
O102 O 0.06238 0.71513 0.79163 0.0
Co103 Co 0.0966 0.69297 0.75283 0.0
O104 O 0.05986 0.67982 0.75809 0.0
C105 C 0.10142 0.73642 0.69385 0.0
C106 C 0.12499 0.77842 0.83518 0.0
C107 C 0.04983 0.6931 0.77025 0.0
O108 O 0.10674 0.74842 0.73674 0.0
O109 O 0.09754 0.71371 0.69072 0.0
O110 O 0.09224 0.72423 0.88083 0.0
O111 O 0.10617 0.71 0.81928 0.0
Co112 Co 0.25213 0.35745 0.80952 0.0
O113 O 0.22677 0.36709 0.81427 0.0
O114 O 0.21955 0.32768 0.82216 0.0
C115 C 0.28112 0.38769 0.86385 0.0
O116 O 0.27429 0.34148 0.80733 0.0
Co117 Co 0.30129 0.39518 0.75451 0.0
O118 O 0.31325 0.37342 0.78571 0.0
C119 C 0.25871 0.358 0.69123 0.0
C120 C 0.2107 0.34327 0.82257 0.0
C121 C 0.29825 0.35072 0.80044 0.0
O122 O 0.2457 0.35031 0.73299 0.0
O123 O 0.28147 0.37698 0.69045 0.0
O124 O 0.26178 0.36705 0.88078 0.0
O125 O 0.28041 0.39129 0.81454 0.0
Co126 Co 0.88844 0.62951 0.72821 0.0
O127 O 0.85277 0.61803 0.72324 0.0
O128 O 0.88381 0.65803 0.71513 0.0
C129 C 0.88923 0.60002 0.67485 0.0
O130 O 0.92686 0.64762 0.73028 0.0
Co131 Co 0.90286 0.59409 0.7842 0.0
O132 O 0.93664 0.618 0.75525 0.0
C133 C 0.89475 0.62975 0.84649 0.0
C134 C 0.85951 0.64161 0.71492 0.0
C135 C 0.94286 0.64012 0.73895 0.0
O136 O 0.88883 0.63675 0.80457 0.0
O137 O 0.89979 0.61165 0.84774 0.0
O138 O 0.8891 0.61984 0.65718 0.0
O139 O 0.88499 0.59653 0.72416 0.0
Co140 Co 0.36279 0.25855 0.72439 0.0
O141 O 0.37073 0.2329 0.70644 0.0
O142 O 0.33174 0.22727 0.70968 0.0
C143 C 0.39194 0.28973 0.67178 0.0
O144 O 0.34824 0.28119 0.7416 0.0
Co145 Co 0.40367 0.30307 0.7851 0.0
O146 O 0.37939 0.31546 0.78164 0.0
C147 C 0.36487 0.25913 0.84281 0.0
C148 C 0.34646 0.21778 0.70115 0.0
C149 C 0.35669 0.30255 0.76497 0.0
O150 O 0.35773 0.24771 0.79931 0.0
O151 O 0.38408 0.28161 0.84667 0.0
O152 O 0.37018 0.27205 0.65496 0.0
O153 O 0.39724 0.28611 0.71859 0.0
Co154 Co 0.72826 0.10121 0.72803 0.0
O155 O 0.75284 0.13669 0.72252 0.0
O156 O 0.76107 0.10519 0.714 0.0
C157 C 0.69772 0.10066 0.67548 0.0
O158 O 0.7077 0.06298 0.73052 0.0
Co159 Co 0.67886 0.08707 0.78512 0.0
O160 O 0.66838 0.05318 0.75619 0.0
C161 C 0.72284 0.0948 0.84648 0.0
C162 C 0.76933 0.12951 0.71365 0.0
C163 C 0.68426 0.04697 0.73976 0.0
O164 O 0.73559 0.10075 0.80429 0.0
O165 O 0.69971 0.08988 0.84827 0.0
O166 O 0.7175 0.10059 0.65727 0.0
O167 O 0.69889 0.10507 0.7248 0.0
Co168 Co 0.0266 0.43133 0.556 0.0
O169 O 0.03372 0.46479 0.5395 0.0
O170 O -0.00491 0.43084 0.54153 0.0
C171 C 0.05639 0.43073 0.50318 0.0
O172 O 0.01322 0.39415 0.57162 0.0
Co173 Co 0.06823 0.42902 0.61675 0.0
O174 O 0.04592 0.39221 0.60742 0.0
C175 C 0.02887 0.43284 0.67484 0.0
C176 C 0.00941 0.45523 0.53407 0.0
C177 C 0.02301 0.38166 0.59169 0.0
O178 O 0.02102 0.43612 0.6312 0.0
O179 O 0.04876 0.43072 0.67866 0.0
O180 O 0.03452 0.42624 0.48625 0.0
O181 O 0.06133 0.43925 0.5503 0.0
Co182 Co 0.5544 0.59297 0.55893 0.0
O183 O 0.51878 0.56841 0.55389 0.0
O184 O 0.55017 0.55996 0.54638 0.0
C185 C 0.55491 0.62293 0.50498 0.0
O186 O 0.59277 0.61337 0.561 0.0
Co187 Co 0.56926 0.64325 0.61331 0.0
O188 O 0.60303 0.65308 0.58436 0.0
C189 C 0.56171 0.59992 0.67674 0.0
C190 C 0.52583 0.55179 0.54573 0.0
C191 C 0.60898 0.63688 0.56887 0.0
O192 O 0.55484 0.58648 0.63546 0.0
O193 O 0.56708 0.62317 0.67729 0.0
O194 O 0.55496 0.603 0.48772 0.0
O195 O 0.55076 0.62239 0.5543 0.0
Co196 Co 0.39175 0.95219 0.56764 0.0
O197 O 0.41638 0.94219 0.55263 0.0
O198 O 0.42472 0.98199 0.55921 0.0
C199 C 0.36186 0.92602 0.50929 0.0
O200 O 0.37111 0.96943 0.58249 0.0
Co201 Co 0.34205 0.91286 0.61765 0.0
O202 O 0.33329 0.93981 0.61445 0.0
C203 C 0.38465 0.94913 0.68326 0.0
C204 C 0.43299 0.96625 0.55093 0.0
C205 C 0.34915 0.96263 0.60209 0.0
O206 O 0.3992 0.95381 0.64407 0.0
O207 O 0.36077 0.933 0.68116 0.0
O208 O 0.38112 0.94765 0.49611 0.0
O209 O 0.36269 0.91904 0.55632 0.0
Co210 Co 0.7646 0.69346 0.64556 0.0
O211 O 0.79782 0.70051 0.66406 0.0
O212 O 0.76412 0.66187 0.65947 0.0
C213 C 0.76365 0.72271 0.69955 0.0
O214 O 0.72754 0.68017 0.62694 0.0
Co215 Co 0.76331 0.73617 0.58699 0.0
O216 O 0.72641 0.71256 0.58735 0.0
C217 C 0.7675 0.69726 0.52752 0.0
C218 C 0.78839 0.67624 0.66866 0.0
C219 C 0.71571 0.68959 0.60248 0.0
O220 O 0.7707 0.68897 0.57066 0.0
O221 O 0.76509 0.717 0.52472 0.0
O222 O 0.75835 0.70042 0.71522 0.0
O223 O 0.77281 0.72821 0.65299 0.0
Co224 Co 0.29874 0.0711 0.64021 0.0
O225 O 0.28801 0.09578 0.64357 0.0
O226 O 0.32755 0.10385 0.65553 0.0
C227 C 0.26767 0.04078 0.69118 0.0
O228 O 0.3159 0.04997 0.64034 0.0
Co229 Co 0.26325 0.02242 0.58062 0.0
O230 O 0.28624 0.01159 0.61016 0.0
C231 C 0.30147 0.06618 0.52189 0.0
C232 C 0.31153 0.11217 0.65402 0.0
C233 C 0.30794 0.02658 0.62965 0.0
O234 O 0.30783 0.0785 0.56454 0.0
O235 O 0.28266 0.04342 0.51866 0.0
O236 O 0.28735 0.06038 0.7104 0.0
O237 O 0.2653 0.04203 0.64157 0.0
Co238 Co 0.91707 0.22361 0.65075 0.0
O239 O 0.88995 0.18965 0.66007 0.0
O240 O 0.88616 0.22402 0.66594 0.0
C241 C 0.94602 0.22101 0.70281 0.0
O242 O 0.94175 0.26125 0.64358 0.0
Co243 Co 0.96252 0.2286 0.59029 0.0
O244 O 0.97795 0.26407 0.6139 0.0
C245 C 0.92034 0.22692 0.53181 0.0
C246 C 0.87555 0.19936 0.66853 0.0
C247 C 0.96529 0.27413 0.63049 0.0
O248 O 0.90868 0.22296 0.57499 0.0
O249 O 0.94214 0.22849 0.52833 0.0
O250 O 0.92831 0.22466 0.72105 0.0
O251 O 0.94346 0.21518 0.65403 0.0
Co252 Co 0.29875 0.22261 0.14295 0.0
O253 O 0.29014 0.18799 0.15307 0.0
O254 O 0.32917 0.22132 0.15693 0.0
C255 C 0.26857 0.22254 0.19582 0.0
O256 O 0.31407 0.26055 0.13492 0.0
Co257 Co 0.25939 0.22998 0.0836 0.0
O258 O 0.28567 0.26615 0.08918 0.0
C259 C 0.29762 0.2249 0.02377 0.0
C260 C 0.31428 0.19679 0.16011 0.0
C261 C 0.30717 0.27459 0.11104 0.0
O262 O 0.3056 0.22106 0.06677 0.0
O263 O 0.27804 0.22762 0.02114 0.0
O264 O 0.28952 0.22486 0.21359 0.0
O265 O 0.26456 0.21627 0.14735 0.0
Co266 Co 0.76688 0.07156 0.14643 0.0
O267 O 0.80198 0.09758 0.15138 0.0
O268 O 0.76906 0.10366 0.15935 0.0
C269 C 0.76813 0.04245 0.2003 0.0
O270 O 0.72865 0.04924 0.14455 0.0
Co271 Co 0.75491 0.02247 0.09123 0.0
O272 O 0.72103 0.01027 0.12202 0.0
C273 C 0.75897 0.06464 0.02863 0.0
C274 C 0.79361 0.11314 0.15992 0.0
C275 C 0.71363 0.02538 0.13736 0.0
O276 O 0.76583 0.07804 0.06997 0.0
O277 O 0.75477 0.04177 0.02768 0.0
O278 O 0.76702 0.06183 0.2175 0.0
O279 O 0.77256 0.04333 0.15097 0.0
Co280 Co 0.9195 0.69463 0.14705 0.0
O281 O 0.89407 0.70418 0.15549 0.0
O282 O 0.88717 0.66472 0.15905 0.0
C283 C 0.94946 0.72378 0.20124 0.0
O284 O 0.94117 0.67822 0.14056 0.0
Co285 Co 0.96779 0.73324 0.09014 0.0
O286 O 0.97587 0.70567 0.09514 0.0
C287 C 0.92493 0.69566 0.02856 0.0
C288 C 0.87812 0.6801 0.16147 0.0
C289 C 0.96201 0.68432 0.11693 0.0
O290 O 0.91216 0.68846 0.07063 0.0
O291 O 0.94767 0.7146 0.0268 0.0
O292 O 0.93008 0.70316 0.21822 0.0
O293 O 0.94807 0.72826 0.15264 0.0
Co294 Co 0.55608 0.96204 0.06675 0.0
O295 O 0.52256 0.95378 0.04689 0.0
O296 O 0.55544 0.99293 0.05365 0.0
C297 C 0.56008 0.93478 1.01258 0.0
O298 O 0.59319 0.97693 0.08581 0.0
Co299 Co 0.56025 0.92068 0.12451 0.0
O300 O 0.59694 0.94528 0.12173 0.0
C301 C 0.55251 0.95721 0.18474 0.0
C302 C 0.53149 0.97804 0.04264 0.0
C303 C 0.60639 0.96826 0.1072 0.0
O304 O 0.54894 0.96535 0.14172 0.0
O305 O 0.55643 0.9384 0.18708 0.0
O306 O 0.5637 0.95656 0.99733 0.0
O307 O 0.55016 0.92805 0.05841 0.0
Co308 Co 0.02894 0.59137 0.06351 0.0
O309 O 0.04018 0.56724 0.05525 0.0
O310 O 8e-05 0.55836 0.05044 0.0
C311 C 0.0577 0.62209 1.00958 0.0
O312 O 0.01094 0.61151 0.06952 0.0
Co313 Co 0.06593 0.64045 0.1204 0.0
O314 O 0.0372 0.64683 0.11463 0.0
C315 C 0.02994 0.59654 0.18218 0.0
C316 C 0.01644 0.55051 0.04772 0.0
C317 C 0.01606 0.63211 0.09286 0.0
O318 O 0.02262 0.58383 0.14003 0.0
O319 O 0.04836 0.61956 0.18365 0.0
O320 O 0.03756 0.60228 0.99239 0.0
O321 O 0.06203 0.6209 0.05832 0.0
Co322 Co 0.39837 0.43526 0.05878 0.0
O323 O 0.42202 0.4707 0.04946 0.0
O324 O 0.43147 0.43993 0.0443 0.0
C325 C 0.36686 0.4324 1.00622 0.0
O326 O 0.37878 0.39708 0.06551 0.0
Co327 Co 0.34986 0.42236 0.11811 0.0
O328 O 0.34327 0.38729 0.11067 0.0
C329 C 0.39459 0.43117 0.17765 0.0
C330 C 0.43897 0.46407 0.04137 0.0
C331 C 0.35816 0.38125 0.08849 0.0
O332 O 0.40686 0.43709 0.13488 0.0
O333 O 0.37139 0.42591 0.18048 0.0
O334 O 0.38669 0.43236 0.98827 0.0
O335 O 0.36841 0.4382 0.0549 0.0
Co336 Co 0.7008 0.77299 0.90011 0.0
O337 O 0.71012 0.80736 0.88572 0.0
O338 O 0.67053 0.77499 0.88763 0.0
C339 C 0.72898 0.77084 0.84516 0.0
O340 O 0.68505 0.73527 0.91397 0.0
Co341 Co 0.74124 0.76656 0.95707 0.0
O342 O 0.71624 0.7303 0.94871 0.0
C343 C 0.70277 0.77092 1.01791 0.0
C344 C 0.68604 0.79924 0.88065 0.0
C345 C 0.69334 0.72142 0.93394 0.0
O346 O 0.69631 0.77733 0.97595 0.0
O347 O 0.72136 0.76661 1.01988 0.0
O348 O 0.70754 0.76803 0.82943 0.0
O349 O 0.73463 0.77859 0.89264 0.0
Co350 Co 0.22201 0.92639 0.89382 0.0
O351 O 0.18742 0.90075 0.88069 0.0
O352 O 0.21996 0.89394 0.8858 0.0
C353 C 0.22428 0.95567 0.83528 0.0
O354 O 0.25998 0.94842 0.90656 0.0
Co355 Co 0.23084 0.9758 0.94306 0.0
O356 O 0.26675 0.98701 0.92939 0.0
C357 C 0.22702 0.93454 1.00964 0.0
C358 C 0.19566 0.88479 0.87882 0.0
C359 C 0.27475 0.97167 0.91996 0.0
O360 O 0.21756 0.91953 0.97089 0.0
O361 O 0.23342 0.95805 1.00691 0.0
O362 O 0.22691 0.93663 0.8218 0.0
O363 O 0.21668 0.95455 0.88257 0.0
Co364 Co 0.064 0.29231 0.89087 0.0
O365 O 0.08985 0.2835 0.88052 0.0
O366 O 0.09549 0.32244 0.87512 0.0
C367 C 0.03322 0.26193 0.83975 0.0
O368 O 0.04193 0.30808 0.89825 0.0
Co369 Co 0.01729 0.2545 0.9524 0.0
O370 O 0.00775 0.28096 0.94529 0.0
C371 C 0.06133 0.29303 1.00991 0.0
C372 C 0.10505 0.30754 0.87183 0.0
C373 C 0.02118 0.30196 0.92203 0.0
O374 O 0.07303 0.29992 0.96657 0.0
O375 O 0.0388 0.27389 1.01384 0.0
O376 O 0.05197 0.28247 0.82092 0.0
O377 O 0.0357 0.25826 0.88839 0.0
Co378 Co 0.43434 0.026 0.96743 0.0
O379 O 0.46962 0.03637 0.97279 0.0
O380 O 0.4378 -0.00334 0.97967 0.0
C381 C 0.43509 0.05571 0.02245 0.0
O382 O 0.39582 0.00893 0.96495 0.0
Co383 Co 0.42047 0.06235 0.91525 0.0
O384 O 0.38782 0.04067 0.94979 0.0
C385 C 0.42304 0.02324 0.85251 0.0
C386 C 0.4622 0.01263 0.98102 0.0
C387 C 0.38056 0.01772 0.96149 0.0
O388 O 0.43423 0.01952 0.89069 0.0
O389 O 0.41571 0.03966 0.85425 0.0
O390 O 0.43388 0.03506 0.03881 0.0
O391 O 0.4393 0.05965 0.97317 0.0
Co392 Co 0.96554 0.40412 0.97744 0.0
O393 O 0.9577 0.43044 0.9887 0.0
O394 O -0.00348 0.4356 0.99104 0.0
C395 C 0.93563 0.37447 0.03138 0.0
O396 O 0.97971 0.38065 0.96799 0.0
Co397 Co 0.92448 0.35806 0.91889 0.0
O398 O 0.94953 0.34662 0.92481 0.0
C399 C 0.96305 0.40084 0.8582 0.0
C400 C 0.98188 0.44545 0.9957 0.0
C401 C 0.97145 0.35918 0.94526 0.0
O402 O 0.97175 0.4125 0.90112 0.0
O403 O 0.94296 0.37886 0.85603 0.0
O404 O 0.95698 0.39282 0.04829 0.0
O405 O 0.93114 0.37681 0.98321 0.0
Co406 Co 0.58604 0.56251 0.98094 0.0
O407 O 0.55978 0.52783 0.98692 0.0
O408 O 0.55403 0.56102 0.993 0.0
C409 C 0.61471 0.5609 0.03573 0.0
O410 O 0.60916 0.60051 0.9773 0.0
Co411 Co 0.63461 0.57158 0.92612 0.0
O412 O 0.64734 0.60625 0.95303 0.0
C413 C 0.5926 0.56713 0.86246 0.0
C414 C 0.54436 0.53646 0.99437 0.0
C415 C 0.63301 0.61466 0.96821 0.0
O416 O 0.57976 0.56284 0.90423 0.0
O417 O 0.61494 0.56985 0.86187 0.0
O418 O 0.59571 0.56287 0.05242 0.0
O419 O 0.61361 0.55595 0.9867 0.0
Co420 Co 0.96183 0.5551 0.48173 0.0
O421 O 0.95028 0.5194 0.48591 0.0
O422 O 0.9903 0.5504 0.49484 0.0
C423 C 0.93225 0.55606 0.5346 0.0
O424 O 0.98017 0.59341 0.48057 0.0
Co425 Co 0.92702 0.5702 0.42535 0.0
O426 O 0.95123 0.60389 0.45412 0.0
C427 C 0.9635 0.56312 0.36378 0.0
C428 C 0.9739 0.52614 0.49427 0.0
C429 C 0.9731 0.60966 0.47128 0.0
O430 O 0.96956 0.55604 0.40545 0.0
O431 O 0.94558 0.56844 0.36219 0.0
O432 O 0.95177 0.5554 0.55266 0.0
O433 O 0.92892 0.5519 0.48524 0.0
Co434 Co 0.43201 0.40426 0.47945 0.0
O435 O 0.46585 0.43172 0.48837 0.0
O436 O 0.43127 0.43512 0.49411 0.0
C437 C 0.43514 0.37583 0.53244 0.0
O438 O 0.39447 0.37883 0.47247 0.0
Co439 Co 0.42941 0.3594 0.41966 0.0
O440 O 0.39337 0.34389 0.43978 0.0
C441 C 0.43042 0.40092 0.36006 0.0
C442 C 0.45598 0.44595 0.49683 0.0
C443 C 0.38246 0.35546 0.45795 0.0
O444 O 0.43247 0.4121 0.40322 0.0
O445 O 0.43033 0.37982 0.35731 0.0
O446 O 0.43123 0.39342 0.55027 0.0
O447 O 0.44096 0.37838 0.48371 0.0
Co448 Co 0.58124 0.02301 0.48639 0.0
O449 O 0.55374 0.02917 0.4972 0.0
O450 O 0.55074 0.99135 0.50232 0.0
C451 C 0.61046 0.05481 0.53768 0.0
O452 O 0.60656 0.01091 0.47771 0.0
Co453 Co 0.62509 0.06449 0.42367 0.0
O454 O 0.64127 0.04464 0.44379 0.0
C455 C 0.58293 0.02328 0.36696 0.0
C456 C 0.53973 0.00501 0.50564 0.0
C457 C 0.62982 0.02224 0.46237 0.0
O458 O 0.57219 0.01511 0.41084 0.0
O459 O 0.60415 0.04411 0.36244 0.0
O460 O 0.59309 0.03337 0.55642 0.0
O461 O 0.60721 0.05799 0.48919 0.0
Co462 Co 0.22538 0.29508 0.38858 0.0
O463 O 0.1919 0.28846 0.37379 0.0
O464 O 0.22618 0.3268 0.37425 0.0
C465 C 0.22483 0.26491 0.33525 0.0
O466 O 0.26264 0.30753 0.40268 0.0
Co467 Co 0.22612 0.2522 0.4488 0.0
O468 O 0.26299 0.27404 0.43876 0.0
C469 C 0.22454 0.29258 0.50752 0.0
C470 C 0.20166 0.31271 0.36768 0.0
C471 C 0.27441 0.29684 0.42245 0.0
O472 O 0.22163 0.30093 0.46415 0.0
O473 O 0.22553 0.27207 0.51095 0.0
O474 O 0.22945 0.2868 0.31833 0.0
O475 O 0.21682 0.26032 0.38271 0.0
Co476 Co 0.69127 0.92675 0.39248 0.0
O477 O 0.69881 0.90064 0.37896 0.0
O478 O 0.65998 0.89551 0.37641 0.0
C479 C 0.72227 0.95697 0.34135 0.0
O480 O 0.67831 0.95114 0.40577 0.0
Co481 Co 0.73285 0.96925 0.45668 0.0
O482 O 0.7111 0.98427 0.44549 0.0
C483 C 0.69205 0.92616 0.51189 0.0
C484 C 0.67467 0.88561 0.37272 0.0
C485 C 0.68866 0.97324 0.42711 0.0
O486 O 0.68404 0.91629 0.4674 0.0
O487 O 0.71275 0.9474 0.51747 0.0
O488 O 0.70071 0.93972 0.32287 0.0
O489 O 0.72604 0.95319 0.38914 0.0
Co490 Co 0.06594 0.76601 0.39684 0.0
O491 O 0.09032 0.79984 0.37786 0.0
O492 O 0.09806 0.76795 0.38119 0.0
C493 C 0.03436 0.76286 0.34394 0.0
O494 O 0.04436 0.72874 0.41546 0.0
Co495 Co 0.02067 0.76139 0.45678 0.0
O496 O 0.00999 0.72508 0.45642 0.0
C497 C 0.06547 0.76858 0.51486 0.0
C498 C 0.10628 0.79189 0.37157 0.0
C499 C 0.02347 0.71581 0.44063 0.0
O500 O 0.07698 0.77261 0.4715 0.0
O501 O 0.04271 0.76463 0.51822 0.0
O502 O 0.0522 0.75898 0.32762 0.0
O503 O 0.03773 0.77185 0.39056 0.0
C504 C 0.33255 0.98394 0.31832 0.0
C505 C 0.30897 0.96914 0.2945 0.0
C506 C 0.34738 0.00966 0.30724 0.0
C507 C 0.3393 0.02161 0.27146 0.0
H508 H 0.34027 0.97522 0.34346 0.0
H509 H 0.36575 0.01999 0.32595 0.0
S510 S 0.27707 0.9914 0.20415 0.0
N511 N 0.27663 0.96814 0.23789 0.0
N512 N 0.30469 0.01706 0.21674 0.0
C513 C 0.31478 0.00736 0.25029 0.0
C514 C 0.29952 0.98095 0.26197 0.0
C515 C 0.0096 0.31514 0.26468 0.0
C516 C 0.02155 0.33375 0.30286 0.0
C517 C 0.98341 0.3041 0.25575 0.0
C518 C 0.96875 0.31163 0.28465 0.0
H519 H 0.02084 0.31065 0.23897 0.0
H520 H 0.97497 0.29084 0.2242 0.0
S521 S 0.99121 0.35649 0.39524 0.0
N522 N 0.01702 0.35707 0.37345 0.0
N523 N 0.96769 0.33598 0.35845 0.0
C524 C 0.98038 0.32861 0.32605 0.0
C525 C 0.0069 0.3398 0.3347 0.0
C526 C 0.66479 0.65219 0.32911 0.0
C527 C 0.68162 0.65802 0.2873 0.0
C528 C 0.65332 0.66661 0.33925 0.0
C529 C 0.65876 0.68763 0.30871 0.0
H530 H 0.65939 0.6356 0.35286 0.0
H531 H 0.63885 0.66029 0.36887 0.0
S532 S 0.70385 0.71321 0.19958 0.0
N533 N 0.70514 0.68794 0.21869 0.0
N534 N 0.68357 0.71541 0.2386 0.0
C535 C 0.67724 0.69521 0.26998 0.0
C536 C 0.68876 0.6803 0.25907 0.0
C537 C 0.64029 0.97773 0.72368 0.0
C538 C 0.64937 0.96728 0.7608 0.0
C539 C 0.65312 0.00368 0.71351 0.0
C540 C 0.67569 0.01997 0.73931 0.0
H541 H 0.62261 0.96593 0.70339 0.0
H542 H 0.64468 0.01123 0.68722 0.0
S543 S 0.70872 0.0024 0.83666 0.0
N544 N 0.68324 0.97519 0.82098 0.0
N545 N 0.70768 0.02438 0.80104 0.0
C546 C 0.68602 0.00981 0.77386 0.0
C547 C 0.67277 0.98328 0.78479 0.0
C548 C 0.00755 0.69064 0.78049 0.0
C549 C 0.02296 0.68278 0.75544 0.0
C550 C 0.98131 0.67838 0.77074 0.0
C551 C 0.97002 0.6581 0.73572 0.0
H552 H 0.01548 0.70525 0.80976 0.0
H553 H 0.96956 0.68341 0.79359 0.0
S554 S 0.00234 0.63347 0.65321 0.0
N555 N 0.02531 0.6561 0.68773 0.0
N556 N 0.97594 0.63259 0.67191 0.0
C557 C 0.98538 0.65151 0.70752 0.0
C558 C 0.01194 0.66402 0.71673 0.0
C559 C 0.34737 0.33195 0.81374 0.0
C560 C 0.33931 0.31209 0.77762 0.0
C561 C 0.33251 0.34279 0.82506 0.0
C562 C 0.30893 0.334 0.80124 0.0
H563 H 0.36571 0.33987 0.83252 0.0
H564 H 0.34013 0.35911 0.85048 0.0
S565 S 0.27766 0.28112 0.70802 0.0
N566 N 0.30507 0.28275 0.72125 0.0
N567 N 0.27701 0.30346 0.74296 0.0
C568 C 0.29966 0.31311 0.76788 0.0
C569 C 0.31492 0.30207 0.75588 0.0
C570 C 0.0187 0.3411 0.62242 0.0
C571 C 0.00701 0.3542 0.60198 0.0
C572 C 0.00455 0.31553 0.63528 0.0
C573 C 0.97815 0.30187 0.62801 0.0
H574 H 0.03908 0.3505 0.62825 0.0
H575 H 0.01455 0.30614 0.64949 0.0
S576 S 0.93787 0.32699 0.57791 0.0
N577 N 0.96706 0.35167 0.57722 0.0
N578 N 0.9404 0.30296 0.60062 0.0
C579 C 0.96589 0.31463 0.60915 0.0
C580 C 0.98038 0.34092 0.59602 0.0
C581 C 0.64651 0.63783 0.60724 0.0
C582 C 0.63599 0.64537 0.56761 0.0
C583 C 0.67269 0.65156 0.61729 0.0
C584 C 0.68882 0.67317 0.58802 0.0
H585 H 0.63422 0.62249 0.63293 0.0
H586 H 0.68004 0.64611 0.64981 0.0
S587 S 0.67035 0.69712 0.47368 0.0
N588 N 0.64334 0.67324 0.49525 0.0
N589 N 0.69269 0.69877 0.51237 0.0
C590 C 0.67855 0.67933 0.54532 0.0
C591 C 0.65201 0.66547 0.53557 0.0
C592 C 0.34284 0.02138 0.59621 0.0
C593 C 0.3248 0.01628 0.63496 0.0
C594 C 0.35182 0.00452 0.58702 0.0
C595 C 0.34256 0.98207 0.61592 0.0
H596 H 0.3483 0.03719 0.57011 0.0
H597 H 0.36465 0.0082 0.55509 0.0
S598 S 0.29876 0.96324 0.72803 0.0
N599 N 0.30076 0.98977 0.70671 0.0
N600 N 0.31736 0.95787 0.6901 0.0
C601 C 0.32627 0.97819 0.65786 0.0
C602 C 0.31746 0.99543 0.66727 0.0
C603 C 0.34066 0.33893 0.04967 0.0
C604 C 0.35141 0.3548 0.09218 0.0
C605 C 0.32757 0.31259 0.05597 0.0
C606 C 0.32517 0.30165 0.10481 0.0
H607 H 0.34077 0.34685 1.01229 0.0
H608 H 0.3182 0.30072 0.0229 0.0
S609 S 0.35295 0.33563 0.22662 0.0
N610 N 0.36109 0.35836 0.18342 0.0
N611 N 0.33671 0.3085 0.19514 0.0
C612 C 0.33768 0.31736 0.14677 0.0
C613 C 0.35075 0.34418 0.14045 0.0
C614 C 0.64523 0.97819 0.15636 0.0
C615 C 0.63346 0.98554 0.11874 0.0
C616 C 0.67125 0.99265 0.1657 0.0
C617 C 0.68628 0.01514 0.13849 0.0
H618 H 0.63448 0.96066 0.17777 0.0
H619 H 0.6799 0.98554 0.19252 0.0
S620 S 0.66498 0.04378 0.03854 0.0
N621 N 0.6388 0.01761 0.05604 0.0
N622 N 0.68805 0.04503 0.07436 0.0
C623 C 0.67475 0.02367 0.10311 0.0
C624 C 0.64818 0.00878 0.09306 0.0
C625 C 0.97663 0.66143 0.0616 0.0
C626 C 0.96998 0.66553 0.111 0.0
C627 C 0.98963 0.64812 0.05503 0.0
C628 C -0.00355 0.63896 0.09785 0.0
H629 H 0.97298 0.66978 0.02818 0.0
H630 H -0.00392 0.64675 1.01698 0.0
S631 S 0.98061 0.64195 0.23414 0.0
N632 N 0.96859 0.65711 0.20247 0.0
N633 N 0.9936 0.63233 0.19027 0.0
C634 C 0.98819 0.6412 0.14693 0.0
C635 C 0.97468 0.65445 0.15353 0.0
C636 C 0.66847 0.65636 0.99143 0.0
C637 C 0.64448 0.64217 0.96889 0.0
C638 C 0.68369 0.68205 0.98043 0.0
C639 C 0.67559 0.69448 0.94592 0.0
H640 H 0.67607 0.64721 1.01567 0.0
H641 H 0.70229 0.69197 0.99831 0.0
S642 S 0.61294 0.66558 0.88039 0.0
N643 N 0.61214 0.64202 0.91366 0.0
N644 N 0.6409 0.69087 0.89267 0.0
C645 C 0.65084 0.68075 0.92556 0.0
C646 C 0.63521 0.6544 0.93718 0.0
C647 C 0.3383 0.00977 0.98446 0.0
C648 C 0.35308 0.00068 0.96179 0.0
C649 C 0.31303 -1e-05 0.97051 0.0
C650 C 0.30136 0.9804 0.93388 0.0
H651 H 0.34686 0.02583 1.01056 0.0
H652 H 0.30272 0.00828 0.98824 0.0
S653 S 0.33145 0.9483 0.86722 0.0
N654 N 0.3543 0.96996 0.90375 0.0
N655 N 0.30595 0.95072 0.87846 0.0
C656 C 0.3154 0.96976 0.91371 0.0
C657 C 0.34147 0.98003 0.92766 0.0
C658 C 0.00148 0.32496 0.88413 0.0
C659 C 0.01306 0.32057 0.92615 0.0
C660 C 0.98906 0.33882 0.89045 0.0
C661 C 0.98826 0.34878 0.93877 0.0
H662 H 0.00078 0.31646 0.84713 0.0
H663 H 0.97921 0.34097 0.85781 0.0
S664 S 0.01838 0.34448 0.059 0.0
N665 N 0.0249 0.32845 1.01627 0.0
N666 N 0.00185 0.35518 0.02798 0.0
C667 C 0.00134 0.34598 0.98017 0.0
C668 C 0.01367 0.33155 0.97388 0.0
C669 C 0.02047 0.67391 0.42375 0.0
C670 C 0.01479 0.6893 0.45488 0.0
C671 C 0.00888 0.64775 0.43307 0.0
C672 C 0.99156 0.63657 0.47376 0.0
H673 H 0.03251 0.68176 0.39024 0.0
H674 H 0.01183 0.63595 0.40591 0.0
S675 S 0.97411 0.66905 0.57183 0.0
N676 N 0.99397 0.69195 0.53309 0.0
N677 N 0.97147 0.64257 0.54852 0.0
C678 C 0.98747 0.65194 0.50758 0.0
C679 C -0.00065 0.67846 0.49867 0.0
C680 C 0.31515 0.33856 0.42761 0.0
C681 C 0.30209 0.31186 0.4319 0.0
C682 C 0.34107 0.35308 0.43981 0.0
C683 C 0.35462 0.3413 0.45674 0.0
H684 H 0.30535 0.34834 0.41465 0.0
H685 H 0.35077 0.37346 0.43384 0.0
S686 S 0.32937 0.27244 0.47799 0.0
N687 N 0.30496 0.27446 0.45609 0.0
N688 N 0.35319 0.30197 0.48054 0.0
C689 C 0.34168 0.31485 0.46309 0.0
C690 C 0.31556 0.30004 0.45009 0.0
C691 C 0.64693 0.97227 0.43035 0.0
C692 C 0.67359 0.98584 0.43609 0.0
C693 C 0.6323 0.98351 0.44254 0.0
C694 C 0.64394 0.00859 0.46089 0.0
H695 H 0.63727 0.95287 0.41636 0.0
H696 H 0.61197 0.97293 0.43553 0.0
S697 S 0.71257 0.05193 0.48595 0.0
N698 N 0.71077 0.02579 0.46301 0.0
N699 N 0.68301 0.04619 0.48727 0.0
C700 C 0.67032 0.02204 0.46851 0.0
C701 C 0.68524 0.01089 0.45558 0.0
C702 C 0.30909 0.0737 0.42607 0.0
C703 C 0.31877 0.07773 0.47644 0.0
C704 C 0.32543 0.08249 0.383 0.0
C705 C 0.35223 0.095 0.3881 0.0
H706 H 0.28871 0.06338 0.41982 0.0
H707 H 0.31686 0.07831 0.34515 0.0
S708 S 0.38737 0.11019 0.51153 0.0
N709 N 0.35712 0.0957 0.52879 0.0
N710 N 0.38751 0.11111 0.44811 0.0
C711 C 0.36214 0.09933 0.43826 0.0
C712 C 0.34554 0.09102 0.48219 0.0
C713 C 0.91394 0.22779 0.43555 0.0
C714 C 0.90942 0.23316 0.48578 0.0
C715 C 0.90596 0.23589 0.39207 0.0
C716 C 0.89375 0.25045 0.39657 0.0
H717 H 0.92408 0.21754 0.4297 0.0
H718 H 0.91052 0.2317 0.35441 0.0
S719 S 0.87714 0.26961 0.51924 0.0
N720 N 0.89108 0.25346 0.53719 0.0
N721 N 0.87719 0.26942 0.4558 0.0
C722 C 0.88886 0.25571 0.44652 0.0
C723 C 0.89635 0.24688 0.49085 0.0
C724 C 0.74933 0.6539 0.48668 0.0
C725 C 0.76213 0.68066 0.48095 0.0
C726 C 0.74022 0.63733 0.444 0.0
C727 C 0.74422 0.64671 0.39339 0.0
H728 H 0.74509 0.64554 0.52473 0.0
H729 H 0.72956 0.61702 0.45077 0.0
S730 S 0.77741 0.7151 0.35665 0.0
N731 N 0.77855 0.71557 0.42005 0.0
N732 N 0.76251 0.68478 0.34016 0.0
C733 C 0.75787 0.67343 0.38702 0.0
C734 C 0.76651 0.69027 0.43054 0.0
C735 C 0.07887 0.31737 0.14855 0.0
C736 C 0.08987 0.34401 0.14338 0.0
C737 C 0.07019 0.30094 0.10556 0.0
C738 C 0.07292 0.31045 0.05521 0.0
H739 H 0.07583 0.30895 0.18644 0.0
H740 H 0.06099 0.28062 0.11188 0.0
S741 S 0.10087 0.37862 1.02002 0.0
N742 N 0.10293 0.37893 0.0833 0.0
N743 N 0.08782 0.34849 1.00288 0.0
C744 C 0.08464 0.33711 0.0494 0.0
C745 C 0.09277 0.35373 0.09322 0.0
C746 C 0.67646 0.76206 0.15545 0.0
C747 C 0.65004 0.74516 0.14889 0.0
C748 C 0.69354 0.77073 0.11339 0.0
C749 C 0.68484 0.7636 0.06267 0.0
H750 H 0.68422 0.76783 0.19374 0.0
H751 H 0.71368 0.78294 0.12068 0.0
S752 S 0.61776 0.71978 0.02396 0.0
N753 N 0.61636 0.72149 0.08709 0.0
N754 N 0.64797 0.73843 1.00847 0.0
C755 C 0.65844 0.74719 0.0555 0.0
C756 C 0.64122 0.73783 0.09833 0.0
C757 C 0.2283 0.89207 0.11858 0.0
C758 C 0.25317 0.9067 0.13864 0.0
C759 C 0.21967 0.90099 0.07714 0.0
C760 C 0.23507 0.92543 0.05588 0.0
H761 H 0.21553 0.87348 0.1346 0.0
H762 H 0.20073 0.88878 0.06205 0.0
S763 S 0.30144 0.97147 0.09521 0.0
N764 N 0.29299 0.94681 0.13332 0.0
N765 N 0.27647 0.96391 0.05849 0.0
C766 C 0.25974 0.9403 0.07638 0.0
C767 C 0.26882 0.9309 0.11689 0.0
C768 C 0.66755 0.90609 0.64997 0.0
C769 C 0.64083 0.89502 0.64512 0.0
C770 C 0.68402 0.91564 0.60711 0.0
C771 C 0.67454 0.91392 0.55703 0.0
H772 H 0.67603 0.90852 0.68767 0.0
H773 H 0.70436 0.92474 0.61338 0.0
S774 S 0.60614 0.88596 0.52253 0.0
N775 N 0.60585 0.88273 0.58555 0.0
N776 N 0.63633 0.89965 0.50524 0.0
C777 C 0.64779 0.90209 0.55143 0.0
C778 C 0.63111 0.89296 0.59522 0.0
C779 C 0.09217 0.75198 0.55521 0.0
C780 C 0.07758 0.76411 0.56111 0.0
C781 C 0.10051 0.74369 0.59788 0.0
C782 C 0.09541 0.74788 0.64856 0.0
H783 H 0.09611 0.74765 0.51712 0.0
H784 H 0.11065 0.73352 0.59108 0.0
S785 S 0.05867 0.77939 0.68556 0.0
N786 N 0.05871 0.77999 0.62214 0.0
N787 N 0.07509 0.76552 0.70193 0.0
C788 C 0.08164 0.76082 0.65499 0.0
C789 C 0.07257 0.76861 0.61155 0.0
C790 C 0.2246 0.29942 0.60396 0.0
C791 C 0.23068 0.30952 0.55388 0.0
C792 C 0.23265 0.31533 0.64773 0.0
C793 C 0.24784 0.34208 0.64366 0.0
H794 H 0.21381 0.27901 0.60946 0.0
H795 H 0.22779 0.30645 0.68528 0.0
S796 S 0.26941 0.37832 0.52163 0.0
N797 N 0.2527 0.34835 0.50319 0.0
N798 N 0.26838 0.37781 0.58503 0.0
C799 C 0.25393 0.35243 0.59388 0.0
C800 C 0.24521 0.33631 0.54928 0.0
C801 C 0.91862 0.68858 0.93231 0.0
C802 C 0.91434 0.67865 0.98251 0.0
C803 C 0.91089 0.67248 0.88887 0.0
C804 C 0.89934 0.64577 0.89356 0.0
H805 H 0.9283 0.70897 0.92651 0.0
H806 H 0.91509 0.68118 0.85114 0.0
S807 S 0.88413 0.61009 1.01632 0.0
N808 N 0.8973 0.64014 0.03413 0.0
N809 N 0.8839 0.61028 0.95288 0.0
C810 C 0.89485 0.63562 0.9435 0.0
C811 C 0.90203 0.65192 0.98772 0.0
C812 C 0.34089 0.24259 0.98203 0.0
C813 C 0.31409 0.23014 0.97691 0.0
C814 C 0.35727 0.2513 0.9389 0.0
C815 C 0.34763 0.24724 0.88844 0.0
H816 H 0.34943 0.2468 1.01991 0.0
H817 H 0.37765 0.26166 0.9452 0.0
S818 S 0.279 0.21487 0.85335 0.0
N819 N 0.27887 0.21399 0.91675 0.0
N820 N 0.30924 0.22929 0.83616 0.0
C821 C 0.32085 0.23397 0.88275 0.0
C822 C 0.30423 0.22573 0.92668 0.0
C823 C 0.74717 0.07601 0.88854 0.0
C824 C 0.73436 0.08995 0.89316 0.0
C825 C 0.75557 0.06832 0.93204 0.0
C826 C 0.75245 0.07505 0.98218 0.0
H827 H 0.74978 0.07001 0.85096 0.0
H828 H 0.76436 0.05677 0.92634 0.0
S829 S 0.7213 0.11258 1.01538 0.0
N830 N 0.71934 0.11043 0.95212 0.0
N831 N 0.73624 0.09741 0.03333 0.0
C832 C 0.74053 0.08986 0.98711 0.0
C833 C 0.73121 0.09691 0.94291 0.0
C834 C 0.022 0.43347 0.77117 0.0
C835 C 0.01196 0.42765 0.72103 0.0
C836 C 0.006 0.42606 0.81486 0.0
C837 C 0.97915 0.41178 0.81071 0.0
H838 H 0.04243 0.44348 0.77681 0.0
H839 H 0.01487 0.43057 0.85242 0.0
S840 S 0.943 0.3915 0.68834 0.0
N841 N 0.9731 0.40709 0.67012 0.0
N842 N 0.94342 0.39258 0.75173 0.0
C843 C 0.96887 0.40613 0.7608 0.0
C844 C 0.98512 0.4142 0.71629 0.0
C845 C 0.56927 0.58634 0.81776 0.0
C846 C 0.58238 0.57261 0.81455 0.0
C847 C 0.56213 0.59469 0.77343 0.0
C848 C 0.56699 0.58897 0.72377 0.0
H849 H 0.56545 0.59168 0.85498 0.0
H850 H 0.55298 0.60595 0.7781 0.0
S851 S 0.6002 0.5531 0.69377 0.0
N852 N 0.59978 0.5537 0.75718 0.0
N853 N 0.58555 0.56833 0.67429 0.0
C854 C 0.57938 0.57458 0.72005 0.0
C855 C 0.58728 0.56672 0.76517 0.0
C856 C 0.38943 0.99426 0.79026 0.0
C857 C 0.41462 0.00499 0.8083 0.0
C858 C 0.37972 0.97526 0.75217 0.0
C859 C 0.39491 0.96655 0.72886 0.0
H860 H 0.37682 0.0002 0.80656 0.0
H861 H 0.36026 0.96789 0.73984 0.0
S862 S 0.46236 0.98859 0.76149 0.0
N863 N 0.45448 0.00496 0.8006 0.0
N864 N 0.43678 0.97054 0.72661 0.0
C865 C 0.42027 0.97731 0.74607 0.0
C866 C 0.42993 -0.00391 0.78634 0.0
C867 C 0.56755 -0.00027 0.22748 0.0
C868 C 0.55639 0.97303 0.232 0.0
C869 C 0.57543 0.01584 0.27092 0.0
C870 C 0.57186 0.00601 0.32115 0.0
H871 H 0.57146 0.00848 0.18982 0.0
H872 H 0.58481 0.0362 0.265 0.0
S873 S 0.54242 0.93744 0.35475 0.0
N874 N 0.54169 0.93762 0.29134 0.0
N875 N 0.55547 0.96747 0.37261 0.0
C876 C 0.55974 0.97925 0.32629 0.0
C877 C 0.55231 0.96293 0.28199 0.0
C878 C 0.97065 0.56378 0.26758 0.0
C879 C 0.98052 0.56894 0.31785 0.0
C880 C 0.98686 0.57144 0.22424 0.0
C881 C 0.01367 0.58541 0.22911 0.0
H882 H 0.95025 0.554 0.26163 0.0
H883 H 0.97823 0.56743 0.18645 0.0
S884 S 0.04921 0.60441 0.35214 0.0
N885 N 0.01901 0.58874 0.36976 0.0
N886 N 0.04914 0.604 0.28869 0.0
C887 C 0.02373 0.59063 0.27914 0.0
C888 C 0.00728 0.58218 0.32326 0.0
C889 C 0.40162 0.43134 0.27386 0.0
C890 C 0.40664 0.42644 0.22365 0.0
C891 C 0.41067 0.42433 0.31736 0.0
C892 C 0.42446 0.41133 0.31284 0.0
H893 H 0.39029 0.44034 0.27966 0.0
H894 H 0.40574 0.42814 0.35502 0.0
S895 S 0.44242 0.39354 0.18998 0.0
N896 N 0.42676 0.40799 0.17214 0.0
N897 N 0.44278 0.39412 0.2534 0.0
C898 C 0.42977 0.4065 0.26281 0.0
C899 C 0.42115 0.41423 0.21852 0.0
C900 C 0.30679 0.15341 0.1797 0.0
C901 C 0.32404 0.17938 0.17085 0.0
C902 C 0.31534 0.13632 0.1899 0.0
C903 C 0.34146 0.14457 0.19153 0.0
H904 H 0.28645 0.14614 0.17904 0.0
H905 H 0.30135 0.11656 0.1968 0.0
S906 S 0.39449 0.21058 0.16937 0.0
N907 N 0.36842 0.21246 0.16336 0.0
N908 N 0.38462 0.18047 0.18235 0.0
C909 C 0.35895 0.1705 0.1823 0.0
C910 C 0.35021 0.18788 0.17203 0.0
C911 C 0.83776 0.14945 0.17297 0.0
C912 C 0.81134 0.1402 0.1715 0.0
C913 C 0.85499 0.17481 0.18565 0.0
C914 C 0.8464 0.19183 0.19714 0.0
H915 H 0.84527 0.137 0.16458 0.0
H916 H 0.87513 0.18108 0.18633 0.0
S917 S 0.77904 0.17703 0.19911 0.0
N918 N 0.77744 0.15005 0.18277 0.0
N919 N 0.80961 0.19758 0.20663 0.0
C920 C 0.82 0.18282 0.19568 0.0
C921 C 0.80252 0.15704 0.18282 0.0
C922 C 0.81734 0.67996 0.19434 0.0
C923 C 0.79884 0.65408 0.19128 0.0
C924 C 0.84295 0.68821 0.18411 0.0
C925 C 0.85093 0.67087 0.17065 0.0
H926 H 0.81213 0.69391 0.2056 0.0
H927 H 0.85661 0.70832 0.18765 0.0
S928 S 0.80968 0.60126 0.15327 0.0
N929 N 0.79005 0.61126 0.17079 0.0
N930 N 0.8382 0.62688 0.15195 0.0
C931 C 0.83257 0.64502 0.16622 0.0
C932 C 0.80649 0.63661 0.1764 0.0
C933 C 0.14162 0.31445 0.33826 0.0
C934 C 0.15023 0.34042 0.33149 0.0
C935 C 0.15856 0.30593 0.34949 0.0
C936 C 0.18488 0.32299 0.35458 0.0
H937 H 0.12157 0.30047 0.33514 0.0
H938 H 0.15076 0.28566 0.35454 0.0
S939 S 0.21735 0.39304 0.33975 0.0
N940 N 0.18695 0.38333 0.32996 0.0
N941 N 0.21886 0.36711 0.35134 0.0
C942 C 0.19389 0.34904 0.34749 0.0
C943 C 0.17655 0.3578 0.33586 0.0
C944 C 0.6428 0.8434 0.33591 0.0
C945 C 0.6651 0.85841 0.36416 0.0
C946 C 0.63526 0.81807 0.32396 0.0
C947 C 0.64987 0.80717 0.33991 0.0
H948 H 0.63156 0.85144 0.32178 0.0
H949 H 0.6182 0.80715 0.30128 0.0
S950 S 0.70778 0.83756 0.42128 0.0
N951 N 0.7002 0.85983 0.41239 0.0
N952 N 0.68617 0.81252 0.38954 0.0
C953 C 0.6716 0.82174 0.36994 0.0
C954 C 0.67917 0.8473 0.38224 0.0
C955 C 0.15008 0.80126 0.34835 0.0
C956 C 0.1325 0.80967 0.35438 0.0
C957 C 0.17519 0.81811 0.33343 0.0
C958 C 0.18362 0.84398 0.32415 0.0
H959 H 0.14452 0.7816 0.35571 0.0
H960 H 0.18818 0.81084 0.33008 0.0
S961 S 0.14473 0.87536 0.33198 0.0
N962 N 0.12505 0.8455 0.34796 0.0
N963 N 0.17219 0.877 0.32008 0.0
C964 C 0.16611 0.85253 0.32895 0.0
C965 C 0.14056 0.83542 0.34405 0.0
C966 C 0.64162 0.82421 0.85082 0.0
C967 C 0.65835 0.85032 0.84224 0.0
C968 C 0.65074 0.80784 0.86319 0.0
C969 C 0.67694 0.81695 0.86754 0.0
H970 H 0.6212 0.81619 0.84795 0.0
H971 H 0.63709 0.78791 0.86942 0.0
S972 S 0.72882 0.88382 0.84892 0.0
N973 N 0.70237 0.8846 0.83897 0.0
N974 N 0.71969 0.8539 0.86229 0.0
C975 C 0.69396 0.84307 0.85907 0.0
C976 C 0.68462 0.85974 0.84639 0.0
C977 C 0.1352 0.82349 0.84574 0.0
C978 C 0.14283 0.80521 0.84896 0.0
C979 C 0.15243 0.84917 0.8558 0.0
C980 C 0.17791 0.85751 0.86933 0.0
H981 H 0.11593 0.81803 0.83462 0.0
H982 H 0.14573 0.86262 0.8523 0.0
S983 S 0.20708 0.81698 0.88599 0.0
N984 N 0.1774 0.79708 0.86897 0.0
N985 N 0.20961 0.84529 0.88741 0.0
C986 C 0.18565 0.83936 0.87362 0.0
C987 C 0.16814 0.81323 0.86358 0.0
C988 C 0.14126 0.30022 0.85523 0.0
C989 C 0.13196 0.31724 0.85855 0.0
C990 C 0.1667 0.30876 0.84299 0.0
C991 C 0.18376 0.33462 0.83357 0.0
H992 H 0.12886 0.2801 0.86232 0.0
H993 H 0.17301 0.29497 0.84123 0.0
S994 S 0.16883 0.38695 0.83674 0.0
N995 N 0.1417 0.36113 0.85097 0.0
N996 N 0.18953 0.37726 0.82783 0.0
C997 C 0.17467 0.35186 0.83633 0.0
C998 C 0.14875 0.34315 0.84888 0.0
C999 C 0.84866 0.67542 0.70022 0.0
C1000 C 0.8405 0.64946 0.70492 0.0
C1001 C 0.83147 0.68364 0.68924 0.0
C1002 C 0.80535 0.66626 0.68227 0.0
H1003 H 0.86856 0.68963 0.70478 0.0
H1004 H 0.83894 0.70393 0.68571 0.0
S1005 S 0.77399 0.59606 0.69173 0.0
N1006 N 0.80438 0.60619 0.70283 0.0
N1007 N 0.77198 0.62184 0.68185 0.0
C1008 C 0.79676 0.6402 0.68748 0.0
C1009 C 0.81435 0.63175 0.6989 0.0
C1010 C 0.35398 0.1822 0.68039 0.0
C1011 C 0.33661 0.1909 0.68745 0.0
C1012 C 0.34565 0.15677 0.66923 0.0
C1013 C 0.31962 0.13902 0.66446 0.0
H1014 H 0.37428 0.19506 0.68392 0.0
H1015 H 0.35979 0.15103 0.66448 0.0
S1016 S 0.26628 0.15205 0.67857 0.0
N1017 N 0.29216 0.17983 0.68834 0.0
N1018 N 0.27636 0.13184 0.66707 0.0
C1019 C 0.30197 0.14744 0.67075 0.0
C1020 C 0.3105 0.17344 0.68234 0.0
C1021 C 0.83914 0.15628 0.68604 0.0
C1022 C 0.84841 0.18253 0.68066 0.0
C1023 C 0.8136 0.13942 0.69699 0.0
C1024 C 0.79625 0.14809 0.70305 0.0
H1025 H 0.85168 0.14852 0.68175 0.0
H1026 H 0.80749 0.1194 0.70063 0.0
S1027 S 0.81076 0.21505 0.69267 0.0
N1028 N 0.83828 0.21651 0.68215 0.0
N1029 N 0.79002 0.18473 0.70288 0.0
C1030 C 0.8052 0.17433 0.69801 0.0
C1031 C 0.83135 0.19158 0.68677 0.0
C1032 C 0.01645 0.4981 0.51314 0.0
C1033 C -0.0008 0.47212 0.52172 0.0
C1034 C 0.00799 0.51526 0.50397 0.0
C1035 C 0.98192 0.50717 0.50277 0.0
H1036 H 0.0368 0.50548 0.51397 0.0
H1037 H 0.02211 0.53507 0.49796 0.0
S1038 S 0.92878 0.44105 0.52187 0.0
N1039 N 0.95476 0.43897 0.52773 0.0
N1040 N 0.93869 0.47131 0.51013 0.0
C1041 C 0.96433 0.48115 0.51043 0.0
C1042 C 0.97301 0.4636 0.51999 0.0
C1043 C 0.51602 0.50797 0.52471 0.0
C1044 C 0.50719 0.52492 0.53463 0.0
C1045 C 0.49918 0.48261 0.51249 0.0
C1046 C 0.47275 0.47304 0.50969 0.0
H1047 H 0.53617 0.51429 0.52607 0.0
H1048 H 0.50714 0.47044 0.50513 0.0
S1049 S 0.4397 0.50948 0.53301 0.0
N1050 N 0.47016 0.53039 0.54138 0.0
N1051 N 0.43842 0.48243 0.51835 0.0
C1052 C 0.46353 0.48968 0.51981 0.0
C1053 C 0.48077 0.51568 0.53232 0.0
C1054 C 0.50294 0.01074 0.52588 0.0
C1055 C 0.51253 0.99416 0.51812 0.0
C1056 C 0.47727 0.00151 0.53672 0.0
C1057 C 0.46008 0.97529 0.54013 0.0
H1058 H 0.51534 0.03116 0.52351 0.0
H1059 H 0.47089 0.0151 0.54219 0.0
S1060 S 0.47551 0.92373 0.52355 0.0
N1061 N 0.50291 0.95024 0.51501 0.0
N1062 N 0.45444 0.93269 0.53542 0.0
C1063 C 0.46938 0.9584 0.53281 0.0
C1064 C 0.49565 0.96787 0.52183 0.0
C1065 C 0.47191 0.97859 1.00302 0.0
C1066 C 0.48063 0.00444 0.99418 0.0
C1067 C 0.48863 0.97037 1.01846 0.0
C1068 C 0.51472 0.9877 0.02581 0.0
H1069 H 0.45196 0.96452 0.99853 0.0
H1070 H 0.48087 0.95022 0.0251 0.0
S1071 S 0.54739 0.0575 1.00619 0.0
N1072 N 0.51725 0.04743 0.99263 0.0
N1073 N 0.54866 0.03184 0.02188 0.0
C1074 C 0.52382 0.0136 1.01646 0.0
C1075 C 0.50678 0.02201 1.00053 0.0
C1076 C 0.98258 0.50648 0.02679 0.0
C1077 C 0.00844 0.52385 0.03541 0.0
C1078 C 0.97436 0.48126 1.01387 0.0
C1079 C 0.99166 0.47236 1.00905 0.0
H1080 H 0.96847 0.51236 0.02982 0.0
H1081 H 0.95418 0.46868 1.00761 0.0
S1082 S 0.06156 0.51015 0.02804 0.0
N1083 N 0.05148 0.53044 0.03854 0.0
N1084 N 0.03588 0.48282 1.01417 0.0
C1085 C 0.01761 0.48945 1.01772 0.0
C1086 C 0.02604 0.51525 0.03095 0.0
C1087 C 0.48331 0.47509 0.02073 0.0
C1088 C 0.46556 0.48309 0.02906 0.0
C1089 C 0.50863 0.49255 1.00905 0.0
C1090 C 0.51724 0.51874 1.00529 0.0
H1091 H 0.47769 0.45516 0.02335 0.0
H1092 H 0.52156 0.48536 1.00327 0.0
S1093 S 0.47825 0.54956 0.02277 0.0
N1094 N 0.4582 0.519 0.03211 0.0
N1095 N 0.50598 0.55187 1.01015 0.0
C1096 C 0.4997 0.52706 1.01317 0.0
C1097 C 0.47381 0.50923 0.02507 0.0
C1098 C 0.41622 0.08361 0.0425 0.0
C1099 C 0.42933 0.07128 0.05882 0.0
C1100 C 0.4057 0.09319 0.07834 0.0
C1101 C 0.40837 0.09148 0.132 0.0
H1102 H 0.4127 0.08453 1.00202 0.0
H1103 H 0.39454 0.10124 0.06378 0.0
S1104 S 0.44413 0.06422 0.19454 0.0
N1105 N 0.44653 0.06012 0.1325 0.0
N1106 N 0.42735 0.07873 0.19906 0.0
C1107 C 0.42313 0.08103 0.14864 0.0
C1108 C 0.43343 0.07081 0.11228 0.0
C1109 C 0.91143 0.33677 0.15604 0.0
C1110 C 0.89927 0.31139 0.13952 0.0
C1111 C 0.92154 0.35697 0.12029 0.0
C1112 C 0.91955 0.35271 0.06654 0.0
H1113 H 0.91469 0.34111 0.19663 0.0
H1114 H 0.93207 0.3762 0.13503 0.0
S1115 S 0.88662 0.28965 1.00356 0.0
N1116 N 0.88379 0.28306 0.06562 0.0
N1117 N 0.90234 0.32098 0.99921 0.0
C1118 C 0.90577 0.32745 0.04969 0.0
C1119 C 0.89582 0.30685 0.08597 0.0
C1120 C 0.63243 0.56645 0.12523 0.0
C1121 C 0.63634 0.56662 0.0715 0.0
C1122 C 0.65278 0.57606 0.16059 0.0
C1123 C 0.67801 0.58657 0.14367 0.0
H1124 H 0.61347 0.55982 0.14015 0.0
H1125 H 0.64886 0.57685 0.20093 0.0
S1126 S 0.6987 0.58895 1.00835 0.0
N1127 N 0.66745 0.5758 1.00432 0.0
N1128 N 0.70567 0.59448 0.07003 0.0
C1129 C 0.68208 0.58544 0.09049 0.0
C1130 C 0.66131 0.57527 0.05462 0.0
C1131 C 0.09631 0.40328 0.45105 0.0
C1132 C 0.09542 0.40611 0.39713 0.0
C1133 C 0.08568 0.41318 0.48599 0.0
C1134 C 0.07332 0.42606 0.46852 0.0
H1135 H 0.10445 0.39237 0.46653 0.0
H1136 H 0.08567 0.40924 0.52658 0.0
S1137 S 0.06802 0.44124 0.33222 0.0
N1138 N 0.08328 0.42516 0.329 0.0
N1139 N 0.06269 0.44301 0.39387 0.0
C1140 C 0.07354 0.43027 0.41501 0.0
C1141 C 0.08476 0.42057 0.37957 0.0
C1142 C 0.57549 0.67012 0.48734 0.0
C1143 C 0.56182 0.64495 0.46964 0.0
C1144 C 0.58633 0.69074 0.45267 0.0
C1145 C 0.58367 0.68723 0.39873 0.0
H1146 H 0.57905 0.67391 0.52803 0.0
H1147 H 0.59767 0.70967 0.46847 0.0
S1148 S 0.5466 0.62516 0.33295 0.0
N1149 N 0.5442 0.61775 0.39454 0.0
N1150 N 0.56398 0.65647 0.33012 0.0
C1151 C 0.56854 0.66226 0.38079 0.0
C1152 C 0.55783 0.6412 0.41601 0.0
C1153 C 0.31539 0.89994 0.48554 0.0
C1154 C 0.34109 0.91133 0.47129 0.0
C1155 C 0.29598 0.89095 0.4481 0.0
C1156 C 0.30132 0.8925 0.3948 0.0
H1157 H 0.31032 0.89941 0.5256 0.0
H1158 H 0.27658 0.88354 0.46115 0.0
S1159 S 0.36547 0.91759 0.33791 0.0
N1160 N 0.37078 0.92171 0.40036 0.0
N1161 N 0.33432 0.90399 0.33069 0.0
C1162 C 0.32681 0.90212 0.3804 0.0
C1163 C 0.34664 0.91178 0.41842 0.0
C1164 C 0.56556 0.88925 0.9181 0.0
C1165 C 0.59105 0.90393 0.90145 0.0
C1166 C 0.55565 0.89825 0.95709 0.0
C1167 C 0.57096 0.9221 0.98078 0.0
H1168 H 0.55341 0.87062 0.90166 0.0
H1169 H 0.53578 0.88685 0.96765 0.0
S1170 S 0.63854 0.96796 0.95004 0.0
N1171 N 0.63097 0.94365 0.91148 0.0
N1172 N 0.61258 0.96017 0.98357 0.0
C1173 C 0.59631 0.93674 0.96412 0.0
C1174 C 0.60627 0.92777 0.9249 0.0
C1175 C 0.07091 0.63999 0.92052 0.0
C1176 C 0.07267 0.64415 0.9743 0.0
C1177 C 0.08059 0.66026 0.88494 0.0
C1178 C 0.0921 0.68557 0.90166 0.0
H1179 H 0.061 0.62077 0.90562 0.0
H1180 H 0.07754 0.65597 0.8443 0.0
S1181 S 0.10381 0.70713 0.03777 0.0
N1182 N 0.08887 0.67581 0.04188 0.0
N1183 N 0.10664 0.7138 0.97576 0.0
C1184 C 0.09525 0.69005 0.95524 0.0
C1185 C 0.08572 0.66942 0.99135 0.0
C1186 C 0.32798 0.41677 0.88244 0.0
C1187 C 0.30267 0.40361 0.89969 0.0
C1188 C 0.34845 0.42714 0.91752 0.0
C1189 C 0.3446 0.42525 0.97139 0.0
H1190 H 0.33208 0.41784 0.84174 0.0
H1191 H 0.36759 0.43599 0.9021 0.0
S1192 S 0.28195 0.39556 0.03638 0.0
N1193 N 0.27489 0.39134 0.97457 0.0
N1194 N 0.31334 0.41113 0.0397 0.0
C1195 C 0.31943 0.41374 0.98902 0.0
C1196 C 0.29854 0.40286 0.9534 0.0
C1197 C 0.90976 0.57328 0.65775 0.0
C1198 C 0.89613 0.5848 0.63983 0.0
C1199 C 0.92033 0.56315 0.62327 0.0
C1200 C 0.91739 0.56362 0.56934 0.0
H1201 H 0.91344 0.57324 0.69843 0.0
H1202 H 0.9316 0.55551 0.63918 0.0
S1203 S 0.88073 0.58895 0.50302 0.0
N1204 N 0.87855 0.59428 0.5645 0.0
N1205 N 0.89781 0.57471 0.50052 0.0
C1206 C 0.90245 0.57364 0.55122 0.0
C1207 C 0.89203 0.58435 0.58619 0.0
C1208 C 0.40566 0.30811 0.58326 0.0
C1209 C 0.40842 0.31161 0.63718 0.0
C1210 C 0.41651 0.32877 0.54863 0.0
C1211 C 0.43013 0.35392 0.5665 0.0
H1212 H 0.39399 0.28919 0.56759 0.0
H1213 H 0.41263 0.32503 0.50803 0.0
S1214 S 0.44537 0.37354 0.70322 0.0
N1215 N 0.42806 0.34221 0.70594 0.0
N1216 N 0.44788 0.38103 0.64164 0.0
C1217 C 0.43442 0.35758 0.62008 0.0
C1218 C 0.42376 0.33649 0.6552 0.0
C1219 C 0.6577 0.08353 0.55268 0.0
C1220 C 0.6326 0.07207 0.57097 0.0
C1221 C 0.67856 0.09389 0.58691 0.0
C1222 C 0.67532 0.09365 0.6409 0.0
H1223 H 0.66126 0.08304 0.51208 0.0
H1224 H 0.69742 0.10125 0.57083 0.0
S1225 S 0.61351 0.06915 0.70771 0.0
N1226 N 0.60578 0.06334 0.64638 0.0
N1227 N 0.64488 0.08335 0.70992 0.0
C1228 C 0.65043 0.08406 0.65922 0.0
C1229 C 0.62917 0.07314 0.6245 0.0
C1230 C 0.7614 0.73658 0.78934 0.0
C1231 C 0.76039 0.74001 0.73573 0.0
C1232 C 0.75366 0.74865 0.8255 0.0
C1233 C 0.74415 0.76434 0.80948 0.0
H1234 H 0.7672 0.72349 0.80358 0.0
H1235 H 0.75335 0.74413 0.86584 0.0
S1236 S 0.73985 0.78172 0.67432 0.0
N1237 N 0.75124 0.76218 0.66921 0.0
N1238 N 0.73619 0.78442 0.73646 0.0
C1239 C 0.74451 0.76916 0.75621 0.0
C1240 C 0.75278 0.75718 0.71952 0.0
C1241 C 0.24278 0.99348 0.7094 0.0
C1242 C 0.25153 0.01859 0.72539 0.0
C1243 C 0.23305 0.97324 0.74511 0.0
C1244 C 0.23111 0.97709 0.79821 0.0
H1245 H 0.24484 0.98957 0.66969 0.0
H1246 H 0.22774 0.95446 0.73104 0.0
S1247 S 0.24846 0.03887 0.85872 0.0
N1248 N 0.25564 0.04587 0.79746 0.0
N1249 N 0.23674 0.00788 0.86362 0.0
C1250 C 0.23813 0.00184 0.81397 0.0
C1251 C 0.24848 0.0225 0.77786 0.0
C1252 C 0.99288 0.23751 0.71819 0.0
C1253 C 0.96783 0.22563 0.73685 0.0
C1254 C 0.01381 0.24764 0.75217 0.0
C1255 C 0.01066 0.24598 0.80625 0.0
H1256 H -0.00356 0.24055 0.67733 0.0
H1257 H 0.03274 0.25794 0.73579 0.0
S1258 S 0.94887 0.21349 0.8745 0.0
N1259 N 0.94102 0.21045 0.81309 0.0
N1260 N 0.98029 0.22914 0.87617 0.0
C1261 C 0.98573 0.23236 0.82519 0.0
C1262 C 0.96439 0.22233 0.79071 0.0
C1263 C 0.25454 0.22698 0.2843 0.0
C1264 C 0.25224 0.2282 0.23032 0.0
C1265 C 0.24354 0.23662 0.31892 0.0
C1266 C 0.23006 0.24827 0.301 0.0
H1267 H 0.26596 0.21947 0.30008 0.0
H1268 H 0.2472 0.23656 0.35963 0.0
S1269 S 0.21611 0.2541 0.1641 0.0
N1270 N 0.23333 0.23999 0.16141 0.0
N1271 N 0.2131 0.2585 0.22574 0.0
C1272 C 0.22629 0.24822 0.24733 0.0
C1273 C 0.23719 0.23807 0.2122 0.0
C1274 C 0.76153 0.02435 0.28968 0.0
C1275 C 0.76164 0.02057 0.23593 0.0
C1276 C 0.751 0.00388 0.3248 0.0
C1277 C 0.73986 0.97867 0.30765 0.0
H1278 H 0.76859 0.04332 0.30479 0.0
H1279 H 0.74995 0.00778 0.36505 0.0
S1280 S 0.7381 0.95821 0.17235 0.0
N1281 N 0.75216 0.98951 0.16862 0.0
N1282 N 0.73185 0.95111 0.23385 0.0
C1283 C 0.74139 0.97469 0.25452 0.0
C1284 C 0.75244 0.99556 0.2189 0.0
C1285 C 0.98781 0.74625 0.32555 0.0
C1286 C 0.01312 0.75832 0.30846 0.0
C1287 C 0.96744 0.73658 0.29024 0.0
C1288 C 0.97149 0.73893 0.23643 0.0
H1289 H 0.98365 0.74271 0.36618 0.0
H1290 H 0.94824 0.72618 0.30533 0.0
S1291 S 0.03436 0.7718 0.17226 0.0
N1292 N 0.0412 0.77412 0.23415 0.0
N1293 N 0.00298 0.75635 0.16853 0.0
C1294 C -0.00328 0.75259 0.21911 0.0
C1295 C 0.01746 0.76212 0.25493 0.0
loop_
_geom_bond_atom_site_label_1
_geom_bond_atom_site_label_2
_geom_bond_distance
_geom_bond_site_symmetry_2
_ccdc_geom_bond_type
Co0 O1 2.216 . S
Co0 O2 2.091 . S
Co0 O4 2.004 . S
Co0 O10 2.021 . S
Co0 O12 2.137 . S
Co0 O13 2.244 . S
O1 Co0 2.216 . S
O1 C8 1.247 . S
O2 Co0 2.091 . S
O2 C8 1.261 . S
C3 O12 1.247 . S
C3 O13 1.272 . S
O4 Co0 2.004 . S
O4 C9 1.259 . S
Co5 O6 2.061 . S
Co5 O11 2.052 . S
Co5 O13 2.135 . S
O6 Co5 2.061 . S
O6 C9 1.235 . S
C7 O10 1.238 . S
C7 O11 1.241 . S
C8 O1 1.247 . S
C8 O2 1.261 . S
C9 O4 1.259 . S
C9 O6 1.235 . S
O10 Co0 2.021 . S
O10 C7 1.238 . S
O11 Co5 2.052 . S
O11 C7 1.241 . S
O12 Co0 2.137 . S
O12 C3 1.247 . S
O13 Co0 2.244 . S
O13 C3 1.272 . S
O13 Co5 2.135 . S
Co14 O15 2.216 . S
Co14 O16 2.091 . S
Co14 O18 2.004 . S
Co14 O24 2.021 . S
Co14 O26 2.137 . S
Co14 O27 2.244 . S
O15 Co14 2.216 . S
O15 C22 1.247 . S
O16 Co14 2.091 . S
O16 C22 1.261 . S
C17 O26 1.247 . S
C17 O27 1.272 . S
O18 Co14 2.004 . S
O18 C23 1.259 . S
Co19 O20 2.061 . S
Co19 O25 2.052 . S
Co19 O27 2.135 . S
O20 Co19 2.061 . S
O20 C23 1.235 . S
C21 O24 1.238 . S
C21 O25 1.241 . S
C22 O15 1.247 . S
C22 O16 1.261 . S
C23 O18 1.259 . S
C23 O20 1.235 . S
O24 Co14 2.021 . S
O24 C21 1.238 . S
O25 Co19 2.052 . S
O25 C21 1.241 . S
O26 Co14 2.137 . S
O26 C17 1.247 . S
O27 Co14 2.244 . S
O27 C17 1.272 . S
O27 Co19 2.135 . S
Co28 O29 2.216 . S
Co28 O30 2.091 . S
Co28 O32 2.004 . S
Co28 O38 2.021 . S
Co28 O40 2.137 . S
Co28 O41 2.244 . S
O29 Co28 2.216 . S
O29 C36 1.247 . S
O30 Co28 2.091 . S
O30 C36 1.261 . S
C31 O40 1.247 . S
C31 O41 1.272 . S
O32 Co28 2.004 . S
O32 C37 1.259 . S
Co33 O34 2.061 . S
Co33 O39 2.052 . S
Co33 O41 2.135 . S
O34 Co33 2.061 . S
O34 C37 1.235 . S
C35 O38 1.238 . S
C35 O39 1.241 . S
C36 O29 1.247 . S
C36 O30 1.261 . S
C37 O32 1.259 . S
C37 O34 1.235 . S
O38 Co28 2.021 . S
O38 C35 1.238 . S
O39 Co33 2.052 . S
O39 C35 1.241 . S
O40 Co28 2.137 . S
O40 C31 1.247 . S
O41 Co28 2.244 . S
O41 C31 1.272 . S
O41 Co33 2.135 . S
Co42 O43 2.216 . S
Co42 O44 2.091 . S
Co42 O46 2.004 . S
Co42 O52 2.021 . S
Co42 O54 2.137 . S
Co42 O55 2.244 . S
O43 Co42 2.216 . S
O43 C50 1.247 . S
O44 Co42 2.091 . S
O44 C50 1.261 . S
C45 O54 1.247 . S
C45 O55 1.272 . S
O46 Co42 2.004 . S
O46 C51 1.259 . S
Co47 O48 2.061 . S
Co47 O53 2.052 . S
Co47 O55 2.135 . S
O48 Co47 2.061 . S
O48 C51 1.235 . S
C49 O52 1.238 . S
C49 O53 1.241 . S
C50 O43 1.247 . S
C50 O44 1.261 . S
C51 O46 1.259 . S
C51 O48 1.235 . S
O52 Co42 2.021 . S
O52 C49 1.238 . S
O53 Co47 2.052 . S
O53 C49 1.241 . S
O54 Co42 2.137 . S
O54 C45 1.247 . S
O55 Co42 2.244 . S
O55 C45 1.272 . S
O55 Co47 2.135 . S
Co56 O57 2.216 . S
Co56 O58 2.091 . S
Co56 O60 2.004 . S
Co56 O66 2.021 . S
Co56 O68 2.137 . S
Co56 O69 2.244 . S
O57 Co56 2.216 . S
O57 C64 1.247 . S
O58 Co56 2.091 . S
O58 C64 1.261 . S
C59 O68 1.247 . S
C59 O69 1.272 . S
O60 Co56 2.004 . S
O60 C65 1.259 . S
Co61 O62 2.061 . S
Co61 O67 2.052 . S
Co61 O69 2.135 . S
O62 Co61 2.061 . S
O62 C65 1.235 . S
C63 O66 1.238 . S
C63 O67 1.241 . S
C64 O57 1.247 . S
C64 O58 1.261 . S
C65 O60 1.259 . S
C65 O62 1.235 . S
O66 Co56 2.021 . S
O66 C63 1.238 . S
O67 Co61 2.052 . S
O67 C63 1.241 . S
O68 Co56 2.137 . S
O68 C59 1.247 . S
O69 Co56 2.244 . S
O69 C59 1.272 . S
O69 Co61 2.135 . S
Co70 O71 2.216 . S
Co70 O72 2.091 . S
Co70 O74 2.004 . S
Co70 O80 2.021 . S
Co70 O82 2.137 . S
Co70 O83 2.244 . S
O71 Co70 2.216 . S
O71 C78 1.247 . S
O72 Co70 2.091 . S
O72 C78 1.261 . S
C73 O82 1.247 . S
C73 O83 1.272 . S
O74 Co70 2.004 . S
O74 C79 1.259 . S
Co75 O76 2.061 . S
Co75 O81 2.052 . S
Co75 O83 2.135 . S
O76 Co75 2.061 . S
O76 C79 1.235 . S
C77 O80 1.238 . S
C77 O81 1.241 . S
C78 O71 1.247 . S
C78 O72 1.261 . S
C79 O74 1.259 . S
C79 O76 1.235 . S
O80 Co70 2.021 . S
O80 C77 1.238 . S
O81 Co75 2.052 . S
O81 C77 1.241 . S
O82 Co70 2.137 . S
O82 C73 1.247 . S
O83 Co70 2.244 . S
O83 C73 1.272 . S
O83 Co75 2.135 . S
Co84 O85 2.216 . S
Co84 O86 2.091 . S
Co84 O88 2.004 . S
Co84 O94 2.021 . S
Co84 O96 2.137 . S
Co84 O97 2.244 . S
O85 Co84 2.216 . S
O85 C92 1.247 . S
O86 Co84 2.091 . S
O86 C92 1.261 . S
C87 O96 1.247 . S
C87 O97 1.272 . S
O88 Co84 2.004 . S
O88 C93 1.259 . S
Co89 O90 2.061 . S
Co89 O95 2.052 . S
Co89 O97 2.135 . S
O90 Co89 2.061 . S
O90 C93 1.235 . S
C91 O94 1.238 . S
C91 O95 1.241 . S
C92 O85 1.247 . S
C92 O86 1.261 . S
C93 O88 1.259 . S
C93 O90 1.235 . S
O94 Co84 2.021 . S
O94 C91 1.238 . S
O95 Co89 2.052 . S
O95 C91 1.241 . S
O96 Co84 2.137 . S
O96 C87 1.247 . S
O97 Co84 2.244 . S
O97 C87 1.272 . S
O97 Co89 2.135 . S
Co98 O99 2.216 . S
Co98 O100 2.091 . S
Co98 O102 2.004 . S
Co98 O108 2.021 . S
Co98 O110 2.137 . S
Co98 O111 2.244 . S
O99 Co98 2.216 . S
O99 C106 1.247 . S
O100 Co98 2.091 . S
O100 C106 1.261 . S
C101 O110 1.247 . S
C101 O111 1.272 . S
O102 Co98 2.004 . S
O102 C107 1.259 . S
Co103 O104 2.061 . S
Co103 O109 2.052 . S
Co103 O111 2.135 . S
O104 Co103 2.061 . S
O104 C107 1.235 . S
C105 O108 1.238 . S
C105 O109 1.241 . S
C106 O99 1.247 . S
C106 O100 1.261 . S
C107 O102 1.259 . S
C107 O104 1.235 . S
O108 Co98 2.021 . S
O108 C105 1.238 . S
O109 Co103 2.052 . S
O109 C105 1.241 . S
O110 Co98 2.137 . S
O110 C101 1.247 . S
O111 Co98 2.244 . S
O111 C101 1.272 . S
O111 Co103 2.135 . S
Co112 O113 2.216 . S
Co112 O114 2.091 . S
Co112 O116 2.004 . S
Co112 O122 2.021 . S
Co112 O124 2.137 . S
Co112 O125 2.244 . S
O113 Co112 2.216 . S
O113 C120 1.247 . S
O114 Co112 2.091 . S
O114 C120 1.261 . S
C115 O124 1.247 . S
C115 O125 1.272 . S
O116 Co112 2.004 . S
O116 C121 1.259 . S
Co117 O118 2.061 . S
Co117 O123 2.052 . S
Co117 O125 2.135 . S
O118 Co117 2.061 . S
O118 C121 1.235 . S
C119 O122 1.238 . S
C119 O123 1.241 . S
C120 O113 1.247 . S
C120 O114 1.261 . S
C121 O116 1.259 . S
C121 O118 1.235 . S
O122 Co112 2.021 . S
O122 C119 1.238 . S
O123 Co117 2.052 . S
O123 C119 1.241 . S
O124 Co112 2.137 . S
O124 C115 1.247 . S
O125 Co112 2.244 . S
O125 C115 1.272 . S
O125 Co117 2.135 . S
Co126 O127 2.216 . S
Co126 O128 2.091 . S
Co126 O130 2.004 . S
Co126 O136 2.021 . S
Co126 O138 2.137 . S
Co126 O139 2.244 . S
O127 Co126 2.216 . S
O127 C134 1.247 . S
O128 Co126 2.091 . S
O128 C134 1.261 . S
C129 O138 1.247 . S
C129 O139 1.272 . S
O130 Co126 2.004 . S
O130 C135 1.259 . S
Co131 O132 2.061 . S
Co131 O137 2.052 . S
Co131 O139 2.135 . S
O132 Co131 2.061 . S
O132 C135 1.235 . S
C133 O136 1.238 . S
C133 O137 1.241 . S
C134 O127 1.247 . S
C134 O128 1.261 . S
C135 O130 1.259 . S
C135 O132 1.235 . S
O136 Co126 2.021 . S
O136 C133 1.238 . S
O137 Co131 2.052 . S
O137 C133 1.241 . S
O138 Co126 2.137 . S
O138 C129 1.247 . S
O139 Co126 2.244 . S
O139 C129 1.272 . S
O139 Co131 2.135 . S
Co140 O141 2.216 . S
Co140 O142 2.091 . S
Co140 O144 2.004 . S
Co140 O150 2.021 . S
Co140 O152 2.137 . S
Co140 O153 2.244 . S
O141 Co140 2.216 . S
O141 C148 1.247 . S
O142 Co140 2.091 . S
O142 C148 1.261 . S
C143 O152 1.247 . S
C143 O153 1.272 . S
O144 Co140 2.004 . S
O144 C149 1.259 . S
Co145 O146 2.061 . S
Co145 O151 2.052 . S
Co145 O153 2.135 . S
O146 Co145 2.061 . S
O146 C149 1.235 . S
C147 O150 1.238 . S
C147 O151 1.241 . S
C148 O141 1.247 . S
C148 O142 1.261 . S
C149 O144 1.259 . S
C149 O146 1.235 . S
O150 Co140 2.021 . S
O150 C147 1.238 . S
O151 Co145 2.052 . S
O151 C147 1.241 . S
O152 Co140 2.137 . S
O152 C143 1.247 . S
O153 Co140 2.244 . S
O153 C143 1.272 . S
O153 Co145 2.135 . S
Co154 O155 2.216 . S
Co154 O156 2.091 . S
Co154 O158 2.004 . S
Co154 O164 2.021 . S
Co154 O166 2.137 . S
Co154 O167 2.244 . S
O155 Co154 2.216 . S
O155 C162 1.247 . S
O156 Co154 2.091 . S
O156 C162 1.261 . S
C157 O166 1.247 . S
C157 O167 1.272 . S
O158 Co154 2.004 . S
O158 C163 1.259 . S
Co159 O160 2.061 . S
Co159 O165 2.052 . S
Co159 O167 2.135 . S
O160 Co159 2.061 . S
O160 C163 1.235 . S
C161 O164 1.238 . S
C161 O165 1.241 . S
C162 O155 1.247 . S
C162 O156 1.261 . S
C163 O158 1.259 . S
C163 O160 1.235 . S
O164 Co154 2.021 . S
O164 C161 1.238 . S
O165 Co159 2.052 . S
O165 C161 1.241 . S
O166 Co154 2.137 . S
O166 C157 1.247 . S
O167 Co154 2.244 . S
O167 C157 1.272 . S
O167 Co159 2.135 . S
Co168 O169 2.216 . S
Co168 O170 2.091 . S
Co168 O172 2.004 . S
Co168 O178 2.021 . S
Co168 O180 2.137 . S
Co168 O181 2.244 . S
O169 Co168 2.216 . S
O169 C176 1.247 . S
O170 Co168 2.091 . S
O170 C176 1.261 . S
C171 O180 1.247 . S
C171 O181 1.272 . S
O172 Co168 2.004 . S
O172 C177 1.259 . S
Co173 O174 2.061 . S
Co173 O179 2.052 . S
Co173 O181 2.135 . S
O174 Co173 2.061 . S
O174 C177 1.235 . S
C175 O178 1.238 . S
C175 O179 1.241 . S
C176 O169 1.247 . S
C176 O170 1.261 . S
C177 O172 1.259 . S
C177 O174 1.235 . S
O178 Co168 2.021 . S
O178 C175 1.238 . S
O179 Co173 2.052 . S
O179 C175 1.241 . S
O180 Co168 2.137 . S
O180 C171 1.247 . S
O181 Co168 2.244 . S
O181 C171 1.272 . S
O181 Co173 2.135 . S
Co182 O183 2.216 . S
Co182 O184 2.091 . S
Co182 O186 2.004 . S
Co182 O192 2.021 . S
Co182 O194 2.137 . S
Co182 O195 2.244 . S
O183 Co182 2.216 . S
O183 C190 1.247 . S
O184 Co182 2.091 . S
O184 C190 1.261 . S
C185 O194 1.247 . S
C185 O195 1.272 . S
O186 Co182 2.004 . S
O186 C191 1.259 . S
Co187 O188 2.061 . S
Co187 O193 2.052 . S
Co187 O195 2.135 . S
O188 Co187 2.061 . S
O188 C191 1.235 . S
C189 O192 1.238 . S
C189 O193 1.241 . S
C190 O183 1.247 . S
C190 O184 1.261 . S
C191 O186 1.259 . S
C191 O188 1.235 . S
O192 Co182 2.021 . S
O192 C189 1.238 . S
O193 Co187 2.052 . S
O193 C189 1.241 . S
O194 Co182 2.137 . S
O194 C185 1.247 . S
O195 Co182 2.244 . S
O195 C185 1.272 . S
O195 Co187 2.135 . S
Co196 O197 2.216 . S
Co196 O198 2.091 . S
Co196 O200 2.004 . S
Co196 O206 2.021 . S
Co196 O208 2.137 . S
Co196 O209 2.244 . S
O197 Co196 2.216 . S
O197 C204 1.247 . S
O198 Co196 2.091 . S
O198 C204 1.261 . S
C199 O208 1.247 . S
C199 O209 1.272 . S
O200 Co196 2.004 . S
O200 C205 1.259 . S
Co201 O202 2.061 . S
Co201 O207 2.052 . S
Co201 O209 2.135 . S
O202 Co201 2.061 . S
O202 C205 1.235 . S
C203 O206 1.238 . S
C203 O207 1.241 . S
C204 O197 1.247 . S
C204 O198 1.261 . S
C205 O200 1.259 . S
C205 O202 1.235 . S
O206 Co196 2.021 . S
O206 C203 1.238 . S
O207 Co201 2.052 . S
O207 C203 1.241 . S
O208 Co196 2.137 . S
O208 C199 1.247 . S
O209 Co196 2.244 . S
O209 C199 1.272 . S
O209 Co201 2.135 . S
Co210 O211 2.216 . S
Co210 O212 2.091 . S
Co210 O214 2.004 . S
Co210 O220 2.021 . S
Co210 O222 2.137 . S
Co210 O223 2.244 . S
O211 Co210 2.216 . S
O211 C218 1.247 . S
O212 Co210 2.091 . S
O212 C218 1.261 . S
C213 O222 1.247 . S
C213 O223 1.272 . S
O214 Co210 2.004 . S
O214 C219 1.259 . S
Co215 O216 2.061 . S
Co215 O221 2.052 . S
Co215 O223 2.135 . S
O216 Co215 2.061 . S
O216 C219 1.235 . S
C217 O220 1.238 . S
C217 O221 1.241 . S
C218 O211 1.247 . S
C218 O212 1.261 . S
C219 O214 1.259 . S
C219 O216 1.235 . S
O220 Co210 2.021 . S
O220 C217 1.238 . S
O221 Co215 2.052 . S
O221 C217 1.241 . S
O222 Co210 2.137 . S
O222 C213 1.247 . S
O223 Co210 2.244 . S
O223 C213 1.272 . S
O223 Co215 2.135 . S
Co224 O225 2.216 . S
Co224 O226 2.091 . S
Co224 O228 2.004 . S
Co224 O234 2.021 . S
Co224 O236 2.137 . S
Co224 O237 2.244 . S
O225 Co224 2.216 . S
O225 C232 1.247 . S
O226 Co224 2.091 . S
O226 C232 1.261 . S
C227 O236 1.247 . S
C227 O237 1.272 . S
O228 Co224 2.004 . S
O228 C233 1.259 . S
Co229 O230 2.061 . S
Co229 O235 2.052 . S
Co229 O237 2.135 . S
O230 Co229 2.061 . S
O230 C233 1.235 . S
C231 O234 1.238 . S
C231 O235 1.241 . S
C232 O225 1.247 . S
C232 O226 1.261 . S
C233 O228 1.259 . S
C233 O230 1.235 . S
O234 Co224 2.021 . S
O234 C231 1.238 . S
O235 Co229 2.052 . S
O235 C231 1.241 . S
O236 Co224 2.137 . S
O236 C227 1.247 . S
O237 Co224 2.244 . S
O237 C227 1.272 . S
O237 Co229 2.135 . S
Co238 O239 2.216 . S
Co238 O240 2.091 . S
Co238 O242 2.004 . S
Co238 O248 2.021 . S
Co238 O250 2.137 . S
Co238 O251 2.244 . S
O239 Co238 2.216 . S
O239 C246 1.247 . S
O240 Co238 2.091 . S
O240 C246 1.261 . S
C241 O250 1.247 . S
C241 O251 1.272 . S
O242 Co238 2.004 . S
O242 C247 1.259 . S
Co243 O244 2.061 . S
Co243 O249 2.052 . S
Co243 O251 2.135 . S
O244 Co243 2.061 . S
O244 C247 1.235 . S
C245 O248 1.238 . S
C245 O249 1.241 . S
C246 O239 1.247 . S
C246 O240 1.261 . S
C247 O242 1.259 . S
C247 O244 1.235 . S
O248 Co238 2.021 . S
O248 C245 1.238 . S
O249 Co243 2.052 . S
O249 C245 1.241 . S
O250 Co238 2.137 . S
O250 C241 1.247 . S
O251 Co238 2.244 . S
O251 C241 1.272 . S
O251 Co243 2.135 . S
Co252 O253 2.216 . S
Co252 O254 2.091 . S
Co252 O256 2.004 . S
Co252 O262 2.021 . S
Co252 O264 2.137 . S
Co252 O265 2.244 . S
O253 Co252 2.216 . S
O253 C260 1.247 . S
O254 Co252 2.091 . S
O254 C260 1.261 . S
C255 O264 1.247 . S
C255 O265 1.272 . S
O256 Co252 2.004 . S
O256 C261 1.259 . S
Co257 O258 2.061 . S
Co257 O263 2.052 . S
Co257 O265 2.135 . S
O258 Co257 2.061 . S
O258 C261 1.235 . S
C259 O262 1.238 . S
C259 O263 1.241 . S
C260 O253 1.247 . S
C260 O254 1.261 . S
C261 O256 1.259 . S
C261 O258 1.235 . S
O262 Co252 2.021 . S
O262 C259 1.238 . S
O263 Co257 2.052 . S
O263 C259 1.241 . S
O264 Co252 2.137 . S
O264 C255 1.247 . S
O265 Co252 2.244 . S
O265 C255 1.272 . S
O265 Co257 2.135 . S
Co266 O267 2.216 . S
Co266 O268 2.091 . S
Co266 O270 2.004 . S
Co266 O276 2.021 . S
Co266 O278 2.137 . S
Co266 O279 2.244 . S
O267 Co266 2.216 . S
O267 C274 1.247 . S
O268 Co266 2.091 . S
O268 C274 1.261 . S
C269 O278 1.247 . S
C269 O279 1.272 . S
O270 Co266 2.004 . S
O270 C275 1.259 . S
Co271 O272 2.061 . S
Co271 O277 2.052 . S
Co271 O279 2.135 . S
O272 Co271 2.061 . S
O272 C275 1.235 . S
C273 O276 1.238 . S
C273 O277 1.241 . S
C274 O267 1.247 . S
C274 O268 1.261 . S
C275 O270 1.259 . S
C275 O272 1.235 . S
O276 Co266 2.021 . S
O276 C273 1.238 . S
O277 Co271 2.052 . S
O277 C273 1.241 . S
O278 Co266 2.137 . S
O278 C269 1.247 . S
O279 Co266 2.244 . S
O279 C269 1.272 . S
O279 Co271 2.135 . S
Co280 O281 2.216 . S
Co280 O282 2.091 . S
Co280 O284 2.004 . S
Co280 O290 2.021 . S
Co280 O292 2.137 . S
Co280 O293 2.244 . S
O281 Co280 2.216 . S
O281 C288 1.247 . S
O282 Co280 2.091 . S
O282 C288 1.261 . S
C283 O292 1.247 . S
C283 O293 1.272 . S
O284 Co280 2.004 . S
O284 C289 1.259 . S
Co285 O286 2.061 . S
Co285 O291 2.052 . S
Co285 O293 2.135 . S
O286 Co285 2.061 . S
O286 C289 1.235 . S
C287 O290 1.238 . S
C287 O291 1.241 . S
C288 O281 1.247 . S
C288 O282 1.261 . S
C289 O284 1.259 . S
C289 O286 1.235 . S
O290 Co280 2.021 . S
O290 C287 1.238 . S
O291 Co285 2.052 . S
O291 C287 1.241 . S
O292 Co280 2.137 . S
O292 C283 1.247 . S
O293 Co280 2.244 . S
O293 C283 1.272 . S
O293 Co285 2.135 . S
Co294 O295 2.216 . S
Co294 O296 2.091 . S
Co294 O298 2.004 . S
Co294 O304 2.021 . S
Co294 O306 2.137 1_554 S
Co294 O307 2.244 . S
O295 Co294 2.216 . S
O295 C302 1.247 . S
O296 Co294 2.091 . S
O296 C302 1.261 . S
C297 O306 1.247 1_554 S
C297 O307 1.272 . S
O298 Co294 2.004 . S
O298 C303 1.259 . S
Co299 O300 2.061 . S
Co299 O305 2.052 . S
Co299 O307 2.135 . S
O300 Co299 2.061 . S
O300 C303 1.235 . S
C301 O304 1.238 . S
C301 O305 1.241 . S
C302 O295 1.247 . S
C302 O296 1.261 . S
C303 O298 1.259 . S
C303 O300 1.235 . S
O304 Co294 2.021 . S
O304 C301 1.238 . S
O305 Co299 2.052 . S
O305 C301 1.241 . S
O306 Co294 2.137 1_556 S
O306 C297 1.247 1_556 S
O307 Co294 2.244 . S
O307 C297 1.272 . S
O307 Co299 2.135 . S
Co308 O309 2.216 . S
Co308 O310 2.091 . S
Co308 O312 2.004 . S
Co308 O318 2.021 . S
Co308 O320 2.137 1_554 S
Co308 O321 2.244 . S
O309 Co308 2.216 . S
O309 C316 1.247 . S
O310 Co308 2.091 . S
O310 C316 1.261 . S
C311 O320 1.247 1_554 S
C311 O321 1.272 . S
O312 Co308 2.004 . S
O312 C317 1.259 . S
Co313 O314 2.061 . S
Co313 O319 2.052 . S
Co313 O321 2.135 . S
O314 Co313 2.061 . S
O314 C317 1.235 . S
C315 O318 1.238 . S
C315 O319 1.241 . S
C316 O309 1.247 . S
C316 O310 1.261 . S
C317 O312 1.259 . S
C317 O314 1.235 . S
O318 Co308 2.021 . S
O318 C315 1.238 . S
O319 Co313 2.052 . S
O319 C315 1.241 . S
O320 Co308 2.137 1_556 S
O320 C311 1.247 1_556 S
O321 Co308 2.244 . S
O321 C311 1.272 . S
O321 Co313 2.135 . S
Co322 O323 2.216 . S
Co322 O324 2.091 . S
Co322 O326 2.004 . S
Co322 O332 2.021 . S
Co322 O334 2.137 1_554 S
Co322 O335 2.244 . S
O323 Co322 2.216 . S
O323 C330 1.247 . S
O324 Co322 2.091 . S
O324 C330 1.261 . S
C325 O334 1.247 1_554 S
C325 O335 1.272 . S
O326 Co322 2.004 . S
O326 C331 1.259 . S
Co327 O328 2.061 . S
Co327 O333 2.052 . S
Co327 O335 2.135 . S
O328 Co327 2.061 . S
O328 C331 1.235 . S
C329 O332 1.238 . S
C329 O333 1.241 . S
C330 O323 1.247 . S
C330 O324 1.261 . S
C331 O326 1.259 . S
C331 O328 1.235 . S
O332 Co322 2.021 . S
O332 C329 1.238 . S
O333 Co327 2.052 . S
O333 C329 1.241 . S
O334 Co322 2.137 1_556 S
O334 C325 1.247 1_556 S
O335 Co322 2.244 . S
O335 C325 1.272 . S
O335 Co327 2.135 . S
Co336 O337 2.216 . S
Co336 O338 2.091 . S
Co336 O340 2.004 . S
Co336 O346 2.021 . S
Co336 O348 2.137 . S
Co336 O349 2.244 . S
O337 Co336 2.216 . S
O337 C344 1.247 . S
O338 Co336 2.091 . S
O338 C344 1.261 . S
C339 O348 1.247 . S
C339 O349 1.272 . S
O340 Co336 2.004 . S
O340 C345 1.259 . S
Co341 O342 2.061 . S
Co341 O347 2.052 . S
Co341 O349 2.135 . S
O342 Co341 2.061 . S
O342 C345 1.235 . S
C343 O346 1.238 . S
C343 O347 1.241 . S
C344 O337 1.247 . S
C344 O338 1.261 . S
C345 O340 1.259 . S
C345 O342 1.235 . S
O346 Co336 2.021 . S
O346 C343 1.238 . S
O347 Co341 2.052 . S
O347 C343 1.241 . S
O348 Co336 2.137 . S
O348 C339 1.247 . S
O349 Co336 2.244 . S
O349 C339 1.272 . S
O349 Co341 2.135 . S
Co350 O351 2.216 . S
Co350 O352 2.091 . S
Co350 O354 2.004 . S
Co350 O360 2.021 . S
Co350 O362 2.137 . S
Co350 O363 2.244 . S
O351 Co350 2.216 . S
O351 C358 1.247 . S
O352 Co350 2.091 . S
O352 C358 1.261 . S
C353 O362 1.247 . S
C353 O363 1.272 . S
O354 Co350 2.004 . S
O354 C359 1.259 . S
Co355 O356 2.061 . S
Co355 O361 2.052 . S
Co355 O363 2.135 . S
O356 Co355 2.061 . S
O356 C359 1.235 . S
C357 O360 1.238 . S
C357 O361 1.241 . S
C358 O351 1.247 . S
C358 O352 1.261 . S
C359 O354 1.259 . S
C359 O356 1.235 . S
O360 Co350 2.021 . S
O360 C357 1.238 . S
O361 Co355 2.052 . S
O361 C357 1.241 . S
O362 Co350 2.137 . S
O362 C353 1.247 . S
O363 Co350 2.244 . S
O363 C353 1.272 . S
O363 Co355 2.135 . S
Co364 O365 2.216 . S
Co364 O366 2.091 . S
Co364 O368 2.004 . S
Co364 O374 2.021 . S
Co364 O376 2.137 . S
Co364 O377 2.244 . S
O365 Co364 2.216 . S
O365 C372 1.247 . S
O366 Co364 2.091 . S
O366 C372 1.261 . S
C367 O376 1.247 . S
C367 O377 1.272 . S
O368 Co364 2.004 . S
O368 C373 1.259 . S
Co369 O370 2.061 . S
Co369 O375 2.052 . S
Co369 O377 2.135 . S
O370 Co369 2.061 . S
O370 C373 1.235 . S
C371 O374 1.238 . S
C371 O375 1.241 . S
C372 O365 1.247 . S
C372 O366 1.261 . S
C373 O368 1.259 . S
C373 O370 1.235 . S
O374 Co364 2.021 . S
O374 C371 1.238 . S
O375 Co369 2.052 . S
O375 C371 1.241 . S
O376 Co364 2.137 . S
O376 C367 1.247 . S
O377 Co364 2.244 . S
O377 C367 1.272 . S
O377 Co369 2.135 . S
Co378 O379 2.216 . S
Co378 O380 2.091 . S
Co378 O382 2.004 . S
Co378 O388 2.021 . S
Co378 O390 2.137 1_556 S
Co378 O391 2.244 . S
O379 Co378 2.216 . S
O379 C386 1.247 . S
O380 Co378 2.091 . S
O380 C386 1.261 . S
C381 O390 1.247 1_556 S
C381 O391 1.272 . S
O382 Co378 2.004 . S
O382 C387 1.259 . S
Co383 O384 2.061 . S
Co383 O389 2.052 . S
Co383 O391 2.135 . S
O384 Co383 2.061 . S
O384 C387 1.235 . S
C385 O388 1.238 . S
C385 O389 1.241 . S
C386 O379 1.247 . S
C386 O380 1.261 . S
C387 O382 1.259 . S
C387 O384 1.235 . S
O388 Co378 2.021 . S
O388 C385 1.238 . S
O389 Co383 2.052 . S
O389 C385 1.241 . S
O390 Co378 2.137 1_554 S
O390 C381 1.247 1_554 S
O391 Co378 2.244 . S
O391 C381 1.272 . S
O391 Co383 2.135 . S
Co392 O393 2.216 . S
Co392 O394 2.091 . S
Co392 O396 2.004 . S
Co392 O402 2.021 . S
Co392 O404 2.137 1_556 S
Co392 O405 2.244 . S
O393 Co392 2.216 . S
O393 C400 1.247 . S
O394 Co392 2.091 . S
O394 C400 1.261 . S
C395 O404 1.247 1_556 S
C395 O405 1.272 . S
O396 Co392 2.004 . S
O396 C401 1.259 . S
Co397 O398 2.061 . S
Co397 O403 2.052 . S
Co397 O405 2.135 . S
O398 Co397 2.061 . S
O398 C401 1.235 . S
C399 O402 1.238 . S
C399 O403 1.241 . S
C400 O393 1.247 . S
C400 O394 1.261 . S
C401 O396 1.259 . S
C401 O398 1.235 . S
O402 Co392 2.021 . S
O402 C399 1.238 . S
O403 Co397 2.052 . S
O403 C399 1.241 . S
O404 Co392 2.137 1_554 S
O404 C395 1.247 1_554 S
O405 Co392 2.244 . S
O405 C395 1.272 . S
O405 Co397 2.135 . S
Co406 O407 2.216 . S
Co406 O408 2.091 . S
Co406 O410 2.004 . S
Co406 O416 2.021 . S
Co406 O418 2.137 1_556 S
Co406 O419 2.244 . S
O407 Co406 2.216 . S
O407 C414 1.247 . S
O408 Co406 2.091 . S
O408 C414 1.261 . S
C409 O418 1.247 1_556 S
C409 O419 1.272 . S
O410 Co406 2.004 . S
O410 C415 1.259 . S
Co411 O412 2.061 . S
Co411 O417 2.052 . S
Co411 O419 2.135 . S
O412 Co411 2.061 . S
O412 C415 1.235 . S
C413 O416 1.238 . S
C413 O417 1.241 . S
C414 O407 1.247 . S
C414 O408 1.261 . S
C415 O410 1.259 . S
C415 O412 1.235 . S
O416 Co406 2.021 . S
O416 C413 1.238 . S
O417 Co411 2.052 . S
O417 C413 1.241 . S
O418 Co406 2.137 1_554 S
O418 C409 1.247 1_554 S
O419 Co406 2.244 . S
O419 C409 1.272 . S
O419 Co411 2.135 . S
Co420 O421 2.216 . S
Co420 O422 2.091 . S
Co420 O424 2.004 . S
Co420 O430 2.021 . S
Co420 O432 2.137 . S
Co420 O433 2.244 . S
O421 Co420 2.216 . S
O421 C428 1.247 . S
O422 Co420 2.091 . S
O422 C428 1.261 . S
C423 O432 1.247 . S
C423 O433 1.272 . S
O424 Co420 2.004 . S
O424 C429 1.259 . S
Co425 O426 2.061 . S
Co425 O431 2.052 . S
Co425 O433 2.135 . S
O426 Co425 2.061 . S
O426 C429 1.235 . S
C427 O430 1.238 . S
C427 O431 1.241 . S
C428 O421 1.247 . S
C428 O422 1.261 . S
C429 O424 1.259 . S
C429 O426 1.235 . S
O430 Co420 2.021 . S
O430 C427 1.238 . S
O431 Co425 2.052 . S
O431 C427 1.241 . S
O432 Co420 2.137 . S
O432 C423 1.247 . S
O433 Co420 2.244 . S
O433 C423 1.272 . S
O433 Co425 2.135 . S
Co434 O435 2.216 . S
Co434 O436 2.091 . S
Co434 O438 2.004 . S
Co434 O444 2.021 . S
Co434 O446 2.137 . S
Co434 O447 2.244 . S
O435 Co434 2.216 . S
O435 C442 1.247 . S
O436 Co434 2.091 . S
O436 C442 1.261 . S
C437 O446 1.247 . S
C437 O447 1.272 . S
O438 Co434 2.004 . S
O438 C443 1.259 . S
Co439 O440 2.061 . S
Co439 O445 2.052 . S
Co439 O447 2.135 . S
O440 Co439 2.061 . S
O440 C443 1.235 . S
C441 O444 1.238 . S
C441 O445 1.241 . S
C442 O435 1.247 . S
C442 O436 1.261 . S
C443 O438 1.259 . S
C443 O440 1.235 . S
O444 Co434 2.021 . S
O444 C441 1.238 . S
O445 Co439 2.052 . S
O445 C441 1.241 . S
O446 Co434 2.137 . S
O446 C437 1.247 . S
O447 Co434 2.244 . S
O447 C437 1.272 . S
O447 Co439 2.135 . S
Co448 O449 2.216 . S
Co448 O450 2.091 . S
Co448 O452 2.004 . S
Co448 O458 2.021 . S
Co448 O460 2.137 . S
Co448 O461 2.244 . S
O449 Co448 2.216 . S
O449 C456 1.247 . S
O450 Co448 2.091 . S
O450 C456 1.261 . S
C451 O460 1.247 . S
C451 O461 1.272 . S
O452 Co448 2.004 . S
O452 C457 1.259 . S
Co453 O454 2.061 . S
Co453 O459 2.052 . S
Co453 O461 2.135 . S
O454 Co453 2.061 . S
O454 C457 1.235 . S
C455 O458 1.238 . S
C455 O459 1.241 . S
C456 O449 1.247 . S
C456 O450 1.261 . S
C457 O452 1.259 . S
C457 O454 1.235 . S
O458 Co448 2.021 . S
O458 C455 1.238 . S
O459 Co453 2.052 . S
O459 C455 1.241 . S
O460 Co448 2.137 . S
O460 C451 1.247 . S
O461 Co448 2.244 . S
O461 C451 1.272 . S
O461 Co453 2.135 . S
Co462 O463 2.216 . S
Co462 O464 2.091 . S
Co462 O466 2.004 . S
Co462 O472 2.021 . S
Co462 O474 2.137 . S
Co462 O475 2.244 . S
O463 Co462 2.216 . S
O463 C470 1.247 . S
O464 Co462 2.091 . S
O464 C470 1.261 . S
C465 O474 1.247 . S
C465 O475 1.272 . S
O466 Co462 2.004 . S
O466 C471 1.259 . S
Co467 O468 2.061 . S
Co467 O473 2.052 . S
Co467 O475 2.135 . S
O468 Co467 2.061 . S
O468 C471 1.235 . S
C469 O472 1.238 . S
C469 O473 1.241 . S
C470 O463 1.247 . S
C470 O464 1.261 . S
C471 O466 1.259 . S
C471 O468 1.235 . S
O472 Co462 2.021 . S
O472 C469 1.238 . S
O473 Co467 2.052 . S
O473 C469 1.241 . S
O474 Co462 2.137 . S
O474 C465 1.247 . S
O475 Co462 2.244 . S
O475 C465 1.272 . S
O475 Co467 2.135 . S
Co476 O477 2.216 . S
Co476 O478 2.091 . S
Co476 O480 2.004 . S
Co476 O486 2.021 . S
Co476 O488 2.137 . S
Co476 O489 2.244 . S
O477 Co476 2.216 . S
O477 C484 1.247 . S
O478 Co476 2.091 . S
O478 C484 1.261 . S
C479 O488 1.247 . S
C479 O489 1.272 . S
O480 Co476 2.004 . S
O480 C485 1.259 . S
Co481 O482 2.061 . S
Co481 O487 2.052 . S
Co481 O489 2.135 . S
O482 Co481 2.061 . S
O482 C485 1.235 . S
C483 O486 1.238 . S
C483 O487 1.241 . S
C484 O477 1.247 . S
C484 O478 1.261 . S
C485 O480 1.259 . S
C485 O482 1.235 . S
O486 Co476 2.021 . S
O486 C483 1.238 . S
O487 Co481 2.052 . S
O487 C483 1.241 . S
O488 Co476 2.137 . S
O488 C479 1.247 . S
O489 Co476 2.244 . S
O489 C479 1.272 . S
O489 Co481 2.135 . S
Co490 O491 2.216 . S
Co490 O492 2.091 . S
Co490 O494 2.004 . S
Co490 O500 2.021 . S
Co490 O502 2.137 . S
Co490 O503 2.244 . S
O491 Co490 2.216 . S
O491 C498 1.247 . S
O492 Co490 2.091 . S
O492 C498 1.261 . S
C493 O502 1.247 . S
C493 O503 1.272 . S
O494 Co490 2.004 . S
O494 C499 1.259 . S
Co495 O496 2.061 . S
Co495 O501 2.052 . S
Co495 O503 2.135 . S
O496 Co495 2.061 . S
O496 C499 1.235 . S
C497 O500 1.238 . S
C497 O501 1.241 . S
C498 O491 1.247 . S
C498 O492 1.261 . S
C499 O494 1.259 . S
C499 O496 1.235 . S
O500 Co490 2.021 . S
O500 C497 1.238 . S
O501 Co495 2.052 . S
O501 C497 1.241 . S
O502 Co490 2.137 . S
O502 C493 1.247 . S
O503 Co490 2.244 . S
O503 C493 1.272 . S
O503 Co495 2.135 . S
C504 C505 1.369 . S
C504 C506 1.419 1_565 S
C504 H508 0.930 . S
C505 C504 1.369 . S
C505 C514 1.429 . S
C506 C504 1.419 1_545 S
C506 C507 1.363 . S
C506 H509 0.929 . S
C507 C506 1.363 . S
C507 C513 1.428 . S
H508 C504 0.930 . S
H509 C506 0.929 . S
S510 N511 1.613 . S
S510 N512 1.610 1_565 S
N511 S510 1.613 . S
N511 C514 1.350 . S
N512 S510 1.610 1_545 S
N512 C513 1.351 . S
C513 C507 1.428 . S
C513 N512 1.351 . S
C513 C514 1.434 1_545 S
C514 C505 1.429 . S
C514 N511 1.350 . S
C514 C513 1.434 1_565 S
C515 C516 1.369 . S
C515 C517 1.419 1_455 S
C515 H519 0.930 . S
C516 C515 1.369 . S
C516 C525 1.429 . S
C517 C515 1.419 1_655 S
C517 C518 1.363 . S
C517 H520 0.929 . S
C518 C517 1.363 . S
C518 C524 1.428 . S
H519 C515 0.930 . S
H520 C517 0.929 . S
S521 N522 1.596 1_655 S
S521 N523 1.616 . S
N522 S521 1.596 1_455 S
N522 C525 1.350 . S
N523 S521 1.616 . S
N523 C524 1.351 . S
C524 C518 1.428 . S
C524 N523 1.351 . S
C524 C525 1.434 1_655 S
C525 C516 1.429 . S
C525 N522 1.350 . S
C525 C524 1.434 1_455 S
C526 C527 1.369 . S
C526 C528 1.419 . S
C526 H530 0.930 . S
C527 C526 1.369 . S
C527 C536 1.429 . S
C528 C526 1.419 . S
C528 C529 1.363 . S
C528 H531 0.929 . S
C529 C528 1.363 . S
C529 C535 1.428 . S
H530 C526 0.930 . S
H531 C528 0.929 . S
S532 N533 1.613 . S
S532 N534 1.610 . S
N533 S532 1.613 . S
N533 C536 1.350 . S
N534 S532 1.610 . S
N534 C535 1.351 . S
C535 C529 1.428 . S
C535 N534 1.351 . S
C535 C536 1.434 . S
C536 C527 1.429 . S
C536 N533 1.350 . S
C536 C535 1.434 . S
C537 C538 1.369 . S
C537 C539 1.419 1_565 S
C537 H541 0.930 . S
C538 C537 1.369 . S
C538 C547 1.429 . S
C539 C537 1.419 1_545 S
C539 C540 1.363 . S
C539 H542 0.929 . S
C540 C539 1.363 . S
C540 C546 1.428 . S
H541 C537 0.930 . S
H542 C539 0.929 . S
S543 N544 1.613 1_545 S
S543 N545 1.610 . S
N544 S543 1.613 1_565 S
N544 C547 1.350 . S
N545 S543 1.610 . S
N545 C546 1.351 . S
C546 C540 1.428 . S
C546 N545 1.351 . S
C546 C547 1.434 1_545 S
C547 C538 1.429 . S
C547 N544 1.350 . S
C547 C546 1.434 1_565 S
C548 C549 1.369 . S
C548 C550 1.419 1_455 S
C548 H552 0.930 . S
C549 C548 1.369 . S
C549 C558 1.429 . S
C550 C548 1.419 1_655 S
C550 C551 1.363 . S
C550 H553 0.929 . S
C551 C550 1.363 . S
C551 C557 1.428 . S
H552 C548 0.930 . S
H553 C550 0.929 . S
S554 N555 1.613 . S
S554 N556 1.610 1_455 S
N555 S554 1.613 . S
N555 C558 1.350 . S
N556 S554 1.610 1_655 S
N556 C557 1.351 . S
C557 C551 1.428 . S
C557 N556 1.351 . S
C557 C558 1.434 1_655 S
C558 C549 1.429 . S
C558 N555 1.350 . S
C558 C557 1.434 1_455 S
C559 C560 1.369 . S
C559 C561 1.419 . S
C559 H563 0.930 . S
C560 C559 1.369 . S
C560 C569 1.429 . S
C561 C559 1.419 . S
C561 C562 1.363 . S
C561 H564 0.929 . S
C562 C561 1.363 . S
C562 C568 1.428 . S
H563 C559 0.930 . S
H564 C561 0.929 . S
S565 N566 1.613 . S
S565 N567 1.610 . S
N566 S565 1.613 . S
N566 C569 1.350 . S
N567 S565 1.610 . S
N567 C568 1.351 . S
C568 C562 1.428 . S
C568 N567 1.351 . S
C568 C569 1.434 . S
C569 C560 1.429 . S
C569 N566 1.350 . S
C569 C568 1.434 . S
C570 C571 1.369 1_455 S
C570 C572 1.419 1_455 S
C570 H574 0.930 . S
C571 C570 1.369 1_655 S
C571 C580 1.429 . S
C572 C570 1.419 1_655 S
C572 C573 1.363 . S
C572 H575 0.929 1_655 S
C573 C572 1.363 . S
C573 C579 1.428 . S
H574 C570 0.930 . S
H575 C572 0.929 1_455 S
S576 N577 1.613 . S
S576 N578 1.610 . S
N577 S576 1.613 . S
N577 C580 1.350 . S
N578 S576 1.610 . S
N578 C579 1.351 . S
C579 C573 1.428 . S
C579 N578 1.351 . S
C579 C580 1.434 . S
C580 C571 1.429 . S
C580 N577 1.350 . S
C580 C579 1.434 . S
C581 C582 1.369 . S
C581 C583 1.419 . S
C581 H585 0.930 . S
C582 C581 1.369 . S
C582 C591 1.429 . S
C583 C581 1.419 . S
C583 C584 1.363 . S
C583 H586 0.929 . S
C584 C583 1.363 . S
C584 C590 1.428 . S
H585 C581 0.930 . S
H586 C583 0.929 . S
S587 N588 1.613 . S
S587 N589 1.610 . S
N588 S587 1.613 . S
N588 C591 1.350 . S
N589 S587 1.610 . S
N589 C590 1.351 . S
C590 C584 1.428 . S
C590 N589 1.351 . S
C590 C591 1.434 . S
C591 C582 1.429 . S
C591 N588 1.350 . S
C591 C590 1.434 . S
C592 C593 1.369 . S
C592 C594 1.419 . S
C592 H596 0.930 . S
C593 C592 1.369 . S
C593 C602 1.429 . S
C594 C592 1.419 . S
C594 C595 1.363 . S
C594 H597 0.929 . S
C595 C594 1.363 . S
C595 C601 1.428 1_545 S
H596 C592 0.930 . S
H597 C594 0.929 . S
S598 N599 1.613 . S
S598 N600 1.610 . S
N599 S598 1.613 . S
N599 C602 1.350 1_565 S
N600 S598 1.610 . S
N600 C601 1.351 . S
C601 C595 1.428 1_565 S
C601 N600 1.351 . S
C601 C602 1.434 1_565 S
C602 C593 1.429 . S
C602 N599 1.350 1_545 S
C602 C601 1.434 1_545 S
C603 C604 1.369 . S
C603 C605 1.419 . S
C603 H607 0.930 . S
C604 C603 1.369 . S
C604 C613 1.429 . S
C605 C603 1.419 . S
C605 C606 1.363 . S
C605 H608 0.929 . S
C606 C605 1.363 . S
C606 C612 1.428 . S
H607 C603 0.930 . S
H608 C605 0.929 . S
S609 N610 1.613 . S
S609 N611 1.610 . S
N610 S609 1.613 . S
N610 C613 1.350 . S
N611 S609 1.610 . S
N611 C612 1.351 . S
C612 C606 1.428 . S
C612 N611 1.351 . S
C612 C613 1.434 . S
C613 C604 1.429 . S
C613 N610 1.350 . S
C613 C612 1.434 . S
C614 C615 1.369 1_565 S
C614 C616 1.419 1_565 S
C614 H618 0.930 . S
C615 C614 1.369 1_545 S
C615 C624 1.429 . S
C616 C614 1.419 1_545 S
C616 C617 1.363 . S
C616 H619 0.929 1_545 S
C617 C616 1.363 . S
C617 C623 1.428 . S
H618 C614 0.930 . S
H619 C616 0.929 1_565 S
S620 N621 1.613 . S
S620 N622 1.610 . S
N621 S620 1.613 . S
N621 C624 1.350 . S
N622 S620 1.610 . S
N622 C623 1.351 . S
C623 C617 1.428 . S
C623 N622 1.351 . S
C623 C624 1.434 . S
C624 C615 1.429 . S
C624 N621 1.350 . S
C624 C623 1.434 . S
C625 C626 1.369 . S
C625 C627 1.419 . S
C625 H629 0.930 . S
C626 C625 1.369 . S
C626 C635 1.429 . S
C627 C625 1.419 . S
C627 C628 1.363 . S
C627 H630 0.911 1_655 S
C628 C627 1.363 . S
C628 C634 1.428 . S
H629 C625 0.930 . S
H630 C627 0.911 1_455 S
S631 N632 1.613 . S
S631 N633 1.610 . S
N632 S631 1.613 . S
N632 C635 1.350 . S
N633 S631 1.610 . S
N633 C634 1.351 . S
C634 C628 1.428 . S
C634 N633 1.351 . S
C634 C635 1.434 . S
C635 C626 1.429 . S
C635 N632 1.350 . S
C635 C634 1.434 . S
C636 C637 1.369 . S
C636 C638 1.419 . S
C636 H640 0.930 . S
C637 C636 1.369 . S
C637 C646 1.429 . S
C638 C636 1.419 . S
C638 C639 1.363 . S
C638 H641 0.929 . S
C639 C638 1.363 . S
C639 C645 1.428 . S
H640 C636 0.930 . S
H641 C638 0.929 . S
S642 N643 1.613 . S
S642 N644 1.610 . S
N643 S642 1.613 . S
N643 C646 1.350 . S
N644 S642 1.610 . S
N644 C645 1.351 . S
C645 C639 1.428 . S
C645 N644 1.351 . S
C645 C646 1.434 . S
C646 C637 1.429 . S
C646 N643 1.350 . S
C646 C645 1.434 . S
C647 C648 1.369 1_545 S
C647 C649 1.419 1_545 S
C647 H651 0.930 . S
C648 C647 1.369 1_565 S
C648 C657 1.429 . S
C649 C647 1.419 1_565 S
C649 C650 1.363 . S
C649 H652 0.929 1_565 S
C650 C649 1.363 . S
C650 C656 1.428 . S
H651 C647 0.930 . S
H652 C649 0.929 1_545 S
S653 N654 1.613 . S
S653 N655 1.610 . S
N654 S653 1.613 . S
N654 C657 1.350 . S
N655 S653 1.610 . S
N655 C656 1.351 . S
C656 C650 1.428 . S
C656 N655 1.351 . S
C656 C657 1.434 . S
C657 C648 1.429 . S
C657 N654 1.350 . S
C657 C656 1.434 . S
C658 C659 1.369 . S
C658 C660 1.398 1_455 S
C658 H662 0.930 . S
C659 C658 1.369 . S
C659 C668 1.429 . S
C660 C658 1.398 1_655 S
C660 C661 1.369 1_655 S
C660 H663 0.945 . S
C661 C660 1.369 1_455 S
C661 C667 1.428 . S
H662 C658 0.930 . S
H663 C660 0.945 . S
S664 N665 1.613 1_554 S
S664 N666 1.610 . S
N665 S664 1.613 1_556 S
N665 C668 1.350 . S
N666 S664 1.610 . S
N666 C667 1.351 1_554 S
C667 C661 1.428 . S
C667 N666 1.351 1_556 S
C667 C668 1.434 . S
C668 C659 1.429 . S
C668 N665 1.350 . S
C668 C667 1.434 . S
C669 C670 1.369 . S
C669 C671 1.419 . S
C669 H673 0.930 . S
C670 C669 1.369 . S
C670 C679 1.429 . S
C671 C669 1.419 . S
C671 C672 1.363 . S
C671 H674 0.929 . S
C672 C671 1.363 . S
C672 C678 1.428 . S
H673 C669 0.930 . S
H674 C671 0.929 . S
S675 N676 1.613 . S
S675 N677 1.610 1_455 S
N676 S675 1.613 . S
N676 C679 1.350 . S
N677 S675 1.610 1_655 S
N677 C678 1.351 1_655 S
C678 C672 1.428 . S
C678 N677 1.351 1_455 S
C678 C679 1.434 . S
C679 C670 1.429 . S
C679 N676 1.350 . S
C679 C678 1.434 . S
C680 C681 1.369 . S
C680 C682 1.419 . S
C680 H684 0.930 . S
C681 C680 1.369 . S
C681 C690 1.429 . S
C682 C680 1.419 . S
C682 C683 1.363 . S
C682 H685 0.929 . S
C683 C682 1.363 . S
C683 C689 1.428 . S
H684 C680 0.930 . S
H685 C682 0.929 . S
S686 N687 1.613 . S
S686 N688 1.610 . S
N687 S686 1.613 . S
N687 C690 1.350 . S
N688 S686 1.610 . S
N688 C689 1.351 . S
C689 C683 1.428 . S
C689 N688 1.351 . S
C689 C690 1.434 . S
C690 C681 1.429 . S
C690 N687 1.350 . S
C690 C689 1.434 . S
C691 C692 1.369 . S
C691 C693 1.419 . S
C691 H695 0.930 . S
C692 C691 1.369 . S
C692 C701 1.429 . S
C693 C691 1.419 . S
C693 C694 1.363 . S
C693 H696 0.929 . S
C694 C693 1.363 . S
C694 C700 1.428 1_565 S
H695 C691 0.930 . S
H696 C693 0.929 . S
S697 N698 1.613 . S
S697 N699 1.610 . S
N698 S697 1.613 . S
N698 C701 1.350 1_545 S
N699 S697 1.610 . S
N699 C700 1.351 . S
C700 C694 1.428 1_545 S
C700 N699 1.351 . S
C700 C701 1.434 1_545 S
C701 C692 1.429 . S
C701 N698 1.350 1_565 S
C701 C700 1.434 1_565 S
C702 C703 1.369 . S
C702 C704 1.419 . S
C702 H706 0.930 . S
C703 C702 1.369 . S
C703 C712 1.429 . S
C704 C702 1.419 . S
C704 C705 1.363 . S
C704 H707 0.929 . S
C705 C704 1.363 . S
C705 C711 1.428 . S
H706 C702 0.930 . S
H707 C704 0.929 . S
S708 N709 1.613 . S
S708 N710 1.610 . S
N709 S708 1.613 . S
N709 C712 1.350 . S
N710 S708 1.610 . S
N710 C711 1.351 . S
C711 C705 1.428 . S
C711 N710 1.351 . S
C711 C712 1.434 . S
C712 C703 1.429 . S
C712 N709 1.350 . S
C712 C711 1.434 . S
C713 C714 1.369 . S
C713 C715 1.419 . S
C713 H717 0.930 . S
C714 C713 1.369 . S
C714 C723 1.429 . S
C715 C713 1.419 . S
C715 C716 1.363 . S
C715 H718 0.929 . S
C716 C715 1.363 . S
C716 C722 1.428 . S
H717 C713 0.930 . S
H718 C715 0.929 . S
S719 N720 1.613 . S
S719 N721 1.610 . S
N720 S719 1.613 . S
N720 C723 1.350 . S
N721 S719 1.610 . S
N721 C722 1.351 . S
C722 C716 1.428 . S
C722 N721 1.351 . S
C722 C723 1.434 . S
C723 C714 1.429 . S
C723 N720 1.350 . S
C723 C722 1.434 . S
C724 C725 1.369 . S
C724 C726 1.419 . S
C724 H728 0.930 . S
C725 C724 1.369 . S
C725 C734 1.429 . S
C726 C724 1.419 . S
C726 C727 1.363 . S
C726 H729 0.929 . S
C727 C726 1.363 . S
C727 C733 1.428 . S
H728 C724 0.930 . S
H729 C726 0.929 . S
S730 N731 1.613 . S
S730 N732 1.610 . S
N731 S730 1.613 . S
N731 C734 1.350 . S
N732 S730 1.610 . S
N732 C733 1.351 . S
C733 C727 1.428 . S
C733 N732 1.351 . S
C733 C734 1.434 . S
C734 C725 1.429 . S
C734 N731 1.350 . S
C734 C733 1.434 . S
C735 C736 1.369 . S
C735 C737 1.419 . S
C735 H739 0.930 . S
C736 C735 1.369 . S
C736 C745 1.429 . S
C737 C735 1.419 . S
C737 C738 1.363 . S
C737 H740 0.929 . S
C738 C737 1.363 . S
C738 C744 1.428 . S
H739 C735 0.930 . S
H740 C737 0.929 . S
S741 N742 1.613 1_556 S
S741 N743 1.610 . S
N742 S741 1.613 1_554 S
N742 C745 1.350 . S
N743 S741 1.610 . S
N743 C744 1.351 1_556 S
C744 C738 1.428 . S
C744 N743 1.351 1_554 S
C744 C745 1.434 . S
C745 C736 1.429 . S
C745 N742 1.350 . S
C745 C744 1.434 . S
C746 C747 1.369 . S
C746 C748 1.419 . S
C746 H750 0.930 . S
C747 C746 1.369 . S
C747 C756 1.429 . S
C748 C746 1.419 . S
C748 C749 1.363 . S
C748 H751 0.929 . S
C749 C748 1.363 . S
C749 C755 1.428 . S
H750 C746 0.930 . S
H751 C748 0.929 . S
S752 N753 1.613 . S
S752 N754 1.610 . S
N753 S752 1.613 . S
N753 C756 1.350 . S
N754 S752 1.610 . S
N754 C755 1.351 . S
C755 C749 1.428 . S
C755 N754 1.351 . S
C755 C756 1.434 . S
C756 C747 1.429 . S
C756 N753 1.350 . S
C756 C755 1.434 . S
C757 C758 1.369 . S
C757 C759 1.419 . S
C757 H761 0.930 . S
C758 C757 1.369 . S
C758 C767 1.429 . S
C759 C757 1.419 . S
C759 C760 1.363 . S
C759 H762 0.929 . S
C760 C759 1.363 . S
C760 C766 1.428 . S
H761 C757 0.930 . S
H762 C759 0.929 . S
S763 N764 1.613 . S
S763 N765 1.610 . S
N764 S763 1.613 . S
N764 C767 1.350 . S
N765 S763 1.610 . S
N765 C766 1.351 . S
C766 C760 1.428 . S
C766 N765 1.351 . S
C766 C767 1.434 . S
C767 C758 1.429 . S
C767 N764 1.350 . S
C767 C766 1.434 . S
C768 C769 1.369 . S
C768 C770 1.419 . S
C768 H772 0.930 . S
C769 C768 1.369 . S
C769 C778 1.429 . S
C770 C768 1.419 . S
C770 C771 1.363 . S
C770 H773 0.929 . S
C771 C770 1.363 . S
C771 C777 1.428 . S
H772 C768 0.930 . S
H773 C770 0.929 . S
S774 N775 1.613 . S
S774 N776 1.610 . S
N775 S774 1.613 . S
N775 C778 1.350 . S
N776 S774 1.610 . S
N776 C777 1.351 . S
C777 C771 1.428 . S
C777 N776 1.351 . S
C777 C778 1.434 . S
C778 C769 1.429 . S
C778 N775 1.350 . S
C778 C777 1.434 . S
C779 C780 1.369 . S
C779 C781 1.419 . S
C779 H783 0.930 . S
C780 C779 1.369 . S
C780 C789 1.429 . S
C781 C779 1.419 . S
C781 C782 1.363 . S
C781 H784 0.929 . S
C782 C781 1.363 . S
C782 C788 1.428 . S
H783 C779 0.930 . S
H784 C781 0.929 . S
S785 N786 1.613 . S
S785 N787 1.610 . S
N786 S785 1.613 . S
N786 C789 1.350 . S
N787 S785 1.610 . S
N787 C788 1.351 . S
C788 C782 1.428 . S
C788 N787 1.351 . S
C788 C789 1.434 . S
C789 C780 1.429 . S
C789 N786 1.350 . S
C789 C788 1.434 . S
C790 C791 1.369 . S
C790 C792 1.419 . S
C790 H794 0.930 . S
C791 C790 1.369 . S
C791 C800 1.429 . S
C792 C790 1.419 . S
C792 C793 1.363 . S
C792 H795 0.929 . S
C793 C792 1.363 . S
C793 C799 1.428 . S
H794 C790 0.930 . S
H795 C792 0.929 . S
S796 N797 1.613 . S
S796 N798 1.610 . S
N797 S796 1.613 . S
N797 C800 1.350 . S
N798 S796 1.610 . S
N798 C799 1.351 . S
C799 C793 1.428 . S
C799 N798 1.351 . S
C799 C800 1.434 . S
C800 C791 1.429 . S
C800 N797 1.350 . S
C800 C799 1.434 . S
C801 C802 1.369 . S
C801 C803 1.419 . S
C801 H805 0.930 . S
C802 C801 1.369 . S
C802 C811 1.429 . S
C803 C801 1.419 . S
C803 C804 1.363 . S
C803 H806 0.929 . S
C804 C803 1.363 . S
C804 C810 1.428 . S
H805 C801 0.930 . S
H806 C803 0.929 . S
S807 N808 1.613 . S
S807 N809 1.610 1_554 S
N808 S807 1.613 . S
N808 C811 1.350 1_554 S
N809 S807 1.610 1_556 S
N809 C810 1.351 . S
C810 C804 1.428 . S
C810 N809 1.351 . S
C810 C811 1.434 . S
C811 C802 1.429 . S
C811 N808 1.350 1_556 S
C811 C810 1.434 . S
C812 C813 1.369 . S
C812 C814 1.419 . S
C812 H816 0.930 . S
C813 C812 1.369 . S
C813 C822 1.429 . S
C814 C812 1.419 . S
C814 C815 1.363 . S
C814 H817 0.929 . S
C815 C814 1.363 . S
C815 C821 1.428 . S
H816 C812 0.930 . S
H817 C814 0.929 . S
S818 N819 1.613 . S
S818 N820 1.610 . S
N819 S818 1.613 . S
N819 C822 1.350 . S
N820 S818 1.610 . S
N820 C821 1.351 . S
C821 C815 1.428 . S
C821 N820 1.351 . S
C821 C822 1.434 . S
C822 C813 1.429 . S
C822 N819 1.350 . S
C822 C821 1.434 . S
C823 C824 1.369 . S
C823 C825 1.419 . S
C823 H827 0.930 . S
C824 C823 1.369 . S
C824 C833 1.429 . S
C825 C823 1.419 . S
C825 C826 1.363 . S
C825 H828 0.929 . S
C826 C825 1.363 . S
C826 C832 1.428 . S
H827 C823 0.930 . S
H828 C825 0.929 . S
S829 N830 1.613 1_554 S
S829 N831 1.610 . S
N830 S829 1.613 1_556 S
N830 C833 1.350 . S
N831 S829 1.610 . S
N831 C832 1.351 1_554 S
C832 C826 1.428 . S
C832 N831 1.351 1_556 S
C832 C833 1.434 . S
C833 C824 1.429 . S
C833 N830 1.350 . S
C833 C832 1.434 . S
C834 C835 1.369 . S
C834 C836 1.419 1_455 S
C834 H838 0.930 . S
C835 C834 1.369 . S
C835 C844 1.429 . S
C836 C834 1.419 1_655 S
C836 C837 1.363 . S
C836 H839 0.929 . S
C837 C836 1.363 . S
C837 C843 1.428 . S
H838 C834 0.930 . S
H839 C836 0.929 . S
S840 N841 1.613 1_655 S
S840 N842 1.610 . S
N841 S840 1.613 1_455 S
N841 C844 1.350 . S
N842 S840 1.610 . S
N842 C843 1.351 . S
C843 C837 1.428 . S
C843 N842 1.351 . S
C843 C844 1.434 1_655 S
C844 C835 1.429 . S
C844 N841 1.350 . S
C844 C843 1.434 1_455 S
C845 C846 1.369 . S
C845 C847 1.419 . S
C845 H849 0.930 . S
C846 C845 1.369 . S
C846 C855 1.429 . S
C847 C845 1.419 . S
C847 C848 1.363 . S
C847 H850 0.929 . S
C848 C847 1.363 . S
C848 C854 1.428 . S
H849 C845 0.930 . S
H850 C847 0.929 . S
S851 N852 1.613 . S
S851 N853 1.610 . S
N852 S851 1.613 . S
N852 C855 1.350 . S
N853 S851 1.610 . S
N853 C854 1.351 . S
C854 C848 1.428 . S
C854 N853 1.351 . S
C854 C855 1.434 . S
C855 C846 1.429 . S
C855 N852 1.350 . S
C855 C854 1.434 . S
C856 C857 1.369 . S
C856 C858 1.419 1_545 S
C856 H860 0.930 . S
C857 C856 1.369 . S
C857 C866 1.429 . S
C858 C856 1.419 1_565 S
C858 C859 1.363 . S
C858 H861 0.929 . S
C859 C858 1.363 . S
C859 C865 1.428 . S
H860 C856 0.930 . S
H861 C858 0.929 . S
S862 N863 1.613 . S
S862 N864 1.610 1_545 S
N863 S862 1.613 . S
N863 C866 1.350 . S
N864 S862 1.610 1_565 S
N864 C865 1.351 . S
C865 C859 1.428 . S
C865 N864 1.351 . S
C865 C866 1.434 1_565 S
C866 C857 1.429 . S
C866 N863 1.350 . S
C866 C865 1.434 1_545 S
C867 C868 1.362 1_545 S
C867 C869 1.423 . S
C867 H871 0.932 . S
C868 C867 1.362 1_565 S
C868 C877 1.429 . S
C869 C867 1.423 . S
C869 C870 1.363 . S
C869 H872 0.929 . S
C870 C869 1.363 . S
C870 C876 1.428 1_545 S
H871 C867 0.932 . S
H872 C869 0.929 . S
S873 N874 1.613 . S
S873 N875 1.610 . S
N874 S873 1.613 . S
N874 C877 1.350 . S
N875 S873 1.610 . S
N875 C876 1.351 . S
C876 C870 1.428 1_565 S
C876 N875 1.351 . S
C876 C877 1.434 . S
C877 C868 1.429 . S
C877 N874 1.350 . S
C877 C876 1.434 . S
C878 C879 1.369 . S
C878 C880 1.419 . S
C878 H882 0.930 . S
C879 C878 1.369 . S
C879 C888 1.429 1_655 S
C880 C878 1.419 . S
C880 C881 1.363 1_655 S
C880 H883 0.929 . S
C881 C880 1.363 1_455 S
C881 C887 1.428 . S
H882 C878 0.930 . S
H883 C880 0.929 . S
S884 N885 1.613 . S
S884 N886 1.610 . S
N885 S884 1.613 . S
N885 C888 1.350 . S
N886 S884 1.610 . S
N886 C887 1.351 . S
C887 C881 1.428 . S
C887 N886 1.351 . S
C887 C888 1.434 . S
C888 C879 1.429 1_455 S
C888 N885 1.350 . S
C888 C887 1.434 . S
C889 C890 1.369 . S
C889 C891 1.419 . S
C889 H893 0.930 . S
C890 C889 1.369 . S
C890 C899 1.429 . S
C891 C889 1.419 . S
C891 C892 1.363 . S
C891 H894 0.929 . S
C892 C891 1.363 . S
C892 C898 1.428 . S
H893 C889 0.930 . S
H894 C891 0.929 . S
S895 N896 1.613 . S
S895 N897 1.610 . S
N896 S895 1.613 . S
N896 C899 1.350 . S
N897 S895 1.610 . S
N897 C898 1.351 . S
C898 C892 1.428 . S
C898 N897 1.351 . S
C898 C899 1.434 . S
C899 C890 1.429 . S
C899 N896 1.350 . S
C899 C898 1.434 . S
C900 C901 1.369 . S
C900 C902 1.419 . S
C900 H904 0.930 . S
C901 C900 1.369 . S
C901 C910 1.429 . S
C902 C900 1.419 . S
C902 C903 1.363 . S
C902 H905 0.929 . S
C903 C902 1.363 . S
C903 C909 1.428 . S
H904 C900 0.930 . S
H905 C902 0.929 . S
S906 N907 1.613 . S
S906 N908 1.610 . S
N907 S906 1.613 . S
N907 C910 1.350 . S
N908 S906 1.610 . S
N908 C909 1.351 . S
C909 C903 1.428 . S
C909 N908 1.351 . S
C909 C910 1.434 . S
C910 C901 1.429 . S
C910 N907 1.350 . S
C910 C909 1.434 . S
C911 C912 1.369 . S
C911 C913 1.419 . S
C911 H915 0.930 . S
C912 C911 1.369 . S
C912 C921 1.429 . S
C913 C911 1.419 . S
C913 C914 1.363 . S
C913 H916 0.929 . S
C914 C913 1.363 . S
C914 C920 1.428 . S
H915 C911 0.930 . S
H916 C913 0.929 . S
S917 N918 1.613 . S
S917 N919 1.610 . S
N918 S917 1.613 . S
N918 C921 1.350 . S
N919 S917 1.610 . S
N919 C920 1.351 . S
C920 C914 1.428 . S
C920 N919 1.351 . S
C920 C921 1.434 . S
C921 C912 1.429 . S
C921 N918 1.350 . S
C921 C920 1.434 . S
C922 C923 1.369 . S
C922 C924 1.419 . S
C922 H926 0.930 . S
C923 C922 1.369 . S
C923 C932 1.429 . S
C924 C922 1.419 . S
C924 C925 1.363 . S
C924 H927 0.929 . S
C925 C924 1.363 . S
C925 C931 1.428 . S
H926 C922 0.930 . S
H927 C924 0.929 . S
S928 N929 1.613 . S
S928 N930 1.610 . S
N929 S928 1.613 . S
N929 C932 1.350 . S
N930 S928 1.610 . S
N930 C931 1.351 . S
C931 C925 1.428 . S
C931 N930 1.351 . S
C931 C932 1.434 . S
C932 C923 1.429 . S
C932 N929 1.350 . S
C932 C931 1.434 . S
C933 C934 1.369 . S
C933 C935 1.419 . S
C933 H937 0.930 . S
C934 C933 1.369 . S
C934 C943 1.429 . S
C935 C933 1.419 . S
C935 C936 1.363 . S
C935 H938 0.929 . S
C936 C935 1.363 . S
C936 C942 1.428 . S
H937 C933 0.930 . S
H938 C935 0.929 . S
S939 N940 1.613 . S
S939 N941 1.610 . S
N940 S939 1.613 . S
N940 C943 1.350 . S
N941 S939 1.610 . S
N941 C942 1.351 . S
C942 C936 1.428 . S
C942 N941 1.351 . S
C942 C943 1.434 . S
C943 C934 1.429 . S
C943 N940 1.350 . S
C943 C942 1.434 . S
C944 C945 1.369 . S
C944 C946 1.419 . S
C944 H948 0.930 . S
C945 C944 1.369 . S
C945 C954 1.429 . S
C946 C944 1.419 . S
C946 C947 1.363 . S
C946 H949 0.929 . S
C947 C946 1.363 . S
C947 C953 1.428 . S
H948 C944 0.930 . S
H949 C946 0.929 . S
S950 N951 1.613 . S
S950 N952 1.610 . S
N951 S950 1.613 . S
N951 C954 1.350 . S
N952 S950 1.610 . S
N952 C953 1.351 . S
C953 C947 1.428 . S
C953 N952 1.351 . S
C953 C954 1.434 . S
C954 C945 1.429 . S
C954 N951 1.350 . S
C954 C953 1.434 . S
C955 C956 1.369 . S
C955 C957 1.419 . S
C955 H959 0.930 . S
C956 C955 1.369 . S
C956 C965 1.429 . S
C957 C955 1.419 . S
C957 C958 1.363 . S
C957 H960 0.929 . S
C958 C957 1.363 . S
C958 C964 1.428 . S
H959 C955 0.930 . S
H960 C957 0.929 . S
S961 N962 1.613 . S
S961 N963 1.610 . S
N962 S961 1.613 . S
N962 C965 1.350 . S
N963 S961 1.610 . S
N963 C964 1.351 . S
C964 C958 1.428 . S
C964 N963 1.351 . S
C964 C965 1.434 . S
C965 C956 1.429 . S
C965 N962 1.350 . S
C965 C964 1.434 . S
C966 C967 1.369 . S
C966 C968 1.419 . S
C966 H970 0.930 . S
C967 C966 1.369 . S
C967 C976 1.429 . S
C968 C966 1.419 . S
C968 C969 1.363 . S
C968 H971 0.929 . S
C969 C968 1.363 . S
C969 C975 1.428 . S
H970 C966 0.930 . S
H971 C968 0.929 . S
S972 N973 1.613 . S
S972 N974 1.610 . S
N973 S972 1.613 . S
N973 C976 1.350 . S
N974 S972 1.610 . S
N974 C975 1.351 . S
C975 C969 1.428 . S
C975 N974 1.351 . S
C975 C976 1.434 . S
C976 C967 1.429 . S
C976 N973 1.350 . S
C976 C975 1.434 . S
C977 C978 1.369 . S
C977 C979 1.419 . S
C977 H981 0.930 . S
C978 C977 1.369 . S
C978 C987 1.429 . S
C979 C977 1.419 . S
C979 C980 1.363 . S
C979 H982 0.929 . S
C980 C979 1.363 . S
C980 C986 1.428 . S
H981 C977 0.930 . S
H982 C979 0.929 . S
S983 N984 1.613 . S
S983 N985 1.610 . S
N984 S983 1.613 . S
N984 C987 1.350 . S
N985 S983 1.610 . S
N985 C986 1.351 . S
C986 C980 1.428 . S
C986 N985 1.351 . S
C986 C987 1.434 . S
C987 C978 1.429 . S
C987 N984 1.350 . S
C987 C986 1.434 . S
C988 C989 1.369 . S
C988 C990 1.419 . S
C988 H992 0.930 . S
C989 C988 1.369 . S
C989 C998 1.429 . S
C990 C988 1.419 . S
C990 C991 1.363 . S
C990 H993 0.929 . S
C991 C990 1.363 . S
C991 C997 1.428 . S
H992 C988 0.930 . S
H993 C990 0.929 . S
S994 N995 1.613 . S
S994 N996 1.610 . S
N995 S994 1.613 . S
N995 C998 1.350 . S
N996 S994 1.610 . S
N996 C997 1.351 . S
C997 C991 1.428 . S
C997 N996 1.351 . S
C997 C998 1.434 . S
C998 C989 1.429 . S
C998 N995 1.350 . S
C998 C997 1.434 . S
C999 C1000 1.369 . S
C999 C1001 1.419 . S
C999 H1003 0.930 . S
C1000 C999 1.369 . S
C1000 C1009 1.429 . S
C1001 C999 1.419 . S
C1001 C1002 1.363 . S
C1001 H1004 0.929 . S
C1002 C1001 1.363 . S
C1002 C1008 1.428 . S
H1003 C999 0.930 . S
H1004 C1001 0.929 . S
S1005 N1006 1.613 . S
S1005 N1007 1.610 . S
N1006 S1005 1.613 . S
N1006 C1009 1.350 . S
N1007 S1005 1.610 . S
N1007 C1008 1.351 . S
C1008 C1002 1.428 . S
C1008 N1007 1.351 . S
C1008 C1009 1.434 . S
C1009 C1000 1.429 . S
C1009 N1006 1.350 . S
C1009 C1008 1.434 . S
C1010 C1011 1.369 . S
C1010 C1012 1.419 . S
C1010 H1014 0.930 . S
C1011 C1010 1.369 . S
C1011 C1020 1.429 . S
C1012 C1010 1.419 . S
C1012 C1013 1.363 . S
C1012 H1015 0.929 . S
C1013 C1012 1.363 . S
C1013 C1019 1.428 . S
H1014 C1010 0.930 . S
H1015 C1012 0.929 . S
S1016 N1017 1.613 . S
S1016 N1018 1.610 . S
N1017 S1016 1.613 . S
N1017 C1020 1.350 . S
N1018 S1016 1.610 . S
N1018 C1019 1.351 . S
C1019 C1013 1.428 . S
C1019 N1018 1.351 . S
C1019 C1020 1.434 . S
C1020 C1011 1.429 . S
C1020 N1017 1.350 . S
C1020 C1019 1.434 . S
C1021 C1022 1.369 . S
C1021 C1023 1.419 . S
C1021 H1025 0.930 . S
C1022 C1021 1.369 . S
C1022 C1031 1.429 . S
C1023 C1021 1.419 . S
C1023 C1024 1.363 . S
C1023 H1026 0.929 . S
C1024 C1023 1.363 . S
C1024 C1030 1.428 . S
H1025 C1021 0.930 . S
H1026 C1023 0.929 . S
S1027 N1028 1.613 . S
S1027 N1029 1.610 . S
N1028 S1027 1.613 . S
N1028 C1031 1.350 . S
N1029 S1027 1.610 . S
N1029 C1030 1.351 . S
C1030 C1024 1.428 . S
C1030 N1029 1.351 . S
C1030 C1031 1.434 . S
C1031 C1022 1.429 . S
C1031 N1028 1.350 . S
C1031 C1030 1.434 . S
C1032 C1033 1.369 . S
C1032 C1034 1.419 . S
C1032 H1036 0.930 . S
C1033 C1032 1.369 . S
C1033 C1042 1.429 1_455 S
C1034 C1032 1.419 . S
C1034 C1035 1.363 1_455 S
C1034 H1037 0.929 . S
C1035 C1034 1.363 1_655 S
C1035 C1041 1.428 . S
H1036 C1032 0.930 . S
H1037 C1034 0.929 . S
S1038 N1039 1.613 . S
S1038 N1040 1.610 . S
N1039 S1038 1.613 . S
N1039 C1042 1.350 . S
N1040 S1038 1.610 . S
N1040 C1041 1.351 . S
C1041 C1035 1.428 . S
C1041 N1040 1.351 . S
C1041 C1042 1.434 . S
C1042 C1033 1.429 1_655 S
C1042 N1039 1.350 . S
C1042 C1041 1.434 . S
C1043 C1044 1.369 . S
C1043 C1045 1.419 . S
C1043 H1047 0.930 . S
C1044 C1043 1.369 . S
C1044 C1053 1.429 . S
C1045 C1043 1.419 . S
C1045 C1046 1.363 . S
C1045 H1048 0.929 . S
C1046 C1045 1.363 . S
C1046 C1052 1.428 . S
H1047 C1043 0.930 . S
H1048 C1045 0.929 . S
S1049 N1050 1.613 . S
S1049 N1051 1.610 . S
N1050 S1049 1.613 . S
N1050 C1053 1.350 . S
N1051 S1049 1.610 . S
N1051 C1052 1.351 . S
C1052 C1046 1.428 . S
C1052 N1051 1.351 . S
C1052 C1053 1.434 . S
C1053 C1044 1.429 . S
C1053 N1050 1.350 . S
C1053 C1052 1.434 . S
C1054 C1055 1.369 . S
C1054 C1056 1.419 1_545 S
C1054 H1058 0.930 . S
C1055 C1054 1.369 . S
C1055 C1064 1.429 . S
C1056 C1054 1.419 1_565 S
C1056 C1057 1.363 . S
C1056 H1059 0.929 . S
C1057 C1056 1.363 . S
C1057 C1063 1.428 . S
H1058 C1054 0.930 . S
H1059 C1056 0.929 . S
S1060 N1061 1.613 1_565 S
S1060 N1062 1.610 . S
N1061 S1060 1.613 1_545 S
N1061 C1064 1.350 . S
N1062 S1060 1.610 . S
N1062 C1063 1.351 . S
C1063 C1057 1.428 . S
C1063 N1062 1.351 . S
C1063 C1064 1.434 1_565 S
C1064 C1055 1.429 . S
C1064 N1061 1.350 . S
C1064 C1063 1.434 1_545 S
C1065 C1066 1.369 1_564 S
C1065 C1067 1.419 . S
C1065 H1069 0.930 . S
C1066 C1065 1.369 1_546 S
C1066 C1075 1.429 . S
C1067 C1065 1.419 . S
C1067 C1068 1.363 . S
C1067 H1070 0.929 . S
C1068 C1067 1.363 . S
C1068 C1074 1.428 1_564 S
H1069 C1065 0.930 . S
H1070 C1067 0.929 . S
S1071 N1072 1.613 . S
S1071 N1073 1.610 . S
N1072 S1071 1.613 . S
N1072 C1075 1.350 . S
N1073 S1071 1.610 . S
N1073 C1074 1.351 . S
C1074 C1068 1.428 1_546 S
C1074 N1073 1.351 . S
C1074 C1075 1.434 . S
C1075 C1066 1.429 . S
C1075 N1072 1.350 . S
C1075 C1074 1.434 . S
C1076 C1077 1.369 1_655 S
C1076 C1078 1.419 . S
C1076 H1080 0.930 . S
C1077 C1076 1.369 1_455 S
C1077 C1086 1.429 1_554 S
C1078 C1076 1.419 . S
C1078 C1079 1.363 1_554 S
C1078 H1081 0.929 . S
C1079 C1078 1.363 1_556 S
C1079 C1085 1.428 1_655 S
H1080 C1076 0.930 . S
H1081 C1078 0.929 . S
S1082 N1083 1.613 . S
S1082 N1084 1.610 . S
N1083 S1082 1.613 . S
N1083 C1086 1.350 . S
N1084 S1082 1.610 . S
N1084 C1085 1.351 . S
C1085 C1079 1.428 1_455 S
C1085 N1084 1.351 . S
C1085 C1086 1.434 . S
C1086 C1077 1.429 1_556 S
C1086 N1083 1.350 . S
C1086 C1085 1.434 . S
C1087 C1088 1.369 . S
C1087 C1089 1.419 1_554 S
C1087 H1091 0.930 . S
C1088 C1087 1.369 . S
C1088 C1097 1.429 . S
C1089 C1087 1.419 1_556 S
C1089 C1090 1.363 . S
C1089 H1092 0.929 . S
C1090 C1089 1.363 . S
C1090 C1096 1.428 . S
H1091 C1087 0.930 . S
H1092 C1089 0.929 . S
S1093 N1094 1.613 . S
S1093 N1095 1.610 1_554 S
N1094 S1093 1.613 . S
N1094 C1097 1.350 . S
N1095 S1093 1.610 1_556 S
N1095 C1096 1.351 . S
C1096 C1090 1.428 . S
C1096 N1095 1.351 . S
C1096 C1097 1.434 1_556 S
C1097 C1088 1.429 . S
C1097 N1094 1.350 . S
C1097 C1096 1.434 1_554 S
C1098 C1099 1.369 . S
C1098 C1100 1.419 . S
C1098 H1102 0.930 . S
C1099 C1098 1.369 . S
C1099 C1108 1.429 . S
C1100 C1098 1.419 . S
C1100 C1101 1.363 . S
C1100 H1103 0.929 . S
C1101 C1100 1.363 . S
C1101 C1107 1.428 . S
H1102 C1098 0.930 . S
H1103 C1100 0.929 . S
S1104 N1105 1.613 . S
S1104 N1106 1.610 . S
N1105 S1104 1.613 . S
N1105 C1108 1.350 . S
N1106 S1104 1.610 . S
N1106 C1107 1.351 . S
C1107 C1101 1.428 . S
C1107 N1106 1.351 . S
C1107 C1108 1.434 . S
C1108 C1099 1.429 . S
C1108 N1105 1.350 . S
C1108 C1107 1.434 . S
C1109 C1110 1.369 . S
C1109 C1111 1.419 . S
C1109 H1113 0.930 . S
C1110 C1109 1.369 . S
C1110 C1119 1.429 . S
C1111 C1109 1.419 . S
C1111 C1112 1.363 . S
C1111 H1114 0.929 . S
C1112 C1111 1.363 . S
C1112 C1118 1.428 . S
H1113 C1109 0.930 . S
H1114 C1111 0.929 . S
S1115 N1116 1.613 . S
S1115 N1117 1.610 . S
N1116 S1115 1.613 . S
N1116 C1119 1.350 . S
N1117 S1115 1.610 . S
N1117 C1118 1.351 . S
C1118 C1112 1.428 . S
C1118 N1117 1.351 . S
C1118 C1119 1.434 . S
C1119 C1110 1.429 . S
C1119 N1116 1.350 . S
C1119 C1118 1.434 . S
C1120 C1121 1.369 . S
C1120 C1122 1.419 . S
C1120 H1124 0.930 . S
C1121 C1120 1.369 . S
C1121 C1130 1.429 . S
C1122 C1120 1.419 . S
C1122 C1123 1.363 . S
C1122 H1125 0.929 . S
C1123 C1122 1.363 . S
C1123 C1129 1.428 . S
H1124 C1120 0.930 . S
H1125 C1122 0.929 . S
S1126 N1127 1.613 . S
S1126 N1128 1.610 . S
N1127 S1126 1.613 . S
N1127 C1130 1.350 . S
N1128 S1126 1.610 . S
N1128 C1129 1.351 . S
C1129 C1123 1.428 . S
C1129 N1128 1.351 . S
C1129 C1130 1.434 . S
C1130 C1121 1.429 . S
C1130 N1127 1.350 . S
C1130 C1129 1.434 . S
C1131 C1132 1.369 . S
C1131 C1133 1.419 . S
C1131 H1135 0.930 . S
C1132 C1131 1.369 . S
C1132 C1141 1.429 . S
C1133 C1131 1.419 . S
C1133 C1134 1.363 . S
C1133 H1136 0.929 . S
C1134 C1133 1.363 . S
C1134 C1140 1.428 . S
H1135 C1131 0.930 . S
H1136 C1133 0.929 . S
S1137 N1138 1.613 . S
S1137 N1139 1.610 . S
N1138 S1137 1.613 . S
N1138 C1141 1.350 . S
N1139 S1137 1.610 . S
N1139 C1140 1.351 . S
C1140 C1134 1.428 . S
C1140 N1139 1.351 . S
C1140 C1141 1.434 . S
C1141 C1132 1.429 . S
C1141 N1138 1.350 . S
C1141 C1140 1.434 . S
C1142 C1143 1.369 . S
C1142 C1144 1.419 . S
C1142 H1146 0.930 . S
C1143 C1142 1.369 . S
C1143 C1152 1.429 . S
C1144 C1142 1.419 . S
C1144 C1145 1.363 . S
C1144 H1147 0.929 . S
C1145 C1144 1.363 . S
C1145 C1151 1.428 . S
H1146 C1142 0.930 . S
H1147 C1144 0.929 . S
S1148 N1149 1.613 . S
S1148 N1150 1.610 . S
N1149 S1148 1.613 . S
N1149 C1152 1.350 . S
N1150 S1148 1.610 . S
N1150 C1151 1.351 . S
C1151 C1145 1.428 . S
C1151 N1150 1.351 . S
C1151 C1152 1.434 . S
C1152 C1143 1.429 . S
C1152 N1149 1.350 . S
C1152 C1151 1.434 . S
C1153 C1154 1.369 . S
C1153 C1155 1.419 . S
C1153 H1157 0.930 . S
C1154 C1153 1.369 . S
C1154 C1163 1.429 . S
C1155 C1153 1.419 . S
C1155 C1156 1.363 . S
C1155 H1158 0.929 . S
C1156 C1155 1.363 . S
C1156 C1162 1.428 . S
H1157 C1153 0.930 . S
H1158 C1155 0.929 . S
S1159 N1160 1.613 . S
S1159 N1161 1.610 . S
N1160 S1159 1.613 . S
N1160 C1163 1.350 . S
N1161 S1159 1.610 . S
N1161 C1162 1.351 . S
C1162 C1156 1.428 . S
C1162 N1161 1.351 . S
C1162 C1163 1.434 . S
C1163 C1154 1.429 . S
C1163 N1160 1.350 . S
C1163 C1162 1.434 . S
C1164 C1165 1.369 . S
C1164 C1166 1.419 . S
C1164 H1168 0.930 . S
C1165 C1164 1.369 . S
C1165 C1174 1.429 . S
C1166 C1164 1.419 . S
C1166 C1167 1.363 . S
C1166 H1169 0.929 . S
C1167 C1166 1.363 . S
C1167 C1173 1.428 . S
H1168 C1164 0.930 . S
H1169 C1166 0.929 . S
S1170 N1171 1.613 . S
S1170 N1172 1.610 . S
N1171 S1170 1.613 . S
N1171 C1174 1.350 . S
N1172 S1170 1.610 . S
N1172 C1173 1.351 . S
C1173 C1167 1.428 . S
C1173 N1172 1.351 . S
C1173 C1174 1.434 . S
C1174 C1165 1.429 . S
C1174 N1171 1.350 . S
C1174 C1173 1.434 . S
C1175 C1176 1.369 . S
C1175 C1177 1.419 . S
C1175 H1179 0.930 . S
C1176 C1175 1.369 . S
C1176 C1185 1.429 . S
C1177 C1175 1.419 . S
C1177 C1178 1.363 . S
C1177 H1180 0.929 . S
C1178 C1177 1.363 . S
C1178 C1184 1.428 . S
H1179 C1175 0.930 . S
H1180 C1177 0.929 . S
S1181 N1182 1.613 1_556 S
S1181 N1183 1.610 . S
N1182 S1181 1.613 1_554 S
N1182 C1185 1.350 1_554 S
N1183 S1181 1.610 . S
N1183 C1184 1.351 . S
C1184 C1178 1.428 . S
C1184 N1183 1.351 . S
C1184 C1185 1.434 . S
C1185 C1176 1.429 . S
C1185 N1182 1.350 1_556 S
C1185 C1184 1.434 . S
C1186 C1187 1.369 . S
C1186 C1188 1.419 . S
C1186 H1190 0.930 . S
C1187 C1186 1.369 . S
C1187 C1196 1.429 . S
C1188 C1186 1.419 . S
C1188 C1189 1.363 . S
C1188 H1191 0.929 . S
C1189 C1188 1.363 . S
C1189 C1195 1.428 . S
H1190 C1186 0.930 . S
H1191 C1188 0.929 . S
S1192 N1193 1.613 . S
S1192 N1194 1.610 . S
N1193 S1192 1.613 . S
N1193 C1196 1.350 . S
N1194 S1192 1.610 . S
N1194 C1195 1.351 . S
C1195 C1189 1.428 . S
C1195 N1194 1.351 . S
C1195 C1196 1.434 . S
C1196 C1187 1.429 . S
C1196 N1193 1.350 . S
C1196 C1195 1.434 . S
C1197 C1198 1.369 . S
C1197 C1199 1.419 . S
C1197 H1201 0.930 . S
C1198 C1197 1.369 . S
C1198 C1207 1.429 . S
C1199 C1197 1.419 . S
C1199 C1200 1.363 . S
C1199 H1202 0.929 . S
C1200 C1199 1.363 . S
C1200 C1206 1.428 . S
H1201 C1197 0.930 . S
H1202 C1199 0.929 . S
S1203 N1204 1.613 . S
S1203 N1205 1.610 . S
N1204 S1203 1.613 . S
N1204 C1207 1.350 . S
N1205 S1203 1.610 . S
N1205 C1206 1.351 . S
C1206 C1200 1.428 . S
C1206 N1205 1.351 . S
C1206 C1207 1.434 . S
C1207 C1198 1.429 . S
C1207 N1204 1.350 . S
C1207 C1206 1.434 . S
C1208 C1209 1.369 . S
C1208 C1210 1.419 . S
C1208 H1212 0.930 . S
C1209 C1208 1.369 . S
C1209 C1218 1.429 . S
C1210 C1208 1.419 . S
C1210 C1211 1.363 . S
C1210 H1213 0.929 . S
C1211 C1210 1.363 . S
C1211 C1217 1.428 . S
H1212 C1208 0.930 . S
H1213 C1210 0.929 . S
S1214 N1215 1.613 . S
S1214 N1216 1.610 . S
N1215 S1214 1.613 . S
N1215 C1218 1.350 . S
N1216 S1214 1.610 . S
N1216 C1217 1.351 . S
C1217 C1211 1.428 . S
C1217 N1216 1.351 . S
C1217 C1218 1.434 . S
C1218 C1209 1.429 . S
C1218 N1215 1.350 . S
C1218 C1217 1.434 . S
C1219 C1220 1.369 . S
C1219 C1221 1.419 . S
C1219 H1223 0.930 . S
C1220 C1219 1.369 . S
C1220 C1229 1.429 . S
C1221 C1219 1.419 . S
C1221 C1222 1.363 . S
C1221 H1224 0.929 . S
C1222 C1221 1.363 . S
C1222 C1228 1.428 . S
H1223 C1219 0.930 . S
H1224 C1221 0.929 . S
S1225 N1226 1.613 . S
S1225 N1227 1.610 . S
N1226 S1225 1.613 . S
N1226 C1229 1.350 . S
N1227 S1225 1.610 . S
N1227 C1228 1.351 . S
C1228 C1222 1.428 . S
C1228 N1227 1.351 . S
C1228 C1229 1.434 . S
C1229 C1220 1.429 . S
C1229 N1226 1.350 . S
C1229 C1228 1.434 . S
C1230 C1231 1.369 . S
C1230 C1232 1.419 . S
C1230 H1234 0.930 . S
C1231 C1230 1.369 . S
C1231 C1240 1.429 . S
C1232 C1230 1.419 . S
C1232 C1233 1.363 . S
C1232 H1235 0.929 . S
C1233 C1232 1.363 . S
C1233 C1239 1.428 . S
H1234 C1230 0.930 . S
H1235 C1232 0.929 . S
S1236 N1237 1.613 . S
S1236 N1238 1.610 . S
N1237 S1236 1.613 . S
N1237 C1240 1.350 . S
N1238 S1236 1.610 . S
N1238 C1239 1.351 . S
C1239 C1233 1.428 . S
C1239 N1238 1.351 . S
C1239 C1240 1.434 . S
C1240 C1231 1.429 . S
C1240 N1237 1.350 . S
C1240 C1239 1.434 . S
C1241 C1242 1.369 1_565 S
C1241 C1243 1.419 . S
C1241 H1245 0.930 . S
C1242 C1241 1.369 1_545 S
C1242 C1251 1.429 . S
C1243 C1241 1.419 . S
C1243 C1244 1.363 . S
C1243 H1246 0.929 . S
C1244 C1243 1.363 . S
C1244 C1250 1.428 1_565 S
H1245 C1241 0.930 . S
H1246 C1243 0.929 . S
S1247 N1248 1.613 . S
S1247 N1249 1.610 . S
N1248 S1247 1.613 . S
N1248 C1251 1.350 . S
N1249 S1247 1.610 . S
N1249 C1250 1.351 . S
C1250 C1244 1.428 1_545 S
C1250 N1249 1.351 . S
C1250 C1251 1.434 . S
C1251 C1242 1.429 . S
C1251 N1248 1.350 . S
C1251 C1250 1.434 . S
C1252 C1253 1.369 1_455 S
C1252 C1254 1.419 . S
C1252 H1256 0.930 . S
C1253 C1252 1.369 1_655 S
C1253 C1262 1.429 . S
C1254 C1252 1.419 . S
C1254 C1255 1.363 . S
C1254 H1257 0.929 . S
C1255 C1254 1.363 . S
C1255 C1261 1.428 1_455 S
H1256 C1252 0.930 . S
H1257 C1254 0.929 . S
S1258 N1259 1.613 . S
S1258 N1260 1.610 . S
N1259 S1258 1.613 . S
N1259 C1262 1.350 . S
N1260 S1258 1.610 . S
N1260 C1261 1.351 . S
C1261 C1255 1.428 1_655 S
C1261 N1260 1.351 . S
C1261 C1262 1.434 . S
C1262 C1253 1.429 . S
C1262 N1259 1.350 . S
C1262 C1261 1.434 . S
C1263 C1264 1.369 . S
C1263 C1265 1.419 . S
C1263 H1267 0.930 . S
C1264 C1263 1.369 . S
C1264 C1273 1.429 . S
C1265 C1263 1.419 . S
C1265 C1266 1.363 . S
C1265 H1268 0.929 . S
C1266 C1265 1.363 . S
C1266 C1272 1.428 . S
H1267 C1263 0.930 . S
H1268 C1265 0.929 . S
S1269 N1270 1.613 . S
S1269 N1271 1.610 . S
N1270 S1269 1.613 . S
N1270 C1273 1.350 . S
N1271 S1269 1.610 . S
N1271 C1272 1.351 . S
C1272 C1266 1.428 . S
C1272 N1271 1.351 . S
C1272 C1273 1.434 . S
C1273 C1264 1.429 . S
C1273 N1270 1.350 . S
C1273 C1272 1.434 . S
C1274 C1275 1.369 . S
C1274 C1276 1.419 . S
C1274 H1278 0.930 . S
C1275 C1274 1.369 . S
C1275 C1284 1.429 1_545 S
C1276 C1274 1.419 . S
C1276 C1277 1.363 1_545 S
C1276 H1279 0.929 . S
C1277 C1276 1.363 1_565 S
C1277 C1283 1.428 . S
H1278 C1274 0.930 . S
H1279 C1276 0.929 . S
S1280 N1281 1.613 . S
S1280 N1282 1.610 . S
N1281 S1280 1.613 . S
N1281 C1284 1.350 . S
N1282 S1280 1.610 . S
N1282 C1283 1.351 . S
C1283 C1277 1.428 . S
C1283 N1282 1.351 . S
C1283 C1284 1.434 . S
C1284 C1275 1.429 1_565 S
C1284 N1281 1.350 . S
C1284 C1283 1.434 . S
C1285 C1286 1.369 1_655 S
C1285 C1287 1.419 . S
C1285 H1289 0.930 . S
C1286 C1285 1.369 1_455 S
C1286 C1295 1.429 . S
C1287 C1285 1.419 . S
C1287 C1288 1.363 . S
C1287 H1290 0.929 . S
C1288 C1287 1.363 . S
C1288 C1294 1.428 1_655 S
H1289 C1285 0.930 . S
H1290 C1287 0.929 . S
S1291 N1292 1.613 . S
S1291 N1293 1.610 . S
N1292 S1291 1.613 . S
N1292 C1295 1.350 . S
N1293 S1291 1.610 . S
N1293 C1294 1.351 . S
C1294 C1288 1.428 1_455 S
C1294 N1293 1.351 . S
C1294 C1295 1.434 . S
C1295 C1286 1.429 . S
C1295 N1292 1.350 . S
C1295 C1294 1.434 . S
C505 C79 0.972 . S
C507 C9 0.976 . S
C516 C51 0.971 . S
C518 C23 0.970 . S
C527 C37 0.978 . S
C529 C65 0.975 . S
C538 C93 0.977 . S
C540 C163 0.974 . S
C549 C107 0.969 . S
C551 C135 0.972 . S
C560 C149 0.976 . S
C562 C121 0.973 . S
C571 C177 0.977 1_655 S
C573 C247 0.977 . S
C582 C191 0.971 . S
C584 C219 0.970 . S
C593 C233 0.972 . S
C595 C205 0.970 1_545 S
C604 C331 0.974 . S
C606 C261 0.976 . S
C615 C303 0.977 1_545 S
C617 C275 0.974 . S
C626 C289 0.975 . S
C628 C317 0.972 1_655 S
C637 C415 0.973 . S
C639 C345 0.977 . S
C648 C387 0.975 1_565 S
C650 C359 0.977 . S
C659 C373 0.972 . S
C661 C401 0.975 1_455 S
C670 C499 0.972 . S
C672 C429 0.975 1_455 S
C681 C471 0.969 . S
C683 C443 0.971 . S
C692 C485 0.969 . S
C694 C457 0.972 1_565 S
C703 C231 1.811 . S
C705 C7 1.818 . S
C714 C245 1.816 . S
C716 C21 1.820 . S
C725 C217 1.822 . S
C727 C35 1.815 . S
C736 C49 1.821 . S
C738 C371 1.813 1_554 S
C747 C63 1.814 . S
C749 C343 1.812 1_554 S
C758 C77 1.812 . S
C760 C357 1.813 1_554 S
C769 C91 1.822 . S
C771 C483 1.814 . S
C780 C497 1.822 . S
C782 C105 1.814 . S
C791 C469 1.813 . S
C793 C119 1.820 . S
C802 C287 1.812 1_556 S
C804 C133 1.820 . S
C813 C259 1.818 1_556 S
C815 C147 1.812 . S
C824 C161 1.820 . S
C826 C273 1.812 1_556 S
C835 C175 1.819 . S
C837 C399 1.820 . S
C846 C413 1.814 . S
C848 C189 1.812 . S
C857 C385 1.821 . S
C859 C203 1.817 . S
C868 C301 1.820 . S
C870 C455 1.812 . S
C879 C427 1.810 . S
C881 C315 1.818 . S
C890 C329 1.813 . S
C892 C441 1.820 . S
C901 C260 1.601 . S
C903 C8 1.601 . S
C912 C274 1.599 . S
C914 C22 1.603 . S
C923 C36 1.603 . S
C925 C288 1.599 . S
C934 C50 1.601 . S
C936 C470 1.600 . S
C945 C484 1.603 . S
C947 C64 1.600 . S
C956 C498 1.604 . S
C958 C78 1.599 . S
C967 C92 1.599 . S
C969 C344 1.603 . S
C978 C106 1.603 . S
C980 C358 1.599 . S
C989 C372 1.599 . S
C991 C120 1.603 . S
C1000 C134 1.603 . S
C1002 C218 1.599 . S
C1011 C148 1.599 . S
C1013 C232 1.603 . S
C1022 C246 1.600 . S
C1024 C162 1.602 . S
C1033 C176 1.598 . S
C1035 C428 1.603 . S
C1044 C190 1.602 . S
C1046 C442 1.600 . S
C1055 C456 1.599 . S
C1057 C204 1.603 . S
C1066 C386 1.602 . S
C1068 C302 1.599 . S
C1077 C316 1.602 . S
C1079 C400 1.600 . S
C1088 C330 1.603 . S
C1090 C414 1.599 . S
C1099 C381 1.693 1_554 S
C1101 C3 1.696 . S
C1110 C17 1.692 . S
C1112 C395 1.694 1_554 S
C1121 C409 1.701 1_554 S
C1123 C31 1.698 . S
C1132 C45 1.699 . S
C1134 C171 1.695 . S
C1143 C185 1.696 . S
C1145 C59 1.699 . S
C1154 C199 1.696 . S
C1156 C73 1.699 . S
C1165 C87 1.693 . S
C1167 C297 1.696 1_556 S
C1176 C311 1.696 1_556 S
C1178 C101 1.694 . S
C1187 C115 1.701 . S
C1189 C325 1.700 1_556 S
C1198 C129 1.694 . S
C1200 C423 1.698 . S
C1209 C143 1.700 . S
C1211 C437 1.696 . S
C1220 C451 1.700 . S
C1222 C157 1.700 . S
C1231 C213 1.700 . S
C1233 C339 1.696 . S
C1242 C227 1.693 . S
C1244 C353 1.696 . S
C1253 C241 1.695 . S
C1255 C367 1.699 . S
C1264 C255 1.698 . S
C1266 C465 1.695 . S
C1275 C269 1.699 . S
C1277 C479 1.695 . S
C1286 C493 1.693 . S
C1288 C283 1.697 . S
