# Generated by pormake.
# Topology lcs, (4)-cn, num edge types: 1
# Building blocks:
#     Node 0, Type 0, BuildingBlock: QUQFOY_clean_sbu_3, # of connection points: 4
#     Node 1, Type 0, BuildingBlock: QUQFOY_clean_sbu_3, # of connection points: 4
#     Node 2, Type 0, BuildingBlock: QUQFOY_clean_sbu_3, # of connection points: 4
#     Node 3, Type 0, BuildingBlock: QUQFOY_clean_sbu_3, # of connection points: 4
#     Node 4, Type 0, BuildingBlock: QUQFOY_clean_sbu_3, # of connection points: 4
#     Node 5, Type 0, BuildingBlock: QUQFOY_clean_sbu_3, # of connection points: 4
#     Node 6, Type 0, BuildingBlock: QUQFOY_clean_sbu_3, # of connection points: 4
#     Node 7, Type 0, BuildingBlock: QUQFOY_clean_sbu_3, # of connection points: 4
#     Node 8, Type 0, BuildingBlock: QUQFOY_clean_sbu_3, # of connection points: 4
#     Node 9, Type 0, BuildingBlock: QUQFOY_clean_sbu_3, # of connection points: 4
#     Node 10, Type 0, BuildingBlock: QUQFOY_clean_sbu_3, # of connection points: 4
#     Node 11, Type 0, BuildingBlock: QUQFOY_clean_sbu_3, # of connection points: 4
#     Node 12, Type 0, BuildingBlock: QUQFOY_clean_sbu_3, # of connection points: 4
#     Node 13, Type 0, BuildingBlock: QUQFOY_clean_sbu_3, # of connection points: 4
#     Node 14, Type 0, BuildingBlock: QUQFOY_clean_sbu_3, # of connection points: 4
#     Node 15, Type 0, BuildingBlock: QUQFOY_clean_sbu_3, # of connection points: 4
#     Node 16, Type 0, BuildingBlock: QUQFOY_clean_sbu_3, # of connection points: 4
#     Node 17, Type 0, BuildingBlock: QUQFOY_clean_sbu_3, # of connection points: 4
#     Node 18, Type 0, BuildingBlock: QUQFOY_clean_sbu_3, # of connection points: 4
#     Node 19, Type 0, BuildingBlock: QUQFOY_clean_sbu_3, # of connection points: 4
#     Node 20, Type 0, BuildingBlock: QUQFOY_clean_sbu_3, # of connection points: 4
#     Node 21, Type 0, BuildingBlock: QUQFOY_clean_sbu_3, # of connection points: 4
#     Node 22, Type 0, BuildingBlock: QUQFOY_clean_sbu_3, # of connection points: 4
#     Node 23, Type 0, BuildingBlock: QUQFOY_clean_sbu_3, # of connection points: 4
#     Edge 24, Type (0, 0), BuildingBlock: XUDNAN_clean_linker_2, # of connection points: 2
#     Edge 25, Type (0, 0), BuildingBlock: XUDNAN_clean_linker_2, # of connection points: 2
#     Edge 26, Type (0, 0), BuildingBlock: XUDNAN_clean_linker_2, # of connection points: 2
#     Edge 27, Type (0, 0), BuildingBlock: XUDNAN_clean_linker_2, # of connection points: 2
#     Edge 28, Type (0, 0), BuildingBlock: XUDNAN_clean_linker_2, # of connection points: 2
#     Edge 29, Type (0, 0), BuildingBlock: XUDNAN_clean_linker_2, # of connection points: 2
#     Edge 30, Type (0, 0), BuildingBlock: XUDNAN_clean_linker_2, # of connection points: 2
#     Edge 31, Type (0, 0), BuildingBlock: XUDNAN_clean_linker_2, # of connection points: 2
#     Edge 32, Type (0, 0), BuildingBlock: XUDNAN_clean_linker_2, # of connection points: 2
#     Edge 33, Type (0, 0), BuildingBlock: XUDNAN_clean_linker_2, # of connection points: 2
#     Edge 34, Type (0, 0), BuildingBlock: XUDNAN_clean_linker_2, # of connection points: 2
#     Edge 35, Type (0, 0), BuildingBlock: XUDNAN_clean_linker_2, # of connection points: 2
#     Edge 36, Type (0, 0), BuildingBlock: XUDNAN_clean_linker_2, # of connection points: 2
#     Edge 37, Type (0, 0), BuildingBlock: XUDNAN_clean_linker_2, # of connection points: 2
#     Edge 38, Type (0, 0), BuildingBlock: XUDNAN_clean_linker_2, # of connection points: 2
#     Edge 39, Type (0, 0), BuildingBlock: XUDNAN_clean_linker_2, # of connection points: 2
#     Edge 40, Type (0, 0), BuildingBlock: XUDNAN_clean_linker_2, # of connection points: 2
#     Edge 41, Type (0, 0), BuildingBlock: XUDNAN_clean_linker_2, # of connection points: 2
#     Edge 42, Type (0, 0), BuildingBlock: XUDNAN_clean_linker_2, # of connection points: 2
#     Edge 43, Type (0, 0), BuildingBlock: XUDNAN_clean_linker_2, # of connection points: 2
#     Edge 44, Type (0, 0), BuildingBlock: XUDNAN_clean_linker_2, # of connection points: 2
#     Edge 45, Type (0, 0), BuildingBlock: XUDNAN_clean_linker_2, # of connection points: 2
#     Edge 46, Type (0, 0), BuildingBlock: XUDNAN_clean_linker_2, # of connection points: 2
#     Edge 47, Type (0, 0), BuildingBlock: XUDNAN_clean_linker_2, # of connection points: 2
#     Edge 48, Type (0, 0), BuildingBlock: XUDNAN_clean_linker_2, # of connection points: 2
#     Edge 49, Type (0, 0), BuildingBlock: XUDNAN_clean_linker_2, # of connection points: 2
#     Edge 50, Type (0, 0), BuildingBlock: XUDNAN_clean_linker_2, # of connection points: 2
#     Edge 51, Type (0, 0), BuildingBlock: XUDNAN_clean_linker_2, # of connection points: 2
#     Edge 52, Type (0, 0), BuildingBlock: XUDNAN_clean_linker_2, # of connection points: 2
#     Edge 53, Type (0, 0), BuildingBlock: XUDNAN_clean_linker_2, # of connection points: 2
#     Edge 54, Type (0, 0), BuildingBlock: XUDNAN_clean_linker_2, # of connection points: 2
#     Edge 55, Type (0, 0), BuildingBlock: XUDNAN_clean_linker_2, # of connection points: 2
#     Edge 56, Type (0, 0), BuildingBlock: XUDNAN_clean_linker_2, # of connection points: 2
#     Edge 57, Type (0, 0), BuildingBlock: XUDNAN_clean_linker_2, # of connection points: 2
#     Edge 58, Type (0, 0), BuildingBlock: XUDNAN_clean_linker_2, # of connection points: 2
#     Edge 59, Type (0, 0), BuildingBlock: XUDNAN_clean_linker_2, # of connection points: 2
#     Edge 60, Type (0, 0), BuildingBlock: XUDNAN_clean_linker_2, # of connection points: 2
#     Edge 61, Type (0, 0), BuildingBlock: XUDNAN_clean_linker_2, # of connection points: 2
#     Edge 62, Type (0, 0), BuildingBlock: XUDNAN_clean_linker_2, # of connection points: 2
#     Edge 63, Type (0, 0), BuildingBlock: XUDNAN_clean_linker_2, # of connection points: 2
#     Edge 64, Type (0, 0), BuildingBlock: XUDNAN_clean_linker_2, # of connection points: 2
#     Edge 65, Type (0, 0), BuildingBlock: XUDNAN_clean_linker_2, # of connection points: 2
#     Edge 66, Type (0, 0), BuildingBlock: XUDNAN_clean_linker_2, # of connection points: 2
#     Edge 67, Type (0, 0), BuildingBlock: XUDNAN_clean_linker_2, # of connection points: 2
#     Edge 68, Type (0, 0), BuildingBlock: XUDNAN_clean_linker_2, # of connection points: 2
#     Edge 69, Type (0, 0), BuildingBlock: XUDNAN_clean_linker_2, # of connection points: 2
#     Edge 70, Type (0, 0), BuildingBlock: XUDNAN_clean_linker_2, # of connection points: 2
#     Edge 71, Type (0, 0), BuildingBlock: XUDNAN_clean_linker_2, # of connection points: 2
# Relax obj value: 0.004
# Max RMSD: 0.037
# Mean RMSD: 0.027
data_MOF--net-lcs--node1-QUQFOY_clean_sbu_3--edge1-XUDNAN_clean_linker_2
_symmetry_space_group_name_H-M    P1
_symmetry_Int_Tables_number       1
_symmetry_cell_setting            triclinic
loop_
_symmetry_equiv_pos_as_xyz
'x, y, z'
_cell_length_a     50.476756
_cell_length_b     51.254969
_cell_length_c     51.372478
_cell_angle_alpha  91.530148
_cell_angle_beta   89.950756
_cell_angle_gamma 91.253358
loop_
_atom_site_label
_atom_site_type_symbol
_atom_site_fract_x
_atom_site_fract_y
_atom_site_fract_z
_atom_type_partial_charge
C0 C 0.95656 0.24672 0.4082 0.0
O1 O 0.96364 0.22528 0.41757 0.0
Cd2 Cd -0.00599 0.19545 0.39901 0.0
O3 O 0.9657 0.25437 0.38644 0.0
Cd4 Cd -0.00105 0.23625 0.35469 0.0
C5 C 0.96321 0.18093 0.34116 0.0
O6 O 0.02974 0.22416 0.38805 0.0
O7 O 0.03893 0.20865 0.34999 0.0
O8 O 0.01318 0.28123 0.34538 0.0
C9 C 0.04598 0.21244 0.37346 0.0
O10 O 0.97203 0.17227 0.3624 0.0
C11 C 0.01505 0.27716 0.32096 0.0
O12 O 0.96822 0.20433 0.33477 0.0
O13 O 0.00836 0.25454 0.31234 0.0
C14 C 0.93986 0.77079 0.59442 0.0
O15 O 0.95658 0.77648 0.57684 0.0
Cd16 Cd 0.00165 0.76157 0.57579 0.0
O17 O 0.94629 0.75639 0.61314 0.0
Cd18 Cd 0.98484 0.73281 0.62924 0.0
C19 C 0.02348 0.78767 0.63442 0.0
O20 O 6e-05 0.71673 0.58665 0.0
O21 O 0.02504 0.70895 0.61948 0.0
O22 O 0.95274 0.69945 0.64231 0.0
C23 C 0.02085 0.70651 0.59524 0.0
O24 O 0.02575 0.786 0.60975 0.0
C25 C 0.9624 0.69667 0.66485 0.0
O26 O 0.00789 0.77242 0.6467 0.0
O27 O 0.98202 0.71143 0.67124 0.0
C28 C 0.44141 0.7683 0.9299 0.0
O29 O 0.4474 0.74968 0.94443 0.0
Cd30 Cd 0.48703 0.72596 0.93732 0.0
O31 O 0.45723 0.77558 0.91203 0.0
Cd32 Cd 0.50195 0.76589 0.89429 0.0
C33 C 0.47927 0.70686 0.87295 0.0
O34 O 0.52294 0.75784 0.93606 0.0
O35 O 0.54546 0.74726 0.90179 0.0
O36 O 0.5047 0.81329 0.89178 0.0
C37 C 0.54458 0.75008 0.92635 0.0
O38 O 0.47841 0.70091 0.89683 0.0
C39 C 0.51523 0.81367 0.86937 0.0
O40 O 0.48664 0.72957 0.86617 0.0
O41 O 0.51979 0.79172 0.85839 0.0
C42 C 0.44848 0.25683 0.08373 0.0
O43 O 0.46789 0.26695 0.07162 0.0
Cd44 Cd 0.51299 0.2621 0.08557 0.0
O45 O 0.4524 0.24395 0.10416 0.0
Cd46 Cd 0.48953 0.23109 0.13186 0.0
C47 C 0.51465 0.29149 0.14576 0.0
O48 O 0.52065 0.21757 0.0978 0.0
O49 O 0.53597 0.22196 0.13706 0.0
O50 O 0.47305 0.18773 0.14336 0.0
C51 C 0.53975 0.21493 0.11354 0.0
O52 O 0.52182 0.29263 0.12205 0.0
C53 C 0.46611 0.19454 0.16626 0.0
O54 O 0.50149 0.27193 0.15393 0.0
O55 O 0.4702 0.21823 0.17314 0.0
C56 C 0.96219 0.72568 0.08947 0.0
O57 O 0.9688 0.74679 0.07855 0.0
Cd58 Cd 0.00363 0.77489 0.09562 0.0
O59 O 0.97361 0.71895 0.11026 0.0
Cd60 Cd 0.00828 0.73269 0.14192 0.0
C61 C 0.977 0.78902 0.15638 0.0
O62 O 0.03815 0.74655 0.1079 0.0
O63 O 0.05073 0.75661 0.14692 0.0
O64 O 0.00958 0.68551 0.14327 0.0
C65 C 0.05548 0.75718 0.12271 0.0
O66 O 0.98468 0.79649 0.13409 0.0
C67 C 0.01697 0.68441 0.16677 0.0
O68 O 0.98106 0.76585 0.1637 0.0
O69 O 0.02058 0.70594 0.17922 0.0
C70 C 0.44383 0.72095 0.40848 0.0
O71 O 0.46166 0.71011 0.42151 0.0
Cd72 Cd 0.50746 0.71283 0.40844 0.0
O73 O 0.44995 0.73342 0.38816 0.0
Cd74 Cd 0.48997 0.74442 0.36281 0.0
C75 C 0.50441 0.68217 0.34898 0.0
O76 O 0.52058 0.75705 0.39818 0.0
O77 O 0.53806 0.74853 0.36058 0.0
O78 O 0.4706 0.78662 0.35455 0.0
C79 C 0.54084 0.75769 0.38357 0.0
O80 O 0.51392 0.68198 0.37192 0.0
C81 C 0.47411 0.78544 0.33008 0.0
O82 O 0.49196 0.70182 0.34124 0.0
O83 O 0.48476 0.76501 0.32078 0.0
C84 C 0.44957 0.26069 0.56376 0.0
O85 O 0.46148 0.27774 0.55031 0.0
Cd86 Cd 0.50563 0.29323 0.55873 0.0
O87 O 0.46055 0.25146 0.58377 0.0
Cd88 Cd 0.50267 0.25718 0.60852 0.0
C89 C 0.49557 0.32191 0.61905 0.0
O90 O 0.52927 0.25516 0.56913 0.0
O91 O 0.55018 0.26799 0.60371 0.0
O92 O 0.49254 0.21181 0.61895 0.0
C93 C 0.5511 0.26158 0.57975 0.0
O94 O 0.5031 0.32417 0.59554 0.0
C95 C 0.50364 0.2127 0.6411 0.0
O96 O 0.49097 0.29953 0.62854 0.0
O97 O 0.51389 0.23448 0.64854 0.0
C98 C 0.96643 0.21966 0.92975 0.0
O99 O -0.01097 0.21789 0.94027 0.0
Cd100 Cd 0.02819 0.22558 0.91536 0.0
O101 O 0.9643 0.22821 0.90679 0.0
Cd102 Cd -0.00882 0.24666 0.87079 0.0
C103 C 0.01062 0.18533 0.8619 0.0
O104 O 0.0267 0.26764 0.89638 0.0
O105 O 0.03519 0.25982 0.85574 0.0
O106 O 0.95899 0.28092 0.87311 0.0
C107 C 0.0424 0.27031 0.87728 0.0
O108 O 0.02363 0.19029 0.88276 0.0
C109 C 0.95664 0.2835 0.84875 0.0
O110 O -0.00416 0.20239 0.85213 0.0
O111 O 0.96994 0.26828 0.83409 0.0
C112 C 0.41337 0.94567 0.25091 0.0
O113 O 0.42171 0.95716 0.23077 0.0
Cd114 Cd 0.40613 -0.00182 0.21593 0.0
O115 O 0.39513 0.95551 0.26502 0.0
Cd116 Cd 0.36661 -0.00575 0.26552 0.0
C117 C 0.34191 0.97903 0.20486 0.0
O118 O 0.40206 0.02497 0.25443 0.0
O119 O 0.36313 0.04111 0.25823 0.0
O120 O 0.36675 0.99086 0.31301 0.0
C121 C 0.38761 0.04482 0.25402 0.0
O122 O 0.36377 0.98722 0.19539 0.0
C123 C 0.34229 -0.00437 0.31567 0.0
O124 O 0.33854 0.97815 0.22941 0.0
O125 O 0.32908 -0.00133 0.29498 0.0
C126 C 0.19351 0.15714 0.48113 0.0
O127 O 0.19747 0.17506 0.49834 0.0
Cd128 Cd 0.23439 0.17675 0.52753 0.0
O129 O 0.20876 0.13768 0.47942 0.0
Cd130 Cd 0.24824 0.12153 0.5023 0.0
C131 C 0.22079 0.1224 0.56247 0.0
O132 O 0.27063 0.16383 0.50061 0.0
O133 O 0.29103 0.13515 0.52238 0.0
O134 O 0.25559 0.10138 0.45959 0.0
C135 C 0.29114 0.15774 0.51295 0.0
O136 O 0.22488 0.14699 0.56273 0.0
C137 C 0.2653 0.08051 0.46777 0.0
O138 O 0.22507 0.1085 0.54203 0.0
O139 O 0.2668 0.07835 0.49229 0.0
C140 C 0.05486 0.03138 0.75828 0.0
O141 O 0.04535 0.02661 0.73575 0.0
Cd142 Cd 0.06726 -0.00563 0.7082 0.0
O143 O 0.07603 0.02068 0.76539 0.0
Cd144 Cd 0.11092 0.99141 0.75068 0.0
C145 C 0.12616 0.02598 0.69747 0.0
O146 O 0.07971 0.95739 0.73386 0.0
O147 O 0.12137 0.95168 0.72666 0.0
O148 O 0.11285 0.98889 0.79782 0.0
C149 C 0.09781 0.94276 0.72507 0.0
O150 O 0.10497 0.01623 0.68749 0.0
C151 C 0.13754 0.98512 0.79907 0.0
O152 O 0.13204 0.02207 0.72112 0.0
O153 O 0.15017 0.98378 0.77771 0.0
C154 C 0.27257 0.83967 0.99032 0.0
O155 O 0.26241 0.82461 0.00704 0.0
Cd156 Cd 0.22392 0.83368 0.03319 0.0
O157 O 0.26214 0.86147 0.98569 0.0
Cd158 Cd 0.2237 0.88735 -0.00025 0.0
C159 C 0.2452 0.89228 0.06184 0.0
O160 O 0.1914 0.85218 0.00665 0.0
O161 O 0.18159 0.89002 0.02244 0.0
O162 O 0.21647 0.89701 0.95426 0.0
C163 C 0.17531 0.86606 0.01961 0.0
O164 O 0.237 0.86871 0.06374 0.0
C165 C 0.21427 0.92145 0.958 0.0
O166 O 0.24564 0.90357 0.03997 0.0
O167 O 0.21724 0.93027 0.9812 0.0
C168 C 0.27937 0.31249 0.01141 0.0
O169 O 0.25614 0.30322 0.01476 0.0
Cd170 Cd 0.21766 0.32186 -0.00322 0.0
O171 O 0.28312 0.3326 -0.00233 0.0
Cd172 Cd 0.25472 0.3622 0.97248 0.0
C173 C 0.22232 0.3823 0.02631 0.0
O174 O 0.2269 0.32853 0.95156 0.0
O175 O 0.21095 0.36716 0.95169 0.0
O176 O 0.29074 0.3647 0.94063 0.0
C177 C 0.20995 0.34384 0.94286 0.0
O178 O 0.2089 0.36108 0.02348 0.0
C179 C 0.2891 0.38905 0.93731 0.0
O180 O 0.24197 0.38707 0.01152 0.0
O181 O 0.27208 0.40108 0.951 0.0
C182 C 0.78904 0.16101 0.98313 0.0
O183 O 0.77257 0.17871 0.97875 0.0
Cd184 Cd 0.72621 0.17263 0.98516 0.0
O185 O 0.78116 0.1388 -0.0089 0.0
Cd186 Cd 0.73846 0.11625 0.00225 0.0
C187 C 0.71454 0.12139 0.94161 0.0
O188 O 0.72044 0.15319 0.0267 0.0
O189 O 0.69236 0.1224 0.01622 0.0
O190 O 0.76571 0.09762 0.03568 0.0
C191 C 0.69747 0.14321 0.02928 0.0
O192 O 0.71116 0.14511 0.94855 0.0
C193 C 0.75432 0.07533 0.0355 0.0
O194 O 0.72607 0.10589 0.95671 0.0
O195 O 0.73593 0.07135 0.0189 0.0
C196 C 0.17536 0.48523 0.28468 0.0
O197 O 0.189 0.46713 0.27447 0.0
Cd198 Cd 0.17925 0.44684 0.23268 0.0
O199 O 0.15491 0.49328 0.27309 0.0
Cd200 Cd 0.13034 0.48256 0.23237 0.0
C201 C 0.11893 0.41947 0.24607 0.0
O202 O 0.16845 0.48002 0.20271 0.0
O203 O 0.13133 0.46463 0.18768 0.0
O204 O 0.11911 0.52877 0.23036 0.0
C205 C 0.15536 0.47078 0.18342 0.0
O206 O 0.1424 0.41574 0.2379 0.0
C207 C 0.0946 0.52448 0.22614 0.0
O208 O 0.11012 0.44243 0.2491 0.0
O209 O 0.08671 0.50078 0.22539 0.0
C210 C 0.76506 0.83055 0.5435 0.0
O211 O 0.74391 0.81717 0.54657 0.0
Cd212 Cd 0.70388 0.82382 0.52337 0.0
O213 O 0.76568 0.84955 0.52798 0.0
Cd214 Cd 0.73266 0.87079 0.49973 0.0
C215 C 0.68979 0.88468 0.54735 0.0
O216 O 0.71456 0.83083 0.47881 0.0
O217 O 0.69067 0.86492 0.47601 0.0
O218 O 0.76993 0.87914 0.47077 0.0
C219 C 0.69502 0.84166 0.46855 0.0
O220 O 0.68226 0.861 0.54376 0.0
C221 C 0.76256 0.90137 0.46375 0.0
O222 O 0.71044 0.89365 0.53611 0.0
O223 O 0.74185 0.91024 0.47452 0.0
C224 C 0.80744 0.97665 0.29598 0.0
O225 O 0.78911 0.99081 0.2877 0.0
Cd226 Cd 0.79474 0.01162 0.24604 0.0
O227 O 0.82732 0.97181 0.2816 0.0
Cd228 Cd 0.84529 0.97959 0.23805 0.0
C229 C 0.85512 0.04222 0.25647 0.0
O230 O 0.80515 0.98167 0.21062 0.0
O231 O 0.84179 -0.00221 0.19539 0.0
O232 O 0.85223 0.93291 0.23752 0.0
C233 C 0.81761 0.99165 0.19163 0.0
O234 O 0.83041 0.04427 0.25216 0.0
C235 C 0.87607 0.93407 0.22972 0.0
O236 O 0.86614 0.02009 0.25508 0.0
O237 O 0.88595 0.95665 0.22569 0.0
C238 C 0.26498 0.6675 0.46334 0.0
O239 O 0.24312 0.67477 0.45395 0.0
Cd240 Cd 0.19929 0.65827 0.46196 0.0
O241 O 0.26569 0.64886 0.47936 0.0
Cd242 Cd 0.23272 0.61871 0.50029 0.0
C243 C 0.20936 0.5951 0.44109 0.0
O244 O 0.20123 0.65288 0.50746 0.0
O245 O 0.18854 0.61573 0.52183 0.0
O246 O 0.26341 0.61597 0.53743 0.0
C247 C 0.18351 0.63948 0.51857 0.0
O248 O 0.1974 0.61645 0.43819 0.0
C249 C 0.25964 0.59154 0.53991 0.0
O250 O 0.22406 0.59182 0.46084 0.0
O251 O 0.24426 0.58002 0.52357 0.0
C252 C 0.34959 0.49171 0.78993 0.0
O253 O 0.33219 0.50871 0.78622 0.0
Cd254 Cd 0.33572 0.53864 0.75161 0.0
O255 O 0.36914 0.48949 0.77434 0.0
Cd256 Cd 0.38563 0.50976 0.73346 0.0
C257 C 0.39618 0.56738 0.7653 0.0
O258 O 0.34286 0.51358 0.71174 0.0
O259 O 0.37555 0.53478 0.69455 0.0
O260 O 0.39735 0.46543 0.71972 0.0
C261 C 0.35173 0.5266 0.69287 0.0
O262 O 0.37109 0.5692 0.76565 0.0
C263 C 0.42067 0.47138 0.71239 0.0
O264 O 0.40713 0.54737 0.75531 0.0
O265 O 0.42783 0.49521 0.71505 0.0
C266 C 0.65214 0.03002 0.78199 0.0
O267 O 0.66466 0.00948 0.77614 0.0
Cd268 Cd 0.64792 0.97843 0.74343 0.0
O269 O 0.63035 0.03466 0.77078 0.0
Cd270 Cd 0.59995 0.01501 0.73807 0.0
C271 C 0.59001 0.96056 0.77288 0.0
O272 O 0.6324 -0.00022 0.70516 0.0
O273 O 0.59173 0.98637 0.70086 0.0
O274 O 0.59272 0.05979 0.7252 0.0
C275 C 0.61495 0.98752 0.69152 0.0
O276 O 0.6125 0.95358 0.76425 0.0
C277 C 0.56762 0.05778 0.72463 0.0
O278 O 0.58132 0.98315 0.76834 0.0
O279 O 0.55738 0.03594 0.73079 0.0
C280 C 0.70536 0.68612 0.00839 0.0
O281 O 0.71868 0.69536 0.0276 0.0
Cd282 Cd 0.75883 0.67748 0.04408 0.0
O283 O 0.71244 0.66532 -0.00359 0.0
Cd284 Cd 0.74774 0.63287 0.0006 0.0
C285 C 0.73481 0.61802 0.06322 0.0
O286 O 0.78541 0.66267 0.00859 0.0
O287 O 0.79148 0.62203 0.01626 0.0
O288 O 0.75697 0.62697 0.95455 0.0
C289 C 0.80122 0.64496 0.01481 0.0
O290 O 0.74618 0.63976 0.06927 0.0
C291 C 0.74867 0.60347 0.95267 0.0
O292 O 0.73026 0.61143 0.0395 0.0
O293 O 0.73872 0.59361 0.973 0.0
C294 C 0.89176 0.44003 0.76664 0.0
O295 O 0.90638 0.44518 0.74724 0.0
Cd296 Cd 0.90018 0.483 0.72134 0.0
O297 O 0.87296 0.45509 0.77308 0.0
Cd298 Cd 0.85317 0.49552 0.75713 0.0
C299 C 0.83856 0.46935 0.69759 0.0
O300 O 0.89394 0.52064 0.74967 0.0
O301 O 0.85842 0.53596 0.7329 0.0
O302 O 0.84539 0.51439 0.80028 0.0
C303 C 0.88268 0.53938 0.73883 0.0
O304 O 0.86299 0.47267 0.69217 0.0
C305 C 0.8203 0.51326 0.79901 0.0
O306 O 0.82998 0.47446 0.72042 0.0
O307 O 0.81014 0.5034 0.77831 0.0
C308 C 0.80255 0.32998 0.48365 0.0
O309 O 0.78999 0.31659 0.50025 0.0
Cd310 Cd 0.74569 0.32115 0.51542 0.0
O311 O 0.79212 0.34968 0.4734 0.0
Cd312 Cd 0.74925 0.37188 0.48208 0.0
C313 C 0.75792 0.37888 0.5471 0.0
O314 O 0.71962 0.33355 0.47961 0.0
O315 O 0.70371 0.36774 0.49829 0.0
O316 O 0.74617 0.38781 0.43761 0.0
C317 C 0.69977 0.34464 0.48958 0.0
O318 O 0.74822 0.35584 0.54864 0.0
C319 C 0.74096 0.4111 0.44463 0.0
O320 O 0.76358 0.38855 0.52513 0.0
O321 O 0.74108 0.41632 0.46891 0.0
C322 C 0.57235 0.53484 0.24508 0.0
O323 O 0.56424 0.52498 0.22345 0.0
Cd324 Cd 0.58096 0.48702 0.20114 0.0
O325 O 0.59192 0.52526 0.25704 0.0
Cd326 Cd 0.62387 0.48934 0.25095 0.0
C327 C 0.64414 0.5101 0.19072 0.0
O328 O 0.58785 0.46062 0.23775 0.0
O329 O 0.62488 0.44144 0.2427 0.0
O330 O 0.62961 0.49453 0.29828 0.0
C331 C 0.60062 0.43976 0.23665 0.0
O332 O 0.62197 0.50258 0.18101 0.0
C333 C 0.65366 0.48766 0.29799 0.0
O334 O 0.64872 0.50816 0.21496 0.0
O335 O 0.66383 0.4824 0.27592 0.0
H336 H 0.08532 0.41313 0.28737 0.0
H337 H 0.11452 0.37443 0.21732 0.0
H338 H 0.08681 0.33542 0.22668 0.0
H339 H 0.0883 0.35743 0.32607 0.0
H340 H 0.05918 0.36467 0.34503 0.0
H341 H 0.07839 0.39078 0.33108 0.0
H342 H 0.03647 0.40679 0.30779 0.0
H343 H 0.01712 0.38063 0.32163 0.0
H344 H 0.01774 0.38445 0.28685 0.0
H345 H 0.05743 0.30036 0.24418 0.0
H346 H 0.03247 0.26931 0.27121 0.0
H347 H 0.02496 0.32928 0.3319 0.0
C348 C 0.08542 0.39657 0.27383 0.0
C349 C 0.10168 0.39674 0.25146 0.0
C350 C 0.10204 0.37457 0.23449 0.0
C351 C 0.08627 0.35246 0.23956 0.0
C352 C 0.07059 0.35274 0.26189 0.0
C353 C 0.07029 0.37405 0.27896 0.0
C354 C 0.05389 0.36821 0.30293 0.0
C355 C 0.07097 0.3704 0.32773 0.0
C356 C 0.02988 0.38608 0.3049 0.0
C357 C 0.04537 0.34018 0.29682 0.0
C358 C 0.05473 0.33188 0.27277 0.0
C359 C 0.04991 0.30662 0.26301 0.0
C360 C 0.03565 0.28915 0.27849 0.0
C361 C 0.02681 0.29687 0.30366 0.0
C362 C 0.03142 0.32286 0.31271 0.0
H363 H 0.91895 0.80328 0.55825 0.0
H364 H 0.89847 0.75943 0.62693 0.0
H365 H 0.85217 0.77304 0.62319 0.0
H366 H 0.87398 0.85767 0.57157 0.0
H367 H 0.86582 0.86092 0.53767 0.0
H368 H 0.8979 0.84939 0.54678 0.0
H369 H 0.89024 0.80779 0.51774 0.0
H370 H 0.85819 0.81918 0.50856 0.0
H371 H 0.86109 0.78758 0.52275 0.0
H372 H 0.80768 0.78786 0.60999 0.0
H373 H 0.76771 0.80395 0.58858 0.0
H374 H 0.81685 0.83948 0.52927 0.0
C375 C 0.90482 0.79679 0.5727 0.0
C376 C 0.91241 0.78027 0.59289 0.0
C377 C 0.89322 0.77213 0.61131 0.0
C378 C 0.86685 0.77979 0.6094 0.0
C379 C 0.85999 0.79581 0.58912 0.0
C380 C 0.87841 0.80438 0.57118 0.0
C381 C 0.86554 0.82058 0.55062 0.0
C382 C 0.87646 0.84882 0.55174 0.0
C383 C 0.86897 0.80802 0.52331 0.0
C384 C 0.83692 0.81918 0.55945 0.0
C385 C 0.83422 0.80488 0.58177 0.0
C386 C 0.80955 0.79942 0.59273 0.0
C387 C 0.78698 0.80856 0.58039 0.0
C388 C 0.78923 0.82312 0.55741 0.0
C389 C 0.81459 0.82882 0.54709 0.0
H390 H 0.3871 0.59353 0.81104 0.0
H391 H 0.44249 0.58821 0.74671 0.0
H392 H 0.46963 0.62437 0.76669 0.0
H393 H 0.39037 0.66284 0.82221 0.0
H394 H 0.38929 0.66085 0.85718 0.0
H395 H 0.37377 0.63555 0.83712 0.0
H396 H 0.40158 0.60077 0.85972 0.0
H397 H 0.41715 0.62595 0.87988 0.0
H398 H 0.43719 0.60432 0.86033 0.0
H399 H 0.48908 0.66291 0.79286 0.0
H400 H 0.5026 0.69683 0.82586 0.0
H401 H 0.43705 0.67313 0.87506 0.0
C402 C 0.40488 0.60014 0.80114 0.0
C403 C 0.41265 0.58849 0.77724 0.0
C404 C 0.43628 0.59709 0.76502 0.0
C405 C 0.4517 0.6176 0.77617 0.0
C406 C 0.44345 0.62878 0.79978 0.0
C407 C 0.42085 0.62 0.81235 0.0
C408 C 0.41712 0.63417 0.83826 0.0
C409 C 0.39109 0.64925 0.8387 0.0
C410 C 0.41834 0.61517 0.86088 0.0
C411 C 0.44097 0.65254 0.83821 0.0
C412 C 0.4557 0.64947 0.81567 0.0
C413 C 0.47791 0.66524 0.81073 0.0
C414 C 0.48538 0.68445 0.82946 0.0
C415 C 0.47102 0.68722 0.85299 0.0
C416 C 0.4486 0.67104 0.85737 0.0
H417 H 0.55139 0.18357 0.07123 0.0
H418 H 0.58728 0.22752 0.13592 0.0
H419 H 0.63165 0.21432 0.12099 0.0
H420 H 0.59566 0.12937 0.07402 0.0
H421 H 0.59658 0.12401 0.03921 0.0
H422 H 0.56766 0.1377 0.05438 0.0
H423 H 0.57137 0.1775 0.0244 0.0
H424 H 0.60031 0.16394 0.00915 0.0
H425 H 0.6019 0.19638 0.02357 0.0
H426 H 0.67198 0.19799 0.09816 0.0
H427 H 0.70579 0.17615 0.07098 0.0
H428 H 0.64363 0.13995 0.02319 0.0
C429 C 0.56863 0.19046 0.08214 0.0
C430 C 0.56605 0.20667 0.10459 0.0
C431 C 0.58893 0.21504 0.11866 0.0
C432 C 0.61417 0.20774 0.1103 0.0
C433 C 0.6161 0.19172 0.0881 0.0
C434 C 0.59397 0.18289 0.07439 0.0
C435 C 0.60153 0.16499 0.05178 0.0
C436 C 0.58965 0.13738 0.05506 0.0
C437 C 0.59329 0.1764 0.02568 0.0
C438 C 0.63137 0.16535 0.05484 0.0
C439 C 0.63935 0.18114 0.07573 0.0
C440 C 0.66599 0.18536 0.0819 0.0
C441 C 0.68501 0.17297 0.06635 0.0
C442 C 0.67722 0.15627 0.04522 0.0
C443 C 0.65006 0.15238 0.03947 0.0
H444 H 0.10411 0.57724 0.23237 0.0
H445 H 0.04433 0.52003 0.20678 0.0
H446 H 0.0158 0.55552 0.19283 0.0
H447 H 0.05654 0.62756 0.25565 0.0
H448 H 0.0775 0.65402 0.24473 0.0
H449 H 0.09203 0.62429 0.25531 0.0
H450 H 0.11661 0.61962 0.21119 0.0
H451 H 0.1021 0.6492 0.20045 0.0
H452 H 0.09786 0.61941 0.18133 0.0
H453 H -0.00295 0.59613 0.17567 0.0
H454 H 0.98749 0.63999 0.15965 0.0
H455 H 0.05747 0.67158 0.19906 0.0
C456 C 0.08479 0.57222 0.22431 0.0
C457 C 0.07643 0.54588 0.22063 0.0
C458 C 0.05109 0.54007 0.20989 0.0
C459 C 0.03473 0.56009 0.20191 0.0
C460 C 0.0438 0.58583 0.20525 0.0
C461 C 0.06803 0.59201 0.21658 0.0
C462 C 0.07358 0.62121 0.21676 0.0
C463 C 0.07499 0.63243 0.24478 0.0
C464 C 0.09904 0.62773 0.20152 0.0
C465 C 0.04916 0.63035 0.20282 0.0
C466 C 0.03223 0.60958 0.1964 0.0
C467 C 0.00976 0.61265 0.18116 0.0
C468 C 0.00454 0.63754 0.17207 0.0
C469 C 0.02149 0.65906 0.17858 0.0
C470 C 0.04382 0.65551 0.1945 0.0
H471 H 0.5511 0.79608 0.42021 0.0
H472 H 0.58912 0.7402 0.36835 0.0
H473 H 0.63306 0.75558 0.3845 0.0
H474 H 0.59933 0.84793 0.41064 0.0
H475 H 0.59752 0.86022 0.44378 0.0
H476 H 0.56909 0.84403 0.42896 0.0
H477 H 0.56714 0.81131 0.46657 0.0
H478 H 0.59553 0.82744 0.48153 0.0
H479 H 0.59609 0.79291 0.474 0.0
H480 H 0.67255 0.77553 0.40803 0.0
H481 H 0.70517 0.80162 0.43435 0.0
H482 H 0.64147 0.84722 0.46747 0.0
C483 C 0.56871 0.78702 0.41243 0.0
C484 C 0.56689 0.76682 0.3933 0.0
C485 C 0.59025 0.75569 0.38309 0.0
C486 C 0.61522 0.76424 0.39216 0.0
C487 C 0.61639 0.78427 0.41102 0.0
C488 C 0.59379 0.79578 0.42077 0.0
C489 C 0.60056 0.81773 0.44006 0.0
C490 C 0.59106 0.84403 0.43026 0.0
C491 C 0.58916 0.81199 0.46714 0.0
C492 C 0.63047 0.81654 0.43989 0.0
C493 C 0.63921 0.7969 0.42326 0.0
C494 C 0.66599 0.79119 0.42086 0.0
C495 C 0.68432 0.80601 0.43586 0.0
C496 C 0.67575 0.82653 0.45254 0.0
C497 C 0.64853 0.83193 0.45444 0.0
H498 H 0.45768 0.33023 0.65643 0.0
H499 H 0.52315 0.36791 0.61639 0.0
H500 H 0.5137 0.40951 0.63957 0.0
H501 H 0.41442 0.38192 0.65089 0.0
H502 H 0.39872 0.37808 0.68213 0.0
H503 H 0.41296 0.35037 0.66559 0.0
H504 H 0.44212 0.34209 0.7059 0.0
H505 H 0.42785 0.36977 0.72265 0.0
H506 H 0.46329 0.36804 0.71895 0.0
H507 H 0.49534 0.44755 0.66446 0.0
H508 H 0.46786 0.48003 0.68757 0.0
H509 H 0.41277 0.41826 0.70966 0.0
C510 C 0.47041 0.3471 0.65312 0.0
C511 C 0.49134 0.34587 0.63492 0.0
C512 C 0.5071 0.36849 0.6304 0.0
C513 C 0.50196 0.39214 0.64353 0.0
C514 C 0.48082 0.3929 0.66096 0.0
C515 C 0.46521 0.37102 0.66573 0.0
C516 C 0.44212 0.37775 0.68335 0.0
C517 C 0.41549 0.37167 0.66966 0.0
C518 C 0.44397 0.36357 0.70925 0.0
C519 C 0.44687 0.40688 0.68724 0.0
C520 C 0.46957 0.41513 0.67456 0.0
C521 C 0.47762 0.44131 0.67464 0.0
C522 C 0.46189 0.45962 0.68781 0.0
C523 C 0.43818 0.45169 0.70038 0.0
C524 C 0.43081 0.42492 0.70027 0.0
H525 H 0.91478 0.2313 0.92003 0.0
H526 H 0.96418 0.18556 0.96981 0.0
H527 H 0.92408 0.16576 0.98944 0.0
H528 H 0.8632 0.24367 0.96864 0.0
H529 H 0.83699 0.24161 0.94481 0.0
H530 H 0.86965 0.25278 0.93554 0.0
H531 H 0.87064 0.21692 0.89903 0.0
H532 H 0.83812 0.20546 0.90834 0.0
H533 H 0.86529 0.18323 0.90724 0.0
H534 H 0.87855 0.14812 0.00073 0.0
H535 H 0.83082 0.13762 0.00637 0.0
H536 H 0.81154 0.19675 0.95095 0.0
C537 C 0.91716 0.21733 0.93526 0.0
C538 C 0.94257 0.20992 0.94337 0.0
C539 C 0.94489 0.19164 0.96341 0.0
C540 C 0.92224 0.1802 0.97459 0.0
C541 C 0.89748 0.18756 0.96577 0.0
C542 C 0.89482 0.20604 0.94689 0.0
C543 C 0.86598 0.21058 0.94085 0.0
C544 C 0.85852 0.23883 0.94789 0.0
C545 C 0.85965 0.20362 0.91217 0.0
C546 C 0.85285 0.19143 0.95895 0.0
C547 C 0.87132 0.17818 0.97303 0.0
C548 C 0.86388 0.15862 0.99008 0.0
C549 C 0.83678 0.15269 -0.00695 0.0
C550 C 0.81756 0.16653 0.97926 0.0
C551 C 0.8258 0.1861 0.96201 0.0
H552 H 0.25447 0.07473 0.41594 0.0
H553 H 0.3001 0.04183 0.47808 0.0
H554 H 0.32164 0.01223 0.44606 0.0
H555 H 0.24582 0.01281 0.3767 0.0
H556 H 0.24863 0.02974 0.34648 0.0
H557 H 0.23466 0.04587 0.37475 0.0
H558 H 0.26913 0.08376 0.37062 0.0
H559 H 0.28325 0.06776 0.34249 0.0
H560 H 0.30395 0.07659 0.37005 0.0
H561 H 0.34298 0.99143 0.40638 0.0
H562 H 0.36012 0.97905 0.3627 0.0
H563 H 0.29844 0.02363 0.32712 0.0
C564 C 0.26859 0.0609 0.42289 0.0
C565 C 0.27568 0.06054 0.44944 0.0
C566 C 0.29429 0.04228 0.45781 0.0
C567 C 0.30661 0.02542 0.43977 0.0
C568 C 0.29965 0.02674 0.41358 0.0
C569 C 0.28071 0.04372 0.40524 0.0
C570 C 0.2778 0.04246 0.37593 0.0
C571 C 0.25008 0.03209 0.36801 0.0
C572 C 0.28391 0.06922 0.3641 0.0
C573 C 0.29885 0.02293 0.36893 0.0
C574 C 0.31118 0.01395 0.39088 0.0
C575 C 0.33303 -0.0022 0.38909 0.0
C576 C 0.34268 0.99093 0.36424 0.0
C577 C 0.33034 6e-05 0.3416 0.0
C578 C 0.30784 0.0158 0.34408 0.0
H579 H 0.1311 0.0245 0.64441 0.0
H580 H 0.16133 0.06406 0.71436 0.0
H581 H 0.18983 0.0924 0.68738 0.0
H582 H 0.19385 0.02511 0.60944 0.0
H583 H 0.17851 0.03003 0.57833 0.0
H584 H 0.16068 0.01278 0.60319 0.0
H585 H 0.1222 0.04522 0.60008 0.0
H586 H 0.13991 0.06257 0.57526 0.0
H587 H 0.12907 0.07974 0.6043 0.0
H588 H 0.21236 0.11844 0.65268 0.0
H589 H 0.2303 0.13809 0.61274 0.0
H590 H 0.18792 0.0794 0.56563 0.0
C591 C 0.14376 0.0391 0.65405 0.0
C592 C 0.14393 0.04224 0.68145 0.0
C593 C 0.16096 0.06133 0.69338 0.0
C594 C 0.17716 0.07753 0.67823 0.0
C595 C 0.17639 0.07403 0.65125 0.0
C596 C 0.16041 0.05506 0.63927 0.0
C597 C 0.16352 0.05513 0.60995 0.0
C598 C 0.17482 0.02922 0.59963 0.0
C599 C 0.13711 0.06103 0.59662 0.0
C600 C 0.1834 0.07743 0.60726 0.0
C601 C 0.19042 0.08819 0.63131 0.0
C602 C 0.20732 0.10996 0.63376 0.0
C603 C 0.21732 0.12102 0.611 0.0
C604 C 0.21068 0.11006 0.58621 0.0
C605 C 0.19368 0.08786 0.58439 0.0
H606 H 0.1747 0.94978 0.81191 0.0
H607 H 0.1289 0.01391 0.84319 0.0
H608 H 0.14879 0.00817 0.8866 0.0
H609 H 0.16394 0.91001 0.86516 0.0
H610 H 0.19606 0.89532 0.86428 0.0
H611 H 0.18194 0.90732 0.83491 0.0
H612 H 0.22373 0.93663 0.82806 0.0
H613 H 0.23798 0.92472 0.85752 0.0
H614 H 0.23433 0.9593 0.8536 0.0
H615 H 0.17155 -0.00605 0.92689 0.0
H616 H 0.19097 0.96893 0.96233 0.0
H617 H 0.21878 0.91154 0.90562 0.0
C618 C 0.16946 0.96298 0.82782 0.0
C619 C 0.15073 0.98257 0.82433 0.0
C620 C 0.14345 -0.00106 0.84562 0.0
C621 C 0.15475 -0.00407 0.87024 0.0
C622 C 0.17294 0.97617 0.87324 0.0
C623 C 0.18 0.95974 0.8527 0.0
C624 C 0.19725 0.93798 0.86184 0.0
C625 C 0.184 0.91108 0.85622 0.0
C626 C 0.22497 0.93978 0.84952 0.0
C627 C 0.19829 0.94441 0.89076 0.0
C628 C 0.18476 0.96692 0.89683 0.0
C629 C 0.18234 0.97638 0.92239 0.0
C630 C 0.19348 0.96209 0.94237 0.0
C631 C 0.20631 0.93833 0.93667 0.0
C632 C 0.20912 0.92969 0.9105 0.0
H633 H 0.28411 0.93036 0.06739 0.0
H634 H 0.22544 0.88584 0.11039 0.0
H635 H 0.24062 0.90739 0.15137 0.0
H636 H 0.33489 0.92431 0.11286 0.0
H637 H 0.34921 0.95646 0.10877 0.0
H638 H 0.33132 0.9405 0.08237 0.0
H639 H 0.30035 0.98003 0.07989 0.0
H640 H 0.31818 -0.00386 0.10635 0.0
H641 H 0.28284 0.99092 0.10864 0.0
H642 H 0.26395 0.93103 0.18782 0.0
H643 H 0.29601 0.95294 0.21777 0.0
H644 H 0.34091 0.98085 0.15151 0.0
C645 C 0.27414 0.92564 0.08539 0.0
C646 C 0.25352 0.90662 0.0858 0.0
C647 C 0.24132 0.90037 0.10974 0.0
C648 C 0.24966 0.91263 0.13307 0.0
C649 C 0.27035 0.93098 0.13215 0.0
C650 C 0.28255 0.93739 0.10899 0.0
C651 C 0.30606 0.95575 0.11378 0.0
C652 C 0.33189 0.94351 0.10387 0.0
C653 C 0.30158 0.98229 0.10143 0.0
C654 C 0.30552 0.95807 0.14324 0.0
C655 C 0.28445 0.94404 0.15339 0.0
C656 C 0.28042 0.9423 0.18013 0.0
C657 C 0.29875 0.95482 0.19699 0.0
C658 C 0.32101 0.9686 0.18703 0.0
C659 C 0.32406 0.97057 0.15977 0.0
H660 H 0.33255 0.32438 0.00607 0.0
H661 H 0.27747 0.27213 0.04514 0.0
H662 H 0.31484 0.25152 0.06677 0.0
H663 H 0.3841 0.27702 -0.00473 0.0
H664 H 0.41071 0.30047 0.00111 0.0
H665 H 0.37964 0.31091 0.98817 0.0
H666 H 0.37565 0.34486 0.02619 0.0
H667 H 0.4067 0.33454 0.03924 0.0
H668 H 0.37738 0.33418 0.05929 0.0
H669 H 0.3577 0.23765 0.08546 0.0
H670 H 0.40368 0.23078 0.09942 0.0
H671 H 0.43122 0.29127 0.04762 0.0
C672 C 0.32833 0.30854 0.0191 0.0
C673 C 0.30203 0.2999 0.02389 0.0
C674 C 0.29741 0.2791 0.04109 0.0
C675 C 0.31852 0.26724 0.05349 0.0
C676 C 0.34414 0.27628 0.04841 0.0
C677 C 0.34919 0.29637 0.03157 0.0
C678 C 0.37862 0.3025 0.02976 0.0
C679 C 0.38886 0.29741 0.00192 0.0
C680 C 0.38495 0.33069 0.03919 0.0
C681 C 0.38926 0.28288 0.04841 0.0
C682 C 0.36901 0.26797 0.05894 0.0
C683 C 0.37377 0.24907 0.07723 0.0
C684 C 0.39996 0.24536 0.08507 0.0
C685 C 0.42107 0.2604 0.07455 0.0
C686 C 0.41556 0.27928 0.05584 0.0
H687 H 0.97587 0.84212 0.15303 0.0
H688 H 0.94488 0.77768 0.1979 0.0
H689 H 0.91773 0.80849 0.22379 0.0
H690 H 0.97867 0.89033 0.20738 0.0
H691 H 0.96922 0.91667 0.18701 0.0
H692 H 0.9875 0.88976 0.17336 0.0
H693 H 0.95092 0.88168 0.13852 0.0
H694 H 0.93251 0.90845 0.15209 0.0
H695 H 0.91708 0.87649 0.14875 0.0
H696 H 0.89052 0.84559 0.24136 0.0
H697 H 0.86739 0.88667 0.25136 0.0
H698 H 0.918 0.92715 0.19659 0.0
C699 C 0.96361 0.83448 0.16849 0.0
C700 C 0.9624 0.80748 0.17341 0.0
C701 C 0.94618 0.7983 0.19387 0.0
C702 C 0.93069 0.81565 0.20865 0.0
C703 C 0.93201 0.8421 0.20297 0.0
C704 C 0.94834 0.85152 0.18361 0.0
C705 C 0.94563 0.88069 0.18087 0.0
C706 C 0.97181 0.89521 0.18756 0.0
C707 C 0.93595 0.88719 0.15343 0.0
C708 C 0.92466 0.88614 0.20123 0.0
C709 C 0.91706 0.86362 0.21377 0.0
C710 C 0.89664 0.86341 0.23202 0.0
C711 C 0.88356 0.88679 0.23749 0.0
C712 C 0.89114 0.91007 0.22494 0.0
C713 C 0.91218 0.90974 0.20685 0.0
H714 H 0.15228 0.62979 0.56076 0.0
H715 H 0.15636 0.67377 0.48991 0.0
H716 H 0.11256 0.69237 0.49978 0.0
H717 H 0.08063 0.61707 0.56182 0.0
H718 H 0.07819 0.62229 0.59657 0.0
H719 H 0.10831 0.61003 0.58245 0.0
H720 H 0.13514 0.64818 0.60459 0.0
H721 H 0.10516 0.66045 0.61885 0.0
H722 H 0.1257 0.68132 0.59916 0.0
H723 H 0.06869 0.70652 0.51764 0.0
H724 H 0.0308 0.72 0.54508 0.0
H725 H 0.05748 0.67007 0.60622 0.0
C726 C 0.14367 0.64304 0.5472 0.0
C727 C 0.15733 0.65017 0.52445 0.0
C728 C 0.146 0.66807 0.5074 0.0
C729 C 0.12112 0.67857 0.51276 0.0
C730 C 0.10813 0.67128 0.53546 0.0
C731 C 0.11919 0.65426 0.55263 0.0
C732 C 0.10243 0.65173 0.57692 0.0
C733 C 0.09176 0.6236 0.57958 0.0
C734 C 0.11804 0.66098 0.60132 0.0
C735 C 0.08039 0.67017 0.57083 0.0
C736 C 0.0837 0.68075 0.54656 0.0
C737 C 0.06587 0.69838 0.53669 0.0
C738 C 0.04439 0.70583 0.55233 0.0
C739 C 0.04137 0.69609 0.57769 0.0
C740 C 0.05942 0.67782 0.58688 0.0
H741 H 0.91667 0.66729 0.65942 0.0
H742 H 0.98621 0.67858 0.70842 0.0
H743 H 0.97233 0.64047 0.73396 0.0
H744 H 0.87156 0.64615 0.71171 0.0
H745 H 0.85429 0.62287 0.69058 0.0
H746 H 0.86882 0.65211 0.6774 0.0
H747 H 0.89538 0.62398 0.64432 0.0
H748 H 0.88116 0.59467 0.65754 0.0
H749 H 0.91666 0.59905 0.65606 0.0
H750 H 0.95345 0.59851 0.75101 0.0
H751 H 0.92858 0.55796 0.76114 0.0
H752 H 0.87017 0.57531 0.70252 0.0
C753 C 0.92876 0.662 0.67579 0.0
C754 C 0.95253 0.67586 0.68195 0.0
C755 C 0.96785 0.66831 0.70345 0.0
C756 C 0.96017 0.64666 0.71802 0.0
C757 C 0.93694 0.63304 0.71106 0.0
C758 C 0.92122 0.64066 0.69073 0.0
C759 C 0.8975 0.62235 0.68689 0.0
C760 C 0.8715 0.63673 0.69196 0.0
C761 C 0.89771 0.60924 0.65959 0.0
C762 C 0.90267 0.60288 0.70783 0.0
C763 C 0.92556 0.60935 0.7215 0.0
C764 C 0.93527 0.59346 0.74073 0.0
C765 C 0.92111 0.57042 0.74625 0.0
C766 C 0.89739 0.56365 0.73274 0.0
C767 C 0.88804 0.58021 0.7134 0.0
H768 H 0.1524 0.19087 0.48393 0.0
H769 H 0.18625 0.12996 0.43478 0.0
H770 H 0.15233 0.13747 0.40123 0.0
H771 H 0.08381 0.17617 0.46751 0.0
H772 H 0.07486 0.21003 0.4686 0.0
H773 H 0.10143 0.19914 0.48871 0.0
H774 H 0.13304 0.23379 0.46873 0.0
H775 H 0.10666 0.24461 0.44837 0.0
H776 H 0.13735 0.23422 0.4339 0.0
H777 H 0.11576 0.15369 0.37199 0.0
H778 H 0.07752 0.17465 0.35142 0.0
H779 H 0.06788 0.22374 0.42075 0.0
C780 C 0.15262 0.17895 0.46621 0.0
C781 C 0.172 0.15988 0.46195 0.0
C782 C 0.1715 0.14463 0.43851 0.0
C783 C 0.15239 0.14882 0.4193 0.0
C784 C 0.13385 0.16815 0.42396 0.0
C785 C 0.13365 0.18272 0.44701 0.0
C786 C 0.11167 0.20224 0.44743 0.0
C787 C 0.09176 0.19654 0.46936 0.0
C788 C 0.12286 0.23038 0.44974 0.0
C789 C 0.09962 0.19659 0.42093 0.0
C790 C 0.11269 0.17699 0.40754 0.0
C791 C 0.10526 0.16892 0.38238 0.0
C792 C 0.08364 0.18099 0.37081 0.0
C793 C 0.06971 0.20068 0.38457 0.0
C794 C 0.07802 0.2086 0.40983 0.0
H795 H 0.57179 0.43098 0.19267 0.0
H796 H 0.60171 0.39332 0.26086 0.0
H797 H 0.57915 0.35188 0.24666 0.0
H798 H 0.50846 0.3966 0.18702 0.0
H799 H 0.50988 0.39372 0.152 0.0
H800 H 0.52619 0.42092 0.16872 0.0
H801 H 0.57064 0.40915 0.14648 0.0
H802 H 0.55443 0.38207 0.12955 0.0
H803 H 0.58314 0.37667 0.14937 0.0
H804 H 0.55255 0.31528 0.22551 0.0
H805 H 0.53027 0.28352 0.19537 0.0
H806 H 0.52217 0.34386 0.13847 0.0
C807 C 0.57332 0.41399 0.20463 0.0
C808 C 0.58802 0.41509 0.22795 0.0
C809 C 0.59034 0.39258 0.24296 0.0
C810 C 0.5775 0.36914 0.23515 0.0
C811 C 0.563 0.36863 0.21204 0.0
C812 C 0.56136 0.39028 0.19669 0.0
C813 C 0.54673 0.38389 0.17154 0.0
C814 C 0.52131 0.39973 0.16973 0.0
C815 C 0.56482 0.38819 0.14784 0.0
C816 C 0.54044 0.35522 0.1751 0.0
C817 C 0.54941 0.347 0.19888 0.0
C818 C 0.54555 0.32143 0.20679 0.0
C819 C 0.53276 0.30361 0.18963 0.0
C820 C 0.52462 0.31135 0.16468 0.0
C821 C 0.52829 0.33752 0.15744 0.0
H822 H 0.3038 0.79781 -0.00034 0.0
H823 H 0.29708 0.86462 0.95 0.0
H824 H 0.33884 0.85279 0.92807 0.0
H825 H 0.37339 0.80311 0.00868 0.0
H826 H 0.3783 0.76837 0.00828 0.0
H827 H 0.3472 0.78131 0.01913 0.0
H828 H 0.3223 0.75195 0.98487 0.0
H829 H 0.35335 0.73887 0.97394 0.0
H830 H 0.33156 0.75359 0.95104 0.0
H831 H 0.38199 0.83433 0.91238 0.0
H832 H 0.42361 0.81095 0.90451 0.0
H833 H 0.40209 0.75663 0.96488 0.0
C834 C 0.31094 0.80985 0.98402 0.0
C835 C 0.2971 0.83211 0.97652 0.0
C836 C 0.30731 0.84746 0.9561 0.0
C837 C 0.33099 0.84088 0.94349 0.0
C838 C 0.34422 0.81893 0.95152 0.0
C839 C 0.33456 0.80365 0.97131 0.0
C840 C 0.35298 0.78156 0.97683 0.0
C841 C 0.36359 0.78374 0.00489 0.0
C842 C 0.33922 0.75492 0.97133 0.0
C843 C 0.37463 0.78693 0.95719 0.0
C844 C 0.36915 0.80847 0.94268 0.0
C845 C 0.38646 0.81738 0.92357 0.0
C846 C 0.41005 0.80396 0.91925 0.0
C847 C 0.41615 0.78194 0.93407 0.0
C848 C 0.39805 0.77336 0.95319 0.0
H849 H 0.92592 0.40027 0.7551 0.0
H850 H 0.86793 0.426 0.81224 0.0
H851 H 0.87584 0.38677 0.83765 0.0
H852 H 0.90964 0.33057 0.75816 0.0
H853 H 0.94364 0.32106 0.75456 0.0
H854 H 0.93259 0.35058 0.74011 0.0
H855 H 0.96939 0.3772 0.76476 0.0
H856 H 0.98062 0.34779 0.77915 0.0
H857 H 0.97167 0.37528 0.79967 0.0
H858 H 0.89216 0.34662 0.85838 0.0
H859 H 0.9158 0.308 0.87303 0.0
H860 H 0.96198 0.30725 0.80175 0.0
C861 C 0.91477 0.39762 0.77288 0.0
C862 C 0.89632 0.41628 0.78168 0.0
C863 C 0.88214 0.412 0.80506 0.0
C864 C 0.88644 0.38974 0.81961 0.0
C865 C 0.90478 0.37179 0.81041 0.0
C866 C 0.91865 0.3754 0.78755 0.0
C867 C 0.93783 0.3535 0.78242 0.0
C868 C 0.93047 0.33801 0.75732 0.0
C869 C 0.96657 0.36408 0.78145 0.0
C870 C 0.93298 0.33732 0.80627 0.0
C871 C 0.91375 0.34819 0.8221 0.0
C872 C 0.90698 0.33772 0.846 0.0
C873 C 0.92053 0.31582 0.85416 0.0
C874 C 0.94048 0.30452 0.83839 0.0
C875 C 0.94641 0.31516 0.81393 0.0
H876 H 0.33355 0.15361 0.54597 0.0
H877 H 0.29739 0.20554 0.49153 0.0
H878 H 0.33302 0.23831 0.50013 0.0
H879 H 0.35473 0.20407 0.5927 0.0
H880 H 0.38533 0.18844 0.60021 0.0
H881 H 0.35681 0.16903 0.59007 0.0
H882 H 0.38416 0.14802 0.5526 0.0
H883 H 0.41278 0.16726 0.56272 0.0
H884 H 0.40092 0.16874 0.52972 0.0
H885 H 0.37314 0.26467 0.51322 0.0
H886 H 0.41542 0.28315 0.53023 0.0
H887 H 0.42487 0.21483 0.57729 0.0
C888 C 0.33315 0.17187 0.53587 0.0
C889 C 0.31275 0.17704 0.51805 0.0
C890 C 0.31283 0.20119 0.50528 0.0
C891 C 0.33294 0.21995 0.51005 0.0
C892 C 0.3527 0.21431 0.52779 0.0
C893 C 0.35297 0.19092 0.54056 0.0
C894 C 0.37667 0.18973 0.55852 0.0
C895 C 0.36785 0.1877 0.58707 0.0
C896 C 0.3947 0.1671 0.55039 0.0
C897 C 0.38982 0.21596 0.55356 0.0
C898 C 0.37564 0.22982 0.53579 0.0
C899 C 0.38434 0.25412 0.52732 0.0
C900 C 0.40838 0.26443 0.53706 0.0
C901 C 0.42334 0.2505 0.55518 0.0
C902 C 0.41369 0.2261 0.56374 0.0
H903 H 0.53905 0.64229 0.3547 0.0
H904 H 0.48116 0.67253 0.30144 0.0
H905 H 0.49156 0.63745 0.26945 0.0
H906 H 0.58699 0.62655 0.30689 0.0
H907 H 0.59748 0.59727 0.32219 0.0
H908 H 0.58425 0.62362 0.34169 0.0
H909 H 0.54873 0.59213 0.36061 0.0
H910 H 0.56198 0.56561 0.3413 0.0
H911 H 0.52742 0.57329 0.33875 0.0
H912 H 0.50933 0.60016 0.24272 0.0
H913 H 0.53305 0.56297 0.22308 0.0
H914 H 0.58002 0.55773 0.29352 0.0
C915 C 0.52826 0.64133 0.33647 0.0
C916 C 0.5092 0.66008 0.33062 0.0
C917 C 0.49582 0.65836 0.30637 0.0
C918 C 0.50157 0.6385 0.28808 0.0
C919 C 0.52078 0.62061 0.29432 0.0
C920 C 0.53389 0.62179 0.31793 0.0
C921 C 0.5544 0.60077 0.31941 0.0
C922 C 0.58243 0.61278 0.32273 0.0
C923 C 0.54772 0.58183 0.34131 0.0
C924 C 0.55089 0.5877 0.29285 0.0
C925 C 0.53132 0.59935 0.27874 0.0
C926 C 0.52464 0.5908 0.2536 0.0
C927 C 0.53827 0.56968 0.24262 0.0
C928 C 0.55844 0.55742 0.25673 0.0
C929 C 0.56478 0.56668 0.28217 0.0
H930 H 0.07869 0.75494 0.07461 0.0
H931 H 0.0772 0.80037 0.14709 0.0
H932 H 0.10671 0.83368 0.12783 0.0
H933 H 0.14877 0.76903 0.06049 0.0
H934 H 0.14335 0.77006 0.02586 0.0
H935 H 0.12241 0.74962 0.04556 0.0
H936 H 0.08108 0.7725 0.02792 0.0
H937 H 0.1019 0.79329 0.00848 0.0
H938 H 0.07889 0.80749 0.03135 0.0
H939 H 0.13273 0.86364 0.09979 0.0
H940 H 0.16026 0.88551 0.06695 0.0
H941 H 0.14824 0.81925 0.01352 0.0
C942 C 0.08489 0.77176 0.08647 0.0
C943 C 0.07569 0.77519 0.11227 0.0
C944 C 0.0842 0.79733 0.12732 0.0
C945 C 0.10078 0.81643 0.11651 0.0
C946 C 0.10901 0.81278 0.09082 0.0
C947 C 0.10192 0.79074 0.07616 0.0
C948 C 0.1142 0.79135 0.04924 0.0
C949 C 0.13332 0.76867 0.04505 0.0
C950 C 0.09273 0.79115 0.028 0.0
C951 C 0.12894 0.81739 0.05096 0.0
C952 C 0.12531 0.82955 0.075 0.0
C953 C 0.136 0.85421 0.08099 0.0
C954 C 0.15141 0.86656 0.06212 0.0
C955 C 0.15634 0.85402 0.03773 0.0
C956 C 0.14481 0.82919 0.03205 0.0
H957 H 0.7074 0.92371 0.58134 0.0
H958 H 0.63653 0.88273 0.55315 0.0
H959 H 0.60951 0.9077 0.58461 0.0
H960 H 0.68989 0.92226 0.64747 0.0
H961 H 0.70359 0.95406 0.65623 0.0
H962 H 0.71724 0.93572 0.62923 0.0
H963 H 0.70923 0.97431 0.59886 0.0
H964 H 0.69565 -0.00715 0.62584 0.0
H965 H 0.67649 0.98743 0.59652 0.0
H966 H 0.59058 0.93417 0.62044 0.0
H967 H 0.58056 0.95991 0.66014 0.0
H968 H 0.66361 0.98305 0.66727 0.0
C969 C 0.68612 0.92053 0.58146 0.0
C970 C 0.67393 0.90153 0.56472 0.0
C971 C 0.64617 0.89727 0.56581 0.0
C972 C 0.63066 0.91142 0.58352 0.0
C973 C 0.64325 0.92961 0.60015 0.0
C974 C 0.67032 0.93423 0.59942 0.0
C975 C 0.67898 0.95323 0.6211 0.0
C976 C 0.69858 0.94055 0.6396 0.0
C977 C 0.69078 0.97846 0.6099 0.0
C978 C 0.6526 0.95811 0.63435 0.0
C979 C 0.63228 0.94454 0.62163 0.0
C980 C 0.60625 0.94508 0.63049 0.0
C981 C 0.6008 0.95973 0.65313 0.0
C982 C 0.62129 0.9735 0.66684 0.0
C983 C 0.64751 0.97285 0.65713 0.0
H984 H 0.76726 0.98046 0.33246 0.0
H985 H 0.84511 0.94799 0.31941 0.0
H986 H 0.84371 0.92908 0.36286 0.0
H987 H 0.7761 -0.00441 0.4024 0.0
H988 H 0.74243 0.98642 0.41034 0.0
H989 H 0.7501 -0.00077 0.37881 0.0
H990 H 0.72866 0.95806 0.35646 0.0
H991 H 0.72079 0.94524 0.38787 0.0
H992 H 0.73992 0.92623 0.36491 0.0
H993 H 0.83294 0.91088 0.40596 0.0
H994 H 0.81266 0.89358 0.44586 0.0
H995 H 0.74223 0.93827 0.43211 0.0
C996 C 0.78411 0.96959 0.33884 0.0
C997 C 0.8063 0.96577 0.32244 0.0
C998 C 0.82786 0.95123 0.33152 0.0
C999 C 0.82734 0.94048 0.35627 0.0
C1000 C 0.8052 0.9445 0.37188 0.0
C1001 C 0.78396 0.95868 0.3636 0.0
C1002 C 0.76202 0.95885 0.3838 0.0
C1003 C 0.7574 0.98668 0.39447 0.0
C1004 C 0.73634 0.94634 0.37259 0.0
C1005 C 0.77405 0.94202 0.40437 0.0
C1006 C 0.79908 0.93417 0.39715 0.0
C1007 C 0.81352 0.91716 0.41204 0.0
C1008 C 0.80184 0.90744 0.43466 0.0
C1009 C 0.77603 0.91481 0.4422 0.0
C1010 C 0.76223 0.93276 0.42712 0.0
H1011 H 0.7994 0.07389 0.06447 0.0
H1012 H 0.72373 0.03392 0.05175 0.0
H1013 H 0.73239 0.00597 0.0893 0.0
H1014 H 0.83567 0.01601 0.0849 0.0
H1015 H 0.85502 0.03492 0.1084 0.0
H1016 H 0.84358 0.04985 0.07923 0.0
H1017 H 0.82113 0.08584 0.10736 0.0
H1018 H 0.83221 0.0709 0.13658 0.0
H1019 H 0.79745 0.07658 0.13192 0.0
H1020 H 0.7474 0.98622 0.13187 0.0
H1021 H 0.76933 0.97364 0.17275 0.0
H1022 H 0.83575 0.02546 0.15544 0.0
C1023 C 0.78486 0.05891 0.06925 0.0
C1024 C 0.7609 0.05603 0.05524 0.0
C1025 C 0.74233 0.03628 0.06213 0.0
C1026 C 0.74704 0.02041 0.08348 0.0
C1027 C 0.7706 0.02427 0.09738 0.0
C1028 C 0.78941 0.04274 0.09018 0.0
C1029 C 0.81276 0.0437 0.10861 0.0
C1030 C 0.83827 0.03563 0.09444 0.0
C1031 C 0.81606 0.07086 0.1219 0.0
C1032 C 0.80389 0.02342 0.12778 0.0
C1033 C 0.77953 0.01239 0.1211 0.0
C1034 C 0.7667 -0.0056 0.137 0.0
C1035 C 0.77921 0.98745 0.16021 0.0
C1036 C 0.80433 -0.00163 0.16711 0.0
C1037 C 0.81675 0.01643 0.15051 0.0
H1038 H 0.68517 0.01997 0.82301 0.0
H1039 H 0.64072 0.08144 0.78782 0.0
H1040 H 0.6539 0.11175 0.82377 0.0
H1041 H 0.66699 0.03565 0.8879 0.0
H1042 H 0.69856 0.02833 0.90202 0.0
H1043 H 0.68797 0.01189 0.87229 0.0
H1044 H 0.73099 0.02741 0.84932 0.0
H1045 H 0.74181 0.04378 0.87905 0.0
H1046 H 0.73959 0.06174 0.84947 0.0
H1047 H 0.66961 0.13467 0.86399 0.0
H1048 H 0.68666 0.14923 0.90683 0.0
H1049 H 0.72019 0.07285 0.9175 0.0
C1050 C 0.67867 0.03995 0.82265 0.0
C1051 C 0.66207 0.04844 0.80254 0.0
C1052 C 0.65346 0.07456 0.80302 0.0
C1053 C 0.6609 0.09193 0.82331 0.0
C1054 C 0.67683 0.08286 0.84308 0.0
C1055 C 0.68565 0.05753 0.84301 0.0
C1056 C 0.70127 0.05249 0.86754 0.0
C1057 C 0.68789 0.03081 0.88337 0.0
C1058 C 0.73013 0.04597 0.86094 0.0
C1059 C 0.69951 0.07886 0.88149 0.0
C1060 C 0.68551 0.09608 0.86684 0.0
C1061 C 0.68074 0.12144 0.87561 0.0
C1062 C 0.69051 0.12949 0.90006 0.0
C1063 C 0.70481 0.11222 0.91564 0.0
C1064 C 0.70938 0.08654 0.9061 0.0
H1065 H 0.58652 0.71943 0.91333 0.0
H1066 H 0.55367 0.76607 0.97676 0.0
H1067 H 0.59194 0.75571 0.00438 0.0
H1068 H 0.61012 0.66847 0.95337 0.0
H1069 H 0.63944 0.66307 0.93408 0.0
H1070 H 0.61002 0.67503 0.91906 0.0
H1071 H 0.6369 0.71481 0.90222 0.0
H1072 H 0.66639 0.703 0.91723 0.0
H1073 H 0.65532 0.73549 0.92501 0.0
H1074 H 0.63428 0.74107 0.02461 0.0
H1075 H 0.67591 0.72041 0.03731 0.0
H1076 H 0.6797 0.68132 0.96142 0.0
C1077 C 0.58746 0.72757 0.93299 0.0
C1078 C 0.56728 0.7437 0.9429 0.0
C1079 C 0.56897 0.75368 0.96882 0.0
C1080 C 0.59064 0.74797 0.9846 0.0
C1081 C 0.61023 0.73201 0.97422 0.0
C1082 C 0.6087 0.72172 0.94912 0.0
C1083 C 0.63184 0.70427 0.94301 0.0
C1084 C 0.62228 0.67604 0.93704 0.0
C1085 C 0.6486 0.71505 0.92054 0.0
C1086 C 0.64669 0.70643 0.96858 0.0
C1087 C 0.63405 0.72274 0.98623 0.0
C1088 C 0.64429 0.72816 0.011 0.0
C1089 C 0.66798 0.7164 0.018 0.0
C1090 C 0.68097 0.69918 0.0004 0.0
C1091 C 0.67012 0.69424 0.97537 0.0
H1092 H 0.03162 0.07826 0.74847 0.0
H1093 H 0.05049 0.02552 0.81009 0.0
H1094 H 0.03529 0.05774 0.84287 0.0
H1095 H 0.05634 0.13381 0.77981 0.0
H1096 H 0.03164 0.15591 0.76891 0.0
H1097 H 0.03896 0.12716 0.74963 0.0
H1098 H -0.01045 0.11254 0.75082 0.0
H1099 H 0.98199 0.14144 0.76996 0.0
H1100 H 0.97297 0.10964 0.78174 0.0
H1101 H 0.02485 0.09667 0.86889 0.0
H1102 H 0.01873 0.14081 0.88745 0.0
H1103 H 0.00644 0.17008 0.80997 0.0
C1104 C 0.03159 0.07327 0.76882 0.0
C1105 C 0.04187 0.04935 0.77685 0.0
C1106 C 0.0425 0.0437 0.80364 0.0
C1107 C 0.03382 0.06183 0.82237 0.0
C1108 C 0.02463 0.08558 0.81401 0.0
C1109 C 0.02327 0.09142 0.78793 0.0
C1110 C 0.01536 0.11958 0.78461 0.0
C1111 C 0.03686 0.13501 0.76988 0.0
C1112 C 0.98836 0.12087 0.77098 0.0
C1113 C 0.01356 0.12881 0.81288 0.0
C1114 C 0.01864 0.10865 0.8294 0.0
C1115 C 0.02035 0.11252 0.85624 0.0
C1116 C 0.01703 0.13771 0.86657 0.0
C1117 C 0.01203 0.1588 0.85015 0.0
C1118 C 0.00978 0.1542 0.82297 0.0
H1119 H 0.91843 0.28002 0.39083 0.0
H1120 H 0.95327 0.24949 0.46066 0.0
H1121 H 0.92084 0.27299 0.48758 0.0
H1122 H 0.89897 0.34484 0.42026 0.0
H1123 H 0.86818 0.34475 0.40251 0.0
H1124 H 0.89669 0.32904 0.38854 0.0
H1125 H 0.86934 0.28592 0.38276 0.0
H1126 H 0.84083 0.30145 0.39671 0.0
H1127 H 0.85306 0.27212 0.41062 0.0
H1128 H 0.88237 0.29414 0.50657 0.0
H1129 H 0.83869 0.31206 0.51697 0.0
H1130 H 0.82726 0.32996 0.43573 0.0
C1131 C 0.91957 0.27893 0.41182 0.0
C1132 C 0.93838 0.26306 0.42371 0.0
C1133 C 0.93896 0.2615 0.45117 0.0
C1134 C 0.92075 0.27493 0.46666 0.0
C1135 C 0.90203 0.28987 0.45442 0.0
C1136 C 0.90121 0.29208 0.42767 0.0
C1137 C 0.87722 0.30732 0.41958 0.0
C1138 C 0.88578 0.33301 0.40698 0.0
C1139 C 0.85904 0.2907 0.40135 0.0
C1140 C 0.86428 0.31236 0.44589 0.0
C1141 C 0.87928 0.3024 0.46566 0.0
C1142 C 0.87065 0.30248 0.49138 0.0
C1143 C 0.84578 0.31258 0.49707 0.0
C1144 C 0.82983 0.32254 0.47718 0.0
C1145 C 0.83942 0.32298 0.45134 0.0
H1146 H 0.59482 0.90762 0.77454 0.0
H1147 H 0.5495 0.97188 0.80669 0.0
H1148 H 0.52461 0.94106 0.83435 0.0
H1149 H 0.54027 0.86021 0.77248 0.0
H1150 H 0.56095 0.83346 0.78083 0.0
H1151 H 0.57477 0.86057 0.76338 0.0
H1152 H 0.61069 0.86765 0.79905 0.0
H1153 H 0.59695 0.84062 0.81665 0.0
H1154 H 0.60072 0.87227 0.83254 0.0
H1155 H 0.50686 0.90352 0.86051 0.0
H1156 H 0.49526 0.86167 0.88097 0.0
H1157 H 0.55062 0.82183 0.82983 0.0
C1158 C 0.57961 0.91523 0.78734 0.0
C1159 C 0.57417 0.94217 0.78859 0.0
C1160 C 0.55394 0.95131 0.8054 0.0
C1161 C 0.53976 0.93397 0.82121 0.0
C1162 C 0.54582 0.90756 0.81966 0.0
C1163 C 0.56504 0.8982 0.80292 0.0
C1164 C 0.56769 0.86894 0.80482 0.0
C1165 C 0.56048 0.85498 0.77883 0.0
C1166 C 0.59567 0.86197 0.8138 0.0
C1167 C 0.54722 0.86332 0.82555 0.0
C1168 C 0.53491 0.88586 0.83397 0.0
C1169 C 0.51614 0.88571 0.85386 0.0
C1170 C 0.50976 0.86189 0.86541 0.0
C1171 C 0.52191 0.83854 0.85682 0.0
C1172 C 0.54076 0.83933 0.83654 0.0
H1173 H 0.95941 0.12743 0.34048 0.0
H1174 H 0.92926 0.19573 0.30313 0.0
H1175 H 0.89992 0.16734 0.27571 0.0
H1176 H 0.95898 0.08526 0.28182 0.0
H1177 H 0.94927 0.05655 0.29928 0.0
H1178 H 0.96857 0.08218 0.31538 0.0
H1179 H 0.93298 0.08577 0.35162 0.0
H1180 H 0.91359 0.06017 0.33565 0.0
H1181 H 0.89904 0.09136 0.34282 0.0
H1182 H 0.87123 0.13204 0.25523 0.0
H1183 H 0.84702 0.09176 0.24092 0.0
H1184 H 0.89777 0.04612 0.28938 0.0
C1185 C 0.94673 0.1364 0.32644 0.0
C1186 C 0.94652 0.1638 0.324 0.0
C1187 C 0.92979 0.17478 0.30528 0.0
C1188 C 0.91305 0.15883 0.28963 0.0
C1189 C 0.9136 0.13192 0.29267 0.0
C1190 C 0.93021 0.12074 0.31037 0.0
C1191 C 0.92678 0.09129 0.3099 0.0
C1192 C 0.95243 0.07805 0.30106 0.0
C1193 C 0.91754 0.08159 0.33658 0.0
C1194 C 0.90519 0.08771 0.2896 0.0
C1195 C 0.89782 0.11142 0.27997 0.0
C1196 C 0.87709 0.11332 0.2623 0.0
C1197 C 0.86342 0.09039 0.25436 0.0
C1198 C 0.87077 0.06589 0.26384 0.0
C1199 C 0.89214 0.06455 0.28143 0.0
H1200 H 0.58245 0.1092 0.72082 0.0
H1201 H 0.51625 0.05504 0.7077 0.0
H1202 H 0.49073 0.09023 0.68825 0.0
H1203 H 0.5417 0.16704 0.73659 0.0
H1204 H 0.56454 0.18887 0.72059 0.0
H1205 H 0.57653 0.16002 0.7356 0.0
H1206 H 0.59804 0.14546 0.6919 0.0
H1207 H 0.58605 0.17414 0.67675 0.0
H1208 H 0.5778 0.14226 0.66304 0.0
H1209 H 0.47515 0.12948 0.66475 0.0
H1210 H 0.46918 0.17102 0.64221 0.0
H1211 H 0.54406 0.20053 0.67353 0.0
C1212 C 0.5624 0.10487 0.71428 0.0
C1213 C 0.55131 0.07941 0.71571 0.0
C1214 C 0.52506 0.07446 0.7069 0.0
C1215 C 0.51043 0.09432 0.69581 0.0
C1216 C 0.52217 0.1191 0.69419 0.0
C1217 C 0.54739 0.12455 0.70358 0.0
C1218 C 0.55583 0.15252 0.69862 0.0
C1219 C 0.55988 0.16803 0.72439 0.0
C1220 C 0.58091 0.15364 0.68156 0.0
C1221 C 0.53181 0.16169 0.68411 0.0
C1222 C 0.5126 0.14212 0.68175 0.0
C1223 C 0.48974 0.14516 0.66701 0.0
C1224 C 0.48655 0.16874 0.65423 0.0
C1225 C 0.50593 0.18903 0.65656 0.0
C1226 C 0.5286 0.18557 0.67204 0.0
H1227 H 0.15735 0.35136 0.95133 0.0
H1228 H 0.21274 0.31241 0.89977 0.0
H1229 H 0.1753 0.2925 0.8746 0.0
H1230 H 0.11388 0.29721 0.95569 0.0
H1231 H 0.08403 0.31584 0.95745 0.0
H1232 H 0.11487 0.33015 0.96891 0.0
H1233 H 0.10939 0.36877 0.93794 0.0
H1234 H 0.07843 0.3546 0.92643 0.0
H1235 H 0.10443 0.36224 0.90361 0.0
H1236 H 0.13209 0.27585 0.85612 0.0
H1237 H 0.08626 0.25968 0.84822 0.0
H1238 H 0.05918 0.30597 0.91459 0.0
C1239 C 0.16145 0.33915 0.93433 0.0
C1240 C 0.18771 0.33374 0.92696 0.0
C1241 C 0.19261 0.31692 0.90533 0.0
C1242 C 0.17153 0.30566 0.89094 0.0
C1243 C 0.14577 0.31106 0.89885 0.0
C1244 C 0.14063 0.32715 0.92023 0.0
C1245 C 0.11128 0.32742 0.92637 0.0
C1246 C 0.1057 0.31703 0.95372 0.0
C1247 C 0.10024 0.35489 0.9234 0.0
C1248 C 0.10078 0.30874 0.90532 0.0
C1249 C 0.12092 0.3 0.8893 0.0
C1250 C 0.11613 0.28255 0.8685 0.0
C1251 C 0.09007 0.27352 0.86415 0.0
C1252 C 0.06931 0.28151 0.88089 0.0
C1253 C 0.07475 0.29947 0.9016 0.0
H1254 H 0.42123 0.68657 0.44272 0.0
H1255 H 0.40275 0.74976 0.39153 0.0
H1256 H 0.35542 0.74455 0.40241 0.0
H1257 H 0.3658 0.64656 0.4258 0.0
H1258 H 0.36031 0.63456 0.45806 0.0
H1259 H 0.39311 0.64463 0.44821 0.0
H1260 H 0.39614 0.67701 0.48775 0.0
H1261 H 0.36333 0.66698 0.49778 0.0
H1262 H 0.37084 0.70097 0.49248 0.0
H1263 H 0.31029 0.73121 0.41658 0.0
H1264 H 0.26953 0.71011 0.43274 0.0
H1265 H 0.31661 0.65488 0.47451 0.0
C1266 C 0.40727 0.69958 0.43413 0.0
C1267 C 0.4157 0.71866 0.41634 0.0
C1268 C 0.39676 0.73501 0.40518 0.0
C1269 C 0.36984 0.73227 0.41131 0.0
C1270 C 0.36215 0.71307 0.4286 0.0
C1271 C 0.38023 0.69699 0.43989 0.0
C1272 C 0.36643 0.67695 0.4567 0.0
C1273 C 0.37173 0.64903 0.44658 0.0
C1274 C 0.37468 0.68071 0.48538 0.0
C1275 C 0.33775 0.68406 0.45272 0.0
C1276 C 0.33583 0.7051 0.43662 0.0
C1277 C 0.31151 0.71483 0.42935 0.0
C1278 C 0.28844 0.70261 0.43862 0.0
C1279 C 0.28979 0.68078 0.45493 0.0
C1280 C 0.31487 0.67159 0.46222 0.0
H1281 H 0.83228 0.55485 0.83085 0.0
H1282 H 0.77149 0.49552 0.81506 0.0
H1283 H 0.74517 0.51271 0.85234 0.0
H1284 H 0.82894 0.55589 0.89959 0.0
H1285 H 0.83355 0.59078 0.90307 0.0
H1286 H 0.84718 0.57363 0.87531 0.0
H1287 H 0.82201 0.60367 0.84441 0.0
H1288 H 0.80828 0.62093 0.8721 0.0
H1289 H 0.7866 0.60649 0.84758 0.0
H1290 H 0.72778 0.53456 0.89413 0.0
H1291 H 0.71865 0.56186 0.93365 0.0
H1292 H 0.78889 0.60913 0.91829 0.0
C1293 C 0.81341 0.5455 0.83526 0.0
C1294 C 0.80394 0.52374 0.82042 0.0
C1295 C 0.779 0.51222 0.82636 0.0
C1296 C 0.764 0.52182 0.84746 0.0
C1297 C 0.77402 0.54329 0.86187 0.0
C1298 C 0.79795 0.55524 0.85568 0.0
C1299 C 0.80414 0.57837 0.87365 0.0
C1300 C 0.82998 0.57441 0.8888 0.0
C1301 C 0.80532 0.60387 0.85853 0.0
C1302 C 0.78025 0.57732 0.89135 0.0
C1303 C 0.76317 0.55682 0.8845 0.0
C1304 C 0.74075 0.55096 0.89934 0.0
C1305 C 0.73573 0.56647 0.92173 0.0
C1306 C 0.75281 0.5878 0.92862 0.0
C1307 C 0.77514 0.59333 0.91306 0.0
H1308 H 0.64129 0.51805 0.13809 0.0
H1309 H 0.69171 0.53235 0.20571 0.0
H1310 H 0.72235 0.55856 0.17912 0.0
H1311 H 0.69574 0.51473 0.08938 0.0
H1312 H 0.67662 0.53097 0.06527 0.0
H1313 H 0.66016 0.51085 0.08886 0.0
H1314 H 0.63101 0.54978 0.10288 0.0
H1315 H 0.64748 0.57005 0.07954 0.0
H1316 H 0.64671 0.58019 0.1134 0.0
H1317 H 0.74425 0.58753 0.14719 0.0
H1318 H 0.75782 0.61534 0.11088 0.0
H1319 H 0.69436 0.58125 0.06326 0.0
C1320 C 0.65905 0.52622 0.14721 0.0
C1321 C 0.66405 0.52312 0.17403 0.0
C1322 C 0.68743 0.53436 0.18522 0.0
C1323 C 0.705 0.54928 0.17027 0.0
C1324 C 0.69909 0.55252 0.1441 0.0
C1325 C 0.67689 0.54105 0.13253 0.0
C1326 C 0.67441 0.5488 0.10439 0.0
C1327 C 0.67689 0.52491 0.08588 0.0
C1328 C 0.64836 0.56306 0.0998 0.0
C1329 C 0.69821 0.56712 0.10222 0.0
C1330 C 0.71221 0.56887 0.12534 0.0
C1331 C 0.73377 0.58599 0.12883 0.0
C1332 C 0.74121 0.60181 0.10815 0.0
C1333 C 0.72722 0.6003 0.08425 0.0
C1334 C 0.70567 0.58246 0.08117 0.0
H1335 H 0.74416 0.40781 0.39137 0.0
H1336 H 0.71665 0.45725 0.45527 0.0
H1337 H 0.69488 0.48549 0.42397 0.0
H1338 H 0.755 0.46196 0.34428 0.0
H1339 H 0.744 0.44144 0.31719 0.0
H1340 H 0.76046 0.42732 0.3444 0.0
H1341 H 0.72055 0.39533 0.35015 0.0
H1342 H 0.70388 0.40946 0.32321 0.0
H1343 H 0.68781 0.40816 0.35451 0.0
H1344 H 0.66958 0.50341 0.38662 0.0
H1345 H 0.64673 0.51249 0.34528 0.0
H1346 H 0.69325 0.45354 0.30548 0.0
C1347 C 0.7342 0.425 0.39872 0.0
C1348 C 0.73211 0.43034 0.42573 0.0
C1349 C 0.71867 0.45287 0.43463 0.0
C1350 C 0.70619 0.46902 0.417 0.0
C1351 C 0.70783 0.4627 0.39052 0.0
C1352 C 0.72199 0.44155 0.38136 0.0
C1353 C 0.71941 0.43812 0.3521 0.0
C1354 C 0.74632 0.44248 0.3387 0.0
C1355 C 0.70718 0.41118 0.34457 0.0
C1356 C 0.70064 0.45988 0.34641 0.0
C1357 C 0.6942 0.47389 0.36881 0.0
C1358 C 0.67502 0.49309 0.36883 0.0
C1359 C 0.66206 0.49803 0.34535 0.0
C1360 C 0.6686 0.48403 0.32222 0.0
C1361 C 0.68841 0.46503 0.32276 0.0
H1362 H 0.84662 0.46568 0.64484 0.0
H1363 H 0.78944 0.44725 0.70518 0.0
H1364 H 0.7607 0.42494 0.67233 0.0
H1365 H 0.79732 0.47682 0.59326 0.0
H1366 H 0.81787 0.46253 0.56821 0.0
H1367 H 0.8329 0.47891 0.59614 0.0
H1368 H 0.85902 0.43727 0.60576 0.0
H1369 H 0.84403 0.42075 0.57797 0.0
H1370 H 0.84123 0.40674 0.6097 0.0
H1371 H 0.74108 0.40007 0.63421 0.0
H1372 H 0.7302 0.3771 0.59253 0.0
H1373 H 0.79858 0.41395 0.55643 0.0
C1374 C 0.82788 0.45728 0.65109 0.0
C1375 C 0.82029 0.45815 0.67758 0.0
C1376 C 0.79561 0.44693 0.68498 0.0
C1377 C 0.77915 0.4342 0.66647 0.0
C1378 C 0.78746 0.43327 0.64061 0.0
C1379 C 0.81104 0.44484 0.63283 0.0
C1380 C 0.81578 0.44028 0.60397 0.0
C1381 C 0.81597 0.46618 0.58954 0.0
C1382 C 0.84153 0.42537 0.59908 0.0
C1383 C 0.79159 0.42362 0.5969 0.0
C1384 C 0.77551 0.41981 0.61833 0.0
C1385 C 0.7532 0.40334 0.61716 0.0
C1386 C 0.74725 0.3903 0.59349 0.0
C1387 C 0.76338 0.39408 0.5713 0.0
C1388 C 0.78559 0.41123 0.57298 0.0
H1389 H 0.4269 0.05422 0.21898 0.0
H1390 H 0.37108 0.09268 0.27056 0.0
H1391 H 0.38733 0.13573 0.25569 0.0
H1392 H 0.48081 0.10279 0.22362 0.0
H1393 H 0.48894 0.09961 0.18953 0.0
H1394 H 0.47495 0.07214 0.20633 0.0
H1395 H 0.43713 0.06812 0.17226 0.0
H1396 H 0.45095 0.09558 0.15541 0.0
H1397 H 0.41703 0.096 0.16638 0.0
H1398 H 0.40944 0.17431 0.23485 0.0
H1399 H 0.43262 0.20568 0.20649 0.0
H1400 H 0.4709 0.14156 0.16574 0.0
C1401 C 0.41849 0.07176 0.22746 0.0
C1402 C 0.3981 0.07037 0.24617 0.0
C1403 C 0.38689 0.09355 0.25632 0.0
C1404 C 0.39604 0.11799 0.24807 0.0
C1405 C 0.41604 0.11875 0.22936 0.0
C1406 C 0.42691 0.09624 0.21895 0.0
C1407 C 0.44645 0.10228 0.19747 0.0
C1408 C 0.47445 0.0937 0.20468 0.0
C1409 C 0.43733 0.08976 0.17134 0.0
C1410 C 0.44479 0.1317 0.19733 0.0
C1411 C 0.42752 0.14085 0.21619 0.0
C1412 C 0.42295 0.16739 0.21996 0.0
C1413 C 0.43621 0.18502 0.20383 0.0
C1414 C 0.45334 0.17594 0.1839 0.0
C1415 C 0.45771 0.14896 0.18071 0.0
H1416 H 0.00785 0.82166 0.67335 0.0
H1417 H 0.07535 0.79884 0.62643 0.0
H1418 H 0.10254 0.83415 0.64729 0.0
H1419 H 0.01923 0.88934 0.66733 0.0
H1420 H 0.00861 0.89831 0.6998 0.0
H1421 H -0.00475 0.86918 0.68393 0.0
H1422 H 0.01038 0.84168 0.72259 0.0
H1423 H 0.02369 0.87078 0.73865 0.0
H1424 H 0.04462 0.84322 0.73259 0.0
H1425 H 0.12177 0.87255 0.67136 0.0
H1426 H 0.1315 0.91388 0.69533 0.0
H1427 H 0.0508 0.91436 0.72471 0.0
C1428 C 0.02852 0.82383 0.66801 0.0
C1429 C 0.03976 0.80744 0.64864 0.0
C1430 C 0.06657 0.8112 0.6414 0.0
C1431 C 0.08215 0.8311 0.65318 0.0
C1432 C 0.07045 0.84728 0.67189 0.0
C1433 C 0.04423 0.84406 0.67918 0.0
C1434 C 0.03599 0.86572 0.69799 0.0
C1435 C 0.01344 0.88157 0.68657 0.0
C1436 C 0.02822 0.85468 0.72453 0.0
C1437 C 0.06158 0.88172 0.69982 0.0
C1438 C 0.08127 0.87042 0.68493 0.0
C1439 C 0.10656 0.88158 0.68317 0.0
C1440 C 0.11188 0.90507 0.69686 0.0
C1441 C 0.09189 0.91737 0.71182 0.0
C1442 C 0.06645 0.90542 0.71339 0.0
H1443 H 0.44433 0.82771 0.34349 0.0
H1444 H 0.48723 0.79209 0.27897 0.0
H1445 H 0.47622 0.8292 0.25151 0.0
H1446 H 0.39122 0.85285 0.30474 0.0
H1447 H 0.38854 0.88233 0.32441 0.0
H1448 H 0.39969 0.85285 0.33883 0.0
H1449 H 0.44242 0.87721 0.35486 0.0
H1450 H 0.43145 0.90672 0.34042 0.0
H1451 H 0.46325 0.89373 0.33169 0.0
H1452 H 0.46207 0.87106 0.23175 0.0
H1453 H 0.44365 0.91349 0.22027 0.0
H1454 H 0.40876 0.92082 0.29735 0.0
C1455 C 0.45135 0.82767 0.32356 0.0
C1456 C 0.4667 0.80708 0.31335 0.0
C1457 C 0.4754 0.80766 0.28715 0.0
C1458 C 0.4693 0.82866 0.27143 0.0
C1459 C 0.45429 0.84875 0.28217 0.0
C1460 C 0.44523 0.84831 0.30755 0.0
C1461 C 0.42929 0.87223 0.31433 0.0
C1462 C 0.40048 0.8646 0.32096 0.0
C1463 C 0.4424 0.88843 0.33664 0.0
C1464 C 0.43101 0.88632 0.28886 0.0
C1465 C 0.4456 0.87252 0.2706 0.0
C1466 C 0.45046 0.88197 0.24583 0.0
C1467 C 0.43999 0.90611 0.23953 0.0
C1468 C 0.42468 0.92042 0.25787 0.0
C1469 C 0.42019 0.91027 0.28282 0.0
H1470 H 0.82772 0.69215 0.01351 0.0
H1471 H 0.83536 0.61233 0.0383 0.0
H1472 H 0.87871 0.62389 0.05802 0.0
H1473 H 0.89848 0.70331 -0.00147 0.0
H1474 H 0.89813 0.73676 0.01026 0.0
H1475 H 0.86857 0.72174 -0.0036 0.0
H1476 H 0.84266 0.73352 0.03852 0.0
H1477 H 0.87212 0.74842 0.05256 0.0
H1478 H 0.85469 0.72287 0.06942 0.0
H1479 H 0.9187 0.64493 0.07879 0.0
H1480 H 0.95456 0.67355 0.09673 0.0
H1481 H 0.92204 0.7393 0.05693 0.0
C1482 C 0.8387 0.67702 0.02275 0.0
C1483 C 0.82818 0.65136 0.02443 0.0
C1484 C 0.84308 0.63211 0.03675 0.0
C1485 C 0.86771 0.63847 0.04802 0.0
C1486 C 0.87728 0.66407 0.04649 0.0
C1487 C 0.86344 0.68297 0.03389 0.0
C1488 C 0.87781 0.7092 0.03573 0.0
C1489 C 0.88625 0.71828 0.00861 0.0
C1490 C 0.86081 0.7297 0.04991 0.0
C1491 C 0.90156 0.70221 0.05189 0.0
C1492 C 0.90085 0.67607 0.05788 0.0
C1493 C 0.91973 0.66534 0.07392 0.0
C1494 C 0.93991 0.68177 0.08411 0.0
C1495 C 0.94115 0.70856 0.07805 0.0
C1496 C 0.92181 0.7188 0.06155 0.0
H1497 H 0.58728 0.30101 0.58859 0.0
H1498 H 0.56593 0.23809 0.53399 0.0
H1499 H 0.60222 0.25215 0.50466 0.0
H1500 H 0.59937 0.34803 0.54073 0.0
H1501 H 0.62647 0.36418 0.55791 0.0
H1502 H 0.60075 0.3476 0.57578 0.0
H1503 H 0.63578 0.31947 0.5981 0.0
H1504 H 0.66165 0.33622 0.58057 0.0
H1505 H 0.6587 0.30112 0.57831 0.0
H1506 H 0.64093 0.27341 0.48143 0.0
H1507 H 0.67788 0.30129 0.46533 0.0
H1508 H 0.67046 0.35237 0.5335 0.0
C1509 C 0.59065 0.28986 0.57073 0.0
C1510 C 0.57424 0.26822 0.56365 0.0
C1511 C 0.5786 0.25457 0.53978 0.0
C1512 C 0.59907 0.26242 0.52304 0.0
C1513 C 0.61461 0.28421 0.53035 0.0
C1514 C 0.61053 0.2978 0.55357 0.0
C1515 C 0.62874 0.32154 0.55613 0.0
C1516 C 0.61288 0.34683 0.55772 0.0
C1517 C 0.64732 0.31945 0.57967 0.0
C1518 C 0.64375 0.31918 0.53073 0.0
C1519 C 0.63558 0.29737 0.51625 0.0
C1520 C 0.64734 0.29066 0.4925 0.0
C1521 C 0.6682 0.30658 0.48348 0.0
C1522 C 0.67659 0.32912 0.49798 0.0
C1523 C 0.66401 0.33556 0.52174 0.0
H1524 H 0.17682 0.38329 0.05541 0.0
H1525 H 0.25279 0.42323 0.04582 0.0
H1526 H 0.24285 0.45222 0.08362 0.0
H1527 H 0.13984 0.44136 0.07531 0.0
H1528 H 0.11973 0.42365 0.09817 0.0
H1529 H 0.13224 0.40718 0.06943 0.0
H1530 H 0.15395 0.3728 0.09822 0.0
H1531 H 0.14159 0.38918 0.12701 0.0
H1532 H 0.17656 0.38351 0.12368 0.0
H1533 H 0.2263 0.47402 0.12502 0.0
H1534 H 0.20325 0.48854 0.16524 0.0
H1535 H 0.1374 0.43564 0.14623 0.0
C1536 C 0.19127 0.3983 0.06106 0.0
C1537 C 0.21561 0.40095 0.04769 0.0
C1538 C 0.23396 0.42089 0.05571 0.0
C1539 C 0.22851 0.43743 0.07717 0.0
C1540 C 0.20448 0.43402 0.09015 0.0
C1541 C 0.18603 0.41514 0.0822 0.0
C1542 C 0.16198 0.41505 0.09982 0.0
C1543 C 0.13697 0.42224 0.08478 0.0
C1544 C 0.15833 0.38857 0.11296 0.0
C1545 C 0.17004 0.4364 0.11931 0.0
C1546 C 0.19461 0.44713 0.11343 0.0
C1547 C 0.20687 0.46606 0.12959 0.0
C1548 C 0.19369 0.47412 0.15239 0.0
C1549 C 0.16847 0.4634 0.15868 0.0
C1550 C 0.15646 0.44452 0.14171 0.0
H1551 H 0.31479 0.49594 0.83065 0.0
H1552 H 0.37791 0.44788 0.79982 0.0
H1553 H 0.37156 0.41779 0.83625 0.0
H1554 H 0.32995 0.48758 0.89952 0.0
H1555 H 0.2955 0.48686 0.90879 0.0
H1556 H 0.30619 0.50535 0.88119 0.0
H1557 H 0.27208 0.47994 0.85193 0.0
H1558 H 0.26128 0.46144 0.8794 0.0
H1559 H 0.27257 0.44477 0.85024 0.0
H1560 H 0.3557 0.39112 0.87413 0.0
H1561 H 0.33224 0.37057 0.91085 0.0
H1562 H 0.28072 0.43709 0.91742 0.0
C1563 C 0.32746 0.47922 0.83162 0.0
C1564 C 0.34682 0.47424 0.81232 0.0
C1565 C 0.36299 0.45213 0.81439 0.0
C1566 C 0.35955 0.43495 0.83503 0.0
C1567 C 0.34009 0.44033 0.85356 0.0
C1568 C 0.32446 0.46204 0.85214 0.0
C1569 C 0.30437 0.46302 0.874 0.0
C1570 C 0.30931 0.48713 0.89194 0.0
C1571 C 0.2759 0.46223 0.86324 0.0
C1572 C 0.31068 0.43813 0.88765 0.0
C1573 C 0.33141 0.42534 0.87565 0.0
C1574 C 0.3397 0.40114 0.88389 0.0
C1575 C 0.32625 0.38961 0.90473 0.0
C1576 C 0.30484 0.40235 0.91712 0.0
C1577 C 0.29731 0.42709 0.90864 0.0
H1578 H 0.30259 0.60596 0.57053 0.0
H1579 H 0.24256 0.54491 0.55848 0.0
H1580 H 0.25963 0.52179 0.59623 0.0
H1581 H 0.355 0.56222 0.5891 0.0
H1582 H 0.3691 0.585 0.61287 0.0
H1583 H 0.35217 0.59685 0.58484 0.0
H1584 H 0.32107 0.62338 0.61514 0.0
H1585 H 0.33781 0.61151 0.64326 0.0
H1586 H 0.30246 0.60685 0.63999 0.0
H1587 H 0.28107 0.50681 0.63687 0.0
H1588 H 0.30868 0.49846 0.67533 0.0
H1589 H 0.357 0.56726 0.65942 0.0
C1590 C 0.29315 0.58767 0.5758 0.0
C1591 C 0.27119 0.57726 0.56165 0.0
C1592 C 0.25946 0.55319 0.56899 0.0
C1593 C 0.26895 0.53996 0.59047 0.0
C1594 C 0.29045 0.55082 0.60416 0.0
C1595 C 0.30271 0.5739 0.59694 0.0
C1596 C 0.32587 0.58098 0.61474 0.0
C1597 C 0.35209 0.58127 0.59947 0.0
C1598 C 0.32152 0.60724 0.62913 0.0
C1599 C 0.32444 0.55845 0.63326 0.0
C1600 C 0.30368 0.54144 0.62694 0.0
C1601 C 0.29759 0.5198 0.64185 0.0
C1602 C 0.31328 0.51528 0.6637 0.0
C1603 C 0.33504 0.53209 0.67017 0.0
C1604 C 0.34067 0.55391 0.6547 0.0
H1605 H 0.15625 0.52965 0.30814 0.0
H1606 H 0.21271 0.46808 0.31861 0.0
H1607 H 0.22635 0.48849 0.36073 0.0
H1608 H 0.19733 0.58139 0.33385 0.0
H1609 H 0.17047 0.59852 0.34927 0.0
H1610 H 0.16431 0.57834 0.32061 0.0
H1611 H 0.12832 0.5521 0.34547 0.0
H1612 H 0.1344 0.5722 0.37423 0.0
H1613 H 0.13674 0.53723 0.37569 0.0
H1614 H 0.23425 0.51608 0.40151 0.0
H1615 H 0.23706 0.54965 0.43686 0.0
H1616 H 0.17603 0.59343 0.39893 0.0
C1617 C 0.17134 0.52031 0.31935 0.0
C1618 C 0.18333 0.49719 0.3101 0.0
C1619 C 0.20323 0.48579 0.32528 0.0
C1620 C 0.21107 0.49719 0.34927 0.0
C1621 C 0.19888 0.52002 0.35775 0.0
C1622 C 0.17952 0.5315 0.3432 0.0
C1623 C 0.17022 0.55651 0.35619 0.0
C1624 C 0.17594 0.58007 0.33895 0.0
C1625 C 0.14067 0.55437 0.36332 0.0
C1626 C 0.18749 0.5574 0.38027 0.0
C1627 C 0.20374 0.5361 0.38093 0.0
C1628 C 0.22158 0.53283 0.40122 0.0
C1629 C 0.223 0.55199 0.42123 0.0
C1630 C 0.2068 0.57422 0.42069 0.0
C1631 C 0.18872 0.57673 0.39996 0.0
loop_
_geom_bond_atom_site_label_1
_geom_bond_atom_site_label_2
_geom_bond_distance
_geom_bond_site_symmetry_2
_ccdc_geom_bond_type
C0 O1 1.306 . S
C0 O3 1.160 . S
O1 C0 1.306 . S
O1 Cd2 2.228 . S
Cd2 O1 2.228 . S
Cd2 O6 2.273 1_655 S
Cd2 O10 2.277 . S
O3 C0 1.160 . S
O3 Cd4 2.203 1_655 S
Cd4 O3 2.203 1_455 S
Cd4 O6 2.411 . S
Cd4 O7 2.333 . S
Cd4 O8 2.352 . S
Cd4 O12 2.277 1_455 S
Cd4 O13 2.356 . S
C5 O10 1.209 . S
C5 O12 1.226 . S
O6 Cd2 2.273 1_455 S
O6 Cd4 2.411 . S
O6 C9 1.320 . S
O7 Cd4 2.333 . S
O7 C9 1.214 . S
O8 Cd4 2.352 . S
O8 C11 1.258 . S
C9 O6 1.320 . S
C9 O7 1.214 . S
O10 Cd2 2.277 . S
O10 C5 1.209 . S
C11 O8 1.258 . S
C11 O13 1.282 . S
O12 Cd4 2.277 1_655 S
O12 C5 1.226 . S
O13 Cd4 2.356 . S
O13 C11 1.282 . S
C14 O15 1.306 . S
C14 O17 1.160 . S
O15 C14 1.306 . S
O15 Cd16 2.228 1_655 S
Cd16 O15 2.228 1_455 S
Cd16 O20 2.273 . S
Cd16 O24 2.277 . S
O17 C14 1.160 . S
O17 Cd18 2.204 . S
Cd18 O17 2.204 . S
Cd18 O20 2.411 1_655 S
Cd18 O21 2.332 1_655 S
Cd18 O22 2.352 . S
Cd18 O26 2.277 1_655 S
Cd18 O27 2.356 . S
C19 O24 1.209 . S
C19 O26 1.226 . S
O20 Cd16 2.273 . S
O20 Cd18 2.411 1_455 S
O20 C23 1.320 . S
O21 Cd18 2.332 1_455 S
O21 C23 1.214 . S
O22 Cd18 2.352 . S
O22 C25 1.258 . S
C23 O20 1.320 . S
C23 O21 1.214 . S
O24 Cd16 2.277 . S
O24 C19 1.209 . S
C25 O22 1.258 . S
C25 O27 1.282 . S
O26 Cd18 2.277 1_455 S
O26 C19 1.226 . S
O27 Cd18 2.356 . S
O27 C25 1.282 . S
C28 O29 1.306 . S
C28 O31 1.160 . S
O29 C28 1.306 . S
O29 Cd30 2.228 . S
Cd30 O29 2.228 . S
Cd30 O34 2.273 . S
Cd30 O38 2.277 . S
O31 C28 1.160 . S
O31 Cd32 2.203 . S
Cd32 O31 2.203 . S
Cd32 O34 2.411 . S
Cd32 O35 2.333 . S
Cd32 O36 2.352 . S
Cd32 O40 2.277 . S
Cd32 O41 2.356 . S
C33 O38 1.209 . S
C33 O40 1.226 . S
O34 Cd30 2.273 . S
O34 Cd32 2.411 . S
O34 C37 1.320 . S
O35 Cd32 2.333 . S
O35 C37 1.214 . S
O36 Cd32 2.352 . S
O36 C39 1.258 . S
C37 O34 1.320 . S
C37 O35 1.214 . S
O38 Cd30 2.277 . S
O38 C33 1.209 . S
C39 O36 1.258 . S
C39 O41 1.282 . S
O40 Cd32 2.277 . S
O40 C33 1.226 . S
O41 Cd32 2.356 . S
O41 C39 1.282 . S
C42 O43 1.306 . S
C42 O45 1.160 . S
O43 C42 1.306 . S
O43 Cd44 2.228 . S
Cd44 O43 2.228 . S
Cd44 O48 2.273 . S
Cd44 O52 2.277 . S
O45 C42 1.160 . S
O45 Cd46 2.203 . S
Cd46 O45 2.203 . S
Cd46 O48 2.411 . S
Cd46 O49 2.333 . S
Cd46 O50 2.352 . S
Cd46 O54 2.277 . S
Cd46 O55 2.356 . S
C47 O52 1.209 . S
C47 O54 1.226 . S
O48 Cd44 2.273 . S
O48 Cd46 2.411 . S
O48 C51 1.320 . S
O49 Cd46 2.333 . S
O49 C51 1.214 . S
O50 Cd46 2.352 . S
O50 C53 1.258 . S
C51 O48 1.320 . S
C51 O49 1.214 . S
O52 Cd44 2.277 . S
O52 C47 1.209 . S
C53 O50 1.258 . S
C53 O55 1.282 . S
O54 Cd46 2.277 . S
O54 C47 1.226 . S
O55 Cd46 2.356 . S
O55 C53 1.282 . S
C56 O57 1.306 . S
C56 O59 1.160 . S
O57 C56 1.306 . S
O57 Cd58 2.228 . S
Cd58 O57 2.228 . S
Cd58 O62 2.273 1_655 S
Cd58 O66 2.277 . S
O59 C56 1.160 . S
O59 Cd60 2.203 1_655 S
Cd60 O59 2.203 1_455 S
Cd60 O62 2.411 . S
Cd60 O63 2.333 . S
Cd60 O64 2.352 . S
Cd60 O68 2.277 1_455 S
Cd60 O69 2.356 . S
C61 O66 1.209 . S
C61 O68 1.226 . S
O62 Cd58 2.273 1_455 S
O62 Cd60 2.411 . S
O62 C65 1.320 . S
O63 Cd60 2.333 . S
O63 C65 1.214 . S
O64 Cd60 2.352 . S
O64 C67 1.258 . S
C65 O62 1.320 . S
C65 O63 1.214 . S
O66 Cd58 2.277 . S
O66 C61 1.209 . S
C67 O64 1.258 . S
C67 O69 1.282 . S
O68 Cd60 2.277 1_655 S
O68 C61 1.226 . S
O69 Cd60 2.356 . S
O69 C67 1.282 . S
C70 O71 1.306 . S
C70 O73 1.160 . S
O71 C70 1.306 . S
O71 Cd72 2.228 . S
Cd72 O71 2.228 . S
Cd72 O76 2.273 . S
Cd72 O80 2.277 . S
O73 C70 1.160 . S
O73 Cd74 2.203 . S
Cd74 O73 2.203 . S
Cd74 O76 2.411 . S
Cd74 O77 2.333 . S
Cd74 O78 2.352 . S
Cd74 O82 2.277 . S
Cd74 O83 2.356 . S
C75 O80 1.209 . S
C75 O82 1.226 . S
O76 Cd72 2.273 . S
O76 Cd74 2.411 . S
O76 C79 1.320 . S
O77 Cd74 2.333 . S
O77 C79 1.214 . S
O78 Cd74 2.352 . S
O78 C81 1.258 . S
C79 O76 1.320 . S
C79 O77 1.214 . S
O80 Cd72 2.277 . S
O80 C75 1.209 . S
C81 O78 1.258 . S
C81 O83 1.282 . S
O82 Cd74 2.277 . S
O82 C75 1.226 . S
O83 Cd74 2.356 . S
O83 C81 1.282 . S
C84 O85 1.306 . S
C84 O87 1.160 . S
O85 C84 1.306 . S
O85 Cd86 2.228 . S
Cd86 O85 2.228 . S
Cd86 O90 2.273 . S
Cd86 O94 2.277 . S
O87 C84 1.160 . S
O87 Cd88 2.203 . S
Cd88 O87 2.203 . S
Cd88 O90 2.411 . S
Cd88 O91 2.333 . S
Cd88 O92 2.352 . S
Cd88 O96 2.277 . S
Cd88 O97 2.356 . S
C89 O94 1.209 . S
C89 O96 1.226 . S
O90 Cd86 2.273 . S
O90 Cd88 2.411 . S
O90 C93 1.320 . S
O91 Cd88 2.333 . S
O91 C93 1.214 . S
O92 Cd88 2.352 . S
O92 C95 1.258 . S
C93 O90 1.320 . S
C93 O91 1.214 . S
O94 Cd86 2.277 . S
O94 C89 1.209 . S
C95 O92 1.258 . S
C95 O97 1.282 . S
O96 Cd88 2.277 . S
O96 C89 1.226 . S
O97 Cd88 2.356 . S
O97 C95 1.282 . S
C98 O99 1.306 . S
C98 O101 1.160 . S
O99 C98 1.306 . S
O99 Cd100 2.228 1_655 S
Cd100 O99 2.228 1_455 S
Cd100 O104 2.273 . S
Cd100 O108 2.277 . S
O101 C98 1.160 . S
O101 Cd102 2.206 1_655 S
Cd102 O101 2.206 1_455 S
Cd102 O104 2.409 . S
Cd102 O105 2.329 . S
Cd102 O106 2.353 1_455 S
Cd102 O110 2.276 . S
Cd102 O111 2.357 1_455 S
C103 O108 1.209 . S
C103 O110 1.226 . S
O104 Cd100 2.273 . S
O104 Cd102 2.409 . S
O104 C107 1.320 . S
O105 Cd102 2.329 . S
O105 C107 1.214 . S
O106 Cd102 2.353 1_655 S
O106 C109 1.258 . S
C107 O104 1.320 . S
C107 O105 1.214 . S
O108 Cd100 2.277 . S
O108 C103 1.209 . S
C109 O106 1.258 . S
C109 O111 1.282 . S
O110 Cd102 2.276 . S
O110 C103 1.226 . S
O111 Cd102 2.357 1_655 S
O111 C109 1.282 . S
C112 O113 1.306 . S
C112 O115 1.160 . S
O113 C112 1.306 . S
O113 Cd114 2.228 . S
Cd114 O113 2.228 . S
Cd114 O118 2.273 1_565 S
Cd114 O122 2.277 . S
O115 C112 1.160 . S
O115 Cd116 2.203 1_565 S
Cd116 O115 2.203 1_545 S
Cd116 O118 2.411 . S
Cd116 O119 2.333 . S
Cd116 O120 2.352 . S
Cd116 O124 2.277 1_545 S
Cd116 O125 2.356 . S
C117 O122 1.209 . S
C117 O124 1.226 . S
O118 Cd114 2.273 1_545 S
O118 Cd116 2.411 . S
O118 C121 1.320 . S
O119 Cd116 2.333 . S
O119 C121 1.214 . S
O120 Cd116 2.352 . S
O120 C123 1.258 . S
C121 O118 1.320 . S
C121 O119 1.214 . S
O122 Cd114 2.277 . S
O122 C117 1.209 . S
C123 O120 1.258 . S
C123 O125 1.282 . S
O124 Cd116 2.277 1_565 S
O124 C117 1.226 . S
O125 Cd116 2.356 . S
O125 C123 1.282 . S
C126 O127 1.306 . S
C126 O129 1.160 . S
O127 C126 1.306 . S
O127 Cd128 2.228 . S
Cd128 O127 2.228 . S
Cd128 O132 2.273 . S
Cd128 O136 2.277 . S
O129 C126 1.160 . S
O129 Cd130 2.203 . S
Cd130 O129 2.203 . S
Cd130 O132 2.411 . S
Cd130 O133 2.333 . S
Cd130 O134 2.352 . S
Cd130 O138 2.277 . S
Cd130 O139 2.356 . S
C131 O136 1.209 . S
C131 O138 1.226 . S
O132 Cd128 2.273 . S
O132 Cd130 2.411 . S
O132 C135 1.320 . S
O133 Cd130 2.333 . S
O133 C135 1.214 . S
O134 Cd130 2.352 . S
O134 C137 1.258 . S
C135 O132 1.320 . S
C135 O133 1.214 . S
O136 Cd128 2.277 . S
O136 C131 1.209 . S
C137 O134 1.258 . S
C137 O139 1.282 . S
O138 Cd130 2.277 . S
O138 C131 1.226 . S
O139 Cd130 2.356 . S
O139 C137 1.282 . S
C140 O141 1.306 . S
C140 O143 1.160 . S
O141 C140 1.306 . S
O141 Cd142 2.228 . S
Cd142 O141 2.228 . S
Cd142 O146 2.273 1_545 S
Cd142 O150 2.277 . S
O143 C140 1.160 . S
O143 Cd144 2.203 . S
Cd144 O143 2.203 . S
Cd144 O146 2.411 1_545 S
Cd144 O147 2.333 1_545 S
Cd144 O148 2.352 1_545 S
Cd144 O152 2.277 . S
Cd144 O153 2.356 1_545 S
C145 O150 1.209 . S
C145 O152 1.226 . S
O146 Cd142 2.273 1_565 S
O146 Cd144 2.411 1_565 S
O146 C149 1.320 . S
O147 Cd144 2.333 1_565 S
O147 C149 1.214 . S
O148 Cd144 2.352 1_565 S
O148 C151 1.258 . S
C149 O146 1.320 . S
C149 O147 1.214 . S
O150 Cd142 2.277 . S
O150 C145 1.209 . S
C151 O148 1.258 . S
C151 O153 1.282 . S
O152 Cd144 2.277 . S
O152 C145 1.226 . S
O153 Cd144 2.356 1_565 S
O153 C151 1.282 . S
C154 O155 1.306 1_556 S
C154 O157 1.160 . S
O155 C154 1.306 1_554 S
O155 Cd156 2.228 . S
Cd156 O155 2.228 . S
Cd156 O160 2.273 . S
Cd156 O164 2.277 . S
O157 C154 1.160 . S
O157 Cd158 2.203 1_556 S
Cd158 O157 2.203 1_554 S
Cd158 O160 2.411 . S
Cd158 O161 2.333 . S
Cd158 O162 2.352 1_554 S
Cd158 O166 2.277 . S
Cd158 O167 2.356 1_554 S
C159 O164 1.209 . S
C159 O166 1.226 . S
O160 Cd156 2.273 . S
O160 Cd158 2.411 . S
O160 C163 1.320 . S
O161 Cd158 2.333 . S
O161 C163 1.214 . S
O162 Cd158 2.352 1_556 S
O162 C165 1.258 . S
C163 O160 1.320 . S
C163 O161 1.214 . S
O164 Cd156 2.277 . S
O164 C159 1.209 . S
C165 O162 1.258 . S
C165 O167 1.282 . S
O166 Cd158 2.277 . S
O166 C159 1.226 . S
O167 Cd158 2.356 1_556 S
O167 C165 1.282 . S
C168 O169 1.306 . S
C168 O171 1.160 . S
O169 C168 1.306 . S
O169 Cd170 2.228 . S
Cd170 O169 2.228 . S
Cd170 O174 2.273 1_554 S
Cd170 O178 2.277 . S
O171 C168 1.160 . S
O171 Cd172 2.203 . S
Cd172 O171 2.203 . S
Cd172 O174 2.411 1_554 S
Cd172 O175 2.333 1_554 S
Cd172 O176 2.352 1_554 S
Cd172 O180 2.277 . S
Cd172 O181 2.356 1_554 S
C173 O178 1.209 . S
C173 O180 1.226 . S
O174 Cd170 2.273 1_556 S
O174 Cd172 2.411 1_556 S
O174 C177 1.320 . S
O175 Cd172 2.333 1_556 S
O175 C177 1.214 . S
O176 Cd172 2.352 1_556 S
O176 C179 1.258 . S
C177 O174 1.320 . S
C177 O175 1.214 . S
O178 Cd170 2.277 . S
O178 C173 1.209 . S
C179 O176 1.258 . S
C179 O181 1.282 . S
O180 Cd172 2.277 . S
O180 C173 1.226 . S
O181 Cd172 2.356 1_556 S
O181 C179 1.282 . S
C182 O183 1.306 . S
C182 O185 1.160 . S
O183 C182 1.306 . S
O183 Cd184 2.228 . S
Cd184 O183 2.228 . S
Cd184 O188 2.273 1_556 S
Cd184 O192 2.277 . S
O185 C182 1.160 . S
O185 Cd186 2.203 1_556 S
Cd186 O185 2.203 1_554 S
Cd186 O188 2.411 . S
Cd186 O189 2.333 . S
Cd186 O190 2.352 . S
Cd186 O194 2.277 1_554 S
Cd186 O195 2.356 . S
C187 O192 1.209 . S
C187 O194 1.226 . S
O188 Cd184 2.273 1_554 S
O188 Cd186 2.411 . S
O188 C191 1.320 . S
O189 Cd186 2.333 . S
O189 C191 1.214 . S
O190 Cd186 2.352 . S
O190 C193 1.258 . S
C191 O188 1.320 . S
C191 O189 1.214 . S
O192 Cd184 2.277 . S
O192 C187 1.209 . S
C193 O190 1.258 . S
C193 O195 1.282 . S
O194 Cd186 2.277 1_556 S
O194 C187 1.226 . S
O195 Cd186 2.356 . S
O195 C193 1.282 . S
C196 O197 1.306 . S
C196 O199 1.160 . S
O197 C196 1.306 . S
O197 Cd198 2.228 . S
Cd198 O197 2.228 . S
Cd198 O202 2.273 . S
Cd198 O206 2.277 . S
O199 C196 1.160 . S
O199 Cd200 2.203 . S
Cd200 O199 2.203 . S
Cd200 O202 2.411 . S
Cd200 O203 2.333 . S
Cd200 O204 2.352 . S
Cd200 O208 2.277 . S
Cd200 O209 2.356 . S
C201 O206 1.209 . S
C201 O208 1.226 . S
O202 Cd198 2.273 . S
O202 Cd200 2.411 . S
O202 C205 1.320 . S
O203 Cd200 2.333 . S
O203 C205 1.214 . S
O204 Cd200 2.352 . S
O204 C207 1.258 . S
C205 O202 1.320 . S
C205 O203 1.214 . S
O206 Cd198 2.277 . S
O206 C201 1.209 . S
C207 O204 1.258 . S
C207 O209 1.282 . S
O208 Cd200 2.277 . S
O208 C201 1.226 . S
O209 Cd200 2.356 . S
O209 C207 1.282 . S
C210 O211 1.306 . S
C210 O213 1.160 . S
O211 C210 1.306 . S
O211 Cd212 2.228 . S
Cd212 O211 2.228 . S
Cd212 O216 2.273 . S
Cd212 O220 2.277 . S
O213 C210 1.160 . S
O213 Cd214 2.203 . S
Cd214 O213 2.203 . S
Cd214 O216 2.411 . S
Cd214 O217 2.333 . S
Cd214 O218 2.352 . S
Cd214 O222 2.277 . S
Cd214 O223 2.356 . S
C215 O220 1.209 . S
C215 O222 1.226 . S
O216 Cd212 2.273 . S
O216 Cd214 2.411 . S
O216 C219 1.320 . S
O217 Cd214 2.333 . S
O217 C219 1.214 . S
O218 Cd214 2.352 . S
O218 C221 1.258 . S
C219 O216 1.320 . S
C219 O217 1.214 . S
O220 Cd212 2.277 . S
O220 C215 1.209 . S
C221 O218 1.258 . S
C221 O223 1.282 . S
O222 Cd214 2.277 . S
O222 C215 1.226 . S
O223 Cd214 2.356 . S
O223 C221 1.282 . S
C224 O225 1.306 1_565 S
C224 O227 1.160 . S
O225 C224 1.306 1_545 S
O225 Cd226 2.228 . S
Cd226 O225 2.228 . S
Cd226 O230 2.273 . S
Cd226 O234 2.277 . S
O227 C224 1.160 . S
O227 Cd228 2.189 1_565 S
Cd228 O227 2.189 1_545 S
Cd228 O230 2.423 . S
Cd228 O231 2.349 . S
Cd228 O232 2.321 1_545 S
Cd228 O236 2.300 . S
Cd228 O237 2.338 1_545 S
C229 O234 1.209 . S
C229 O236 1.226 . S
O230 Cd226 2.273 . S
O230 Cd228 2.423 . S
O230 C233 1.320 . S
O231 Cd228 2.349 . S
O231 C233 1.214 . S
O232 Cd228 2.321 1_565 S
O232 C235 1.258 . S
C233 O230 1.320 . S
C233 O231 1.214 . S
O234 Cd226 2.277 . S
O234 C229 1.209 . S
C235 O232 1.258 . S
C235 O237 1.282 . S
O236 Cd228 2.300 . S
O236 C229 1.226 . S
O237 Cd228 2.338 1_565 S
O237 C235 1.282 . S
C238 O239 1.306 . S
C238 O241 1.160 . S
O239 C238 1.306 . S
O239 Cd240 2.228 . S
Cd240 O239 2.228 . S
Cd240 O244 2.273 . S
Cd240 O248 2.277 . S
O241 C238 1.160 . S
O241 Cd242 2.203 . S
Cd242 O241 2.203 . S
Cd242 O244 2.411 . S
Cd242 O245 2.333 . S
Cd242 O246 2.352 . S
Cd242 O250 2.277 . S
Cd242 O251 2.356 . S
C243 O248 1.209 . S
C243 O250 1.226 . S
O244 Cd240 2.273 . S
O244 Cd242 2.411 . S
O244 C247 1.320 . S
O245 Cd242 2.333 . S
O245 C247 1.214 . S
O246 Cd242 2.352 . S
O246 C249 1.258 . S
C247 O244 1.320 . S
C247 O245 1.214 . S
O248 Cd240 2.277 . S
O248 C243 1.209 . S
C249 O246 1.258 . S
C249 O251 1.282 . S
O250 Cd242 2.277 . S
O250 C243 1.226 . S
O251 Cd242 2.356 . S
O251 C249 1.282 . S
C252 O253 1.306 . S
C252 O255 1.160 . S
O253 C252 1.306 . S
O253 Cd254 2.228 . S
Cd254 O253 2.228 . S
Cd254 O258 2.273 . S
Cd254 O262 2.277 . S
O255 C252 1.160 . S
O255 Cd256 2.203 . S
Cd256 O255 2.203 . S
Cd256 O258 2.411 . S
Cd256 O259 2.333 . S
Cd256 O260 2.352 . S
Cd256 O264 2.277 . S
Cd256 O265 2.356 . S
C257 O262 1.209 . S
C257 O264 1.226 . S
O258 Cd254 2.273 . S
O258 Cd256 2.411 . S
O258 C261 1.320 . S
O259 Cd256 2.333 . S
O259 C261 1.214 . S
O260 Cd256 2.352 . S
O260 C263 1.258 . S
C261 O258 1.320 . S
C261 O259 1.214 . S
O262 Cd254 2.277 . S
O262 C257 1.209 . S
C263 O260 1.258 . S
C263 O265 1.282 . S
O264 Cd256 2.277 . S
O264 C257 1.226 . S
O265 Cd256 2.356 . S
O265 C263 1.282 . S
C266 O267 1.306 . S
C266 O269 1.160 . S
O267 C266 1.306 . S
O267 Cd268 2.228 1_545 S
Cd268 O267 2.228 1_565 S
Cd268 O272 2.273 . S
Cd268 O276 2.277 . S
O269 C266 1.160 . S
O269 Cd270 2.203 . S
Cd270 O269 2.203 . S
Cd270 O272 2.411 1_545 S
Cd270 O273 2.333 1_545 S
Cd270 O274 2.352 . S
Cd270 O278 2.277 1_545 S
Cd270 O279 2.356 . S
C271 O276 1.209 . S
C271 O278 1.226 . S
O272 Cd268 2.273 . S
O272 Cd270 2.411 1_565 S
O272 C275 1.320 . S
O273 Cd270 2.333 1_565 S
O273 C275 1.214 . S
O274 Cd270 2.352 . S
O274 C277 1.258 . S
C275 O272 1.320 . S
C275 O273 1.214 . S
O276 Cd268 2.277 . S
O276 C271 1.209 . S
C277 O274 1.258 . S
C277 O279 1.282 . S
O278 Cd270 2.277 1_565 S
O278 C271 1.226 . S
O279 Cd270 2.356 . S
O279 C277 1.282 . S
C280 O281 1.306 1_556 S
C280 O283 1.160 . S
O281 C280 1.306 1_554 S
O281 Cd282 2.228 . S
Cd282 O281 2.228 . S
Cd282 O286 2.273 . S
Cd282 O290 2.277 . S
O283 C280 1.160 . S
O283 Cd284 2.203 1_556 S
Cd284 O283 2.203 1_554 S
Cd284 O286 2.411 . S
Cd284 O287 2.333 . S
Cd284 O288 2.352 1_554 S
Cd284 O292 2.277 . S
Cd284 O293 2.356 1_554 S
C285 O290 1.209 . S
C285 O292 1.226 . S
O286 Cd282 2.273 . S
O286 Cd284 2.411 . S
O286 C289 1.320 . S
O287 Cd284 2.333 . S
O287 C289 1.214 . S
O288 Cd284 2.352 1_556 S
O288 C291 1.258 . S
C289 O286 1.320 . S
C289 O287 1.214 . S
O290 Cd282 2.277 . S
O290 C285 1.209 . S
C291 O288 1.258 . S
C291 O293 1.282 . S
O292 Cd284 2.277 . S
O292 C285 1.226 . S
O293 Cd284 2.356 1_556 S
O293 C291 1.282 . S
C294 O295 1.306 . S
C294 O297 1.160 . S
O295 C294 1.306 . S
O295 Cd296 2.228 . S
Cd296 O295 2.228 . S
Cd296 O300 2.273 . S
Cd296 O304 2.277 . S
O297 C294 1.160 . S
O297 Cd298 2.203 . S
Cd298 O297 2.203 . S
Cd298 O300 2.411 . S
Cd298 O301 2.333 . S
Cd298 O302 2.352 . S
Cd298 O306 2.277 . S
Cd298 O307 2.356 . S
C299 O304 1.209 . S
C299 O306 1.226 . S
O300 Cd296 2.273 . S
O300 Cd298 2.411 . S
O300 C303 1.320 . S
O301 Cd298 2.333 . S
O301 C303 1.214 . S
O302 Cd298 2.352 . S
O302 C305 1.258 . S
C303 O300 1.320 . S
C303 O301 1.214 . S
O304 Cd296 2.277 . S
O304 C299 1.209 . S
C305 O302 1.258 . S
C305 O307 1.282 . S
O306 Cd298 2.277 . S
O306 C299 1.226 . S
O307 Cd298 2.356 . S
O307 C305 1.282 . S
C308 O309 1.306 . S
C308 O311 1.160 . S
O309 C308 1.306 . S
O309 Cd310 2.228 . S
Cd310 O309 2.228 . S
Cd310 O314 2.273 . S
Cd310 O318 2.277 . S
O311 C308 1.160 . S
O311 Cd312 2.203 . S
Cd312 O311 2.203 . S
Cd312 O314 2.411 . S
Cd312 O315 2.333 . S
Cd312 O316 2.352 . S
Cd312 O320 2.277 . S
Cd312 O321 2.356 . S
C313 O318 1.209 . S
C313 O320 1.226 . S
O314 Cd310 2.273 . S
O314 Cd312 2.411 . S
O314 C317 1.320 . S
O315 Cd312 2.333 . S
O315 C317 1.214 . S
O316 Cd312 2.352 . S
O316 C319 1.258 . S
C317 O314 1.320 . S
C317 O315 1.214 . S
O318 Cd310 2.277 . S
O318 C313 1.209 . S
C319 O316 1.258 . S
C319 O321 1.282 . S
O320 Cd312 2.277 . S
O320 C313 1.226 . S
O321 Cd312 2.356 . S
O321 C319 1.282 . S
C322 O323 1.306 . S
C322 O325 1.160 . S
O323 C322 1.306 . S
O323 Cd324 2.228 . S
Cd324 O323 2.228 . S
Cd324 O328 2.273 . S
Cd324 O332 2.277 . S
O325 C322 1.160 . S
O325 Cd326 2.203 . S
Cd326 O325 2.203 . S
Cd326 O328 2.411 . S
Cd326 O329 2.333 . S
Cd326 O330 2.352 . S
Cd326 O334 2.277 . S
Cd326 O335 2.356 . S
C327 O332 1.209 . S
C327 O334 1.226 . S
O328 Cd324 2.273 . S
O328 Cd326 2.411 . S
O328 C331 1.320 . S
O329 Cd326 2.333 . S
O329 C331 1.214 . S
O330 Cd326 2.352 . S
O330 C333 1.258 . S
C331 O328 1.320 . S
C331 O329 1.214 . S
O332 Cd324 2.277 . S
O332 C327 1.209 . S
C333 O330 1.258 . S
C333 O335 1.282 . S
O334 Cd326 2.277 . S
O334 C327 1.226 . S
O335 Cd326 2.356 . S
O335 C333 1.282 . S
H336 C348 0.930 . S
H337 C350 0.930 . S
H338 C351 0.930 . S
H339 C355 0.959 . S
H340 C355 0.959 . S
H341 C355 0.961 . S
H342 C356 0.960 . S
H343 C356 0.961 . S
H344 C356 0.959 . S
H345 C359 0.929 . S
H346 C360 0.931 . S
H347 C362 0.930 . S
C348 H336 0.930 . S
C348 C349 1.399 . S
C348 C353 1.399 . S
C349 C348 1.399 . S
C349 C350 1.376 . S
C350 H337 0.930 . S
C350 C349 1.376 . S
C350 C351 1.388 . S
C351 H338 0.930 . S
C351 C350 1.388 . S
C351 C352 1.390 . S
C352 C351 1.390 . S
C352 C353 1.394 . S
C352 C358 1.465 . S
C353 C348 1.399 . S
C353 C352 1.394 . S
C353 C354 1.516 . S
C354 C353 1.516 . S
C354 C355 1.502 . S
C354 C356 1.561 . S
C354 C357 1.526 . S
C355 H339 0.959 . S
C355 H340 0.959 . S
C355 H341 0.961 . S
C355 C354 1.502 . S
C356 H342 0.960 . S
C356 H343 0.961 . S
C356 H344 0.959 . S
C356 C354 1.561 . S
C357 C354 1.526 . S
C357 C358 1.396 . S
C357 C362 1.390 . S
C358 C352 1.465 . S
C358 C357 1.396 . S
C358 C359 1.399 . S
C359 H345 0.929 . S
C359 C358 1.399 . S
C359 C360 1.385 . S
C360 H346 0.931 . S
C360 C359 1.385 . S
C360 C361 1.389 . S
C361 C360 1.389 . S
C361 C362 1.387 . S
C362 H347 0.930 . S
C362 C357 1.390 . S
C362 C361 1.387 . S
H363 C375 0.930 . S
H364 C377 0.930 . S
H365 C378 0.930 . S
H366 C382 0.959 . S
H367 C382 0.959 . S
H368 C382 0.961 . S
H369 C383 0.960 . S
H370 C383 0.961 . S
H371 C383 0.959 . S
H372 C386 0.929 . S
H373 C387 0.931 . S
H374 C389 0.930 . S
C375 H363 0.930 . S
C375 C376 1.399 . S
C375 C380 1.399 . S
C376 C375 1.399 . S
C376 C377 1.376 . S
C377 H364 0.930 . S
C377 C376 1.376 . S
C377 C378 1.388 . S
C378 H365 0.930 . S
C378 C377 1.388 . S
C378 C379 1.390 . S
C379 C378 1.390 . S
C379 C380 1.394 . S
C379 C385 1.465 . S
C380 C375 1.399 . S
C380 C379 1.394 . S
C380 C381 1.516 . S
C381 C380 1.516 . S
C381 C382 1.502 . S
C381 C383 1.561 . S
C381 C384 1.526 . S
C382 H366 0.959 . S
C382 H367 0.959 . S
C382 H368 0.961 . S
C382 C381 1.502 . S
C383 H369 0.960 . S
C383 H370 0.961 . S
C383 H371 0.959 . S
C383 C381 1.561 . S
C384 C381 1.526 . S
C384 C385 1.396 . S
C384 C389 1.390 . S
C385 C379 1.465 . S
C385 C384 1.396 . S
C385 C386 1.399 . S
C386 H372 0.929 . S
C386 C385 1.399 . S
C386 C387 1.385 . S
C387 H373 0.931 . S
C387 C386 1.385 . S
C387 C388 1.389 . S
C388 C387 1.389 . S
C388 C389 1.387 . S
C389 H374 0.930 . S
C389 C384 1.390 . S
C389 C388 1.387 . S
H390 C402 0.930 . S
H391 C404 0.930 . S
H392 C405 0.930 . S
H393 C409 0.959 . S
H394 C409 0.959 . S
H395 C409 0.961 . S
H396 C410 0.960 . S
H397 C410 0.961 . S
H398 C410 0.959 . S
H399 C413 0.929 . S
H400 C414 0.931 . S
H401 C416 0.930 . S
C402 H390 0.930 . S
C402 C403 1.399 . S
C402 C407 1.399 . S
C403 C402 1.399 . S
C403 C404 1.376 . S
C404 H391 0.930 . S
C404 C403 1.376 . S
C404 C405 1.388 . S
C405 H392 0.930 . S
C405 C404 1.388 . S
C405 C406 1.390 . S
C406 C405 1.390 . S
C406 C407 1.394 . S
C406 C412 1.465 . S
C407 C402 1.399 . S
C407 C406 1.394 . S
C407 C408 1.516 . S
C408 C407 1.516 . S
C408 C409 1.502 . S
C408 C410 1.561 . S
C408 C411 1.526 . S
C409 H393 0.959 . S
C409 H394 0.959 . S
C409 H395 0.961 . S
C409 C408 1.502 . S
C410 H396 0.960 . S
C410 H397 0.961 . S
C410 H398 0.959 . S
C410 C408 1.561 . S
C411 C408 1.526 . S
C411 C412 1.396 . S
C411 C416 1.390 . S
C412 C406 1.465 . S
C412 C411 1.396 . S
C412 C413 1.399 . S
C413 H399 0.929 . S
C413 C412 1.399 . S
C413 C414 1.385 . S
C414 H400 0.931 . S
C414 C413 1.385 . S
C414 C415 1.389 . S
C415 C414 1.389 . S
C415 C416 1.387 . S
C416 H401 0.930 . S
C416 C411 1.390 . S
C416 C415 1.387 . S
H417 C429 0.930 . S
H418 C431 0.930 . S
H419 C432 0.930 . S
H420 C436 0.959 . S
H421 C436 0.959 . S
H422 C436 0.961 . S
H423 C437 0.960 . S
H424 C437 0.961 . S
H425 C437 0.959 . S
H426 C440 0.929 . S
H427 C441 0.931 . S
H428 C443 0.930 . S
C429 H417 0.930 . S
C429 C430 1.399 . S
C429 C434 1.399 . S
C430 C429 1.399 . S
C430 C431 1.376 . S
C431 H418 0.930 . S
C431 C430 1.376 . S
C431 C432 1.388 . S
C432 H419 0.930 . S
C432 C431 1.388 . S
C432 C433 1.390 . S
C433 C432 1.390 . S
C433 C434 1.394 . S
C433 C439 1.465 . S
C434 C429 1.399 . S
C434 C433 1.394 . S
C434 C435 1.516 . S
C435 C434 1.516 . S
C435 C436 1.502 . S
C435 C437 1.561 . S
C435 C438 1.526 . S
C436 H420 0.959 . S
C436 H421 0.959 . S
C436 H422 0.961 . S
C436 C435 1.502 . S
C437 H423 0.960 . S
C437 H424 0.961 . S
C437 H425 0.959 . S
C437 C435 1.561 . S
C438 C435 1.526 . S
C438 C439 1.396 . S
C438 C443 1.390 . S
C439 C433 1.465 . S
C439 C438 1.396 . S
C439 C440 1.399 . S
C440 H426 0.929 . S
C440 C439 1.399 . S
C440 C441 1.385 . S
C441 H427 0.931 . S
C441 C440 1.385 . S
C441 C442 1.389 . S
C442 C441 1.389 . S
C442 C443 1.387 . S
C443 H428 0.930 . S
C443 C438 1.390 . S
C443 C442 1.387 . S
H444 C456 0.930 . S
H445 C458 0.930 . S
H446 C459 0.930 . S
H447 C463 0.959 . S
H448 C463 0.959 . S
H449 C463 0.961 . S
H450 C464 0.960 . S
H451 C464 0.961 . S
H452 C464 0.959 . S
H453 C467 0.929 . S
H454 C468 0.931 . S
H455 C470 0.930 . S
C456 H444 0.930 . S
C456 C457 1.399 . S
C456 C461 1.399 . S
C457 C456 1.399 . S
C457 C458 1.376 . S
C458 H445 0.930 . S
C458 C457 1.376 . S
C458 C459 1.388 . S
C459 H446 0.930 . S
C459 C458 1.388 . S
C459 C460 1.390 . S
C460 C459 1.390 . S
C460 C461 1.394 . S
C460 C466 1.465 . S
C461 C456 1.399 . S
C461 C460 1.394 . S
C461 C462 1.516 . S
C462 C461 1.516 . S
C462 C463 1.502 . S
C462 C464 1.561 . S
C462 C465 1.526 . S
C463 H447 0.959 . S
C463 H448 0.959 . S
C463 H449 0.961 . S
C463 C462 1.502 . S
C464 H450 0.960 . S
C464 H451 0.961 . S
C464 H452 0.959 . S
C464 C462 1.561 . S
C465 C462 1.526 . S
C465 C466 1.396 . S
C465 C470 1.390 . S
C466 C460 1.465 . S
C466 C465 1.396 . S
C466 C467 1.399 . S
C467 H453 0.929 . S
C467 C466 1.399 . S
C467 C468 1.385 . S
C468 H454 0.931 . S
C468 C467 1.385 . S
C468 C469 1.389 . S
C469 C468 1.389 . S
C469 C470 1.387 . S
C470 H455 0.930 . S
C470 C465 1.390 . S
C470 C469 1.387 . S
H471 C483 0.930 . S
H472 C485 0.930 . S
H473 C486 0.930 . S
H474 C490 0.959 . S
H475 C490 0.959 . S
H476 C490 0.961 . S
H477 C491 0.960 . S
H478 C491 0.961 . S
H479 C491 0.959 . S
H480 C494 0.929 . S
H481 C495 0.931 . S
H482 C497 0.930 . S
C483 H471 0.930 . S
C483 C484 1.399 . S
C483 C488 1.399 . S
C484 C483 1.399 . S
C484 C485 1.376 . S
C485 H472 0.930 . S
C485 C484 1.376 . S
C485 C486 1.388 . S
C486 H473 0.930 . S
C486 C485 1.388 . S
C486 C487 1.390 . S
C487 C486 1.390 . S
C487 C488 1.394 . S
C487 C493 1.465 . S
C488 C483 1.399 . S
C488 C487 1.394 . S
C488 C489 1.516 . S
C489 C488 1.516 . S
C489 C490 1.502 . S
C489 C491 1.561 . S
C489 C492 1.526 . S
C490 H474 0.959 . S
C490 H475 0.959 . S
C490 H476 0.961 . S
C490 C489 1.502 . S
C491 H477 0.960 . S
C491 H478 0.961 . S
C491 H479 0.959 . S
C491 C489 1.561 . S
C492 C489 1.526 . S
C492 C493 1.396 . S
C492 C497 1.390 . S
C493 C487 1.465 . S
C493 C492 1.396 . S
C493 C494 1.399 . S
C494 H480 0.929 . S
C494 C493 1.399 . S
C494 C495 1.385 . S
C495 H481 0.931 . S
C495 C494 1.385 . S
C495 C496 1.389 . S
C496 C495 1.389 . S
C496 C497 1.387 . S
C497 H482 0.930 . S
C497 C492 1.390 . S
C497 C496 1.387 . S
H498 C510 0.930 . S
H499 C512 0.930 . S
H500 C513 0.930 . S
H501 C517 0.959 . S
H502 C517 0.959 . S
H503 C517 0.961 . S
H504 C518 0.960 . S
H505 C518 0.961 . S
H506 C518 0.959 . S
H507 C521 0.929 . S
H508 C522 0.931 . S
H509 C524 0.930 . S
C510 H498 0.930 . S
C510 C511 1.399 . S
C510 C515 1.399 . S
C511 C510 1.399 . S
C511 C512 1.376 . S
C512 H499 0.930 . S
C512 C511 1.376 . S
C512 C513 1.388 . S
C513 H500 0.930 . S
C513 C512 1.388 . S
C513 C514 1.390 . S
C514 C513 1.390 . S
C514 C515 1.394 . S
C514 C520 1.465 . S
C515 C510 1.399 . S
C515 C514 1.394 . S
C515 C516 1.516 . S
C516 C515 1.516 . S
C516 C517 1.502 . S
C516 C518 1.561 . S
C516 C519 1.526 . S
C517 H501 0.959 . S
C517 H502 0.959 . S
C517 H503 0.961 . S
C517 C516 1.502 . S
C518 H504 0.960 . S
C518 H505 0.961 . S
C518 H506 0.959 . S
C518 C516 1.561 . S
C519 C516 1.526 . S
C519 C520 1.396 . S
C519 C524 1.390 . S
C520 C514 1.465 . S
C520 C519 1.396 . S
C520 C521 1.399 . S
C521 H507 0.929 . S
C521 C520 1.399 . S
C521 C522 1.385 . S
C522 H508 0.931 . S
C522 C521 1.385 . S
C522 C523 1.389 . S
C523 C522 1.389 . S
C523 C524 1.387 . S
C524 H509 0.930 . S
C524 C519 1.390 . S
C524 C523 1.387 . S
H525 C537 0.930 . S
H526 C539 0.930 . S
H527 C540 0.930 . S
H528 C544 0.959 . S
H529 C544 0.959 . S
H530 C544 0.961 . S
H531 C545 0.960 . S
H532 C545 0.961 . S
H533 C545 0.959 . S
H534 C548 0.929 1_554 S
H535 C549 0.931 1_554 S
H536 C551 0.930 . S
C537 H525 0.930 . S
C537 C538 1.399 . S
C537 C542 1.399 . S
C538 C537 1.399 . S
C538 C539 1.376 . S
C539 H526 0.930 . S
C539 C538 1.376 . S
C539 C540 1.388 . S
C540 H527 0.930 . S
C540 C539 1.388 . S
C540 C541 1.390 . S
C541 C540 1.390 . S
C541 C542 1.394 . S
C541 C547 1.465 . S
C542 C537 1.399 . S
C542 C541 1.394 . S
C542 C543 1.516 . S
C543 C542 1.516 . S
C543 C544 1.502 . S
C543 C545 1.561 . S
C543 C546 1.526 . S
C544 H528 0.959 . S
C544 H529 0.959 . S
C544 H530 0.961 . S
C544 C543 1.502 . S
C545 H531 0.960 . S
C545 H532 0.961 . S
C545 H533 0.959 . S
C545 C543 1.561 . S
C546 C543 1.526 . S
C546 C547 1.396 . S
C546 C551 1.390 . S
C547 C541 1.465 . S
C547 C546 1.396 . S
C547 C548 1.399 . S
C548 H534 0.929 1_556 S
C548 C547 1.399 . S
C548 C549 1.385 . S
C549 H535 0.931 1_556 S
C549 C548 1.385 . S
C549 C550 1.389 . S
C550 C549 1.389 . S
C550 C551 1.387 . S
C551 H536 0.930 . S
C551 C546 1.390 . S
C551 C550 1.387 . S
H552 C564 0.930 . S
H553 C566 0.930 . S
H554 C567 0.930 . S
H555 C571 0.959 . S
H556 C571 0.959 . S
H557 C571 0.961 . S
H558 C572 0.960 . S
H559 C572 0.961 . S
H560 C572 0.959 . S
H561 C575 0.929 . S
H562 C576 0.931 . S
H563 C578 0.930 . S
C564 H552 0.930 . S
C564 C565 1.399 . S
C564 C569 1.399 . S
C565 C564 1.399 . S
C565 C566 1.376 . S
C566 H553 0.930 . S
C566 C565 1.376 . S
C566 C567 1.388 . S
C567 H554 0.930 . S
C567 C566 1.388 . S
C567 C568 1.390 . S
C568 C567 1.390 . S
C568 C569 1.394 . S
C568 C574 1.465 . S
C569 C564 1.399 . S
C569 C568 1.394 . S
C569 C570 1.516 . S
C570 C569 1.516 . S
C570 C571 1.502 . S
C570 C572 1.561 . S
C570 C573 1.526 . S
C571 H555 0.959 . S
C571 H556 0.959 . S
C571 H557 0.961 . S
C571 C570 1.502 . S
C572 H558 0.960 . S
C572 H559 0.961 . S
C572 H560 0.959 . S
C572 C570 1.561 . S
C573 C570 1.526 . S
C573 C574 1.396 . S
C573 C578 1.390 . S
C574 C568 1.465 . S
C574 C573 1.396 . S
C574 C575 1.399 . S
C575 H561 0.929 . S
C575 C574 1.399 . S
C575 C576 1.385 . S
C576 H562 0.931 . S
C576 C575 1.385 . S
C576 C577 1.389 . S
C577 C576 1.389 . S
C577 C578 1.387 . S
C578 H563 0.930 . S
C578 C573 1.390 . S
C578 C577 1.387 . S
H579 C591 0.930 . S
H580 C593 0.930 . S
H581 C594 0.930 . S
H582 C598 0.959 . S
H583 C598 0.959 . S
H584 C598 0.961 . S
H585 C599 0.960 . S
H586 C599 0.961 . S
H587 C599 0.959 . S
H588 C602 0.929 . S
H589 C603 0.931 . S
H590 C605 0.930 . S
C591 H579 0.930 . S
C591 C592 1.399 . S
C591 C596 1.399 . S
C592 C591 1.399 . S
C592 C593 1.376 . S
C593 H580 0.930 . S
C593 C592 1.376 . S
C593 C594 1.388 . S
C594 H581 0.930 . S
C594 C593 1.388 . S
C594 C595 1.390 . S
C595 C594 1.390 . S
C595 C596 1.394 . S
C595 C601 1.465 . S
C596 C591 1.399 . S
C596 C595 1.394 . S
C596 C597 1.516 . S
C597 C596 1.516 . S
C597 C598 1.502 . S
C597 C599 1.561 . S
C597 C600 1.526 . S
C598 H582 0.959 . S
C598 H583 0.959 . S
C598 H584 0.961 . S
C598 C597 1.502 . S
C599 H585 0.960 . S
C599 H586 0.961 . S
C599 H587 0.959 . S
C599 C597 1.561 . S
C600 C597 1.526 . S
C600 C601 1.396 . S
C600 C605 1.390 . S
C601 C595 1.465 . S
C601 C600 1.396 . S
C601 C602 1.399 . S
C602 H588 0.929 . S
C602 C601 1.399 . S
C602 C603 1.385 . S
C603 H589 0.931 . S
C603 C602 1.385 . S
C603 C604 1.389 . S
C604 C603 1.389 . S
C604 C605 1.387 . S
C605 H590 0.930 . S
C605 C600 1.390 . S
C605 C604 1.387 . S
H606 C618 0.930 . S
H607 C620 0.930 . S
H608 C621 0.930 . S
H609 C625 0.959 . S
H610 C625 0.959 . S
H611 C625 0.961 . S
H612 C626 0.960 . S
H613 C626 0.961 . S
H614 C626 0.959 . S
H615 C629 0.929 . S
H616 C630 0.931 . S
H617 C632 0.930 . S
C618 H606 0.930 . S
C618 C619 1.399 . S
C618 C623 1.399 . S
C619 C618 1.399 . S
C619 C620 1.376 . S
C620 H607 0.930 . S
C620 C619 1.376 . S
C620 C621 1.388 . S
C621 H608 0.930 . S
C621 C620 1.388 . S
C621 C622 1.390 . S
C622 C621 1.390 . S
C622 C623 1.394 . S
C622 C628 1.465 . S
C623 C618 1.399 . S
C623 C622 1.394 . S
C623 C624 1.516 . S
C624 C623 1.516 . S
C624 C625 1.502 . S
C624 C626 1.561 . S
C624 C627 1.526 . S
C625 H609 0.959 . S
C625 H610 0.959 . S
C625 H611 0.961 . S
C625 C624 1.502 . S
C626 H612 0.960 . S
C626 H613 0.961 . S
C626 H614 0.959 . S
C626 C624 1.561 . S
C627 C624 1.526 . S
C627 C628 1.396 . S
C627 C632 1.390 . S
C628 C622 1.465 . S
C628 C627 1.396 . S
C628 C629 1.399 . S
C629 H615 0.929 . S
C629 C628 1.399 . S
C629 C630 1.385 . S
C630 H616 0.931 . S
C630 C629 1.385 . S
C630 C631 1.389 . S
C631 C630 1.389 . S
C631 C632 1.387 . S
C632 H617 0.930 . S
C632 C627 1.390 . S
C632 C631 1.387 . S
H633 C645 0.930 . S
H634 C647 0.930 . S
H635 C648 0.930 . S
H636 C652 0.959 . S
H637 C652 0.959 . S
H638 C652 0.961 . S
H639 C653 0.960 . S
H640 C653 0.961 . S
H641 C653 0.959 . S
H642 C656 0.929 . S
H643 C657 0.931 . S
H644 C659 0.930 . S
C645 H633 0.930 . S
C645 C646 1.399 . S
C645 C650 1.399 . S
C646 C645 1.399 . S
C646 C647 1.376 . S
C647 H634 0.930 . S
C647 C646 1.376 . S
C647 C648 1.388 . S
C648 H635 0.930 . S
C648 C647 1.388 . S
C648 C649 1.390 . S
C649 C648 1.390 . S
C649 C650 1.394 . S
C649 C655 1.465 . S
C650 C645 1.399 . S
C650 C649 1.394 . S
C650 C651 1.516 . S
C651 C650 1.516 . S
C651 C652 1.502 . S
C651 C653 1.561 . S
C651 C654 1.526 . S
C652 H636 0.959 . S
C652 H637 0.959 . S
C652 H638 0.961 . S
C652 C651 1.502 . S
C653 H639 0.960 . S
C653 H640 0.961 . S
C653 H641 0.959 . S
C653 C651 1.561 . S
C654 C651 1.526 . S
C654 C655 1.396 . S
C654 C659 1.390 . S
C655 C649 1.465 . S
C655 C654 1.396 . S
C655 C656 1.399 . S
C656 H642 0.929 . S
C656 C655 1.399 . S
C656 C657 1.385 . S
C657 H643 0.931 . S
C657 C656 1.385 . S
C657 C658 1.389 . S
C658 C657 1.389 . S
C658 C659 1.387 . S
C659 H644 0.930 . S
C659 C654 1.390 . S
C659 C658 1.387 . S
H660 C672 0.930 . S
H661 C674 0.930 . S
H662 C675 0.930 . S
H663 C679 0.959 . S
H664 C679 0.959 . S
H665 C679 0.961 . S
H666 C680 0.960 . S
H667 C680 0.961 . S
H668 C680 0.959 . S
H669 C683 0.929 . S
H670 C684 0.931 . S
H671 C686 0.930 . S
C672 H660 0.930 . S
C672 C673 1.399 . S
C672 C677 1.399 . S
C673 C672 1.399 . S
C673 C674 1.376 . S
C674 H661 0.930 . S
C674 C673 1.376 . S
C674 C675 1.388 . S
C675 H662 0.930 . S
C675 C674 1.388 . S
C675 C676 1.390 . S
C676 C675 1.390 . S
C676 C677 1.394 . S
C676 C682 1.465 . S
C677 C672 1.399 . S
C677 C676 1.394 . S
C677 C678 1.516 . S
C678 C677 1.516 . S
C678 C679 1.502 . S
C678 C680 1.561 . S
C678 C681 1.526 . S
C679 H663 0.959 . S
C679 H664 0.959 . S
C679 H665 0.961 . S
C679 C678 1.502 . S
C680 H666 0.960 . S
C680 H667 0.961 . S
C680 H668 0.959 . S
C680 C678 1.561 . S
C681 C678 1.526 . S
C681 C682 1.396 . S
C681 C686 1.390 . S
C682 C676 1.465 . S
C682 C681 1.396 . S
C682 C683 1.399 . S
C683 H669 0.929 . S
C683 C682 1.399 . S
C683 C684 1.385 . S
C684 H670 0.931 . S
C684 C683 1.385 . S
C684 C685 1.389 . S
C685 C684 1.389 . S
C685 C686 1.387 . S
C686 H671 0.930 . S
C686 C681 1.390 . S
C686 C685 1.387 . S
H687 C699 0.930 . S
H688 C701 0.930 . S
H689 C702 0.930 . S
H690 C706 0.959 . S
H691 C706 0.959 . S
H692 C706 0.961 1_455 S
H693 C707 0.960 . S
H694 C707 0.961 . S
H695 C707 0.959 . S
H696 C710 0.929 . S
H697 C711 0.931 . S
H698 C713 0.930 . S
C699 H687 0.930 . S
C699 C700 1.399 . S
C699 C704 1.399 . S
C700 C699 1.399 . S
C700 C701 1.376 . S
C701 H688 0.930 . S
C701 C700 1.376 . S
C701 C702 1.388 . S
C702 H689 0.930 . S
C702 C701 1.388 . S
C702 C703 1.390 . S
C703 C702 1.390 . S
C703 C704 1.394 . S
C703 C709 1.465 . S
C704 C699 1.399 . S
C704 C703 1.394 . S
C704 C705 1.516 . S
C705 C704 1.516 . S
C705 C706 1.502 . S
C705 C707 1.561 . S
C705 C708 1.526 . S
C706 H690 0.959 . S
C706 H691 0.959 . S
C706 H692 0.961 1_655 S
C706 C705 1.502 . S
C707 H693 0.960 . S
C707 H694 0.961 . S
C707 H695 0.959 . S
C707 C705 1.561 . S
C708 C705 1.526 . S
C708 C709 1.396 . S
C708 C713 1.390 . S
C709 C703 1.465 . S
C709 C708 1.396 . S
C709 C710 1.399 . S
C710 H696 0.929 . S
C710 C709 1.399 . S
C710 C711 1.385 . S
C711 H697 0.931 . S
C711 C710 1.385 . S
C711 C712 1.389 . S
C712 C711 1.389 . S
C712 C713 1.387 . S
C713 H698 0.930 . S
C713 C708 1.390 . S
C713 C712 1.387 . S
H714 C726 0.930 . S
H715 C728 0.930 . S
H716 C729 0.930 . S
H717 C733 0.959 . S
H718 C733 0.959 . S
H719 C733 0.961 . S
H720 C734 0.960 . S
H721 C734 0.961 . S
H722 C734 0.959 . S
H723 C737 0.929 . S
H724 C738 0.931 . S
H725 C740 0.930 . S
C726 H714 0.930 . S
C726 C727 1.399 . S
C726 C731 1.399 . S
C727 C726 1.399 . S
C727 C728 1.376 . S
C728 H715 0.930 . S
C728 C727 1.376 . S
C728 C729 1.388 . S
C729 H716 0.930 . S
C729 C728 1.388 . S
C729 C730 1.390 . S
C730 C729 1.390 . S
C730 C731 1.394 . S
C730 C736 1.465 . S
C731 C726 1.399 . S
C731 C730 1.394 . S
C731 C732 1.516 . S
C732 C731 1.516 . S
C732 C733 1.502 . S
C732 C734 1.561 . S
C732 C735 1.526 . S
C733 H717 0.959 . S
C733 H718 0.959 . S
C733 H719 0.961 . S
C733 C732 1.502 . S
C734 H720 0.960 . S
C734 H721 0.961 . S
C734 H722 0.959 . S
C734 C732 1.561 . S
C735 C732 1.526 . S
C735 C736 1.396 . S
C735 C740 1.390 . S
C736 C730 1.465 . S
C736 C735 1.396 . S
C736 C737 1.399 . S
C737 H723 0.929 . S
C737 C736 1.399 . S
C737 C738 1.385 . S
C738 H724 0.931 . S
C738 C737 1.385 . S
C738 C739 1.389 . S
C739 C738 1.389 . S
C739 C740 1.387 . S
C740 H725 0.930 . S
C740 C735 1.390 . S
C740 C739 1.387 . S
H741 C753 0.930 . S
H742 C755 0.930 . S
H743 C756 0.930 . S
H744 C760 0.959 . S
H745 C760 0.959 . S
H746 C760 0.961 . S
H747 C761 0.960 . S
H748 C761 0.961 . S
H749 C761 0.959 . S
H750 C764 0.929 . S
H751 C765 0.931 . S
H752 C767 0.930 . S
C753 H741 0.930 . S
C753 C754 1.399 . S
C753 C758 1.399 . S
C754 C753 1.399 . S
C754 C755 1.376 . S
C755 H742 0.930 . S
C755 C754 1.376 . S
C755 C756 1.388 . S
C756 H743 0.930 . S
C756 C755 1.388 . S
C756 C757 1.390 . S
C757 C756 1.390 . S
C757 C758 1.394 . S
C757 C763 1.465 . S
C758 C753 1.399 . S
C758 C757 1.394 . S
C758 C759 1.516 . S
C759 C758 1.516 . S
C759 C760 1.502 . S
C759 C761 1.561 . S
C759 C762 1.526 . S
C760 H744 0.959 . S
C760 H745 0.959 . S
C760 H746 0.961 . S
C760 C759 1.502 . S
C761 H747 0.960 . S
C761 H748 0.961 . S
C761 H749 0.959 . S
C761 C759 1.561 . S
C762 C759 1.526 . S
C762 C763 1.396 . S
C762 C767 1.390 . S
C763 C757 1.465 . S
C763 C762 1.396 . S
C763 C764 1.399 . S
C764 H750 0.929 . S
C764 C763 1.399 . S
C764 C765 1.385 . S
C765 H751 0.931 . S
C765 C764 1.385 . S
C765 C766 1.389 . S
C766 C765 1.389 . S
C766 C767 1.387 . S
C767 H752 0.930 . S
C767 C762 1.390 . S
C767 C766 1.387 . S
H768 C780 0.930 . S
H769 C782 0.930 . S
H770 C783 0.930 . S
H771 C787 0.959 . S
H772 C787 0.959 . S
H773 C787 0.961 . S
H774 C788 0.960 . S
H775 C788 0.961 . S
H776 C788 0.959 . S
H777 C791 0.929 . S
H778 C792 0.931 . S
H779 C794 0.930 . S
C780 H768 0.930 . S
C780 C781 1.399 . S
C780 C785 1.399 . S
C781 C780 1.399 . S
C781 C782 1.376 . S
C782 H769 0.930 . S
C782 C781 1.376 . S
C782 C783 1.388 . S
C783 H770 0.930 . S
C783 C782 1.388 . S
C783 C784 1.390 . S
C784 C783 1.390 . S
C784 C785 1.394 . S
C784 C790 1.465 . S
C785 C780 1.399 . S
C785 C784 1.394 . S
C785 C786 1.516 . S
C786 C785 1.516 . S
C786 C787 1.502 . S
C786 C788 1.561 . S
C786 C789 1.526 . S
C787 H771 0.959 . S
C787 H772 0.959 . S
C787 H773 0.961 . S
C787 C786 1.502 . S
C788 H774 0.960 . S
C788 H775 0.961 . S
C788 H776 0.959 . S
C788 C786 1.561 . S
C789 C786 1.526 . S
C789 C790 1.396 . S
C789 C794 1.390 . S
C790 C784 1.465 . S
C790 C789 1.396 . S
C790 C791 1.399 . S
C791 H777 0.929 . S
C791 C790 1.399 . S
C791 C792 1.385 . S
C792 H778 0.931 . S
C792 C791 1.385 . S
C792 C793 1.389 . S
C793 C792 1.389 . S
C793 C794 1.387 . S
C794 H779 0.930 . S
C794 C789 1.390 . S
C794 C793 1.387 . S
H795 C807 0.930 . S
H796 C809 0.930 . S
H797 C810 0.930 . S
H798 C814 0.959 . S
H799 C814 0.959 . S
H800 C814 0.961 . S
H801 C815 0.960 . S
H802 C815 0.961 . S
H803 C815 0.959 . S
H804 C818 0.929 . S
H805 C819 0.931 . S
H806 C821 0.930 . S
C807 H795 0.930 . S
C807 C808 1.399 . S
C807 C812 1.399 . S
C808 C807 1.399 . S
C808 C809 1.376 . S
C809 H796 0.930 . S
C809 C808 1.376 . S
C809 C810 1.388 . S
C810 H797 0.930 . S
C810 C809 1.388 . S
C810 C811 1.390 . S
C811 C810 1.390 . S
C811 C812 1.394 . S
C811 C817 1.465 . S
C812 C807 1.399 . S
C812 C811 1.394 . S
C812 C813 1.516 . S
C813 C812 1.516 . S
C813 C814 1.502 . S
C813 C815 1.561 . S
C813 C816 1.526 . S
C814 H798 0.959 . S
C814 H799 0.959 . S
C814 H800 0.961 . S
C814 C813 1.502 . S
C815 H801 0.960 . S
C815 H802 0.961 . S
C815 H803 0.959 . S
C815 C813 1.561 . S
C816 C813 1.526 . S
C816 C817 1.396 . S
C816 C821 1.390 . S
C817 C811 1.465 . S
C817 C816 1.396 . S
C817 C818 1.399 . S
C818 H804 0.929 . S
C818 C817 1.399 . S
C818 C819 1.385 . S
C819 H805 0.931 . S
C819 C818 1.385 . S
C819 C820 1.389 . S
C820 C819 1.389 . S
C820 C821 1.387 . S
C821 H806 0.930 . S
C821 C816 1.390 . S
C821 C820 1.387 . S
H822 C834 0.942 . S
H823 C836 0.930 . S
H824 C837 0.930 . S
H825 C841 0.961 . S
H826 C841 0.955 1_554 S
H827 C841 0.941 1_554 S
H828 C842 0.960 . S
H829 C842 0.961 . S
H830 C842 0.959 . S
H831 C845 0.929 . S
H832 C846 0.931 . S
H833 C848 0.930 . S
C834 H822 0.942 . S
C834 C835 1.399 . S
C834 C839 1.399 . S
C835 C834 1.399 . S
C835 C836 1.376 . S
C836 H823 0.930 . S
C836 C835 1.376 . S
C836 C837 1.388 . S
C837 H824 0.930 . S
C837 C836 1.388 . S
C837 C838 1.390 . S
C838 C837 1.390 . S
C838 C839 1.394 . S
C838 C844 1.465 . S
C839 C834 1.399 . S
C839 C838 1.394 . S
C839 C840 1.516 . S
C840 C839 1.516 . S
C840 C841 1.526 . S
C840 C842 1.561 . S
C840 C843 1.526 . S
C841 H825 0.961 . S
C841 H826 0.955 1_556 S
C841 H827 0.941 1_556 S
C841 C840 1.526 . S
C842 H828 0.960 . S
C842 H829 0.961 . S
C842 H830 0.959 . S
C842 C840 1.561 . S
C843 C840 1.526 . S
C843 C844 1.396 . S
C843 C848 1.390 . S
C844 C838 1.465 . S
C844 C843 1.396 . S
C844 C845 1.399 . S
C845 H831 0.929 . S
C845 C844 1.399 . S
C845 C846 1.385 . S
C846 H832 0.931 . S
C846 C845 1.385 . S
C846 C847 1.389 . S
C847 C846 1.389 . S
C847 C848 1.387 . S
C848 H833 0.930 . S
C848 C843 1.390 . S
C848 C847 1.387 . S
H849 C861 0.930 . S
H850 C863 0.930 . S
H851 C864 0.930 . S
H852 C868 0.959 . S
H853 C868 0.959 . S
H854 C868 0.961 . S
H855 C869 0.960 . S
H856 C869 0.961 . S
H857 C869 0.959 . S
H858 C872 0.929 . S
H859 C873 0.931 . S
H860 C875 0.930 . S
C861 H849 0.930 . S
C861 C862 1.399 . S
C861 C866 1.399 . S
C862 C861 1.399 . S
C862 C863 1.376 . S
C863 H850 0.930 . S
C863 C862 1.376 . S
C863 C864 1.388 . S
C864 H851 0.930 . S
C864 C863 1.388 . S
C864 C865 1.390 . S
C865 C864 1.390 . S
C865 C866 1.394 . S
C865 C871 1.465 . S
C866 C861 1.399 . S
C866 C865 1.394 . S
C866 C867 1.516 . S
C867 C866 1.516 . S
C867 C868 1.502 . S
C867 C869 1.561 . S
C867 C870 1.526 . S
C868 H852 0.959 . S
C868 H853 0.959 . S
C868 H854 0.961 . S
C868 C867 1.502 . S
C869 H855 0.960 . S
C869 H856 0.961 . S
C869 H857 0.959 . S
C869 C867 1.561 . S
C870 C867 1.526 . S
C870 C871 1.396 . S
C870 C875 1.390 . S
C871 C865 1.465 . S
C871 C870 1.396 . S
C871 C872 1.399 . S
C872 H858 0.929 . S
C872 C871 1.399 . S
C872 C873 1.385 . S
C873 H859 0.931 . S
C873 C872 1.385 . S
C873 C874 1.389 . S
C874 C873 1.389 . S
C874 C875 1.387 . S
C875 H860 0.930 . S
C875 C870 1.390 . S
C875 C874 1.387 . S
H876 C888 0.930 . S
H877 C890 0.930 . S
H878 C891 0.930 . S
H879 C895 0.959 . S
H880 C895 0.959 . S
H881 C895 0.961 . S
H882 C896 0.960 . S
H883 C896 0.961 . S
H884 C896 0.959 . S
H885 C899 0.929 . S
H886 C900 0.931 . S
H887 C902 0.930 . S
C888 H876 0.930 . S
C888 C889 1.399 . S
C888 C893 1.399 . S
C889 C888 1.399 . S
C889 C890 1.376 . S
C890 H877 0.930 . S
C890 C889 1.376 . S
C890 C891 1.388 . S
C891 H878 0.930 . S
C891 C890 1.388 . S
C891 C892 1.390 . S
C892 C891 1.390 . S
C892 C893 1.394 . S
C892 C898 1.465 . S
C893 C888 1.399 . S
C893 C892 1.394 . S
C893 C894 1.516 . S
C894 C893 1.516 . S
C894 C895 1.502 . S
C894 C896 1.561 . S
C894 C897 1.526 . S
C895 H879 0.959 . S
C895 H880 0.959 . S
C895 H881 0.961 . S
C895 C894 1.502 . S
C896 H882 0.960 . S
C896 H883 0.961 . S
C896 H884 0.959 . S
C896 C894 1.561 . S
C897 C894 1.526 . S
C897 C898 1.396 . S
C897 C902 1.390 . S
C898 C892 1.465 . S
C898 C897 1.396 . S
C898 C899 1.399 . S
C899 H885 0.929 . S
C899 C898 1.399 . S
C899 C900 1.385 . S
C900 H886 0.931 . S
C900 C899 1.385 . S
C900 C901 1.389 . S
C901 C900 1.389 . S
C901 C902 1.387 . S
C902 H887 0.930 . S
C902 C897 1.390 . S
C902 C901 1.387 . S
H903 C915 0.930 . S
H904 C917 0.930 . S
H905 C918 0.930 . S
H906 C922 0.959 . S
H907 C922 0.959 . S
H908 C922 0.961 . S
H909 C923 0.960 . S
H910 C923 0.961 . S
H911 C923 0.959 . S
H912 C926 0.929 . S
H913 C927 0.931 . S
H914 C929 0.930 . S
C915 H903 0.930 . S
C915 C916 1.399 . S
C915 C920 1.399 . S
C916 C915 1.399 . S
C916 C917 1.376 . S
C917 H904 0.930 . S
C917 C916 1.376 . S
C917 C918 1.388 . S
C918 H905 0.930 . S
C918 C917 1.388 . S
C918 C919 1.390 . S
C919 C918 1.390 . S
C919 C920 1.394 . S
C919 C925 1.465 . S
C920 C915 1.399 . S
C920 C919 1.394 . S
C920 C921 1.516 . S
C921 C920 1.516 . S
C921 C922 1.502 . S
C921 C923 1.561 . S
C921 C924 1.526 . S
C922 H906 0.959 . S
C922 H907 0.959 . S
C922 H908 0.961 . S
C922 C921 1.502 . S
C923 H909 0.960 . S
C923 H910 0.961 . S
C923 H911 0.959 . S
C923 C921 1.561 . S
C924 C921 1.526 . S
C924 C925 1.396 . S
C924 C929 1.390 . S
C925 C919 1.465 . S
C925 C924 1.396 . S
C925 C926 1.399 . S
C926 H912 0.929 . S
C926 C925 1.399 . S
C926 C927 1.385 . S
C927 H913 0.931 . S
C927 C926 1.385 . S
C927 C928 1.389 . S
C928 C927 1.389 . S
C928 C929 1.387 . S
C929 H914 0.930 . S
C929 C924 1.390 . S
C929 C928 1.387 . S
H930 C942 0.930 . S
H931 C944 0.930 . S
H932 C945 0.930 . S
H933 C949 0.959 . S
H934 C949 0.959 . S
H935 C949 0.961 . S
H936 C950 0.960 . S
H937 C950 0.961 . S
H938 C950 0.959 . S
H939 C953 0.929 . S
H940 C954 0.931 . S
H941 C956 0.930 . S
C942 H930 0.930 . S
C942 C943 1.399 . S
C942 C947 1.399 . S
C943 C942 1.399 . S
C943 C944 1.376 . S
C944 H931 0.930 . S
C944 C943 1.376 . S
C944 C945 1.388 . S
C945 H932 0.930 . S
C945 C944 1.388 . S
C945 C946 1.390 . S
C946 C945 1.390 . S
C946 C947 1.394 . S
C946 C952 1.465 . S
C947 C942 1.399 . S
C947 C946 1.394 . S
C947 C948 1.516 . S
C948 C947 1.516 . S
C948 C949 1.502 . S
C948 C950 1.561 . S
C948 C951 1.526 . S
C949 H933 0.959 . S
C949 H934 0.959 . S
C949 H935 0.961 . S
C949 C948 1.502 . S
C950 H936 0.960 . S
C950 H937 0.961 . S
C950 H938 0.959 . S
C950 C948 1.561 . S
C951 C948 1.526 . S
C951 C952 1.396 . S
C951 C956 1.390 . S
C952 C946 1.465 . S
C952 C951 1.396 . S
C952 C953 1.399 . S
C953 H939 0.929 . S
C953 C952 1.399 . S
C953 C954 1.385 . S
C954 H940 0.931 . S
C954 C953 1.385 . S
C954 C955 1.389 . S
C955 C954 1.389 . S
C955 C956 1.387 . S
C956 H941 0.930 . S
C956 C951 1.390 . S
C956 C955 1.387 . S
H957 C969 0.930 . S
H958 C971 0.930 . S
H959 C972 0.930 . S
H960 C976 0.959 . S
H961 C976 0.959 1_545 S
H962 C976 0.961 . S
H963 C977 0.960 . S
H964 C977 0.961 1_545 S
H965 C977 0.959 . S
H966 C980 0.929 . S
H967 C981 0.931 . S
H968 C983 0.930 . S
C969 H957 0.930 . S
C969 C970 1.399 . S
C969 C974 1.399 . S
C970 C969 1.399 . S
C970 C971 1.376 . S
C971 H958 0.930 . S
C971 C970 1.376 . S
C971 C972 1.388 . S
C972 H959 0.930 . S
C972 C971 1.388 . S
C972 C973 1.390 . S
C973 C972 1.390 . S
C973 C974 1.394 . S
C973 C979 1.465 . S
C974 C969 1.399 . S
C974 C973 1.394 . S
C974 C975 1.516 . S
C975 C974 1.516 . S
C975 C976 1.502 . S
C975 C977 1.561 . S
C975 C978 1.526 . S
C976 H960 0.959 . S
C976 H961 0.959 1_565 S
C976 H962 0.961 . S
C976 C975 1.502 . S
C977 H963 0.960 . S
C977 H964 0.961 1_565 S
C977 H965 0.959 . S
C977 C975 1.561 . S
C978 C975 1.526 . S
C978 C979 1.396 . S
C978 C983 1.390 . S
C979 C973 1.465 . S
C979 C978 1.396 . S
C979 C980 1.399 . S
C980 H966 0.929 . S
C980 C979 1.399 . S
C980 C981 1.385 . S
C981 H967 0.931 . S
C981 C980 1.385 . S
C981 C982 1.389 . S
C982 C981 1.389 . S
C982 C983 1.387 . S
C983 H968 0.930 . S
C983 C978 1.390 . S
C983 C982 1.387 . S
H984 C996 0.930 . S
H985 C998 0.930 . S
H986 C999 0.930 . S
H987 C1003 0.959 . S
H988 C1003 0.959 . S
H989 C1003 0.961 1_545 S
H990 C1004 0.960 . S
H991 C1004 0.961 . S
H992 C1004 0.959 . S
H993 C1007 0.929 . S
H994 C1008 0.931 . S
H995 C1010 0.930 . S
C996 H984 0.930 . S
C996 C997 1.399 . S
C996 C1001 1.399 . S
C997 C996 1.399 . S
C997 C998 1.376 . S
C998 H985 0.930 . S
C998 C997 1.376 . S
C998 C999 1.388 . S
C999 H986 0.930 . S
C999 C998 1.388 . S
C999 C1000 1.390 . S
C1000 C999 1.390 . S
C1000 C1001 1.394 . S
C1000 C1006 1.465 . S
C1001 C996 1.399 . S
C1001 C1000 1.394 . S
C1001 C1002 1.516 . S
C1002 C1001 1.516 . S
C1002 C1003 1.502 . S
C1002 C1004 1.561 . S
C1002 C1005 1.526 . S
C1003 H987 0.959 . S
C1003 H988 0.959 . S
C1003 H989 0.961 1_565 S
C1003 C1002 1.502 . S
C1004 H990 0.960 . S
C1004 H991 0.961 . S
C1004 H992 0.959 . S
C1004 C1002 1.561 . S
C1005 C1002 1.526 . S
C1005 C1006 1.396 . S
C1005 C1010 1.390 . S
C1006 C1000 1.465 . S
C1006 C1005 1.396 . S
C1006 C1007 1.399 . S
C1007 H993 0.929 . S
C1007 C1006 1.399 . S
C1007 C1008 1.385 . S
C1008 H994 0.931 . S
C1008 C1007 1.385 . S
C1008 C1009 1.389 . S
C1009 C1008 1.389 . S
C1009 C1010 1.387 . S
C1010 H995 0.930 . S
C1010 C1005 1.390 . S
C1010 C1009 1.387 . S
H1011 C1023 0.930 . S
H1012 C1025 0.930 . S
H1013 C1026 0.930 . S
H1014 C1030 0.959 . S
H1015 C1030 0.959 . S
H1016 C1030 0.961 . S
H1017 C1031 0.960 . S
H1018 C1031 0.961 . S
H1019 C1031 0.959 . S
H1020 C1034 0.929 . S
H1021 C1035 0.931 1_565 S
H1022 C1037 0.930 . S
C1023 H1011 0.930 . S
C1023 C1024 1.399 . S
C1023 C1028 1.399 . S
C1024 C1023 1.399 . S
C1024 C1025 1.376 . S
C1025 H1012 0.930 . S
C1025 C1024 1.376 . S
C1025 C1026 1.388 . S
C1026 H1013 0.930 . S
C1026 C1025 1.388 . S
C1026 C1027 1.390 . S
C1027 C1026 1.390 . S
C1027 C1028 1.394 . S
C1027 C1033 1.465 . S
C1028 C1023 1.399 . S
C1028 C1027 1.394 . S
C1028 C1029 1.516 . S
C1029 C1028 1.516 . S
C1029 C1030 1.502 . S
C1029 C1031 1.561 . S
C1029 C1032 1.526 . S
C1030 H1014 0.959 . S
C1030 H1015 0.959 . S
C1030 H1016 0.961 . S
C1030 C1029 1.502 . S
C1031 H1017 0.960 . S
C1031 H1018 0.961 . S
C1031 H1019 0.959 . S
C1031 C1029 1.561 . S
C1032 C1029 1.526 . S
C1032 C1033 1.396 . S
C1032 C1037 1.390 . S
C1033 C1027 1.465 . S
C1033 C1032 1.396 . S
C1033 C1034 1.399 . S
C1034 H1020 0.929 . S
C1034 C1033 1.399 . S
C1034 C1035 1.385 . S
C1035 H1021 0.931 1_545 S
C1035 C1034 1.385 . S
C1035 C1036 1.389 . S
C1036 C1035 1.389 . S
C1036 C1037 1.387 . S
C1037 H1022 0.930 . S
C1037 C1032 1.390 . S
C1037 C1036 1.387 . S
H1038 C1050 0.930 . S
H1039 C1052 0.930 . S
H1040 C1053 0.930 . S
H1041 C1057 0.959 . S
H1042 C1057 0.959 . S
H1043 C1057 0.961 . S
H1044 C1058 0.960 . S
H1045 C1058 0.961 . S
H1046 C1058 0.959 . S
H1047 C1061 0.929 . S
H1048 C1062 0.931 . S
H1049 C1064 0.930 . S
C1050 H1038 0.930 . S
C1050 C1051 1.399 . S
C1050 C1055 1.399 . S
C1051 C1050 1.399 . S
C1051 C1052 1.376 . S
C1052 H1039 0.930 . S
C1052 C1051 1.376 . S
C1052 C1053 1.388 . S
C1053 H1040 0.930 . S
C1053 C1052 1.388 . S
C1053 C1054 1.390 . S
C1054 C1053 1.390 . S
C1054 C1055 1.394 . S
C1054 C1060 1.465 . S
C1055 C1050 1.399 . S
C1055 C1054 1.394 . S
C1055 C1056 1.516 . S
C1056 C1055 1.516 . S
C1056 C1057 1.502 . S
C1056 C1058 1.561 . S
C1056 C1059 1.526 . S
C1057 H1041 0.959 . S
C1057 H1042 0.959 . S
C1057 H1043 0.961 . S
C1057 C1056 1.502 . S
C1058 H1044 0.960 . S
C1058 H1045 0.961 . S
C1058 H1046 0.959 . S
C1058 C1056 1.561 . S
C1059 C1056 1.526 . S
C1059 C1060 1.396 . S
C1059 C1064 1.390 . S
C1060 C1054 1.465 . S
C1060 C1059 1.396 . S
C1060 C1061 1.399 . S
C1061 H1047 0.929 . S
C1061 C1060 1.399 . S
C1061 C1062 1.385 . S
C1062 H1048 0.931 . S
C1062 C1061 1.385 . S
C1062 C1063 1.389 . S
C1063 C1062 1.389 . S
C1063 C1064 1.387 . S
C1064 H1049 0.930 . S
C1064 C1059 1.390 . S
C1064 C1063 1.387 . S
H1065 C1077 0.930 . S
H1066 C1079 0.930 . S
H1067 C1080 0.930 . S
H1068 C1084 0.959 . S
H1069 C1084 0.959 . S
H1070 C1084 0.961 . S
H1071 C1085 0.960 . S
H1072 C1085 0.961 . S
H1073 C1085 0.959 . S
H1074 C1088 0.929 . S
H1075 C1089 0.931 1_554 S
H1076 C1091 0.930 . S
C1077 H1065 0.930 . S
C1077 C1078 1.399 . S
C1077 C1082 1.399 . S
C1078 C1077 1.399 . S
C1078 C1079 1.376 . S
C1079 H1066 0.930 . S
C1079 C1078 1.376 . S
C1079 C1080 1.388 . S
C1080 H1067 0.930 . S
C1080 C1079 1.388 . S
C1080 C1081 1.390 . S
C1081 C1080 1.390 . S
C1081 C1082 1.394 . S
C1081 C1087 1.465 . S
C1082 C1077 1.399 . S
C1082 C1081 1.394 . S
C1082 C1083 1.516 . S
C1083 C1082 1.516 . S
C1083 C1084 1.502 . S
C1083 C1085 1.561 . S
C1083 C1086 1.526 . S
C1084 H1068 0.959 . S
C1084 H1069 0.959 . S
C1084 H1070 0.961 . S
C1084 C1083 1.502 . S
C1085 H1071 0.960 . S
C1085 H1072 0.961 . S
C1085 H1073 0.959 . S
C1085 C1083 1.561 . S
C1086 C1083 1.526 . S
C1086 C1087 1.396 . S
C1086 C1091 1.390 . S
C1087 C1081 1.465 . S
C1087 C1086 1.396 . S
C1087 C1088 1.399 . S
C1088 H1074 0.929 . S
C1088 C1087 1.399 . S
C1088 C1089 1.385 . S
C1089 H1075 0.931 1_556 S
C1089 C1088 1.385 . S
C1089 C1090 1.389 . S
C1090 C1089 1.389 . S
C1090 C1091 1.387 . S
C1091 H1076 0.930 . S
C1091 C1086 1.390 . S
C1091 C1090 1.387 . S
H1092 C1104 0.930 . S
H1093 C1106 0.930 . S
H1094 C1107 0.930 . S
H1095 C1111 0.959 . S
H1096 C1111 0.959 . S
H1097 C1111 0.961 . S
H1098 C1112 0.960 . S
H1099 C1112 0.961 . S
H1100 C1112 0.959 . S
H1101 C1115 0.929 . S
H1102 C1116 0.931 . S
H1103 C1118 0.930 . S
C1104 H1092 0.930 . S
C1104 C1105 1.399 . S
C1104 C1109 1.399 . S
C1105 C1104 1.399 . S
C1105 C1106 1.376 . S
C1106 H1093 0.930 . S
C1106 C1105 1.376 . S
C1106 C1107 1.388 . S
C1107 H1094 0.930 . S
C1107 C1106 1.388 . S
C1107 C1108 1.390 . S
C1108 C1107 1.390 . S
C1108 C1109 1.394 . S
C1108 C1114 1.465 . S
C1109 C1104 1.399 . S
C1109 C1108 1.394 . S
C1109 C1110 1.516 . S
C1110 C1109 1.516 . S
C1110 C1111 1.502 . S
C1110 C1112 1.561 . S
C1110 C1113 1.526 . S
C1111 H1095 0.959 . S
C1111 H1096 0.959 . S
C1111 H1097 0.961 . S
C1111 C1110 1.502 . S
C1112 H1098 0.960 . S
C1112 H1099 0.961 . S
C1112 H1100 0.959 . S
C1112 C1110 1.561 . S
C1113 C1110 1.526 . S
C1113 C1114 1.396 . S
C1113 C1118 1.390 . S
C1114 C1108 1.465 . S
C1114 C1113 1.396 . S
C1114 C1115 1.399 . S
C1115 H1101 0.929 . S
C1115 C1114 1.399 . S
C1115 C1116 1.385 . S
C1116 H1102 0.931 . S
C1116 C1115 1.385 . S
C1116 C1117 1.389 . S
C1117 C1116 1.389 . S
C1117 C1118 1.387 . S
C1118 H1103 0.930 . S
C1118 C1113 1.390 . S
C1118 C1117 1.387 . S
H1119 C1131 0.930 . S
H1120 C1133 0.930 . S
H1121 C1134 0.930 . S
H1122 C1138 0.959 . S
H1123 C1138 0.959 . S
H1124 C1138 0.961 . S
H1125 C1139 0.960 . S
H1126 C1139 0.961 . S
H1127 C1139 0.959 . S
H1128 C1142 0.929 . S
H1129 C1143 0.931 . S
H1130 C1145 0.930 . S
C1131 H1119 0.930 . S
C1131 C1132 1.399 . S
C1131 C1136 1.399 . S
C1132 C1131 1.399 . S
C1132 C1133 1.376 . S
C1133 H1120 0.930 . S
C1133 C1132 1.376 . S
C1133 C1134 1.388 . S
C1134 H1121 0.930 . S
C1134 C1133 1.388 . S
C1134 C1135 1.390 . S
C1135 C1134 1.390 . S
C1135 C1136 1.394 . S
C1135 C1141 1.465 . S
C1136 C1131 1.399 . S
C1136 C1135 1.394 . S
C1136 C1137 1.516 . S
C1137 C1136 1.516 . S
C1137 C1138 1.502 . S
C1137 C1139 1.561 . S
C1137 C1140 1.526 . S
C1138 H1122 0.959 . S
C1138 H1123 0.959 . S
C1138 H1124 0.961 . S
C1138 C1137 1.502 . S
C1139 H1125 0.960 . S
C1139 H1126 0.961 . S
C1139 H1127 0.959 . S
C1139 C1137 1.561 . S
C1140 C1137 1.526 . S
C1140 C1141 1.396 . S
C1140 C1145 1.390 . S
C1141 C1135 1.465 . S
C1141 C1140 1.396 . S
C1141 C1142 1.399 . S
C1142 H1128 0.929 . S
C1142 C1141 1.399 . S
C1142 C1143 1.385 . S
C1143 H1129 0.931 . S
C1143 C1142 1.385 . S
C1143 C1144 1.389 . S
C1144 C1143 1.389 . S
C1144 C1145 1.387 . S
C1145 H1130 0.930 . S
C1145 C1140 1.390 . S
C1145 C1144 1.387 . S
H1146 C1158 0.930 . S
H1147 C1160 0.930 . S
H1148 C1161 0.930 . S
H1149 C1165 0.959 . S
H1150 C1165 0.959 . S
H1151 C1165 0.961 . S
H1152 C1166 0.960 . S
H1153 C1166 0.961 . S
H1154 C1166 0.959 . S
H1155 C1169 0.929 . S
H1156 C1170 0.931 . S
H1157 C1172 0.930 . S
C1158 H1146 0.930 . S
C1158 C1159 1.399 . S
C1158 C1163 1.399 . S
C1159 C1158 1.399 . S
C1159 C1160 1.376 . S
C1160 H1147 0.930 . S
C1160 C1159 1.376 . S
C1160 C1161 1.388 . S
C1161 H1148 0.930 . S
C1161 C1160 1.388 . S
C1161 C1162 1.390 . S
C1162 C1161 1.390 . S
C1162 C1163 1.394 . S
C1162 C1168 1.465 . S
C1163 C1158 1.399 . S
C1163 C1162 1.394 . S
C1163 C1164 1.516 . S
C1164 C1163 1.516 . S
C1164 C1165 1.502 . S
C1164 C1166 1.561 . S
C1164 C1167 1.526 . S
C1165 H1149 0.959 . S
C1165 H1150 0.959 . S
C1165 H1151 0.961 . S
C1165 C1164 1.502 . S
C1166 H1152 0.960 . S
C1166 H1153 0.961 . S
C1166 H1154 0.959 . S
C1166 C1164 1.561 . S
C1167 C1164 1.526 . S
C1167 C1168 1.396 . S
C1167 C1172 1.390 . S
C1168 C1162 1.465 . S
C1168 C1167 1.396 . S
C1168 C1169 1.399 . S
C1169 H1155 0.929 . S
C1169 C1168 1.399 . S
C1169 C1170 1.385 . S
C1170 H1156 0.931 . S
C1170 C1169 1.385 . S
C1170 C1171 1.389 . S
C1171 C1170 1.389 . S
C1171 C1172 1.387 . S
C1172 H1157 0.930 . S
C1172 C1167 1.390 . S
C1172 C1171 1.387 . S
H1173 C1185 0.930 . S
H1174 C1187 0.930 . S
H1175 C1188 0.930 . S
H1176 C1192 0.959 . S
H1177 C1192 0.959 . S
H1178 C1192 0.961 . S
H1179 C1193 0.960 . S
H1180 C1193 0.961 . S
H1181 C1193 0.959 . S
H1182 C1196 0.929 . S
H1183 C1197 0.931 . S
H1184 C1199 0.930 . S
C1185 H1173 0.930 . S
C1185 C1186 1.399 . S
C1185 C1190 1.399 . S
C1186 C1185 1.399 . S
C1186 C1187 1.376 . S
C1187 H1174 0.930 . S
C1187 C1186 1.376 . S
C1187 C1188 1.388 . S
C1188 H1175 0.930 . S
C1188 C1187 1.388 . S
C1188 C1189 1.390 . S
C1189 C1188 1.390 . S
C1189 C1190 1.394 . S
C1189 C1195 1.465 . S
C1190 C1185 1.399 . S
C1190 C1189 1.394 . S
C1190 C1191 1.516 . S
C1191 C1190 1.516 . S
C1191 C1192 1.502 . S
C1191 C1193 1.561 . S
C1191 C1194 1.526 . S
C1192 H1176 0.959 . S
C1192 H1177 0.959 . S
C1192 H1178 0.961 . S
C1192 C1191 1.502 . S
C1193 H1179 0.960 . S
C1193 H1180 0.961 . S
C1193 H1181 0.959 . S
C1193 C1191 1.561 . S
C1194 C1191 1.526 . S
C1194 C1195 1.396 . S
C1194 C1199 1.390 . S
C1195 C1189 1.465 . S
C1195 C1194 1.396 . S
C1195 C1196 1.399 . S
C1196 H1182 0.929 . S
C1196 C1195 1.399 . S
C1196 C1197 1.385 . S
C1197 H1183 0.931 . S
C1197 C1196 1.385 . S
C1197 C1198 1.389 . S
C1198 C1197 1.389 . S
C1198 C1199 1.387 . S
C1199 H1184 0.930 . S
C1199 C1194 1.390 . S
C1199 C1198 1.387 . S
H1200 C1212 0.930 . S
H1201 C1214 0.930 . S
H1202 C1215 0.930 . S
H1203 C1219 0.959 . S
H1204 C1219 0.959 . S
H1205 C1219 0.961 . S
H1206 C1220 0.960 . S
H1207 C1220 0.961 . S
H1208 C1220 0.959 . S
H1209 C1223 0.929 . S
H1210 C1224 0.931 . S
H1211 C1226 0.930 . S
C1212 H1200 0.930 . S
C1212 C1213 1.399 . S
C1212 C1217 1.399 . S
C1213 C1212 1.399 . S
C1213 C1214 1.376 . S
C1214 H1201 0.930 . S
C1214 C1213 1.376 . S
C1214 C1215 1.388 . S
C1215 H1202 0.930 . S
C1215 C1214 1.388 . S
C1215 C1216 1.390 . S
C1216 C1215 1.390 . S
C1216 C1217 1.394 . S
C1216 C1222 1.465 . S
C1217 C1212 1.399 . S
C1217 C1216 1.394 . S
C1217 C1218 1.516 . S
C1218 C1217 1.516 . S
C1218 C1219 1.502 . S
C1218 C1220 1.561 . S
C1218 C1221 1.526 . S
C1219 H1203 0.959 . S
C1219 H1204 0.959 . S
C1219 H1205 0.961 . S
C1219 C1218 1.502 . S
C1220 H1206 0.960 . S
C1220 H1207 0.961 . S
C1220 H1208 0.959 . S
C1220 C1218 1.561 . S
C1221 C1218 1.526 . S
C1221 C1222 1.396 . S
C1221 C1226 1.390 . S
C1222 C1216 1.465 . S
C1222 C1221 1.396 . S
C1222 C1223 1.399 . S
C1223 H1209 0.929 . S
C1223 C1222 1.399 . S
C1223 C1224 1.385 . S
C1224 H1210 0.931 . S
C1224 C1223 1.385 . S
C1224 C1225 1.389 . S
C1225 C1224 1.389 . S
C1225 C1226 1.387 . S
C1226 H1211 0.930 . S
C1226 C1221 1.390 . S
C1226 C1225 1.387 . S
H1227 C1239 0.930 . S
H1228 C1241 0.930 . S
H1229 C1242 0.930 . S
H1230 C1246 0.959 . S
H1231 C1246 0.959 . S
H1232 C1246 0.961 . S
H1233 C1247 0.960 . S
H1234 C1247 0.961 . S
H1235 C1247 0.959 . S
H1236 C1250 0.929 . S
H1237 C1251 0.931 . S
H1238 C1253 0.930 . S
C1239 H1227 0.930 . S
C1239 C1240 1.399 . S
C1239 C1244 1.399 . S
C1240 C1239 1.399 . S
C1240 C1241 1.376 . S
C1241 H1228 0.930 . S
C1241 C1240 1.376 . S
C1241 C1242 1.388 . S
C1242 H1229 0.930 . S
C1242 C1241 1.388 . S
C1242 C1243 1.390 . S
C1243 C1242 1.390 . S
C1243 C1244 1.394 . S
C1243 C1249 1.465 . S
C1244 C1239 1.399 . S
C1244 C1243 1.394 . S
C1244 C1245 1.516 . S
C1245 C1244 1.516 . S
C1245 C1246 1.502 . S
C1245 C1247 1.561 . S
C1245 C1248 1.526 . S
C1246 H1230 0.959 . S
C1246 H1231 0.959 . S
C1246 H1232 0.961 . S
C1246 C1245 1.502 . S
C1247 H1233 0.960 . S
C1247 H1234 0.961 . S
C1247 H1235 0.959 . S
C1247 C1245 1.561 . S
C1248 C1245 1.526 . S
C1248 C1249 1.396 . S
C1248 C1253 1.390 . S
C1249 C1243 1.465 . S
C1249 C1248 1.396 . S
C1249 C1250 1.399 . S
C1250 H1236 0.929 . S
C1250 C1249 1.399 . S
C1250 C1251 1.385 . S
C1251 H1237 0.931 . S
C1251 C1250 1.385 . S
C1251 C1252 1.389 . S
C1252 C1251 1.389 . S
C1252 C1253 1.387 . S
C1253 H1238 0.930 . S
C1253 C1248 1.390 . S
C1253 C1252 1.387 . S
H1254 C1266 0.930 . S
H1255 C1268 0.930 . S
H1256 C1269 0.930 . S
H1257 C1273 0.959 . S
H1258 C1273 0.959 . S
H1259 C1273 0.961 . S
H1260 C1274 0.960 . S
H1261 C1274 0.961 . S
H1262 C1274 0.959 . S
H1263 C1277 0.929 . S
H1264 C1278 0.931 . S
H1265 C1280 0.930 . S
C1266 H1254 0.930 . S
C1266 C1267 1.399 . S
C1266 C1271 1.399 . S
C1267 C1266 1.399 . S
C1267 C1268 1.376 . S
C1268 H1255 0.930 . S
C1268 C1267 1.376 . S
C1268 C1269 1.388 . S
C1269 H1256 0.930 . S
C1269 C1268 1.388 . S
C1269 C1270 1.390 . S
C1270 C1269 1.390 . S
C1270 C1271 1.394 . S
C1270 C1276 1.465 . S
C1271 C1266 1.399 . S
C1271 C1270 1.394 . S
C1271 C1272 1.516 . S
C1272 C1271 1.516 . S
C1272 C1273 1.502 . S
C1272 C1274 1.561 . S
C1272 C1275 1.526 . S
C1273 H1257 0.959 . S
C1273 H1258 0.959 . S
C1273 H1259 0.961 . S
C1273 C1272 1.502 . S
C1274 H1260 0.960 . S
C1274 H1261 0.961 . S
C1274 H1262 0.959 . S
C1274 C1272 1.561 . S
C1275 C1272 1.526 . S
C1275 C1276 1.396 . S
C1275 C1280 1.390 . S
C1276 C1270 1.465 . S
C1276 C1275 1.396 . S
C1276 C1277 1.399 . S
C1277 H1263 0.929 . S
C1277 C1276 1.399 . S
C1277 C1278 1.385 . S
C1278 H1264 0.931 . S
C1278 C1277 1.385 . S
C1278 C1279 1.389 . S
C1279 C1278 1.389 . S
C1279 C1280 1.387 . S
C1280 H1265 0.930 . S
C1280 C1275 1.390 . S
C1280 C1279 1.387 . S
H1281 C1293 0.930 . S
H1282 C1295 0.930 . S
H1283 C1296 0.930 . S
H1284 C1300 0.959 . S
H1285 C1300 0.959 . S
H1286 C1300 0.961 . S
H1287 C1301 0.960 . S
H1288 C1301 0.961 . S
H1289 C1301 0.959 . S
H1290 C1304 0.929 . S
H1291 C1305 0.931 . S
H1292 C1307 0.930 . S
C1293 H1281 0.930 . S
C1293 C1294 1.399 . S
C1293 C1298 1.399 . S
C1294 C1293 1.399 . S
C1294 C1295 1.376 . S
C1295 H1282 0.930 . S
C1295 C1294 1.376 . S
C1295 C1296 1.388 . S
C1296 H1283 0.930 . S
C1296 C1295 1.388 . S
C1296 C1297 1.390 . S
C1297 C1296 1.390 . S
C1297 C1298 1.394 . S
C1297 C1303 1.465 . S
C1298 C1293 1.399 . S
C1298 C1297 1.394 . S
C1298 C1299 1.516 . S
C1299 C1298 1.516 . S
C1299 C1300 1.502 . S
C1299 C1301 1.561 . S
C1299 C1302 1.526 . S
C1300 H1284 0.959 . S
C1300 H1285 0.959 . S
C1300 H1286 0.961 . S
C1300 C1299 1.502 . S
C1301 H1287 0.960 . S
C1301 H1288 0.961 . S
C1301 H1289 0.959 . S
C1301 C1299 1.561 . S
C1302 C1299 1.526 . S
C1302 C1303 1.396 . S
C1302 C1307 1.390 . S
C1303 C1297 1.465 . S
C1303 C1302 1.396 . S
C1303 C1304 1.399 . S
C1304 H1290 0.929 . S
C1304 C1303 1.399 . S
C1304 C1305 1.385 . S
C1305 H1291 0.931 . S
C1305 C1304 1.385 . S
C1305 C1306 1.389 . S
C1306 C1305 1.389 . S
C1306 C1307 1.387 . S
C1307 H1292 0.930 . S
C1307 C1302 1.390 . S
C1307 C1306 1.387 . S
H1308 C1320 0.930 . S
H1309 C1322 0.930 . S
H1310 C1323 0.930 . S
H1311 C1327 0.959 . S
H1312 C1327 0.959 . S
H1313 C1327 0.961 . S
H1314 C1328 0.960 . S
H1315 C1328 0.961 . S
H1316 C1328 0.959 . S
H1317 C1331 0.929 . S
H1318 C1332 0.931 . S
H1319 C1334 0.930 . S
C1320 H1308 0.930 . S
C1320 C1321 1.399 . S
C1320 C1325 1.399 . S
C1321 C1320 1.399 . S
C1321 C1322 1.376 . S
C1322 H1309 0.930 . S
C1322 C1321 1.376 . S
C1322 C1323 1.388 . S
C1323 H1310 0.930 . S
C1323 C1322 1.388 . S
C1323 C1324 1.390 . S
C1324 C1323 1.390 . S
C1324 C1325 1.394 . S
C1324 C1330 1.465 . S
C1325 C1320 1.399 . S
C1325 C1324 1.394 . S
C1325 C1326 1.516 . S
C1326 C1325 1.516 . S
C1326 C1327 1.502 . S
C1326 C1328 1.561 . S
C1326 C1329 1.526 . S
C1327 H1311 0.959 . S
C1327 H1312 0.959 . S
C1327 H1313 0.961 . S
C1327 C1326 1.502 . S
C1328 H1314 0.960 . S
C1328 H1315 0.961 . S
C1328 H1316 0.959 . S
C1328 C1326 1.561 . S
C1329 C1326 1.526 . S
C1329 C1330 1.396 . S
C1329 C1334 1.390 . S
C1330 C1324 1.465 . S
C1330 C1329 1.396 . S
C1330 C1331 1.399 . S
C1331 H1317 0.929 . S
C1331 C1330 1.399 . S
C1331 C1332 1.385 . S
C1332 H1318 0.931 . S
C1332 C1331 1.385 . S
C1332 C1333 1.389 . S
C1333 C1332 1.389 . S
C1333 C1334 1.387 . S
C1334 H1319 0.930 . S
C1334 C1329 1.390 . S
C1334 C1333 1.387 . S
H1335 C1347 0.930 . S
H1336 C1349 0.930 . S
H1337 C1350 0.930 . S
H1338 C1354 0.959 . S
H1339 C1354 0.959 . S
H1340 C1354 0.961 . S
H1341 C1355 0.960 . S
H1342 C1355 0.961 . S
H1343 C1355 0.959 . S
H1344 C1358 0.929 . S
H1345 C1359 0.931 . S
H1346 C1361 0.930 . S
C1347 H1335 0.930 . S
C1347 C1348 1.399 . S
C1347 C1352 1.399 . S
C1348 C1347 1.399 . S
C1348 C1349 1.376 . S
C1349 H1336 0.930 . S
C1349 C1348 1.376 . S
C1349 C1350 1.388 . S
C1350 H1337 0.930 . S
C1350 C1349 1.388 . S
C1350 C1351 1.390 . S
C1351 C1350 1.390 . S
C1351 C1352 1.394 . S
C1351 C1357 1.465 . S
C1352 C1347 1.399 . S
C1352 C1351 1.394 . S
C1352 C1353 1.516 . S
C1353 C1352 1.516 . S
C1353 C1354 1.502 . S
C1353 C1355 1.561 . S
C1353 C1356 1.526 . S
C1354 H1338 0.959 . S
C1354 H1339 0.959 . S
C1354 H1340 0.961 . S
C1354 C1353 1.502 . S
C1355 H1341 0.960 . S
C1355 H1342 0.961 . S
C1355 H1343 0.959 . S
C1355 C1353 1.561 . S
C1356 C1353 1.526 . S
C1356 C1357 1.396 . S
C1356 C1361 1.390 . S
C1357 C1351 1.465 . S
C1357 C1356 1.396 . S
C1357 C1358 1.399 . S
C1358 H1344 0.929 . S
C1358 C1357 1.399 . S
C1358 C1359 1.385 . S
C1359 H1345 0.931 . S
C1359 C1358 1.385 . S
C1359 C1360 1.389 . S
C1360 C1359 1.389 . S
C1360 C1361 1.387 . S
C1361 H1346 0.930 . S
C1361 C1356 1.390 . S
C1361 C1360 1.387 . S
H1362 C1374 0.930 . S
H1363 C1376 0.930 . S
H1364 C1377 0.930 . S
H1365 C1381 0.959 . S
H1366 C1381 0.959 . S
H1367 C1381 0.961 . S
H1368 C1382 0.960 . S
H1369 C1382 0.961 . S
H1370 C1382 0.959 . S
H1371 C1385 0.929 . S
H1372 C1386 0.931 . S
H1373 C1388 0.930 . S
C1374 H1362 0.930 . S
C1374 C1375 1.399 . S
C1374 C1379 1.399 . S
C1375 C1374 1.399 . S
C1375 C1376 1.376 . S
C1376 H1363 0.930 . S
C1376 C1375 1.376 . S
C1376 C1377 1.388 . S
C1377 H1364 0.930 . S
C1377 C1376 1.388 . S
C1377 C1378 1.390 . S
C1378 C1377 1.390 . S
C1378 C1379 1.394 . S
C1378 C1384 1.465 . S
C1379 C1374 1.399 . S
C1379 C1378 1.394 . S
C1379 C1380 1.516 . S
C1380 C1379 1.516 . S
C1380 C1381 1.502 . S
C1380 C1382 1.561 . S
C1380 C1383 1.526 . S
C1381 H1365 0.959 . S
C1381 H1366 0.959 . S
C1381 H1367 0.961 . S
C1381 C1380 1.502 . S
C1382 H1368 0.960 . S
C1382 H1369 0.961 . S
C1382 H1370 0.959 . S
C1382 C1380 1.561 . S
C1383 C1380 1.526 . S
C1383 C1384 1.396 . S
C1383 C1388 1.390 . S
C1384 C1378 1.465 . S
C1384 C1383 1.396 . S
C1384 C1385 1.399 . S
C1385 H1371 0.929 . S
C1385 C1384 1.399 . S
C1385 C1386 1.385 . S
C1386 H1372 0.931 . S
C1386 C1385 1.385 . S
C1386 C1387 1.389 . S
C1387 C1386 1.389 . S
C1387 C1388 1.387 . S
C1388 H1373 0.930 . S
C1388 C1383 1.390 . S
C1388 C1387 1.387 . S
H1389 C1401 0.930 . S
H1390 C1403 0.930 . S
H1391 C1404 0.930 . S
H1392 C1408 0.959 . S
H1393 C1408 0.959 . S
H1394 C1408 0.961 . S
H1395 C1409 0.960 . S
H1396 C1409 0.961 . S
H1397 C1409 0.959 . S
H1398 C1412 0.929 . S
H1399 C1413 0.931 . S
H1400 C1415 0.930 . S
C1401 H1389 0.930 . S
C1401 C1402 1.399 . S
C1401 C1406 1.399 . S
C1402 C1401 1.399 . S
C1402 C1403 1.376 . S
C1403 H1390 0.930 . S
C1403 C1402 1.376 . S
C1403 C1404 1.388 . S
C1404 H1391 0.930 . S
C1404 C1403 1.388 . S
C1404 C1405 1.390 . S
C1405 C1404 1.390 . S
C1405 C1406 1.394 . S
C1405 C1411 1.465 . S
C1406 C1401 1.399 . S
C1406 C1405 1.394 . S
C1406 C1407 1.516 . S
C1407 C1406 1.516 . S
C1407 C1408 1.502 . S
C1407 C1409 1.561 . S
C1407 C1410 1.526 . S
C1408 H1392 0.959 . S
C1408 H1393 0.959 . S
C1408 H1394 0.961 . S
C1408 C1407 1.502 . S
C1409 H1395 0.960 . S
C1409 H1396 0.961 . S
C1409 H1397 0.959 . S
C1409 C1407 1.561 . S
C1410 C1407 1.526 . S
C1410 C1411 1.396 . S
C1410 C1415 1.390 . S
C1411 C1405 1.465 . S
C1411 C1410 1.396 . S
C1411 C1412 1.399 . S
C1412 H1398 0.929 . S
C1412 C1411 1.399 . S
C1412 C1413 1.385 . S
C1413 H1399 0.931 . S
C1413 C1412 1.385 . S
C1413 C1414 1.389 . S
C1414 C1413 1.389 . S
C1414 C1415 1.387 . S
C1415 H1400 0.930 . S
C1415 C1410 1.390 . S
C1415 C1414 1.387 . S
H1416 C1428 0.930 . S
H1417 C1430 0.930 . S
H1418 C1431 0.930 . S
H1419 C1435 0.959 . S
H1420 C1435 0.959 . S
H1421 C1435 0.961 . S
H1422 C1436 0.960 . S
H1423 C1436 0.961 . S
H1424 C1436 0.959 . S
H1425 C1439 0.929 . S
H1426 C1440 0.931 . S
H1427 C1442 0.930 . S
C1428 H1416 0.930 . S
C1428 C1429 1.399 . S
C1428 C1433 1.399 . S
C1429 C1428 1.399 . S
C1429 C1430 1.376 . S
C1430 H1417 0.930 . S
C1430 C1429 1.376 . S
C1430 C1431 1.388 . S
C1431 H1418 0.930 . S
C1431 C1430 1.388 . S
C1431 C1432 1.390 . S
C1432 C1431 1.390 . S
C1432 C1433 1.394 . S
C1432 C1438 1.465 . S
C1433 C1428 1.399 . S
C1433 C1432 1.394 . S
C1433 C1434 1.516 . S
C1434 C1433 1.516 . S
C1434 C1435 1.502 . S
C1434 C1436 1.561 . S
C1434 C1437 1.526 . S
C1435 H1419 0.959 . S
C1435 H1420 0.959 . S
C1435 H1421 0.961 . S
C1435 C1434 1.502 . S
C1436 H1422 0.960 . S
C1436 H1423 0.961 . S
C1436 H1424 0.959 . S
C1436 C1434 1.561 . S
C1437 C1434 1.526 . S
C1437 C1438 1.396 . S
C1437 C1442 1.390 . S
C1438 C1432 1.465 . S
C1438 C1437 1.396 . S
C1438 C1439 1.399 . S
C1439 H1425 0.929 . S
C1439 C1438 1.399 . S
C1439 C1440 1.385 . S
C1440 H1426 0.931 . S
C1440 C1439 1.385 . S
C1440 C1441 1.389 . S
C1441 C1440 1.389 . S
C1441 C1442 1.387 . S
C1442 H1427 0.930 . S
C1442 C1437 1.390 . S
C1442 C1441 1.387 . S
H1443 C1455 0.930 . S
H1444 C1457 0.930 . S
H1445 C1458 0.930 . S
H1446 C1462 0.959 . S
H1447 C1462 0.959 . S
H1448 C1462 0.961 . S
H1449 C1463 0.960 . S
H1450 C1463 0.961 . S
H1451 C1463 0.959 . S
H1452 C1466 0.929 . S
H1453 C1467 0.931 . S
H1454 C1469 0.930 . S
C1455 H1443 0.930 . S
C1455 C1456 1.399 . S
C1455 C1460 1.399 . S
C1456 C1455 1.399 . S
C1456 C1457 1.376 . S
C1457 H1444 0.930 . S
C1457 C1456 1.376 . S
C1457 C1458 1.388 . S
C1458 H1445 0.930 . S
C1458 C1457 1.388 . S
C1458 C1459 1.390 . S
C1459 C1458 1.390 . S
C1459 C1460 1.394 . S
C1459 C1465 1.465 . S
C1460 C1455 1.399 . S
C1460 C1459 1.394 . S
C1460 C1461 1.516 . S
C1461 C1460 1.516 . S
C1461 C1462 1.502 . S
C1461 C1463 1.561 . S
C1461 C1464 1.526 . S
C1462 H1446 0.959 . S
C1462 H1447 0.959 . S
C1462 H1448 0.961 . S
C1462 C1461 1.502 . S
C1463 H1449 0.960 . S
C1463 H1450 0.961 . S
C1463 H1451 0.959 . S
C1463 C1461 1.561 . S
C1464 C1461 1.526 . S
C1464 C1465 1.396 . S
C1464 C1469 1.390 . S
C1465 C1459 1.465 . S
C1465 C1464 1.396 . S
C1465 C1466 1.399 . S
C1466 H1452 0.929 . S
C1466 C1465 1.399 . S
C1466 C1467 1.385 . S
C1467 H1453 0.931 . S
C1467 C1466 1.385 . S
C1467 C1468 1.389 . S
C1468 C1467 1.389 . S
C1468 C1469 1.387 . S
C1469 H1454 0.930 . S
C1469 C1464 1.390 . S
C1469 C1468 1.387 . S
H1470 C1482 0.930 . S
H1471 C1484 0.930 . S
H1472 C1485 0.930 . S
H1473 C1489 0.959 . S
H1474 C1489 0.959 . S
H1475 C1489 0.961 . S
H1476 C1490 0.960 . S
H1477 C1490 0.961 . S
H1478 C1490 0.959 . S
H1479 C1493 0.929 . S
H1480 C1494 0.931 . S
H1481 C1496 0.930 . S
C1482 H1470 0.930 . S
C1482 C1483 1.399 . S
C1482 C1487 1.399 . S
C1483 C1482 1.399 . S
C1483 C1484 1.376 . S
C1484 H1471 0.930 . S
C1484 C1483 1.376 . S
C1484 C1485 1.388 . S
C1485 H1472 0.930 . S
C1485 C1484 1.388 . S
C1485 C1486 1.390 . S
C1486 C1485 1.390 . S
C1486 C1487 1.394 . S
C1486 C1492 1.465 . S
C1487 C1482 1.399 . S
C1487 C1486 1.394 . S
C1487 C1488 1.516 . S
C1488 C1487 1.516 . S
C1488 C1489 1.502 . S
C1488 C1490 1.561 . S
C1488 C1491 1.526 . S
C1489 H1473 0.959 . S
C1489 H1474 0.959 . S
C1489 H1475 0.961 . S
C1489 C1488 1.502 . S
C1490 H1476 0.960 . S
C1490 H1477 0.961 . S
C1490 H1478 0.959 . S
C1490 C1488 1.561 . S
C1491 C1488 1.526 . S
C1491 C1492 1.396 . S
C1491 C1496 1.390 . S
C1492 C1486 1.465 . S
C1492 C1491 1.396 . S
C1492 C1493 1.399 . S
C1493 H1479 0.929 . S
C1493 C1492 1.399 . S
C1493 C1494 1.385 . S
C1494 H1480 0.931 . S
C1494 C1493 1.385 . S
C1494 C1495 1.389 . S
C1495 C1494 1.389 . S
C1495 C1496 1.387 . S
C1496 H1481 0.930 . S
C1496 C1491 1.390 . S
C1496 C1495 1.387 . S
H1497 C1509 0.930 . S
H1498 C1511 0.930 . S
H1499 C1512 0.930 . S
H1500 C1516 0.959 . S
H1501 C1516 0.959 . S
H1502 C1516 0.961 . S
H1503 C1517 0.960 . S
H1504 C1517 0.961 . S
H1505 C1517 0.959 . S
H1506 C1520 0.929 . S
H1507 C1521 0.931 . S
H1508 C1523 0.930 . S
C1509 H1497 0.930 . S
C1509 C1510 1.399 . S
C1509 C1514 1.399 . S
C1510 C1509 1.399 . S
C1510 C1511 1.376 . S
C1511 H1498 0.930 . S
C1511 C1510 1.376 . S
C1511 C1512 1.388 . S
C1512 H1499 0.930 . S
C1512 C1511 1.388 . S
C1512 C1513 1.390 . S
C1513 C1512 1.390 . S
C1513 C1514 1.394 . S
C1513 C1519 1.465 . S
C1514 C1509 1.399 . S
C1514 C1513 1.394 . S
C1514 C1515 1.516 . S
C1515 C1514 1.516 . S
C1515 C1516 1.502 . S
C1515 C1517 1.561 . S
C1515 C1518 1.526 . S
C1516 H1500 0.959 . S
C1516 H1501 0.959 . S
C1516 H1502 0.961 . S
C1516 C1515 1.502 . S
C1517 H1503 0.960 . S
C1517 H1504 0.961 . S
C1517 H1505 0.959 . S
C1517 C1515 1.561 . S
C1518 C1515 1.526 . S
C1518 C1519 1.396 . S
C1518 C1523 1.390 . S
C1519 C1513 1.465 . S
C1519 C1518 1.396 . S
C1519 C1520 1.399 . S
C1520 H1506 0.929 . S
C1520 C1519 1.399 . S
C1520 C1521 1.385 . S
C1521 H1507 0.931 . S
C1521 C1520 1.385 . S
C1521 C1522 1.389 . S
C1522 C1521 1.389 . S
C1522 C1523 1.387 . S
C1523 H1508 0.930 . S
C1523 C1518 1.390 . S
C1523 C1522 1.387 . S
H1524 C1536 0.930 . S
H1525 C1538 0.930 . S
H1526 C1539 0.930 . S
H1527 C1543 0.959 . S
H1528 C1543 0.959 . S
H1529 C1543 0.961 . S
H1530 C1544 0.960 . S
H1531 C1544 0.961 . S
H1532 C1544 0.959 . S
H1533 C1547 0.929 . S
H1534 C1548 0.931 . S
H1535 C1550 0.930 . S
C1536 H1524 0.930 . S
C1536 C1537 1.399 . S
C1536 C1541 1.399 . S
C1537 C1536 1.399 . S
C1537 C1538 1.376 . S
C1538 H1525 0.930 . S
C1538 C1537 1.376 . S
C1538 C1539 1.388 . S
C1539 H1526 0.930 . S
C1539 C1538 1.388 . S
C1539 C1540 1.390 . S
C1540 C1539 1.390 . S
C1540 C1541 1.394 . S
C1540 C1546 1.465 . S
C1541 C1536 1.399 . S
C1541 C1540 1.394 . S
C1541 C1542 1.516 . S
C1542 C1541 1.516 . S
C1542 C1543 1.502 . S
C1542 C1544 1.561 . S
C1542 C1545 1.526 . S
C1543 H1527 0.959 . S
C1543 H1528 0.959 . S
C1543 H1529 0.961 . S
C1543 C1542 1.502 . S
C1544 H1530 0.960 . S
C1544 H1531 0.961 . S
C1544 H1532 0.959 . S
C1544 C1542 1.561 . S
C1545 C1542 1.526 . S
C1545 C1546 1.396 . S
C1545 C1550 1.390 . S
C1546 C1540 1.465 . S
C1546 C1545 1.396 . S
C1546 C1547 1.399 . S
C1547 H1533 0.929 . S
C1547 C1546 1.399 . S
C1547 C1548 1.385 . S
C1548 H1534 0.931 . S
C1548 C1547 1.385 . S
C1548 C1549 1.389 . S
C1549 C1548 1.389 . S
C1549 C1550 1.387 . S
C1550 H1535 0.930 . S
C1550 C1545 1.390 . S
C1550 C1549 1.387 . S
H1551 C1563 0.930 . S
H1552 C1565 0.930 . S
H1553 C1566 0.930 . S
H1554 C1570 0.959 . S
H1555 C1570 0.959 . S
H1556 C1570 0.961 . S
H1557 C1571 0.960 . S
H1558 C1571 0.961 . S
H1559 C1571 0.959 . S
H1560 C1574 0.929 . S
H1561 C1575 0.931 . S
H1562 C1577 0.930 . S
C1563 H1551 0.930 . S
C1563 C1564 1.399 . S
C1563 C1568 1.399 . S
C1564 C1563 1.399 . S
C1564 C1565 1.376 . S
C1565 H1552 0.930 . S
C1565 C1564 1.376 . S
C1565 C1566 1.388 . S
C1566 H1553 0.930 . S
C1566 C1565 1.388 . S
C1566 C1567 1.390 . S
C1567 C1566 1.390 . S
C1567 C1568 1.394 . S
C1567 C1573 1.465 . S
C1568 C1563 1.399 . S
C1568 C1567 1.394 . S
C1568 C1569 1.516 . S
C1569 C1568 1.516 . S
C1569 C1570 1.502 . S
C1569 C1571 1.561 . S
C1569 C1572 1.526 . S
C1570 H1554 0.959 . S
C1570 H1555 0.959 . S
C1570 H1556 0.961 . S
C1570 C1569 1.502 . S
C1571 H1557 0.960 . S
C1571 H1558 0.961 . S
C1571 H1559 0.959 . S
C1571 C1569 1.561 . S
C1572 C1569 1.526 . S
C1572 C1573 1.396 . S
C1572 C1577 1.390 . S
C1573 C1567 1.465 . S
C1573 C1572 1.396 . S
C1573 C1574 1.399 . S
C1574 H1560 0.929 . S
C1574 C1573 1.399 . S
C1574 C1575 1.385 . S
C1575 H1561 0.931 . S
C1575 C1574 1.385 . S
C1575 C1576 1.389 . S
C1576 C1575 1.389 . S
C1576 C1577 1.387 . S
C1577 H1562 0.930 . S
C1577 C1572 1.390 . S
C1577 C1576 1.387 . S
H1578 C1590 0.930 . S
H1579 C1592 0.930 . S
H1580 C1593 0.930 . S
H1581 C1597 0.959 . S
H1582 C1597 0.959 . S
H1583 C1597 0.961 . S
H1584 C1598 0.960 . S
H1585 C1598 0.961 . S
H1586 C1598 0.959 . S
H1587 C1601 0.929 . S
H1588 C1602 0.931 . S
H1589 C1604 0.930 . S
C1590 H1578 0.930 . S
C1590 C1591 1.399 . S
C1590 C1595 1.399 . S
C1591 C1590 1.399 . S
C1591 C1592 1.376 . S
C1592 H1579 0.930 . S
C1592 C1591 1.376 . S
C1592 C1593 1.388 . S
C1593 H1580 0.930 . S
C1593 C1592 1.388 . S
C1593 C1594 1.390 . S
C1594 C1593 1.390 . S
C1594 C1595 1.394 . S
C1594 C1600 1.465 . S
C1595 C1590 1.399 . S
C1595 C1594 1.394 . S
C1595 C1596 1.516 . S
C1596 C1595 1.516 . S
C1596 C1597 1.502 . S
C1596 C1598 1.561 . S
C1596 C1599 1.526 . S
C1597 H1581 0.959 . S
C1597 H1582 0.959 . S
C1597 H1583 0.961 . S
C1597 C1596 1.502 . S
C1598 H1584 0.960 . S
C1598 H1585 0.961 . S
C1598 H1586 0.959 . S
C1598 C1596 1.561 . S
C1599 C1596 1.526 . S
C1599 C1600 1.396 . S
C1599 C1604 1.390 . S
C1600 C1594 1.465 . S
C1600 C1599 1.396 . S
C1600 C1601 1.399 . S
C1601 H1587 0.929 . S
C1601 C1600 1.399 . S
C1601 C1602 1.385 . S
C1602 H1588 0.931 . S
C1602 C1601 1.385 . S
C1602 C1603 1.389 . S
C1603 C1602 1.389 . S
C1603 C1604 1.387 . S
C1604 H1589 0.930 . S
C1604 C1599 1.390 . S
C1604 C1603 1.387 . S
H1605 C1617 0.930 . S
H1606 C1619 0.930 . S
H1607 C1620 0.930 . S
H1608 C1624 0.959 . S
H1609 C1624 0.959 . S
H1610 C1624 0.961 . S
H1611 C1625 0.960 . S
H1612 C1625 0.961 . S
H1613 C1625 0.959 . S
H1614 C1628 0.929 . S
H1615 C1629 0.931 . S
H1616 C1631 0.930 . S
C1617 H1605 0.930 . S
C1617 C1618 1.399 . S
C1617 C1622 1.399 . S
C1618 C1617 1.399 . S
C1618 C1619 1.376 . S
C1619 H1606 0.930 . S
C1619 C1618 1.376 . S
C1619 C1620 1.388 . S
C1620 H1607 0.930 . S
C1620 C1619 1.388 . S
C1620 C1621 1.390 . S
C1621 C1620 1.390 . S
C1621 C1622 1.394 . S
C1621 C1627 1.465 . S
C1622 C1617 1.399 . S
C1622 C1621 1.394 . S
C1622 C1623 1.516 . S
C1623 C1622 1.516 . S
C1623 C1624 1.502 . S
C1623 C1625 1.561 . S
C1623 C1626 1.526 . S
C1624 H1608 0.959 . S
C1624 H1609 0.959 . S
C1624 H1610 0.961 . S
C1624 C1623 1.502 . S
C1625 H1611 0.960 . S
C1625 H1612 0.961 . S
C1625 H1613 0.959 . S
C1625 C1623 1.561 . S
C1626 C1623 1.526 . S
C1626 C1627 1.396 . S
C1626 C1631 1.390 . S
C1627 C1621 1.465 . S
C1627 C1626 1.396 . S
C1627 C1628 1.399 . S
C1628 H1614 0.929 . S
C1628 C1627 1.399 . S
C1628 C1629 1.385 . S
C1629 H1615 0.931 . S
C1629 C1628 1.385 . S
C1629 C1630 1.389 . S
C1630 C1629 1.389 . S
C1630 C1631 1.387 . S
C1631 H1616 0.930 . S
C1631 C1626 1.390 . S
C1631 C1630 1.387 . S
C349 C201 1.490 . S
C361 C11 1.478 . S
C376 C14 1.523 . S
C388 C210 1.525 . S
C403 C257 1.494 . S
C415 C33 1.491 . S
C430 C51 1.592 . S
C442 C191 1.594 . S
C457 C207 1.429 . S
C469 C67 1.443 . S
C484 C79 1.577 . S
C496 C219 1.572 . S
C511 C89 1.439 . S
C523 C263 1.435 . S
C538 C98 1.491 . S
C550 C182 1.510 . S
C565 C137 1.379 . S
C577 C123 1.394 . S
C592 C145 1.537 . S
C604 C131 1.541 . S
C619 C151 1.459 . S
C631 C165 1.452 . S
C646 C159 1.473 . S
C658 C117 1.474 . S
C673 C168 1.515 . S
C685 C42 1.532 . S
C700 C61 1.441 . S
C712 C235 1.446 . S
C727 C247 1.599 . S
C739 C23 1.599 . S
C754 C25 1.459 . S
C766 C303 1.464 . S
C781 C126 1.432 . S
C793 C9 1.426 . S
C808 C331 1.495 . S
C820 C47 1.525 . S
C835 C154 1.429 . S
C847 C28 1.425 . S
C862 C294 1.441 . S
C874 C109 1.440 . S
C889 C135 1.439 . S
C901 C84 1.436 . S
C916 C75 1.488 . S
C928 C322 1.474 . S
C943 C65 1.460 . S
C955 C163 1.435 . S
C970 C215 1.526 . S
C982 C275 1.518 . S
C997 C224 1.439 . S
C1009 C221 1.438 . S
C1024 C193 1.470 . S
C1036 C233 1.473 . S
C1051 C266 1.475 . S
C1063 C187 1.480 . S
C1078 C37 1.420 . S
C1090 C280 1.418 . S
C1105 C140 1.492 . S
C1117 C103 1.485 . S
C1132 C0 1.408 . S
C1144 C308 1.413 . S
C1159 C271 1.485 . S
C1171 C39 1.490 . S
C1186 C5 1.492 . S
C1198 C229 1.491 . S
C1213 C277 1.429 . S
C1225 C95 1.440 . S
C1240 C177 1.575 . S
C1252 C107 1.578 . S
C1267 C70 1.509 . S
C1279 C238 1.489 . S
C1294 C305 1.381 . S
C1306 C291 1.387 . S
C1321 C327 1.536 . S
C1333 C285 1.542 . S
C1348 C319 1.447 . S
C1360 C333 1.461 . S
C1375 C299 1.471 . S
C1387 C313 1.471 . S
C1402 C121 1.447 . S
C1414 C53 1.470 . S
C1429 C19 1.522 . S
C1441 C149 1.508 . S
C1456 C81 1.434 . S
C1468 C112 1.433 . S
C1483 C289 1.427 . S
C1495 C56 1.457 . S
C1510 C93 1.441 . S
C1522 C317 1.459 . S
C1537 C173 1.528 . S
C1549 C205 1.517 . S
C1564 C252 1.439 . S
C1576 C179 1.437 . S
C1591 C249 1.472 . S
C1603 C261 1.464 . S
C1618 C196 1.477 . S
C1630 C243 1.474 . S
