# Generated by pormake.
# Topology umm, (4)-cn, num edge types: 1
# Building blocks:
#     Node 0, Type 0, BuildingBlock: ESEHIV_clean_sbu_0, # of connection points: 4
#     Node 1, Type 0, BuildingBlock: ESEHIV_clean_sbu_0, # of connection points: 4
#     Node 2, Type 0, BuildingBlock: ESEHIV_clean_sbu_0, # of connection points: 4
#     Node 3, Type 0, BuildingBlock: ESEHIV_clean_sbu_0, # of connection points: 4
#     Node 4, Type 0, BuildingBlock: ESEHIV_clean_sbu_0, # of connection points: 4
#     Node 5, Type 0, BuildingBlock: ESEHIV_clean_sbu_0, # of connection points: 4
#     Node 6, Type 0, BuildingBlock: ESEHIV_clean_sbu_0, # of connection points: 4
#     Node 7, Type 0, BuildingBlock: ESEHIV_clean_sbu_0, # of connection points: 4
#     Node 8, Type 0, BuildingBlock: ESEHIV_clean_sbu_0, # of connection points: 4
#     Node 9, Type 0, BuildingBlock: ESEHIV_clean_sbu_0, # of connection points: 4
#     Node 10, Type 0, BuildingBlock: ESEHIV_clean_sbu_0, # of connection points: 4
#     Node 11, Type 0, BuildingBlock: ESEHIV_clean_sbu_0, # of connection points: 4
#     Edge 12, Type (0, 0), BuildingBlock: EZIPEK_clean_linker_0, # of connection points: 2
#     Edge 13, Type (0, 0), BuildingBlock: EZIPEK_clean_linker_0, # of connection points: 2
#     Edge 14, Type (0, 0), BuildingBlock: EZIPEK_clean_linker_0, # of connection points: 2
#     Edge 15, Type (0, 0), BuildingBlock: EZIPEK_clean_linker_0, # of connection points: 2
#     Edge 16, Type (0, 0), BuildingBlock: EZIPEK_clean_linker_0, # of connection points: 2
#     Edge 17, Type (0, 0), BuildingBlock: EZIPEK_clean_linker_0, # of connection points: 2
#     Edge 18, Type (0, 0), BuildingBlock: EZIPEK_clean_linker_0, # of connection points: 2
#     Edge 19, Type (0, 0), BuildingBlock: EZIPEK_clean_linker_0, # of connection points: 2
#     Edge 20, Type (0, 0), BuildingBlock: EZIPEK_clean_linker_0, # of connection points: 2
#     Edge 21, Type (0, 0), BuildingBlock: EZIPEK_clean_linker_0, # of connection points: 2
#     Edge 22, Type (0, 0), BuildingBlock: EZIPEK_clean_linker_0, # of connection points: 2
#     Edge 23, Type (0, 0), BuildingBlock: EZIPEK_clean_linker_0, # of connection points: 2
#     Edge 24, Type (0, 0), BuildingBlock: EZIPEK_clean_linker_0, # of connection points: 2
#     Edge 25, Type (0, 0), BuildingBlock: EZIPEK_clean_linker_0, # of connection points: 2
#     Edge 26, Type (0, 0), BuildingBlock: EZIPEK_clean_linker_0, # of connection points: 2
#     Edge 27, Type (0, 0), BuildingBlock: EZIPEK_clean_linker_0, # of connection points: 2
#     Edge 28, Type (0, 0), BuildingBlock: EZIPEK_clean_linker_0, # of connection points: 2
#     Edge 29, Type (0, 0), BuildingBlock: EZIPEK_clean_linker_0, # of connection points: 2
#     Edge 30, Type (0, 0), BuildingBlock: EZIPEK_clean_linker_0, # of connection points: 2
#     Edge 31, Type (0, 0), BuildingBlock: EZIPEK_clean_linker_0, # of connection points: 2
#     Edge 32, Type (0, 0), BuildingBlock: EZIPEK_clean_linker_0, # of connection points: 2
#     Edge 33, Type (0, 0), BuildingBlock: EZIPEK_clean_linker_0, # of connection points: 2
#     Edge 34, Type (0, 0), BuildingBlock: EZIPEK_clean_linker_0, # of connection points: 2
#     Edge 35, Type (0, 0), BuildingBlock: EZIPEK_clean_linker_0, # of connection points: 2
# Relax obj value: 0.041
# Max RMSD: 0.108
# Mean RMSD: 0.108
data_MOF--net-umm--node1-ESEHIV_clean_sbu_0--edge1-EZIPEK_clean_linker_0
_symmetry_space_group_name_H-M    P1
_symmetry_Int_Tables_number       1
_symmetry_cell_setting            triclinic
loop_
_symmetry_equiv_pos_as_xyz
'x, y, z'
_cell_length_a     50.822504
_cell_length_b     50.42841
_cell_length_c     20.71492
_cell_angle_alpha  89.850096
_cell_angle_beta   89.576472
_cell_angle_gamma 119.63452
loop_
_atom_site_label
_atom_site_type_symbol
_atom_site_fract_x
_atom_site_fract_y
_atom_site_fract_z
_atom_type_partial_charge
Cu0 Cu 0.42086 0.55397 0.09277 0.0
N1 N 0.43529 0.5264 0.09254 0.0
N2 N 0.46887 0.51024 0.09622 0.0
C3 C 0.46459 0.53447 0.0999 0.0
C4 C 0.44134 0.48588 0.08608 0.0
C5 C 0.42051 0.49598 0.0838 0.0
O6 O 0.43685 0.57854 0.17138 0.0
C7 C 0.42588 0.59243 0.98163 0.0
O8 O 0.40926 0.6013 1.01382 0.0
H9 H 0.48248 0.55769 0.10741 0.0
H10 H 0.39643 0.48223 0.07593 0.0
N11 N 0.37844 0.53419 0.09834 0.0
N12 N 0.33095 0.52127 0.0727 0.0
C13 C 0.35892 0.52926 0.05003 0.0
C14 C 0.36192 0.52846 0.15307 0.0
C15 C 0.33268 0.52049 0.13739 0.0
C16 C 0.43389 0.56363 0.22361 0.0
O17 O 0.42185 0.53384 0.22084 0.0
H18 H 0.36549 0.5334 0.99972 0.0
H19 H 0.37085 0.532 0.20133 0.0
O20 O 0.43423 0.57518 1.00904 0.0
H21 H 0.43676 0.46265 0.08041 0.0
H22 H 0.31457 0.51645 0.17084 0.0
Cu23 Cu 0.89217 0.42342 0.44998 0.0
N24 N 0.93244 0.43294 0.45325 0.0
N25 N 0.98241 0.46302 0.45566 0.0
C26 C 0.95547 0.4618 0.45205 0.0
C27 C 0.97638 0.43383 0.45899 0.0
C28 C 0.94525 0.41515 0.45751 0.0
O29 O 0.88508 0.44202 0.52576 0.0
C30 C 0.86545 0.4344 0.33754 0.0
O31 O 0.83885 0.41485 0.36185 0.0
H32 H 0.95252 0.48161 0.44885 0.0
H33 H 0.93286 0.39048 0.45958 0.0
N34 N 0.86547 0.38128 0.45192 0.0
N35 N 0.83111 0.33442 0.42104 0.0
C36 C 0.85312 0.36228 0.40158 0.0
C37 C 0.85093 0.36464 0.5047 0.0
C38 C 0.82973 0.33574 0.48579 0.0
C39 C 0.89445 0.43785 0.57973 0.0
O40 O 0.90775 0.42119 0.58194 0.0
H41 H 0.85879 0.3691 0.35161 0.0
H42 H 0.85434 0.3733 0.55335 0.0
O43 O 0.88935 0.44135 0.36899 0.0
H44 H 0.99321 0.42668 0.46227 0.0
H45 H 0.81362 0.31748 0.51673 0.0
Cu46 Cu 0.49047 0.87138 0.80754 0.0
N47 N 0.5235 0.91077 0.80668 0.0
N48 N 0.54458 0.9614 0.80023 0.0
C49 C 0.51906 0.93487 0.81129 0.0
C50 C 0.56628 0.95398 0.78842 0.0
C51 C 0.55311 0.92247 0.79234 0.0
O52 O 0.46796 0.8677 0.88587 0.0
C53 C 0.4805 0.87266 0.67777 0.0
O54 O 0.50817 0.87699 0.67527 0.0
H55 H 0.49704 0.93284 0.8191 0.0
H56 H 0.56395 0.90909 0.78224 0.0
N57 N 0.49741 0.83827 0.80481 0.0
N58 N 0.50999 0.80337 0.77454 0.0
C59 C 0.51896 0.83357 0.77717 0.0
C60 C 0.47477 0.81042 0.82109 0.0
C61 C 0.48234 0.78902 0.80263 0.0
C62 C 0.4787 0.86472 0.93893 0.0
O63 O 0.50394 0.86355 0.93882 0.0
H64 H 0.5398 0.85153 0.7563 0.0
H65 H 0.45327 0.80593 0.8414 0.0
O66 O 0.4673 0.86893 0.73215 0.0
H67 H 0.58949 0.97 0.77509 0.0
H68 H 0.46803 0.76452 0.80686 0.0
Cu69 Cu 0.63853 0.4814 0.12547 0.0
N70 N 0.62055 0.50584 0.12261 0.0
N71 N 0.58442 0.51853 0.116 0.0
C72 C 0.59053 0.49551 0.12157 0.0
C73 C 0.61146 0.54436 0.11335 0.0
C74 C 0.63383 0.53643 0.11747 0.0
O75 O 0.62517 0.45905 0.20839 0.0
C76 C 0.63841 0.44553 1.01525 0.0
O77 O 0.66076 0.44389 0.04271 0.0
H78 H 0.57352 0.4716 0.12363 0.0
H79 H 0.65802 0.55178 0.11574 0.0
N80 N 0.68087 0.50631 0.12454 0.0
N81 N 0.7296 0.52511 0.09723 0.0
C82 C 0.70068 0.51034 0.07665 0.0
C83 C 0.69804 0.52039 0.17611 0.0
C84 C 0.72806 0.53163 0.15972 0.0
C85 C 0.64028 0.45059 0.24359 0.0
O86 O 0.66539 0.45261 0.22069 0.0
H87 H 0.69419 0.50126 1.02859 0.0
H88 H 0.68917 0.52117 0.22319 0.0
O89 O 0.62483 0.4572 0.04598 0.0
H90 H 0.61468 0.56714 0.10794 0.0
H91 H 0.7472 0.54261 0.19177 0.0
Cu92 Cu 0.17936 0.63451 0.43615 0.0
N93 N 0.13749 0.61599 0.44694 0.0
N94 N 0.08972 0.57847 0.45608 0.0
C95 C 0.11812 0.58608 0.4383 0.0
C96 C 0.09107 0.60432 0.47733 0.0
C97 C 0.12073 0.62752 0.47193 0.0
O98 O 0.1934 0.62466 0.51458 0.0
C99 C 0.17623 0.62029 0.30714 0.0
O100 O 0.16146 0.63554 0.30688 0.0
H101 H 0.12485 0.57002 0.42127 0.0
H102 H 0.12961 0.65077 0.48785 0.0
N103 N 0.19691 0.67657 0.42231 0.0
N104 N 0.2315 0.7246 0.39852 0.0
C105 C 0.22671 0.69707 0.41854 0.0
C106 C 0.18261 0.69177 0.40377 0.0
C107 C 0.20393 0.72147 0.38925 0.0
C108 C 0.19542 0.63908 0.56627 0.0
O109 O 0.19282 0.66372 0.5638 0.0
H110 H 0.24447 0.69158 0.427 0.0
H111 H 0.15845 0.6816 0.3975 0.0
O112 O 0.18684 0.61682 0.35998 0.0
H113 H 0.07216 0.60602 0.49693 0.0
H114 H 0.19967 0.73906 0.37064 0.0
Cu115 Cu 0.57108 0.16053 0.76412 0.0
N116 N 0.54737 0.11824 0.7707 0.0
N117 N 0.53659 0.06979 0.7794 0.0
C118 C 0.55863 0.09921 0.77808 0.0
C119 C 0.51039 0.07012 0.77264 0.0
C120 C 0.51713 0.1002 0.76732 0.0
O121 O 0.59767 0.17173 0.83856 0.0
C122 C 0.60998 0.19356 0.65557 0.0
O123 O 0.61827 0.21889 0.68761 0.0
H124 H 0.58255 0.10675 0.78154 0.0
H125 H 0.50121 0.10832 0.76073 0.0
N126 N 0.54744 0.17972 0.76717 0.0
N127 N 0.53351 0.21483 0.74935 0.0
C128 C 0.54886 0.20129 0.72634 0.0
C129 C 0.52984 0.17904 0.81681 0.0
C130 C 0.52144 0.20086 0.80623 0.0
C131 C 0.60234 0.19263 0.87881 0.0
O132 O 0.59324 0.2123 0.86595 0.0
H133 H 0.56242 0.20843 0.68267 0.0
H134 H 0.52515 0.16508 0.8597 0.0
O135 O 0.59172 0.16793 0.68117 0.0
H136 H 0.48814 0.05008 0.77104 0.0
H137 H 0.50863 0.20697 0.83898 0.0
Cu138 Cu 0.49692 0.62692 0.60257 0.0
N139 N 0.52707 0.61678 0.61588 0.0
N140 N 0.5462 0.5856 0.62619 0.0
C141 C 0.52164 0.58787 0.61174 0.0
C142 C 0.56817 0.61417 0.64004 0.0
C143 C 0.55621 0.63349 0.63371 0.0
O144 O 0.48181 0.61144 0.51619 0.0
C145 C 0.45836 0.62227 0.70962 0.0
O146 O 0.45975 0.64721 0.68667 0.0
H147 H 0.49987 0.56872 0.59929 0.0
H148 H 0.56775 0.65779 0.64237 0.0
N149 N 0.51084 0.66895 0.60051 0.0
N150 N 0.5217 0.71506 0.63698 0.0
C151 C 0.52582 0.69064 0.64535 0.0
C152 C 0.49824 0.68068 0.56113 0.0
C153 C 0.5047 0.70878 0.58345 0.0
C154 C 0.45599 0.60265 0.49133 0.0
O155 O 0.43398 0.6016 0.52691 0.0
H156 H 0.53738 0.68753 0.68583 0.0
H157 H 0.48293 0.66836 0.52245 0.0
O158 O 0.4692 0.60851 0.67654 0.0
H159 H 0.59093 0.62043 0.6544 0.0
H160 H 0.49581 0.72274 0.56428 0.0
Cu161 Cu 0.89237 0.50329 0.95386 0.0
N162 N 0.93441 0.52701 0.95823 0.0
N163 N 0.98251 0.53764 0.95682 0.0
C164 C 0.95342 0.51589 0.94988 0.0
C165 C 0.98201 0.56351 0.9704 0.0
C166 C 0.95212 0.55686 0.97119 0.0
O167 O 0.88367 0.47998 0.87427 0.0
C168 C 0.88403 0.49139 0.08555 0.0
O169 O 0.89663 0.52125 0.08665 0.0
H170 H 0.94605 0.49224 0.93925 0.0
H171 H 0.94388 0.57256 0.98093 0.0
N172 N 0.87262 0.52629 0.95303 0.0
N173 N 0.83622 0.53786 0.97346 0.0
C174 C 0.84709 0.51889 0.9865 0.0
C175 C 0.87809 0.55084 0.91712 0.0
C176 C 0.85547 0.55791 0.92929 0.0
C177 C 0.89521 0.49498 0.82223 0.0
O178 O 0.91125 0.52487 0.82439 0.0
H179 H 0.83596 0.49918 1.01794 0.0
H180 H 0.89681 0.56244 0.88357 0.0
O181 O 0.87936 0.47788 1.03138 0.0
H182 H 1.00177 0.58547 0.97918 0.0
H183 H 0.85316 0.57612 0.90719 0.0
Cu184 Cu 0.42685 0.89243 0.30651 0.0
N185 N 0.44331 0.93465 0.30801 0.0
N186 N 0.47873 0.98372 0.30336 0.0
C187 C 0.47247 0.95477 0.29432 0.0
C188 C 0.45265 0.98198 0.32361 0.0
C189 C 0.43073 0.95151 0.32663 0.0
O190 O 0.44192 0.88343 0.22812 0.0
C191 C 0.43116 0.88519 0.43701 0.0
O192 O 0.41145 0.89487 0.43821 0.0
H193 H 0.48897 0.94829 0.27946 0.0
H194 H 0.40755 0.9423 0.34285 0.0
N195 N 0.38459 0.87178 0.30857 0.0
N196 N 0.33721 0.83486 0.32693 0.0
C197 C 0.36674 0.84379 0.33395 0.0
C198 C 0.36564 0.88069 0.28443 0.0
C199 C 0.33624 0.85786 0.29587 0.0
C200 C 0.42539 0.86378 0.18665 0.0
O201 O 0.39631 0.84613 0.19768 0.0
H202 H 0.37519 0.83012 0.3565 0.0
H203 H 0.37271 0.9021 0.2596 0.0
O204 O 0.441 0.88157 0.38301 0.0
H205 H 0.44993 1.00127 0.33661 0.0
H206 H 0.31577 0.85788 0.28191 0.0
Cu207 Cu 0.57468 0.41278 0.63221 0.0
N208 N 0.55152 0.43222 0.63074 0.0
N209 N 0.54045 0.46988 0.63028 0.0
C210 C 0.56264 0.46263 0.62706 0.0
C211 C 0.51437 0.44319 0.63626 0.0
C212 C 0.52128 0.41991 0.63656 0.0
O213 O 0.60018 0.42727 0.55315 0.0
C214 C 0.61353 0.41676 0.7415 0.0
O215 O 0.62442 0.40254 0.70682 0.0
H216 H 0.58652 0.47914 0.62313 0.0
H217 H 0.50546 0.39577 0.64169 0.0
N218 N 0.54931 0.37021 0.63025 0.0
N219 N 0.53377 0.32076 0.64761 0.0
C220 C 0.55178 0.34966 0.66757 0.0
C221 C 0.52817 0.35359 0.58622 0.0
C222 C 0.51881 0.32309 0.59633 0.0
C223 C 0.60048 0.40969 0.50908 0.0
O224 O 0.58734 0.3802 0.51993 0.0
H225 H 0.56764 0.35573 0.70639 0.0
H226 H 0.52126 0.3631 0.54742 0.0
O227 O 0.5951 0.424 0.71625 0.0
H228 H 0.49207 0.44083 0.64078 0.0
H229 H 0.50308 0.30418 0.56708 0.0
Cu230 Cu 0.17547 0.5559 0.93323 0.0
N231 N 0.13326 0.53191 0.93064 0.0
N232 N 0.08474 0.52005 0.93428 0.0
C233 C 0.11377 0.54269 0.93512 0.0
C234 C 0.08578 0.49396 0.92884 0.0
C235 C 0.11586 0.50136 0.92675 0.0
O236 O 0.18849 0.58358 0.85958 0.0
C237 C 0.17712 0.5633 0.06599 0.0
O238 O 0.16398 0.5334 0.06426 0.0
H239 H 0.12073 0.56664 0.9398 0.0
H240 H 0.1244 0.48557 0.92351 0.0
N241 N 0.19486 0.53253 0.9312 0.0
N242 N 0.22926 0.51833 0.95114 0.0
C243 C 0.21859 0.53715 0.96762 0.0
C244 C 0.19037 0.5099 0.89045 0.0
C245 C 0.21171 0.50119 0.90245 0.0
C246 C 0.1814 0.57247 0.8032 0.0
O247 O 0.16558 0.54278 0.79615 0.0
H248 H 0.22847 0.55457 1.00417 0.0
H249 H 0.17321 0.50077 0.85367 0.0
O250 O 0.18499 0.57844 1.01338 0.0
H251 H 0.06624 0.4713 0.9273 0.0
H252 H 0.21447 0.48399 0.87698 0.0
Cu253 Cu 0.65104 0.17874 0.26404 0.0
N254 N 0.63283 0.13635 0.26716 0.0
N255 N 0.59595 0.08802 0.27542 0.0
C256 C 0.60273 0.11722 0.26734 0.0
C257 C 0.62263 0.08859 0.28068 0.0
C258 C 0.64548 0.1186 0.27554 0.0
O259 O 0.63754 0.18976 0.18584 0.0
C260 C 0.64737 0.18434 0.3961 0.0
O261 O 0.66416 0.17122 0.39436 0.0
H262 H 0.5861 0.12462 0.26367 0.0
H263 H 0.66951 0.12695 0.27969 0.0
N264 N 0.69325 0.19776 0.26286 0.0
N265 N 0.74094 0.23234 0.28532 0.0
C266 C 0.71149 0.22327 0.29555 0.0
C267 C 0.71188 0.19058 0.23018 0.0
C268 C 0.74148 0.21207 0.24379 0.0
C269 C 0.64249 0.18052 0.13232 0.0
O270 O 0.65612 0.16418 0.13209 0.0
H271 H 0.70336 0.23524 0.3257 0.0
H272 H 0.70454 0.17118 0.19865 0.0
O273 O 0.6389 0.19067 0.34322 0.0
H274 H 0.62527 0.06886 0.28927 0.0
H275 H 0.76175 0.21274 0.22514 0.0
C276 C 0.46106 0.57039 0.32764 0.0
C277 C 0.4433 0.57837 0.28817 0.0
C278 C 0.43799 0.6066 0.37934 0.0
C279 C 0.45136 0.59425 0.4213 0.0
N280 N 0.47049 0.55923 0.43578 0.0
N281 N 0.41096 0.6007 0.27973 0.0
C282 C 0.46168 0.57486 0.39549 0.0
C283 C 0.43082 0.59574 0.3147 0.0
N284 N 0.47781 0.55893 0.3 0.0
N285 N 0.43321 0.6296 0.40001 0.0
H286 H 0.40498 0.59322 0.23249 0.0
H287 H 0.39851 0.61008 0.29956 0.0
H288 H 0.43913 0.6391 0.44585 0.0
H289 H 0.42637 0.64143 0.36939 0.0
H290 H 0.49333 0.55526 0.32556 0.0
H291 H 0.47869 0.55638 0.25018 0.0
H292 H 0.47545 0.54262 0.41961 0.0
H293 H 0.46957 0.56021 0.48595 0.0
C294 C 0.86593 0.44617 0.67043 0.0
C295 C 0.89376 0.45398 0.63892 0.0
C296 C 0.92178 0.48505 0.73136 0.0
C297 C 0.89414 0.47937 0.76079 0.0
N298 N 0.84009 0.45839 0.75441 0.0
N299 N 0.94799 0.48596 0.63266 0.0
C300 C 0.86619 0.46093 0.72931 0.0
C301 C 0.92163 0.47494 0.66747 0.0
N302 N 0.83935 0.42389 0.64539 0.0
N303 N 0.9481 0.49896 0.7655 0.0
H304 H 0.94869 0.47961 0.58508 0.0
H305 H 0.96864 0.50366 0.64844 0.0
H306 H 0.94907 0.50593 0.81315 0.0
H307 H 0.96835 0.50079 0.74902 0.0
H308 H 0.81867 0.41469 0.66978 0.0
H309 H 0.83827 0.41305 0.60188 0.0
H310 H 0.81955 0.44805 0.73019 0.0
H311 H 0.83941 0.46869 0.79751 0.0
C312 C 0.46439 0.89082 1.02338 0.0
C313 C 0.46385 0.86401 1.001 0.0
C314 C 0.43966 0.83746 0.10218 0.0
C315 C 0.43826 0.86357 0.12254 0.0
N316 N 0.44382 0.91295 0.098 0.0
N317 N 0.4472 0.81045 1.01358 0.0
C318 C 0.44911 0.88968 0.08188 0.0
C319 C 0.45041 0.83691 0.03888 0.0
N320 N 0.48054 0.9177 0.99013 0.0
N321 N 0.4318 0.8137 0.14424 0.0
H322 H 0.45497 0.80927 0.96752 0.0
H323 H 0.43473 0.78922 0.03589 0.0
H324 H 0.42375 0.8133 0.19091 0.0
H325 H 0.43547 0.7955 0.13493 0.0
H326 H 0.48472 0.93871 1.00794 0.0
H327 H 0.49204 0.9195 0.94699 0.0
H328 H 0.44829 0.93102 0.06702 0.0
H329 H 0.43238 0.91289 0.14006 0.0
C330 C 0.60022 0.41693 0.32533 0.0
C331 C 0.6304 0.44015 0.31195 0.0
C332 C 0.64171 0.44252 0.4284 0.0
C333 C 0.6109 0.42139 0.4419 0.0
N334 N 0.55945 0.39381 0.40407 0.0
N335 N 0.6784 0.47932 0.3533 0.0
C336 C 0.58977 0.41011 0.39055 0.0
C337 C 0.6508 0.45408 0.3642 0.0
N338 N 0.5818 0.40033 0.27592 0.0
N339 N 0.66255 0.4509 0.47648 0.0
H340 H 0.68597 0.489 0.3078 0.0
H341 H 0.6927 0.49242 0.3902 0.0
H342 H 0.65669 0.44324 0.52404 0.0
H343 H 0.68583 0.46337 0.46823 0.0
H344 H 0.5607 0.38102 0.28326 0.0
H345 H 0.58879 0.40383 0.2277 0.0
H346 H 0.54287 0.38776 0.36907 0.0
H347 H 0.55078 0.38912 0.45104 0.0
C348 C 0.16468 0.61071 0.66358 0.0
C349 C 0.19279 0.62397 0.62943 0.0
C350 C 0.21488 0.60758 0.71525 0.0
C351 C 0.18621 0.59245 0.74667 0.0
N352 N 0.13357 0.57852 0.75207 0.0
N353 N 0.24411 0.63394 0.61917 0.0
C354 C 0.1611 0.59392 0.72136 0.0
C355 C 0.21781 0.62218 0.65441 0.0
N356 N 0.14135 0.61418 0.64063 0.0
N357 N 0.23926 0.60808 0.74404 0.0
H358 H 0.24734 0.64582 0.57585 0.0
H359 H 0.26225 0.63077 0.6307 0.0
H360 H 0.23761 0.59704 0.7878 0.0
H361 H 0.26143 0.62092 0.72724 0.0
H362 H 0.12165 0.6085 0.66655 0.0
H363 H 0.14198 0.62407 0.59609 0.0
H364 H 0.1133 0.57494 0.73246 0.0
H365 H 0.13064 0.56805 0.79705 0.0
C366 C 0.60453 0.16011 0.04359 0.0
C367 C 0.63043 0.18506 0.07088 0.0
C368 C 0.63839 0.2152 0.9719 0.0
C369 C 0.6119 0.19056 0.94544 0.0
N370 N 0.5657 0.14263 0.96203 0.0
N371 N 0.66928 0.23789 0.06678 0.0
C372 C 0.59383 0.16383 0.98292 0.0
C373 C 0.64642 0.21318 0.03688 0.0
N374 N 0.59033 0.13265 0.07539 0.0
N375 N 0.65659 0.23988 0.93391 0.0
H376 H 0.67618 0.23689 0.11361 0.0
H377 H 0.67988 0.25985 0.04739 0.0
H378 H 0.65145 0.24204 0.88621 0.0
H379 H 0.67784 0.25717 0.94774 0.0
H380 H 0.57397 0.11252 0.05436 0.0
H381 H 0.59614 0.12952 0.12186 0.0
H382 H 0.55022 0.12431 0.99015 0.0
H383 H 0.55647 0.14482 0.91893 0.0
C384 C 0.30852 0.5467 1.00922 0.0
C385 C 0.30595 0.51988 0.03746 0.0
C386 C 0.25202 0.49204 1.01082 0.0
C387 C 0.25536 0.51817 0.97761 0.0
N388 N 0.28824 0.56784 0.93199 0.0
N389 N 0.27695 0.46588 0.05643 0.0
C390 C 0.28412 0.54475 0.97273 0.0
C391 C 0.27814 0.49213 0.03542 0.0
N392 N 0.33347 0.5743 1.02059 0.0
N393 N 0.22377 0.46781 1.02166 0.0
H394 H 0.29592 0.46552 0.07436 0.0
H395 H 0.25808 0.44435 0.05095 0.0
H396 H 0.20417 0.46749 1.00594 0.0
H397 H 0.21958 0.44928 0.05091 0.0
H398 H 0.33532 0.59496 1.00608 0.0
H399 H 0.351 0.57675 0.05026 0.0
H400 H 0.30942 0.58662 0.92201 0.0
H401 H 0.27094 0.56658 0.90307 0.0
C402 C 0.78972 0.31261 0.34128 0.0
C403 C 0.81043 0.30939 0.38146 0.0
C404 C 0.78532 0.25477 0.3576 0.0
C405 C 0.76617 0.25855 0.31363 0.0
N406 N 0.75473 0.29202 0.25228 0.0
N407 N 0.83206 0.27918 0.41809 0.0
C408 C 0.76993 0.28788 0.30181 0.0
C409 C 0.80952 0.28095 0.3864 0.0
N410 N 0.78756 0.3385 0.34401 0.0
N411 N 0.77932 0.22613 0.37467 0.0
H412 H 0.85021 0.29822 0.43884 0.0
H413 H 0.83422 0.25969 0.41852 0.0
H414 H 0.76117 0.20645 0.35608 0.0
H415 H 0.79066 0.22187 0.41139 0.0
H416 H 0.77093 0.34098 0.32016 0.0
H417 H 0.80034 0.35622 0.37562 0.0
H418 H 0.75852 0.31342 0.23764 0.0
H419 H 0.7406 0.2743 0.22176 0.0
C420 C 0.53148 0.79081 0.67761 0.0
C421 C 0.52392 0.78743 0.74438 0.0
C422 C 0.5213 0.73762 0.74524 0.0
C423 C 0.52905 0.741 0.67828 0.0
N424 N 0.55346 0.77609 0.59024 0.0
N425 N 0.52416 0.76393 0.845 0.0
C426 C 0.53862 0.76969 0.64819 0.0
C427 C 0.52367 0.76313 0.77922 0.0
N428 N 0.5292 0.81198 0.64061 0.0
N429 N 0.5089 0.70992 0.77559 0.0
H430 H 0.52595 0.78264 0.87032 0.0
H431 H 0.52611 0.74783 0.87316 0.0
H432 H 0.50432 0.68982 0.75301 0.0
H433 H 0.5002 0.70638 0.82251 0.0
H434 H 0.53155 0.81287 0.59049 0.0
H435 H 0.52218 0.82673 0.65849 0.0
H436 H 0.56271 0.79744 0.56794 0.0
H437 H 0.55925 0.76095 0.56865 0.0
C438 C 0.78218 0.55814 0.05731 0.0
C439 C 0.75615 0.52887 0.06305 0.0
C440 C 0.78138 0.50764 0.99727 0.0
C441 C 0.80884 0.53575 0.99995 0.0
N442 N 0.83668 0.5864 0.04419 0.0
N443 N 0.73443 0.47438 0.05276 0.0
C444 C 0.80964 0.56079 0.03291 0.0
C445 C 0.75659 0.50317 0.03672 0.0
N446 N 0.78047 0.58342 0.07386 0.0
N447 N 0.77875 0.48545 0.95597 0.0
H448 H 0.71755 0.47018 0.0867 0.0
H449 H 0.7351 0.45489 0.03872 0.0
H450 H 0.79603 0.48871 0.92389 0.0
H451 H 0.75834 0.46541 0.94854 0.0
H452 H 0.79804 0.60556 0.06537 0.0
H453 H 0.76039 0.58217 0.08996 0.0
H454 H 0.83871 0.60415 0.07321 0.0
H455 H 0.85737 0.58853 1.03018 0.0
C456 C 0.27268 0.75401 0.32016 0.0
C457 C 0.25992 0.75118 0.38259 0.0
C458 C 0.30025 0.80255 0.41026 0.0
C459 C 0.31182 0.80613 0.34653 0.0
N460 N 0.31055 0.7866 0.24049 0.0
N461 N 0.2601 0.77146 0.48717 0.0
C462 C 0.29852 0.78207 0.30143 0.0
C463 C 0.27349 0.77509 0.42791 0.0
N464 N 0.25977 0.72972 0.27923 0.0
N465 N 0.31514 0.82555 0.45349 0.0
H466 H 0.24106 0.7511 0.50143 0.0
H467 H 0.26699 0.78854 0.52156 0.0
H468 H 0.33431 0.8461 0.4408 0.0
H469 H 0.30958 0.82409 0.50225 0.0
H470 H 0.26853 0.72902 0.23418 0.0
H471 H 0.24038 0.7093 0.29154 0.0
H472 H 0.30127 0.77112 0.20299 0.0
H473 H 0.32995 0.80672 0.22665 0.0
C474 C 0.56114 0.26846 0.70992 0.0
C475 C 0.53342 0.24142 0.72311 0.0
C476 C 0.50586 0.26799 0.69237 0.0
C477 C 0.5334 0.2936 0.67163 0.0
N478 N 0.58631 0.31447 0.6452 0.0
N479 N 0.47912 0.2136 0.71439 0.0
C480 C 0.56082 0.29276 0.6759 0.0
C481 C 0.50563 0.24064 0.71074 0.0
N482 N 0.58769 0.27162 0.73258 0.0
N483 N 0.48021 0.27018 0.69718 0.0
H484 H 0.47835 0.19302 0.72533 0.0
H485 H 0.45842 0.21116 0.70023 0.0
H486 H 0.47992 0.29027 0.68676 0.0
H487 H 0.46012 0.25312 0.71767 0.0
H488 H 0.60819 0.29198 0.72893 0.0
H489 H 0.58861 0.25519 0.76163 0.0
H490 H 0.60625 0.3134 0.64242 0.0
H491 H 0.58642 0.33143 0.61613 0.0
C492 C 0.50892 0.51026 0.1627 0.0
C493 C 0.49739 0.51082 0.10101 0.0
C494 C 0.54264 0.51453 0.04918 0.0
C495 C 0.55497 0.51585 0.11094 0.0
N496 N 0.55202 0.51746 0.22634 0.0
N497 N 0.50338 0.51625 0.98589 0.0
C498 C 0.53863 0.51433 0.16779 0.0
C499 C 0.51428 0.51361 0.04422 0.0
N500 N 0.49105 0.50535 0.21598 0.0
N501 N 0.55798 0.51357 0.9956 0.0
H502 H 0.4824 0.51507 0.98121 0.0
H503 H 0.5156 0.52128 0.94278 0.0
H504 H 0.57903 0.51476 0.99825 0.0
H505 H 0.54927 0.5098 0.94914 0.0
H506 H 0.49677 0.50229 0.26242 0.0
H507 H 0.46933 0.50254 0.21299 0.0
H508 H 0.54274 0.51925 0.26993 0.0
H509 H 0.57358 0.51999 0.2309 0.0
C510 C 1.02301 0.50639 0.39617 0.0
C511 C 1.01137 0.49045 0.45515 0.0
C512 C 0.05363 0.5313 0.51366 0.0
C513 C 0.0636 0.54846 0.45559 0.0
N514 N 0.05708 0.55451 0.34292 0.0
N515 N 1.01321 0.48794 0.57067 0.0
C516 C 0.04819 0.53649 0.39699 0.0
C517 C 1.02617 0.50288 0.51416 0.0
N518 N 1.00994 0.49239 0.3396 0.0
N519 N 0.07086 0.5421 0.56776 0.0
H520 H 0.99335 0.46684 0.57199 0.0
H521 H 1.02094 0.49713 0.61611 0.0
H522 H 0.091 0.56294 0.56833 0.0
H523 H 0.06649 0.52965 0.61049 0.0
H524 H 1.01865 0.50147 0.29417 0.0
H525 H 0.99139 0.47033 0.3383 0.0
H526 H 0.04538 0.54838 0.29959 0.0
H527 H 0.0753 0.57676 0.34282 0.0
C528 C 0.54245 0.02895 0.72763 0.0
C529 C 0.54048 0.04343 0.78447 0.0
C530 C 0.54664 1.00653 0.85095 0.0
C531 C 0.54627 0.99069 0.79429 0.0
N532 N 0.54123 0.9845 0.6793 0.0
N533 N 0.53941 0.04639 0.8999 0.0
C534 C 0.54374 1.00144 0.73262 0.0
C535 C 0.5424 0.03238 0.84619 0.0
N536 N 0.54347 0.04193 0.66903 0.0
N537 N 0.55121 0.99664 0.90903 0.0
H538 H 0.53674 0.06559 0.89715 0.0
H539 H 0.53815 0.03844 0.94682 0.0
H540 H 0.55425 0.97769 0.91305 0.0
H541 H 0.55379 1.00791 0.95248 0.0
H542 H 0.54775 0.03441 0.62556 0.0
H543 H 0.54193 0.06172 0.66436 0.0
H544 H 0.5361 0.98905 0.63351 0.0
H545 H 0.54251 0.9645 0.6816 0.0
C546 C 0.54958 0.54451 0.56912 0.0
C547 C 0.54765 0.55778 0.62787 0.0
C548 C 0.54445 0.51439 0.6885 0.0
C549 C 0.54389 0.50001 0.62948 0.0
N550 N 0.54372 0.49943 0.51371 0.0
N551 N 0.54031 0.55487 0.74285 0.0
C552 C 0.54602 0.51465 0.56969 0.0
C553 C 0.54451 0.54266 0.68757 0.0
N554 N 0.55522 0.56087 0.5131 0.0
N555 N 0.54533 0.50099 0.74523 0.0
H556 H 0.54046 0.57563 0.74331 0.0
H557 H 0.53485 0.54374 0.78739 0.0
H558 H 0.54487 0.48008 0.74684 0.0
H559 H 0.54856 0.51135 0.79008 0.0
H560 H 0.55935 0.5539 0.46879 0.0
H561 H 0.55782 0.58274 0.51193 0.0
H562 H 0.54225 0.50731 0.46816 0.0
H563 H 0.54154 0.47774 0.51324 0.0
C564 C 0.04807 0.53244 0.88477 0.0
C565 C 0.05819 0.52333 0.93961 0.0
C566 C 1.01737 0.52249 1.00533 0.0
C567 C 1.00856 0.53355 0.9515 0.0
N568 N 1.01586 0.5512 0.84168 0.0
N569 N 0.05426 0.51087 0.05244 0.0
C570 C 1.02408 0.53917 0.8916 0.0
C571 C 0.0432 0.51854 1.00005 0.0
N572 N 0.06092 0.53355 0.82596 0.0
N573 N 1.00059 0.51541 0.06101 0.0
H574 H 0.07247 0.50685 0.04908 0.0
H575 H 0.0465 0.50978 0.0995 0.0
H576 H 0.98231 0.51922 0.06654 0.0
H577 H 1.00369 0.50455 0.10058 0.0
H578 H 0.05334 0.53766 0.78257 0.0
H579 H 0.07807 0.52806 0.8201 0.0
H580 H 1.02766 0.55841 0.79808 0.0
H581 H 0.99787 0.55556 0.84532 0.0
C582 C 0.52516 0.02488 0.35205 0.0
C583 C 0.50792 1.0107 0.29643 0.0
C584 C 0.54961 0.04687 0.22679 0.0
C585 C 0.56617 0.06194 0.28247 0.0
N586 N 0.56895 0.0688 0.39734 0.0
N587 N 0.50135 1.00938 0.18167 0.0
C588 C 0.55368 0.05192 0.34501 0.0
C589 C 0.51953 1.02206 0.23387 0.0
N590 N 0.51463 1.01171 0.41124 0.0
N591 N 0.56309 0.0561 0.16746 0.0
H592 H 0.47925 0.9912 0.18605 0.0
H593 H 0.50719 1.01793 0.13484 0.0
H594 H 0.58498 0.07448 0.16148 0.0
H595 H 0.55355 0.04469 0.12474 0.0
H596 H 0.52726 1.01903 0.4533 0.0
H597 H 0.49381 0.99187 0.41755 0.0
H598 H 0.55993 0.06465 0.44393 0.0
H599 H 0.59007 0.08849 0.39329 0.0
C600 C 0.4194 0.60323 0.79951 0.0
C601 C 0.44969 0.61394 0.77881 0.0
C602 C 0.46488 0.61507 0.89201 0.0
C603 C 0.43409 0.60133 0.91212 0.0
N604 N 0.38131 0.57871 0.8833 0.0
N605 N 0.50136 0.6284 0.80454 0.0
C606 C 0.41116 0.59467 0.86548 0.0
C607 C 0.4724 0.61917 0.82483 0.0
N608 N 0.39843 0.60135 0.75606 0.0
N609 N 0.48716 0.62591 0.93743 0.0
H610 H 0.50868 0.63425 0.75686 0.0
H611 H 0.51786 0.62859 0.83434 0.0
H612 H 0.48266 0.62437 0.98691 0.0
H613 H 0.51012 0.6391 0.92647 0.0
H614 H 0.37705 0.59764 0.76929 0.0
H615 H 0.40303 0.60551 0.70678 0.0
H616 H 0.36358 0.56981 0.85057 0.0
H617 H 0.37401 0.57219 0.9306 0.0
C618 C 0.85454 0.46499 0.25663 0.0
C619 C 0.86812 0.44701 0.27138 0.0
C620 C 0.89221 0.45807 0.16396 0.0
C621 C 0.87697 0.47428 0.14759 0.0
N622 N 0.8395 0.48878 0.17401 0.0
N623 N 0.89458 0.42103 0.23464 0.0
C624 C 0.85687 0.4764 0.19268 0.0
C625 C 0.88538 0.44194 0.22368 0.0
N626 N 0.84077 0.47252 0.30444 0.0
N627 N 0.91447 0.45942 0.12423 0.0
H628 H 0.88993 0.40857 0.27747 0.0
H629 H 0.90428 0.41394 0.19907 0.0
H630 H 0.92053 0.47122 0.08036 0.0
H631 H 0.92884 0.45115 0.1374 0.0
H632 H 0.83357 0.48845 0.29842 0.0
H633 H 0.8388 0.46488 0.35198 0.0
H634 H 0.822 0.48785 0.20215 0.0
H635 H 0.84079 0.4977 0.12798 0.0
C636 C 0.45452 0.85048 0.57335 0.0
C637 C 0.46623 0.87493 0.61782 0.0
C638 C 0.45822 0.90692 0.54038 0.0
C639 C 0.44388 0.88161 0.49829 0.0
N640 N 0.42412 0.82799 0.47818 0.0
N641 N 0.47528 0.92486 0.64859 0.0
C642 C 0.44095 0.853 0.51553 0.0
C643 C 0.46672 0.90263 0.60295 0.0
N644 N 0.45663 0.82498 0.58614 0.0
N645 N 0.46531 0.93544 0.51923 0.0
H646 H 0.48268 0.92306 0.69433 0.0
H647 H 0.47282 0.94405 0.64297 0.0
H648 H 0.46046 0.9398 0.47286 0.0
H649 H 0.4787 0.95525 0.54511 0.0
H650 H 0.45181 0.80794 0.5524 0.0
H651 H 0.46507 0.8217 0.62939 0.0
H652 H 0.41842 0.80588 0.49178 0.0
H653 H 0.41367 0.82889 0.43576 0.0
C654 C 0.61624 0.40064 0.85675 0.0
C655 C 0.62201 0.42416 0.81106 0.0
C656 C 0.6369 0.46125 0.8997 0.0
C657 C 0.63212 0.43796 0.94516 0.0
N658 N 0.62099 0.38641 0.96639 0.0
N659 N 0.64407 0.47778 0.78755 0.0
C660 C 0.6231 0.408 0.92334 0.0
C661 C 0.63391 0.45469 0.83227 0.0
N662 N 0.60271 0.37093 0.83735 0.0
N663 N 0.64457 0.48987 0.92063 0.0
H664 H 0.64326 0.47404 0.73793 0.0
H665 H 0.65606 0.50083 0.79912 0.0
H666 H 0.65012 0.49696 0.96817 0.0
H667 H 0.64394 0.50635 0.89137 0.0
H668 H 0.59393 0.3524 0.86903 0.0
H669 H 0.59846 0.36436 0.78938 0.0
H670 H 0.61882 0.36556 0.95278 0.0
H671 H 0.62306 0.38986 1.01611 0.0
C672 C 0.20546 0.59859 0.15741 0.0
C673 C 0.17761 0.57842 0.1275 0.0
C674 C 0.14964 0.58237 0.22022 0.0
C675 C 0.17727 0.6047 0.24752 0.0
N676 N 0.23135 0.63735 0.23881 0.0
N677 N 0.12331 0.55607 0.12379 0.0
C678 C 0.20523 0.61366 0.21538 0.0
C679 C 0.14972 0.57164 0.15713 0.0
N680 N 0.23201 0.60269 0.13136 0.0
N681 N 0.12337 0.57065 0.25548 0.0
H682 H 0.12246 0.54842 0.07675 0.0
H683 H 0.10273 0.55348 0.14017 0.0
H684 H 0.12245 0.57762 0.30232 0.0
H685 H 0.10311 0.55197 0.24086 0.0
H686 H 0.25277 0.61444 0.15448 0.0
H687 H 0.23299 0.59242 0.08845 0.0
H688 H 0.25192 0.64722 0.21384 0.0
H689 H 0.23205 0.64872 0.28131 0.0
C690 C 0.59759 0.18006 0.53893 0.0
C691 C 0.61982 0.19448 0.58741 0.0
C692 C 0.65981 0.20825 0.50577 0.0
C693 C 0.63759 0.19012 0.45974 0.0
N694 N 0.5853 0.15467 0.43559 0.0
N695 N 0.67226 0.21916 0.61883 0.0
C696 C 0.60643 0.1751 0.47689 0.0
C697 C 0.65103 0.20802 0.57128 0.0
N698 N 0.56807 0.17179 0.55157 0.0
N699 N 0.68929 0.22611 0.4866 0.0
H700 H 0.66682 0.21911 0.66747 0.0
H701 H 0.69501 0.22608 0.61089 0.0
H702 H 0.69653 0.22689 0.4391 0.0
H703 H 0.70596 0.24223 0.51625 0.0
H704 H 0.55151 0.16413 0.51613 0.0
H705 H 0.56068 0.17547 0.59597 0.0
H706 H 0.56275 0.14036 0.44883 0.0
H707 H 0.59067 0.14993 0.38998 0.0
loop_
_geom_bond_atom_site_label_1
_geom_bond_atom_site_label_2
_geom_bond_distance
_geom_bond_site_symmetry_2
_ccdc_geom_bond_type
Cu0 N1 1.999 . S
Cu0 O6 1.974 . S
Cu0 N11 1.985 . S
Cu0 O20 1.959 1_554 S
N1 Cu0 1.999 . S
N1 C3 1.263 . S
N1 C5 1.389 . S
N2 C3 1.358 . S
N2 C4 1.400 . S
C3 N1 1.263 . S
C3 N2 1.358 . S
C3 H9 0.930 . S
C4 N2 1.400 . S
C4 C5 1.351 . S
C4 H21 0.930 . S
C5 N1 1.389 . S
C5 C4 1.351 . S
C5 H10 0.930 . S
O6 Cu0 1.974 . S
O6 C16 1.282 . S
C7 O8 1.261 . S
C7 O20 1.251 . S
O8 C7 1.261 . S
H9 C3 0.930 . S
H10 C5 0.930 . S
N11 Cu0 1.985 . S
N11 C13 1.335 . S
N11 C14 1.390 . S
N12 C13 1.345 . S
N12 C15 1.336 . S
C13 N11 1.335 . S
C13 N12 1.345 . S
C13 H18 0.930 . S
C14 N11 1.390 . S
C14 C15 1.346 . S
C14 H19 0.930 . S
C15 N12 1.336 . S
C15 C14 1.346 . S
C15 H22 0.929 . S
C16 O6 1.282 . S
C16 O17 1.216 . S
O17 C16 1.216 . S
H18 C13 0.930 . S
H19 C14 0.930 . S
O20 Cu0 1.959 1_556 S
O20 C7 1.251 . S
H21 C4 0.930 . S
H22 C15 0.929 . S
Cu23 N24 1.999 . S
Cu23 O29 1.974 . S
Cu23 N34 1.985 . S
Cu23 O43 1.959 . S
N24 Cu23 1.999 . S
N24 C26 1.263 . S
N24 C28 1.389 . S
N25 C26 1.358 . S
N25 C27 1.400 . S
C26 N24 1.263 . S
C26 N25 1.358 . S
C26 H32 0.930 . S
C27 N25 1.400 . S
C27 C28 1.351 . S
C27 H44 0.930 . S
C28 N24 1.389 . S
C28 C27 1.351 . S
C28 H33 0.930 . S
O29 Cu23 1.974 . S
O29 C39 1.282 . S
C30 O31 1.261 . S
C30 O43 1.251 . S
O31 C30 1.261 . S
H32 C26 0.930 . S
H33 C28 0.930 . S
N34 Cu23 1.985 . S
N34 C36 1.335 . S
N34 C37 1.390 . S
N35 C36 1.345 . S
N35 C38 1.336 . S
C36 N34 1.335 . S
C36 N35 1.345 . S
C36 H41 0.930 . S
C37 N34 1.390 . S
C37 C38 1.346 . S
C37 H42 0.930 . S
C38 N35 1.336 . S
C38 C37 1.346 . S
C38 H45 0.929 . S
C39 O29 1.282 . S
C39 O40 1.216 . S
O40 C39 1.216 . S
H41 C36 0.930 . S
H42 C37 0.930 . S
O43 Cu23 1.959 . S
O43 C30 1.251 . S
H44 C27 0.930 . S
H45 C38 0.929 . S
Cu46 N47 1.999 . S
Cu46 O52 1.974 . S
Cu46 N57 1.985 . S
Cu46 O66 1.959 . S
N47 Cu46 1.999 . S
N47 C49 1.263 . S
N47 C51 1.389 . S
N48 C49 1.358 . S
N48 C50 1.400 . S
C49 N47 1.263 . S
C49 N48 1.358 . S
C49 H55 0.930 . S
C50 N48 1.400 . S
C50 C51 1.351 . S
C50 H67 0.930 . S
C51 N47 1.389 . S
C51 C50 1.351 . S
C51 H56 0.930 . S
O52 Cu46 1.974 . S
O52 C62 1.282 . S
C53 O54 1.261 . S
C53 O66 1.251 . S
O54 C53 1.261 . S
H55 C49 0.930 . S
H56 C51 0.930 . S
N57 Cu46 1.985 . S
N57 C59 1.335 . S
N57 C60 1.390 . S
N58 C59 1.345 . S
N58 C61 1.336 . S
C59 N57 1.335 . S
C59 N58 1.345 . S
C59 H64 0.930 . S
C60 N57 1.390 . S
C60 C61 1.346 . S
C60 H65 0.930 . S
C61 N58 1.336 . S
C61 C60 1.346 . S
C61 H68 0.929 . S
C62 O52 1.282 . S
C62 O63 1.216 . S
O63 C62 1.216 . S
H64 C59 0.930 . S
H65 C60 0.930 . S
O66 Cu46 1.959 . S
O66 C53 1.251 . S
H67 C50 0.930 . S
H68 C61 0.929 . S
Cu69 N70 1.999 . S
Cu69 O75 1.974 . S
Cu69 N80 1.985 . S
Cu69 O89 1.959 1_554 S
N70 Cu69 1.999 . S
N70 C72 1.263 . S
N70 C74 1.389 . S
N71 C72 1.358 . S
N71 C73 1.400 . S
C72 N70 1.263 . S
C72 N71 1.358 . S
C72 H78 0.930 . S
C73 N71 1.400 . S
C73 C74 1.351 . S
C73 H90 0.930 . S
C74 N70 1.389 . S
C74 C73 1.351 . S
C74 H79 0.930 . S
O75 Cu69 1.974 . S
O75 C85 1.282 . S
C76 O77 1.261 . S
C76 O89 1.251 . S
O77 C76 1.261 . S
H78 C72 0.930 . S
H79 C74 0.930 . S
N80 Cu69 1.985 . S
N80 C82 1.335 . S
N80 C83 1.390 . S
N81 C82 1.345 . S
N81 C84 1.336 . S
C82 N80 1.335 . S
C82 N81 1.345 . S
C82 H87 0.930 . S
C83 N80 1.390 . S
C83 C84 1.346 . S
C83 H88 0.930 . S
C84 N81 1.336 . S
C84 C83 1.346 . S
C84 H91 0.929 . S
C85 O75 1.282 . S
C85 O86 1.216 . S
O86 C85 1.216 . S
H87 C82 0.930 . S
H88 C83 0.930 . S
O89 Cu69 1.959 1_556 S
O89 C76 1.251 . S
H90 C73 0.930 . S
H91 C84 0.929 . S
Cu92 N93 1.999 . S
Cu92 O98 1.974 . S
Cu92 N103 1.985 . S
Cu92 O112 1.959 . S
N93 Cu92 1.999 . S
N93 C95 1.263 . S
N93 C97 1.389 . S
N94 C95 1.358 . S
N94 C96 1.400 . S
C95 N93 1.263 . S
C95 N94 1.358 . S
C95 H101 0.930 . S
C96 N94 1.400 . S
C96 C97 1.351 . S
C96 H113 0.930 . S
C97 N93 1.389 . S
C97 C96 1.351 . S
C97 H102 0.930 . S
O98 Cu92 1.974 . S
O98 C108 1.282 . S
C99 O100 1.261 . S
C99 O112 1.251 . S
O100 C99 1.261 . S
H101 C95 0.930 . S
H102 C97 0.930 . S
N103 Cu92 1.985 . S
N103 C105 1.335 . S
N103 C106 1.390 . S
N104 C105 1.345 . S
N104 C107 1.336 . S
C105 N103 1.335 . S
C105 N104 1.345 . S
C105 H110 0.930 . S
C106 N103 1.390 . S
C106 C107 1.346 . S
C106 H111 0.930 . S
C107 N104 1.336 . S
C107 C106 1.346 . S
C107 H114 0.929 . S
C108 O98 1.282 . S
C108 O109 1.216 . S
O109 C108 1.216 . S
H110 C105 0.930 . S
H111 C106 0.930 . S
O112 Cu92 1.959 . S
O112 C99 1.251 . S
H113 C96 0.930 . S
H114 C107 0.929 . S
Cu115 N116 1.999 . S
Cu115 O121 1.974 . S
Cu115 N126 1.985 . S
Cu115 O135 1.959 . S
N116 Cu115 1.999 . S
N116 C118 1.263 . S
N116 C120 1.389 . S
N117 C118 1.358 . S
N117 C119 1.400 . S
C118 N116 1.263 . S
C118 N117 1.358 . S
C118 H124 0.930 . S
C119 N117 1.400 . S
C119 C120 1.351 . S
C119 H136 0.930 . S
C120 N116 1.389 . S
C120 C119 1.351 . S
C120 H125 0.930 . S
O121 Cu115 1.974 . S
O121 C131 1.282 . S
C122 O123 1.261 . S
C122 O135 1.251 . S
O123 C122 1.261 . S
H124 C118 0.930 . S
H125 C120 0.930 . S
N126 Cu115 1.985 . S
N126 C128 1.335 . S
N126 C129 1.390 . S
N127 C128 1.345 . S
N127 C130 1.336 . S
C128 N126 1.335 . S
C128 N127 1.345 . S
C128 H133 0.930 . S
C129 N126 1.390 . S
C129 C130 1.346 . S
C129 H134 0.930 . S
C130 N127 1.336 . S
C130 C129 1.346 . S
C130 H137 0.929 . S
C131 O121 1.282 . S
C131 O132 1.216 . S
O132 C131 1.216 . S
H133 C128 0.930 . S
H134 C129 0.930 . S
O135 Cu115 1.959 . S
O135 C122 1.251 . S
H136 C119 0.930 . S
H137 C130 0.929 . S
Cu138 N139 1.999 . S
Cu138 O144 1.974 . S
Cu138 N149 1.985 . S
Cu138 O158 1.959 . S
N139 Cu138 1.999 . S
N139 C141 1.263 . S
N139 C143 1.389 . S
N140 C141 1.358 . S
N140 C142 1.400 . S
C141 N139 1.263 . S
C141 N140 1.358 . S
C141 H147 0.930 . S
C142 N140 1.400 . S
C142 C143 1.351 . S
C142 H159 0.930 . S
C143 N139 1.389 . S
C143 C142 1.351 . S
C143 H148 0.930 . S
O144 Cu138 1.974 . S
O144 C154 1.282 . S
C145 O146 1.261 . S
C145 O158 1.251 . S
O146 C145 1.261 . S
H147 C141 0.930 . S
H148 C143 0.930 . S
N149 Cu138 1.985 . S
N149 C151 1.335 . S
N149 C152 1.390 . S
N150 C151 1.345 . S
N150 C153 1.336 . S
C151 N149 1.335 . S
C151 N150 1.345 . S
C151 H156 0.930 . S
C152 N149 1.390 . S
C152 C153 1.346 . S
C152 H157 0.930 . S
C153 N150 1.336 . S
C153 C152 1.346 . S
C153 H160 0.929 . S
C154 O144 1.282 . S
C154 O155 1.216 . S
O155 C154 1.216 . S
H156 C151 0.930 . S
H157 C152 0.930 . S
O158 Cu138 1.959 . S
O158 C145 1.251 . S
H159 C142 0.930 . S
H160 C153 0.929 . S
Cu161 N162 1.999 . S
Cu161 O167 1.974 . S
Cu161 N172 1.985 . S
Cu161 O181 1.959 1_556 S
N162 Cu161 1.999 . S
N162 C164 1.263 . S
N162 C166 1.389 . S
N163 C164 1.358 . S
N163 C165 1.400 . S
C164 N162 1.263 . S
C164 N163 1.358 . S
C164 H170 0.930 . S
C165 N163 1.400 . S
C165 C166 1.351 . S
C165 H182 0.930 . S
C166 N162 1.389 . S
C166 C165 1.351 . S
C166 H171 0.930 . S
O167 Cu161 1.974 . S
O167 C177 1.282 . S
C168 O169 1.261 . S
C168 O181 1.251 . S
O169 C168 1.261 . S
H170 C164 0.930 . S
H171 C166 0.930 . S
N172 Cu161 1.985 . S
N172 C174 1.335 . S
N172 C175 1.390 . S
N173 C174 1.345 . S
N173 C176 1.336 . S
C174 N172 1.335 . S
C174 N173 1.345 . S
C174 H179 0.930 . S
C175 N172 1.390 . S
C175 C176 1.346 . S
C175 H180 0.930 . S
C176 N173 1.336 . S
C176 C175 1.346 . S
C176 H183 0.929 . S
C177 O167 1.282 . S
C177 O178 1.216 . S
O178 C177 1.216 . S
H179 C174 0.930 . S
H180 C175 0.930 . S
O181 Cu161 1.959 1_554 S
O181 C168 1.251 . S
H182 C165 0.930 . S
H183 C176 0.929 . S
Cu184 N185 1.999 . S
Cu184 O190 1.974 . S
Cu184 N195 1.985 . S
Cu184 O204 1.959 . S
N185 Cu184 1.999 . S
N185 C187 1.263 . S
N185 C189 1.389 . S
N186 C187 1.358 . S
N186 C188 1.400 . S
C187 N185 1.263 . S
C187 N186 1.358 . S
C187 H193 0.930 . S
C188 N186 1.400 . S
C188 C189 1.351 . S
C188 H205 0.930 . S
C189 N185 1.389 . S
C189 C188 1.351 . S
C189 H194 0.930 . S
O190 Cu184 1.974 . S
O190 C200 1.282 . S
C191 O192 1.261 . S
C191 O204 1.251 . S
O192 C191 1.261 . S
H193 C187 0.930 . S
H194 C189 0.930 . S
N195 Cu184 1.985 . S
N195 C197 1.335 . S
N195 C198 1.390 . S
N196 C197 1.345 . S
N196 C199 1.336 . S
C197 N195 1.335 . S
C197 N196 1.345 . S
C197 H202 0.930 . S
C198 N195 1.390 . S
C198 C199 1.346 . S
C198 H203 0.930 . S
C199 N196 1.336 . S
C199 C198 1.346 . S
C199 H206 0.929 . S
C200 O190 1.282 . S
C200 O201 1.216 . S
O201 C200 1.216 . S
H202 C197 0.930 . S
H203 C198 0.930 . S
O204 Cu184 1.959 . S
O204 C191 1.251 . S
H205 C188 0.930 . S
H206 C199 0.929 . S
Cu207 N208 1.999 . S
Cu207 O213 1.974 . S
Cu207 N218 1.985 . S
Cu207 O227 1.959 . S
N208 Cu207 1.999 . S
N208 C210 1.263 . S
N208 C212 1.389 . S
N209 C210 1.358 . S
N209 C211 1.400 . S
C210 N208 1.263 . S
C210 N209 1.358 . S
C210 H216 0.930 . S
C211 N209 1.400 . S
C211 C212 1.351 . S
C211 H228 0.930 . S
C212 N208 1.389 . S
C212 C211 1.351 . S
C212 H217 0.930 . S
O213 Cu207 1.974 . S
O213 C223 1.282 . S
C214 O215 1.261 . S
C214 O227 1.251 . S
O215 C214 1.261 . S
H216 C210 0.930 . S
H217 C212 0.930 . S
N218 Cu207 1.985 . S
N218 C220 1.335 . S
N218 C221 1.390 . S
N219 C220 1.345 . S
N219 C222 1.336 . S
C220 N218 1.335 . S
C220 N219 1.345 . S
C220 H225 0.930 . S
C221 N218 1.390 . S
C221 C222 1.346 . S
C221 H226 0.930 . S
C222 N219 1.336 . S
C222 C221 1.346 . S
C222 H229 0.929 . S
C223 O213 1.282 . S
C223 O224 1.216 . S
O224 C223 1.216 . S
H225 C220 0.930 . S
H226 C221 0.930 . S
O227 Cu207 1.959 . S
O227 C214 1.251 . S
H228 C211 0.930 . S
H229 C222 0.929 . S
Cu230 N231 1.999 . S
Cu230 O236 1.974 . S
Cu230 N241 1.985 . S
Cu230 O250 1.959 1_556 S
N231 Cu230 1.999 . S
N231 C233 1.263 . S
N231 C235 1.389 . S
N232 C233 1.358 . S
N232 C234 1.400 . S
C233 N231 1.263 . S
C233 N232 1.358 . S
C233 H239 0.930 . S
C234 N232 1.400 . S
C234 C235 1.351 . S
C234 H251 0.930 . S
C235 N231 1.389 . S
C235 C234 1.351 . S
C235 H240 0.930 . S
O236 Cu230 1.974 . S
O236 C246 1.282 . S
C237 O238 1.261 . S
C237 O250 1.251 . S
O238 C237 1.261 . S
H239 C233 0.930 . S
H240 C235 0.930 . S
N241 Cu230 1.985 . S
N241 C243 1.335 . S
N241 C244 1.390 . S
N242 C243 1.345 . S
N242 C245 1.336 . S
C243 N241 1.335 . S
C243 N242 1.345 . S
C243 H248 0.930 . S
C244 N241 1.390 . S
C244 C245 1.346 . S
C244 H249 0.930 . S
C245 N242 1.336 . S
C245 C244 1.346 . S
C245 H252 0.929 . S
C246 O236 1.282 . S
C246 O247 1.216 . S
O247 C246 1.216 . S
H248 C243 0.930 . S
H249 C244 0.930 . S
O250 Cu230 1.959 1_554 S
O250 C237 1.251 . S
H251 C234 0.930 . S
H252 C245 0.929 . S
Cu253 N254 1.999 . S
Cu253 O259 1.974 . S
Cu253 N264 1.985 . S
Cu253 O273 1.959 . S
N254 Cu253 1.999 . S
N254 C256 1.263 . S
N254 C258 1.389 . S
N255 C256 1.358 . S
N255 C257 1.400 . S
C256 N254 1.263 . S
C256 N255 1.358 . S
C256 H262 0.930 . S
C257 N255 1.400 . S
C257 C258 1.351 . S
C257 H274 0.930 . S
C258 N254 1.389 . S
C258 C257 1.351 . S
C258 H263 0.930 . S
O259 Cu253 1.974 . S
O259 C269 1.282 . S
C260 O261 1.261 . S
C260 O273 1.251 . S
O261 C260 1.261 . S
H262 C256 0.930 . S
H263 C258 0.930 . S
N264 Cu253 1.985 . S
N264 C266 1.335 . S
N264 C267 1.390 . S
N265 C266 1.345 . S
N265 C268 1.336 . S
C266 N264 1.335 . S
C266 N265 1.345 . S
C266 H271 0.930 . S
C267 N264 1.390 . S
C267 C268 1.346 . S
C267 H272 0.930 . S
C268 N265 1.336 . S
C268 C267 1.346 . S
C268 H275 0.929 . S
C269 O259 1.282 . S
C269 O270 1.216 . S
O270 C269 1.216 . S
H271 C266 0.930 . S
H272 C267 0.930 . S
O273 Cu253 1.959 . S
O273 C260 1.251 . S
H274 C257 0.930 . S
H275 C268 0.929 . S
C276 C277 1.363 . S
C276 C282 1.379 . S
C276 N284 1.356 . S
C277 C276 1.363 . S
C277 C283 1.363 . S
C278 C279 1.363 . S
C278 C283 1.379 . S
C278 N285 1.356 . S
C279 C278 1.363 . S
C279 C282 1.363 . S
N280 C282 1.356 . S
N280 H292 0.984 . S
N280 H293 0.985 . S
N281 C283 1.356 . S
N281 H286 0.984 . S
N281 H287 0.985 . S
C282 C276 1.379 . S
C282 C279 1.363 . S
C282 N280 1.356 . S
C283 C277 1.363 . S
C283 C278 1.379 . S
C283 N281 1.356 . S
N284 C276 1.356 . S
N284 H290 0.984 . S
N284 H291 0.984 . S
N285 C278 1.356 . S
N285 H288 0.984 . S
N285 H289 0.985 . S
H286 N281 0.984 . S
H287 N281 0.985 . S
H288 N285 0.984 . S
H289 N285 0.985 . S
H290 N284 0.984 . S
H291 N284 0.984 . S
H292 N280 0.984 . S
H293 N280 0.985 . S
C294 C295 1.363 . S
C294 C300 1.379 . S
C294 N302 1.356 . S
C295 C294 1.363 . S
C295 C301 1.363 . S
C296 C297 1.363 . S
C296 C301 1.379 . S
C296 N303 1.356 . S
C297 C296 1.363 . S
C297 C300 1.363 . S
N298 C300 1.356 . S
N298 H310 0.984 . S
N298 H311 0.985 . S
N299 C301 1.356 . S
N299 H304 0.984 . S
N299 H305 0.985 . S
C300 C294 1.379 . S
C300 C297 1.363 . S
C300 N298 1.356 . S
C301 C295 1.363 . S
C301 C296 1.379 . S
C301 N299 1.356 . S
N302 C294 1.356 . S
N302 H308 0.984 . S
N302 H309 0.984 . S
N303 C296 1.356 . S
N303 H306 0.984 . S
N303 H307 0.985 . S
H304 N299 0.984 . S
H305 N299 0.985 . S
H306 N303 0.984 . S
H307 N303 0.985 . S
H308 N302 0.984 . S
H309 N302 0.984 . S
H310 N298 0.984 . S
H311 N298 0.985 . S
C312 C313 1.363 . S
C312 C318 1.379 1_556 S
C312 N320 1.356 . S
C313 C312 1.363 . S
C313 C319 1.363 . S
C314 C315 1.363 . S
C314 C319 1.379 1_554 S
C314 N321 1.356 . S
C315 C314 1.363 . S
C315 C318 1.363 . S
N316 C318 1.356 . S
N316 H328 0.984 . S
N316 H329 0.985 . S
N317 C319 1.356 . S
N317 H322 0.984 . S
N317 H323 0.985 . S
C318 C312 1.379 1_554 S
C318 C315 1.363 . S
C318 N316 1.356 . S
C319 C313 1.363 . S
C319 C314 1.379 1_556 S
C319 N317 1.356 . S
N320 C312 1.356 . S
N320 H326 0.984 . S
N320 H327 0.984 . S
N321 C314 1.356 . S
N321 H324 0.984 . S
N321 H325 0.985 . S
H322 N317 0.984 . S
H323 N317 0.985 . S
H324 N321 0.984 . S
H325 N321 0.985 . S
H326 N320 0.984 . S
H327 N320 0.984 . S
H328 N316 0.984 . S
H329 N316 0.985 . S
C330 C331 1.363 . S
C330 C336 1.379 . S
C330 N338 1.356 . S
C331 C330 1.363 . S
C331 C337 1.363 . S
C332 C333 1.363 . S
C332 C337 1.379 . S
C332 N339 1.356 . S
C333 C332 1.363 . S
C333 C336 1.363 . S
N334 C336 1.356 . S
N334 H346 0.984 . S
N334 H347 0.985 . S
N335 C337 1.356 . S
N335 H340 0.984 . S
N335 H341 0.985 . S
C336 C330 1.379 . S
C336 C333 1.363 . S
C336 N334 1.356 . S
C337 C331 1.363 . S
C337 C332 1.379 . S
C337 N335 1.356 . S
N338 C330 1.356 . S
N338 H344 0.984 . S
N338 H345 0.984 . S
N339 C332 1.356 . S
N339 H342 0.984 . S
N339 H343 0.985 . S
H340 N335 0.984 . S
H341 N335 0.985 . S
H342 N339 0.984 . S
H343 N339 0.985 . S
H344 N338 0.984 . S
H345 N338 0.984 . S
H346 N334 0.984 . S
H347 N334 0.985 . S
C348 C349 1.363 . S
C348 C354 1.379 . S
C348 N356 1.356 . S
C349 C348 1.363 . S
C349 C355 1.363 . S
C350 C351 1.363 . S
C350 C355 1.379 . S
C350 N357 1.356 . S
C351 C350 1.363 . S
C351 C354 1.363 . S
N352 C354 1.356 . S
N352 H364 0.984 . S
N352 H365 0.985 . S
N353 C355 1.356 . S
N353 H358 0.984 . S
N353 H359 0.985 . S
C354 C348 1.379 . S
C354 C351 1.363 . S
C354 N352 1.356 . S
C355 C349 1.363 . S
C355 C350 1.379 . S
C355 N353 1.356 . S
N356 C348 1.356 . S
N356 H362 0.984 . S
N356 H363 0.984 . S
N357 C350 1.356 . S
N357 H360 0.984 . S
N357 H361 0.985 . S
H358 N353 0.984 . S
H359 N353 0.985 . S
H360 N357 0.984 . S
H361 N357 0.985 . S
H362 N356 0.984 . S
H363 N356 0.984 . S
H364 N352 0.984 . S
H365 N352 0.985 . S
C366 C367 1.363 . S
C366 C372 1.379 1_554 S
C366 N374 1.356 . S
C367 C366 1.363 . S
C367 C373 1.363 . S
C368 C369 1.363 . S
C368 C373 1.379 1_556 S
C368 N375 1.356 . S
C369 C368 1.363 . S
C369 C372 1.363 . S
N370 C372 1.356 . S
N370 H382 0.984 . S
N370 H383 0.985 . S
N371 C373 1.356 . S
N371 H376 0.984 . S
N371 H377 0.985 . S
C372 C366 1.379 1_556 S
C372 C369 1.363 . S
C372 N370 1.356 . S
C373 C367 1.363 . S
C373 C368 1.379 1_554 S
C373 N371 1.356 . S
N374 C366 1.356 . S
N374 H380 0.984 . S
N374 H381 0.984 . S
N375 C368 1.356 . S
N375 H378 0.984 . S
N375 H379 0.985 . S
H376 N371 0.984 . S
H377 N371 0.985 . S
H378 N375 0.984 . S
H379 N375 0.985 . S
H380 N374 0.984 . S
H381 N374 0.984 . S
H382 N370 0.984 . S
H383 N370 0.985 . S
C384 C385 1.363 . S
C384 C390 1.379 . S
C384 N392 1.356 . S
C385 C384 1.363 . S
C385 C391 1.363 1_554 S
C386 C387 1.363 . S
C386 C391 1.379 . S
C386 N393 1.356 . S
C387 C386 1.363 . S
C387 C390 1.363 1_556 S
N388 C390 1.356 . S
N388 H400 0.984 . S
N388 H401 0.985 . S
N389 C391 1.356 . S
N389 H394 0.984 . S
N389 H395 0.985 . S
C390 C384 1.379 . S
C390 C387 1.363 1_554 S
C390 N388 1.356 . S
C391 C385 1.363 1_556 S
C391 C386 1.379 . S
C391 N389 1.356 . S
N392 C384 1.356 . S
N392 H398 0.984 . S
N392 H399 0.984 . S
N393 C386 1.356 . S
N393 H396 0.984 . S
N393 H397 0.985 . S
H394 N389 0.984 . S
H395 N389 0.985 . S
H396 N393 0.984 . S
H397 N393 0.985 . S
H398 N392 0.984 . S
H399 N392 0.984 . S
H400 N388 0.984 . S
H401 N388 0.985 . S
C402 C403 1.363 . S
C402 C408 1.379 . S
C402 N410 1.356 . S
C403 C402 1.363 . S
C403 C409 1.363 . S
C404 C405 1.363 . S
C404 C409 1.379 . S
C404 N411 1.356 . S
C405 C404 1.363 . S
C405 C408 1.363 . S
N406 C408 1.356 . S
N406 H418 0.984 . S
N406 H419 0.985 . S
N407 C409 1.356 . S
N407 H412 0.984 . S
N407 H413 0.985 . S
C408 C402 1.379 . S
C408 C405 1.363 . S
C408 N406 1.356 . S
C409 C403 1.363 . S
C409 C404 1.379 . S
C409 N407 1.356 . S
N410 C402 1.356 . S
N410 H416 0.984 . S
N410 H417 0.984 . S
N411 C404 1.356 . S
N411 H414 0.984 . S
N411 H415 0.985 . S
H412 N407 0.984 . S
H413 N407 0.985 . S
H414 N411 0.984 . S
H415 N411 0.985 . S
H416 N410 0.984 . S
H417 N410 0.984 . S
H418 N406 0.984 . S
H419 N406 0.985 . S
C420 C421 1.363 . S
C420 C426 1.379 . S
C420 N428 1.356 . S
C421 C420 1.363 . S
C421 C427 1.363 . S
C422 C423 1.363 . S
C422 C427 1.379 . S
C422 N429 1.356 . S
C423 C422 1.363 . S
C423 C426 1.363 . S
N424 C426 1.356 . S
N424 H436 0.984 . S
N424 H437 0.985 . S
N425 C427 1.356 . S
N425 H430 0.984 . S
N425 H431 0.985 . S
C426 C420 1.379 . S
C426 C423 1.363 . S
C426 N424 1.356 . S
C427 C421 1.363 . S
C427 C422 1.379 . S
C427 N425 1.356 . S
N428 C420 1.356 . S
N428 H434 0.984 . S
N428 H435 0.984 . S
N429 C422 1.356 . S
N429 H432 0.984 . S
N429 H433 0.985 . S
H430 N425 0.984 . S
H431 N425 0.985 . S
H432 N429 0.984 . S
H433 N429 0.985 . S
H434 N428 0.984 . S
H435 N428 0.984 . S
H436 N424 0.984 . S
H437 N424 0.985 . S
C438 C439 1.363 1_556 S
C438 C444 1.379 . S
C438 N446 1.356 . S
C439 C438 1.363 1_554 S
C439 C445 1.363 . S
C440 C441 1.363 1_554 S
C440 C445 1.379 . S
C440 N447 1.356 . S
C441 C440 1.363 1_556 S
C441 C444 1.363 . S
N442 C444 1.356 . S
N442 H454 0.984 . S
N442 H455 0.985 . S
N443 C445 1.356 . S
N443 H448 0.984 . S
N443 H449 0.985 . S
C444 C438 1.379 . S
C444 C441 1.363 . S
C444 N442 1.356 . S
C445 C439 1.363 . S
C445 C440 1.379 . S
C445 N443 1.356 . S
N446 C438 1.356 . S
N446 H452 0.984 . S
N446 H453 0.984 . S
N447 C440 1.356 . S
N447 H450 0.984 . S
N447 H451 0.985 . S
H448 N443 0.984 . S
H449 N443 0.985 . S
H450 N447 0.984 . S
H451 N447 0.985 . S
H452 N446 0.984 . S
H453 N446 0.984 . S
H454 N442 0.984 . S
H455 N442 0.985 . S
C456 C457 1.363 . S
C456 C462 1.379 . S
C456 N464 1.356 . S
C457 C456 1.363 . S
C457 C463 1.363 . S
C458 C459 1.363 . S
C458 C463 1.379 . S
C458 N465 1.356 . S
C459 C458 1.363 . S
C459 C462 1.363 . S
N460 C462 1.356 . S
N460 H472 0.984 . S
N460 H473 0.985 . S
N461 C463 1.356 . S
N461 H466 0.984 . S
N461 H467 0.985 . S
C462 C456 1.379 . S
C462 C459 1.363 . S
C462 N460 1.356 . S
C463 C457 1.363 . S
C463 C458 1.379 . S
C463 N461 1.356 . S
N464 C456 1.356 . S
N464 H470 0.984 . S
N464 H471 0.984 . S
N465 C458 1.356 . S
N465 H468 0.984 . S
N465 H469 0.985 . S
H466 N461 0.984 . S
H467 N461 0.985 . S
H468 N465 0.984 . S
H469 N465 0.985 . S
H470 N464 0.984 . S
H471 N464 0.984 . S
H472 N460 0.984 . S
H473 N460 0.985 . S
C474 C475 1.363 . S
C474 C480 1.379 . S
C474 N482 1.356 . S
C475 C474 1.363 . S
C475 C481 1.363 . S
C476 C477 1.363 . S
C476 C481 1.379 . S
C476 N483 1.356 . S
C477 C476 1.363 . S
C477 C480 1.363 . S
N478 C480 1.356 . S
N478 H490 0.984 . S
N478 H491 0.985 . S
N479 C481 1.356 . S
N479 H484 0.984 . S
N479 H485 0.985 . S
C480 C474 1.379 . S
C480 C477 1.363 . S
C480 N478 1.356 . S
C481 C475 1.363 . S
C481 C476 1.379 . S
C481 N479 1.356 . S
N482 C474 1.356 . S
N482 H488 0.984 . S
N482 H489 0.984 . S
N483 C476 1.356 . S
N483 H486 0.984 . S
N483 H487 0.985 . S
H484 N479 0.984 . S
H485 N479 0.985 . S
H486 N483 0.984 . S
H487 N483 0.985 . S
H488 N482 0.984 . S
H489 N482 0.984 . S
H490 N478 0.984 . S
H491 N478 0.985 . S
C492 C493 1.363 . S
C492 C498 1.379 . S
C492 N500 1.356 . S
C493 C492 1.363 . S
C493 C499 1.363 . S
C494 C495 1.363 . S
C494 C499 1.379 . S
C494 N501 1.356 . S
C495 C494 1.363 . S
C495 C498 1.363 . S
N496 C498 1.356 . S
N496 H508 0.984 . S
N496 H509 0.985 . S
N497 C499 1.356 . S
N497 H502 0.984 . S
N497 H503 0.985 . S
C498 C492 1.379 . S
C498 C495 1.363 . S
C498 N496 1.356 . S
C499 C493 1.363 . S
C499 C494 1.379 . S
C499 N497 1.356 . S
N500 C492 1.356 . S
N500 H506 0.984 . S
N500 H507 0.984 . S
N501 C494 1.356 . S
N501 H504 0.984 . S
N501 H505 0.985 . S
H502 N497 0.984 . S
H503 N497 0.985 . S
H504 N501 0.984 . S
H505 N501 0.985 . S
H506 N500 0.984 . S
H507 N500 0.984 . S
H508 N496 0.984 . S
H509 N496 0.985 . S
C510 C511 1.363 . S
C510 C516 1.379 1_655 S
C510 N518 1.356 . S
C511 C510 1.363 . S
C511 C517 1.363 . S
C512 C513 1.363 . S
C512 C517 1.379 1_455 S
C512 N519 1.356 . S
C513 C512 1.363 . S
C513 C516 1.363 . S
N514 C516 1.356 . S
N514 H526 0.984 . S
N514 H527 0.985 . S
N515 C517 1.356 . S
N515 H520 0.984 . S
N515 H521 0.985 . S
C516 C510 1.379 1_455 S
C516 C513 1.363 . S
C516 N514 1.356 . S
C517 C511 1.363 . S
C517 C512 1.379 1_655 S
C517 N515 1.356 . S
N518 C510 1.356 . S
N518 H524 0.984 . S
N518 H525 0.984 . S
N519 C512 1.356 . S
N519 H522 0.984 . S
N519 H523 0.985 . S
H520 N515 0.984 . S
H521 N515 0.985 . S
H522 N519 0.984 . S
H523 N519 0.985 . S
H524 N518 0.984 . S
H525 N518 0.984 . S
H526 N514 0.984 . S
H527 N514 0.985 . S
C528 C529 1.363 . S
C528 C534 1.379 1_545 S
C528 N536 1.356 . S
C529 C528 1.363 . S
C529 C535 1.363 . S
C530 C531 1.363 . S
C530 C535 1.379 1_565 S
C530 N537 1.356 . S
C531 C530 1.363 . S
C531 C534 1.363 . S
N532 C534 1.356 . S
N532 H544 0.984 . S
N532 H545 0.985 . S
N533 C535 1.356 . S
N533 H538 0.984 . S
N533 H539 0.985 . S
C534 C528 1.379 1_565 S
C534 C531 1.363 . S
C534 N532 1.356 . S
C535 C529 1.363 . S
C535 C530 1.379 1_545 S
C535 N533 1.356 . S
N536 C528 1.356 . S
N536 H542 0.984 . S
N536 H543 0.984 . S
N537 C530 1.356 . S
N537 H540 0.984 . S
N537 H541 0.985 . S
H538 N533 0.984 . S
H539 N533 0.985 . S
H540 N537 0.984 . S
H541 N537 0.985 . S
H542 N536 0.984 . S
H543 N536 0.984 . S
H544 N532 0.984 . S
H545 N532 0.985 . S
C546 C547 1.363 . S
C546 C552 1.379 . S
C546 N554 1.356 . S
C547 C546 1.363 . S
C547 C553 1.363 . S
C548 C549 1.363 . S
C548 C553 1.379 . S
C548 N555 1.356 . S
C549 C548 1.363 . S
C549 C552 1.363 . S
N550 C552 1.356 . S
N550 H562 0.984 . S
N550 H563 0.985 . S
N551 C553 1.356 . S
N551 H556 0.984 . S
N551 H557 0.985 . S
C552 C546 1.379 . S
C552 C549 1.363 . S
C552 N550 1.356 . S
C553 C547 1.363 . S
C553 C548 1.379 . S
C553 N551 1.356 . S
N554 C546 1.356 . S
N554 H560 0.984 . S
N554 H561 0.984 . S
N555 C548 1.356 . S
N555 H558 0.984 . S
N555 H559 0.985 . S
H556 N551 0.984 . S
H557 N551 0.985 . S
H558 N555 0.984 . S
H559 N555 0.985 . S
H560 N554 0.984 . S
H561 N554 0.984 . S
H562 N550 0.984 . S
H563 N550 0.985 . S
C564 C565 1.363 . S
C564 C570 1.379 1_455 S
C564 N572 1.356 . S
C565 C564 1.363 . S
C565 C571 1.363 . S
C566 C567 1.363 . S
C566 C571 1.379 1_655 S
C566 N573 1.356 . S
C567 C566 1.363 . S
C567 C570 1.363 . S
N568 C570 1.356 . S
N568 H580 0.984 . S
N568 H581 0.985 . S
N569 C571 1.356 . S
N569 H574 0.984 . S
N569 H575 0.985 . S
C570 C564 1.379 1_655 S
C570 C567 1.363 . S
C570 N568 1.356 . S
C571 C565 1.363 . S
C571 C566 1.379 1_455 S
C571 N569 1.356 . S
N572 C564 1.356 . S
N572 H578 0.984 . S
N572 H579 0.984 . S
N573 C566 1.356 . S
N573 H576 0.984 . S
N573 H577 0.985 . S
H574 N569 0.984 . S
H575 N569 0.985 . S
H576 N573 0.984 . S
H577 N573 0.985 . S
H578 N572 0.984 . S
H579 N572 0.984 . S
H580 N568 0.984 . S
H581 N568 0.985 . S
C582 C583 1.363 . S
C582 C588 1.379 1_565 S
C582 N590 1.356 . S
C583 C582 1.363 . S
C583 C589 1.363 . S
C584 C585 1.363 . S
C584 C589 1.379 1_545 S
C584 N591 1.356 . S
C585 C584 1.363 . S
C585 C588 1.363 . S
N586 C588 1.356 . S
N586 H598 0.984 . S
N586 H599 0.985 . S
N587 C589 1.356 . S
N587 H592 0.984 . S
N587 H593 0.985 . S
C588 C582 1.379 1_545 S
C588 C585 1.363 . S
C588 N586 1.356 . S
C589 C583 1.363 . S
C589 C584 1.379 1_565 S
C589 N587 1.356 . S
N590 C582 1.356 . S
N590 H596 0.984 . S
N590 H597 0.984 . S
N591 C584 1.356 . S
N591 H594 0.984 . S
N591 H595 0.985 . S
H592 N587 0.984 . S
H593 N587 0.985 . S
H594 N591 0.984 . S
H595 N591 0.985 . S
H596 N590 0.984 . S
H597 N590 0.984 . S
H598 N586 0.984 . S
H599 N586 0.985 . S
C600 C601 1.363 . S
C600 C606 1.379 . S
C600 N608 1.356 . S
C601 C600 1.363 . S
C601 C607 1.363 . S
C602 C603 1.363 . S
C602 C607 1.379 . S
C602 N609 1.356 . S
C603 C602 1.363 . S
C603 C606 1.363 . S
N604 C606 1.356 . S
N604 H616 0.984 . S
N604 H617 0.985 . S
N605 C607 1.356 . S
N605 H610 0.984 . S
N605 H611 0.985 . S
C606 C600 1.379 . S
C606 C603 1.363 . S
C606 N604 1.356 . S
C607 C601 1.363 . S
C607 C602 1.379 . S
C607 N605 1.356 . S
N608 C600 1.356 . S
N608 H614 0.984 . S
N608 H615 0.984 . S
N609 C602 1.356 . S
N609 H612 0.984 . S
N609 H613 0.985 . S
H610 N605 0.984 . S
H611 N605 0.985 . S
H612 N609 0.984 . S
H613 N609 0.985 . S
H614 N608 0.984 . S
H615 N608 0.984 . S
H616 N604 0.984 . S
H617 N604 0.985 . S
C618 C619 1.363 . S
C618 C624 1.379 . S
C618 N626 1.356 . S
C619 C618 1.363 . S
C619 C625 1.363 . S
C620 C621 1.363 . S
C620 C625 1.379 . S
C620 N627 1.356 . S
C621 C620 1.363 . S
C621 C624 1.363 . S
N622 C624 1.356 . S
N622 H634 0.984 . S
N622 H635 0.985 . S
N623 C625 1.356 . S
N623 H628 0.984 . S
N623 H629 0.985 . S
C624 C618 1.379 . S
C624 C621 1.363 . S
C624 N622 1.356 . S
C625 C619 1.363 . S
C625 C620 1.379 . S
C625 N623 1.356 . S
N626 C618 1.356 . S
N626 H632 0.984 . S
N626 H633 0.984 . S
N627 C620 1.356 . S
N627 H630 0.984 . S
N627 H631 0.985 . S
H628 N623 0.984 . S
H629 N623 0.985 . S
H630 N627 0.984 . S
H631 N627 0.985 . S
H632 N626 0.984 . S
H633 N626 0.984 . S
H634 N622 0.984 . S
H635 N622 0.985 . S
C636 C637 1.363 . S
C636 C642 1.379 . S
C636 N644 1.356 . S
C637 C636 1.363 . S
C637 C643 1.363 . S
C638 C639 1.363 . S
C638 C643 1.379 . S
C638 N645 1.356 . S
C639 C638 1.363 . S
C639 C642 1.363 . S
N640 C642 1.356 . S
N640 H652 0.984 . S
N640 H653 0.985 . S
N641 C643 1.356 . S
N641 H646 0.984 . S
N641 H647 0.985 . S
C642 C636 1.379 . S
C642 C639 1.363 . S
C642 N640 1.356 . S
C643 C637 1.363 . S
C643 C638 1.379 . S
C643 N641 1.356 . S
N644 C636 1.356 . S
N644 H650 0.984 . S
N644 H651 0.984 . S
N645 C638 1.356 . S
N645 H648 0.984 . S
N645 H649 0.985 . S
H646 N641 0.984 . S
H647 N641 0.985 . S
H648 N645 0.984 . S
H649 N645 0.985 . S
H650 N644 0.984 . S
H651 N644 0.984 . S
H652 N640 0.984 . S
H653 N640 0.985 . S
C654 C655 1.363 . S
C654 C660 1.379 . S
C654 N662 1.356 . S
C655 C654 1.363 . S
C655 C661 1.363 . S
C656 C657 1.363 . S
C656 C661 1.379 . S
C656 N663 1.356 . S
C657 C656 1.363 . S
C657 C660 1.363 . S
N658 C660 1.356 . S
N658 H670 0.984 . S
N658 H671 0.985 . S
N659 C661 1.356 . S
N659 H664 0.984 . S
N659 H665 0.985 . S
C660 C654 1.379 . S
C660 C657 1.363 . S
C660 N658 1.356 . S
C661 C655 1.363 . S
C661 C656 1.379 . S
C661 N659 1.356 . S
N662 C654 1.356 . S
N662 H668 0.984 . S
N662 H669 0.984 . S
N663 C656 1.356 . S
N663 H666 0.984 . S
N663 H667 0.985 . S
H664 N659 0.984 . S
H665 N659 0.985 . S
H666 N663 0.984 . S
H667 N663 0.985 . S
H668 N662 0.984 . S
H669 N662 0.984 . S
H670 N658 0.984 . S
H671 N658 0.985 . S
C672 C673 1.363 . S
C672 C678 1.379 . S
C672 N680 1.356 . S
C673 C672 1.363 . S
C673 C679 1.363 . S
C674 C675 1.363 . S
C674 C679 1.379 . S
C674 N681 1.356 . S
C675 C674 1.363 . S
C675 C678 1.363 . S
N676 C678 1.356 . S
N676 H688 0.984 . S
N676 H689 0.985 . S
N677 C679 1.356 . S
N677 H682 0.984 . S
N677 H683 0.985 . S
C678 C672 1.379 . S
C678 C675 1.363 . S
C678 N676 1.356 . S
C679 C673 1.363 . S
C679 C674 1.379 . S
C679 N677 1.356 . S
N680 C672 1.356 . S
N680 H686 0.984 . S
N680 H687 0.984 . S
N681 C674 1.356 . S
N681 H684 0.984 . S
N681 H685 0.985 . S
H682 N677 0.984 . S
H683 N677 0.985 . S
H684 N681 0.984 . S
H685 N681 0.985 . S
H686 N680 0.984 . S
H687 N680 0.984 . S
H688 N676 0.984 . S
H689 N676 0.985 . S
C690 C691 1.363 . S
C690 C696 1.379 . S
C690 N698 1.356 . S
C691 C690 1.363 . S
C691 C697 1.363 . S
C692 C693 1.363 . S
C692 C697 1.379 . S
C692 N699 1.356 . S
C693 C692 1.363 . S
C693 C696 1.363 . S
N694 C696 1.356 . S
N694 H706 0.984 . S
N694 H707 0.985 . S
N695 C697 1.356 . S
N695 H700 0.984 . S
N695 H701 0.985 . S
C696 C690 1.379 . S
C696 C693 1.363 . S
C696 N694 1.356 . S
C697 C691 1.363 . S
C697 C692 1.379 . S
C697 N695 1.356 . S
N698 C690 1.356 . S
N698 H704 0.984 . S
N698 H705 0.984 . S
N699 C692 1.356 . S
N699 H702 0.984 . S
N699 H703 0.985 . S
H700 N695 0.984 . S
H701 N695 0.985 . S
H702 N699 0.984 . S
H703 N699 0.985 . S
H704 N698 0.984 . S
H705 N698 0.984 . S
H706 N694 0.984 . S
H707 N694 0.985 . S
C277 C16 1.475 . S
C279 C154 1.475 . S
C295 C39 1.475 . S
C297 C177 1.475 . S
C313 C62 1.475 . S
C315 C200 1.475 . S
C331 C85 1.475 . S
C333 C223 1.475 . S
C349 C108 1.475 . S
C351 C246 1.475 . S
C367 C269 1.475 . S
C369 C131 1.475 . S
C385 N12 1.674 . S
C387 N242 1.674 . S
C403 N35 1.674 . S
C405 N265 1.674 . S
C421 N58 1.674 . S
C423 N150 1.674 . S
C439 N81 1.674 . S
C441 N173 1.674 . S
C457 N104 1.674 . S
C459 N196 1.674 . S
C475 N127 1.674 . S
C477 N219 1.674 . S
C493 N2 1.633 . S
C495 N71 1.633 . S
C511 N25 1.633 . S
C513 N94 1.633 . S
C529 N117 1.633 . S
C531 N48 1.633 . S
C547 N140 1.633 . S
C549 N209 1.633 . S
C565 N232 1.633 . S
C567 N163 1.633 . S
C583 N186 1.633 . S
C585 N255 1.633 . S
C601 C145 1.514 . S
C603 C7 1.514 . S
C619 C30 1.514 . S
C621 C168 1.514 . S
C637 C53 1.514 . S
C639 C191 1.514 . S
C655 C214 1.514 . S
C657 C76 1.514 . S
C673 C237 1.514 . S
C675 C99 1.514 . S
C691 C122 1.514 . S
C693 C260 1.514 . S
