# Generated by pormake.
# Topology qtz-e, (6)-cn, num edge types: 1
# Building blocks:
#     Node 0, Type 0, BuildingBlock: BETDEL_clean_sbu_0, # of connection points: 6
#     Node 1, Type 0, BuildingBlock: BETDEL_clean_sbu_0, # of connection points: 6
#     Node 2, Type 0, BuildingBlock: BETDEL_clean_sbu_0, # of connection points: 6
#     Node 3, Type 0, BuildingBlock: BETDEL_clean_sbu_0, # of connection points: 6
#     Node 4, Type 0, BuildingBlock: BETDEL_clean_sbu_0, # of connection points: 6
#     Node 5, Type 0, BuildingBlock: BETDEL_clean_sbu_0, # of connection points: 6
#     Edge 6, Type (0, 0), BuildingBlock: FUNLAD_clean_linker_0, # of connection points: 2
#     Edge 7, Type (0, 0), BuildingBlock: FUNLAD_clean_linker_0, # of connection points: 2
#     Edge 8, Type (0, 0), BuildingBlock: FUNLAD_clean_linker_0, # of connection points: 2
#     Edge 9, Type (0, 0), BuildingBlock: FUNLAD_clean_linker_0, # of connection points: 2
#     Edge 10, Type (0, 0), BuildingBlock: FUNLAD_clean_linker_0, # of connection points: 2
#     Edge 11, Type (0, 0), BuildingBlock: FUNLAD_clean_linker_0, # of connection points: 2
#     Edge 12, Type (0, 0), BuildingBlock: FUNLAD_clean_linker_0, # of connection points: 2
#     Edge 13, Type (0, 0), BuildingBlock: FUNLAD_clean_linker_0, # of connection points: 2
#     Edge 14, Type (0, 0), BuildingBlock: FUNLAD_clean_linker_0, # of connection points: 2
#     Edge 15, Type (0, 0), BuildingBlock: FUNLAD_clean_linker_0, # of connection points: 2
#     Edge 16, Type (0, 0), BuildingBlock: FUNLAD_clean_linker_0, # of connection points: 2
#     Edge 17, Type (0, 0), BuildingBlock: FUNLAD_clean_linker_0, # of connection points: 2
#     Edge 18, Type (0, 0), BuildingBlock: FUNLAD_clean_linker_0, # of connection points: 2
#     Edge 19, Type (0, 0), BuildingBlock: FUNLAD_clean_linker_0, # of connection points: 2
#     Edge 20, Type (0, 0), BuildingBlock: FUNLAD_clean_linker_0, # of connection points: 2
#     Edge 21, Type (0, 0), BuildingBlock: FUNLAD_clean_linker_0, # of connection points: 2
#     Edge 22, Type (0, 0), BuildingBlock: FUNLAD_clean_linker_0, # of connection points: 2
#     Edge 23, Type (0, 0), BuildingBlock: FUNLAD_clean_linker_0, # of connection points: 2
# Relax obj value: 0.217
# Max RMSD: 0.208
# Mean RMSD: 0.208
data_MOF--net-qtz-e--node1-BETDEL_clean_sbu_0--edge1-FUNLAD_clean_linker_0
_symmetry_space_group_name_H-M    P1
_symmetry_Int_Tables_number       1
_symmetry_cell_setting            triclinic
loop_
_symmetry_equiv_pos_as_xyz
'x, y, z'
_cell_length_a     28.459166
_cell_length_b     28.275149
_cell_length_c     45.14465
_cell_angle_alpha  90.070758
_cell_angle_beta   89.858473
_cell_angle_gamma 119.74458
loop_
_atom_site_label
_atom_site_type_symbol
_atom_site_fract_x
_atom_site_fract_y
_atom_site_fract_z
_atom_type_partial_charge
Dy0 Dy 0.19685 0.41248 0.05494 0.0
C1 C 0.15492 0.22946 0.98017 0.0
C2 C 0.21369 0.50375 0.08486 0.0
Dy3 Dy 0.16313 0.30771 0.01888 0.0
O4 O 0.25172 0.49449 0.07557 0.0
O5 O 0.16673 0.46408 0.07676 0.0
O6 O 0.23614 0.38273 0.08673 0.0
O7 O 0.23717 0.36656 0.04208 0.0
C8 C 0.2538 0.36173 0.06717 0.0
C9 C 0.09244 0.34413 0.02043 0.0
O10 O 0.13582 0.27396 0.06461 0.0
O11 O 0.1267 0.34732 0.08006 0.0
O12 O 0.13129 0.25834 0.97746 0.0
O13 O 0.18262 0.2424 1.00471 0.0
O14 O 0.07684 0.29246 0.01995 0.0
O15 O 0.14284 0.3716 0.01877 0.0
O16 O 0.23518 0.45114 1.01123 0.0
O17 O 0.22006 0.37168 0.98724 0.0
C18 C 0.11675 0.29663 0.08331 0.0
C19 C 0.24083 0.42537 0.98794 0.0
Dy20 Dy 0.72971 0.22637 0.38087 0.0
C21 C 0.8783 0.17886 0.31562 0.0
C22 C 0.6617 0.24191 0.41707 0.0
Dy23 Dy 0.80535 0.18745 0.35137 0.0
O24 O 0.71415 0.26892 0.41828 0.0
O25 O 0.64594 0.20654 0.39559 0.0
O26 O 0.78206 0.31081 0.36514 0.0
O27 O 0.81637 0.2609 0.37332 0.0
C28 C 0.82461 0.30551 0.36224 0.0
C29 C 0.70588 0.11013 0.36693 0.0
O30 O 0.82526 0.18275 0.3988 0.0
O31 O 0.7498 0.18483 0.41747 0.0
O32 O 0.82648 0.14531 0.31598 0.0
O33 O 0.8907 0.21655 0.33555 0.0
O34 O 0.74708 0.10199 0.36714 0.0
O35 O 0.71975 0.15631 0.35645 0.0
O36 O 0.70803 0.22924 0.33324 0.0
O37 O 0.78073 0.22267 0.31383 0.0
C38 C 0.79119 0.17587 0.42072 0.0
C39 C 0.7398 0.23236 0.31069 0.0
Dy40 Dy 0.54146 0.7339 0.71922 0.0
C41 C 0.71088 0.88471 0.63936 0.0
C42 C 0.46464 0.65041 0.75214 0.0
Dy43 Dy 0.64538 0.81153 0.68137 0.0
O44 O 0.45999 0.69086 0.74169 0.0
O45 O 0.51004 0.65448 0.7433 0.0
O46 O 0.54841 0.80657 0.74287 0.0
O47 O 0.57554 0.81432 0.69929 0.0
C48 C 0.57266 0.8403 0.72121 0.0
C49 C 0.62854 0.71213 0.69426 0.0
O50 O 0.67682 0.83787 0.72751 0.0
O51 O 0.61125 0.75779 0.74983 0.0
O52 O 0.69183 0.83236 0.63853 0.0
O53 O 0.69626 0.89756 0.66409 0.0
O54 O 0.67732 0.75351 0.69162 0.0
O55 O 0.59424 0.72577 0.68808 0.0
O56 O 0.50157 0.71788 0.67479 0.0
O57 O 0.57774 0.78153 0.64822 0.0
C58 C 0.65703 0.80507 0.75081 0.0
C59 C 0.5256 0.74393 0.64989 0.0
Dy60 Dy 0.76237 0.5627 0.05056 0.0
C61 C 0.82869 0.75012 0.97526 0.0
C62 C 0.73296 0.46906 0.08158 0.0
Dy63 Dy 0.80843 0.6682 1.01416 0.0
O64 O 0.70015 0.48622 0.07347 0.0
O65 O 0.78131 0.5018 0.07144 0.0
O66 O 0.73376 0.60224 0.08321 0.0
O67 O 0.73309 0.61881 0.0387 0.0
C68 C 0.72057 0.62772 0.06407 0.0
C69 C 0.86719 0.61816 1.01432 0.0
O70 O 0.84142 0.70084 0.05944 0.0
O71 O 0.83771 0.62077 0.07441 0.0
O72 O 0.84261 0.71324 0.97175 0.0
O73 O 0.80395 0.74296 1.00058 0.0
O74 O 0.88899 0.67079 1.01374 0.0
O75 O 0.8167 0.59605 1.01341 0.0
O76 O 0.71855 0.52669 1.00787 0.0
O77 O 0.74215 0.60907 0.98444 0.0
C78 C 0.85535 0.67342 0.07793 0.0
C79 C 0.71487 0.55501 0.98537 0.0
Dy80 Dy 0.24873 0.77613 0.37721 0.0
C81 C 0.11497 0.83168 0.30443 0.0
C82 C 0.30991 0.75782 0.41685 0.0
Dy83 Dy 0.183 0.82053 0.34253 0.0
O84 O 0.32914 0.79629 0.39704 0.0
O85 O 0.25766 0.72899 0.41454 0.0
O86 O 0.19769 0.69341 0.35905 0.0
O87 O 0.16428 0.74506 0.36508 0.0
C88 C 0.15685 0.70072 0.35396 0.0
C89 C 0.27998 0.89428 0.36299 0.0
O90 O 0.15599 0.82587 0.38835 0.0
O91 O 0.22237 0.81486 0.41234 0.0
O92 O 0.16698 0.86415 0.30573 0.0
O93 O 0.10004 0.7937 0.32438 0.0
O94 O 0.24039 0.90462 0.36038 0.0
O95 O 0.26655 0.84827 0.35241 0.0
O96 O 0.27839 0.77411 0.33144 0.0
O97 O 0.21237 0.78532 0.30687 0.0
C98 C 0.18323 0.82756 0.41255 0.0
C99 C 0.25206 0.77329 0.30692 0.0
Dy100 Dy 0.42986 0.2476 0.71197 0.0
C101 C 0.25217 0.08047 0.64465 0.0
C102 C 0.5056 0.31835 0.75084 0.0
Dy103 Dy 0.32011 0.16319 0.68153 0.0
O104 O 0.4979 0.27044 0.74398 0.0
O105 O 0.47317 0.32882 0.73546 0.0
O106 O 0.47073 0.20694 0.69075 0.0
O107 O 0.38785 0.16063 0.70252 0.0
C108 C 0.42666 0.15995 0.68922 0.0
C109 C 0.32642 0.25482 0.70123 0.0
O110 O 0.29558 0.13563 0.72824 0.0
O111 O 0.37146 0.20878 0.74972 0.0
O112 O 0.26074 0.13014 0.64362 0.0
O113 O 0.27899 0.07571 0.66662 0.0
O114 O 0.27981 0.21054 0.69783 0.0
O115 O 0.36365 0.2491 0.69009 0.0
O116 O 0.45081 0.27972 0.66586 0.0
O117 O 0.38024 0.20187 0.64413 0.0
C118 C 0.32317 0.16427 0.75168 0.0
C119 C 0.42637 0.24911 0.64229 0.0
C120 C 0.23984 0.7577 0.25212 0.0
C121 C 0.26306 0.75327 0.27872 0.0
C122 C 0.24394 0.73308 0.22611 0.0
C123 C 0.27089 0.70267 0.22603 0.0
C124 C 0.29641 0.70052 0.25225 0.0
C125 C 0.29248 0.7254 0.27832 0.0
C126 C 0.27249 0.67216 0.19933 0.0
C127 C 0.23488 0.65484 0.17763 0.0
C128 C 0.23228 0.61954 0.15233 0.0
C129 C 0.18243 0.58811 0.13793 0.0
C130 C 0.17695 0.55204 0.11521 0.0
C131 C 0.22143 0.54701 0.10606 0.0
H132 H 0.31695 0.64077 0.1521 0.0
C133 C 0.27199 0.58017 0.11939 0.0
C134 C 0.27744 0.6161 0.14231 0.0
H135 H 0.30703 0.57722 0.11271 0.0
H136 H 0.21747 0.77946 0.25143 0.0
H137 H 0.2256 0.73786 0.20622 0.0
H138 H 0.31805 0.67802 0.25283 0.0
H139 H 0.31084 0.72108 0.29836 0.0
H140 H 0.30316 0.66 0.19888 0.0
H141 H 0.20156 0.66303 0.17953 0.0
H142 H 0.14705 0.59025 0.14486 0.0
H143 H 0.13749 0.52707 0.10533 0.0
C144 C 0.42578 0.23535 0.58752 0.0
C145 C 0.45336 0.26467 0.61297 0.0
C146 C 0.45276 0.2443 0.56045 0.0
C147 C 0.50825 0.28254 0.55822 0.0
C148 C 0.53497 0.31421 0.58319 0.0
C149 C 0.5079 0.30531 0.61033 0.0
C150 C 0.53997 0.28929 0.5307 0.0
C151 C 0.52636 0.24902 0.51066 0.0
C152 C 0.56108 0.25182 0.48516 0.0
C153 C 0.53827 0.21234 0.46264 0.0
C154 C 0.57044 0.2101 0.43977 0.0
C155 C 0.62619 0.24718 0.43909 0.0
H156 H 0.63681 0.31997 0.50099 0.0
C157 C 0.6489 0.28741 0.4611 0.0
C158 C 0.61687 0.28972 0.48392 0.0
H159 H 0.69192 0.3163 0.46121 0.0
H160 H 0.38344 0.20438 0.58858 0.0
H161 H 0.42996 0.2207 0.5415 0.0
H162 H 0.57754 0.34449 0.58204 0.0
H163 H 0.53034 0.32879 0.62943 0.0
H164 H 0.57739 0.32757 0.52815 0.0
H165 H 0.48897 0.21075 0.51355 0.0
H166 H 0.49557 0.18233 0.46308 0.0
H167 H 0.55198 0.17839 0.42317 0.0
C168 C 0.27138 0.42805 0.93557 0.0
C169 C 0.26848 0.45619 0.96064 0.0
C170 C 0.29398 0.45536 0.90904 0.0
C171 C 0.31512 0.51199 0.90681 0.0
C172 C 0.31255 0.54027 0.9319 0.0
C173 C 0.28962 0.51278 0.95853 0.0
C174 C 0.33816 0.54236 0.87853 0.0
C175 C 0.35548 0.52335 0.85596 0.0
C176 C 0.3795 0.55395 0.82797 0.0
C177 C 0.41491 0.54251 0.81174 0.0
C178 C 0.44061 0.57214 0.78621 0.0
C179 C 0.43078 0.61332 0.77602 0.0
H180 H 0.33925 0.60223 0.8282 0.0
C181 C 0.39313 0.62285 0.79121 0.0
C182 C 0.36773 0.59352 0.81696 0.0
H183 H 0.38475 0.65436 0.78383 0.0
H184 H 0.25512 0.38437 0.9361 0.0
H185 H 0.29329 0.43132 0.89024 0.0
H186 H 0.32812 0.58382 0.93087 0.0
H187 H 0.28784 0.53576 0.97729 0.0
H188 H 0.34285 0.58279 0.87687 0.0
H189 H 0.35544 0.48521 0.85856 0.0
H190 H 0.42413 0.5117 0.81937 0.0
H191 H 0.46946 0.56391 0.77496 0.0
C192 C 0.69465 0.26712 0.27512 0.0
C193 C 0.73396 0.25198 0.28104 0.0
C194 C 0.69402 0.29042 0.24766 0.0
C195 C 0.73303 0.29929 0.22577 0.0
C196 C 0.77132 0.28315 0.23163 0.0
C197 C 0.77158 0.25953 0.25863 0.0
C198 C 0.73863 0.32885 0.1975 0.0
C199 C 0.6978 0.3304 0.18323 0.0
C200 C 0.70543 0.36133 0.15501 0.0
C201 C 0.66545 0.37391 0.14635 0.0
C202 C 0.67292 0.40641 0.12141 0.0
C203 C 0.72063 0.42712 0.10453 0.0
H204 H 0.78257 0.36885 0.14152 0.0
C205 C 0.75931 0.41224 0.11209 0.0
C206 C 0.75166 0.37933 0.13682 0.0
H207 H 0.79626 0.4272 0.09931 0.0
H208 H 0.66534 0.26229 0.2919 0.0
H209 H 0.66447 0.30331 0.24415 0.0
H210 H 0.80194 0.28957 0.21531 0.0
H211 H 0.8027 0.24868 0.26209 0.0
H212 H 0.77902 0.34986 0.18812 0.0
H213 H 0.6575 0.30949 0.19287 0.0
H214 H 0.62907 0.36011 0.15951 0.0
H215 H 0.64236 0.41727 0.11613 0.0
C216 C 0.52051 0.74515 0.59485 0.0
C217 C 0.49374 0.73207 0.62235 0.0
C218 C 0.49205 0.73842 0.56866 0.0
C219 C 0.43606 0.71942 0.56933 0.0
C220 C 0.40887 0.70402 0.59672 0.0
C221 C 0.43739 0.71018 0.62301 0.0
C222 C 0.40499 0.71568 0.54208 0.0
C223 C 0.42822 0.74494 0.51733 0.0
C224 C 0.39763 0.74505 0.49065 0.0
C225 C 0.42322 0.78825 0.47036 0.0
C226 C 0.39536 0.7916 0.44572 0.0
C227 C 0.34134 0.75165 0.44088 0.0
H228 H 0.32337 0.66879 0.49932 0.0
C229 C 0.31622 0.70738 0.46045 0.0
C230 C 0.34412 0.70383 0.48499 0.0
H231 H 0.27465 0.67577 0.45702 0.0
H232 H 0.56379 0.76093 0.59351 0.0
H233 H 0.51439 0.7483 0.54805 0.0
H234 H 0.36562 0.6885 0.59788 0.0
H235 H 0.41563 0.69951 0.64387 0.0
H236 H 0.3613 0.69088 0.54344 0.0
H237 H 0.47143 0.77323 0.51705 0.0
H238 H 0.46457 0.8203 0.47393 0.0
H239 H 0.41562 0.82622 0.43096 0.0
C240 C 0.67128 0.474 0.9514 0.0
C241 C 0.68134 0.52629 0.95928 0.0
C242 C 0.64497 0.45011 0.92474 0.0
C243 C 0.62776 0.47793 0.90567 0.0
C244 C 0.63546 0.52891 0.91436 0.0
C245 C 0.66247 0.55312 0.94067 0.0
C246 C 0.60129 0.45504 0.87673 0.0
C247 C 0.61397 0.42374 0.8597 0.0
C248 C 0.58873 0.40064 0.83041 0.0
C249 C 0.59411 0.35745 0.81881 0.0
C250 C 0.56901 0.33237 0.79223 0.0
C251 C 0.53823 0.35019 0.77645 0.0
H252 H 0.55594 0.45435 0.82127 0.0
C253 C 0.53467 0.39488 0.7872 0.0
C254 C 0.55977 0.42006 0.81386 0.0
H255 H 0.51115 0.40934 0.77549 0.0
H256 H 0.68528 0.45233 0.96531 0.0
H257 H 0.63816 0.40995 0.91916 0.0
H258 H 0.62195 0.55087 0.90032 0.0
H259 H 0.66915 0.59327 0.94626 0.0
H260 H 0.57221 0.46642 0.86903 0.0
H261 H 0.64389 0.41366 0.86774 0.0
H262 H 0.61662 0.34197 0.83077 0.0
H263 H 0.57248 0.29795 0.78449 0.0
C264 C 0.34507 0.39246 0.0463 0.0
C265 C 0.30991 0.37336 0.07078 0.0
C266 C 0.40044 0.4262 0.05063 0.0
C267 C 0.42131 0.44012 0.07945 0.0
C268 C 0.38747 0.41415 0.10371 0.0
C269 C 0.33183 0.38107 0.09943 0.0
C270 C 0.47718 0.48437 0.0845 0.0
C271 C 0.49796 0.5314 0.06916 0.0
C272 C 0.55574 0.57324 0.07088 0.0
C273 C 0.58269 0.59957 0.04474 0.0
C274 C 0.63909 0.62622 0.04347 0.0
C275 C 0.66872 0.62661 0.06841 0.0
H276 H 0.56571 0.56468 0.11786 0.0
C277 C 0.64204 0.60925 0.09582 0.0
C278 C 0.58567 0.58217 0.09701 0.0
H279 H 0.66409 0.61057 0.11563 0.0
H280 H 0.32948 0.38649 0.02391 0.0
H281 H 0.42641 0.44404 0.03151 0.0
H282 H 0.40324 0.42329 0.12608 0.0
H283 H 0.30556 0.36622 0.11864 0.0
H284 H 0.50087 0.47826 0.10132 0.0
H285 H 0.47342 0.53658 0.05244 0.0
H286 H 0.56024 0.59456 0.02452 0.0
H287 H 0.65876 0.64041 0.02216 0.0
C288 C 0.0604 0.65407 0.33774 0.0
C289 C 0.11378 0.66567 0.33346 0.0
C290 C 0.01838 0.60961 0.32311 0.0
C291 C 0.02976 0.57687 0.30425 0.0
C292 C 0.08368 0.5937 0.29687 0.0
C293 C 0.12539 0.63747 0.31166 0.0
C294 C -0.01403 0.52108 0.29756 0.0
C295 C -0.00544 0.47825 0.29947 0.0
C296 C 0.95089 0.42403 0.30893 0.0
C297 C 0.89673 0.40608 0.30175 0.0
C298 C 0.85556 0.36476 0.31819 0.0
C299 C 0.86775 0.33955 0.34138 0.0
H300 H 0.00451 0.40714 0.33528 0.0
C301 C 0.92134 0.35214 0.3459 0.0
C302 C 0.9629 0.39446 0.32972 0.0
H303 H 0.93135 0.33253 0.36343 0.0
H304 H 0.05087 0.67597 0.3542 0.0
H305 H 0.97695 0.59779 0.32875 0.0
H306 H 0.09364 0.57057 0.28147 0.0
H307 H 0.16667 0.647 0.30739 0.0
H308 H 0.94497 0.51438 0.29855 0.0
H309 H 0.03565 0.48541 0.30125 0.0
H310 H 0.88614 0.42643 0.28493 0.0
H311 H 0.81419 0.35458 0.31375 0.0
C312 C 0.3987 0.06255 0.6961 0.0
C313 C 0.42742 0.11092 0.67994 0.0
C314 C 0.41222 0.02165 0.69312 0.0
C315 C 0.45356 0.02861 0.67348 0.0
C316 C 0.47727 0.07391 0.65472 0.0
C317 C 0.46473 0.11534 0.65822 0.0
C318 C 0.4789 -0.00542 0.67615 0.0
C319 C 0.50039 -0.0076 0.70225 0.0
C320 C 0.5283 0.96092 0.70722 0.0
C321 C 0.52962 0.94335 0.73609 0.0
C322 C 0.5489 0.90745 0.74123 0.0
C323 C 0.56745 0.88898 0.71753 0.0
H324 H 0.5542 0.96177 0.66173 0.0
C325 C 0.57154 0.91102 0.68917 0.0
C326 C 0.55203 0.94677 0.68401 0.0
H327 H 0.58655 0.898 0.6706 0.0
H328 H 0.36971 0.05852 0.71292 0.0
H329 H 0.39328 0.98647 0.70757 0.0
H330 H 0.50906 0.07963 0.63941 0.0
H331 H 0.48685 0.1524 0.64538 0.0
H332 H 0.48337 0.97533 0.65637 0.0
H333 H 0.49536 0.01312 0.72131 0.0
H334 H 0.5128 0.95488 0.75445 0.0
H335 H 0.54599 0.89148 0.76338 0.0
C336 C 0.57859 0.61662 0.68016 0.0
C337 C 0.612 0.65549 0.701 0.0
C338 C 0.54164 0.56395 0.68907 0.0
C339 C 0.53736 0.54928 0.71905 0.0
C340 C 0.57511 0.58611 0.73936 0.0
C341 C 0.61212 0.63945 0.73041 0.0
C342 C 0.49209 0.49633 0.72893 0.0
C343 C 0.44146 0.47853 0.71878 0.0
C344 C 0.39842 0.42065 0.71991 0.0
C345 C 0.36297 0.39939 0.6957 0.0
C346 C 0.33225 0.34313 0.69148 0.0
C347 C 0.33594 0.30773 0.71176 0.0
H348 H 0.42167 0.40021 0.76164 0.0
C349 C 0.36542 0.32873 0.73798 0.0
C350 C 0.39652 0.38499 0.74212 0.0
H351 H 0.36855 0.30189 0.75394 0.0
H352 H 0.57741 0.62843 0.65745 0.0
H353 H 0.51428 0.53556 0.67275 0.0
H354 H 0.57302 0.5751 0.7625 0.0
H355 H 0.6367 0.66927 0.74695 0.0
H356 H 0.50147 0.47095 0.74288 0.0
H357 H 0.43391 0.50562 0.70502 0.0
H358 H 0.36313 0.42613 0.67848 0.0
H359 H 0.3103 0.32768 0.67091 0.0
C360 C 0.08346 0.4261 0.02381 0.0
C361 C 0.05821 0.36913 0.02306 0.0
C362 C 0.05305 0.45192 0.02593 0.0
C363 C -0.00374 0.42137 0.02615 0.0
C364 C 0.97078 0.36416 0.02615 0.0
C365 C 0.00164 0.33806 0.02462 0.0
C366 C 0.96325 0.44857 0.0264 0.0
C367 C 0.98194 0.49893 1.01519 0.0
C368 C 0.95136 0.52842 0.01589 0.0
C369 C 0.98032 0.58562 0.01569 0.0
C370 C 0.95304 0.61515 0.01555 0.0
C371 C 0.8964 0.58776 1.0152 0.0
H372 H 0.87096 0.45708 1.01475 0.0
C373 C 0.86735 0.53059 1.01516 0.0
C374 C 0.89455 0.50107 1.01553 0.0
H375 H 0.82352 0.5086 1.01449 0.0
H376 H 0.1271 0.45113 0.02267 0.0
H377 H 0.07457 0.49588 0.02746 0.0
H378 H 0.92704 0.33975 0.02679 0.0
H379 H 0.98141 0.29398 0.02427 0.0
H380 H 0.92284 0.42637 0.03579 0.0
H381 H 0.022 0.52061 1.00535 0.0
H382 H 0.02418 0.6075 0.01575 0.0
H383 H 0.97619 0.65925 1.01548 0.0
C384 C 0.36967 0.91185 0.37917 0.0
C385 C 0.32799 0.92427 0.38162 0.0
C386 C 0.41432 0.93642 0.39767 0.0
C387 C 0.41909 0.97529 0.41877 0.0
C388 C 0.37746 0.98823 0.42104 0.0
C389 C 0.33183 0.96248 0.40274 0.0
C390 C 0.47136 0.00972 0.43395 0.0
C391 C 0.50957 -0.00509 0.43457 0.0
C392 C 0.56253 0.02872 0.4198 0.0
C393 C 0.60428 0.01638 0.42366 0.0
C394 C 0.65107 0.04185 0.40612 0.0
C395 C 0.65607 0.07928 0.38423 0.0
H396 H 0.53626 0.07551 0.39301 0.0
C397 C 0.6141 0.09078 0.38005 0.0
C398 C 0.56819 0.0664 0.39776 0.0
H399 H 0.61664 0.11869 0.36287 0.0
H400 H 0.36805 0.8833 0.36261 0.0
H401 H 0.44619 0.92668 0.39415 0.0
H402 H 0.38078 0.019 0.43655 0.0
H403 H 0.29982 0.97241 0.40506 0.0
H404 H 0.48379 0.05274 0.43556 0.0
H405 H 0.49707 0.952 0.43704 0.0
H406 H 0.60031 0.98647 0.43993 0.0
H407 H 0.68327 0.03264 0.40979 0.0
C408 C 0.24317 0.1188 0.78633 0.0
C409 C 0.29941 0.14876 0.78177 0.0
C410 C 0.22162 0.11189 0.81505 0.0
C411 C 0.25612 0.13476 0.83969 0.0
C412 C 0.31225 0.16124 0.83508 0.0
C413 C 0.33361 0.16846 0.80656 0.0
C414 C 0.23639 0.13565 0.87023 0.0
C415 C 0.18792 0.13129 0.87619 0.0
C416 C 0.17457 0.14763 0.90509 0.0
C417 C 0.13473 0.16314 0.90531 0.0
C418 C 0.12635 0.18688 0.93042 0.0
C419 C 0.15732 0.19529 0.95608 0.0
H420 H 0.23231 0.13891 0.93289 0.0
C421 C 0.19428 0.17609 0.95684 0.0
C422 C 0.20275 0.15225 0.93161 0.0
H423 H 0.21831 0.18162 0.97647 0.0
H424 H 0.2158 0.10278 0.76768 0.0
H425 H 0.17812 0.0896 0.81766 0.0
H426 H 0.33994 0.17871 0.85353 0.0
H427 H 0.3772 0.19102 0.80392 0.0
H428 H 0.26608 0.14777 0.88781 0.0
H429 H 0.15957 0.12269 0.85821 0.0
H430 H 0.11185 0.15953 0.88545 0.0
H431 H 0.09719 0.20086 0.92926 0.0
C432 C 0.89421 0.14221 0.26875 0.0
C433 C 0.91503 0.17977 0.29218 0.0
C434 C 0.92611 0.14801 0.24395 0.0
C435 C 0.97958 0.19149 0.24212 0.0
C436 C 0.00158 0.22672 0.26646 0.0
C437 C 0.96943 0.22123 0.29121 0.0
C438 C 0.01184 0.20303 0.21442 0.0
C439 C -0.01114 0.1962 0.18753 0.0
C440 C 0.02077 0.21766 0.1599 0.0
C441 C 0.00325 0.24205 0.13892 0.0
C442 C 0.03401 0.26641 0.1136 0.0
C443 C 0.08191 0.26511 0.10824 0.0
H444 H 0.08212 0.19585 0.1699 0.0
C445 C 0.09827 0.23829 0.12836 0.0
C446 C 0.0682 0.21522 0.15427 0.0
H447 H 0.13538 0.23726 0.12468 0.0
H448 H 0.8525 0.10958 0.269 0.0
H449 H 0.90842 0.11921 0.22592 0.0
H450 H 0.04282 0.26027 0.2657 0.0
H451 H -0.01348 0.25067 0.309 0.0
H452 H 0.05569 0.22394 0.21621 0.0
H453 H 0.94556 0.18088 0.18604 0.0
H454 H 0.96669 0.24415 0.14268 0.0
H455 H 0.02072 0.28695 0.09834 0.0
C456 C 0.7535 0.97736 0.61535 0.0
C457 C 0.73283 0.92081 0.61314 0.0
C458 C 0.76604 0.00962 0.58971 0.0
C459 C 0.75698 0.98557 0.56145 0.0
C460 C 0.73799 0.92944 0.55939 0.0
C461 C 0.72682 0.89757 0.58489 0.0
C462 C 0.76027 0.01613 0.53398 0.0
C463 C 0.7983 0.06829 0.52879 0.0
C464 C 0.79721 0.09708 0.5014 0.0
C465 C 0.84486 0.12932 0.48517 0.0
C466 C 0.84343 0.15519 0.45888 0.0
C467 C 0.7946 0.15082 0.44898 0.0
H468 H 0.71134 0.06923 0.50385 0.0
C469 C 0.74739 0.11996 0.46587 0.0
C470 C 0.74856 0.09299 0.49154 0.0
H471 H 0.709 0.1155 0.45892 0.0
H472 H 0.75811 -0.00372 0.63683 0.0
H473 H 0.77977 0.05267 0.59201 0.0
H474 H 0.73032 0.90983 0.53791 0.0
H475 H 0.71057 0.85409 0.58239 0.0
H476 H 0.73047 -0.00602 0.51687 0.0
H477 H 0.83155 0.08948 0.54423 0.0
H478 H 0.88294 0.13341 0.49245 0.0
H479 H 0.88046 0.17874 0.44641 0.0
C480 C 0.74071 0.85483 0.78248 0.0
C481 C 0.6844 0.82132 0.77985 0.0
C482 C 0.7653 0.86549 0.81052 0.0
C483 C 0.73364 0.8433 0.83626 0.0
C484 C 0.67725 0.81254 0.83345 0.0
C485 C 0.65301 0.80126 0.80568 0.0
C486 C 0.75682 0.84778 0.86631 0.0
C487 C 0.80556 0.85231 0.87121 0.0
C488 C 0.81975 0.83723 0.9001 0.0
C489 C 0.85385 0.8146 0.8998 0.0
C490 C 0.85955 0.78944 0.92503 0.0
C491 C 0.83171 0.7869 0.95125 0.0
H492 H 0.77107 0.85822 0.92867 0.0
C493 C 0.80172 0.81401 0.95254 0.0
C494 C 0.7959 0.83919 0.92719 0.0
H495 H 0.78038 0.81318 0.97261 0.0
H496 H 0.76576 0.87127 0.76292 0.0
H497 H 0.80884 0.89054 0.81188 0.0
H498 H 0.65175 0.79528 0.85281 0.0
H499 H 0.60937 0.77619 0.80447 0.0
H500 H 0.72893 0.83798 0.88475 0.0
H501 H 0.83183 0.85785 0.85248 0.0
H502 H 0.87334 0.8131 0.87944 0.0
H503 H 0.8835 0.76938 0.92351 0.0
C504 C 0.02649 0.78881 0.27814 0.0
C505 C 0.08004 0.83159 0.28034 0.0
C506 C -0.00363 0.78273 0.25262 0.0
C507 C 0.01941 0.81925 0.22879 0.0
C508 C 0.07127 0.86462 0.23206 0.0
C509 C 0.10157 0.87058 0.25758 0.0
C510 C -0.00794 0.80768 0.19955 0.0
C511 C 0.96669 0.75659 0.18876 0.0
C512 C 0.94315 0.74083 0.15866 0.0
C513 C 0.93684 0.69213 0.14694 0.0
C514 C 0.91069 0.67214 0.12006 0.0
C515 C 0.88945 0.7 0.10419 0.0
H516 H 0.92781 0.8078 0.15091 0.0
C517 C 0.89747 0.75002 0.1152 0.0
C518 C 0.92415 0.77037 0.14232 0.0
H519 H 0.88132 0.77226 0.10353 0.0
H520 H 0.00872 0.75848 0.29548 0.0
H521 H 0.95579 0.74821 0.25109 0.0
H522 H 0.08964 0.89359 0.21413 0.0
H523 H 0.14272 0.90418 0.25885 0.0
H524 H -0.00184 0.84162 0.18568 0.0
H525 H 0.96613 0.72432 0.20211 0.0
H526 H 0.95137 0.66873 0.15892 0.0
H527 H 0.90592 0.63381 0.11215 0.0
C528 C 0.21072 0.05275 0.59414 0.0
C529 C 0.22598 0.03922 0.621 0.0
C530 C 0.19433 0.01675 0.57001 0.0
C531 C 0.19256 0.96611 0.57233 0.0
C532 C 0.20524 0.95182 0.5998 0.0
C533 C 0.22188 0.98789 0.62378 0.0
C534 C 0.18224 0.92873 0.54658 0.0
C535 C 0.17031 0.93685 0.51872 0.0
C536 C 0.16883 0.90318 0.49276 0.0
C537 C 0.14129 0.90306 0.46689 0.0
C538 C 0.14364 0.87639 0.44116 0.0
C539 C 0.17418 0.84967 0.4406 0.0
H540 H 0.2214 0.87532 0.51131 0.0
C541 C 0.20059 0.84866 0.46671 0.0
C542 C 0.19814 0.87511 0.49236 0.0
H543 H 0.22479 0.82881 0.46717 0.0
H544 H 0.21375 0.09222 0.59132 0.0
H545 H 0.18513 0.03001 0.5495 0.0
H546 H 0.20425 0.91325 0.60249 0.0
H547 H 0.23346 0.97632 0.64419 0.0
H548 H 0.1865 0.89328 0.55085 0.0
H549 H 0.16219 0.96975 0.51424 0.0
H550 H 0.11878 0.92469 0.46637 0.0
H551 H 0.12312 0.87843 0.42144 0.0
loop_
_geom_bond_atom_site_label_1
_geom_bond_atom_site_label_2
_geom_bond_distance
_geom_bond_site_symmetry_2
_ccdc_geom_bond_type
Dy0 O4 2.398 . S
Dy0 O5 2.491 . S
Dy0 O6 2.403 . S
Dy0 O7 2.664 . S
Dy0 O11 2.326 . S
Dy0 O15 2.310 . S
Dy0 O16 2.351 1_554 S
C1 O12 1.185 . S
C1 O13 1.355 . S
C2 O4 1.185 . S
C2 O5 1.355 . S
Dy3 O7 2.310 1_556 S
Dy3 O10 2.351 1_556 S
Dy3 O12 2.398 . S
Dy3 O13 2.491 . S
Dy3 O14 2.403 . S
Dy3 O15 2.664 1_556 S
Dy3 O17 2.326 . S
O4 Dy0 2.398 . S
O4 C2 1.185 . S
O5 Dy0 2.491 . S
O5 C2 1.355 . S
O6 Dy0 2.403 . S
O6 C8 1.254 . S
O7 Dy0 2.664 . S
O7 Dy3 2.310 1_554 S
O7 C8 1.268 . S
C8 O6 1.254 . S
C8 O7 1.268 . S
C9 O14 1.254 1_554 S
C9 O15 1.268 . S
O10 Dy3 2.351 1_554 S
O10 C18 1.249 . S
O11 Dy0 2.326 . S
O11 C18 1.267 . S
O12 C1 1.185 . S
O12 Dy3 2.398 . S
O13 C1 1.355 . S
O13 Dy3 2.491 . S
O14 Dy3 2.403 . S
O14 C9 1.254 1_556 S
O15 Dy0 2.310 . S
O15 Dy3 2.664 1_554 S
O15 C9 1.268 . S
O16 Dy0 2.351 1_556 S
O16 C19 1.249 . S
O17 Dy3 2.326 . S
O17 C19 1.267 . S
C18 O10 1.249 . S
C18 O11 1.267 . S
C19 O16 1.249 . S
C19 O17 1.267 . S
Dy20 O24 2.398 . S
Dy20 O25 2.491 . S
Dy20 O26 2.403 . S
Dy20 O27 2.664 . S
Dy20 O31 2.326 . S
Dy20 O35 2.310 . S
Dy20 O36 2.351 . S
C21 O32 1.185 . S
C21 O33 1.355 . S
C22 O24 1.185 . S
C22 O25 1.355 . S
Dy23 O27 2.310 . S
Dy23 O30 2.351 . S
Dy23 O32 2.398 . S
Dy23 O33 2.491 . S
Dy23 O34 2.403 . S
Dy23 O35 2.664 . S
Dy23 O37 2.326 . S
O24 Dy20 2.398 . S
O24 C22 1.185 . S
O25 Dy20 2.491 . S
O25 C22 1.355 . S
O26 Dy20 2.403 . S
O26 C28 1.254 . S
O27 Dy20 2.664 . S
O27 Dy23 2.310 . S
O27 C28 1.268 . S
C28 O26 1.254 . S
C28 O27 1.268 . S
C29 O34 1.254 . S
C29 O35 1.268 . S
O30 Dy23 2.351 . S
O30 C38 1.249 . S
O31 Dy20 2.326 . S
O31 C38 1.267 . S
O32 C21 1.185 . S
O32 Dy23 2.398 . S
O33 C21 1.355 . S
O33 Dy23 2.491 . S
O34 Dy23 2.403 . S
O34 C29 1.254 . S
O35 Dy20 2.310 . S
O35 Dy23 2.664 . S
O35 C29 1.268 . S
O36 Dy20 2.351 . S
O36 C39 1.249 . S
O37 Dy23 2.326 . S
O37 C39 1.267 . S
C38 O30 1.249 . S
C38 O31 1.267 . S
C39 O36 1.249 . S
C39 O37 1.267 . S
Dy40 O44 2.398 . S
Dy40 O45 2.491 . S
Dy40 O46 2.403 . S
Dy40 O47 2.664 . S
Dy40 O51 2.326 . S
Dy40 O55 2.310 . S
Dy40 O56 2.351 . S
C41 O52 1.185 . S
C41 O53 1.355 . S
C42 O44 1.185 . S
C42 O45 1.355 . S
Dy43 O47 2.310 . S
Dy43 O50 2.351 . S
Dy43 O52 2.398 . S
Dy43 O53 2.491 . S
Dy43 O54 2.403 . S
Dy43 O55 2.664 . S
Dy43 O57 2.326 . S
O44 Dy40 2.398 . S
O44 C42 1.185 . S
O45 Dy40 2.491 . S
O45 C42 1.355 . S
O46 Dy40 2.403 . S
O46 C48 1.254 . S
O47 Dy40 2.664 . S
O47 Dy43 2.310 . S
O47 C48 1.268 . S
C48 O46 1.254 . S
C48 O47 1.268 . S
C49 O54 1.254 . S
C49 O55 1.268 . S
O50 Dy43 2.351 . S
O50 C58 1.249 . S
O51 Dy40 2.326 . S
O51 C58 1.267 . S
O52 C41 1.185 . S
O52 Dy43 2.398 . S
O53 C41 1.355 . S
O53 Dy43 2.491 . S
O54 Dy43 2.403 . S
O54 C49 1.254 . S
O55 Dy40 2.310 . S
O55 Dy43 2.664 . S
O55 C49 1.268 . S
O56 Dy40 2.351 . S
O56 C59 1.249 . S
O57 Dy43 2.326 . S
O57 C59 1.267 . S
C58 O50 1.249 . S
C58 O51 1.267 . S
C59 O56 1.249 . S
C59 O57 1.267 . S
Dy60 O64 2.398 . S
Dy60 O65 2.491 . S
Dy60 O66 2.403 . S
Dy60 O67 2.664 . S
Dy60 O71 2.326 . S
Dy60 O75 2.310 . S
Dy60 O76 2.351 1_554 S
C61 O72 1.185 . S
C61 O73 1.355 . S
C62 O64 1.185 . S
C62 O65 1.355 . S
Dy63 O67 2.310 1_556 S
Dy63 O70 2.351 1_556 S
Dy63 O72 2.398 . S
Dy63 O73 2.491 . S
Dy63 O74 2.403 . S
Dy63 O75 2.664 1_556 S
Dy63 O77 2.326 . S
O64 Dy60 2.398 . S
O64 C62 1.185 . S
O65 Dy60 2.491 . S
O65 C62 1.355 . S
O66 Dy60 2.403 . S
O66 C68 1.254 . S
O67 Dy60 2.664 . S
O67 Dy63 2.310 1_554 S
O67 C68 1.268 . S
C68 O66 1.254 . S
C68 O67 1.268 . S
C69 O74 1.254 1_554 S
C69 O75 1.268 . S
O70 Dy63 2.351 1_554 S
O70 C78 1.249 . S
O71 Dy60 2.326 . S
O71 C78 1.267 . S
O72 C61 1.185 . S
O72 Dy63 2.398 . S
O73 C61 1.355 . S
O73 Dy63 2.491 . S
O74 Dy63 2.403 . S
O74 C69 1.254 1_556 S
O75 Dy60 2.310 . S
O75 Dy63 2.664 1_554 S
O75 C69 1.268 . S
O76 Dy60 2.351 1_556 S
O76 C79 1.249 . S
O77 Dy63 2.326 . S
O77 C79 1.267 . S
C78 O70 1.249 . S
C78 O71 1.267 . S
C79 O76 1.249 . S
C79 O77 1.267 . S
Dy80 O84 2.398 . S
Dy80 O85 2.491 . S
Dy80 O86 2.403 . S
Dy80 O87 2.664 . S
Dy80 O91 2.326 . S
Dy80 O95 2.310 . S
Dy80 O96 2.351 . S
C81 O92 1.185 . S
C81 O93 1.355 . S
C82 O84 1.185 . S
C82 O85 1.355 . S
Dy83 O87 2.310 . S
Dy83 O90 2.351 . S
Dy83 O92 2.398 . S
Dy83 O93 2.491 . S
Dy83 O94 2.403 . S
Dy83 O95 2.664 . S
Dy83 O97 2.326 . S
O84 Dy80 2.398 . S
O84 C82 1.185 . S
O85 Dy80 2.491 . S
O85 C82 1.355 . S
O86 Dy80 2.403 . S
O86 C88 1.254 . S
O87 Dy80 2.664 . S
O87 Dy83 2.310 . S
O87 C88 1.268 . S
C88 O86 1.254 . S
C88 O87 1.268 . S
C89 O94 1.254 . S
C89 O95 1.268 . S
O90 Dy83 2.351 . S
O90 C98 1.249 . S
O91 Dy80 2.326 . S
O91 C98 1.267 . S
O92 C81 1.185 . S
O92 Dy83 2.398 . S
O93 C81 1.355 . S
O93 Dy83 2.491 . S
O94 Dy83 2.403 . S
O94 C89 1.254 . S
O95 Dy80 2.310 . S
O95 Dy83 2.664 . S
O95 C89 1.268 . S
O96 Dy80 2.351 . S
O96 C99 1.249 . S
O97 Dy83 2.326 . S
O97 C99 1.267 . S
C98 O90 1.249 . S
C98 O91 1.267 . S
C99 O96 1.249 . S
C99 O97 1.267 . S
Dy100 O104 2.398 . S
Dy100 O105 2.491 . S
Dy100 O106 2.403 . S
Dy100 O107 2.664 . S
Dy100 O111 2.326 . S
Dy100 O115 2.310 . S
Dy100 O116 2.351 . S
C101 O112 1.185 . S
C101 O113 1.355 . S
C102 O104 1.185 . S
C102 O105 1.355 . S
Dy103 O107 2.310 . S
Dy103 O110 2.351 . S
Dy103 O112 2.398 . S
Dy103 O113 2.491 . S
Dy103 O114 2.403 . S
Dy103 O115 2.664 . S
Dy103 O117 2.326 . S
O104 Dy100 2.398 . S
O104 C102 1.185 . S
O105 Dy100 2.491 . S
O105 C102 1.355 . S
O106 Dy100 2.403 . S
O106 C108 1.254 . S
O107 Dy100 2.664 . S
O107 Dy103 2.310 . S
O107 C108 1.268 . S
C108 O106 1.254 . S
C108 O107 1.268 . S
C109 O114 1.254 . S
C109 O115 1.268 . S
O110 Dy103 2.351 . S
O110 C118 1.249 . S
O111 Dy100 2.326 . S
O111 C118 1.267 . S
O112 C101 1.185 . S
O112 Dy103 2.398 . S
O113 C101 1.355 . S
O113 Dy103 2.491 . S
O114 Dy103 2.403 . S
O114 C109 1.254 . S
O115 Dy100 2.310 . S
O115 Dy103 2.664 . S
O115 C109 1.268 . S
O116 Dy100 2.351 . S
O116 C119 1.249 . S
O117 Dy103 2.326 . S
O117 C119 1.267 . S
C118 O110 1.249 . S
C118 O111 1.267 . S
C119 O116 1.249 . S
C119 O117 1.267 . S
C120 C121 1.386 . S
C120 C122 1.383 . S
C120 H136 0.951 . S
C121 C120 1.386 . S
C121 C125 1.383 . S
C122 C120 1.383 . S
C122 C123 1.402 . S
C122 H137 0.951 . S
C123 C122 1.402 . S
C123 C124 1.375 . S
C123 C126 1.481 . S
C124 C123 1.375 . S
C124 C125 1.367 . S
C124 H138 0.951 . S
C125 C121 1.383 . S
C125 C124 1.367 . S
C125 H139 0.950 . S
C126 C123 1.481 . S
C126 C127 1.297 . S
C126 H140 0.950 . S
C127 C126 1.297 . S
C127 C128 1.479 . S
C127 H141 0.950 . S
C128 C127 1.479 . S
C128 C129 1.375 . S
C128 C134 1.404 . S
C129 C128 1.375 . S
C129 C130 1.369 . S
C129 H142 0.950 . S
C130 C129 1.369 . S
C130 C131 1.392 . S
C130 H143 0.951 . S
C131 C130 1.392 . S
C131 C133 1.384 . S
H132 C134 0.949 . S
C133 C131 1.384 . S
C133 C134 1.385 . S
C133 H135 0.950 . S
C134 C128 1.404 . S
C134 H132 0.949 . S
C134 C133 1.385 . S
H135 C133 0.950 . S
H136 C120 0.951 . S
H137 C122 0.951 . S
H138 C124 0.951 . S
H139 C125 0.950 . S
H140 C126 0.950 . S
H141 C127 0.950 . S
H142 C129 0.950 . S
H143 C130 0.951 . S
C144 C145 1.386 . S
C144 C146 1.383 . S
C144 H160 0.951 . S
C145 C144 1.386 . S
C145 C149 1.383 . S
C146 C144 1.383 . S
C146 C147 1.402 . S
C146 H161 0.951 . S
C147 C146 1.402 . S
C147 C148 1.375 . S
C147 C150 1.481 . S
C148 C147 1.375 . S
C148 C149 1.367 . S
C148 H162 0.951 . S
C149 C145 1.383 . S
C149 C148 1.367 . S
C149 H163 0.950 . S
C150 C147 1.481 . S
C150 C151 1.297 . S
C150 H164 0.950 . S
C151 C150 1.297 . S
C151 C152 1.479 . S
C151 H165 0.950 . S
C152 C151 1.479 . S
C152 C153 1.375 . S
C152 C158 1.404 . S
C153 C152 1.375 . S
C153 C154 1.369 . S
C153 H166 0.950 . S
C154 C153 1.369 . S
C154 C155 1.392 . S
C154 H167 0.951 . S
C155 C154 1.392 . S
C155 C157 1.384 . S
H156 C158 0.949 . S
C157 C155 1.384 . S
C157 C158 1.385 . S
C157 H159 0.950 . S
C158 C152 1.404 . S
C158 H156 0.949 . S
C158 C157 1.385 . S
H159 C157 0.950 . S
H160 C144 0.951 . S
H161 C146 0.951 . S
H162 C148 0.951 . S
H163 C149 0.950 . S
H164 C150 0.950 . S
H165 C151 0.950 . S
H166 C153 0.950 . S
H167 C154 0.951 . S
C168 C169 1.386 . S
C168 C170 1.383 . S
C168 H184 0.951 . S
C169 C168 1.386 . S
C169 C173 1.383 . S
C170 C168 1.383 . S
C170 C171 1.402 . S
C170 H185 0.951 . S
C171 C170 1.402 . S
C171 C172 1.375 . S
C171 C174 1.481 . S
C172 C171 1.375 . S
C172 C173 1.367 . S
C172 H186 0.951 . S
C173 C169 1.383 . S
C173 C172 1.367 . S
C173 H187 0.950 . S
C174 C171 1.481 . S
C174 C175 1.297 . S
C174 H188 0.950 . S
C175 C174 1.297 . S
C175 C176 1.479 . S
C175 H189 0.950 . S
C176 C175 1.479 . S
C176 C177 1.375 . S
C176 C182 1.404 . S
C177 C176 1.375 . S
C177 C178 1.369 . S
C177 H190 0.950 . S
C178 C177 1.369 . S
C178 C179 1.392 . S
C178 H191 0.951 . S
C179 C178 1.392 . S
C179 C181 1.384 . S
H180 C182 0.949 . S
C181 C179 1.384 . S
C181 C182 1.385 . S
C181 H183 0.950 . S
C182 C176 1.404 . S
C182 H180 0.949 . S
C182 C181 1.385 . S
H183 C181 0.950 . S
H184 C168 0.951 . S
H185 C170 0.951 . S
H186 C172 0.951 . S
H187 C173 0.950 . S
H188 C174 0.950 . S
H189 C175 0.950 . S
H190 C177 0.950 . S
H191 C178 0.951 . S
C192 C193 1.386 . S
C192 C194 1.383 . S
C192 H208 0.951 . S
C193 C192 1.386 . S
C193 C197 1.383 . S
C194 C192 1.383 . S
C194 C195 1.402 . S
C194 H209 0.951 . S
C195 C194 1.402 . S
C195 C196 1.375 . S
C195 C198 1.481 . S
C196 C195 1.375 . S
C196 C197 1.367 . S
C196 H210 0.951 . S
C197 C193 1.383 . S
C197 C196 1.367 . S
C197 H211 0.950 . S
C198 C195 1.481 . S
C198 C199 1.297 . S
C198 H212 0.950 . S
C199 C198 1.297 . S
C199 C200 1.479 . S
C199 H213 0.950 . S
C200 C199 1.479 . S
C200 C201 1.375 . S
C200 C206 1.404 . S
C201 C200 1.375 . S
C201 C202 1.369 . S
C201 H214 0.950 . S
C202 C201 1.369 . S
C202 C203 1.392 . S
C202 H215 0.951 . S
C203 C202 1.392 . S
C203 C205 1.384 . S
H204 C206 0.949 . S
C205 C203 1.384 . S
C205 C206 1.385 . S
C205 H207 0.950 . S
C206 C200 1.404 . S
C206 H204 0.949 . S
C206 C205 1.385 . S
H207 C205 0.950 . S
H208 C192 0.951 . S
H209 C194 0.951 . S
H210 C196 0.951 . S
H211 C197 0.950 . S
H212 C198 0.950 . S
H213 C199 0.950 . S
H214 C201 0.950 . S
H215 C202 0.951 . S
C216 C217 1.386 . S
C216 C218 1.383 . S
C216 H232 0.951 . S
C217 C216 1.386 . S
C217 C221 1.383 . S
C218 C216 1.383 . S
C218 C219 1.402 . S
C218 H233 0.951 . S
C219 C218 1.402 . S
C219 C220 1.375 . S
C219 C222 1.481 . S
C220 C219 1.375 . S
C220 C221 1.367 . S
C220 H234 0.951 . S
C221 C217 1.383 . S
C221 C220 1.367 . S
C221 H235 0.950 . S
C222 C219 1.481 . S
C222 C223 1.297 . S
C222 H236 0.950 . S
C223 C222 1.297 . S
C223 C224 1.479 . S
C223 H237 0.950 . S
C224 C223 1.479 . S
C224 C225 1.375 . S
C224 C230 1.404 . S
C225 C224 1.375 . S
C225 C226 1.369 . S
C225 H238 0.950 . S
C226 C225 1.369 . S
C226 C227 1.392 . S
C226 H239 0.951 . S
C227 C226 1.392 . S
C227 C229 1.384 . S
H228 C230 0.949 . S
C229 C227 1.384 . S
C229 C230 1.385 . S
C229 H231 0.950 . S
C230 C224 1.404 . S
C230 H228 0.949 . S
C230 C229 1.385 . S
H231 C229 0.950 . S
H232 C216 0.951 . S
H233 C218 0.951 . S
H234 C220 0.951 . S
H235 C221 0.950 . S
H236 C222 0.950 . S
H237 C223 0.950 . S
H238 C225 0.950 . S
H239 C226 0.951 . S
C240 C241 1.386 . S
C240 C242 1.383 . S
C240 H256 0.951 . S
C241 C240 1.386 . S
C241 C245 1.383 . S
C242 C240 1.383 . S
C242 C243 1.402 . S
C242 H257 0.951 . S
C243 C242 1.402 . S
C243 C244 1.375 . S
C243 C246 1.481 . S
C244 C243 1.375 . S
C244 C245 1.367 . S
C244 H258 0.951 . S
C245 C241 1.383 . S
C245 C244 1.367 . S
C245 H259 0.950 . S
C246 C243 1.481 . S
C246 C247 1.297 . S
C246 H260 0.950 . S
C247 C246 1.297 . S
C247 C248 1.479 . S
C247 H261 0.950 . S
C248 C247 1.479 . S
C248 C249 1.375 . S
C248 C254 1.404 . S
C249 C248 1.375 . S
C249 C250 1.369 . S
C249 H262 0.950 . S
C250 C249 1.369 . S
C250 C251 1.392 . S
C250 H263 0.951 . S
C251 C250 1.392 . S
C251 C253 1.384 . S
H252 C254 0.949 . S
C253 C251 1.384 . S
C253 C254 1.385 . S
C253 H255 0.950 . S
C254 C248 1.404 . S
C254 H252 0.949 . S
C254 C253 1.385 . S
H255 C253 0.950 . S
H256 C240 0.951 . S
H257 C242 0.951 . S
H258 C244 0.951 . S
H259 C245 0.950 . S
H260 C246 0.950 . S
H261 C247 0.950 . S
H262 C249 0.950 . S
H263 C250 0.951 . S
C264 C265 1.386 . S
C264 C266 1.383 . S
C264 H280 0.951 . S
C265 C264 1.386 . S
C265 C269 1.383 . S
C266 C264 1.383 . S
C266 C267 1.402 . S
C266 H281 0.951 . S
C267 C266 1.402 . S
C267 C268 1.375 . S
C267 C270 1.481 . S
C268 C267 1.375 . S
C268 C269 1.367 . S
C268 H282 0.951 . S
C269 C265 1.383 . S
C269 C268 1.367 . S
C269 H283 0.950 . S
C270 C267 1.481 . S
C270 C271 1.297 . S
C270 H284 0.950 . S
C271 C270 1.297 . S
C271 C272 1.479 . S
C271 H285 0.950 . S
C272 C271 1.479 . S
C272 C273 1.375 . S
C272 C278 1.404 . S
C273 C272 1.375 . S
C273 C274 1.369 . S
C273 H286 0.950 . S
C274 C273 1.369 . S
C274 C275 1.392 . S
C274 H287 0.951 . S
C275 C274 1.392 . S
C275 C277 1.384 . S
H276 C278 0.949 . S
C277 C275 1.384 . S
C277 C278 1.385 . S
C277 H279 0.950 . S
C278 C272 1.404 . S
C278 H276 0.949 . S
C278 C277 1.385 . S
H279 C277 0.950 . S
H280 C264 0.951 . S
H281 C266 0.951 . S
H282 C268 0.951 . S
H283 C269 0.950 . S
H284 C270 0.950 . S
H285 C271 0.950 . S
H286 C273 0.950 . S
H287 C274 0.951 . S
C288 C289 1.386 . S
C288 C290 1.383 . S
C288 H304 0.951 . S
C289 C288 1.386 . S
C289 C293 1.383 . S
C290 C288 1.383 . S
C290 C291 1.402 . S
C290 H305 0.951 . S
C291 C290 1.402 . S
C291 C292 1.375 . S
C291 C294 1.481 . S
C292 C291 1.375 . S
C292 C293 1.367 . S
C292 H306 0.951 . S
C293 C289 1.383 . S
C293 C292 1.367 . S
C293 H307 0.950 . S
C294 C291 1.481 . S
C294 C295 1.297 1_455 S
C294 H308 0.950 . S
C295 C294 1.297 1_655 S
C295 C296 1.479 . S
C295 H309 0.950 . S
C296 C295 1.479 . S
C296 C297 1.375 . S
C296 C302 1.404 . S
C297 C296 1.375 . S
C297 C298 1.369 . S
C297 H310 0.950 . S
C298 C297 1.369 . S
C298 C299 1.392 . S
C298 H311 0.951 . S
C299 C298 1.392 . S
C299 C301 1.384 . S
H300 C302 0.949 . S
C301 C299 1.384 . S
C301 C302 1.385 . S
C301 H303 0.950 . S
C302 C296 1.404 . S
C302 H300 0.949 . S
C302 C301 1.385 . S
H303 C301 0.950 . S
H304 C288 0.951 . S
H305 C290 0.951 . S
H306 C292 0.951 . S
H307 C293 0.950 . S
H308 C294 0.950 . S
H309 C295 0.950 . S
H310 C297 0.950 . S
H311 C298 0.951 . S
C312 C313 1.386 . S
C312 C314 1.383 . S
C312 H328 0.951 . S
C313 C312 1.386 . S
C313 C317 1.383 . S
C314 C312 1.383 . S
C314 C315 1.402 . S
C314 H329 0.951 1_545 S
C315 C314 1.402 . S
C315 C316 1.375 . S
C315 C318 1.481 . S
C316 C315 1.375 . S
C316 C317 1.367 . S
C316 H330 0.951 . S
C317 C313 1.383 . S
C317 C316 1.367 . S
C317 H331 0.950 . S
C318 C315 1.481 . S
C318 C319 1.297 1_545 S
C318 H332 0.950 . S
C319 C318 1.297 1_565 S
C319 C320 1.479 . S
C319 H333 0.950 . S
C320 C319 1.479 . S
C320 C321 1.375 . S
C320 C326 1.404 . S
C321 C320 1.375 . S
C321 C322 1.369 . S
C321 H334 0.950 . S
C322 C321 1.369 . S
C322 C323 1.392 . S
C322 H335 0.951 . S
C323 C322 1.392 . S
C323 C325 1.384 . S
H324 C326 0.949 1_545 S
C325 C323 1.384 . S
C325 C326 1.385 . S
C325 H327 0.950 . S
C326 C320 1.404 . S
C326 H324 0.949 1_565 S
C326 C325 1.385 . S
H327 C325 0.950 . S
H328 C312 0.951 . S
H329 C314 0.951 1_565 S
H330 C316 0.951 . S
H331 C317 0.950 . S
H332 C318 0.950 . S
H333 C319 0.950 . S
H334 C321 0.950 . S
H335 C322 0.951 . S
C336 C337 1.386 . S
C336 C338 1.383 . S
C336 H352 0.951 . S
C337 C336 1.386 . S
C337 C341 1.383 . S
C338 C336 1.383 . S
C338 C339 1.402 . S
C338 H353 0.951 . S
C339 C338 1.402 . S
C339 C340 1.375 . S
C339 C342 1.481 . S
C340 C339 1.375 . S
C340 C341 1.367 . S
C340 H354 0.951 . S
C341 C337 1.383 . S
C341 C340 1.367 . S
C341 H355 0.950 . S
C342 C339 1.481 . S
C342 C343 1.297 . S
C342 H356 0.950 . S
C343 C342 1.297 . S
C343 C344 1.479 . S
C343 H357 0.950 . S
C344 C343 1.479 . S
C344 C345 1.375 . S
C344 C350 1.404 . S
C345 C344 1.375 . S
C345 C346 1.369 . S
C345 H358 0.950 . S
C346 C345 1.369 . S
C346 C347 1.392 . S
C346 H359 0.951 . S
C347 C346 1.392 . S
C347 C349 1.384 . S
H348 C350 0.949 . S
C349 C347 1.384 . S
C349 C350 1.385 . S
C349 H351 0.950 . S
C350 C344 1.404 . S
C350 H348 0.949 . S
C350 C349 1.385 . S
H351 C349 0.950 . S
H352 C336 0.951 . S
H353 C338 0.951 . S
H354 C340 0.951 . S
H355 C341 0.950 . S
H356 C342 0.950 . S
H357 C343 0.950 . S
H358 C345 0.950 . S
H359 C346 0.951 . S
C360 C361 1.386 1_556 S
C360 C362 1.383 . S
C360 H376 0.951 . S
C361 C360 1.386 1_554 S
C361 C365 1.383 . S
C362 C360 1.383 . S
C362 C363 1.404 . S
C362 H377 0.951 . S
C363 C362 1.404 . S
C363 C364 1.372 1_556 S
C363 C366 1.481 1_455 S
C364 C363 1.372 1_554 S
C364 C365 1.367 . S
C364 H378 0.951 1_455 S
C365 C361 1.383 . S
C365 C364 1.367 . S
C365 H379 0.950 . S
C366 C363 1.481 1_655 S
C366 C367 1.308 . S
C366 H380 0.939 1_556 S
C367 C366 1.308 . S
C367 C368 1.479 . S
C367 H381 0.950 1_655 S
C368 C367 1.479 . S
C368 C369 1.375 . S
C368 C374 1.411 . S
C369 C368 1.375 . S
C369 C370 1.369 . S
C369 H382 0.950 1_655 S
C370 C369 1.369 . S
C370 C371 1.404 . S
C370 H383 0.951 . S
C371 C370 1.404 . S
C371 C373 1.380 1_556 S
H372 C374 0.945 1_554 S
C373 C371 1.380 1_554 S
C373 C374 1.382 1_554 S
C373 H375 0.950 . S
C374 C368 1.411 . S
C374 H372 0.945 1_556 S
C374 C373 1.382 1_556 S
H375 C373 0.950 . S
H376 C360 0.951 . S
H377 C362 0.951 . S
H378 C364 0.951 1_655 S
H379 C365 0.950 . S
H380 C366 0.939 1_554 S
H381 C367 0.950 1_455 S
H382 C369 0.950 1_455 S
H383 C370 0.951 . S
C384 C385 1.386 . S
C384 C386 1.383 . S
C384 H400 0.951 . S
C385 C384 1.386 . S
C385 C389 1.383 . S
C386 C384 1.383 . S
C386 C387 1.402 . S
C386 H401 0.951 . S
C387 C386 1.402 . S
C387 C388 1.375 . S
C387 C390 1.481 1_565 S
C388 C387 1.375 . S
C388 C389 1.367 . S
C388 H402 0.951 1_565 S
C389 C385 1.383 . S
C389 C388 1.367 . S
C389 H403 0.950 . S
C390 C387 1.481 1_545 S
C390 C391 1.297 1_545 S
C390 H404 0.950 . S
C391 C390 1.297 1_565 S
C391 C392 1.479 1_565 S
C391 H405 0.950 . S
C392 C391 1.479 1_545 S
C392 C393 1.375 . S
C392 C398 1.404 . S
C393 C392 1.375 . S
C393 C394 1.369 . S
C393 H406 0.950 1_545 S
C394 C393 1.369 . S
C394 C395 1.392 . S
C394 H407 0.951 . S
C395 C394 1.392 . S
C395 C397 1.384 . S
H396 C398 0.949 . S
C397 C395 1.384 . S
C397 C398 1.385 . S
C397 H399 0.950 . S
C398 C392 1.404 . S
C398 H396 0.949 . S
C398 C397 1.385 . S
H399 C397 0.950 . S
H400 C384 0.951 . S
H401 C386 0.951 . S
H402 C388 0.951 1_545 S
H403 C389 0.950 . S
H404 C390 0.950 . S
H405 C391 0.950 . S
H406 C393 0.950 1_565 S
H407 C394 0.951 . S
C408 C409 1.386 . S
C408 C410 1.383 . S
C408 H424 0.951 . S
C409 C408 1.386 . S
C409 C413 1.383 . S
C410 C408 1.383 . S
C410 C411 1.402 . S
C410 H425 0.951 . S
C411 C410 1.402 . S
C411 C412 1.375 . S
C411 C414 1.481 . S
C412 C411 1.375 . S
C412 C413 1.367 . S
C412 H426 0.951 . S
C413 C409 1.383 . S
C413 C412 1.367 . S
C413 H427 0.950 . S
C414 C411 1.481 . S
C414 C415 1.297 . S
C414 H428 0.950 . S
C415 C414 1.297 . S
C415 C416 1.479 . S
C415 H429 0.950 . S
C416 C415 1.479 . S
C416 C417 1.375 . S
C416 C422 1.404 . S
C417 C416 1.375 . S
C417 C418 1.369 . S
C417 H430 0.950 . S
C418 C417 1.369 . S
C418 C419 1.392 . S
C418 H431 0.951 . S
C419 C418 1.392 . S
C419 C421 1.384 . S
H420 C422 0.949 . S
C421 C419 1.384 . S
C421 C422 1.385 . S
C421 H423 0.950 . S
C422 C416 1.404 . S
C422 H420 0.949 . S
C422 C421 1.385 . S
H423 C421 0.950 . S
H424 C408 0.951 . S
H425 C410 0.951 . S
H426 C412 0.951 . S
H427 C413 0.950 . S
H428 C414 0.950 . S
H429 C415 0.950 . S
H430 C417 0.950 . S
H431 C418 0.951 . S
C432 C433 1.386 . S
C432 C434 1.383 . S
C432 H448 0.951 . S
C433 C432 1.386 . S
C433 C437 1.383 . S
C434 C432 1.383 . S
C434 C435 1.402 . S
C434 H449 0.951 . S
C435 C434 1.402 . S
C435 C436 1.375 . S
C435 C438 1.481 1_655 S
C436 C435 1.375 . S
C436 C437 1.367 . S
C436 H450 0.951 1_655 S
C437 C433 1.383 . S
C437 C436 1.367 . S
C437 H451 0.950 . S
C438 C435 1.481 1_455 S
C438 C439 1.297 . S
C438 H452 0.950 . S
C439 C438 1.297 . S
C439 C440 1.479 . S
C439 H453 0.950 1_455 S
C440 C439 1.479 . S
C440 C441 1.375 . S
C440 C446 1.404 . S
C441 C440 1.375 . S
C441 C442 1.369 . S
C441 H454 0.954 . S
C442 C441 1.369 . S
C442 C443 1.392 . S
C442 H455 0.951 . S
C443 C442 1.392 . S
C443 C445 1.384 . S
H444 C446 0.949 . S
C445 C443 1.384 . S
C445 C446 1.385 . S
C445 H447 0.950 . S
C446 C440 1.404 . S
C446 H444 0.949 . S
C446 C445 1.385 . S
H447 C445 0.950 . S
H448 C432 0.951 . S
H449 C434 0.951 . S
H450 C436 0.951 1_455 S
H451 C437 0.950 . S
H452 C438 0.950 . S
H453 C439 0.950 1_655 S
H454 C441 0.954 . S
H455 C442 0.951 . S
C456 C457 1.386 . S
C456 C458 1.383 . S
C456 H472 0.951 . S
C457 C456 1.386 . S
C457 C461 1.383 . S
C458 C456 1.383 . S
C458 C459 1.402 . S
C458 H473 0.951 1_565 S
C459 C458 1.402 . S
C459 C460 1.375 . S
C459 C462 1.481 . S
C460 C459 1.375 . S
C460 C461 1.367 . S
C460 H474 0.951 . S
C461 C457 1.383 . S
C461 C460 1.367 . S
C461 H475 0.950 . S
C462 C459 1.481 . S
C462 C463 1.297 1_565 S
C462 H476 0.950 . S
C463 C462 1.297 1_545 S
C463 C464 1.479 . S
C463 H477 0.950 . S
C464 C463 1.479 . S
C464 C465 1.375 . S
C464 C470 1.404 . S
C465 C464 1.375 . S
C465 C466 1.369 . S
C465 H478 0.950 . S
C466 C465 1.369 . S
C466 C467 1.392 . S
C466 H479 0.951 . S
C467 C466 1.392 . S
C467 C469 1.384 . S
H468 C470 0.961 . S
C469 C467 1.384 . S
C469 C470 1.385 . S
C469 H471 0.950 . S
C470 C464 1.404 . S
C470 H468 0.961 . S
C470 C469 1.385 . S
H471 C469 0.950 . S
H472 C456 0.951 . S
H473 C458 0.951 1_545 S
H474 C460 0.951 . S
H475 C461 0.950 . S
H476 C462 0.950 . S
H477 C463 0.950 . S
H478 C465 0.950 . S
H479 C466 0.951 . S
C480 C481 1.386 . S
C480 C482 1.383 . S
C480 H496 0.951 . S
C481 C480 1.386 . S
C481 C485 1.383 . S
C482 C480 1.383 . S
C482 C483 1.402 . S
C482 H497 0.951 . S
C483 C482 1.402 . S
C483 C484 1.375 . S
C483 C486 1.481 . S
C484 C483 1.375 . S
C484 C485 1.367 . S
C484 H498 0.951 . S
C485 C481 1.383 . S
C485 C484 1.367 . S
C485 H499 0.950 . S
C486 C483 1.481 . S
C486 C487 1.297 . S
C486 H500 0.950 . S
C487 C486 1.297 . S
C487 C488 1.479 . S
C487 H501 0.950 . S
C488 C487 1.479 . S
C488 C489 1.375 . S
C488 C494 1.404 . S
C489 C488 1.375 . S
C489 C490 1.369 . S
C489 H502 0.950 . S
C490 C489 1.369 . S
C490 C491 1.392 . S
C490 H503 0.951 . S
C491 C490 1.392 . S
C491 C493 1.384 . S
H492 C494 0.949 . S
C493 C491 1.384 . S
C493 C494 1.385 . S
C493 H495 0.950 . S
C494 C488 1.404 . S
C494 H492 0.949 . S
C494 C493 1.385 . S
H495 C493 0.950 . S
H496 C480 0.951 . S
H497 C482 0.951 . S
H498 C484 0.951 . S
H499 C485 0.950 . S
H500 C486 0.950 . S
H501 C487 0.950 . S
H502 C489 0.950 . S
H503 C490 0.951 . S
C504 C505 1.386 . S
C504 C506 1.383 . S
C504 H520 0.951 . S
C505 C504 1.386 . S
C505 C509 1.383 . S
C506 C504 1.383 . S
C506 C507 1.402 . S
C506 H521 0.951 . S
C507 C506 1.402 . S
C507 C508 1.375 . S
C507 C510 1.481 1_455 S
C508 C507 1.375 . S
C508 C509 1.367 . S
C508 H522 0.951 . S
C509 C505 1.383 . S
C509 C508 1.367 . S
C509 H523 0.950 . S
C510 C507 1.481 1_655 S
C510 C511 1.297 . S
C510 H524 0.950 . S
C511 C510 1.297 . S
C511 C512 1.479 . S
C511 H525 0.950 . S
C512 C511 1.479 . S
C512 C513 1.375 . S
C512 C518 1.404 . S
C513 C512 1.375 . S
C513 C514 1.369 . S
C513 H526 0.950 . S
C514 C513 1.369 . S
C514 C515 1.392 . S
C514 H527 0.951 . S
C515 C514 1.392 . S
C515 C517 1.384 . S
H516 C518 0.949 . S
C517 C515 1.384 . S
C517 C518 1.385 . S
C517 H519 0.950 . S
C518 C512 1.404 . S
C518 H516 0.949 . S
C518 C517 1.385 . S
H519 C517 0.950 . S
H520 C504 0.951 . S
H521 C506 0.951 . S
H522 C508 0.951 . S
H523 C509 0.950 . S
H524 C510 0.950 . S
H525 C511 0.950 . S
H526 C513 0.950 . S
H527 C514 0.951 . S
C528 C529 1.386 . S
C528 C530 1.383 . S
C528 H544 0.951 . S
C529 C528 1.386 . S
C529 C533 1.383 . S
C530 C528 1.383 . S
C530 C531 1.402 . S
C530 H545 0.951 . S
C531 C530 1.402 . S
C531 C532 1.375 . S
C531 C534 1.481 . S
C532 C531 1.375 . S
C532 C533 1.367 . S
C532 H546 0.951 . S
C533 C529 1.383 . S
C533 C532 1.367 . S
C533 H547 0.950 . S
C534 C531 1.481 . S
C534 C535 1.297 1_545 S
C534 H548 0.950 . S
C535 C534 1.297 1_565 S
C535 C536 1.479 . S
C535 H549 0.950 . S
C536 C535 1.479 . S
C536 C537 1.375 . S
C536 C542 1.404 . S
C537 C536 1.375 . S
C537 C538 1.369 . S
C537 H550 0.950 . S
C538 C537 1.369 . S
C538 C539 1.392 . S
C538 H551 0.951 . S
C539 C538 1.392 . S
C539 C541 1.384 . S
H540 C542 0.949 . S
C541 C539 1.384 . S
C541 C542 1.385 . S
C541 H543 0.950 . S
C542 C536 1.404 . S
C542 H540 0.949 . S
C542 C541 1.385 . S
H543 C541 0.950 . S
H544 C528 0.951 . S
H545 C530 0.951 . S
H546 C532 0.951 . S
H547 C533 0.950 . S
H548 C534 0.950 . S
H549 C535 0.950 . S
H550 C537 0.950 . S
H551 C538 0.951 . S
C121 C99 1.203 . S
C131 C2 1.169 . S
C145 C119 1.203 . S
C155 C22 1.166 . S
C169 C19 1.207 . S
C179 C42 1.172 . S
C193 C39 1.224 . S
C203 C62 1.222 . S
C217 C59 1.212 . S
C227 C82 1.186 . S
C241 C79 1.220 . S
C251 C102 1.210 . S
C265 C8 0.714 . S
C275 C68 0.677 . S
C289 C88 0.657 . S
C299 C28 0.475 . S
C313 C108 0.585 . S
C323 C48 0.581 . S
C337 C49 0.511 . S
C347 C109 0.497 . S
C361 C9 0.517 . S
C371 C69 0.496 1_556 S
C385 C89 0.509 . S
C395 C29 0.522 . S
C409 C118 1.245 . S
C419 C1 1.233 . S
C433 C21 1.232 . S
C443 C18 1.231 . S
C457 C41 1.254 . S
C467 C38 1.250 . S
C481 C58 1.248 . S
C491 C61 1.244 . S
C505 C81 1.236 . S
C515 C78 1.236 . S
C529 C101 1.250 . S
C539 C98 1.246 . S
