# Generated by pormake.
# Topology wje, (4)-cn, num edge types: 1
# Building blocks:
#     Node 0, Type 0, BuildingBlock: UXUYUI_clean_sbu_0, # of connection points: 4
#     Node 1, Type 0, BuildingBlock: UXUYUI_clean_sbu_0, # of connection points: 4
#     Node 2, Type 0, BuildingBlock: UXUYUI_clean_sbu_0, # of connection points: 4
#     Node 3, Type 0, BuildingBlock: UXUYUI_clean_sbu_0, # of connection points: 4
#     Node 4, Type 0, BuildingBlock: UXUYUI_clean_sbu_0, # of connection points: 4
#     Node 5, Type 0, BuildingBlock: UXUYUI_clean_sbu_0, # of connection points: 4
#     Node 6, Type 0, BuildingBlock: UXUYUI_clean_sbu_0, # of connection points: 4
#     Node 7, Type 0, BuildingBlock: UXUYUI_clean_sbu_0, # of connection points: 4
#     Node 8, Type 0, BuildingBlock: UXUYUI_clean_sbu_0, # of connection points: 4
#     Node 9, Type 0, BuildingBlock: UXUYUI_clean_sbu_0, # of connection points: 4
#     Node 10, Type 0, BuildingBlock: UXUYUI_clean_sbu_0, # of connection points: 4
#     Node 11, Type 0, BuildingBlock: UXUYUI_clean_sbu_0, # of connection points: 4
#     Edge 12, Type (0, 0), BuildingBlock: OJICUG_clean_linker_0, # of connection points: 2
#     Edge 13, Type (0, 0), BuildingBlock: OJICUG_clean_linker_0, # of connection points: 2
#     Edge 14, Type (0, 0), BuildingBlock: OJICUG_clean_linker_0, # of connection points: 2
#     Edge 15, Type (0, 0), BuildingBlock: OJICUG_clean_linker_0, # of connection points: 2
#     Edge 16, Type (0, 0), BuildingBlock: OJICUG_clean_linker_0, # of connection points: 2
#     Edge 17, Type (0, 0), BuildingBlock: OJICUG_clean_linker_0, # of connection points: 2
#     Edge 18, Type (0, 0), BuildingBlock: OJICUG_clean_linker_0, # of connection points: 2
#     Edge 19, Type (0, 0), BuildingBlock: OJICUG_clean_linker_0, # of connection points: 2
#     Edge 20, Type (0, 0), BuildingBlock: OJICUG_clean_linker_0, # of connection points: 2
#     Edge 21, Type (0, 0), BuildingBlock: OJICUG_clean_linker_0, # of connection points: 2
#     Edge 22, Type (0, 0), BuildingBlock: OJICUG_clean_linker_0, # of connection points: 2
#     Edge 23, Type (0, 0), BuildingBlock: OJICUG_clean_linker_0, # of connection points: 2
#     Edge 24, Type (0, 0), BuildingBlock: OJICUG_clean_linker_0, # of connection points: 2
#     Edge 25, Type (0, 0), BuildingBlock: OJICUG_clean_linker_0, # of connection points: 2
#     Edge 26, Type (0, 0), BuildingBlock: OJICUG_clean_linker_0, # of connection points: 2
#     Edge 27, Type (0, 0), BuildingBlock: OJICUG_clean_linker_0, # of connection points: 2
#     Edge 28, Type (0, 0), BuildingBlock: OJICUG_clean_linker_0, # of connection points: 2
#     Edge 29, Type (0, 0), BuildingBlock: OJICUG_clean_linker_0, # of connection points: 2
#     Edge 30, Type (0, 0), BuildingBlock: OJICUG_clean_linker_0, # of connection points: 2
#     Edge 31, Type (0, 0), BuildingBlock: OJICUG_clean_linker_0, # of connection points: 2
#     Edge 32, Type (0, 0), BuildingBlock: OJICUG_clean_linker_0, # of connection points: 2
#     Edge 33, Type (0, 0), BuildingBlock: OJICUG_clean_linker_0, # of connection points: 2
#     Edge 34, Type (0, 0), BuildingBlock: OJICUG_clean_linker_0, # of connection points: 2
#     Edge 35, Type (0, 0), BuildingBlock: OJICUG_clean_linker_0, # of connection points: 2
# Relax obj value: 0.245
# Max RMSD: 0.179
# Mean RMSD: 0.178
data_MOF--net-wje--node1-UXUYUI_clean_sbu_0--edge1-OJICUG_clean_linker_0
_symmetry_space_group_name_H-M    P1
_symmetry_Int_Tables_number       1
_symmetry_cell_setting            triclinic
loop_
_symmetry_equiv_pos_as_xyz
'x, y, z'
_cell_length_a     50.863734
_cell_length_b     50.875406
_cell_length_c     39.960237
_cell_angle_alpha  90.001526
_cell_angle_beta   89.961208
_cell_angle_gamma 120.01324
loop_
_atom_site_label
_atom_site_type_symbol
_atom_site_fract_x
_atom_site_fract_y
_atom_site_fract_z
_atom_type_partial_charge
Li0 Li 0.35843 0.00604 0.26023 0.0
Li1 Li 0.33821 0.0201 0.31088 0.0
Li2 Li 0.30421 0.98108 0.27345 0.0
Li3 Li 0.32866 0.03355 0.2541 0.0
C4 C 0.32543 0.95322 0.31195 0.0
N5 N 0.29791 0.89417 0.33519 0.0
C6 C 0.31627 0.9468 0.34538 0.0
C7 C 0.32078 0.92963 0.29043 0.0
C8 C 0.30235 0.9168 0.35663 0.0
C9 C 0.30678 0.89993 0.30263 0.0
C10 C 0.3841 0.07415 0.29556 0.0
C11 C 0.38801 0.12003 0.31798 0.0
N12 N 0.41415 0.12626 0.33383 0.0
C13 C 0.41096 0.08098 0.31221 0.0
C14 C 0.37248 0.0938 0.2986 0.0
C15 C 0.42582 0.10743 0.33138 0.0
C16 C 0.42044 0.0284 0.24817 0.0
N17 N 0.39256 0.00355 0.24388 0.0
C18 C 0.4151 0.97557 0.22208 0.0
C19 C 0.38944 0.97761 0.23039 0.0
C20 C 0.44435 1.00032 0.22821 0.0
C21 C 0.44667 0.02722 0.24085 0.0
H22 H 0.42238 0.04898 0.25815 0.0
H23 H 0.3671 0.95825 0.22667 0.0
C24 C 0.31515 0.01944 0.37333 0.0
N25 N 0.34172 0.02701 0.3577 0.0
C26 C 0.3126 0.01588 0.40789 0.0
C27 C 0.36533 0.02926 0.41015 0.0
C28 C 0.36671 0.0321 0.37527 0.0
C29 C 0.33771 0.02023 0.42686 0.0
H30 H 0.29518 0.01392 0.35884 0.0
H31 H 0.38714 0.03656 0.3622 0.0
C32 C 0.30239 0.97823 0.20696 0.0
N33 N 0.25777 0.93937 0.16323 0.0
C34 C 0.27676 0.98099 0.20146 0.0
C35 C 0.30549 0.95589 0.19005 0.0
C36 C 0.25438 0.96105 0.17935 0.0
C37 C 0.28266 0.93644 0.16804 0.0
C38 C 0.27892 0.023 0.29465 0.0
C39 C 0.24995 0.00471 0.28117 0.0
C40 C 0.28553 0.0497 0.31151 0.0
C41 C 0.22819 0.01364 0.28447 0.0
C42 C 0.26316 0.05786 0.31423 0.0
N43 N 0.2352 0.03982 0.30075 0.0
C44 C 0.25535 0.94501 0.31114 0.0
C45 C 0.25361 0.91766 0.26243 0.0
C46 C 0.22967 0.91999 0.32404 0.0
N47 N 0.26675 0.94369 0.28081 0.0
C48 C 0.22775 0.8917 0.27466 0.0
C49 C 0.21547 0.89284 0.30586 0.0
H50 H 0.26682 0.96546 0.32594 0.0
H51 H 0.26355 0.91665 0.23894 0.0
C52 C 0.3536 0.08603 0.21408 0.0
N53 N 0.32695 0.06445 0.22777 0.0
C54 C 0.35516 0.11078 0.19701 0.0
C55 C 0.30169 0.09038 0.20771 0.0
C56 C 0.30107 0.06584 0.22413 0.0
C57 C 0.32906 0.11343 0.19423 0.0
H58 H 0.37386 0.0844 0.21717 0.0
H59 H 0.27993 0.0482 0.23419 0.0
O60 O 0.33826 0.98234 0.30019 0.0
O61 O 0.3689 0.04806 0.27709 0.0
O62 O 0.32441 0.99744 0.22865 0.0
O63 O 0.30051 0.01456 0.29188 0.0
H64 H 0.31961 0.96471 0.36243 0.0
H65 H 0.32716 0.93409 0.26437 0.0
H66 H 0.295 0.9115 0.38238 0.0
H67 H 0.30277 0.88142 0.28614 0.0
H68 H 0.37921 0.13539 0.3205 0.0
H69 H 0.42002 0.06579 0.31094 0.0
H70 H 0.35158 0.08883 0.28636 0.0
H71 H 0.44655 0.1129 0.34447 0.0
H72 H 0.41192 0.95458 0.21156 0.0
H73 H 0.46847 0.0469 0.24643 0.0
H74 H 0.29058 0.00804 0.41923 0.0
H75 H 0.38539 0.03311 0.42366 0.0
H76 H 0.27415 0.99828 0.2142 0.0
H77 H 0.32525 0.95355 0.19391 0.0
H78 H 0.23435 0.96283 0.17497 0.0
H79 H 0.2847 0.91898 0.15484 0.0
H80 H 0.24436 0.98397 0.26803 0.0
H81 H 0.30764 0.06387 0.32257 0.0
H82 H 0.20574 0.99978 0.27402 0.0
H83 H 0.268 0.07849 0.32714 0.0
H84 H 0.22148 0.92169 0.34852 0.0
H85 H 0.21749 0.87106 0.25996 0.0
H86 H 0.37673 0.12812 0.187 0.0
H87 H 0.28095 0.09132 0.20555 0.0
Li88 Li 0.35526 0.35778 0.60082 0.0
Li89 Li 0.31879 0.3394 0.64923 0.0
Li90 Li 0.32025 0.3031 0.61163 0.0
Li91 Li 0.29848 0.33237 0.59376 0.0
C92 C 0.36691 0.3189 0.6535 0.0
N93 N 0.39221 0.28651 0.68025 0.0
C94 C 0.35527 0.30234 0.68305 0.0
C95 C 0.39146 0.31902 0.63759 0.0
C96 C 0.36834 0.28607 0.69614 0.0
C97 C 0.40396 0.30254 0.65154 0.0
C98 C 0.32999 0.39444 0.63727 0.0
C99 C 0.30973 0.41376 0.67903 0.0
N100 N 0.33729 0.43945 0.68141 0.0
C101 C 0.35808 0.4211 0.64006 0.0
C102 C 0.30557 0.39079 0.65681 0.0
C103 C 0.36132 0.44357 0.66253 0.0
C104 C 0.39841 0.40879 0.5624 0.0
N105 N 0.3944 0.39037 0.58891 0.0
C106 C 0.44508 0.42361 0.60755 0.0
C107 C 0.41715 0.3971 0.61106 0.0
C108 C 0.44955 0.44403 0.58151 0.0
C109 C 0.42601 0.43591 0.55817 0.0
H110 H 0.37967 0.40323 0.54561 0.0
H111 H 0.41315 0.38266 0.6325 0.0
C112 C 0.29454 0.32288 0.71371 0.0
N113 N 0.31755 0.34517 0.69573 0.0
C114 C 0.29722 0.32148 0.74831 0.0
C115 C 0.34645 0.36703 0.74531 0.0
C116 C 0.34297 0.36735 0.71073 0.0
C117 C 0.3239 0.3432 0.76444 0.0
H118 H 0.27521 0.30482 0.70094 0.0
H119 H 0.36137 0.38412 0.69562 0.0
C120 C 0.33679 0.30863 0.54845 0.0
N121 N 0.35338 0.27454 0.50931 0.0
C122 C 0.31464 0.2805 0.53599 0.0
C123 C 0.36735 0.31951 0.54088 0.0
C124 C 0.3235 0.26357 0.5163 0.0
C125 C 0.37529 0.30192 0.52106 0.0
C126 C 0.25412 0.28807 0.62457 0.0
C127 C 0.24149 0.26428 0.60146 0.0
C128 C 0.23559 0.29731 0.6404 0.0
C129 C 0.21051 0.25033 0.59427 0.0
C130 C 0.2047 0.28279 0.63252 0.0
N131 N 0.19292 0.25983 0.60978 0.0
C132 C 0.29555 0.24575 0.63914 0.0
C133 C 0.33777 0.25648 0.60491 0.0
C134 C 0.2946 0.21972 0.65155 0.0
N135 N 0.31711 0.26384 0.6166 0.0
C136 C 0.33775 0.23057 0.61686 0.0
C137 C 0.31625 0.2121 0.641 0.0
H138 H 0.28008 0.25245 0.64921 0.0
H139 H 0.35543 0.2716 0.58796 0.0
C140 C 0.25763 0.31642 0.53843 0.0
N141 N 0.26696 0.33257 0.56739 0.0
C142 C 0.23347 0.31504 0.52025 0.0
C143 C 0.22913 0.34712 0.56186 0.0
C144 C 0.25347 0.34805 0.57906 0.0
C145 C 0.21869 0.33033 0.53209 0.0
H146 H 0.26865 0.30423 0.52972 0.0
H147 H 0.2613 0.36076 0.60205 0.0
O148 O 0.35389 0.33432 0.6398 0.0
O149 O 0.32643 0.37205 0.61559 0.0
O150 O 0.3286 0.32562 0.56766 0.0
O151 O 0.28459 0.30261 0.63113 0.0
H152 H 0.33607 0.30166 0.6955 0.0
H153 H 0.40042 0.33126 0.61438 0.0
H154 H 0.35942 0.27299 0.71885 0.0
H155 H 0.42285 0.30229 0.63939 0.0
H156 H 0.29108 0.41111 0.69449 0.0
H157 H 0.37722 0.42448 0.62509 0.0
H158 H 0.28378 0.37019 0.65536 0.0
H159 H 0.38295 0.46427 0.66498 0.0
H160 H 0.46266 0.42853 0.62583 0.0
H161 H 0.42825 0.45104 0.53793 0.0
H162 H 0.27947 0.30239 0.76182 0.0
H163 H 0.36719 0.38449 0.7567 0.0
H164 H 0.29089 0.27175 0.54159 0.0
H165 H 0.38478 0.34124 0.55029 0.0
H166 H 0.30662 0.2417 0.5066 0.0
H167 H 0.39886 0.31001 0.51508 0.0
H168 H 0.25554 0.25685 0.58902 0.0
H169 H 0.245 0.31574 0.65829 0.0
H170 H 0.20047 0.23202 0.57628 0.0
H171 H 0.19013 0.28986 0.64439 0.0
H172 H 0.27798 0.20657 0.67057 0.0
H173 H 0.35481 0.22547 0.60794 0.0
H174 H 0.22602 0.30165 0.49755 0.0
H175 H 0.21872 0.35959 0.57167 0.0
Li176 Li 0.00371 0.35727 0.92831 0.0
Li177 Li 0.98589 0.32171 0.97749 0.0
Li178 Li 0.02199 0.32118 0.93883 0.0
Li179 Li 0.97065 0.30056 0.92267 0.0
C180 C 0.05492 0.36797 0.97993 0.0
N181 N 0.11282 0.39148 0.00562 0.0
C182 C 0.05968 0.35591 0.00923 0.0
C183 C 0.0796 0.39203 0.96374 0.0
C184 C 0.08913 0.36807 0.02178 0.0
C185 C 0.10869 0.40362 0.97715 0.0
C186 C 0.94311 0.33472 0.96676 0.0
C187 C 0.90454 0.31656 0.00966 0.0
N188 N 0.90779 0.34471 0.01188 0.0
C189 C 0.94597 0.36345 0.96938 0.0
C190 C 0.92212 0.31104 0.98696 0.0
C191 C 0.92794 0.36804 0.99236 0.0
C192 C 0.99624 0.40031 0.88959 0.0
N193 N 0.01119 0.39653 0.91569 0.0
C194 C 0.03008 0.44776 0.93322 0.0
C195 C 0.02826 0.41967 0.93703 0.0
C196 C 0.01352 0.45198 0.90772 0.0
C197 C 0.99713 0.42806 0.88507 0.0
H198 H 0.98225 0.38128 0.87347 0.0
H199 H 0.03914 0.41586 0.95817 0.0
C200 C 0.97781 0.29747 0.0419 0.0
N201 N 0.97974 0.3211 0.02411 0.0
C202 C 0.98162 0.2997 0.07652 0.0
C203 C 0.98774 0.34996 0.07397 0.0
C204 C 0.98414 0.34688 0.03933 0.0
C205 C 0.98755 0.32658 0.09292 0.0
H206 H 0.97561 0.2778 0.02898 0.0
H207 H 0.98665 0.36572 0.02437 0.0
C208 C 0.03163 0.33624 0.87525 0.0
N209 N 0.0809 0.35029 0.83462 0.0
C210 C 0.03643 0.31319 0.86317 0.0
C211 C 0.05178 0.36641 0.86655 0.0
C212 C 0.06152 0.32078 0.84271 0.0
C213 C 0.07658 0.37306 0.84599 0.0
C214 C 0.96976 0.25597 0.95373 0.0
C215 C 0.97992 0.2421 0.93101 0.0
C216 C 0.94187 0.23861 0.96987 0.0
C217 C 0.96181 0.21109 0.92453 0.0
C218 C 0.92441 0.20766 0.96269 0.0
N219 N 0.93465 0.19466 0.94033 0.0
C220 C 0.05396 0.29515 0.96495 0.0
C221 C 0.08538 0.33689 0.93009 0.0
C222 C 0.07896 0.29353 0.97642 0.0
N223 N 0.05748 0.31681 0.94256 0.0
C224 C 0.11118 0.33621 0.94112 0.0
C225 C 0.10815 0.31464 0.96512 0.0
H226 H 0.03194 0.28019 0.97567 0.0
H227 H 0.08797 0.35464 0.91327 0.0
C228 C 0.90892 0.25786 0.90965 0.0
N229 N 0.93762 0.2691 0.89776 0.0
C230 C 0.8845 0.23322 0.89398 0.0
C231 C 0.9194 0.2327 0.85332 0.0
C232 C 0.94321 0.25728 0.86993 0.0
C233 C 0.88959 0.22013 0.86556 0.0
H234 H 0.90502 0.26766 0.93171 0.0
H235 H 0.96624 0.26653 0.86105 0.0
O236 O 0.02635 0.35582 0.96674 0.0
O237 O 0.96075 0.32983 0.94457 0.0
O238 O 0.00716 0.32931 0.89521 0.0
O239 O 0.98676 0.2865 0.9596 0.0
H240 H 0.04095 0.33707 0.02188 0.0
H241 H 0.07643 0.40128 0.9407 0.0
H242 H 0.09317 0.35882 0.04429 0.0
H243 H 0.12802 0.42211 0.96478 0.0
H244 H 0.8884 0.29848 0.02561 0.0
H245 H 0.9619 0.38204 0.95392 0.0
H246 H 0.91982 0.28877 0.98561 0.0
H247 H 0.92998 0.39017 0.99469 0.0
H248 H 0.04342 0.46562 0.95096 0.0
H249 H 0.98375 0.43012 0.86529 0.0
H250 H 0.98187 0.28132 0.08988 0.0
H251 H 0.99184 0.37092 0.08556 0.0
H252 H 0.02108 0.28974 0.86969 0.0
H253 H 0.04841 0.38453 0.87566 0.0
H254 H 0.0656 0.30319 0.8333 0.0
H255 H 0.09241 0.39631 0.83912 0.0
H256 H 1.00142 0.25522 0.91827 0.0
H257 H 0.93361 0.24898 0.98745 0.0
H258 H 0.96931 0.2001 0.90684 0.0
H259 H 0.90268 0.19399 0.97479 0.0
H260 H 0.07555 0.2769 0.99538 0.0
H261 H 0.1333 0.3529 0.93169 0.0
H262 H 0.86185 0.22457 0.90398 0.0
H263 H 0.92439 0.22317 0.83163 0.0
Li264 Li 0.64444 0.99505 0.26313 0.0
Li265 Li 0.66724 0.9906 0.31316 0.0
Li266 Li 0.6987 0.02393 0.27016 0.0
Li267 Li 0.67393 0.96756 0.26186 0.0
C268 C 0.64826 0.03805 0.29956 0.0
N269 N 0.60707 0.05828 0.30464 0.0
C270 C 0.62553 0.02608 0.32401 0.0
C271 C 0.64998 0.06031 0.27769 0.0
C272 C 0.60496 0.03662 0.32619 0.0
C273 C 0.62896 0.07024 0.28067 0.0
C274 C 0.62145 0.93379 0.30994 0.0
C275 C 0.61182 0.88619 0.33388 0.0
N276 N 0.59279 0.88782 0.35662 0.0
C277 C 0.6018 0.93497 0.33367 0.0
C278 C 0.62649 0.90917 0.31011 0.0
C279 C 0.58752 0.91152 0.35699 0.0
C280 C 0.60784 0.01065 0.22023 0.0
N281 N 0.60826 0.99349 0.24612 0.0
C282 C 0.55555 0.97455 0.25665 0.0
C283 C 0.58264 0.97517 0.26365 0.0
C284 C 0.55437 0.99263 0.23077 0.0
C285 C 0.58098 0.01057 0.21208 0.0
H286 H 0.62849 0.02506 0.20655 0.0
H287 H 0.58343 0.96168 0.28391 0.0
C288 C 0.67714 0.01903 0.37412 0.0
N289 N 0.66719 0.99086 0.36127 0.0
C290 C 0.68043 0.02395 0.40845 0.0
C291 C 0.66401 0.97085 0.41626 0.0
C292 C 0.66115 0.96696 0.38153 0.0
C293 C 0.67384 0.99972 0.43002 0.0
H294 H 0.68313 0.03802 0.35764 0.0
H295 H 0.65489 0.94511 0.37087 0.0
C296 C 0.6976 0.0176 0.20752 0.0
N297 N 0.74349 0.05588 0.16462 0.0
C298 C 0.71859 0.00966 0.19584 0.0
C299 C 0.69991 0.04498 0.19743 0.0
C300 C 0.74163 0.02933 0.17413 0.0
C301 C 0.72329 0.06403 0.17572 0.0
C302 C 0.7177 0.98927 0.32225 0.0
C303 C 0.73632 0.01402 0.34265 0.0
C304 C 0.71142 0.96017 0.33137 0.0
C305 C 0.74833 0.00922 0.37191 0.0
C306 C 0.72394 0.95632 0.36079 0.0
N307 N 0.74196 0.98071 0.3803 0.0
C308 C 0.73829 0.08826 0.27092 0.0
C309 C 0.76198 0.05836 0.27024 0.0
C310 C 0.76568 0.114 0.27975 0.0
N311 N 0.73677 0.06097 0.26737 0.0
C312 C 0.78961 0.08328 0.27993 0.0
C313 C 0.79159 0.11148 0.2861 0.0
H314 H 0.71793 0.08975 0.26907 0.0
H315 H 0.76005 0.03628 0.2679 0.0
C316 C 0.65258 0.91645 0.22091 0.0
N317 N 0.6765 0.93538 0.24042 0.0
C318 C 0.65239 0.89217 0.20439 0.0
C319 C 0.70168 0.90744 0.22805 0.0
C320 C 0.70098 0.93157 0.24401 0.0
C321 C 0.67708 0.8872 0.20797 0.0
H322 H 0.63357 0.92025 0.21825 0.0
H323 H 0.71992 0.94723 0.2593 0.0
O324 O 0.66804 0.0273 0.29633 0.0
O325 O 0.63524 0.95625 0.28639 0.0
O326 O 0.67547 0.99912 0.22959 0.0
O327 O 0.70509 0.9934 0.29392 0.0
H328 H 0.62353 0.00859 0.3409 0.0
H329 H 0.66684 0.06931 0.25805 0.0
H330 H 0.58721 0.02745 0.34491 0.0
H331 H 0.6299 0.08727 0.26372 0.0
H332 H 0.61559 0.86707 0.33425 0.0
H333 H 0.59801 0.95403 0.33463 0.0
H334 H 0.64158 0.90771 0.29219 0.0
H335 H 0.57242 0.91227 0.37555 0.0
H336 H 0.53604 0.96081 0.27234 0.0
H337 H 0.58117 0.02464 0.19165 0.0
H338 H 0.688 0.04656 0.41799 0.0
H339 H 0.65932 0.9517 0.43207 0.0
H340 H 0.71726 0.98867 0.20363 0.0
H341 H 0.68408 0.05163 0.20661 0.0
H342 H 0.75809 0.02352 0.16493 0.0
H343 H 0.72545 0.08536 0.16781 0.0
H344 H 0.74099 0.03663 0.3363 0.0
H345 H 0.69669 0.9407 0.31619 0.0
H346 H 0.76259 0.02813 0.38805 0.0
H347 H 0.71917 0.93391 0.36823 0.0
H348 H 0.76605 0.13529 0.28303 0.0
H349 H 0.80852 0.0797 0.28473 0.0
H350 H 0.6332 0.87766 0.18868 0.0
H351 H 0.72112 0.90447 0.23179 0.0
Li352 Li 0.68969 0.66632 0.64982 0.0
Li353 Li 0.65392 0.64808 0.60087 0.0
Li354 Li 0.71065 0.67201 0.59482 0.0
Li355 Li 0.68984 0.70263 0.61105 0.0
C356 C 0.67725 0.6108 0.63961 0.0
N357 N 0.66831 0.56641 0.6855 0.0
C358 C 0.64855 0.58506 0.64334 0.0
C359 C 0.70143 0.61384 0.65911 0.0
C360 C 0.64449 0.5629 0.66669 0.0
C361 C 0.69644 0.5912 0.68221 0.0
C362 C 0.64296 0.68873 0.65181 0.0
C363 C 0.60767 0.7072 0.64763 0.0
N364 N 0.61902 0.72311 0.67647 0.0
C365 C 0.65421 0.70519 0.68147 0.0
C366 C 0.61949 0.68973 0.63472 0.0
C367 C 0.64184 0.72247 0.69349 0.0
C368 C 0.71365 0.6835 0.71427 0.0
N369 N 0.69034 0.66125 0.69656 0.0
C370 C 0.6607 0.64139 0.74618 0.0
C371 C 0.6644 0.64005 0.71174 0.0
C372 C 0.68362 0.66524 0.76477 0.0
C373 C 0.71074 0.68594 0.74867 0.0
H374 H 0.73351 0.70071 0.70133 0.0
H375 H 0.64574 0.62349 0.69679 0.0
C376 C 0.61126 0.59643 0.56335 0.0
N377 N 0.61469 0.61594 0.58847 0.0
C378 C 0.5835 0.56951 0.55905 0.0
C379 C 0.5631 0.58427 0.60531 0.0
C380 C 0.59122 0.61054 0.60901 0.0
C381 C 0.55917 0.56273 0.58086 0.0
H382 H 0.63054 0.60094 0.54789 0.0
H383 H 0.59473 0.62583 0.62945 0.0
C384 C 0.75523 0.71628 0.62536 0.0
N385 N 0.81651 0.74333 0.6113 0.0
C386 C 0.76871 0.74062 0.60298 0.0
C387 C 0.77295 0.70587 0.64083 0.0
C388 C 0.79973 0.75397 0.59616 0.0
C389 C 0.80388 0.71979 0.63331 0.0
C390 C 0.67428 0.69661 0.54747 0.0
C391 C 0.69703 0.7245 0.53508 0.0
C392 C 0.64399 0.68612 0.53892 0.0
C393 C 0.68903 0.74155 0.51442 0.0
C394 C 0.63693 0.70383 0.51816 0.0
N395 N 0.65941 0.73095 0.50647 0.0
C396 C 0.75217 0.65168 0.57962 0.0
C397 C 0.75453 0.68915 0.5426 0.0
C398 C 0.77626 0.6515 0.56301 0.0
N399 N 0.74201 0.67053 0.56944 0.0
C400 C 0.77868 0.68971 0.52522 0.0
C401 C 0.79003 0.67083 0.5355 0.0
H402 H 0.74178 0.63699 0.60088 0.0
H403 H 0.74615 0.70401 0.53507 0.0
C404 C 0.71511 0.76003 0.63819 0.0
N405 N 0.69413 0.74246 0.61491 0.0
C406 C 0.71667 0.78657 0.64982 0.0
C407 C 0.67539 0.77727 0.61284 0.0
C408 C 0.6747 0.7508 0.60174 0.0
C409 C 0.69625 0.79524 0.63771 0.0
H410 H 0.72951 0.75254 0.64946 0.0
H411 H 0.65741 0.73607 0.58424 0.0
O412 O 0.68163 0.63293 0.6171 0.0
O413 O 0.65534 0.67233 0.63915 0.0
O414 O 0.72472 0.70234 0.63156 0.0
O415 O 0.68162 0.67948 0.56755 0.0
H416 H 0.62956 0.58219 0.62848 0.0
H417 H 0.72371 0.63371 0.65683 0.0
H418 H 0.62239 0.54291 0.66988 0.0
H419 H 0.71492 0.59339 0.69761 0.0
H420 H 0.58964 0.70833 0.63456 0.0
H421 H 0.67259 0.70503 0.69483 0.0
H422 H 0.61089 0.67762 0.61139 0.0
H423 H 0.65048 0.73548 0.71629 0.0
H424 H 0.63932 0.62528 0.75768 0.0
H425 H 0.72891 0.70458 0.76228 0.0
H426 H 0.58171 0.5535 0.54009 0.0
H427 H 0.54494 0.5804 0.62234 0.0
H428 H 0.7553 0.74891 0.59074 0.0
H429 H 0.76287 0.68707 0.65822 0.0
H430 H 0.81043 0.7727 0.57873 0.0
H431 H 0.81783 0.71184 0.64491 0.0
H432 H 0.72056 0.73301 0.54154 0.0
H433 H 0.6261 0.66458 0.54825 0.0
H434 H 0.70638 0.76323 0.50477 0.0
H435 H 0.61358 0.69603 0.5114 0.0
H436 H 0.78388 0.63621 0.57151 0.0
H437 H 0.78875 0.70521 0.50439 0.0
H438 H 0.73269 0.79926 0.66948 0.0
H439 H 0.65925 0.78315 0.60275 0.0
Li440 Li 0.00439 0.65187 0.92692 0.0
Li441 Li 0.0185 0.68713 0.97533 0.0
Li442 Li 0.98439 0.68563 0.93472 0.0
Li443 Li 0.03659 0.70801 0.91934 0.0
C444 C 0.94798 0.63326 0.96491 0.0
N445 N 0.88547 0.5968 0.96653 0.0
C446 C 0.93161 0.63283 0.99326 0.0
C447 C 0.93248 0.61495 0.9375 0.0
C448 C 0.90004 0.61436 0.99352 0.0
C449 C 0.90092 0.59665 0.93882 0.0
C450 C 0.05682 0.66344 0.96155 0.0
C451 C 0.09625 0.65106 0.97073 0.0
N452 N 0.07758 0.62846 0.99196 0.0
C453 C 0.03806 0.64015 0.98356 0.0
C454 C 0.08616 0.66898 0.95511 0.0
C455 C 0.04896 0.6227 -0.00136 0.0
C456 C 0.01733 0.61138 0.89045 0.0
N457 N 0.99987 0.61334 0.91503 0.0
C458 C 0.98261 0.56214 0.93163 0.0
C459 C 0.98244 0.58928 0.9352 0.0
C460 C 1.00147 0.55976 0.90757 0.0
C461 C 0.01841 0.58459 0.88617 0.0
H462 H 0.0316 0.63111 0.87532 0.0
H463 H 0.96958 0.59158 0.95534 0.0
C464 C 1.00014 0.69411 0.03567 0.0
N465 N 0.02318 0.69139 0.02236 0.0
C466 C 0.99604 0.69325 0.0701 0.0
C467 C 0.04134 0.68962 0.07695 0.0
C468 C 0.04423 0.69 0.04206 0.0
C469 C 0.01646 0.69047 0.09142 0.0
H470 H 0.9842 0.69584 0.01925 0.0
H471 H 0.0628 0.68853 0.03084 0.0
C472 C 0.98107 0.67883 0.86998 0.0
N473 N 0.94024 0.68022 0.82552 0.0
C474 C 0.98104 0.70591 0.86431 0.0
C475 C 0.96062 0.65253 0.85279 0.0
C476 C 0.96012 0.70612 0.84182 0.0
C477 C 0.94009 0.65369 0.83046 0.0
C478 C 0.04213 0.74867 0.9668 0.0
C479 C 0.03914 0.77448 0.9688 0.0
C480 C 0.06903 0.7502 0.97759 0.0
C481 C 0.06307 0.80139 0.98162 0.0
C482 C 0.09242 0.77753 0.99027 0.0
N483 N 0.08899 0.80234 0.992 0.0
C484 C 0.95134 0.7096 0.96109 0.0
C485 C 0.92166 0.67199 0.92111 0.0
C486 C 0.9262 0.71129 0.97174 0.0
N487 N 0.94873 0.68986 0.93663 0.0
C488 C 0.89563 0.6727 0.93134 0.0
C489 C 0.8977 0.69222 0.95743 0.0
H490 H 0.97267 0.72294 0.97387 0.0
H491 H 0.91979 0.65601 0.90216 0.0
C492 C 0.09431 0.73697 0.8872 0.0
N493 N 0.06974 0.73964 0.89504 0.0
C494 C 0.11935 0.76073 0.87106 0.0
C495 C 0.09315 0.78934 0.87098 0.0
C496 C 0.06864 0.76505 0.88708 0.0
C497 C 0.11911 0.78752 0.86293 0.0
H498 H 0.09459 0.71653 0.89384 0.0
H499 H 0.04883 0.76661 0.8936 0.0
O500 O 0.9789 0.6517 0.96374 0.0
O501 O 0.04644 0.68038 0.94575 0.0
O502 O 1.00134 0.67816 0.89188 0.0
O503 O 0.01893 0.72235 0.95377 0.0
H504 H 0.94302 0.64649 0.01489 0.0
H505 H 0.94467 0.61512 0.91527 0.0
H506 H 0.88712 0.61396 0.01523 0.0
H507 H 0.88869 0.58251 0.91769 0.0
H508 H 0.1189 0.65508 0.96593 0.0
H509 H 0.01535 0.63555 0.98906 0.0
H510 H 0.101 0.68689 0.93816 0.0
H511 H 0.03465 0.60457 0.01565 0.0
H512 H 0.96883 0.54352 0.94839 0.0
H513 H 0.03352 0.58391 0.86754 0.0
H514 H 0.97628 0.69357 0.07963 0.0
H515 H 0.05813 0.68825 0.0923 0.0
H516 H 0.99675 0.72644 0.87744 0.0
H517 H 0.96063 0.63148 0.85664 0.0
H518 H 0.95966 0.72686 0.83736 0.0
H519 H 0.92404 0.63349 0.81707 0.0
H520 H 0.0186 0.77379 0.96032 0.0
H521 H 0.07198 0.73064 0.9762 0.0
H522 H 0.06105 0.82153 0.98326 0.0
H523 H 0.11333 0.77901 -0.00131 0.0
H524 H 0.92882 0.72629 0.9923 0.0
H525 H 0.87404 0.65768 0.91956 0.0
H526 H 0.13894 0.75837 0.86567 0.0
H527 H 0.09168 0.80929 0.86479 0.0
Li528 Li 0.02155 0.69979 0.38981 0.0
Li529 Li 0.96989 0.67084 0.40537 0.0
Li530 Li 1.00017 0.64455 0.39649 0.0
Li531 Li 0.98469 0.66691 0.34922 0.0
C532 C 0.03026 0.69101 0.45194 0.0
N533 N 0.0805 0.72364 0.49215 0.0
C534 C 0.03644 0.71895 0.46521 0.0
C535 C 0.04952 0.67958 0.45923 0.0
C536 C 0.06201 0.73514 0.48543 0.0
C537 C 0.07482 0.69643 0.47961 0.0
C538 C 0.97074 0.71631 0.37649 0.0
C539 C 0.92658 0.7209 0.36556 0.0
N540 N 0.93545 0.7423 0.38998 0.0
C541 C 0.97956 0.73853 0.40128 0.0
C542 C 0.94417 0.70756 0.3583 0.0
C543 C 0.96137 0.75134 0.40779 0.0
C544 C 0.05601 0.75959 0.36933 0.0
N545 N 0.05852 0.73861 0.38802 0.0
C546 C 0.11277 0.7691 0.38676 0.0
C547 C 0.08622 0.74324 0.3976 0.0
C548 C 0.11066 0.79043 0.36627 0.0
C549 C 0.08179 0.78579 0.35839 0.0
H550 H 0.03403 0.75518 0.36092 0.0
H551 H 0.08787 0.726 0.41166 0.0
C552 C 0.94351 0.68549 0.46048 0.0
N553 N 0.93751 0.66969 0.43135 0.0
C554 C 0.9201 0.68615 0.4782 0.0
C555 C 0.88474 0.65384 0.43595 0.0
C556 C 0.90878 0.65379 0.41912 0.0
C557 C 0.89022 0.67035 0.46583 0.0
H558 H 0.96656 0.69806 0.46963 0.0
H559 H 0.90454 0.64133 0.39602 0.0
C560 C 0.05292 0.68454 0.34704 0.0
N561 N 0.11186 0.71525 0.32333 0.0
C562 C 0.06047 0.70429 0.31981 0.0
C563 C 0.07533 0.68035 0.36215 0.0
C564 C 0.09041 0.71966 0.30825 0.0
C565 C 0.10499 0.69605 0.34976 0.0
C566 C 0.93915 0.61103 0.35776 0.0
C567 C 0.93969 0.58396 0.35416 0.0
C568 C 0.91917 0.61594 0.33831 0.0
C569 C 0.92044 0.56241 0.33091 0.0
C570 C 0.90031 0.59385 0.3153 0.0
N571 N 0.90134 0.56777 0.31209 0.0
C572 C 0.99282 0.59372 0.43466 0.0
C573 C 0.01906 0.60268 0.38315 0.0
C574 C 0.993 0.56648 0.43898 0.0
N575 N 0.00539 0.6109 0.40683 0.0
C576 C 0.02 0.5759 0.38657 0.0
C577 C 0.00613 0.5569 0.4143 0.0
H578 H 0.98158 0.60055 0.4528 0.0
H579 H 0.02817 0.61631 0.36084 0.0
C580 C 0.98397 0.69129 0.28751 0.0
N581 N 0.97928 0.66525 0.30227 0.0
C582 C 0.98841 0.69518 0.25305 0.0
C583 C 0.98122 0.64458 0.24928 0.0
C584 C 0.97765 0.64196 0.28399 0.0
C585 C 0.98769 0.67188 0.23339 0.0
H586 H 0.98653 0.70996 0.30279 0.0
H587 H 0.9751 0.62196 0.29647 0.0
O588 O 0.0054 0.67484 0.43203 0.0
O589 O 0.98779 0.70285 0.37048 0.0
O590 O 0.02387 0.66982 0.35923 0.0
O591 O 0.95791 0.63247 0.38035 0.0
H592 H 0.02181 0.72815 0.45975 0.0
H593 H 0.04509 0.65802 0.44913 0.0
H594 H 0.06716 0.75686 0.49574 0.0
H595 H 0.08998 0.68792 0.48538 0.0
H596 H 0.90585 0.7142 0.35184 0.0
H597 H 1.00008 0.74557 0.41557 0.0
H598 H 0.93708 0.6905 0.33893 0.0
H599 H 0.9678 0.7684 0.42708 0.0
H600 H 0.13466 0.77194 0.39349 0.0
H601 H 0.07909 0.8014 0.34228 0.0
H602 H 0.92547 0.69942 0.50095 0.0
H603 H 0.86205 0.64093 0.42572 0.0
H604 H 0.04354 0.70809 0.30804 0.0
H605 H 0.07003 0.66556 0.38361 0.0
H606 H 0.09662 0.7352 0.28737 0.0
H607 H 0.1226 0.69316 0.36134 0.0
H608 H 0.95469 0.57953 0.36919 0.0
H609 H 0.91855 0.63679 0.34054 0.0
H610 H 0.92069 0.5414 0.32783 0.0
H611 H 0.88492 0.59748 0.29992 0.0
H612 H 0.98175 0.55245 0.46057 0.0
H613 H 0.03083 0.56978 0.36717 0.0
H614 H 0.99404 0.71693 0.2424 0.0
H615 H 0.97988 0.62573 0.23529 0.0
Li616 Li 0.32488 0.02279 0.72504 0.0
Li617 Li 0.30222 0.97063 0.74069 0.0
Li618 Li 0.3585 0.00267 0.73371 0.0
Li619 Li 0.32374 0.98855 0.68482 0.0
C620 C 0.33158 0.02657 0.78985 0.0
N621 N 0.33089 0.06809 0.83382 0.0
C622 C 0.30467 0.02696 0.79555 0.0
C623 C 0.35806 0.04702 0.80676 0.0
C624 C 0.30482 0.04823 0.81779 0.0
C625 C 0.35726 0.0679 0.82884 0.0
C626 C 0.26207 0.965 0.69264 0.0
C627 C 0.23344 0.91479 0.66894 0.0
N628 N 0.20854 0.91809 0.66724 0.0
C629 C 0.23617 0.96785 0.69067 0.0
C630 C 0.2607 0.93821 0.68172 0.0
C631 C 0.20934 0.9439 0.67775 0.0
C632 C 0.30075 0.05558 0.6982 0.0
N633 N 0.32056 0.05843 0.72269 0.0
C634 C 0.33722 0.11144 0.72785 0.0
C635 C 0.33825 0.08559 0.73812 0.0
C636 C 0.31759 0.10912 0.70175 0.0
C637 C 0.29879 0.08054 0.68746 0.0
H638 H 0.28749 0.03419 0.68554 0.0
H639 H 0.35428 0.08766 0.7571 0.0
C640 C 0.27245 0.91294 0.77295 0.0
N641 N 0.27027 0.93776 0.76496 0.0
C642 C 0.24852 0.88827 0.78938 0.0
C643 C 0.22073 0.91532 0.78938 0.0
C644 C 0.24514 0.93941 0.77293 0.0
C645 C 0.22212 0.8892 0.79776 0.0
H646 H 0.29273 0.91227 0.76643 0.0
H647 H 0.24388 0.95931 0.76609 0.0
C648 C 0.37727 0.05903 0.69508 0.0
N649 N 0.41315 0.12156 0.69274 0.0
C650 C 0.37727 0.07502 0.66661 0.0
C651 C 0.39572 0.07491 0.72225 0.0
C652 C 0.39545 0.10661 0.66598 0.0
C653 C 0.41373 0.10648 0.72058 0.0
C654 C 0.34687 0.9499 0.69947 0.0
C655 C 0.37079 0.96858 0.67808 0.0
C656 C 0.34059 0.92027 0.70567 0.0
C657 C 0.38812 0.95735 0.6634 0.0
C658 C 0.35841 0.90986 0.69046 0.0
N659 N 0.38163 0.92847 0.66984 0.0
C660 C 0.39837 0.98936 0.77083 0.0
C661 C 0.42119 0.02442 0.72637 0.0
C662 C 0.42498 0.98802 0.77547 0.0
N663 N 0.39685 0.00703 0.74622 0.0
C664 C 0.44816 0.02394 0.73027 0.0
C665 C 0.45008 0.00488 0.75438 0.0
H666 H 0.37842 0.97513 0.78569 0.0
H667 H 0.41923 0.03746 0.7062 0.0
C668 C 0.31633 0.00655 0.62471 0.0
N669 N 0.32004 0.98402 0.63774 0.0
C670 C 0.3175 0.01112 0.59037 0.0
C671 C 0.32375 0.9674 0.58293 0.0
C672 C 0.32291 0.96395 0.61777 0.0
C673 C 0.32173 0.99174 0.56883 0.0
H674 H 0.31364 0.0218 0.64132 0.0
H675 H 0.32521 0.94579 0.62873 0.0
O676 O 0.33189 0.00594 0.7682 0.0
O677 O 0.28831 0.98823 0.70579 0.0
O678 O 0.35912 0.02809 0.6966 0.0
O679 O 0.33001 0.96058 0.71486 0.0
H680 H 0.28401 0.01126 0.78263 0.0
H681 H 0.37897 0.04672 0.8029 0.0
H682 H 0.28422 0.04897 0.82226 0.0
H683 H 0.3776 0.08395 0.84202 0.0
H684 H 0.23208 0.89396 0.66041 0.0
H685 H 0.23674 0.98831 0.69927 0.0
H686 H 0.28033 0.93538 0.68307 0.0
H687 H 0.18913 0.94581 0.67615 0.0
H688 H 0.35203 0.13307 0.73967 0.0
H689 H 0.28373 0.0777 0.66689 0.0
H690 H 0.25079 0.8688 0.7957 0.0
H691 H 0.20073 0.91692 0.79488 0.0
H692 H 0.36347 0.06331 0.64517 0.0
H693 H 0.3959 0.06301 0.74457 0.0
H694 H 0.3955 0.11925 0.64418 0.0
H695 H 0.42798 0.119 0.74151 0.0
H696 H 0.37592 0.99148 0.67272 0.0
H697 H 0.32218 0.90548 0.72213 0.0
H698 H 0.40672 0.9716 0.64687 0.0
H699 H 0.35382 0.88699 0.69508 0.0
H700 H 0.42533 0.97276 0.79413 0.0
H701 H 0.467 0.03764 0.71372 0.0
H702 H 0.31627 0.03045 0.58107 0.0
H703 H 0.32632 0.95144 0.56732 0.0
Li704 Li 0.30371 0.32044 0.05501 0.0
Li705 Li 0.33356 0.29893 0.07288 0.0
Li706 Li 0.35795 0.35586 0.06662 0.0
Li707 Li 0.34067 0.32011 0.01773 0.0
C708 C 0.30796 0.33466 0.11917 0.0
N709 N 0.27223 0.34775 0.1601 0.0
C710 C 0.28003 0.31131 0.13071 0.0
C711 C 0.3178 0.36465 0.12851 0.0
C712 C 0.26227 0.31841 0.15135 0.0
C713 C 0.29939 0.3708 0.14923 0.0
C714 C 0.28889 0.25462 0.04031 0.0
C715 C 0.28486 0.20567 0.0331 0.0
N716 N 0.25867 0.19268 0.05117 0.0
C717 C 0.26186 0.24078 0.05868 0.0
C718 C 0.30041 0.23693 0.02723 0.0
C719 C 0.24693 0.20943 0.06391 0.0
C720 C 0.24786 0.29701 0.02469 0.0
N721 N 0.26413 0.31654 0.04971 0.0
C722 C 0.22843 0.33417 0.05246 0.0
C723 C 0.25478 0.33481 0.06394 0.0
C724 C 0.21164 0.31457 0.02614 0.0
C725 C 0.22146 0.2955 0.01268 0.0
H726 H 0.25627 0.28371 0.01256 0.0
H727 H 0.26858 0.35114 0.08274 0.0
C728 C 0.35841 0.26285 0.09484 0.0
N729 N 0.33445 0.26745 0.09849 0.0
C730 C 0.35865 0.23862 0.11105 0.0
C731 C 0.3097 0.22449 0.13491 0.0
C732 C 0.31065 0.24927 0.11864 0.0
C733 C 0.33383 0.21866 0.13107 0.0
H734 H 0.37729 0.27785 0.07909 0.0
H735 H 0.29196 0.2535 0.12139 0.0
C736 C 0.31867 0.36713 0.01405 0.0
N737 N 0.28457 0.39089 0.98813 0.0
C738 C 0.30382 0.35678 0.98336 0.0
C739 C 0.31621 0.38963 0.03152 0.0
C740 C 0.28665 0.36903 0.97071 0.0
C741 C 0.2989 0.40137 0.01797 0.0
C742 C 0.39553 0.33154 0.02977 0.0
C743 C 0.42053 0.36037 0.02405 0.0
C744 C 0.39342 0.30645 0.01299 0.0
C745 C 0.44291 0.36364 0.00141 0.0
C746 C 0.41626 0.31066 0.99052 0.0
N747 N 0.44032 0.33893 0.98523 0.0
C748 C 0.40995 0.39753 0.10402 0.0
C749 C 0.39536 0.41878 0.06004 0.0
C750 C 0.43711 0.42503 0.10842 0.0
N751 N 0.3901 0.39482 0.07964 0.0
C752 C 0.42191 0.44666 0.06383 0.0
C753 C 0.44379 0.44982 0.08743 0.0
H754 H 0.40555 0.37787 0.11869 0.0
H755 H 0.37979 0.41585 0.04013 0.0
C756 C 0.3251 0.29492 0.95379 0.0
N757 N 0.34679 0.3188 0.97135 0.0
C758 C 0.32304 0.29711 0.91921 0.0
C759 C 0.3669 0.34763 0.92129 0.0
C760 C 0.36788 0.34463 0.9559 0.0
C761 C 0.34353 0.32411 0.9028 0.0
H762 H 0.30795 0.27516 0.96687 0.0
H763 H 0.38395 0.36375 0.97069 0.0
O764 O 0.32582 0.3282 0.09924 0.0
O765 O 0.30411 0.28536 0.03536 0.0
O766 O 0.33487 0.35479 0.02731 0.0
O767 O 0.37313 0.32789 0.05149 0.0
H768 H 0.27205 0.28801 0.12361 0.0
H769 H 0.3394 0.38296 0.11983 0.0
H770 H 0.24053 0.3006 0.16037 0.0
H771 H 0.30668 0.3939 0.15662 0.0
H772 H 0.29361 0.19173 0.0233 0.0
H773 H 0.25272 0.25414 0.0692 0.0
H774 H 0.32122 0.24726 0.01286 0.0
H775 H 0.22611 0.19844 0.07825 0.0
H776 H 0.22167 0.34932 0.06353 0.0
H777 H 0.20971 0.28056 0.99186 0.0
H778 H 0.37815 0.23566 0.10789 0.0
H779 H 0.28986 0.20969 0.14965 0.0
H780 H 0.30514 0.33916 0.96965 0.0
H781 H 0.32706 0.39751 0.05561 0.0
H782 H 0.27488 0.36108 0.94711 0.0
H783 H 0.29665 0.41863 0.03133 0.0
H784 H 0.42259 0.38008 0.03673 0.0
H785 H 0.37423 0.284 0.01707 0.0
H786 H 0.46232 0.38583 0.99666 0.0
H787 H 0.41483 0.29146 0.97724 0.0
H788 H 0.45341 0.42627 0.12669 0.0
H789 H 0.42577 0.46521 0.04744 0.0
H790 H 0.30477 0.27849 0.90569 0.0
H791 H 0.38281 0.36894 0.90952 0.0
Li792 Li 0.03831 0.32838 0.40129 0.0
Li793 Li 0.98677 0.29897 0.38314 0.0
Li794 Li 0.02435 0.33668 0.34669 0.0
Li795 Li 0.00602 0.35312 0.39635 0.0
C796 C 0.03602 0.28296 0.36972 0.0
N797 N 0.06448 0.25027 0.38463 0.0
C798 C 0.02137 0.25695 0.38964 0.0
C799 C 0.06501 0.29224 0.35716 0.0
C800 C 0.03616 0.24074 0.39692 0.0
C801 C 0.07906 0.27544 0.36507 0.0
C802 C 0.97703 0.30299 0.44846 0.0
C803 C 0.93299 0.29586 0.47895 0.0
N804 N 0.92901 0.26916 0.4912 0.0
C805 C 0.97254 0.27551 0.46137 0.0
C806 C 0.95717 0.31332 0.45736 0.0
C807 C 0.94812 0.25873 0.48295 0.0
C808 C 0.09978 0.34892 0.41829 0.0
N809 N 0.07059 0.32854 0.42659 0.0
C810 C 0.0876 0.3073 0.46907 0.0
C811 C 0.06416 0.30802 0.45156 0.0
C812 C 0.118 0.32785 0.46073 0.0
C813 C 0.12391 0.3489 0.43498 0.0
H814 H 0.10441 0.36518 0.39861 0.0
H815 H 0.04082 0.29197 0.45765 0.0
C816 C 0.9532 0.24733 0.34688 0.0
N817 N 0.95106 0.25975 0.37616 0.0
C818 C 0.92791 0.22231 0.33314 0.0
C819 C 0.8986 0.22168 0.38093 0.0
C820 C 0.92446 0.24731 0.39346 0.0
C821 C 0.89984 0.20921 0.34984 0.0
H822 H 0.97421 0.25816 0.33289 0.0
H823 H 0.92267 0.25806 0.41593 0.0
C824 C 0.06798 0.39098 0.35944 0.0
N825 N 0.10545 0.43615 0.31528 0.0
C826 C 0.0658 0.41718 0.35608 0.0
C827 C 0.08928 0.38781 0.34035 0.0
C828 C 0.08495 0.43975 0.33363 0.0
C829 C 0.10798 0.41087 0.31815 0.0
C830 C 0.95522 0.3154 0.34373 0.0
C831 C 0.95048 0.30415 0.31103 0.0
C832 C 0.93031 0.31001 0.36349 0.0
C833 C 0.92087 0.28754 0.29873 0.0
C834 C 0.90106 0.29332 0.35026 0.0
N835 N 0.89698 0.28249 0.31844 0.0
C836 C 0.03332 0.32184 0.28223 0.0
C837 C 0.0282 0.36565 0.28565 0.0
C838 C 0.02946 0.32073 0.24762 0.0
N839 N 0.03183 0.34361 0.30042 0.0
C840 C 0.02466 0.36564 0.25103 0.0
C841 C 0.02409 0.34225 0.23186 0.0
H842 H 0.03521 0.30405 0.29481 0.0
H843 H 0.02576 0.38184 0.30093 0.0
C844 C 0.0176 0.40599 0.43306 0.0
N845 N 0.9991 0.38506 0.41022 0.0
C846 C 0.01686 0.43296 0.43741 0.0
C847 C 0.97677 0.41524 0.3963 0.0
C848 C 0.97857 0.38897 0.39243 0.0
C849 C 0.99688 0.43827 0.41804 0.0
H850 H 0.03423 0.40264 0.4463 0.0
H851 H 0.9647 0.37251 0.3738 0.0
O852 O 0.02231 0.29965 0.36316 0.0
O853 O 1.00114 0.32008 0.42786 0.0
O854 O 0.04923 0.36847 0.38107 0.0
O855 O 0.984 0.33094 0.3566 0.0
H856 H 0.99896 0.24953 0.39963 0.0
H857 H 0.07666 0.31237 0.34177 0.0
H858 H 0.02518 0.22065 0.41245 0.0
H859 H 0.10159 0.28247 0.35573 0.0
H860 H 0.91741 0.30355 0.486 0.0
H861 H 0.98754 0.26706 0.45461 0.0
H862 H 0.9604 0.33461 0.44774 0.0
H863 H 0.9443 0.23736 0.49303 0.0
H864 H 0.08198 0.2905 0.48854 0.0
H865 H 0.14696 0.36547 0.42805 0.0
H866 H 0.93022 0.21441 0.30877 0.0
H867 H 0.87771 0.21234 0.39513 0.0
H868 H 0.04941 0.42005 0.37045 0.0
H869 H 0.09097 0.36749 0.34219 0.0
H870 H 0.08345 0.4601 0.33074 0.0
H871 H 0.12442 0.4086 0.30308 0.0
H872 H 0.96937 0.30778 0.29542 0.0
H873 H 0.9335 0.31819 0.38899 0.0
H874 H 0.91688 0.27853 0.27355 0.0
H875 H 0.88158 0.28879 0.36538 0.0
H876 H 0.02924 0.30243 0.23353 0.0
H877 H 0.02017 0.38235 0.23974 0.0
H878 H 0.033 0.45014 0.45422 0.0
H879 H 0.96058 0.41799 0.3813 0.0
Li880 Li 0.709 0.03552 0.74302 0.0
Li881 Li 0.68899 0.98429 0.72635 0.0
Li882 Li 0.68867 0.02053 0.68801 0.0
Li883 Li 0.65241 1.00207 0.73647 0.0
C884 C 0.75422 0.03633 0.71361 0.0
N885 N 0.81503 0.07017 0.73 0.0
C886 C 0.76714 0.02463 0.73564 0.0
C887 C 0.77227 0.06517 0.69974 0.0
C888 C 0.79793 0.04209 0.74362 0.0
C889 C 0.80295 0.08195 0.70842 0.0
C890 C 0.67306 0.97416 0.78987 0.0
C891 C 0.636 0.92903 0.81866 0.0
N892 N 0.65871 0.9249 0.83059 0.0
C893 C 0.69605 0.96956 0.80252 0.0
C894 C 0.64278 0.95382 0.79803 0.0
C895 C 0.68832 0.94447 0.82302 0.0
C896 C 0.74923 0.0974 0.75801 0.0
N897 N 0.73983 0.06862 0.76849 0.0
C898 C 0.77727 0.08727 0.81187 0.0
C899 C 0.75304 0.06318 0.79515 0.0
C900 C 0.78801 0.11722 0.80098 0.0
C901 C 0.77343 0.12211 0.77384 0.0
H902 H 0.73828 0.10119 0.73696 0.0
H903 H 0.74524 0.04009 0.80292 0.0
C904 C 0.71487 0.95258 0.69935 0.0
N905 N 0.69357 0.94895 0.72234 0.0
C906 C 0.71656 0.92771 0.68759 0.0
C907 C 0.67474 0.89536 0.72384 0.0
C908 C 0.67392 0.92104 0.73508 0.0
C909 C 0.69594 0.8985 0.69926 0.0
H910 H 0.72942 0.97459 0.68838 0.0
H911 H 0.65635 0.9183 0.75229 0.0
C912 C 0.67503 0.06253 0.69794 0.0
N913 N 0.66538 0.09697 0.65131 0.0
C914 C 0.64602 0.05867 0.69364 0.0
C915 C 0.69915 0.08407 0.67862 0.0
C916 C 0.64161 0.07627 0.66993 0.0
C917 C 0.6938 0.10119 0.65514 0.0
C918 C 0.64302 0.95159 0.68428 0.0
C919 C 0.65562 0.94757 0.65497 0.0
C920 C 0.61903 0.92644 0.69994 0.0
C921 C 0.64406 0.91838 0.64187 0.0
C922 C 0.60806 0.89763 0.68599 0.0
N923 N 0.62073 0.89423 0.65752 0.0
C924 C 0.71495 0.03391 0.62363 0.0
C925 C 0.66284 0.01948 0.62637 0.0
C926 C 0.71358 0.03188 0.58879 0.0
N927 N 0.68966 0.02729 0.64152 0.0
C928 C 0.66042 0.01709 0.59164 0.0
C929 C 0.68582 0.02254 0.57248 0.0
H930 H 0.73565 0.03896 0.63644 0.0
H931 H 0.64293 0.01349 0.64142 0.0
C932 C 0.60904 0.00957 0.77433 0.0
N933 N 0.61292 0.99431 0.74862 0.0
C934 C 0.58126 0.0087 0.77848 0.0
C935 C 0.56174 0.9752 0.73075 0.0
C936 C 0.58985 0.97695 0.72734 0.0
C937 C 0.55742 0.99206 0.75584 0.0
H938 H 0.62803 0.0238 0.79039 0.0
H939 H 0.59374 0.96582 0.70649 0.0
O940 O 0.7239 0.01993 0.7063 0.0
O941 O 0.68013 0.99865 0.76991 0.0
O942 O 0.67975 0.04519 0.72072 0.0
O943 O 0.65458 0.97989 0.69802 0.0
H944 H 0.75348 0.00242 0.74673 0.0
H945 H 0.76261 0.07468 0.68284 0.0
H946 H 0.80818 0.03338 0.76076 0.0
H947 H 0.81712 0.1044 0.69809 0.0
H948 H 0.61267 0.91305 0.82512 0.0
H949 H 0.71958 0.98505 0.79642 0.0
H950 H 0.62471 0.95705 0.78848 0.0
H951 H 0.70587 0.94054 0.83287 0.0
H952 H 0.78798 0.08244 0.83252 0.0
H953 H 0.78062 0.14483 0.76496 0.0
H954 H 0.73285 0.93124 0.66815 0.0
H955 H 0.65842 0.87323 0.73359 0.0
H956 H 0.62707 0.04226 0.70836 0.0
H957 H 0.72166 0.08711 0.68122 0.0
H958 H 0.61926 0.07345 0.66632 0.0
H959 H 0.71222 0.11774 0.63986 0.0
H960 H 0.67445 0.96668 0.64274 0.0
H961 H 0.60936 0.92905 0.72297 0.0
H962 H 0.65375 0.91491 0.61935 0.0
H963 H 0.58964 0.87795 0.69796 0.0
H964 H 0.73357 0.03588 0.57495 0.0
H965 H 0.63869 0.01013 0.57998 0.0
H966 H 0.57913 0.02233 0.79794 0.0
H967 H 0.54393 0.96168 0.71303 0.0
Li968 Li 0.67486 0.70871 0.07301 0.0
Li969 Li 0.70376 0.68711 0.0527 0.0
Li970 Li 0.66648 0.68887 0.01719 0.0
Li971 Li 0.6495 0.65195 0.06512 0.0
C972 C 0.71886 0.75343 0.04128 0.0
N973 N 0.74879 0.81476 0.05567 0.0
C974 C 0.74526 0.7663 0.06066 0.0
C975 C 0.70784 0.77178 0.02895 0.0
C976 C 0.76005 0.79735 0.06769 0.0
C977 C 0.72324 0.80272 0.03661 0.0
C978 C 0.70027 0.67081 0.11591 0.0
C979 C 0.70828 0.63303 0.14297 0.0
N980 N 0.73599 0.65527 0.15354 0.0
C981 C 0.72876 0.69331 0.12713 0.0
C982 C 0.68986 0.64043 0.12392 0.0
C983 C 0.74651 0.68498 0.14608 0.0
C984 C 0.65228 0.74631 0.09619 0.0
N985 N 0.67484 0.73968 0.10054 0.0
C986 C 0.6985 0.779 0.14157 0.0
C987 C 0.6975 0.75519 0.12303 0.0
C988 C 0.67567 0.78658 0.13731 0.0
C989 C 0.65221 0.76971 0.11442 0.0
H990 H 0.63443 0.73361 0.07831 0.0
H991 H 0.71508 0.74939 0.12622 0.0
C992 C 0.75962 0.71115 0.02187 0.0
N993 N 0.74285 0.69032 0.04567 0.0
C994 C 0.78552 0.71239 0.00857 0.0
C995 C 0.77704 0.67078 0.04461 0.0
C996 C 0.75123 0.67046 0.05746 0.0
C997 C 0.7943 0.69171 0.01946 0.0
H998 H 0.75198 0.72582 0.01166 0.0
H999 H 0.73705 0.65324 0.07533 0.0
C1000 C 0.61195 0.6776 0.03126 0.0
N1001 N 0.56637 0.67123 0.98859 0.0
C1002 C 0.586 0.64919 0.02679 0.0
C1003 C 0.61459 0.7028 0.0142 0.0
C1004 C 0.56323 0.64643 0.00508 0.0
C1005 C 0.59135 0.6991 0.99267 0.0
C1006 C 0.68695 0.64072 0.01039 0.0
C1007 C 0.70209 0.65184 0.97995 0.0
C1008 C 0.68797 0.61676 0.02627 0.0
C1009 C 0.71812 0.63886 0.96597 0.0
C1010 C 0.70419 0.60434 0.01142 0.0
N1011 N 0.71883 0.61558 0.98186 0.0
C1012 C 0.68157 0.71418 0.95316 0.0
C1013 C 0.63782 0.66522 0.95595 0.0
C1014 C 0.68307 0.71171 0.91852 0.0
N1015 N 0.65968 0.69075 0.97107 0.0
C1016 C 0.63824 0.66193 0.92134 0.0
C1017 C 0.66188 0.68482 0.90231 0.0
H1018 H 0.69938 0.73365 0.966 0.0
H1019 H 0.62144 0.64647 0.97098 0.0
C1020 C 0.59919 0.60914 0.10427 0.0
N1021 N 0.61728 0.61282 0.07752 0.0
C1022 C 0.57201 0.58169 0.10891 0.0
C1023 C 0.58356 0.56208 0.0594 0.0
C1024 C 0.61019 0.58987 0.05554 0.0
C1025 C 0.56346 0.55799 0.08568 0.0
H1026 H 0.60502 0.62805 0.12091 0.0
H1027 H 0.62437 0.59362 0.0339 0.0
O1028 O 0.70368 0.72295 0.03475 0.0
O1029 O 0.68245 0.67848 0.09754 0.0
O1030 O 0.63469 0.68072 0.05209 0.0
O1031 O 0.67181 0.65368 0.02494 0.0
H1032 H 0.75404 0.7524 0.07052 0.0
H1033 H 0.68752 0.76221 0.0138 0.0
H1034 H 0.78039 0.80759 0.08284 0.0
H1035 H 0.71486 0.81717 0.02741 0.0
H1036 H 0.70056 0.60961 0.1493 0.0
H1037 H 0.73718 0.71691 0.12106 0.0
H1038 H 0.66784 0.62275 0.11547 0.0
H1039 H 0.76868 0.70213 0.15481 0.0
H1040 H 0.71683 0.79119 0.15922 0.0
H1041 H 0.63429 0.77493 0.11013 0.0
H1042 H 0.7977 0.72848 0.98876 0.0
H1043 H 0.78304 0.65443 0.05374 0.0
H1044 H 0.58344 0.62943 0.0398 0.0
H1045 H 0.63452 0.72492 0.01727 0.0
H1046 H 0.54309 0.62456 0.00131 0.0
H1047 H 0.5932 0.71839 0.97917 0.0
H1048 H 0.70185 0.67057 0.96747 0.0
H1049 H 0.67683 0.60821 0.05012 0.0
H1050 H 0.73011 0.64738 0.94255 0.0
H1051 H 0.70532 0.58592 0.02353 0.0
H1052 H 0.70198 0.72975 0.90509 0.0
H1053 H 0.62115 0.64102 0.90989 0.0
H1054 H 0.55712 0.57971 0.12932 0.0
H1055 H 0.57824 0.54436 0.04118 0.0
C1056 C 0.34475 0.15082 0.14694 0.0
C1057 C 0.33045 0.14037 0.17806 0.0
H1058 H 0.35621 0.1829 0.10723 0.0
C1059 C 0.31754 0.1559 0.19384 0.0
H1060 H 0.35465 0.13909 0.13408 0.0
C1061 C 0.31895 0.18143 0.17886 0.0
C1062 C 0.33294 0.19182 0.14745 0.0
H1063 H 0.30674 0.14859 0.21809 0.0
H1064 H 0.30936 0.19319 0.1922 0.0
C1065 C 0.34578 0.17608 0.13168 0.0
C1066 C 0.19323 0.33158 0.47862 0.0
C1067 C 0.19254 0.32883 0.51366 0.0
H1068 H 0.17027 0.33332 0.43447 0.0
C1069 C 0.16683 0.32506 0.53107 0.0
H1070 H 0.21277 0.33469 0.46449 0.0
C1071 C 0.14253 0.32436 0.51389 0.0
C1072 C 0.14342 0.3276 0.4789 0.0
H1073 H 0.16544 0.32253 0.55803 0.0
H1074 H 0.12326 0.32184 0.52811 0.0
C1075 C 0.16901 0.33109 0.46146 0.0
C1076 C 0.81699 0.14472 0.85261 0.0
C1077 C 0.81436 0.14325 0.81755 0.0
H1078 H 0.8428 0.17001 0.89519 0.0
C1079 C 0.83697 0.16702 0.79839 0.0
H1080 H 0.79988 0.12688 0.86809 0.0
C1081 C 0.86151 0.19178 0.8139 0.0
C1082 C 0.86391 0.19346 0.84897 0.0
H1083 H 0.83581 0.1664 0.77131 0.0
H1084 H 0.87834 0.20986 0.79843 0.0
C1085 C 0.84142 0.16958 0.86813 0.0
C1086 C 0.70353 0.83983 0.16003 0.0
C1087 C 0.67634 0.81205 0.15635 0.0
H1088 H 0.72506 0.88543 0.17847 0.0
C1089 C 0.64961 0.80895 0.17044 0.0
H1090 H 0.72445 0.84306 0.14912 0.0
C1091 C 0.64998 0.83311 0.18752 0.0
C1092 C 0.67704 0.86114 0.19075 0.0
H1093 H 0.62839 0.78769 0.16851 0.0
H1094 H 0.629 0.8297 0.19841 0.0
C1095 C 0.70387 0.86411 0.17693 0.0
C1096 C 0.84223 0.67323 0.46587 0.0
C1097 C 0.86489 0.67108 0.48378 0.0
H1098 H 0.80086 0.67457 0.46796 0.0
C1099 C 0.86296 0.66932 0.5189 0.0
H1100 H 0.84321 0.67502 0.43884 0.0
C1101 C 0.8388 0.66937 0.53563 0.0
C1102 C 0.816 0.67125 0.51769 0.0
H1103 H 0.87987 0.66742 0.53348 0.0
H1104 H 0.83811 0.66813 0.5627 0.0
C1105 C 0.81812 0.67333 0.4826 0.0
C1106 C 0.18702 0.83301 0.8057 0.0
C1107 C 0.1961 0.86308 0.81485 0.0
H1108 H 0.15546 0.78573 0.81316 0.0
C1109 C 0.17986 0.86801 0.8402 0.0
H1110 H 0.19872 0.82837 0.78595 0.0
C1111 C 0.15506 0.84357 0.85581 0.0
C1112 C 0.14579 0.8135 0.84648 0.0
H1113 H 0.18652 0.89082 0.84829 0.0
H1114 H 0.14337 0.84826 0.87553 0.0
C1115 C 0.16218 0.80854 0.82131 0.0
C1116 C 0.50044 0.02295 0.21608 0.0
C1117 C 0.47208 0.99752 0.22401 0.0
H1118 H 0.54851 0.04163 0.21248 0.0
C1119 C 0.47091 0.96976 0.23047 0.0
H1120 H 0.50233 0.04458 0.21009 0.0
C1121 C 0.49736 0.96784 0.23064 0.0
C1122 C 0.52592 0.99373 0.22508 0.0
H1123 H 0.44975 0.94962 0.23694 0.0
H1124 H 0.49541 0.9461 0.23618 0.0
C1125 C 0.52702 0.02115 0.21687 0.0
C1126 C 0.518 0.51719 0.55004 0.0
C1127 C 0.53084 0.5325 0.58026 0.0
H1128 H 0.48248 0.47718 0.52658 0.0
C1129 C 0.51672 0.51835 0.61051 0.0
H1130 H 0.52816 0.52745 0.52626 0.0
C1131 C 0.49046 0.48994 0.61066 0.0
C1132 C 0.47764 0.47445 0.5806 0.0
H1133 H 0.52616 0.52901 0.63435 0.0
H1134 H 0.48007 0.48026 0.63456 0.0
C1135 C 0.49165 0.48849 0.55021 0.0
C1136 C 0.00742 0.51967 0.87655 0.0
C1137 C 0.00498 0.5324 0.90686 0.0
H1138 H 0.01224 0.48441 0.8529 0.0
C1139 C 0.00609 0.51885 0.93708 0.0
H1140 H 0.00657 0.5295 0.85283 0.0
C1141 C 0.00897 0.49302 0.93712 0.0
C1142 C 0.01123 0.48007 0.90694 0.0
H1143 H 0.00489 0.52831 0.96093 0.0
H1144 H 0.00892 0.48292 0.96099 0.0
C1145 C 0.01041 0.4937 0.87659 0.0
C1146 C 0.99799 0.50919 0.38669 0.0
C1147 C 0.00367 0.52648 0.416 0.0
H1148 H 0.99213 0.46862 0.36424 0.0
C1149 C 0.00662 0.51428 0.44646 0.0
H1150 H 0.995 0.51749 0.36286 0.0
C1151 C 0.00425 0.4856 0.44739 0.0
C1152 C 0.99874 0.46846 0.41792 0.0
H1153 H 0.01113 0.52704 0.46949 0.0
H1154 H 0.00655 0.47679 0.47121 0.0
C1155 C 0.99576 0.48076 0.3876 0.0
C1156 C 0.51558 0.99548 0.78633 0.0
C1157 C 0.52936 0.99441 0.75618 0.0
H1158 H 0.47978 0.99971 0.80955 0.0
C1159 C 0.51665 0.99658 0.72579 0.0
H1160 H 0.5247 0.99372 0.81017 0.0
C1161 C 0.49094 0.9997 0.72545 0.0
C1162 C 0.47727 1.00108 0.75548 0.0
H1163 H 0.52686 0.99642 0.70207 0.0
H1164 H 0.48169 1.00089 0.70146 0.0
C1165 C 0.48972 0.99867 0.78598 0.0
C1166 C 0.49015 0.49021 0.11781 0.0
C1167 C 0.47429 0.47778 0.08777 0.0
H1168 H 0.53083 0.52515 0.14086 0.0
C1169 C 0.48815 0.49189 0.05741 0.0
H1170 H 0.48011 0.48 0.14165 0.0
C1171 C 0.51684 0.51777 0.05699 0.0
C1172 C 0.53285 0.53022 0.08688 0.0
H1173 H 0.477 0.48273 0.0337 0.0
H1174 H 0.52634 0.52819 0.03305 0.0
C1175 C 0.5191 0.51622 0.11737 0.0
C1176 C 0.16088 0.8128 0.33637 0.0
C1177 C 0.13804 0.81664 0.35152 0.0
H1178 H 0.20317 0.83386 0.30952 0.0
C1179 C 0.14057 0.84542 0.35074 0.0
H1180 H 0.15927 0.79075 0.33614 0.0
C1181 C 0.16539 0.86984 0.33533 0.0
C1182 C 0.18828 0.86612 0.32019 0.0
H1183 H 0.12337 0.84909 0.3622 0.0
H1184 H 0.16664 0.89174 0.3352 0.0
C1185 C 0.18571 0.83731 0.32069 0.0
C1186 C 0.34448 0.1878 0.66587 0.0
C1187 C 0.31688 0.18578 0.65641 0.0
H1188 H 0.36638 0.16529 0.68791 0.0
C1189 C 0.28962 0.15878 0.66314 0.0
H1190 H 0.36586 0.20846 0.66153 0.0
C1191 C 0.2899 0.13436 0.67871 0.0
C1192 C 0.31745 0.1362 0.68791 0.0
H1193 H 0.26797 0.15638 0.65606 0.0
H1194 H 0.26844 0.11391 0.68345 0.0
C1195 C 0.34476 0.16328 0.68152 0.0
C1196 C 0.1591 0.2874 0.00193 0.0
C1197 C 0.1849 0.31477 0.01137 0.0
H1198 H 0.1151 0.26593 0.97934 0.0
C1199 C 0.18552 0.34226 0.00494 0.0
H1200 H 0.15782 0.26582 0.00668 0.0
C1201 C 0.1609 0.34231 0.98932 0.0
C1202 C 0.13511 0.31488 0.9799 0.0
H1203 H 0.20523 0.36376 0.01148 0.0
H1204 H 0.16185 0.36381 0.98512 0.0
C1205 C 0.13455 0.28745 0.9864 0.0
C1206 C 0.84328 0.18091 0.33907 0.0
C1207 C 0.87202 0.1839 0.3339 0.0
H1208 H 0.79574 0.15579 0.32919 0.0
C1209 C 0.87406 0.16311 0.31227 0.0
H1210 H 0.84059 0.19666 0.35491 0.0
C1211 C 0.84835 0.14041 0.29602 0.0
C1212 C 0.81952 0.13713 0.30154 0.0
H1213 H 0.89554 0.16413 0.30788 0.0
H1214 H 0.85127 0.12548 0.27907 0.0
C1215 C 0.81743 0.15772 0.32347 0.0
C1216 C 0.72336 0.84826 0.66072 0.0
C1217 C 0.69596 0.82193 0.65253 0.0
H1218 H 0.74484 0.89254 0.68258 0.0
C1219 C 0.66841 0.82076 0.66034 0.0
H1220 H 0.74498 0.85003 0.65489 0.0
C1221 C 0.66833 0.84534 0.67606 0.0
C1222 C 0.69579 0.87163 0.68429 0.0
H1223 H 0.6469 0.80065 0.65483 0.0
H1224 H 0.64676 0.84392 0.68129 0.0
C1225 C 0.72328 0.87273 0.67644 0.0
C1226 C 0.81923 0.66415 0.99447 0.0
C1227 C 0.82066 0.69157 0.00351 0.0
H1228 H 0.84235 0.64284 0.97243 0.0
C1229 C 0.84713 0.71908 0.996 0.0
H1230 H 0.79898 0.64259 -0.00055 0.0
C1231 C 0.87167 0.71923 0.98015 0.0
C1232 C 0.87043 0.69187 0.97139 0.0
H1233 H 0.84904 0.74059 0.00274 0.0
H1234 H 0.89176 0.74084 0.97491 0.0
C1235 C 0.84384 0.6643 0.97848 0.0
C1236 C 0.34967 1.00025 0.47898 0.0
C1237 C 0.33424 0.01344 0.46339 0.0
H1238 H 0.35822 0.98344 0.52429 0.0
C1239 C 0.31419 0.01868 0.48267 0.0
H1240 H 0.36485 0.99528 0.46488 0.0
C1241 C 0.30939 0.01065 0.5164 0.0
C1242 C 0.32515 0.99793 0.53218 0.0
H1243 H 0.30213 0.02911 0.47181 0.0
H1244 H 0.29323 0.0145 0.53005 0.0
C1245 C 0.34534 0.99279 0.51299 0.0
C1246 C 0.3629 0.34106 0.84458 0.0
C1247 C 0.33867 0.32891 0.86736 0.0
H1248 H 0.37715 0.35447 0.79411 0.0
C1249 C 0.30977 0.32238 0.85649 0.0
H1250 H 0.38538 0.34622 0.85238 0.0
C1251 C 0.3051 0.32772 0.82335 0.0
C1252 C 0.3292 0.33944 0.80026 0.0
H1253 H 0.29083 0.3136 0.87379 0.0
H1254 H 0.28262 0.32279 0.81589 0.0
C1255 C 0.35818 0.34606 0.81131 0.0
C1256 C 0.9917 0.31028 0.18479 0.0
C1257 C 0.01486 0.33851 0.19634 0.0
H1258 H 0.9641 0.28462 0.14351 0.0
C1259 C 0.0282 0.36313 0.17412 0.0
H1260 H 0.98059 0.2911 0.20166 0.0
C1261 C 0.01901 0.35939 0.14068 0.0
C1262 C 0.99596 0.33103 0.12893 0.0
H1263 H 0.04611 0.38512 0.18249 0.0
H1264 H 0.03054 0.37856 0.1239 0.0
C1265 C 0.98224 0.30661 0.15151 0.0
C1266 C 0.70282 0.03093 0.47955 0.0
C1267 C 0.67742 0.00492 0.46661 0.0
H1268 H 0.72522 0.05708 0.5231 0.0
C1269 C 0.65501 0.9846 0.48873 0.0
H1270 H 0.72064 0.04682 0.4631 0.0
C1271 C 0.65769 0.99045 0.52308 0.0
C1272 C 0.6829 0.01666 0.53598 0.0
H1273 H 0.63512 0.96449 0.47944 0.0
H1274 H 0.64012 0.97429 0.53958 0.0
C1275 C 0.70556 0.03671 0.51389 0.0
C1276 C 0.6604 0.65072 0.85593 0.0
C1277 C 0.66622 0.67953 0.86662 0.0
H1278 H 0.66152 0.62367 0.81539 0.0
C1279 C 0.67783 0.7035 0.84339 0.0
H1280 H 0.65214 0.63186 0.87325 0.0
C1281 C 0.68385 0.69888 0.81047 0.0
C1282 C 0.67811 0.67013 0.79997 0.0
H1283 H 0.6822 0.72586 0.85056 0.0
H1284 H 0.69255 0.71771 0.79305 0.0
C1285 C 0.66606 0.64603 0.82289 0.0
C1286 C 0.98828 0.69566 0.17791 0.0
C1287 C 0.9953 0.67678 0.19704 0.0
H1288 H 0.99087 0.71619 0.13064 0.0
C1289 C 0.01057 0.66345 0.18131 0.0
H1290 H 0.97629 0.70615 0.18881 0.0
C1291 C 0.0179 0.66826 0.1473 0.0
C1292 C 0.01071 0.68703 0.12819 0.0
H1293 H 0.01711 0.64937 0.19523 0.0
H1294 H 0.02865 0.65671 0.13595 0.0
C1295 C 0.99626 0.70106 0.14417 0.0
loop_
_geom_bond_atom_site_label_1
_geom_bond_atom_site_label_2
_geom_bond_distance
_geom_bond_site_symmetry_2
_ccdc_geom_bond_type
Li0 N17 1.990 . S
Li0 O60 1.956 . S
Li0 O61 1.970 1_565 S
Li0 O62 1.961 . S
Li1 N25 1.990 . S
Li1 O60 1.970 1_545 S
Li1 O61 1.956 . S
Li1 O63 1.961 . S
Li2 N47 1.990 . S
Li2 O60 1.961 . S
Li2 O62 1.956 . S
Li2 O63 1.970 1_565 S
Li3 N53 1.990 . S
Li3 O61 1.961 . S
Li3 O62 1.970 1_545 S
Li3 O63 1.956 . S
C4 C6 1.348 . S
C4 C7 1.356 . S
C4 O60 1.325 . S
N5 C8 1.314 . S
N5 C9 1.279 . S
C6 C4 1.348 . S
C6 C8 1.353 . S
C6 H64 0.929 . S
C7 C4 1.356 . S
C7 C9 1.358 . S
C7 H65 0.930 . S
C8 N5 1.314 . S
C8 C6 1.353 . S
C8 H66 0.930 . S
C9 N5 1.279 . S
C9 C7 1.358 . S
C9 H67 0.930 . S
C10 C13 1.348 . S
C10 C14 1.356 . S
C10 O61 1.325 . S
C11 N12 1.279 . S
C11 C14 1.358 . S
C11 H68 0.930 . S
N12 C11 1.279 . S
N12 C15 1.314 . S
C13 C10 1.348 . S
C13 C15 1.353 . S
C13 H69 0.929 . S
C14 C10 1.356 . S
C14 C11 1.358 . S
C14 H70 0.930 . S
C15 N12 1.314 . S
C15 C13 1.353 . S
C15 H71 0.930 . S
C16 N17 1.314 1_545 S
C16 C21 1.353 . S
C16 H22 0.930 . S
N17 Li0 1.990 . S
N17 C16 1.314 1_565 S
N17 C19 1.279 . S
C18 C19 1.358 . S
C18 C20 1.356 . S
C18 H72 0.930 . S
C19 N17 1.279 . S
C19 C18 1.358 . S
C19 H23 0.930 . S
C20 C18 1.356 . S
C20 C21 1.348 1_565 S
C21 C16 1.353 . S
C21 C20 1.348 1_545 S
C21 H73 0.929 . S
H22 C16 0.930 . S
H23 C19 0.930 . S
C24 N25 1.314 . S
C24 C26 1.353 . S
C24 H30 0.930 1_545 S
N25 Li1 1.990 . S
N25 C24 1.314 . S
N25 C28 1.279 . S
C26 C24 1.353 . S
C26 C29 1.348 . S
C26 H74 0.929 . S
C27 C28 1.358 . S
C27 C29 1.356 . S
C27 H75 0.930 . S
C28 N25 1.279 . S
C28 C27 1.358 . S
C28 H31 0.930 . S
C29 C26 1.348 . S
C29 C27 1.356 . S
H30 C24 0.930 1_565 S
H31 C28 0.930 . S
C32 C34 1.348 . S
C32 C35 1.356 . S
C32 O62 1.325 . S
N33 C36 1.314 . S
N33 C37 1.279 . S
C34 C32 1.348 . S
C34 C36 1.353 . S
C34 H76 0.929 1_565 S
C35 C32 1.356 . S
C35 C37 1.358 . S
C35 H77 0.930 . S
C36 N33 1.314 . S
C36 C34 1.353 . S
C36 H78 0.930 . S
C37 N33 1.279 . S
C37 C35 1.358 . S
C37 H79 0.930 . S
C38 C39 1.348 1_545 S
C38 C40 1.356 . S
C38 O63 1.325 . S
C39 C38 1.348 1_565 S
C39 C41 1.353 . S
C39 H80 0.929 . S
C40 C38 1.356 . S
C40 C42 1.358 . S
C40 H81 0.930 . S
C41 C39 1.353 . S
C41 N43 1.314 1_565 S
C41 H82 0.930 . S
C42 C40 1.358 . S
C42 N43 1.279 . S
C42 H83 0.930 . S
N43 C41 1.314 1_545 S
N43 C42 1.279 . S
C44 C46 1.353 . S
C44 N47 1.314 . S
C44 H50 0.930 . S
C45 N47 1.279 . S
C45 C48 1.358 . S
C45 H51 0.930 . S
C46 C44 1.353 . S
C46 C49 1.348 . S
C46 H84 0.929 . S
N47 Li2 1.990 . S
N47 C44 1.314 . S
N47 C45 1.279 . S
C48 C45 1.358 . S
C48 C49 1.356 . S
C48 H85 0.930 . S
C49 C46 1.348 . S
C49 C48 1.356 . S
H50 C44 0.930 . S
H51 C45 0.930 . S
C52 N53 1.314 . S
C52 C54 1.353 . S
C52 H58 0.930 . S
N53 Li3 1.990 . S
N53 C52 1.314 . S
N53 C56 1.279 . S
C54 C52 1.353 . S
C54 C57 1.348 . S
C54 H86 0.929 . S
C55 C56 1.358 . S
C55 C57 1.356 . S
C55 H87 0.930 . S
C56 N53 1.279 . S
C56 C55 1.358 . S
C56 H59 0.930 . S
C57 C54 1.348 . S
C57 C55 1.356 . S
H58 C52 0.930 . S
H59 C56 0.930 . S
O60 Li0 1.956 . S
O60 Li1 1.970 1_565 S
O60 Li2 1.961 . S
O60 C4 1.325 . S
O61 Li0 1.970 1_545 S
O61 Li1 1.956 . S
O61 Li3 1.961 . S
O61 C10 1.325 . S
O62 Li0 1.961 . S
O62 Li2 1.956 . S
O62 Li3 1.970 1_565 S
O62 C32 1.325 . S
O63 Li1 1.961 . S
O63 Li2 1.970 1_545 S
O63 Li3 1.956 . S
O63 C38 1.325 . S
H64 C6 0.929 . S
H65 C7 0.930 . S
H66 C8 0.930 . S
H67 C9 0.930 . S
H68 C11 0.930 . S
H69 C13 0.929 . S
H70 C14 0.930 . S
H71 C15 0.930 . S
H72 C18 0.930 . S
H73 C21 0.929 . S
H74 C26 0.929 . S
H75 C27 0.930 . S
H76 C34 0.929 1_545 S
H77 C35 0.930 . S
H78 C36 0.930 . S
H79 C37 0.930 . S
H80 C39 0.929 . S
H81 C40 0.930 . S
H82 C41 0.930 . S
H83 C42 0.930 . S
H84 C46 0.929 . S
H85 C48 0.930 . S
H86 C54 0.929 . S
H87 C55 0.930 . S
Li88 N105 1.990 . S
Li88 O148 1.956 . S
Li88 O149 1.970 . S
Li88 O150 1.961 . S
Li89 N113 1.990 . S
Li89 O148 1.970 . S
Li89 O149 1.956 . S
Li89 O151 1.961 . S
Li90 N135 1.990 . S
Li90 O148 1.961 . S
Li90 O150 1.956 . S
Li90 O151 1.970 . S
Li91 N141 1.990 . S
Li91 O149 1.961 . S
Li91 O150 1.970 . S
Li91 O151 1.956 . S
C92 C94 1.348 . S
C92 C95 1.356 . S
C92 O148 1.325 . S
N93 C96 1.314 . S
N93 C97 1.279 . S
C94 C92 1.348 . S
C94 C96 1.353 . S
C94 H152 0.929 . S
C95 C92 1.356 . S
C95 C97 1.358 . S
C95 H153 0.930 . S
C96 N93 1.314 . S
C96 C94 1.353 . S
C96 H154 0.930 . S
C97 N93 1.279 . S
C97 C95 1.358 . S
C97 H155 0.930 . S
C98 C101 1.348 . S
C98 C102 1.356 . S
C98 O149 1.325 . S
C99 N100 1.279 . S
C99 C102 1.358 . S
C99 H156 0.930 . S
N100 C99 1.279 . S
N100 C103 1.314 . S
C101 C98 1.348 . S
C101 C103 1.353 . S
C101 H157 0.929 . S
C102 C98 1.356 . S
C102 C99 1.358 . S
C102 H158 0.930 . S
C103 N100 1.314 . S
C103 C101 1.353 . S
C103 H159 0.930 . S
C104 N105 1.314 . S
C104 C109 1.353 . S
C104 H110 0.930 . S
N105 Li88 1.990 . S
N105 C104 1.314 . S
N105 C107 1.279 . S
C106 C107 1.358 . S
C106 C108 1.356 . S
C106 H160 0.930 . S
C107 N105 1.279 . S
C107 C106 1.358 . S
C107 H111 0.930 . S
C108 C106 1.356 . S
C108 C109 1.348 . S
C109 C104 1.353 . S
C109 C108 1.348 . S
C109 H161 0.929 . S
H110 C104 0.930 . S
H111 C107 0.930 . S
C112 N113 1.314 . S
C112 C114 1.353 . S
C112 H118 0.930 . S
N113 Li89 1.990 . S
N113 C112 1.314 . S
N113 C116 1.279 . S
C114 C112 1.353 . S
C114 C117 1.348 . S
C114 H162 0.929 . S
C115 C116 1.358 . S
C115 C117 1.356 . S
C115 H163 0.930 . S
C116 N113 1.279 . S
C116 C115 1.358 . S
C116 H119 0.930 . S
C117 C114 1.348 . S
C117 C115 1.356 . S
H118 C112 0.930 . S
H119 C116 0.930 . S
C120 C122 1.348 . S
C120 C123 1.356 . S
C120 O150 1.325 . S
N121 C124 1.314 . S
N121 C125 1.279 . S
C122 C120 1.348 . S
C122 C124 1.353 . S
C122 H164 0.929 . S
C123 C120 1.356 . S
C123 C125 1.358 . S
C123 H165 0.930 . S
C124 N121 1.314 . S
C124 C122 1.353 . S
C124 H166 0.930 . S
C125 N121 1.279 . S
C125 C123 1.358 . S
C125 H167 0.930 . S
C126 C127 1.348 . S
C126 C128 1.356 . S
C126 O151 1.325 . S
C127 C126 1.348 . S
C127 C129 1.353 . S
C127 H168 0.929 . S
C128 C126 1.356 . S
C128 C130 1.358 . S
C128 H169 0.930 . S
C129 C127 1.353 . S
C129 N131 1.314 . S
C129 H170 0.930 . S
C130 C128 1.358 . S
C130 N131 1.279 . S
C130 H171 0.930 . S
N131 C129 1.314 . S
N131 C130 1.279 . S
C132 C134 1.353 . S
C132 N135 1.314 . S
C132 H138 0.930 . S
C133 N135 1.279 . S
C133 C136 1.358 . S
C133 H139 0.930 . S
C134 C132 1.353 . S
C134 C137 1.348 . S
C134 H172 0.929 . S
N135 Li90 1.990 . S
N135 C132 1.314 . S
N135 C133 1.279 . S
C136 C133 1.358 . S
C136 C137 1.356 . S
C136 H173 0.930 . S
C137 C134 1.348 . S
C137 C136 1.356 . S
H138 C132 0.930 . S
H139 C133 0.930 . S
C140 N141 1.314 . S
C140 C142 1.353 . S
C140 H146 0.930 . S
N141 Li91 1.990 . S
N141 C140 1.314 . S
N141 C144 1.279 . S
C142 C140 1.353 . S
C142 C145 1.348 . S
C142 H174 0.929 . S
C143 C144 1.358 . S
C143 C145 1.356 . S
C143 H175 0.930 . S
C144 N141 1.279 . S
C144 C143 1.358 . S
C144 H147 0.930 . S
C145 C142 1.348 . S
C145 C143 1.356 . S
H146 C140 0.930 . S
H147 C144 0.930 . S
O148 Li88 1.956 . S
O148 Li89 1.970 . S
O148 Li90 1.961 . S
O148 C92 1.325 . S
O149 Li88 1.970 . S
O149 Li89 1.956 . S
O149 Li91 1.961 . S
O149 C98 1.325 . S
O150 Li88 1.961 . S
O150 Li90 1.956 . S
O150 Li91 1.970 . S
O150 C120 1.325 . S
O151 Li89 1.961 . S
O151 Li90 1.970 . S
O151 Li91 1.956 . S
O151 C126 1.325 . S
H152 C94 0.929 . S
H153 C95 0.930 . S
H154 C96 0.930 . S
H155 C97 0.930 . S
H156 C99 0.930 . S
H157 C101 0.929 . S
H158 C102 0.930 . S
H159 C103 0.930 . S
H160 C106 0.930 . S
H161 C109 0.929 . S
H162 C114 0.929 . S
H163 C115 0.930 . S
H164 C122 0.929 . S
H165 C123 0.930 . S
H166 C124 0.930 . S
H167 C125 0.930 . S
H168 C127 0.929 . S
H169 C128 0.930 . S
H170 C129 0.930 . S
H171 C130 0.930 . S
H172 C134 0.929 . S
H173 C136 0.930 . S
H174 C142 0.929 . S
H175 C143 0.930 . S
Li176 N193 1.990 . S
Li176 O236 1.956 . S
Li176 O237 1.970 1_455 S
Li176 O238 1.961 . S
Li177 N201 1.990 1_556 S
Li177 O236 1.970 1_655 S
Li177 O237 1.956 . S
Li177 O239 1.961 . S
Li178 N223 1.990 . S
Li178 O236 1.961 . S
Li178 O238 1.956 . S
Li178 O239 1.970 1_455 S
Li179 N229 1.990 . S
Li179 O237 1.961 . S
Li179 O238 1.970 1_655 S
Li179 O239 1.956 . S
C180 C182 1.348 . S
C180 C183 1.356 1_554 S
C180 O236 1.325 1_554 S
N181 C184 1.314 . S
N181 C185 1.279 . S
C182 C180 1.348 . S
C182 C184 1.353 . S
C182 H240 0.929 . S
C183 C180 1.356 1_556 S
C183 C185 1.358 1_556 S
C183 H241 0.930 . S
C184 N181 1.314 . S
C184 C182 1.353 . S
C184 H242 0.930 . S
C185 N181 1.279 . S
C185 C183 1.358 1_554 S
C185 H243 0.930 1_554 S
C186 C189 1.348 . S
C186 C190 1.356 . S
C186 O237 1.325 . S
C187 N188 1.279 . S
C187 C190 1.358 . S
C187 H244 0.930 . S
N188 C187 1.279 . S
N188 C191 1.314 . S
C189 C186 1.348 . S
C189 C191 1.353 . S
C189 H245 0.929 . S
C190 C186 1.356 . S
C190 C187 1.358 . S
C190 H246 0.930 . S
C191 N188 1.314 . S
C191 C189 1.353 . S
C191 H247 0.930 . S
C192 N193 1.314 1_655 S
C192 C197 1.353 . S
C192 H198 0.930 . S
N193 Li176 1.990 . S
N193 C192 1.314 1_455 S
N193 C195 1.279 . S
C194 C195 1.358 . S
C194 C196 1.356 . S
C194 H248 0.930 . S
C195 N193 1.279 . S
C195 C194 1.358 . S
C195 H199 0.930 . S
C196 C194 1.356 . S
C196 C197 1.348 1_455 S
C197 C192 1.353 . S
C197 C196 1.348 1_655 S
C197 H249 0.929 . S
H198 C192 0.930 . S
H199 C195 0.930 . S
C200 N201 1.314 . S
C200 C202 1.353 . S
C200 H206 0.930 1_655 S
N201 Li177 1.990 1_554 S
N201 C200 1.314 . S
N201 C204 1.279 . S
C202 C200 1.353 . S
C202 C205 1.348 . S
C202 H250 0.929 . S
C203 C204 1.358 . S
C203 C205 1.356 . S
C203 H251 0.930 . S
C204 N201 1.279 . S
C204 C203 1.358 . S
C204 H207 0.930 . S
C205 C202 1.348 . S
C205 C203 1.356 . S
H206 C200 0.930 1_455 S
H207 C204 0.930 . S
C208 C210 1.348 . S
C208 C211 1.356 . S
C208 O238 1.325 . S
N209 C212 1.314 . S
N209 C213 1.279 . S
C210 C208 1.348 . S
C210 C212 1.353 . S
C210 H252 0.929 1_455 S
C211 C208 1.356 . S
C211 C213 1.358 . S
C211 H253 0.930 . S
C212 N209 1.314 . S
C212 C210 1.353 . S
C212 H254 0.930 . S
C213 N209 1.279 . S
C213 C211 1.358 . S
C213 H255 0.930 . S
C214 C215 1.348 1_655 S
C214 C216 1.356 . S
C214 O239 1.325 . S
C215 C214 1.348 1_455 S
C215 C217 1.353 . S
C215 H256 0.929 . S
C216 C214 1.356 . S
C216 C218 1.358 1_556 S
C216 H257 0.930 1_556 S
C217 C215 1.353 . S
C217 N219 1.314 1_455 S
C217 H258 0.930 . S
C218 C216 1.358 1_554 S
C218 N219 1.279 1_554 S
C218 H259 0.930 . S
N219 C217 1.314 1_655 S
N219 C218 1.279 1_556 S
C220 C222 1.353 . S
C220 N223 1.314 . S
C220 H226 0.930 . S
C221 N223 1.279 . S
C221 C224 1.358 . S
C221 H227 0.930 . S
C222 C220 1.353 . S
C222 C225 1.348 . S
C222 H260 0.929 . S
N223 Li178 1.990 . S
N223 C220 1.314 . S
N223 C221 1.279 . S
C224 C221 1.358 . S
C224 C225 1.356 . S
C224 H261 0.930 . S
C225 C222 1.348 . S
C225 C224 1.356 . S
H226 C220 0.930 . S
H227 C221 0.930 . S
C228 N229 1.314 . S
C228 C230 1.353 . S
C228 H234 0.930 . S
N229 Li179 1.990 . S
N229 C228 1.314 . S
N229 C232 1.279 . S
C230 C228 1.353 . S
C230 C233 1.348 . S
C230 H262 0.929 . S
C231 C232 1.358 . S
C231 C233 1.356 . S
C231 H263 0.930 . S
C232 N229 1.279 . S
C232 C231 1.358 . S
C232 H235 0.930 . S
C233 C230 1.348 . S
C233 C231 1.356 . S
H234 C228 0.930 . S
H235 C232 0.930 . S
O236 Li176 1.956 . S
O236 Li177 1.970 1_455 S
O236 Li178 1.961 . S
O236 C180 1.325 1_556 S
O237 Li176 1.970 1_655 S
O237 Li177 1.956 . S
O237 Li179 1.961 . S
O237 C186 1.325 . S
O238 Li176 1.961 . S
O238 Li178 1.956 . S
O238 Li179 1.970 1_455 S
O238 C208 1.325 . S
O239 Li177 1.961 . S
O239 Li178 1.970 1_655 S
O239 Li179 1.956 . S
O239 C214 1.325 . S
H240 C182 0.929 . S
H241 C183 0.930 . S
H242 C184 0.930 . S
H243 C185 0.930 1_556 S
H244 C187 0.930 . S
H245 C189 0.929 . S
H246 C190 0.930 . S
H247 C191 0.930 . S
H248 C194 0.930 . S
H249 C197 0.929 . S
H250 C202 0.929 . S
H251 C203 0.930 . S
H252 C210 0.929 1_655 S
H253 C211 0.930 . S
H254 C212 0.930 . S
H255 C213 0.930 . S
H256 C215 0.929 . S
H257 C216 0.930 1_554 S
H258 C217 0.930 . S
H259 C218 0.930 . S
H260 C222 0.929 . S
H261 C224 0.930 . S
H262 C230 0.929 . S
H263 C231 0.930 . S
Li264 N281 1.990 . S
Li264 O324 1.956 . S
Li264 O325 1.970 1_545 S
Li264 O326 1.961 . S
Li265 N289 1.990 . S
Li265 O324 1.970 1_565 S
Li265 O325 1.956 . S
Li265 O327 1.961 . S
Li266 N311 1.990 . S
Li266 O324 1.961 . S
Li266 O326 1.956 . S
Li266 O327 1.970 1_545 S
Li267 N317 1.990 . S
Li267 O325 1.961 . S
Li267 O326 1.970 1_565 S
Li267 O327 1.956 . S
C268 C270 1.348 . S
C268 C271 1.356 . S
C268 O324 1.325 . S
N269 C272 1.314 . S
N269 C273 1.279 . S
C270 C268 1.348 . S
C270 C272 1.353 . S
C270 H328 0.929 . S
C271 C268 1.356 . S
C271 C273 1.358 . S
C271 H329 0.930 . S
C272 N269 1.314 . S
C272 C270 1.353 . S
C272 H330 0.930 . S
C273 N269 1.279 . S
C273 C271 1.358 . S
C273 H331 0.930 . S
C274 C277 1.348 . S
C274 C278 1.356 . S
C274 O325 1.325 . S
C275 N276 1.279 . S
C275 C278 1.358 . S
C275 H332 0.930 . S
N276 C275 1.279 . S
N276 C279 1.314 . S
C277 C274 1.348 . S
C277 C279 1.353 . S
C277 H333 0.929 . S
C278 C274 1.356 . S
C278 C275 1.358 . S
C278 H334 0.930 . S
C279 N276 1.314 . S
C279 C277 1.353 . S
C279 H335 0.930 . S
C280 N281 1.314 1_565 S
C280 C285 1.353 . S
C280 H286 0.930 . S
N281 Li264 1.990 . S
N281 C280 1.314 1_545 S
N281 C283 1.279 . S
C282 C283 1.358 . S
C282 C284 1.356 . S
C282 H336 0.930 . S
C283 N281 1.279 . S
C283 C282 1.358 . S
C283 H287 0.930 . S
C284 C282 1.356 . S
C284 C285 1.348 1_545 S
C285 C280 1.353 . S
C285 C284 1.348 1_565 S
C285 H337 0.929 . S
H286 C280 0.930 . S
H287 C283 0.930 . S
C288 N289 1.314 . S
C288 C290 1.353 . S
C288 H294 0.930 1_565 S
N289 Li265 1.990 . S
N289 C288 1.314 . S
N289 C292 1.279 . S
C290 C288 1.353 . S
C290 C293 1.348 . S
C290 H338 0.929 . S
C291 C292 1.358 . S
C291 C293 1.356 . S
C291 H339 0.930 . S
C292 N289 1.279 . S
C292 C291 1.358 . S
C292 H295 0.930 . S
C293 C290 1.348 . S
C293 C291 1.356 . S
H294 C288 0.930 1_545 S
H295 C292 0.930 . S
C296 C298 1.348 . S
C296 C299 1.356 . S
C296 O326 1.325 . S
N297 C300 1.314 . S
N297 C301 1.279 . S
C298 C296 1.348 . S
C298 C300 1.353 . S
C298 H340 0.929 1_545 S
C299 C296 1.356 . S
C299 C301 1.358 . S
C299 H341 0.930 . S
C300 N297 1.314 . S
C300 C298 1.353 . S
C300 H342 0.930 . S
C301 N297 1.279 . S
C301 C299 1.358 . S
C301 H343 0.930 . S
C302 C303 1.348 1_565 S
C302 C304 1.356 . S
C302 O327 1.325 . S
C303 C302 1.348 1_545 S
C303 C305 1.353 . S
C303 H344 0.929 . S
C304 C302 1.356 . S
C304 C306 1.358 . S
C304 H345 0.930 . S
C305 C303 1.353 . S
C305 N307 1.314 1_545 S
C305 H346 0.930 . S
C306 C304 1.358 . S
C306 N307 1.279 . S
C306 H347 0.930 . S
N307 C305 1.314 1_565 S
N307 C306 1.279 . S
C308 C310 1.353 . S
C308 N311 1.314 . S
C308 H314 0.930 . S
C309 N311 1.279 . S
C309 C312 1.358 . S
C309 H315 0.930 . S
C310 C308 1.353 . S
C310 C313 1.348 . S
C310 H348 0.929 . S
N311 Li266 1.990 . S
N311 C308 1.314 . S
N311 C309 1.279 . S
C312 C309 1.358 . S
C312 C313 1.356 . S
C312 H349 0.930 . S
C313 C310 1.348 . S
C313 C312 1.356 . S
H314 C308 0.930 . S
H315 C309 0.930 . S
C316 N317 1.314 . S
C316 C318 1.353 . S
C316 H322 0.930 . S
N317 Li267 1.990 . S
N317 C316 1.314 . S
N317 C320 1.279 . S
C318 C316 1.353 . S
C318 C321 1.348 . S
C318 H350 0.929 . S
C319 C320 1.358 . S
C319 C321 1.356 . S
C319 H351 0.930 . S
C320 N317 1.279 . S
C320 C319 1.358 . S
C320 H323 0.930 . S
C321 C318 1.348 . S
C321 C319 1.356 . S
H322 C316 0.930 . S
H323 C320 0.930 . S
O324 Li264 1.956 . S
O324 Li265 1.970 1_545 S
O324 Li266 1.961 . S
O324 C268 1.325 . S
O325 Li264 1.970 1_565 S
O325 Li265 1.956 . S
O325 Li267 1.961 . S
O325 C274 1.325 . S
O326 Li264 1.961 . S
O326 Li266 1.956 . S
O326 Li267 1.970 1_545 S
O326 C296 1.325 . S
O327 Li265 1.961 . S
O327 Li266 1.970 1_565 S
O327 Li267 1.956 . S
O327 C302 1.325 . S
H328 C270 0.929 . S
H329 C271 0.930 . S
H330 C272 0.930 . S
H331 C273 0.930 . S
H332 C275 0.930 . S
H333 C277 0.929 . S
H334 C278 0.930 . S
H335 C279 0.930 . S
H336 C282 0.930 . S
H337 C285 0.929 . S
H338 C290 0.929 . S
H339 C291 0.930 . S
H340 C298 0.929 1_565 S
H341 C299 0.930 . S
H342 C300 0.930 . S
H343 C301 0.930 . S
H344 C303 0.929 . S
H345 C304 0.930 . S
H346 C305 0.930 . S
H347 C306 0.930 . S
H348 C310 0.929 . S
H349 C312 0.930 . S
H350 C318 0.929 . S
H351 C319 0.930 . S
Li352 N369 1.990 . S
Li352 O412 1.956 . S
Li352 O413 1.970 . S
Li352 O414 1.961 . S
Li353 N377 1.990 . S
Li353 O412 1.970 . S
Li353 O413 1.956 . S
Li353 O415 1.961 . S
Li354 N399 1.990 . S
Li354 O412 1.961 . S
Li354 O414 1.956 . S
Li354 O415 1.970 . S
Li355 N405 1.990 . S
Li355 O413 1.961 . S
Li355 O414 1.970 . S
Li355 O415 1.956 . S
C356 C358 1.348 . S
C356 C359 1.356 . S
C356 O412 1.325 . S
N357 C360 1.314 . S
N357 C361 1.279 . S
C358 C356 1.348 . S
C358 C360 1.353 . S
C358 H416 0.929 . S
C359 C356 1.356 . S
C359 C361 1.358 . S
C359 H417 0.930 . S
C360 N357 1.314 . S
C360 C358 1.353 . S
C360 H418 0.930 . S
C361 N357 1.279 . S
C361 C359 1.358 . S
C361 H419 0.930 . S
C362 C365 1.348 . S
C362 C366 1.356 . S
C362 O413 1.325 . S
C363 N364 1.279 . S
C363 C366 1.358 . S
C363 H420 0.930 . S
N364 C363 1.279 . S
N364 C367 1.314 . S
C365 C362 1.348 . S
C365 C367 1.353 . S
C365 H421 0.929 . S
C366 C362 1.356 . S
C366 C363 1.358 . S
C366 H422 0.930 . S
C367 N364 1.314 . S
C367 C365 1.353 . S
C367 H423 0.930 . S
C368 N369 1.314 . S
C368 C373 1.353 . S
C368 H374 0.930 . S
N369 Li352 1.990 . S
N369 C368 1.314 . S
N369 C371 1.279 . S
C370 C371 1.358 . S
C370 C372 1.356 . S
C370 H424 0.930 . S
C371 N369 1.279 . S
C371 C370 1.358 . S
C371 H375 0.930 . S
C372 C370 1.356 . S
C372 C373 1.348 . S
C373 C368 1.353 . S
C373 C372 1.348 . S
C373 H425 0.929 . S
H374 C368 0.930 . S
H375 C371 0.930 . S
C376 N377 1.314 . S
C376 C378 1.353 . S
C376 H382 0.930 . S
N377 Li353 1.990 . S
N377 C376 1.314 . S
N377 C380 1.279 . S
C378 C376 1.353 . S
C378 C381 1.348 . S
C378 H426 0.929 . S
C379 C380 1.358 . S
C379 C381 1.356 . S
C379 H427 0.930 . S
C380 N377 1.279 . S
C380 C379 1.358 . S
C380 H383 0.930 . S
C381 C378 1.348 . S
C381 C379 1.356 . S
H382 C376 0.930 . S
H383 C380 0.930 . S
C384 C386 1.348 . S
C384 C387 1.356 . S
C384 O414 1.325 . S
N385 C388 1.314 . S
N385 C389 1.279 . S
C386 C384 1.348 . S
C386 C388 1.353 . S
C386 H428 0.929 . S
C387 C384 1.356 . S
C387 C389 1.358 . S
C387 H429 0.930 . S
C388 N385 1.314 . S
C388 C386 1.353 . S
C388 H430 0.930 . S
C389 N385 1.279 . S
C389 C387 1.358 . S
C389 H431 0.930 . S
C390 C391 1.348 . S
C390 C392 1.356 . S
C390 O415 1.325 . S
C391 C390 1.348 . S
C391 C393 1.353 . S
C391 H432 0.929 . S
C392 C390 1.356 . S
C392 C394 1.358 . S
C392 H433 0.930 . S
C393 C391 1.353 . S
C393 N395 1.314 . S
C393 H434 0.930 . S
C394 C392 1.358 . S
C394 N395 1.279 . S
C394 H435 0.930 . S
N395 C393 1.314 . S
N395 C394 1.279 . S
C396 C398 1.353 . S
C396 N399 1.314 . S
C396 H402 0.930 . S
C397 N399 1.279 . S
C397 C400 1.358 . S
C397 H403 0.930 . S
C398 C396 1.353 . S
C398 C401 1.348 . S
C398 H436 0.929 . S
N399 Li354 1.990 . S
N399 C396 1.314 . S
N399 C397 1.279 . S
C400 C397 1.358 . S
C400 C401 1.356 . S
C400 H437 0.930 . S
C401 C398 1.348 . S
C401 C400 1.356 . S
H402 C396 0.930 . S
H403 C397 0.930 . S
C404 N405 1.314 . S
C404 C406 1.353 . S
C404 H410 0.930 . S
N405 Li355 1.990 . S
N405 C404 1.314 . S
N405 C408 1.279 . S
C406 C404 1.353 . S
C406 C409 1.348 . S
C406 H438 0.929 . S
C407 C408 1.358 . S
C407 C409 1.356 . S
C407 H439 0.930 . S
C408 N405 1.279 . S
C408 C407 1.358 . S
C408 H411 0.930 . S
C409 C406 1.348 . S
C409 C407 1.356 . S
H410 C404 0.930 . S
H411 C408 0.930 . S
O412 Li352 1.956 . S
O412 Li353 1.970 . S
O412 Li354 1.961 . S
O412 C356 1.325 . S
O413 Li352 1.970 . S
O413 Li353 1.956 . S
O413 Li355 1.961 . S
O413 C362 1.325 . S
O414 Li352 1.961 . S
O414 Li354 1.956 . S
O414 Li355 1.970 . S
O414 C384 1.325 . S
O415 Li353 1.961 . S
O415 Li354 1.970 . S
O415 Li355 1.956 . S
O415 C390 1.325 . S
H416 C358 0.929 . S
H417 C359 0.930 . S
H418 C360 0.930 . S
H419 C361 0.930 . S
H420 C363 0.930 . S
H421 C365 0.929 . S
H422 C366 0.930 . S
H423 C367 0.930 . S
H424 C370 0.930 . S
H425 C373 0.929 . S
H426 C378 0.929 . S
H427 C379 0.930 . S
H428 C386 0.929 . S
H429 C387 0.930 . S
H430 C388 0.930 . S
H431 C389 0.930 . S
H432 C391 0.929 . S
H433 C392 0.930 . S
H434 C393 0.930 . S
H435 C394 0.930 . S
H436 C398 0.929 . S
H437 C400 0.930 . S
H438 C406 0.929 . S
H439 C407 0.930 . S
Li440 N457 1.990 . S
Li440 O500 1.956 . S
Li440 O501 1.970 1_655 S
Li440 O502 1.961 . S
Li441 N465 1.990 1_556 S
Li441 O500 1.970 1_455 S
Li441 O501 1.956 . S
Li441 O503 1.961 . S
Li442 N487 1.990 . S
Li442 O500 1.961 . S
Li442 O502 1.956 . S
Li442 O503 1.970 1_655 S
Li443 N493 1.990 . S
Li443 O501 1.961 . S
Li443 O502 1.970 1_455 S
Li443 O503 1.956 . S
C444 C446 1.348 . S
C444 C447 1.356 1_554 S
C444 O500 1.325 1_554 S
N445 C448 1.314 . S
N445 C449 1.279 . S
C446 C444 1.348 . S
C446 C448 1.353 . S
C446 H504 0.929 . S
C447 C444 1.356 1_556 S
C447 C449 1.358 1_556 S
C447 H505 0.930 . S
C448 N445 1.314 . S
C448 C446 1.353 . S
C448 H506 0.930 . S
C449 N445 1.279 . S
C449 C447 1.358 1_554 S
C449 H507 0.930 1_554 S
C450 C453 1.348 . S
C450 C454 1.356 . S
C450 O501 1.325 . S
C451 N452 1.279 . S
C451 C454 1.358 . S
C451 H508 0.930 . S
N452 C451 1.279 . S
N452 C455 1.314 . S
C453 C450 1.348 . S
C453 C455 1.353 . S
C453 H509 0.929 . S
C454 C450 1.356 . S
C454 C451 1.358 . S
C454 H510 0.930 . S
C455 N452 1.314 . S
C455 C453 1.353 . S
C455 H511 0.930 . S
C456 N457 1.314 1_455 S
C456 C461 1.353 . S
C456 H462 0.930 . S
N457 Li440 1.990 . S
N457 C456 1.314 1_655 S
N457 C459 1.279 . S
C458 C459 1.358 . S
C458 C460 1.356 . S
C458 H512 0.930 . S
C459 N457 1.279 . S
C459 C458 1.358 . S
C459 H463 0.930 . S
C460 C458 1.356 . S
C460 C461 1.348 1_655 S
C461 C456 1.353 . S
C461 C460 1.348 1_455 S
C461 H513 0.929 . S
H462 C456 0.930 . S
H463 C459 0.930 . S
C464 N465 1.314 . S
C464 C466 1.353 . S
C464 H470 0.930 1_455 S
N465 Li441 1.990 1_554 S
N465 C464 1.314 . S
N465 C468 1.279 . S
C466 C464 1.353 . S
C466 C469 1.348 . S
C466 H514 0.929 . S
C467 C468 1.358 . S
C467 C469 1.356 . S
C467 H515 0.930 . S
C468 N465 1.279 . S
C468 C467 1.358 . S
C468 H471 0.930 . S
C469 C466 1.348 . S
C469 C467 1.356 . S
H470 C464 0.930 1_655 S
H471 C468 0.930 . S
C472 C474 1.348 . S
C472 C475 1.356 . S
C472 O502 1.325 . S
N473 C476 1.314 . S
N473 C477 1.279 . S
C474 C472 1.348 . S
C474 C476 1.353 . S
C474 H516 0.929 1_655 S
C475 C472 1.356 . S
C475 C477 1.358 . S
C475 H517 0.930 . S
C476 N473 1.314 . S
C476 C474 1.353 . S
C476 H518 0.930 . S
C477 N473 1.279 . S
C477 C475 1.358 . S
C477 H519 0.930 . S
C478 C479 1.348 1_455 S
C478 C480 1.356 . S
C478 O503 1.325 . S
C479 C478 1.348 1_655 S
C479 C481 1.353 . S
C479 H520 0.929 . S
C480 C478 1.356 . S
C480 C482 1.358 1_556 S
C480 H521 0.930 1_556 S
C481 C479 1.353 . S
C481 N483 1.314 1_655 S
C481 H522 0.930 . S
C482 C480 1.358 1_554 S
C482 N483 1.279 1_554 S
C482 H523 0.930 . S
N483 C481 1.314 1_455 S
N483 C482 1.279 1_556 S
C484 C486 1.353 . S
C484 N487 1.314 . S
C484 H490 0.930 . S
C485 N487 1.279 . S
C485 C488 1.358 . S
C485 H491 0.930 . S
C486 C484 1.353 . S
C486 C489 1.348 . S
C486 H524 0.929 . S
N487 Li442 1.990 . S
N487 C484 1.314 . S
N487 C485 1.279 . S
C488 C485 1.358 . S
C488 C489 1.356 . S
C488 H525 0.930 . S
C489 C486 1.348 . S
C489 C488 1.356 . S
H490 C484 0.930 . S
H491 C485 0.930 . S
C492 N493 1.314 . S
C492 C494 1.353 . S
C492 H498 0.930 . S
N493 Li443 1.990 . S
N493 C492 1.314 . S
N493 C496 1.279 . S
C494 C492 1.353 . S
C494 C497 1.348 . S
C494 H526 0.929 . S
C495 C496 1.358 . S
C495 C497 1.356 . S
C495 H527 0.930 . S
C496 N493 1.279 . S
C496 C495 1.358 . S
C496 H499 0.930 . S
C497 C494 1.348 . S
C497 C495 1.356 . S
H498 C492 0.930 . S
H499 C496 0.930 . S
O500 Li440 1.956 . S
O500 Li441 1.970 1_655 S
O500 Li442 1.961 . S
O500 C444 1.325 1_556 S
O501 Li440 1.970 1_455 S
O501 Li441 1.956 . S
O501 Li443 1.961 . S
O501 C450 1.325 . S
O502 Li440 1.961 . S
O502 Li442 1.956 . S
O502 Li443 1.970 1_655 S
O502 C472 1.325 . S
O503 Li441 1.961 . S
O503 Li442 1.970 1_455 S
O503 Li443 1.956 . S
O503 C478 1.325 . S
H504 C446 0.929 . S
H505 C447 0.930 . S
H506 C448 0.930 . S
H507 C449 0.930 1_556 S
H508 C451 0.930 . S
H509 C453 0.929 . S
H510 C454 0.930 . S
H511 C455 0.930 . S
H512 C458 0.930 . S
H513 C461 0.929 . S
H514 C466 0.929 . S
H515 C467 0.930 . S
H516 C474 0.929 1_455 S
H517 C475 0.930 . S
H518 C476 0.930 . S
H519 C477 0.930 . S
H520 C479 0.929 . S
H521 C480 0.930 1_554 S
H522 C481 0.930 . S
H523 C482 0.930 . S
H524 C486 0.929 . S
H525 C488 0.930 . S
H526 C494 0.929 . S
H527 C495 0.930 . S
Li528 N545 1.990 . S
Li528 O588 1.956 . S
Li528 O589 1.970 1_455 S
Li528 O590 1.961 . S
Li529 N553 1.990 . S
Li529 O588 1.970 1_655 S
Li529 O589 1.956 . S
Li529 O591 1.961 . S
Li530 N575 1.990 . S
Li530 O588 1.961 . S
Li530 O590 1.956 . S
Li530 O591 1.970 1_455 S
Li531 N581 1.990 . S
Li531 O589 1.961 . S
Li531 O590 1.970 1_655 S
Li531 O591 1.956 . S
C532 C534 1.348 . S
C532 C535 1.356 . S
C532 O588 1.325 . S
N533 C536 1.314 . S
N533 C537 1.279 . S
C534 C532 1.348 . S
C534 C536 1.353 . S
C534 H592 0.929 1_455 S
C535 C532 1.356 . S
C535 C537 1.358 . S
C535 H593 0.930 . S
C536 N533 1.314 . S
C536 C534 1.353 . S
C536 H594 0.930 . S
C537 N533 1.279 . S
C537 C535 1.358 . S
C537 H595 0.930 . S
C538 C541 1.348 1_655 S
C538 C542 1.356 . S
C538 O589 1.325 . S
C539 N540 1.279 . S
C539 C542 1.358 . S
C539 H596 0.930 . S
N540 C539 1.279 . S
N540 C543 1.314 1_655 S
C541 C538 1.348 1_455 S
C541 C543 1.353 . S
C541 H597 0.929 . S
C542 C538 1.356 . S
C542 C539 1.358 . S
C542 H598 0.930 . S
C543 N540 1.314 1_455 S
C543 C541 1.353 . S
C543 H599 0.930 . S
C544 N545 1.314 . S
C544 C549 1.353 . S
C544 H550 0.930 . S
N545 Li528 1.990 . S
N545 C544 1.314 . S
N545 C547 1.279 . S
C546 C547 1.358 . S
C546 C548 1.356 . S
C546 H600 0.930 . S
C547 N545 1.279 . S
C547 C546 1.358 . S
C547 H551 0.930 . S
C548 C546 1.356 . S
C548 C549 1.348 . S
C549 C544 1.353 . S
C549 C548 1.348 . S
C549 H601 0.929 . S
H550 C544 0.930 . S
H551 C547 0.930 . S
C552 N553 1.314 . S
C552 C554 1.353 . S
C552 H558 0.930 . S
N553 Li529 1.990 . S
N553 C552 1.314 . S
N553 C556 1.279 . S
C554 C552 1.353 . S
C554 C557 1.348 . S
C554 H602 0.929 . S
C555 C556 1.358 . S
C555 C557 1.356 . S
C555 H603 0.930 . S
C556 N553 1.279 . S
C556 C555 1.358 . S
C556 H559 0.930 . S
C557 C554 1.348 . S
C557 C555 1.356 . S
H558 C552 0.930 . S
H559 C556 0.930 . S
C560 C562 1.348 . S
C560 C563 1.356 . S
C560 O590 1.325 . S
N561 C564 1.314 . S
N561 C565 1.279 . S
C562 C560 1.348 . S
C562 C564 1.353 . S
C562 H604 0.929 . S
C563 C560 1.356 . S
C563 C565 1.358 . S
C563 H605 0.930 . S
C564 N561 1.314 . S
C564 C562 1.353 . S
C564 H606 0.930 . S
C565 N561 1.279 . S
C565 C563 1.358 . S
C565 H607 0.930 . S
C566 C567 1.348 . S
C566 C568 1.356 . S
C566 O591 1.325 . S
C567 C566 1.348 . S
C567 C569 1.353 . S
C567 H608 0.929 . S
C568 C566 1.356 . S
C568 C570 1.358 . S
C568 H609 0.930 . S
C569 C567 1.353 . S
C569 N571 1.314 . S
C569 H610 0.930 . S
C570 C568 1.358 . S
C570 N571 1.279 . S
C570 H611 0.930 . S
N571 C569 1.314 . S
N571 C570 1.279 . S
C572 C574 1.353 . S
C572 N575 1.314 1_655 S
C572 H578 0.930 . S
C573 N575 1.279 . S
C573 C576 1.358 . S
C573 H579 0.930 . S
C574 C572 1.353 . S
C574 C577 1.348 1_655 S
C574 H612 0.929 . S
N575 Li530 1.990 . S
N575 C572 1.314 1_455 S
N575 C573 1.279 . S
C576 C573 1.358 . S
C576 C577 1.356 . S
C576 H613 0.930 . S
C577 C574 1.348 1_455 S
C577 C576 1.356 . S
H578 C572 0.930 . S
H579 C573 0.930 . S
C580 N581 1.314 . S
C580 C582 1.353 . S
C580 H586 0.930 1_655 S
N581 Li531 1.990 . S
N581 C580 1.314 . S
N581 C584 1.279 . S
C582 C580 1.353 . S
C582 C585 1.348 . S
C582 H614 0.929 . S
C583 C584 1.358 . S
C583 C585 1.356 . S
C583 H615 0.930 . S
C584 N581 1.279 . S
C584 C583 1.358 . S
C584 H587 0.930 . S
C585 C582 1.348 . S
C585 C583 1.356 . S
H586 C580 0.930 1_455 S
H587 C584 0.930 . S
O588 Li528 1.956 . S
O588 Li529 1.970 1_455 S
O588 Li530 1.961 . S
O588 C532 1.325 . S
O589 Li528 1.970 1_655 S
O589 Li529 1.956 . S
O589 Li531 1.961 . S
O589 C538 1.325 . S
O590 Li528 1.961 . S
O590 Li530 1.956 . S
O590 Li531 1.970 1_455 S
O590 C560 1.325 . S
O591 Li529 1.961 . S
O591 Li530 1.970 1_655 S
O591 Li531 1.956 . S
O591 C566 1.325 . S
H592 C534 0.929 1_655 S
H593 C535 0.930 . S
H594 C536 0.930 . S
H595 C537 0.930 . S
H596 C539 0.930 . S
H597 C541 0.929 . S
H598 C542 0.930 . S
H599 C543 0.930 . S
H600 C546 0.930 . S
H601 C549 0.929 . S
H602 C554 0.929 . S
H603 C555 0.930 . S
H604 C562 0.929 . S
H605 C563 0.930 . S
H606 C564 0.930 . S
H607 C565 0.930 . S
H608 C567 0.929 . S
H609 C568 0.930 . S
H610 C569 0.930 . S
H611 C570 0.930 . S
H612 C574 0.929 . S
H613 C576 0.930 . S
H614 C582 0.929 . S
H615 C583 0.930 . S
Li616 N633 1.990 . S
Li616 O676 1.956 . S
Li616 O677 1.970 1_545 S
Li616 O678 1.961 . S
Li617 N641 1.990 . S
Li617 O676 1.970 1_565 S
Li617 O677 1.956 . S
Li617 O679 1.961 . S
Li618 N663 1.990 . S
Li618 O676 1.961 . S
Li618 O678 1.956 . S
Li618 O679 1.970 1_545 S
Li619 N669 1.990 . S
Li619 O677 1.961 . S
Li619 O678 1.970 1_565 S
Li619 O679 1.956 . S
C620 C622 1.348 . S
C620 C623 1.356 . S
C620 O676 1.325 . S
N621 C624 1.314 . S
N621 C625 1.279 . S
C622 C620 1.348 . S
C622 C624 1.353 . S
C622 H680 0.929 1_545 S
C623 C620 1.356 . S
C623 C625 1.358 . S
C623 H681 0.930 . S
C624 N621 1.314 . S
C624 C622 1.353 . S
C624 H682 0.930 . S
C625 N621 1.279 . S
C625 C623 1.358 . S
C625 H683 0.930 . S
C626 C629 1.348 1_565 S
C626 C630 1.356 . S
C626 O677 1.325 . S
C627 N628 1.279 . S
C627 C630 1.358 . S
C627 H684 0.930 . S
N628 C627 1.279 . S
N628 C631 1.314 1_565 S
C629 C626 1.348 1_545 S
C629 C631 1.353 . S
C629 H685 0.929 . S
C630 C626 1.356 . S
C630 C627 1.358 . S
C630 H686 0.930 . S
C631 N628 1.314 1_545 S
C631 C629 1.353 . S
C631 H687 0.930 . S
C632 N633 1.314 . S
C632 C637 1.353 . S
C632 H638 0.930 . S
N633 Li616 1.990 . S
N633 C632 1.314 . S
N633 C635 1.279 . S
C634 C635 1.358 . S
C634 C636 1.356 . S
C634 H688 0.930 . S
C635 N633 1.279 . S
C635 C634 1.358 . S
C635 H639 0.930 . S
C636 C634 1.356 . S
C636 C637 1.348 . S
C637 C632 1.353 . S
C637 C636 1.348 . S
C637 H689 0.929 . S
H638 C632 0.930 . S
H639 C635 0.930 . S
C640 N641 1.314 . S
C640 C642 1.353 . S
C640 H646 0.930 . S
N641 Li617 1.990 . S
N641 C640 1.314 . S
N641 C644 1.279 . S
C642 C640 1.353 . S
C642 C645 1.348 . S
C642 H690 0.929 . S
C643 C644 1.358 . S
C643 C645 1.356 . S
C643 H691 0.930 . S
C644 N641 1.279 . S
C644 C643 1.358 . S
C644 H647 0.930 . S
C645 C642 1.348 . S
C645 C643 1.356 . S
H646 C640 0.930 . S
H647 C644 0.930 . S
C648 C650 1.348 . S
C648 C651 1.356 . S
C648 O678 1.325 . S
N649 C652 1.314 . S
N649 C653 1.279 . S
C650 C648 1.348 . S
C650 C652 1.353 . S
C650 H692 0.929 . S
C651 C648 1.356 . S
C651 C653 1.358 . S
C651 H693 0.930 . S
C652 N649 1.314 . S
C652 C650 1.353 . S
C652 H694 0.930 . S
C653 N649 1.279 . S
C653 C651 1.358 . S
C653 H695 0.930 . S
C654 C655 1.348 . S
C654 C656 1.356 . S
C654 O679 1.325 . S
C655 C654 1.348 . S
C655 C657 1.353 . S
C655 H696 0.929 . S
C656 C654 1.356 . S
C656 C658 1.358 . S
C656 H697 0.930 . S
C657 C655 1.353 . S
C657 N659 1.314 . S
C657 H698 0.930 . S
C658 C656 1.358 . S
C658 N659 1.279 . S
C658 H699 0.930 . S
N659 C657 1.314 . S
N659 C658 1.279 . S
C660 C662 1.353 . S
C660 N663 1.314 1_565 S
C660 H666 0.930 . S
C661 N663 1.279 . S
C661 C664 1.358 . S
C661 H667 0.930 . S
C662 C660 1.353 . S
C662 C665 1.348 1_565 S
C662 H700 0.929 . S
N663 Li618 1.990 . S
N663 C660 1.314 1_545 S
N663 C661 1.279 . S
C664 C661 1.358 . S
C664 C665 1.356 . S
C664 H701 0.930 . S
C665 C662 1.348 1_545 S
C665 C664 1.356 . S
H666 C660 0.930 . S
H667 C661 0.930 . S
C668 N669 1.314 . S
C668 C670 1.353 . S
C668 H674 0.930 1_565 S
N669 Li619 1.990 . S
N669 C668 1.314 . S
N669 C672 1.279 . S
C670 C668 1.353 . S
C670 C673 1.348 . S
C670 H702 0.929 . S
C671 C672 1.358 . S
C671 C673 1.356 . S
C671 H703 0.930 . S
C672 N669 1.279 . S
C672 C671 1.358 . S
C672 H675 0.930 . S
C673 C670 1.348 . S
C673 C671 1.356 . S
H674 C668 0.930 1_545 S
H675 C672 0.930 . S
O676 Li616 1.956 . S
O676 Li617 1.970 1_545 S
O676 Li618 1.961 . S
O676 C620 1.325 . S
O677 Li616 1.970 1_565 S
O677 Li617 1.956 . S
O677 Li619 1.961 . S
O677 C626 1.325 . S
O678 Li616 1.961 . S
O678 Li618 1.956 . S
O678 Li619 1.970 1_545 S
O678 C648 1.325 . S
O679 Li617 1.961 . S
O679 Li618 1.970 1_565 S
O679 Li619 1.956 . S
O679 C654 1.325 . S
H680 C622 0.929 1_565 S
H681 C623 0.930 . S
H682 C624 0.930 . S
H683 C625 0.930 . S
H684 C627 0.930 . S
H685 C629 0.929 . S
H686 C630 0.930 . S
H687 C631 0.930 . S
H688 C634 0.930 . S
H689 C637 0.929 . S
H690 C642 0.929 . S
H691 C643 0.930 . S
H692 C650 0.929 . S
H693 C651 0.930 . S
H694 C652 0.930 . S
H695 C653 0.930 . S
H696 C655 0.929 . S
H697 C656 0.930 . S
H698 C657 0.930 . S
H699 C658 0.930 . S
H700 C662 0.929 . S
H701 C664 0.930 . S
H702 C670 0.929 . S
H703 C671 0.930 . S
Li704 N721 1.990 . S
Li704 O764 1.956 . S
Li704 O765 1.970 . S
Li704 O766 1.961 . S
Li705 N729 1.990 . S
Li705 O764 1.970 . S
Li705 O765 1.956 . S
Li705 O767 1.961 . S
Li706 N751 1.990 . S
Li706 O764 1.961 . S
Li706 O766 1.956 . S
Li706 O767 1.970 . S
Li707 N757 1.990 1_554 S
Li707 O765 1.961 . S
Li707 O766 1.970 . S
Li707 O767 1.956 . S
C708 C710 1.348 . S
C708 C711 1.356 . S
C708 O764 1.325 . S
N709 C712 1.314 . S
N709 C713 1.279 . S
C710 C708 1.348 . S
C710 C712 1.353 . S
C710 H768 0.929 . S
C711 C708 1.356 . S
C711 C713 1.358 . S
C711 H769 0.930 . S
C712 N709 1.314 . S
C712 C710 1.353 . S
C712 H770 0.930 . S
C713 N709 1.279 . S
C713 C711 1.358 . S
C713 H771 0.930 . S
C714 C717 1.348 . S
C714 C718 1.356 . S
C714 O765 1.325 . S
C715 N716 1.279 1_556 S
C715 C718 1.358 1_556 S
C715 H772 0.930 . S
N716 C715 1.279 1_554 S
N716 C719 1.314 . S
C717 C714 1.348 . S
C717 C719 1.353 . S
C717 H773 0.929 . S
C718 C714 1.356 . S
C718 C715 1.358 1_554 S
C718 H774 0.930 1_554 S
C719 N716 1.314 . S
C719 C717 1.353 . S
C719 H775 0.930 . S
C720 N721 1.314 . S
C720 C725 1.353 . S
C720 H726 0.930 . S
N721 Li704 1.990 . S
N721 C720 1.314 . S
N721 C723 1.279 . S
C722 C723 1.358 . S
C722 C724 1.356 . S
C722 H776 0.930 . S
C723 N721 1.279 . S
C723 C722 1.358 . S
C723 H727 0.930 . S
C724 C722 1.356 . S
C724 C725 1.348 . S
C725 C720 1.353 . S
C725 C724 1.348 . S
C725 H777 0.929 . S
H726 C720 0.930 . S
H727 C723 0.930 . S
C728 N729 1.314 . S
C728 C730 1.353 . S
C728 H734 0.930 . S
N729 Li705 1.990 . S
N729 C728 1.314 . S
N729 C732 1.279 . S
C730 C728 1.353 . S
C730 C733 1.348 . S
C730 H778 0.929 . S
C731 C732 1.358 . S
C731 C733 1.356 . S
C731 H779 0.930 . S
C732 N729 1.279 . S
C732 C731 1.358 . S
C732 H735 0.930 . S
C733 C730 1.348 . S
C733 C731 1.356 . S
H734 C728 0.930 . S
H735 C732 0.930 . S
C736 C738 1.353 . S
C736 C739 1.354 1_556 S
C736 O766 1.322 1_556 S
N737 C740 1.314 . S
N737 C741 1.279 . S
C738 C736 1.353 . S
C738 C740 1.353 . S
C738 H780 0.929 . S
C739 C736 1.354 1_554 S
C739 C741 1.358 1_554 S
C739 H781 0.930 . S
C740 N737 1.314 . S
C740 C738 1.353 . S
C740 H782 0.930 . S
C741 N737 1.279 . S
C741 C739 1.358 1_556 S
C741 H783 0.930 1_556 S
C742 C743 1.348 . S
C742 C744 1.356 . S
C742 O767 1.325 . S
C743 C742 1.348 . S
C743 C745 1.353 . S
C743 H784 0.929 . S
C744 C742 1.356 . S
C744 C746 1.358 . S
C744 H785 0.930 . S
C745 C743 1.353 . S
C745 N747 1.314 . S
C745 H786 0.930 . S
C746 C744 1.358 . S
C746 N747 1.279 . S
C746 H787 0.930 . S
N747 C745 1.314 . S
N747 C746 1.279 . S
C748 C750 1.353 . S
C748 N751 1.314 . S
C748 H754 0.930 . S
C749 N751 1.279 . S
C749 C752 1.358 . S
C749 H755 0.930 . S
C750 C748 1.353 . S
C750 C753 1.348 . S
C750 H788 0.929 . S
N751 Li706 1.990 . S
N751 C748 1.314 . S
N751 C749 1.279 . S
C752 C749 1.358 . S
C752 C753 1.356 . S
C752 H789 0.930 . S
C753 C750 1.348 . S
C753 C752 1.356 . S
H754 C748 0.930 . S
H755 C749 0.930 . S
C756 N757 1.314 . S
C756 C758 1.353 . S
C756 H762 0.930 . S
N757 Li707 1.990 1_556 S
N757 C756 1.314 . S
N757 C760 1.279 . S
C758 C756 1.353 . S
C758 C761 1.348 . S
C758 H790 0.929 . S
C759 C760 1.358 . S
C759 C761 1.356 . S
C759 H791 0.930 . S
C760 N757 1.279 . S
C760 C759 1.358 . S
C760 H763 0.930 . S
C761 C758 1.348 . S
C761 C759 1.356 . S
H762 C756 0.930 . S
H763 C760 0.930 . S
O764 Li704 1.956 . S
O764 Li705 1.970 . S
O764 Li706 1.961 . S
O764 C708 1.325 . S
O765 Li704 1.970 . S
O765 Li705 1.956 . S
O765 Li707 1.961 . S
O765 C714 1.325 . S
O766 Li704 1.961 . S
O766 Li706 1.956 . S
O766 Li707 1.970 . S
O766 C736 1.322 1_554 S
O767 Li705 1.961 . S
O767 Li706 1.970 . S
O767 Li707 1.956 . S
O767 C742 1.325 . S
H768 C710 0.929 . S
H769 C711 0.930 . S
H770 C712 0.930 . S
H771 C713 0.930 . S
H772 C715 0.930 . S
H773 C717 0.929 . S
H774 C718 0.930 1_556 S
H775 C719 0.930 . S
H776 C722 0.930 . S
H777 C725 0.929 . S
H778 C730 0.929 . S
H779 C731 0.930 . S
H780 C738 0.929 . S
H781 C739 0.930 . S
H782 C740 0.930 . S
H783 C741 0.930 1_554 S
H784 C743 0.929 . S
H785 C744 0.930 . S
H786 C745 0.930 . S
H787 C746 0.930 . S
H788 C750 0.929 . S
H789 C752 0.930 . S
H790 C758 0.929 . S
H791 C759 0.930 . S
Li792 N809 1.990 . S
Li792 O852 1.956 . S
Li792 O853 1.970 1_455 S
Li792 O854 1.961 . S
Li793 N817 1.990 . S
Li793 O852 1.970 1_655 S
Li793 O853 1.956 . S
Li793 O855 1.961 . S
Li794 N839 1.990 . S
Li794 O852 1.961 . S
Li794 O854 1.956 . S
Li794 O855 1.970 1_455 S
Li795 N845 1.990 . S
Li795 O853 1.961 . S
Li795 O854 1.970 1_655 S
Li795 O855 1.956 . S
C796 C798 1.348 1_455 S
C796 C799 1.356 . S
C796 O852 1.325 . S
N797 C800 1.314 1_455 S
N797 C801 1.279 . S
C798 C796 1.348 1_655 S
C798 C800 1.353 . S
C798 H856 0.929 . S
C799 C796 1.356 . S
C799 C801 1.358 . S
C799 H857 0.930 . S
C800 N797 1.314 1_655 S
C800 C798 1.353 . S
C800 H858 0.930 . S
C801 N797 1.279 . S
C801 C799 1.358 . S
C801 H859 0.930 . S
C802 C805 1.348 . S
C802 C806 1.356 . S
C802 O853 1.325 . S
C803 N804 1.279 . S
C803 C806 1.358 . S
C803 H860 0.930 . S
N804 C803 1.279 . S
N804 C807 1.314 . S
C805 C802 1.348 . S
C805 C807 1.353 . S
C805 H861 0.929 1_655 S
C806 C802 1.356 . S
C806 C803 1.358 . S
C806 H862 0.930 . S
C807 N804 1.314 . S
C807 C805 1.353 . S
C807 H863 0.930 . S
C808 N809 1.314 . S
C808 C813 1.353 . S
C808 H814 0.930 . S
N809 Li792 1.990 . S
N809 C808 1.314 . S
N809 C811 1.279 . S
C810 C811 1.358 . S
C810 C812 1.356 . S
C810 H864 0.930 . S
C811 N809 1.279 . S
C811 C810 1.358 . S
C811 H815 0.930 . S
C812 C810 1.356 . S
C812 C813 1.348 . S
C813 C808 1.353 . S
C813 C812 1.348 . S
C813 H865 0.929 . S
H814 C808 0.930 . S
H815 C811 0.930 . S
C816 N817 1.314 . S
C816 C818 1.353 . S
C816 H822 0.930 . S
N817 Li793 1.990 . S
N817 C816 1.314 . S
N817 C820 1.279 . S
C818 C816 1.353 . S
C818 C821 1.348 . S
C818 H866 0.929 . S
C819 C820 1.358 . S
C819 C821 1.356 . S
C819 H867 0.930 . S
C820 N817 1.279 . S
C820 C819 1.358 . S
C820 H823 0.930 . S
C821 C818 1.348 . S
C821 C819 1.356 . S
H822 C816 0.930 . S
H823 C820 0.930 . S
C824 C826 1.348 . S
C824 C827 1.356 . S
C824 O854 1.325 . S
N825 C828 1.314 . S
N825 C829 1.279 . S
C826 C824 1.348 . S
C826 C828 1.353 . S
C826 H868 0.929 . S
C827 C824 1.356 . S
C827 C829 1.358 . S
C827 H869 0.930 . S
C828 N825 1.314 . S
C828 C826 1.353 . S
C828 H870 0.930 . S
C829 N825 1.279 . S
C829 C827 1.358 . S
C829 H871 0.930 . S
C830 C831 1.348 . S
C830 C832 1.356 . S
C830 O855 1.325 . S
C831 C830 1.348 . S
C831 C833 1.353 . S
C831 H872 0.929 . S
C832 C830 1.356 . S
C832 C834 1.358 . S
C832 H873 0.930 . S
C833 C831 1.353 . S
C833 N835 1.314 . S
C833 H874 0.930 . S
C834 C832 1.358 . S
C834 N835 1.279 . S
C834 H875 0.930 . S
N835 C833 1.314 . S
N835 C834 1.279 . S
C836 C838 1.353 . S
C836 N839 1.314 . S
C836 H842 0.930 1_455 S
C837 N839 1.279 . S
C837 C840 1.358 . S
C837 H843 0.930 . S
C838 C836 1.353 . S
C838 C841 1.348 . S
C838 H876 0.929 . S
N839 Li794 1.990 . S
N839 C836 1.314 . S
N839 C837 1.279 . S
C840 C837 1.358 . S
C840 C841 1.356 . S
C840 H877 0.930 . S
C841 C838 1.348 . S
C841 C840 1.356 . S
H842 C836 0.930 1_655 S
H843 C837 0.930 . S
C844 N845 1.314 1_455 S
C844 C846 1.353 . S
C844 H850 0.930 . S
N845 Li795 1.990 . S
N845 C844 1.314 1_655 S
N845 C848 1.279 . S
C846 C844 1.353 . S
C846 C849 1.348 1_455 S
C846 H878 0.929 . S
C847 C848 1.358 . S
C847 C849 1.356 . S
C847 H879 0.930 . S
C848 N845 1.279 . S
C848 C847 1.358 . S
C848 H851 0.930 . S
C849 C846 1.348 1_655 S
C849 C847 1.356 . S
H850 C844 0.930 . S
H851 C848 0.930 . S
O852 Li792 1.956 . S
O852 Li793 1.970 1_455 S
O852 Li794 1.961 . S
O852 C796 1.325 . S
O853 Li792 1.970 1_655 S
O853 Li793 1.956 . S
O853 Li795 1.961 . S
O853 C802 1.325 . S
O854 Li792 1.961 . S
O854 Li794 1.956 . S
O854 Li795 1.970 1_455 S
O854 C824 1.325 . S
O855 Li793 1.961 . S
O855 Li794 1.970 1_655 S
O855 Li795 1.956 . S
O855 C830 1.325 . S
H856 C798 0.929 . S
H857 C799 0.930 . S
H858 C800 0.930 . S
H859 C801 0.930 . S
H860 C803 0.930 . S
H861 C805 0.929 1_455 S
H862 C806 0.930 . S
H863 C807 0.930 . S
H864 C810 0.930 . S
H865 C813 0.929 . S
H866 C818 0.929 . S
H867 C819 0.930 . S
H868 C826 0.929 . S
H869 C827 0.930 . S
H870 C828 0.930 . S
H871 C829 0.930 . S
H872 C831 0.929 . S
H873 C832 0.930 . S
H874 C833 0.930 . S
H875 C834 0.930 . S
H876 C838 0.929 . S
H877 C840 0.930 . S
H878 C846 0.929 . S
H879 C847 0.930 . S
Li880 N897 1.990 . S
Li880 O940 1.956 . S
Li880 O941 1.970 1_545 S
Li880 O942 1.961 . S
Li881 N905 1.990 . S
Li881 O940 1.970 1_565 S
Li881 O941 1.956 . S
Li881 O943 1.961 . S
Li882 N927 1.990 . S
Li882 O940 1.961 . S
Li882 O942 1.956 . S
Li882 O943 1.970 1_545 S
Li883 N933 1.990 . S
Li883 O941 1.961 . S
Li883 O942 1.970 1_565 S
Li883 O943 1.956 . S
C884 C886 1.348 1_545 S
C884 C887 1.356 . S
C884 O940 1.325 . S
N885 C888 1.314 1_545 S
N885 C889 1.279 . S
C886 C884 1.348 1_565 S
C886 C888 1.353 . S
C886 H944 0.929 . S
C887 C884 1.356 . S
C887 C889 1.358 . S
C887 H945 0.930 . S
C888 N885 1.314 1_565 S
C888 C886 1.353 . S
C888 H946 0.930 . S
C889 N885 1.279 . S
C889 C887 1.358 . S
C889 H947 0.930 . S
C890 C893 1.348 . S
C890 C894 1.356 . S
C890 O941 1.325 . S
C891 N892 1.279 . S
C891 C894 1.358 . S
C891 H948 0.930 . S
N892 C891 1.279 . S
N892 C895 1.314 . S
C893 C890 1.348 . S
C893 C895 1.353 . S
C893 H949 0.929 1_565 S
C894 C890 1.356 . S
C894 C891 1.358 . S
C894 H950 0.930 . S
C895 N892 1.314 . S
C895 C893 1.353 . S
C895 H951 0.930 . S
C896 N897 1.314 . S
C896 C901 1.353 . S
C896 H902 0.930 . S
N897 Li880 1.990 . S
N897 C896 1.314 . S
N897 C899 1.279 . S
C898 C899 1.358 . S
C898 C900 1.356 . S
C898 H952 0.930 . S
C899 N897 1.279 . S
C899 C898 1.358 . S
C899 H903 0.930 . S
C900 C898 1.356 . S
C900 C901 1.348 . S
C901 C896 1.353 . S
C901 C900 1.348 . S
C901 H953 0.929 . S
H902 C896 0.930 . S
H903 C899 0.930 . S
C904 N905 1.314 . S
C904 C906 1.353 . S
C904 H910 0.930 . S
N905 Li881 1.990 . S
N905 C904 1.314 . S
N905 C908 1.279 . S
C906 C904 1.353 . S
C906 C909 1.348 . S
C906 H954 0.929 . S
C907 C908 1.358 . S
C907 C909 1.356 . S
C907 H955 0.930 . S
C908 N905 1.279 . S
C908 C907 1.358 . S
C908 H911 0.930 . S
C909 C906 1.348 . S
C909 C907 1.356 . S
H910 C904 0.930 . S
H911 C908 0.930 . S
C912 C914 1.348 . S
C912 C915 1.356 . S
C912 O942 1.325 . S
N913 C916 1.314 . S
N913 C917 1.279 . S
C914 C912 1.348 . S
C914 C916 1.353 . S
C914 H956 0.929 . S
C915 C912 1.356 . S
C915 C917 1.358 . S
C915 H957 0.930 . S
C916 N913 1.314 . S
C916 C914 1.353 . S
C916 H958 0.930 . S
C917 N913 1.279 . S
C917 C915 1.358 . S
C917 H959 0.930 . S
C918 C919 1.348 . S
C918 C920 1.356 . S
C918 O943 1.325 . S
C919 C918 1.348 . S
C919 C921 1.353 . S
C919 H960 0.929 . S
C920 C918 1.356 . S
C920 C922 1.358 . S
C920 H961 0.930 . S
C921 C919 1.353 . S
C921 N923 1.314 . S
C921 H962 0.930 . S
C922 C920 1.358 . S
C922 N923 1.279 . S
C922 H963 0.930 . S
N923 C921 1.314 . S
N923 C922 1.279 . S
C924 C926 1.353 . S
C924 N927 1.314 . S
C924 H930 0.930 1_545 S
C925 N927 1.279 . S
C925 C928 1.358 . S
C925 H931 0.930 . S
C926 C924 1.353 . S
C926 C929 1.348 . S
C926 H964 0.929 . S
N927 Li882 1.990 . S
N927 C924 1.314 . S
N927 C925 1.279 . S
C928 C925 1.358 . S
C928 C929 1.356 . S
C928 H965 0.930 . S
C929 C926 1.348 . S
C929 C928 1.356 . S
H930 C924 0.930 1_565 S
H931 C925 0.930 . S
C932 N933 1.314 1_545 S
C932 C934 1.353 . S
C932 H938 0.930 . S
N933 Li883 1.990 . S
N933 C932 1.314 1_565 S
N933 C936 1.279 . S
C934 C932 1.353 . S
C934 C937 1.348 1_545 S
C934 H966 0.929 . S
C935 C936 1.358 . S
C935 C937 1.356 . S
C935 H967 0.930 . S
C936 N933 1.279 . S
C936 C935 1.358 . S
C936 H939 0.930 . S
C937 C934 1.348 1_565 S
C937 C935 1.356 . S
H938 C932 0.930 . S
H939 C936 0.930 . S
O940 Li880 1.956 . S
O940 Li881 1.970 1_545 S
O940 Li882 1.961 . S
O940 C884 1.325 . S
O941 Li880 1.970 1_565 S
O941 Li881 1.956 . S
O941 Li883 1.961 . S
O941 C890 1.325 . S
O942 Li880 1.961 . S
O942 Li882 1.956 . S
O942 Li883 1.970 1_545 S
O942 C912 1.325 . S
O943 Li881 1.961 . S
O943 Li882 1.970 1_565 S
O943 Li883 1.956 . S
O943 C918 1.325 . S
H944 C886 0.929 . S
H945 C887 0.930 . S
H946 C888 0.930 . S
H947 C889 0.930 . S
H948 C891 0.930 . S
H949 C893 0.929 1_545 S
H950 C894 0.930 . S
H951 C895 0.930 . S
H952 C898 0.930 . S
H953 C901 0.929 . S
H954 C906 0.929 . S
H955 C907 0.930 . S
H956 C914 0.929 . S
H957 C915 0.930 . S
H958 C916 0.930 . S
H959 C917 0.930 . S
H960 C919 0.929 . S
H961 C920 0.930 . S
H962 C921 0.930 . S
H963 C922 0.930 . S
H964 C926 0.929 . S
H965 C928 0.930 . S
H966 C934 0.929 . S
H967 C935 0.930 . S
Li968 N985 1.990 . S
Li968 O1028 1.956 . S
Li968 O1029 1.970 . S
Li968 O1030 1.961 . S
Li969 N993 1.990 . S
Li969 O1028 1.970 . S
Li969 O1029 1.956 . S
Li969 O1031 1.961 . S
Li970 N1015 1.990 1_554 S
Li970 O1028 1.961 . S
Li970 O1030 1.956 . S
Li970 O1031 1.970 . S
Li971 N1021 1.990 . S
Li971 O1029 1.961 . S
Li971 O1030 1.970 . S
Li971 O1031 1.956 . S
C972 C974 1.348 . S
C972 C975 1.356 . S
C972 O1028 1.325 . S
N973 C976 1.314 . S
N973 C977 1.279 1_554 S
C974 C972 1.348 . S
C974 C976 1.353 . S
C974 H1032 0.929 . S
C975 C972 1.356 . S
C975 C977 1.358 1_554 S
C975 H1033 0.930 1_554 S
C976 N973 1.314 . S
C976 C974 1.353 . S
C976 H1034 0.930 . S
C977 N973 1.279 1_556 S
C977 C975 1.358 1_556 S
C977 H1035 0.930 . S
C978 C981 1.348 . S
C978 C982 1.356 . S
C978 O1029 1.325 . S
C979 N980 1.279 . S
C979 C982 1.358 . S
C979 H1036 0.930 . S
N980 C979 1.279 . S
N980 C983 1.314 . S
C981 C978 1.348 . S
C981 C983 1.353 . S
C981 H1037 0.929 . S
C982 C978 1.356 . S
C982 C979 1.358 . S
C982 H1038 0.930 . S
C983 N980 1.314 . S
C983 C981 1.353 . S
C983 H1039 0.930 . S
C984 N985 1.314 . S
C984 C989 1.353 . S
C984 H990 0.930 . S
N985 Li968 1.990 . S
N985 C984 1.314 . S
N985 C987 1.279 . S
C986 C987 1.358 . S
C986 C988 1.356 . S
C986 H1040 0.930 . S
C987 N985 1.279 . S
C987 C986 1.358 . S
C987 H991 0.930 . S
C988 C986 1.356 . S
C988 C989 1.348 . S
C989 C984 1.353 . S
C989 C988 1.348 . S
C989 H1041 0.929 . S
H990 C984 0.930 . S
H991 C987 0.930 . S
C992 N993 1.314 . S
C992 C994 1.353 . S
C992 H998 0.930 . S
N993 Li969 1.990 . S
N993 C992 1.314 . S
N993 C996 1.279 . S
C994 C992 1.353 . S
C994 C997 1.348 . S
C994 H1042 0.929 . S
C995 C996 1.358 . S
C995 C997 1.356 . S
C995 H1043 0.930 . S
C996 N993 1.279 . S
C996 C995 1.358 . S
C996 H999 0.930 . S
C997 C994 1.348 . S
C997 C995 1.356 . S
H998 C992 0.930 . S
H999 C996 0.930 . S
C1000 C1002 1.348 . S
C1000 C1003 1.356 . S
C1000 O1030 1.325 . S
N1001 C1004 1.314 . S
N1001 C1005 1.279 . S
C1002 C1000 1.348 . S
C1002 C1004 1.353 . S
C1002 H1044 0.929 . S
C1003 C1000 1.356 . S
C1003 C1005 1.358 . S
C1003 H1045 0.930 . S
C1004 N1001 1.314 . S
C1004 C1002 1.353 . S
C1004 H1046 0.930 . S
C1005 N1001 1.279 . S
C1005 C1003 1.358 . S
C1005 H1047 0.930 . S
C1006 C1007 1.353 . S
C1006 C1008 1.354 1_556 S
C1006 O1031 1.322 1_556 S
C1007 C1006 1.353 . S
C1007 C1009 1.353 . S
C1007 H1048 0.929 . S
C1008 C1006 1.354 1_554 S
C1008 C1010 1.358 1_554 S
C1008 H1049 0.930 . S
C1009 C1007 1.353 . S
C1009 N1011 1.314 . S
C1009 H1050 0.930 . S
C1010 C1008 1.358 1_556 S
C1010 N1011 1.279 . S
C1010 H1051 0.930 1_556 S
N1011 C1009 1.314 . S
N1011 C1010 1.279 . S
C1012 C1014 1.353 . S
C1012 N1015 1.314 . S
C1012 H1018 0.930 . S
C1013 N1015 1.279 . S
C1013 C1016 1.358 . S
C1013 H1019 0.930 . S
C1014 C1012 1.353 . S
C1014 C1017 1.348 . S
C1014 H1052 0.929 . S
N1015 Li970 1.990 1_556 S
N1015 C1012 1.314 . S
N1015 C1013 1.279 . S
C1016 C1013 1.358 . S
C1016 C1017 1.356 . S
C1016 H1053 0.930 . S
C1017 C1014 1.348 . S
C1017 C1016 1.356 . S
H1018 C1012 0.930 . S
H1019 C1013 0.930 . S
C1020 N1021 1.314 . S
C1020 C1022 1.353 . S
C1020 H1026 0.930 . S
N1021 Li971 1.990 . S
N1021 C1020 1.314 . S
N1021 C1024 1.279 . S
C1022 C1020 1.353 . S
C1022 C1025 1.348 . S
C1022 H1054 0.929 . S
C1023 C1024 1.358 . S
C1023 C1025 1.356 . S
C1023 H1055 0.930 . S
C1024 N1021 1.279 . S
C1024 C1023 1.358 . S
C1024 H1027 0.930 . S
C1025 C1022 1.348 . S
C1025 C1023 1.356 . S
H1026 C1020 0.930 . S
H1027 C1024 0.930 . S
O1028 Li968 1.956 . S
O1028 Li969 1.970 . S
O1028 Li970 1.961 . S
O1028 C972 1.325 . S
O1029 Li968 1.970 . S
O1029 Li969 1.956 . S
O1029 Li971 1.961 . S
O1029 C978 1.325 . S
O1030 Li968 1.961 . S
O1030 Li970 1.956 . S
O1030 Li971 1.970 . S
O1030 C1000 1.325 . S
O1031 Li969 1.961 . S
O1031 Li970 1.970 . S
O1031 Li971 1.956 . S
O1031 C1006 1.322 1_554 S
H1032 C974 0.929 . S
H1033 C975 0.930 1_556 S
H1034 C976 0.930 . S
H1035 C977 0.930 . S
H1036 C979 0.930 . S
H1037 C981 0.929 . S
H1038 C982 0.930 . S
H1039 C983 0.930 . S
H1040 C986 0.930 . S
H1041 C989 0.929 . S
H1042 C994 0.929 . S
H1043 C995 0.930 . S
H1044 C1002 0.929 . S
H1045 C1003 0.930 . S
H1046 C1004 0.930 . S
H1047 C1005 0.930 . S
H1048 C1007 0.929 . S
H1049 C1008 0.930 . S
H1050 C1009 0.930 . S
H1051 C1010 0.930 1_554 S
H1052 C1014 0.929 . S
H1053 C1016 0.930 . S
H1054 C1022 0.929 . S
H1055 C1023 0.930 . S
C1056 C1057 1.387 . S
C1056 H1060 0.950 . S
C1056 C1065 1.390 . S
C1057 C1056 1.387 . S
C1057 C1059 1.387 . S
H1058 C1065 0.950 . S
C1059 C1057 1.387 . S
C1059 C1061 1.390 . S
C1059 H1063 0.950 . S
H1060 C1056 0.950 . S
C1061 C1059 1.390 . S
C1061 C1062 1.387 . S
C1061 H1064 0.950 . S
C1062 C1061 1.387 . S
C1062 C1065 1.387 . S
H1063 C1059 0.950 . S
H1064 C1061 0.950 . S
C1065 C1056 1.390 . S
C1065 H1058 0.950 . S
C1065 C1062 1.387 . S
C1066 C1067 1.387 . S
C1066 H1070 0.950 . S
C1066 C1075 1.390 . S
C1067 C1066 1.387 . S
C1067 C1069 1.387 . S
H1068 C1075 0.950 . S
C1069 C1067 1.387 . S
C1069 C1071 1.390 . S
C1069 H1073 0.950 . S
H1070 C1066 0.950 . S
C1071 C1069 1.390 . S
C1071 C1072 1.387 . S
C1071 H1074 0.950 . S
C1072 C1071 1.387 . S
C1072 C1075 1.387 . S
H1073 C1069 0.950 . S
H1074 C1071 0.950 . S
C1075 C1066 1.390 . S
C1075 H1068 0.950 . S
C1075 C1072 1.387 . S
C1076 C1077 1.387 . S
C1076 H1080 0.950 . S
C1076 C1085 1.390 . S
C1077 C1076 1.387 . S
C1077 C1079 1.387 . S
H1078 C1085 0.950 . S
C1079 C1077 1.387 . S
C1079 C1081 1.390 . S
C1079 H1083 0.950 . S
H1080 C1076 0.950 . S
C1081 C1079 1.390 . S
C1081 C1082 1.387 . S
C1081 H1084 0.950 . S
C1082 C1081 1.387 . S
C1082 C1085 1.387 . S
H1083 C1079 0.950 . S
H1084 C1081 0.950 . S
C1085 C1076 1.390 . S
C1085 H1078 0.950 . S
C1085 C1082 1.387 . S
C1086 C1087 1.387 . S
C1086 H1090 0.950 . S
C1086 C1095 1.390 . S
C1087 C1086 1.387 . S
C1087 C1089 1.387 . S
H1088 C1095 0.950 . S
C1089 C1087 1.387 . S
C1089 C1091 1.390 . S
C1089 H1093 0.950 . S
H1090 C1086 0.950 . S
C1091 C1089 1.390 . S
C1091 C1092 1.387 . S
C1091 H1094 0.950 . S
C1092 C1091 1.387 . S
C1092 C1095 1.387 . S
H1093 C1089 0.950 . S
H1094 C1091 0.950 . S
C1095 C1086 1.390 . S
C1095 H1088 0.950 . S
C1095 C1092 1.387 . S
C1096 C1097 1.387 . S
C1096 H1100 0.950 . S
C1096 C1105 1.390 . S
C1097 C1096 1.387 . S
C1097 C1099 1.387 . S
H1098 C1105 0.950 . S
C1099 C1097 1.387 . S
C1099 C1101 1.390 . S
C1099 H1103 0.950 . S
H1100 C1096 0.950 . S
C1101 C1099 1.390 . S
C1101 C1102 1.387 . S
C1101 H1104 0.950 . S
C1102 C1101 1.387 . S
C1102 C1105 1.387 . S
H1103 C1099 0.950 . S
H1104 C1101 0.950 . S
C1105 C1096 1.390 . S
C1105 H1098 0.950 . S
C1105 C1102 1.387 . S
C1106 C1107 1.387 . S
C1106 H1110 0.950 . S
C1106 C1115 1.390 . S
C1107 C1106 1.387 . S
C1107 C1109 1.387 . S
H1108 C1115 0.950 . S
C1109 C1107 1.387 . S
C1109 C1111 1.390 . S
C1109 H1113 0.950 . S
H1110 C1106 0.950 . S
C1111 C1109 1.390 . S
C1111 C1112 1.387 . S
C1111 H1114 0.950 . S
C1112 C1111 1.387 . S
C1112 C1115 1.387 . S
H1113 C1109 0.950 . S
H1114 C1111 0.950 . S
C1115 C1106 1.390 . S
C1115 H1108 0.950 . S
C1115 C1112 1.387 . S
C1116 C1117 1.387 . S
C1116 H1120 0.950 . S
C1116 C1125 1.390 1_565 S
C1117 C1116 1.387 . S
C1117 C1119 1.387 . S
H1118 C1125 0.950 . S
C1119 C1117 1.387 . S
C1119 C1121 1.390 1_565 S
C1119 H1123 0.950 . S
H1120 C1116 0.950 . S
C1121 C1119 1.390 1_545 S
C1121 C1122 1.387 . S
C1121 H1124 0.950 . S
C1122 C1121 1.387 . S
C1122 C1125 1.387 . S
H1123 C1119 0.950 . S
H1124 C1121 0.950 . S
C1125 C1116 1.390 1_545 S
C1125 H1118 0.950 . S
C1125 C1122 1.387 . S
C1126 C1127 1.387 . S
C1126 H1130 0.950 . S
C1126 C1135 1.390 . S
C1127 C1126 1.387 . S
C1127 C1129 1.387 . S
H1128 C1135 0.950 . S
C1129 C1127 1.387 . S
C1129 C1131 1.390 . S
C1129 H1133 0.950 . S
H1130 C1126 0.950 . S
C1131 C1129 1.390 . S
C1131 C1132 1.387 . S
C1131 H1134 0.950 . S
C1132 C1131 1.387 . S
C1132 C1135 1.387 . S
H1133 C1129 0.950 . S
H1134 C1131 0.950 . S
C1135 C1126 1.390 . S
C1135 H1128 0.950 . S
C1135 C1132 1.387 . S
C1136 C1137 1.387 . S
C1136 H1140 0.950 . S
C1136 C1145 1.390 1_655 S
C1137 C1136 1.387 . S
C1137 C1139 1.387 . S
H1138 C1145 0.950 . S
C1139 C1137 1.387 . S
C1139 C1141 1.390 1_655 S
C1139 H1143 0.950 . S
H1140 C1136 0.950 . S
C1141 C1139 1.390 1_455 S
C1141 C1142 1.387 . S
C1141 H1144 0.950 . S
C1142 C1141 1.387 . S
C1142 C1145 1.387 . S
H1143 C1139 0.950 . S
H1144 C1141 0.950 . S
C1145 C1136 1.390 1_455 S
C1145 H1138 0.950 . S
C1145 C1142 1.387 . S
C1146 C1147 1.387 . S
C1146 H1150 0.950 . S
C1146 C1155 1.390 1_455 S
C1147 C1146 1.387 . S
C1147 C1149 1.387 . S
H1148 C1155 0.950 . S
C1149 C1147 1.387 . S
C1149 C1151 1.390 1_455 S
C1149 H1153 0.950 . S
H1150 C1146 0.950 . S
C1151 C1149 1.390 1_655 S
C1151 C1152 1.387 . S
C1151 H1154 0.950 . S
C1152 C1151 1.387 . S
C1152 C1155 1.387 . S
H1153 C1149 0.950 . S
H1154 C1151 0.950 . S
C1155 C1146 1.390 1_655 S
C1155 H1148 0.950 . S
C1155 C1152 1.387 . S
C1156 C1157 1.387 . S
C1156 H1160 0.950 . S
C1156 C1165 1.390 1_565 S
C1157 C1156 1.387 . S
C1157 C1159 1.387 . S
H1158 C1165 0.950 . S
C1159 C1157 1.387 . S
C1159 C1161 1.390 1_565 S
C1159 H1163 0.950 . S
H1160 C1156 0.950 . S
C1161 C1159 1.390 1_545 S
C1161 C1162 1.387 . S
C1161 H1164 0.950 . S
C1162 C1161 1.387 . S
C1162 C1165 1.387 . S
H1163 C1159 0.950 . S
H1164 C1161 0.950 . S
C1165 C1156 1.390 1_545 S
C1165 H1158 0.950 . S
C1165 C1162 1.387 . S
C1166 C1167 1.387 . S
C1166 H1170 0.950 . S
C1166 C1175 1.390 . S
C1167 C1166 1.387 . S
C1167 C1169 1.387 . S
H1168 C1175 0.950 . S
C1169 C1167 1.387 . S
C1169 C1171 1.390 . S
C1169 H1173 0.950 . S
H1170 C1166 0.950 . S
C1171 C1169 1.390 . S
C1171 C1172 1.387 . S
C1171 H1174 0.950 . S
C1172 C1171 1.387 . S
C1172 C1175 1.387 . S
H1173 C1169 0.950 . S
H1174 C1171 0.950 . S
C1175 C1166 1.390 . S
C1175 H1168 0.950 . S
C1175 C1172 1.387 . S
C1176 C1177 1.387 . S
C1176 H1180 0.950 . S
C1176 C1185 1.390 . S
C1177 C1176 1.387 . S
C1177 C1179 1.387 . S
H1178 C1185 0.950 . S
C1179 C1177 1.387 . S
C1179 C1181 1.390 . S
C1179 H1183 0.950 . S
H1180 C1176 0.950 . S
C1181 C1179 1.390 . S
C1181 C1182 1.387 . S
C1181 H1184 0.950 . S
C1182 C1181 1.387 . S
C1182 C1185 1.387 . S
H1183 C1179 0.950 . S
H1184 C1181 0.950 . S
C1185 C1176 1.390 . S
C1185 H1178 0.950 . S
C1185 C1182 1.387 . S
C1186 C1187 1.387 . S
C1186 H1190 0.950 . S
C1186 C1195 1.390 . S
C1187 C1186 1.387 . S
C1187 C1189 1.387 . S
H1188 C1195 0.950 . S
C1189 C1187 1.387 . S
C1189 C1191 1.390 . S
C1189 H1193 0.950 . S
H1190 C1186 0.950 . S
C1191 C1189 1.390 . S
C1191 C1192 1.387 . S
C1191 H1194 0.950 . S
C1192 C1191 1.387 . S
C1192 C1195 1.387 . S
H1193 C1189 0.950 . S
H1194 C1191 0.950 . S
C1195 C1186 1.390 . S
C1195 H1188 0.950 . S
C1195 C1192 1.387 . S
C1196 C1197 1.387 . S
C1196 H1200 0.950 . S
C1196 C1205 1.390 1_554 S
C1197 C1196 1.387 . S
C1197 C1199 1.387 . S
H1198 C1205 0.950 . S
C1199 C1197 1.387 . S
C1199 C1201 1.390 1_554 S
C1199 H1203 0.950 . S
H1200 C1196 0.950 . S
C1201 C1199 1.390 1_556 S
C1201 C1202 1.387 . S
C1201 H1204 0.950 . S
C1202 C1201 1.387 . S
C1202 C1205 1.387 . S
H1203 C1199 0.950 . S
H1204 C1201 0.950 . S
C1205 C1196 1.390 1_556 S
C1205 H1198 0.950 . S
C1205 C1202 1.387 . S
C1206 C1207 1.387 . S
C1206 H1210 0.950 . S
C1206 C1215 1.390 . S
C1207 C1206 1.387 . S
C1207 C1209 1.387 . S
H1208 C1215 0.950 . S
C1209 C1207 1.387 . S
C1209 C1211 1.390 . S
C1209 H1213 0.950 . S
H1210 C1206 0.950 . S
C1211 C1209 1.390 . S
C1211 C1212 1.387 . S
C1211 H1214 0.950 . S
C1212 C1211 1.387 . S
C1212 C1215 1.387 . S
H1213 C1209 0.950 . S
H1214 C1211 0.950 . S
C1215 C1206 1.390 . S
C1215 H1208 0.950 . S
C1215 C1212 1.387 . S
C1216 C1217 1.387 . S
C1216 H1220 0.950 . S
C1216 C1225 1.390 . S
C1217 C1216 1.387 . S
C1217 C1219 1.387 . S
H1218 C1225 0.950 . S
C1219 C1217 1.387 . S
C1219 C1221 1.390 . S
C1219 H1223 0.950 . S
H1220 C1216 0.950 . S
C1221 C1219 1.390 . S
C1221 C1222 1.387 . S
C1221 H1224 0.950 . S
C1222 C1221 1.387 . S
C1222 C1225 1.387 . S
H1223 C1219 0.950 . S
H1224 C1221 0.950 . S
C1225 C1216 1.390 . S
C1225 H1218 0.950 . S
C1225 C1222 1.387 . S
C1226 C1227 1.387 . S
C1226 H1230 0.950 . S
C1226 C1235 1.390 1_554 S
C1227 C1226 1.387 . S
C1227 C1229 1.387 . S
H1228 C1235 0.950 . S
C1229 C1227 1.387 . S
C1229 C1231 1.390 1_554 S
C1229 H1233 0.950 . S
H1230 C1226 0.950 . S
C1231 C1229 1.390 1_556 S
C1231 C1232 1.387 . S
C1231 H1234 0.950 . S
C1232 C1231 1.387 . S
C1232 C1235 1.387 . S
H1233 C1229 0.950 . S
H1234 C1231 0.950 . S
C1235 C1226 1.390 1_556 S
C1235 H1228 0.950 . S
C1235 C1232 1.387 . S
C1236 C1237 1.387 . S
C1236 H1240 0.950 . S
C1236 C1245 1.390 1_545 S
C1237 C1236 1.387 . S
C1237 C1239 1.387 . S
H1238 C1245 0.950 . S
C1239 C1237 1.387 . S
C1239 C1241 1.390 1_545 S
C1239 H1243 0.950 . S
H1240 C1236 0.950 . S
C1241 C1239 1.390 1_565 S
C1241 C1242 1.387 . S
C1241 H1244 0.950 . S
C1242 C1241 1.387 . S
C1242 C1245 1.387 . S
H1243 C1239 0.950 . S
H1244 C1241 0.950 . S
C1245 C1236 1.390 1_565 S
C1245 H1238 0.950 . S
C1245 C1242 1.387 . S
C1246 C1247 1.387 . S
C1246 H1250 0.950 . S
C1246 C1255 1.390 . S
C1247 C1246 1.387 . S
C1247 C1249 1.387 . S
H1248 C1255 0.950 . S
C1249 C1247 1.387 . S
C1249 C1251 1.390 . S
C1249 H1253 0.950 . S
H1250 C1246 0.950 . S
C1251 C1249 1.390 . S
C1251 C1252 1.387 . S
C1251 H1254 0.950 . S
C1252 C1251 1.387 . S
C1252 C1255 1.387 . S
H1253 C1249 0.950 . S
H1254 C1251 0.950 . S
C1255 C1246 1.390 . S
C1255 H1248 0.950 . S
C1255 C1252 1.387 . S
C1256 C1257 1.372 1_655 S
C1256 H1260 0.940 . S
C1256 C1265 1.417 . S
C1257 C1256 1.372 1_455 S
C1257 C1259 1.387 . S
H1258 C1265 0.950 . S
C1259 C1257 1.387 . S
C1259 C1261 1.410 . S
C1259 H1263 0.950 . S
H1260 C1256 0.940 . S
C1261 C1259 1.410 . S
C1261 C1262 1.376 1_455 S
C1261 H1264 0.943 . S
C1262 C1261 1.376 1_655 S
C1262 C1265 1.387 . S
H1263 C1259 0.950 . S
H1264 C1261 0.943 . S
C1265 C1256 1.417 . S
C1265 H1258 0.950 . S
C1265 C1262 1.387 . S
C1266 C1267 1.387 . S
C1266 H1270 0.950 . S
C1266 C1275 1.390 1_565 S
C1267 C1266 1.387 . S
C1267 C1269 1.387 . S
H1268 C1275 0.950 . S
C1269 C1267 1.387 . S
C1269 C1271 1.390 1_565 S
C1269 H1273 0.950 . S
H1270 C1266 0.950 . S
C1271 C1269 1.390 1_545 S
C1271 C1272 1.387 . S
C1271 H1274 0.950 . S
C1272 C1271 1.387 . S
C1272 C1275 1.387 . S
H1273 C1269 0.950 . S
H1274 C1271 0.950 . S
C1275 C1266 1.390 1_545 S
C1275 H1268 0.950 . S
C1275 C1272 1.387 . S
C1276 C1277 1.387 . S
C1276 H1280 0.950 . S
C1276 C1285 1.390 . S
C1277 C1276 1.387 . S
C1277 C1279 1.387 . S
H1278 C1285 0.950 . S
C1279 C1277 1.387 . S
C1279 C1281 1.390 . S
C1279 H1283 0.950 . S
H1280 C1276 0.950 . S
C1281 C1279 1.390 . S
C1281 C1282 1.387 . S
C1281 H1284 0.950 . S
C1282 C1281 1.387 . S
C1282 C1285 1.387 . S
H1283 C1279 0.950 . S
H1284 C1281 0.950 . S
C1285 C1276 1.390 . S
C1285 H1278 0.950 . S
C1285 C1282 1.387 . S
C1286 C1287 1.387 . S
C1286 H1290 0.950 . S
C1286 C1295 1.390 1_655 S
C1287 C1286 1.387 . S
C1287 C1289 1.387 . S
H1288 C1295 0.950 . S
C1289 C1287 1.387 . S
C1289 C1291 1.390 1_655 S
C1289 H1293 0.950 . S
H1290 C1286 0.950 . S
C1291 C1289 1.390 1_455 S
C1291 C1292 1.387 . S
C1291 H1294 0.950 . S
C1292 C1291 1.387 . S
C1292 C1295 1.387 . S
H1293 C1289 0.950 . S
H1294 C1291 0.950 . S
C1295 C1286 1.390 1_455 S
C1295 H1288 0.950 . S
C1295 C1292 1.387 . S
C1057 C57 1.863 . S
C1062 C733 1.857 . S
C1067 C145 1.862 . S
C1072 C812 1.858 . S
C1077 C900 1.816 . S
C1082 C233 1.811 . S
C1087 C988 1.862 . S
C1092 C321 1.859 . S
C1097 C557 1.863 . S
C1102 C401 1.858 . S
C1107 C645 1.815 . S
C1112 C497 1.811 . S
C1117 C20 1.591 . S
C1122 C284 1.595 . S
C1127 C381 1.594 . S
C1132 C108 1.594 . S
C1137 C460 1.544 . S
C1142 C196 1.538 . S
C1147 C577 1.590 . S
C1152 C849 1.594 . S
C1157 C937 1.544 . S
C1162 C665 1.538 . S
C1167 C753 1.594 . S
C1172 C1025 1.594 . S
C1177 C548 1.984 . S
C1182 C49 1.987 . S
C1187 C137 1.965 . S
C1192 C636 1.967 . S
C1197 C724 1.960 . S
C1202 C225 1.962 . S
C1207 C821 1.983 . S
C1212 C313 1.986 . S
C1217 C409 1.961 . S
C1222 C909 1.963 . S
C1227 C997 1.965 . S
C1232 C489 1.967 . S
C1237 C29 1.225 . S
C1242 C673 1.228 . S
C1247 C761 1.182 . S
C1252 C117 1.183 . S
C1257 C841 1.231 . S
C1262 C205 1.233 . S
C1267 C293 1.232 . S
C1272 C929 1.234 . S
C1277 C1017 1.181 . S
C1282 C372 1.181 . S
C1287 C585 1.232 . S
C1292 C469 1.234 . S
