# Generated by pormake.
# Topology uoi, (4)-cn, num edge types: 1
# Building blocks:
#     Node 0, Type 0, BuildingBlock: GALJAG_clean_sbu_0, # of connection points: 4
#     Node 1, Type 0, BuildingBlock: GALJAG_clean_sbu_0, # of connection points: 4
#     Node 2, Type 0, BuildingBlock: GALJAG_clean_sbu_0, # of connection points: 4
#     Node 3, Type 0, BuildingBlock: GALJAG_clean_sbu_0, # of connection points: 4
#     Node 4, Type 0, BuildingBlock: GALJAG_clean_sbu_0, # of connection points: 4
#     Node 5, Type 0, BuildingBlock: GALJAG_clean_sbu_0, # of connection points: 4
#     Node 6, Type 0, BuildingBlock: GALJAG_clean_sbu_0, # of connection points: 4
#     Node 7, Type 0, BuildingBlock: GALJAG_clean_sbu_0, # of connection points: 4
#     Node 8, Type 0, BuildingBlock: GALJAG_clean_sbu_0, # of connection points: 4
#     Node 9, Type 0, BuildingBlock: GALJAG_clean_sbu_0, # of connection points: 4
#     Node 10, Type 0, BuildingBlock: GALJAG_clean_sbu_0, # of connection points: 4
#     Node 11, Type 0, BuildingBlock: GALJAG_clean_sbu_0, # of connection points: 4
#     Node 12, Type 0, BuildingBlock: GALJAG_clean_sbu_0, # of connection points: 4
#     Node 13, Type 0, BuildingBlock: GALJAG_clean_sbu_0, # of connection points: 4
#     Node 14, Type 0, BuildingBlock: GALJAG_clean_sbu_0, # of connection points: 4
#     Node 15, Type 0, BuildingBlock: GALJAG_clean_sbu_0, # of connection points: 4
#     Node 16, Type 0, BuildingBlock: GALJAG_clean_sbu_0, # of connection points: 4
#     Node 17, Type 0, BuildingBlock: GALJAG_clean_sbu_0, # of connection points: 4
#     Node 18, Type 0, BuildingBlock: GALJAG_clean_sbu_0, # of connection points: 4
#     Node 19, Type 0, BuildingBlock: GALJAG_clean_sbu_0, # of connection points: 4
#     Node 20, Type 0, BuildingBlock: GALJAG_clean_sbu_0, # of connection points: 4
#     Node 21, Type 0, BuildingBlock: GALJAG_clean_sbu_0, # of connection points: 4
#     Node 22, Type 0, BuildingBlock: GALJAG_clean_sbu_0, # of connection points: 4
#     Node 23, Type 0, BuildingBlock: GALJAG_clean_sbu_0, # of connection points: 4
#     Node 24, Type 0, BuildingBlock: GALJAG_clean_sbu_0, # of connection points: 4
#     Node 25, Type 0, BuildingBlock: GALJAG_clean_sbu_0, # of connection points: 4
#     Node 26, Type 0, BuildingBlock: GALJAG_clean_sbu_0, # of connection points: 4
#     Node 27, Type 0, BuildingBlock: GALJAG_clean_sbu_0, # of connection points: 4
#     Node 28, Type 0, BuildingBlock: GALJAG_clean_sbu_0, # of connection points: 4
#     Node 29, Type 0, BuildingBlock: GALJAG_clean_sbu_0, # of connection points: 4
#     Node 30, Type 0, BuildingBlock: GALJAG_clean_sbu_0, # of connection points: 4
#     Node 31, Type 0, BuildingBlock: GALJAG_clean_sbu_0, # of connection points: 4
#     Edge 32, Type (0, 0), BuildingBlock: CIFDUS_clean_linker_0, # of connection points: 2
#     Edge 33, Type (0, 0), BuildingBlock: CIFDUS_clean_linker_0, # of connection points: 2
#     Edge 34, Type (0, 0), BuildingBlock: CIFDUS_clean_linker_0, # of connection points: 2
#     Edge 35, Type (0, 0), BuildingBlock: CIFDUS_clean_linker_0, # of connection points: 2
#     Edge 36, Type (0, 0), BuildingBlock: CIFDUS_clean_linker_0, # of connection points: 2
#     Edge 37, Type (0, 0), BuildingBlock: CIFDUS_clean_linker_0, # of connection points: 2
#     Edge 38, Type (0, 0), BuildingBlock: CIFDUS_clean_linker_0, # of connection points: 2
#     Edge 39, Type (0, 0), BuildingBlock: CIFDUS_clean_linker_0, # of connection points: 2
#     Edge 40, Type (0, 0), BuildingBlock: CIFDUS_clean_linker_0, # of connection points: 2
#     Edge 41, Type (0, 0), BuildingBlock: CIFDUS_clean_linker_0, # of connection points: 2
#     Edge 42, Type (0, 0), BuildingBlock: CIFDUS_clean_linker_0, # of connection points: 2
#     Edge 43, Type (0, 0), BuildingBlock: CIFDUS_clean_linker_0, # of connection points: 2
#     Edge 44, Type (0, 0), BuildingBlock: CIFDUS_clean_linker_0, # of connection points: 2
#     Edge 45, Type (0, 0), BuildingBlock: CIFDUS_clean_linker_0, # of connection points: 2
#     Edge 46, Type (0, 0), BuildingBlock: CIFDUS_clean_linker_0, # of connection points: 2
#     Edge 47, Type (0, 0), BuildingBlock: CIFDUS_clean_linker_0, # of connection points: 2
#     Edge 48, Type (0, 0), BuildingBlock: CIFDUS_clean_linker_0, # of connection points: 2
#     Edge 49, Type (0, 0), BuildingBlock: CIFDUS_clean_linker_0, # of connection points: 2
#     Edge 50, Type (0, 0), BuildingBlock: CIFDUS_clean_linker_0, # of connection points: 2
#     Edge 51, Type (0, 0), BuildingBlock: CIFDUS_clean_linker_0, # of connection points: 2
#     Edge 52, Type (0, 0), BuildingBlock: CIFDUS_clean_linker_0, # of connection points: 2
#     Edge 53, Type (0, 0), BuildingBlock: CIFDUS_clean_linker_0, # of connection points: 2
#     Edge 54, Type (0, 0), BuildingBlock: CIFDUS_clean_linker_0, # of connection points: 2
#     Edge 55, Type (0, 0), BuildingBlock: CIFDUS_clean_linker_0, # of connection points: 2
#     Edge 56, Type (0, 0), BuildingBlock: CIFDUS_clean_linker_0, # of connection points: 2
#     Edge 57, Type (0, 0), BuildingBlock: CIFDUS_clean_linker_0, # of connection points: 2
#     Edge 58, Type (0, 0), BuildingBlock: CIFDUS_clean_linker_0, # of connection points: 2
#     Edge 59, Type (0, 0), BuildingBlock: CIFDUS_clean_linker_0, # of connection points: 2
#     Edge 60, Type (0, 0), BuildingBlock: CIFDUS_clean_linker_0, # of connection points: 2
#     Edge 61, Type (0, 0), BuildingBlock: CIFDUS_clean_linker_0, # of connection points: 2
#     Edge 62, Type (0, 0), BuildingBlock: CIFDUS_clean_linker_0, # of connection points: 2
#     Edge 63, Type (0, 0), BuildingBlock: CIFDUS_clean_linker_0, # of connection points: 2
#     Edge 64, Type (0, 0), BuildingBlock: CIFDUS_clean_linker_0, # of connection points: 2
#     Edge 65, Type (0, 0), BuildingBlock: CIFDUS_clean_linker_0, # of connection points: 2
#     Edge 66, Type (0, 0), BuildingBlock: CIFDUS_clean_linker_0, # of connection points: 2
#     Edge 67, Type (0, 0), BuildingBlock: CIFDUS_clean_linker_0, # of connection points: 2
#     Edge 68, Type (0, 0), BuildingBlock: CIFDUS_clean_linker_0, # of connection points: 2
#     Edge 69, Type (0, 0), BuildingBlock: CIFDUS_clean_linker_0, # of connection points: 2
#     Edge 70, Type (0, 0), BuildingBlock: CIFDUS_clean_linker_0, # of connection points: 2
#     Edge 71, Type (0, 0), BuildingBlock: CIFDUS_clean_linker_0, # of connection points: 2
#     Edge 72, Type (0, 0), BuildingBlock: CIFDUS_clean_linker_0, # of connection points: 2
#     Edge 73, Type (0, 0), BuildingBlock: CIFDUS_clean_linker_0, # of connection points: 2
#     Edge 74, Type (0, 0), BuildingBlock: CIFDUS_clean_linker_0, # of connection points: 2
#     Edge 75, Type (0, 0), BuildingBlock: CIFDUS_clean_linker_0, # of connection points: 2
#     Edge 76, Type (0, 0), BuildingBlock: CIFDUS_clean_linker_0, # of connection points: 2
#     Edge 77, Type (0, 0), BuildingBlock: CIFDUS_clean_linker_0, # of connection points: 2
#     Edge 78, Type (0, 0), BuildingBlock: CIFDUS_clean_linker_0, # of connection points: 2
#     Edge 79, Type (0, 0), BuildingBlock: CIFDUS_clean_linker_0, # of connection points: 2
#     Edge 80, Type (0, 0), BuildingBlock: CIFDUS_clean_linker_0, # of connection points: 2
#     Edge 81, Type (0, 0), BuildingBlock: CIFDUS_clean_linker_0, # of connection points: 2
#     Edge 82, Type (0, 0), BuildingBlock: CIFDUS_clean_linker_0, # of connection points: 2
#     Edge 83, Type (0, 0), BuildingBlock: CIFDUS_clean_linker_0, # of connection points: 2
#     Edge 84, Type (0, 0), BuildingBlock: CIFDUS_clean_linker_0, # of connection points: 2
#     Edge 85, Type (0, 0), BuildingBlock: CIFDUS_clean_linker_0, # of connection points: 2
#     Edge 86, Type (0, 0), BuildingBlock: CIFDUS_clean_linker_0, # of connection points: 2
#     Edge 87, Type (0, 0), BuildingBlock: CIFDUS_clean_linker_0, # of connection points: 2
#     Edge 88, Type (0, 0), BuildingBlock: CIFDUS_clean_linker_0, # of connection points: 2
#     Edge 89, Type (0, 0), BuildingBlock: CIFDUS_clean_linker_0, # of connection points: 2
#     Edge 90, Type (0, 0), BuildingBlock: CIFDUS_clean_linker_0, # of connection points: 2
#     Edge 91, Type (0, 0), BuildingBlock: CIFDUS_clean_linker_0, # of connection points: 2
#     Edge 92, Type (0, 0), BuildingBlock: CIFDUS_clean_linker_0, # of connection points: 2
#     Edge 93, Type (0, 0), BuildingBlock: CIFDUS_clean_linker_0, # of connection points: 2
#     Edge 94, Type (0, 0), BuildingBlock: CIFDUS_clean_linker_0, # of connection points: 2
#     Edge 95, Type (0, 0), BuildingBlock: CIFDUS_clean_linker_0, # of connection points: 2
# Relax obj value: 0.180
# Max RMSD: 0.417
# Mean RMSD: 0.267
data_MOF--net-uoi--node1-GALJAG_clean_sbu_0--edge1-CIFDUS_clean_linker_0
_symmetry_space_group_name_H-M    P1
_symmetry_Int_Tables_number       1
_symmetry_cell_setting            triclinic
loop_
_symmetry_equiv_pos_as_xyz
'x, y, z'
_cell_length_a     39.011617
_cell_length_b     60.498655
_cell_length_c     20.745987
_cell_angle_alpha  90.093719
_cell_angle_beta   90.099984
_cell_angle_gamma 90.017992
loop_
_atom_site_label
_atom_site_type_symbol
_atom_site_fract_x
_atom_site_fract_y
_atom_site_fract_z
_atom_type_partial_charge
In0 In 0.31921 0.20408 0.25958 0.0
O1 O 0.27145 0.20742 0.19732 0.0
O2 O 0.30117 0.17779 0.18988 0.0
C3 C 0.30065 0.22933 0.35968 0.0
C4 C 0.36068 0.22531 0.17643 0.0
C5 C 0.33277 0.1751 0.35339 0.0
O6 O 0.27851 0.2186 0.32762 0.0
O7 O 0.3304 0.22925 0.33597 0.0
O8 O 0.35555 0.18816 0.33244 0.0
O9 O 0.30703 0.17345 0.31682 0.0
C10 C 0.27567 0.18881 0.17035 0.0
O11 O 0.36464 0.20496 0.18899 0.0
O12 O 0.33741 0.23475 0.20836 0.0
In13 In 0.04162 0.90353 0.6974 0.0
O14 O 0.07782 0.87471 0.67811 0.0
O15 O 0.08013 0.9025 0.61542 0.0
C16 C 0.02414 0.88826 0.81579 0.0
C17 C 0.98854 0.89768 0.61502 0.0
C18 C 0.06032 0.94591 0.71892 0.0
O19 O 0.05198 0.89815 0.80549 0.0
O20 O 0.00608 0.88533 0.76632 0.0
O21 O 0.02947 0.94027 0.71007 0.0
O22 O 0.08164 0.93027 0.71562 0.0
C23 C 0.09089 0.88335 0.62844 0.0
O24 O 0.01046 0.88294 0.62669 0.0
O25 O 0.99338 0.91571 0.64458 0.0
In26 In 0.1555 0.7816 0.70075 0.0
O27 O 0.12142 0.76709 0.62013 0.0
O28 O 0.15752 0.74628 0.66689 0.0
C29 C 0.11274 0.80287 0.78199 0.0
C30 C 0.18847 0.80682 0.61475 0.0
C31 C 0.19388 0.76902 0.8018 0.0
O32 O 0.107 0.78337 0.76286 0.0
O33 O 0.13687 0.81235 0.75261 0.0
O34 O 0.20539 0.78263 0.76116 0.0
O35 O 0.16493 0.76108 0.78843 0.0
C36 C 0.13525 0.74819 0.62332 0.0
O37 O 0.19964 0.78818 0.63231 0.0
O38 O 0.16087 0.81288 0.64111 0.0
In39 In 0.40163 0.09293 0.12912 0.0
O40 O 0.42525 0.07507 0.04398 0.0
O41 O 0.4428 0.10769 0.06461 0.0
C42 C 0.36843 0.05826 0.17996 0.0
C43 C 0.35344 0.11885 0.07436 0.0
C44 C 0.44557 0.09555 0.22859 0.0
O45 O 0.38266 0.05753 0.12532 0.0
O46 O 0.36955 0.07685 0.20781 0.0
O47 O 0.42072 0.10897 0.22333 0.0
O48 O 0.44862 0.08205 0.18263 0.0
C49 C 0.44486 0.09084 0.02882 0.0
O50 O 0.37692 0.12714 0.10898 0.0
O51 O 0.35345 0.09806 0.07218 0.0
In52 In 0.20597 0.80583 0.22933 0.0
O53 O 0.24582 0.79636 0.30172 0.0
O54 O 0.20365 0.77412 0.28971 0.0
C55 C 0.15547 0.8047 0.13998 0.0
C56 C 0.18282 0.83296 0.3216 0.0
C57 C 0.2601 0.80565 0.14993 0.0
O58 O 0.17181 0.822 0.15451 0.0
O59 O 0.16407 0.7877 0.1718 0.0
O60 O 0.2454 0.78825 0.1689 0.0
O61 O 0.24741 0.82355 0.1708 0.0
C62 C 0.23108 0.77885 0.3198 0.0
O63 O 0.16964 0.81441 0.30896 0.0
O64 O 0.20702 0.83878 0.28464 0.0
In65 In 0.37695 0.91055 0.43336 0.0
O66 O 0.3357 0.88411 0.41807 0.0
O67 O 0.32671 0.90928 0.48772 0.0
C68 C 0.42244 0.9048 0.33789 0.0
C69 C 0.41476 0.89637 0.53422 0.0
C70 C 0.35928 0.95136 0.39474 0.0
O71 O 0.39548 0.89319 0.34168 0.0
O72 O 0.42628 0.91882 0.3824 0.0
O73 O 0.37493 0.94798 0.44731 0.0
O74 O 0.35175 0.93413 0.36329 0.0
C75 C 0.31582 0.89206 0.46027 0.0
O76 O 0.40156 0.91545 0.53238 0.0
O77 O 0.40869 0.88449 0.48554 0.0
In78 In 0.19941 0.21578 0.76763 0.0
O79 O 0.15722 0.20555 0.83696 0.0
O80 O 0.18035 0.23795 0.84544 0.0
C81 C 0.23195 0.19635 0.67068 0.0
C82 C 0.2452 0.19913 0.8476 0.0
C83 C 0.16181 0.24038 0.68908 0.0
O84 O 0.2045 0.1883 0.69443 0.0
O85 O 0.24234 0.21441 0.69556 0.0
O86 O 0.18893 0.24806 0.71549 0.0
O87 O 0.15438 0.22044 0.70275 0.0
C88 C 0.15873 0.22401 0.86664 0.0
O89 O 0.24729 0.21931 0.8298 0.0
O90 O 0.22009 0.18813 0.82511 0.0
In91 In 0.10187 0.11422 0.85328 0.0
O92 O 0.14158 0.14067 0.8784 0.0
O93 O 0.15198 0.10758 0.90607 0.0
C94 C 0.09205 0.13084 0.73479 0.0
C95 C 0.05808 0.12446 0.9487 0.0
C96 C 0.0858 0.07156 0.82784 0.0
O97 O 0.11182 0.11477 0.74577 0.0
O98 O 0.08021 0.14001 0.78464 0.0
O99 O 0.06407 0.0857 0.84565 0.0
O100 O 0.11617 0.07871 0.8246 0.0
C101 C 0.16116 0.12755 0.90815 0.0
O102 O 0.08589 0.11432 0.95782 0.0
O103 O 0.05193 0.12943 0.8908 0.0
In104 In 0.7093 0.81853 0.69858 0.0
O105 O 0.74255 0.82438 0.78285 0.0
O106 O 0.69577 0.84313 0.78001 0.0
C107 C 0.67161 0.81329 0.59255 0.0
C108 C 0.68808 0.78291 0.76166 0.0
C109 C 0.7614 0.83252 0.62647 0.0
O110 O 0.68878 0.79801 0.61847 0.0
O111 O 0.67116 0.83158 0.62301 0.0
O112 O 0.73642 0.84485 0.64145 0.0
O113 O 0.76116 0.81342 0.65182 0.0
C114 C 0.72254 0.83758 0.81136 0.0
O115 O 0.66977 0.80016 0.75611 0.0
O116 O 0.71667 0.78333 0.73229 0.0
In117 In 0.91356 0.10063 0.36548 0.0
O118 O 0.95492 0.08714 0.43116 0.0
O119 O 0.94376 0.12158 0.43719 0.0
C120 C 0.89316 0.06152 0.31724 0.0
C121 C 0.85704 0.1169 0.42274 0.0
C122 C 0.9528 0.11634 0.2701 0.0
O123 O 0.90471 0.06371 0.37371 0.0
O124 O 0.89161 0.07913 0.28489 0.0
O125 O 0.92141 0.1216 0.27377 0.0
O126 O 0.96326 0.10335 0.31312 0.0
C127 C 0.96219 0.10566 0.45595 0.0
O128 O 0.87241 0.12733 0.37856 0.0
O129 O 0.86997 0.09845 0.43667 0.0
In130 In 0.74974 0.19248 0.23203 0.0
O131 O 0.77992 0.2085 0.31026 0.0
O132 O 0.72987 0.22166 0.29201 0.0
C133 C 0.70645 0.18143 0.13593 0.0
C134 C 0.7376 0.16076 0.31843 0.0
C135 C 0.80273 0.20562 0.16011 0.0
O136 O 0.7306 0.1693 0.15544 0.0
O137 O 0.70326 0.19957 0.16612 0.0
O138 O 0.77789 0.21807 0.17443 0.0
O139 O 0.80101 0.18611 0.18199 0.0
C140 C 0.75699 0.22223 0.32604 0.0
O141 O 0.71701 0.17637 0.30696 0.0
O142 O 0.76451 0.1605 0.28425 0.0
In143 In 0.58285 0.87914 0.93118 0.0
O144 O 0.5598 0.89674 0.01748 0.0
O145 O 0.54317 0.86375 0.99674 0.0
C146 C 0.61921 0.90901 0.86447 0.0
C147 C 0.63044 0.85465 0.99125 0.0
C148 C 0.53172 0.87966 0.84514 0.0
O149 O 0.60613 0.91333 0.91889 0.0
O150 O 0.61553 0.88925 0.84562 0.0
O151 O 0.55306 0.86372 0.84603 0.0
O152 O 0.53634 0.89427 0.88775 0.0
C153 C 0.54074 0.88059 0.03272 0.0
O154 O 0.61178 0.84606 0.94759 0.0
O155 O 0.62605 0.8751 -9e-05 0.0
In156 In 0.67764 0.20855 0.69796 0.0
O157 O 0.63828 0.21105 0.61658 0.0
O158 O 0.6644 0.24027 0.6461 0.0
C159 C 0.63963 0.18815 0.78826 0.0
C160 C 0.7204 0.18774 0.61731 0.0
C161 C 0.71347 0.22823 0.7929 0.0
O162 O 0.63137 0.20659 0.76456 0.0
O163 O 0.6637 0.1786 0.7586 0.0
O164 O 0.7249 0.21153 0.76362 0.0
O165 O 0.68607 0.236 0.77006 0.0
C166 C 0.64343 0.23145 0.60745 0.0
O167 O 0.72239 0.20821 0.62888 0.0
O168 O 0.69709 0.17753 0.64738 0.0
In169 In 0.60652 0.05826 0.62852 0.0
O170 O 0.63318 0.09157 0.63128 0.0
O171 O 0.65421 0.06681 0.57029 0.0
C172 C 0.56024 0.06425 0.72229 0.0
C173 C 0.5669 0.0621 0.52242 0.0
C174 C 0.63538 0.02239 0.68339 0.0
O175 O 0.5861 0.07668 0.71617 0.0
O176 O 0.55768 0.0491 0.68065 0.0
O177 O 0.61824 0.0212 0.63171 0.0
O178 O 0.63965 0.04175 0.70464 0.0
C179 C 0.65523 0.08664 0.58922 0.0
O180 O 0.58659 0.04574 0.53103 0.0
O181 O 0.56678 0.07597 0.56774 0.0
In182 In 0.85013 0.79144 0.18722 0.0
O183 O 0.86872 0.81309 0.10323 0.0
O184 O 0.86147 0.77828 0.08984 0.0
C185 C 0.84665 0.81109 0.30122 0.0
C186 C 0.78332 0.79324 0.15779 0.0
C187 C 0.89606 0.76406 0.23953 0.0
O188 O 0.86081 0.82091 0.25402 0.0
O189 O 0.83361 0.79239 0.28938 0.0
O190 O 0.86584 0.75776 0.22577 0.0
O191 O 0.90371 0.78327 0.21996 0.0
C192 C 0.86806 0.79677 0.06472 0.0
O193 O 0.79891 0.7749 0.16096 0.0
O194 O 0.80115 0.80998 0.17203 0.0
In195 In 0.85172 0.89323 0.19967 0.0
O196 O 0.80648 0.87091 0.17366 0.0
O197 O 0.80631 0.90364 0.13731 0.0
C198 C 0.87305 0.87476 0.31116 0.0
C199 C 0.89854 0.88163 0.11071 0.0
C200 C 0.85314 0.93585 0.23562 0.0
O201 O 0.84453 0.8844 0.3059 0.0
O202 O 0.88934 0.87282 0.25915 0.0
O203 O 0.86563 0.92943 0.18261 0.0
O204 O 0.8393 0.92093 0.26899 0.0
C205 C 0.79192 0.88502 0.13808 0.0
O206 O 0.90153 0.89885 0.14489 0.0
O207 O 0.87216 0.87019 0.122 0.0
In208 In 0.84796 0.71229 0.66928 0.0
O209 O 0.89159 0.69778 0.60564 0.0
O210 O 0.87103 0.72925 0.58281 0.0
C211 C 0.86265 0.69482 0.78617 0.0
C212 C 0.79265 0.69178 0.61816 0.0
C213 C 0.8348 0.75116 0.72741 0.0
O214 O 0.8797 0.71049 0.76241 0.0
O215 O 0.84158 0.68623 0.74755 0.0
O216 O 0.81128 0.73753 0.71357 0.0
O217 O 0.86408 0.74585 0.70691 0.0
C218 C 0.89209 0.71431 0.56854 0.0
O219 O 0.79576 0.71261 0.61671 0.0
O220 O 0.81723 0.68177 0.64484 0.0
In221 In 0.58865 0.38562 0.13152 0.0
O222 O 0.62999 0.35975 0.11161 0.0
O223 O 0.62905 0.38904 0.05436 0.0
C224 C 0.55765 0.37635 0.24328 0.0
C225 C 0.5372 0.37524 0.04946 0.0
C226 C 0.61592 0.42316 0.17873 0.0
O227 O 0.5813 0.364 0.22182 0.0
O228 O 0.54941 0.39229 0.20735 0.0
O229 O 0.59566 0.42328 0.13081 0.0
O230 O 0.62308 0.40421 0.20045 0.0
C231 C 0.6432 0.37071 0.06598 0.0
O232 O 0.5451 0.39506 0.06241 0.0
O233 O 0.55543 0.3609 0.07721 0.0
In234 In 0.7442 0.30235 0.23574 0.0
O235 O 0.71001 0.28538 0.16543 0.0
O236 O 0.76023 0.27163 0.17855 0.0
C237 C 0.7897 0.3113 0.33015 0.0
C238 C 0.76087 0.33063 0.14232 0.0
C239 C 0.68992 0.29554 0.31174 0.0
O240 O 0.76929 0.32531 0.30676 0.0
O241 O 0.78819 0.29229 0.30435 0.0
O242 O 0.71106 0.2806 0.29667 0.0
O243 O 0.69582 0.31442 0.28781 0.0
C244 C 0.7317 0.27092 0.14902 0.0
O245 O 0.77861 0.31392 0.1567 0.0
O246 O 0.73455 0.33379 0.17694 0.0
In247 In 0.90495 0.60602 0.57897 0.0
O248 O 0.87638 0.63845 0.56616 0.0
O249 O 0.85657 0.61011 0.51826 0.0
C250 C 0.95052 0.6149 0.67344 0.0
C251 C 0.94548 0.6038 0.47416 0.0
C252 C 0.87489 0.57251 0.64215 0.0
O253 O 0.92522 0.62742 0.66215 0.0
O254 O 0.9532 0.59859 0.63581 0.0
O255 O 0.88899 0.57006 0.58783 0.0
O256 O 0.8744 0.59211 0.66299 0.0
C257 C 0.85417 0.6306 0.52808 0.0
O258 O 0.92877 0.58737 0.49464 0.0
O259 O 0.94219 0.62119 0.50724 0.0
In260 In 0.82687 0.28891 0.77252 0.0
O261 O 0.86235 0.29199 0.86011 0.0
O262 O 0.84507 0.26005 0.83182 0.0
C263 C 0.86228 0.30896 0.67845 0.0
C264 C 0.77644 0.30655 0.84363 0.0
C265 C 0.80073 0.26339 0.67913 0.0
O266 O 0.87369 0.29233 0.70816 0.0
O267 O 0.83672 0.31786 0.7053 0.0
O268 O 0.78661 0.28129 0.69562 0.0
O269 O 0.82531 0.25739 0.71465 0.0
C270 C 0.8614 0.27151 0.87236 0.0
O271 O 0.77694 0.28643 0.82722 0.0
O272 O 0.80087 0.31811 0.822 0.0
In273 In 0.92369 0.42322 0.85876 0.0
O274 O 0.94701 0.43521 0.95368 0.0
O275 O 0.96198 0.40364 0.91761 0.0
C276 C 0.88873 0.45677 0.80627 0.0
C277 C 0.8726 0.39631 0.89453 0.0
C278 C 0.97213 0.42405 0.76757 0.0
O279 O 0.90394 0.45869 0.86005 0.0
O280 O 0.89029 0.43779 0.78097 0.0
O281 O 0.95046 0.40844 0.77072 0.0
O282 O 0.96934 0.43867 0.8107 0.0
C283 C 0.96519 0.41806 0.96122 0.0
O284 O 0.89478 0.39041 0.85344 0.0
O285 O 0.87612 0.41571 0.91598 0.0
In286 In 0.71491 0.722 0.18793 0.0
O287 O 0.7494 0.71234 0.26838 0.0
O288 O 0.71144 0.68859 0.23939 0.0
C289 C 0.67161 0.7288 0.09084 0.0
C290 C 0.68521 0.74865 0.27433 0.0
C291 C 0.76947 0.71791 0.10991 0.0
O292 O 0.68771 0.74409 0.11911 0.0
O293 O 0.67613 0.7095 0.11331 0.0
O294 O 0.74761 0.7028 0.11814 0.0
O295 O 0.76423 0.73538 0.14246 0.0
C296 C 0.73623 0.69346 0.27672 0.0
O297 O 0.67293 0.73003 0.25827 0.0
O298 O 0.71266 0.75417 0.24553 0.0
In299 In 0.61889 0.57893 0.39518 0.0
O300 O 0.60641 0.56022 0.48719 0.0
O301 O 0.57784 0.58937 0.46718 0.0
C302 C 0.63994 0.5426 0.33034 0.0
C303 C 0.66981 0.60569 0.43877 0.0
C304 C 0.57185 0.58781 0.30396 0.0
O305 O 0.62962 0.54192 0.38793 0.0
O306 O 0.64211 0.56181 0.30705 0.0
O307 O 0.60066 0.59746 0.30496 0.0
O308 O 0.56645 0.57505 0.35086 0.0
C309 C 0.58306 0.57333 0.50478 0.0
O310 O 0.64215 0.61329 0.41636 0.0
O311 O 0.67237 0.58496 0.43538 0.0
In312 In 0.13921 0.31041 0.28521 0.0
O313 O 0.182 0.29008 0.33302 0.0
O314 O 0.18696 0.32521 0.32686 0.0
C315 C 0.11943 0.28185 0.19319 0.0
C316 C 0.10376 0.31021 0.39627 0.0
C317 C 0.15039 0.34154 0.1954 0.0
O318 O 0.14668 0.27892 0.22541 0.0
O319 O 0.10148 0.29812 0.21081 0.0
O320 O 0.12047 0.33811 0.21707 0.0
O321 O 0.17371 0.3307 0.22305 0.0
C322 C 0.19935 0.3072 0.34662 0.0
O323 O 0.11651 0.3278 0.37387 0.0
O324 O 0.10414 0.29423 0.3573 0.0
In325 In 0.41293 0.55299 0.89947 0.0
O326 O 0.38321 0.58518 0.90046 0.0
O327 O 0.36064 0.55751 0.94692 0.0
C328 C 0.45141 0.56393 0.79669 0.0
C329 C 0.44842 0.55951 0.00986 0.0
C330 C 0.39707 0.51173 0.86027 0.0
O331 O 0.42093 0.57062 0.80315 0.0
O332 O 0.4623 0.55202 0.84214 0.0
O333 O 0.42157 0.51594 0.89809 0.0
O334 O 0.37966 0.52835 0.84348 0.0
C335 C 0.35871 0.57783 0.93378 0.0
O336 O 0.4273 0.5439 0.00273 0.0
O337 O 0.45219 0.57155 0.96088 0.0
In338 In 0.34074 0.73253 0.76304 0.0
O339 O 0.3732 0.74004 0.8529 0.0
O340 O 0.33699 0.76391 0.82132 0.0
C341 C 0.3844 0.7178 0.67287 0.0
C342 C 0.303 0.70347 0.82945 0.0
C343 C 0.30648 0.75056 0.66422 0.0
O344 O 0.38778 0.73657 0.69887 0.0
O345 O 0.36406 0.70522 0.70256 0.0
O346 O 0.29696 0.73258 0.68935 0.0
O347 O 0.33057 0.76024 0.69338 0.0
C348 C 0.35846 0.7583 0.86365 0.0
O349 O 0.29168 0.72221 0.81285 0.0
O350 O 0.3332 0.69916 0.81132 0.0
In351 In 0.13687 0.42542 0.3598 0.0
O352 O 0.16539 0.39255 0.36435 0.0
O353 O 0.18492 0.41966 0.41885 0.0
C354 C 0.08818 0.42326 0.26855 0.0
C355 C 0.09558 0.42051 0.46203 0.0
C356 C 0.16677 0.46066 0.30563 0.0
O357 O 0.11311 0.40977 0.26908 0.0
O358 O 0.08801 0.43708 0.31416 0.0
O359 O 0.15221 0.46168 0.36008 0.0
O360 O 0.16809 0.44155 0.28094 0.0
C361 C 0.18717 0.3994 0.40511 0.0
O362 O 0.11252 0.4381 0.45282 0.0
O363 O 0.09967 0.40571 0.41986 0.0
In364 In 0.25643 0.69932 0.24164 0.0
O365 O 0.21954 0.71124 0.16827 0.0
O366 O 0.2654 0.7304 0.18054 0.0
C367 C 0.30384 0.69839 0.3366 0.0
C368 C 0.27879 0.67103 0.15182 0.0
C369 C 0.19883 0.7024 0.31136 0.0
O370 O 0.28684 0.68175 0.31863 0.0
O371 O 0.29728 0.71599 0.30594 0.0
O372 O 0.21634 0.71887 0.29398 0.0
O373 O 0.21077 0.68372 0.29513 0.0
C374 C 0.2372 0.72766 0.15092 0.0
O375 O 0.29326 0.68917 0.16447 0.0
O376 O 0.25333 0.66634 0.1871 0.0
In377 In 0.11792 0.61008 0.08056 0.0
O378 O 0.14406 0.64381 0.07589 0.0
O379 O 0.16789 0.61686 0.02797 0.0
C380 C 0.07095 0.61639 0.17363 0.0
C381 C 0.0792 0.60746 0.97238 0.0
C382 C 0.15055 0.57712 0.14259 0.0
O383 O 0.09382 0.63058 0.16131 0.0
O384 O 0.07128 0.59954 0.13769 0.0
O385 O 0.13702 0.57451 0.0877 0.0
O386 O 0.14865 0.59649 0.16488 0.0
C387 C 0.16863 0.63717 0.04144 0.0
O388 O 0.09815 0.59184 0.99132 0.0
O389 O 0.07961 0.62432 0.00818 0.0
In390 In 0.29461 0.31402 0.79498 0.0
O391 O 0.32758 0.29737 0.72239 0.0
O392 O 0.27786 0.28315 0.74001 0.0
C393 C 0.25496 0.33252 0.88493 0.0
C394 C 0.27905 0.34149 0.69939 0.0
C395 C 0.33907 0.29759 0.87993 0.0
O396 O 0.28341 0.34052 0.86729 0.0
O397 O 0.24575 0.3149 0.85607 0.0
O398 O 0.31201 0.28757 0.86287 0.0
O399 O 0.34425 0.31626 0.85345 0.0
C400 C 0.30571 0.28263 0.70803 0.0
O401 O 0.25895 0.32672 0.72019 0.0
O402 O 0.30757 0.34323 0.72903 0.0
In403 In 0.40661 0.3507 0.65451 0.0
O404 O 0.44452 0.36699 0.58844 0.0
O405 O 0.44439 0.33186 0.58895 0.0
C406 C 0.40751 0.39098 0.70915 0.0
C407 C 0.35315 0.34108 0.57675 0.0
C408 C 0.41875 0.33159 0.76921 0.0
O409 O 0.43422 0.3798 0.69863 0.0
O410 O 0.37989 0.38221 0.6898 0.0
O411 O 0.39168 0.34226 0.75736 0.0
O412 O 0.43698 0.32772 0.72024 0.0
C413 C 0.45675 0.3494 0.56543 0.0
O414 O 0.36399 0.32727 0.6177 0.0
O415 O 0.36782 0.35958 0.57848 0.0
H416 H 0.29724 0.20415 0.63077 0.0
H417 H 0.20787 0.16459 0.58904 0.0
H418 H 0.23565 0.14993 0.49253 0.0
H419 H 0.28164 0.15256 0.41258 0.0
H420 H 0.37013 0.19321 0.45218 0.0
H421 H 0.34715 0.20234 0.5582 0.0
C422 C 0.28402 0.19212 0.60092 0.0
C423 C 0.25028 0.18577 0.61633 0.0
C424 C 0.30017 0.18376 0.54543 0.0
C425 C 0.2337 0.1699 0.57788 0.0
C426 C 0.24961 0.16149 0.52272 0.0
C427 C 0.29656 0.16275 0.44532 0.0
C428 C 0.32736 0.17241 0.4238 0.0
C429 C 0.28243 0.16879 0.50506 0.0
C430 C 0.34641 0.18547 0.46718 0.0
C431 C 0.33295 0.19105 0.52755 0.0
H432 H 0.01886 0.98031 0.75014 0.0
H433 H 0.12513 0.96268 0.72483 0.0
H434 H 0.14259 0.0 0.75616 0.0
H435 H 0.12765 0.03758 0.79248 0.0
H436 H 0.02132 0.05468 0.82046 0.0
H437 H 0.00397 0.01769 0.78669 0.0
C438 C 0.04582 0.98468 0.75113 0.0
C439 C 0.07064 0.96879 0.73504 0.0
C440 C 0.0557 0.00606 0.77012 0.0
C441 C 0.1055 0.97464 0.737 0.0
C442 C 0.11552 0.99596 0.75501 0.0
C443 C 0.10071 0.03317 0.79134 0.0
C444 C 0.07585 0.04883 0.80918 0.0
C445 C 0.09086 0.01178 0.77207 0.0
C446 C 0.04101 0.0429 0.80732 0.0
C447 C 0.03102 0.02175 0.78782 0.0
H448 H 0.14362 0.83722 0.05277 0.0
H449 H 0.11431 0.77054 0.1007 0.0
H450 H 0.0886 0.76595 0.9938 0.0
H451 H 0.08771 0.77792 0.88033 0.0
H452 H 0.11902 0.84426 0.83237 0.0
H453 H 0.12956 0.85219 0.94602 0.0
C454 C 0.13085 0.82185 0.0405 0.0
C455 C 0.13209 0.8039 0.08357 0.0
C456 C 0.11677 0.81921 0.97856 0.0
C457 C 0.11457 0.78437 0.06762 0.0
C458 C 0.09987 0.78175 0.00645 0.0
C459 C 0.09533 0.79443 0.89495 0.0
C460 C 0.10341 0.81031 0.84774 0.0
C461 C 0.10275 0.79859 0.96027 0.0
C462 C 0.11306 0.83165 0.86766 0.0
C463 C 0.11954 0.83611 0.93266 0.0
H464 H 0.36605 0.05075 0.30835 0.0
H465 H 0.34563 0.02036 0.12408 0.0
H466 H 0.33609 0.98475 0.17671 0.0
H467 H 0.34087 0.96158 0.27281 0.0
H468 H 0.36698 0.99114 0.4558 0.0
H469 H 0.36669 0.02784 0.40627 0.0
C470 C 0.35867 0.03643 0.28002 0.0
C471 C 0.35646 0.03808 0.21255 0.0
C472 C 0.35472 0.01585 0.31034 0.0
C473 C 0.34747 0.01939 0.17611 0.0
C474 C 0.34217 0.99905 0.20614 0.0
C475 C 0.34588 0.97609 0.30214 0.0
C476 C 0.3541 0.97368 0.36776 0.0
C477 C 0.34685 0.99696 0.27291 0.0
C478 C 0.36072 0.9926 0.40509 0.0
C479 C 0.36064 0.01355 0.37676 0.0
H480 H 0.81133 0.84619 0.34681 0.0
H481 H 0.87848 0.79317 0.40276 0.0
H482 H 0.86298 0.7983 0.51567 0.0
H483 H 0.82076 0.81225 0.59306 0.0
H484 H 0.75234 0.86482 0.53693 0.0
H485 H 0.77857 0.86612 0.43041 0.0
C486 C 0.82375 0.8366 0.38431 0.0
C487 C 0.8462 0.81952 0.36729 0.0
C488 C 0.81396 0.83931 0.44898 0.0
C489 C 0.86146 0.8066 0.4155 0.0
C490 C 0.85234 0.80939 0.47988 0.0
C491 C 0.81241 0.82447 0.55819 0.0
C492 C 0.78421 0.83802 0.57218 0.0
C493 C 0.82716 0.82485 0.49659 0.0
C494 C 0.77386 0.85403 0.52706 0.0
C495 C 0.78865 0.85468 0.46584 0.0
H496 H 0.87531 0.02524 0.3844 0.0
H497 H 0.88914 0.04945 0.19081 0.0
H498 H 0.87721 0.01254 0.14756 0.0
H499 H 0.86551 0.97294 0.16572 0.0
H500 H 0.8489 0.94957 0.35959 0.0
H501 H 0.8591 0.98663 0.40192 0.0
C502 C 0.87554 0.02242 0.33273 0.0
C503 C 0.88339 0.03985 0.29078 0.0
C504 C 0.86823 0.00134 0.30838 0.0
C505 C 0.88316 0.03618 0.22393 0.0
C506 C 0.87646 0.0151 0.19926 0.0
C507 C 0.86393 0.97607 0.21713 0.0
C508 C 0.8567 0.95863 0.25955 0.0
C509 C 0.86938 0.9975 0.24112 0.0
C510 C 0.85435 0.96281 0.32602 0.0
C511 C 0.8603 0.98396 0.3503 0.0
H512 H 0.6642 0.15375 0.85781 0.0
H513 H 0.60215 0.21244 0.87464 0.0
H514 H 0.61339 0.2138 0.99035 0.0
H515 H 0.6528 0.20375 0.07987 0.0
H516 H 0.71585 0.1455 0.06009 0.0
H517 H 0.69293 0.13893 0.95286 0.0
C518 C 0.65216 0.16643 0.88708 0.0
C519 C 0.63329 0.18334 0.85721 0.0
C520 C 0.66026 0.16784 0.95289 0.0
C521 C 0.61727 0.19936 0.89614 0.0
C522 C 0.62424 0.20042 0.96229 0.0
C523 C 0.66093 0.18939 0.05254 0.0
C524 C 0.68674 0.17554 0.07726 0.0
C525 C 0.64771 0.18568 0.99015 0.0
C526 C 0.69651 0.15672 0.04183 0.0
C527 C 0.68339 0.15289 0.98033 0.0
H528 H 0.64143 0.95001 0.89796 0.0
H529 H 0.62447 0.90755 0.7338 0.0
H530 H 0.63221 0.93885 0.66107 0.0
H531 H 0.63517 0.97922 0.64554 0.0
H532 H 0.65369 0.02143 0.80979 0.0
H533 H 0.65457 0.98934 0.88072 0.0
C534 C 0.64023 0.94755 0.8462 0.0
C535 C 0.63189 0.92661 0.82133 0.0
C536 C 0.64465 0.96563 0.80462 0.0
C537 C 0.63078 0.92354 0.75417 0.0
C538 C 0.63496 0.94147 0.71251 0.0
C539 C 0.6402 0.98131 0.69662 0.0
C540 C 0.64381 0.00268 0.72246 0.0
C541 C 0.64061 0.96274 0.73734 0.0
C542 C 0.65067 0.00515 0.78865 0.0
C543 C 0.65096 0.98681 0.82941 0.0
H544 H 0.87033 0.72672 0.87634 0.0
H545 H 0.84024 0.65864 0.85152 0.0
H546 H 0.81222 0.65911 0.95688 0.0
H547 H 0.78754 0.6808 0.04531 0.0
H548 H 0.81248 0.74991 0.06378 0.0
H549 H 0.85207 0.74697 0.97282 0.0
C550 C 0.85891 0.71171 0.89519 0.0
C551 C 0.85741 0.69261 0.85633 0.0
C552 C 0.84119 0.7125 0.95408 0.0
C553 C 0.84186 0.67345 0.88078 0.0
C554 C 0.82546 0.67383 0.94061 0.0
C555 C 0.80198 0.69518 0.03003 0.0
C556 C 0.797 0.71562 0.06124 0.0
C557 C 0.82346 0.69358 0.97597 0.0
C558 C 0.81604 0.73402 0.04104 0.0
C559 C 0.83836 0.73239 0.98853 0.0
H560 H 0.65067 0.50057 0.37086 0.0
H561 H 0.6339 0.53953 0.19989 0.0
H562 H 0.62645 0.50586 0.136 0.0
H563 H 0.61887 0.46526 0.13128 0.0
H564 H 0.63838 0.42655 0.3019 0.0
H565 H 0.65073 0.46005 0.36306 0.0
C566 C 0.64608 0.50165 0.31937 0.0
C567 C 0.64265 0.52246 0.29023 0.0
C568 C 0.6419 0.48223 0.28293 0.0
C569 C 0.63685 0.52367 0.22341 0.0
C570 C 0.63228 0.50442 0.18692 0.0
C571 C 0.62624 0.46421 0.18161 0.0
C572 C 0.62733 0.44349 0.21216 0.0
C573 C 0.63381 0.4836 0.21653 0.0
C574 C 0.63731 0.4423 0.27723 0.0
C575 C 0.64429 0.46147 0.31239 0.0
H576 H 0.83638 0.28506 0.39304 0.0
H577 H 0.78918 0.34958 0.39793 0.0
H578 H 0.81439 0.3568 0.50305 0.0
H579 H 0.84149 0.34241 0.60086 0.0
H580 H 0.88959 0.27827 0.59674 0.0
H581 H 0.87371 0.27376 0.48384 0.0
C582 C 0.83229 0.30087 0.41652 0.0
C583 C 0.81039 0.31655 0.38812 0.0
C584 C 0.84708 0.30506 0.47736 0.0
C585 C 0.80558 0.33706 0.41894 0.0
C586 C 0.82001 0.34126 0.47922 0.0
C587 C 0.84972 0.32785 0.57453 0.0
C588 C 0.86619 0.31062 0.60761 0.0
C589 C 0.83973 0.32508 0.50993 0.0
C590 C 0.87686 0.29186 0.57266 0.0
C591 C 0.86727 0.28907 0.50815 0.0
H592 H 0.87805 0.49858 0.85083 0.0
H593 H 0.86901 0.45778 0.68077 0.0
H594 H 0.85855 0.4904 0.61499 0.0
H595 H 0.8614 0.5307 0.60338 0.0
H596 H 0.86975 0.5717 0.77289 0.0
H597 H 0.87031 0.53889 0.84134 0.0
C598 C 0.87304 0.49683 0.79963 0.0
C599 C 0.87501 0.47589 0.7705 0.0
C600 C 0.86719 0.5157 0.76185 0.0
C601 C 0.86797 0.47377 0.70429 0.0
C602 C 0.86213 0.49242 0.66649 0.0
C603 C 0.86246 0.53242 0.65541 0.0
C604 C 0.8661 0.55347 0.68306 0.0
C605 C 0.8631 0.51351 0.69435 0.0
C606 C 0.86702 0.55561 0.75051 0.0
C607 C 0.86764 0.53684 0.78966 0.0
H608 H 0.18604 0.33094 0.91164 0.0
H609 H 0.28283 0.35537 0.9834 0.0
H610 H 0.25588 0.36639 0.0841 0.0
H611 H 0.2077 0.36253 0.1583 0.0
H612 H 0.10984 0.34026 0.08787 0.0
H613 H 0.13374 0.33578 0.9794 0.0
C614 C 0.20097 0.33902 0.94901 0.0
C615 C 0.2365 0.34186 0.94081 0.0
C616 C 0.18512 0.34575 0.00684 0.0
C617 C 0.2555 0.3528 0.98885 0.0
C618 C 0.24013 0.35914 0.04651 0.0
C619 C 0.1912 0.35773 0.11847 0.0
C620 C 0.15755 0.35082 0.13118 0.0
C621 C 0.2053 0.35493 0.05692 0.0
C622 C 0.13617 0.34504 0.07932 0.0
C623 C 0.14997 0.34222 0.01749 0.0
H624 H 0.35975 0.4239 0.71057 0.0
H625 H 0.45837 0.40515 0.78755 0.0
H626 H 0.46238 0.44016 0.84528 0.0
H627 H 0.43943 0.4767 0.86986 0.0
H628 H 0.34251 0.49697 0.789 0.0
H629 H 0.33609 0.46077 0.73716 0.0
C630 C 0.382 0.42754 0.74017 0.0
C631 C 0.40887 0.41213 0.74436 0.0
C632 C 0.38446 0.44794 0.77245 0.0
C633 C 0.4376 0.41693 0.78284 0.0
C634 C 0.43986 0.43689 0.81609 0.0
C635 C 0.41671 0.47313 0.84145 0.0
C636 C 0.39146 0.48942 0.83332 0.0
C637 C 0.41367 0.45261 0.81064 0.0
C638 C 0.36231 0.48464 0.79593 0.0
C639 C 0.35868 0.46399 0.76618 0.0
H640 H 0.34299 0.73154 0.38926 0.0
H641 H 0.31751 0.66247 0.41013 0.0
H642 H 0.34876 0.66097 0.51153 0.0
H643 H 0.37461 0.68062 0.60236 0.0
H644 H 0.39937 0.74978 0.58395 0.0
H645 H 0.37898 0.74954 0.47275 0.0
C646 C 0.34489 0.71608 0.41541 0.0
C647 C 0.32735 0.69727 0.39268 0.0
C648 C 0.36301 0.71527 0.47421 0.0
C649 C 0.33033 0.6773 0.42686 0.0
C650 C 0.3483 0.67637 0.48493 0.0
C651 C 0.37682 0.69543 0.57324 0.0
C652 C 0.38783 0.71525 0.60205 0.0
C653 C 0.36364 0.69543 0.51022 0.0
C654 C 0.39088 0.73425 0.56333 0.0
C655 C 0.37859 0.73425 0.49988 0.0
H656 H 0.17093 0.50299 0.34908 0.0
H657 H 0.18042 0.46316 0.17731 0.0
H658 H 0.18011 0.49636 0.11079 0.0
H659 H 0.1684 0.53617 0.10077 0.0
H660 H 0.15982 0.57608 0.27244 0.0
H661 H 0.16894 0.54349 0.33955 0.0
C662 C 0.17377 0.50163 0.29722 0.0
C663 C 0.17515 0.48067 0.26812 0.0
C664 C 0.17328 0.5208 0.25912 0.0
C665 C 0.17917 0.47912 0.20092 0.0
C666 C 0.17874 0.4981 0.16273 0.0
C667 C 0.16922 0.53776 0.15284 0.0
C668 C 0.1629 0.55837 0.18167 0.0
C669 C 0.17443 0.51894 0.19116 0.0
C670 C 0.16446 0.56034 0.24912 0.0
C671 C 0.1695 0.54169 0.28757 0.0
H672 H 0.18163 0.16976 0.9292 0.0
H673 H 0.20141 0.10262 0.98726 0.0
H674 H 0.23855 0.11572 0.07415 0.0
H675 H 0.26319 0.14635 0.137 0.0
H676 H 0.24001 0.2136 0.08418 0.0
H677 H 0.20682 0.20053 0.99182 0.0
C678 C 0.1939 0.15808 0.96123 0.0
C679 C 0.18831 0.13534 0.9525 0.0
C680 C 0.21408 0.16577 0.01272 0.0
C681 C 0.20523 0.12024 0.99299 0.0
C682 C 0.22614 0.12772 0.0432 0.0
C683 C 0.25032 0.15809 0.10578 0.0
C684 C 0.2536 0.18086 0.11759 0.0
C685 C 0.23024 0.15044 0.05419 0.0
C686 C 0.23717 0.19597 0.07668 0.0
C687 C 0.21808 0.18849 0.02401 0.0
H688 H 0.14894 0.81728 0.42408 0.0
H689 H 0.19283 0.87708 0.34712 0.0
H690 H 0.1706 0.89804 0.43955 0.0
H691 H 0.13449 0.89948 0.53772 0.0
H692 H 0.09332 0.83888 0.61511 0.0
H693 H 0.11856 0.81803 0.5264 0.0
C694 C 0.15353 0.83495 0.42729 0.0
C695 C 0.17161 0.8458 0.37817 0.0
C696 C 0.14102 0.84668 0.48036 0.0
C697 C 0.17846 0.86849 0.38401 0.0
C698 C 0.16576 0.88043 0.43673 0.0
C699 C 0.13165 0.88166 0.53563 0.0
C700 C 0.11192 0.87071 0.58248 0.0
C701 C 0.14646 0.86973 0.48461 0.0
C702 C 0.10849 0.84764 0.57969 0.0
C703 C 0.12261 0.83575 0.52867 0.0
H704 H 0.29403 0.85086 0.4282 0.0
H705 H 0.26709 0.90807 0.54169 0.0
H706 H 0.22128 0.88726 0.59395 0.0
H707 H 0.19486 0.85129 0.61882 0.0
H708 H 0.22385 0.79381 0.50956 0.0
H709 H 0.26246 0.81634 0.4433 0.0
C710 C 0.27772 0.85888 0.46348 0.0
C711 C 0.28432 0.8808 0.48196 0.0
C712 C 0.25216 0.84664 0.49484 0.0
C713 C 0.26281 0.89107 0.52736 0.0
C714 C 0.2367 0.87917 0.55747 0.0
C715 C 0.20941 0.8438 0.57999 0.0
C716 C 0.20753 0.82091 0.56976 0.0
C717 C 0.23213 0.8567 0.54353 0.0
C718 C 0.22601 0.81131 0.51911 0.0
C719 C 0.24784 0.82414 0.4813 0.0
H720 H 0.25593 0.15574 0.85937 0.0
H721 H 0.28915 0.21852 0.93549 0.0
H722 H 0.32474 0.19935 0.01562 0.0
H723 H 0.34669 0.16421 0.06368 0.0
H724 H 0.30927 0.10223 0.98704 0.0
H725 H 0.27571 0.1217 0.9071 0.0
C726 C 0.27132 0.16531 0.89294 0.0
C727 C 0.2699 0.18846 0.89167 0.0
C728 C 0.29138 0.15429 0.93853 0.0
C729 C 0.29007 0.20063 0.93524 0.0
C730 C 0.31042 0.18967 0.98104 0.0
C731 C 0.33095 0.15505 0.02978 0.0
C732 C 0.33059 0.13175 0.03156 0.0
C733 C 0.31116 0.16644 0.98343 0.0
C734 C 0.31009 0.12012 0.98714 0.0
C735 C 0.29103 0.13122 0.94082 0.0
H736 H 0.7826 0.84465 0.08888 0.0
H737 H 0.74695 0.91174 0.07235 0.0
H738 H 0.71708 0.90245 0.97151 0.0
H739 H 0.70912 0.87618 0.87928 0.0
H740 H 0.7498 0.81024 0.89713 0.0
H741 H 0.77052 0.81837 0.00478 0.0
C742 C 0.76743 0.8571 0.06438 0.0
C743 C 0.76677 0.87875 0.08808 0.0
C744 C 0.75218 0.852 0.00516 0.0
C745 C 0.7476 0.89485 0.05501 0.0
C746 C 0.73083 0.8896 0.99706 0.0
C747 C 0.72187 0.86355 0.90755 0.0
C748 C 0.72886 0.84281 0.8798 0.0
C749 C 0.73411 0.86838 0.9702 0.0
C750 C 0.74523 0.82652 0.91682 0.0
C751 C 0.75687 0.83106 0.97855 0.0
H752 H 0.74326 0.14542 0.62137 0.0
H753 H 0.74848 0.20535 0.51046 0.0
H754 H 0.79009 0.18826 0.43718 0.0
H755 H 0.82734 0.15725 0.40892 0.0
H756 H 0.82152 0.09696 0.51923 0.0
H757 H 0.77754 0.11319 0.58811 0.0
C758 C 0.75361 0.1547 0.58115 0.0
C759 C 0.74376 0.17677 0.57189 0.0
C760 C 0.77749 0.14483 0.53955 0.0
C761 C 0.75683 0.1886 0.51935 0.0
C762 C 0.78035 0.17886 0.47747 0.0
C763 C 0.81631 0.14764 0.4478 0.0
C764 C 0.82796 0.12608 0.45945 0.0
C765 C 0.79133 0.15713 0.48778 0.0
C766 C 0.81318 0.11371 0.5096 0.0
C767 C 0.78814 0.12299 0.54925 0.0
H768 H 0.7067 0.08054 0.50228 0.0
H769 H 0.64706 0.13107 0.59737 0.0
H770 H 0.66824 0.15862 0.52186 0.0
H771 H 0.69876 0.16755 0.42284 0.0
H772 H 0.76124 0.11824 0.32962 0.0
H773 H 0.74421 0.09094 0.41102 0.0
C774 C 0.69899 0.09768 0.50727 0.0
C775 C 0.67493 0.10369 0.55462 0.0
C776 C 0.71128 0.11351 0.46354 0.0
C777 C 0.66541 0.12598 0.56113 0.0
C778 C 0.6772 0.14172 0.51755 0.0
C779 C 0.70864 0.1508 0.42034 0.0
C780 C 0.73043 0.14464 0.36966 0.0
C781 C 0.69921 0.13549 0.46745 0.0
C782 C 0.74403 0.12318 0.36794 0.0
C783 C 0.73428 0.10763 0.41434 0.0
H784 H 0.6595 0.81311 0.97461 0.0
H785 H 0.65354 0.8685 0.10601 0.0
H786 H 0.69503 0.8514 0.17662 0.0
H787 H 0.73869 0.8239 0.19442 0.0
H788 H 0.75083 0.76983 0.06136 0.0
H789 H 0.70063 0.78247 0.0001 0.0
C790 C 0.66698 0.82117 0.01919 0.0
C791 C 0.65384 0.84226 0.03427 0.0
C792 C 0.6917 0.81131 0.05999 0.0
C793 C 0.66369 0.8525 0.09236 0.0
C794 C 0.68727 0.84266 0.13333 0.0
C795 C 0.72969 0.81451 0.15306 0.0
C796 C 0.7483 0.79608 0.13231 0.0
C797 C 0.70221 0.8225 0.11666 0.0
C798 C 0.73653 0.78395 0.0788 0.0
C799 C 0.70808 0.79138 0.04324 0.0
H800 H 0.67363 0.65095 0.44707 0.0
H801 H 0.72319 0.59094 0.51024 0.0
H802 H 0.76268 0.61229 0.57644 0.0
H803 H 0.78382 0.64763 0.61561 0.0
H804 H 0.7387 0.7083 0.54735 0.0
H805 H 0.69639 0.68711 0.48502 0.0
C806 C 0.69318 0.6426 0.47515 0.0
C807 C 0.69537 0.61935 0.47371 0.0
C808 C 0.71626 0.65507 0.51296 0.0
C809 C 0.72094 0.60878 0.51016 0.0
C810 C 0.74339 0.62097 0.54859 0.0
C811 C 0.76448 0.65629 0.58776 0.0
C812 C 0.76438 0.67952 0.58626 0.0
C813 C 0.74123 0.64406 0.55049 0.0
C814 C 0.73923 0.69043 0.54959 0.0
C815 C 0.71521 0.6783 0.5136 0.0
H816 H 0.66355 0.32814 0.05136 0.0
H817 H 0.68588 0.39466 0.98984 0.0
H818 H 0.72966 0.38082 0.91595 0.0
H819 H 0.76033 0.34964 0.86616 0.0
H820 H 0.73442 0.28316 0.92119 0.0
H821 H 0.69349 0.297 0.0004 0.0
C822 C 0.67825 0.33959 0.02219 0.0
C823 C 0.67158 0.36234 0.02594 0.0
C824 C 0.70257 0.33148 0.97835 0.0
C825 C 0.69052 0.37702 0.98748 0.0
C826 C 0.71543 0.36913 0.94505 0.0
C827 C 0.74555 0.33823 0.89531 0.0
C828 C 0.75048 0.31537 0.88839 0.0
C829 C 0.72138 0.34637 0.93948 0.0
C830 C 0.73115 0.30077 0.92621 0.0
C831 C 0.70777 0.3087 0.97145 0.0
H832 H 0.79827 0.31963 0.03862 0.0
H833 H 0.74747 0.37473 0.12958 0.0
H834 H 0.77478 0.4002 0.05347 0.0
H835 H 0.81905 0.40685 0.9714 0.0
H836 H 0.86947 0.35148 0.88059 0.0
H837 H 0.83548 0.32591 0.94541 0.0
C838 C 0.79293 0.33722 0.04129 0.0
C839 C 0.77171 0.3455 0.09034 0.0
C840 C 0.80875 0.35162 0.99782 0.0
C841 C 0.7641 0.36813 0.09248 0.0
C842 C 0.77981 0.38264 0.04927 0.0
C843 C 0.82222 0.38916 0.9651 0.0
C844 C 0.84726 0.38102 0.9225 0.0
C845 C 0.80308 0.3746 0.00324 0.0
C846 C 0.85065 0.35812 0.9137 0.0
C847 C 0.83148 0.34351 0.95113 0.0
H848 H 0.77649 0.70462 0.37609 0.0
H849 H 0.72837 0.64833 0.28575 0.0
H850 H 0.75968 0.62343 0.35848 0.0
H851 H 0.80472 0.61795 0.4417 0.0
H852 H 0.84962 0.67499 0.53332 0.0
H853 H 0.81657 0.69943 0.46427 0.0
C854 C 0.77268 0.68689 0.37236 0.0
C855 C 0.75067 0.67825 0.32508 0.0
C856 C 0.79086 0.67287 0.41341 0.0
C857 C 0.74539 0.65532 0.32171 0.0
C858 C 0.76347 0.64111 0.36286 0.0
C859 C 0.80694 0.63573 0.44687 0.0
C860 C 0.83026 0.64475 0.49164 0.0
C861 C 0.78689 0.64972 0.40797 0.0
C862 C 0.83262 0.66774 0.49811 0.0
C863 C 0.81353 0.68171 0.4589 0.0
H864 H 0.30563 0.30777 0.5749 0.0
H865 H 0.34314 0.3633 0.46565 0.0
H866 H 0.30176 0.35574 0.3806 0.0
H867 H 0.25288 0.3348 0.33969 0.0
H868 H 0.21123 0.28124 0.45139 0.0
H869 H 0.25446 0.28774 0.53482 0.0
C870 C 0.30501 0.31791 0.53199 0.0
C871 C 0.32756 0.33591 0.52641 0.0
C872 C 0.28049 0.31379 0.48354 0.0
C873 C 0.32597 0.34936 0.47128 0.0
C874 C 0.30245 0.34499 0.42235 0.0
C875 C 0.25434 0.32385 0.38099 0.0
C876 C 0.22967 0.3072 0.38873 0.0
C877 C 0.27953 0.32733 0.42809 0.0
C878 C 0.23091 0.29357 0.44327 0.0
C879 C 0.25581 0.29712 0.49078 0.0
H880 H 0.3592 0.62234 0.93296 0.0
H881 H 0.303 0.56647 0.00679 0.0
H882 H 0.26997 0.59102 0.07719 0.0
H883 H 0.26285 0.62779 0.12788 0.0
H884 H 0.32237 0.68274 0.05683 0.0
H885 H 0.34848 0.65912 0.97574 0.0
C886 C 0.33931 0.61554 0.96357 0.0
C887 C 0.33378 0.59264 0.96524 0.0
C888 C 0.32163 0.62954 0.0057 0.0
C889 C 0.30781 0.58409 0.00495 0.0
C890 C 0.28913 0.59809 0.04555 0.0
C891 C 0.28131 0.63455 0.09422 0.0
C892 C 0.29131 0.65679 0.09927 0.0
C893 C 0.29675 0.62074 0.04807 0.0
C894 C 0.31488 0.66551 0.05488 0.0
C895 C 0.3298 0.65204 0.00837 0.0
H896 H 0.25413 0.7138 0.91586 0.0
H897 H 0.30656 0.65849 0.82984 0.0
H898 H 0.27044 0.6328 0.8907 0.0
H899 H 0.2227 0.62632 0.96562 0.0
H900 H 0.1719 0.68195 0.05437 0.0
H901 H 0.20946 0.70727 0.9964 0.0
C902 C 0.25772 0.69613 0.91083 0.0
C903 C 0.28253 0.68798 0.8681 0.0
C904 C 0.23756 0.68158 0.94705 0.0
C905 C 0.28739 0.66508 0.86234 0.0
C906 C 0.26679 0.65043 0.89705 0.0
C907 C 0.22008 0.644 0.97279 0.0
C908 C 0.19429 0.65227 0.01354 0.0
C909 C 0.24169 0.65852 0.93933 0.0
C910 C 0.19145 0.67518 0.02301 0.0
C911 C 0.21284 0.68969 0.98986 0.0
H912 H 0.23357 0.32998 0.60848 0.0
H913 H 0.30397 0.38196 0.66107 0.0
H914 H 0.2844 0.40396 0.56849 0.0
H915 H 0.24311 0.40937 0.47855 0.0
H916 H 0.17607 0.35573 0.4241 0.0
H917 H 0.19922 0.33312 0.51094 0.0
C918 C 0.24468 0.34616 0.59981 0.0
C919 C 0.2696 0.35461 0.64219 0.0
C920 C 0.23404 0.35827 0.54603 0.0
C921 C 0.28447 0.37526 0.62935 0.0
C922 C 0.27334 0.38776 0.57644 0.0
C923 C 0.23424 0.39252 0.48482 0.0
C924 C 0.2077 0.38427 0.44536 0.0
C925 C 0.24767 0.37956 0.53511 0.0
C926 C 0.19652 0.36242 0.45362 0.0
C927 C 0.20935 0.3496 0.5039 0.0
H928 H 0.37106 0.26913 0.1578 0.0
H929 H 0.3814 0.20574 0.06481 0.0
H930 H 0.38134 0.22365 0.95925 0.0
H931 H 0.36431 0.25636 0.89523 0.0
H932 H 0.35705 0.31994 0.98789 0.0
H933 H 0.37078 0.30309 0.09201 0.0
C934 C 0.37474 0.25935 0.11449 0.0
C935 C 0.37508 0.23613 0.11869 0.0
C936 C 0.37469 0.26979 0.05405 0.0
C937 C 0.38056 0.22363 0.06262 0.0
C938 C 0.38021 0.23386 0.00218 0.0
C939 C 0.36721 0.2666 0.93789 0.0
C940 C 0.35932 0.28924 0.93456 0.0
C941 C 0.37513 0.25678 0.9974 0.0
C942 C 0.36316 0.30248 0.98963 0.0
C943 C 0.37063 0.2928 0.04921 0.0
H944 H 0.86637 0.90033 0.41652 0.0
H945 H 0.91968 0.84317 0.34353 0.0
H946 H 0.95819 0.84383 0.43693 0.0
H947 H 0.98147 0.86383 0.53042 0.0
H948 H 0.9321 0.92357 0.59595 0.0
H949 H 0.88741 0.91894 0.51411 0.0
C950 C 0.8858 0.88765 0.42218 0.0
C951 C 0.8902 0.87164 0.37374 0.0
C952 C 0.90907 0.889 0.47373 0.0
C953 C 0.91587 0.85558 0.38058 0.0
C954 C 0.93802 0.85609 0.43358 0.0
C955 C 0.9607 0.8757 0.52725 0.0
C956 C 0.96021 0.89413 0.56874 0.0
C957 C 0.9357 0.87326 0.479 0.0
C958 C 0.9332 0.90938 0.56409 0.0
C959 C 0.90761 0.9067 0.51747 0.0
H960 H 0.18714 0.68162 0.42392 0.0
H961 H 0.14629 0.73106 0.29618 0.0
H962 H 0.11323 0.74719 0.38445 0.0
H963 H 0.11043 0.75333 0.50157 0.0
H964 H 0.15525 0.70533 0.62995 0.0
H965 H 0.17159 0.68234 0.53855 0.0
C966 C 0.16963 0.69521 0.415 0.0
C967 C 0.1694 0.70544 0.35449 0.0
C968 C 0.15216 0.70507 0.46675 0.0
C969 C 0.14683 0.72308 0.3429 0.0
C970 C 0.12825 0.73244 0.39354 0.0
C971 C 0.12239 0.73738 0.50958 0.0
C972 C 0.13245 0.73129 0.57213 0.0
C973 C 0.13286 0.72459 0.45651 0.0
C974 C 0.14781 0.71054 0.58198 0.0
C975 C 0.15735 0.69742 0.52968 0.0
H976 H 0.55711 0.09717 0.8113 0.0
H977 H 0.50761 0.03666 0.7517 0.0
H978 H 0.46747 0.03964 0.84129 0.0
H979 H 0.44709 0.05899 0.93749 0.0
H980 H 0.49551 0.11988 0.9966 0.0
H981 H 0.53545 0.11723 0.90616 0.0
C982 C 0.53747 0.08469 0.81791 0.0
C983 C 0.53536 0.0667 0.77517 0.0
C984 C 0.51437 0.08654 0.86941 0.0
C985 C 0.50973 0.05068 0.784 0.0
C986 C 0.4868 0.05234 0.83525 0.0
C987 C 0.46639 0.07168 0.93055 0.0
C988 C 0.46852 0.08953 0.97368 0.0
C989 C 0.48902 0.07012 0.8784 0.0
C990 C 0.49343 0.10596 0.96394 0.0
C991 C 0.51627 0.10444 0.91233 0.0
H992 H 0.25033 0.73715 0.59525 0.0
H993 H 0.34048 0.77845 0.58581 0.0
H994 H 0.32848 0.78688 0.47363 0.0
H995 H 0.29149 0.78415 0.37999 0.0
H996 H 0.19609 0.74893 0.39294 0.0
H997 H 0.2117 0.73536 0.50028 0.0
C998 C 0.26714 0.74808 0.56856 0.0
C999 C 0.29606 0.75731 0.59891 0.0
C1000 C 0.2597 0.75331 0.504 0.0
C1001 C 0.3177 0.77144 0.56393 0.0
C1002 C 0.31116 0.77605 0.49945 0.0
C1003 C 0.2743 0.77321 0.40585 0.0
C1004 C 0.24279 0.76722 0.3783 0.0
C1005 C 0.28221 0.76718 0.46917 0.0
C1006 C 0.2208 0.75315 0.41249 0.0
C1007 C 0.22951 0.74579 0.47432 0.0
H1008 H 0.41904 0.91412 0.65353 0.0
H1009 H 0.45892 0.86134 0.53573 0.0
H1010 H 0.49739 0.85012 0.62317 0.0
H1011 H 0.52222 0.85693 0.73164 0.0
H1012 H 0.48043 0.90956 0.84833 0.0
H1013 H 0.44009 0.91894 0.76348 0.0
C1014 C 0.43605 0.9001 0.64713 0.0
C1015 C 0.43644 0.88874 0.58821 0.0
C1016 C 0.4578 0.89366 0.6976 0.0
C1017 C 0.45827 0.87041 0.58077 0.0
C1018 C 0.48029 0.864 0.6307 0.0
C1019 C 0.50391 0.8702 0.73869 0.0
C1020 C 0.50461 0.88263 0.79599 0.0
C1021 C 0.48062 0.87569 0.68919 0.0
C1022 C 0.48071 0.89981 0.80448 0.0
C1023 C 0.45759 0.90527 0.7559 0.0
H1024 H 0.12858 0.2623 0.9002 0.0
H1025 H 0.14597 0.19601 0.96715 0.0
H1026 H 0.13426 0.20751 0.07815 0.0
H1027 H 0.12814 0.23851 0.15717 0.0
H1028 H 0.09921 0.30271 0.08596 0.0
H1029 H 0.10568 0.29005 0.97524 0.0
C1030 C 0.12871 0.25024 0.93888 0.0
C1031 C 0.13988 0.22864 0.92659 0.0
C1032 C 0.12022 0.25674 0.00168 0.0
C1033 C 0.13882 0.21294 0.97625 0.0
C1034 C 0.13208 0.21953 0.03969 0.0
C1035 C 0.12233 0.24945 0.11727 0.0
C1036 C 0.11436 0.27171 0.12933 0.0
C1037 C 0.12433 0.2417 0.05332 0.0
C1038 C 0.10611 0.28566 0.07756 0.0
C1039 C 0.10978 0.27843 0.01422 0.0
H1040 H 0.07295 0.1247 0.07477 0.0
H1041 H 0.98945 0.13385 0.94116 0.0
H1042 H 0.94871 0.1353 0.03107 0.0
H1043 H 0.93662 0.12906 0.1472 0.0
H1044 H 0.02141 0.1189 0.27778 0.0
H1045 H 0.0619 0.12309 0.18974 0.0
C1046 C 0.04587 0.12727 0.06537 0.0
C1047 C 0.03402 0.12876 0.00178 0.0
C1048 C 0.02284 0.12783 0.11682 0.0
C1049 C 0.99903 0.1325 0.99003 0.0
C1050 C 0.97577 0.13325 0.04134 0.0
C1051 C 0.96398 0.12831 0.15629 0.0
C1052 C 0.97608 0.1234 0.21845 0.0
C1053 C 0.98729 0.13024 0.1049 0.0
C1054 C 0.01155 0.1224 0.22999 0.0
C1055 C 0.03474 0.12474 0.17975 0.0
H1056 H 0.63867 0.7841 0.85257 0.0
H1057 H 0.71874 0.74261 0.77565 0.0
H1058 H 0.71328 0.71773 0.86779 0.0
H1059 H 0.69408 0.71237 0.97937 0.0
H1060 H 0.62039 0.75715 0.0616 0.0
H1061 H 0.61385 0.77573 0.95771 0.0
C1062 C 0.65419 0.76925 0.85496 0.0
C1063 C 0.67935 0.7653 0.80789 0.0
C1064 C 0.65187 0.75559 0.90926 0.0
C1065 C 0.69943 0.74608 0.81173 0.0
C1066 C 0.69634 0.73188 0.86443 0.0
C1067 C 0.67529 0.72544 0.97328 0.0
C1068 C 0.65713 0.73318 0.02709 0.0
C1069 C 0.67374 0.73703 0.91483 0.0
C1070 C 0.6339 0.75068 0.02006 0.0
C1071 C 0.63064 0.7615 0.961 0.0
H1072 H 0.08976 0.10079 0.63953 0.0
H1073 H 0.05402 0.16584 0.6917 0.0
H1074 H 0.0115 0.16446 0.60473 0.0
H1075 H 0.97917 0.14234 0.5251 0.0
H1076 H 0.01189 0.07572 0.48284 0.0
H1077 H 0.06053 0.07994 0.55567 0.0
C1078 C 0.07341 0.11497 0.63067 0.0
C1079 C 0.07493 0.13338 0.67191 0.0
C1080 C 0.04772 0.11343 0.58376 0.0
C1081 C 0.05333 0.15152 0.6603 0.0
C1082 C 0.02874 0.15059 0.61122 0.0
C1083 C 0.99707 0.12881 0.53172 0.0
C1084 C 0.99169 0.10863 0.49954 0.0
C1085 C 0.0247 0.13121 0.57466 0.0
C1086 C 0.01517 0.09129 0.50798 0.0
C1087 C 0.04314 0.09373 0.54922 0.0
H1088 H 0.74526 0.26753 0.59904 0.0
H1089 H 0.84617 0.23859 0.61357 0.0
H1090 H 0.84372 0.22753 0.50115 0.0
H1091 H 0.81317 0.22526 0.4 0.0
H1092 H 0.70852 0.24735 0.38766 0.0
H1093 H 0.71275 0.26319 0.49659 0.0
C1094 C 0.76645 0.25857 0.57756 0.0
C1095 C 0.79573 0.25374 0.61465 0.0
C1096 C 0.76464 0.25177 0.51277 0.0
C1097 C 0.82308 0.24216 0.58644 0.0
C1098 C 0.82198 0.23613 0.52183 0.0
C1099 C 0.79128 0.23372 0.42074 0.0
C1100 C 0.76054 0.23527 0.38586 0.0
C1101 C 0.79301 0.24091 0.48464 0.0
C1102 C 0.73254 0.24633 0.41337 0.0
C1103 C 0.73482 0.255 0.47593 0.0
H1104 H 0.42614 0.87261 0.24608 0.0
H1105 H 0.47479 0.93278 0.31084 0.0
H1106 H 0.51568 0.93059 0.2224 0.0
H1107 H 0.53733 0.91193 0.12586 0.0
H1108 H 0.49015 0.8512 0.06211 0.0
H1109 H 0.44913 0.85321 0.15087 0.0
C1110 C 0.44573 0.8852 0.24075 0.0
C1111 C 0.44738 0.90284 0.28477 0.0
C1112 C 0.46945 0.88375 0.18998 0.0
C1113 C 0.47301 0.91899 0.27761 0.0
C1114 C 0.4964 0.91779 0.22699 0.0
C1115 C 0.51808 0.89913 0.13147 0.0
C1116 C 0.51666 0.88151 0.08745 0.0
C1117 C 0.4948 0.9003 0.1828 0.0
C1118 C 0.49176 0.86495 0.09549 0.0
C1119 C 0.46826 0.8661 0.14614 0.0
H1120 H 0.64979 0.25973 0.32437 0.0
H1121 H 0.67537 0.32177 0.41432 0.0
H1122 H 0.65379 0.30823 0.51761 0.0
H1123 H 0.64327 0.27557 0.58523 0.0
H1124 H 0.62142 0.21277 0.49533 0.0
H1125 H 0.62509 0.22978 0.38908 0.0
C1126 C 0.64907 0.27058 0.36608 0.0
C1127 C 0.6646 0.29147 0.36263 0.0
C1128 C 0.63798 0.26232 0.42557 0.0
C1129 C 0.66355 0.30558 0.41627 0.0
C1130 C 0.65164 0.29771 0.47547 0.0
C1131 C 0.63797 0.26583 0.54239 0.0
C1132 C 0.63294 0.24288 0.54785 0.0
C1133 C 0.64112 0.27561 0.4814 0.0
C1134 C 0.62565 0.23044 0.49229 0.0
C1135 C 0.62803 0.24013 0.43143 0.0
H1136 H 0.49237 0.06388 0.25304 0.0
H1137 H 0.44737 0.12271 0.33479 0.0
H1138 H 0.48121 0.11748 0.43336 0.0
H1139 H 0.52252 0.09556 0.49673 0.0
H1140 H 0.56576 0.03616 0.41485 0.0
H1141 H 0.53326 0.04216 0.31563 0.0
C1142 C 0.49011 0.07571 0.29215 0.0
C1143 C 0.46752 0.09375 0.28652 0.0
C1144 C 0.50905 0.07234 0.34872 0.0
C1145 C 0.46471 0.10877 0.33788 0.0
C1146 C 0.48393 0.10572 0.39425 0.0
C1147 C 0.52478 0.0839 0.45719 0.0
C1148 C 0.54647 0.06539 0.46315 0.0
C1149 C 0.50596 0.08745 0.40034 0.0
C1150 C 0.54917 0.05046 0.41155 0.0
C1151 C 0.53068 0.05393 0.35477 0.0
H1152 H 0.81144 0.7895 -0.00126 0.0
H1153 H 0.91754 0.80714 0.97581 0.0
H1154 H 0.91373 0.79912 0.85974 0.0
H1155 H 0.88323 0.77958 0.77233 0.0
H1156 H 0.77826 0.7592 0.80038 0.0
H1157 H 0.77838 0.77579 0.90725 0.0
C1158 C 0.83321 0.79257 0.96751 0.0
C1159 C 0.86459 0.79905 0.99477 0.0
C1160 C 0.83103 0.78705 0.90219 0.0
C1161 C 0.8931 0.80239 0.95513 0.0
C1162 C 0.89091 0.79758 0.88913 0.0
C1163 C 0.85992 0.77963 0.80074 0.0
C1164 C 0.83091 0.76788 0.77886 0.0
C1165 C 0.86045 0.78883 0.86295 0.0
C1166 C 0.80089 0.76809 0.81606 0.0
C1167 C 0.80098 0.77753 0.87738 0.0
H1168 H 0.97128 0.86157 0.8481 0.0
H1169 H 0.04618 0.90615 0.92917 0.0
H1170 H 0.0152 0.90639 0.03151 0.0
H1171 H 0.96244 0.89813 0.09195 0.0
H1172 H 0.88802 0.85313 0.01104 0.0
H1173 H 0.92329 0.84873 0.91471 0.0
C1174 C 0.9812 0.87094 0.88868 0.0
C1175 C 0.0106 0.88409 0.88097 0.0
C1176 C 0.96307 0.87119 0.94699 0.0
C1177 C 0.02351 0.89594 0.93398 0.0
C1178 C 0.00565 0.89624 0.99231 0.0
C1179 C 0.95424 0.88712 0.05359 0.0
C1180 C 0.92242 0.87634 0.05786 0.0
C1181 C 0.97469 0.88462 -0.00156 0.0
C1182 C 0.9123 0.86178 0.00851 0.0
C1183 C 0.93241 0.85929 0.95337 0.0
H1184 H 0.89691 0.72063 0.27731 0.0
H1185 H 0.9369 0.78516 0.32493 0.0
H1186 H 0.94672 0.77354 0.43538 0.0
H1187 H 0.92849 0.74854 0.52232 0.0
H1188 H 0.89766 0.68217 0.47545 0.0
H1189 H 0.89994 0.69083 0.36038 0.0
C1190 C 0.90927 0.73177 0.31112 0.0
C1191 C 0.91508 0.75391 0.29354 0.0
C1192 C 0.91548 0.72488 0.37487 0.0
C1193 C 0.93178 0.76808 0.33733 0.0
C1194 C 0.93713 0.76154 0.40094 0.0
C1195 C 0.92396 0.73565 0.48686 0.0
C1196 C 0.91063 0.71525 0.50678 0.0
C1197 C 0.92683 0.7405 0.42103 0.0
C1198 C 0.90587 0.69844 0.46092 0.0
C1199 C 0.90737 0.70337 0.39506 0.0
H1200 H 0.41604 0.36597 0.85023 0.0
H1201 H 0.46043 0.30122 0.82767 0.0
H1202 H 0.49942 0.30851 0.91829 0.0
H1203 H 0.52564 0.3352 0.99382 0.0
H1204 H 0.48564 0.40158 0.00501 0.0
H1205 H 0.44048 0.39198 0.92804 0.0
C1206 C 0.43344 0.35316 0.86664 0.0
C1207 C 0.43498 0.33289 0.83335 0.0
C1208 C 0.45724 0.35809 0.91537 0.0
C1209 C 0.45845 0.31675 0.85347 0.0
C1210 C 0.481 0.32107 0.90461 0.0
C1211 C 0.50681 0.34749 0.97987 0.0
C1212 C 0.50905 0.36912 0.00486 0.0
C1213 C 0.48146 0.34199 0.93427 0.0
C1214 C 0.48462 0.38489 0.9861 0.0
C1215 C 0.4587 0.37937 0.94235 0.0
H1216 H 0.77757 0.25536 0.06091 0.0
H1217 H 0.67014 0.25642 0.10939 0.0
H1218 H 0.65549 0.24321 0.00223 0.0
H1219 H 0.67237 0.23506 0.89234 0.0
H1220 H 0.77915 0.23271 0.84047 0.0
H1221 H 0.79515 0.24241 0.9519 0.0
C1222 C 0.75118 0.25164 0.0488 0.0
C1223 C 0.72494 0.25682 0.09271 0.0
C1224 C 0.74286 0.24406 0.98654 0.0
C1225 C 0.6907 0.25256 0.07616 0.0
C1226 C 0.68228 0.24506 0.01486 0.0
C1227 C 0.6992 0.23667 0.9055 0.0
C1228 C 0.72458 0.23393 0.85849 0.0
C1229 C 0.708 0.24154 0.96916 0.0
C1230 C 0.75926 0.23522 0.8761 0.0
C1231 C 0.76835 0.24053 0.93974 0.0
H1232 H 0.9848 0.6366 0.42402 0.0
H1233 H 0.95362 0.56898 0.39229 0.0
H1234 H 0.98838 0.5674 0.29464 0.0
H1235 H 0.02842 0.58489 0.21965 0.0
H1236 H 0.06121 0.6521 0.25241 0.0
H1237 H 0.02474 0.65426 0.34813 0.0
C1238 C 0.98563 0.62152 0.3957 0.0
C1239 C 0.96676 0.60291 0.41542 0.0
C1240 C 0.00581 0.62069 0.33976 0.0
C1241 C 0.96802 0.5835 0.37825 0.0
C1242 C 0.98783 0.58259 0.32235 0.0
C1243 C 0.02739 0.60008 0.24742 0.0
C1244 C 0.04736 0.61834 0.22893 0.0
C1245 C 0.00688 0.60106 0.30279 0.0
C1246 C 0.04599 0.63784 0.26566 0.0
C1247 C 0.02523 0.63906 0.32044 0.0
H1248 H 0.87245 0.22869 0.90305 0.0
H1249 H 0.86606 0.29396 0.98592 0.0
H1250 H 0.85317 0.27809 0.09105 0.0
H1251 H 0.82952 0.24645 0.15033 0.0
H1252 H 0.83371 0.18129 0.06661 0.0
H1253 H 0.86243 0.19615 0.97127 0.0
C1254 C 0.86976 0.23937 0.94482 0.0
C1255 C 0.86919 0.26243 0.93659 0.0
C1256 C 0.86135 0.23011 0.00467 0.0
C1257 C 0.86616 0.27616 0.99092 0.0
C1258 C 0.85842 0.26708 0.05099 0.0
C1259 C 0.8379 0.23545 0.11209 0.0
C1260 C 0.82903 0.21297 0.11434 0.0
C1261 C 0.8537 0.2442 0.05717 0.0
C1262 C 0.84019 0.19869 0.06538 0.0
C1263 C 0.85636 0.20722 0.01075 0.0
H1264 H 0.97116 0.44377 0.06779 0.0
H1265 H 0.01332 0.3858 0.9763 0.0
H1266 H 0.05483 0.38175 0.06388 0.0
H1267 H 0.08032 0.39542 0.16548 0.0
H1268 H 0.03682 0.4531 0.25687 0.0
H1269 H 0.99477 0.45641 0.17078 0.0
C1270 C 0.98937 0.43023 0.06714 0.0
C1271 C 0.98928 0.41521 0.01559 0.0
C1272 C 0.01301 0.42792 0.11774 0.0
C1273 C 0.01288 0.39762 0.01555 0.0
C1274 C 0.03667 0.3953 0.06556 0.0
C1275 C 0.0615 0.40861 0.16659 0.0
C1276 C 0.06183 0.42401 0.21736 0.0
C1277 C 0.03715 0.41045 0.11676 0.0
C1278 C 0.03721 0.44101 0.21831 0.0
C1279 C 0.01312 0.44297 0.16901 0.0
H1280 H 0.6989 0.79152 0.30887 0.0
H1281 H 0.63822 0.73462 0.36107 0.0
H1282 H 0.62123 0.75258 0.46103 0.0
H1283 H 0.63249 0.78119 0.54201 0.0
H1284 H 0.69276 0.83819 0.49198 0.0
H1285 H 0.7001 0.82394 0.38231 0.0
C1286 C 0.68141 0.78329 0.3416 0.0
C1287 C 0.67048 0.76157 0.32824 0.0
C1288 C 0.67154 0.79378 0.39937 0.0
C1289 C 0.64736 0.75123 0.37048 0.0
C1290 C 0.63759 0.76148 0.4278 0.0
C1291 C 0.64567 0.791 0.50595 0.0
C1292 C 0.66183 0.81072 0.52456 0.0
C1293 C 0.65062 0.78235 0.44388 0.0
C1294 C 0.67945 0.82318 0.47815 0.0
C1295 C 0.68428 0.81478 0.41584 0.0
H1296 H 0.52419 0.59403 0.53985 0.0
H1297 H 0.59659 0.54449 0.60191 0.0
H1298 H 0.56269 0.53778 0.69876 0.0
H1299 H 0.51203 0.54541 0.76455 0.0
H1300 H 0.43809 0.59375 0.70106 0.0
H1301 H 0.47307 0.60157 0.6059 0.0
C1302 C 0.53259 0.58185 0.57478 0.0
C1303 C 0.56285 0.5698 0.56391 0.0
C1304 C 0.51269 0.57785 0.62989 0.0
C1305 C 0.57334 0.55395 0.60922 0.0
C1306 C 0.55399 0.55011 0.66458 0.0
C1307 C 0.50363 0.55773 0.73003 0.0
C1308 C 0.47261 0.56903 0.73978 0.0
C1309 C 0.52356 0.56188 0.67521 0.0
C1310 C 0.4619 0.58482 0.69447 0.0
C1311 C 0.48188 0.5893 0.64014 0.0
H1312 H 0.16678 0.2843 0.65766 0.0
H1313 H 0.10929 0.22494 0.61611 0.0
H1314 H 0.07895 0.24376 0.5297 0.0
H1315 H 0.07563 0.27484 0.4551 0.0
H1316 H 0.13308 0.33423 0.49385 0.0
H1317 H 0.15512 0.31811 0.59369 0.0
C1318 C 0.14725 0.27562 0.63027 0.0
C1319 C 0.14088 0.2531 0.64247 0.0
C1320 C 0.12966 0.2866 0.58029 0.0
C1321 C 0.1151 0.24218 0.60725 0.0
C1322 C 0.09759 0.25294 0.55781 0.0
C1323 C 0.09192 0.28459 0.48666 0.0
C1324 C 0.10339 0.30546 0.46624 0.0
C1325 C 0.10551 0.27489 0.54249 0.0
C1326 C 0.12413 0.31802 0.50803 0.0
C1327 C 0.13722 0.30865 0.56467 0.0
H1328 H 0.5158 0.5625 0.28544 0.0
H1329 H 0.57649 0.6134 0.19531 0.0
H1330 H 0.54249 0.60974 0.0964 0.0
H1331 H 0.49805 0.59014 0.03351 0.0
H1332 H 0.43985 0.53798 0.12359 0.0
H1333 H 0.4706 0.54396 0.22461 0.0
C1334 C 0.52132 0.57305 0.24453 0.0
C1335 C 0.54858 0.58823 0.2477 0.0
C1336 C 0.50243 0.57038 0.18756 0.0
C1337 C 0.55553 0.60165 0.1941 0.0
C1338 C 0.53625 0.59945 0.13747 0.0
C1339 C 0.49206 0.58015 0.07536 0.0
C1340 C 0.46687 0.56354 0.071 0.0
C1341 C 0.5101 0.58354 0.13325 0.0
C1342 C 0.45929 0.55075 0.12558 0.0
C1343 C 0.47678 0.5542 0.18341 0.0
H1344 H 0.30931 0.77459 0.14003 0.0
H1345 H 0.27187 0.83429 0.05153 0.0
H1346 H 0.30752 0.82731 0.95666 0.0
H1347 H 0.33904 0.80014 0.89145 0.0
H1348 H 0.37481 0.73982 0.97925 0.0
H1349 H 0.35142 0.75153 0.08285 0.0
C1350 C 0.30986 0.78639 0.10069 0.0
C1351 C 0.28771 0.80469 0.1018 0.0
C1352 C 0.33014 0.78213 0.04631 0.0
C1353 C 0.2887 0.82005 0.0513 0.0
C1354 C 0.30892 0.81599 0.997 0.0
C1355 C 0.34298 0.79002 0.93396 0.0
C1356 C 0.35801 0.76899 0.9276 0.0
C1357 C 0.32839 0.79652 0.99278 0.0
C1358 C 0.36326 0.75606 0.9829 0.0
C1359 C 0.34945 0.76262 0.04202 0.0
H1360 H 0.08457 0.4486 0.56207 0.0
H1361 H 0.05373 0.38539 0.48467 0.0
H1362 H 0.01323 0.38054 0.57306 0.0
H1363 H 0.98544 0.3947 0.67115 0.0
H1364 H 0.01695 0.45776 0.74882 0.0
H1365 H 0.05828 0.46215 0.66186 0.0
C1366 C 0.06904 0.43375 0.56469 0.0
C1367 C 0.072 0.41746 0.51682 0.0
C1368 C 0.04586 0.43102 0.61572 0.0
C1369 C 0.05185 0.39823 0.52093 0.0
C1370 C 0.02866 0.39543 0.57143 0.0
C1371 C 0.00147 0.40934 0.6691 0.0
C1372 C 0.99807 0.42588 0.71617 0.0
C1373 C 0.02528 0.41178 0.6189 0.0
C1374 C 0.01906 0.44475 0.71309 0.0
C1375 C 0.04269 0.44732 0.66333 0.0
H1376 H 0.27609 0.74571 0.05513 0.0
H1377 H 0.17232 0.73747 0.12236 0.0
H1378 H 0.15045 0.74918 0.01852 0.0
H1379 H 0.15982 0.76058 0.90915 0.0
H1380 H 0.26238 0.76904 0.83647 0.0
H1381 H 0.2857 0.7596 0.94336 0.0
C1382 C 0.24877 0.74781 0.04798 0.0
C1383 C 0.22577 0.74104 0.09623 0.0
C1384 C 0.23611 0.75504 0.988 0.0
C1385 C 0.19038 0.74287 0.08598 0.0
C1386 C 0.17779 0.74977 0.0269 0.0
C1387 C 0.18737 0.76052 0.91667 0.0
C1388 C 0.20945 0.76502 0.86522 0.0
C1389 C 0.20031 0.75552 0.97749 0.0
C1390 C 0.24498 0.76548 0.87574 0.0
C1391 C 0.25825 0.76031 0.93682 0.0
H1392 H 0.99973 0.58673 0.71432 0.0
H1393 H 0.95295 0.64955 0.75855 0.0
H1394 H 0.98925 0.65305 0.85451 0.0
H1395 H 0.03319 0.63763 0.92745 0.0
H1396 H 0.07825 0.5742 0.88388 0.0
H1397 H 0.04361 0.57155 0.78607 0.0
C1398 C 0.99763 0.60129 0.74464 0.0
C1399 C 0.97377 0.6179 0.72922 0.0
C1400 C 0.01813 0.603 0.80006 0.0
C1401 C 0.9712 0.63656 0.76929 0.0
C1402 C 0.99188 0.63854 0.82422 0.0
C1403 C 0.03546 0.62326 0.89643 0.0
C1404 C 0.05824 0.60611 0.91297 0.0
C1405 C 0.01524 0.62176 0.84038 0.0
C1406 C 0.06086 0.58759 0.87238 0.0
C1407 C 0.0411 0.58607 0.81637 0.0
H1408 H 0.25831 0.25771 0.64235 0.0
H1409 H 0.36528 0.27613 0.64487 0.0
H1410 H 0.37254 0.2614 0.53686 0.0
H1411 H 0.3477 0.24734 0.4381 0.0
H1412 H 0.24126 0.22819 0.43151 0.0
H1413 H 0.23454 0.23922 0.54484 0.0
C1414 C 0.2834 0.25785 0.61993 0.0
C1415 C 0.31107 0.26835 0.65114 0.0
C1416 C 0.28736 0.24966 0.55672 0.0
C1417 C 0.34344 0.26843 0.62157 0.0
C1418 C 0.3476 0.26017 0.55953 0.0
C1419 C 0.32286 0.24572 0.46104 0.0
C1420 C 0.29478 0.23756 0.42589 0.0
C1421 C 0.31945 0.25166 0.52581 0.0
C1422 C 0.26307 0.23499 0.4571 0.0
C1423 C 0.25938 0.24098 0.52208 0.0
H1424 H 0.47998 0.38555 0.50531 0.0
H1425 H 0.48713 0.31443 0.50203 0.0
H1426 H 0.52201 0.31629 0.40362 0.0
H1427 H 0.54667 0.33853 0.31359 0.0
H1428 H 0.53431 0.40943 0.31699 0.0
H1429 H 0.50533 0.40726 0.42031 0.0
C1430 C 0.48941 0.3704 0.48361 0.0
C1431 C 0.48092 0.3499 0.51072 0.0
C1432 C 0.5083 0.37159 0.42661 0.0
C1433 C 0.49335 0.33045 0.48191 0.0
C1434 C 0.51315 0.33151 0.42557 0.0
C1435 C 0.53783 0.35342 0.33752 0.0
C1436 C 0.54228 0.37408 0.30767 0.0
C1437 C 0.52021 0.35202 0.39669 0.0
C1438 C 0.53072 0.39331 0.33873 0.0
C1439 C 0.51424 0.39212 0.39789 0.0
loop_
_geom_bond_atom_site_label_1
_geom_bond_atom_site_label_2
_geom_bond_distance
_geom_bond_site_symmetry_2
_ccdc_geom_bond_type
In0 O1 2.294 . S
In0 O2 2.326 . S
In0 O6 2.266 . S
In0 O7 2.326 . S
In0 O8 2.266 . S
In0 O9 2.326 . S
In0 O11 2.294 . S
In0 O12 2.326 . S
O1 In0 2.294 . S
O1 C10 1.240 . S
O2 In0 2.326 . S
O2 C10 1.252 . S
C3 O6 1.252 . S
C3 O7 1.260 . S
C4 O11 1.240 . S
C4 O12 1.252 . S
C5 O8 1.252 . S
C5 O9 1.260 . S
O6 In0 2.266 . S
O6 C3 1.252 . S
O7 In0 2.326 . S
O7 C3 1.260 . S
O8 In0 2.266 . S
O8 C5 1.252 . S
O9 In0 2.326 . S
O9 C5 1.260 . S
C10 O1 1.240 . S
C10 O2 1.252 . S
O11 In0 2.294 . S
O11 C4 1.240 . S
O12 In0 2.326 . S
O12 C4 1.252 . S
In13 O14 2.294 . S
In13 O15 2.326 . S
In13 O19 2.266 . S
In13 O20 2.326 . S
In13 O21 2.266 . S
In13 O22 2.326 . S
In13 O24 2.294 . S
In13 O25 2.326 . S
O14 In13 2.294 . S
O14 C23 1.240 . S
O15 In13 2.326 . S
O15 C23 1.252 . S
C16 O19 1.252 . S
C16 O20 1.260 . S
C17 O24 1.240 . S
C17 O25 1.252 . S
C18 O21 1.252 . S
C18 O22 1.260 . S
O19 In13 2.266 . S
O19 C16 1.252 . S
O20 In13 2.326 . S
O20 C16 1.260 . S
O21 In13 2.266 . S
O21 C18 1.252 . S
O22 In13 2.326 . S
O22 C18 1.260 . S
C23 O14 1.240 . S
C23 O15 1.252 . S
O24 In13 2.294 . S
O24 C17 1.240 . S
O25 In13 2.326 . S
O25 C17 1.252 . S
In26 O27 2.294 . S
In26 O28 2.326 . S
In26 O32 2.266 . S
In26 O33 2.326 . S
In26 O34 2.266 . S
In26 O35 2.326 . S
In26 O37 2.294 . S
In26 O38 2.326 . S
O27 In26 2.294 . S
O27 C36 1.240 . S
O28 In26 2.326 . S
O28 C36 1.252 . S
C29 O32 1.252 . S
C29 O33 1.260 . S
C30 O37 1.240 . S
C30 O38 1.252 . S
C31 O34 1.252 . S
C31 O35 1.260 . S
O32 In26 2.266 . S
O32 C29 1.252 . S
O33 In26 2.326 . S
O33 C29 1.260 . S
O34 In26 2.266 . S
O34 C31 1.252 . S
O35 In26 2.326 . S
O35 C31 1.260 . S
C36 O27 1.240 . S
C36 O28 1.252 . S
O37 In26 2.294 . S
O37 C30 1.240 . S
O38 In26 2.326 . S
O38 C30 1.252 . S
In39 O40 2.294 . S
In39 O41 2.326 . S
In39 O45 2.266 . S
In39 O46 2.326 . S
In39 O47 2.266 . S
In39 O48 2.326 . S
In39 O50 2.294 . S
In39 O51 2.326 . S
O40 In39 2.294 . S
O40 C49 1.240 . S
O41 In39 2.326 . S
O41 C49 1.252 . S
C42 O45 1.252 . S
C42 O46 1.260 . S
C43 O50 1.240 . S
C43 O51 1.252 . S
C44 O47 1.252 . S
C44 O48 1.260 . S
O45 In39 2.266 . S
O45 C42 1.252 . S
O46 In39 2.326 . S
O46 C42 1.260 . S
O47 In39 2.266 . S
O47 C44 1.252 . S
O48 In39 2.326 . S
O48 C44 1.260 . S
C49 O40 1.240 . S
C49 O41 1.252 . S
O50 In39 2.294 . S
O50 C43 1.240 . S
O51 In39 2.326 . S
O51 C43 1.252 . S
In52 O53 2.294 . S
In52 O54 2.326 . S
In52 O58 2.266 . S
In52 O59 2.326 . S
In52 O60 2.266 . S
In52 O61 2.326 . S
In52 O63 2.294 . S
In52 O64 2.326 . S
O53 In52 2.294 . S
O53 C62 1.240 . S
O54 In52 2.326 . S
O54 C62 1.252 . S
C55 O58 1.252 . S
C55 O59 1.260 . S
C56 O63 1.240 . S
C56 O64 1.252 . S
C57 O60 1.252 . S
C57 O61 1.260 . S
O58 In52 2.266 . S
O58 C55 1.252 . S
O59 In52 2.326 . S
O59 C55 1.260 . S
O60 In52 2.266 . S
O60 C57 1.252 . S
O61 In52 2.326 . S
O61 C57 1.260 . S
C62 O53 1.240 . S
C62 O54 1.252 . S
O63 In52 2.294 . S
O63 C56 1.240 . S
O64 In52 2.326 . S
O64 C56 1.252 . S
In65 O66 2.294 . S
In65 O67 2.326 . S
In65 O71 2.266 . S
In65 O72 2.326 . S
In65 O73 2.266 . S
In65 O74 2.326 . S
In65 O76 2.294 . S
In65 O77 2.326 . S
O66 In65 2.294 . S
O66 C75 1.240 . S
O67 In65 2.326 . S
O67 C75 1.252 . S
C68 O71 1.252 . S
C68 O72 1.260 . S
C69 O76 1.240 . S
C69 O77 1.252 . S
C70 O73 1.252 . S
C70 O74 1.260 . S
O71 In65 2.266 . S
O71 C68 1.252 . S
O72 In65 2.326 . S
O72 C68 1.260 . S
O73 In65 2.266 . S
O73 C70 1.252 . S
O74 In65 2.326 . S
O74 C70 1.260 . S
C75 O66 1.240 . S
C75 O67 1.252 . S
O76 In65 2.294 . S
O76 C69 1.240 . S
O77 In65 2.326 . S
O77 C69 1.252 . S
In78 O79 2.294 . S
In78 O80 2.326 . S
In78 O84 2.266 . S
In78 O85 2.326 . S
In78 O86 2.266 . S
In78 O87 2.326 . S
In78 O89 2.294 . S
In78 O90 2.326 . S
O79 In78 2.294 . S
O79 C88 1.240 . S
O80 In78 2.326 . S
O80 C88 1.252 . S
C81 O84 1.252 . S
C81 O85 1.260 . S
C82 O89 1.240 . S
C82 O90 1.252 . S
C83 O86 1.252 . S
C83 O87 1.260 . S
O84 In78 2.266 . S
O84 C81 1.252 . S
O85 In78 2.326 . S
O85 C81 1.260 . S
O86 In78 2.266 . S
O86 C83 1.252 . S
O87 In78 2.326 . S
O87 C83 1.260 . S
C88 O79 1.240 . S
C88 O80 1.252 . S
O89 In78 2.294 . S
O89 C82 1.240 . S
O90 In78 2.326 . S
O90 C82 1.252 . S
In91 O92 2.294 . S
In91 O93 2.326 . S
In91 O97 2.266 . S
In91 O98 2.326 . S
In91 O99 2.266 . S
In91 O100 2.326 . S
In91 O102 2.294 . S
In91 O103 2.326 . S
O92 In91 2.294 . S
O92 C101 1.240 . S
O93 In91 2.326 . S
O93 C101 1.252 . S
C94 O97 1.252 . S
C94 O98 1.260 . S
C95 O102 1.240 . S
C95 O103 1.252 . S
C96 O99 1.252 . S
C96 O100 1.260 . S
O97 In91 2.266 . S
O97 C94 1.252 . S
O98 In91 2.326 . S
O98 C94 1.260 . S
O99 In91 2.266 . S
O99 C96 1.252 . S
O100 In91 2.326 . S
O100 C96 1.260 . S
C101 O92 1.240 . S
C101 O93 1.252 . S
O102 In91 2.294 . S
O102 C95 1.240 . S
O103 In91 2.326 . S
O103 C95 1.252 . S
In104 O105 2.294 . S
In104 O106 2.326 . S
In104 O110 2.266 . S
In104 O111 2.326 . S
In104 O112 2.266 . S
In104 O113 2.326 . S
In104 O115 2.294 . S
In104 O116 2.326 . S
O105 In104 2.294 . S
O105 C114 1.240 . S
O106 In104 2.326 . S
O106 C114 1.252 . S
C107 O110 1.252 . S
C107 O111 1.260 . S
C108 O115 1.240 . S
C108 O116 1.252 . S
C109 O112 1.252 . S
C109 O113 1.260 . S
O110 In104 2.266 . S
O110 C107 1.252 . S
O111 In104 2.326 . S
O111 C107 1.260 . S
O112 In104 2.266 . S
O112 C109 1.252 . S
O113 In104 2.326 . S
O113 C109 1.260 . S
C114 O105 1.240 . S
C114 O106 1.252 . S
O115 In104 2.294 . S
O115 C108 1.240 . S
O116 In104 2.326 . S
O116 C108 1.252 . S
In117 O118 2.294 . S
In117 O119 2.326 . S
In117 O123 2.266 . S
In117 O124 2.326 . S
In117 O125 2.266 . S
In117 O126 2.326 . S
In117 O128 2.294 . S
In117 O129 2.326 . S
O118 In117 2.294 . S
O118 C127 1.240 . S
O119 In117 2.326 . S
O119 C127 1.252 . S
C120 O123 1.252 . S
C120 O124 1.260 . S
C121 O128 1.240 . S
C121 O129 1.252 . S
C122 O125 1.252 . S
C122 O126 1.260 . S
O123 In117 2.266 . S
O123 C120 1.252 . S
O124 In117 2.326 . S
O124 C120 1.260 . S
O125 In117 2.266 . S
O125 C122 1.252 . S
O126 In117 2.326 . S
O126 C122 1.260 . S
C127 O118 1.240 . S
C127 O119 1.252 . S
O128 In117 2.294 . S
O128 C121 1.240 . S
O129 In117 2.326 . S
O129 C121 1.252 . S
In130 O131 2.294 . S
In130 O132 2.326 . S
In130 O136 2.266 . S
In130 O137 2.326 . S
In130 O138 2.266 . S
In130 O139 2.326 . S
In130 O141 2.294 . S
In130 O142 2.326 . S
O131 In130 2.294 . S
O131 C140 1.240 . S
O132 In130 2.326 . S
O132 C140 1.252 . S
C133 O136 1.252 . S
C133 O137 1.260 . S
C134 O141 1.240 . S
C134 O142 1.252 . S
C135 O138 1.252 . S
C135 O139 1.260 . S
O136 In130 2.266 . S
O136 C133 1.252 . S
O137 In130 2.326 . S
O137 C133 1.260 . S
O138 In130 2.266 . S
O138 C135 1.252 . S
O139 In130 2.326 . S
O139 C135 1.260 . S
C140 O131 1.240 . S
C140 O132 1.252 . S
O141 In130 2.294 . S
O141 C134 1.240 . S
O142 In130 2.326 . S
O142 C134 1.252 . S
In143 O144 2.294 . S
In143 O145 2.326 . S
In143 O149 2.266 . S
In143 O150 2.326 . S
In143 O151 2.266 . S
In143 O152 2.326 . S
In143 O154 2.294 . S
In143 O155 2.326 . S
O144 In143 2.294 . S
O144 C153 1.240 . S
O145 In143 2.326 . S
O145 C153 1.252 . S
C146 O149 1.252 . S
C146 O150 1.260 . S
C147 O154 1.240 . S
C147 O155 1.252 . S
C148 O151 1.252 . S
C148 O152 1.260 . S
O149 In143 2.266 . S
O149 C146 1.252 . S
O150 In143 2.326 . S
O150 C146 1.260 . S
O151 In143 2.266 . S
O151 C148 1.252 . S
O152 In143 2.326 . S
O152 C148 1.260 . S
C153 O144 1.240 . S
C153 O145 1.252 . S
O154 In143 2.294 . S
O154 C147 1.240 . S
O155 In143 2.326 . S
O155 C147 1.252 . S
In156 O157 2.294 . S
In156 O158 2.326 . S
In156 O162 2.266 . S
In156 O163 2.326 . S
In156 O164 2.266 . S
In156 O165 2.326 . S
In156 O167 2.294 . S
In156 O168 2.326 . S
O157 In156 2.294 . S
O157 C166 1.240 . S
O158 In156 2.326 . S
O158 C166 1.252 . S
C159 O162 1.252 . S
C159 O163 1.260 . S
C160 O167 1.240 . S
C160 O168 1.252 . S
C161 O164 1.252 . S
C161 O165 1.260 . S
O162 In156 2.266 . S
O162 C159 1.252 . S
O163 In156 2.326 . S
O163 C159 1.260 . S
O164 In156 2.266 . S
O164 C161 1.252 . S
O165 In156 2.326 . S
O165 C161 1.260 . S
C166 O157 1.240 . S
C166 O158 1.252 . S
O167 In156 2.294 . S
O167 C160 1.240 . S
O168 In156 2.326 . S
O168 C160 1.252 . S
In169 O170 2.294 . S
In169 O171 2.326 . S
In169 O175 2.266 . S
In169 O176 2.326 . S
In169 O177 2.266 . S
In169 O178 2.326 . S
In169 O180 2.294 . S
In169 O181 2.326 . S
O170 In169 2.294 . S
O170 C179 1.240 . S
O171 In169 2.326 . S
O171 C179 1.252 . S
C172 O175 1.252 . S
C172 O176 1.260 . S
C173 O180 1.240 . S
C173 O181 1.252 . S
C174 O177 1.252 . S
C174 O178 1.260 . S
O175 In169 2.266 . S
O175 C172 1.252 . S
O176 In169 2.326 . S
O176 C172 1.260 . S
O177 In169 2.266 . S
O177 C174 1.252 . S
O178 In169 2.326 . S
O178 C174 1.260 . S
C179 O170 1.240 . S
C179 O171 1.252 . S
O180 In169 2.294 . S
O180 C173 1.240 . S
O181 In169 2.326 . S
O181 C173 1.252 . S
In182 O183 2.294 . S
In182 O184 2.326 . S
In182 O188 2.266 . S
In182 O189 2.326 . S
In182 O190 2.266 . S
In182 O191 2.326 . S
In182 O193 2.294 . S
In182 O194 2.326 . S
O183 In182 2.294 . S
O183 C192 1.240 . S
O184 In182 2.326 . S
O184 C192 1.252 . S
C185 O188 1.252 . S
C185 O189 1.260 . S
C186 O193 1.240 . S
C186 O194 1.252 . S
C187 O190 1.252 . S
C187 O191 1.260 . S
O188 In182 2.266 . S
O188 C185 1.252 . S
O189 In182 2.326 . S
O189 C185 1.260 . S
O190 In182 2.266 . S
O190 C187 1.252 . S
O191 In182 2.326 . S
O191 C187 1.260 . S
C192 O183 1.240 . S
C192 O184 1.252 . S
O193 In182 2.294 . S
O193 C186 1.240 . S
O194 In182 2.326 . S
O194 C186 1.252 . S
In195 O196 2.294 . S
In195 O197 2.326 . S
In195 O201 2.266 . S
In195 O202 2.326 . S
In195 O203 2.266 . S
In195 O204 2.326 . S
In195 O206 2.294 . S
In195 O207 2.326 . S
O196 In195 2.294 . S
O196 C205 1.240 . S
O197 In195 2.326 . S
O197 C205 1.252 . S
C198 O201 1.252 . S
C198 O202 1.260 . S
C199 O206 1.240 . S
C199 O207 1.252 . S
C200 O203 1.252 . S
C200 O204 1.260 . S
O201 In195 2.266 . S
O201 C198 1.252 . S
O202 In195 2.326 . S
O202 C198 1.260 . S
O203 In195 2.266 . S
O203 C200 1.252 . S
O204 In195 2.326 . S
O204 C200 1.260 . S
C205 O196 1.240 . S
C205 O197 1.252 . S
O206 In195 2.294 . S
O206 C199 1.240 . S
O207 In195 2.326 . S
O207 C199 1.252 . S
In208 O209 2.294 . S
In208 O210 2.326 . S
In208 O214 2.266 . S
In208 O215 2.326 . S
In208 O216 2.266 . S
In208 O217 2.326 . S
In208 O219 2.294 . S
In208 O220 2.326 . S
O209 In208 2.294 . S
O209 C218 1.240 . S
O210 In208 2.326 . S
O210 C218 1.252 . S
C211 O214 1.252 . S
C211 O215 1.260 . S
C212 O219 1.240 . S
C212 O220 1.252 . S
C213 O216 1.252 . S
C213 O217 1.260 . S
O214 In208 2.266 . S
O214 C211 1.252 . S
O215 In208 2.326 . S
O215 C211 1.260 . S
O216 In208 2.266 . S
O216 C213 1.252 . S
O217 In208 2.326 . S
O217 C213 1.260 . S
C218 O209 1.240 . S
C218 O210 1.252 . S
O219 In208 2.294 . S
O219 C212 1.240 . S
O220 In208 2.326 . S
O220 C212 1.252 . S
In221 O222 2.294 . S
In221 O223 2.326 . S
In221 O227 2.266 . S
In221 O228 2.326 . S
In221 O229 2.266 . S
In221 O230 2.326 . S
In221 O232 2.294 . S
In221 O233 2.326 . S
O222 In221 2.294 . S
O222 C231 1.240 . S
O223 In221 2.326 . S
O223 C231 1.252 . S
C224 O227 1.252 . S
C224 O228 1.260 . S
C225 O232 1.240 . S
C225 O233 1.252 . S
C226 O229 1.252 . S
C226 O230 1.260 . S
O227 In221 2.266 . S
O227 C224 1.252 . S
O228 In221 2.326 . S
O228 C224 1.260 . S
O229 In221 2.266 . S
O229 C226 1.252 . S
O230 In221 2.326 . S
O230 C226 1.260 . S
C231 O222 1.240 . S
C231 O223 1.252 . S
O232 In221 2.294 . S
O232 C225 1.240 . S
O233 In221 2.326 . S
O233 C225 1.252 . S
In234 O235 2.294 . S
In234 O236 2.326 . S
In234 O240 2.266 . S
In234 O241 2.326 . S
In234 O242 2.266 . S
In234 O243 2.326 . S
In234 O245 2.294 . S
In234 O246 2.326 . S
O235 In234 2.294 . S
O235 C244 1.240 . S
O236 In234 2.326 . S
O236 C244 1.252 . S
C237 O240 1.252 . S
C237 O241 1.260 . S
C238 O245 1.240 . S
C238 O246 1.252 . S
C239 O242 1.252 . S
C239 O243 1.260 . S
O240 In234 2.266 . S
O240 C237 1.252 . S
O241 In234 2.326 . S
O241 C237 1.260 . S
O242 In234 2.266 . S
O242 C239 1.252 . S
O243 In234 2.326 . S
O243 C239 1.260 . S
C244 O235 1.240 . S
C244 O236 1.252 . S
O245 In234 2.294 . S
O245 C238 1.240 . S
O246 In234 2.326 . S
O246 C238 1.252 . S
In247 O248 2.294 . S
In247 O249 2.326 . S
In247 O253 2.266 . S
In247 O254 2.326 . S
In247 O255 2.266 . S
In247 O256 2.326 . S
In247 O258 2.294 . S
In247 O259 2.326 . S
O248 In247 2.294 . S
O248 C257 1.240 . S
O249 In247 2.326 . S
O249 C257 1.252 . S
C250 O253 1.252 . S
C250 O254 1.260 . S
C251 O258 1.240 . S
C251 O259 1.252 . S
C252 O255 1.252 . S
C252 O256 1.260 . S
O253 In247 2.266 . S
O253 C250 1.252 . S
O254 In247 2.326 . S
O254 C250 1.260 . S
O255 In247 2.266 . S
O255 C252 1.252 . S
O256 In247 2.326 . S
O256 C252 1.260 . S
C257 O248 1.240 . S
C257 O249 1.252 . S
O258 In247 2.294 . S
O258 C251 1.240 . S
O259 In247 2.326 . S
O259 C251 1.252 . S
In260 O261 2.294 . S
In260 O262 2.326 . S
In260 O266 2.266 . S
In260 O267 2.326 . S
In260 O268 2.266 . S
In260 O269 2.326 . S
In260 O271 2.294 . S
In260 O272 2.326 . S
O261 In260 2.294 . S
O261 C270 1.240 . S
O262 In260 2.326 . S
O262 C270 1.252 . S
C263 O266 1.252 . S
C263 O267 1.260 . S
C264 O271 1.240 . S
C264 O272 1.252 . S
C265 O268 1.252 . S
C265 O269 1.260 . S
O266 In260 2.266 . S
O266 C263 1.252 . S
O267 In260 2.326 . S
O267 C263 1.260 . S
O268 In260 2.266 . S
O268 C265 1.252 . S
O269 In260 2.326 . S
O269 C265 1.260 . S
C270 O261 1.240 . S
C270 O262 1.252 . S
O271 In260 2.294 . S
O271 C264 1.240 . S
O272 In260 2.326 . S
O272 C264 1.252 . S
In273 O274 2.294 . S
In273 O275 2.326 . S
In273 O279 2.266 . S
In273 O280 2.326 . S
In273 O281 2.266 . S
In273 O282 2.326 . S
In273 O284 2.294 . S
In273 O285 2.326 . S
O274 In273 2.294 . S
O274 C283 1.240 . S
O275 In273 2.326 . S
O275 C283 1.252 . S
C276 O279 1.252 . S
C276 O280 1.260 . S
C277 O284 1.240 . S
C277 O285 1.252 . S
C278 O281 1.252 . S
C278 O282 1.260 . S
O279 In273 2.266 . S
O279 C276 1.252 . S
O280 In273 2.326 . S
O280 C276 1.260 . S
O281 In273 2.266 . S
O281 C278 1.252 . S
O282 In273 2.326 . S
O282 C278 1.260 . S
C283 O274 1.240 . S
C283 O275 1.252 . S
O284 In273 2.294 . S
O284 C277 1.240 . S
O285 In273 2.326 . S
O285 C277 1.252 . S
In286 O287 2.294 . S
In286 O288 2.326 . S
In286 O292 2.266 . S
In286 O293 2.326 . S
In286 O294 2.266 . S
In286 O295 2.326 . S
In286 O297 2.294 . S
In286 O298 2.326 . S
O287 In286 2.294 . S
O287 C296 1.240 . S
O288 In286 2.326 . S
O288 C296 1.252 . S
C289 O292 1.252 . S
C289 O293 1.260 . S
C290 O297 1.240 . S
C290 O298 1.252 . S
C291 O294 1.252 . S
C291 O295 1.260 . S
O292 In286 2.266 . S
O292 C289 1.252 . S
O293 In286 2.326 . S
O293 C289 1.260 . S
O294 In286 2.266 . S
O294 C291 1.252 . S
O295 In286 2.326 . S
O295 C291 1.260 . S
C296 O287 1.240 . S
C296 O288 1.252 . S
O297 In286 2.294 . S
O297 C290 1.240 . S
O298 In286 2.326 . S
O298 C290 1.252 . S
In299 O300 2.294 . S
In299 O301 2.326 . S
In299 O305 2.266 . S
In299 O306 2.326 . S
In299 O307 2.266 . S
In299 O308 2.326 . S
In299 O310 2.294 . S
In299 O311 2.326 . S
O300 In299 2.294 . S
O300 C309 1.240 . S
O301 In299 2.326 . S
O301 C309 1.252 . S
C302 O305 1.252 . S
C302 O306 1.260 . S
C303 O310 1.240 . S
C303 O311 1.252 . S
C304 O307 1.252 . S
C304 O308 1.260 . S
O305 In299 2.266 . S
O305 C302 1.252 . S
O306 In299 2.326 . S
O306 C302 1.260 . S
O307 In299 2.266 . S
O307 C304 1.252 . S
O308 In299 2.326 . S
O308 C304 1.260 . S
C309 O300 1.240 . S
C309 O301 1.252 . S
O310 In299 2.294 . S
O310 C303 1.240 . S
O311 In299 2.326 . S
O311 C303 1.252 . S
In312 O313 2.294 . S
In312 O314 2.326 . S
In312 O318 2.266 . S
In312 O319 2.326 . S
In312 O320 2.266 . S
In312 O321 2.326 . S
In312 O323 2.294 . S
In312 O324 2.326 . S
O313 In312 2.294 . S
O313 C322 1.240 . S
O314 In312 2.326 . S
O314 C322 1.252 . S
C315 O318 1.252 . S
C315 O319 1.260 . S
C316 O323 1.240 . S
C316 O324 1.252 . S
C317 O320 1.252 . S
C317 O321 1.260 . S
O318 In312 2.266 . S
O318 C315 1.252 . S
O319 In312 2.326 . S
O319 C315 1.260 . S
O320 In312 2.266 . S
O320 C317 1.252 . S
O321 In312 2.326 . S
O321 C317 1.260 . S
C322 O313 1.240 . S
C322 O314 1.252 . S
O323 In312 2.294 . S
O323 C316 1.240 . S
O324 In312 2.326 . S
O324 C316 1.252 . S
In325 O326 2.294 . S
In325 O327 2.326 . S
In325 O331 2.266 . S
In325 O332 2.326 . S
In325 O333 2.266 . S
In325 O334 2.326 . S
In325 O336 2.294 . S
In325 O337 2.326 . S
O326 In325 2.294 . S
O326 C335 1.240 . S
O327 In325 2.326 . S
O327 C335 1.252 . S
C328 O331 1.252 . S
C328 O332 1.260 . S
C329 O336 1.240 . S
C329 O337 1.252 . S
C330 O333 1.252 . S
C330 O334 1.260 . S
O331 In325 2.266 . S
O331 C328 1.252 . S
O332 In325 2.326 . S
O332 C328 1.260 . S
O333 In325 2.266 . S
O333 C330 1.252 . S
O334 In325 2.326 . S
O334 C330 1.260 . S
C335 O326 1.240 . S
C335 O327 1.252 . S
O336 In325 2.294 . S
O336 C329 1.240 . S
O337 In325 2.326 . S
O337 C329 1.252 . S
In338 O339 2.294 . S
In338 O340 2.326 . S
In338 O344 2.266 . S
In338 O345 2.326 . S
In338 O346 2.266 . S
In338 O347 2.326 . S
In338 O349 2.294 . S
In338 O350 2.326 . S
O339 In338 2.294 . S
O339 C348 1.240 . S
O340 In338 2.326 . S
O340 C348 1.252 . S
C341 O344 1.252 . S
C341 O345 1.260 . S
C342 O349 1.240 . S
C342 O350 1.252 . S
C343 O346 1.252 . S
C343 O347 1.260 . S
O344 In338 2.266 . S
O344 C341 1.252 . S
O345 In338 2.326 . S
O345 C341 1.260 . S
O346 In338 2.266 . S
O346 C343 1.252 . S
O347 In338 2.326 . S
O347 C343 1.260 . S
C348 O339 1.240 . S
C348 O340 1.252 . S
O349 In338 2.294 . S
O349 C342 1.240 . S
O350 In338 2.326 . S
O350 C342 1.252 . S
In351 O352 2.294 . S
In351 O353 2.326 . S
In351 O357 2.266 . S
In351 O358 2.326 . S
In351 O359 2.266 . S
In351 O360 2.326 . S
In351 O362 2.294 . S
In351 O363 2.326 . S
O352 In351 2.294 . S
O352 C361 1.240 . S
O353 In351 2.326 . S
O353 C361 1.252 . S
C354 O357 1.252 . S
C354 O358 1.260 . S
C355 O362 1.240 . S
C355 O363 1.252 . S
C356 O359 1.252 . S
C356 O360 1.260 . S
O357 In351 2.266 . S
O357 C354 1.252 . S
O358 In351 2.326 . S
O358 C354 1.260 . S
O359 In351 2.266 . S
O359 C356 1.252 . S
O360 In351 2.326 . S
O360 C356 1.260 . S
C361 O352 1.240 . S
C361 O353 1.252 . S
O362 In351 2.294 . S
O362 C355 1.240 . S
O363 In351 2.326 . S
O363 C355 1.252 . S
In364 O365 2.294 . S
In364 O366 2.326 . S
In364 O370 2.266 . S
In364 O371 2.326 . S
In364 O372 2.266 . S
In364 O373 2.326 . S
In364 O375 2.294 . S
In364 O376 2.326 . S
O365 In364 2.294 . S
O365 C374 1.240 . S
O366 In364 2.326 . S
O366 C374 1.252 . S
C367 O370 1.252 . S
C367 O371 1.260 . S
C368 O375 1.240 . S
C368 O376 1.252 . S
C369 O372 1.252 . S
C369 O373 1.260 . S
O370 In364 2.266 . S
O370 C367 1.252 . S
O371 In364 2.326 . S
O371 C367 1.260 . S
O372 In364 2.266 . S
O372 C369 1.252 . S
O373 In364 2.326 . S
O373 C369 1.260 . S
C374 O365 1.240 . S
C374 O366 1.252 . S
O375 In364 2.294 . S
O375 C368 1.240 . S
O376 In364 2.326 . S
O376 C368 1.252 . S
In377 O378 2.294 . S
In377 O379 2.326 . S
In377 O383 2.266 . S
In377 O384 2.326 . S
In377 O385 2.266 . S
In377 O386 2.326 . S
In377 O388 2.294 . S
In377 O389 2.326 . S
O378 In377 2.294 . S
O378 C387 1.240 . S
O379 In377 2.326 . S
O379 C387 1.252 . S
C380 O383 1.252 . S
C380 O384 1.260 . S
C381 O388 1.240 . S
C381 O389 1.252 . S
C382 O385 1.252 . S
C382 O386 1.260 . S
O383 In377 2.266 . S
O383 C380 1.252 . S
O384 In377 2.326 . S
O384 C380 1.260 . S
O385 In377 2.266 . S
O385 C382 1.252 . S
O386 In377 2.326 . S
O386 C382 1.260 . S
C387 O378 1.240 . S
C387 O379 1.252 . S
O388 In377 2.294 . S
O388 C381 1.240 . S
O389 In377 2.326 . S
O389 C381 1.252 . S
In390 O391 2.294 . S
In390 O392 2.326 . S
In390 O396 2.266 . S
In390 O397 2.326 . S
In390 O398 2.266 . S
In390 O399 2.326 . S
In390 O401 2.294 . S
In390 O402 2.326 . S
O391 In390 2.294 . S
O391 C400 1.240 . S
O392 In390 2.326 . S
O392 C400 1.252 . S
C393 O396 1.252 . S
C393 O397 1.260 . S
C394 O401 1.240 . S
C394 O402 1.252 . S
C395 O398 1.252 . S
C395 O399 1.260 . S
O396 In390 2.266 . S
O396 C393 1.252 . S
O397 In390 2.326 . S
O397 C393 1.260 . S
O398 In390 2.266 . S
O398 C395 1.252 . S
O399 In390 2.326 . S
O399 C395 1.260 . S
C400 O391 1.240 . S
C400 O392 1.252 . S
O401 In390 2.294 . S
O401 C394 1.240 . S
O402 In390 2.326 . S
O402 C394 1.252 . S
In403 O404 2.294 . S
In403 O405 2.326 . S
In403 O409 2.266 . S
In403 O410 2.326 . S
In403 O411 2.266 . S
In403 O412 2.326 . S
In403 O414 2.294 . S
In403 O415 2.326 . S
O404 In403 2.294 . S
O404 C413 1.240 . S
O405 In403 2.326 . S
O405 C413 1.252 . S
C406 O409 1.252 . S
C406 O410 1.260 . S
C407 O414 1.240 . S
C407 O415 1.252 . S
C408 O411 1.252 . S
C408 O412 1.260 . S
O409 In403 2.266 . S
O409 C406 1.252 . S
O410 In403 2.326 . S
O410 C406 1.260 . S
O411 In403 2.266 . S
O411 C408 1.252 . S
O412 In403 2.326 . S
O412 C408 1.260 . S
C413 O404 1.240 . S
C413 O405 1.252 . S
O414 In403 2.294 . S
O414 C407 1.240 . S
O415 In403 2.326 . S
O415 C407 1.252 . S
H416 C422 0.930 . S
H417 C425 0.930 . S
H418 C426 0.930 . S
H419 C427 0.930 . S
H420 C430 0.930 . S
H421 C431 0.930 . S
C422 H416 0.930 . S
C422 C423 1.355 . S
C422 C424 1.415 . S
C423 C422 1.355 . S
C423 C425 1.419 . S
C424 C422 1.415 . S
C424 C429 1.425 . S
C424 C431 1.409 . S
C425 H417 0.930 . S
C425 C423 1.419 . S
C425 C426 1.362 . S
C426 H418 0.930 . S
C426 C425 1.362 . S
C426 C429 1.409 . S
C427 H419 0.930 . S
C427 C428 1.355 . S
C427 C429 1.415 . S
C428 C427 1.355 . S
C428 C430 1.419 . S
C429 C424 1.425 . S
C429 C426 1.409 . S
C429 C427 1.415 . S
C430 H420 0.930 . S
C430 C428 1.419 . S
C430 C431 1.362 . S
C431 H421 0.930 . S
C431 C424 1.409 . S
C431 C430 1.362 . S
H432 C438 0.930 . S
H433 C441 0.930 . S
H434 C442 0.930 1_545 S
H435 C443 0.930 . S
H436 C446 0.930 . S
H437 C447 0.930 1_565 S
C438 H432 0.930 . S
C438 C439 1.355 . S
C438 C440 1.415 . S
C439 C438 1.355 . S
C439 C441 1.419 . S
C440 C438 1.415 . S
C440 C445 1.425 1_565 S
C440 C447 1.409 1_565 S
C441 H433 0.930 . S
C441 C439 1.419 . S
C441 C442 1.362 . S
C442 H434 0.930 1_565 S
C442 C441 1.362 . S
C442 C445 1.409 1_565 S
C443 H435 0.930 . S
C443 C444 1.355 . S
C443 C445 1.415 . S
C444 C443 1.355 . S
C444 C446 1.419 . S
C445 C440 1.425 1_545 S
C445 C442 1.409 1_545 S
C445 C443 1.415 . S
C446 H436 0.930 . S
C446 C444 1.419 . S
C446 C447 1.362 . S
C447 H437 0.930 1_545 S
C447 C440 1.409 1_545 S
C447 C446 1.362 . S
H448 C454 0.930 1_556 S
H449 C457 0.930 . S
H450 C458 0.930 . S
H451 C459 0.930 1_554 S
H452 C462 0.930 . S
H453 C463 0.930 . S
C454 H448 0.930 1_554 S
C454 C455 1.355 . S
C454 C456 1.415 1_554 S
C455 C454 1.355 . S
C455 C457 1.419 . S
C456 C454 1.415 1_556 S
C456 C461 1.425 1_556 S
C456 C463 1.409 . S
C457 H449 0.930 . S
C457 C455 1.419 . S
C457 C458 1.362 . S
C458 H450 0.930 . S
C458 C457 1.362 . S
C458 C461 1.409 . S
C459 H451 0.930 1_556 S
C459 C460 1.355 . S
C459 C461 1.415 1_556 S
C460 C459 1.355 . S
C460 C462 1.419 . S
C461 C456 1.425 1_554 S
C461 C458 1.409 . S
C461 C459 1.415 1_554 S
C462 H452 0.930 . S
C462 C460 1.419 . S
C462 C463 1.362 . S
C463 H453 0.930 . S
C463 C456 1.409 . S
C463 C462 1.362 . S
H464 C470 0.930 . S
H465 C473 0.930 . S
H466 C474 0.930 1_565 S
H467 C475 0.930 . S
H468 C478 0.930 . S
H469 C479 0.930 1_545 S
C470 H464 0.930 . S
C470 C471 1.355 . S
C470 C472 1.415 . S
C471 C470 1.355 . S
C471 C473 1.419 . S
C472 C470 1.415 . S
C472 C477 1.425 1_545 S
C472 C479 1.409 1_545 S
C473 H465 0.930 . S
C473 C471 1.419 . S
C473 C474 1.362 . S
C474 H466 0.930 1_545 S
C474 C473 1.362 . S
C474 C477 1.409 1_545 S
C475 H467 0.930 . S
C475 C476 1.355 . S
C475 C477 1.415 . S
C476 C475 1.355 . S
C476 C478 1.419 . S
C477 C472 1.425 1_565 S
C477 C474 1.409 1_565 S
C477 C475 1.415 . S
C478 H468 0.930 . S
C478 C476 1.419 . S
C478 C479 1.362 . S
C479 H469 0.930 1_565 S
C479 C472 1.409 1_565 S
C479 C478 1.362 . S
H480 C486 0.930 . S
H481 C489 0.930 . S
H482 C490 0.930 . S
H483 C491 0.930 . S
H484 C494 0.930 . S
H485 C495 0.930 . S
C486 H480 0.930 . S
C486 C487 1.355 . S
C486 C488 1.415 . S
C487 C486 1.355 . S
C487 C489 1.419 . S
C488 C486 1.415 . S
C488 C493 1.425 . S
C488 C495 1.409 . S
C489 H481 0.930 . S
C489 C487 1.419 . S
C489 C490 1.362 . S
C490 H482 0.930 . S
C490 C489 1.362 . S
C490 C493 1.409 . S
C491 H483 0.930 . S
C491 C492 1.355 . S
C491 C493 1.415 . S
C492 C491 1.355 . S
C492 C494 1.419 . S
C493 C488 1.425 . S
C493 C490 1.409 . S
C493 C491 1.415 . S
C494 H484 0.930 . S
C494 C492 1.419 . S
C494 C495 1.362 . S
C495 H485 0.930 . S
C495 C488 1.409 . S
C495 C494 1.362 . S
H496 C502 0.930 . S
H497 C505 0.930 . S
H498 C506 0.930 . S
H499 C507 0.930 . S
H500 C510 0.930 . S
H501 C511 0.930 . S
C502 H496 0.930 . S
C502 C503 1.355 . S
C502 C504 1.414 1_545 S
C503 C502 1.355 . S
C503 C505 1.419 . S
C504 C502 1.414 1_565 S
C504 C509 1.425 1_565 S
C504 C511 1.410 . S
C505 H497 0.930 . S
C505 C503 1.419 . S
C505 C506 1.362 . S
C506 H498 0.930 . S
C506 C505 1.362 . S
C506 C509 1.410 . S
C507 H499 0.930 . S
C507 C508 1.355 . S
C507 C509 1.414 1_565 S
C508 C507 1.355 . S
C508 C510 1.419 . S
C509 C504 1.425 1_545 S
C509 C506 1.410 . S
C509 C507 1.414 1_545 S
C510 H500 0.930 . S
C510 C508 1.419 . S
C510 C511 1.362 . S
C511 H501 0.930 . S
C511 C504 1.410 . S
C511 C510 1.362 . S
H512 C518 0.930 . S
H513 C521 0.930 . S
H514 C522 0.930 . S
H515 C523 0.930 . S
H516 C526 0.930 . S
H517 C527 0.930 . S
C518 H512 0.930 . S
C518 C519 1.355 . S
C518 C520 1.415 . S
C519 C518 1.355 . S
C519 C521 1.419 . S
C520 C518 1.415 . S
C520 C525 1.425 1_556 S
C520 C527 1.409 . S
C521 H513 0.930 . S
C521 C519 1.419 . S
C521 C522 1.362 1_556 S
C522 H514 0.930 . S
C522 C521 1.362 1_554 S
C522 C525 1.409 . S
C523 H515 0.930 . S
C523 C524 1.355 . S
C523 C525 1.415 . S
C524 C523 1.355 . S
C524 C526 1.419 . S
C525 C520 1.425 1_554 S
C525 C522 1.409 . S
C525 C523 1.415 . S
C526 H516 0.930 . S
C526 C524 1.419 . S
C526 C527 1.362 1_554 S
C527 H517 0.930 . S
C527 C520 1.409 . S
C527 C526 1.362 1_556 S
H528 C534 0.930 . S
H529 C537 0.930 . S
H530 C538 0.930 . S
H531 C539 0.930 . S
H532 C542 0.930 . S
H533 C543 0.930 . S
C534 H528 0.930 . S
C534 C535 1.355 . S
C534 C536 1.414 1_565 S
C535 C534 1.355 . S
C535 C537 1.419 . S
C536 C534 1.414 1_545 S
C536 C541 1.425 1_545 S
C536 C543 1.410 . S
C537 H529 0.930 . S
C537 C535 1.419 . S
C537 C538 1.362 . S
C538 H530 0.930 . S
C538 C537 1.362 . S
C538 C541 1.409 . S
C539 H531 0.930 . S
C539 C540 1.355 . S
C539 C541 1.415 1_545 S
C540 C539 1.355 . S
C540 C542 1.419 . S
C541 C536 1.425 1_565 S
C541 C538 1.409 . S
C541 C539 1.415 1_565 S
C542 H532 0.930 . S
C542 C540 1.419 . S
C542 C543 1.362 . S
C543 H533 0.930 . S
C543 C536 1.410 . S
C543 C542 1.362 . S
H544 C550 0.930 . S
H545 C553 0.930 . S
H546 C554 0.930 . S
H547 C555 0.930 . S
H548 C558 0.930 . S
H549 C559 0.930 . S
C550 H544 0.930 . S
C550 C551 1.355 . S
C550 C552 1.415 1_556 S
C551 C550 1.355 . S
C551 C553 1.419 . S
C552 C550 1.415 1_554 S
C552 C557 1.425 1_554 S
C552 C559 1.409 . S
C553 H545 0.930 . S
C553 C551 1.419 . S
C553 C554 1.362 . S
C554 H546 0.930 . S
C554 C553 1.362 . S
C554 C557 1.409 . S
C555 H547 0.930 . S
C555 C556 1.355 . S
C555 C557 1.415 1_554 S
C556 C555 1.355 . S
C556 C558 1.419 . S
C557 C552 1.425 1_556 S
C557 C554 1.409 . S
C557 C555 1.415 1_556 S
C558 H548 0.930 . S
C558 C556 1.419 . S
C558 C559 1.362 . S
C559 H549 0.930 . S
C559 C552 1.409 . S
C559 C558 1.362 . S
H560 C566 0.930 . S
H561 C569 0.930 . S
H562 C570 0.930 . S
H563 C571 0.930 . S
H564 C574 0.930 . S
H565 C575 0.930 . S
C566 H560 0.930 . S
C566 C567 1.355 . S
C566 C568 1.415 . S
C567 C566 1.355 . S
C567 C569 1.419 . S
C568 C566 1.415 . S
C568 C573 1.425 . S
C568 C575 1.409 . S
C569 H561 0.930 . S
C569 C567 1.419 . S
C569 C570 1.362 . S
C570 H562 0.930 . S
C570 C569 1.362 . S
C570 C573 1.409 . S
C571 H563 0.930 . S
C571 C572 1.355 . S
C571 C573 1.415 . S
C572 C571 1.355 . S
C572 C574 1.419 . S
C573 C568 1.425 . S
C573 C570 1.409 . S
C573 C571 1.415 . S
C574 H564 0.930 . S
C574 C572 1.419 . S
C574 C575 1.362 . S
C575 H565 0.930 . S
C575 C568 1.409 . S
C575 C574 1.362 . S
H576 C582 0.930 . S
H577 C585 0.930 . S
H578 C586 0.930 . S
H579 C587 0.930 . S
H580 C590 0.930 . S
H581 C591 0.930 . S
C582 H576 0.930 . S
C582 C583 1.355 . S
C582 C584 1.415 . S
C583 C582 1.355 . S
C583 C585 1.419 . S
C584 C582 1.415 . S
C584 C589 1.425 . S
C584 C591 1.409 . S
C585 H577 0.930 . S
C585 C583 1.419 . S
C585 C586 1.362 . S
C586 H578 0.930 . S
C586 C585 1.362 . S
C586 C589 1.409 . S
C587 H579 0.930 . S
C587 C588 1.355 . S
C587 C589 1.415 . S
C588 C587 1.355 . S
C588 C590 1.419 . S
C589 C584 1.425 . S
C589 C586 1.409 . S
C589 C587 1.415 . S
C590 H580 0.930 . S
C590 C588 1.419 . S
C590 C591 1.362 . S
C591 H581 0.930 . S
C591 C584 1.409 . S
C591 C590 1.362 . S
H592 C598 0.930 . S
H593 C601 0.930 . S
H594 C602 0.930 . S
H595 C603 0.930 . S
H596 C606 0.930 . S
H597 C607 0.930 . S
C598 H592 0.930 . S
C598 C599 1.355 . S
C598 C600 1.415 . S
C599 C598 1.355 . S
C599 C601 1.419 . S
C600 C598 1.415 . S
C600 C605 1.425 . S
C600 C607 1.409 . S
C601 H593 0.930 . S
C601 C599 1.419 . S
C601 C602 1.362 . S
C602 H594 0.930 . S
C602 C601 1.362 . S
C602 C605 1.409 . S
C603 H595 0.930 . S
C603 C604 1.355 . S
C603 C605 1.415 . S
C604 C603 1.355 . S
C604 C606 1.419 . S
C605 C600 1.425 . S
C605 C602 1.409 . S
C605 C603 1.415 . S
C606 H596 0.930 . S
C606 C604 1.419 . S
C606 C607 1.362 . S
C607 H597 0.930 . S
C607 C600 1.409 . S
C607 C606 1.362 . S
H608 C614 0.930 . S
H609 C617 0.930 1_554 S
H610 C618 0.930 . S
H611 C619 0.930 . S
H612 C622 0.930 1_556 S
H613 C623 0.930 . S
C614 H608 0.930 . S
C614 C615 1.355 . S
C614 C616 1.415 . S
C615 C614 1.355 . S
C615 C617 1.419 . S
C616 C614 1.415 . S
C616 C621 1.425 1_556 S
C616 C623 1.409 . S
C617 H609 0.930 1_556 S
C617 C615 1.419 . S
C617 C618 1.362 1_556 S
C618 H610 0.930 . S
C618 C617 1.362 1_554 S
C618 C621 1.409 . S
C619 H611 0.930 . S
C619 C620 1.355 . S
C619 C621 1.415 . S
C620 C619 1.355 . S
C620 C622 1.419 . S
C621 C616 1.425 1_554 S
C621 C618 1.409 . S
C621 C619 1.415 . S
C622 H612 0.930 1_554 S
C622 C620 1.419 . S
C622 C623 1.362 1_554 S
C623 H613 0.930 . S
C623 C616 1.409 . S
C623 C622 1.362 1_556 S
H624 C630 0.930 . S
H625 C633 0.930 . S
H626 C634 0.930 . S
H627 C635 0.930 . S
H628 C638 0.930 . S
H629 C639 0.930 . S
C630 H624 0.930 . S
C630 C631 1.355 . S
C630 C632 1.415 . S
C631 C630 1.355 . S
C631 C633 1.419 . S
C632 C630 1.415 . S
C632 C637 1.425 . S
C632 C639 1.409 . S
C633 H625 0.930 . S
C633 C631 1.419 . S
C633 C634 1.362 . S
C634 H626 0.930 . S
C634 C633 1.362 . S
C634 C637 1.409 . S
C635 H627 0.930 . S
C635 C636 1.355 . S
C635 C637 1.415 . S
C636 C635 1.355 . S
C636 C638 1.419 . S
C637 C632 1.425 . S
C637 C634 1.409 . S
C637 C635 1.415 . S
C638 H628 0.930 . S
C638 C636 1.419 . S
C638 C639 1.362 . S
C639 H629 0.930 . S
C639 C632 1.409 . S
C639 C638 1.362 . S
H640 C646 0.930 . S
H641 C649 0.930 . S
H642 C650 0.930 . S
H643 C651 0.930 . S
H644 C654 0.930 . S
H645 C655 0.930 . S
C646 H640 0.930 . S
C646 C647 1.355 . S
C646 C648 1.415 . S
C647 C646 1.355 . S
C647 C649 1.419 . S
C648 C646 1.415 . S
C648 C653 1.425 . S
C648 C655 1.409 . S
C649 H641 0.930 . S
C649 C647 1.419 . S
C649 C650 1.362 . S
C650 H642 0.930 . S
C650 C649 1.362 . S
C650 C653 1.409 . S
C651 H643 0.930 . S
C651 C652 1.355 . S
C651 C653 1.415 . S
C652 C651 1.355 . S
C652 C654 1.419 . S
C653 C648 1.425 . S
C653 C650 1.409 . S
C653 C651 1.415 . S
C654 H644 0.930 . S
C654 C652 1.419 . S
C654 C655 1.362 . S
C655 H645 0.930 . S
C655 C648 1.409 . S
C655 C654 1.362 . S
H656 C662 0.930 . S
H657 C665 0.930 . S
H658 C666 0.930 . S
H659 C667 0.930 . S
H660 C670 0.930 . S
H661 C671 0.930 . S
C662 H656 0.930 . S
C662 C663 1.355 . S
C662 C664 1.415 . S
C663 C662 1.355 . S
C663 C665 1.419 . S
C664 C662 1.415 . S
C664 C669 1.425 . S
C664 C671 1.409 . S
C665 H657 0.930 . S
C665 C663 1.419 . S
C665 C666 1.362 . S
C666 H658 0.930 . S
C666 C665 1.362 . S
C666 C669 1.409 . S
C667 H659 0.930 . S
C667 C668 1.355 . S
C667 C669 1.415 . S
C668 C667 1.355 . S
C668 C670 1.419 . S
C669 C664 1.425 . S
C669 C666 1.409 . S
C669 C667 1.415 . S
C670 H660 0.930 . S
C670 C668 1.419 . S
C670 C671 1.362 . S
C671 H661 0.930 . S
C671 C664 1.409 . S
C671 C670 1.362 . S
H672 C678 0.930 . S
H673 C681 0.930 . S
H674 C682 0.930 . S
H675 C683 0.930 . S
H676 C686 0.930 . S
H677 C687 0.930 . S
C678 H672 0.930 . S
C678 C679 1.355 1_554 S
C678 C680 1.415 . S
C679 C678 1.355 1_556 S
C679 C681 1.419 . S
C680 C678 1.415 . S
C680 C685 1.425 . S
C680 C687 1.409 . S
C681 H673 0.930 . S
C681 C679 1.419 . S
C681 C682 1.362 . S
C682 H674 0.930 . S
C682 C681 1.362 . S
C682 C685 1.409 1_556 S
C683 H675 0.930 . S
C683 C684 1.355 . S
C683 C685 1.415 . S
C684 C683 1.355 . S
C684 C686 1.419 . S
C685 C680 1.425 . S
C685 C682 1.409 1_554 S
C685 C683 1.415 . S
C686 H676 0.930 . S
C686 C684 1.419 . S
C686 C687 1.362 . S
C687 H677 0.930 . S
C687 C680 1.409 . S
C687 C686 1.362 . S
H688 C694 0.930 . S
H689 C697 0.930 . S
H690 C698 0.930 . S
H691 C699 0.930 . S
H692 C702 0.930 . S
H693 C703 0.930 . S
C694 H688 0.930 . S
C694 C695 1.355 . S
C694 C696 1.415 . S
C695 C694 1.355 . S
C695 C697 1.419 . S
C696 C694 1.415 . S
C696 C701 1.425 . S
C696 C703 1.409 . S
C697 H689 0.930 . S
C697 C695 1.419 . S
C697 C698 1.362 . S
C698 H690 0.930 . S
C698 C697 1.362 . S
C698 C701 1.409 . S
C699 H691 0.930 . S
C699 C700 1.355 . S
C699 C701 1.415 . S
C700 C699 1.355 . S
C700 C702 1.419 . S
C701 C696 1.425 . S
C701 C698 1.409 . S
C701 C699 1.415 . S
C702 H692 0.930 . S
C702 C700 1.419 . S
C702 C703 1.362 . S
C703 H693 0.930 . S
C703 C696 1.409 . S
C703 C702 1.362 . S
H704 C710 0.930 . S
H705 C713 0.930 . S
H706 C714 0.930 . S
H707 C715 0.930 . S
H708 C718 0.930 . S
H709 C719 0.930 . S
C710 H704 0.930 . S
C710 C711 1.355 . S
C710 C712 1.415 . S
C711 C710 1.355 . S
C711 C713 1.419 . S
C712 C710 1.415 . S
C712 C717 1.425 . S
C712 C719 1.409 . S
C713 H705 0.930 . S
C713 C711 1.419 . S
C713 C714 1.362 . S
C714 H706 0.930 . S
C714 C713 1.362 . S
C714 C717 1.409 . S
C715 H707 0.930 . S
C715 C716 1.355 . S
C715 C717 1.415 . S
C716 C715 1.355 . S
C716 C718 1.419 . S
C717 C712 1.425 . S
C717 C714 1.409 . S
C717 C715 1.415 . S
C718 H708 0.930 . S
C718 C716 1.419 . S
C718 C719 1.362 . S
C719 H709 0.930 . S
C719 C712 1.409 . S
C719 C718 1.362 . S
H720 C726 0.930 . S
H721 C729 0.930 . S
H722 C730 0.930 . S
H723 C731 0.930 . S
H724 C734 0.930 . S
H725 C735 0.930 . S
C726 H720 0.930 . S
C726 C727 1.355 . S
C726 C728 1.415 . S
C727 C726 1.355 . S
C727 C729 1.419 . S
C728 C726 1.415 . S
C728 C733 1.425 . S
C728 C735 1.409 . S
C729 H721 0.930 . S
C729 C727 1.419 . S
C729 C730 1.362 . S
C730 H722 0.930 . S
C730 C729 1.362 . S
C730 C733 1.409 . S
C731 H723 0.930 . S
C731 C732 1.355 1_556 S
C731 C733 1.415 . S
C732 C731 1.355 1_554 S
C732 C734 1.419 . S
C733 C728 1.425 . S
C733 C730 1.409 . S
C733 C731 1.415 . S
C734 H724 0.930 . S
C734 C732 1.419 . S
C734 C735 1.362 1_554 S
C735 H725 0.930 . S
C735 C728 1.409 . S
C735 C734 1.362 1_556 S
H736 C742 0.930 . S
H737 C745 0.930 . S
H738 C746 0.930 . S
H739 C747 0.930 . S
H740 C750 0.930 . S
H741 C751 0.930 1_554 S
C742 H736 0.930 . S
C742 C743 1.355 . S
C742 C744 1.415 1_554 S
C743 C742 1.355 . S
C743 C745 1.419 1_554 S
C744 C742 1.415 1_556 S
C744 C749 1.425 . S
C744 C751 1.409 . S
C745 H737 0.930 . S
C745 C743 1.419 1_556 S
C745 C746 1.362 . S
C746 H738 0.930 . S
C746 C745 1.362 . S
C746 C749 1.409 . S
C747 H739 0.930 . S
C747 C748 1.355 . S
C747 C749 1.415 . S
C748 C747 1.355 . S
C748 C750 1.419 . S
C749 C744 1.425 . S
C749 C746 1.409 . S
C749 C747 1.415 . S
C750 H740 0.930 . S
C750 C748 1.419 . S
C750 C751 1.362 . S
C751 H741 0.930 1_556 S
C751 C744 1.409 . S
C751 C750 1.362 . S
H752 C758 0.930 . S
H753 C761 0.930 . S
H754 C762 0.930 . S
H755 C763 0.930 . S
H756 C766 0.930 . S
H757 C767 0.930 . S
C758 H752 0.930 . S
C758 C759 1.355 . S
C758 C760 1.415 . S
C759 C758 1.355 . S
C759 C761 1.419 . S
C760 C758 1.415 . S
C760 C765 1.425 . S
C760 C767 1.409 . S
C761 H753 0.930 . S
C761 C759 1.419 . S
C761 C762 1.362 . S
C762 H754 0.930 . S
C762 C761 1.362 . S
C762 C765 1.409 . S
C763 H755 0.930 . S
C763 C764 1.355 . S
C763 C765 1.415 . S
C764 C763 1.355 . S
C764 C766 1.419 . S
C765 C760 1.425 . S
C765 C762 1.409 . S
C765 C763 1.415 . S
C766 H756 0.930 . S
C766 C764 1.419 . S
C766 C767 1.362 . S
C767 H757 0.930 . S
C767 C760 1.409 . S
C767 C766 1.362 . S
H768 C774 0.930 . S
H769 C777 0.930 . S
H770 C778 0.930 . S
H771 C779 0.930 . S
H772 C782 0.930 . S
H773 C783 0.930 . S
C774 H768 0.930 . S
C774 C775 1.355 . S
C774 C776 1.415 . S
C775 C774 1.355 . S
C775 C777 1.419 . S
C776 C774 1.415 . S
C776 C781 1.425 . S
C776 C783 1.409 . S
C777 H769 0.930 . S
C777 C775 1.419 . S
C777 C778 1.362 . S
C778 H770 0.930 . S
C778 C777 1.362 . S
C778 C781 1.409 . S
C779 H771 0.930 . S
C779 C780 1.355 . S
C779 C781 1.415 . S
C780 C779 1.355 . S
C780 C782 1.419 . S
C781 C776 1.425 . S
C781 C778 1.409 . S
C781 C779 1.415 . S
C782 H772 0.930 . S
C782 C780 1.419 . S
C782 C783 1.362 . S
C783 H773 0.930 . S
C783 C776 1.409 . S
C783 C782 1.362 . S
H784 C790 0.930 . S
H785 C793 0.930 . S
H786 C794 0.930 . S
H787 C795 0.930 . S
H788 C798 0.930 . S
H789 C799 0.930 1_556 S
C790 H784 0.930 . S
C790 C791 1.355 . S
C790 C792 1.415 1_556 S
C791 C790 1.355 . S
C791 C793 1.419 1_556 S
C792 C790 1.415 1_554 S
C792 C797 1.425 . S
C792 C799 1.409 . S
C793 H785 0.930 . S
C793 C791 1.419 1_554 S
C793 C794 1.362 . S
C794 H786 0.930 . S
C794 C793 1.362 . S
C794 C797 1.409 . S
C795 H787 0.930 . S
C795 C796 1.355 . S
C795 C797 1.415 . S
C796 C795 1.355 . S
C796 C798 1.419 . S
C797 C792 1.425 . S
C797 C794 1.409 . S
C797 C795 1.415 . S
C798 H788 0.930 . S
C798 C796 1.419 . S
C798 C799 1.362 . S
C799 H789 0.930 1_554 S
C799 C792 1.409 . S
C799 C798 1.362 . S
H800 C806 0.930 . S
H801 C809 0.930 . S
H802 C810 0.930 . S
H803 C811 0.930 . S
H804 C814 0.930 . S
H805 C815 0.930 . S
C806 H800 0.930 . S
C806 C807 1.355 . S
C806 C808 1.415 . S
C807 C806 1.355 . S
C807 C809 1.419 . S
C808 C806 1.415 . S
C808 C813 1.425 . S
C808 C815 1.409 . S
C809 H801 0.930 . S
C809 C807 1.419 . S
C809 C810 1.362 . S
C810 H802 0.930 . S
C810 C809 1.362 . S
C810 C813 1.409 . S
C811 H803 0.930 . S
C811 C812 1.355 . S
C811 C813 1.415 . S
C812 C811 1.355 . S
C812 C814 1.419 . S
C813 C808 1.425 . S
C813 C810 1.409 . S
C813 C811 1.415 . S
C814 H804 0.930 . S
C814 C812 1.419 . S
C814 C815 1.362 . S
C815 H805 0.930 . S
C815 C808 1.409 . S
C815 C814 1.362 . S
H816 C822 0.930 . S
H817 C825 0.930 . S
H818 C826 0.930 . S
H819 C827 0.930 . S
H820 C830 0.930 . S
H821 C831 0.930 . S
C822 H816 0.930 . S
C822 C823 1.355 1_556 S
C822 C824 1.415 . S
C823 C822 1.355 1_554 S
C823 C825 1.419 . S
C824 C822 1.415 . S
C824 C829 1.425 . S
C824 C831 1.409 . S
C825 H817 0.930 . S
C825 C823 1.419 . S
C825 C826 1.362 . S
C826 H818 0.930 . S
C826 C825 1.362 . S
C826 C829 1.409 1_554 S
C827 H819 0.930 . S
C827 C828 1.355 . S
C827 C829 1.415 . S
C828 C827 1.355 . S
C828 C830 1.419 . S
C829 C824 1.425 . S
C829 C826 1.409 1_556 S
C829 C827 1.415 . S
C830 H820 0.930 . S
C830 C828 1.419 . S
C830 C831 1.362 . S
C831 H821 0.930 . S
C831 C824 1.409 . S
C831 C830 1.362 . S
H832 C838 0.930 . S
H833 C841 0.930 . S
H834 C842 0.930 . S
H835 C843 0.930 . S
H836 C846 0.930 . S
H837 C847 0.930 . S
C838 H832 0.930 . S
C838 C839 1.355 . S
C838 C840 1.415 . S
C839 C838 1.355 . S
C839 C841 1.419 . S
C840 C838 1.415 . S
C840 C845 1.425 . S
C840 C847 1.409 . S
C841 H833 0.930 . S
C841 C839 1.419 . S
C841 C842 1.362 . S
C842 H834 0.930 . S
C842 C841 1.362 . S
C842 C845 1.409 . S
C843 H835 0.930 . S
C843 C844 1.355 . S
C843 C845 1.415 1_556 S
C844 C843 1.355 . S
C844 C846 1.419 1_556 S
C845 C840 1.425 . S
C845 C842 1.409 . S
C845 C843 1.415 1_554 S
C846 H836 0.930 . S
C846 C844 1.419 1_554 S
C846 C847 1.362 . S
C847 H837 0.930 . S
C847 C840 1.409 . S
C847 C846 1.362 . S
H848 C854 0.930 . S
H849 C857 0.930 . S
H850 C858 0.930 . S
H851 C859 0.930 . S
H852 C862 0.930 . S
H853 C863 0.930 . S
C854 H848 0.930 . S
C854 C855 1.355 . S
C854 C856 1.415 . S
C855 C854 1.355 . S
C855 C857 1.419 . S
C856 C854 1.415 . S
C856 C861 1.425 . S
C856 C863 1.409 . S
C857 H849 0.930 . S
C857 C855 1.419 . S
C857 C858 1.362 . S
C858 H850 0.930 . S
C858 C857 1.362 . S
C858 C861 1.409 . S
C859 H851 0.930 . S
C859 C860 1.355 . S
C859 C861 1.415 . S
C860 C859 1.355 . S
C860 C862 1.419 . S
C861 C856 1.425 . S
C861 C858 1.409 . S
C861 C859 1.415 . S
C862 H852 0.930 . S
C862 C860 1.419 . S
C862 C863 1.362 . S
C863 H853 0.930 . S
C863 C856 1.409 . S
C863 C862 1.362 . S
H864 C870 0.930 . S
H865 C873 0.930 . S
H866 C874 0.930 . S
H867 C875 0.930 . S
H868 C878 0.930 . S
H869 C879 0.930 . S
C870 H864 0.930 . S
C870 C871 1.355 . S
C870 C872 1.415 . S
C871 C870 1.355 . S
C871 C873 1.419 . S
C872 C870 1.415 . S
C872 C877 1.425 . S
C872 C879 1.409 . S
C873 H865 0.930 . S
C873 C871 1.419 . S
C873 C874 1.362 . S
C874 H866 0.930 . S
C874 C873 1.362 . S
C874 C877 1.409 . S
C875 H867 0.930 . S
C875 C876 1.355 . S
C875 C877 1.415 . S
C876 C875 1.355 . S
C876 C878 1.419 . S
C877 C872 1.425 . S
C877 C874 1.409 . S
C877 C875 1.415 . S
C878 H868 0.930 . S
C878 C876 1.419 . S
C878 C879 1.362 . S
C879 H869 0.930 . S
C879 C872 1.409 . S
C879 C878 1.362 . S
H880 C886 0.930 . S
H881 C889 0.930 . S
H882 C890 0.930 . S
H883 C891 0.930 . S
H884 C894 0.930 . S
H885 C895 0.930 . S
C886 H880 0.930 . S
C886 C887 1.355 1_554 S
C886 C888 1.415 . S
C887 C886 1.355 1_556 S
C887 C889 1.419 . S
C888 C886 1.415 . S
C888 C893 1.425 . S
C888 C895 1.409 . S
C889 H881 0.930 . S
C889 C887 1.419 . S
C889 C890 1.362 . S
C890 H882 0.930 . S
C890 C889 1.362 . S
C890 C893 1.409 1_556 S
C891 H883 0.930 . S
C891 C892 1.355 . S
C891 C893 1.415 . S
C892 C891 1.355 . S
C892 C894 1.419 . S
C893 C888 1.425 . S
C893 C890 1.409 1_554 S
C893 C891 1.415 . S
C894 H884 0.930 . S
C894 C892 1.419 . S
C894 C895 1.362 . S
C895 H885 0.930 . S
C895 C888 1.409 . S
C895 C894 1.362 . S
H896 C902 0.930 . S
H897 C905 0.930 . S
H898 C906 0.930 . S
H899 C907 0.930 . S
H900 C910 0.930 . S
H901 C911 0.930 . S
C902 H896 0.930 . S
C902 C903 1.355 . S
C902 C904 1.415 . S
C903 C902 1.355 . S
C903 C905 1.419 . S
C904 C902 1.415 . S
C904 C909 1.425 . S
C904 C911 1.409 . S
C905 H897 0.930 . S
C905 C903 1.419 . S
C905 C906 1.362 . S
C906 H898 0.930 . S
C906 C905 1.362 . S
C906 C909 1.409 . S
C907 H899 0.930 . S
C907 C908 1.355 . S
C907 C909 1.415 1_554 S
C908 C907 1.355 . S
C908 C910 1.419 1_554 S
C909 C904 1.425 . S
C909 C906 1.409 . S
C909 C907 1.415 1_556 S
C910 H900 0.930 . S
C910 C908 1.419 1_556 S
C910 C911 1.362 . S
C911 H901 0.930 . S
C911 C904 1.409 . S
C911 C910 1.362 . S
H912 C918 0.930 . S
H913 C921 0.930 . S
H914 C922 0.930 . S
H915 C923 0.930 . S
H916 C926 0.930 . S
H917 C927 0.930 . S
C918 H912 0.930 . S
C918 C919 1.355 . S
C918 C920 1.415 . S
C919 C918 1.355 . S
C919 C921 1.419 . S
C920 C918 1.415 . S
C920 C925 1.425 . S
C920 C927 1.409 . S
C921 H913 0.930 . S
C921 C919 1.419 . S
C921 C922 1.362 . S
C922 H914 0.930 . S
C922 C921 1.362 . S
C922 C925 1.409 . S
C923 H915 0.930 . S
C923 C924 1.355 . S
C923 C925 1.415 . S
C924 C923 1.355 . S
C924 C926 1.419 . S
C925 C920 1.425 . S
C925 C922 1.409 . S
C925 C923 1.415 . S
C926 H916 0.930 . S
C926 C924 1.419 . S
C926 C927 1.362 . S
C927 H917 0.930 . S
C927 C920 1.409 . S
C927 C926 1.362 . S
H928 C934 0.930 . S
H929 C937 0.930 . S
H930 C938 0.930 . S
H931 C939 0.930 . S
H932 C942 0.930 . S
H933 C943 0.930 1_554 S
C934 H928 0.930 . S
C934 C935 1.355 . S
C934 C936 1.415 . S
C935 C934 1.355 . S
C935 C937 1.419 . S
C936 C934 1.415 . S
C936 C941 1.425 1_554 S
C936 C943 1.409 1_554 S
C937 H929 0.930 . S
C937 C935 1.419 . S
C937 C938 1.362 1_554 S
C938 H930 0.930 . S
C938 C937 1.362 1_556 S
C938 C941 1.409 . S
C939 H931 0.930 . S
C939 C940 1.355 . S
C939 C941 1.415 . S
C940 C939 1.355 . S
C940 C942 1.419 . S
C941 C936 1.425 1_556 S
C941 C938 1.409 . S
C941 C939 1.415 . S
C942 H932 0.930 . S
C942 C940 1.419 . S
C942 C943 1.362 . S
C943 H933 0.930 1_556 S
C943 C936 1.409 1_556 S
C943 C942 1.362 . S
H944 C950 0.930 . S
H945 C953 0.930 . S
H946 C954 0.930 . S
H947 C955 0.930 . S
H948 C958 0.930 . S
H949 C959 0.930 . S
C950 H944 0.930 . S
C950 C951 1.355 . S
C950 C952 1.415 . S
C951 C950 1.355 . S
C951 C953 1.419 . S
C952 C950 1.415 . S
C952 C957 1.425 1_655 S
C952 C959 1.409 . S
C953 H945 0.930 . S
C953 C951 1.419 . S
C953 C954 1.362 1_655 S
C954 H946 0.930 . S
C954 C953 1.362 1_455 S
C954 C957 1.409 . S
C955 H947 0.930 . S
C955 C956 1.355 . S
C955 C957 1.415 . S
C956 C955 1.355 . S
C956 C958 1.419 . S
C957 C952 1.425 1_455 S
C957 C954 1.409 . S
C957 C955 1.415 . S
C958 H948 0.930 . S
C958 C956 1.419 . S
C958 C959 1.362 1_455 S
C959 H949 0.930 . S
C959 C952 1.409 . S
C959 C958 1.362 1_655 S
H960 C966 0.930 . S
H961 C969 0.930 . S
H962 C970 0.930 . S
H963 C971 0.930 . S
H964 C974 0.930 . S
H965 C975 0.930 . S
C966 H960 0.930 . S
C966 C967 1.355 . S
C966 C968 1.415 . S
C967 C966 1.355 . S
C967 C969 1.419 . S
C968 C966 1.415 . S
C968 C973 1.425 . S
C968 C975 1.409 . S
C969 H961 0.930 . S
C969 C967 1.419 . S
C969 C970 1.362 . S
C970 H962 0.930 . S
C970 C969 1.362 . S
C970 C973 1.409 . S
C971 H963 0.930 . S
C971 C972 1.355 . S
C971 C973 1.415 . S
C972 C971 1.355 . S
C972 C974 1.419 . S
C973 C968 1.425 . S
C973 C970 1.409 . S
C973 C971 1.415 . S
C974 H964 0.930 . S
C974 C972 1.419 . S
C974 C975 1.362 . S
C975 H965 0.930 . S
C975 C968 1.409 . S
C975 C974 1.362 . S
H976 C982 0.930 . S
H977 C985 0.930 . S
H978 C986 0.930 . S
H979 C987 0.930 . S
H980 C990 0.930 1_554 S
H981 C991 0.930 . S
C982 H976 0.930 . S
C982 C983 1.355 . S
C982 C984 1.415 . S
C983 C982 1.355 . S
C983 C985 1.419 . S
C984 C982 1.415 . S
C984 C989 1.425 . S
C984 C991 1.409 . S
C985 H977 0.930 . S
C985 C983 1.419 . S
C985 C986 1.362 . S
C986 H978 0.930 . S
C986 C985 1.362 . S
C986 C989 1.409 . S
C987 H979 0.930 . S
C987 C988 1.355 . S
C987 C989 1.415 . S
C988 C987 1.355 . S
C988 C990 1.419 . S
C989 C984 1.425 . S
C989 C986 1.409 . S
C989 C987 1.415 . S
C990 H980 0.930 1_556 S
C990 C988 1.419 . S
C990 C991 1.362 . S
C991 H981 0.930 . S
C991 C984 1.409 . S
C991 C990 1.362 . S
H992 C998 0.930 . S
H993 C1001 0.930 . S
H994 C1002 0.930 . S
H995 C1003 0.930 . S
H996 C1006 0.930 . S
H997 C1007 0.930 . S
C998 H992 0.930 . S
C998 C999 1.355 . S
C998 C1000 1.415 . S
C999 C998 1.355 . S
C999 C1001 1.419 . S
C1000 C998 1.415 . S
C1000 C1005 1.425 . S
C1000 C1007 1.409 . S
C1001 H993 0.930 . S
C1001 C999 1.419 . S
C1001 C1002 1.362 . S
C1002 H994 0.930 . S
C1002 C1001 1.362 . S
C1002 C1005 1.409 . S
C1003 H995 0.930 . S
C1003 C1004 1.355 . S
C1003 C1005 1.415 . S
C1004 C1003 1.355 . S
C1004 C1006 1.419 . S
C1005 C1000 1.425 . S
C1005 C1002 1.409 . S
C1005 C1003 1.415 . S
C1006 H996 0.930 . S
C1006 C1004 1.419 . S
C1006 C1007 1.362 . S
C1007 H997 0.930 . S
C1007 C1000 1.409 . S
C1007 C1006 1.362 . S
H1008 C1014 0.930 . S
H1009 C1017 0.930 . S
H1010 C1018 0.930 . S
H1011 C1019 0.930 . S
H1012 C1022 0.930 . S
H1013 C1023 0.930 . S
C1014 H1008 0.930 . S
C1014 C1015 1.355 . S
C1014 C1016 1.415 . S
C1015 C1014 1.355 . S
C1015 C1017 1.419 . S
C1016 C1014 1.415 . S
C1016 C1021 1.425 . S
C1016 C1023 1.409 . S
C1017 H1009 0.930 . S
C1017 C1015 1.419 . S
C1017 C1018 1.362 . S
C1018 H1010 0.930 . S
C1018 C1017 1.362 . S
C1018 C1021 1.409 . S
C1019 H1011 0.930 . S
C1019 C1020 1.355 . S
C1019 C1021 1.415 . S
C1020 C1019 1.355 . S
C1020 C1022 1.419 . S
C1021 C1016 1.425 . S
C1021 C1018 1.409 . S
C1021 C1019 1.415 . S
C1022 H1012 0.930 . S
C1022 C1020 1.419 . S
C1022 C1023 1.362 . S
C1023 H1013 0.930 . S
C1023 C1016 1.409 . S
C1023 C1022 1.362 . S
H1024 C1030 0.930 . S
H1025 C1033 0.930 . S
H1026 C1034 0.930 . S
H1027 C1035 0.930 . S
H1028 C1038 0.930 . S
H1029 C1039 0.930 . S
C1030 H1024 0.930 . S
C1030 C1031 1.355 . S
C1030 C1032 1.415 . S
C1031 C1030 1.355 . S
C1031 C1033 1.419 . S
C1032 C1030 1.415 . S
C1032 C1037 1.425 1_556 S
C1032 C1039 1.409 . S
C1033 H1025 0.930 . S
C1033 C1031 1.419 . S
C1033 C1034 1.362 1_556 S
C1034 H1026 0.930 . S
C1034 C1033 1.362 1_554 S
C1034 C1037 1.409 . S
C1035 H1027 0.930 . S
C1035 C1036 1.355 . S
C1035 C1037 1.415 . S
C1036 C1035 1.355 . S
C1036 C1038 1.419 . S
C1037 C1032 1.425 1_554 S
C1037 C1034 1.409 . S
C1037 C1035 1.415 . S
C1038 H1028 0.930 . S
C1038 C1036 1.419 . S
C1038 C1039 1.362 1_554 S
C1039 H1029 0.930 . S
C1039 C1032 1.409 . S
C1039 C1038 1.362 1_556 S
H1040 C1046 0.930 . S
H1041 C1049 0.930 1_556 S
H1042 C1050 0.930 . S
H1043 C1051 0.930 . S
H1044 C1054 0.930 . S
H1045 C1055 0.930 . S
C1046 H1040 0.930 . S
C1046 C1047 1.355 . S
C1046 C1048 1.415 . S
C1047 C1046 1.355 . S
C1047 C1049 1.419 . S
C1048 C1046 1.415 . S
C1048 C1053 1.425 1_455 S
C1048 C1055 1.409 . S
C1049 H1041 0.930 1_554 S
C1049 C1047 1.419 . S
C1049 C1050 1.362 1_455 S
C1050 H1042 0.930 . S
C1050 C1049 1.362 1_655 S
C1050 C1053 1.409 . S
C1051 H1043 0.930 . S
C1051 C1052 1.355 . S
C1051 C1053 1.415 . S
C1052 C1051 1.355 . S
C1052 C1054 1.419 . S
C1053 C1048 1.425 1_655 S
C1053 C1050 1.409 . S
C1053 C1051 1.415 . S
C1054 H1044 0.930 . S
C1054 C1052 1.419 . S
C1054 C1055 1.362 1_655 S
C1055 H1045 0.930 . S
C1055 C1048 1.409 . S
C1055 C1054 1.362 1_455 S
H1056 C1062 0.930 . S
H1057 C1065 0.930 . S
H1058 C1066 0.930 . S
H1059 C1067 0.930 . S
H1060 C1070 0.930 . S
H1061 C1071 0.930 . S
C1062 H1056 0.930 . S
C1062 C1063 1.355 . S
C1062 C1064 1.415 1_556 S
C1063 C1062 1.355 . S
C1063 C1065 1.419 . S
C1064 C1062 1.415 1_554 S
C1064 C1069 1.425 . S
C1064 C1071 1.409 . S
C1065 H1057 0.930 . S
C1065 C1063 1.419 . S
C1065 C1066 1.362 . S
C1066 H1058 0.930 . S
C1066 C1065 1.362 . S
C1066 C1069 1.409 1_556 S
C1067 H1059 0.930 . S
C1067 C1068 1.355 . S
C1067 C1069 1.415 . S
C1068 C1067 1.355 . S
C1068 C1070 1.419 . S
C1069 C1064 1.425 . S
C1069 C1066 1.409 1_554 S
C1069 C1067 1.415 . S
C1070 H1060 0.930 . S
C1070 C1068 1.419 . S
C1070 C1071 1.362 . S
C1071 H1061 0.930 . S
C1071 C1064 1.409 . S
C1071 C1070 1.362 . S
H1072 C1078 0.930 . S
H1073 C1081 0.930 . S
H1074 C1082 0.930 . S
H1075 C1083 0.930 . S
H1076 C1086 0.930 . S
H1077 C1087 0.930 . S
C1078 H1072 0.930 . S
C1078 C1079 1.355 . S
C1078 C1080 1.415 . S
C1079 C1078 1.355 . S
C1079 C1081 1.419 . S
C1080 C1078 1.415 . S
C1080 C1085 1.425 1_455 S
C1080 C1087 1.409 . S
C1081 H1073 0.930 . S
C1081 C1079 1.419 . S
C1081 C1082 1.362 1_455 S
C1082 H1074 0.930 . S
C1082 C1081 1.362 1_655 S
C1082 C1085 1.409 . S
C1083 H1075 0.930 . S
C1083 C1084 1.355 . S
C1083 C1085 1.415 . S
C1084 C1083 1.355 . S
C1084 C1086 1.419 . S
C1085 C1080 1.425 1_655 S
C1085 C1082 1.409 . S
C1085 C1083 1.415 . S
C1086 H1076 0.930 . S
C1086 C1084 1.419 . S
C1086 C1087 1.362 1_655 S
C1087 H1077 0.930 . S
C1087 C1080 1.409 . S
C1087 C1086 1.362 1_455 S
H1088 C1094 0.930 . S
H1089 C1097 0.930 . S
H1090 C1098 0.930 . S
H1091 C1099 0.930 . S
H1092 C1102 0.930 . S
H1093 C1103 0.930 . S
C1094 H1088 0.930 . S
C1094 C1095 1.355 . S
C1094 C1096 1.415 . S
C1095 C1094 1.355 . S
C1095 C1097 1.419 . S
C1096 C1094 1.415 . S
C1096 C1101 1.425 . S
C1096 C1103 1.409 . S
C1097 H1089 0.930 . S
C1097 C1095 1.419 . S
C1097 C1098 1.362 . S
C1098 H1090 0.930 . S
C1098 C1097 1.362 . S
C1098 C1101 1.409 . S
C1099 H1091 0.930 . S
C1099 C1100 1.355 . S
C1099 C1101 1.415 . S
C1100 C1099 1.355 . S
C1100 C1102 1.419 . S
C1101 C1096 1.425 . S
C1101 C1098 1.409 . S
C1101 C1099 1.415 . S
C1102 H1092 0.930 . S
C1102 C1100 1.419 . S
C1102 C1103 1.362 . S
C1103 H1093 0.930 . S
C1103 C1096 1.409 . S
C1103 C1102 1.362 . S
H1104 C1110 0.930 . S
H1105 C1113 0.930 . S
H1106 C1114 0.930 . S
H1107 C1115 0.930 . S
H1108 C1118 0.930 1_556 S
H1109 C1119 0.930 . S
C1110 H1104 0.930 . S
C1110 C1111 1.355 . S
C1110 C1112 1.415 . S
C1111 C1110 1.355 . S
C1111 C1113 1.419 . S
C1112 C1110 1.415 . S
C1112 C1117 1.425 . S
C1112 C1119 1.409 . S
C1113 H1105 0.930 . S
C1113 C1111 1.419 . S
C1113 C1114 1.362 . S
C1114 H1106 0.930 . S
C1114 C1113 1.362 . S
C1114 C1117 1.409 . S
C1115 H1107 0.930 . S
C1115 C1116 1.355 . S
C1115 C1117 1.415 . S
C1116 C1115 1.355 . S
C1116 C1118 1.419 . S
C1117 C1112 1.425 . S
C1117 C1114 1.409 . S
C1117 C1115 1.415 . S
C1118 H1108 0.930 1_554 S
C1118 C1116 1.419 . S
C1118 C1119 1.362 . S
C1119 H1109 0.930 . S
C1119 C1112 1.409 . S
C1119 C1118 1.362 . S
H1120 C1126 0.930 . S
H1121 C1129 0.930 . S
H1122 C1130 0.930 . S
H1123 C1131 0.930 . S
H1124 C1134 0.930 . S
H1125 C1135 0.930 . S
C1126 H1120 0.930 . S
C1126 C1127 1.355 . S
C1126 C1128 1.415 . S
C1127 C1126 1.355 . S
C1127 C1129 1.419 . S
C1128 C1126 1.415 . S
C1128 C1133 1.425 . S
C1128 C1135 1.409 . S
C1129 H1121 0.930 . S
C1129 C1127 1.419 . S
C1129 C1130 1.362 . S
C1130 H1122 0.930 . S
C1130 C1129 1.362 . S
C1130 C1133 1.409 . S
C1131 H1123 0.930 . S
C1131 C1132 1.355 . S
C1131 C1133 1.415 . S
C1132 C1131 1.355 . S
C1132 C1134 1.419 . S
C1133 C1128 1.425 . S
C1133 C1130 1.409 . S
C1133 C1131 1.415 . S
C1134 H1124 0.930 . S
C1134 C1132 1.419 . S
C1134 C1135 1.362 . S
C1135 H1125 0.930 . S
C1135 C1128 1.409 . S
C1135 C1134 1.362 . S
H1136 C1142 0.930 . S
H1137 C1145 0.930 . S
H1138 C1146 0.930 . S
H1139 C1147 0.930 . S
H1140 C1150 0.930 . S
H1141 C1151 0.930 . S
C1142 H1136 0.930 . S
C1142 C1143 1.355 . S
C1142 C1144 1.415 . S
C1143 C1142 1.355 . S
C1143 C1145 1.419 . S
C1144 C1142 1.415 . S
C1144 C1149 1.425 . S
C1144 C1151 1.409 . S
C1145 H1137 0.930 . S
C1145 C1143 1.419 . S
C1145 C1146 1.362 . S
C1146 H1138 0.930 . S
C1146 C1145 1.362 . S
C1146 C1149 1.409 . S
C1147 H1139 0.930 . S
C1147 C1148 1.355 . S
C1147 C1149 1.415 . S
C1148 C1147 1.355 . S
C1148 C1150 1.419 . S
C1149 C1144 1.425 . S
C1149 C1146 1.409 . S
C1149 C1147 1.415 . S
C1150 H1140 0.930 . S
C1150 C1148 1.419 . S
C1150 C1151 1.362 . S
C1151 H1141 0.930 . S
C1151 C1144 1.409 . S
C1151 C1150 1.362 . S
H1152 C1158 0.930 . S
H1153 C1161 0.930 . S
H1154 C1162 0.930 . S
H1155 C1163 0.930 . S
H1156 C1166 0.930 . S
H1157 C1167 0.930 . S
C1158 H1152 0.930 . S
C1158 C1159 1.355 . S
C1158 C1160 1.415 . S
C1159 C1158 1.355 . S
C1159 C1161 1.419 . S
C1160 C1158 1.415 . S
C1160 C1165 1.425 1_554 S
C1160 C1167 1.409 . S
C1161 H1153 0.930 . S
C1161 C1159 1.419 . S
C1161 C1162 1.362 1_554 S
C1162 H1154 0.930 . S
C1162 C1161 1.362 1_556 S
C1162 C1165 1.409 . S
C1163 H1155 0.930 . S
C1163 C1164 1.355 . S
C1163 C1165 1.415 . S
C1164 C1163 1.355 . S
C1164 C1166 1.419 . S
C1165 C1160 1.425 1_556 S
C1165 C1162 1.409 . S
C1165 C1163 1.415 . S
C1166 H1156 0.930 . S
C1166 C1164 1.419 . S
C1166 C1167 1.362 1_556 S
C1167 H1157 0.930 . S
C1167 C1160 1.409 . S
C1167 C1166 1.362 1_554 S
H1168 C1174 0.930 . S
H1169 C1177 0.930 . S
H1170 C1178 0.930 . S
H1171 C1179 0.930 . S
H1172 C1182 0.930 . S
H1173 C1183 0.930 . S
C1174 H1168 0.930 . S
C1174 C1175 1.355 . S
C1174 C1176 1.415 1_455 S
C1175 C1174 1.355 . S
C1175 C1177 1.419 . S
C1176 C1174 1.415 1_655 S
C1176 C1181 1.425 1_655 S
C1176 C1183 1.409 . S
C1177 H1169 0.930 . S
C1177 C1175 1.419 . S
C1177 C1178 1.362 . S
C1178 H1170 0.930 . S
C1178 C1177 1.362 . S
C1178 C1181 1.409 . S
C1179 H1171 0.930 . S
C1179 C1180 1.355 . S
C1179 C1181 1.415 1_655 S
C1180 C1179 1.355 . S
C1180 C1182 1.419 . S
C1181 C1176 1.425 1_455 S
C1181 C1178 1.409 . S
C1181 C1179 1.415 1_455 S
C1182 H1172 0.930 . S
C1182 C1180 1.419 . S
C1182 C1183 1.362 . S
C1183 H1173 0.930 . S
C1183 C1176 1.409 . S
C1183 C1182 1.362 . S
H1184 C1190 0.930 . S
H1185 C1193 0.930 . S
H1186 C1194 0.930 . S
H1187 C1195 0.930 . S
H1188 C1198 0.930 . S
H1189 C1199 0.930 . S
C1190 H1184 0.930 . S
C1190 C1191 1.355 . S
C1190 C1192 1.415 . S
C1191 C1190 1.355 . S
C1191 C1193 1.419 . S
C1192 C1190 1.415 . S
C1192 C1197 1.425 . S
C1192 C1199 1.409 . S
C1193 H1185 0.930 . S
C1193 C1191 1.419 . S
C1193 C1194 1.362 . S
C1194 H1186 0.930 . S
C1194 C1193 1.362 . S
C1194 C1197 1.409 . S
C1195 H1187 0.930 . S
C1195 C1196 1.355 . S
C1195 C1197 1.415 . S
C1196 C1195 1.355 . S
C1196 C1198 1.419 . S
C1197 C1192 1.425 . S
C1197 C1194 1.409 . S
C1197 C1195 1.415 . S
C1198 H1188 0.930 . S
C1198 C1196 1.419 . S
C1198 C1199 1.362 . S
C1199 H1189 0.930 . S
C1199 C1192 1.409 . S
C1199 C1198 1.362 . S
H1200 C1206 0.930 . S
H1201 C1209 0.930 . S
H1202 C1210 0.930 . S
H1203 C1211 0.930 . S
H1204 C1214 0.930 1_554 S
H1205 C1215 0.930 . S
C1206 H1200 0.930 . S
C1206 C1207 1.355 . S
C1206 C1208 1.415 . S
C1207 C1206 1.355 . S
C1207 C1209 1.419 . S
C1208 C1206 1.415 . S
C1208 C1213 1.425 . S
C1208 C1215 1.409 . S
C1209 H1201 0.930 . S
C1209 C1207 1.419 . S
C1209 C1210 1.362 . S
C1210 H1202 0.930 . S
C1210 C1209 1.362 . S
C1210 C1213 1.409 . S
C1211 H1203 0.930 . S
C1211 C1212 1.355 . S
C1211 C1213 1.415 . S
C1212 C1211 1.355 . S
C1212 C1214 1.419 . S
C1213 C1208 1.425 . S
C1213 C1210 1.409 . S
C1213 C1211 1.415 . S
C1214 H1204 0.930 1_556 S
C1214 C1212 1.419 . S
C1214 C1215 1.362 . S
C1215 H1205 0.930 . S
C1215 C1208 1.409 . S
C1215 C1214 1.362 . S
H1216 C1222 0.930 . S
H1217 C1225 0.930 . S
H1218 C1226 0.930 . S
H1219 C1227 0.930 . S
H1220 C1230 0.930 . S
H1221 C1231 0.921 1_554 S
C1222 H1216 0.930 . S
C1222 C1223 1.355 . S
C1222 C1224 1.415 . S
C1223 C1222 1.355 . S
C1223 C1225 1.419 . S
C1224 C1222 1.415 . S
C1224 C1229 1.425 1_554 S
C1224 C1231 1.407 1_554 S
C1225 H1217 0.930 . S
C1225 C1223 1.419 . S
C1225 C1226 1.362 1_554 S
C1226 H1218 0.930 . S
C1226 C1225 1.362 1_556 S
C1226 C1229 1.409 . S
C1227 H1219 0.930 . S
C1227 C1228 1.355 . S
C1227 C1229 1.415 . S
C1228 C1227 1.355 . S
C1228 C1230 1.419 . S
C1229 C1224 1.425 1_556 S
C1229 C1226 1.409 . S
C1229 C1227 1.415 . S
C1230 H1220 0.930 . S
C1230 C1228 1.419 . S
C1230 C1231 1.373 . S
C1231 H1221 0.921 1_556 S
C1231 C1224 1.407 1_556 S
C1231 C1230 1.373 . S
H1232 C1238 0.914 1_455 S
H1233 C1241 0.930 . S
H1234 C1242 0.930 . S
H1235 C1243 0.916 1_655 S
H1236 C1246 0.930 . S
H1237 C1247 0.930 . S
C1238 H1232 0.914 1_655 S
C1238 C1239 1.355 . S
C1238 C1240 1.415 1_655 S
C1239 C1238 1.355 . S
C1239 C1241 1.419 . S
C1240 C1238 1.415 1_455 S
C1240 C1245 1.425 1_455 S
C1240 C1247 1.409 . S
C1241 H1233 0.930 . S
C1241 C1239 1.419 . S
C1241 C1242 1.362 . S
C1242 H1234 0.930 . S
C1242 C1241 1.362 . S
C1242 C1245 1.409 . S
C1243 H1235 0.916 1_455 S
C1243 C1244 1.355 . S
C1243 C1245 1.415 1_455 S
C1244 C1243 1.355 . S
C1244 C1246 1.419 . S
C1245 C1240 1.425 1_655 S
C1245 C1242 1.409 . S
C1245 C1243 1.415 1_655 S
C1246 H1236 0.930 . S
C1246 C1244 1.419 . S
C1246 C1247 1.362 . S
C1247 H1237 0.930 . S
C1247 C1240 1.409 . S
C1247 C1246 1.362 . S
H1248 C1254 0.930 . S
H1249 C1257 0.930 . S
H1250 C1258 0.930 . S
H1251 C1259 0.930 . S
H1252 C1262 0.930 . S
H1253 C1263 0.930 . S
C1254 H1248 0.930 . S
C1254 C1255 1.355 . S
C1254 C1256 1.415 . S
C1255 C1254 1.355 . S
C1255 C1257 1.419 . S
C1256 C1254 1.415 . S
C1256 C1261 1.425 1_556 S
C1256 C1263 1.409 . S
C1257 H1249 0.930 . S
C1257 C1255 1.419 . S
C1257 C1258 1.362 1_556 S
C1258 H1250 0.930 . S
C1258 C1257 1.362 1_554 S
C1258 C1261 1.409 . S
C1259 H1251 0.930 . S
C1259 C1260 1.355 . S
C1259 C1261 1.415 . S
C1260 C1259 1.355 . S
C1260 C1262 1.419 . S
C1261 C1256 1.425 1_554 S
C1261 C1258 1.409 . S
C1261 C1259 1.415 . S
C1262 H1252 0.930 . S
C1262 C1260 1.419 . S
C1262 C1263 1.362 1_554 S
C1263 H1253 0.930 . S
C1263 C1256 1.409 . S
C1263 C1262 1.362 1_556 S
H1264 C1270 0.930 . S
H1265 C1273 0.930 1_556 S
H1266 C1274 0.930 . S
H1267 C1275 0.930 . S
H1268 C1278 0.930 . S
H1269 C1279 0.930 . S
C1270 H1264 0.930 . S
C1270 C1271 1.355 . S
C1270 C1272 1.415 . S
C1271 C1270 1.355 . S
C1271 C1273 1.419 . S
C1272 C1270 1.415 . S
C1272 C1277 1.425 1_655 S
C1272 C1279 1.409 . S
C1273 H1265 0.930 1_554 S
C1273 C1271 1.419 . S
C1273 C1274 1.362 1_655 S
C1274 H1266 0.930 . S
C1274 C1273 1.362 1_455 S
C1274 C1277 1.409 . S
C1275 H1267 0.930 . S
C1275 C1276 1.355 . S
C1275 C1277 1.415 . S
C1276 C1275 1.355 . S
C1276 C1278 1.419 . S
C1277 C1272 1.425 1_455 S
C1277 C1274 1.409 . S
C1277 C1275 1.415 . S
C1278 H1268 0.930 . S
C1278 C1276 1.419 . S
C1278 C1279 1.362 1_455 S
C1279 H1269 0.930 . S
C1279 C1272 1.409 . S
C1279 C1278 1.362 1_655 S
H1280 C1286 0.930 . S
H1281 C1289 0.930 . S
H1282 C1290 0.930 . S
H1283 C1291 0.930 . S
H1284 C1294 0.930 . S
H1285 C1295 0.930 . S
C1286 H1280 0.930 . S
C1286 C1287 1.355 . S
C1286 C1288 1.415 . S
C1287 C1286 1.355 . S
C1287 C1289 1.419 . S
C1288 C1286 1.415 . S
C1288 C1293 1.425 . S
C1288 C1295 1.409 . S
C1289 H1281 0.930 . S
C1289 C1287 1.419 . S
C1289 C1290 1.362 . S
C1290 H1282 0.930 . S
C1290 C1289 1.362 . S
C1290 C1293 1.409 . S
C1291 H1283 0.930 . S
C1291 C1292 1.355 . S
C1291 C1293 1.415 . S
C1292 C1291 1.355 . S
C1292 C1294 1.419 . S
C1293 C1288 1.425 . S
C1293 C1290 1.409 . S
C1293 C1291 1.415 . S
C1294 H1284 0.930 . S
C1294 C1292 1.419 . S
C1294 C1295 1.362 . S
C1295 H1285 0.930 . S
C1295 C1288 1.409 . S
C1295 C1294 1.362 . S
H1296 C1302 0.930 . S
H1297 C1305 0.930 . S
H1298 C1306 0.930 . S
H1299 C1307 0.930 . S
H1300 C1310 0.930 . S
H1301 C1311 0.930 . S
C1302 H1296 0.930 . S
C1302 C1303 1.355 . S
C1302 C1304 1.415 . S
C1303 C1302 1.355 . S
C1303 C1305 1.419 . S
C1304 C1302 1.415 . S
C1304 C1309 1.425 . S
C1304 C1311 1.409 . S
C1305 H1297 0.930 . S
C1305 C1303 1.419 . S
C1305 C1306 1.362 . S
C1306 H1298 0.930 . S
C1306 C1305 1.362 . S
C1306 C1309 1.409 . S
C1307 H1299 0.930 . S
C1307 C1308 1.355 . S
C1307 C1309 1.415 . S
C1308 C1307 1.355 . S
C1308 C1310 1.419 . S
C1309 C1304 1.425 . S
C1309 C1306 1.409 . S
C1309 C1307 1.415 . S
C1310 H1300 0.930 . S
C1310 C1308 1.419 . S
C1310 C1311 1.362 . S
C1311 H1301 0.930 . S
C1311 C1304 1.409 . S
C1311 C1310 1.362 . S
H1312 C1318 0.930 . S
H1313 C1321 0.930 . S
H1314 C1322 0.930 . S
H1315 C1323 0.930 . S
H1316 C1326 0.930 . S
H1317 C1327 0.930 . S
C1318 H1312 0.930 . S
C1318 C1319 1.355 . S
C1318 C1320 1.415 . S
C1319 C1318 1.355 . S
C1319 C1321 1.419 . S
C1320 C1318 1.415 . S
C1320 C1325 1.425 . S
C1320 C1327 1.409 . S
C1321 H1313 0.930 . S
C1321 C1319 1.419 . S
C1321 C1322 1.362 . S
C1322 H1314 0.930 . S
C1322 C1321 1.362 . S
C1322 C1325 1.409 . S
C1323 H1315 0.930 . S
C1323 C1324 1.355 . S
C1323 C1325 1.415 . S
C1324 C1323 1.355 . S
C1324 C1326 1.419 . S
C1325 C1320 1.425 . S
C1325 C1322 1.409 . S
C1325 C1323 1.415 . S
C1326 H1316 0.930 . S
C1326 C1324 1.419 . S
C1326 C1327 1.362 . S
C1327 H1317 0.930 . S
C1327 C1320 1.409 . S
C1327 C1326 1.362 . S
H1328 C1334 0.930 . S
H1329 C1337 0.930 . S
H1330 C1338 0.930 . S
H1331 C1339 0.930 . S
H1332 C1342 0.930 . S
H1333 C1343 0.930 . S
C1334 H1328 0.930 . S
C1334 C1335 1.355 . S
C1334 C1336 1.415 . S
C1335 C1334 1.355 . S
C1335 C1337 1.419 . S
C1336 C1334 1.415 . S
C1336 C1341 1.425 . S
C1336 C1343 1.409 . S
C1337 H1329 0.930 . S
C1337 C1335 1.419 . S
C1337 C1338 1.362 . S
C1338 H1330 0.930 . S
C1338 C1337 1.362 . S
C1338 C1341 1.409 . S
C1339 H1331 0.930 . S
C1339 C1340 1.355 . S
C1339 C1341 1.415 . S
C1340 C1339 1.355 . S
C1340 C1342 1.419 . S
C1341 C1336 1.425 . S
C1341 C1338 1.409 . S
C1341 C1339 1.415 . S
C1342 H1332 0.930 . S
C1342 C1340 1.419 . S
C1342 C1343 1.362 . S
C1343 H1333 0.930 . S
C1343 C1336 1.409 . S
C1343 C1342 1.362 . S
H1344 C1350 0.930 . S
H1345 C1353 0.930 . S
H1346 C1354 0.930 . S
H1347 C1355 0.930 . S
H1348 C1358 0.930 . S
H1349 C1359 0.930 . S
C1350 H1344 0.930 . S
C1350 C1351 1.355 . S
C1350 C1352 1.415 . S
C1351 C1350 1.355 . S
C1351 C1353 1.419 . S
C1352 C1350 1.415 . S
C1352 C1357 1.425 1_554 S
C1352 C1359 1.409 . S
C1353 H1345 0.930 . S
C1353 C1351 1.419 . S
C1353 C1354 1.362 1_554 S
C1354 H1346 0.930 . S
C1354 C1353 1.362 1_556 S
C1354 C1357 1.409 . S
C1355 H1347 0.930 . S
C1355 C1356 1.355 . S
C1355 C1357 1.415 . S
C1356 C1355 1.355 . S
C1356 C1358 1.419 . S
C1357 C1352 1.425 1_556 S
C1357 C1354 1.409 . S
C1357 C1355 1.415 . S
C1358 H1348 0.930 . S
C1358 C1356 1.419 . S
C1358 C1359 1.362 1_556 S
C1359 H1349 0.930 . S
C1359 C1352 1.409 . S
C1359 C1358 1.362 1_554 S
H1360 C1366 0.930 . S
H1361 C1369 0.930 . S
H1362 C1370 0.930 . S
H1363 C1371 0.930 . S
H1364 C1374 0.930 . S
H1365 C1375 0.930 . S
C1366 H1360 0.930 . S
C1366 C1367 1.355 . S
C1366 C1368 1.415 . S
C1367 C1366 1.355 . S
C1367 C1369 1.419 . S
C1368 C1366 1.415 . S
C1368 C1373 1.425 1_455 S
C1368 C1375 1.409 . S
C1369 H1361 0.930 . S
C1369 C1367 1.419 . S
C1369 C1370 1.362 1_455 S
C1370 H1362 0.930 . S
C1370 C1369 1.362 1_655 S
C1370 C1373 1.409 . S
C1371 H1363 0.930 . S
C1371 C1372 1.355 . S
C1371 C1373 1.415 . S
C1372 C1371 1.355 . S
C1372 C1374 1.419 . S
C1373 C1368 1.425 1_655 S
C1373 C1370 1.409 . S
C1373 C1371 1.415 . S
C1374 H1364 0.930 . S
C1374 C1372 1.419 . S
C1374 C1375 1.362 1_655 S
C1375 H1365 0.930 . S
C1375 C1368 1.409 . S
C1375 C1374 1.362 1_455 S
H1376 C1382 0.930 . S
H1377 C1385 0.930 . S
H1378 C1386 0.930 . S
H1379 C1387 0.930 . S
H1380 C1390 0.930 . S
H1381 C1391 0.930 . S
C1382 H1376 0.930 . S
C1382 C1383 1.355 . S
C1382 C1384 1.415 1_554 S
C1383 C1382 1.355 . S
C1383 C1385 1.419 . S
C1384 C1382 1.415 1_556 S
C1384 C1389 1.425 . S
C1384 C1391 1.409 . S
C1385 H1377 0.930 . S
C1385 C1383 1.419 . S
C1385 C1386 1.362 . S
C1386 H1378 0.930 . S
C1386 C1385 1.362 . S
C1386 C1389 1.409 1_554 S
C1387 H1379 0.930 . S
C1387 C1388 1.355 . S
C1387 C1389 1.415 . S
C1388 C1387 1.355 . S
C1388 C1390 1.419 . S
C1389 C1384 1.425 . S
C1389 C1386 1.409 1_556 S
C1389 C1387 1.415 . S
C1390 H1380 0.930 . S
C1390 C1388 1.419 . S
C1390 C1391 1.362 . S
C1391 H1381 0.930 . S
C1391 C1384 1.409 . S
C1391 C1390 1.362 . S
H1392 C1398 0.935 . S
H1393 C1401 0.930 . S
H1394 C1402 0.930 . S
H1395 C1403 0.933 . S
H1396 C1406 0.930 . S
H1397 C1407 0.930 . S
C1398 H1392 0.935 . S
C1398 C1399 1.355 . S
C1398 C1400 1.415 1_655 S
C1399 C1398 1.355 . S
C1399 C1401 1.419 . S
C1400 C1398 1.415 1_455 S
C1400 C1405 1.425 1_455 S
C1400 C1407 1.409 . S
C1401 H1393 0.930 . S
C1401 C1399 1.419 . S
C1401 C1402 1.362 . S
C1402 H1394 0.930 . S
C1402 C1401 1.362 . S
C1402 C1405 1.409 . S
C1403 H1395 0.933 . S
C1403 C1404 1.355 . S
C1403 C1405 1.415 1_455 S
C1404 C1403 1.355 . S
C1404 C1406 1.419 . S
C1405 C1400 1.425 1_655 S
C1405 C1402 1.409 . S
C1405 C1403 1.415 1_655 S
C1406 H1396 0.930 . S
C1406 C1404 1.419 . S
C1406 C1407 1.362 . S
C1407 H1397 0.930 . S
C1407 C1400 1.409 . S
C1407 C1406 1.362 . S
H1408 C1414 0.930 . S
H1409 C1417 0.930 . S
H1410 C1418 0.930 . S
H1411 C1419 0.930 . S
H1412 C1422 0.930 . S
H1413 C1423 0.930 . S
C1414 H1408 0.930 . S
C1414 C1415 1.355 . S
C1414 C1416 1.415 . S
C1415 C1414 1.355 . S
C1415 C1417 1.419 . S
C1416 C1414 1.415 . S
C1416 C1421 1.425 . S
C1416 C1423 1.409 . S
C1417 H1409 0.930 . S
C1417 C1415 1.419 . S
C1417 C1418 1.362 . S
C1418 H1410 0.930 . S
C1418 C1417 1.362 . S
C1418 C1421 1.409 . S
C1419 H1411 0.930 . S
C1419 C1420 1.355 . S
C1419 C1421 1.415 . S
C1420 C1419 1.355 . S
C1420 C1422 1.419 . S
C1421 C1416 1.425 . S
C1421 C1418 1.409 . S
C1421 C1419 1.415 . S
C1422 H1412 0.930 . S
C1422 C1420 1.419 . S
C1422 C1423 1.362 . S
C1423 H1413 0.930 . S
C1423 C1416 1.409 . S
C1423 C1422 1.362 . S
H1424 C1430 0.930 . S
H1425 C1433 0.930 . S
H1426 C1434 0.930 . S
H1427 C1435 0.930 . S
H1428 C1438 0.930 . S
H1429 C1439 0.930 . S
C1430 H1424 0.930 . S
C1430 C1431 1.355 . S
C1430 C1432 1.415 . S
C1431 C1430 1.355 . S
C1431 C1433 1.419 . S
C1432 C1430 1.415 . S
C1432 C1437 1.425 . S
C1432 C1439 1.409 . S
C1433 H1425 0.930 . S
C1433 C1431 1.419 . S
C1433 C1434 1.362 . S
C1434 H1426 0.930 . S
C1434 C1433 1.362 . S
C1434 C1437 1.409 . S
C1435 H1427 0.930 . S
C1435 C1436 1.355 . S
C1435 C1437 1.415 . S
C1436 C1435 1.355 . S
C1436 C1438 1.419 . S
C1437 C1432 1.425 . S
C1437 C1434 1.409 . S
C1437 C1435 1.415 . S
C1438 H1428 0.930 . S
C1438 C1436 1.419 . S
C1438 C1439 1.362 . S
C1439 H1429 0.930 . S
C1439 C1432 1.409 . S
C1439 C1438 1.362 . S
C423 C81 2.224 . S
C428 C5 2.241 . S
C439 C18 1.462 . S
C444 C96 1.439 . S
C455 C55 2.199 . S
C460 C29 2.158 . S
C471 C42 1.437 . S
C476 C70 1.466 . S
C487 C185 2.240 . S
C492 C109 2.225 . S
C503 C120 1.449 . S
C508 C200 1.474 . S
C519 C159 2.242 . S
C524 C133 2.193 . S
C535 C146 1.462 . S
C540 C174 1.464 . S
C551 C211 2.160 . S
C556 C291 2.184 . S
C567 C302 1.469 . S
C572 C226 1.456 . S
C583 C237 2.214 . S
C588 C263 2.244 . S
C599 C276 1.478 . S
C604 C252 1.439 . S
C615 C393 2.233 . S
C620 C317 2.234 . S
C631 C406 1.435 . S
C636 C330 1.476 . S
C647 C367 2.245 . S
C652 C341 2.208 . S
C663 C356 1.456 . S
C668 C382 1.469 . S
C679 C101 1.327 . S
C684 C10 1.320 . S
C695 C56 1.318 . S
C700 C23 1.297 . S
C711 C75 1.306 . S
C716 C30 1.315 . S
C727 C82 1.316 . S
C732 C43 1.311 . S
C743 C205 1.293 . S
C748 C114 1.313 . S
C759 C160 1.314 . S
C764 C121 1.301 . S
C775 C179 1.308 . S
C780 C134 1.320 . S
C791 C147 1.293 . S
C796 C186 1.313 . S
C807 C303 1.288 . S
C812 C212 1.314 . S
C823 C231 1.327 . S
C828 C264 1.320 . S
C839 C238 1.318 . S
C844 C277 1.297 . S
C855 C296 1.319 . S
C860 C257 1.301 . S
C871 C407 1.298 . S
C876 C322 1.314 . S
C887 C335 1.324 . S
C892 C368 1.319 . S
C903 C342 1.316 . S
C908 C387 1.290 . S
C919 C394 1.321 . S
C924 C361 1.325 . S
C935 C4 1.763 . S
C940 C395 1.975 . S
C951 C198 1.358 . S
C956 C17 1.379 . S
C967 C369 2.003 . S
C972 C36 1.841 . S
C983 C172 1.356 . S
C988 C49 1.382 1_556 S
C999 C343 1.998 . S
C1004 C62 1.772 . S
C1015 C69 1.372 . S
C1020 C148 1.367 . S
C1031 C88 1.823 . S
C1036 C315 1.984 . S
C1047 C95 1.382 1_554 S
C1052 C122 1.356 . S
C1063 C108 1.795 . S
C1068 C289 2.004 . S
C1079 C94 1.375 . S
C1084 C127 1.366 . S
C1095 C265 1.994 . S
C1100 C140 1.762 . S
C1111 C68 1.366 . S
C1116 C153 1.372 1_554 S
C1127 C239 1.975 . S
C1132 C166 1.758 . S
C1143 C44 1.384 . S
C1148 C173 1.379 . S
C1159 C192 1.843 . S
C1164 C213 1.998 . S
C1175 C16 1.361 . S
C1180 C199 1.392 1_556 S
C1191 C187 1.997 . S
C1196 C218 1.843 . S
C1207 C408 1.362 . S
C1212 C225 1.375 1_556 S
C1223 C244 1.840 . S
C1228 C161 1.993 . S
C1239 C251 1.390 . S
C1244 C380 1.367 . S
C1255 C270 1.829 . S
C1260 C135 1.987 . S
C1271 C283 1.380 1_554 S
C1276 C354 1.357 . S
C1287 C290 1.760 . S
C1292 C107 1.975 . S
C1303 C309 1.375 . S
C1308 C328 1.387 . S
C1319 C83 1.989 . S
C1324 C316 1.754 . S
C1335 C304 1.371 . S
C1340 C329 1.388 1_554 S
C1351 C57 1.974 . S
C1356 C348 1.779 . S
C1367 C355 1.384 . S
C1372 C278 1.354 . S
C1383 C374 1.787 . S
C1388 C31 2.002 . S
C1399 C250 1.381 . S
C1404 C381 1.381 1_556 S
C1415 C400 1.838 . S
C1420 C3 2.005 . S
C1431 C413 1.384 . S
C1436 C224 1.354 . S
