# Generated by pormake.
# Topology uou, (4)-cn, num edge types: 1
# Building blocks:
#     Node 0, Type 0, BuildingBlock: NAHDIM_clean_sbu_0, # of connection points: 4
#     Node 1, Type 0, BuildingBlock: NAHDIM_clean_sbu_0, # of connection points: 4
#     Node 2, Type 0, BuildingBlock: NAHDIM_clean_sbu_0, # of connection points: 4
#     Node 3, Type 0, BuildingBlock: NAHDIM_clean_sbu_0, # of connection points: 4
#     Node 4, Type 0, BuildingBlock: NAHDIM_clean_sbu_0, # of connection points: 4
#     Node 5, Type 0, BuildingBlock: NAHDIM_clean_sbu_0, # of connection points: 4
#     Node 6, Type 0, BuildingBlock: NAHDIM_clean_sbu_0, # of connection points: 4
#     Node 7, Type 0, BuildingBlock: NAHDIM_clean_sbu_0, # of connection points: 4
#     Node 8, Type 0, BuildingBlock: NAHDIM_clean_sbu_0, # of connection points: 4
#     Node 9, Type 0, BuildingBlock: NAHDIM_clean_sbu_0, # of connection points: 4
#     Node 10, Type 0, BuildingBlock: NAHDIM_clean_sbu_0, # of connection points: 4
#     Node 11, Type 0, BuildingBlock: NAHDIM_clean_sbu_0, # of connection points: 4
#     Node 12, Type 0, BuildingBlock: NAHDIM_clean_sbu_0, # of connection points: 4
#     Node 13, Type 0, BuildingBlock: NAHDIM_clean_sbu_0, # of connection points: 4
#     Node 14, Type 0, BuildingBlock: NAHDIM_clean_sbu_0, # of connection points: 4
#     Node 15, Type 0, BuildingBlock: NAHDIM_clean_sbu_0, # of connection points: 4
#     Edge 16, Type (0, 0), BuildingBlock: CIFDUS_clean_linker_0, # of connection points: 2
#     Edge 17, Type (0, 0), BuildingBlock: CIFDUS_clean_linker_0, # of connection points: 2
#     Edge 18, Type (0, 0), BuildingBlock: CIFDUS_clean_linker_0, # of connection points: 2
#     Edge 19, Type (0, 0), BuildingBlock: CIFDUS_clean_linker_0, # of connection points: 2
#     Edge 20, Type (0, 0), BuildingBlock: CIFDUS_clean_linker_0, # of connection points: 2
#     Edge 21, Type (0, 0), BuildingBlock: CIFDUS_clean_linker_0, # of connection points: 2
#     Edge 22, Type (0, 0), BuildingBlock: CIFDUS_clean_linker_0, # of connection points: 2
#     Edge 23, Type (0, 0), BuildingBlock: CIFDUS_clean_linker_0, # of connection points: 2
#     Edge 24, Type (0, 0), BuildingBlock: CIFDUS_clean_linker_0, # of connection points: 2
#     Edge 25, Type (0, 0), BuildingBlock: CIFDUS_clean_linker_0, # of connection points: 2
#     Edge 26, Type (0, 0), BuildingBlock: CIFDUS_clean_linker_0, # of connection points: 2
#     Edge 27, Type (0, 0), BuildingBlock: CIFDUS_clean_linker_0, # of connection points: 2
#     Edge 28, Type (0, 0), BuildingBlock: CIFDUS_clean_linker_0, # of connection points: 2
#     Edge 29, Type (0, 0), BuildingBlock: CIFDUS_clean_linker_0, # of connection points: 2
#     Edge 30, Type (0, 0), BuildingBlock: CIFDUS_clean_linker_0, # of connection points: 2
#     Edge 31, Type (0, 0), BuildingBlock: CIFDUS_clean_linker_0, # of connection points: 2
#     Edge 32, Type (0, 0), BuildingBlock: CIFDUS_clean_linker_0, # of connection points: 2
#     Edge 33, Type (0, 0), BuildingBlock: CIFDUS_clean_linker_0, # of connection points: 2
#     Edge 34, Type (0, 0), BuildingBlock: CIFDUS_clean_linker_0, # of connection points: 2
#     Edge 35, Type (0, 0), BuildingBlock: CIFDUS_clean_linker_0, # of connection points: 2
#     Edge 36, Type (0, 0), BuildingBlock: CIFDUS_clean_linker_0, # of connection points: 2
#     Edge 37, Type (0, 0), BuildingBlock: CIFDUS_clean_linker_0, # of connection points: 2
#     Edge 38, Type (0, 0), BuildingBlock: CIFDUS_clean_linker_0, # of connection points: 2
#     Edge 39, Type (0, 0), BuildingBlock: CIFDUS_clean_linker_0, # of connection points: 2
#     Edge 40, Type (0, 0), BuildingBlock: CIFDUS_clean_linker_0, # of connection points: 2
#     Edge 41, Type (0, 0), BuildingBlock: CIFDUS_clean_linker_0, # of connection points: 2
#     Edge 42, Type (0, 0), BuildingBlock: CIFDUS_clean_linker_0, # of connection points: 2
#     Edge 43, Type (0, 0), BuildingBlock: CIFDUS_clean_linker_0, # of connection points: 2
#     Edge 44, Type (0, 0), BuildingBlock: CIFDUS_clean_linker_0, # of connection points: 2
#     Edge 45, Type (0, 0), BuildingBlock: CIFDUS_clean_linker_0, # of connection points: 2
#     Edge 46, Type (0, 0), BuildingBlock: CIFDUS_clean_linker_0, # of connection points: 2
#     Edge 47, Type (0, 0), BuildingBlock: CIFDUS_clean_linker_0, # of connection points: 2
# Relax obj value: 0.106
# Max RMSD: 0.146
# Mean RMSD: 0.146
data_MOF--net-uou--node1-NAHDIM_clean_sbu_0--edge1-CIFDUS_clean_linker_0
_symmetry_space_group_name_H-M    P1
_symmetry_Int_Tables_number       1
_symmetry_cell_setting            triclinic
loop_
_symmetry_equiv_pos_as_xyz
'x, y, z'
_cell_length_a     35.607973
_cell_length_b     34.796208
_cell_length_c     44.963724
_cell_angle_alpha  90.237634
_cell_angle_beta   90.137346
_cell_angle_gamma 90.081586
loop_
_atom_site_label
_atom_site_type_symbol
_atom_site_fract_x
_atom_site_fract_y
_atom_site_fract_z
_atom_type_partial_charge
C0 C 0.14226 0.02124 0.10251 0.0
O1 O 0.11757 0.9933 0.10002 0.0
O2 O 0.05482 0.04416 0.14937 0.0
Zn3 Zn 0.07553 0.06501 0.1111 0.0
O4 O 0.04886 0.04117 0.07612 0.0
C5 C 0.03207 0.13315 0.10693 0.0
O6 O 0.00573 0.1076 0.10141 0.0
O7 O 0.13082 0.05519 0.10757 0.0
C8 C 0.02256 0.0168 0.07917 0.0
O9 O 0.01254 0.00621 0.10601 0.0
C10 C 0.07224 0.02515 0.16913 0.0
O11 O 0.10791 0.01697 0.16538 0.0
O12 O 0.0655 0.12175 0.11138 0.0
C13 C 0.35286 0.94415 0.09423 0.0
O14 O 0.3764 0.97105 0.08573 0.0
O15 O 0.44843 0.92011 0.13454 0.0
Zn16 Zn 0.42082 0.90056 0.0982 0.0
O17 O 0.44049 0.92664 0.0615 0.0
C18 C 0.45875 0.82816 0.10409 0.0
O19 O 0.48543 0.85039 0.11482 0.0
O20 O 0.36553 0.91127 0.10118 0.0
C21 C 0.46573 0.91248 0.04482 0.0
O22 O 0.48068 0.87917 0.0516 0.0
C23 C 0.43554 0.94383 0.15351 0.0
O24 O 0.40176 0.95812 0.14976 0.0
O25 O 0.42824 0.84329 0.09528 0.0
C26 C 0.62597 0.98844 0.36155 0.0
O27 O 0.59926 0.01437 0.35978 0.0
O28 O 0.54181 0.96176 0.32074 0.0
Zn29 Zn 0.56087 0.94332 0.36043 0.0
O30 O 0.538 0.9721 0.3949 0.0
C31 C 0.51716 0.87533 0.35103 0.0
O32 O 0.49791 0.89999 0.3351 0.0
O33 O 0.61677 0.95309 0.36206 0.0
C34 C 0.50621 0.96386 0.40598 0.0
O35 O 0.48572 0.93674 0.39361 0.0
C36 C 0.51405 0.98394 0.3163 0.0
O37 O 0.49673 -0.00065 0.33918 0.0
O38 O 0.54696 0.88673 0.36415 0.0
C39 C 0.84825 0.02214 0.36717 0.0
O40 O 0.87504 0.99623 0.36603 0.0
O41 O 0.92923 0.04961 0.32243 0.0
Zn42 Zn 0.91278 0.06828 0.36267 0.0
O43 O 0.94131 0.04172 0.39521 0.0
C44 C 0.93662 0.14211 0.38749 0.0
O45 O 0.9331 0.12468 0.4132 0.0
O46 O 0.8573 0.05753 0.36666 0.0
C47 C 0.97681 0.04508 0.39673 0.0
O48 O -0.00549 0.06501 0.37633 0.0
C49 C 0.95132 0.02195 0.31663 0.0
O50 O 0.96471 0.00083 0.33833 0.0
O51 O 0.92686 0.12456 0.36383 0.0
C52 C 0.85507 0.99179 0.86692 0.0
O53 O 0.88285 0.01668 0.86659 0.0
O54 O 0.93734 0.95785 0.82331 0.0
Zn55 Zn 0.91695 0.94057 0.8626 0.0
O56 O 0.94499 0.9649 0.89646 0.0
C57 C 0.9559 0.86954 0.87068 0.0
O58 O 0.98364 0.89361 0.87581 0.0
O59 O 0.86258 0.95609 0.8654 0.0
C60 C 0.93564 0.95463 0.92248 0.0
O61 O 0.90838 0.92948 0.92561 0.0
C62 C 0.97141 0.96754 0.81961 0.0
O63 O -0.00576 0.96811 0.84261 0.0
O64 O 0.92346 0.88291 0.86483 0.0
C65 C 0.63371 0.02991 0.86947 0.0
O66 O 0.60682 0.00428 0.86637 0.0
O67 O 0.5555 0.0553 0.82482 0.0
Zn68 Zn 0.56899 0.07349 0.8658 0.0
O69 O 0.54297 0.04159 0.89667 0.0
C70 C 0.56556 0.15566 0.85419 0.0
O71 O 0.59353 0.14825 0.83605 0.0
O72 O 0.6248 0.06531 0.87045 0.0
C73 C 0.51353 0.05257 0.91013 0.0
O74 O 0.4982 0.08562 0.90305 0.0
C75 C 0.52169 0.0529 0.81603 0.0
O76 O 0.49452 0.06138 0.83464 0.0
O77 O 0.5521 0.12867 0.86982 0.0
C78 C 0.34627 0.06363 0.59548 0.0
O79 O 0.37089 0.03569 0.59787 0.0
O80 O 0.42397 0.07819 0.64127 0.0
Zn81 Zn 0.41403 0.10127 0.60113 0.0
O82 O 0.43771 0.07126 0.56772 0.0
C83 C 0.46239 0.16421 0.61638 0.0
O84 O 0.47763 0.13733 0.63285 0.0
O85 O 0.35809 0.09814 0.59557 0.0
C86 C 0.47007 0.07857 0.55729 0.0
O87 O 0.49065 0.10553 0.56978 0.0
C88 C 0.45139 0.05712 0.64893 0.0
O89 O 0.47696 0.04773 0.62918 0.0
O90 O 0.43361 0.15601 0.60072 0.0
C91 C 0.13806 0.97875 0.6006 0.0
O92 O 0.11238 0.00583 0.60075 0.0
O93 O 0.05306 0.95144 0.64396 0.0
Zn94 Zn 0.07313 0.93051 0.60554 0.0
O95 O 0.04488 0.95226 0.57078 0.0
C96 C 0.03495 0.85824 0.59963 0.0
O97 O 0.0075 0.88069 0.59082 0.0
O98 O 0.12784 0.94383 0.60245 0.0
C99 C 0.06025 0.95447 0.54539 0.0
O100 O 0.09505 0.94274 0.54211 0.0
C101 C 0.01845 0.95905 0.64735 0.0
O102 O -0.00452 0.95498 0.62465 0.0
O103 O 0.06645 0.87312 0.60648 0.0
C104 C 0.61802 0.48498 0.11363 0.0
O105 O 0.59133 0.45888 0.11405 0.0
O106 O 0.53779 0.52433 0.16074 0.0
Zn107 Zn 0.5555 0.53582 0.11956 0.0
O108 O 0.52452 0.50768 0.08937 0.0
C109 C 0.51908 0.60745 0.10729 0.0
O110 O 0.48998 0.58469 0.10346 0.0
O111 O 0.60924 0.52026 0.11562 0.0
C112 C 0.52974 0.51482 0.06203 0.0
O113 O 0.55539 0.54015 0.05453 0.0
C114 C 0.50337 0.51809 0.16627 0.0
O115 O 0.47917 0.5169 0.14418 0.0
O116 O 0.55075 0.59282 0.11367 0.0
C117 C 0.84046 0.459 0.11083 0.0
O118 O 0.86651 0.48557 0.11361 0.0
O119 O 0.92025 0.42992 0.15481 0.0
Zn120 Zn 0.90557 0.4147 0.11317 0.0
O121 O 0.93062 0.44632 0.08147 0.0
C122 C 0.94687 0.34458 0.1186 0.0
O123 O 0.96865 0.36694 0.13476 0.0
O124 O 0.85032 0.42395 0.10973 0.0
C125 C 0.96403 0.44139 0.07239 0.0
O126 O 0.98525 0.41531 0.08507 0.0
C127 C 0.94982 0.44743 0.16307 0.0
O128 O 0.97442 0.45842 0.1431 0.0
O129 O 0.91735 0.35855 0.10694 0.0
C130 C 0.1481 0.44772 0.37714 0.0
O131 O 0.12161 0.47389 0.37553 0.0
O132 O 0.06701 0.42713 0.33338 0.0
Zn133 Zn 0.08275 0.40462 0.37253 0.0
O134 O 0.05851 0.43339 0.40616 0.0
C135 C 0.05761 0.32994 0.35119 0.0
O136 O 0.06449 0.34503 0.32503 0.0
O137 O 0.13867 0.41242 0.3764 0.0
C138 C 0.0293 0.4213 0.41936 0.0
O139 O 0.0131 0.38946 0.41013 0.0
C140 C 0.03272 0.43168 0.32648 0.0
O141 O 0.00668 0.42257 0.34587 0.0
O142 O 0.06572 0.34907 0.3745 0.0
C143 C 0.35068 0.54661 0.38227 0.0
O144 O 0.37751 0.52073 0.38142 0.0
O145 O 0.43319 0.56832 0.34087 0.0
Zn146 Zn 0.41526 0.5921 0.37883 0.0
O147 O 0.44107 0.56688 0.41301 0.0
C148 C 0.46218 0.65772 0.38746 0.0
O149 O 0.48427 0.63085 0.39808 0.0
O150 O 0.35968 0.58201 0.38179 0.0
C151 C 0.43208 0.57499 0.43959 0.0
O152 O 0.40447 0.59919 0.44452 0.0
C153 C 0.46663 0.5564 0.3376 0.0
O154 O 0.49036 0.55916 0.35993 0.0
O155 O 0.42954 0.64846 0.37819 0.0
C156 C 0.33503 0.45974 0.87035 0.0
O157 O 0.36428 0.48188 0.86546 0.0
O158 O 0.40634 0.42602 0.82236 0.0
Zn159 Zn 0.39412 0.40948 0.86392 0.0
O160 O 0.42575 0.43834 0.89335 0.0
C161 C 0.44274 0.34766 0.86185 0.0
O162 O 0.46358 0.37741 0.85475 0.0
O163 O 0.33993 0.42351 0.87135 0.0
C164 C 0.422 0.42991 0.92061 0.0
O165 O 0.39763 0.40328 0.9281 0.0
C166 C 0.43297 0.44886 0.81604 0.0
O167 O 0.45379 0.46329 0.83752 0.0
O168 O 0.40812 0.35319 0.86755 0.0
C169 C 0.12005 0.52418 0.88194 0.0
O170 O 0.08996 0.50244 0.884 0.0
O171 O 0.03625 0.56007 0.8428 0.0
Zn172 Zn 0.06218 0.57895 0.88006 0.0
O173 O 0.03849 0.5562 0.91645 0.0
C174 C 0.0267 0.65154 0.87268 0.0
O175 O 0.00059 0.62854 0.86209 0.0
O176 O 0.11593 0.56042 0.87989 0.0
C177 C 0.00361 0.55545 0.9222 0.0
O178 O 0.97969 0.57043 0.90325 0.0
C179 C 0.05505 0.55404 0.81924 0.0
O180 O 0.09165 0.55871 0.81985 0.0
O181 O 0.05745 0.63705 0.88182 0.0
C182 C 0.85222 0.57594 0.62194 0.0
O183 O 0.86299 0.60955 0.63234 0.0
O184 O 0.95476 0.55073 0.64899 0.0
Zn185 Zn 0.93139 0.5665 0.61009 0.0
O186 O 0.95413 0.53831 0.57533 0.0
C187 C 0.9673 0.64038 0.61518 0.0
O188 O 0.99227 0.6199 0.62965 0.0
O189 O 0.87661 0.55316 0.6113 0.0
C190 C 0.98207 0.55128 0.56095 0.0
O191 O -0.00213 0.58359 0.56953 0.0
C192 C 0.98696 0.53534 0.65143 0.0
O193 O 0.00634 0.5276 0.62732 0.0
O194 O 0.93824 0.62381 0.60471 0.0
C195 C 0.64682 0.4839 0.61664 0.0
O196 O 0.62115 0.50981 0.62283 0.0
O197 O 0.56218 0.45946 0.65209 0.0
Zn198 Zn 0.58051 0.44217 0.61224 0.0
O199 O 0.55713 0.47444 0.58061 0.0
C200 C 0.53438 0.37924 0.59218 0.0
O201 O 0.51591 0.40739 0.57948 0.0
O202 O 0.63637 0.44972 0.61089 0.0
C203 C 0.56904 0.47122 0.55413 0.0
O204 O 0.59735 0.44808 0.54865 0.0
C205 C 0.52713 0.46121 0.65698 0.0
O206 O 0.50359 0.45299 0.63532 0.0
O207 O 0.56425 0.3868 0.60673 0.0
H208 H 0.31867 0.01373 0.09181 0.0
H209 H 0.2958 0.8925 0.10101 0.0
H210 H 0.22856 0.90565 0.10384 0.0
H211 H 0.17633 0.95154 0.10384 0.0
H212 H 0.19937 0.07294 0.09632 0.0
H213 H 0.26653 0.05971 0.09267 0.0
C214 C 0.29898 0.99017 0.09436 0.0
C215 C 0.31221 0.95221 0.0961 0.0
C216 C 0.26041 0.99795 0.09629 0.0
C217 C 0.28635 0.92202 0.09967 0.0
C218 C 0.24789 0.92949 0.10124 0.0
C219 C 0.19603 0.9751 0.10131 0.0
C220 C 0.18287 0.01314 0.10025 0.0
C221 C 0.23462 0.96734 0.09958 0.0
C222 C 0.20878 0.04338 0.09724 0.0
C223 C 0.24718 0.03585 0.09512 0.0
H224 H 0.68829 0.94311 0.36593 0.0
H225 H 0.65331 0.06163 0.36042 0.0
H226 H 0.71859 0.08259 0.36242 0.0
H227 H 0.78585 0.06746 0.36501 0.0
H228 H 0.82096 0.94898 0.37023 0.0
H229 H 0.7556 0.92803 0.36919 0.0
C230 C 0.69493 0.97352 0.36519 0.0
C231 C 0.66585 0.00068 0.36296 0.0
C232 C 0.73266 0.98549 0.36633 0.0
C233 C 0.67505 0.04 0.36208 0.0
C234 C 0.71244 0.05209 0.36324 0.0
C235 C 0.77922 0.03707 0.36605 0.0
C236 C 0.80835 0.00991 0.36766 0.0
C237 C 0.7415 0.02511 0.36528 0.0
C238 C 0.79917 0.9706 0.36894 0.0
C239 C 0.76174 0.95852 0.36832 0.0
H240 H 0.7917 0.94816 0.86891 0.0
H241 H 0.82987 0.06595 0.86865 0.0
H242 H 0.76496 0.08836 0.87028 0.0
H243 H 0.69705 0.0745 0.87065 0.0
H244 H 0.65953 0.95643 0.87064 0.0
H245 H 0.72434 0.93435 0.87035 0.0
C246 C 0.78587 0.97874 0.86926 0.0
C247 C 0.81566 0.00527 0.86855 0.0
C248 C 0.7485 0.99148 0.87014 0.0
C249 C 0.80752 0.04482 0.86911 0.0
C250 C 0.77036 0.05772 0.87004 0.0
C251 C 0.70307 0.04396 0.87073 0.0
C252 C 0.67339 0.01724 0.87058 0.0
C253 C 0.74058 0.0313 0.87041 0.0
C254 C 0.68174 0.97772 0.87066 0.0
C255 C 0.71886 0.96498 0.87048 0.0
H256 H 0.16934 0.05011 0.59681 0.0
H257 H 0.19752 0.92947 0.59963 0.0
H258 H 0.26411 0.94532 0.59726 0.0
H259 H 0.31428 0.99307 0.59562 0.0
H260 H 0.28702 0.11387 0.59325 0.0
H261 H 0.22001 0.09821 0.59404 0.0
C262 C 0.19003 0.02727 0.59684 0.0
C263 C 0.17839 0.98866 0.59851 0.0
C264 C 0.2284 0.03657 0.59555 0.0
C265 C 0.20562 0.95944 0.59845 0.0
C266 C 0.24375 0.96845 0.59709 0.0
C267 C 0.29375 0.01606 0.59516 0.0
C268 C 0.30567 0.0546 0.59447 0.0
C269 C 0.25544 0.00689 0.59581 0.0
C270 C 0.27861 0.08396 0.59381 0.0
C271 C 0.2403 0.07502 0.59431 0.0
H272 H 0.77975 0.41136 0.10861 0.0
H273 H 0.81116 0.53126 0.11135 0.0
H274 H 0.74518 0.54972 0.11177 0.0
H275 H 0.67879 0.53201 0.11255 0.0
H276 H 0.64684 0.41228 0.11027 0.0
H277 H 0.71291 0.39362 0.1084 0.0
C278 C 0.77217 0.44153 0.10919 0.0
C279 C 0.80037 0.46986 0.11003 0.0
C280 C 0.73412 0.452 0.10957 0.0
C281 C 0.79005 0.50883 0.11077 0.0
C282 C 0.75231 0.51945 0.11102 0.0
C283 C 0.6862 0.50181 0.11157 0.0
C284 C 0.6579 0.47359 0.11165 0.0
C285 C 0.72415 0.49129 0.11062 0.0
C286 C 0.66807 0.4346 0.1103 0.0
C287 C 0.70584 0.42389 0.10924 0.0
H288 H 0.3236 0.47353 0.38225 0.0
H289 H 0.28811 0.59215 0.3831 0.0
H290 H 0.22245 0.57177 0.38213 0.0
H291 H 0.17531 0.5205 0.38 0.0
H292 H 0.21057 0.40183 0.37885 0.0
H293 H 0.2763 0.42213 0.38103 0.0
C294 C 0.30154 0.49499 0.38231 0.0
C295 C 0.31083 0.53436 0.38268 0.0
C296 C 0.26385 0.48307 0.38164 0.0
C297 C 0.28182 0.56169 0.38279 0.0
C298 C 0.24424 0.55006 0.38221 0.0
C299 C 0.19731 0.49899 0.38027 0.0
C300 C 0.18798 0.45966 0.37918 0.0
C301 C 0.23497 0.51085 0.38146 0.0
C302 C 0.21693 0.43227 0.37964 0.0
C303 C 0.25452 0.44386 0.38087 0.0
H304 H 0.1878 0.56015 0.8776 0.0
H305 H 0.13707 0.44782 0.88463 0.0
H306 H 0.19888 0.41785 0.88237 0.0
H307 H 0.26753 0.42334 0.87743 0.0
H308 H 0.31785 0.5359 0.87028 0.0
H309 H 0.25622 0.56571 0.87365 0.0
C310 C 0.19025 0.52912 0.8787 0.0
C311 C 0.15779 0.50635 0.88121 0.0
C312 C 0.2259 0.51198 0.87736 0.0
C313 C 0.16155 0.46614 0.88266 0.0
C314 C 0.19693 0.4489 0.88136 0.0
C315 C 0.26501 0.45438 0.87673 0.0
C316 C 0.29733 0.47724 0.87353 0.0
C317 C 0.22932 0.47151 0.87858 0.0
C318 C 0.2935 0.51748 0.87266 0.0
C319 C 0.25821 0.53466 0.87457 0.0
H320 H 0.67704 0.55283 0.63173 0.0
H321 H 0.70682 0.43939 0.60056 0.0
H322 H 0.77301 0.45801 0.59936 0.0
H323 H 0.82224 0.50655 0.60698 0.0
H324 H 0.79224 0.61971 0.6387 0.0
H325 H 0.72617 0.60103 0.63983 0.0
C326 C 0.69796 0.53212 0.62466 0.0
C327 C 0.68697 0.49479 0.6162 0.0
C328 C 0.7359 0.54296 0.6241 0.0
C329 C 0.71451 0.46831 0.60721 0.0
C330 C 0.75236 0.47894 0.60649 0.0
C331 C 0.80127 0.52717 0.61412 0.0
C332 C 0.8122 0.56452 0.62269 0.0
C333 C 0.76334 0.51621 0.61485 0.0
C334 C 0.78465 0.59079 0.632 0.0
C335 C 0.74684 0.58014 0.63264 0.0
H336 H 0.01741 0.98986 0.29938 0.0
H337 H 0.91805 0.04573 0.26555 0.0
H338 H 0.94569 0.04827 0.21602 0.0
H339 H 6e-05 0.04054 0.18373 0.0
H340 H 0.10109 0.98789 0.21766 0.0
H341 H 0.07068 0.97789 0.26571 0.0
C342 C 0.00157 0.0019 0.28102 0.0
C343 C 0.96586 0.01779 0.28611 0.0
C344 C 0.01808 0.00426 0.25274 0.0
C345 C 0.94573 0.03358 0.2622 0.0
C346 C 0.96152 0.03512 0.2339 0.0
C347 C 0.01541 0.02655 0.20151 0.0
C348 C 0.05296 0.01542 0.19721 0.0
C349 C -0.00195 0.02154 0.22914 0.0
C350 C 0.07225 0.99703 0.22044 0.0
C351 C 0.05489 0.99132 0.24794 0.0
H352 H 0.41456 0.98888 0.20037 0.0
H353 H 0.50576 0.91868 0.16791 0.0
H354 H 0.53968 0.92831 0.21447 0.0
H355 H 0.54131 0.95214 0.2656 0.0
H356 H 0.44965 0.0208 0.29907 0.0
H357 H 0.41838 0.01676 0.2507 0.0
C358 C 0.442 0.97598 0.20336 0.0
C359 C 0.45737 0.95276 0.18075 0.0
C360 C 0.46128 0.98128 0.23038 0.0
C361 C 0.49309 0.93645 0.18498 0.0
C362 C 0.51255 0.94192 0.21163 0.0
C363 C 0.51469 0.96665 0.26229 0.0
C364 C 0.4977 0.98643 0.28606 0.0
C365 C 0.49658 0.96362 0.23466 0.0
C366 C 0.46332 0.00525 0.28122 0.0
C367 C 0.44533 0.00281 0.25359 0.0
H368 H 0.05846 0.97103 0.69813 0.0
H369 H 0.94507 0.96587 0.66406 0.0
H370 H 0.92045 0.9715 0.71449 0.0
H371 H 0.93117 0.97185 0.76834 0.0
H372 H 0.04454 0.97606 0.80251 0.0
H373 H 0.06906 0.97724 0.75187 0.0
C374 C 0.02835 0.97154 0.70168 0.0
C375 C 0.00366 0.96752 0.67738 0.0
C376 C 0.01436 0.9744 0.73075 0.0
C377 C 0.96473 0.96868 0.68236 0.0
C378 C 0.9506 0.97179 0.71121 0.0
C379 C 0.96125 0.97342 0.76475 0.0
C380 C 0.98599 0.97334 0.78919 0.0
C381 C 0.97517 0.9737 0.73559 0.0
C382 C 0.02485 0.97586 0.78411 0.0
C383 C 0.03892 0.97642 0.75515 0.0
H384 H 0.51629 0.03649 0.67665 0.0
H385 H 0.3992 0.0604 0.69292 0.0
H386 H 0.41 0.05729 0.74643 0.0
H387 H 0.45377 0.05468 0.78842 0.0
H388 H 0.57143 0.03354 0.77229 0.0
H389 H 0.55923 0.02834 0.71901 0.0
C390 C 0.49302 0.04031 0.6919 0.0
C391 C 0.45711 0.04904 0.68084 0.0
C392 C 0.49958 0.03941 0.7227 0.0
C393 C 0.42723 0.05402 0.70089 0.0
C394 C 0.43337 0.05232 0.7315 0.0
C395 C 0.47669 0.04844 0.77332 0.0
C396 C 0.51349 0.04499 0.78432 0.0
C397 C 0.46962 0.04616 0.74265 0.0
C398 C 0.54283 0.0367 0.76441 0.0
C399 C 0.53592 0.03375 0.7339 0.0
H400 H 0.54615 0.51855 0.21635 0.0
H401 H 0.43094 0.51733 0.18612 0.0
H402 H 0.40931 0.52609 0.23715 0.0
H403 H 0.42332 0.54011 0.28946 0.0
H404 H 0.53852 0.54223 0.31962 0.0
H405 H 0.55992 0.5268 0.26942 0.0
C406 C 0.51628 0.51976 0.22093 0.0
C407 C 0.49022 0.51781 0.19741 0.0
C408 C 0.50405 0.52526 0.25025 0.0
C409 C 0.45162 0.51898 0.20378 0.0
C410 C 0.43921 0.52414 0.23295 0.0
C411 C 0.45311 0.5369 0.28512 0.0
C412 C 0.47932 0.54286 0.30814 0.0
C413 C 0.46522 0.52831 0.25622 0.0
C414 C 0.51777 0.53803 0.30226 0.0
C415 C 0.53004 0.5293 0.27355 0.0
H416 H 0.96294 0.43304 0.30197 0.0
H417 H 0.07959 0.4544 0.28182 0.0
H418 H 0.06361 0.46513 0.22971 0.0
H419 H 0.01736 0.46261 0.1891 0.0
H420 H 0.90121 0.43854 0.20918 0.0
H421 H 0.91614 0.43513 0.26205 0.0
C422 C 0.98483 0.4405 0.28628 0.0
C423 C 0.02242 0.44254 0.29575 0.0
C424 C 0.97558 0.44596 0.25624 0.0
C425 C 0.05042 0.45235 0.2751 0.0
C426 C 0.04133 0.45846 0.24526 0.0
C427 C -0.00477 0.45721 0.20508 0.0
C428 C 0.95831 0.45051 0.19518 0.0
C429 C 0.00412 0.45447 0.23545 0.0
C430 C 0.92995 0.44346 0.21619 0.0
C431 C 0.93845 0.44145 0.24644 0.0
H432 H 0.45677 0.4487 0.67768 0.0
H433 H 0.56677 0.48781 0.70486 0.0
H434 H 0.54595 0.49122 0.75651 0.0
H435 H 0.49833 0.4774 0.79433 0.0
H436 H 0.38955 0.43474 0.76725 0.0
H437 H 0.408 0.43874 0.71513 0.0
C438 C 0.47605 0.45849 0.69483 0.0
C439 C 0.51331 0.46769 0.6875 0.0
C440 C 0.4642 0.45948 0.72453 0.0
C441 C 0.53799 0.48026 0.70999 0.0
C442 C 0.52613 0.48219 0.73952 0.0
C443 C 0.47849 0.4695 0.77701 0.0
C444 C 0.44276 0.45552 0.78462 0.0
C445 C 0.48957 0.47099 0.74712 0.0
C446 C 0.41737 0.44527 0.76194 0.0
C447 C 0.42789 0.44754 0.73214 0.0
H448 H 0.0868 0.53202 0.76707 0.0
H449 H 0.97984 0.55788 0.80745 0.0
H450 H 0.94885 0.55141 0.7592 0.0
H451 H 0.95294 0.54358 0.70509 0.0
H452 H 0.0599 0.51789 0.66463 0.0
H453 H 0.08998 0.51875 0.71348 0.0
C454 C 0.05666 0.53592 0.76537 0.0
C455 C 0.03575 0.54585 0.79076 0.0
C456 C 0.03903 0.53235 0.73755 0.0
C457 C -0.00336 0.55035 0.78825 0.0
C458 C 0.9789 0.54678 0.76064 0.0
C459 C 0.98278 0.5378 0.70695 0.0
C460 C 0.00421 0.53114 0.6812 0.0
C461 C -6e-05 0.53858 0.73507 0.0
C462 C 0.04275 0.52327 0.68407 0.0
C463 C 0.06002 0.52388 0.71199 0.0
H464 H 0.96578 0.16726 0.09293 0.0
H465 H 0.07689 0.19163 0.12683 0.0
H466 H 0.06018 0.25913 0.13337 0.0
H467 H 0.01376 0.31086 0.13047 0.0
H468 H 0.90306 0.28707 0.09558 0.0
H469 H 0.91994 0.2196 0.08843 0.0
C470 C 0.98638 0.18734 0.10169 0.0
C471 C 0.02247 0.17436 0.1095 0.0
C472 C 0.97665 0.22615 0.1053 0.0
C473 C 0.04891 0.20083 0.12062 0.0
C474 C 0.03936 0.23943 0.12444 0.0
C475 C -0.00673 0.29092 0.12133 0.0
C476 C 0.95713 0.3039 0.11375 0.0
C477 C 0.00325 0.25233 0.11705 0.0
C478 C 0.93107 0.27779 0.10163 0.0
C479 C 0.94069 0.23921 0.09755 0.0
H480 H 0.52295 0.78843 0.11467 0.0
H481 H 0.40698 0.77344 0.08881 0.0
H482 H 0.41579 0.70391 0.08662 0.0
H483 H 0.45593 0.64734 0.09329 0.0
H484 H 0.57201 0.66247 0.11885 0.0
H485 H 0.56361 0.73204 0.11972 0.0
C486 C 0.49958 0.76998 0.10853 0.0
C487 C 0.46432 0.78612 0.10208 0.0
C488 C 0.50484 0.73006 0.10723 0.0
C489 C 0.43442 0.76179 0.09394 0.0
C490 C 0.43941 0.72201 0.09269 0.0
C491 C 0.47945 0.66583 0.09893 0.0
C492 C 0.51449 0.64966 0.10612 0.0
C493 C 0.47444 0.70583 0.09946 0.0
C494 C 0.5447 0.6741 0.11325 0.0
C495 C 0.53993 0.71392 0.11382 0.0
H496 H 0.43139 0.71654 0.35602 0.0
H497 H 0.52542 0.68816 0.4125 0.0
H498 H 0.55101 0.7527 0.40621 0.0
H499 H 0.54723 0.81716 0.38409 0.0
H500 H 0.45361 0.84475 0.32684 0.0
H501 H 0.42763 0.78072 0.33393 0.0
C502 C 0.45734 0.72455 0.36712 0.0
C503 C 0.47637 0.69756 0.38473 0.0
C504 C 0.47221 0.76159 0.36312 0.0
C505 C 0.51016 0.70835 0.39876 0.0
C506 C 0.52489 0.74527 0.39516 0.0
C507 C 0.52121 0.80913 0.37311 0.0
C508 C 0.50251 0.8358 0.35495 0.0
C509 C 0.50629 0.77208 0.37724 0.0
C510 C 0.46873 0.82487 0.34094 0.0
C511 C 0.45372 0.78821 0.345 0.0
H512 H 0.02931 0.29627 0.40109 0.0
H513 H 0.03797 0.28136 0.30596 0.0
H514 H -0.00016 0.2232 0.30868 0.0
H515 H 0.96394 0.17662 0.33786 0.0
H516 H 0.95575 0.19068 0.43305 0.0
H517 H -0.00661 0.24936 0.43039 0.0
C518 C 0.02311 0.28016 0.38096 0.0
C519 C 0.03666 0.29319 0.35336 0.0
C520 C 0.00089 0.24679 0.38262 0.0
C521 C 0.02806 0.27203 0.32751 0.0
C522 C 0.0061 0.2388 0.32901 0.0
C523 C 0.97005 0.19267 0.35803 0.0
C524 C 0.95682 0.17931 0.3856 0.0
C525 C 0.9922 0.22603 0.35641 0.0
C526 C 0.96544 0.20033 0.41151 0.0
C527 C 0.98711 0.23383 0.41003 0.0
H528 H 0.9614 0.68863 0.86096 0.0
H529 H 0.07613 0.70879 0.88814 0.0
H530 H 0.06411 0.77794 0.89031 0.0
H531 H 0.02116 0.83261 0.88395 0.0
H532 H 0.9063 0.81195 0.85723 0.0
H533 H 0.9183 0.74293 0.85555 0.0
C534 C 0.98387 0.70808 0.86734 0.0
C535 C 0.01969 0.69349 0.87426 0.0
C536 C 0.97671 0.74771 0.86867 0.0
C537 C 0.04832 0.7192 0.88267 0.0
C538 C 0.04146 0.75876 0.88391 0.0
C539 C -0.00131 0.81305 0.87782 0.0
C540 C 0.96287 0.82754 0.87066 0.0
C541 C 0.00577 0.77333 0.87689 0.0
C542 C 0.93411 0.80167 0.86285 0.0
C543 C 0.94096 0.76216 0.86184 0.0
H544 H 0.51194 0.32755 0.84266 0.0
H545 H 0.41249 0.28074 0.88363 0.0
H546 H 0.44237 0.21742 0.88597 0.0
H547 H 0.49673 0.17538 0.87591 0.0
H548 H 0.59493 0.22261 0.83328 0.0
H549 H 0.56553 0.28592 0.83226 0.0
C550 C 0.49671 0.30357 0.85218 0.0
C551 C 0.46002 0.30894 0.86302 0.0
C552 C 0.51391 0.26736 0.85323 0.0
C553 C 0.44071 0.27741 0.87506 0.0
C554 C 0.45783 0.24122 0.87647 0.0
C555 C 0.51181 0.1996 0.86659 0.0
C556 C 0.5481 0.19429 0.85481 0.0
C557 C 0.49444 0.23588 0.86561 0.0
C558 C 0.56702 0.22587 0.84249 0.0
C559 C 0.55022 0.26209 0.84188 0.0
H560 H 0.4424 0.22465 0.58135 0.0
H561 H 0.52254 0.19005 0.64828 0.0
H562 H 0.55296 0.25271 0.64571 0.0
H563 H 0.55642 0.31774 0.62509 0.0
H564 H 0.47589 0.35277 0.55863 0.0
H565 H 0.44636 0.28952 0.56025 0.0
C566 C 0.46646 0.23083 0.59542 0.0
C567 C 0.48004 0.20269 0.61502 0.0
C568 C 0.48395 0.26698 0.59383 0.0
C569 C 0.51139 0.21117 0.633 0.0
C570 C 0.52891 0.24701 0.63153 0.0
C571 C 0.53261 0.31144 0.61078 0.0
C572 C 0.51844 0.33996 0.59178 0.0
C573 C 0.51543 0.27514 0.61205 0.0
C574 C 0.48738 0.33137 0.57352 0.0
C575 C 0.47039 0.29521 0.57445 0.0
H576 H 0.97167 0.81773 0.58622 0.0
H577 H 0.08397 0.80483 0.62124 0.0
H578 H 0.07272 0.73649 0.6292 0.0
H579 H 0.03086 0.68069 0.627 0.0
H580 H 0.91878 0.69303 0.59154 0.0
H581 H 0.93013 0.76141 0.58304 0.0
C582 C -0.00626 0.79998 0.59551 0.0
C583 C 0.02858 0.81646 0.60318 0.0
C584 C 0.9871 0.76065 0.60007 0.0
C585 C 0.05689 0.79295 0.61512 0.0
C586 C 0.05047 0.75385 0.61975 0.0
C587 C 0.00884 0.6983 0.61746 0.0
C588 C 0.97396 0.68179 0.61004 0.0
C589 C 0.01563 0.73746 0.61247 0.0
C590 C 0.94588 0.70502 0.59748 0.0
C591 C 0.95234 0.74412 0.59261 0.0
H592 H 0.92304 0.93722 0.98038 0.0
H593 H -0.00697 0.00683 0.92366 0.0
H594 H 0.02621 0.03198 0.96716 0.0
H595 H 0.03535 0.03417 0.02119 0.0
H596 H 0.96532 0.96452 0.07787 0.0
H597 H 0.9322 0.93937 0.03438 0.0
C598 C 0.94553 0.95791 0.9775 0.0
C599 C 0.95551 0.97013 0.94881 0.0
C600 C 0.96453 0.97221 0.00257 0.0
C601 C 0.98475 0.99695 0.9455 0.0
C602 C 0.00377 0.01134 0.97036 0.0
C603 C 0.01288 0.01345 0.02406 0.0
C604 C 0.00286 0.00124 0.05276 0.0
C605 C -0.0061 -0.00086 -0.00102 0.0
C606 C 0.97364 0.97441 0.05605 0.0
C607 C 0.95465 0.96001 0.03119 0.0
H608 H 0.53948 0.98415 0.93043 0.0
H609 H 0.45357 0.06941 0.9457 0.0
H610 H 0.4309 0.03323 0.98847 0.0
H611 H 0.43668 0.97852 0.02237 0.0
H612 H 0.52271 0.89338 0.00705 0.0
H613 H 0.54411 0.92855 0.96341 0.0
C614 C 0.51568 0.99478 0.943 0.0
C615 C 0.49836 0.02954 0.93492 0.0
C616 C 0.50291 0.97398 0.96764 0.0
C617 C 0.46747 0.04278 0.95143 0.0
C618 C 0.45452 0.02216 0.97595 0.0
C619 C 0.46011 0.96761 0.00949 0.0
C620 C 0.47818 0.93346 0.01807 0.0
C621 C 0.47226 0.98792 0.9844 0.0
C622 C 0.50832 0.91962 0.001 0.0
C623 C 0.5206 0.93971 0.97603 0.0
H624 H 0.4313 0.02742 0.52318 0.0
H625 H 0.53789 0.08626 0.52964 0.0
H626 H 0.5581 0.05657 0.48308 0.0
H627 H 0.54533 0.01447 0.44037 0.0
H628 H 0.43872 0.95566 0.43396 0.0
H629 H 0.41864 0.98512 0.48062 0.0
C630 C 0.45904 0.03364 0.51452 0.0
C631 C 0.48304 0.05902 0.52992 0.0
C632 C 0.47039 0.01671 0.48764 0.0
C633 C 0.51884 0.06682 0.51828 0.0
C634 C 0.53041 0.04993 0.4916 0.0
C635 C 0.51763 0.00819 0.44909 0.0
C636 C 0.49355 0.98294 0.43363 0.0
C637 C 0.50634 0.025 0.47603 0.0
C638 C 0.45783 0.97501 0.44536 0.0
C639 C 0.44633 0.99178 0.47209 0.0
H640 H 0.08831 0.97769 0.49233 0.0
H641 H 0.98476 0.96638 0.54128 0.0
H642 H 0.9497 0.99226 0.49917 0.0
H643 H 0.94853 0.01881 0.44877 0.0
H644 H 0.05227 0.03266 0.40052 0.0
H645 H 0.0872 0.00495 0.44205 0.0
C646 C 0.05806 0.98077 0.49374 0.0
C647 C 0.03917 0.97008 0.51985 0.0
C648 C 0.03813 0.99612 0.4696 0.0
C649 C -1e-05 0.97453 0.52145 0.0
C650 C 0.97991 0.98925 0.49737 0.0
C651 C 0.97876 0.01558 0.44728 0.0
C652 C -0.00222 0.02764 0.42159 0.0
C653 C -0.0013 0.00021 0.47138 0.0
C654 C 0.03699 0.02365 0.4201 0.0
C655 C 0.05698 0.00779 0.44381 0.0
H656 H 0.53172 0.52606 0.00232 0.0
H657 H 0.4761 0.45979 0.07028 0.0
H658 H 0.43787 0.42781 0.03248 0.0
H659 H 0.42019 0.41867 0.98027 0.0
H660 H 0.47556 0.48507 0.91227 0.0
H661 H 0.5139 0.51702 0.95006 0.0
C662 C 0.51128 0.50459 0.00888 0.0
C663 C 0.50682 0.49533 0.03907 0.0
C664 C 0.4893 0.48636 0.98706 0.0
C665 C 0.48013 0.46749 0.04719 0.0
C666 C 0.45823 0.44916 0.0256 0.0
C667 C 0.44062 0.44014 0.97368 0.0
C668 C 0.44499 0.44945 0.9435 0.0
C669 C 0.46257 0.4584 -0.00451 0.0
C670 C 0.4716 0.47736 0.93537 0.0
C671 C 0.49357 0.49564 0.95695 0.0
H672 H 0.92314 0.48528 0.03444 0.0
H673 H 0.03585 0.44528 0.05155 0.0
H674 H 0.05806 0.47789 0.00693 0.0
H675 H 0.04518 0.51598 0.96243 0.0
H676 H 0.93217 0.55445 0.94441 0.0
H677 H 0.91036 0.52403 -0.00989 0.0
C678 C 0.95263 0.48391 0.02855 0.0
C679 C 0.97781 0.46287 0.04631 0.0
C680 C 0.9651 0.50222 0.00265 0.0
C681 C 0.01587 0.46119 0.03824 0.0
C682 C 0.02859 0.4798 0.01272 0.0
C683 C 0.01577 0.51786 0.96851 0.0
C684 C 0.99034 0.53744 0.95 0.0
C685 C 0.00339 0.50009 -0.00536 0.0
C686 C 0.95233 0.53946 0.95819 0.0
C687 C 0.93984 0.52212 0.98435 0.0
H688 H 0.95194 0.48782 0.5346 0.0
H689 H 0.04313 0.56916 0.52715 0.0
H690 H 0.06527 0.5365 0.48242 0.0
H691 H 0.05883 0.48502 0.44551 0.0
H692 H 0.96769 0.4036 0.45278 0.0
H693 H 0.94534 0.43638 0.49747 0.0
C694 C 0.97672 0.49837 0.52325 0.0
C695 C -0.00414 0.53086 0.53425 0.0
C696 C 0.98922 0.47957 0.49746 0.0
C697 C 0.02784 0.54421 0.51919 0.0
C698 C 0.04052 0.52558 0.49358 0.0
C699 C 0.03399 0.47447 0.45678 0.0
C700 C 0.01497 0.4419 0.4458 0.0
C701 C 0.02139 0.49331 0.4825 0.0
C702 C 0.98288 0.42862 0.46074 0.0
C703 C 0.9701 0.4473 0.48633 0.0
H704 H 0.50697 0.51618 0.55804 0.0
H705 H 0.58564 0.46851 0.49495 0.0
H706 H 0.55 0.49646 0.454 0.0
H707 H 0.49591 0.53297 0.43611 0.0
H708 H 0.41717 0.5808 0.49903 0.0
H709 H 0.45354 0.55401 0.54015 0.0
C710 C 0.51648 0.51207 0.53535 0.0
C711 C 0.54888 0.49022 0.52955 0.0
C712 C 0.49576 0.528 0.51191 0.0
C713 C 0.56079 0.48518 0.50003 0.0
C714 C 0.54038 0.50107 0.47659 0.0
C715 C 0.48661 0.53749 0.45881 0.0
C716 C 0.45377 0.55866 0.46451 0.0
C717 C 0.50768 0.52221 0.48228 0.0
C718 C 0.44231 0.56453 0.49405 0.0
C719 C 0.46309 0.54926 0.51757 0.0
loop_
_geom_bond_atom_site_label_1
_geom_bond_atom_site_label_2
_geom_bond_distance
_geom_bond_site_symmetry_2
_ccdc_geom_bond_type
C0 O1 1.160 . S
C0 O7 1.185 . S
O1 C0 1.160 . S
O2 Zn3 1.899 . S
O2 C10 1.284 . S
Zn3 O2 1.899 . S
Zn3 O4 2.032 . S
Zn3 O7 2.086 . S
Zn3 O12 1.977 . S
O4 Zn3 2.032 . S
O4 C8 1.278 . S
C5 O6 1.203 . S
C5 O12 1.267 . S
O6 C5 1.203 . S
O7 C0 1.185 . S
O7 Zn3 2.086 . S
C8 O4 1.278 . S
C8 O9 1.211 . S
O9 C8 1.211 . S
C10 O2 1.284 . S
C10 O11 1.273 . S
O11 C10 1.273 . S
O12 Zn3 1.977 . S
O12 C5 1.267 . S
C13 O14 1.160 . S
C13 O20 1.185 . S
O14 C13 1.160 . S
O15 Zn16 1.899 . S
O15 C23 1.284 . S
Zn16 O15 1.899 . S
Zn16 O17 2.032 . S
Zn16 O20 2.086 . S
Zn16 O25 1.977 . S
O17 Zn16 2.032 . S
O17 C21 1.278 . S
C18 O19 1.203 . S
C18 O25 1.267 . S
O19 C18 1.203 . S
O20 C13 1.185 . S
O20 Zn16 2.086 . S
C21 O17 1.278 . S
C21 O22 1.211 . S
O22 C21 1.211 . S
C23 O15 1.284 . S
C23 O24 1.273 . S
O24 C23 1.273 . S
O25 Zn16 1.977 . S
O25 C18 1.267 . S
C26 O27 1.160 . S
C26 O33 1.185 . S
O27 C26 1.160 . S
O28 Zn29 1.899 . S
O28 C36 1.284 . S
Zn29 O28 1.899 . S
Zn29 O30 2.032 . S
Zn29 O33 2.086 . S
Zn29 O38 1.977 . S
O30 Zn29 2.032 . S
O30 C34 1.278 . S
C31 O32 1.203 . S
C31 O38 1.267 . S
O32 C31 1.203 . S
O33 C26 1.185 . S
O33 Zn29 2.086 . S
C34 O30 1.278 . S
C34 O35 1.211 . S
O35 C34 1.211 . S
C36 O28 1.284 . S
C36 O37 1.273 . S
O37 C36 1.273 . S
O38 Zn29 1.977 . S
O38 C31 1.267 . S
C39 O40 1.160 . S
C39 O46 1.185 . S
O40 C39 1.160 . S
O41 Zn42 1.899 . S
O41 C49 1.284 . S
Zn42 O41 1.899 . S
Zn42 O43 2.032 . S
Zn42 O46 2.086 . S
Zn42 O51 1.977 . S
O43 Zn42 2.032 . S
O43 C47 1.278 . S
C44 O45 1.203 . S
C44 O51 1.267 . S
O45 C44 1.203 . S
O46 C39 1.185 . S
O46 Zn42 2.086 . S
C47 O43 1.278 . S
C47 O48 1.211 . S
O48 C47 1.211 . S
C49 O41 1.284 . S
C49 O50 1.273 . S
O50 C49 1.273 . S
O51 Zn42 1.977 . S
O51 C44 1.267 . S
C52 O53 1.160 . S
C52 O59 1.185 . S
O53 C52 1.160 . S
O54 Zn55 1.899 . S
O54 C62 1.284 . S
Zn55 O54 1.899 . S
Zn55 O56 2.032 . S
Zn55 O59 2.086 . S
Zn55 O64 1.977 . S
O56 Zn55 2.032 . S
O56 C60 1.278 . S
C57 O58 1.203 . S
C57 O64 1.267 . S
O58 C57 1.203 . S
O59 C52 1.185 . S
O59 Zn55 2.086 . S
C60 O56 1.278 . S
C60 O61 1.211 . S
O61 C60 1.211 . S
C62 O54 1.284 . S
C62 O63 1.273 . S
O63 C62 1.273 . S
O64 Zn55 1.977 . S
O64 C57 1.267 . S
C65 O66 1.160 . S
C65 O72 1.185 . S
O66 C65 1.160 . S
O67 Zn68 1.899 . S
O67 C75 1.284 . S
Zn68 O67 1.899 . S
Zn68 O69 2.032 . S
Zn68 O72 2.086 . S
Zn68 O77 1.977 . S
O69 Zn68 2.032 . S
O69 C73 1.278 . S
C70 O71 1.203 . S
C70 O77 1.267 . S
O71 C70 1.203 . S
O72 C65 1.185 . S
O72 Zn68 2.086 . S
C73 O69 1.278 . S
C73 O74 1.211 . S
O74 C73 1.211 . S
C75 O67 1.284 . S
C75 O76 1.273 . S
O76 C75 1.273 . S
O77 Zn68 1.977 . S
O77 C70 1.267 . S
C78 O79 1.160 . S
C78 O85 1.185 . S
O79 C78 1.160 . S
O80 Zn81 1.899 . S
O80 C88 1.284 . S
Zn81 O80 1.899 . S
Zn81 O82 2.032 . S
Zn81 O85 2.086 . S
Zn81 O90 1.977 . S
O82 Zn81 2.032 . S
O82 C86 1.278 . S
C83 O84 1.203 . S
C83 O90 1.267 . S
O84 C83 1.203 . S
O85 C78 1.185 . S
O85 Zn81 2.086 . S
C86 O82 1.278 . S
C86 O87 1.211 . S
O87 C86 1.211 . S
C88 O80 1.284 . S
C88 O89 1.273 . S
O89 C88 1.273 . S
O90 Zn81 1.977 . S
O90 C83 1.267 . S
C91 O92 1.160 . S
C91 O98 1.185 . S
O92 C91 1.160 . S
O93 Zn94 1.899 . S
O93 C101 1.284 . S
Zn94 O93 1.899 . S
Zn94 O95 2.032 . S
Zn94 O98 2.086 . S
Zn94 O103 1.977 . S
O95 Zn94 2.032 . S
O95 C99 1.278 . S
C96 O97 1.203 . S
C96 O103 1.267 . S
O97 C96 1.203 . S
O98 C91 1.185 . S
O98 Zn94 2.086 . S
C99 O95 1.278 . S
C99 O100 1.211 . S
O100 C99 1.211 . S
C101 O93 1.284 . S
C101 O102 1.273 . S
O102 C101 1.273 . S
O103 Zn94 1.977 . S
O103 C96 1.267 . S
C104 O105 1.160 . S
C104 O111 1.185 . S
O105 C104 1.160 . S
O106 Zn107 1.899 . S
O106 C114 1.284 . S
Zn107 O106 1.899 . S
Zn107 O108 2.032 . S
Zn107 O111 2.086 . S
Zn107 O116 1.977 . S
O108 Zn107 2.032 . S
O108 C112 1.278 . S
C109 O110 1.203 . S
C109 O116 1.267 . S
O110 C109 1.203 . S
O111 C104 1.185 . S
O111 Zn107 2.086 . S
C112 O108 1.278 . S
C112 O113 1.211 . S
O113 C112 1.211 . S
C114 O106 1.284 . S
C114 O115 1.273 . S
O115 C114 1.273 . S
O116 Zn107 1.977 . S
O116 C109 1.267 . S
C117 O118 1.160 . S
C117 O124 1.185 . S
O118 C117 1.160 . S
O119 Zn120 1.899 . S
O119 C127 1.284 . S
Zn120 O119 1.899 . S
Zn120 O121 2.032 . S
Zn120 O124 2.086 . S
Zn120 O129 1.977 . S
O121 Zn120 2.032 . S
O121 C125 1.278 . S
C122 O123 1.203 . S
C122 O129 1.267 . S
O123 C122 1.203 . S
O124 C117 1.185 . S
O124 Zn120 2.086 . S
C125 O121 1.278 . S
C125 O126 1.211 . S
O126 C125 1.211 . S
C127 O119 1.284 . S
C127 O128 1.273 . S
O128 C127 1.273 . S
O129 Zn120 1.977 . S
O129 C122 1.267 . S
C130 O131 1.160 . S
C130 O137 1.185 . S
O131 C130 1.160 . S
O132 Zn133 1.899 . S
O132 C140 1.284 . S
Zn133 O132 1.899 . S
Zn133 O134 2.032 . S
Zn133 O137 2.086 . S
Zn133 O142 1.977 . S
O134 Zn133 2.032 . S
O134 C138 1.278 . S
C135 O136 1.203 . S
C135 O142 1.267 . S
O136 C135 1.203 . S
O137 C130 1.185 . S
O137 Zn133 2.086 . S
C138 O134 1.278 . S
C138 O139 1.211 . S
O139 C138 1.211 . S
C140 O132 1.284 . S
C140 O141 1.273 . S
O141 C140 1.273 . S
O142 Zn133 1.977 . S
O142 C135 1.267 . S
C143 O144 1.160 . S
C143 O150 1.185 . S
O144 C143 1.160 . S
O145 Zn146 1.899 . S
O145 C153 1.284 . S
Zn146 O145 1.899 . S
Zn146 O147 2.032 . S
Zn146 O150 2.086 . S
Zn146 O155 1.977 . S
O147 Zn146 2.032 . S
O147 C151 1.278 . S
C148 O149 1.203 . S
C148 O155 1.267 . S
O149 C148 1.203 . S
O150 C143 1.185 . S
O150 Zn146 2.086 . S
C151 O147 1.278 . S
C151 O152 1.211 . S
O152 C151 1.211 . S
C153 O145 1.284 . S
C153 O154 1.273 . S
O154 C153 1.273 . S
O155 Zn146 1.977 . S
O155 C148 1.267 . S
C156 O157 1.160 . S
C156 O163 1.185 . S
O157 C156 1.160 . S
O158 Zn159 1.899 . S
O158 C166 1.284 . S
Zn159 O158 1.899 . S
Zn159 O160 2.032 . S
Zn159 O163 2.086 . S
Zn159 O168 1.977 . S
O160 Zn159 2.032 . S
O160 C164 1.278 . S
C161 O162 1.203 . S
C161 O168 1.267 . S
O162 C161 1.203 . S
O163 C156 1.185 . S
O163 Zn159 2.086 . S
C164 O160 1.278 . S
C164 O165 1.211 . S
O165 C164 1.211 . S
C166 O158 1.284 . S
C166 O167 1.273 . S
O167 C166 1.273 . S
O168 Zn159 1.977 . S
O168 C161 1.267 . S
C169 O170 1.160 . S
C169 O176 1.185 . S
O170 C169 1.160 . S
O171 Zn172 1.899 . S
O171 C179 1.284 . S
Zn172 O171 1.899 . S
Zn172 O173 2.032 . S
Zn172 O176 2.086 . S
Zn172 O181 1.977 . S
O173 Zn172 2.032 . S
O173 C177 1.278 . S
C174 O175 1.203 . S
C174 O181 1.267 . S
O175 C174 1.203 . S
O176 C169 1.185 . S
O176 Zn172 2.086 . S
C177 O173 1.278 . S
C177 O178 1.211 . S
O178 C177 1.211 . S
C179 O171 1.284 . S
C179 O180 1.273 . S
O180 C179 1.273 . S
O181 Zn172 1.977 . S
O181 C174 1.267 . S
C182 O183 1.160 . S
C182 O189 1.185 . S
O183 C182 1.160 . S
O184 Zn185 1.899 . S
O184 C192 1.284 . S
Zn185 O184 1.899 . S
Zn185 O186 2.032 . S
Zn185 O189 2.086 . S
Zn185 O194 1.977 . S
O186 Zn185 2.032 . S
O186 C190 1.278 . S
C187 O188 1.203 . S
C187 O194 1.267 . S
O188 C187 1.203 . S
O189 C182 1.185 . S
O189 Zn185 2.086 . S
C190 O186 1.278 . S
C190 O191 1.211 . S
O191 C190 1.211 . S
C192 O184 1.284 . S
C192 O193 1.273 . S
O193 C192 1.273 . S
O194 Zn185 1.977 . S
O194 C187 1.267 . S
C195 O196 1.160 . S
C195 O202 1.185 . S
O196 C195 1.160 . S
O197 Zn198 1.899 . S
O197 C205 1.284 . S
Zn198 O197 1.899 . S
Zn198 O199 2.032 . S
Zn198 O202 2.086 . S
Zn198 O207 1.977 . S
O199 Zn198 2.032 . S
O199 C203 1.278 . S
C200 O201 1.203 . S
C200 O207 1.267 . S
O201 C200 1.203 . S
O202 C195 1.185 . S
O202 Zn198 2.086 . S
C203 O199 1.278 . S
C203 O204 1.211 . S
O204 C203 1.211 . S
C205 O197 1.284 . S
C205 O206 1.273 . S
O206 C205 1.273 . S
O207 Zn198 1.977 . S
O207 C200 1.267 . S
H208 C214 0.930 . S
H209 C217 0.930 . S
H210 C218 0.930 . S
H211 C219 0.930 . S
H212 C222 0.930 . S
H213 C223 0.930 . S
C214 H208 0.930 . S
C214 C215 1.355 1_545 S
C214 C216 1.415 . S
C215 C214 1.355 1_565 S
C215 C217 1.419 . S
C216 C214 1.415 . S
C216 C221 1.425 1_545 S
C216 C223 1.409 . S
C217 H209 0.930 . S
C217 C215 1.419 . S
C217 C218 1.362 . S
C218 H210 0.930 . S
C218 C217 1.362 . S
C218 C221 1.409 . S
C219 H211 0.930 . S
C219 C220 1.355 1_565 S
C219 C221 1.415 . S
C220 C219 1.355 1_545 S
C220 C222 1.419 . S
C221 C216 1.425 1_565 S
C221 C218 1.409 . S
C221 C219 1.415 . S
C222 H212 0.930 . S
C222 C220 1.419 . S
C222 C223 1.362 . S
C223 H213 0.930 . S
C223 C216 1.409 . S
C223 C222 1.362 . S
H224 C230 0.930 . S
H225 C233 0.930 . S
H226 C234 0.930 . S
H227 C235 0.930 . S
H228 C238 0.930 . S
H229 C239 0.930 . S
C230 H224 0.930 . S
C230 C231 1.355 . S
C230 C232 1.415 . S
C231 C230 1.355 . S
C231 C233 1.419 1_565 S
C232 C230 1.415 . S
C232 C237 1.425 1_565 S
C232 C239 1.409 . S
C233 H225 0.930 . S
C233 C231 1.419 1_545 S
C233 C234 1.362 . S
C234 H226 0.930 . S
C234 C233 1.362 . S
C234 C237 1.409 . S
C235 H227 0.930 . S
C235 C236 1.355 . S
C235 C237 1.415 . S
C236 C235 1.355 . S
C236 C238 1.419 1_545 S
C237 C232 1.425 1_545 S
C237 C234 1.409 . S
C237 C235 1.415 . S
C238 H228 0.930 . S
C238 C236 1.419 1_565 S
C238 C239 1.362 . S
C239 H229 0.930 . S
C239 C232 1.409 . S
C239 C238 1.362 . S
H240 C246 0.930 . S
H241 C249 0.930 . S
H242 C250 0.930 . S
H243 C251 0.930 . S
H244 C254 0.930 . S
H245 C255 0.930 . S
C246 H240 0.930 . S
C246 C247 1.355 . S
C246 C248 1.415 . S
C247 C246 1.355 . S
C247 C249 1.419 1_565 S
C248 C246 1.415 . S
C248 C253 1.425 1_565 S
C248 C255 1.409 . S
C249 H241 0.930 . S
C249 C247 1.419 1_545 S
C249 C250 1.362 . S
C250 H242 0.930 . S
C250 C249 1.362 . S
C250 C253 1.409 . S
C251 H243 0.930 . S
C251 C252 1.355 . S
C251 C253 1.415 . S
C252 C251 1.355 . S
C252 C254 1.419 1_545 S
C253 C248 1.425 1_545 S
C253 C250 1.409 . S
C253 C251 1.415 . S
C254 H244 0.930 . S
C254 C252 1.419 1_565 S
C254 C255 1.362 . S
C255 H245 0.930 . S
C255 C248 1.409 . S
C255 C254 1.362 . S
H256 C262 0.930 1_545 S
H257 C265 0.930 . S
H258 C266 0.930 . S
H259 C267 0.930 1_565 S
H260 C270 0.930 . S
H261 C271 0.930 . S
C262 H256 0.930 1_565 S
C262 C263 1.355 . S
C262 C264 1.415 1_565 S
C263 C262 1.355 . S
C263 C265 1.419 . S
C264 C262 1.415 1_545 S
C264 C269 1.425 1_545 S
C264 C271 1.409 . S
C265 H257 0.930 . S
C265 C263 1.419 . S
C265 C266 1.362 . S
C266 H258 0.930 . S
C266 C265 1.362 . S
C266 C269 1.409 . S
C267 H259 0.930 1_545 S
C267 C268 1.355 . S
C267 C269 1.415 1_545 S
C268 C267 1.355 . S
C268 C270 1.419 . S
C269 C264 1.425 1_565 S
C269 C266 1.409 . S
C269 C267 1.415 1_565 S
C270 H260 0.930 . S
C270 C268 1.419 . S
C270 C271 1.362 . S
C271 H261 0.930 . S
C271 C264 1.409 . S
C271 C270 1.362 . S
H272 C278 0.930 . S
H273 C281 0.930 . S
H274 C282 0.930 . S
H275 C283 0.930 . S
H276 C286 0.930 . S
H277 C287 0.930 . S
C278 H272 0.930 . S
C278 C279 1.355 . S
C278 C280 1.415 . S
C279 C278 1.355 . S
C279 C281 1.419 . S
C280 C278 1.415 . S
C280 C285 1.425 . S
C280 C287 1.409 . S
C281 H273 0.930 . S
C281 C279 1.419 . S
C281 C282 1.362 . S
C282 H274 0.930 . S
C282 C281 1.362 . S
C282 C285 1.409 . S
C283 H275 0.930 . S
C283 C284 1.355 . S
C283 C285 1.415 . S
C284 C283 1.355 . S
C284 C286 1.419 . S
C285 C280 1.425 . S
C285 C282 1.409 . S
C285 C283 1.415 . S
C286 H276 0.930 . S
C286 C284 1.419 . S
C286 C287 1.362 . S
C287 H277 0.930 . S
C287 C280 1.409 . S
C287 C286 1.362 . S
H288 C294 0.930 . S
H289 C297 0.930 . S
H290 C298 0.930 . S
H291 C299 0.930 . S
H292 C302 0.930 . S
H293 C303 0.930 . S
C294 H288 0.930 . S
C294 C295 1.355 . S
C294 C296 1.415 . S
C295 C294 1.355 . S
C295 C297 1.419 . S
C296 C294 1.415 . S
C296 C301 1.425 . S
C296 C303 1.409 . S
C297 H289 0.930 . S
C297 C295 1.419 . S
C297 C298 1.362 . S
C298 H290 0.930 . S
C298 C297 1.362 . S
C298 C301 1.409 . S
C299 H291 0.930 . S
C299 C300 1.355 . S
C299 C301 1.415 . S
C300 C299 1.355 . S
C300 C302 1.419 . S
C301 C296 1.425 . S
C301 C298 1.409 . S
C301 C299 1.415 . S
C302 H292 0.930 . S
C302 C300 1.419 . S
C302 C303 1.362 . S
C303 H293 0.930 . S
C303 C296 1.409 . S
C303 C302 1.362 . S
H304 C310 0.930 . S
H305 C313 0.930 . S
H306 C314 0.930 . S
H307 C315 0.930 . S
H308 C318 0.930 . S
H309 C319 0.930 . S
C310 H304 0.930 . S
C310 C311 1.355 . S
C310 C312 1.415 . S
C311 C310 1.355 . S
C311 C313 1.419 . S
C312 C310 1.415 . S
C312 C317 1.425 . S
C312 C319 1.409 . S
C313 H305 0.930 . S
C313 C311 1.419 . S
C313 C314 1.362 . S
C314 H306 0.930 . S
C314 C313 1.362 . S
C314 C317 1.409 . S
C315 H307 0.930 . S
C315 C316 1.355 . S
C315 C317 1.415 . S
C316 C315 1.355 . S
C316 C318 1.419 . S
C317 C312 1.425 . S
C317 C314 1.409 . S
C317 C315 1.415 . S
C318 H308 0.930 . S
C318 C316 1.419 . S
C318 C319 1.362 . S
C319 H309 0.930 . S
C319 C312 1.409 . S
C319 C318 1.362 . S
H320 C326 0.930 . S
H321 C329 0.930 . S
H322 C330 0.930 . S
H323 C331 0.930 . S
H324 C334 0.930 . S
H325 C335 0.930 . S
C326 H320 0.930 . S
C326 C327 1.355 . S
C326 C328 1.415 . S
C327 C326 1.355 . S
C327 C329 1.419 . S
C328 C326 1.415 . S
C328 C333 1.425 . S
C328 C335 1.409 . S
C329 H321 0.930 . S
C329 C327 1.419 . S
C329 C330 1.362 . S
C330 H322 0.930 . S
C330 C329 1.362 . S
C330 C333 1.409 . S
C331 H323 0.930 . S
C331 C332 1.355 . S
C331 C333 1.415 . S
C332 C331 1.355 . S
C332 C334 1.419 . S
C333 C328 1.425 . S
C333 C330 1.409 . S
C333 C331 1.415 . S
C334 H324 0.930 . S
C334 C332 1.419 . S
C334 C335 1.362 . S
C335 H325 0.930 . S
C335 C328 1.409 . S
C335 C334 1.362 . S
H336 C342 0.930 1_565 S
H337 C345 0.931 . S
H338 C346 0.930 . S
H339 C347 0.930 . S
H340 C350 0.931 1_565 S
H341 C351 0.930 . S
C342 H336 0.930 1_545 S
C342 C343 1.355 . S
C342 C344 1.415 . S
C343 C342 1.355 . S
C343 C345 1.419 . S
C344 C342 1.415 . S
C344 C349 1.425 1_655 S
C344 C351 1.409 1_545 S
C345 H337 0.931 . S
C345 C343 1.419 . S
C345 C346 1.362 1_655 S
C346 H338 0.930 . S
C346 C345 1.362 1_455 S
C346 C349 1.409 . S
C347 H339 0.930 . S
C347 C348 1.355 . S
C347 C349 1.415 . S
C348 C347 1.355 . S
C348 C350 1.419 . S
C349 C344 1.425 1_455 S
C349 C346 1.409 . S
C349 C347 1.415 . S
C350 H340 0.931 1_545 S
C350 C348 1.419 . S
C350 C351 1.362 1_445 S
C351 H341 0.930 . S
C351 C344 1.409 1_565 S
C351 C350 1.362 1_665 S
H352 C358 0.930 1_545 S
H353 C361 0.930 . S
H354 C362 0.930 . S
H355 C363 0.930 . S
H356 C366 0.930 1_545 S
H357 C367 0.930 . S
C358 H352 0.930 1_565 S
C358 C359 1.355 . S
C358 C360 1.415 . S
C359 C358 1.355 . S
C359 C361 1.419 . S
C360 C358 1.415 . S
C360 C365 1.425 . S
C360 C367 1.409 1_565 S
C361 H353 0.930 . S
C361 C359 1.419 . S
C361 C362 1.362 . S
C362 H354 0.930 . S
C362 C361 1.362 . S
C362 C365 1.409 . S
C363 H355 0.930 . S
C363 C364 1.355 . S
C363 C365 1.415 . S
C364 C363 1.355 . S
C364 C366 1.419 . S
C365 C360 1.425 . S
C365 C362 1.409 . S
C365 C363 1.415 . S
C366 H356 0.930 1_565 S
C366 C364 1.419 . S
C366 C367 1.362 1_565 S
C367 H357 0.930 . S
C367 C360 1.409 1_545 S
C367 C366 1.362 1_545 S
H368 C374 0.930 . S
H369 C377 0.930 . S
H370 C378 0.930 . S
H371 C379 0.930 . S
H372 C382 0.930 . S
H373 C383 0.930 . S
C374 H368 0.930 . S
C374 C375 1.355 . S
C374 C376 1.415 . S
C375 C374 1.355 . S
C375 C377 1.419 1_455 S
C376 C374 1.415 . S
C376 C381 1.425 1_455 S
C376 C383 1.409 . S
C377 H369 0.930 . S
C377 C375 1.419 1_655 S
C377 C378 1.362 . S
C378 H370 0.930 . S
C378 C377 1.362 . S
C378 C381 1.409 . S
C379 H371 0.930 . S
C379 C380 1.355 . S
C379 C381 1.415 . S
C380 C379 1.355 . S
C380 C382 1.419 1_655 S
C381 C376 1.425 1_655 S
C381 C378 1.409 . S
C381 C379 1.415 . S
C382 H372 0.930 . S
C382 C380 1.419 1_455 S
C382 C383 1.362 . S
C383 H373 0.930 . S
C383 C376 1.409 . S
C383 C382 1.362 . S
H384 C390 0.930 . S
H385 C393 0.930 . S
H386 C394 0.930 . S
H387 C395 0.930 . S
H388 C398 0.930 . S
H389 C399 0.930 . S
C390 H384 0.930 . S
C390 C391 1.355 . S
C390 C392 1.415 . S
C391 C390 1.355 . S
C391 C393 1.419 . S
C392 C390 1.415 . S
C392 C397 1.425 . S
C392 C399 1.409 . S
C393 H385 0.930 . S
C393 C391 1.419 . S
C393 C394 1.362 . S
C394 H386 0.930 . S
C394 C393 1.362 . S
C394 C397 1.409 . S
C395 H387 0.930 . S
C395 C396 1.355 . S
C395 C397 1.415 . S
C396 C395 1.355 . S
C396 C398 1.419 . S
C397 C392 1.425 . S
C397 C394 1.409 . S
C397 C395 1.415 . S
C398 H388 0.930 . S
C398 C396 1.419 . S
C398 C399 1.362 . S
C399 H389 0.930 . S
C399 C392 1.409 . S
C399 C398 1.362 . S
H400 C406 0.930 . S
H401 C409 0.930 . S
H402 C410 0.930 . S
H403 C411 0.930 . S
H404 C414 0.930 . S
H405 C415 0.930 . S
C406 H400 0.930 . S
C406 C407 1.355 . S
C406 C408 1.415 . S
C407 C406 1.355 . S
C407 C409 1.419 . S
C408 C406 1.415 . S
C408 C413 1.425 . S
C408 C415 1.409 . S
C409 H401 0.930 . S
C409 C407 1.419 . S
C409 C410 1.362 . S
C410 H402 0.930 . S
C410 C409 1.362 . S
C410 C413 1.409 . S
C411 H403 0.930 . S
C411 C412 1.355 . S
C411 C413 1.415 . S
C412 C411 1.355 . S
C412 C414 1.419 . S
C413 C408 1.425 . S
C413 C410 1.409 . S
C413 C411 1.415 . S
C414 H404 0.930 . S
C414 C412 1.419 . S
C414 C415 1.362 . S
C415 H405 0.930 . S
C415 C408 1.409 . S
C415 C414 1.362 . S
H416 C422 0.930 . S
H417 C425 0.930 . S
H418 C426 0.930 . S
H419 C427 0.930 . S
H420 C430 0.930 . S
H421 C431 0.930 . S
C422 H416 0.930 . S
C422 C423 1.355 1_655 S
C422 C424 1.415 . S
C423 C422 1.355 1_455 S
C423 C425 1.419 . S
C424 C422 1.415 . S
C424 C429 1.425 1_655 S
C424 C431 1.409 . S
C425 H417 0.930 . S
C425 C423 1.419 . S
C425 C426 1.362 . S
C426 H418 0.930 . S
C426 C425 1.362 . S
C426 C429 1.409 . S
C427 H419 0.930 . S
C427 C428 1.355 1_455 S
C427 C429 1.415 . S
C428 C427 1.355 1_655 S
C428 C430 1.419 . S
C429 C424 1.425 1_455 S
C429 C426 1.409 . S
C429 C427 1.415 . S
C430 H420 0.930 . S
C430 C428 1.419 . S
C430 C431 1.362 . S
C431 H421 0.930 . S
C431 C424 1.409 . S
C431 C430 1.362 . S
H432 C438 0.930 . S
H433 C441 0.930 . S
H434 C442 0.930 . S
H435 C443 0.930 . S
H436 C446 0.930 . S
H437 C447 0.930 . S
C438 H432 0.930 . S
C438 C439 1.355 . S
C438 C440 1.415 . S
C439 C438 1.355 . S
C439 C441 1.419 . S
C440 C438 1.415 . S
C440 C445 1.425 . S
C440 C447 1.409 . S
C441 H433 0.930 . S
C441 C439 1.419 . S
C441 C442 1.362 . S
C442 H434 0.930 . S
C442 C441 1.362 . S
C442 C445 1.409 . S
C443 H435 0.930 . S
C443 C444 1.355 . S
C443 C445 1.415 . S
C444 C443 1.355 . S
C444 C446 1.419 . S
C445 C440 1.425 . S
C445 C442 1.409 . S
C445 C443 1.415 . S
C446 H436 0.930 . S
C446 C444 1.419 . S
C446 C447 1.362 . S
C447 H437 0.930 . S
C447 C440 1.409 . S
C447 C446 1.362 . S
H448 C454 0.930 . S
H449 C457 0.930 . S
H450 C458 0.930 . S
H451 C459 0.930 . S
H452 C462 0.930 . S
H453 C463 0.930 . S
C454 H448 0.930 . S
C454 C455 1.355 . S
C454 C456 1.415 . S
C455 C454 1.355 . S
C455 C457 1.419 . S
C456 C454 1.415 . S
C456 C461 1.425 1_455 S
C456 C463 1.409 . S
C457 H449 0.930 . S
C457 C455 1.419 . S
C457 C458 1.362 1_455 S
C458 H450 0.930 . S
C458 C457 1.362 1_655 S
C458 C461 1.409 . S
C459 H451 0.930 . S
C459 C460 1.355 . S
C459 C461 1.415 . S
C460 C459 1.355 . S
C460 C462 1.419 . S
C461 C456 1.425 1_655 S
C461 C458 1.409 . S
C461 C459 1.415 . S
C462 H452 0.930 . S
C462 C460 1.419 . S
C462 C463 1.362 1_655 S
C463 H453 0.930 . S
C463 C456 1.409 . S
C463 C462 1.362 1_455 S
H464 C470 0.930 1_655 S
H465 C473 0.930 . S
H466 C474 0.930 . S
H467 C475 0.930 1_455 S
H468 C478 0.930 . S
H469 C479 0.930 . S
C470 H464 0.930 1_455 S
C470 C471 1.355 . S
C470 C472 1.415 1_455 S
C471 C470 1.355 . S
C471 C473 1.419 . S
C472 C470 1.415 1_655 S
C472 C477 1.425 1_655 S
C472 C479 1.409 . S
C473 H465 0.930 . S
C473 C471 1.419 . S
C473 C474 1.362 . S
C474 H466 0.930 . S
C474 C473 1.362 . S
C474 C477 1.409 . S
C475 H467 0.930 1_655 S
C475 C476 1.355 . S
C475 C477 1.415 1_655 S
C476 C475 1.355 . S
C476 C478 1.419 . S
C477 C472 1.425 1_455 S
C477 C474 1.409 . S
C477 C475 1.415 1_455 S
C478 H468 0.930 . S
C478 C476 1.419 . S
C478 C479 1.362 . S
C479 H469 0.930 . S
C479 C472 1.409 . S
C479 C478 1.362 . S
H480 C486 0.930 . S
H481 C489 0.930 . S
H482 C490 0.930 . S
H483 C491 0.930 . S
H484 C494 0.930 . S
H485 C495 0.930 . S
C486 H480 0.930 . S
C486 C487 1.355 . S
C486 C488 1.415 . S
C487 C486 1.355 . S
C487 C489 1.419 . S
C488 C486 1.415 . S
C488 C493 1.425 . S
C488 C495 1.409 . S
C489 H481 0.930 . S
C489 C487 1.419 . S
C489 C490 1.362 . S
C490 H482 0.930 . S
C490 C489 1.362 . S
C490 C493 1.409 . S
C491 H483 0.930 . S
C491 C492 1.355 . S
C491 C493 1.415 . S
C492 C491 1.355 . S
C492 C494 1.419 . S
C493 C488 1.425 . S
C493 C490 1.409 . S
C493 C491 1.415 . S
C494 H484 0.930 . S
C494 C492 1.419 . S
C494 C495 1.362 . S
C495 H485 0.930 . S
C495 C488 1.409 . S
C495 C494 1.362 . S
H496 C502 0.930 . S
H497 C505 0.930 . S
H498 C506 0.930 . S
H499 C507 0.930 . S
H500 C510 0.930 . S
H501 C511 0.930 . S
C502 H496 0.930 . S
C502 C503 1.355 . S
C502 C504 1.415 . S
C503 C502 1.355 . S
C503 C505 1.419 . S
C504 C502 1.415 . S
C504 C509 1.425 . S
C504 C511 1.409 . S
C505 H497 0.930 . S
C505 C503 1.419 . S
C505 C506 1.362 . S
C506 H498 0.930 . S
C506 C505 1.362 . S
C506 C509 1.409 . S
C507 H499 0.930 . S
C507 C508 1.355 . S
C507 C509 1.415 . S
C508 C507 1.355 . S
C508 C510 1.419 . S
C509 C504 1.425 . S
C509 C506 1.409 . S
C509 C507 1.415 . S
C510 H500 0.930 . S
C510 C508 1.419 . S
C510 C511 1.362 . S
C511 H501 0.930 . S
C511 C504 1.409 . S
C511 C510 1.362 . S
H512 C518 0.930 . S
H513 C521 0.930 . S
H514 C522 0.930 . S
H515 C523 0.930 . S
H516 C526 0.930 . S
H517 C527 0.930 . S
C518 H512 0.930 . S
C518 C519 1.355 . S
C518 C520 1.415 . S
C519 C518 1.355 . S
C519 C521 1.419 1_455 S
C520 C518 1.415 . S
C520 C525 1.425 1_455 S
C520 C527 1.409 . S
C521 H513 0.930 . S
C521 C519 1.419 1_655 S
C521 C522 1.362 . S
C522 H514 0.930 . S
C522 C521 1.362 . S
C522 C525 1.409 . S
C523 H515 0.930 . S
C523 C524 1.355 . S
C523 C525 1.415 . S
C524 C523 1.355 . S
C524 C526 1.419 1_655 S
C525 C520 1.425 1_655 S
C525 C522 1.409 . S
C525 C523 1.415 . S
C526 H516 0.930 . S
C526 C524 1.419 1_455 S
C526 C527 1.362 . S
C527 H517 0.930 . S
C527 C520 1.409 . S
C527 C526 1.362 . S
H528 C534 0.930 . S
H529 C537 0.930 . S
H530 C538 0.930 . S
H531 C539 0.930 . S
H532 C542 0.930 . S
H533 C543 0.930 . S
C534 H528 0.930 . S
C534 C535 1.355 . S
C534 C536 1.415 1_455 S
C535 C534 1.355 . S
C535 C537 1.419 . S
C536 C534 1.415 1_655 S
C536 C541 1.425 1_655 S
C536 C543 1.409 . S
C537 H529 0.930 . S
C537 C535 1.419 . S
C537 C538 1.362 . S
C538 H530 0.930 . S
C538 C537 1.362 . S
C538 C541 1.409 . S
C539 H531 0.930 . S
C539 C540 1.355 . S
C539 C541 1.415 1_655 S
C540 C539 1.355 . S
C540 C542 1.419 . S
C541 C536 1.425 1_455 S
C541 C538 1.409 . S
C541 C539 1.415 1_455 S
C542 H532 0.930 . S
C542 C540 1.419 . S
C542 C543 1.362 . S
C543 H533 0.930 . S
C543 C536 1.409 . S
C543 C542 1.362 . S
H544 C550 0.930 . S
H545 C553 0.930 . S
H546 C554 0.930 . S
H547 C555 0.930 . S
H548 C558 0.930 . S
H549 C559 0.930 . S
C550 H544 0.930 . S
C550 C551 1.355 . S
C550 C552 1.415 . S
C551 C550 1.355 . S
C551 C553 1.419 . S
C552 C550 1.415 . S
C552 C557 1.425 . S
C552 C559 1.409 . S
C553 H545 0.930 . S
C553 C551 1.419 . S
C553 C554 1.362 . S
C554 H546 0.930 . S
C554 C553 1.362 . S
C554 C557 1.409 . S
C555 H547 0.930 . S
C555 C556 1.355 . S
C555 C557 1.415 . S
C556 C555 1.355 . S
C556 C558 1.419 . S
C557 C552 1.425 . S
C557 C554 1.409 . S
C557 C555 1.415 . S
C558 H548 0.930 . S
C558 C556 1.419 . S
C558 C559 1.362 . S
C559 H549 0.930 . S
C559 C552 1.409 . S
C559 C558 1.362 . S
H560 C566 0.930 . S
H561 C569 0.930 . S
H562 C570 0.930 . S
H563 C571 0.930 . S
H564 C574 0.930 . S
H565 C575 0.930 . S
C566 H560 0.930 . S
C566 C567 1.355 . S
C566 C568 1.415 . S
C567 C566 1.355 . S
C567 C569 1.419 . S
C568 C566 1.415 . S
C568 C573 1.425 . S
C568 C575 1.409 . S
C569 H561 0.930 . S
C569 C567 1.419 . S
C569 C570 1.362 . S
C570 H562 0.930 . S
C570 C569 1.362 . S
C570 C573 1.409 . S
C571 H563 0.930 . S
C571 C572 1.355 . S
C571 C573 1.415 . S
C572 C571 1.355 . S
C572 C574 1.419 . S
C573 C568 1.425 . S
C573 C570 1.409 . S
C573 C571 1.415 . S
C574 H564 0.930 . S
C574 C572 1.419 . S
C574 C575 1.362 . S
C575 H565 0.930 . S
C575 C568 1.409 . S
C575 C574 1.362 . S
H576 C582 0.930 1_655 S
H577 C585 0.930 . S
H578 C586 0.930 . S
H579 C587 0.930 1_455 S
H580 C590 0.930 . S
H581 C591 0.930 . S
C582 H576 0.930 1_455 S
C582 C583 1.355 . S
C582 C584 1.415 1_455 S
C583 C582 1.355 . S
C583 C585 1.419 . S
C584 C582 1.415 1_655 S
C584 C589 1.425 1_655 S
C584 C591 1.409 . S
C585 H577 0.930 . S
C585 C583 1.419 . S
C585 C586 1.362 . S
C586 H578 0.930 . S
C586 C585 1.362 . S
C586 C589 1.409 . S
C587 H579 0.930 1_655 S
C587 C588 1.355 . S
C587 C589 1.415 1_655 S
C588 C587 1.355 . S
C588 C590 1.419 . S
C589 C584 1.425 1_455 S
C589 C586 1.409 . S
C589 C587 1.415 1_455 S
C590 H580 0.930 . S
C590 C588 1.419 . S
C590 C591 1.362 . S
C591 H581 0.930 . S
C591 C584 1.409 . S
C591 C590 1.362 . S
H592 C598 0.930 . S
H593 C601 0.930 . S
H594 C602 0.930 . S
H595 C603 0.930 . S
H596 C606 0.930 . S
H597 C607 0.930 . S
C598 H592 0.930 . S
C598 C599 1.355 . S
C598 C600 1.413 . S
C599 C598 1.355 . S
C599 C601 1.418 1_665 S
C600 C598 1.413 . S
C600 C605 1.425 1_666 S
C600 C607 1.410 1_556 S
C601 H593 0.930 . S
C601 C599 1.418 1_445 S
C601 C602 1.363 . S
C602 H594 0.930 . S
C602 C601 1.363 . S
C602 C605 1.410 1_556 S
C603 H595 0.930 . S
C603 C604 1.355 . S
C603 C605 1.413 . S
C604 C603 1.355 . S
C604 C606 1.418 1_445 S
C605 C600 1.425 1_444 S
C605 C602 1.410 1_554 S
C605 C603 1.413 . S
C606 H596 0.930 . S
C606 C604 1.418 1_665 S
C606 C607 1.363 . S
C607 H597 0.930 . S
C607 C600 1.410 1_554 S
C607 C606 1.363 . S
H608 C614 0.930 . S
H609 C617 0.930 . S
H610 C618 0.930 1_554 S
H611 C619 0.930 . S
H612 C622 0.930 . S
H613 C623 0.930 1_556 S
C614 H608 0.930 . S
C614 C615 1.355 1_565 S
C614 C616 1.415 . S
C615 C614 1.355 1_545 S
C615 C617 1.419 . S
C616 C614 1.415 . S
C616 C621 1.425 1_566 S
C616 C623 1.409 1_556 S
C617 H609 0.930 . S
C617 C615 1.419 . S
C617 C618 1.362 . S
C618 H610 0.930 1_556 S
C618 C617 1.362 . S
C618 C621 1.409 1_556 S
C619 H611 0.930 . S
C619 C620 1.355 1_545 S
C619 C621 1.415 . S
C620 C619 1.355 1_565 S
C620 C622 1.419 . S
C621 C616 1.425 1_544 S
C621 C618 1.409 1_554 S
C621 C619 1.415 . S
C622 H612 0.930 . S
C622 C620 1.419 . S
C622 C623 1.362 . S
C623 H613 0.930 1_554 S
C623 C616 1.409 1_554 S
C623 C622 1.362 . S
H624 C630 0.930 . S
H625 C633 0.930 . S
H626 C634 0.930 . S
H627 C635 0.930 . S
H628 C638 0.930 . S
H629 C639 0.930 . S
C630 H624 0.930 . S
C630 C631 1.355 1_565 S
C630 C632 1.415 . S
C631 C630 1.355 1_545 S
C631 C633 1.419 . S
C632 C630 1.415 . S
C632 C637 1.425 1_565 S
C632 C639 1.409 . S
C633 H625 0.930 . S
C633 C631 1.419 . S
C633 C634 1.362 . S
C634 H626 0.930 . S
C634 C633 1.362 . S
C634 C637 1.409 . S
C635 H627 0.930 . S
C635 C636 1.355 1_545 S
C635 C637 1.415 . S
C636 C635 1.355 1_565 S
C636 C638 1.419 . S
C637 C632 1.425 1_545 S
C637 C634 1.409 . S
C637 C635 1.415 . S
C638 H628 0.930 . S
C638 C636 1.419 . S
C638 C639 1.362 . S
C639 H629 0.930 . S
C639 C632 1.409 . S
C639 C638 1.362 . S
H640 C646 0.930 . S
H641 C649 0.934 . S
H642 C650 0.930 . S
H643 C651 0.930 . S
H644 C654 0.934 . S
H645 C655 0.930 . S
C646 H640 0.930 . S
C646 C647 1.355 . S
C646 C648 1.415 . S
C647 C646 1.355 . S
C647 C649 1.406 1_465 S
C648 C646 1.415 . S
C648 C653 1.425 1_465 S
C648 C655 1.409 . S
C649 H641 0.934 . S
C649 C647 1.406 1_645 S
C649 C650 1.372 . S
C650 H642 0.930 . S
C650 C649 1.372 . S
C650 C653 1.409 . S
C651 H643 0.930 . S
C651 C652 1.355 . S
C651 C653 1.415 . S
C652 C651 1.355 . S
C652 C654 1.406 1_645 S
C653 C648 1.425 1_645 S
C653 C650 1.409 . S
C653 C651 1.415 . S
C654 H644 0.934 . S
C654 C652 1.406 1_465 S
C654 C655 1.372 . S
C655 H645 0.930 . S
C655 C648 1.409 . S
C655 C654 1.372 . S
H656 C662 0.930 . S
H657 C665 0.930 . S
H658 C666 0.930 1_556 S
H659 C667 0.930 . S
H660 C670 0.930 . S
H661 C671 0.930 1_554 S
C662 H656 0.930 . S
C662 C663 1.355 . S
C662 C664 1.415 . S
C663 C662 1.355 . S
C663 C665 1.419 . S
C664 C662 1.415 . S
C664 C669 1.425 1_554 S
C664 C671 1.409 1_554 S
C665 H657 0.930 . S
C665 C663 1.419 . S
C665 C666 1.362 . S
C666 H658 0.930 1_554 S
C666 C665 1.362 . S
C666 C669 1.409 1_554 S
C667 H659 0.930 . S
C667 C668 1.355 . S
C667 C669 1.415 . S
C668 C667 1.355 . S
C668 C670 1.419 . S
C669 C664 1.425 1_556 S
C669 C666 1.409 1_556 S
C669 C667 1.415 . S
C670 H660 0.930 . S
C670 C668 1.419 . S
C670 C671 1.362 . S
C671 H661 0.930 1_556 S
C671 C664 1.409 1_556 S
C671 C670 1.362 . S
H672 C678 0.930 . S
H673 C681 0.930 . S
H674 C682 0.930 . S
H675 C683 0.930 . S
H676 C686 0.930 . S
H677 C687 0.930 . S
C678 H672 0.930 . S
C678 C679 1.355 . S
C678 C680 1.411 1_554 S
C679 C678 1.355 . S
C679 C681 1.419 1_655 S
C680 C678 1.411 1_556 S
C680 C685 1.425 1_656 S
C680 C687 1.412 . S
C681 H673 0.930 . S
C681 C679 1.419 1_455 S
C681 C682 1.362 . S
C682 H674 0.930 . S
C682 C681 1.362 . S
C682 C685 1.412 . S
C683 H675 0.930 . S
C683 C684 1.355 . S
C683 C685 1.411 1_556 S
C684 C683 1.355 . S
C684 C686 1.419 1_455 S
C685 C680 1.425 1_454 S
C685 C682 1.412 . S
C685 C683 1.411 1_554 S
C686 H676 0.930 . S
C686 C684 1.419 1_655 S
C686 C687 1.362 . S
C687 H677 0.930 . S
C687 C680 1.412 . S
C687 C686 1.362 . S
H688 C694 0.930 . S
H689 C697 0.930 . S
H690 C698 0.930 . S
H691 C699 0.930 . S
H692 C702 0.930 . S
H693 C703 0.930 . S
C694 H688 0.930 . S
C694 C695 1.355 . S
C694 C696 1.415 . S
C695 C694 1.355 . S
C695 C697 1.419 1_655 S
C696 C694 1.415 . S
C696 C701 1.425 1_655 S
C696 C703 1.409 . S
C697 H689 0.930 . S
C697 C695 1.419 1_455 S
C697 C698 1.362 . S
C698 H690 0.930 . S
C698 C697 1.362 . S
C698 C701 1.409 . S
C699 H691 0.930 . S
C699 C700 1.355 . S
C699 C701 1.415 . S
C700 C699 1.355 . S
C700 C702 1.419 1_455 S
C701 C696 1.425 1_455 S
C701 C698 1.409 . S
C701 C699 1.415 . S
C702 H692 0.930 . S
C702 C700 1.419 1_655 S
C702 C703 1.362 . S
C703 H693 0.930 . S
C703 C696 1.409 . S
C703 C702 1.362 . S
H704 C710 0.930 . S
H705 C713 0.930 . S
H706 C714 0.930 . S
H707 C715 0.930 . S
H708 C718 0.930 . S
H709 C719 0.930 . S
C710 H704 0.930 . S
C710 C711 1.355 . S
C710 C712 1.415 . S
C711 C710 1.355 . S
C711 C713 1.419 . S
C712 C710 1.415 . S
C712 C717 1.425 . S
C712 C719 1.409 . S
C713 H705 0.930 . S
C713 C711 1.419 . S
C713 C714 1.362 . S
C714 H706 0.930 . S
C714 C713 1.362 . S
C714 C717 1.409 . S
C715 H707 0.930 . S
C715 C716 1.355 . S
C715 C717 1.415 . S
C716 C715 1.355 . S
C716 C718 1.419 . S
C717 C712 1.425 . S
C717 C714 1.409 . S
C717 C715 1.415 . S
C718 H708 0.930 . S
C718 C716 1.419 . S
C718 C719 1.362 . S
C719 H709 0.930 . S
C719 C712 1.409 . S
C719 C718 1.362 . S
C215 C13 1.456 . S
C220 C0 1.472 . S
C231 C26 1.446 . S
C236 C39 1.426 . S
C247 C52 1.428 . S
C252 C65 1.442 . S
C263 C91 1.445 . S
C268 C78 1.478 . S
C279 C117 1.432 . S
C284 C104 1.438 . S
C295 C143 1.439 . S
C300 C130 1.479 . S
C311 C169 1.420 . S
C316 C156 1.459 . S
C327 C195 1.470 . S
C332 C182 1.420 . S
C343 C49 1.261 . S
C348 C10 1.272 . S
C359 C23 1.261 . S
C364 C36 1.272 . S
C375 C101 1.262 . S
C380 C62 1.271 . S
C391 C88 1.268 . S
C396 C75 1.271 . S
C407 C114 1.269 . S
C412 C153 1.263 . S
C423 C140 1.268 . S
C428 C127 1.271 . S
C439 C205 1.269 . S
C444 C166 1.270 . S
C455 C179 1.262 . S
C460 C192 1.275 . S
C471 C5 1.483 . S
C476 C122 1.492 . S
C487 C18 1.483 . S
C492 C109 1.492 . S
C503 C148 1.416 . S
C508 C31 1.449 . S
C519 C135 1.413 . S
C524 C44 1.441 . S
C535 C174 1.490 . S
C540 C57 1.458 . S
C551 C161 1.477 . S
C556 C70 1.437 . S
C567 C83 1.452 . S
C572 C200 1.417 . S
C583 C96 1.450 . S
C588 C187 1.486 . S
C599 C60 1.149 . S
C604 C8 1.149 . S
C615 C73 1.047 . S
C620 C21 1.047 . S
C631 C86 1.064 . S
C636 C34 1.064 . S
C647 C99 1.149 . S
C652 C47 1.149 . S
C663 C112 1.116 . S
C668 C164 1.116 . S
C679 C125 1.129 . S
C684 C177 1.129 . S
C695 C190 1.110 . S
C700 C138 1.110 . S
C711 C203 1.064 . S
C716 C151 1.064 . S
