# Generated by pormake.
# Topology cds-f, (5)-cn, num edge types: 1
# Building blocks:
#     Node 0, Type 0, BuildingBlock: BEQFEK_clean_sbu_0, # of connection points: 5
#     Node 1, Type 0, BuildingBlock: BEQFEK_clean_sbu_0, # of connection points: 5
#     Node 2, Type 0, BuildingBlock: BEQFEK_clean_sbu_0, # of connection points: 5
#     Node 3, Type 0, BuildingBlock: BEQFEK_clean_sbu_0, # of connection points: 5
#     Node 4, Type 0, BuildingBlock: BEQFEK_clean_sbu_0, # of connection points: 5
#     Node 5, Type 0, BuildingBlock: BEQFEK_clean_sbu_0, # of connection points: 5
#     Node 6, Type 0, BuildingBlock: BEQFEK_clean_sbu_0, # of connection points: 5
#     Node 7, Type 0, BuildingBlock: BEQFEK_clean_sbu_0, # of connection points: 5
#     Node 8, Type 0, BuildingBlock: BEQFEK_clean_sbu_0, # of connection points: 5
#     Node 9, Type 0, BuildingBlock: BEQFEK_clean_sbu_0, # of connection points: 5
#     Node 10, Type 0, BuildingBlock: BEQFEK_clean_sbu_0, # of connection points: 5
#     Node 11, Type 0, BuildingBlock: BEQFEK_clean_sbu_0, # of connection points: 5
#     Node 12, Type 0, BuildingBlock: BEQFEK_clean_sbu_0, # of connection points: 5
#     Node 13, Type 0, BuildingBlock: BEQFEK_clean_sbu_0, # of connection points: 5
#     Node 14, Type 0, BuildingBlock: BEQFEK_clean_sbu_0, # of connection points: 5
#     Node 15, Type 0, BuildingBlock: BEQFEK_clean_sbu_0, # of connection points: 5
#     Edge 16, Type (0, 0), BuildingBlock: ZUJKAS_clean_linker_0, # of connection points: 2
#     Edge 17, Type (0, 0), BuildingBlock: ZUJKAS_clean_linker_0, # of connection points: 2
#     Edge 18, Type (0, 0), BuildingBlock: ZUJKAS_clean_linker_0, # of connection points: 2
#     Edge 19, Type (0, 0), BuildingBlock: ZUJKAS_clean_linker_0, # of connection points: 2
#     Edge 20, Type (0, 0), BuildingBlock: ZUJKAS_clean_linker_0, # of connection points: 2
#     Edge 21, Type (0, 0), BuildingBlock: ZUJKAS_clean_linker_0, # of connection points: 2
#     Edge 22, Type (0, 0), BuildingBlock: ZUJKAS_clean_linker_0, # of connection points: 2
#     Edge 23, Type (0, 0), BuildingBlock: ZUJKAS_clean_linker_0, # of connection points: 2
#     Edge 24, Type (0, 0), BuildingBlock: ZUJKAS_clean_linker_0, # of connection points: 2
#     Edge 25, Type (0, 0), BuildingBlock: ZUJKAS_clean_linker_0, # of connection points: 2
#     Edge 26, Type (0, 0), BuildingBlock: ZUJKAS_clean_linker_0, # of connection points: 2
#     Edge 27, Type (0, 0), BuildingBlock: ZUJKAS_clean_linker_0, # of connection points: 2
#     Edge 28, Type (0, 0), BuildingBlock: ZUJKAS_clean_linker_0, # of connection points: 2
#     Edge 29, Type (0, 0), BuildingBlock: ZUJKAS_clean_linker_0, # of connection points: 2
#     Edge 30, Type (0, 0), BuildingBlock: ZUJKAS_clean_linker_0, # of connection points: 2
#     Edge 31, Type (0, 0), BuildingBlock: ZUJKAS_clean_linker_0, # of connection points: 2
#     Edge 32, Type (0, 0), BuildingBlock: ZUJKAS_clean_linker_0, # of connection points: 2
#     Edge 33, Type (0, 0), BuildingBlock: ZUJKAS_clean_linker_0, # of connection points: 2
#     Edge 34, Type (0, 0), BuildingBlock: ZUJKAS_clean_linker_0, # of connection points: 2
#     Edge 35, Type (0, 0), BuildingBlock: ZUJKAS_clean_linker_0, # of connection points: 2
#     Edge 36, Type (0, 0), BuildingBlock: ZUJKAS_clean_linker_0, # of connection points: 2
#     Edge 37, Type (0, 0), BuildingBlock: ZUJKAS_clean_linker_0, # of connection points: 2
#     Edge 38, Type (0, 0), BuildingBlock: ZUJKAS_clean_linker_0, # of connection points: 2
#     Edge 39, Type (0, 0), BuildingBlock: ZUJKAS_clean_linker_0, # of connection points: 2
#     Edge 40, Type (0, 0), BuildingBlock: ZUJKAS_clean_linker_0, # of connection points: 2
#     Edge 41, Type (0, 0), BuildingBlock: ZUJKAS_clean_linker_0, # of connection points: 2
#     Edge 42, Type (0, 0), BuildingBlock: ZUJKAS_clean_linker_0, # of connection points: 2
#     Edge 43, Type (0, 0), BuildingBlock: ZUJKAS_clean_linker_0, # of connection points: 2
#     Edge 44, Type (0, 0), BuildingBlock: ZUJKAS_clean_linker_0, # of connection points: 2
#     Edge 45, Type (0, 0), BuildingBlock: ZUJKAS_clean_linker_0, # of connection points: 2
#     Edge 46, Type (0, 0), BuildingBlock: ZUJKAS_clean_linker_0, # of connection points: 2
#     Edge 47, Type (0, 0), BuildingBlock: ZUJKAS_clean_linker_0, # of connection points: 2
#     Edge 48, Type (0, 0), BuildingBlock: ZUJKAS_clean_linker_0, # of connection points: 2
#     Edge 49, Type (0, 0), BuildingBlock: ZUJKAS_clean_linker_0, # of connection points: 2
#     Edge 50, Type (0, 0), BuildingBlock: ZUJKAS_clean_linker_0, # of connection points: 2
#     Edge 51, Type (0, 0), BuildingBlock: ZUJKAS_clean_linker_0, # of connection points: 2
#     Edge 52, Type (0, 0), BuildingBlock: ZUJKAS_clean_linker_0, # of connection points: 2
#     Edge 53, Type (0, 0), BuildingBlock: ZUJKAS_clean_linker_0, # of connection points: 2
#     Edge 54, Type (0, 0), BuildingBlock: ZUJKAS_clean_linker_0, # of connection points: 2
#     Edge 55, Type (0, 0), BuildingBlock: ZUJKAS_clean_linker_0, # of connection points: 2
# Relax obj value: 0.094
# Max RMSD: 0.129
# Mean RMSD: 0.097
data_MOF--net-cds-f--node1-BEQFEK_clean_sbu_0--edge1-ZUJKAS_clean_linker_0
_symmetry_space_group_name_H-M    P1
_symmetry_Int_Tables_number       1
_symmetry_cell_setting            triclinic
loop_
_symmetry_equiv_pos_as_xyz
'x, y, z'
_cell_length_a     47.862878
_cell_length_b     47.886658
_cell_length_c     79.193297
_cell_angle_alpha  90.091293
_cell_angle_beta   94.277579
_cell_angle_gamma 87.476481
loop_
_atom_site_label
_atom_site_type_symbol
_atom_site_fract_x
_atom_site_fract_y
_atom_site_fract_z
_atom_type_partial_charge
Co0 Co 0.28617 0.30086 0.13483 0.0
Co1 Co 0.22036 0.30739 0.13332 0.0
C2 C 0.25348 0.28255 0.16358 0.0
O3 O 0.27653 0.28581 0.15687 0.0
O4 O 0.22995 0.28957 0.15579 0.0
C5 C 0.34213 0.27389 0.13843 0.0
O6 O 0.33052 0.25417 0.14664 0.0
C7 C 0.16077 0.29308 0.13283 0.0
C8 C 0.14031 0.3289 0.11848 0.0
C9 C 0.13479 0.30417 0.12639 0.0
N10 N 0.18058 0.31049 0.12882 0.0
N11 N 0.16816 0.33193 0.12037 0.0
C12 C 0.1671 0.26563 0.14157 0.0
H13 H 0.18871 0.25779 0.1394 0.0
H14 H 0.15179 0.25004 0.137 0.0
H15 H 0.16571 0.26853 0.15539 0.0
C16 C 0.27286 0.27369 0.10179 0.0
N17 N 0.26495 0.28477 0.11642 0.0
N18 N 0.23739 0.28731 0.11574 0.0
C19 C 0.22689 0.27779 0.10063 0.0
C20 C 0.24904 0.2689 0.09126 0.0
C21 C 0.30273 0.2697 0.09759 0.0
H22 H 0.31262 0.29024 0.09779 0.0
H23 H 0.31433 0.25623 0.10736 0.0
H24 H 0.30446 0.25978 0.08501 0.0
O25 O 0.27924 0.34188 0.13466 0.0
O26 O 0.23287 0.34637 0.13395 0.0
H27 H 0.19016 0.30367 0.09422 0.0
H28 H 0.19249 0.27259 0.08151 0.0
C29 C 0.19662 0.28115 0.09441 0.0
H30 H 0.1837 0.27036 0.10321 0.0
H31 H 0.17877 0.34849 0.11568 0.0
O32 O 0.327 0.29459 0.13248 0.0
C33 C 0.25676 0.35714 0.13437 0.0
Co34 Co 0.678 0.27896 0.62333 0.0
Co35 Co 0.67628 0.21369 0.62087 0.0
C36 C 0.69698 0.24042 0.65281 0.0
O37 O 0.69282 0.26449 0.64597 0.0
O38 O 0.69172 0.2182 0.64451 0.0
C39 C 0.70693 0.33081 0.62533 0.0
O40 O 0.72985 0.31471 0.62756 0.0
C41 C 0.68856 0.15245 0.62181 0.0
C42 C 0.66312 0.1395 0.59891 0.0
C43 C 0.68143 0.12937 0.61205 0.0
N44 N 0.67511 0.17523 0.61467 0.0
N45 N 0.65977 0.16726 0.60109 0.0
C46 C 0.70911 0.15325 0.63697 0.0
H47 H 0.72139 0.17233 0.63659 0.0
H48 H 0.72356 0.13445 0.63757 0.0
H49 H 0.69746 0.15411 0.64857 0.0
C50 C 0.70767 0.27 0.59179 0.0
N51 N 0.696 0.26059 0.60557 0.0
N52 N 0.69718 0.23309 0.60544 0.0
C53 C 0.71081 0.22414 0.59202 0.0
C54 C 0.71756 0.24718 0.58274 0.0
C55 C 0.70608 0.29997 0.5863 0.0
H56 H 0.68753 0.31108 0.59116 0.0
H57 H 0.72527 0.31019 0.59141 0.0
H58 H 0.70472 0.30171 0.57229 0.0
O59 O 0.63727 0.27383 0.62063 0.0
O60 O 0.63637 0.22764 0.61919 0.0
H61 H 0.69966 0.1847 0.58144 0.0
H62 H 0.73609 0.19202 0.58046 0.0
C63 C 0.71792 0.19409 0.58837 0.0
H64 H 0.72306 0.18247 0.60037 0.0
H65 H 0.64732 0.18091 0.59315 0.0
O66 O 0.68328 0.31975 0.62315 0.0
C67 C 0.6237 0.25159 0.61925 0.0
Co68 Co 0.74747 0.70621 0.12489 0.0
Co69 Co 0.81295 0.69826 0.12498 0.0
C70 C 0.78628 0.72155 0.155 0.0
O71 O 0.76201 0.71961 0.14743 0.0
O72 O 0.80837 0.71416 0.14781 0.0
C73 C 0.69454 0.73545 0.12947 0.0
O74 O 0.71 0.75301 0.13836 0.0
C75 C 0.87326 0.70939 0.1271 0.0
C76 C 0.88929 0.67658 0.11022 0.0
C77 C 0.89754 0.69872 0.12041 0.0
N78 N 0.85174 0.69422 0.12109 0.0
N79 N 0.8615 0.67455 0.1111 0.0
C80 C 0.86995 0.73473 0.13797 0.0
H81 H 0.84871 0.74475 0.13538 0.0
H82 H 0.88608 0.74997 0.13569 0.0
H83 H 0.87234 0.72832 0.15147 0.0
C84 C 0.75541 0.73424 0.0925 0.0
N85 N 0.7657 0.72275 0.10731 0.0
N86 N 0.79322 0.72026 0.10756 0.0
C87 C 0.80134 0.73059 0.09297 0.0
C88 C 0.7777 0.73954 0.08284 0.0
C89 C 0.72481 0.73592 0.08687 0.0
H90 H 0.71541 0.71577 0.08953 0.0
H91 H 0.7142 0.75237 0.09428 0.0
H92 H 0.72102 0.74079 0.07319 0.0
O93 O 0.75293 0.66507 0.12395 0.0
O94 O 0.79924 0.65976 0.12428 0.0
H95 H 0.838 0.70852 0.08524 0.0
H96 H 0.83327 0.74377 0.07714 0.0
C97 C 0.83106 0.73023 0.08828 0.0
H98 H 0.84477 0.73769 0.09909 0.0
H99 H 0.8491 0.65991 0.10473 0.0
O100 O 0.70641 0.71473 0.1224 0.0
C101 C 0.77513 0.64943 0.12386 0.0
Co102 Co 0.27338 0.7894 0.61916 0.0
Co103 Co 0.27859 0.72359 0.61972 0.0
C104 C 0.25328 0.75456 0.58927 0.0
O105 O 0.25679 0.77797 0.59662 0.0
O106 O 0.2606 0.73158 0.59677 0.0
C107 C 0.24409 0.84343 0.61599 0.0
O108 O 0.22329 0.82938 0.609 0.0
C109 C 0.26644 0.66278 0.61893 0.0
C110 C 0.30413 0.64572 0.63391 0.0
C111 C 0.27968 0.63794 0.62504 0.0
N112 N 0.2824 0.68416 0.62408 0.0
N113 N 0.30479 0.6737 0.63307 0.0
C114 C 0.23981 0.66606 0.60783 0.0
H115 H 0.23862 0.68619 0.60094 0.0
H116 H 0.22175 0.66576 0.61582 0.0
H117 H 0.23811 0.64856 0.59865 0.0
C118 C 0.24859 0.77918 0.65162 0.0
N119 N 0.25831 0.77002 0.63698 0.0
N120 N 0.25951 0.7425 0.63692 0.0
C121 C 0.25006 0.73328 0.65142 0.0
C122 C 0.24303 0.75618 0.66132 0.0
C123 C 0.24849 0.80916 0.65705 0.0
H124 H 0.26779 0.8188 0.65337 0.0
H125 H 0.2302 0.82062 0.65045 0.0
H126 H 0.24727 0.81139 0.67092 0.0
O127 O 0.3145 0.78231 0.62002 0.0
O128 O 0.31766 0.73597 0.62021 0.0
H129 H 0.27026 0.69422 0.65918 0.0
H130 H 0.23582 0.7002 0.66683 0.0
C131 C 0.24872 0.70306 0.65594 0.0
H132 H 0.23947 0.69148 0.64492 0.0
H133 H 0.32077 0.68571 0.63849 0.0
O134 O 0.2667 0.83034 0.62132 0.0
C135 C 0.32915 0.75945 0.6203 0.0
Co136 Co 0.2109 0.71278 0.8858 0.0
Co137 Co 0.27638 0.70872 0.88401 0.0
C138 C 0.2506 0.7355 0.9134 0.0
O139 O 0.22608 0.73106 0.90684 0.0
O140 O 0.27235 0.72801 0.90591 0.0
C141 C 0.15567 0.74148 0.88383 0.0
O142 O 0.16896 0.76479 0.88287 0.0
C143 C 0.33692 0.7212 0.88251 0.0
C144 C 0.35174 0.68286 0.86972 0.0
C145 C 0.36075 0.70767 0.87677 0.0
N146 N 0.31489 0.70503 0.87891 0.0
N147 N 0.32399 0.68227 0.8712 0.0
C148 C 0.33534 0.74831 0.89188 0.0
H149 H 0.3164 0.74998 0.89906 0.0
H150 H 0.33419 0.76578 0.88263 0.0
H151 H 0.35435 0.75043 0.90062 0.0
C152 C 0.21451 0.73475 0.85091 0.0
N153 N 0.22634 0.72681 0.86624 0.0
N154 N 0.25383 0.72641 0.86591 0.0
C155 C 0.26032 0.73483 0.85051 0.0
C156 C 0.23565 0.7402 0.84043 0.0
C157 C 0.18395 0.73281 0.84563 0.0
H158 H 0.17494 0.71577 0.85264 0.0
H159 H 0.17283 0.75285 0.84853 0.0
H160 H 0.18049 0.72884 0.83184 0.0
O161 O 0.21896 0.67203 0.88741 0.0
O162 O 0.26512 0.66958 0.88628 0.0
H163 H 0.29863 0.71515 0.84341 0.0
H164 H 0.29021 0.74876 0.83349 0.0
C165 C 0.28964 0.73656 0.84535 0.0
H166 H 0.30271 0.74669 0.85553 0.0
H167 H 0.31127 0.66605 0.86714 0.0
O168 O 0.16953 0.7182 0.88478 0.0
C169 C 0.24203 0.65778 0.88743 0.0
Co170 Co 0.31005 0.28976 0.37274 0.0
Co171 Co 0.31787 0.22409 0.37336 0.0
C172 C 0.29288 0.25435 0.34251 0.0
O173 O 0.29574 0.27794 0.34978 0.0
O174 O 0.30013 0.23153 0.35022 0.0
C175 C 0.28497 0.34532 0.36588 0.0
O176 O 0.26972 0.33309 0.35378 0.0
C177 C 0.30641 0.16334 0.37311 0.0
C178 C 0.34634 0.14631 0.38563 0.0
C179 C 0.32078 0.13849 0.37819 0.0
N180 N 0.32286 0.18473 0.37742 0.0
N181 N 0.34659 0.17431 0.38496 0.0
C182 C 0.27829 0.16668 0.36356 0.0
H183 H 0.27548 0.18749 0.35744 0.0
H184 H 0.26171 0.16486 0.37252 0.0
H185 H 0.27572 0.15 0.3539 0.0
C186 C 0.28098 0.27806 0.40355 0.0
N187 N 0.29387 0.26941 0.38981 0.0
N188 N 0.2971 0.24197 0.39016 0.0
C189 C 0.28645 0.23228 0.4042 0.0
C190 C 0.2758 0.25485 0.41315 0.0
C191 C 0.27469 0.30811 0.40761 0.0
H192 H 0.26339 0.31852 0.39644 0.0
H193 H 0.2617 0.31038 0.4186 0.0
H194 H 0.29469 0.3187 0.41036 0.0
O195 O 0.35142 0.28409 0.37484 0.0
O196 O 0.35636 0.23787 0.37466 0.0
H197 H 0.31206 0.1953 0.40995 0.0
H198 H 0.28266 0.19955 0.42279 0.0
C199 C 0.28972 0.20245 0.40992 0.0
H200 H 0.27738 0.18926 0.40087 0.0
H201 H 0.36319 0.18635 0.38948 0.0
O202 O 0.30247 0.33063 0.37537 0.0
C203 C 0.36694 0.2618 0.37527 0.0
Co204 Co 0.75863 0.29891 0.87552 0.0
Co205 Co 0.69269 0.3047 0.87482 0.0
C206 C 0.72702 0.27909 0.90439 0.0
O207 O 0.74966 0.28246 0.8973 0.0
O208 O 0.70325 0.28677 0.89716 0.0
C209 C 0.81362 0.27103 0.87915 0.0
O210 O 0.80102 0.25168 0.88709 0.0
C211 C 0.63186 0.29268 0.87514 0.0
C212 C 0.61308 0.33036 0.86192 0.0
C213 C 0.6063 0.30606 0.86983 0.0
N214 N 0.65269 0.30845 0.87052 0.0
N215 N 0.64119 0.33079 0.86253 0.0
C216 C 0.63637 0.26614 0.88511 0.0
H217 H 0.65777 0.26439 0.89142 0.0
H218 H 0.63379 0.24813 0.87639 0.0
H219 H 0.62066 0.26501 0.89469 0.0
C220 C 0.74463 0.27277 0.84232 0.0
N221 N 0.73703 0.28356 0.85708 0.0
N222 N 0.70949 0.28522 0.8569 0.0
C223 C 0.69866 0.27511 0.84204 0.0
C224 C 0.72055 0.26697 0.83224 0.0
C225 C 0.7742 0.27165 0.83726 0.0
H226 H 0.78437 0.29129 0.84106 0.0
H227 H 0.78609 0.2541 0.84403 0.0
H228 H 0.77526 0.26874 0.82343 0.0
O229 O 0.7517 0.33989 0.87606 0.0
O230 O 0.70532 0.3437 0.8757 0.0
H231 H 0.65905 0.29551 0.83464 0.0
H232 H 0.66373 0.2609 0.82579 0.0
C233 C 0.66791 0.274 0.83719 0.0
H234 H 0.65728 0.26523 0.84782 0.0
H235 H 0.6526 0.34668 0.85774 0.0
O236 O 0.79934 0.29221 0.87311 0.0
C237 C 0.72904 0.35482 0.8761 0.0
Co238 Co 0.73388 0.78032 0.37504 0.0
Co239 Co 0.73176 0.71483 0.37254 0.0
C240 C 0.75453 0.74221 0.40414 0.0
O241 O 0.74962 0.76628 0.39745 0.0
O242 O 0.74923 0.71995 0.39586 0.0
C243 C 0.75945 0.83335 0.38121 0.0
O244 O 0.77923 0.81846 0.38992 0.0
C245 C 0.74205 0.65309 0.3742 0.0
C246 C 0.7124 0.64009 0.35319 0.0
C247 C 0.73174 0.62972 0.36575 0.0
N248 N 0.72949 0.67611 0.36676 0.0
N249 N 0.71182 0.66812 0.35425 0.0
C250 C 0.76081 0.65383 0.39015 0.0
H251 H 0.74953 0.6652 0.39997 0.0
H252 H 0.77964 0.6656 0.38786 0.0
H253 H 0.7672 0.63266 0.39502 0.0
C254 C 0.76173 0.77177 0.34327 0.0
N255 N 0.75096 0.76172 0.35714 0.0
N256 N 0.75101 0.73426 0.35624 0.0
C257 C 0.76242 0.72599 0.34188 0.0
C258 C 0.76937 0.74951 0.33311 0.0
C259 C 0.76304 0.80225 0.3394 0.0
H260 H 0.77663 0.81216 0.34944 0.0
H261 H 0.77164 0.80582 0.327 0.0
H262 H 0.74173 0.81236 0.33948 0.0
O263 O 0.69305 0.7751 0.37328 0.0
O264 O 0.69205 0.72891 0.37211 0.0
H265 H 0.74236 0.69113 0.33031 0.0
H266 H 0.77834 0.69347 0.32565 0.0
C267 C 0.76352 0.69645 0.33567 0.0
H268 H 0.77001 0.68205 0.34633 0.0
H269 H 0.69894 0.68186 0.34661 0.0
O270 O 0.73885 0.82113 0.37387 0.0
C271 C 0.67944 0.75285 0.37243 0.0
Co272 Co 0.71006 0.71051 0.87527 0.0
Co273 Co 0.77546 0.70484 0.87361 0.0
C274 C 0.74998 0.73055 0.90351 0.0
O275 O 0.72539 0.72686 0.89682 0.0
O276 O 0.77166 0.72315 0.89591 0.0
C277 C 0.65637 0.73771 0.88047 0.0
O278 O 0.67136 0.75582 0.88922 0.0
C279 C 0.83535 0.71786 0.874 0.0
C280 C 0.85102 0.68494 0.85706 0.0
C281 C 0.85926 0.70769 0.8667 0.0
N282 N 0.81396 0.70186 0.86881 0.0
N283 N 0.82356 0.6821 0.85881 0.0
C284 C 0.83236 0.74323 0.88486 0.0
H285 H 0.81114 0.75333 0.88237 0.0
H286 H 0.84855 0.75837 0.88252 0.0
H287 H 0.83488 0.73681 0.89836 0.0
C288 C 0.71421 0.73467 0.84142 0.0
N289 N 0.72619 0.72568 0.85645 0.0
N290 N 0.75362 0.72414 0.85581 0.0
C291 C 0.75991 0.73262 0.84035 0.0
C292 C 0.73513 0.7393 0.83067 0.0
C293 C 0.68325 0.73586 0.83693 0.0
H294 H 0.67506 0.71471 0.83829 0.0
H295 H 0.67282 0.74996 0.84589 0.0
H296 H 0.678 0.74361 0.82383 0.0
O297 O 0.71723 0.6695 0.87579 0.0
O298 O 0.76345 0.66578 0.87483 0.0
H299 H 0.79444 0.7079 0.83202 0.0
H300 H 0.78968 0.74163 0.82199 0.0
C301 C 0.78866 0.73025 0.8341 0.0
H302 H 0.80403 0.73883 0.84367 0.0
H303 H 0.81123 0.66684 0.85301 0.0
O304 O 0.66874 0.71733 0.87336 0.0
C305 C 0.73991 0.65462 0.87556 0.0
Co306 Co 0.32466 0.78929 0.37628 0.0
Co307 Co 0.32974 0.72341 0.37651 0.0
C308 C 0.30994 0.75502 0.34516 0.0
O309 O 0.3128 0.7783 0.35276 0.0
O310 O 0.31513 0.73186 0.3529 0.0
C311 C 0.29629 0.84307 0.37055 0.0
O312 O 0.27846 0.82887 0.36091 0.0
C313 C 0.31616 0.66312 0.3748 0.0
C314 C 0.35259 0.64464 0.39032 0.0
C315 C 0.3283 0.63781 0.3809 0.0
N316 N 0.33254 0.68386 0.38048 0.0
N317 N 0.35418 0.67257 0.38978 0.0
C318 C 0.29016 0.66744 0.36322 0.0
H319 H 0.28973 0.68797 0.35681 0.0
H320 H 0.27155 0.66695 0.37075 0.0
H321 H 0.28873 0.65049 0.35366 0.0
C322 C 0.29221 0.77835 0.40583 0.0
N323 N 0.30589 0.76942 0.39243 0.0
N324 N 0.30772 0.74191 0.39247 0.0
C325 C 0.29511 0.73246 0.40587 0.0
C326 C 0.28487 0.7552 0.4148 0.0
C327 C 0.28942 0.80839 0.41097 0.0
H328 H 0.30975 0.81836 0.41011 0.0
H329 H 0.27368 0.81944 0.40207 0.0
H330 H 0.28282 0.81075 0.42404 0.0
O331 O 0.36572 0.78218 0.37981 0.0
O332 O 0.36885 0.73583 0.37927 0.0
H333 H 0.31524 0.69353 0.41398 0.0
H334 H 0.28021 0.69914 0.42089 0.0
C335 C 0.29377 0.70223 0.41034 0.0
H336 H 0.28527 0.69062 0.39914 0.0
H337 H 0.37027 0.68396 0.39565 0.0
O338 O 0.31711 0.83017 0.37841 0.0
C339 C 0.38036 0.75929 0.38044 0.0
Co340 Co 0.25847 0.30104 0.88359 0.0
Co341 Co 0.19282 0.3104 0.88286 0.0
C342 C 0.22604 0.28219 0.91218 0.0
O343 O 0.24908 0.2847 0.90536 0.0
O344 O 0.20276 0.29095 0.90476 0.0
C345 C 0.31478 0.27575 0.88907 0.0
O346 O 0.30419 0.26091 0.90078 0.0
C347 C 0.13264 0.29717 0.88134 0.0
C348 C 0.11285 0.33833 0.87395 0.0
C349 C 0.10675 0.31125 0.87799 0.0
N350 N 0.15294 0.3152 0.87928 0.0
N351 N 0.1409 0.3397 0.87481 0.0
C352 C 0.13815 0.26764 0.88724 0.0
H353 H 0.15976 0.26459 0.89319 0.0
H354 H 0.13594 0.25342 0.8762 0.0
H355 H 0.12275 0.26202 0.89634 0.0
C356 C 0.24295 0.27676 0.85006 0.0
N357 N 0.23583 0.28713 0.86502 0.0
N358 N 0.20842 0.29145 0.86446 0.0
C359 C 0.19725 0.28434 0.84899 0.0
C360 C 0.2188 0.27478 0.83931 0.0
C361 C 0.27256 0.2705 0.84588 0.0
H362 H 0.28376 0.25788 0.85622 0.0
H363 H 0.27348 0.25886 0.8338 0.0
H364 H 0.2834 0.2904 0.84495 0.0
O365 O 0.25322 0.34238 0.88467 0.0
O366 O 0.20698 0.34852 0.88442 0.0
H367 H 0.16145 0.31276 0.84599 0.0
H368 H 0.16352 0.28783 0.82903 0.0
C369 C 0.1673 0.2908 0.84287 0.0
H370 H 0.15363 0.27701 0.84949 0.0
H371 H 0.15186 0.3575 0.87253 0.0
O372 O 0.29894 0.29327 0.8804 0.0
C373 C 0.23129 0.35839 0.88497 0.0
Co374 Co 0.7228 0.28048 0.37714 0.0
Co375 Co 0.71762 0.2152 0.37699 0.0
C376 C 0.74297 0.24473 0.40725 0.0
O377 O 0.73961 0.26829 0.39975 0.0
O378 O 0.73553 0.22227 0.3999 0.0
C379 C 0.75227 0.33199 0.37912 0.0
O380 O 0.77381 0.3161 0.38511 0.0
C381 C 0.73165 0.15389 0.37766 0.0
C382 C 0.69249 0.13835 0.36521 0.0
C383 C 0.71846 0.12958 0.37267 0.0
N384 N 0.7142 0.17595 0.37324 0.0
N385 N 0.69092 0.16642 0.36576 0.0
C386 C 0.75973 0.15609 0.3871 0.0
H387 H 0.76149 0.17667 0.39338 0.0
H388 H 0.77629 0.15392 0.37805 0.0
H389 H 0.76334 0.13908 0.39662 0.0
C390 C 0.74672 0.26741 0.34449 0.0
N391 N 0.73775 0.25934 0.35938 0.0
N392 N 0.73642 0.23194 0.35953 0.0
C393 C 0.74493 0.22167 0.34482 0.0
C394 C 0.75161 0.24378 0.33473 0.0
C395 C 0.74631 0.29729 0.33887 0.0
H396 H 0.7272 0.30858 0.34288 0.0
H397 H 0.76484 0.30738 0.34504 0.0
H398 H 0.74674 0.2992 0.32495 0.0
O399 O 0.68164 0.27689 0.37637 0.0
O400 O 0.67854 0.23082 0.37633 0.0
H401 H 0.72323 0.18469 0.33814 0.0
H402 H 0.75617 0.18723 0.32851 0.0
C403 C 0.74513 0.19138 0.34015 0.0
H404 H 0.75584 0.17884 0.35065 0.0
H405 H 0.67375 0.17911 0.36118 0.0
O406 O 0.72921 0.32086 0.37475 0.0
C407 C 0.66702 0.2553 0.37614 0.0
Co408 Co 0.78639 0.29376 0.12602 0.0
Co409 Co 0.72055 0.30132 0.12532 0.0
C410 C 0.75479 0.27819 0.15576 0.0
O411 O 0.77758 0.27997 0.14856 0.0
O412 O 0.73123 0.28564 0.14817 0.0
C413 C 0.84169 0.26601 0.1301 0.0
O414 O 0.82936 0.2469 0.13841 0.0
C415 C 0.65981 0.28952 0.12613 0.0
C416 C 0.64085 0.32657 0.11234 0.0
C417 C 0.63416 0.30252 0.12056 0.0
N418 N 0.68054 0.30523 0.12131 0.0
N419 N 0.66895 0.32725 0.11304 0.0
C420 C 0.66462 0.26333 0.13641 0.0
H421 H 0.66273 0.24501 0.12787 0.0
H422 H 0.64871 0.26215 0.14586 0.0
H423 H 0.68589 0.26222 0.14292 0.0
C424 C 0.77135 0.26594 0.09342 0.0
N425 N 0.76422 0.27708 0.10822 0.0
N426 N 0.7367 0.27982 0.10802 0.0
C427 C 0.72547 0.27028 0.09313 0.0
C428 C 0.74699 0.26133 0.0833 0.0
C429 C 0.80081 0.26414 0.08822 0.0
H430 H 0.81038 0.28468 0.09023 0.0
H431 H 0.81329 0.24863 0.09638 0.0
H432 H 0.80182 0.25795 0.07477 0.0
O433 O 0.78002 0.33489 0.12507 0.0
O434 O 0.73369 0.33992 0.12462 0.0
H435 H 0.68775 0.29422 0.08589 0.0
H436 H 0.69006 0.2603 0.07589 0.0
C437 C 0.69479 0.27199 0.0878 0.0
H438 H 0.68296 0.26318 0.09789 0.0
H439 H 0.68027 0.34297 0.108 0.0
O440 O 0.82708 0.28665 0.12361 0.0
C441 C 0.75767 0.35038 0.12455 0.0
Co442 Co 0.6839 0.77813 0.62053 0.0
Co443 Co 0.68145 0.71289 0.61791 0.0
C444 C 0.70351 0.73997 0.64971 0.0
O445 O 0.69943 0.76405 0.64292 0.0
O446 O 0.6976 0.71779 0.64151 0.0
C447 C 0.71067 0.83112 0.62474 0.0
O448 O 0.73355 0.8161 0.62944 0.0
C449 C 0.69476 0.6518 0.61882 0.0
C450 C 0.66626 0.63792 0.59749 0.0
C451 C 0.68652 0.62834 0.60975 0.0
N452 N 0.68009 0.67425 0.61212 0.0
N453 N 0.66292 0.66572 0.5995 0.0
C454 C 0.71721 0.65322 0.63294 0.0
H455 H 0.72858 0.67279 0.63195 0.0
H456 H 0.73221 0.63489 0.63274 0.0
H457 H 0.70736 0.65351 0.64519 0.0
C458 C 0.7143 0.76937 0.58942 0.0
N459 N 0.70183 0.75972 0.60282 0.0
N460 N 0.70188 0.73225 0.60212 0.0
C461 C 0.71502 0.72353 0.58844 0.0
C462 C 0.72323 0.74676 0.57991 0.0
C463 C 0.71686 0.79972 0.58563 0.0
H464 H 0.69651 0.81117 0.58703 0.0
H465 H 0.7327 0.80842 0.59487 0.0
H466 H 0.72366 0.8031 0.57274 0.0
O467 O 0.64308 0.77279 0.61825 0.0
O468 O 0.64166 0.72668 0.61662 0.0
H469 H 0.69613 0.68754 0.57752 0.0
H470 H 0.73191 0.69065 0.57271 0.0
C471 C 0.71709 0.69375 0.58271 0.0
H472 H 0.72405 0.68003 0.59362 0.0
H473 H 0.64914 0.679 0.5921 0.0
O474 O 0.68826 0.81899 0.62018 0.0
C475 C 0.62925 0.75071 0.61692 0.0
Co476 Co 0.24945 0.71292 0.13415 0.0
Co477 Co 0.31518 0.70451 0.13493 0.0
C478 C 0.28743 0.72839 0.16453 0.0
O479 O 0.26338 0.72632 0.15674 0.0
O480 O 0.30977 0.72114 0.15756 0.0
C481 C 0.19389 0.72175 0.14386 0.0
O482 O 0.20647 0.71646 0.15889 0.0
C483 C 0.37592 0.71616 0.13547 0.0
C484 C 0.39217 0.67714 0.12407 0.0
C485 C 0.40039 0.70248 0.13075 0.0
N486 N 0.3543 0.69963 0.13158 0.0
N487 N 0.36425 0.67639 0.12477 0.0
C488 C 0.37321 0.74387 0.14409 0.0
H489 H 0.3536 0.74569 0.15067 0.0
H490 H 0.37249 0.76076 0.13448 0.0
H491 H 0.39154 0.74682 0.15326 0.0
C492 C 0.25847 0.7405 0.10188 0.0
N493 N 0.26848 0.72904 0.11675 0.0
N494 N 0.29596 0.72582 0.11701 0.0
C495 C 0.30432 0.73521 0.10224 0.0
C496 C 0.28087 0.74479 0.09213 0.0
C497 C 0.22787 0.74298 0.0963 0.0
H498 H 0.21844 0.72246 0.09782 0.0
H499 H 0.2173 0.75816 0.1046 0.0
H500 H 0.22406 0.74986 0.08294 0.0
O501 O 0.25458 0.67178 0.13349 0.0
O502 O 0.30093 0.66614 0.13457 0.0
H503 H 0.34075 0.71067 0.09642 0.0
H504 H 0.33626 0.74362 0.08514 0.0
C505 C 0.33395 0.73303 0.09737 0.0
H506 H 0.34777 0.74282 0.10731 0.0
H507 H 0.35195 0.65988 0.12066 0.0
O508 O 0.20845 0.72185 0.13107 0.0
C509 C 0.27671 0.65599 0.13388 0.0
Co510 Co 0.26731 0.288 0.61851 0.0
Co511 Co 0.27351 0.22249 0.62122 0.0
C512 C 0.24952 0.25083 0.58937 0.0
O513 O 0.2525 0.27494 0.59594 0.0
O514 O 0.25637 0.22861 0.59782 0.0
C515 C 0.24341 0.34371 0.61059 0.0
O516 O 0.22744 0.33118 0.59896 0.0
C517 C 0.25897 0.16319 0.62122 0.0
C518 C 0.29459 0.14446 0.63733 0.0
C519 C 0.27001 0.13797 0.62808 0.0
N520 N 0.27629 0.18347 0.62622 0.0
N521 N 0.29758 0.17209 0.63578 0.0
C522 C 0.23175 0.16849 0.61095 0.0
H523 H 0.2236 0.19022 0.61295 0.0
H524 H 0.21607 0.15346 0.61435 0.0
H525 H 0.23526 0.16596 0.59733 0.0
C526 C 0.23868 0.28016 0.64988 0.0
N527 N 0.25065 0.26981 0.63622 0.0
N528 N 0.25334 0.24242 0.63752 0.0
C529 C 0.24333 0.23446 0.65216 0.0
C530 C 0.23374 0.25817 0.66054 0.0
C531 C 0.23333 0.31071 0.65296 0.0
H532 H 0.22206 0.3204 0.64155 0.0
H533 H 0.22062 0.31445 0.66397 0.0
H534 H 0.25367 0.32087 0.6552 0.0
O535 O 0.30861 0.28083 0.62056 0.0
O536 O 0.31254 0.23458 0.62215 0.0
H537 H 0.26927 0.19871 0.66001 0.0
H538 H 0.23857 0.20338 0.67165 0.0
C539 C 0.24671 0.20527 0.659 0.0
H540 H 0.23557 0.19093 0.65008 0.0
H541 H 0.31411 0.18325 0.64132 0.0
O542 O 0.26102 0.32919 0.62011 0.0
C543 C 0.32364 0.25821 0.62178 0.0
H544 H 0.87362 0.30445 0.11613 0.0
H545 H 0.92469 0.3043 0.11653 0.0
H546 H 0.93103 0.2252 0.14274 0.0
H547 H 0.87974 0.22513 0.14248 0.0
H548 H 0.96224 0.29981 0.14833 0.0
H549 H 0.98149 0.21659 0.10077 0.0
H550 H 0.94812 0.23567 0.10115 0.0
H551 H 0.95818 0.2097 0.11698 0.0
C552 C 0.88578 0.28686 0.12187 0.0
C553 C 0.87256 0.26481 0.12931 0.0
C554 C 0.91497 0.28686 0.1221 0.0
C555 C 0.93154 0.26472 0.12961 0.0
C556 C 0.91853 0.24237 0.13676 0.0
H557 H 0.1132 0.27757 0.15297 0.0
H558 H 0.06468 0.26395 0.15477 0.0
C559 C 0.88924 0.24241 0.13663 0.0
C560 C 0.96246 0.26586 0.13051 0.0
H561 H 0.02093 0.23899 0.11301 0.0
C562 C 0.97517 0.28632 0.14078 0.0
C563 C 0.9791 0.24828 0.12056 0.0
C564 C 0.96619 0.22634 0.10914 0.0
C565 C 0.00412 0.29006 0.14111 0.0
C566 C 0.02073 0.27279 0.13095 0.0
C567 C 0.00811 0.25198 0.1209 0.0
C568 C 0.05071 0.27792 0.12945 0.0
C569 C 0.01661 0.31317 0.15179 0.0
C570 C 0.05896 0.28963 0.1145 0.0
C571 C 0.08655 0.29734 0.11343 0.0
C572 C 0.10653 0.29313 0.12722 0.0
C573 C 0.09847 0.28051 0.14201 0.0
C574 C 0.07072 0.27297 0.14312 0.0
H575 H 0.00027 0.32702 0.15716 0.0
H576 H 0.03035 0.30391 0.16242 0.0
H577 H 0.02972 0.32608 0.14416 0.0
H578 H 0.04378 0.29368 0.10384 0.0
H579 H 0.09217 0.30704 0.10188 0.0
H580 H 0.69933 0.09328 0.58842 0.0
H581 H 0.70939 0.04293 0.59153 0.0
H582 H 0.69193 0.04809 0.64415 0.0
H583 H 0.68302 0.09877 0.64121 0.0
H584 H 0.73481 0.01148 0.63999 0.0
H585 H 0.64719 0.99009 0.59271 0.0
H586 H 0.67316 0.01059 0.58409 0.0
H587 H 0.65322 0.02466 0.6008 0.0
C588 C 0.69803 0.08366 0.60069 0.0
C589 C 0.69043 0.09975 0.61458 0.0
C590 C 0.70357 0.05491 0.60243 0.0
C591 C 0.70066 0.04162 0.61795 0.0
C592 C 0.69417 0.05789 0.63204 0.0
H593 H 0.66567 0.86737 0.62629 0.0
H594 H 0.66494 0.9183 0.62586 0.0
C595 C 0.68917 0.0868 0.63037 0.0
C596 C 0.70306 0.01068 0.61927 0.0
H597 H 0.67676 0.95122 0.60186 0.0
C598 C 0.72207 0.99826 0.63171 0.0
C599 C 0.68604 0.99347 0.60865 0.0
C600 C 0.66356 0.00537 0.59594 0.0
C601 C 0.72467 0.96907 0.63374 0.0
C602 C 0.70841 0.95186 0.62266 0.0
C603 C 0.68941 0.96436 0.61026 0.0
C604 C 0.70968 0.92089 0.62402 0.0
C605 C 0.74415 0.95712 0.64803 0.0
C606 C 0.7351 0.90526 0.6232 0.0
C607 C 0.73563 0.87601 0.62377 0.0
C608 C 0.71064 0.86195 0.62473 0.0
C609 C 0.68525 0.87762 0.62545 0.0
C610 C 0.68482 0.90675 0.62521 0.0
H611 H 0.74836 0.97282 0.65815 0.0
H612 H 0.73535 0.93858 0.65374 0.0
H613 H 0.76451 0.95061 0.64307 0.0
H614 H 0.75445 0.9156 0.62178 0.0
H615 H 0.75545 0.86442 0.62303 0.0
H616 H 0.9248 0.71622 0.14999 0.0
H617 H 0.97434 0.72708 0.15467 0.0
H618 H 0.98582 0.71086 0.102 0.0
H619 H 0.9363 0.7003 0.0972 0.0
H620 H 0.01897 0.68704 0.1476 0.0
H621 H 0.02448 0.78616 0.11191 0.0
H622 H 0.99211 0.7742 0.11915 0.0
H623 H 0.00621 0.75894 0.1007 0.0
C624 C 0.93766 0.71579 0.13931 0.0
C625 C 0.92661 0.70787 0.12317 0.0
C626 C 0.96598 0.72179 0.14203 0.0
C627 C 0.98356 0.72019 0.12862 0.0
C628 C 0.97245 0.71276 0.11244 0.0
H629 H 0.1601 0.72268 0.11437 0.0
H630 H 0.10877 0.72417 0.11139 0.0
C631 C 0.94424 0.70655 0.10975 0.0
C632 C 0.01406 0.72366 0.13177 0.0
H633 H 0.06792 0.76251 0.12065 0.0
C634 C 0.0297 0.70372 0.1419 0.0
C635 C 0.02787 0.74526 0.12413 0.0
C636 C 0.01185 0.76754 0.11346 0.0
C637 C 0.059 0.70428 0.14419 0.0
C638 C 0.07293 0.72586 0.1365 0.0
C639 C 0.0572 0.74605 0.12655 0.0
C640 C 0.10388 0.72725 0.13829 0.0
C641 C 0.07481 0.68109 0.15426 0.0
C642 C 0.1181 0.72933 0.15435 0.0
C643 C 0.14738 0.72819 0.15611 0.0
C644 C 0.16298 0.72537 0.1418 0.0
C645 C 0.14868 0.72472 0.12564 0.0
C646 C 0.11936 0.72561 0.12392 0.0
H647 H 0.06192 0.66253 0.15536 0.0
H648 H 0.09438 0.67446 0.14838 0.0
H649 H 0.08058 0.68867 0.16725 0.0
H650 H 0.10655 0.73134 0.16557 0.0
H651 H 0.15776 0.72912 0.16871 0.0
H652 H 0.28398 0.8783 0.62879 0.0
H653 H 0.28134 0.92929 0.62944 0.0
H654 H 0.19699 0.9298 0.60613 0.0
H655 H 0.19935 0.87855 0.60544 0.0
H656 H 0.27027 0.9651 0.60022 0.0
H657 H 0.19238 0.98165 0.64853 0.0
H658 H 0.21176 0.94878 0.64634 0.0
H659 H 0.1833 0.95859 0.6312 0.0
C660 C 0.26476 0.88917 0.62388 0.0
C661 C 0.24187 0.87432 0.61705 0.0
C662 C 0.26332 0.91833 0.62425 0.0
C663 C 0.23893 0.93326 0.61793 0.0
C664 C 0.21588 0.91861 0.61125 0.0
H665 H 0.2439 0.11413 0.59979 0.0
H666 H 0.23164 0.06523 0.59622 0.0
C667 C 0.21732 0.88935 0.61083 0.0
C668 C 0.23829 0.96419 0.61789 0.0
H669 H 0.21036 0.02186 0.63698 0.0
C670 C 0.25696 0.97759 0.6081 0.0
C671 C 0.22098 0.98027 0.62827 0.0
C672 C 0.20104 0.96673 0.6393 0.0
C673 C 0.25931 0.00667 0.60871 0.0
C674 C 0.24229 0.02276 0.61926 0.0
C675 C 0.22316 0.00943 0.62879 0.0
C676 C 0.24614 0.05303 0.62179 0.0
C677 C 0.28086 0.01983 0.59863 0.0
C678 C 0.25744 0.0625 0.6375 0.0
C679 C 0.26421 0.09039 0.63961 0.0
C680 C 0.2595 0.10945 0.62611 0.0
C681 C 0.24718 0.10017 0.61055 0.0
C682 C 0.24048 0.07215 0.60843 0.0
H683 H 0.2955 0.00397 0.5934 0.0
H684 H 0.27003 0.03182 0.58789 0.0
H685 H 0.29328 0.0346 0.60662 0.0
H686 H 0.26201 0.04804 0.64796 0.0
H687 H 0.2737 0.09695 0.65174 0.0
H688 H 0.89435 0.71426 0.84187 0.0
H689 H 0.94386 0.72538 0.84506 0.0
H690 H 0.93915 0.73276 0.89909 0.0
H691 H 0.88924 0.72263 0.89584 0.0
H692 H 0.97232 0.77157 0.88736 0.0
H693 H 0.00213 0.66737 0.86213 0.0
H694 H 0.97931 0.68755 0.84738 0.0
H695 H 0.96683 0.67676 0.86715 0.0
C696 C 0.90383 0.71865 0.85439 0.0
C697 C 0.88807 0.71762 0.86861 0.0
C698 C 0.93213 0.72481 0.85622 0.0
C699 C 0.9454 0.72918 0.87236 0.0
C700 C 0.92936 0.72935 0.88652 0.0
H701 H 0.12349 0.70096 0.89495 0.0
H702 H 0.07246 0.70022 0.89326 0.0
C703 C 0.90086 0.72366 0.88466 0.0
C704 C 0.97621 0.73208 0.87452 0.0
H705 H 0.03841 0.69933 0.86619 0.0
C706 C 0.98683 0.75576 0.8828 0.0
C707 C 0.99512 0.71116 0.86884 0.0
C708 C 0.98531 0.68415 0.86105 0.0
C709 C 0.01586 0.75923 0.88538 0.0
C710 C 0.03471 0.73882 0.87908 0.0
C711 C 0.02401 0.71511 0.87089 0.0
C712 C 0.06566 0.74082 0.88127 0.0
C713 C 0.02598 0.78433 0.8952 0.0
C714 C 0.07896 0.764 0.87523 0.0
C715 C 0.10827 0.76467 0.87645 0.0
C716 C 0.12473 0.74186 0.88336 0.0
C717 C 0.11137 0.71878 0.88946 0.0
C718 C 0.08218 0.71835 0.88851 0.0
H719 H 0.00977 0.79311 0.9033 0.0
H720 H 0.04533 0.77893 0.90337 0.0
H721 H 0.03075 0.80088 0.8862 0.0
H722 H 0.06674 0.78127 0.86918 0.0
H723 H 0.11802 0.78261 0.87151 0.0
H724 H 0.25717 0.8778 0.35319 0.0
H725 H 0.25402 0.92899 0.35371 0.0
H726 H 0.325 0.92926 0.39058 0.0
H727 H 0.3282 0.8782 0.39028 0.0
H728 H 0.27959 0.96733 0.3976 0.0
H729 H 0.31152 0.97707 0.33176 0.0
H730 H 0.28204 0.95596 0.33453 0.0
H731 H 0.3162 0.94478 0.34356 0.0
C732 C 0.27201 0.88873 0.36149 0.0
C733 C 0.2931 0.87391 0.37158 0.0
C734 C 0.27022 0.91798 0.36172 0.0
C735 C 0.2895 0.93286 0.37201 0.0
C736 C 0.30997 0.91813 0.3825 0.0
H737 H 0.35493 0.09401 0.37145 0.0
H738 H 0.34342 0.04494 0.36924 0.0
C739 C 0.31181 0.88895 0.38227 0.0
C740 C 0.28916 0.96379 0.37154 0.0
H741 H 0.30315 0.01881 0.3466 0.0
C742 C 0.2844 0.97868 0.38641 0.0
C743 C 0.29568 0.97841 0.35694 0.0
C744 C 0.30187 0.96334 0.34079 0.0
C745 C 0.28662 0.00781 0.38718 0.0
C746 C 0.29353 0.02237 0.37264 0.0
C747 C 0.29762 0.00755 0.35766 0.0
C748 C 0.29952 0.05244 0.37323 0.0
C749 C 0.28284 0.02265 0.40374 0.0
C750 C 0.27852 0.07299 0.37601 0.0
C751 C 0.28506 0.10119 0.37728 0.0
C752 C 0.31268 0.10919 0.37572 0.0
C753 C 0.33347 0.08852 0.3727 0.0
C754 C 0.32692 0.06048 0.37137 0.0
H755 H 0.282 0.00779 0.41443 0.0
H756 H 0.30023 0.03687 0.40675 0.0
H757 H 0.26293 0.03552 0.40264 0.0
H758 H 0.25719 0.06718 0.37738 0.0
H759 H 0.26872 0.11646 0.38004 0.0
H760 H 0.8515 0.23145 0.8932 0.0
H761 H 0.9027 0.23073 0.89301 0.0
H762 H 0.89653 0.30587 0.86278 0.0
H763 H 0.84549 0.30663 0.86272 0.0
H764 H 0.93553 0.2645 0.852 0.0
H765 H 0.95081 0.28627 0.92107 0.0
H766 H 0.93088 0.25637 0.91513 0.0
H767 H 0.91709 0.29079 0.90937 0.0
C768 C 0.86103 0.24771 0.88641 0.0
C769 C 0.84442 0.26925 0.87811 0.0
C770 C 0.89028 0.24732 0.88638 0.0
C771 C 0.90338 0.26847 0.87808 0.0
C772 C 0.88682 0.2894 0.8693 0.0
H773 H 0.06175 0.34116 0.88817 0.0
H774 H 0.01346 0.32689 0.88847 0.0
C775 C 0.85764 0.28984 0.86933 0.0
C776 C 0.93434 0.2696 0.87894 0.0
H777 H 0.99127 0.28247 0.90597 0.0
C778 C 0.94783 0.2681 0.86381 0.0
C779 C 0.95019 0.27454 0.89437 0.0
C780 C 0.9366 0.27732 0.91093 0.0
C781 C 0.9767 0.27208 0.86363 0.0
C782 C 0.99248 0.27738 0.87903 0.0
C783 C 0.97911 0.27818 0.89421 0.0
C784 C 0.02219 0.28498 0.87946 0.0
C785 C 0.98985 0.2719 0.84689 0.0
C786 C 0.04321 0.26601 0.87446 0.0
C787 C 0.07093 0.27416 0.87423 0.0
C788 C 0.07805 0.30134 0.87912 0.0
C789 C 0.05695 0.32007 0.88433 0.0
C790 C 0.02937 0.31193 0.88458 0.0
H791 H 0.97385 0.27242 0.83596 0.0
H792 H 0.00328 0.29007 0.84593 0.0
H793 H 0.00332 0.25259 0.84594 0.0
H794 H 0.03811 0.24503 0.87056 0.0
H795 H 0.08646 0.25945 0.86972 0.0
H796 H 0.77128 0.10586 0.36943 0.0
H797 H 0.78571 0.05612 0.37188 0.0
H798 H 0.7018 0.03681 0.38283 0.0
H799 H 0.68733 0.08635 0.38061 0.0
H800 H 0.74955 0.01045 0.40494 0.0
H801 H 0.75635 0.99645 0.33545 0.0
H802 H 0.77374 0.02525 0.34567 0.0
H803 H 0.73619 0.02515 0.34405 0.0
C804 C 0.7561 0.09111 0.37274 0.0
C805 C 0.72826 0.10003 0.37507 0.0
C806 C 0.76429 0.0627 0.37395 0.0
C807 C 0.74477 0.0429 0.3775 0.0
C808 C 0.71716 0.05183 0.38011 0.0
H809 H 0.7219 0.86975 0.36421 0.0
H810 H 0.72245 0.92067 0.36357 0.0
C811 C 0.70893 0.08009 0.37879 0.0
C812 C 0.75251 0.01267 0.37802 0.0
H813 H 0.7631 0.95627 0.3525 0.0
C814 C 0.75295 0.99857 0.39355 0.0
C815 C 0.75662 0.99738 0.36307 0.0
C816 C 0.75562 0.01164 0.34605 0.0
C817 C 0.75667 0.96935 0.39447 0.0
C818 C 0.76025 0.95396 0.37946 0.0
C819 C 0.76053 0.96818 0.36399 0.0
C820 C 0.76118 0.92301 0.37933 0.0
C821 C 0.75544 0.95508 0.41136 0.0
C822 C 0.78305 0.90741 0.3882 0.0
C823 C 0.78276 0.8782 0.38865 0.0
C824 C 0.76064 0.86415 0.38018 0.0
C825 C 0.73918 0.87988 0.37095 0.0
C826 C 0.73949 0.909 0.37052 0.0
H827 H 0.74748 0.96951 0.42109 0.0
H828 H 0.74176 0.93694 0.41013 0.0
H829 H 0.77681 0.94719 0.41593 0.0
H830 H 0.80022 0.91783 0.39485 0.0
H831 H 0.79971 0.86669 0.39577 0.0
H832 H 0.30389 0.38771 0.13541 0.0
H833 H 0.30646 0.43857 0.1355 0.0
H834 H 0.21622 0.44732 0.13328 0.0
H835 H 0.21334 0.39649 0.13337 0.0
H836 H 0.28296 0.47682 0.11088 0.0
H837 H 0.24105 0.49697 0.17352 0.0
H838 H 0.25323 0.46264 0.16707 0.0
H839 H 0.21924 0.47657 0.15928 0.0
C840 C 0.28456 0.4004 0.13502 0.0
C841 C 0.2584 0.38797 0.13446 0.0
C842 C 0.28609 0.42947 0.13505 0.0
C843 C 0.26156 0.44666 0.13463 0.0
C844 C 0.23542 0.4344 0.13394 0.0
H845 H 0.22883 0.62648 0.13278 0.0
H846 H 0.22516 0.5757 0.13241 0.0
C847 C 0.23384 0.40533 0.13391 0.0
C848 C 0.26335 0.47745 0.13448 0.0
H849 H 0.24791 0.53661 0.15668 0.0
C850 C 0.2754 0.48992 0.12091 0.0
C851 C 0.25338 0.49441 0.14758 0.0
C852 C 0.24121 0.48203 0.16278 0.0
C853 C 0.27742 0.51901 0.11996 0.0
C854 C 0.26755 0.53597 0.13309 0.0
C855 C 0.25541 0.52351 0.14663 0.0
C856 C 0.26991 0.56669 0.13311 0.0
C857 C 0.2896 0.53138 0.10476 0.0
C858 C 0.29632 0.5784 0.13381 0.0
C859 C 0.29853 0.60739 0.134 0.0
C860 C 0.27434 0.62524 0.1336 0.0
C861 C 0.24789 0.61339 0.13304 0.0
C862 C 0.24573 0.58437 0.13285 0.0
H863 H 0.28932 0.51658 0.09394 0.0
H864 H 0.27789 0.55102 0.10062 0.0
H865 H 0.31173 0.53635 0.10818 0.0
H866 H 0.31527 0.56509 0.13436 0.0
H867 H 0.31924 0.61576 0.13452 0.0
H868 H 0.36198 0.21408 0.62343 0.0
H869 H 0.41281 0.21538 0.62281 0.0
H870 H 0.40647 0.30537 0.6201 0.0
H871 H 0.35548 0.3044 0.62082 0.0
H872 H 0.44202 0.23927 0.59662 0.0
H873 H 0.46714 0.28853 0.65926 0.0
H874 H 0.43414 0.27265 0.65384 0.0
H875 H 0.44049 0.30655 0.64566 0.0
C876 C 0.37133 0.23421 0.62283 0.0
C877 C 0.35459 0.25916 0.62219 0.0
C878 C 0.4004 0.23488 0.62245 0.0
C879 C 0.41337 0.26046 0.62156 0.0
C880 C 0.39686 0.28543 0.62105 0.0
H881 H 0.58924 0.29889 0.61876 0.0
H882 H 0.53804 0.30179 0.61824 0.0
C883 C 0.36772 0.28481 0.6214 0.0
C884 C 0.4441 0.26078 0.62054 0.0
H885 H 0.50465 0.28051 0.64185 0.0
C886 C 0.45576 0.24828 0.6065 0.0
C887 C 0.46184 0.2727 0.63341 0.0
C888 C 0.45041 0.2857 0.64898 0.0
C889 C 0.48479 0.24742 0.60494 0.0
C890 C 0.50262 0.25887 0.61796 0.0
C891 C 0.49091 0.27174 0.63189 0.0
C892 C 0.53355 0.25705 0.6176 0.0
C893 C 0.49605 0.23457 0.58927 0.0
C894 C 0.54798 0.23091 0.6175 0.0
C895 C 0.57721 0.22914 0.61773 0.0
C896 C 0.59263 0.25352 0.61825 0.0
C897 C 0.57806 0.27969 0.61833 0.0
C898 C 0.5488 0.28142 0.61806 0.0
H899 H 0.47964 0.23424 0.57858 0.0
H900 H 0.51401 0.24614 0.58521 0.0
H901 H 0.50343 0.21266 0.59205 0.0
H902 H 0.53664 0.21182 0.61752 0.0
H903 H 0.58771 0.20864 0.61776 0.0
H904 H 0.7145 0.38993 0.12317 0.0
H905 H 0.71756 0.44069 0.12221 0.0
H906 H 0.80773 0.43147 0.12372 0.0
H907 H 0.80497 0.38064 0.1245 0.0
H908 H 0.74557 0.47496 0.14619 0.0
H909 H 0.7877 0.4836 0.08302 0.0
H910 H 0.77202 0.45239 0.08995 0.0
H911 H 0.80735 0.45974 0.09734 0.0
C912 C 0.73501 0.39864 0.12322 0.0
C913 C 0.7595 0.38117 0.12387 0.0
C914 C 0.73669 0.42766 0.12268 0.0
C915 C 0.76283 0.43978 0.12266 0.0
C916 C 0.78732 0.42249 0.12339 0.0
H917 H 0.81791 0.60957 0.1238 0.0
H918 H 0.81438 0.55882 0.12364 0.0
C919 C 0.78569 0.39344 0.12393 0.0
C920 C 0.76446 0.47057 0.12245 0.0
H921 H 0.78615 0.52489 0.09959 0.0
C922 C 0.7543 0.48593 0.13597 0.0
C923 C 0.77593 0.48473 0.1091 0.0
C924 C 0.78617 0.46935 0.09394 0.0
C925 C 0.75577 0.51511 0.13668 0.0
C926 C 0.76724 0.52928 0.12334 0.0
C927 C 0.77738 0.51393 0.10979 0.0
C928 C 0.76911 0.56005 0.12326 0.0
C929 C 0.74564 0.53044 0.15189 0.0
C930 C 0.74477 0.57754 0.12285 0.0
C931 C 0.74667 0.60658 0.12298 0.0
C932 C 0.77299 0.61866 0.12341 0.0
C933 C 0.79731 0.60101 0.12353 0.0
C934 C 0.79536 0.57199 0.12342 0.0
H935 H 0.7441 0.51615 0.16279 0.0
H936 H 0.75985 0.54733 0.1559 0.0
H937 H 0.72447 0.54013 0.14854 0.0
H938 H 0.72428 0.56871 0.12239 0.0
H939 H 0.72751 0.61952 0.12277 0.0
H940 H 0.59515 0.79822 0.6173 0.0
H941 H 0.54408 0.80134 0.61808 0.0
H942 H 0.542 0.71148 0.6161 0.0
H943 H 0.59297 0.70803 0.61542 0.0
H944 H 0.50175 0.77997 0.59456 0.0
H945 H 0.50068 0.73318 0.65862 0.0
H946 H 0.53195 0.74641 0.65069 0.0
H947 H 0.52009 0.71276 0.64404 0.0
C948 C 0.58386 0.7791 0.61699 0.0
C949 C 0.59822 0.75286 0.61643 0.0
C950 C 0.55469 0.78095 0.61743 0.0
C951 C 0.5394 0.75664 0.61743 0.0
C952 C 0.55353 0.73047 0.61643 0.0
H953 H 0.36691 0.71487 0.62053 0.0
H954 H 0.41775 0.71573 0.61978 0.0
C955 C 0.58265 0.72857 0.61596 0.0
C956 C 0.50864 0.75854 0.61847 0.0
H957 H 0.4567 0.73969 0.64287 0.0
C958 C 0.49184 0.77137 0.60516 0.0
C959 C 0.4959 0.74731 0.63235 0.0
C960 C 0.51304 0.73435 0.64733 0.0
C961 C 0.46247 0.77251 0.60511 0.0
C962 C 0.44971 0.76095 0.61889 0.0
C963 C 0.46656 0.74848 0.63231 0.0
C964 C 0.41886 0.76084 0.61944 0.0
C965 C 0.44533 0.78527 0.59007 0.0
C966 C 0.40267 0.78596 0.61975 0.0
C967 C 0.37353 0.78558 0.62014 0.0
C968 C 0.36009 0.76004 0.62035 0.0
C969 C 0.3765 0.73493 0.62033 0.0
C970 C 0.40559 0.73535 0.61992 0.0
H971 H 0.45793 0.78711 0.57892 0.0
H972 H 0.42693 0.77264 0.58643 0.0
H973 H 0.43749 0.80655 0.59343 0.0
H974 H 0.41258 0.80586 0.61974 0.0
H975 H 0.36156 0.8053 0.62024 0.0
H976 H 0.18911 0.3986 0.8861 0.0
H977 H 0.19321 0.44919 0.8873 0.0
H978 H 0.28314 0.43857 0.88737 0.0
H979 H 0.27933 0.3878 0.88601 0.0
H980 H 0.22318 0.48106 0.91215 0.0
H981 H 0.26178 0.49398 0.84823 0.0
H982 H 0.24578 0.46258 0.85456 0.0
H983 H 0.28144 0.46886 0.86172 0.0
C984 C 0.2098 0.40694 0.88634 0.0
C985 C 0.2339 0.38908 0.88588 0.0
C986 C 0.21208 0.43588 0.88704 0.0
C987 C 0.23843 0.44759 0.88721 0.0
C988 C 0.26257 0.42992 0.88696 0.0
H989 H 0.28713 0.62055 0.88751 0.0
H990 H 0.28693 0.56954 0.88848 0.0
C991 C 0.26034 0.40091 0.88626 0.0
C992 C 0.24049 0.47832 0.88784 0.0
H993 H 0.25935 0.53433 0.86535 0.0
C994 C 0.23109 0.49275 0.90193 0.0
C995 C 0.25088 0.49342 0.8745 0.0
C996 C 0.26035 0.47903 0.85881 0.0
C997 C 0.23192 0.52195 0.90308 0.0
C998 C 0.24195 0.53708 0.88963 0.0
C999 C 0.25168 0.52262 0.87563 0.0
C1000 C 0.24202 0.568 0.88964 0.0
C1001 C 0.2224 0.53629 0.91876 0.0
C1002 C 0.21678 0.58401 0.88985 0.0
C1003 C 0.21678 0.61317 0.88932 0.0
C1004 C 0.24204 0.62688 0.88846 0.0
C1005 C 0.2673 0.61072 0.88823 0.0
C1006 C 0.26725 0.58156 0.88876 0.0
H1007 H 0.22272 0.52157 0.92961 0.0
H1008 H 0.23583 0.55395 0.92246 0.0
H1009 H 0.20055 0.54476 0.91617 0.0
H1010 H 0.19701 0.57393 0.89016 0.0
H1011 H 0.19694 0.62493 0.88942 0.0
H1012 H 0.62946 0.21389 0.37558 0.0
H1013 H 0.57856 0.21895 0.37589 0.0
H1014 H 0.58331 0.30864 0.37683 0.0
H1015 H 0.63439 0.30389 0.37637 0.0
H1016 H 0.54808 0.24604 0.40105 0.0
H1017 H 0.52402 0.2944 0.33749 0.0
H1018 H 0.55731 0.27665 0.34357 0.0
H1019 H 0.54969 0.31124 0.35124 0.0
C1020 C 0.61976 0.23474 0.37576 0.0
C1021 C 0.63606 0.2585 0.37592 0.0
C1022 C 0.59064 0.23756 0.37596 0.0
C1023 C 0.57719 0.26415 0.37622 0.0
C1024 C 0.59329 0.28795 0.37636 0.0
H1025 H 0.39774 0.30888 0.37593 0.0
H1026 H 0.44889 0.31118 0.37722 0.0
C1027 C 0.62248 0.28517 0.37617 0.0
C1028 C 0.54636 0.2667 0.37684 0.0
H1029 H 0.48588 0.28854 0.3542 0.0
C1030 C 0.53446 0.25541 0.39084 0.0
C1031 C 0.52873 0.2791 0.36354 0.0
C1032 C 0.54045 0.29089 0.34802 0.0
C1033 C 0.50532 0.25594 0.39184 0.0
C1034 C 0.48763 0.26763 0.37832 0.0
C1035 C 0.49953 0.27958 0.36452 0.0
C1036 C 0.45674 0.26635 0.37789 0.0
C1037 C 0.49372 0.24406 0.40737 0.0
C1038 C 0.44428 0.24039 0.37765 0.0
C1039 C 0.41516 0.23896 0.37693 0.0
C1040 C 0.39786 0.26352 0.37631 0.0
C1041 C 0.41043 0.28956 0.37645 0.0
C1042 C 0.43963 0.29094 0.37717 0.0
H1043 H 0.50953 0.24351 0.41838 0.0
H1044 H 0.47483 0.25642 0.41084 0.0
H1045 H 0.48764 0.22229 0.40473 0.0
H1046 H 0.4571 0.22116 0.37784 0.0
H1047 H 0.40625 0.21855 0.37675 0.0
H1048 H 0.78397 0.61613 0.87574 0.0
H1049 H 0.78222 0.56524 0.87609 0.0
H1050 H 0.69214 0.57207 0.87645 0.0
H1051 H 0.69362 0.62305 0.87634 0.0
H1052 H 0.71769 0.5337 0.90006 0.0
H1053 H 0.75599 0.51586 0.83628 0.0
H1054 H 0.77843 0.53625 0.85013 0.0
H1055 H 0.74384 0.54986 0.84329 0.0
C1056 C 0.76375 0.60687 0.87587 0.0
C1057 C 0.73891 0.62373 0.87594 0.0
C1058 C 0.7628 0.57775 0.87597 0.0
C1059 C 0.73702 0.56492 0.87601 0.0
C1060 C 0.71223 0.58161 0.87632 0.0
H1061 H 0.68511 0.39344 0.87622 0.0
H1062 H 0.68712 0.44433 0.87658 0.0
C1063 C 0.71314 0.61074 0.87624 0.0
C1064 C 0.73593 0.53406 0.87602 0.0
H1065 H 0.7518 0.47566 0.85322 0.0
C1066 C 0.72502 0.52099 0.88979 0.0
C1067 C 0.74556 0.51758 0.86261 0.0
C1068 C 0.75639 0.53056 0.84716 0.0
C1069 C 0.72391 0.49179 0.89065 0.0
C1070 C 0.73357 0.47532 0.87725 0.0
C1071 C 0.74449 0.48838 0.86349 0.0
C1072 C 0.73238 0.44448 0.87721 0.0
C1073 C 0.71294 0.47877 0.90605 0.0
C1074 C 0.75714 0.42772 0.87707 0.0
C1075 C 0.7561 0.3986 0.87679 0.0
C1076 C 0.73021 0.3857 0.87652 0.0
C1077 C 0.70541 0.40263 0.87652 0.0
C1078 C 0.70651 0.43174 0.87682 0.0
H1079 H 0.71304 0.4935 0.91691 0.0
H1080 H 0.691 0.47285 0.90294 0.0
H1081 H 0.7256 0.45957 0.90999 0.0
H1082 H 0.7773 0.4372 0.87726 0.0
H1083 H 0.77559 0.38624 0.87674 0.0
H1084 H 0.41818 0.7147 0.3815 0.0
H1085 H 0.46905 0.71556 0.38083 0.0
H1086 H 0.46385 0.80567 0.38063 0.0
H1087 H 0.41288 0.80513 0.38142 0.0
H1088 H 0.49704 0.74054 0.35487 0.0
H1089 H 0.52649 0.78625 0.41794 0.0
H1090 H 0.49294 0.77123 0.41285 0.0
H1091 H 0.49947 0.8055 0.40529 0.0
C1092 C 0.42781 0.73475 0.38152 0.0
C1093 C 0.41139 0.75986 0.3815 0.0
C1094 C 0.4569 0.73517 0.38111 0.0
C1095 C 0.47019 0.76065 0.38081 0.0
C1096 C 0.45401 0.78578 0.38113 0.0
H1097 H 0.64495 0.8 0.37356 0.0
H1098 H 0.59396 0.80258 0.37474 0.0
C1099 C 0.42487 0.7854 0.38152 0.0
C1100 C 0.50079 0.76081 0.37917 0.0
H1101 H 0.56263 0.77982 0.39927 0.0
C1102 C 0.51141 0.74907 0.36459 0.0
C1103 C 0.51939 0.77216 0.39182 0.0
C1104 C 0.50913 0.78432 0.40794 0.0
C1105 C 0.5402 0.74845 0.36226 0.0
C1106 C 0.55888 0.75939 0.37502 0.0
C1107 C 0.54823 0.77146 0.38952 0.0
C1108 C 0.58963 0.75782 0.37377 0.0
C1109 C 0.55029 0.73645 0.34604 0.0
C1110 C 0.60408 0.73179 0.37292 0.0
C1111 C 0.63316 0.73021 0.37218 0.0
C1112 C 0.64844 0.75467 0.37243 0.0
C1113 C 0.63387 0.78075 0.37328 0.0
C1114 C 0.60473 0.78229 0.374 0.0
H1115 H 0.53313 0.73639 0.33579 0.0
H1116 H 0.56773 0.74843 0.34165 0.0
H1117 H 0.55807 0.7145 0.3483 0.0
H1118 H 0.59289 0.71263 0.37308 0.0
H1119 H 0.64368 0.70977 0.37165 0.0
H1120 H 0.27215 0.29912 0.06745 0.0
H1121 H 0.26627 0.29368 0.03666 0.0
H1122 H 0.21598 0.22232 0.04273 0.0
H1123 H 0.22223 0.22752 0.07372 0.0
H1124 H 0.25742 0.21693 0.01697 0.0
H1125 H 0.18877 0.31336 0.01062 0.0
H1126 H 0.22162 0.31781 0.02262 0.0
H1127 H 0.19649 0.29532 0.03054 0.0
C1128 C 0.26028 0.28198 0.0622 0.0
C1129 C 0.24763 0.26369 0.07284 0.0
C1130 C 0.25676 0.27902 0.04466 0.0
C1131 C 0.24041 0.25783 0.03747 0.0
C1132 C 0.2286 0.23885 0.04808 0.0
H1133 H 0.18137 0.27314 0.9309 0.0
H1134 H 0.18277 0.26169 0.96102 0.0
C1135 C 0.23212 0.24183 0.06569 0.0
C1136 C 0.23475 0.25651 0.01888 0.0
H1137 H 0.20584 0.29486 0.98526 0.0
C1138 C 0.24589 0.23377 0.00999 0.0
C1139 C 0.21926 0.27826 0.00989 0.0
C1140 C 0.20559 0.30247 0.01889 0.0
C1141 C 0.24303 0.23289 0.9922 0.0
C1142 C 0.22897 0.25552 0.98318 0.0
C1143 C 0.21676 0.27759 0.99216 0.0
C1144 C 0.22805 0.25785 0.96447 0.0
C1145 C 0.25519 0.20787 0.98326 0.0
C1146 C 0.25303 0.25899 0.95634 0.0
C1147 C 0.25233 0.26546 0.93911 0.0
C1148 C 0.2266 0.27127 0.92972 0.0
C1149 C 0.20156 0.26891 0.93775 0.0
C1150 C 0.2023 0.26234 0.95497 0.0
H1151 H 0.25681 0.18906 0.99153 0.0
H1152 H 0.24229 0.20312 0.97145 0.0
H1153 H 0.27663 0.21231 0.97988 0.0
H1154 H 0.27316 0.25624 0.96347 0.0
H1155 H 0.27203 0.26715 0.93337 0.0
H1156 H 0.73758 0.20262 0.42984 0.0
H1157 H 0.74409 0.20524 0.46063 0.0
H1158 H 0.77659 0.28743 0.45692 0.0
H1159 H 0.76905 0.28546 0.42605 0.0
H1160 H 0.78612 0.21271 0.48458 0.0
H1161 H 0.7097 0.3038 0.48371 0.0
H1162 H 0.71587 0.28371 0.46499 0.0
H1163 H 0.7403 0.3092 0.47257 0.0
C1164 C 0.74653 0.2211 0.43553 0.0
C1165 C 0.75229 0.24406 0.4255 0.0
C1166 C 0.75026 0.22256 0.45317 0.0
C1167 C 0.76006 0.24686 0.4611 0.0
C1168 C 0.76815 0.26884 0.45108 0.0
H1169 H 0.75722 0.28017 0.57088 0.0
H1170 H 0.77257 0.28149 0.54191 0.0
C1171 C 0.76401 0.26759 0.43343 0.0
C1172 C 0.75956 0.24978 0.47975 0.0
H1173 H 0.72758 0.28702 0.51033 0.0
C1174 C 0.77361 0.22917 0.49022 0.0
C1175 C 0.74304 0.2712 0.48711 0.0
C1176 C 0.72616 0.2931 0.47654 0.0
C1177 C 0.77089 0.22895 0.50775 0.0
C1178 C 0.75387 0.2499 0.51495 0.0
C1179 C 0.74082 0.27117 0.50468 0.0
C1180 C 0.74646 0.24819 0.53267 0.0
C1181 C 0.78545 0.20587 0.51846 0.0
C1182 C 0.72656 0.22928 0.53686 0.0
C1183 C 0.71743 0.22887 0.55317 0.0
C1184 C 0.72827 0.24715 0.56565 0.0
C1185 C 0.74848 0.26591 0.56147 0.0
C1186 C 0.75737 0.26657 0.54503 0.0
H1187 H 0.80173 0.1942 0.51164 0.0
H1188 H 0.79535 0.21452 0.53036 0.0
H1189 H 0.76973 0.19095 0.52196 0.0
H1190 H 0.71753 0.21532 0.52737 0.0
H1191 H 0.70127 0.21474 0.55584 0.0
H1192 H 0.7984 0.73375 0.92412 0.0
H1193 H 0.80226 0.7436 0.95451 0.0
H1194 H 0.71302 0.76118 0.95316 0.0
H1195 H 0.70879 0.75113 0.92286 0.0
H1196 H 0.78412 0.79033 0.9759 0.0
H1197 H 0.72907 0.692 0.98481 0.0
H1198 H 0.74356 0.70048 0.96516 0.0
H1199 H 0.71111 0.71719 0.97059 0.0
C1200 C 0.77964 0.74021 0.9302 0.0
C1201 C 0.75321 0.74114 0.9211 0.0
C1202 C 0.78192 0.7459 0.94756 0.0
C1203 C 0.75786 0.75266 0.95607 0.0
C1204 C 0.73177 0.75561 0.94682 0.0
H1205 H 0.7515 0.78372 0.06533 0.0
H1206 H 0.74657 0.79011 0.03436 0.0
C1207 C 0.72943 0.74984 0.9295 0.0
C1208 C 0.75965 0.75363 0.97478 0.0
H1209 H 0.74192 0.71764 0.00928 0.0
C1210 C 0.77476 0.7746 0.98325 0.0
C1211 C 0.74763 0.73285 0.98426 0.0
C1212 C 0.7321 0.70919 0.97581 0.0
C1213 C 0.77826 0.77522 0.00103 0.0
C1214 C 0.76626 0.75439 0.01045 0.0
C1215 C 0.75093 0.73365 0.00197 0.0
C1216 C 0.77087 0.75233 0.02908 0.0
C1217 C 0.79545 0.79752 0.00965 0.0
C1218 C 0.786 0.72899 0.03626 0.0
C1219 C 0.78866 0.7253 0.05376 0.0
C1220 C 0.77622 0.74487 0.06442 0.0
C1221 C 0.76137 0.76847 0.0573 0.0
C1222 C 0.7587 0.77219 0.0397 0.0
H1223 H 0.80669 0.8096 0.00051 0.0
H1224 H 0.78143 0.81225 0.01626 0.0
H1225 H 0.81101 0.78802 0.01931 0.0
H1226 H 0.79532 0.71333 0.02825 0.0
H1227 H 0.79981 0.70669 0.05894 0.0
H1228 H 0.23647 0.78022 0.42479 0.0
H1229 H 0.22046 0.78184 0.45367 0.0
H1230 H 0.29365 0.73178 0.47174 0.0
H1231 H 0.3097 0.73024 0.44308 0.0
H1232 H 0.21756 0.72753 0.47911 0.0
H1233 H 0.28766 0.8139 0.4977 0.0
H1234 H 0.2739 0.80871 0.4761 0.0
H1235 H 0.30183 0.78601 0.48516 0.0
C1236 C 0.24891 0.76941 0.43496 0.0
C1237 C 0.27417 0.75498 0.43181 0.0
C1238 C 0.23974 0.77025 0.45135 0.0
C1239 C 0.2559 0.75684 0.46471 0.0
C1240 C 0.28089 0.74209 0.46151 0.0
H1241 H 0.2543 0.71029 0.5674 0.0
H1242 H 0.24801 0.71219 0.53659 0.0
C1243 C 0.28997 0.74117 0.44519 0.0
C1244 C 0.24784 0.75939 0.48229 0.0
H1245 H 0.26738 0.79062 0.51972 0.0
C1246 C 0.22805 0.74159 0.488 0.0
C1247 C 0.26139 0.77798 0.4937 0.0
C1248 C 0.28229 0.79794 0.48794 0.0
C1249 C 0.22236 0.74105 0.50516 0.0
C1250 C 0.23722 0.75848 0.51681 0.0
C1251 C 0.25599 0.77723 0.51083 0.0
C1252 C 0.23565 0.75623 0.53539 0.0
C1253 C 0.20076 0.72165 0.51064 0.0
C1254 C 0.23051 0.78027 0.54504 0.0
C1255 C 0.2345 0.77936 0.56269 0.0
C1256 C 0.24377 0.75435 0.57104 0.0
C1257 C 0.24709 0.72988 0.5614 0.0
C1258 C 0.2433 0.73088 0.54374 0.0
H1259 H 0.18485 0.71755 0.50009 0.0
H1260 H 0.2113 0.70132 0.51453 0.0
H1261 H 0.18989 0.73034 0.52153 0.0
H1262 H 0.22465 0.80007 0.53887 0.0
H1263 H 0.23157 0.79855 0.56973 0.0
H1264 H 0.20931 0.75632 0.93261 0.0
H1265 H 0.21371 0.76799 0.96268 0.0
H1266 H 0.30312 0.75128 0.9639 0.0
H1267 H 0.29904 0.74007 0.93376 0.0
H1268 H 0.23197 0.72959 0.98629 0.0
H1269 H 0.29855 0.82122 0.99277 0.0
H1270 H 0.28141 0.81102 0.97275 0.0
H1271 H 0.31379 0.79355 0.98068 0.0
C1272 C 0.23002 0.75573 0.93916 0.0
C1273 C 0.2538 0.74699 0.93079 0.0
C1274 C 0.23248 0.76245 0.95636 0.0
C1275 C 0.25874 0.76069 0.96552 0.0
C1276 C 0.28271 0.75336 0.95702 0.0
H1277 H 0.29993 0.71076 0.06775 0.0
H1278 H 0.29417 0.71774 0.03705 0.0
C1279 C 0.2803 0.74674 0.93979 0.0
C1280 C 0.26058 0.76275 0.98425 0.0
H1281 H 0.2949 0.79411 0.01809 0.0
C1282 C 0.24542 0.74402 0.99321 0.0
C1283 C 0.27799 0.78165 0.9933 0.0
C1284 C 0.29364 0.80319 0.98438 0.0
C1285 C 0.24805 0.74289 0.01093 0.0
C1286 C 0.26661 0.7607 0.01993 0.0
C1287 C 0.28091 0.78028 0.01109 0.0
C1288 C 0.27227 0.75807 0.03847 0.0
C1289 C 0.2313 0.72231 0.01992 0.0
C1290 C 0.26246 0.77881 0.04937 0.0
C1291 C 0.26583 0.77488 0.06694 0.0
C1292 C 0.27925 0.7503 0.07373 0.0
C1293 C 0.28978 0.73001 0.06278 0.0
C1294 C 0.28637 0.7339 0.04529 0.0
H1295 H 0.21339 0.71491 0.01161 0.0
H1296 H 0.24508 0.70386 0.02386 0.0
H1297 H 0.22311 0.73178 0.03148 0.0
H1298 H 0.25151 0.79759 0.04429 0.0
H1299 H 0.25755 0.79074 0.07521 0.0
H1300 H 0.29809 0.2823 0.4406 0.0
H1301 H 0.28551 0.2788 0.46993 0.0
H1302 H 0.22069 0.22244 0.45425 0.0
H1303 H 0.23313 0.22614 0.42475 0.0
H1304 H 0.20593 0.26732 0.47885 0.0
H1305 H 0.30344 0.20427 0.49759 0.0
H1306 H 0.30868 0.23596 0.48633 0.0
H1307 H 0.28984 0.20848 0.4758 0.0
C1308 C 0.28087 0.26954 0.44339 0.0
C1309 C 0.26653 0.25447 0.43052 0.0
C1310 C 0.27383 0.26741 0.46012 0.0
C1311 C 0.25238 0.25015 0.46422 0.0
C1312 C 0.23735 0.23581 0.4513 0.0
H1313 H 0.24466 0.20342 0.57009 0.0
H1314 H 0.23936 0.20068 0.5392 0.0
C1315 C 0.24447 0.23787 0.43453 0.0
C1316 C 0.24666 0.2463 0.48214 0.0
H1317 H 0.27754 0.22254 0.51989 0.0
C1318 C 0.22138 0.25727 0.48784 0.0
C1319 C 0.26668 0.23273 0.49371 0.0
C1320 C 0.2936 0.21944 0.48808 0.0
C1321 C 0.21619 0.25617 0.50506 0.0
C1322 C 0.23697 0.24404 0.5168 0.0
C1323 C 0.26165 0.23193 0.51091 0.0
C1324 C 0.23479 0.24542 0.53536 0.0
C1325 C 0.18867 0.2682 0.51054 0.0
C1326 C 0.23327 0.27146 0.54347 0.0
C1327 C 0.23626 0.27312 0.56112 0.0
C1328 C 0.24113 0.24876 0.57102 0.0
C1329 C 0.24104 0.22261 0.56288 0.0
C1330 C 0.23802 0.22099 0.54521 0.0
H1331 H 0.17202 0.26816 0.49998 0.0
H1332 H 0.18163 0.25633 0.52137 0.0
H1333 H 0.19127 0.2902 0.51456 0.0
H1334 H 0.23137 0.29062 0.53615 0.0
H1335 H 0.2362 0.29361 0.56693 0.0
H1336 H 0.76654 0.21637 0.06565 0.0
H1337 H 0.76461 0.21092 0.0346 0.0
H1338 H 0.72099 0.29143 0.02864 0.0
H1339 H 0.72295 0.29693 0.05944 0.0
H1340 H 0.71105 0.21842 0.00891 0.0
H1341 H 0.79695 0.29125 0.00241 0.0
H1342 H 0.79273 0.27256 0.0218 0.0
H1343 H 0.77029 0.3026 0.01608 0.0
C1344 C 0.75638 0.23269 0.05762 0.0
C1345 C 0.74474 0.25696 0.0648 0.0
C1346 C 0.75523 0.22956 0.04 0.0
C1347 C 0.74269 0.25082 0.02943 0.0
C1348 C 0.73073 0.27484 0.03663 0.0
H1349 H 0.68515 0.278 0.92614 0.0
H1350 H 0.68989 0.26577 0.95617 0.0
C1351 C 0.73176 0.27789 0.05417 0.0
C1352 C 0.74292 0.24883 0.01084 0.0
H1353 H 0.76995 0.27962 0.97727 0.0
C1354 C 0.72416 0.23145 0.00193 0.0
C1355 C 0.76027 0.26566 0.00187 0.0
C1356 C 0.7814 0.28396 0.01097 0.0
C1357 C 0.72148 0.23139 0.98412 0.0
C1358 C 0.73774 0.24946 0.97514 0.0
C1359 C 0.75738 0.26587 0.98414 0.0
C1360 C 0.7339 0.25302 0.9565 0.0
C1361 C 0.70116 0.21216 0.97514 0.0
C1362 C 0.75704 0.24996 0.94666 0.0
C1363 C 0.7545 0.25732 0.92954 0.0
C1364 C 0.72874 0.26794 0.9219 0.0
C1365 C 0.70527 0.26981 0.9316 0.0
C1366 C 0.70789 0.26261 0.94877 0.0
H1367 H 0.69745 0.19385 0.98315 0.0
H1368 H 0.68073 0.22369 0.97233 0.0
H1369 H 0.70889 0.20454 0.96301 0.0
H1370 H 0.77733 0.2427 0.95238 0.0
H1371 H 0.77297 0.25545 0.92244 0.0
H1372 H 0.76603 0.69508 0.42366 0.0
H1373 H 0.77047 0.69262 0.45459 0.0
H1374 H 0.76572 0.78262 0.45723 0.0
H1375 H 0.7619 0.78537 0.42643 0.0
H1376 H 0.80222 0.75817 0.48279 0.0
H1377 H 0.69832 0.70974 0.47799 0.0
H1378 H 0.72551 0.69105 0.46761 0.0
H1379 H 0.7129 0.72497 0.45998 0.0
C1380 C 0.76649 0.71436 0.43079 0.0
C1381 C 0.76297 0.74041 0.42252 0.0
C1382 C 0.76895 0.7129 0.44848 0.0
C1383 C 0.76769 0.73743 0.45817 0.0
C1384 C 0.76653 0.76343 0.44998 0.0
H1385 H 0.69641 0.77049 0.55188 0.0
H1386 H 0.71054 0.76801 0.52281 0.0
C1387 C 0.76426 0.76493 0.43233 0.0
C1388 C 0.76445 0.73633 0.47662 0.0
H1389 H 0.71838 0.71861 0.50527 0.0
C1390 C 0.78407 0.74928 0.48777 0.0
C1391 C 0.74048 0.72507 0.483 0.0
C1392 C 0.71793 0.71212 0.47156 0.0
C1393 C 0.78009 0.75169 0.50514 0.0
C1394 C 0.75604 0.74057 0.51145 0.0
C1395 C 0.73681 0.72707 0.50036 0.0
C1396 C 0.74927 0.74407 0.5293 0.0
C1397 C 0.80099 0.76708 0.51645 0.0
C1398 C 0.76653 0.7317 0.5426 0.0
C1399 C 0.75858 0.73337 0.55923 0.0
C1400 C 0.7332 0.74724 0.56272 0.0
C1401 C 0.71624 0.76 0.54947 0.0
C1402 C 0.72421 0.75844 0.5329 0.0
H1403 H 0.81509 0.77928 0.50906 0.0
H1404 H 0.79008 0.78151 0.52504 0.0
H1405 H 0.81413 0.75175 0.52439 0.0
H1406 H 0.7857 0.7201 0.54006 0.0
H1407 H 0.77187 0.7233 0.56932 0.0
H1408 H 0.58918 0.33761 0.12452 0.0
H1409 H 0.54065 0.32579 0.12749 0.0
H1410 H 0.56437 0.23812 0.12507 0.0
H1411 H 0.61301 0.2497 0.12161 0.0
H1412 H 0.50974 0.2796 0.1011 0.0
H1413 H 0.51635 0.26304 0.17098 0.0
H1414 H 0.53796 0.28817 0.16186 0.0
H1415 H 0.54472 0.2516 0.15843 0.0
C1416 C 0.58418 0.31578 0.12468 0.0
C1417 C 0.60516 0.2946 0.12317 0.0
C1418 C 0.55646 0.3091 0.12641 0.0
C1419 C 0.54912 0.28114 0.12663 0.0
C1420 C 0.56983 0.25984 0.12512 0.0
H1421 H 0.3806 0.2314 0.14765 0.0
H1422 H 0.43103 0.2295 0.14387 0.0
C1423 C 0.59768 0.26651 0.12334 0.0
C1424 C 0.51948 0.27463 0.12791 0.0
H1425 H 0.47134 0.26409 0.15666 0.0
C1426 C 0.50131 0.27583 0.11319 0.0
C1427 C 0.50877 0.26953 0.14368 0.0
C1428 C 0.52781 0.26792 0.15973 0.0
C1429 C 0.47237 0.27289 0.11391 0.0
C1430 C 0.46134 0.26935 0.12983 0.0
C1431 C 0.47977 0.26695 0.14447 0.0
C1432 C 0.43068 0.26993 0.13168 0.0
C1433 C 0.45392 0.27378 0.0976 0.0
C1434 C 0.41382 0.29342 0.12628 0.0
C1435 C 0.38508 0.29451 0.12833 0.0
C1436 C 0.37259 0.27228 0.13606 0.0
C1437 C 0.38954 0.24885 0.14162 0.0
C1438 C 0.41836 0.24772 0.13948 0.0
H1439 H 0.4659 0.26722 0.08666 0.0
H1440 H 0.4359 0.26008 0.09824 0.0
H1441 H 0.44563 0.29553 0.0952 0.0
H1442 H 0.42297 0.31114 0.12066 0.0
H1443 H 0.37273 0.31298 0.12402 0.0
H1444 H 0.66444 0.36968 0.62864 0.0
H1445 H 0.66617 0.42039 0.62659 0.0
H1446 H 0.75414 0.41238 0.61807 0.0
H1447 H 0.75279 0.36145 0.62071 0.0
H1448 H 0.7436 0.45531 0.63906 0.0
H1449 H 0.66772 0.46231 0.58288 0.0
H1450 H 0.6533 0.44569 0.60032 0.0
H1451 H 0.68298 0.42939 0.59086 0.0
C1452 C 0.68419 0.37868 0.62634 0.0
C1453 C 0.70843 0.36156 0.62467 0.0
C1454 C 0.6851 0.40768 0.62509 0.0
C1455 C 0.71011 0.42015 0.62174 0.0
C1456 C 0.73456 0.40318 0.62053 0.0
H1457 H 0.70056 0.59166 0.58547 0.0
H1458 H 0.71109 0.54142 0.58856 0.0
C1459 C 0.73376 0.3741 0.62202 0.0
C1460 C 0.7105 0.45087 0.6194 0.0
H1461 H 0.67704 0.50514 0.59725 0.0
C1462 C 0.72926 0.46624 0.62981 0.0
C1463 C 0.6922 0.46506 0.60708 0.0
C1464 C 0.67315 0.44972 0.59453 0.0
C1465 C 0.72958 0.49551 0.62859 0.0
C1466 C 0.71005 0.50982 0.61698 0.0
C1467 C 0.69186 0.4943 0.60628 0.0
C1468 C 0.70764 0.54081 0.61568 0.0
C1469 C 0.75109 0.51067 0.6396 0.0
C1470 C 0.70274 0.55739 0.62992 0.0
C1471 C 0.69733 0.58625 0.62819 0.0
C1472 C 0.69612 0.59884 0.61215 0.0
C1473 C 0.70147 0.58239 0.59798 0.0
C1474 C 0.70744 0.55371 0.59974 0.0
H1475 H 0.76981 0.49682 0.6432 0.0
H1476 H 0.75799 0.52942 0.63311 0.0
H1477 H 0.74178 0.51744 0.65143 0.0
H1478 H 0.70188 0.54791 0.64226 0.0
H1479 H 0.69263 0.59844 0.63924 0.0
H1480 H 0.66208 0.77376 0.1459 0.0
H1481 H 0.61094 0.77563 0.1466 0.0
H1482 H 0.60584 0.70537 0.11257 0.0
H1483 H 0.65678 0.70346 0.11163 0.0
H1484 H 0.56471 0.74932 0.10487 0.0
H1485 H 0.57009 0.71652 0.17249 0.0
H1486 H 0.58915 0.74674 0.16781 0.0
H1487 H 0.59994 0.71314 0.15988 0.0
C1488 C 0.65006 0.75885 0.13844 0.0
C1489 C 0.66354 0.73828 0.12883 0.0
C1490 C 0.62087 0.75989 0.13892 0.0
C1491 C 0.6047 0.74038 0.12983 0.0
C1492 C 0.61798 0.72055 0.11972 0.0
H1493 H 0.44721 0.6697 0.13807 0.0
H1494 H 0.49604 0.6827 0.13854 0.0
C1495 C 0.64711 0.71946 0.11924 0.0
C1496 C 0.57405 0.73969 0.13127 0.0
H1497 H 0.5252 0.72354 0.15858 0.0
C1498 C 0.55597 0.74402 0.11664 0.0
C1499 C 0.56285 0.73253 0.14664 0.0
C1500 C 0.58143 0.72674 0.16261 0.0
C1501 C 0.52699 0.74076 0.11688 0.0
C1502 C 0.51585 0.73323 0.1322 0.0
C1503 C 0.53384 0.72955 0.14691 0.0
C1504 C 0.48608 0.72632 0.13282 0.0
C1505 C 0.50867 0.74414 0.1006 0.0
C1506 C 0.46429 0.74667 0.1297 0.0
C1507 C 0.43627 0.73927 0.12943 0.0
C1508 C 0.42969 0.71144 0.13237 0.0
C1509 C 0.45163 0.69131 0.13578 0.0
C1510 C 0.47952 0.69871 0.13611 0.0
H1511 H 0.52118 0.74544 0.08938 0.0
H1512 H 0.49457 0.72639 0.09882 0.0
H1513 H 0.49535 0.76362 0.10118 0.0
H1514 H 0.46896 0.76814 0.12723 0.0
H1515 H 0.41992 0.75513 0.12632 0.0
H1516 H 0.21137 0.38163 0.59078 0.0
H1517 H 0.21146 0.43271 0.59244 0.0
H1518 H 0.27241 0.42665 0.63534 0.0
H1519 H 0.27227 0.37569 0.63393 0.0
H1520 H 0.22837 0.46735 0.63898 0.0
H1521 H 0.27738 0.47756 0.57787 0.0
H1522 H 0.24567 0.45869 0.57707 0.0
H1523 H 0.27664 0.4446 0.58881 0.0
C1524 C 0.22468 0.39116 0.60063 0.0
C1525 C 0.24202 0.37457 0.61212 0.0
C1526 C 0.22477 0.42034 0.60151 0.0
C1527 C 0.24224 0.43342 0.61386 0.0
C1528 C 0.25885 0.41695 0.62568 0.0
H1529 H 0.31446 0.59268 0.62105 0.0
H1530 H 0.30239 0.54385 0.61784 0.0
C1531 C 0.2588 0.38781 0.62481 0.0
C1532 C 0.24404 0.46424 0.61424 0.0
H1533 H 0.26684 0.51919 0.59238 0.0
C1534 C 0.23652 0.47878 0.62874 0.0
C1535 C 0.25496 0.47897 0.60091 0.0
C1536 C 0.26437 0.46423 0.58532 0.0
C1537 C 0.24005 0.50765 0.63039 0.0
C1538 C 0.25109 0.52234 0.6171 0.0
C1539 C 0.25816 0.50787 0.60248 0.0
C1540 C 0.25774 0.55221 0.61868 0.0
C1541 C 0.233 0.52202 0.64661 0.0
C1542 C 0.23657 0.57315 0.62008 0.0
C1543 C 0.24344 0.60119 0.62195 0.0
C1544 C 0.27156 0.60868 0.62231 0.0
C1545 C 0.2926 0.5876 0.62079 0.0
C1546 C 0.28574 0.5597 0.6189 0.0
H1547 H 0.22965 0.50682 0.65677 0.0
H1548 H 0.24999 0.53583 0.65118 0.0
H1549 H 0.21347 0.53521 0.64421 0.0
H1550 H 0.2148 0.5678 0.61983 0.0
H1551 H 0.2268 0.61676 0.62356 0.0
H1552 H 0.62301 0.77506 0.89697 0.0
H1553 H 0.57175 0.77679 0.89678 0.0
H1554 H 0.56836 0.70755 0.86193 0.0
H1555 H 0.61947 0.70575 0.86192 0.0
H1556 H 0.52784 0.75283 0.85395 0.0
H1557 H 0.52897 0.71627 0.92073 0.0
H1558 H 0.54896 0.74631 0.91702 0.0
H1559 H 0.55948 0.71294 0.90866 0.0
C1560 C 0.61136 0.76032 0.88918 0.0
C1561 C 0.62534 0.7401 0.87958 0.0
C1562 C 0.58209 0.76129 0.88913 0.0
C1563 C 0.56636 0.74208 0.8795 0.0
C1564 C 0.58017 0.7225 0.86948 0.0
H1565 H 0.4068 0.67336 0.88288 0.0
H1566 H 0.45598 0.68531 0.88405 0.0
C1567 C 0.60939 0.72146 0.86954 0.0
C1568 C 0.53557 0.74154 0.88023 0.0
H1569 H 0.48485 0.7245 0.90604 0.0
C1570 C 0.51834 0.74697 0.86537 0.0
C1571 C 0.52339 0.73364 0.89514 0.0
C1572 C 0.54106 0.72673 0.9113 0.0
C1573 C 0.48921 0.74415 0.86494 0.0
C1574 C 0.47709 0.7359 0.87979 0.0
C1575 C 0.49425 0.73106 0.89473 0.0
C1576 C 0.4471 0.72949 0.87965 0.0
C1577 C 0.47174 0.74884 0.84844 0.0
C1578 C 0.42581 0.75046 0.87696 0.0
C1579 C 0.39758 0.74367 0.87629 0.0
C1580 C 0.3903 0.71582 0.87838 0.0
C1581 C 0.41175 0.695 0.88123 0.0
C1582 C 0.43984 0.7018 0.88197 0.0
H1583 H 0.48489 0.75093 0.83757 0.0
H1584 H 0.45761 0.7313 0.84589 0.0
H1585 H 0.45846 0.7683 0.84932 0.0
H1586 H 0.43104 0.77199 0.87521 0.0
H1587 H 0.3816 0.76007 0.87364 0.0
H1588 H 0.25306 0.38359 0.34625 0.0
H1589 H 0.25374 0.43464 0.34797 0.0
H1590 H 0.31434 0.42781 0.39102 0.0
H1591 H 0.31357 0.37689 0.38957 0.0
H1592 H 0.27129 0.46953 0.39443 0.0
H1593 H 0.32066 0.47772 0.3333 0.0
H1594 H 0.28843 0.45971 0.33256 0.0
H1595 H 0.31906 0.44494 0.34433 0.0
C1596 C 0.26636 0.39294 0.35618 0.0
C1597 C 0.28348 0.37615 0.36767 0.0
C1598 C 0.26681 0.42211 0.35708 0.0
C1599 C 0.28442 0.43496 0.36945 0.0
C1600 C 0.30068 0.41829 0.38134 0.0
H1601 H 0.36163 0.59145 0.37702 0.0
H1602 H 0.34785 0.54315 0.37357 0.0
C1603 C 0.30026 0.38917 0.38045 0.0
C1604 C 0.28693 0.46571 0.36971 0.0
H1605 H 0.31141 0.51968 0.34775 0.0
C1606 C 0.27978 0.4806 0.38417 0.0
C1607 C 0.29828 0.47996 0.35635 0.0
C1608 C 0.30729 0.46483 0.34079 0.0
C1609 C 0.28415 0.50934 0.38575 0.0
C1610 C 0.2957 0.52352 0.37244 0.0
C1611 C 0.30234 0.50874 0.35786 0.0
C1612 C 0.30338 0.5531 0.37401 0.0
C1613 C 0.27748 0.52407 0.40191 0.0
C1614 C 0.2829 0.57476 0.37523 0.0
C1615 C 0.29075 0.60249 0.37721 0.0
C1616 C 0.31919 0.60894 0.37788 0.0
C1617 C 0.33955 0.58716 0.37651 0.0
C1618 C 0.33171 0.55957 0.37449 0.0
H1619 H 0.27335 0.50914 0.41207 0.0
H1620 H 0.29502 0.53717 0.40655 0.0
H1621 H 0.25851 0.53805 0.39942 0.0
H1622 H 0.2609 0.5702 0.37479 0.0
H1623 H 0.2746 0.61862 0.3787 0.0
H1624 H 0.34289 0.30206 0.86529 0.0
H1625 H 0.39337 0.30047 0.86237 0.0
H1626 H 0.40609 0.24246 0.90411 0.0
H1627 H 0.35554 0.24415 0.90728 0.0
H1628 H 0.44066 0.28728 0.90725 0.0
H1629 H 0.44495 0.23946 0.84371 0.0
H1630 H 0.42064 0.26906 0.84399 0.0
H1631 H 0.4145 0.23814 0.8558 0.0
C1632 C 0.35635 0.28873 0.87376 0.0
C1633 C 0.34516 0.27326 0.88654 0.0
C1634 C 0.38521 0.28769 0.87198 0.0
C1635 C 0.40345 0.27104 0.88287 0.0
C1636 C 0.39234 0.25529 0.8955 0.0
H1637 H 0.58409 0.25382 0.869 0.0
H1638 H 0.53571 0.24249 0.87347 0.0
C1639 C 0.36345 0.25628 0.89728 0.0
C1640 C 0.43422 0.27171 0.88179 0.0
H1641 H 0.4859 0.26277 0.85451 0.0
C1642 C 0.45061 0.28157 0.89579 0.0
C1643 C 0.44725 0.26394 0.86691 0.0
C1644 C 0.43098 0.25178 0.8518 0.0
C1645 C 0.47945 0.28508 0.89506 0.0
C1646 C 0.49214 0.27886 0.87985 0.0
C1647 C 0.47605 0.26777 0.8661 0.0
C1648 C 0.52165 0.28533 0.87767 0.0
C1649 C 0.49606 0.2957 0.91051 0.0
C1650 C 0.52965 0.31315 0.87835 0.0
C1651 C 0.5572 0.31963 0.87591 0.0
C1652 C 0.5774 0.29841 0.8728 0.0
C1653 C 0.56931 0.27054 0.87193 0.0
C1654 C 0.5416 0.26406 0.8743 0.0
H1655 H 0.48545 0.29195 0.92226 0.0
H1656 H 0.51743 0.28558 0.91184 0.0
H1657 H 0.49817 0.31857 0.90924 0.0
H1658 H 0.51445 0.32993 0.88058 0.0
H1659 H 0.56272 0.34132 0.87652 0.0
H1660 H 0.71054 0.37051 0.36927 0.0
H1661 H 0.71295 0.42131 0.36884 0.0
H1662 H 0.80044 0.41419 0.38633 0.0
H1663 H 0.7983 0.36311 0.38684 0.0
H1664 H 0.73111 0.45535 0.39857 0.0
H1665 H 0.79543 0.46685 0.34335 0.0
H1666 H 0.77609 0.43595 0.3465 0.0
H1667 H 0.80755 0.44181 0.35951 0.0
C1668 C 0.73038 0.37965 0.37293 0.0
C1669 C 0.75424 0.36272 0.37811 0.0
C1670 C 0.73169 0.4087 0.3727 0.0
C1671 C 0.75688 0.42143 0.37747 0.0
C1672 C 0.78087 0.40469 0.38244 0.0
H1673 H 0.78268 0.60214 0.37352 0.0
H1674 H 0.79143 0.55178 0.37854 0.0
C1675 C 0.77957 0.37554 0.38277 0.0
C1676 C 0.75748 0.45229 0.37773 0.0
H1677 H 0.77948 0.50815 0.35638 0.0
C1678 C 0.74188 0.46693 0.38945 0.0
C1679 C 0.7718 0.46724 0.36593 0.0
C1680 C 0.78861 0.45232 0.35301 0.0
C1681 C 0.73962 0.49623 0.38942 0.0
C1682 C 0.75278 0.51122 0.37708 0.0
C1683 C 0.76934 0.4966 0.36579 0.0
C1684 C 0.74774 0.54181 0.37483 0.0
C1685 C 0.72299 0.51084 0.40256 0.0
C1686 C 0.72037 0.55279 0.37089 0.0
C1687 C 0.71535 0.58141 0.36823 0.0
C1688 C 0.73757 0.59968 0.36946 0.0
C1689 C 0.76505 0.58867 0.37313 0.0
C1690 C 0.7701 0.55991 0.3758 0.0
H1691 H 0.72222 0.49766 0.41404 0.0
H1692 H 0.73202 0.53107 0.40637 0.0
H1693 H 0.70112 0.51504 0.39721 0.0
H1694 H 0.70289 0.53914 0.36961 0.0
H1695 H 0.694 0.58928 0.36517 0.0
H1696 H 0.27501 0.20934 0.3238 0.0
H1697 H 0.26182 0.20805 0.29333 0.0
H1698 H 0.27591 0.29615 0.28975 0.0
H1699 H 0.28797 0.29786 0.32015 0.0
H1700 H 0.23044 0.28336 0.2707 0.0
H1701 H 0.31762 0.20757 0.258 0.0
H1702 H 0.29344 0.19495 0.27215 0.0
H1703 H 0.31474 0.22379 0.27838 0.0
C1704 C 0.27508 0.22847 0.31653 0.0
C1705 C 0.28277 0.25366 0.32439 0.0
C1706 C 0.26773 0.22765 0.29909 0.0
C1707 C 0.26852 0.25186 0.28917 0.0
C1708 C 0.27525 0.27717 0.29712 0.0
H1709 H 0.29893 0.27801 0.18649 0.0
H1710 H 0.29955 0.26725 0.21656 0.0
C1711 C 0.28218 0.2781 0.31453 0.0
C1712 C 0.26315 0.25109 0.27046 0.0
H1713 H 0.28806 0.22311 0.23453 0.0
C1714 C 0.24288 0.27004 0.26277 0.0
C1715 C 0.27959 0.23384 0.26014 0.0
C1716 C 0.30274 0.21406 0.26754 0.0
C1717 C 0.23929 0.27302 0.2451 0.0
C1718 C 0.25577 0.25581 0.23478 0.0
C1719 C 0.27531 0.23613 0.24245 0.0
C1720 C 0.2552 0.25989 0.21616 0.0
C1721 C 0.21898 0.29564 0.23777 0.0
C1722 C 0.23019 0.25855 0.20577 0.0
C1723 C 0.22967 0.26515 0.18853 0.0
C1724 C 0.25429 0.27264 0.18133 0.0
C1725 C 0.27957 0.27239 0.1916 0.0
C1726 C 0.27997 0.2662 0.20883 0.0
H1727 H 0.21318 0.31117 0.24749 0.0
H1728 H 0.228 0.30687 0.22734 0.0
H1729 H 0.19948 0.28604 0.2326 0.0
H1730 H 0.21098 0.25293 0.21104 0.0
H1731 H 0.20992 0.26481 0.18092 0.0
H1732 H 0.74769 0.22318 0.81741 0.0
H1733 H 0.74724 0.21249 0.787 0.0
H1734 H 0.68917 0.28268 0.77609 0.0
H1735 H 0.68994 0.29367 0.80632 0.0
H1736 H 0.67576 0.23003 0.75889 0.0
H1737 H 0.7846 0.26295 0.75224 0.0
H1738 H 0.77952 0.2385 0.76886 0.0
H1739 H 0.76493 0.27354 0.76994 0.0
C1740 C 0.73479 0.2362 0.80847 0.0
C1741 C 0.71878 0.25915 0.81414 0.0
C1742 C 0.73459 0.23013 0.79117 0.0
C1743 C 0.71833 0.24695 0.77935 0.0
C1744 C 0.7018 0.26945 0.78505 0.0
H1745 H 0.71201 0.28292 0.67425 0.0
H1746 H 0.71985 0.2809 0.70504 0.0
C1747 C 0.70213 0.2756 0.80229 0.0
C1748 C 0.71877 0.24166 0.76097 0.0
H1749 H 0.75913 0.24806 0.72752 0.0
C1750 C 0.69405 0.23361 0.75202 0.0
C1751 C 0.74265 0.24665 0.75212 0.0
C1752 C 0.76946 0.25606 0.76118 0.0
C1753 C 0.69238 0.23091 0.73434 0.0
C1754 C 0.71616 0.2362 0.72544 0.0
C1755 C 0.74106 0.24378 0.73443 0.0
C1756 C 0.71469 0.23637 0.70671 0.0
C1757 C 0.66486 0.22356 0.72522 0.0
C1758 C 0.71011 0.2118 0.69744 0.0
C1759 C 0.70562 0.21285 0.67979 0.0
C1760 C 0.70561 0.23852 0.67115 0.0
C1761 C 0.71167 0.26283 0.68048 0.0
C1762 C 0.71622 0.26173 0.69809 0.0
H1763 H 0.64734 0.22475 0.73368 0.0
H1764 H 0.65952 0.23777 0.71427 0.0
H1765 H 0.66672 0.20191 0.72029 0.0
H1766 H 0.70924 0.19197 0.70389 0.0
H1767 H 0.70117 0.1937 0.67301 0.0
H1768 H 0.74474 0.74445 0.17315 0.0
H1769 H 0.74663 0.75345 0.20351 0.0
H1770 H 0.83411 0.72677 0.20815 0.0
H1771 H 0.83261 0.71819 0.17763 0.0
H1772 H 0.75864 0.71233 0.22724 0.0
H1773 H 0.83349 0.79735 0.23708 0.0
H1774 H 0.81736 0.7889 0.21646 0.0
H1775 H 0.8464 0.76761 0.22567 0.0
C1776 C 0.76455 0.74095 0.18054 0.0
C1777 C 0.78849 0.73043 0.17296 0.0
C1778 C 0.76557 0.74611 0.19791 0.0
C1779 C 0.79053 0.74092 0.20808 0.0
C1780 C 0.81476 0.73141 0.2005 0.0
H1781 H 0.81548 0.72798 0.31849 0.0
H1782 H 0.82288 0.72653 0.28803 0.0
C1783 C 0.81381 0.72638 0.18305 0.0
C1784 C 0.79023 0.74295 0.22674 0.0
H1785 H 0.81849 0.77619 0.26179 0.0
C1786 C 0.7717 0.72635 0.23477 0.0
C1787 C 0.80746 0.76108 0.23655 0.0
C1788 C 0.82716 0.77995 0.22853 0.0
C1789 C 0.76976 0.72752 0.25231 0.0
C1790 C 0.78665 0.74589 0.26208 0.0
C1791 C 0.80561 0.76214 0.25418 0.0
C1792 C 0.78383 0.74909 0.28042 0.0
C1793 C 0.74961 0.70912 0.26035 0.0
C1794 C 0.75972 0.76266 0.28609 0.0
C1795 C 0.75552 0.76347 0.30333 0.0
C1796 C 0.77538 0.75073 0.31513 0.0
C1797 C 0.79993 0.73787 0.30953 0.0
C1798 C 0.80419 0.73714 0.29223 0.0
H1799 H 0.74191 0.69253 0.25159 0.0
H1800 H 0.75976 0.69913 0.27202 0.0
H1801 H 0.73125 0.72212 0.26399 0.0
H1802 H 0.74383 0.77199 0.27711 0.0
H1803 H 0.73635 0.77332 0.30741 0.0
H1804 H 0.20229 0.77915 0.82246 0.0
H1805 H 0.19618 0.78446 0.79147 0.0
H1806 H 0.25621 0.7158 0.78592 0.0
H1807 H 0.26171 0.71 0.81664 0.0
H1808 H 0.2364 0.79508 0.7684 0.0
H1809 H 0.18877 0.69342 0.75502 0.0
H1810 H 0.19137 0.70861 0.77594 0.0
H1811 H 0.22104 0.68975 0.76804 0.0
C1812 C 0.21407 0.76523 0.81454 0.0
C1813 C 0.23263 0.74434 0.82186 0.0
C1814 C 0.2106 0.76827 0.79692 0.0
C1815 C 0.22541 0.75023 0.78642 0.0
C1816 C 0.24419 0.7296 0.79378 0.0
H1817 H 0.27199 0.72718 0.68689 0.0
H1818 H 0.26335 0.7275 0.71694 0.0
C1819 C 0.24762 0.72656 0.81133 0.0
C1820 C 0.22199 0.7531 0.76775 0.0
H1821 H 0.20866 0.71539 0.73165 0.0
C1822 C 0.2298 0.7779 0.76033 0.0
C1823 C 0.21317 0.7307 0.75727 0.0
C1824 C 0.20283 0.70423 0.76447 0.0
C1825 C 0.23071 0.78021 0.74269 0.0
C1826 C 0.22345 0.7572 0.73233 0.0
C1827 C 0.21436 0.73293 0.73969 0.0
C1828 C 0.2277 0.75689 0.71404 0.0
C1829 C 0.24078 0.80662 0.73527 0.0
C1830 C 0.21027 0.77314 0.70249 0.0
C1831 C 0.21496 0.77269 0.68524 0.0
C1832 C 0.23713 0.75602 0.67939 0.0
C1833 C 0.25442 0.73977 0.69102 0.0
C1834 C 0.24964 0.74008 0.70817 0.0
H1835 H 0.24805 0.82162 0.7452 0.0
H1836 H 0.25824 0.80155 0.72715 0.0
H1837 H 0.22345 0.81697 0.72716 0.0
H1838 H 0.19311 0.78609 0.70681 0.0
H1839 H 0.20135 0.78536 0.67647 0.0
H1840 H 0.75136 0.78034 0.81016 0.0
H1841 H 0.74773 0.78095 0.77899 0.0
H1842 H 0.70938 0.70102 0.77849 0.0
H1843 H 0.71249 0.70075 0.80947 0.0
H1844 H 0.77094 0.74389 0.75698 0.0
H1845 H 0.65505 0.74633 0.74678 0.0
H1846 H 0.6729 0.75332 0.76713 0.0
H1847 H 0.66871 0.71789 0.76009 0.0
C1848 C 0.74186 0.76317 0.80329 0.0
C1849 C 0.73181 0.74071 0.81203 0.0
C1850 C 0.73988 0.76345 0.78557 0.0
C1851 C 0.72783 0.74126 0.77643 0.0
C1852 C 0.71805 0.71871 0.78526 0.0
H1853 H 0.70232 0.69491 0.67087 0.0
H1854 H 0.71127 0.69444 0.70173 0.0
C1855 C 0.71987 0.71852 0.80291 0.0
C1856 C 0.72623 0.74111 0.75768 0.0
H1857 H 0.68061 0.73552 0.72271 0.0
C1858 C 0.75118 0.74227 0.74947 0.0
C1859 C 0.7004 0.73903 0.74792 0.0
C1860 C 0.67273 0.73936 0.75592 0.0
C1861 C 0.75103 0.74079 0.73176 0.0
C1862 C 0.72528 0.73814 0.72209 0.0
C1863 C 0.70034 0.73719 0.73025 0.0
C1864 C 0.72345 0.73737 0.70339 0.0
C1865 C 0.77834 0.74161 0.72347 0.0
C1866 C 0.72778 0.76156 0.69419 0.0
C1867 C 0.72253 0.76199 0.67661 0.0
C1868 C 0.71287 0.73818 0.66793 0.0
C1869 C 0.7098 0.71356 0.67715 0.0
C1870 C 0.71483 0.71326 0.69477 0.0
H1871 H 0.79677 0.73849 0.73277 0.0
H1872 H 0.7794 0.72531 0.71352 0.0
H1873 H 0.77965 0.76225 0.71729 0.0
H1874 H 0.73413 0.78045 0.70067 0.0
H1875 H 0.72518 0.78126 0.66989 0.0
H1876 H 0.33412 0.74114 0.1849 0.0
H1877 H 0.33676 0.74993 0.21544 0.0
H1878 H 0.24732 0.74215 0.21555 0.0
H1879 H 0.24432 0.7345 0.18511 0.0
H1880 H 0.26386 0.78292 0.23605 0.0
H1881 H 0.33296 0.68826 0.24938 0.0
H1882 H 0.34777 0.71302 0.23602 0.0
H1883 H 0.31641 0.69594 0.22861 0.0
C1884 C 0.31499 0.74162 0.19141 0.0
C1885 C 0.28906 0.7368 0.18257 0.0
C1886 C 0.31655 0.74642 0.20888 0.0
C1887 C 0.29234 0.74593 0.21786 0.0
C1888 C 0.26632 0.74243 0.20893 0.0
H1889 H 0.2928 0.71126 0.32527 0.0
H1890 H 0.28595 0.71025 0.29437 0.0
C1891 C 0.26466 0.73802 0.19148 0.0
C1892 C 0.29395 0.74807 0.2366 0.0
H1893 H 0.32405 0.71731 0.27273 0.0
C1894 C 0.27701 0.76857 0.24409 0.0
C1895 C 0.31064 0.72893 0.24707 0.0
C1896 C 0.32775 0.70512 0.23989 0.0
C1897 C 0.2764 0.77057 0.26175 0.0
C1898 C 0.29389 0.75211 0.27221 0.0
C1899 C 0.31074 0.73156 0.26471 0.0
C1900 C 0.29529 0.75364 0.29098 0.0
C1901 C 0.25645 0.79195 0.26895 0.0
C1902 C 0.30244 0.77844 0.29937 0.0
C1903 C 0.3059 0.77919 0.31703 0.0
C1904 C 0.3029 0.75497 0.32665 0.0
C1905 C 0.29529 0.73026 0.31823 0.0
C1906 C 0.29143 0.72964 0.30057 0.0
H1907 H 0.23863 0.79775 0.25963 0.0
H1908 H 0.24792 0.7841 0.28061 0.0
H1909 H 0.26777 0.81121 0.27214 0.0
H1910 H 0.30629 0.79701 0.29227 0.0
H1911 H 0.31206 0.79849 0.3231 0.0
H1912 H 0.19314 0.23104 0.67566 0.0
H1913 H 0.18375 0.23224 0.70581 0.0
H1914 H 0.2492 0.29057 0.71544 0.0
H1915 H 0.25892 0.289 0.68556 0.0
H1916 H 0.22488 0.21857 0.73395 0.0
H1917 H 0.18004 0.32703 0.73726 0.0
H1918 H 0.18148 0.30804 0.71758 0.0
H1919 H 0.21221 0.32403 0.72693 0.0
C1920 C 0.20533 0.2442 0.68426 0.0
C1921 C 0.22659 0.26008 0.67836 0.0
C1922 C 0.19996 0.2449 0.7014 0.0
C1923 C 0.21554 0.26178 0.71276 0.0
C1924 C 0.23659 0.27783 0.7068 0.0
H1925 H 0.24737 0.3016 0.81637 0.0
H1926 H 0.2439 0.29606 0.7856 0.0
C1927 C 0.24208 0.27697 0.68976 0.0
C1928 C 0.21107 0.26179 0.73104 0.0
H1929 H 0.19619 0.30536 0.76359 0.0
C1930 C 0.21815 0.23736 0.74045 0.0
C1931 C 0.20227 0.28636 0.7394 0.0
C1932 C 0.1933 0.31281 0.72977 0.0
C1933 C 0.2182 0.23732 0.7582 0.0
C1934 C 0.2105 0.26225 0.76662 0.0
C1935 C 0.20224 0.28631 0.7571 0.0
C1936 C 0.21283 0.26453 0.78532 0.0
C1937 C 0.22787 0.21105 0.76783 0.0
C1938 C 0.19651 0.2486 0.79538 0.0
C1939 C 0.19874 0.25153 0.81301 0.0
C1940 C 0.21718 0.27052 0.82078 0.0
C1941 C 0.23338 0.28645 0.81069 0.0
C1942 C 0.23123 0.28348 0.79313 0.0
H1943 H 0.2383 0.19547 0.7597 0.0
H1944 H 0.24267 0.21595 0.7788 0.0
H1945 H 0.20948 0.20136 0.77277 0.0
H1946 H 0.18182 0.23422 0.78958 0.0
H1947 H 0.18593 0.23917 0.82059 0.0
H1948 H 0.79252 0.26831 0.31855 0.0
H1949 H 0.79687 0.27073 0.28784 0.0
H1950 H 0.72462 0.22045 0.2792 0.0
H1951 H 0.71994 0.2184 0.30974 0.0
H1952 H 0.77315 0.20591 0.25907 0.0
H1953 H 0.73725 0.31815 0.25673 0.0
H1954 H 0.76587 0.30862 0.27194 0.0
H1955 H 0.73175 0.29577 0.2744 0.0
C1956 C 0.77779 0.25761 0.31005 0.0
C1957 C 0.756 0.24308 0.31644 0.0
C1958 C 0.78026 0.25899 0.29258 0.0
C1959 C 0.76097 0.24586 0.28132 0.0
C1960 C 0.73977 0.23058 0.28772 0.0
H1961 H 0.71128 0.27665 0.17623 0.0
H1962 H 0.71389 0.26656 0.20655 0.0
C1963 C 0.73721 0.22933 0.30515 0.0
C1964 C 0.7617 0.24932 0.26281 0.0
H1965 H 0.7486 0.29724 0.23105 0.0
C1966 C 0.76798 0.22587 0.25291 0.0
C1967 C 0.75456 0.27535 0.25488 0.0
C1968 C 0.74676 0.30095 0.26495 0.0
C1969 C 0.76735 0.22783 0.23518 0.0
C1970 C 0.7603 0.25389 0.22728 0.0
C1971 C 0.75406 0.27731 0.2372 0.0
C1972 C 0.75866 0.25737 0.20867 0.0
C1973 C 0.77357 0.20197 0.22498 0.0
C1974 C 0.78297 0.25523 0.19983 0.0
C1975 C 0.78161 0.26107 0.18249 0.0
C1976 C 0.75588 0.2692 0.1737 0.0
C1977 C 0.73144 0.27046 0.18256 0.0
C1978 C 0.73287 0.26475 0.1999 0.0
H1979 H 0.77357 0.18261 0.2327 0.0
H1980 H 0.75793 0.20038 0.21398 0.0
H1981 H 0.79455 0.2033 0.22003 0.0
H1982 H 0.80312 0.24988 0.20644 0.0
H1983 H 0.80084 0.25989 0.17607 0.0
loop_
_geom_bond_atom_site_label_1
_geom_bond_atom_site_label_2
_geom_bond_distance
_geom_bond_site_symmetry_2
_ccdc_geom_bond_type
Co0 O3 1.970 . S
Co0 N17 1.989 . S
Co0 O25 1.967 . S
Co0 O32 1.920 . S
Co1 O4 1.966 . S
Co1 N10 2.022 . S
Co1 N18 1.993 . S
Co1 O26 1.941 . S
C2 O3 1.258 . S
C2 O4 1.263 . S
O3 Co0 1.970 . S
O3 C2 1.258 . S
O4 Co1 1.966 . S
O4 C2 1.263 . S
C5 O6 1.235 . S
C5 O32 1.289 . S
O6 C5 1.235 . S
C7 C9 1.400 . S
C7 N10 1.351 . S
C7 C12 1.501 . S
C8 C9 1.387 . S
C8 N11 1.341 . S
C9 C7 1.400 . S
C9 C8 1.387 . S
N10 Co1 2.022 . S
N10 C7 1.351 . S
N10 N11 1.365 . S
N11 C8 1.341 . S
N11 N10 1.365 . S
N11 H31 0.862 . S
C12 C7 1.501 . S
C12 H13 0.961 . S
C12 H14 0.961 . S
C12 H15 0.960 . S
H13 C12 0.961 . S
H14 C12 0.961 . S
H15 C12 0.960 . S
C16 N17 1.342 . S
C16 C20 1.401 . S
C16 C21 1.499 . S
N17 Co0 1.989 . S
N17 C16 1.342 . S
N17 N18 1.388 . S
N18 Co1 1.993 . S
N18 N17 1.388 . S
N18 C19 1.346 . S
C19 N18 1.346 . S
C19 C20 1.396 . S
C19 C29 1.510 . S
C20 C16 1.401 . S
C20 C19 1.396 . S
C21 C16 1.499 . S
C21 H22 0.959 . S
C21 H23 0.960 . S
C21 H24 0.961 . S
H22 C21 0.959 . S
H23 C21 0.960 . S
H24 C21 0.961 . S
O25 Co0 1.967 . S
O25 C33 1.258 . S
O26 Co1 1.941 . S
O26 C33 1.266 . S
H27 C29 0.959 . S
H28 C29 0.961 . S
C29 C19 1.510 . S
C29 H27 0.959 . S
C29 H28 0.961 . S
C29 H30 0.960 . S
H30 C29 0.960 . S
H31 N11 0.862 . S
O32 Co0 1.920 . S
O32 C5 1.289 . S
C33 O25 1.258 . S
C33 O26 1.266 . S
Co34 O37 1.970 . S
Co34 N51 1.989 . S
Co34 O59 1.967 . S
Co34 O66 1.920 . S
Co35 O38 1.966 . S
Co35 N44 2.022 . S
Co35 N52 1.993 . S
Co35 O60 1.941 . S
C36 O37 1.258 . S
C36 O38 1.263 . S
O37 Co34 1.970 . S
O37 C36 1.258 . S
O38 Co35 1.966 . S
O38 C36 1.263 . S
C39 O40 1.235 . S
C39 O66 1.289 . S
O40 C39 1.235 . S
C41 C43 1.400 . S
C41 N44 1.351 . S
C41 C46 1.501 . S
C42 C43 1.387 . S
C42 N45 1.341 . S
C43 C41 1.400 . S
C43 C42 1.387 . S
N44 Co35 2.022 . S
N44 C41 1.351 . S
N44 N45 1.365 . S
N45 C42 1.341 . S
N45 N44 1.365 . S
N45 H65 0.862 . S
C46 C41 1.501 . S
C46 H47 0.961 . S
C46 H48 0.961 . S
C46 H49 0.960 . S
H47 C46 0.961 . S
H48 C46 0.961 . S
H49 C46 0.960 . S
C50 N51 1.342 . S
C50 C54 1.401 . S
C50 C55 1.499 . S
N51 Co34 1.989 . S
N51 C50 1.342 . S
N51 N52 1.388 . S
N52 Co35 1.993 . S
N52 N51 1.388 . S
N52 C53 1.346 . S
C53 N52 1.346 . S
C53 C54 1.396 . S
C53 C63 1.510 . S
C54 C50 1.401 . S
C54 C53 1.396 . S
C55 C50 1.499 . S
C55 H56 0.959 . S
C55 H57 0.960 . S
C55 H58 0.961 . S
H56 C55 0.959 . S
H57 C55 0.960 . S
H58 C55 0.961 . S
O59 Co34 1.967 . S
O59 C67 1.258 . S
O60 Co35 1.941 . S
O60 C67 1.266 . S
H61 C63 0.959 . S
H62 C63 0.961 . S
C63 C53 1.510 . S
C63 H61 0.959 . S
C63 H62 0.961 . S
C63 H64 0.960 . S
H64 C63 0.960 . S
H65 N45 0.862 . S
O66 Co34 1.920 . S
O66 C39 1.289 . S
C67 O59 1.258 . S
C67 O60 1.266 . S
Co68 O71 1.970 . S
Co68 N85 1.989 . S
Co68 O93 1.967 . S
Co68 O100 1.920 . S
Co69 O72 1.966 . S
Co69 N78 2.022 . S
Co69 N86 1.993 . S
Co69 O94 1.941 . S
C70 O71 1.258 . S
C70 O72 1.263 . S
O71 Co68 1.970 . S
O71 C70 1.258 . S
O72 Co69 1.966 . S
O72 C70 1.263 . S
C73 O74 1.235 . S
C73 O100 1.289 . S
O74 C73 1.235 . S
C75 C77 1.400 . S
C75 N78 1.351 . S
C75 C80 1.501 . S
C76 C77 1.387 . S
C76 N79 1.341 . S
C77 C75 1.400 . S
C77 C76 1.387 . S
N78 Co69 2.022 . S
N78 C75 1.351 . S
N78 N79 1.365 . S
N79 C76 1.341 . S
N79 N78 1.365 . S
N79 H99 0.862 . S
C80 C75 1.501 . S
C80 H81 0.961 . S
C80 H82 0.961 . S
C80 H83 0.960 . S
H81 C80 0.961 . S
H82 C80 0.961 . S
H83 C80 0.960 . S
C84 N85 1.342 . S
C84 C88 1.401 . S
C84 C89 1.499 . S
N85 Co68 1.989 . S
N85 C84 1.342 . S
N85 N86 1.388 . S
N86 Co69 1.993 . S
N86 N85 1.388 . S
N86 C87 1.346 . S
C87 N86 1.346 . S
C87 C88 1.396 . S
C87 C97 1.510 . S
C88 C84 1.401 . S
C88 C87 1.396 . S
C89 C84 1.499 . S
C89 H90 0.959 . S
C89 H91 0.960 . S
C89 H92 0.961 . S
H90 C89 0.959 . S
H91 C89 0.960 . S
H92 C89 0.961 . S
O93 Co68 1.967 . S
O93 C101 1.258 . S
O94 Co69 1.941 . S
O94 C101 1.266 . S
H95 C97 0.959 . S
H96 C97 0.961 . S
C97 C87 1.510 . S
C97 H95 0.959 . S
C97 H96 0.961 . S
C97 H98 0.960 . S
H98 C97 0.960 . S
H99 N79 0.862 . S
O100 Co68 1.920 . S
O100 C73 1.289 . S
C101 O93 1.258 . S
C101 O94 1.266 . S
Co102 O105 1.970 . S
Co102 N119 1.989 . S
Co102 O127 1.967 . S
Co102 O134 1.920 . S
Co103 O106 1.966 . S
Co103 N112 2.022 . S
Co103 N120 1.993 . S
Co103 O128 1.941 . S
C104 O105 1.258 . S
C104 O106 1.263 . S
O105 Co102 1.970 . S
O105 C104 1.258 . S
O106 Co103 1.966 . S
O106 C104 1.263 . S
C107 O108 1.235 . S
C107 O134 1.289 . S
O108 C107 1.235 . S
C109 C111 1.400 . S
C109 N112 1.351 . S
C109 C114 1.501 . S
C110 C111 1.387 . S
C110 N113 1.341 . S
C111 C109 1.400 . S
C111 C110 1.387 . S
N112 Co103 2.022 . S
N112 C109 1.351 . S
N112 N113 1.365 . S
N113 C110 1.341 . S
N113 N112 1.365 . S
N113 H133 0.862 . S
C114 C109 1.501 . S
C114 H115 0.961 . S
C114 H116 0.961 . S
C114 H117 0.960 . S
H115 C114 0.961 . S
H116 C114 0.961 . S
H117 C114 0.960 . S
C118 N119 1.342 . S
C118 C122 1.401 . S
C118 C123 1.499 . S
N119 Co102 1.989 . S
N119 C118 1.342 . S
N119 N120 1.388 . S
N120 Co103 1.993 . S
N120 N119 1.388 . S
N120 C121 1.346 . S
C121 N120 1.346 . S
C121 C122 1.396 . S
C121 C131 1.510 . S
C122 C118 1.401 . S
C122 C121 1.396 . S
C123 C118 1.499 . S
C123 H124 0.959 . S
C123 H125 0.960 . S
C123 H126 0.961 . S
H124 C123 0.959 . S
H125 C123 0.960 . S
H126 C123 0.961 . S
O127 Co102 1.967 . S
O127 C135 1.258 . S
O128 Co103 1.941 . S
O128 C135 1.266 . S
H129 C131 0.959 . S
H130 C131 0.961 . S
C131 C121 1.510 . S
C131 H129 0.959 . S
C131 H130 0.961 . S
C131 H132 0.960 . S
H132 C131 0.960 . S
H133 N113 0.862 . S
O134 Co102 1.920 . S
O134 C107 1.289 . S
C135 O127 1.258 . S
C135 O128 1.266 . S
Co136 O139 1.970 . S
Co136 N153 1.989 . S
Co136 O161 1.967 . S
Co136 O168 1.920 . S
Co137 O140 1.966 . S
Co137 N146 2.022 . S
Co137 N154 1.993 . S
Co137 O162 1.941 . S
C138 O139 1.258 . S
C138 O140 1.263 . S
O139 Co136 1.970 . S
O139 C138 1.258 . S
O140 Co137 1.966 . S
O140 C138 1.263 . S
C141 O142 1.235 . S
C141 O168 1.289 . S
O142 C141 1.235 . S
C143 C145 1.400 . S
C143 N146 1.351 . S
C143 C148 1.501 . S
C144 C145 1.387 . S
C144 N147 1.341 . S
C145 C143 1.400 . S
C145 C144 1.387 . S
N146 Co137 2.022 . S
N146 C143 1.351 . S
N146 N147 1.365 . S
N147 C144 1.341 . S
N147 N146 1.365 . S
N147 H167 0.862 . S
C148 C143 1.501 . S
C148 H149 0.961 . S
C148 H150 0.961 . S
C148 H151 0.960 . S
H149 C148 0.961 . S
H150 C148 0.961 . S
H151 C148 0.960 . S
C152 N153 1.342 . S
C152 C156 1.401 . S
C152 C157 1.499 . S
N153 Co136 1.989 . S
N153 C152 1.342 . S
N153 N154 1.388 . S
N154 Co137 1.993 . S
N154 N153 1.388 . S
N154 C155 1.346 . S
C155 N154 1.346 . S
C155 C156 1.396 . S
C155 C165 1.510 . S
C156 C152 1.401 . S
C156 C155 1.396 . S
C157 C152 1.499 . S
C157 H158 0.959 . S
C157 H159 0.960 . S
C157 H160 0.961 . S
H158 C157 0.959 . S
H159 C157 0.960 . S
H160 C157 0.961 . S
O161 Co136 1.967 . S
O161 C169 1.258 . S
O162 Co137 1.941 . S
O162 C169 1.266 . S
H163 C165 0.959 . S
H164 C165 0.961 . S
C165 C155 1.510 . S
C165 H163 0.959 . S
C165 H164 0.961 . S
C165 H166 0.960 . S
H166 C165 0.960 . S
H167 N147 0.862 . S
O168 Co136 1.920 . S
O168 C141 1.289 . S
C169 O161 1.258 . S
C169 O162 1.266 . S
Co170 O173 1.970 . S
Co170 N187 1.989 . S
Co170 O195 1.967 . S
Co170 O202 1.920 . S
Co171 O174 1.966 . S
Co171 N180 2.022 . S
Co171 N188 1.993 . S
Co171 O196 1.941 . S
C172 O173 1.258 . S
C172 O174 1.263 . S
O173 Co170 1.970 . S
O173 C172 1.258 . S
O174 Co171 1.966 . S
O174 C172 1.263 . S
C175 O176 1.235 . S
C175 O202 1.289 . S
O176 C175 1.235 . S
C177 C179 1.400 . S
C177 N180 1.351 . S
C177 C182 1.501 . S
C178 C179 1.387 . S
C178 N181 1.341 . S
C179 C177 1.400 . S
C179 C178 1.387 . S
N180 Co171 2.022 . S
N180 C177 1.351 . S
N180 N181 1.365 . S
N181 C178 1.341 . S
N181 N180 1.365 . S
N181 H201 0.862 . S
C182 C177 1.501 . S
C182 H183 0.961 . S
C182 H184 0.961 . S
C182 H185 0.960 . S
H183 C182 0.961 . S
H184 C182 0.961 . S
H185 C182 0.960 . S
C186 N187 1.342 . S
C186 C190 1.401 . S
C186 C191 1.499 . S
N187 Co170 1.989 . S
N187 C186 1.342 . S
N187 N188 1.388 . S
N188 Co171 1.993 . S
N188 N187 1.388 . S
N188 C189 1.346 . S
C189 N188 1.346 . S
C189 C190 1.396 . S
C189 C199 1.510 . S
C190 C186 1.401 . S
C190 C189 1.396 . S
C191 C186 1.499 . S
C191 H192 0.959 . S
C191 H193 0.960 . S
C191 H194 0.961 . S
H192 C191 0.959 . S
H193 C191 0.960 . S
H194 C191 0.961 . S
O195 Co170 1.967 . S
O195 C203 1.258 . S
O196 Co171 1.941 . S
O196 C203 1.266 . S
H197 C199 0.959 . S
H198 C199 0.961 . S
C199 C189 1.510 . S
C199 H197 0.959 . S
C199 H198 0.961 . S
C199 H200 0.960 . S
H200 C199 0.960 . S
H201 N181 0.862 . S
O202 Co170 1.920 . S
O202 C175 1.289 . S
C203 O195 1.258 . S
C203 O196 1.266 . S
Co204 O207 1.970 . S
Co204 N221 1.989 . S
Co204 O229 1.967 . S
Co204 O236 1.920 . S
Co205 O208 1.966 . S
Co205 N214 2.022 . S
Co205 N222 1.993 . S
Co205 O230 1.941 . S
C206 O207 1.258 . S
C206 O208 1.263 . S
O207 Co204 1.970 . S
O207 C206 1.258 . S
O208 Co205 1.966 . S
O208 C206 1.263 . S
C209 O210 1.235 . S
C209 O236 1.289 . S
O210 C209 1.235 . S
C211 C213 1.400 . S
C211 N214 1.351 . S
C211 C216 1.501 . S
C212 C213 1.387 . S
C212 N215 1.341 . S
C213 C211 1.400 . S
C213 C212 1.387 . S
N214 Co205 2.022 . S
N214 C211 1.351 . S
N214 N215 1.365 . S
N215 C212 1.341 . S
N215 N214 1.365 . S
N215 H235 0.862 . S
C216 C211 1.501 . S
C216 H217 0.961 . S
C216 H218 0.961 . S
C216 H219 0.960 . S
H217 C216 0.961 . S
H218 C216 0.961 . S
H219 C216 0.960 . S
C220 N221 1.342 . S
C220 C224 1.401 . S
C220 C225 1.499 . S
N221 Co204 1.989 . S
N221 C220 1.342 . S
N221 N222 1.388 . S
N222 Co205 1.993 . S
N222 N221 1.388 . S
N222 C223 1.346 . S
C223 N222 1.346 . S
C223 C224 1.396 . S
C223 C233 1.510 . S
C224 C220 1.401 . S
C224 C223 1.396 . S
C225 C220 1.499 . S
C225 H226 0.959 . S
C225 H227 0.960 . S
C225 H228 0.961 . S
H226 C225 0.959 . S
H227 C225 0.960 . S
H228 C225 0.961 . S
O229 Co204 1.967 . S
O229 C237 1.258 . S
O230 Co205 1.941 . S
O230 C237 1.266 . S
H231 C233 0.959 . S
H232 C233 0.961 . S
C233 C223 1.510 . S
C233 H231 0.959 . S
C233 H232 0.961 . S
C233 H234 0.960 . S
H234 C233 0.960 . S
H235 N215 0.862 . S
O236 Co204 1.920 . S
O236 C209 1.289 . S
C237 O229 1.258 . S
C237 O230 1.266 . S
Co238 O241 1.970 . S
Co238 N255 1.989 . S
Co238 O263 1.967 . S
Co238 O270 1.920 . S
Co239 O242 1.966 . S
Co239 N248 2.022 . S
Co239 N256 1.993 . S
Co239 O264 1.941 . S
C240 O241 1.258 . S
C240 O242 1.263 . S
O241 Co238 1.970 . S
O241 C240 1.258 . S
O242 Co239 1.966 . S
O242 C240 1.263 . S
C243 O244 1.235 . S
C243 O270 1.289 . S
O244 C243 1.235 . S
C245 C247 1.400 . S
C245 N248 1.351 . S
C245 C250 1.501 . S
C246 C247 1.387 . S
C246 N249 1.341 . S
C247 C245 1.400 . S
C247 C246 1.387 . S
N248 Co239 2.022 . S
N248 C245 1.351 . S
N248 N249 1.365 . S
N249 C246 1.341 . S
N249 N248 1.365 . S
N249 H269 0.862 . S
C250 C245 1.501 . S
C250 H251 0.961 . S
C250 H252 0.961 . S
C250 H253 0.960 . S
H251 C250 0.961 . S
H252 C250 0.961 . S
H253 C250 0.960 . S
C254 N255 1.342 . S
C254 C258 1.401 . S
C254 C259 1.499 . S
N255 Co238 1.989 . S
N255 C254 1.342 . S
N255 N256 1.388 . S
N256 Co239 1.993 . S
N256 N255 1.388 . S
N256 C257 1.346 . S
C257 N256 1.346 . S
C257 C258 1.396 . S
C257 C267 1.510 . S
C258 C254 1.401 . S
C258 C257 1.396 . S
C259 C254 1.499 . S
C259 H260 0.959 . S
C259 H261 0.960 . S
C259 H262 0.961 . S
H260 C259 0.959 . S
H261 C259 0.960 . S
H262 C259 0.961 . S
O263 Co238 1.967 . S
O263 C271 1.258 . S
O264 Co239 1.941 . S
O264 C271 1.266 . S
H265 C267 0.959 . S
H266 C267 0.961 . S
C267 C257 1.510 . S
C267 H265 0.959 . S
C267 H266 0.961 . S
C267 H268 0.960 . S
H268 C267 0.960 . S
H269 N249 0.862 . S
O270 Co238 1.920 . S
O270 C243 1.289 . S
C271 O263 1.258 . S
C271 O264 1.266 . S
Co272 O275 1.970 . S
Co272 N289 1.989 . S
Co272 O297 1.967 . S
Co272 O304 1.920 . S
Co273 O276 1.966 . S
Co273 N282 2.022 . S
Co273 N290 1.993 . S
Co273 O298 1.941 . S
C274 O275 1.258 . S
C274 O276 1.263 . S
O275 Co272 1.970 . S
O275 C274 1.258 . S
O276 Co273 1.966 . S
O276 C274 1.263 . S
C277 O278 1.235 . S
C277 O304 1.289 . S
O278 C277 1.235 . S
C279 C281 1.400 . S
C279 N282 1.351 . S
C279 C284 1.501 . S
C280 C281 1.387 . S
C280 N283 1.341 . S
C281 C279 1.400 . S
C281 C280 1.387 . S
N282 Co273 2.022 . S
N282 C279 1.351 . S
N282 N283 1.365 . S
N283 C280 1.341 . S
N283 N282 1.365 . S
N283 H303 0.862 . S
C284 C279 1.501 . S
C284 H285 0.961 . S
C284 H286 0.961 . S
C284 H287 0.960 . S
H285 C284 0.961 . S
H286 C284 0.961 . S
H287 C284 0.960 . S
C288 N289 1.342 . S
C288 C292 1.401 . S
C288 C293 1.499 . S
N289 Co272 1.989 . S
N289 C288 1.342 . S
N289 N290 1.388 . S
N290 Co273 1.993 . S
N290 N289 1.388 . S
N290 C291 1.346 . S
C291 N290 1.346 . S
C291 C292 1.396 . S
C291 C301 1.510 . S
C292 C288 1.401 . S
C292 C291 1.396 . S
C293 C288 1.499 . S
C293 H294 0.959 . S
C293 H295 0.960 . S
C293 H296 0.961 . S
H294 C293 0.959 . S
H295 C293 0.960 . S
H296 C293 0.961 . S
O297 Co272 1.967 . S
O297 C305 1.258 . S
O298 Co273 1.941 . S
O298 C305 1.266 . S
H299 C301 0.959 . S
H300 C301 0.961 . S
C301 C291 1.510 . S
C301 H299 0.959 . S
C301 H300 0.961 . S
C301 H302 0.960 . S
H302 C301 0.960 . S
H303 N283 0.862 . S
O304 Co272 1.920 . S
O304 C277 1.289 . S
C305 O297 1.258 . S
C305 O298 1.266 . S
Co306 O309 1.970 . S
Co306 N323 1.989 . S
Co306 O331 1.967 . S
Co306 O338 1.920 . S
Co307 O310 1.966 . S
Co307 N316 2.022 . S
Co307 N324 1.993 . S
Co307 O332 1.941 . S
C308 O309 1.258 . S
C308 O310 1.263 . S
O309 Co306 1.970 . S
O309 C308 1.258 . S
O310 Co307 1.966 . S
O310 C308 1.263 . S
C311 O312 1.235 . S
C311 O338 1.289 . S
O312 C311 1.235 . S
C313 C315 1.400 . S
C313 N316 1.351 . S
C313 C318 1.501 . S
C314 C315 1.387 . S
C314 N317 1.341 . S
C315 C313 1.400 . S
C315 C314 1.387 . S
N316 Co307 2.022 . S
N316 C313 1.351 . S
N316 N317 1.365 . S
N317 C314 1.341 . S
N317 N316 1.365 . S
N317 H337 0.862 . S
C318 C313 1.501 . S
C318 H319 0.961 . S
C318 H320 0.961 . S
C318 H321 0.960 . S
H319 C318 0.961 . S
H320 C318 0.961 . S
H321 C318 0.960 . S
C322 N323 1.342 . S
C322 C326 1.401 . S
C322 C327 1.499 . S
N323 Co306 1.989 . S
N323 C322 1.342 . S
N323 N324 1.388 . S
N324 Co307 1.993 . S
N324 N323 1.388 . S
N324 C325 1.346 . S
C325 N324 1.346 . S
C325 C326 1.396 . S
C325 C335 1.510 . S
C326 C322 1.401 . S
C326 C325 1.396 . S
C327 C322 1.499 . S
C327 H328 0.959 . S
C327 H329 0.960 . S
C327 H330 0.961 . S
H328 C327 0.959 . S
H329 C327 0.960 . S
H330 C327 0.961 . S
O331 Co306 1.967 . S
O331 C339 1.258 . S
O332 Co307 1.941 . S
O332 C339 1.266 . S
H333 C335 0.959 . S
H334 C335 0.961 . S
C335 C325 1.510 . S
C335 H333 0.959 . S
C335 H334 0.961 . S
C335 H336 0.960 . S
H336 C335 0.960 . S
H337 N317 0.862 . S
O338 Co306 1.920 . S
O338 C311 1.289 . S
C339 O331 1.258 . S
C339 O332 1.266 . S
Co340 O343 1.970 . S
Co340 N357 1.989 . S
Co340 O365 1.967 . S
Co340 O372 1.920 . S
Co341 O344 1.966 . S
Co341 N350 2.022 . S
Co341 N358 1.993 . S
Co341 O366 1.941 . S
C342 O343 1.258 . S
C342 O344 1.263 . S
O343 Co340 1.970 . S
O343 C342 1.258 . S
O344 Co341 1.966 . S
O344 C342 1.263 . S
C345 O346 1.235 . S
C345 O372 1.289 . S
O346 C345 1.235 . S
C347 C349 1.400 . S
C347 N350 1.351 . S
C347 C352 1.501 . S
C348 C349 1.387 . S
C348 N351 1.341 . S
C349 C347 1.400 . S
C349 C348 1.387 . S
N350 Co341 2.022 . S
N350 C347 1.351 . S
N350 N351 1.365 . S
N351 C348 1.341 . S
N351 N350 1.365 . S
N351 H371 0.862 . S
C352 C347 1.501 . S
C352 H353 0.961 . S
C352 H354 0.961 . S
C352 H355 0.960 . S
H353 C352 0.961 . S
H354 C352 0.961 . S
H355 C352 0.960 . S
C356 N357 1.342 . S
C356 C360 1.401 . S
C356 C361 1.499 . S
N357 Co340 1.989 . S
N357 C356 1.342 . S
N357 N358 1.388 . S
N358 Co341 1.993 . S
N358 N357 1.388 . S
N358 C359 1.346 . S
C359 N358 1.346 . S
C359 C360 1.396 . S
C359 C369 1.510 . S
C360 C356 1.401 . S
C360 C359 1.396 . S
C361 C356 1.499 . S
C361 H362 0.959 . S
C361 H363 0.960 . S
C361 H364 0.961 . S
H362 C361 0.959 . S
H363 C361 0.960 . S
H364 C361 0.961 . S
O365 Co340 1.967 . S
O365 C373 1.258 . S
O366 Co341 1.941 . S
O366 C373 1.266 . S
H367 C369 0.959 . S
H368 C369 0.961 . S
C369 C359 1.510 . S
C369 H367 0.959 . S
C369 H368 0.961 . S
C369 H370 0.960 . S
H370 C369 0.960 . S
H371 N351 0.862 . S
O372 Co340 1.920 . S
O372 C345 1.289 . S
C373 O365 1.258 . S
C373 O366 1.266 . S
Co374 O377 1.970 . S
Co374 N391 1.989 . S
Co374 O399 1.967 . S
Co374 O406 1.920 . S
Co375 O378 1.966 . S
Co375 N384 2.022 . S
Co375 N392 1.993 . S
Co375 O400 1.941 . S
C376 O377 1.258 . S
C376 O378 1.263 . S
O377 Co374 1.970 . S
O377 C376 1.258 . S
O378 Co375 1.966 . S
O378 C376 1.263 . S
C379 O380 1.235 . S
C379 O406 1.289 . S
O380 C379 1.235 . S
C381 C383 1.400 . S
C381 N384 1.351 . S
C381 C386 1.501 . S
C382 C383 1.387 . S
C382 N385 1.341 . S
C383 C381 1.400 . S
C383 C382 1.387 . S
N384 Co375 2.022 . S
N384 C381 1.351 . S
N384 N385 1.365 . S
N385 C382 1.341 . S
N385 N384 1.365 . S
N385 H405 0.862 . S
C386 C381 1.501 . S
C386 H387 0.961 . S
C386 H388 0.961 . S
C386 H389 0.960 . S
H387 C386 0.961 . S
H388 C386 0.961 . S
H389 C386 0.960 . S
C390 N391 1.342 . S
C390 C394 1.401 . S
C390 C395 1.499 . S
N391 Co374 1.989 . S
N391 C390 1.342 . S
N391 N392 1.388 . S
N392 Co375 1.993 . S
N392 N391 1.388 . S
N392 C393 1.346 . S
C393 N392 1.346 . S
C393 C394 1.396 . S
C393 C403 1.510 . S
C394 C390 1.401 . S
C394 C393 1.396 . S
C395 C390 1.499 . S
C395 H396 0.959 . S
C395 H397 0.960 . S
C395 H398 0.961 . S
H396 C395 0.959 . S
H397 C395 0.960 . S
H398 C395 0.961 . S
O399 Co374 1.967 . S
O399 C407 1.258 . S
O400 Co375 1.941 . S
O400 C407 1.266 . S
H401 C403 0.959 . S
H402 C403 0.961 . S
C403 C393 1.510 . S
C403 H401 0.959 . S
C403 H402 0.961 . S
C403 H404 0.960 . S
H404 C403 0.960 . S
H405 N385 0.862 . S
O406 Co374 1.920 . S
O406 C379 1.289 . S
C407 O399 1.258 . S
C407 O400 1.266 . S
Co408 O411 1.970 . S
Co408 N425 1.989 . S
Co408 O433 1.967 . S
Co408 O440 1.920 . S
Co409 O412 1.966 . S
Co409 N418 2.022 . S
Co409 N426 1.993 . S
Co409 O434 1.941 . S
C410 O411 1.258 . S
C410 O412 1.263 . S
O411 Co408 1.970 . S
O411 C410 1.258 . S
O412 Co409 1.966 . S
O412 C410 1.263 . S
C413 O414 1.235 . S
C413 O440 1.289 . S
O414 C413 1.235 . S
C415 C417 1.400 . S
C415 N418 1.351 . S
C415 C420 1.501 . S
C416 C417 1.387 . S
C416 N419 1.341 . S
C417 C415 1.400 . S
C417 C416 1.387 . S
N418 Co409 2.022 . S
N418 C415 1.351 . S
N418 N419 1.365 . S
N419 C416 1.341 . S
N419 N418 1.365 . S
N419 H439 0.862 . S
C420 C415 1.501 . S
C420 H421 0.961 . S
C420 H422 0.961 . S
C420 H423 0.960 . S
H421 C420 0.961 . S
H422 C420 0.961 . S
H423 C420 0.960 . S
C424 N425 1.342 . S
C424 C428 1.401 . S
C424 C429 1.499 . S
N425 Co408 1.989 . S
N425 C424 1.342 . S
N425 N426 1.388 . S
N426 Co409 1.993 . S
N426 N425 1.388 . S
N426 C427 1.346 . S
C427 N426 1.346 . S
C427 C428 1.396 . S
C427 C437 1.510 . S
C428 C424 1.401 . S
C428 C427 1.396 . S
C429 C424 1.499 . S
C429 H430 0.959 . S
C429 H431 0.960 . S
C429 H432 0.961 . S
H430 C429 0.959 . S
H431 C429 0.960 . S
H432 C429 0.961 . S
O433 Co408 1.967 . S
O433 C441 1.258 . S
O434 Co409 1.941 . S
O434 C441 1.266 . S
H435 C437 0.959 . S
H436 C437 0.961 . S
C437 C427 1.510 . S
C437 H435 0.959 . S
C437 H436 0.961 . S
C437 H438 0.960 . S
H438 C437 0.960 . S
H439 N419 0.862 . S
O440 Co408 1.920 . S
O440 C413 1.289 . S
C441 O433 1.258 . S
C441 O434 1.266 . S
Co442 O445 1.970 . S
Co442 N459 1.989 . S
Co442 O467 1.967 . S
Co442 O474 1.920 . S
Co443 O446 1.966 . S
Co443 N452 2.022 . S
Co443 N460 1.993 . S
Co443 O468 1.941 . S
C444 O445 1.258 . S
C444 O446 1.263 . S
O445 Co442 1.970 . S
O445 C444 1.258 . S
O446 Co443 1.966 . S
O446 C444 1.263 . S
C447 O448 1.235 . S
C447 O474 1.289 . S
O448 C447 1.235 . S
C449 C451 1.400 . S
C449 N452 1.351 . S
C449 C454 1.501 . S
C450 C451 1.387 . S
C450 N453 1.341 . S
C451 C449 1.400 . S
C451 C450 1.387 . S
N452 Co443 2.022 . S
N452 C449 1.351 . S
N452 N453 1.365 . S
N453 C450 1.341 . S
N453 N452 1.365 . S
N453 H473 0.862 . S
C454 C449 1.501 . S
C454 H455 0.961 . S
C454 H456 0.961 . S
C454 H457 0.960 . S
H455 C454 0.961 . S
H456 C454 0.961 . S
H457 C454 0.960 . S
C458 N459 1.342 . S
C458 C462 1.401 . S
C458 C463 1.499 . S
N459 Co442 1.989 . S
N459 C458 1.342 . S
N459 N460 1.388 . S
N460 Co443 1.993 . S
N460 N459 1.388 . S
N460 C461 1.346 . S
C461 N460 1.346 . S
C461 C462 1.396 . S
C461 C471 1.510 . S
C462 C458 1.401 . S
C462 C461 1.396 . S
C463 C458 1.499 . S
C463 H464 0.959 . S
C463 H465 0.960 . S
C463 H466 0.961 . S
H464 C463 0.959 . S
H465 C463 0.960 . S
H466 C463 0.961 . S
O467 Co442 1.967 . S
O467 C475 1.258 . S
O468 Co443 1.941 . S
O468 C475 1.266 . S
H469 C471 0.959 . S
H470 C471 0.961 . S
C471 C461 1.510 . S
C471 H469 0.959 . S
C471 H470 0.961 . S
C471 H472 0.960 . S
H472 C471 0.960 . S
H473 N453 0.862 . S
O474 Co442 1.920 . S
O474 C447 1.289 . S
C475 O467 1.258 . S
C475 O468 1.266 . S
Co476 O479 1.970 . S
Co476 N493 1.989 . S
Co476 O501 1.967 . S
Co476 O508 1.920 . S
Co477 O480 1.966 . S
Co477 N486 2.022 . S
Co477 N494 1.993 . S
Co477 O502 1.941 . S
C478 O479 1.258 . S
C478 O480 1.263 . S
O479 Co476 1.970 . S
O479 C478 1.258 . S
O480 Co477 1.966 . S
O480 C478 1.263 . S
C481 O482 1.235 . S
C481 O508 1.289 . S
O482 C481 1.235 . S
C483 C485 1.400 . S
C483 N486 1.351 . S
C483 C488 1.501 . S
C484 C485 1.387 . S
C484 N487 1.341 . S
C485 C483 1.400 . S
C485 C484 1.387 . S
N486 Co477 2.022 . S
N486 C483 1.351 . S
N486 N487 1.365 . S
N487 C484 1.341 . S
N487 N486 1.365 . S
N487 H507 0.862 . S
C488 C483 1.501 . S
C488 H489 0.961 . S
C488 H490 0.961 . S
C488 H491 0.960 . S
H489 C488 0.961 . S
H490 C488 0.961 . S
H491 C488 0.960 . S
C492 N493 1.342 . S
C492 C496 1.401 . S
C492 C497 1.499 . S
N493 Co476 1.989 . S
N493 C492 1.342 . S
N493 N494 1.388 . S
N494 Co477 1.993 . S
N494 N493 1.388 . S
N494 C495 1.346 . S
C495 N494 1.346 . S
C495 C496 1.396 . S
C495 C505 1.510 . S
C496 C492 1.401 . S
C496 C495 1.396 . S
C497 C492 1.499 . S
C497 H498 0.959 . S
C497 H499 0.960 . S
C497 H500 0.961 . S
H498 C497 0.959 . S
H499 C497 0.960 . S
H500 C497 0.961 . S
O501 Co476 1.967 . S
O501 C509 1.258 . S
O502 Co477 1.941 . S
O502 C509 1.266 . S
H503 C505 0.959 . S
H504 C505 0.961 . S
C505 C495 1.510 . S
C505 H503 0.959 . S
C505 H504 0.961 . S
C505 H506 0.960 . S
H506 C505 0.960 . S
H507 N487 0.862 . S
O508 Co476 1.920 . S
O508 C481 1.289 . S
C509 O501 1.258 . S
C509 O502 1.266 . S
Co510 O513 1.970 . S
Co510 N527 1.989 . S
Co510 O535 1.967 . S
Co510 O542 1.920 . S
Co511 O514 1.966 . S
Co511 N520 2.022 . S
Co511 N528 1.993 . S
Co511 O536 1.941 . S
C512 O513 1.258 . S
C512 O514 1.263 . S
O513 Co510 1.970 . S
O513 C512 1.258 . S
O514 Co511 1.966 . S
O514 C512 1.263 . S
C515 O516 1.235 . S
C515 O542 1.289 . S
O516 C515 1.235 . S
C517 C519 1.400 . S
C517 N520 1.351 . S
C517 C522 1.501 . S
C518 C519 1.387 . S
C518 N521 1.341 . S
C519 C517 1.400 . S
C519 C518 1.387 . S
N520 Co511 2.022 . S
N520 C517 1.351 . S
N520 N521 1.365 . S
N521 C518 1.341 . S
N521 N520 1.365 . S
N521 H541 0.862 . S
C522 C517 1.501 . S
C522 H523 0.961 . S
C522 H524 0.961 . S
C522 H525 0.960 . S
H523 C522 0.961 . S
H524 C522 0.961 . S
H525 C522 0.960 . S
C526 N527 1.342 . S
C526 C530 1.401 . S
C526 C531 1.499 . S
N527 Co510 1.989 . S
N527 C526 1.342 . S
N527 N528 1.388 . S
N528 Co511 1.993 . S
N528 N527 1.388 . S
N528 C529 1.346 . S
C529 N528 1.346 . S
C529 C530 1.396 . S
C529 C539 1.510 . S
C530 C526 1.401 . S
C530 C529 1.396 . S
C531 C526 1.499 . S
C531 H532 0.959 . S
C531 H533 0.960 . S
C531 H534 0.961 . S
H532 C531 0.959 . S
H533 C531 0.960 . S
H534 C531 0.961 . S
O535 Co510 1.967 . S
O535 C543 1.258 . S
O536 Co511 1.941 . S
O536 C543 1.266 . S
H537 C539 0.959 . S
H538 C539 0.961 . S
C539 C529 1.510 . S
C539 H537 0.959 . S
C539 H538 0.961 . S
C539 H540 0.960 . S
H540 C539 0.960 . S
H541 N521 0.862 . S
O542 Co510 1.920 . S
O542 C515 1.289 . S
C543 O535 1.258 . S
C543 O536 1.266 . S
H544 C552 0.929 . S
H545 C554 0.930 . S
H546 C556 0.930 . S
H547 C559 0.929 . S
H548 C562 0.930 . S
H549 C564 0.960 . S
H550 C564 0.960 . S
H551 C564 0.960 . S
C552 H544 0.929 . S
C552 C553 1.377 . S
C552 C554 1.384 . S
C553 C552 1.377 . S
C553 C559 1.390 . S
C554 H545 0.930 . S
C554 C552 1.384 . S
C554 C555 1.372 . S
C555 C554 1.372 . S
C555 C556 1.400 . S
C555 C560 1.490 . S
C556 H546 0.930 . S
C556 C555 1.400 . S
C556 C559 1.386 . S
H557 C573 0.930 . S
H558 C574 0.931 . S
C559 H547 0.929 . S
C559 C553 1.390 . S
C559 C556 1.386 . S
C560 C555 1.490 . S
C560 C562 1.395 . S
C560 C563 1.403 . S
H561 C567 0.930 . S
C562 H548 0.930 . S
C562 C560 1.395 . S
C562 C565 1.403 1_655 S
C563 C560 1.403 . S
C563 C564 1.524 . S
C563 C567 1.400 1_655 S
C564 H549 0.960 . S
C564 H550 0.960 . S
C564 H551 0.960 . S
C564 C563 1.524 . S
C565 C562 1.403 1_455 S
C565 C566 1.392 . S
C565 C569 1.495 . S
C566 C565 1.392 . S
C566 C567 1.385 . S
C566 C568 1.478 . S
C567 H561 0.930 . S
C567 C563 1.400 1_455 S
C567 C566 1.385 . S
C568 C566 1.478 . S
C568 C570 1.381 . S
C568 C574 1.383 . S
C569 C565 1.495 . S
C569 H575 0.959 1_455 S
C569 H576 0.961 . S
C569 H577 0.960 . S
C570 C568 1.381 . S
C570 C571 1.394 . S
C570 H578 0.930 . S
C571 C570 1.394 . S
C571 C572 1.383 . S
C571 H579 0.929 . S
C572 C571 1.383 . S
C572 C573 1.377 . S
C573 H557 0.930 . S
C573 C572 1.377 . S
C573 C574 1.379 . S
C574 H558 0.931 . S
C574 C568 1.383 . S
C574 C573 1.379 . S
H575 C569 0.959 1_655 S
H576 C569 0.961 . S
H577 C569 0.960 . S
H578 C570 0.930 . S
H579 C571 0.929 . S
H580 C588 0.929 . S
H581 C590 0.930 . S
H582 C592 0.930 . S
H583 C595 0.929 . S
H584 C598 0.930 1_545 S
H585 C600 0.960 1_565 S
H586 C600 0.960 . S
H587 C600 0.960 . S
C588 H580 0.929 . S
C588 C589 1.377 . S
C588 C590 1.384 . S
C589 C588 1.377 . S
C589 C595 1.390 . S
C590 H581 0.930 . S
C590 C588 1.384 . S
C590 C591 1.372 . S
C591 C590 1.372 . S
C591 C592 1.400 . S
C591 C596 1.490 . S
C592 H582 0.930 . S
C592 C591 1.400 . S
C592 C595 1.386 . S
H593 C609 0.930 . S
H594 C610 0.931 . S
C595 H583 0.929 . S
C595 C589 1.390 . S
C595 C592 1.386 . S
C596 C591 1.490 . S
C596 C598 1.395 1_545 S
C596 C599 1.403 1_545 S
H597 C603 0.930 . S
C598 H584 0.930 1_565 S
C598 C596 1.395 1_565 S
C598 C601 1.403 . S
C599 C596 1.403 1_565 S
C599 C600 1.524 1_565 S
C599 C603 1.400 . S
C600 H585 0.960 1_545 S
C600 H586 0.960 . S
C600 H587 0.960 . S
C600 C599 1.524 1_545 S
C601 C598 1.403 . S
C601 C602 1.392 . S
C601 C605 1.495 . S
C602 C601 1.392 . S
C602 C603 1.385 . S
C602 C604 1.478 . S
C603 H597 0.930 . S
C603 C599 1.400 . S
C603 C602 1.385 . S
C604 C602 1.478 . S
C604 C606 1.381 . S
C604 C610 1.383 . S
C605 C601 1.495 . S
C605 H611 0.959 . S
C605 H612 0.961 . S
C605 H613 0.960 . S
C606 C604 1.381 . S
C606 C607 1.394 . S
C606 H614 0.930 . S
C607 C606 1.394 . S
C607 C608 1.383 . S
C607 H615 0.929 . S
C608 C607 1.383 . S
C608 C609 1.377 . S
C609 H593 0.930 . S
C609 C608 1.377 . S
C609 C610 1.379 . S
C610 H594 0.931 . S
C610 C604 1.383 . S
C610 C609 1.379 . S
H611 C605 0.959 . S
H612 C605 0.961 . S
H613 C605 0.960 . S
H614 C606 0.930 . S
H615 C607 0.929 . S
H616 C624 0.929 . S
H617 C626 0.930 . S
H618 C628 0.930 . S
H619 C631 0.929 . S
H620 C634 0.930 . S
H621 C636 0.960 . S
H622 C636 0.975 . S
H623 C636 0.960 1_655 S
C624 H616 0.929 . S
C624 C625 1.377 . S
C624 C626 1.384 . S
C625 C624 1.377 . S
C625 C631 1.390 . S
C626 H617 0.930 . S
C626 C624 1.384 . S
C626 C627 1.372 . S
C627 C626 1.372 . S
C627 C628 1.400 . S
C627 C632 1.490 1_655 S
C628 H618 0.930 . S
C628 C627 1.400 . S
C628 C631 1.386 . S
H629 C645 0.930 . S
H630 C646 0.931 . S
C631 H619 0.929 . S
C631 C625 1.390 . S
C631 C628 1.386 . S
C632 C627 1.490 1_455 S
C632 C634 1.395 . S
C632 C635 1.403 . S
H633 C639 0.930 . S
C634 H620 0.930 . S
C634 C632 1.395 . S
C634 C637 1.403 . S
C635 C632 1.403 . S
C635 C636 1.524 . S
C635 C639 1.400 . S
C636 H621 0.960 . S
C636 H622 0.975 . S
C636 H623 0.960 1_455 S
C636 C635 1.524 . S
C637 C634 1.403 . S
C637 C638 1.392 . S
C637 C641 1.495 . S
C638 C637 1.392 . S
C638 C639 1.385 . S
C638 C640 1.478 . S
C639 H633 0.930 . S
C639 C635 1.400 . S
C639 C638 1.385 . S
C640 C638 1.478 . S
C640 C642 1.381 . S
C640 C646 1.383 . S
C641 C637 1.495 . S
C641 H647 0.959 . S
C641 H648 0.961 . S
C641 H649 0.960 . S
C642 C640 1.381 . S
C642 C643 1.394 . S
C642 H650 0.930 . S
C643 C642 1.394 . S
C643 C644 1.383 . S
C643 H651 0.929 . S
C644 C643 1.383 . S
C644 C645 1.377 . S
C645 H629 0.930 . S
C645 C644 1.377 . S
C645 C646 1.379 . S
C646 H630 0.931 . S
C646 C640 1.383 . S
C646 C645 1.379 . S
H647 C641 0.959 . S
H648 C641 0.961 . S
H649 C641 0.960 . S
H650 C642 0.930 . S
H651 C643 0.929 . S
H652 C660 0.929 . S
H653 C662 0.930 . S
H654 C664 0.930 . S
H655 C667 0.929 . S
H656 C670 0.930 . S
H657 C672 0.960 . S
H658 C672 0.960 . S
H659 C672 0.960 . S
C660 H652 0.929 . S
C660 C661 1.377 . S
C660 C662 1.384 . S
C661 C660 1.377 . S
C661 C667 1.390 . S
C662 H653 0.930 . S
C662 C660 1.384 . S
C662 C663 1.372 . S
C663 C662 1.372 . S
C663 C664 1.400 . S
C663 C668 1.490 . S
C664 H654 0.930 . S
C664 C663 1.400 . S
C664 C667 1.386 . S
H665 C681 0.930 . S
H666 C682 0.931 . S
C667 H655 0.929 . S
C667 C661 1.390 . S
C667 C664 1.386 . S
C668 C663 1.490 . S
C668 C670 1.395 . S
C668 C671 1.403 . S
H669 C675 0.930 . S
C670 H656 0.930 . S
C670 C668 1.395 . S
C670 C673 1.403 1_565 S
C671 C668 1.403 . S
C671 C672 1.524 . S
C671 C675 1.400 1_565 S
C672 H657 0.960 . S
C672 H658 0.960 . S
C672 H659 0.960 . S
C672 C671 1.524 . S
C673 C670 1.403 1_545 S
C673 C674 1.392 . S
C673 C677 1.495 . S
C674 C673 1.392 . S
C674 C675 1.385 . S
C674 C676 1.478 . S
C675 H669 0.930 . S
C675 C671 1.400 1_545 S
C675 C674 1.385 . S
C676 C674 1.478 . S
C676 C678 1.381 . S
C676 C682 1.383 . S
C677 C673 1.495 . S
C677 H683 0.959 . S
C677 H684 0.961 . S
C677 H685 0.960 . S
C678 C676 1.381 . S
C678 C679 1.394 . S
C678 H686 0.930 . S
C679 C678 1.394 . S
C679 C680 1.383 . S
C679 H687 0.929 . S
C680 C679 1.383 . S
C680 C681 1.377 . S
C681 H665 0.930 . S
C681 C680 1.377 . S
C681 C682 1.379 . S
C682 H666 0.931 . S
C682 C676 1.383 . S
C682 C681 1.379 . S
H683 C677 0.959 . S
H684 C677 0.961 . S
H685 C677 0.960 . S
H686 C678 0.930 . S
H687 C679 0.929 . S
H688 C696 0.929 . S
H689 C698 0.930 . S
H690 C700 0.930 . S
H691 C703 0.929 . S
H692 C706 0.930 . S
H693 C708 0.960 1_455 S
H694 C708 0.960 . S
H695 C708 0.960 . S
C696 H688 0.929 . S
C696 C697 1.377 . S
C696 C698 1.384 . S
C697 C696 1.377 . S
C697 C703 1.390 . S
C698 H689 0.930 . S
C698 C696 1.384 . S
C698 C699 1.372 . S
C699 C698 1.372 . S
C699 C700 1.400 . S
C699 C704 1.490 . S
C700 H690 0.930 . S
C700 C699 1.400 . S
C700 C703 1.386 . S
H701 C717 0.930 . S
H702 C718 0.931 . S
C703 H691 0.929 . S
C703 C697 1.390 . S
C703 C700 1.386 . S
C704 C699 1.490 . S
C704 C706 1.395 . S
C704 C707 1.403 . S
H705 C711 0.930 . S
C706 H692 0.930 . S
C706 C704 1.395 . S
C706 C709 1.403 1_655 S
C707 C704 1.403 . S
C707 C708 1.524 . S
C707 C711 1.400 1_655 S
C708 H693 0.960 1_655 S
C708 H694 0.960 . S
C708 H695 0.960 . S
C708 C707 1.524 . S
C709 C706 1.403 1_455 S
C709 C710 1.392 . S
C709 C713 1.495 . S
C710 C709 1.392 . S
C710 C711 1.385 . S
C710 C712 1.478 . S
C711 H705 0.930 . S
C711 C707 1.400 1_455 S
C711 C710 1.385 . S
C712 C710 1.478 . S
C712 C714 1.381 . S
C712 C718 1.383 . S
C713 C709 1.495 . S
C713 H719 0.959 . S
C713 H720 0.961 . S
C713 H721 0.960 . S
C714 C712 1.381 . S
C714 C715 1.394 . S
C714 H722 0.930 . S
C715 C714 1.394 . S
C715 C716 1.383 . S
C715 H723 0.929 . S
C716 C715 1.383 . S
C716 C717 1.377 . S
C717 H701 0.930 . S
C717 C716 1.377 . S
C717 C718 1.379 . S
C718 H702 0.931 . S
C718 C712 1.383 . S
C718 C717 1.379 . S
H719 C713 0.959 . S
H720 C713 0.961 . S
H721 C713 0.960 . S
H722 C714 0.930 . S
H723 C715 0.929 . S
H724 C732 0.929 . S
H725 C734 0.930 . S
H726 C736 0.930 . S
H727 C739 0.929 . S
H728 C742 0.930 . S
H729 C744 0.960 . S
H730 C744 0.960 . S
H731 C744 0.960 . S
C732 H724 0.929 . S
C732 C733 1.377 . S
C732 C734 1.384 . S
C733 C732 1.377 . S
C733 C739 1.390 . S
C734 H725 0.930 . S
C734 C732 1.384 . S
C734 C735 1.372 . S
C735 C734 1.372 . S
C735 C736 1.400 . S
C735 C740 1.490 . S
C736 H726 0.930 . S
C736 C735 1.400 . S
C736 C739 1.386 . S
H737 C753 0.930 . S
H738 C754 0.931 . S
C739 H727 0.929 . S
C739 C733 1.390 . S
C739 C736 1.386 . S
C740 C735 1.490 . S
C740 C742 1.395 . S
C740 C743 1.403 . S
H741 C747 0.930 . S
C742 H728 0.930 . S
C742 C740 1.395 . S
C742 C745 1.403 1_565 S
C743 C740 1.403 . S
C743 C744 1.524 . S
C743 C747 1.400 1_565 S
C744 H729 0.960 . S
C744 H730 0.960 . S
C744 H731 0.960 . S
C744 C743 1.524 . S
C745 C742 1.403 1_545 S
C745 C746 1.392 . S
C745 C749 1.495 . S
C746 C745 1.392 . S
C746 C747 1.385 . S
C746 C748 1.478 . S
C747 H741 0.930 . S
C747 C743 1.400 1_545 S
C747 C746 1.385 . S
C748 C746 1.478 . S
C748 C750 1.381 . S
C748 C754 1.383 . S
C749 C745 1.495 . S
C749 H755 0.959 . S
C749 H756 0.961 . S
C749 H757 0.960 . S
C750 C748 1.381 . S
C750 C751 1.394 . S
C750 H758 0.930 . S
C751 C750 1.394 . S
C751 C752 1.383 . S
C751 H759 0.929 . S
C752 C751 1.383 . S
C752 C753 1.377 . S
C753 H737 0.930 . S
C753 C752 1.377 . S
C753 C754 1.379 . S
C754 H738 0.931 . S
C754 C748 1.383 . S
C754 C753 1.379 . S
H755 C749 0.959 . S
H756 C749 0.961 . S
H757 C749 0.960 . S
H758 C750 0.930 . S
H759 C751 0.929 . S
H760 C768 0.929 . S
H761 C770 0.930 . S
H762 C772 0.930 . S
H763 C775 0.929 . S
H764 C778 0.930 . S
H765 C780 0.960 . S
H766 C780 0.960 . S
H767 C780 0.960 . S
C768 H760 0.929 . S
C768 C769 1.377 . S
C768 C770 1.384 . S
C769 C768 1.377 . S
C769 C775 1.390 . S
C770 H761 0.930 . S
C770 C768 1.384 . S
C770 C771 1.372 . S
C771 C770 1.372 . S
C771 C772 1.400 . S
C771 C776 1.490 . S
C772 H762 0.930 . S
C772 C771 1.400 . S
C772 C775 1.386 . S
H773 C789 0.930 . S
H774 C790 0.931 . S
C775 H763 0.929 . S
C775 C769 1.390 . S
C775 C772 1.386 . S
C776 C771 1.490 . S
C776 C778 1.395 . S
C776 C779 1.403 . S
H777 C783 0.930 . S
C778 H764 0.930 . S
C778 C776 1.395 . S
C778 C781 1.403 . S
C779 C776 1.403 . S
C779 C780 1.524 . S
C779 C783 1.400 . S
C780 H765 0.960 . S
C780 H766 0.960 . S
C780 H767 0.960 . S
C780 C779 1.524 . S
C781 C778 1.403 . S
C781 C782 1.392 . S
C781 C785 1.495 . S
C782 C781 1.392 . S
C782 C783 1.385 . S
C782 C784 1.478 1_655 S
C783 H777 0.930 . S
C783 C779 1.400 . S
C783 C782 1.385 . S
C784 C782 1.478 1_455 S
C784 C786 1.381 . S
C784 C790 1.383 . S
C785 C781 1.495 . S
C785 H791 0.959 . S
C785 H792 0.961 . S
C785 H793 0.960 . S
C786 C784 1.381 . S
C786 C787 1.394 . S
C786 H794 0.930 . S
C787 C786 1.394 . S
C787 C788 1.383 . S
C787 H795 0.929 . S
C788 C787 1.383 . S
C788 C789 1.377 . S
C789 H773 0.930 . S
C789 C788 1.377 . S
C789 C790 1.379 . S
C790 H774 0.931 . S
C790 C784 1.383 . S
C790 C789 1.379 . S
H791 C785 0.959 . S
H792 C785 0.961 . S
H793 C785 0.960 . S
H794 C786 0.930 . S
H795 C787 0.929 . S
H796 C804 0.929 . S
H797 C806 0.930 . S
H798 C808 0.930 . S
H799 C811 0.929 . S
H800 C814 0.930 1_545 S
H801 C816 0.960 1_565 S
H802 C816 0.960 . S
H803 C816 0.960 . S
C804 H796 0.929 . S
C804 C805 1.377 . S
C804 C806 1.384 . S
C805 C804 1.377 . S
C805 C811 1.390 . S
C806 H797 0.930 . S
C806 C804 1.384 . S
C806 C807 1.372 . S
C807 C806 1.372 . S
C807 C808 1.400 . S
C807 C812 1.490 . S
C808 H798 0.930 . S
C808 C807 1.400 . S
C808 C811 1.386 . S
H809 C825 0.930 . S
H810 C826 0.931 . S
C811 H799 0.929 . S
C811 C805 1.390 . S
C811 C808 1.386 . S
C812 C807 1.490 . S
C812 C814 1.395 1_545 S
C812 C815 1.403 1_545 S
H813 C819 0.930 . S
C814 H800 0.930 1_565 S
C814 C812 1.395 1_565 S
C814 C817 1.403 . S
C815 C812 1.403 1_565 S
C815 C816 1.524 1_565 S
C815 C819 1.400 . S
C816 H801 0.960 1_545 S
C816 H802 0.960 . S
C816 H803 0.960 . S
C816 C815 1.524 1_545 S
C817 C814 1.403 . S
C817 C818 1.392 . S
C817 C821 1.495 . S
C818 C817 1.392 . S
C818 C819 1.385 . S
C818 C820 1.478 . S
C819 H813 0.930 . S
C819 C815 1.400 . S
C819 C818 1.385 . S
C820 C818 1.478 . S
C820 C822 1.381 . S
C820 C826 1.383 . S
C821 C817 1.495 . S
C821 H827 0.959 . S
C821 H828 0.961 . S
C821 H829 0.960 . S
C822 C820 1.381 . S
C822 C823 1.394 . S
C822 H830 0.930 . S
C823 C822 1.394 . S
C823 C824 1.383 . S
C823 H831 0.929 . S
C824 C823 1.383 . S
C824 C825 1.377 . S
C825 H809 0.930 . S
C825 C824 1.377 . S
C825 C826 1.379 . S
C826 H810 0.931 . S
C826 C820 1.383 . S
C826 C825 1.379 . S
H827 C821 0.959 . S
H828 C821 0.961 . S
H829 C821 0.960 . S
H830 C822 0.930 . S
H831 C823 0.929 . S
H832 C840 0.929 . S
H833 C842 0.930 . S
H834 C844 0.930 . S
H835 C847 0.929 . S
H836 C850 0.930 . S
H837 C852 0.960 . S
H838 C852 0.960 . S
H839 C852 0.960 . S
C840 H832 0.929 . S
C840 C841 1.377 . S
C840 C842 1.384 . S
C841 C840 1.377 . S
C841 C847 1.390 . S
C842 H833 0.930 . S
C842 C840 1.384 . S
C842 C843 1.372 . S
C843 C842 1.372 . S
C843 C844 1.400 . S
C843 C848 1.490 . S
C844 H834 0.930 . S
C844 C843 1.400 . S
C844 C847 1.386 . S
H845 C861 0.930 . S
H846 C862 0.931 . S
C847 H835 0.929 . S
C847 C841 1.390 . S
C847 C844 1.386 . S
C848 C843 1.490 . S
C848 C850 1.395 . S
C848 C851 1.403 . S
H849 C855 0.930 . S
C850 H836 0.930 . S
C850 C848 1.395 . S
C850 C853 1.403 . S
C851 C848 1.403 . S
C851 C852 1.524 . S
C851 C855 1.400 . S
C852 H837 0.960 . S
C852 H838 0.960 . S
C852 H839 0.960 . S
C852 C851 1.524 . S
C853 C850 1.403 . S
C853 C854 1.392 . S
C853 C857 1.495 . S
C854 C853 1.392 . S
C854 C855 1.385 . S
C854 C856 1.478 . S
C855 H849 0.930 . S
C855 C851 1.400 . S
C855 C854 1.385 . S
C856 C854 1.478 . S
C856 C858 1.381 . S
C856 C862 1.383 . S
C857 C853 1.495 . S
C857 H863 0.959 . S
C857 H864 0.961 . S
C857 H865 0.960 . S
C858 C856 1.381 . S
C858 C859 1.394 . S
C858 H866 0.930 . S
C859 C858 1.394 . S
C859 C860 1.383 . S
C859 H867 0.929 . S
C860 C859 1.383 . S
C860 C861 1.377 . S
C861 H845 0.930 . S
C861 C860 1.377 . S
C861 C862 1.379 . S
C862 H846 0.931 . S
C862 C856 1.383 . S
C862 C861 1.379 . S
H863 C857 0.959 . S
H864 C857 0.961 . S
H865 C857 0.960 . S
H866 C858 0.930 . S
H867 C859 0.929 . S
H868 C876 0.929 . S
H869 C878 0.930 . S
H870 C880 0.930 . S
H871 C883 0.929 . S
H872 C886 0.930 . S
H873 C888 0.960 . S
H874 C888 0.960 . S
H875 C888 0.960 . S
C876 H868 0.929 . S
C876 C877 1.377 . S
C876 C878 1.384 . S
C877 C876 1.377 . S
C877 C883 1.390 . S
C878 H869 0.930 . S
C878 C876 1.384 . S
C878 C879 1.372 . S
C879 C878 1.372 . S
C879 C880 1.400 . S
C879 C884 1.490 . S
C880 H870 0.930 . S
C880 C879 1.400 . S
C880 C883 1.386 . S
H881 C897 0.930 . S
H882 C898 0.931 . S
C883 H871 0.929 . S
C883 C877 1.390 . S
C883 C880 1.386 . S
C884 C879 1.490 . S
C884 C886 1.395 . S
C884 C887 1.403 . S
H885 C891 0.930 . S
C886 H872 0.930 . S
C886 C884 1.395 . S
C886 C889 1.403 . S
C887 C884 1.403 . S
C887 C888 1.524 . S
C887 C891 1.400 . S
C888 H873 0.960 . S
C888 H874 0.960 . S
C888 H875 0.960 . S
C888 C887 1.524 . S
C889 C886 1.403 . S
C889 C890 1.392 . S
C889 C893 1.495 . S
C890 C889 1.392 . S
C890 C891 1.385 . S
C890 C892 1.478 . S
C891 H885 0.930 . S
C891 C887 1.400 . S
C891 C890 1.385 . S
C892 C890 1.478 . S
C892 C894 1.381 . S
C892 C898 1.383 . S
C893 C889 1.495 . S
C893 H899 0.959 . S
C893 H900 0.961 . S
C893 H901 0.960 . S
C894 C892 1.381 . S
C894 C895 1.394 . S
C894 H902 0.930 . S
C895 C894 1.394 . S
C895 C896 1.383 . S
C895 H903 0.929 . S
C896 C895 1.383 . S
C896 C897 1.377 . S
C897 H881 0.930 . S
C897 C896 1.377 . S
C897 C898 1.379 . S
C898 H882 0.931 . S
C898 C892 1.383 . S
C898 C897 1.379 . S
H899 C893 0.959 . S
H900 C893 0.961 . S
H901 C893 0.960 . S
H902 C894 0.930 . S
H903 C895 0.929 . S
H904 C912 0.929 . S
H905 C914 0.930 . S
H906 C916 0.930 . S
H907 C919 0.929 . S
H908 C922 0.930 . S
H909 C924 0.960 . S
H910 C924 0.960 . S
H911 C924 0.960 . S
C912 H904 0.929 . S
C912 C913 1.377 . S
C912 C914 1.384 . S
C913 C912 1.377 . S
C913 C919 1.390 . S
C914 H905 0.930 . S
C914 C912 1.384 . S
C914 C915 1.372 . S
C915 C914 1.372 . S
C915 C916 1.400 . S
C915 C920 1.490 . S
C916 H906 0.930 . S
C916 C915 1.400 . S
C916 C919 1.386 . S
H917 C933 0.930 . S
H918 C934 0.931 . S
C919 H907 0.929 . S
C919 C913 1.390 . S
C919 C916 1.386 . S
C920 C915 1.490 . S
C920 C922 1.395 . S
C920 C923 1.403 . S
H921 C927 0.930 . S
C922 H908 0.930 . S
C922 C920 1.395 . S
C922 C925 1.403 . S
C923 C920 1.403 . S
C923 C924 1.524 . S
C923 C927 1.400 . S
C924 H909 0.960 . S
C924 H910 0.960 . S
C924 H911 0.960 . S
C924 C923 1.524 . S
C925 C922 1.403 . S
C925 C926 1.392 . S
C925 C929 1.495 . S
C926 C925 1.392 . S
C926 C927 1.385 . S
C926 C928 1.478 . S
C927 H921 0.930 . S
C927 C923 1.400 . S
C927 C926 1.385 . S
C928 C926 1.478 . S
C928 C930 1.381 . S
C928 C934 1.383 . S
C929 C925 1.495 . S
C929 H935 0.959 . S
C929 H936 0.961 . S
C929 H937 0.960 . S
C930 C928 1.381 . S
C930 C931 1.394 . S
C930 H938 0.930 . S
C931 C930 1.394 . S
C931 C932 1.383 . S
C931 H939 0.929 . S
C932 C931 1.383 . S
C932 C933 1.377 . S
C933 H917 0.930 . S
C933 C932 1.377 . S
C933 C934 1.379 . S
C934 H918 0.931 . S
C934 C928 1.383 . S
C934 C933 1.379 . S
H935 C929 0.959 . S
H936 C929 0.961 . S
H937 C929 0.960 . S
H938 C930 0.930 . S
H939 C931 0.929 . S
H940 C948 0.929 . S
H941 C950 0.930 . S
H942 C952 0.930 . S
H943 C955 0.929 . S
H944 C958 0.930 . S
H945 C960 0.960 . S
H946 C960 0.960 . S
H947 C960 0.960 . S
C948 H940 0.929 . S
C948 C949 1.377 . S
C948 C950 1.384 . S
C949 C948 1.377 . S
C949 C955 1.390 . S
C950 H941 0.930 . S
C950 C948 1.384 . S
C950 C951 1.372 . S
C951 C950 1.372 . S
C951 C952 1.400 . S
C951 C956 1.490 . S
C952 H942 0.930 . S
C952 C951 1.400 . S
C952 C955 1.386 . S
H953 C969 0.930 . S
H954 C970 0.931 . S
C955 H943 0.929 . S
C955 C949 1.390 . S
C955 C952 1.386 . S
C956 C951 1.490 . S
C956 C958 1.395 . S
C956 C959 1.403 . S
H957 C963 0.930 . S
C958 H944 0.930 . S
C958 C956 1.395 . S
C958 C961 1.403 . S
C959 C956 1.403 . S
C959 C960 1.524 . S
C959 C963 1.400 . S
C960 H945 0.960 . S
C960 H946 0.960 . S
C960 H947 0.960 . S
C960 C959 1.524 . S
C961 C958 1.403 . S
C961 C962 1.392 . S
C961 C965 1.495 . S
C962 C961 1.392 . S
C962 C963 1.385 . S
C962 C964 1.478 . S
C963 H957 0.930 . S
C963 C959 1.400 . S
C963 C962 1.385 . S
C964 C962 1.478 . S
C964 C966 1.381 . S
C964 C970 1.383 . S
C965 C961 1.495 . S
C965 H971 0.959 . S
C965 H972 0.961 . S
C965 H973 0.960 . S
C966 C964 1.381 . S
C966 C967 1.394 . S
C966 H974 0.930 . S
C967 C966 1.394 . S
C967 C968 1.383 . S
C967 H975 0.929 . S
C968 C967 1.383 . S
C968 C969 1.377 . S
C969 H953 0.930 . S
C969 C968 1.377 . S
C969 C970 1.379 . S
C970 H954 0.931 . S
C970 C964 1.383 . S
C970 C969 1.379 . S
H971 C965 0.959 . S
H972 C965 0.961 . S
H973 C965 0.960 . S
H974 C966 0.930 . S
H975 C967 0.929 . S
H976 C984 0.929 . S
H977 C986 0.930 . S
H978 C988 0.930 . S
H979 C991 0.929 . S
H980 C994 0.930 . S
H981 C996 0.960 . S
H982 C996 0.960 . S
H983 C996 0.960 . S
C984 H976 0.929 . S
C984 C985 1.377 . S
C984 C986 1.384 . S
C985 C984 1.377 . S
C985 C991 1.390 . S
C986 H977 0.930 . S
C986 C984 1.384 . S
C986 C987 1.372 . S
C987 C986 1.372 . S
C987 C988 1.400 . S
C987 C992 1.490 . S
C988 H978 0.930 . S
C988 C987 1.400 . S
C988 C991 1.386 . S
H989 C1005 0.930 . S
H990 C1006 0.931 . S
C991 H979 0.929 . S
C991 C985 1.390 . S
C991 C988 1.386 . S
C992 C987 1.490 . S
C992 C994 1.395 . S
C992 C995 1.403 . S
H993 C999 0.930 . S
C994 H980 0.930 . S
C994 C992 1.395 . S
C994 C997 1.403 . S
C995 C992 1.403 . S
C995 C996 1.524 . S
C995 C999 1.400 . S
C996 H981 0.960 . S
C996 H982 0.960 . S
C996 H983 0.960 . S
C996 C995 1.524 . S
C997 C994 1.403 . S
C997 C998 1.392 . S
C997 C1001 1.495 . S
C998 C997 1.392 . S
C998 C999 1.385 . S
C998 C1000 1.478 . S
C999 H993 0.930 . S
C999 C995 1.400 . S
C999 C998 1.385 . S
C1000 C998 1.478 . S
C1000 C1002 1.381 . S
C1000 C1006 1.383 . S
C1001 C997 1.495 . S
C1001 H1007 0.959 . S
C1001 H1008 0.961 . S
C1001 H1009 0.960 . S
C1002 C1000 1.381 . S
C1002 C1003 1.394 . S
C1002 H1010 0.930 . S
C1003 C1002 1.394 . S
C1003 C1004 1.383 . S
C1003 H1011 0.929 . S
C1004 C1003 1.383 . S
C1004 C1005 1.377 . S
C1005 H989 0.930 . S
C1005 C1004 1.377 . S
C1005 C1006 1.379 . S
C1006 H990 0.931 . S
C1006 C1000 1.383 . S
C1006 C1005 1.379 . S
H1007 C1001 0.959 . S
H1008 C1001 0.961 . S
H1009 C1001 0.960 . S
H1010 C1002 0.930 . S
H1011 C1003 0.929 . S
H1012 C1020 0.929 . S
H1013 C1022 0.930 . S
H1014 C1024 0.930 . S
H1015 C1027 0.929 . S
H1016 C1030 0.930 . S
H1017 C1032 0.960 . S
H1018 C1032 0.960 . S
H1019 C1032 0.960 . S
C1020 H1012 0.929 . S
C1020 C1021 1.377 . S
C1020 C1022 1.384 . S
C1021 C1020 1.377 . S
C1021 C1027 1.390 . S
C1022 H1013 0.930 . S
C1022 C1020 1.384 . S
C1022 C1023 1.372 . S
C1023 C1022 1.372 . S
C1023 C1024 1.400 . S
C1023 C1028 1.490 . S
C1024 H1014 0.930 . S
C1024 C1023 1.400 . S
C1024 C1027 1.386 . S
H1025 C1041 0.930 . S
H1026 C1042 0.931 . S
C1027 H1015 0.929 . S
C1027 C1021 1.390 . S
C1027 C1024 1.386 . S
C1028 C1023 1.490 . S
C1028 C1030 1.395 . S
C1028 C1031 1.403 . S
H1029 C1035 0.930 . S
C1030 H1016 0.930 . S
C1030 C1028 1.395 . S
C1030 C1033 1.403 . S
C1031 C1028 1.403 . S
C1031 C1032 1.524 . S
C1031 C1035 1.400 . S
C1032 H1017 0.960 . S
C1032 H1018 0.960 . S
C1032 H1019 0.960 . S
C1032 C1031 1.524 . S
C1033 C1030 1.403 . S
C1033 C1034 1.392 . S
C1033 C1037 1.495 . S
C1034 C1033 1.392 . S
C1034 C1035 1.385 . S
C1034 C1036 1.478 . S
C1035 H1029 0.930 . S
C1035 C1031 1.400 . S
C1035 C1034 1.385 . S
C1036 C1034 1.478 . S
C1036 C1038 1.381 . S
C1036 C1042 1.383 . S
C1037 C1033 1.495 . S
C1037 H1043 0.959 . S
C1037 H1044 0.961 . S
C1037 H1045 0.960 . S
C1038 C1036 1.381 . S
C1038 C1039 1.394 . S
C1038 H1046 0.930 . S
C1039 C1038 1.394 . S
C1039 C1040 1.383 . S
C1039 H1047 0.929 . S
C1040 C1039 1.383 . S
C1040 C1041 1.377 . S
C1041 H1025 0.930 . S
C1041 C1040 1.377 . S
C1041 C1042 1.379 . S
C1042 H1026 0.931 . S
C1042 C1036 1.383 . S
C1042 C1041 1.379 . S
H1043 C1037 0.959 . S
H1044 C1037 0.961 . S
H1045 C1037 0.960 . S
H1046 C1038 0.930 . S
H1047 C1039 0.929 . S
H1048 C1056 0.929 . S
H1049 C1058 0.930 . S
H1050 C1060 0.930 . S
H1051 C1063 0.929 . S
H1052 C1066 0.930 . S
H1053 C1068 0.960 . S
H1054 C1068 0.960 . S
H1055 C1068 0.960 . S
C1056 H1048 0.929 . S
C1056 C1057 1.377 . S
C1056 C1058 1.384 . S
C1057 C1056 1.377 . S
C1057 C1063 1.390 . S
C1058 H1049 0.930 . S
C1058 C1056 1.384 . S
C1058 C1059 1.372 . S
C1059 C1058 1.372 . S
C1059 C1060 1.400 . S
C1059 C1064 1.490 . S
C1060 H1050 0.930 . S
C1060 C1059 1.400 . S
C1060 C1063 1.386 . S
H1061 C1077 0.930 . S
H1062 C1078 0.931 . S
C1063 H1051 0.929 . S
C1063 C1057 1.390 . S
C1063 C1060 1.386 . S
C1064 C1059 1.490 . S
C1064 C1066 1.395 . S
C1064 C1067 1.403 . S
H1065 C1071 0.930 . S
C1066 H1052 0.930 . S
C1066 C1064 1.395 . S
C1066 C1069 1.403 . S
C1067 C1064 1.403 . S
C1067 C1068 1.524 . S
C1067 C1071 1.400 . S
C1068 H1053 0.960 . S
C1068 H1054 0.960 . S
C1068 H1055 0.960 . S
C1068 C1067 1.524 . S
C1069 C1066 1.403 . S
C1069 C1070 1.392 . S
C1069 C1073 1.495 . S
C1070 C1069 1.392 . S
C1070 C1071 1.385 . S
C1070 C1072 1.478 . S
C1071 H1065 0.930 . S
C1071 C1067 1.400 . S
C1071 C1070 1.385 . S
C1072 C1070 1.478 . S
C1072 C1074 1.381 . S
C1072 C1078 1.383 . S
C1073 C1069 1.495 . S
C1073 H1079 0.959 . S
C1073 H1080 0.961 . S
C1073 H1081 0.960 . S
C1074 C1072 1.381 . S
C1074 C1075 1.394 . S
C1074 H1082 0.930 . S
C1075 C1074 1.394 . S
C1075 C1076 1.383 . S
C1075 H1083 0.929 . S
C1076 C1075 1.383 . S
C1076 C1077 1.377 . S
C1077 H1061 0.930 . S
C1077 C1076 1.377 . S
C1077 C1078 1.379 . S
C1078 H1062 0.931 . S
C1078 C1072 1.383 . S
C1078 C1077 1.379 . S
H1079 C1073 0.959 . S
H1080 C1073 0.961 . S
H1081 C1073 0.960 . S
H1082 C1074 0.930 . S
H1083 C1075 0.929 . S
H1084 C1092 0.929 . S
H1085 C1094 0.930 . S
H1086 C1096 0.930 . S
H1087 C1099 0.929 . S
H1088 C1102 0.930 . S
H1089 C1104 0.960 . S
H1090 C1104 0.960 . S
H1091 C1104 0.960 . S
C1092 H1084 0.929 . S
C1092 C1093 1.377 . S
C1092 C1094 1.384 . S
C1093 C1092 1.377 . S
C1093 C1099 1.390 . S
C1094 H1085 0.930 . S
C1094 C1092 1.384 . S
C1094 C1095 1.372 . S
C1095 C1094 1.372 . S
C1095 C1096 1.400 . S
C1095 C1100 1.490 . S
C1096 H1086 0.930 . S
C1096 C1095 1.400 . S
C1096 C1099 1.386 . S
H1097 C1113 0.930 . S
H1098 C1114 0.931 . S
C1099 H1087 0.929 . S
C1099 C1093 1.390 . S
C1099 C1096 1.386 . S
C1100 C1095 1.490 . S
C1100 C1102 1.395 . S
C1100 C1103 1.403 . S
H1101 C1107 0.930 . S
C1102 H1088 0.930 . S
C1102 C1100 1.395 . S
C1102 C1105 1.403 . S
C1103 C1100 1.403 . S
C1103 C1104 1.524 . S
C1103 C1107 1.400 . S
C1104 H1089 0.960 . S
C1104 H1090 0.960 . S
C1104 H1091 0.960 . S
C1104 C1103 1.524 . S
C1105 C1102 1.403 . S
C1105 C1106 1.392 . S
C1105 C1109 1.495 . S
C1106 C1105 1.392 . S
C1106 C1107 1.385 . S
C1106 C1108 1.478 . S
C1107 H1101 0.930 . S
C1107 C1103 1.400 . S
C1107 C1106 1.385 . S
C1108 C1106 1.478 . S
C1108 C1110 1.381 . S
C1108 C1114 1.383 . S
C1109 C1105 1.495 . S
C1109 H1115 0.959 . S
C1109 H1116 0.961 . S
C1109 H1117 0.960 . S
C1110 C1108 1.381 . S
C1110 C1111 1.394 . S
C1110 H1118 0.930 . S
C1111 C1110 1.394 . S
C1111 C1112 1.383 . S
C1111 H1119 0.929 . S
C1112 C1111 1.383 . S
C1112 C1113 1.377 . S
C1113 H1097 0.930 . S
C1113 C1112 1.377 . S
C1113 C1114 1.379 . S
C1114 H1098 0.931 . S
C1114 C1108 1.383 . S
C1114 C1113 1.379 . S
H1115 C1109 0.959 . S
H1116 C1109 0.961 . S
H1117 C1109 0.960 . S
H1118 C1110 0.930 . S
H1119 C1111 0.929 . S
H1120 C1128 0.929 . S
H1121 C1130 0.930 . S
H1122 C1132 0.930 . S
H1123 C1135 0.929 . S
H1124 C1138 0.930 . S
H1125 C1140 0.960 . S
H1126 C1140 0.960 . S
H1127 C1140 0.960 . S
C1128 H1120 0.929 . S
C1128 C1129 1.377 . S
C1128 C1130 1.384 . S
C1129 C1128 1.377 . S
C1129 C1135 1.390 . S
C1130 H1121 0.930 . S
C1130 C1128 1.384 . S
C1130 C1131 1.372 . S
C1131 C1130 1.372 . S
C1131 C1132 1.400 . S
C1131 C1136 1.490 . S
C1132 H1122 0.930 . S
C1132 C1131 1.400 . S
C1132 C1135 1.386 . S
H1133 C1149 0.930 . S
H1134 C1150 0.931 . S
C1135 H1123 0.929 . S
C1135 C1129 1.390 . S
C1135 C1132 1.386 . S
C1136 C1131 1.490 . S
C1136 C1138 1.395 . S
C1136 C1139 1.403 . S
H1137 C1143 0.930 . S
C1138 H1124 0.930 . S
C1138 C1136 1.395 . S
C1138 C1141 1.403 1_554 S
C1139 C1136 1.403 . S
C1139 C1140 1.524 . S
C1139 C1143 1.400 1_554 S
C1140 H1125 0.960 . S
C1140 H1126 0.960 . S
C1140 H1127 0.960 . S
C1140 C1139 1.524 . S
C1141 C1138 1.403 1_556 S
C1141 C1142 1.392 . S
C1141 C1145 1.495 . S
C1142 C1141 1.392 . S
C1142 C1143 1.385 . S
C1142 C1144 1.478 . S
C1143 H1137 0.930 . S
C1143 C1139 1.400 1_556 S
C1143 C1142 1.385 . S
C1144 C1142 1.478 . S
C1144 C1146 1.381 . S
C1144 C1150 1.383 . S
C1145 C1141 1.495 . S
C1145 H1151 0.959 . S
C1145 H1152 0.961 . S
C1145 H1153 0.960 . S
C1146 C1144 1.381 . S
C1146 C1147 1.394 . S
C1146 H1154 0.930 . S
C1147 C1146 1.394 . S
C1147 C1148 1.383 . S
C1147 H1155 0.929 . S
C1148 C1147 1.383 . S
C1148 C1149 1.377 . S
C1149 H1133 0.930 . S
C1149 C1148 1.377 . S
C1149 C1150 1.379 . S
C1150 H1134 0.931 . S
C1150 C1144 1.383 . S
C1150 C1149 1.379 . S
H1151 C1145 0.959 . S
H1152 C1145 0.961 . S
H1153 C1145 0.960 . S
H1154 C1146 0.930 . S
H1155 C1147 0.929 . S
H1156 C1164 0.929 . S
H1157 C1166 0.930 . S
H1158 C1168 0.930 . S
H1159 C1171 0.929 . S
H1160 C1174 0.930 . S
H1161 C1176 0.960 . S
H1162 C1176 0.960 . S
H1163 C1176 0.960 . S
C1164 H1156 0.929 . S
C1164 C1165 1.377 . S
C1164 C1166 1.384 . S
C1165 C1164 1.377 . S
C1165 C1171 1.390 . S
C1166 H1157 0.930 . S
C1166 C1164 1.384 . S
C1166 C1167 1.372 . S
C1167 C1166 1.372 . S
C1167 C1168 1.400 . S
C1167 C1172 1.490 . S
C1168 H1158 0.930 . S
C1168 C1167 1.400 . S
C1168 C1171 1.386 . S
H1169 C1185 0.930 . S
H1170 C1186 0.931 . S
C1171 H1159 0.929 . S
C1171 C1165 1.390 . S
C1171 C1168 1.386 . S
C1172 C1167 1.490 . S
C1172 C1174 1.395 . S
C1172 C1175 1.403 . S
H1173 C1179 0.930 . S
C1174 H1160 0.930 . S
C1174 C1172 1.395 . S
C1174 C1177 1.403 . S
C1175 C1172 1.403 . S
C1175 C1176 1.524 . S
C1175 C1179 1.400 . S
C1176 H1161 0.960 . S
C1176 H1162 0.960 . S
C1176 H1163 0.960 . S
C1176 C1175 1.524 . S
C1177 C1174 1.403 . S
C1177 C1178 1.392 . S
C1177 C1181 1.495 . S
C1178 C1177 1.392 . S
C1178 C1179 1.385 . S
C1178 C1180 1.478 . S
C1179 H1173 0.930 . S
C1179 C1175 1.400 . S
C1179 C1178 1.385 . S
C1180 C1178 1.478 . S
C1180 C1182 1.381 . S
C1180 C1186 1.383 . S
C1181 C1177 1.495 . S
C1181 H1187 0.959 . S
C1181 H1188 0.961 . S
C1181 H1189 0.960 . S
C1182 C1180 1.381 . S
C1182 C1183 1.394 . S
C1182 H1190 0.930 . S
C1183 C1182 1.394 . S
C1183 C1184 1.383 . S
C1183 H1191 0.929 . S
C1184 C1183 1.383 . S
C1184 C1185 1.377 . S
C1185 H1169 0.930 . S
C1185 C1184 1.377 . S
C1185 C1186 1.379 . S
C1186 H1170 0.931 . S
C1186 C1180 1.383 . S
C1186 C1185 1.379 . S
H1187 C1181 0.959 . S
H1188 C1181 0.961 . S
H1189 C1181 0.960 . S
H1190 C1182 0.930 . S
H1191 C1183 0.929 . S
H1192 C1200 0.929 . S
H1193 C1202 0.930 . S
H1194 C1204 0.930 . S
H1195 C1207 0.929 . S
H1196 C1210 0.930 . S
H1197 C1212 0.960 . S
H1198 C1212 0.960 . S
H1199 C1212 0.960 . S
C1200 H1192 0.929 . S
C1200 C1201 1.377 . S
C1200 C1202 1.384 . S
C1201 C1200 1.377 . S
C1201 C1207 1.390 . S
C1202 H1193 0.930 . S
C1202 C1200 1.384 . S
C1202 C1203 1.372 . S
C1203 C1202 1.372 . S
C1203 C1204 1.400 . S
C1203 C1208 1.490 . S
C1204 H1194 0.930 . S
C1204 C1203 1.400 . S
C1204 C1207 1.386 . S
H1205 C1221 0.930 . S
H1206 C1222 0.931 . S
C1207 H1195 0.929 . S
C1207 C1201 1.390 . S
C1207 C1204 1.386 . S
C1208 C1203 1.490 . S
C1208 C1210 1.395 . S
C1208 C1211 1.403 . S
H1209 C1215 0.930 . S
C1210 H1196 0.930 . S
C1210 C1208 1.395 . S
C1210 C1213 1.403 1_556 S
C1211 C1208 1.403 . S
C1211 C1212 1.524 . S
C1211 C1215 1.400 1_556 S
C1212 H1197 0.960 . S
C1212 H1198 0.960 . S
C1212 H1199 0.960 . S
C1212 C1211 1.524 . S
C1213 C1210 1.403 1_554 S
C1213 C1214 1.392 . S
C1213 C1217 1.495 . S
C1214 C1213 1.392 . S
C1214 C1215 1.385 . S
C1214 C1216 1.478 . S
C1215 H1209 0.930 . S
C1215 C1211 1.400 1_554 S
C1215 C1214 1.385 . S
C1216 C1214 1.478 . S
C1216 C1218 1.381 . S
C1216 C1222 1.383 . S
C1217 C1213 1.495 . S
C1217 H1223 0.959 . S
C1217 H1224 0.961 . S
C1217 H1225 0.960 . S
C1218 C1216 1.381 . S
C1218 C1219 1.394 . S
C1218 H1226 0.930 . S
C1219 C1218 1.394 . S
C1219 C1220 1.383 . S
C1219 H1227 0.929 . S
C1220 C1219 1.383 . S
C1220 C1221 1.377 . S
C1221 H1205 0.930 . S
C1221 C1220 1.377 . S
C1221 C1222 1.379 . S
C1222 H1206 0.931 . S
C1222 C1216 1.383 . S
C1222 C1221 1.379 . S
H1223 C1217 0.959 . S
H1224 C1217 0.961 . S
H1225 C1217 0.960 . S
H1226 C1218 0.930 . S
H1227 C1219 0.929 . S
H1228 C1236 0.929 . S
H1229 C1238 0.930 . S
H1230 C1240 0.930 . S
H1231 C1243 0.929 . S
H1232 C1246 0.930 . S
H1233 C1248 0.960 . S
H1234 C1248 0.960 . S
H1235 C1248 0.960 . S
C1236 H1228 0.929 . S
C1236 C1237 1.377 . S
C1236 C1238 1.384 . S
C1237 C1236 1.377 . S
C1237 C1243 1.390 . S
C1238 H1229 0.930 . S
C1238 C1236 1.384 . S
C1238 C1239 1.372 . S
C1239 C1238 1.372 . S
C1239 C1240 1.400 . S
C1239 C1244 1.490 . S
C1240 H1230 0.930 . S
C1240 C1239 1.400 . S
C1240 C1243 1.386 . S
H1241 C1257 0.930 . S
H1242 C1258 0.931 . S
C1243 H1231 0.929 . S
C1243 C1237 1.390 . S
C1243 C1240 1.386 . S
C1244 C1239 1.490 . S
C1244 C1246 1.395 . S
C1244 C1247 1.403 . S
H1245 C1251 0.930 . S
C1246 H1232 0.930 . S
C1246 C1244 1.395 . S
C1246 C1249 1.403 . S
C1247 C1244 1.403 . S
C1247 C1248 1.524 . S
C1247 C1251 1.400 . S
C1248 H1233 0.960 . S
C1248 H1234 0.960 . S
C1248 H1235 0.960 . S
C1248 C1247 1.524 . S
C1249 C1246 1.403 . S
C1249 C1250 1.392 . S
C1249 C1253 1.495 . S
C1250 C1249 1.392 . S
C1250 C1251 1.385 . S
C1250 C1252 1.478 . S
C1251 H1245 0.930 . S
C1251 C1247 1.400 . S
C1251 C1250 1.385 . S
C1252 C1250 1.478 . S
C1252 C1254 1.381 . S
C1252 C1258 1.383 . S
C1253 C1249 1.495 . S
C1253 H1259 0.959 . S
C1253 H1260 0.961 . S
C1253 H1261 0.960 . S
C1254 C1252 1.381 . S
C1254 C1255 1.394 . S
C1254 H1262 0.930 . S
C1255 C1254 1.394 . S
C1255 C1256 1.383 . S
C1255 H1263 0.929 . S
C1256 C1255 1.383 . S
C1256 C1257 1.377 . S
C1257 H1241 0.930 . S
C1257 C1256 1.377 . S
C1257 C1258 1.379 . S
C1258 H1242 0.931 . S
C1258 C1252 1.383 . S
C1258 C1257 1.379 . S
H1259 C1253 0.959 . S
H1260 C1253 0.961 . S
H1261 C1253 0.960 . S
H1262 C1254 0.930 . S
H1263 C1255 0.929 . S
H1264 C1272 0.929 . S
H1265 C1274 0.930 . S
H1266 C1276 0.930 . S
H1267 C1279 0.929 . S
H1268 C1282 0.930 . S
H1269 C1284 0.960 . S
H1270 C1284 0.960 . S
H1271 C1284 0.960 . S
C1272 H1264 0.929 . S
C1272 C1273 1.377 . S
C1272 C1274 1.384 . S
C1273 C1272 1.377 . S
C1273 C1279 1.390 . S
C1274 H1265 0.930 . S
C1274 C1272 1.384 . S
C1274 C1275 1.372 . S
C1275 C1274 1.372 . S
C1275 C1276 1.400 . S
C1275 C1280 1.490 . S
C1276 H1266 0.930 . S
C1276 C1275 1.400 . S
C1276 C1279 1.386 . S
H1277 C1293 0.930 . S
H1278 C1294 0.931 . S
C1279 H1267 0.929 . S
C1279 C1273 1.390 . S
C1279 C1276 1.386 . S
C1280 C1275 1.490 . S
C1280 C1282 1.395 . S
C1280 C1283 1.403 . S
H1281 C1287 0.930 . S
C1282 H1268 0.930 . S
C1282 C1280 1.395 . S
C1282 C1285 1.403 1_556 S
C1283 C1280 1.403 . S
C1283 C1284 1.524 . S
C1283 C1287 1.400 1_556 S
C1284 H1269 0.960 . S
C1284 H1270 0.960 . S
C1284 H1271 0.960 . S
C1284 C1283 1.524 . S
C1285 C1282 1.403 1_554 S
C1285 C1286 1.392 . S
C1285 C1289 1.495 . S
C1286 C1285 1.392 . S
C1286 C1287 1.385 . S
C1286 C1288 1.478 . S
C1287 H1281 0.930 . S
C1287 C1283 1.400 1_554 S
C1287 C1286 1.385 . S
C1288 C1286 1.478 . S
C1288 C1290 1.381 . S
C1288 C1294 1.383 . S
C1289 C1285 1.495 . S
C1289 H1295 0.959 . S
C1289 H1296 0.961 . S
C1289 H1297 0.960 . S
C1290 C1288 1.381 . S
C1290 C1291 1.394 . S
C1290 H1298 0.930 . S
C1291 C1290 1.394 . S
C1291 C1292 1.383 . S
C1291 H1299 0.929 . S
C1292 C1291 1.383 . S
C1292 C1293 1.377 . S
C1293 H1277 0.930 . S
C1293 C1292 1.377 . S
C1293 C1294 1.379 . S
C1294 H1278 0.931 . S
C1294 C1288 1.383 . S
C1294 C1293 1.379 . S
H1295 C1289 0.959 . S
H1296 C1289 0.961 . S
H1297 C1289 0.960 . S
H1298 C1290 0.930 . S
H1299 C1291 0.929 . S
H1300 C1308 0.929 . S
H1301 C1310 0.930 . S
H1302 C1312 0.930 . S
H1303 C1315 0.929 . S
H1304 C1318 0.930 . S
H1305 C1320 0.960 . S
H1306 C1320 0.960 . S
H1307 C1320 0.960 . S
C1308 H1300 0.929 . S
C1308 C1309 1.377 . S
C1308 C1310 1.384 . S
C1309 C1308 1.377 . S
C1309 C1315 1.390 . S
C1310 H1301 0.930 . S
C1310 C1308 1.384 . S
C1310 C1311 1.372 . S
C1311 C1310 1.372 . S
C1311 C1312 1.400 . S
C1311 C1316 1.490 . S
C1312 H1302 0.930 . S
C1312 C1311 1.400 . S
C1312 C1315 1.386 . S
H1313 C1329 0.930 . S
H1314 C1330 0.931 . S
C1315 H1303 0.929 . S
C1315 C1309 1.390 . S
C1315 C1312 1.386 . S
C1316 C1311 1.490 . S
C1316 C1318 1.395 . S
C1316 C1319 1.403 . S
H1317 C1323 0.930 . S
C1318 H1304 0.930 . S
C1318 C1316 1.395 . S
C1318 C1321 1.403 . S
C1319 C1316 1.403 . S
C1319 C1320 1.524 . S
C1319 C1323 1.400 . S
C1320 H1305 0.960 . S
C1320 H1306 0.960 . S
C1320 H1307 0.960 . S
C1320 C1319 1.524 . S
C1321 C1318 1.403 . S
C1321 C1322 1.392 . S
C1321 C1325 1.495 . S
C1322 C1321 1.392 . S
C1322 C1323 1.385 . S
C1322 C1324 1.478 . S
C1323 H1317 0.930 . S
C1323 C1319 1.400 . S
C1323 C1322 1.385 . S
C1324 C1322 1.478 . S
C1324 C1326 1.381 . S
C1324 C1330 1.383 . S
C1325 C1321 1.495 . S
C1325 H1331 0.959 . S
C1325 H1332 0.961 . S
C1325 H1333 0.960 . S
C1326 C1324 1.381 . S
C1326 C1327 1.394 . S
C1326 H1334 0.930 . S
C1327 C1326 1.394 . S
C1327 C1328 1.383 . S
C1327 H1335 0.929 . S
C1328 C1327 1.383 . S
C1328 C1329 1.377 . S
C1329 H1313 0.930 . S
C1329 C1328 1.377 . S
C1329 C1330 1.379 . S
C1330 H1314 0.931 . S
C1330 C1324 1.383 . S
C1330 C1329 1.379 . S
H1331 C1325 0.959 . S
H1332 C1325 0.961 . S
H1333 C1325 0.960 . S
H1334 C1326 0.930 . S
H1335 C1327 0.929 . S
H1336 C1344 0.929 . S
H1337 C1346 0.930 . S
H1338 C1348 0.930 . S
H1339 C1351 0.929 . S
H1340 C1354 0.930 . S
H1341 C1356 0.980 . S
H1342 C1356 0.960 . S
H1343 C1356 0.960 . S
C1344 H1336 0.929 . S
C1344 C1345 1.377 . S
C1344 C1346 1.384 . S
C1345 C1344 1.377 . S
C1345 C1351 1.390 . S
C1346 H1337 0.930 . S
C1346 C1344 1.384 . S
C1346 C1347 1.372 . S
C1347 C1346 1.372 . S
C1347 C1348 1.400 . S
C1347 C1352 1.490 . S
C1348 H1338 0.930 . S
C1348 C1347 1.400 . S
C1348 C1351 1.386 . S
H1349 C1365 0.930 . S
H1350 C1366 0.931 . S
C1351 H1339 0.929 . S
C1351 C1345 1.390 . S
C1351 C1348 1.386 . S
C1352 C1347 1.490 . S
C1352 C1354 1.395 . S
C1352 C1355 1.403 . S
H1353 C1359 0.930 . S
C1354 H1340 0.930 . S
C1354 C1352 1.395 . S
C1354 C1357 1.403 1_554 S
C1355 C1352 1.403 . S
C1355 C1356 1.524 . S
C1355 C1359 1.400 1_554 S
C1356 H1341 0.980 . S
C1356 H1342 0.960 . S
C1356 H1343 0.960 . S
C1356 C1355 1.524 . S
C1357 C1354 1.403 1_556 S
C1357 C1358 1.392 . S
C1357 C1361 1.495 . S
C1358 C1357 1.392 . S
C1358 C1359 1.385 . S
C1358 C1360 1.478 . S
C1359 H1353 0.930 . S
C1359 C1355 1.400 1_556 S
C1359 C1358 1.385 . S
C1360 C1358 1.478 . S
C1360 C1362 1.381 . S
C1360 C1366 1.383 . S
C1361 C1357 1.495 . S
C1361 H1367 0.959 . S
C1361 H1368 0.961 . S
C1361 H1369 0.960 . S
C1362 C1360 1.381 . S
C1362 C1363 1.394 . S
C1362 H1370 0.930 . S
C1363 C1362 1.394 . S
C1363 C1364 1.383 . S
C1363 H1371 0.929 . S
C1364 C1363 1.383 . S
C1364 C1365 1.377 . S
C1365 H1349 0.930 . S
C1365 C1364 1.377 . S
C1365 C1366 1.379 . S
C1366 H1350 0.931 . S
C1366 C1360 1.383 . S
C1366 C1365 1.379 . S
H1367 C1361 0.959 . S
H1368 C1361 0.961 . S
H1369 C1361 0.960 . S
H1370 C1362 0.930 . S
H1371 C1363 0.929 . S
H1372 C1380 0.929 . S
H1373 C1382 0.930 . S
H1374 C1384 0.930 . S
H1375 C1387 0.929 . S
H1376 C1390 0.930 . S
H1377 C1392 0.960 . S
H1378 C1392 0.960 . S
H1379 C1392 0.960 . S
C1380 H1372 0.929 . S
C1380 C1381 1.377 . S
C1380 C1382 1.384 . S
C1381 C1380 1.377 . S
C1381 C1387 1.390 . S
C1382 H1373 0.930 . S
C1382 C1380 1.384 . S
C1382 C1383 1.372 . S
C1383 C1382 1.372 . S
C1383 C1384 1.400 . S
C1383 C1388 1.490 . S
C1384 H1374 0.930 . S
C1384 C1383 1.400 . S
C1384 C1387 1.386 . S
H1385 C1401 0.930 . S
H1386 C1402 0.931 . S
C1387 H1375 0.929 . S
C1387 C1381 1.390 . S
C1387 C1384 1.386 . S
C1388 C1383 1.490 . S
C1388 C1390 1.395 . S
C1388 C1391 1.403 . S
H1389 C1395 0.930 . S
C1390 H1376 0.930 . S
C1390 C1388 1.395 . S
C1390 C1393 1.403 . S
C1391 C1388 1.403 . S
C1391 C1392 1.524 . S
C1391 C1395 1.400 . S
C1392 H1377 0.960 . S
C1392 H1378 0.960 . S
C1392 H1379 0.960 . S
C1392 C1391 1.524 . S
C1393 C1390 1.403 . S
C1393 C1394 1.392 . S
C1393 C1397 1.495 . S
C1394 C1393 1.392 . S
C1394 C1395 1.385 . S
C1394 C1396 1.478 . S
C1395 H1389 0.930 . S
C1395 C1391 1.400 . S
C1395 C1394 1.385 . S
C1396 C1394 1.478 . S
C1396 C1398 1.381 . S
C1396 C1402 1.383 . S
C1397 C1393 1.495 . S
C1397 H1403 0.959 . S
C1397 H1404 0.961 . S
C1397 H1405 0.960 . S
C1398 C1396 1.381 . S
C1398 C1399 1.394 . S
C1398 H1406 0.930 . S
C1399 C1398 1.394 . S
C1399 C1400 1.383 . S
C1399 H1407 0.929 . S
C1400 C1399 1.383 . S
C1400 C1401 1.377 . S
C1401 H1385 0.930 . S
C1401 C1400 1.377 . S
C1401 C1402 1.379 . S
C1402 H1386 0.931 . S
C1402 C1396 1.383 . S
C1402 C1401 1.379 . S
H1403 C1397 0.959 . S
H1404 C1397 0.961 . S
H1405 C1397 0.960 . S
H1406 C1398 0.930 . S
H1407 C1399 0.929 . S
H1408 C1416 0.929 . S
H1409 C1418 0.930 . S
H1410 C1420 0.930 . S
H1411 C1423 0.929 . S
H1412 C1426 0.930 . S
H1413 C1428 0.960 . S
H1414 C1428 0.960 . S
H1415 C1428 0.960 . S
C1416 H1408 0.929 . S
C1416 C1417 1.377 . S
C1416 C1418 1.384 . S
C1417 C1416 1.377 . S
C1417 C1423 1.390 . S
C1418 H1409 0.930 . S
C1418 C1416 1.384 . S
C1418 C1419 1.372 . S
C1419 C1418 1.372 . S
C1419 C1420 1.400 . S
C1419 C1424 1.490 . S
C1420 H1410 0.930 . S
C1420 C1419 1.400 . S
C1420 C1423 1.386 . S
H1421 C1437 0.930 . S
H1422 C1438 0.931 . S
C1423 H1411 0.929 . S
C1423 C1417 1.390 . S
C1423 C1420 1.386 . S
C1424 C1419 1.490 . S
C1424 C1426 1.395 . S
C1424 C1427 1.403 . S
H1425 C1431 0.930 . S
C1426 H1412 0.930 . S
C1426 C1424 1.395 . S
C1426 C1429 1.403 . S
C1427 C1424 1.403 . S
C1427 C1428 1.524 . S
C1427 C1431 1.400 . S
C1428 H1413 0.960 . S
C1428 H1414 0.960 . S
C1428 H1415 0.960 . S
C1428 C1427 1.524 . S
C1429 C1426 1.403 . S
C1429 C1430 1.392 . S
C1429 C1433 1.495 . S
C1430 C1429 1.392 . S
C1430 C1431 1.385 . S
C1430 C1432 1.478 . S
C1431 H1425 0.930 . S
C1431 C1427 1.400 . S
C1431 C1430 1.385 . S
C1432 C1430 1.478 . S
C1432 C1434 1.381 . S
C1432 C1438 1.383 . S
C1433 C1429 1.495 . S
C1433 H1439 0.959 . S
C1433 H1440 0.961 . S
C1433 H1441 0.960 . S
C1434 C1432 1.381 . S
C1434 C1435 1.394 . S
C1434 H1442 0.930 . S
C1435 C1434 1.394 . S
C1435 C1436 1.383 . S
C1435 H1443 0.929 . S
C1436 C1435 1.383 . S
C1436 C1437 1.377 . S
C1437 H1421 0.930 . S
C1437 C1436 1.377 . S
C1437 C1438 1.379 . S
C1438 H1422 0.931 . S
C1438 C1432 1.383 . S
C1438 C1437 1.379 . S
H1439 C1433 0.959 . S
H1440 C1433 0.961 . S
H1441 C1433 0.960 . S
H1442 C1434 0.930 . S
H1443 C1435 0.929 . S
H1444 C1452 0.929 . S
H1445 C1454 0.930 . S
H1446 C1456 0.930 . S
H1447 C1459 0.929 . S
H1448 C1462 0.930 . S
H1449 C1464 0.960 . S
H1450 C1464 0.960 . S
H1451 C1464 0.960 . S
C1452 H1444 0.929 . S
C1452 C1453 1.377 . S
C1452 C1454 1.384 . S
C1453 C1452 1.377 . S
C1453 C1459 1.390 . S
C1454 H1445 0.930 . S
C1454 C1452 1.384 . S
C1454 C1455 1.372 . S
C1455 C1454 1.372 . S
C1455 C1456 1.400 . S
C1455 C1460 1.490 . S
C1456 H1446 0.930 . S
C1456 C1455 1.400 . S
C1456 C1459 1.386 . S
H1457 C1473 0.930 . S
H1458 C1474 0.931 . S
C1459 H1447 0.929 . S
C1459 C1453 1.390 . S
C1459 C1456 1.386 . S
C1460 C1455 1.490 . S
C1460 C1462 1.395 . S
C1460 C1463 1.403 . S
H1461 C1467 0.930 . S
C1462 H1448 0.930 . S
C1462 C1460 1.395 . S
C1462 C1465 1.403 . S
C1463 C1460 1.403 . S
C1463 C1464 1.524 . S
C1463 C1467 1.400 . S
C1464 H1449 0.960 . S
C1464 H1450 0.960 . S
C1464 H1451 0.960 . S
C1464 C1463 1.524 . S
C1465 C1462 1.403 . S
C1465 C1466 1.392 . S
C1465 C1469 1.495 . S
C1466 C1465 1.392 . S
C1466 C1467 1.385 . S
C1466 C1468 1.478 . S
C1467 H1461 0.930 . S
C1467 C1463 1.400 . S
C1467 C1466 1.385 . S
C1468 C1466 1.478 . S
C1468 C1470 1.381 . S
C1468 C1474 1.383 . S
C1469 C1465 1.495 . S
C1469 H1475 0.959 . S
C1469 H1476 0.961 . S
C1469 H1477 0.960 . S
C1470 C1468 1.381 . S
C1470 C1471 1.394 . S
C1470 H1478 0.930 . S
C1471 C1470 1.394 . S
C1471 C1472 1.383 . S
C1471 H1479 0.929 . S
C1472 C1471 1.383 . S
C1472 C1473 1.377 . S
C1473 H1457 0.930 . S
C1473 C1472 1.377 . S
C1473 C1474 1.379 . S
C1474 H1458 0.931 . S
C1474 C1468 1.383 . S
C1474 C1473 1.379 . S
H1475 C1469 0.959 . S
H1476 C1469 0.961 . S
H1477 C1469 0.960 . S
H1478 C1470 0.930 . S
H1479 C1471 0.929 . S
H1480 C1488 0.929 . S
H1481 C1490 0.930 . S
H1482 C1492 0.930 . S
H1483 C1495 0.929 . S
H1484 C1498 0.930 . S
H1485 C1500 0.960 . S
H1486 C1500 0.960 . S
H1487 C1500 0.960 . S
C1488 H1480 0.929 . S
C1488 C1489 1.377 . S
C1488 C1490 1.384 . S
C1489 C1488 1.377 . S
C1489 C1495 1.390 . S
C1490 H1481 0.930 . S
C1490 C1488 1.384 . S
C1490 C1491 1.372 . S
C1491 C1490 1.372 . S
C1491 C1492 1.400 . S
C1491 C1496 1.490 . S
C1492 H1482 0.930 . S
C1492 C1491 1.400 . S
C1492 C1495 1.386 . S
H1493 C1509 0.930 . S
H1494 C1510 0.931 . S
C1495 H1483 0.929 . S
C1495 C1489 1.390 . S
C1495 C1492 1.386 . S
C1496 C1491 1.490 . S
C1496 C1498 1.395 . S
C1496 C1499 1.403 . S
H1497 C1503 0.930 . S
C1498 H1484 0.930 . S
C1498 C1496 1.395 . S
C1498 C1501 1.403 . S
C1499 C1496 1.403 . S
C1499 C1500 1.524 . S
C1499 C1503 1.400 . S
C1500 H1485 0.960 . S
C1500 H1486 0.960 . S
C1500 H1487 0.960 . S
C1500 C1499 1.524 . S
C1501 C1498 1.403 . S
C1501 C1502 1.392 . S
C1501 C1505 1.495 . S
C1502 C1501 1.392 . S
C1502 C1503 1.385 . S
C1502 C1504 1.478 . S
C1503 H1497 0.930 . S
C1503 C1499 1.400 . S
C1503 C1502 1.385 . S
C1504 C1502 1.478 . S
C1504 C1506 1.381 . S
C1504 C1510 1.383 . S
C1505 C1501 1.495 . S
C1505 H1511 0.959 . S
C1505 H1512 0.961 . S
C1505 H1513 0.960 . S
C1506 C1504 1.381 . S
C1506 C1507 1.394 . S
C1506 H1514 0.930 . S
C1507 C1506 1.394 . S
C1507 C1508 1.383 . S
C1507 H1515 0.929 . S
C1508 C1507 1.383 . S
C1508 C1509 1.377 . S
C1509 H1493 0.930 . S
C1509 C1508 1.377 . S
C1509 C1510 1.379 . S
C1510 H1494 0.931 . S
C1510 C1504 1.383 . S
C1510 C1509 1.379 . S
H1511 C1505 0.959 . S
H1512 C1505 0.961 . S
H1513 C1505 0.960 . S
H1514 C1506 0.930 . S
H1515 C1507 0.929 . S
H1516 C1524 0.929 . S
H1517 C1526 0.930 . S
H1518 C1528 0.930 . S
H1519 C1531 0.929 . S
H1520 C1534 0.930 . S
H1521 C1536 0.960 . S
H1522 C1536 0.960 . S
H1523 C1536 0.960 . S
C1524 H1516 0.929 . S
C1524 C1525 1.377 . S
C1524 C1526 1.384 . S
C1525 C1524 1.377 . S
C1525 C1531 1.390 . S
C1526 H1517 0.930 . S
C1526 C1524 1.384 . S
C1526 C1527 1.372 . S
C1527 C1526 1.372 . S
C1527 C1528 1.400 . S
C1527 C1532 1.490 . S
C1528 H1518 0.930 . S
C1528 C1527 1.400 . S
C1528 C1531 1.386 . S
H1529 C1545 0.930 . S
H1530 C1546 0.931 . S
C1531 H1519 0.929 . S
C1531 C1525 1.390 . S
C1531 C1528 1.386 . S
C1532 C1527 1.490 . S
C1532 C1534 1.395 . S
C1532 C1535 1.403 . S
H1533 C1539 0.930 . S
C1534 H1520 0.930 . S
C1534 C1532 1.395 . S
C1534 C1537 1.403 . S
C1535 C1532 1.403 . S
C1535 C1536 1.524 . S
C1535 C1539 1.400 . S
C1536 H1521 0.960 . S
C1536 H1522 0.960 . S
C1536 H1523 0.960 . S
C1536 C1535 1.524 . S
C1537 C1534 1.403 . S
C1537 C1538 1.392 . S
C1537 C1541 1.495 . S
C1538 C1537 1.392 . S
C1538 C1539 1.385 . S
C1538 C1540 1.478 . S
C1539 H1533 0.930 . S
C1539 C1535 1.400 . S
C1539 C1538 1.385 . S
C1540 C1538 1.478 . S
C1540 C1542 1.381 . S
C1540 C1546 1.383 . S
C1541 C1537 1.495 . S
C1541 H1547 0.959 . S
C1541 H1548 0.961 . S
C1541 H1549 0.960 . S
C1542 C1540 1.381 . S
C1542 C1543 1.394 . S
C1542 H1550 0.930 . S
C1543 C1542 1.394 . S
C1543 C1544 1.383 . S
C1543 H1551 0.929 . S
C1544 C1543 1.383 . S
C1544 C1545 1.377 . S
C1545 H1529 0.930 . S
C1545 C1544 1.377 . S
C1545 C1546 1.379 . S
C1546 H1530 0.931 . S
C1546 C1540 1.383 . S
C1546 C1545 1.379 . S
H1547 C1541 0.959 . S
H1548 C1541 0.961 . S
H1549 C1541 0.960 . S
H1550 C1542 0.930 . S
H1551 C1543 0.929 . S
H1552 C1560 0.929 . S
H1553 C1562 0.930 . S
H1554 C1564 0.930 . S
H1555 C1567 0.929 . S
H1556 C1570 0.930 . S
H1557 C1572 0.960 . S
H1558 C1572 0.960 . S
H1559 C1572 0.960 . S
C1560 H1552 0.929 . S
C1560 C1561 1.377 . S
C1560 C1562 1.384 . S
C1561 C1560 1.377 . S
C1561 C1567 1.390 . S
C1562 H1553 0.930 . S
C1562 C1560 1.384 . S
C1562 C1563 1.372 . S
C1563 C1562 1.372 . S
C1563 C1564 1.400 . S
C1563 C1568 1.490 . S
C1564 H1554 0.930 . S
C1564 C1563 1.400 . S
C1564 C1567 1.386 . S
H1565 C1581 0.930 . S
H1566 C1582 0.931 . S
C1567 H1555 0.929 . S
C1567 C1561 1.390 . S
C1567 C1564 1.386 . S
C1568 C1563 1.490 . S
C1568 C1570 1.395 . S
C1568 C1571 1.403 . S
H1569 C1575 0.930 . S
C1570 H1556 0.930 . S
C1570 C1568 1.395 . S
C1570 C1573 1.403 . S
C1571 C1568 1.403 . S
C1571 C1572 1.524 . S
C1571 C1575 1.400 . S
C1572 H1557 0.960 . S
C1572 H1558 0.960 . S
C1572 H1559 0.960 . S
C1572 C1571 1.524 . S
C1573 C1570 1.403 . S
C1573 C1574 1.392 . S
C1573 C1577 1.495 . S
C1574 C1573 1.392 . S
C1574 C1575 1.385 . S
C1574 C1576 1.478 . S
C1575 H1569 0.930 . S
C1575 C1571 1.400 . S
C1575 C1574 1.385 . S
C1576 C1574 1.478 . S
C1576 C1578 1.381 . S
C1576 C1582 1.383 . S
C1577 C1573 1.495 . S
C1577 H1583 0.959 . S
C1577 H1584 0.961 . S
C1577 H1585 0.960 . S
C1578 C1576 1.381 . S
C1578 C1579 1.394 . S
C1578 H1586 0.930 . S
C1579 C1578 1.394 . S
C1579 C1580 1.383 . S
C1579 H1587 0.929 . S
C1580 C1579 1.383 . S
C1580 C1581 1.377 . S
C1581 H1565 0.930 . S
C1581 C1580 1.377 . S
C1581 C1582 1.379 . S
C1582 H1566 0.931 . S
C1582 C1576 1.383 . S
C1582 C1581 1.379 . S
H1583 C1577 0.959 . S
H1584 C1577 0.961 . S
H1585 C1577 0.960 . S
H1586 C1578 0.930 . S
H1587 C1579 0.929 . S
H1588 C1596 0.929 . S
H1589 C1598 0.930 . S
H1590 C1600 0.930 . S
H1591 C1603 0.929 . S
H1592 C1606 0.930 . S
H1593 C1608 0.960 . S
H1594 C1608 0.960 . S
H1595 C1608 0.960 . S
C1596 H1588 0.929 . S
C1596 C1597 1.377 . S
C1596 C1598 1.384 . S
C1597 C1596 1.377 . S
C1597 C1603 1.390 . S
C1598 H1589 0.930 . S
C1598 C1596 1.384 . S
C1598 C1599 1.372 . S
C1599 C1598 1.372 . S
C1599 C1600 1.400 . S
C1599 C1604 1.490 . S
C1600 H1590 0.930 . S
C1600 C1599 1.400 . S
C1600 C1603 1.386 . S
H1601 C1617 0.930 . S
H1602 C1618 0.931 . S
C1603 H1591 0.929 . S
C1603 C1597 1.390 . S
C1603 C1600 1.386 . S
C1604 C1599 1.490 . S
C1604 C1606 1.395 . S
C1604 C1607 1.403 . S
H1605 C1611 0.930 . S
C1606 H1592 0.930 . S
C1606 C1604 1.395 . S
C1606 C1609 1.403 . S
C1607 C1604 1.403 . S
C1607 C1608 1.524 . S
C1607 C1611 1.400 . S
C1608 H1593 0.960 . S
C1608 H1594 0.960 . S
C1608 H1595 0.960 . S
C1608 C1607 1.524 . S
C1609 C1606 1.403 . S
C1609 C1610 1.392 . S
C1609 C1613 1.495 . S
C1610 C1609 1.392 . S
C1610 C1611 1.385 . S
C1610 C1612 1.478 . S
C1611 H1605 0.930 . S
C1611 C1607 1.400 . S
C1611 C1610 1.385 . S
C1612 C1610 1.478 . S
C1612 C1614 1.381 . S
C1612 C1618 1.383 . S
C1613 C1609 1.495 . S
C1613 H1619 0.959 . S
C1613 H1620 0.961 . S
C1613 H1621 0.960 . S
C1614 C1612 1.381 . S
C1614 C1615 1.394 . S
C1614 H1622 0.930 . S
C1615 C1614 1.394 . S
C1615 C1616 1.383 . S
C1615 H1623 0.929 . S
C1616 C1615 1.383 . S
C1616 C1617 1.377 . S
C1617 H1601 0.930 . S
C1617 C1616 1.377 . S
C1617 C1618 1.379 . S
C1618 H1602 0.931 . S
C1618 C1612 1.383 . S
C1618 C1617 1.379 . S
H1619 C1613 0.959 . S
H1620 C1613 0.961 . S
H1621 C1613 0.960 . S
H1622 C1614 0.930 . S
H1623 C1615 0.929 . S
H1624 C1632 0.929 . S
H1625 C1634 0.930 . S
H1626 C1636 0.930 . S
H1627 C1639 0.929 . S
H1628 C1642 0.930 . S
H1629 C1644 0.960 . S
H1630 C1644 0.960 . S
H1631 C1644 0.960 . S
C1632 H1624 0.929 . S
C1632 C1633 1.377 . S
C1632 C1634 1.384 . S
C1633 C1632 1.377 . S
C1633 C1639 1.390 . S
C1634 H1625 0.930 . S
C1634 C1632 1.384 . S
C1634 C1635 1.372 . S
C1635 C1634 1.372 . S
C1635 C1636 1.400 . S
C1635 C1640 1.490 . S
C1636 H1626 0.930 . S
C1636 C1635 1.400 . S
C1636 C1639 1.386 . S
H1637 C1653 0.930 . S
H1638 C1654 0.931 . S
C1639 H1627 0.929 . S
C1639 C1633 1.390 . S
C1639 C1636 1.386 . S
C1640 C1635 1.490 . S
C1640 C1642 1.395 . S
C1640 C1643 1.403 . S
H1641 C1647 0.930 . S
C1642 H1628 0.930 . S
C1642 C1640 1.395 . S
C1642 C1645 1.403 . S
C1643 C1640 1.403 . S
C1643 C1644 1.524 . S
C1643 C1647 1.400 . S
C1644 H1629 0.960 . S
C1644 H1630 0.960 . S
C1644 H1631 0.960 . S
C1644 C1643 1.524 . S
C1645 C1642 1.403 . S
C1645 C1646 1.392 . S
C1645 C1649 1.495 . S
C1646 C1645 1.392 . S
C1646 C1647 1.385 . S
C1646 C1648 1.478 . S
C1647 H1641 0.930 . S
C1647 C1643 1.400 . S
C1647 C1646 1.385 . S
C1648 C1646 1.478 . S
C1648 C1650 1.381 . S
C1648 C1654 1.383 . S
C1649 C1645 1.495 . S
C1649 H1655 0.959 . S
C1649 H1656 0.961 . S
C1649 H1657 0.960 . S
C1650 C1648 1.381 . S
C1650 C1651 1.394 . S
C1650 H1658 0.930 . S
C1651 C1650 1.394 . S
C1651 C1652 1.383 . S
C1651 H1659 0.929 . S
C1652 C1651 1.383 . S
C1652 C1653 1.377 . S
C1653 H1637 0.930 . S
C1653 C1652 1.377 . S
C1653 C1654 1.379 . S
C1654 H1638 0.931 . S
C1654 C1648 1.383 . S
C1654 C1653 1.379 . S
H1655 C1649 0.959 . S
H1656 C1649 0.961 . S
H1657 C1649 0.960 . S
H1658 C1650 0.930 . S
H1659 C1651 0.929 . S
H1660 C1668 0.929 . S
H1661 C1670 0.930 . S
H1662 C1672 0.930 . S
H1663 C1675 0.929 . S
H1664 C1678 0.930 . S
H1665 C1680 0.960 . S
H1666 C1680 0.960 . S
H1667 C1680 0.960 . S
C1668 H1660 0.929 . S
C1668 C1669 1.377 . S
C1668 C1670 1.384 . S
C1669 C1668 1.377 . S
C1669 C1675 1.390 . S
C1670 H1661 0.930 . S
C1670 C1668 1.384 . S
C1670 C1671 1.372 . S
C1671 C1670 1.372 . S
C1671 C1672 1.400 . S
C1671 C1676 1.490 . S
C1672 H1662 0.930 . S
C1672 C1671 1.400 . S
C1672 C1675 1.386 . S
H1673 C1689 0.930 . S
H1674 C1690 0.931 . S
C1675 H1663 0.929 . S
C1675 C1669 1.390 . S
C1675 C1672 1.386 . S
C1676 C1671 1.490 . S
C1676 C1678 1.395 . S
C1676 C1679 1.403 . S
H1677 C1683 0.930 . S
C1678 H1664 0.930 . S
C1678 C1676 1.395 . S
C1678 C1681 1.403 . S
C1679 C1676 1.403 . S
C1679 C1680 1.524 . S
C1679 C1683 1.400 . S
C1680 H1665 0.960 . S
C1680 H1666 0.960 . S
C1680 H1667 0.960 . S
C1680 C1679 1.524 . S
C1681 C1678 1.403 . S
C1681 C1682 1.392 . S
C1681 C1685 1.495 . S
C1682 C1681 1.392 . S
C1682 C1683 1.385 . S
C1682 C1684 1.478 . S
C1683 H1677 0.930 . S
C1683 C1679 1.400 . S
C1683 C1682 1.385 . S
C1684 C1682 1.478 . S
C1684 C1686 1.381 . S
C1684 C1690 1.383 . S
C1685 C1681 1.495 . S
C1685 H1691 0.959 . S
C1685 H1692 0.961 . S
C1685 H1693 0.960 . S
C1686 C1684 1.381 . S
C1686 C1687 1.394 . S
C1686 H1694 0.930 . S
C1687 C1686 1.394 . S
C1687 C1688 1.383 . S
C1687 H1695 0.929 . S
C1688 C1687 1.383 . S
C1688 C1689 1.377 . S
C1689 H1673 0.930 . S
C1689 C1688 1.377 . S
C1689 C1690 1.379 . S
C1690 H1674 0.931 . S
C1690 C1684 1.383 . S
C1690 C1689 1.379 . S
H1691 C1685 0.959 . S
H1692 C1685 0.961 . S
H1693 C1685 0.960 . S
H1694 C1686 0.930 . S
H1695 C1687 0.929 . S
H1696 C1704 0.929 . S
H1697 C1706 0.930 . S
H1698 C1708 0.930 . S
H1699 C1711 0.929 . S
H1700 C1714 0.930 . S
H1701 C1716 0.960 . S
H1702 C1716 0.960 . S
H1703 C1716 0.960 . S
C1704 H1696 0.929 . S
C1704 C1705 1.377 . S
C1704 C1706 1.384 . S
C1705 C1704 1.377 . S
C1705 C1711 1.390 . S
C1706 H1697 0.930 . S
C1706 C1704 1.384 . S
C1706 C1707 1.372 . S
C1707 C1706 1.372 . S
C1707 C1708 1.400 . S
C1707 C1712 1.490 . S
C1708 H1698 0.930 . S
C1708 C1707 1.400 . S
C1708 C1711 1.386 . S
H1709 C1725 0.930 . S
H1710 C1726 0.931 . S
C1711 H1699 0.929 . S
C1711 C1705 1.390 . S
C1711 C1708 1.386 . S
C1712 C1707 1.490 . S
C1712 C1714 1.395 . S
C1712 C1715 1.403 . S
H1713 C1719 0.930 . S
C1714 H1700 0.930 . S
C1714 C1712 1.395 . S
C1714 C1717 1.403 . S
C1715 C1712 1.403 . S
C1715 C1716 1.524 . S
C1715 C1719 1.400 . S
C1716 H1701 0.960 . S
C1716 H1702 0.960 . S
C1716 H1703 0.960 . S
C1716 C1715 1.524 . S
C1717 C1714 1.403 . S
C1717 C1718 1.392 . S
C1717 C1721 1.495 . S
C1718 C1717 1.392 . S
C1718 C1719 1.385 . S
C1718 C1720 1.478 . S
C1719 H1713 0.930 . S
C1719 C1715 1.400 . S
C1719 C1718 1.385 . S
C1720 C1718 1.478 . S
C1720 C1722 1.381 . S
C1720 C1726 1.383 . S
C1721 C1717 1.495 . S
C1721 H1727 0.959 . S
C1721 H1728 0.961 . S
C1721 H1729 0.960 . S
C1722 C1720 1.381 . S
C1722 C1723 1.394 . S
C1722 H1730 0.930 . S
C1723 C1722 1.394 . S
C1723 C1724 1.383 . S
C1723 H1731 0.929 . S
C1724 C1723 1.383 . S
C1724 C1725 1.377 . S
C1725 H1709 0.930 . S
C1725 C1724 1.377 . S
C1725 C1726 1.379 . S
C1726 H1710 0.931 . S
C1726 C1720 1.383 . S
C1726 C1725 1.379 . S
H1727 C1721 0.959 . S
H1728 C1721 0.961 . S
H1729 C1721 0.960 . S
H1730 C1722 0.930 . S
H1731 C1723 0.929 . S
H1732 C1740 0.929 . S
H1733 C1742 0.930 . S
H1734 C1744 0.930 . S
H1735 C1747 0.929 . S
H1736 C1750 0.930 . S
H1737 C1752 0.960 . S
H1738 C1752 0.960 . S
H1739 C1752 0.960 . S
C1740 H1732 0.929 . S
C1740 C1741 1.377 . S
C1740 C1742 1.384 . S
C1741 C1740 1.377 . S
C1741 C1747 1.390 . S
C1742 H1733 0.930 . S
C1742 C1740 1.384 . S
C1742 C1743 1.372 . S
C1743 C1742 1.372 . S
C1743 C1744 1.400 . S
C1743 C1748 1.490 . S
C1744 H1734 0.930 . S
C1744 C1743 1.400 . S
C1744 C1747 1.386 . S
H1745 C1761 0.930 . S
H1746 C1762 0.931 . S
C1747 H1735 0.929 . S
C1747 C1741 1.390 . S
C1747 C1744 1.386 . S
C1748 C1743 1.490 . S
C1748 C1750 1.395 . S
C1748 C1751 1.403 . S
H1749 C1755 0.930 . S
C1750 H1736 0.930 . S
C1750 C1748 1.395 . S
C1750 C1753 1.403 . S
C1751 C1748 1.403 . S
C1751 C1752 1.524 . S
C1751 C1755 1.400 . S
C1752 H1737 0.960 . S
C1752 H1738 0.960 . S
C1752 H1739 0.960 . S
C1752 C1751 1.524 . S
C1753 C1750 1.403 . S
C1753 C1754 1.392 . S
C1753 C1757 1.495 . S
C1754 C1753 1.392 . S
C1754 C1755 1.385 . S
C1754 C1756 1.478 . S
C1755 H1749 0.930 . S
C1755 C1751 1.400 . S
C1755 C1754 1.385 . S
C1756 C1754 1.478 . S
C1756 C1758 1.381 . S
C1756 C1762 1.383 . S
C1757 C1753 1.495 . S
C1757 H1763 0.959 . S
C1757 H1764 0.961 . S
C1757 H1765 0.960 . S
C1758 C1756 1.381 . S
C1758 C1759 1.394 . S
C1758 H1766 0.930 . S
C1759 C1758 1.394 . S
C1759 C1760 1.383 . S
C1759 H1767 0.929 . S
C1760 C1759 1.383 . S
C1760 C1761 1.377 . S
C1761 H1745 0.930 . S
C1761 C1760 1.377 . S
C1761 C1762 1.379 . S
C1762 H1746 0.931 . S
C1762 C1756 1.383 . S
C1762 C1761 1.379 . S
H1763 C1757 0.959 . S
H1764 C1757 0.961 . S
H1765 C1757 0.960 . S
H1766 C1758 0.930 . S
H1767 C1759 0.929 . S
H1768 C1776 0.929 . S
H1769 C1778 0.930 . S
H1770 C1780 0.930 . S
H1771 C1783 0.929 . S
H1772 C1786 0.930 . S
H1773 C1788 0.960 . S
H1774 C1788 0.960 . S
H1775 C1788 0.960 . S
C1776 H1768 0.929 . S
C1776 C1777 1.377 . S
C1776 C1778 1.384 . S
C1777 C1776 1.377 . S
C1777 C1783 1.390 . S
C1778 H1769 0.930 . S
C1778 C1776 1.384 . S
C1778 C1779 1.372 . S
C1779 C1778 1.372 . S
C1779 C1780 1.400 . S
C1779 C1784 1.490 . S
C1780 H1770 0.930 . S
C1780 C1779 1.400 . S
C1780 C1783 1.386 . S
H1781 C1797 0.930 . S
H1782 C1798 0.931 . S
C1783 H1771 0.929 . S
C1783 C1777 1.390 . S
C1783 C1780 1.386 . S
C1784 C1779 1.490 . S
C1784 C1786 1.395 . S
C1784 C1787 1.403 . S
H1785 C1791 0.930 . S
C1786 H1772 0.930 . S
C1786 C1784 1.395 . S
C1786 C1789 1.403 . S
C1787 C1784 1.403 . S
C1787 C1788 1.524 . S
C1787 C1791 1.400 . S
C1788 H1773 0.960 . S
C1788 H1774 0.960 . S
C1788 H1775 0.960 . S
C1788 C1787 1.524 . S
C1789 C1786 1.403 . S
C1789 C1790 1.392 . S
C1789 C1793 1.495 . S
C1790 C1789 1.392 . S
C1790 C1791 1.385 . S
C1790 C1792 1.478 . S
C1791 H1785 0.930 . S
C1791 C1787 1.400 . S
C1791 C1790 1.385 . S
C1792 C1790 1.478 . S
C1792 C1794 1.381 . S
C1792 C1798 1.383 . S
C1793 C1789 1.495 . S
C1793 H1799 0.959 . S
C1793 H1800 0.961 . S
C1793 H1801 0.960 . S
C1794 C1792 1.381 . S
C1794 C1795 1.394 . S
C1794 H1802 0.930 . S
C1795 C1794 1.394 . S
C1795 C1796 1.383 . S
C1795 H1803 0.929 . S
C1796 C1795 1.383 . S
C1796 C1797 1.377 . S
C1797 H1781 0.930 . S
C1797 C1796 1.377 . S
C1797 C1798 1.379 . S
C1798 H1782 0.931 . S
C1798 C1792 1.383 . S
C1798 C1797 1.379 . S
H1799 C1793 0.959 . S
H1800 C1793 0.961 . S
H1801 C1793 0.960 . S
H1802 C1794 0.930 . S
H1803 C1795 0.929 . S
H1804 C1812 0.929 . S
H1805 C1814 0.930 . S
H1806 C1816 0.930 . S
H1807 C1819 0.929 . S
H1808 C1822 0.930 . S
H1809 C1824 0.960 . S
H1810 C1824 0.960 . S
H1811 C1824 0.960 . S
C1812 H1804 0.929 . S
C1812 C1813 1.377 . S
C1812 C1814 1.384 . S
C1813 C1812 1.377 . S
C1813 C1819 1.390 . S
C1814 H1805 0.930 . S
C1814 C1812 1.384 . S
C1814 C1815 1.372 . S
C1815 C1814 1.372 . S
C1815 C1816 1.400 . S
C1815 C1820 1.490 . S
C1816 H1806 0.930 . S
C1816 C1815 1.400 . S
C1816 C1819 1.386 . S
H1817 C1833 0.930 . S
H1818 C1834 0.931 . S
C1819 H1807 0.929 . S
C1819 C1813 1.390 . S
C1819 C1816 1.386 . S
C1820 C1815 1.490 . S
C1820 C1822 1.395 . S
C1820 C1823 1.403 . S
H1821 C1827 0.930 . S
C1822 H1808 0.930 . S
C1822 C1820 1.395 . S
C1822 C1825 1.403 . S
C1823 C1820 1.403 . S
C1823 C1824 1.524 . S
C1823 C1827 1.400 . S
C1824 H1809 0.960 . S
C1824 H1810 0.960 . S
C1824 H1811 0.960 . S
C1824 C1823 1.524 . S
C1825 C1822 1.403 . S
C1825 C1826 1.392 . S
C1825 C1829 1.495 . S
C1826 C1825 1.392 . S
C1826 C1827 1.385 . S
C1826 C1828 1.478 . S
C1827 H1821 0.930 . S
C1827 C1823 1.400 . S
C1827 C1826 1.385 . S
C1828 C1826 1.478 . S
C1828 C1830 1.381 . S
C1828 C1834 1.383 . S
C1829 C1825 1.495 . S
C1829 H1835 0.959 . S
C1829 H1836 0.961 . S
C1829 H1837 0.960 . S
C1830 C1828 1.381 . S
C1830 C1831 1.394 . S
C1830 H1838 0.930 . S
C1831 C1830 1.394 . S
C1831 C1832 1.383 . S
C1831 H1839 0.929 . S
C1832 C1831 1.383 . S
C1832 C1833 1.377 . S
C1833 H1817 0.930 . S
C1833 C1832 1.377 . S
C1833 C1834 1.379 . S
C1834 H1818 0.931 . S
C1834 C1828 1.383 . S
C1834 C1833 1.379 . S
H1835 C1829 0.959 . S
H1836 C1829 0.961 . S
H1837 C1829 0.960 . S
H1838 C1830 0.930 . S
H1839 C1831 0.929 . S
H1840 C1848 0.929 . S
H1841 C1850 0.930 . S
H1842 C1852 0.930 . S
H1843 C1855 0.929 . S
H1844 C1858 0.930 . S
H1845 C1860 0.960 . S
H1846 C1860 0.960 . S
H1847 C1860 0.960 . S
C1848 H1840 0.929 . S
C1848 C1849 1.377 . S
C1848 C1850 1.384 . S
C1849 C1848 1.377 . S
C1849 C1855 1.390 . S
C1850 H1841 0.930 . S
C1850 C1848 1.384 . S
C1850 C1851 1.372 . S
C1851 C1850 1.372 . S
C1851 C1852 1.400 . S
C1851 C1856 1.490 . S
C1852 H1842 0.930 . S
C1852 C1851 1.400 . S
C1852 C1855 1.386 . S
H1853 C1869 0.930 . S
H1854 C1870 0.931 . S
C1855 H1843 0.929 . S
C1855 C1849 1.390 . S
C1855 C1852 1.386 . S
C1856 C1851 1.490 . S
C1856 C1858 1.395 . S
C1856 C1859 1.403 . S
H1857 C1863 0.930 . S
C1858 H1844 0.930 . S
C1858 C1856 1.395 . S
C1858 C1861 1.403 . S
C1859 C1856 1.403 . S
C1859 C1860 1.524 . S
C1859 C1863 1.400 . S
C1860 H1845 0.960 . S
C1860 H1846 0.960 . S
C1860 H1847 0.960 . S
C1860 C1859 1.524 . S
C1861 C1858 1.403 . S
C1861 C1862 1.392 . S
C1861 C1865 1.495 . S
C1862 C1861 1.392 . S
C1862 C1863 1.385 . S
C1862 C1864 1.478 . S
C1863 H1857 0.930 . S
C1863 C1859 1.400 . S
C1863 C1862 1.385 . S
C1864 C1862 1.478 . S
C1864 C1866 1.381 . S
C1864 C1870 1.383 . S
C1865 C1861 1.495 . S
C1865 H1871 0.959 . S
C1865 H1872 0.961 . S
C1865 H1873 0.960 . S
C1866 C1864 1.381 . S
C1866 C1867 1.394 . S
C1866 H1874 0.930 . S
C1867 C1866 1.394 . S
C1867 C1868 1.383 . S
C1867 H1875 0.929 . S
C1868 C1867 1.383 . S
C1868 C1869 1.377 . S
C1869 H1853 0.930 . S
C1869 C1868 1.377 . S
C1869 C1870 1.379 . S
C1870 H1854 0.931 . S
C1870 C1864 1.383 . S
C1870 C1869 1.379 . S
H1871 C1865 0.959 . S
H1872 C1865 0.961 . S
H1873 C1865 0.960 . S
H1874 C1866 0.930 . S
H1875 C1867 0.929 . S
H1876 C1884 0.929 . S
H1877 C1886 0.930 . S
H1878 C1888 0.930 . S
H1879 C1891 0.929 . S
H1880 C1894 0.930 . S
H1881 C1896 0.960 . S
H1882 C1896 0.960 . S
H1883 C1896 0.960 . S
C1884 H1876 0.929 . S
C1884 C1885 1.377 . S
C1884 C1886 1.384 . S
C1885 C1884 1.377 . S
C1885 C1891 1.390 . S
C1886 H1877 0.930 . S
C1886 C1884 1.384 . S
C1886 C1887 1.372 . S
C1887 C1886 1.372 . S
C1887 C1888 1.400 . S
C1887 C1892 1.490 . S
C1888 H1878 0.930 . S
C1888 C1887 1.400 . S
C1888 C1891 1.386 . S
H1889 C1905 0.930 . S
H1890 C1906 0.931 . S
C1891 H1879 0.929 . S
C1891 C1885 1.390 . S
C1891 C1888 1.386 . S
C1892 C1887 1.490 . S
C1892 C1894 1.395 . S
C1892 C1895 1.403 . S
H1893 C1899 0.930 . S
C1894 H1880 0.930 . S
C1894 C1892 1.395 . S
C1894 C1897 1.403 . S
C1895 C1892 1.403 . S
C1895 C1896 1.524 . S
C1895 C1899 1.400 . S
C1896 H1881 0.960 . S
C1896 H1882 0.960 . S
C1896 H1883 0.960 . S
C1896 C1895 1.524 . S
C1897 C1894 1.403 . S
C1897 C1898 1.392 . S
C1897 C1901 1.495 . S
C1898 C1897 1.392 . S
C1898 C1899 1.385 . S
C1898 C1900 1.478 . S
C1899 H1893 0.930 . S
C1899 C1895 1.400 . S
C1899 C1898 1.385 . S
C1900 C1898 1.478 . S
C1900 C1902 1.381 . S
C1900 C1906 1.383 . S
C1901 C1897 1.495 . S
C1901 H1907 0.959 . S
C1901 H1908 0.961 . S
C1901 H1909 0.960 . S
C1902 C1900 1.381 . S
C1902 C1903 1.394 . S
C1902 H1910 0.930 . S
C1903 C1902 1.394 . S
C1903 C1904 1.383 . S
C1903 H1911 0.929 . S
C1904 C1903 1.383 . S
C1904 C1905 1.377 . S
C1905 H1889 0.930 . S
C1905 C1904 1.377 . S
C1905 C1906 1.379 . S
C1906 H1890 0.931 . S
C1906 C1900 1.383 . S
C1906 C1905 1.379 . S
H1907 C1901 0.959 . S
H1908 C1901 0.961 . S
H1909 C1901 0.960 . S
H1910 C1902 0.930 . S
H1911 C1903 0.929 . S
H1912 C1920 0.929 . S
H1913 C1922 0.930 . S
H1914 C1924 0.930 . S
H1915 C1927 0.929 . S
H1916 C1930 0.930 . S
H1917 C1932 0.960 . S
H1918 C1932 0.960 . S
H1919 C1932 0.960 . S
C1920 H1912 0.929 . S
C1920 C1921 1.377 . S
C1920 C1922 1.384 . S
C1921 C1920 1.377 . S
C1921 C1927 1.390 . S
C1922 H1913 0.930 . S
C1922 C1920 1.384 . S
C1922 C1923 1.372 . S
C1923 C1922 1.372 . S
C1923 C1924 1.400 . S
C1923 C1928 1.490 . S
C1924 H1914 0.930 . S
C1924 C1923 1.400 . S
C1924 C1927 1.386 . S
H1925 C1941 0.930 . S
H1926 C1942 0.931 . S
C1927 H1915 0.929 . S
C1927 C1921 1.390 . S
C1927 C1924 1.386 . S
C1928 C1923 1.490 . S
C1928 C1930 1.395 . S
C1928 C1931 1.403 . S
H1929 C1935 0.930 . S
C1930 H1916 0.930 . S
C1930 C1928 1.395 . S
C1930 C1933 1.403 . S
C1931 C1928 1.403 . S
C1931 C1932 1.524 . S
C1931 C1935 1.400 . S
C1932 H1917 0.960 . S
C1932 H1918 0.960 . S
C1932 H1919 0.960 . S
C1932 C1931 1.524 . S
C1933 C1930 1.403 . S
C1933 C1934 1.392 . S
C1933 C1937 1.495 . S
C1934 C1933 1.392 . S
C1934 C1935 1.385 . S
C1934 C1936 1.478 . S
C1935 H1929 0.930 . S
C1935 C1931 1.400 . S
C1935 C1934 1.385 . S
C1936 C1934 1.478 . S
C1936 C1938 1.381 . S
C1936 C1942 1.383 . S
C1937 C1933 1.495 . S
C1937 H1943 0.959 . S
C1937 H1944 0.961 . S
C1937 H1945 0.960 . S
C1938 C1936 1.381 . S
C1938 C1939 1.394 . S
C1938 H1946 0.930 . S
C1939 C1938 1.394 . S
C1939 C1940 1.383 . S
C1939 H1947 0.929 . S
C1940 C1939 1.383 . S
C1940 C1941 1.377 . S
C1941 H1925 0.930 . S
C1941 C1940 1.377 . S
C1941 C1942 1.379 . S
C1942 H1926 0.931 . S
C1942 C1936 1.383 . S
C1942 C1941 1.379 . S
H1943 C1937 0.959 . S
H1944 C1937 0.961 . S
H1945 C1937 0.960 . S
H1946 C1938 0.930 . S
H1947 C1939 0.929 . S
H1948 C1956 0.929 . S
H1949 C1958 0.930 . S
H1950 C1960 0.930 . S
H1951 C1963 0.929 . S
H1952 C1966 0.930 . S
H1953 C1968 0.960 . S
H1954 C1968 0.960 . S
H1955 C1968 0.960 . S
C1956 H1948 0.929 . S
C1956 C1957 1.377 . S
C1956 C1958 1.384 . S
C1957 C1956 1.377 . S
C1957 C1963 1.390 . S
C1958 H1949 0.930 . S
C1958 C1956 1.384 . S
C1958 C1959 1.372 . S
C1959 C1958 1.372 . S
C1959 C1960 1.400 . S
C1959 C1964 1.490 . S
C1960 H1950 0.930 . S
C1960 C1959 1.400 . S
C1960 C1963 1.386 . S
H1961 C1977 0.930 . S
H1962 C1978 0.931 . S
C1963 H1951 0.929 . S
C1963 C1957 1.390 . S
C1963 C1960 1.386 . S
C1964 C1959 1.490 . S
C1964 C1966 1.395 . S
C1964 C1967 1.403 . S
H1965 C1971 0.930 . S
C1966 H1952 0.930 . S
C1966 C1964 1.395 . S
C1966 C1969 1.403 . S
C1967 C1964 1.403 . S
C1967 C1968 1.524 . S
C1967 C1971 1.400 . S
C1968 H1953 0.960 . S
C1968 H1954 0.960 . S
C1968 H1955 0.960 . S
C1968 C1967 1.524 . S
C1969 C1966 1.403 . S
C1969 C1970 1.392 . S
C1969 C1973 1.495 . S
C1970 C1969 1.392 . S
C1970 C1971 1.385 . S
C1970 C1972 1.478 . S
C1971 H1965 0.930 . S
C1971 C1967 1.400 . S
C1971 C1970 1.385 . S
C1972 C1970 1.478 . S
C1972 C1974 1.381 . S
C1972 C1978 1.383 . S
C1973 C1969 1.495 . S
C1973 H1979 0.959 . S
C1973 H1980 0.961 . S
C1973 H1981 0.960 . S
C1974 C1972 1.381 . S
C1974 C1975 1.394 . S
C1974 H1982 0.930 . S
C1975 C1974 1.394 . S
C1975 C1976 1.383 . S
C1975 H1983 0.929 . S
C1976 C1975 1.383 . S
C1976 C1977 1.377 . S
C1977 H1961 0.930 . S
C1977 C1976 1.377 . S
C1977 C1978 1.379 . S
C1978 H1962 0.931 . S
C1978 C1972 1.383 . S
C1978 C1977 1.379 . S
H1979 C1973 0.959 . S
H1980 C1973 0.961 . S
H1981 C1973 0.960 . S
H1982 C1974 0.930 . S
H1983 C1975 0.929 . S
C553 C413 1.486 . S
C572 C9 1.384 . S
C589 C43 1.295 . S
C608 C447 1.376 . S
C625 C77 1.406 . S
C644 C481 1.479 . S
C661 C107 1.398 . S
C680 C519 1.268 . S
C697 C281 1.402 . S
C716 C141 1.470 . S
C733 C311 1.569 . S
C752 C179 1.467 . S
C769 C209 1.470 . S
C788 C349 1.399 . S
C805 C383 1.481 . S
C824 C243 1.572 . S
C841 C33 1.445 . S
C860 C509 1.434 . S
C877 C543 1.608 . S
C896 C67 1.601 . S
C913 C441 1.429 . S
C932 C101 1.432 . S
C949 C475 1.613 . S
C968 C135 1.610 . S
C985 C373 1.837 . S
C1004 C169 1.836 . S
C1021 C407 1.617 . S
C1040 C203 1.607 . S
C1057 C305 1.839 . S
C1076 C237 1.835 . S
C1093 C339 1.621 . S
C1112 C271 1.622 . S
C1129 C20 1.362 . S
C1148 C342 1.366 . S
C1165 C376 1.402 . S
C1184 C54 1.435 . S
C1201 C274 1.429 . S
C1220 C88 1.436 . S
C1237 C326 1.402 . S
C1256 C104 1.385 . S
C1273 C138 1.376 . S
C1292 C496 1.344 . S
C1309 C190 1.362 . S
C1328 C512 1.341 . S
C1345 C428 1.325 . S
C1364 C206 1.338 . S
C1381 C240 1.312 . S
C1400 C462 1.329 . S
C1417 C417 1.373 . S
C1436 C5 1.454 . S
C1453 C39 1.548 . S
C1472 C451 1.463 . S
C1489 C73 1.444 . S
C1508 C485 1.340 . S
C1525 C515 1.533 . S
C1544 C111 1.464 . S
C1561 C277 1.441 . S
C1580 C145 1.350 . S
C1597 C175 1.348 . S
C1616 C315 1.260 . S
C1633 C345 1.454 . S
C1652 C213 1.380 . S
C1669 C379 1.350 . S
C1688 C247 1.237 . S
C1705 C172 1.577 . S
C1724 C2 1.568 . S
C1741 C224 1.612 . S
C1760 C36 1.617 . S
C1777 C70 1.123 . S
C1796 C258 1.096 . S
C1813 C156 1.198 . S
C1832 C122 1.199 . S
C1849 C292 1.643 . S
C1868 C444 1.666 . S
C1885 C478 1.496 . S
C1904 C308 1.495 . S
C1921 C530 1.294 . S
C1940 C360 1.300 . S
C1957 C394 1.191 . S
C1976 C410 1.212 . S
