# Generated by pormake.
# Topology wht, (6)-cn, num edge types: 1
# Building blocks:
#     Node 0, Type 0, BuildingBlock: IZENUY_clean_sbu_0, # of connection points: 6
#     Node 1, Type 0, BuildingBlock: IZENUY_clean_sbu_0, # of connection points: 6
#     Node 2, Type 0, BuildingBlock: IZENUY_clean_sbu_0, # of connection points: 6
#     Node 3, Type 0, BuildingBlock: IZENUY_clean_sbu_0, # of connection points: 6
#     Node 4, Type 0, BuildingBlock: IZENUY_clean_sbu_0, # of connection points: 6
#     Node 5, Type 0, BuildingBlock: IZENUY_clean_sbu_0, # of connection points: 6
#     Node 6, Type 0, BuildingBlock: IZENUY_clean_sbu_0, # of connection points: 6
#     Node 7, Type 0, BuildingBlock: IZENUY_clean_sbu_0, # of connection points: 6
#     Edge 8, Type (0, 0), BuildingBlock: TEMPAE_clean_linker_10, # of connection points: 2
#     Edge 9, Type (0, 0), BuildingBlock: TEMPAE_clean_linker_10, # of connection points: 2
#     Edge 10, Type (0, 0), BuildingBlock: TEMPAE_clean_linker_10, # of connection points: 2
#     Edge 11, Type (0, 0), BuildingBlock: TEMPAE_clean_linker_10, # of connection points: 2
#     Edge 12, Type (0, 0), BuildingBlock: TEMPAE_clean_linker_10, # of connection points: 2
#     Edge 13, Type (0, 0), BuildingBlock: TEMPAE_clean_linker_10, # of connection points: 2
#     Edge 14, Type (0, 0), BuildingBlock: TEMPAE_clean_linker_10, # of connection points: 2
#     Edge 15, Type (0, 0), BuildingBlock: TEMPAE_clean_linker_10, # of connection points: 2
#     Edge 16, Type (0, 0), BuildingBlock: TEMPAE_clean_linker_10, # of connection points: 2
#     Edge 17, Type (0, 0), BuildingBlock: TEMPAE_clean_linker_10, # of connection points: 2
#     Edge 18, Type (0, 0), BuildingBlock: TEMPAE_clean_linker_10, # of connection points: 2
#     Edge 19, Type (0, 0), BuildingBlock: TEMPAE_clean_linker_10, # of connection points: 2
#     Edge 20, Type (0, 0), BuildingBlock: TEMPAE_clean_linker_10, # of connection points: 2
#     Edge 21, Type (0, 0), BuildingBlock: TEMPAE_clean_linker_10, # of connection points: 2
#     Edge 22, Type (0, 0), BuildingBlock: TEMPAE_clean_linker_10, # of connection points: 2
#     Edge 23, Type (0, 0), BuildingBlock: TEMPAE_clean_linker_10, # of connection points: 2
#     Edge 24, Type (0, 0), BuildingBlock: TEMPAE_clean_linker_10, # of connection points: 2
#     Edge 25, Type (0, 0), BuildingBlock: TEMPAE_clean_linker_10, # of connection points: 2
#     Edge 26, Type (0, 0), BuildingBlock: TEMPAE_clean_linker_10, # of connection points: 2
#     Edge 27, Type (0, 0), BuildingBlock: TEMPAE_clean_linker_10, # of connection points: 2
#     Edge 28, Type (0, 0), BuildingBlock: TEMPAE_clean_linker_10, # of connection points: 2
#     Edge 29, Type (0, 0), BuildingBlock: TEMPAE_clean_linker_10, # of connection points: 2
#     Edge 30, Type (0, 0), BuildingBlock: TEMPAE_clean_linker_10, # of connection points: 2
#     Edge 31, Type (0, 0), BuildingBlock: TEMPAE_clean_linker_10, # of connection points: 2
# Relax obj value: 0.256
# Max RMSD: 0.239
# Mean RMSD: 0.239
data_MOF--net-wht--node1-IZENUY_clean_sbu_0--edge1-TEMPAE_clean_linker_10
_symmetry_space_group_name_H-M    P1
_symmetry_Int_Tables_number       1
_symmetry_cell_setting            triclinic
loop_
_symmetry_equiv_pos_as_xyz
'x, y, z'
_cell_length_a     26.540922
_cell_length_b     26.563202
_cell_length_c     47.413527
_cell_angle_alpha  90.028527
_cell_angle_beta   89.984064
_cell_angle_gamma 90.000874
loop_
_atom_site_label
_atom_site_type_symbol
_atom_site_fract_x
_atom_site_fract_y
_atom_site_fract_z
_atom_type_partial_charge
Fe0 Fe 0.08523 0.21069 0.13708 0.0
Fe1 Fe 0.18002 0.27146 0.15058 0.0
O2 O 0.11392 0.2636 0.15287 0.0
Fe3 Fe 0.07599 0.30918 0.16996 0.0
O4 O 0.04088 0.32135 0.13774 0.0
O5 O 0.02535 0.242 0.12889 0.0
O6 O 0.10694 0.22986 0.10268 0.0
C7 C 0.15259 0.23694 0.09653 0.0
C8 C 0.03216 0.21474 0.18566 0.0
O9 O 0.18548 0.24232 0.11565 0.0
C10 C 0.15578 0.30654 0.20593 0.0
O11 O 0.13958 0.16898 0.1419 0.0
O12 O 0.19249 0.21173 0.16814 0.0
O13 O 0.02929 0.26241 0.18296 0.0
O14 O 0.06201 0.18937 0.17062 0.0
C15 C 0.14837 0.3679 0.14054 0.0
O16 O 0.18556 0.30337 0.18504 0.0
O17 O 0.10902 0.30031 0.20293 0.0
C18 C 0.17799 0.17036 0.15773 0.0
O19 O 0.17276 0.33026 0.13212 0.0
O20 O 0.1161 0.36379 0.16018 0.0
C21 C 0.01717 0.28807 0.12425 0.0
Fe22 Fe 0.25514 0.68162 0.40038 0.0
Fe23 Fe 0.21783 0.57772 0.42001 0.0
O24 O 0.26328 0.61564 0.40282 0.0
Fe25 Fe 0.31635 0.58703 0.38711 0.0
O26 O 0.29711 0.60833 0.35265 0.0
O27 O 0.28423 0.68687 0.3654 0.0
O28 O 0.1963 0.67395 0.38195 0.0
C29 C 0.15873 0.64956 0.39047 0.0
C30 C 0.35635 0.68009 0.4075 0.0
O31 O 0.16302 0.61754 0.4102 0.0
C32 C 0.31249 0.53437 0.43581 0.0
O33 O 0.22324 0.68732 0.43485 0.0
O34 O 0.2267 0.61099 0.4529 0.0
O35 O 0.3579 0.64153 0.3918 0.0
O36 O 0.31489 0.6945 0.41787 0.0
C37 C 0.23909 0.5187 0.37441 0.0
O38 O 0.2648 0.53128 0.43305 0.0
O39 O 0.33776 0.56422 0.42073 0.0
C40 C 0.22025 0.65771 0.45581 0.0
O41 O 0.20572 0.5424 0.38785 0.0
O42 O 0.28519 0.52701 0.37905 0.0
C43 C 0.28981 0.65384 0.34637 0.0
Fe44 Fe 0.93965 0.818 0.63712 0.0
Fe45 Fe 0.84484 0.75703 0.65036 0.0
O46 O 0.9109 0.76502 0.65282 0.0
Fe47 Fe 0.94875 0.71948 0.66997 0.0
O48 O 0.98413 0.70737 0.63781 0.0
O49 O 0.99962 0.78674 0.62902 0.0
O50 O 0.91822 0.79883 0.60266 0.0
C51 C 0.87264 0.79168 0.59639 0.0
C52 C 0.99244 0.81396 0.68578 0.0
O53 O 0.83961 0.78617 0.61542 0.0
C54 C 0.86865 0.72197 0.70576 0.0
O55 O 0.8852 0.85963 0.64187 0.0
O56 O 0.8321 0.81673 0.66791 0.0
O57 O 0.99529 0.76629 0.68309 0.0
O58 O 0.96267 0.83934 0.67072 0.0
C59 C 0.87672 0.66064 0.64035 0.0
O60 O 0.83905 0.7251 0.68479 0.0
O61 O 0.91543 0.72831 0.70287 0.0
C62 C 0.8466 0.85814 0.65757 0.0
O63 O 0.85237 0.69824 0.63188 0.0
O64 O 0.9088 0.66483 0.66009 0.0
C65 C 1.00789 0.74068 0.62438 0.0
Fe66 Fe 0.80701 0.45101 0.91981 0.0
Fe67 Fe 0.70836 0.44114 0.88715 0.0
O68 O 0.76166 0.41281 0.90274 0.0
Fe69 Fe 0.77008 0.34687 0.90029 0.0
O70 O 0.82884 0.35475 0.88178 0.0
O71 O 0.86197 0.41141 0.90994 0.0
O72 O 0.81878 0.48624 0.88759 0.0
C73 C 0.78522 0.50975 0.87422 0.0
C74 C 0.8051 0.37113 0.95566 0.0
O75 O 0.7392 0.50132 0.87903 0.0
C76 C 0.66888 0.34794 0.90759 0.0
O77 O 0.75988 0.49729 0.93291 0.0
O78 O 0.68709 0.46379 0.92086 0.0
O79 O 0.80213 0.34142 0.93472 0.0
O80 O 0.79848 0.41782 0.95274 0.0
C81 C 0.73499 0.37441 0.84636 0.0
O82 O 0.66708 0.38647 0.89191 0.0
O83 O 0.71046 0.33372 0.91788 0.0
C84 C 0.71227 0.49375 0.93592 0.0
O85 O 0.72747 0.4199 0.85265 0.0
O86 O 0.74089 0.34144 0.86537 0.0
C87 C 0.86634 0.37931 0.89024 0.0
Fe88 Fe 0.57487 0.21946 0.57322 0.0
Fe89 Fe 0.58399 0.31768 0.60637 0.0
O90 O 0.61272 0.26482 0.59053 0.0
Fe91 Fe 0.67876 0.2568 0.59299 0.0
O92 O 0.67119 0.19787 0.61129 0.0
O93 O 0.61478 0.16468 0.58297 0.0
O94 O 0.53944 0.20711 0.60532 0.0
C95 C 0.51568 0.24033 0.61883 0.0
C96 C 0.65501 0.22227 0.53749 0.0
O97 O 0.52396 0.28642 0.61431 0.0
C98 C 0.67701 0.35795 0.58605 0.0
O99 O 0.52838 0.26644 0.56023 0.0
O100 O 0.56117 0.3393 0.5728 0.0
O101 O 0.68458 0.22514 0.55848 0.0
O102 O 0.60823 0.22856 0.54038 0.0
C103 C 0.65085 0.29087 0.64705 0.0
O104 O 0.63848 0.3593 0.6018 0.0
O105 O 0.69153 0.31661 0.57561 0.0
C106 C 0.5314 0.31411 0.55762 0.0
O107 O 0.60529 0.29818 0.64079 0.0
O108 O 0.68392 0.28565 0.62801 0.0
C109 C 0.64681 0.16035 0.60271 0.0
Fe110 Fe 0.27032 0.18042 0.84322 0.0
Fe111 Fe 0.30713 0.07645 0.82336 0.0
O112 O 0.26192 0.11449 0.84068 0.0
Fe113 Fe 0.20882 0.08603 0.85642 0.0
O114 O 0.22835 0.10707 0.89088 0.0
O115 O 0.24148 0.18561 0.87825 0.0
O116 O 0.32925 0.17247 0.86152 0.0
C117 C 0.36668 0.14796 0.85291 0.0
C118 C 0.16906 0.17926 0.83624 0.0
O119 O 0.36216 0.11602 0.83313 0.0
C120 C 0.2122 0.03367 0.80757 0.0
O121 O 0.30203 0.18612 0.80871 0.0
O122 O 0.29822 0.10986 0.79054 0.0
O123 O 0.16747 0.14071 0.85192 0.0
O124 O 0.21053 0.19359 0.82584 0.0
C125 C 0.28586 0.01739 0.86889 0.0
O126 O 0.25987 0.03024 0.81032 0.0
O127 O 0.18716 0.06353 0.82277 0.0
C128 C 0.30476 0.15658 0.78769 0.0
O129 O 0.31926 0.04099 0.85544 0.0
O130 O 0.23978 0.02583 0.86429 0.0
C131 C 0.23597 0.15251 0.89723 0.0
Fe132 Fe 0.34611 0.7714 0.09298 0.0
Fe133 Fe 0.44985 0.80929 0.07329 0.0
O134 O 0.4122 0.76366 0.09051 0.0
Fe135 Fe 0.44115 0.71085 0.10627 0.0
O136 O 0.41965 0.73008 0.14071 0.0
O137 O 0.34099 0.74237 0.12795 0.0
O138 O 0.35341 0.83028 0.11141 0.0
C139 C 0.37764 0.86794 0.10291 0.0
C140 C 0.34828 0.67029 0.08587 0.0
O141 O 0.4097 0.86383 0.08315 0.0
C142 C 0.4939 0.71494 0.05758 0.0
O143 O 0.34018 0.8032 0.05853 0.0
O144 O 0.41655 0.8002 0.04042 0.0
O145 O 0.38686 0.669 0.10158 0.0
O146 O 0.33363 0.71161 0.07549 0.0
C147 C 0.50912 0.78848 0.11885 0.0
O148 O 0.49654 0.76263 0.06019 0.0
O149 O 0.4643 0.68945 0.0727 0.0
C150 C 0.36975 0.80629 0.03754 0.0
O151 O 0.48523 0.82165 0.1054 0.0
O152 O 0.50099 0.74237 0.1143 0.0
C153 C 0.37405 0.73711 0.14698 0.0
Fe154 Fe 0.81632 0.9426 0.35628 0.0
Fe155 Fe 0.75515 0.84801 0.34299 0.0
O156 O 0.7633 0.91398 0.34053 0.0
Fe157 Fe 0.71792 0.95189 0.32329 0.0
O158 O 0.70569 0.98724 0.35542 0.0
O159 O 0.78513 1.00263 0.36428 0.0
O160 O 0.79693 0.92136 0.39073 0.0
C161 C 0.78954 0.87586 0.39701 0.0
C162 C 0.81264 0.99518 0.30755 0.0
O163 O 0.78408 0.84281 0.37799 0.0
C164 C 0.72056 0.87187 0.28751 0.0
O165 O 0.85788 0.88809 0.35165 0.0
O166 O 0.81495 0.83513 0.32555 0.0
O167 O 0.76496 0.99831 0.31028 0.0
O168 O 0.83785 0.96536 0.32267 0.0
C169 C 0.65869 0.88008 0.3528 0.0
O170 O 0.7234 0.84228 0.30849 0.0
O171 O 0.72694 0.9186 0.29043 0.0
C172 C 0.85638 0.84955 0.33594 0.0
O173 O 0.69623 0.85569 0.36135 0.0
O174 O 0.66306 0.91208 0.33306 0.0
C175 C 0.73902 1.01095 0.36887 0.0
C176 C 0.96977 0.21042 0.2256 0.0
C177 C 0.99524 0.187 0.20325 0.0
C178 C 0.93599 0.18308 0.24264 0.0
C179 C 0.92698 0.13148 0.23682 0.0
C180 C 0.95125 0.10831 0.21365 0.0
C181 C 0.98527 0.13615 0.19735 0.0
C182 C 0.91129 0.20886 0.26741 0.0
C183 C 0.94242 0.05356 0.2065 0.0
C184 C 0.89224 0.03946 0.29457 0.0
C185 C 0.84059 0.03173 0.28979 0.0
C186 C 0.92007 0.07346 0.27826 0.0
C187 C 0.89602 0.10009 0.25623 0.0
C188 C 0.84372 0.09322 0.2515 0.0
C189 C 0.81647 0.05932 0.2685 0.0
C190 C 0.97566 0.07989 0.28419 0.0
C191 C 0.81696 0.1205 0.22796 0.0
H192 H 0.97723 0.24969 0.23022 0.0
H193 H 1.00413 0.11786 0.17984 0.0
H194 H 0.86991 0.2031 0.26679 0.0
H195 H 0.92521 0.19196 0.28734 0.0
H196 H 0.91919 0.24992 0.26785 0.0
H197 H 0.96093 0.04239 0.18643 0.0
H198 H 0.95735 0.0294 0.22366 0.0
H199 H 0.90146 0.04584 0.20474 0.0
H200 H 0.9112 0.01889 0.31122 0.0
H201 H 0.7766 0.05363 0.26473 0.0
H202 H 0.98492 0.12035 0.28678 0.0
H203 H 0.99793 0.0656 0.26607 0.0
H204 H 0.98776 0.05943 0.30347 0.0
H205 H 0.82396 0.16158 0.22946 0.0
H206 H 0.77565 0.11379 0.22826 0.0
H207 H 0.83207 0.10772 0.20734 0.0
C208 C 0.31632 0.47055 0.47501 0.0
C209 C 0.34036 0.49774 0.45352 0.0
C210 C 0.34353 0.43661 0.492 0.0
C211 C 0.3957 0.42927 0.48704 0.0
C212 C 0.41966 0.45547 0.46481 0.0
C213 C 0.39187 0.48954 0.44852 0.0
C214 C 0.31688 0.40983 0.51577 0.0
C215 C 0.4751 0.44851 0.45863 0.0
C216 C 0.48533 0.3931 0.54571 0.0
C217 C 0.49472 0.34207 0.53999 0.0
C218 C 0.45144 0.42108 0.52941 0.0
C219 C 0.42668 0.39785 0.50643 0.0
C220 C 0.43514 0.34611 0.50077 0.0
C221 C 0.46884 0.31865 0.51779 0.0
C222 C 0.44321 0.476 0.53638 0.0
C223 C 0.40992 0.32027 0.47619 0.0
H224 H 0.27654 0.47661 0.47895 0.0
H225 H 0.41075 0.50977 0.43172 0.0
H226 H 0.32353 0.36868 0.51439 0.0
H227 H 0.33239 0.42272 0.53627 0.0
H228 H 0.27562 0.41687 0.51564 0.0
H229 H 0.48708 0.46864 0.43922 0.0
H230 H 0.49775 0.46283 0.47659 0.0
H231 H 0.48399 0.40794 0.45615 0.0
H232 H 0.50453 0.41143 0.56309 0.0
H233 H 0.47584 0.27925 0.5133 0.0
H234 H 0.40235 0.4841 0.53832 0.0
H235 H 0.45808 0.49979 0.51905 0.0
H236 H 0.46212 0.48726 0.5563 0.0
H237 H 0.36859 0.3263 0.477 0.0
H238 H 0.41754 0.27915 0.47583 0.0
H239 H 0.42365 0.33689 0.45615 0.0
C240 C 0.04159 0.89161 0.69634 0.0
C241 C 0.0295 0.84166 0.70325 0.0
C242 C 0.07567 0.91952 0.71257 0.0
C243 C 0.09772 0.89739 0.73672 0.0
C244 C 0.0866 0.84661 0.74355 0.0
C245 C 0.05291 0.81911 0.72654 0.0
C246 C 0.08689 0.9733 0.70431 0.0
C247 C 0.10883 0.82199 0.76939 0.0
C248 C 0.20852 0.96785 0.76933 0.0
C249 C 0.18404 0.9975 0.78963 0.0
C250 C 0.18122 0.93394 0.75235 0.0
C251 C 0.12842 0.92924 0.75605 0.0
C252 C 0.10385 0.95817 0.77698 0.0
C253 C 0.1318 0.99205 0.79332 0.0
C254 C 0.20857 0.90416 0.72997 0.0
C255 C 0.04768 0.95417 0.78176 0.0
H256 H 0.02435 0.90911 0.67808 0.0
H257 H 0.04377 0.78051 0.73192 0.0
H258 H 0.0716 0.9993 0.72051 0.0
H259 H 0.12818 0.97954 0.70328 0.0
H260 H 0.07019 0.98341 0.68358 0.0
H261 H 0.09956 0.78127 0.77061 0.0
H262 H 0.15038 0.8264 0.7695 0.0
H263 H 0.09418 0.84083 0.78861 0.0
H264 H 0.24883 0.97174 0.76638 0.0
H265 H 0.11245 0.01429 0.80914 0.0
H266 H 0.19504 0.91568 0.7088 0.0
H267 H 0.20031 0.86344 0.73231 0.0
H268 H 0.25002 0.90975 0.73089 0.0
H269 H 0.02726 0.96772 0.76281 0.0
H270 H 0.03494 0.97657 0.80023 0.0
H271 H 0.03678 0.91429 0.78511 0.0
C272 C 0.55195 0.70858 0.01583 0.0
C273 C 0.5312 0.68736 0.04026 0.0
C274 C 0.58539 0.68078 -0.0012 0.0
C275 C 0.59904 0.63118 0.00681 0.0
C276 C 0.57988 0.61064 0.03216 0.0
C277 C 0.54589 0.63872 0.04837 0.0
C278 C 0.60445 0.70363 0.97169 0.0
C279 C 0.59395 0.55823 0.04173 0.0
C280 C 0.63157 0.53289 0.95188 0.0
C281 C 0.68429 0.52983 0.95403 0.0
C282 C 0.60383 0.56695 0.96822 0.0
C283 C 0.62914 0.59858 0.98758 0.0
C284 C 0.68235 0.59616 0.98981 0.0
C285 C 0.70938 0.56193 0.97289 0.0
C286 C 0.54717 0.56838 0.96508 0.0
C287 C 0.71053 0.62889 0.0105 0.0
H288 H 0.54075 0.74619 0.00955 0.0
H289 H 0.53069 0.6224 0.06752 0.0
H290 H 0.64607 0.70053 0.97048 0.0
H291 H 0.58875 0.68256 0.95349 0.0
H292 H 0.59368 0.74387 0.96959 0.0
H293 H 0.57965 0.54971 0.06322 0.0
H294 H 0.57815 0.53009 0.02687 0.0
H295 H 0.63549 0.55357 0.04165 0.0
H296 H 0.61166 0.50864 0.93725 0.0
H297 H 0.75004 0.55992 0.97467 0.0
H298 H 0.53441 0.60743 0.96087 0.0
H299 H 0.52912 0.55604 0.98502 0.0
H300 H 0.5336 0.54371 0.94775 0.0
H301 H 0.70079 0.66905 0.00713 0.0
H302 H 0.75202 0.62444 0.00864 0.0
H303 H 0.69911 0.61912 0.03233 0.0
C304 C 0.20906 0.36816 0.23194 0.0
C305 C 0.17355 0.32912 0.23259 0.0
C306 C 0.21998 0.39619 0.25628 0.0
C307 C 0.1959 0.38384 0.28205 0.0
C308 C 0.16207 0.34265 0.28311 0.0
C309 C 0.15063 0.3163 0.25823 0.0
C310 C 0.25533 0.44061 0.25409 0.0
C311 C 0.13677 0.32743 0.31032 0.0
C312 C 0.25622 0.43967 0.34761 0.0
C313 C 0.22492 0.48115 0.35288 0.0
C314 C 0.24595 0.40632 0.32537 0.0
C315 C 0.20435 0.41568 0.30745 0.0
C316 C 0.17215 0.4571 0.313 0.0
C317 C 0.18244 0.48895 0.33594 0.0
C318 C 0.2803 0.3618 0.32065 0.0
C319 C 0.12811 0.46908 0.294 0.0
H320 H 0.22615 0.37871 0.21203 0.0
H321 H 0.12308 0.28616 0.2587 0.0
H322 H 0.23479 0.47578 0.25935 0.0
H323 H 0.28653 0.43677 0.26948 0.0
H324 H 0.27171 0.44458 0.23263 0.0
H325 H 0.11552 0.2916 0.30818 0.0
H326 H 0.1652 0.32307 0.3273 0.0
H327 H 0.11021 0.35733 0.31708 0.0
H328 H 0.28901 0.43351 0.36081 0.0
H329 H 0.15859 0.52138 0.3398 0.0
H330 H 0.30118 0.36664 0.30056 0.0
H331 H 0.25784 0.32672 0.31878 0.0
H332 H 0.30805 0.35716 0.33799 0.0
H333 H 0.14194 0.47714 0.27237 0.0
H334 H 0.10616 0.50206 0.30155 0.0
H335 H 0.10249 0.43621 0.29254 0.0
C336 C 0.08681 0.75798 0.59748 0.0
C337 C 0.04548 0.72653 0.60284 0.0
C338 C 0.12012 0.74781 0.57519 0.0
C339 C 0.11089 0.70611 0.55733 0.0
C340 C 0.06964 0.67373 0.56298 0.0
C341 C 0.03781 0.68396 0.58595 0.0
C342 C 0.16445 0.78237 0.57036 0.0
C343 C 0.05781 0.62956 0.54405 0.0
C344 C 0.15828 0.71071 0.48177 0.0
C345 C 0.1976 0.67553 0.48245 0.0
C346 C 0.13017 0.72155 0.50611 0.0
C347 C 0.14273 0.69771 0.5319 0.0
C348 C 0.18419 0.6642 0.53299 0.0
C349 C 0.21062 0.65284 0.50812 0.0
C350 C 0.08547 0.75655 0.50389 0.0
C351 C 0.19963 0.63916 0.56022 0.0
H352 H 0.09288 0.79083 0.61063 0.0
H353 H 1.00549 0.65999 0.58987 0.0
H354 H 0.19969 0.76013 0.5685 0.0
H355 H 0.1594 0.80306 0.55024 0.0
H356 H 0.169 0.81024 0.58765 0.0
H357 H 0.02498 0.60747 0.55167 0.0
H358 H 0.04956 0.64322 0.52241 0.0
H359 H 0.09086 0.60416 0.54257 0.0
H360 H 0.14756 0.7276 0.46184 0.0
H361 H 0.24098 0.62553 0.50862 0.0
H362 H 0.08915 0.78784 0.51924 0.0
H363 H 0.05042 0.73583 0.50921 0.0
H364 H 0.08134 0.77277 0.48242 0.0
H365 H 0.20389 0.66769 0.57717 0.0
H366 H 0.2356 0.61811 0.55808 0.0
H367 H 0.16987 0.6125 0.56704 0.0
C368 C 0.76755 0.58841 0.8472 0.0
C369 C 0.79911 0.54719 0.85258 0.0
C370 C 0.77772 0.62171 0.82493 0.0
C371 C 0.8195 0.61257 0.80709 0.0
C372 C 0.85191 0.57136 0.81271 0.0
C373 C 0.84172 0.53957 0.83568 0.0
C374 C 0.74313 0.666 0.82012 0.0
C375 C 0.89615 0.55958 0.79379 0.0
C376 C 0.81536 0.66011 0.73157 0.0
C377 C 0.85069 0.6993 0.73235 0.0
C378 C 0.80429 0.63202 0.75587 0.0
C379 C 0.82803 0.64448 0.78172 0.0
C380 C 0.86167 0.68582 0.7829 0.0
C381 C 0.87328 0.71221 0.75807 0.0
C382 C 0.76918 0.58744 0.75354 0.0
C383 C 0.88659 0.70116 0.8102 0.0
H384 H 0.73467 0.59445 0.86035 0.0
H385 H 0.86577 0.50733 0.83961 0.0
H386 H 0.76538 0.70124 0.81837 0.0
H387 H 0.72254 0.66106 0.79995 0.0
H388 H 0.71513 0.67044 0.83736 0.0
H389 H 0.91815 0.52666 0.80134 0.0
H390 H 0.88253 0.55155 0.77212 0.0
H391 H 0.92166 0.59255 0.79244 0.0
H392 H 0.79854 0.64947 0.7116 0.0
H393 H 0.90069 0.74247 0.75865 0.0
H394 H 0.73783 0.59109 0.76886 0.0
H395 H 0.78985 0.55236 0.75881 0.0
H396 H 0.75301 0.58343 0.73204 0.0
H397 H 0.85796 0.70538 0.8271 0.0
H398 H 0.90769 0.7371 0.80814 0.0
H399 H 0.91324 0.6714 0.81702 0.0
C400 C 0.98751 0.34481 0.08581 0.0
C401 C 0.97969 0.30227 0.10268 0.0
C402 C 0.95577 0.3551 0.06283 0.0
C403 C 0.91444 0.32283 0.05716 0.0
C404 C 0.90507 0.28116 0.075 0.0
C405 C 0.9383 0.27092 0.09729 0.0
C406 C 0.96775 0.39923 0.04392 0.0
C407 C 0.86065 0.24672 0.07014 0.0
C408 C 0.81486 0.37622 0.00795 0.0
C409 C 0.82782 0.35344 0.98229 0.0
C410 C 0.84128 0.36489 0.03282 0.0
C411 C 0.88267 0.3313 0.03172 0.0
C412 C 0.89521 0.30739 0.00593 0.0
C413 C 0.86711 0.31821 0.9816 0.0
C414 C 0.82587 0.39001 0.06005 0.0
C415 C 0.93984 0.2723 0.00371 0.0
H416 H 0.01989 0.3687 0.08976 0.0
H417 H 0.93211 0.23809 0.11043 0.0
H418 H 0.97603 0.38554 0.02229 0.0
H419 H 0.93477 0.42471 0.04243 0.0
H420 H 1.00062 0.42124 0.05157 0.0
H421 H 0.85601 0.21885 0.08741 0.0
H422 H 0.82547 0.26905 0.06828 0.0
H423 H 0.86568 0.22603 0.05001 0.0
H424 H 0.78452 0.40356 0.00846 0.0
H425 H 0.87779 0.30124 0.96167 0.0
H426 H 0.85571 0.41657 0.06689 0.0
H427 H 0.82148 0.36151 0.07699 0.0
H428 H 0.78998 0.41118 0.05791 0.0
H429 H 0.97492 0.29295 0.00906 0.0
H430 H 0.94399 0.25609 0.98223 0.0
H431 H 0.93605 0.24101 0.01903 0.0
C432 C 0.65037 0.21307 0.48516 0.0
C433 C 0.673 0.19992 0.51082 0.0
C434 C 0.66194 0.18689 0.46024 0.0
C435 C 0.69559 0.14556 0.46129 0.0
C436 C 0.71939 0.13289 0.48707 0.0
C437 C 0.70835 0.16075 0.51146 0.0
C438 C 0.63696 0.20245 0.43301 0.0
C439 C 0.75454 0.08831 0.48924 0.0
C440 C 0.6821 0.04081 0.40721 0.0
C441 C 0.72478 0.0485 0.39038 0.0
C442 C 0.67174 0.07261 0.43015 0.0
C443 C 0.70408 0.11386 0.43583 0.0
C444 C 0.74587 0.12313 0.41803 0.0
C445 C 0.75619 0.08984 0.39577 0.0
C446 C 0.62748 0.06073 0.44903 0.0
C447 C 0.78037 0.16748 0.42291 0.0
H448 H 0.62294 0.24331 0.4847 0.0
H449 H 0.72521 0.14995 0.53139 0.0
H450 H 0.66554 0.20676 0.41609 0.0
H451 H 0.61027 0.17275 0.42613 0.0
H452 H 0.61589 0.23838 0.43518 0.0
H453 H 0.77074 0.08412 0.51071 0.0
H454 H 0.73389 0.05326 0.48386 0.0
H455 H 0.78587 0.09213 0.47392 0.0
H456 H 0.65817 1.00848 0.40325 0.0
H457 H 0.78912 0.09592 0.38267 0.0
H458 H 0.60203 0.09373 0.45051 0.0
H459 H 0.64109 0.05246 0.47067 0.0
H460 H 0.60542 0.02792 0.44136 0.0
H461 H 0.75805 0.20265 0.42481 0.0
H462 H 0.80825 0.17212 0.40562 0.0
H463 H 0.8011 0.16241 0.44301 0.0
C464 C 0.36654 0.20959 0.76165 0.0
C465 C 0.32715 0.17447 0.76102 0.0
C466 C 0.39438 0.22053 0.73724 0.0
C467 C 0.38148 0.19686 0.71144 0.0
C468 C 0.33997 0.16341 0.71041 0.0
C469 C 0.31381 0.15195 0.73535 0.0
C470 C 0.43915 0.25545 0.73938 0.0
C471 C 0.32418 0.13856 0.68318 0.0
C472 C 0.43691 0.25747 0.64589 0.0
C473 C 0.47818 0.22603 0.64036 0.0
C474 C 0.40374 0.24717 0.66821 0.0
C475 C 0.41306 0.20534 0.68594 0.0
C476 C 0.45422 0.17295 0.6801 0.0
C477 C 0.4859 0.18331 0.6571 0.0
C478 C 0.35949 0.28175 0.67325 0.0
C479 C 0.46613 0.12862 0.69889 0.0
H480 H 0.3775 0.22635 0.78158 0.0
H481 H 0.2834 0.12469 0.7349 0.0
H482 H 0.47412 0.23471 0.73389 0.0
H483 H 0.43535 0.28685 0.72412 0.0
H484 H 0.44356 0.27153 0.76088 0.0
H485 H 0.28819 0.11757 0.68539 0.0
H486 H 0.31979 0.16719 0.66631 0.0
H487 H 0.35381 0.11187 0.6762 0.0
H488 H 0.4308 0.29044 0.63285 0.0
H489 H 0.51818 0.15934 0.65305 0.0
H490 H 0.36478 0.30236 0.69338 0.0
H491 H 0.32425 0.25955 0.67519 0.0
H492 H 0.3548 0.3097 0.65602 0.0
H493 H 0.47466 0.14213 0.72052 0.0
H494 H 0.49883 0.1065 0.69109 0.0
H495 H 0.43303 0.1033 0.70042 0.0
C496 C 0.31624 0.86769 0.01156 0.0
C497 C 0.3517 0.82861 0.01089 0.0
C498 C 0.30515 0.89554 0.98719 0.0
C499 C 0.329 0.88295 0.96139 0.0
C500 C 0.36276 0.8417 0.96032 0.0
C501 C 0.37438 0.81554 0.98522 0.0
C502 C 0.2699 0.94004 0.98939 0.0
C503 C 0.38781 0.82623 0.93307 0.0
C504 C 0.26855 0.93858 0.89583 0.0
C505 C 0.29998 0.97991 0.89045 0.0
C506 C 0.2788 0.90535 0.91811 0.0
C507 C 0.32051 0.91468 0.93596 0.0
C508 C 0.35283 0.95595 0.9303 0.0
C509 C 0.34256 0.98768 0.90733 0.0
C510 C 0.24432 0.86097 0.92295 0.0
C511 C 0.397 0.96791 0.94923 0.0
H512 H 0.29935 0.87843 0.0315 0.0
H513 H 0.40189 0.78537 0.98473 0.0
H514 H 0.2905 0.97514 0.98408 0.0
H515 H 0.23863 0.9362 0.97404 0.0
H516 H 0.25362 0.94413 0.01086 0.0
H517 H 0.40894 0.79033 0.93522 0.0
H518 H 0.35925 0.82187 0.91615 0.0
H519 H 0.41445 0.85599 0.92622 0.0
H520 H 0.23569 0.93245 0.88269 0.0
H521 H 0.3665 0.02001 0.90339 0.0
H522 H 0.22357 0.866 0.94307 0.0
H523 H 0.26667 0.82582 0.92482 0.0
H524 H 0.21646 0.85632 0.90566 0.0
H525 H 0.3833 0.97609 0.97087 0.0
H526 H 0.41899 1.00081 0.94162 0.0
H527 H 0.42254 0.93498 0.95067 0.0
C528 C 0.5882 0.77158 0.14563 0.0
C529 C 0.54671 0.80284 0.14032 0.0
C530 C 0.62146 0.78184 0.16791 0.0
C531 C 0.61201 0.82343 0.18581 0.0
C532 C 0.57063 0.85565 0.1802 0.0
C533 C 0.53885 0.84534 0.15724 0.0
C534 C 0.66594 0.74747 0.1727 0.0
C535 C 0.55859 0.8997 0.19918 0.0
C536 C 0.65902 0.81866 0.26141 0.0
C537 C 0.69819 0.85402 0.26083 0.0
C538 C 0.6311 0.8078 0.23701 0.0
C539 C 0.64371 0.83182 0.21128 0.0
C540 C 0.68503 0.86549 0.21029 0.0
C541 C 0.71127 0.87685 0.23521 0.0
C542 C 0.58655 0.77258 0.23912 0.0
C543 C 0.70051 0.89072 0.18311 0.0
H544 H 0.59441 0.73878 0.13245 0.0
H545 H 0.5064 0.86915 0.15335 0.0
H546 H 0.70107 0.76986 0.17466 0.0
H547 H 0.6609 0.7266 0.19276 0.0
H548 H 0.6707 0.71975 0.15535 0.0
H549 H 0.52573 0.92173 0.19155 0.0
H550 H 0.55027 0.88592 0.22078 0.0
H551 H 0.59156 0.92519 0.20074 0.0
H552 H 0.64826 0.80164 0.2813 0.0
H553 H 0.74152 0.90429 0.23479 0.0
H554 H 0.59043 0.7414 0.22372 0.0
H555 H 0.55143 0.79319 0.23381 0.0
H556 H 0.5824 0.75622 0.26056 0.0
H557 H 0.70492 0.86231 0.16612 0.0
H558 H 0.7364 0.91187 0.18532 0.0
H559 H 0.67069 0.91734 0.17631 0.0
C560 C 0.23095 0.21948 0.93392 0.0
C561 C 0.2314 0.1682 0.92685 0.0
C562 C 0.22234 0.23492 0.9617 0.0
C563 C 0.21405 0.19812 0.9827 0.0
C564 C 0.2168 0.14631 0.97597 0.0
C565 C 0.22553 0.13194 0.94806 0.0
C566 C 0.22011 0.29049 0.96835 0.0
C567 C 0.20847 0.10607 -0.00198 0.0
C568 C 0.22005 0.22886 0.06028 0.0
C569 C 0.16867 0.23178 0.06701 0.0
C570 C 0.23564 0.21971 0.03257 0.0
C571 C 0.19888 0.21345 0.01132 0.0
C572 C 0.14709 0.21861 0.01772 0.0
C573 C 0.13257 0.22778 0.04557 0.0
C574 C 0.29122 0.21479 0.02628 0.0
C575 C 0.1069 0.2125 0.99539 0.0
H576 H 0.23593 0.24768 0.91764 0.0
H577 H 0.22658 0.09224 0.94277 0.0
H578 H 0.18093 0.30112 0.97394 0.0
H579 H 0.24417 0.29934 0.98683 0.0
H580 H 0.23242 0.31405 0.95026 0.0
H581 H 0.21527 0.06758 0.98964 0.0
H582 H 0.23371 0.1123 0.01633 0.0
H583 H 0.16913 0.10812 0.00587 0.0
H584 H 0.24814 0.23229 0.07676 0.0
H585 H 0.09283 0.23073 0.05061 0.0
H586 H 0.30165 0.23856 0.00795 0.0
H587 H 0.30001 0.17522 0.02061 0.0
H588 H 0.31499 0.22571 0.04457 0.0
H589 H 0.11458 0.23782 0.9773 0.0
H590 H 0.06855 0.22078 0.00359 0.0
H591 H 0.10739 0.17332 0.98726 0.0
C592 C 0.39448 0.72708 0.19786 0.0
C593 C 0.35823 0.73221 0.17657 0.0
C594 C 0.38008 0.71819 0.22575 0.0
C595 C 0.32825 0.71449 0.23237 0.0
C596 C 0.29141 0.72189 0.21128 0.0
C597 C 0.30688 0.73071 0.18352 0.0
C598 C 0.42037 0.7108 0.2479 0.0
C599 C 0.2358 0.71859 0.21781 0.0
C600 C 0.29966 0.63336 0.29549 0.0
C601 C 0.29486 0.66962 0.3168 0.0
C602 C 0.30875 0.64766 0.26761 0.0
C603 C 0.313 0.6994 0.26102 0.0
C604 C 0.30594 0.73629 0.28213 0.0
C605 C 0.2969 0.72091 0.30988 0.0
C606 C 0.31576 0.60734 0.24544 0.0
C607 C 0.30985 0.79182 0.27563 0.0
H608 H 0.43422 0.72891 0.19266 0.0
H609 H 0.27868 0.73506 0.16717 0.0
H610 H 0.41362 0.73614 0.26611 0.0
H611 H 0.41891 0.67157 0.2559 0.0
H612 H 0.45882 0.71811 0.23957 0.0
H613 H 0.2121 0.73015 0.19961 0.0
H614 H 0.22593 0.67931 0.22353 0.0
H615 H 0.22631 0.7427 0.23617 0.0
H616 H 0.2974 0.59367 0.30067 0.0
H617 H 0.29283 0.74913 0.32625 0.0
H618 H 0.35503 0.60841 0.23742 0.0
H619 H 0.29045 0.61433 0.22725 0.0
H620 H 0.30807 0.56899 0.25376 0.0
H621 H 0.34928 0.80126 0.26994 0.0
H622 H 0.29847 0.81561 0.29383 0.0
H623 H 0.28588 0.80155 0.25726 0.0
C624 C 0.79956 0.89636 0.44789 0.0
C625 C 0.7943 0.86011 0.42661 0.0
C626 C 0.80837 0.88201 0.47579 0.0
C627 C 0.81186 0.83023 0.48243 0.0
C628 C 0.80427 0.79339 0.46135 0.0
C629 C 0.79553 0.80882 0.43358 0.0
C630 C 0.81595 0.92229 0.49792 0.0
C631 C 0.80732 0.73783 0.4679 0.0
C632 C 0.89308 0.80144 0.5455 0.0
C633 C 0.85681 0.79681 0.56683 0.0
C634 C 0.87874 0.81055 0.51763 0.0
C635 C 0.82695 0.815 0.51107 0.0
C636 C 0.79006 0.80813 0.53221 0.0
C637 C 0.80547 0.79905 0.55994 0.0
C638 C 0.91907 0.81735 0.49544 0.0
C639 C 0.73448 0.81227 0.52574 0.0
H640 H 0.79791 0.93607 0.44267 0.0
H641 H 0.79107 0.78061 0.41724 0.0
H642 H 0.7906 0.91567 0.51615 0.0
H643 H 0.85523 0.92073 0.50589 0.0
H644 H 0.80874 0.96071 0.48959 0.0
H645 H 0.79559 0.71416 0.44973 0.0
H646 H 0.8466 0.7278 0.47359 0.0
H647 H 0.7832 0.72852 0.48628 0.0
H648 H 0.9328 0.79902 0.55066 0.0
H649 H 0.77725 0.79513 0.57633 0.0
H650 H 0.91811 0.85656 0.4874 0.0
H651 H 0.91195 0.79202 0.47726 0.0
H652 H 0.95744 0.80956 0.50373 0.0
H653 H 0.72519 0.8517 0.52006 0.0
H654 H 0.71067 0.80103 0.54396 0.0
H655 H 0.72458 0.78834 0.50738 0.0
C656 C 0.63035 0.29999 0.69797 0.0
C657 C 0.66663 0.29553 0.67664 0.0
C658 C 0.64468 0.30878 0.72588 0.0
C659 C 0.69647 0.3131 0.73246 0.0
C660 C 0.73337 0.30626 0.71133 0.0
C661 C 0.71797 0.2975 0.68356 0.0
C662 C 0.60435 0.31552 0.74808 0.0
C663 C 0.78895 0.31023 0.71782 0.0
C664 C 0.72435 0.39468 0.79552 0.0
C665 C 0.72982 0.35852 0.81681 0.0
C666 C 0.71521 0.38022 0.76767 0.0
C667 C 0.71159 0.32841 0.76109 0.0
C668 C 0.71928 0.29165 0.78218 0.0
C669 C 0.72836 0.30719 0.8099 0.0
C670 C 0.70751 0.42041 0.74553 0.0
C671 C 0.71607 0.23607 0.77568 0.0
H672 H 0.59062 0.29774 0.69279 0.0
H673 H 0.7462 0.29366 0.66717 0.0
H674 H 0.61155 0.29029 0.76627 0.0
H675 H 0.60519 0.35477 0.7561 0.0
H676 H 0.56599 0.30759 0.73979 0.0
H677 H 0.81275 0.29889 0.69961 0.0
H678 H 0.79836 0.34965 0.7235 0.0
H679 H 0.79876 0.28632 0.73619 0.0
H680 H 0.72615 0.43441 0.8007 0.0
H681 H 0.73294 0.27906 0.82625 0.0
H682 H 0.66823 0.41872 0.73755 0.0
H683 H 0.73287 0.41379 0.7273 0.0
H684 H 0.71463 0.45888 0.75384 0.0
H685 H 0.67675 0.22611 0.77004 0.0
H686 H 0.72781 0.21245 0.79386 0.0
H687 H 0.7401 0.22661 0.75728 0.0
C688 C 0.26423 0.13114 0.162 0.0
C689 C 0.21231 0.12609 0.15699 0.0
C690 C 0.29791 0.09173 0.15549 0.0
C691 C 0.27924 0.04643 0.14362 0.0
C692 C 0.22667 0.04034 0.13988 0.0
C693 C 0.194 0.07997 0.14675 0.0
C694 C 0.3536 0.09933 0.16024 0.0
C695 C 0.20493 0.99263 0.12749 0.0
C696 C 0.356 0.9592 0.09649 0.0
C697 C 0.36245 0.91759 0.11425 0.0
C698 C 0.33153 1.00295 0.10626 0.0
C699 C 0.314 1.00523 0.13454 0.0
C700 C 0.32412 0.96469 0.15304 0.0
C701 C 0.34772 0.92125 0.1426 0.0
C702 C 0.32113 0.04513 0.08575 0.0
C703 C 0.30694 0.96567 0.1834 0.0
H704 H 0.27887 0.16665 0.16971 0.0
H705 H 0.15397 0.07551 0.14294 0.0
H706 H 0.36968 0.06697 0.17197 0.0
H707 H 0.37321 0.10123 0.1396 0.0
H708 H 0.36166 0.13447 0.17212 0.0
H709 H 0.16312 0.9935 0.12645 0.0
H710 H 0.21981 0.98692 0.10584 0.0
H711 H 0.2165 0.95963 0.14026 0.0
H712 H 0.36695 0.95629 0.07451 0.0
H713 H 0.35299 0.88916 0.15643 0.0
H714 H 0.33155 0.08193 0.09514 0.0
H715 H 0.2802 0.04639 0.081 0.0
H716 H 0.34197 0.04026 0.06561 0.0
H717 H 0.31647 1.00223 0.19338 0.0
H718 H 0.32416 0.93487 0.19597 0.0
H719 H 0.26538 0.96143 0.18426 0.0
C720 C 0.44677 0.69641 0.39655 0.0
C721 C 0.4005 0.71459 0.40667 0.0
C722 C 0.48633 0.72916 0.38966 0.0
C723 C 0.47998 0.7817 0.39322 0.0
C724 C 0.43447 0.80028 0.40493 0.0
C725 C 0.39517 0.76651 0.41149 0.0
C726 C 0.53427 0.70752 0.37745 0.0
C727 C 0.42656 0.85594 0.40947 0.0
C728 C 0.60498 0.85066 0.39242 0.0
C729 C 0.60888 0.86507 0.36404 0.0
C730 C 0.56148 0.82702 0.40278 0.0
C731 C 0.52115 0.81653 0.38417 0.0
C732 C 0.52366 0.83374 0.35585 0.0
C733 C 0.56746 0.85826 0.34615 0.0
C734 C 0.56026 0.81016 0.43318 0.0
C735 C 0.48171 0.82296 0.33523 0.0
H736 H 0.45145 0.65639 0.39288 0.0
H737 H 0.35951 0.78106 0.4191 0.0
H738 H 0.54009 0.72219 0.35578 0.0
H739 H 0.56715 0.71936 0.39027 0.0
H740 H 0.53359 0.66573 0.37653 0.0
H741 H 0.39121 0.86399 0.42118 0.0
H742 H 0.45873 0.87228 0.42128 0.0
H743 H 0.42485 0.87529 0.38876 0.0
H744 H 0.63694 0.85617 0.40634 0.0
H745 H 0.57057 0.86893 0.32415 0.0
H746 H 0.56468 0.76867 0.43417 0.0
H747 H 0.52353 0.81962 0.44301 0.0
H748 H 0.59088 0.82764 0.44581 0.0
H749 H 0.48071 0.78202 0.33057 0.0
H750 H 0.48667 0.84364 0.31506 0.0
H751 H 0.44472 0.83325 0.34447 0.0
C752 C 0.6687 0.06919 0.59607 0.0
C753 C 0.66183 0.1106 0.61395 0.0
C754 C 0.69319 0.02543 0.60579 0.0
C755 C 0.71032 0.02294 0.63414 0.0
C756 C 0.69977 0.06326 0.65274 0.0
C757 C 0.67616 0.10672 0.64235 0.0
C758 C 0.70404 0.98349 0.58518 0.0
C759 C 0.71652 0.06206 0.68316 0.0
C760 C 0.76016 0.89703 0.66149 0.0
C761 C 0.81214 0.9023 0.65674 0.0
C762 C 0.72642 0.93633 0.6549 0.0
C763 C 0.7451 0.98178 0.64323 0.0
C764 C 0.7977 0.98807 0.63974 0.0
C765 C 0.83042 0.94852 0.64666 0.0
C766 C 0.67069 0.92849 0.65936 0.0
C767 C 0.81946 0.03594 0.62756 0.0
H768 H 0.65809 0.07228 0.57405 0.0
H769 H 0.67059 0.13866 0.65627 0.0
H770 H 0.74504 0.98245 0.58058 0.0
H771 H 0.69366 0.94655 0.5944 0.0
H772 H 0.68344 0.98845 0.56497 0.0
H773 H 0.69902 0.09269 0.69577 0.0
H774 H 0.70698 0.02537 0.69297 0.0
H775 H 0.75806 0.06643 0.6842 0.0
H776 H 0.74553 0.86142 0.66907 0.0
H777 H 0.8705 0.95314 0.64303 0.0
H778 H 0.6514 0.92675 0.63863 0.0
H779 H 0.65431 0.96067 0.67114 0.0
H780 H 0.66256 0.89319 0.67107 0.0
H781 H 0.80488 0.04175 0.60587 0.0
H782 H 0.86129 0.03523 0.6267 0.0
H783 H 0.80758 0.06881 0.64038 0.0
C784 C 0.45782 0.17001 0.84614 0.0
C785 C 0.41656 0.16279 0.86411 0.0
C786 C 0.50163 0.19448 0.85586 0.0
C787 C 0.50434 0.21122 0.88428 0.0
C788 C 0.4642 0.20028 0.90294 0.0
C789 C 0.42067 0.17671 0.89256 0.0
C790 C 0.54336 0.20577 0.83517 0.0
C791 C 0.46563 0.2166 0.93344 0.0
C792 C 0.63043 0.26134 0.91138 0.0
C793 C 0.62484 0.3133 0.90685 0.0
C794 C 0.59117 0.22751 0.90482 0.0
C795 C 0.54545 0.24607 0.89339 0.0
C796 C 0.53885 0.29864 0.89014 0.0
C797 C 0.57836 0.33145 0.89703 0.0
C798 C 0.59936 0.17182 0.90903 0.0
C799 C 0.49067 0.32028 0.87824 0.0
H800 H 0.45454 0.15973 0.82409 0.0
H801 H 0.38882 0.17089 0.90654 0.0
H802 H 0.54417 0.24679 0.83075 0.0
H803 H 0.58047 0.19545 0.84424 0.0
H804 H 0.53828 0.18542 0.81489 0.0
H805 H 0.43522 0.19874 0.94606 0.0
H806 H 0.50251 0.20715 0.94309 0.0
H807 H 0.46101 0.25805 0.9347 0.0
H808 H 0.66625 0.24682 0.91875 0.0
H809 H 0.5735 0.37151 0.89359 0.0
H810 H 0.60105 0.15281 0.88821 0.0
H811 H 0.56734 0.15513 0.92081 0.0
H812 H 0.63482 0.16375 0.92062 0.0
H813 H 0.48467 0.30595 0.85651 0.0
H814 H 0.49116 0.36208 0.87756 0.0
H815 H 0.45799 0.30808 0.89112 0.0
C816 C 0.85538 0.56934 0.64687 0.0
C817 C 0.86156 0.61094 0.62907 0.0
C818 C 0.83091 0.52553 0.63721 0.0
C819 C 0.81309 0.52318 0.60899 0.0
C820 C 0.82294 0.56371 0.59044 0.0
C821 C 0.84656 0.60722 0.60077 0.0
C822 C 0.82081 0.48336 0.65777 0.0
C823 C 0.80543 0.56266 0.56014 0.0
C824 C 0.76321 0.39723 0.58167 0.0
C825 C 0.71133 0.40222 0.58684 0.0
C826 C 0.79691 0.43665 0.5881 0.0
C827 C 0.7783 0.48192 0.60005 0.0
C828 C 0.72577 0.48792 0.60398 0.0
C829 C 0.69307 0.44827 0.59719 0.0
C830 C 0.85256 0.42913 0.58317 0.0
C831 C 0.70408 0.53559 0.61647 0.0
H832 H 0.86654 0.5723 0.66881 0.0
H833 H 0.85162 0.6393 0.58691 0.0
H834 H 0.77994 0.48206 0.66269 0.0
H835 H 0.83115 0.44655 0.64834 0.0
H836 H 0.8419 0.48826 0.67782 0.0
H837 H 0.82245 0.59349 0.54749 0.0
H838 H 0.81491 0.52611 0.55014 0.0
H839 H 0.76385 0.56683 0.55944 0.0
H840 H 0.77782 0.36176 0.57386 0.0
H841 H 0.65307 0.45269 0.60113 0.0
H842 H 0.8724 0.42738 0.60373 0.0
H843 H 0.86846 0.46147 0.57133 0.0
H844 H 0.86057 0.39395 0.57131 0.0
H845 H 0.71922 0.54133 0.63805 0.0
H846 H 0.66229 0.53464 0.61768 0.0
H847 H 0.71544 0.56862 0.60365 0.0
C848 C 0.07866 0.19564 0.84722 0.0
C849 C 0.1249 0.21375 0.837 0.0
C850 C 0.03905 0.22843 0.85397 0.0
C851 C 0.04529 0.28092 0.85015 0.0
C852 C 0.09075 0.29939 0.83833 0.0
C853 C 0.13012 0.26559 0.83194 0.0
C854 C 0.99117 0.20689 0.86631 0.0
C855 C 0.09852 0.35498 0.83351 0.0
C856 C 0.92006 0.34945 0.8507 0.0
C857 C 0.91617 0.3643 0.87902 0.0
C858 C 0.96364 0.32582 0.84041 0.0
C859 C 1.00405 0.31579 0.85904 0.0
C860 C 1.00153 0.33348 0.88729 0.0
C861 C 0.95767 0.35797 0.8969 0.0
C862 C 0.96485 0.30847 0.81009 0.0
C863 C 0.04357 0.32318 0.90793 0.0
H864 H 0.07406 0.15567 0.85108 0.0
H865 H 0.16573 0.28007 0.82424 0.0
H866 H 0.98532 0.22196 0.8879 0.0
H867 H 0.95826 0.2184 0.85343 0.0
H868 H 0.99196 0.16513 0.86746 0.0
H869 H 0.13385 0.3629 0.82175 0.0
H870 H 0.0663 0.37102 0.82162 0.0
H871 H 0.1002 0.37472 0.85411 0.0
H872 H 0.88804 0.3546 0.83678 0.0
H873 H 0.95456 0.36899 0.91886 0.0
H874 H 0.96051 0.26695 0.8093 0.0
H875 H 1.00156 0.31783 0.8002 0.0
H876 H 0.93418 0.32567 0.79739 0.0
H877 H 0.04469 0.28233 0.9128 0.0
H878 H 0.03859 0.34422 0.928 0.0
H879 H 0.0805 0.33342 0.8986 0.0
C880 C 0.33227 0.57998 0.09707 0.0
C881 C 0.31398 0.626 0.0867 0.0
C882 C 0.29959 0.54036 0.10394 0.0
C883 C 0.24704 0.54636 0.10008 0.0
C884 C 0.2284 0.59157 0.08811 0.0
C885 C 0.26208 0.63096 0.0816 0.0
C886 C 0.3213 0.49274 0.11643 0.0
C887 C 0.17273 0.59908 0.08325 0.0
C888 C 0.1786 0.42115 0.10093 0.0
C889 C 0.16361 0.41755 0.12923 0.0
C890 C 0.2023 0.46457 0.09055 0.0
C891 C 0.21226 0.50514 0.10908 0.0
C892 C 0.19449 0.50291 0.13732 0.0
C893 C 0.16992 0.45918 0.14702 0.0
C894 C 0.21977 0.46549 0.06025 0.0
C895 C 0.2047 0.54512 0.15785 0.0
H896 H 0.37228 0.57558 0.10097 0.0
H897 H 0.24745 0.6664 0.07379 0.0
H898 H 0.30626 0.48711 0.13804 0.0
H899 H 0.30987 0.45966 0.10366 0.0
H900 H 0.3631 0.49368 0.11757 0.0
H901 H 0.16468 0.63424 0.0714 0.0
H902 H 0.1568 0.56672 0.07145 0.0
H903 H 0.15296 0.60089 0.10385 0.0
H904 H 0.17345 0.38903 0.08708 0.0
H905 H 0.15879 0.4563 0.16897 0.0
H906 H 0.26134 0.46131 0.05951 0.0
H907 H 0.21027 0.502 0.05023 0.0
H908 H 0.20271 0.43462 0.04763 0.0
H909 H 0.24559 0.54641 0.16271 0.0
H910 H 0.18369 0.54029 0.17794 0.0
H911 H 0.19436 0.58191 0.14843 0.0
C912 C 0.94678 0.83327 0.34692 0.0
C913 C 0.90055 0.81509 0.33675 0.0
C914 C 0.98636 0.80052 0.35377 0.0
C915 C 0.98007 0.748 0.3501 0.0
C916 C 0.93462 0.72944 0.33834 0.0
C917 C 0.89529 0.7632 0.33183 0.0
C918 C 0.03425 0.82215 0.36605 0.0
C919 C 0.92679 0.6738 0.3337 0.0
C920 C 0.10513 0.67917 0.35086 0.0
C921 C 0.10896 0.66461 0.37922 0.0
C922 C 0.06164 0.70283 0.34051 0.0
C923 C 0.02125 0.71317 0.35912 0.0
C924 C 0.02369 0.6958 0.38741 0.0
C925 C 0.06747 0.67128 0.3971 0.0
C926 C 0.0605 0.71985 0.31014 0.0
C927 C 0.98166 0.70644 0.40802 0.0
H928 H 0.95141 0.87328 0.35067 0.0
H929 H 0.85968 0.74865 0.32417 0.0
H930 H 0.04003 0.80737 0.38769 0.0
H931 H 0.06717 0.81042 0.35322 0.0
H932 H 0.03352 0.86393 0.36704 0.0
H933 H 0.89147 0.66577 0.32195 0.0
H934 H 0.95901 0.65756 0.32187 0.0
H935 H 0.92505 0.65431 0.35436 0.0
H936 H 0.13714 0.67376 0.33695 0.0
H937 H 0.07053 0.66048 0.41908 0.0
H938 H 0.06489 0.76136 0.30923 0.0
H939 H 0.0238 0.71042 0.30027 0.0
H940 H 0.09118 0.70248 0.2975 0.0
H941 H 0.98061 0.74735 0.41275 0.0
H942 H 0.98659 0.68565 0.42816 0.0
H943 H 0.94471 0.69615 0.39874 0.0
loop_
_geom_bond_atom_site_label_1
_geom_bond_atom_site_label_2
_geom_bond_distance
_geom_bond_site_symmetry_2
_ccdc_geom_bond_type
Fe0 O2 1.918 . S
Fe0 O5 1.997 . S
Fe0 O6 2.002 . S
Fe0 O11 1.976 . S
Fe0 O14 1.996 . S
Fe1 O2 1.918 . S
Fe1 O9 1.997 . S
Fe1 O12 1.996 . S
Fe1 O16 1.976 . S
Fe1 O19 2.002 . S
O2 Fe0 1.918 . S
O2 Fe1 1.918 . S
O2 Fe3 1.918 . S
Fe3 O2 1.918 . S
Fe3 O4 2.002 . S
Fe3 O13 1.976 . S
Fe3 O17 1.996 . S
Fe3 O20 1.997 . S
O4 Fe3 2.002 . S
O4 C21 1.295 1_455 S
O5 Fe0 1.997 . S
O5 C21 1.235 1_455 S
O6 Fe0 2.002 . S
O6 C7 1.295 . S
C7 O6 1.295 . S
C7 O9 1.235 . S
C8 O13 1.287 1_655 S
C8 O14 1.255 1_655 S
O9 Fe1 1.997 . S
O9 C7 1.235 . S
C10 O16 1.287 . S
C10 O17 1.255 . S
O11 Fe0 1.976 . S
O11 C18 1.287 . S
O12 Fe1 1.996 . S
O12 C18 1.255 . S
O13 Fe3 1.976 . S
O13 C8 1.287 1_455 S
O14 Fe0 1.996 . S
O14 C8 1.255 1_455 S
C15 O19 1.295 . S
C15 O20 1.235 . S
O16 Fe1 1.976 . S
O16 C10 1.287 . S
O17 Fe3 1.996 . S
O17 C10 1.255 . S
C18 O11 1.287 . S
C18 O12 1.255 . S
O19 Fe1 2.002 . S
O19 C15 1.295 . S
O20 Fe3 1.997 . S
O20 C15 1.235 . S
C21 O4 1.295 1_655 S
C21 O5 1.235 1_655 S
Fe22 O24 1.918 . S
Fe22 O27 1.997 . S
Fe22 O28 2.002 . S
Fe22 O33 1.976 . S
Fe22 O36 1.996 . S
Fe23 O24 1.918 . S
Fe23 O31 1.997 . S
Fe23 O34 1.996 . S
Fe23 O38 1.976 . S
Fe23 O41 2.002 . S
O24 Fe22 1.918 . S
O24 Fe23 1.918 . S
O24 Fe25 1.918 . S
Fe25 O24 1.918 . S
Fe25 O26 2.002 . S
Fe25 O35 1.976 . S
Fe25 O39 1.996 . S
Fe25 O42 1.997 . S
O26 Fe25 2.002 . S
O26 C43 1.295 . S
O27 Fe22 1.997 . S
O27 C43 1.235 . S
O28 Fe22 2.002 . S
O28 C29 1.295 . S
C29 O28 1.295 . S
C29 O31 1.235 . S
C30 O35 1.287 . S
C30 O36 1.255 . S
O31 Fe23 1.997 . S
O31 C29 1.235 . S
C32 O38 1.287 . S
C32 O39 1.255 . S
O33 Fe22 1.976 . S
O33 C40 1.287 . S
O34 Fe23 1.996 . S
O34 C40 1.255 . S
O35 Fe25 1.976 . S
O35 C30 1.287 . S
O36 Fe22 1.996 . S
O36 C30 1.255 . S
C37 O41 1.295 . S
C37 O42 1.235 . S
O38 Fe23 1.976 . S
O38 C32 1.287 . S
O39 Fe25 1.996 . S
O39 C32 1.255 . S
C40 O33 1.287 . S
C40 O34 1.255 . S
O41 Fe23 2.002 . S
O41 C37 1.295 . S
O42 Fe25 1.997 . S
O42 C37 1.235 . S
C43 O26 1.295 . S
C43 O27 1.235 . S
Fe44 O46 1.918 . S
Fe44 O49 1.997 . S
Fe44 O50 2.002 . S
Fe44 O55 1.976 . S
Fe44 O58 1.996 . S
Fe45 O46 1.918 . S
Fe45 O53 1.997 . S
Fe45 O56 1.996 . S
Fe45 O60 1.976 . S
Fe45 O63 2.002 . S
O46 Fe44 1.918 . S
O46 Fe45 1.918 . S
O46 Fe47 1.918 . S
Fe47 O46 1.918 . S
Fe47 O48 2.002 . S
Fe47 O57 1.976 . S
Fe47 O61 1.996 . S
Fe47 O64 1.997 . S
O48 Fe47 2.002 . S
O48 C65 1.295 1_655 S
O49 Fe44 1.997 . S
O49 C65 1.235 1_655 S
O50 Fe44 2.002 . S
O50 C51 1.295 . S
C51 O50 1.295 . S
C51 O53 1.235 . S
C52 O57 1.287 1_455 S
C52 O58 1.255 1_455 S
O53 Fe45 1.997 . S
O53 C51 1.235 . S
C54 O60 1.287 . S
C54 O61 1.255 . S
O55 Fe44 1.976 . S
O55 C62 1.287 . S
O56 Fe45 1.996 . S
O56 C62 1.255 . S
O57 Fe47 1.976 . S
O57 C52 1.287 1_655 S
O58 Fe44 1.996 . S
O58 C52 1.255 1_655 S
C59 O63 1.295 . S
C59 O64 1.235 . S
O60 Fe45 1.976 . S
O60 C54 1.287 . S
O61 Fe47 1.996 . S
O61 C54 1.255 . S
C62 O55 1.287 . S
C62 O56 1.255 . S
O63 Fe45 2.002 . S
O63 C59 1.295 . S
O64 Fe47 1.997 . S
O64 C59 1.235 . S
C65 O48 1.295 1_455 S
C65 O49 1.235 1_455 S
Fe66 O68 1.918 . S
Fe66 O71 1.997 . S
Fe66 O72 2.002 . S
Fe66 O77 1.976 . S
Fe66 O80 1.996 . S
Fe67 O68 1.918 . S
Fe67 O75 1.997 . S
Fe67 O78 1.996 . S
Fe67 O82 1.976 . S
Fe67 O85 2.002 . S
O68 Fe66 1.918 . S
O68 Fe67 1.918 . S
O68 Fe69 1.918 . S
Fe69 O68 1.918 . S
Fe69 O70 2.002 . S
Fe69 O79 1.976 . S
Fe69 O83 1.996 . S
Fe69 O86 1.997 . S
O70 Fe69 2.002 . S
O70 C87 1.295 . S
O71 Fe66 1.997 . S
O71 C87 1.235 . S
O72 Fe66 2.002 . S
O72 C73 1.295 . S
C73 O72 1.295 . S
C73 O75 1.235 . S
C74 O79 1.287 . S
C74 O80 1.255 . S
O75 Fe67 1.997 . S
O75 C73 1.235 . S
C76 O82 1.287 . S
C76 O83 1.255 . S
O77 Fe66 1.976 . S
O77 C84 1.287 . S
O78 Fe67 1.996 . S
O78 C84 1.255 . S
O79 Fe69 1.976 . S
O79 C74 1.287 . S
O80 Fe66 1.996 . S
O80 C74 1.255 . S
C81 O85 1.295 . S
C81 O86 1.235 . S
O82 Fe67 1.976 . S
O82 C76 1.287 . S
O83 Fe69 1.996 . S
O83 C76 1.255 . S
C84 O77 1.287 . S
C84 O78 1.255 . S
O85 Fe67 2.002 . S
O85 C81 1.295 . S
O86 Fe69 1.997 . S
O86 C81 1.235 . S
C87 O70 1.295 . S
C87 O71 1.235 . S
Fe88 O90 1.918 . S
Fe88 O93 1.997 . S
Fe88 O94 2.002 . S
Fe88 O99 1.976 . S
Fe88 O102 1.996 . S
Fe89 O90 1.918 . S
Fe89 O97 1.997 . S
Fe89 O100 1.996 . S
Fe89 O104 1.976 . S
Fe89 O107 2.002 . S
O90 Fe88 1.918 . S
O90 Fe89 1.918 . S
O90 Fe91 1.918 . S
Fe91 O90 1.918 . S
Fe91 O92 2.002 . S
Fe91 O101 1.976 . S
Fe91 O105 1.996 . S
Fe91 O108 1.997 . S
O92 Fe91 2.002 . S
O92 C109 1.295 . S
O93 Fe88 1.997 . S
O93 C109 1.235 . S
O94 Fe88 2.002 . S
O94 C95 1.295 . S
C95 O94 1.295 . S
C95 O97 1.235 . S
C96 O101 1.287 . S
C96 O102 1.255 . S
O97 Fe89 1.997 . S
O97 C95 1.235 . S
C98 O104 1.287 . S
C98 O105 1.255 . S
O99 Fe88 1.976 . S
O99 C106 1.287 . S
O100 Fe89 1.996 . S
O100 C106 1.255 . S
O101 Fe91 1.976 . S
O101 C96 1.287 . S
O102 Fe88 1.996 . S
O102 C96 1.255 . S
C103 O107 1.295 . S
C103 O108 1.235 . S
O104 Fe89 1.976 . S
O104 C98 1.287 . S
O105 Fe91 1.996 . S
O105 C98 1.255 . S
C106 O99 1.287 . S
C106 O100 1.255 . S
O107 Fe89 2.002 . S
O107 C103 1.295 . S
O108 Fe91 1.997 . S
O108 C103 1.235 . S
C109 O92 1.295 . S
C109 O93 1.235 . S
Fe110 O112 1.918 . S
Fe110 O115 1.997 . S
Fe110 O116 2.002 . S
Fe110 O121 1.976 . S
Fe110 O124 1.996 . S
Fe111 O112 1.918 . S
Fe111 O119 1.997 . S
Fe111 O122 1.996 . S
Fe111 O126 1.976 . S
Fe111 O129 2.002 . S
O112 Fe110 1.918 . S
O112 Fe111 1.918 . S
O112 Fe113 1.918 . S
Fe113 O112 1.918 . S
Fe113 O114 2.002 . S
Fe113 O123 1.976 . S
Fe113 O127 1.996 . S
Fe113 O130 1.997 . S
O114 Fe113 2.002 . S
O114 C131 1.295 . S
O115 Fe110 1.997 . S
O115 C131 1.235 . S
O116 Fe110 2.002 . S
O116 C117 1.295 . S
C117 O116 1.295 . S
C117 O119 1.235 . S
C118 O123 1.287 . S
C118 O124 1.255 . S
O119 Fe111 1.997 . S
O119 C117 1.235 . S
C120 O126 1.287 1_565 S
C120 O127 1.255 1_565 S
O121 Fe110 1.976 . S
O121 C128 1.287 . S
O122 Fe111 1.996 . S
O122 C128 1.255 . S
O123 Fe113 1.976 . S
O123 C118 1.287 . S
O124 Fe110 1.996 . S
O124 C118 1.255 . S
C125 O129 1.295 1_565 S
C125 O130 1.235 1_565 S
O126 Fe111 1.976 . S
O126 C120 1.287 1_545 S
O127 Fe113 1.996 . S
O127 C120 1.255 1_545 S
C128 O121 1.287 . S
C128 O122 1.255 . S
O129 Fe111 2.002 . S
O129 C125 1.295 1_545 S
O130 Fe113 1.997 . S
O130 C125 1.235 1_545 S
C131 O114 1.295 . S
C131 O115 1.235 . S
Fe132 O134 1.918 . S
Fe132 O137 1.997 . S
Fe132 O138 2.002 . S
Fe132 O143 1.976 . S
Fe132 O146 1.996 . S
Fe133 O134 1.918 . S
Fe133 O141 1.997 . S
Fe133 O144 1.996 . S
Fe133 O148 1.976 . S
Fe133 O151 2.002 . S
O134 Fe132 1.918 . S
O134 Fe133 1.918 . S
O134 Fe135 1.918 . S
Fe135 O134 1.918 . S
Fe135 O136 2.002 . S
Fe135 O145 1.976 . S
Fe135 O149 1.996 . S
Fe135 O152 1.997 . S
O136 Fe135 2.002 . S
O136 C153 1.295 . S
O137 Fe132 1.997 . S
O137 C153 1.235 . S
O138 Fe132 2.002 . S
O138 C139 1.295 . S
C139 O138 1.295 . S
C139 O141 1.235 . S
C140 O145 1.287 . S
C140 O146 1.255 . S
O141 Fe133 1.997 . S
O141 C139 1.235 . S
C142 O148 1.287 . S
C142 O149 1.255 . S
O143 Fe132 1.976 . S
O143 C150 1.287 . S
O144 Fe133 1.996 . S
O144 C150 1.255 . S
O145 Fe135 1.976 . S
O145 C140 1.287 . S
O146 Fe132 1.996 . S
O146 C140 1.255 . S
C147 O151 1.295 . S
C147 O152 1.235 . S
O148 Fe133 1.976 . S
O148 C142 1.287 . S
O149 Fe135 1.996 . S
O149 C142 1.255 . S
C150 O143 1.287 . S
C150 O144 1.255 . S
O151 Fe133 2.002 . S
O151 C147 1.295 . S
O152 Fe135 1.997 . S
O152 C147 1.235 . S
C153 O136 1.295 . S
C153 O137 1.235 . S
Fe154 O156 1.918 . S
Fe154 O159 1.997 . S
Fe154 O160 2.002 . S
Fe154 O165 1.976 . S
Fe154 O168 1.996 . S
Fe155 O156 1.918 . S
Fe155 O163 1.997 . S
Fe155 O166 1.996 . S
Fe155 O170 1.976 . S
Fe155 O173 2.002 . S
O156 Fe154 1.918 . S
O156 Fe155 1.918 . S
O156 Fe157 1.918 . S
Fe157 O156 1.918 . S
Fe157 O158 2.002 . S
Fe157 O167 1.976 . S
Fe157 O171 1.996 . S
Fe157 O174 1.997 . S
O158 Fe157 2.002 . S
O158 C175 1.295 1_565 S
O159 Fe154 1.997 . S
O159 C175 1.235 1_565 S
O160 Fe154 2.002 . S
O160 C161 1.295 . S
C161 O160 1.295 . S
C161 O163 1.235 . S
C162 O167 1.287 1_545 S
C162 O168 1.255 1_545 S
O163 Fe155 1.997 . S
O163 C161 1.235 . S
C164 O170 1.287 . S
C164 O171 1.255 . S
O165 Fe154 1.976 . S
O165 C172 1.287 . S
O166 Fe155 1.996 . S
O166 C172 1.255 . S
O167 Fe157 1.976 . S
O167 C162 1.287 1_565 S
O168 Fe154 1.996 . S
O168 C162 1.255 1_565 S
C169 O173 1.295 . S
C169 O174 1.235 . S
O170 Fe155 1.976 . S
O170 C164 1.287 . S
O171 Fe157 1.996 . S
O171 C164 1.255 . S
C172 O165 1.287 . S
C172 O166 1.255 . S
O173 Fe155 2.002 . S
O173 C169 1.295 . S
O174 Fe157 1.997 . S
O174 C169 1.235 . S
C175 O158 1.295 1_545 S
C175 O159 1.235 1_545 S
C176 C177 1.391 . S
C176 C178 1.394 . S
C176 H192 0.931 . S
C177 C176 1.391 . S
C177 C181 1.376 . S
C178 C176 1.394 . S
C178 C179 1.369 . S
C178 C182 1.531 . S
C179 C178 1.369 . S
C179 C180 1.410 . S
C179 C187 1.503 . S
C180 C179 1.410 . S
C180 C181 1.392 . S
C180 C183 1.511 . S
C181 C177 1.376 . S
C181 C180 1.392 . S
C181 H193 0.929 . S
C182 C178 1.531 . S
C182 H194 0.960 . S
C182 H195 0.962 . S
C182 H196 0.960 . S
C183 C180 1.511 . S
C183 H197 0.961 . S
C183 H198 0.961 . S
C183 H199 0.961 . S
C184 C185 1.370 . S
C184 C186 1.363 . S
C184 H200 0.931 . S
C185 C184 1.370 . S
C185 C189 1.408 . S
C186 C184 1.363 . S
C186 C187 1.370 . S
C186 C190 1.524 . S
C187 C179 1.503 . S
C187 C186 1.370 . S
C187 C188 1.403 . S
C188 C187 1.403 . S
C188 C189 1.404 . S
C188 C191 1.539 . S
C189 C185 1.408 . S
C189 C188 1.404 . S
C189 H201 0.930 . S
C190 C186 1.524 . S
C190 H202 0.956 . S
C190 H203 0.961 . S
C190 H204 0.961 . S
C191 C188 1.539 . S
C191 H205 0.958 . S
C191 H206 0.961 . S
C191 H207 0.960 . S
H192 C176 0.931 . S
H193 C181 0.929 . S
H194 C182 0.960 . S
H195 C182 0.962 . S
H196 C182 0.960 . S
H197 C183 0.961 . S
H198 C183 0.961 . S
H199 C183 0.961 . S
H200 C184 0.931 . S
H201 C189 0.930 . S
H202 C190 0.956 . S
H203 C190 0.961 . S
H204 C190 0.961 . S
H205 C191 0.958 . S
H206 C191 0.961 . S
H207 C191 0.960 . S
C208 C209 1.391 . S
C208 C210 1.394 . S
C208 H224 0.931 . S
C209 C208 1.391 . S
C209 C213 1.376 . S
C210 C208 1.394 . S
C210 C211 1.369 . S
C210 C214 1.531 . S
C211 C210 1.369 . S
C211 C212 1.410 . S
C211 C219 1.503 . S
C212 C211 1.410 . S
C212 C213 1.392 . S
C212 C215 1.511 . S
C213 C209 1.376 . S
C213 C212 1.392 . S
C213 H225 0.929 . S
C214 C210 1.531 . S
C214 H226 0.960 . S
C214 H227 0.962 . S
C214 H228 0.960 . S
C215 C212 1.511 . S
C215 H229 0.961 . S
C215 H230 0.961 . S
C215 H231 0.961 . S
C216 C217 1.370 . S
C216 C218 1.363 . S
C216 H232 0.931 . S
C217 C216 1.370 . S
C217 C221 1.408 . S
C218 C216 1.363 . S
C218 C219 1.370 . S
C218 C222 1.524 . S
C219 C211 1.503 . S
C219 C218 1.370 . S
C219 C220 1.403 . S
C220 C219 1.403 . S
C220 C221 1.404 . S
C220 C223 1.539 . S
C221 C217 1.408 . S
C221 C220 1.404 . S
C221 H233 0.930 . S
C222 C218 1.524 . S
C222 H234 0.956 . S
C222 H235 0.961 . S
C222 H236 0.961 . S
C223 C220 1.539 . S
C223 H237 0.958 . S
C223 H238 0.961 . S
C223 H239 0.960 . S
H224 C208 0.931 . S
H225 C213 0.929 . S
H226 C214 0.960 . S
H227 C214 0.962 . S
H228 C214 0.960 . S
H229 C215 0.961 . S
H230 C215 0.961 . S
H231 C215 0.961 . S
H232 C216 0.931 . S
H233 C221 0.930 . S
H234 C222 0.956 . S
H235 C222 0.961 . S
H236 C222 0.961 . S
H237 C223 0.958 . S
H238 C223 0.961 . S
H239 C223 0.960 . S
C240 C241 1.391 . S
C240 C242 1.394 . S
C240 H256 0.931 . S
C241 C240 1.391 . S
C241 C245 1.376 . S
C242 C240 1.394 . S
C242 C243 1.369 . S
C242 C246 1.531 . S
C243 C242 1.369 . S
C243 C244 1.410 . S
C243 C251 1.503 . S
C244 C243 1.410 . S
C244 C245 1.392 . S
C244 C247 1.511 . S
C245 C241 1.376 . S
C245 C244 1.392 . S
C245 H257 0.929 1_455 S
C246 C242 1.531 . S
C246 H258 0.960 . S
C246 H259 0.962 . S
C246 H260 0.960 . S
C247 C244 1.511 . S
C247 H261 0.961 1_455 S
C247 H262 0.961 . S
C247 H263 0.961 1_455 S
C248 C249 1.370 . S
C248 C250 1.363 . S
C248 H264 0.931 . S
C249 C248 1.370 . S
C249 C253 1.408 . S
C250 C248 1.363 . S
C250 C251 1.370 . S
C250 C254 1.524 . S
C251 C243 1.503 . S
C251 C250 1.370 . S
C251 C252 1.403 . S
C252 C251 1.403 . S
C252 C253 1.404 . S
C252 C255 1.551 . S
C253 C249 1.408 . S
C253 C252 1.404 . S
C253 H265 0.930 1_565 S
C254 C250 1.524 . S
C254 H266 0.956 . S
C254 H267 0.961 . S
C254 H268 0.961 . S
C255 C252 1.551 . S
C255 H269 0.955 1_565 S
C255 H270 0.944 1_565 S
C255 H271 0.970 . S
H256 C240 0.931 . S
H257 C245 0.929 1_655 S
H258 C246 0.960 . S
H259 C246 0.962 . S
H260 C246 0.960 . S
H261 C247 0.961 1_655 S
H262 C247 0.961 . S
H263 C247 0.961 1_655 S
H264 C248 0.931 . S
H265 C253 0.930 1_545 S
H266 C254 0.956 . S
H267 C254 0.961 . S
H268 C254 0.961 . S
H269 C255 0.955 1_545 S
H270 C255 0.944 1_545 S
H271 C255 0.970 . S
C272 C273 1.391 . S
C272 C274 1.394 . S
C272 H288 0.931 . S
C273 C272 1.391 . S
C273 C277 1.376 . S
C274 C272 1.394 . S
C274 C275 1.369 . S
C274 C278 1.531 1_554 S
C275 C274 1.369 . S
C275 C276 1.410 . S
C275 C283 1.503 1_554 S
C276 C275 1.410 . S
C276 C277 1.392 . S
C276 C279 1.511 . S
C277 C273 1.376 . S
C277 C276 1.392 . S
C277 H289 0.929 . S
C278 C274 1.531 1_556 S
C278 H290 0.960 . S
C278 H291 0.962 . S
C278 H292 0.960 . S
C279 C276 1.511 . S
C279 H293 0.961 . S
C279 H294 0.961 . S
C279 H295 0.961 . S
C280 C281 1.370 . S
C280 C282 1.363 . S
C280 H296 0.931 . S
C281 C280 1.370 . S
C281 C285 1.408 . S
C282 C280 1.363 . S
C282 C283 1.370 . S
C282 C286 1.524 1_556 S
C283 C275 1.503 1_556 S
C283 C282 1.370 . S
C283 C284 1.403 . S
C284 C283 1.403 . S
C284 C285 1.404 . S
C284 C287 1.539 . S
C285 C281 1.408 . S
C285 C284 1.404 . S
C285 H297 0.930 . S
C286 C282 1.524 1_554 S
C286 H298 0.956 . S
C286 H299 0.961 . S
C286 H300 0.961 . S
C287 C284 1.539 . S
C287 H301 0.958 . S
C287 H302 0.961 . S
C287 H303 0.960 . S
H288 C272 0.931 . S
H289 C277 0.929 . S
H290 C278 0.960 . S
H291 C278 0.962 . S
H292 C278 0.960 . S
H293 C279 0.961 . S
H294 C279 0.961 . S
H295 C279 0.961 . S
H296 C280 0.931 . S
H297 C285 0.930 . S
H298 C286 0.956 . S
H299 C286 0.961 . S
H300 C286 0.961 . S
H301 C287 0.958 . S
H302 C287 0.961 . S
H303 C287 0.960 . S
C304 C305 1.391 . S
C304 C306 1.394 . S
C304 H320 0.931 . S
C305 C304 1.391 . S
C305 C309 1.376 . S
C306 C304 1.394 . S
C306 C307 1.369 . S
C306 C310 1.531 . S
C307 C306 1.369 . S
C307 C308 1.410 . S
C307 C315 1.503 . S
C308 C307 1.410 . S
C308 C309 1.392 . S
C308 C311 1.511 . S
C309 C305 1.376 . S
C309 C308 1.392 . S
C309 H321 0.929 . S
C310 C306 1.531 . S
C310 H322 0.960 . S
C310 H323 0.962 . S
C310 H324 0.960 . S
C311 C308 1.511 . S
C311 H325 0.961 . S
C311 H326 0.961 . S
C311 H327 0.961 . S
C312 C313 1.370 . S
C312 C314 1.363 . S
C312 H328 0.931 . S
C313 C312 1.370 . S
C313 C317 1.408 . S
C314 C312 1.363 . S
C314 C315 1.370 . S
C314 C318 1.524 . S
C315 C307 1.503 . S
C315 C314 1.370 . S
C315 C316 1.403 . S
C316 C315 1.403 . S
C316 C317 1.404 . S
C316 C319 1.539 . S
C317 C313 1.408 . S
C317 C316 1.404 . S
C317 H329 0.930 . S
C318 C314 1.524 . S
C318 H330 0.956 . S
C318 H331 0.961 . S
C318 H332 0.961 . S
C319 C316 1.539 . S
C319 H333 0.958 . S
C319 H334 0.961 . S
C319 H335 0.960 . S
H320 C304 0.931 . S
H321 C309 0.929 . S
H322 C310 0.960 . S
H323 C310 0.962 . S
H324 C310 0.960 . S
H325 C311 0.961 . S
H326 C311 0.961 . S
H327 C311 0.961 . S
H328 C312 0.931 . S
H329 C317 0.930 . S
H330 C318 0.956 . S
H331 C318 0.961 . S
H332 C318 0.961 . S
H333 C319 0.958 . S
H334 C319 0.961 . S
H335 C319 0.960 . S
C336 C337 1.391 . S
C336 C338 1.394 . S
C336 H352 0.931 . S
C337 C336 1.391 . S
C337 C341 1.376 . S
C338 C336 1.394 . S
C338 C339 1.369 . S
C338 C342 1.531 . S
C339 C338 1.369 . S
C339 C340 1.410 . S
C339 C347 1.503 . S
C340 C339 1.410 . S
C340 C341 1.392 . S
C340 C343 1.511 . S
C341 C337 1.376 . S
C341 C340 1.392 . S
C341 H353 0.929 1_455 S
C342 C338 1.531 . S
C342 H354 0.960 . S
C342 H355 0.962 . S
C342 H356 0.960 . S
C343 C340 1.511 . S
C343 H357 0.961 . S
C343 H358 0.961 . S
C343 H359 0.961 . S
C344 C345 1.370 . S
C344 C346 1.363 . S
C344 H360 0.931 . S
C345 C344 1.370 . S
C345 C349 1.408 . S
C346 C344 1.363 . S
C346 C347 1.370 . S
C346 C350 1.524 . S
C347 C339 1.503 . S
C347 C346 1.370 . S
C347 C348 1.403 . S
C348 C347 1.403 . S
C348 C349 1.404 . S
C348 C351 1.539 . S
C349 C345 1.408 . S
C349 C348 1.404 . S
C349 H361 0.930 . S
C350 C346 1.524 . S
C350 H362 0.956 . S
C350 H363 0.961 . S
C350 H364 0.961 . S
C351 C348 1.539 . S
C351 H365 0.958 . S
C351 H366 0.961 . S
C351 H367 0.960 . S
H352 C336 0.931 . S
H353 C341 0.929 1_655 S
H354 C342 0.960 . S
H355 C342 0.962 . S
H356 C342 0.960 . S
H357 C343 0.961 . S
H358 C343 0.961 . S
H359 C343 0.961 . S
H360 C344 0.931 . S
H361 C349 0.930 . S
H362 C350 0.956 . S
H363 C350 0.961 . S
H364 C350 0.961 . S
H365 C351 0.958 . S
H366 C351 0.961 . S
H367 C351 0.960 . S
C368 C369 1.391 . S
C368 C370 1.394 . S
C368 H384 0.931 . S
C369 C368 1.391 . S
C369 C373 1.376 . S
C370 C368 1.394 . S
C370 C371 1.369 . S
C370 C374 1.531 . S
C371 C370 1.369 . S
C371 C372 1.410 . S
C371 C379 1.503 . S
C372 C371 1.410 . S
C372 C373 1.392 . S
C372 C375 1.511 . S
C373 C369 1.376 . S
C373 C372 1.392 . S
C373 H385 0.929 . S
C374 C370 1.531 . S
C374 H386 0.960 . S
C374 H387 0.962 . S
C374 H388 0.960 . S
C375 C372 1.511 . S
C375 H389 0.961 . S
C375 H390 0.961 . S
C375 H391 0.961 . S
C376 C377 1.370 . S
C376 C378 1.363 . S
C376 H392 0.931 . S
C377 C376 1.370 . S
C377 C381 1.408 . S
C378 C376 1.363 . S
C378 C379 1.370 . S
C378 C382 1.524 . S
C379 C371 1.503 . S
C379 C378 1.370 . S
C379 C380 1.403 . S
C380 C379 1.403 . S
C380 C381 1.404 . S
C380 C383 1.539 . S
C381 C377 1.408 . S
C381 C380 1.404 . S
C381 H393 0.930 . S
C382 C378 1.524 . S
C382 H394 0.956 . S
C382 H395 0.961 . S
C382 H396 0.961 . S
C383 C380 1.539 . S
C383 H397 0.958 . S
C383 H398 0.961 . S
C383 H399 0.960 . S
H384 C368 0.931 . S
H385 C373 0.929 . S
H386 C374 0.960 . S
H387 C374 0.962 . S
H388 C374 0.960 . S
H389 C375 0.961 . S
H390 C375 0.961 . S
H391 C375 0.961 . S
H392 C376 0.931 . S
H393 C381 0.930 . S
H394 C382 0.956 . S
H395 C382 0.961 . S
H396 C382 0.961 . S
H397 C383 0.958 . S
H398 C383 0.961 . S
H399 C383 0.960 . S
C400 C401 1.391 . S
C400 C402 1.394 . S
C400 H416 0.931 1_655 S
C401 C400 1.391 . S
C401 C405 1.376 . S
C402 C400 1.394 . S
C402 C403 1.369 . S
C402 C406 1.531 . S
C403 C402 1.369 . S
C403 C404 1.410 . S
C403 C411 1.503 . S
C404 C403 1.410 . S
C404 C405 1.392 . S
C404 C407 1.511 . S
C405 C401 1.376 . S
C405 C404 1.392 . S
C405 H417 0.929 . S
C406 C402 1.531 . S
C406 H418 0.960 1_554 S
C406 H419 0.962 . S
C406 H420 0.960 . S
C407 C404 1.511 . S
C407 H421 0.961 . S
C407 H422 0.961 . S
C407 H423 0.961 . S
C408 C409 1.370 . S
C408 C410 1.363 1_556 S
C408 H424 0.931 . S
C409 C408 1.370 . S
C409 C413 1.408 . S
C410 C408 1.363 1_554 S
C410 C411 1.370 . S
C410 C414 1.524 . S
C411 C403 1.503 . S
C411 C410 1.370 . S
C411 C412 1.403 . S
C412 C411 1.403 . S
C412 C413 1.404 1_554 S
C412 C415 1.539 . S
C413 C409 1.408 . S
C413 C412 1.404 1_556 S
C413 H425 0.930 . S
C414 C410 1.524 . S
C414 H426 0.956 . S
C414 H427 0.961 . S
C414 H428 0.961 . S
C415 C412 1.539 . S
C415 H429 0.958 1_554 S
C415 H430 0.973 . S
C415 H431 0.960 . S
H416 C400 0.931 1_455 S
H417 C405 0.929 . S
H418 C406 0.960 1_556 S
H419 C406 0.962 . S
H420 C406 0.960 . S
H421 C407 0.961 . S
H422 C407 0.961 . S
H423 C407 0.961 . S
H424 C408 0.931 . S
H425 C413 0.930 . S
H426 C414 0.956 . S
H427 C414 0.961 . S
H428 C414 0.961 . S
H429 C415 0.958 1_556 S
H430 C415 0.973 . S
H431 C415 0.960 . S
C432 C433 1.391 . S
C432 C434 1.394 . S
C432 H448 0.931 . S
C433 C432 1.391 . S
C433 C437 1.376 . S
C434 C432 1.394 . S
C434 C435 1.369 . S
C434 C438 1.531 . S
C435 C434 1.369 . S
C435 C436 1.410 . S
C435 C443 1.503 . S
C436 C435 1.410 . S
C436 C437 1.392 . S
C436 C439 1.511 . S
C437 C433 1.376 . S
C437 C436 1.392 . S
C437 H449 0.929 . S
C438 C434 1.531 . S
C438 H450 0.960 . S
C438 H451 0.962 . S
C438 H452 0.960 . S
C439 C436 1.511 . S
C439 H453 0.961 . S
C439 H454 0.961 . S
C439 H455 0.961 . S
C440 C441 1.370 . S
C440 C442 1.363 . S
C440 H456 0.931 1_545 S
C441 C440 1.370 . S
C441 C445 1.408 . S
C442 C440 1.363 . S
C442 C443 1.370 . S
C442 C446 1.524 . S
C443 C435 1.503 . S
C443 C442 1.370 . S
C443 C444 1.403 . S
C444 C443 1.403 . S
C444 C445 1.404 . S
C444 C447 1.539 . S
C445 C441 1.408 . S
C445 C444 1.404 . S
C445 H457 0.930 . S
C446 C442 1.524 . S
C446 H458 0.956 . S
C446 H459 0.961 . S
C446 H460 0.961 . S
C447 C444 1.539 . S
C447 H461 0.958 . S
C447 H462 0.961 . S
C447 H463 0.960 . S
H448 C432 0.931 . S
H449 C437 0.929 . S
H450 C438 0.960 . S
H451 C438 0.962 . S
H452 C438 0.960 . S
H453 C439 0.961 . S
H454 C439 0.961 . S
H455 C439 0.961 . S
H456 C440 0.931 1_565 S
H457 C445 0.930 . S
H458 C446 0.956 . S
H459 C446 0.961 . S
H460 C446 0.961 . S
H461 C447 0.958 . S
H462 C447 0.961 . S
H463 C447 0.960 . S
C464 C465 1.391 . S
C464 C466 1.394 . S
C464 H480 0.931 . S
C465 C464 1.391 . S
C465 C469 1.376 . S
C466 C464 1.394 . S
C466 C467 1.369 . S
C466 C470 1.531 . S
C467 C466 1.369 . S
C467 C468 1.410 . S
C467 C475 1.503 . S
C468 C467 1.410 . S
C468 C469 1.392 . S
C468 C471 1.511 . S
C469 C465 1.376 . S
C469 C468 1.392 . S
C469 H481 0.929 . S
C470 C466 1.531 . S
C470 H482 0.960 . S
C470 H483 0.962 . S
C470 H484 0.960 . S
C471 C468 1.511 . S
C471 H485 0.961 . S
C471 H486 0.961 . S
C471 H487 0.961 . S
C472 C473 1.370 . S
C472 C474 1.363 . S
C472 H488 0.931 . S
C473 C472 1.370 . S
C473 C477 1.408 . S
C474 C472 1.363 . S
C474 C475 1.370 . S
C474 C478 1.524 . S
C475 C467 1.503 . S
C475 C474 1.370 . S
C475 C476 1.403 . S
C476 C475 1.403 . S
C476 C477 1.404 . S
C476 C479 1.539 . S
C477 C473 1.408 . S
C477 C476 1.404 . S
C477 H489 0.930 . S
C478 C474 1.524 . S
C478 H490 0.956 . S
C478 H491 0.961 . S
C478 H492 0.961 . S
C479 C476 1.539 . S
C479 H493 0.958 . S
C479 H494 0.961 . S
C479 H495 0.960 . S
H480 C464 0.931 . S
H481 C469 0.929 . S
H482 C470 0.960 . S
H483 C470 0.962 . S
H484 C470 0.960 . S
H485 C471 0.961 . S
H486 C471 0.961 . S
H487 C471 0.961 . S
H488 C472 0.931 . S
H489 C477 0.930 . S
H490 C478 0.956 . S
H491 C478 0.961 . S
H492 C478 0.961 . S
H493 C479 0.958 . S
H494 C479 0.961 . S
H495 C479 0.960 . S
C496 C497 1.391 . S
C496 C498 1.394 . S
C496 H512 0.931 . S
C497 C496 1.391 . S
C497 C501 1.376 . S
C498 C496 1.394 . S
C498 C499 1.369 1_554 S
C498 C502 1.530 1_554 S
C499 C498 1.369 1_556 S
C499 C500 1.410 . S
C499 C507 1.503 . S
C500 C499 1.410 . S
C500 C501 1.392 1_556 S
C500 C503 1.511 . S
C501 C497 1.376 . S
C501 C500 1.392 1_554 S
C501 H513 0.929 . S
C502 C498 1.530 1_556 S
C502 H514 0.966 . S
C502 H515 0.971 . S
C502 H516 0.946 1_556 S
C503 C500 1.511 . S
C503 H517 0.961 . S
C503 H518 0.961 . S
C503 H519 0.961 . S
C504 C505 1.370 . S
C504 C506 1.363 . S
C504 H520 0.931 . S
C505 C504 1.370 . S
C505 C509 1.408 . S
C506 C504 1.363 . S
C506 C507 1.370 . S
C506 C510 1.524 . S
C507 C499 1.503 . S
C507 C506 1.370 . S
C507 C508 1.403 . S
C508 C507 1.403 . S
C508 C509 1.404 . S
C508 C511 1.539 . S
C509 C505 1.408 . S
C509 C508 1.404 . S
C509 H521 0.930 1_565 S
C510 C506 1.524 . S
C510 H522 0.956 . S
C510 H523 0.961 . S
C510 H524 0.961 . S
C511 C508 1.539 . S
C511 H525 0.958 . S
C511 H526 0.961 1_565 S
C511 H527 0.960 . S
H512 C496 0.931 . S
H513 C501 0.929 . S
H514 C502 0.966 . S
H515 C502 0.971 . S
H516 C502 0.946 1_554 S
H517 C503 0.961 . S
H518 C503 0.961 . S
H519 C503 0.961 . S
H520 C504 0.931 . S
H521 C509 0.930 1_545 S
H522 C510 0.956 . S
H523 C510 0.961 . S
H524 C510 0.961 . S
H525 C511 0.958 . S
H526 C511 0.961 1_545 S
H527 C511 0.960 . S
C528 C529 1.391 . S
C528 C530 1.394 . S
C528 H544 0.931 . S
C529 C528 1.391 . S
C529 C533 1.376 . S
C530 C528 1.394 . S
C530 C531 1.369 . S
C530 C534 1.531 . S
C531 C530 1.369 . S
C531 C532 1.410 . S
C531 C539 1.503 . S
C532 C531 1.410 . S
C532 C533 1.392 . S
C532 C535 1.511 . S
C533 C529 1.376 . S
C533 C532 1.392 . S
C533 H545 0.929 . S
C534 C530 1.531 . S
C534 H546 0.960 . S
C534 H547 0.962 . S
C534 H548 0.960 . S
C535 C532 1.511 . S
C535 H549 0.961 . S
C535 H550 0.961 . S
C535 H551 0.961 . S
C536 C537 1.370 . S
C536 C538 1.363 . S
C536 H552 0.931 . S
C537 C536 1.370 . S
C537 C541 1.408 . S
C538 C536 1.363 . S
C538 C539 1.370 . S
C538 C542 1.524 . S
C539 C531 1.503 . S
C539 C538 1.370 . S
C539 C540 1.403 . S
C540 C539 1.403 . S
C540 C541 1.404 . S
C540 C543 1.539 . S
C541 C537 1.408 . S
C541 C540 1.404 . S
C541 H553 0.930 . S
C542 C538 1.524 . S
C542 H554 0.956 . S
C542 H555 0.961 . S
C542 H556 0.961 . S
C543 C540 1.539 . S
C543 H557 0.958 . S
C543 H558 0.961 . S
C543 H559 0.960 . S
H544 C528 0.931 . S
H545 C533 0.929 . S
H546 C534 0.960 . S
H547 C534 0.962 . S
H548 C534 0.960 . S
H549 C535 0.961 . S
H550 C535 0.961 . S
H551 C535 0.961 . S
H552 C536 0.931 . S
H553 C541 0.930 . S
H554 C542 0.956 . S
H555 C542 0.961 . S
H556 C542 0.961 . S
H557 C543 0.958 . S
H558 C543 0.961 . S
H559 C543 0.960 . S
C560 C561 1.391 . S
C560 C562 1.394 . S
C560 H576 0.931 . S
C561 C560 1.391 . S
C561 C565 1.376 . S
C562 C560 1.394 . S
C562 C563 1.369 . S
C562 C566 1.531 . S
C563 C562 1.369 . S
C563 C564 1.410 . S
C563 C571 1.503 1_556 S
C564 C563 1.410 . S
C564 C565 1.392 . S
C564 C567 1.511 . S
C565 C561 1.376 . S
C565 C564 1.392 . S
C565 H577 0.929 . S
C566 C562 1.531 . S
C566 H578 0.960 . S
C566 H579 0.962 . S
C566 H580 0.960 . S
C567 C564 1.511 . S
C567 H581 0.961 . S
C567 H582 0.927 1_556 S
C567 H583 0.961 . S
C568 C569 1.370 . S
C568 C570 1.363 . S
C568 H584 0.931 . S
C569 C568 1.370 . S
C569 C573 1.408 . S
C570 C568 1.363 . S
C570 C571 1.370 . S
C570 C574 1.524 . S
C571 C563 1.503 1_554 S
C571 C570 1.370 . S
C571 C572 1.403 . S
C572 C571 1.403 . S
C572 C573 1.404 . S
C572 C575 1.539 1_554 S
C573 C569 1.408 . S
C573 C572 1.404 . S
C573 H585 0.930 . S
C574 C570 1.524 . S
C574 H586 0.956 . S
C574 H587 0.961 . S
C574 H588 0.961 . S
C575 C572 1.539 1_556 S
C575 H589 0.958 . S
C575 H590 0.961 1_556 S
C575 H591 0.960 . S
H576 C560 0.931 . S
H577 C565 0.929 . S
H578 C566 0.960 . S
H579 C566 0.962 . S
H580 C566 0.960 . S
H581 C567 0.961 . S
H582 C567 0.927 1_554 S
H583 C567 0.961 . S
H584 C568 0.931 . S
H585 C573 0.930 . S
H586 C574 0.956 . S
H587 C574 0.961 . S
H588 C574 0.961 . S
H589 C575 0.958 . S
H590 C575 0.961 1_554 S
H591 C575 0.960 . S
C592 C593 1.391 . S
C592 C594 1.394 . S
C592 H608 0.931 . S
C593 C592 1.391 . S
C593 C597 1.376 . S
C594 C592 1.394 . S
C594 C595 1.369 . S
C594 C598 1.531 . S
C595 C594 1.369 . S
C595 C596 1.410 . S
C595 C603 1.503 . S
C596 C595 1.410 . S
C596 C597 1.392 . S
C596 C599 1.511 . S
C597 C593 1.376 . S
C597 C596 1.392 . S
C597 H609 0.929 . S
C598 C594 1.531 . S
C598 H610 0.960 . S
C598 H611 0.962 . S
C598 H612 0.960 . S
C599 C596 1.511 . S
C599 H613 0.961 . S
C599 H614 0.961 . S
C599 H615 0.961 . S
C600 C601 1.370 . S
C600 C602 1.363 . S
C600 H616 0.931 . S
C601 C600 1.370 . S
C601 C605 1.408 . S
C602 C600 1.363 . S
C602 C603 1.370 . S
C602 C606 1.524 . S
C603 C595 1.503 . S
C603 C602 1.370 . S
C603 C604 1.403 . S
C604 C603 1.403 . S
C604 C605 1.404 . S
C604 C607 1.539 . S
C605 C601 1.408 . S
C605 C604 1.404 . S
C605 H617 0.930 . S
C606 C602 1.524 . S
C606 H618 0.956 . S
C606 H619 0.961 . S
C606 H620 0.961 . S
C607 C604 1.539 . S
C607 H621 0.958 . S
C607 H622 0.961 . S
C607 H623 0.960 . S
H608 C592 0.931 . S
H609 C597 0.929 . S
H610 C598 0.960 . S
H611 C598 0.962 . S
H612 C598 0.960 . S
H613 C599 0.961 . S
H614 C599 0.961 . S
H615 C599 0.961 . S
H616 C600 0.931 . S
H617 C605 0.930 . S
H618 C606 0.956 . S
H619 C606 0.961 . S
H620 C606 0.961 . S
H621 C607 0.958 . S
H622 C607 0.961 . S
H623 C607 0.960 . S
C624 C625 1.391 . S
C624 C626 1.394 . S
C624 H640 0.931 . S
C625 C624 1.391 . S
C625 C629 1.376 . S
C626 C624 1.394 . S
C626 C627 1.369 . S
C626 C630 1.531 . S
C627 C626 1.369 . S
C627 C628 1.410 . S
C627 C635 1.503 . S
C628 C627 1.410 . S
C628 C629 1.392 . S
C628 C631 1.511 . S
C629 C625 1.376 . S
C629 C628 1.392 . S
C629 H641 0.929 . S
C630 C626 1.531 . S
C630 H642 0.960 . S
C630 H643 0.962 . S
C630 H644 0.960 . S
C631 C628 1.511 . S
C631 H645 0.961 . S
C631 H646 0.961 . S
C631 H647 0.961 . S
C632 C633 1.370 . S
C632 C634 1.363 . S
C632 H648 0.931 . S
C633 C632 1.370 . S
C633 C637 1.408 . S
C634 C632 1.363 . S
C634 C635 1.370 . S
C634 C638 1.524 . S
C635 C627 1.503 . S
C635 C634 1.370 . S
C635 C636 1.403 . S
C636 C635 1.403 . S
C636 C637 1.404 . S
C636 C639 1.539 . S
C637 C633 1.408 . S
C637 C636 1.404 . S
C637 H649 0.930 . S
C638 C634 1.524 . S
C638 H650 0.956 . S
C638 H651 0.961 . S
C638 H652 0.961 . S
C639 C636 1.539 . S
C639 H653 0.958 . S
C639 H654 0.961 . S
C639 H655 0.960 . S
H640 C624 0.931 . S
H641 C629 0.929 . S
H642 C630 0.960 . S
H643 C630 0.962 . S
H644 C630 0.960 . S
H645 C631 0.961 . S
H646 C631 0.961 . S
H647 C631 0.961 . S
H648 C632 0.931 . S
H649 C637 0.930 . S
H650 C638 0.956 . S
H651 C638 0.961 . S
H652 C638 0.961 . S
H653 C639 0.958 . S
H654 C639 0.961 . S
H655 C639 0.960 . S
C656 C657 1.391 . S
C656 C658 1.394 . S
C656 H672 0.931 . S
C657 C656 1.391 . S
C657 C661 1.376 . S
C658 C656 1.394 . S
C658 C659 1.369 . S
C658 C662 1.531 . S
C659 C658 1.369 . S
C659 C660 1.410 . S
C659 C667 1.503 . S
C660 C659 1.410 . S
C660 C661 1.392 . S
C660 C663 1.511 . S
C661 C657 1.376 . S
C661 C660 1.392 . S
C661 H673 0.929 . S
C662 C658 1.531 . S
C662 H674 0.960 . S
C662 H675 0.962 . S
C662 H676 0.960 . S
C663 C660 1.511 . S
C663 H677 0.961 . S
C663 H678 0.961 . S
C663 H679 0.961 . S
C664 C665 1.370 . S
C664 C666 1.363 . S
C664 H680 0.931 . S
C665 C664 1.370 . S
C665 C669 1.408 . S
C666 C664 1.363 . S
C666 C667 1.370 . S
C666 C670 1.524 . S
C667 C659 1.503 . S
C667 C666 1.370 . S
C667 C668 1.403 . S
C668 C667 1.403 . S
C668 C669 1.404 . S
C668 C671 1.539 . S
C669 C665 1.408 . S
C669 C668 1.404 . S
C669 H681 0.930 . S
C670 C666 1.524 . S
C670 H682 0.956 . S
C670 H683 0.961 . S
C670 H684 0.961 . S
C671 C668 1.539 . S
C671 H685 0.958 . S
C671 H686 0.961 . S
C671 H687 0.960 . S
H672 C656 0.931 . S
H673 C661 0.929 . S
H674 C662 0.960 . S
H675 C662 0.962 . S
H676 C662 0.960 . S
H677 C663 0.961 . S
H678 C663 0.961 . S
H679 C663 0.961 . S
H680 C664 0.931 . S
H681 C669 0.930 . S
H682 C670 0.956 . S
H683 C670 0.961 . S
H684 C670 0.961 . S
H685 C671 0.958 . S
H686 C671 0.961 . S
H687 C671 0.960 . S
C688 C689 1.391 . S
C688 C690 1.394 . S
C688 H704 0.931 . S
C689 C688 1.391 . S
C689 C693 1.376 . S
C690 C688 1.394 . S
C690 C691 1.369 . S
C690 C694 1.531 . S
C691 C690 1.369 . S
C691 C692 1.410 . S
C691 C699 1.503 1_545 S
C692 C691 1.410 . S
C692 C693 1.392 . S
C692 C695 1.511 1_545 S
C693 C689 1.376 . S
C693 C692 1.392 . S
C693 H705 0.929 . S
C694 C690 1.531 . S
C694 H706 0.960 . S
C694 H707 0.962 . S
C694 H708 0.960 . S
C695 C692 1.511 1_565 S
C695 H709 0.961 . S
C695 H710 0.961 . S
C695 H711 0.961 . S
C696 C697 1.370 . S
C696 C698 1.363 . S
C696 H712 0.931 . S
C697 C696 1.370 . S
C697 C701 1.408 . S
C698 C696 1.363 . S
C698 C699 1.370 . S
C698 C702 1.524 1_565 S
C699 C691 1.503 1_565 S
C699 C698 1.370 . S
C699 C700 1.403 . S
C700 C699 1.403 . S
C700 C701 1.404 . S
C700 C703 1.539 . S
C701 C697 1.408 . S
C701 C700 1.404 . S
C701 H713 0.930 . S
C702 C698 1.524 1_545 S
C702 H714 0.956 . S
C702 H715 0.961 . S
C702 H716 0.961 . S
C703 C700 1.539 . S
C703 H717 0.958 . S
C703 H718 0.961 . S
C703 H719 0.960 . S
H704 C688 0.931 . S
H705 C693 0.929 . S
H706 C694 0.960 . S
H707 C694 0.962 . S
H708 C694 0.960 . S
H709 C695 0.961 . S
H710 C695 0.961 . S
H711 C695 0.961 . S
H712 C696 0.931 . S
H713 C701 0.930 . S
H714 C702 0.956 . S
H715 C702 0.961 . S
H716 C702 0.961 . S
H717 C703 0.958 . S
H718 C703 0.961 . S
H719 C703 0.960 . S
C720 C721 1.391 . S
C720 C722 1.394 . S
C720 H736 0.931 . S
C721 C720 1.391 . S
C721 C725 1.376 . S
C722 C720 1.394 . S
C722 C723 1.369 . S
C722 C726 1.531 . S
C723 C722 1.369 . S
C723 C724 1.410 . S
C723 C731 1.503 . S
C724 C723 1.410 . S
C724 C725 1.392 . S
C724 C727 1.511 . S
C725 C721 1.376 . S
C725 C724 1.392 . S
C725 H737 0.929 . S
C726 C722 1.531 . S
C726 H738 0.960 . S
C726 H739 0.962 . S
C726 H740 0.960 . S
C727 C724 1.511 . S
C727 H741 0.961 . S
C727 H742 0.961 . S
C727 H743 0.961 . S
C728 C729 1.370 . S
C728 C730 1.363 . S
C728 H744 0.931 . S
C729 C728 1.370 . S
C729 C733 1.408 . S
C730 C728 1.363 . S
C730 C731 1.370 . S
C730 C734 1.524 . S
C731 C723 1.503 . S
C731 C730 1.370 . S
C731 C732 1.403 . S
C732 C731 1.403 . S
C732 C733 1.404 . S
C732 C735 1.539 . S
C733 C729 1.408 . S
C733 C732 1.404 . S
C733 H745 0.930 . S
C734 C730 1.524 . S
C734 H746 0.956 . S
C734 H747 0.961 . S
C734 H748 0.961 . S
C735 C732 1.539 . S
C735 H749 0.958 . S
C735 H750 0.961 . S
C735 H751 0.960 . S
H736 C720 0.931 . S
H737 C725 0.929 . S
H738 C726 0.960 . S
H739 C726 0.962 . S
H740 C726 0.960 . S
H741 C727 0.961 . S
H742 C727 0.961 . S
H743 C727 0.961 . S
H744 C728 0.931 . S
H745 C733 0.930 . S
H746 C734 0.956 . S
H747 C734 0.961 . S
H748 C734 0.961 . S
H749 C735 0.958 . S
H750 C735 0.961 . S
H751 C735 0.960 . S
C752 C753 1.391 . S
C752 C754 1.394 . S
C752 H768 0.931 . S
C753 C752 1.391 . S
C753 C757 1.376 . S
C754 C752 1.394 . S
C754 C755 1.369 . S
C754 C758 1.531 . S
C755 C754 1.369 . S
C755 C756 1.410 . S
C755 C763 1.503 1_545 S
C756 C755 1.410 . S
C756 C757 1.392 . S
C756 C759 1.511 . S
C757 C753 1.376 . S
C757 C756 1.392 . S
C757 H769 0.929 . S
C758 C754 1.531 . S
C758 H770 0.960 . S
C758 H771 0.962 . S
C758 H772 0.960 . S
C759 C756 1.511 . S
C759 H773 0.961 . S
C759 H774 0.961 1_545 S
C759 H775 0.961 . S
C760 C761 1.370 . S
C760 C762 1.363 . S
C760 H776 0.931 . S
C761 C760 1.370 . S
C761 C765 1.408 . S
C762 C760 1.363 . S
C762 C763 1.370 . S
C762 C766 1.524 . S
C763 C755 1.503 1_565 S
C763 C762 1.370 . S
C763 C764 1.403 . S
C764 C763 1.403 . S
C764 C765 1.404 . S
C764 C767 1.539 1_565 S
C765 C761 1.408 . S
C765 C764 1.404 . S
C765 H777 0.930 . S
C766 C762 1.524 . S
C766 H778 0.956 . S
C766 H779 0.961 . S
C766 H780 0.961 . S
C767 C764 1.539 1_545 S
C767 H781 0.958 . S
C767 H782 0.961 . S
C767 H783 0.960 . S
H768 C752 0.931 . S
H769 C757 0.929 . S
H770 C758 0.960 . S
H771 C758 0.962 . S
H772 C758 0.960 . S
H773 C759 0.961 . S
H774 C759 0.961 1_565 S
H775 C759 0.961 . S
H776 C760 0.931 . S
H777 C765 0.930 . S
H778 C766 0.956 . S
H779 C766 0.961 . S
H780 C766 0.961 . S
H781 C767 0.958 . S
H782 C767 0.961 . S
H783 C767 0.960 . S
C784 C785 1.391 . S
C784 C786 1.394 . S
C784 H800 0.931 . S
C785 C784 1.391 . S
C785 C789 1.376 . S
C786 C784 1.394 . S
C786 C787 1.369 . S
C786 C790 1.531 . S
C787 C786 1.369 . S
C787 C788 1.410 . S
C787 C795 1.503 . S
C788 C787 1.410 . S
C788 C789 1.392 . S
C788 C791 1.511 . S
C789 C785 1.376 . S
C789 C788 1.392 . S
C789 H801 0.929 . S
C790 C786 1.531 . S
C790 H802 0.960 . S
C790 H803 0.962 . S
C790 H804 0.960 . S
C791 C788 1.511 . S
C791 H805 0.961 . S
C791 H806 0.961 . S
C791 H807 0.961 . S
C792 C793 1.370 . S
C792 C794 1.363 . S
C792 H808 0.931 . S
C793 C792 1.370 . S
C793 C797 1.408 . S
C794 C792 1.363 . S
C794 C795 1.370 . S
C794 C798 1.524 . S
C795 C787 1.503 . S
C795 C794 1.370 . S
C795 C796 1.403 . S
C796 C795 1.403 . S
C796 C797 1.404 . S
C796 C799 1.539 . S
C797 C793 1.408 . S
C797 C796 1.404 . S
C797 H809 0.930 . S
C798 C794 1.524 . S
C798 H810 0.956 . S
C798 H811 0.961 . S
C798 H812 0.961 . S
C799 C796 1.539 . S
C799 H813 0.958 . S
C799 H814 0.961 . S
C799 H815 0.960 . S
H800 C784 0.931 . S
H801 C789 0.929 . S
H802 C790 0.960 . S
H803 C790 0.962 . S
H804 C790 0.960 . S
H805 C791 0.961 . S
H806 C791 0.961 . S
H807 C791 0.961 . S
H808 C792 0.931 . S
H809 C797 0.930 . S
H810 C798 0.956 . S
H811 C798 0.961 . S
H812 C798 0.961 . S
H813 C799 0.958 . S
H814 C799 0.961 . S
H815 C799 0.960 . S
C816 C817 1.391 . S
C816 C818 1.394 . S
C816 H832 0.931 . S
C817 C816 1.391 . S
C817 C821 1.376 . S
C818 C816 1.394 . S
C818 C819 1.369 . S
C818 C822 1.531 . S
C819 C818 1.369 . S
C819 C820 1.410 . S
C819 C827 1.503 . S
C820 C819 1.410 . S
C820 C821 1.392 . S
C820 C823 1.511 . S
C821 C817 1.376 . S
C821 C820 1.392 . S
C821 H833 0.929 . S
C822 C818 1.531 . S
C822 H834 0.960 . S
C822 H835 0.962 . S
C822 H836 0.960 . S
C823 C820 1.511 . S
C823 H837 0.961 . S
C823 H838 0.961 . S
C823 H839 0.961 . S
C824 C825 1.370 . S
C824 C826 1.363 . S
C824 H840 0.931 . S
C825 C824 1.370 . S
C825 C829 1.408 . S
C826 C824 1.363 . S
C826 C827 1.370 . S
C826 C830 1.524 . S
C827 C819 1.503 . S
C827 C826 1.370 . S
C827 C828 1.403 . S
C828 C827 1.403 . S
C828 C829 1.404 . S
C828 C831 1.539 . S
C829 C825 1.408 . S
C829 C828 1.404 . S
C829 H841 0.930 . S
C830 C826 1.524 . S
C830 H842 0.956 . S
C830 H843 0.961 . S
C830 H844 0.961 . S
C831 C828 1.539 . S
C831 H845 0.958 . S
C831 H846 0.961 . S
C831 H847 0.960 . S
H832 C816 0.931 . S
H833 C821 0.929 . S
H834 C822 0.960 . S
H835 C822 0.962 . S
H836 C822 0.960 . S
H837 C823 0.961 . S
H838 C823 0.961 . S
H839 C823 0.961 . S
H840 C824 0.931 . S
H841 C829 0.930 . S
H842 C830 0.956 . S
H843 C830 0.961 . S
H844 C830 0.961 . S
H845 C831 0.958 . S
H846 C831 0.961 . S
H847 C831 0.960 . S
C848 C849 1.391 . S
C848 C850 1.394 . S
C848 H864 0.931 . S
C849 C848 1.391 . S
C849 C853 1.376 . S
C850 C848 1.394 . S
C850 C851 1.369 . S
C850 C854 1.531 1_455 S
C851 C850 1.369 . S
C851 C852 1.410 . S
C851 C859 1.503 1_455 S
C852 C851 1.410 . S
C852 C853 1.392 . S
C852 C855 1.511 . S
C853 C849 1.376 . S
C853 C852 1.392 . S
C853 H865 0.929 . S
C854 C850 1.531 1_655 S
C854 H866 0.960 . S
C854 H867 0.962 . S
C854 H868 0.960 . S
C855 C852 1.511 . S
C855 H869 0.961 . S
C855 H870 0.961 . S
C855 H871 0.961 . S
C856 C857 1.370 . S
C856 C858 1.363 . S
C856 H872 0.931 . S
C857 C856 1.370 . S
C857 C861 1.408 . S
C858 C856 1.363 . S
C858 C859 1.370 . S
C858 C862 1.524 . S
C859 C851 1.503 1_655 S
C859 C858 1.370 . S
C859 C860 1.403 . S
C860 C859 1.403 . S
C860 C861 1.404 . S
C860 C863 1.539 . S
C861 C857 1.408 . S
C861 C860 1.404 . S
C861 H873 0.930 . S
C862 C858 1.524 . S
C862 H874 0.956 . S
C862 H875 0.979 . S
C862 H876 0.961 . S
C863 C860 1.539 . S
C863 H877 0.958 . S
C863 H878 0.961 . S
C863 H879 0.960 1_655 S
H864 C848 0.931 . S
H865 C853 0.929 . S
H866 C854 0.960 . S
H867 C854 0.962 . S
H868 C854 0.960 . S
H869 C855 0.961 . S
H870 C855 0.961 . S
H871 C855 0.961 . S
H872 C856 0.931 . S
H873 C861 0.930 . S
H874 C862 0.956 . S
H875 C862 0.979 . S
H876 C862 0.961 . S
H877 C863 0.958 . S
H878 C863 0.961 . S
H879 C863 0.960 1_455 S
C880 C881 1.391 . S
C880 C882 1.394 . S
C880 H896 0.931 . S
C881 C880 1.391 . S
C881 C885 1.376 . S
C882 C880 1.394 . S
C882 C883 1.369 . S
C882 C886 1.531 . S
C883 C882 1.369 . S
C883 C884 1.410 . S
C883 C891 1.503 . S
C884 C883 1.410 . S
C884 C885 1.392 . S
C884 C887 1.511 . S
C885 C881 1.376 . S
C885 C884 1.392 . S
C885 H897 0.929 . S
C886 C882 1.531 . S
C886 H898 0.960 . S
C886 H899 0.962 . S
C886 H900 0.960 . S
C887 C884 1.511 . S
C887 H901 0.961 . S
C887 H902 0.961 . S
C887 H903 0.961 . S
C888 C889 1.370 . S
C888 C890 1.363 . S
C888 H904 0.931 . S
C889 C888 1.370 . S
C889 C893 1.408 . S
C890 C888 1.363 . S
C890 C891 1.370 . S
C890 C894 1.524 . S
C891 C883 1.503 . S
C891 C890 1.370 . S
C891 C892 1.403 . S
C892 C891 1.403 . S
C892 C893 1.404 . S
C892 C895 1.539 . S
C893 C889 1.408 . S
C893 C892 1.404 . S
C893 H905 0.930 . S
C894 C890 1.524 . S
C894 H906 0.956 . S
C894 H907 0.961 . S
C894 H908 0.961 . S
C895 C892 1.539 . S
C895 H909 0.958 . S
C895 H910 0.961 . S
C895 H911 0.960 . S
H896 C880 0.931 . S
H897 C885 0.929 . S
H898 C886 0.960 . S
H899 C886 0.962 . S
H900 C886 0.960 . S
H901 C887 0.961 . S
H902 C887 0.961 . S
H903 C887 0.961 . S
H904 C888 0.931 . S
H905 C893 0.930 . S
H906 C894 0.956 . S
H907 C894 0.961 . S
H908 C894 0.961 . S
H909 C895 0.958 . S
H910 C895 0.961 . S
H911 C895 0.960 . S
C912 C913 1.391 . S
C912 C914 1.394 . S
C912 H928 0.931 . S
C913 C912 1.391 . S
C913 C917 1.376 . S
C914 C912 1.394 . S
C914 C915 1.369 . S
C914 C918 1.531 1_655 S
C915 C914 1.369 . S
C915 C916 1.410 . S
C915 C923 1.503 1_655 S
C916 C915 1.410 . S
C916 C917 1.392 . S
C916 C919 1.511 . S
C917 C913 1.376 . S
C917 C916 1.392 . S
C917 H929 0.929 . S
C918 C914 1.531 1_455 S
C918 H930 0.960 . S
C918 H931 0.962 . S
C918 H932 0.960 1_455 S
C919 C916 1.511 . S
C919 H933 0.961 . S
C919 H934 0.961 . S
C919 H935 0.961 . S
C920 C921 1.370 . S
C920 C922 1.363 . S
C920 H936 0.931 . S
C921 C920 1.370 . S
C921 C925 1.408 . S
C922 C920 1.363 . S
C922 C923 1.370 . S
C922 C926 1.524 . S
C923 C915 1.503 1_455 S
C923 C922 1.370 . S
C923 C924 1.403 . S
C924 C923 1.403 . S
C924 C925 1.404 . S
C924 C927 1.539 1_455 S
C925 C921 1.408 . S
C925 C924 1.404 . S
C925 H937 0.930 . S
C926 C922 1.524 . S
C926 H938 0.956 . S
C926 H939 0.961 . S
C926 H940 0.961 . S
C927 C924 1.539 1_655 S
C927 H941 0.958 . S
C927 H942 0.961 . S
C927 H943 0.960 . S
H928 C912 0.931 . S
H929 C917 0.929 . S
H930 C918 0.960 . S
H931 C918 0.962 . S
H932 C918 0.960 1_655 S
H933 C919 0.961 . S
H934 C919 0.961 . S
H935 C919 0.961 . S
H936 C920 0.931 . S
H937 C925 0.930 . S
H938 C926 0.956 . S
H939 C926 0.961 . S
H940 C926 0.961 . S
H941 C927 0.958 . S
H942 C927 0.961 . S
H943 C927 0.960 . S
C177 C8 1.584 . S
C185 C162 1.580 . S
C209 C32 1.580 . S
C217 C106 1.576 . S
C241 C52 1.564 . S
C249 C120 1.571 . S
C273 C142 1.578 . S
C281 C84 1.581 . S
C305 C10 1.299 . S
C313 C37 1.355 . S
C337 C65 1.362 . S
C345 C40 1.329 . S
C369 C73 1.363 . S
C377 C54 1.331 . S
C401 C21 1.348 . S
C409 C74 1.335 . S
C433 C96 1.353 . S
C441 C175 1.358 . S
C465 C128 1.309 . S
C473 C95 1.360 . S
C497 C150 1.297 . S
C505 C125 1.356 . S
C529 C147 1.363 . S
C537 C164 1.333 . S
C561 C131 0.697 . S
C569 C7 0.714 . S
C593 C153 0.739 . S
C601 C43 0.717 . S
C625 C161 0.726 . S
C633 C51 0.704 . S
C657 C103 0.739 . S
C665 C81 0.717 . S
C689 C18 1.576 . S
C697 C139 1.543 . S
C721 C30 1.521 . S
C729 C169 1.548 . S
C753 C109 1.527 . S
C761 C62 1.563 . S
C785 C117 1.526 . S
C793 C76 1.563 . S
C817 C59 1.513 . S
C825 C98 1.556 . S
C849 C118 1.524 . S
C857 C87 1.543 . S
C881 C140 1.521 . S
C889 C15 1.549 . S
C913 C172 1.523 . S
C921 C29 1.553 . S
