# Generated by pormake.
# Topology wkj, (6)-cn, num edge types: 1
# Building blocks:
#     Node 0, Type 0, BuildingBlock: CUWYAW_clean_sbu_0, # of connection points: 6
#     Node 1, Type 0, BuildingBlock: CUWYAW_clean_sbu_0, # of connection points: 6
#     Node 2, Type 0, BuildingBlock: CUWYAW_clean_sbu_0, # of connection points: 6
#     Node 3, Type 0, BuildingBlock: CUWYAW_clean_sbu_0, # of connection points: 6
#     Node 4, Type 0, BuildingBlock: CUWYAW_clean_sbu_0, # of connection points: 6
#     Node 5, Type 0, BuildingBlock: CUWYAW_clean_sbu_0, # of connection points: 6
#     Node 6, Type 0, BuildingBlock: CUWYAW_clean_sbu_0, # of connection points: 6
#     Node 7, Type 0, BuildingBlock: CUWYAW_clean_sbu_0, # of connection points: 6
#     Node 8, Type 0, BuildingBlock: CUWYAW_clean_sbu_0, # of connection points: 6
#     Node 9, Type 0, BuildingBlock: CUWYAW_clean_sbu_0, # of connection points: 6
#     Node 10, Type 0, BuildingBlock: CUWYAW_clean_sbu_0, # of connection points: 6
#     Node 11, Type 0, BuildingBlock: CUWYAW_clean_sbu_0, # of connection points: 6
#     Edge 12, Type (0, 0), BuildingBlock: XIVTED_clean_linker_0, # of connection points: 2
#     Edge 13, Type (0, 0), BuildingBlock: XIVTED_clean_linker_0, # of connection points: 2
#     Edge 14, Type (0, 0), BuildingBlock: XIVTED_clean_linker_0, # of connection points: 2
#     Edge 15, Type (0, 0), BuildingBlock: XIVTED_clean_linker_0, # of connection points: 2
#     Edge 16, Type (0, 0), BuildingBlock: XIVTED_clean_linker_0, # of connection points: 2
#     Edge 17, Type (0, 0), BuildingBlock: XIVTED_clean_linker_0, # of connection points: 2
#     Edge 18, Type (0, 0), BuildingBlock: XIVTED_clean_linker_0, # of connection points: 2
#     Edge 19, Type (0, 0), BuildingBlock: XIVTED_clean_linker_0, # of connection points: 2
#     Edge 20, Type (0, 0), BuildingBlock: XIVTED_clean_linker_0, # of connection points: 2
#     Edge 21, Type (0, 0), BuildingBlock: XIVTED_clean_linker_0, # of connection points: 2
#     Edge 22, Type (0, 0), BuildingBlock: XIVTED_clean_linker_0, # of connection points: 2
#     Edge 23, Type (0, 0), BuildingBlock: XIVTED_clean_linker_0, # of connection points: 2
#     Edge 24, Type (0, 0), BuildingBlock: XIVTED_clean_linker_0, # of connection points: 2
#     Edge 25, Type (0, 0), BuildingBlock: XIVTED_clean_linker_0, # of connection points: 2
#     Edge 26, Type (0, 0), BuildingBlock: XIVTED_clean_linker_0, # of connection points: 2
#     Edge 27, Type (0, 0), BuildingBlock: XIVTED_clean_linker_0, # of connection points: 2
#     Edge 28, Type (0, 0), BuildingBlock: XIVTED_clean_linker_0, # of connection points: 2
#     Edge 29, Type (0, 0), BuildingBlock: XIVTED_clean_linker_0, # of connection points: 2
#     Edge 30, Type (0, 0), BuildingBlock: XIVTED_clean_linker_0, # of connection points: 2
#     Edge 31, Type (0, 0), BuildingBlock: XIVTED_clean_linker_0, # of connection points: 2
#     Edge 32, Type (0, 0), BuildingBlock: XIVTED_clean_linker_0, # of connection points: 2
#     Edge 33, Type (0, 0), BuildingBlock: XIVTED_clean_linker_0, # of connection points: 2
#     Edge 34, Type (0, 0), BuildingBlock: XIVTED_clean_linker_0, # of connection points: 2
#     Edge 35, Type (0, 0), BuildingBlock: XIVTED_clean_linker_0, # of connection points: 2
#     Edge 36, Type (0, 0), BuildingBlock: XIVTED_clean_linker_0, # of connection points: 2
#     Edge 37, Type (0, 0), BuildingBlock: XIVTED_clean_linker_0, # of connection points: 2
#     Edge 38, Type (0, 0), BuildingBlock: XIVTED_clean_linker_0, # of connection points: 2
#     Edge 39, Type (0, 0), BuildingBlock: XIVTED_clean_linker_0, # of connection points: 2
#     Edge 40, Type (0, 0), BuildingBlock: XIVTED_clean_linker_0, # of connection points: 2
#     Edge 41, Type (0, 0), BuildingBlock: XIVTED_clean_linker_0, # of connection points: 2
#     Edge 42, Type (0, 0), BuildingBlock: XIVTED_clean_linker_0, # of connection points: 2
#     Edge 43, Type (0, 0), BuildingBlock: XIVTED_clean_linker_0, # of connection points: 2
#     Edge 44, Type (0, 0), BuildingBlock: XIVTED_clean_linker_0, # of connection points: 2
#     Edge 45, Type (0, 0), BuildingBlock: XIVTED_clean_linker_0, # of connection points: 2
#     Edge 46, Type (0, 0), BuildingBlock: XIVTED_clean_linker_0, # of connection points: 2
#     Edge 47, Type (0, 0), BuildingBlock: XIVTED_clean_linker_0, # of connection points: 2
# Relax obj value: 0.797
# Max RMSD: 0.182
# Mean RMSD: 0.182
data_MOF--net-wkj--node1-CUWYAW_clean_sbu_0--edge1-XIVTED_clean_linker_0
_symmetry_space_group_name_H-M    P1
_symmetry_Int_Tables_number       1
_symmetry_cell_setting            triclinic
loop_
_symmetry_equiv_pos_as_xyz
'x, y, z'
_cell_length_a     119.92522
_cell_length_b     49.542881
_cell_length_c     49.591212
_cell_angle_alpha  17808.558
_cell_angle_beta   90.506817
_cell_angle_gamma 89.747396
loop_
_atom_site_label
_atom_site_type_symbol
_atom_site_fract_x
_atom_site_fract_y
_atom_site_fract_z
_atom_type_partial_charge
C0 C 0.21447 1.09814 0.99586 0.0
Eu1 Eu 0.19968 1.16332 1.09517 0.0
C2 C 0.21208 1.05406 0.9249 0.0
C3 C 0.20178 0.9901 0.8565 0.0
C4 C 0.1985 0.96497 0.80539 0.0
C5 C 0.20548 1.00231 0.82043 0.0
C6 C 0.21587 1.06575 0.88827 0.0
C7 C 0.21909 1.0929 0.94163 0.0
C8 C 0.20058 1.26298 1.24318 0.0
C9 C 0.18831 0.89912 0.87139 0.0
C10 C 0.15771 1.25754 1.22563 0.0
Eu11 Eu 0.17754 1.19847 1.15037 0.0
C12 C 0.15198 1.36734 1.34687 0.0
C13 C 0.1418 1.33954 1.33242 0.0
C14 C 0.13582 1.44502 1.44722 0.0
C15 C 0.13992 1.57968 1.57762 0.0
C16 C 0.15023 1.6065 1.59142 0.0
C17 C 0.15623 1.5011 1.47697 0.0
C18 C 0.17754 1.09999 1.00186 0.0
C19 C 0.19356 1.48275 1.4185 0.0
O20 O 0.21169 1.22308 1.12295 0.0
O21 O 0.2112 1.01524 0.93384 0.0
O22 O 0.20884 1.27482 1.2381 0.0
O23 O 0.19356 1.17673 1.14976 0.0
O24 O 0.19615 0.94086 0.8947 0.0
O25 O 0.18041 0.98721 0.96393 0.0
O26 O 0.16486 1.18858 1.17228 0.0
O27 O 0.16129 1.28562 1.22894 0.0
O28 O 0.17212 1.04565 0.96845 0.0
O29 O 0.18358 1.19692 1.10597 0.0
O30 O 0.18416 1.42835 1.37558 0.0
O31 O 0.20059 1.3994 1.32493 0.0
H32 H 0.19618 0.96051 0.8436 0.0
H33 H 0.19061 0.91203 0.75003 0.0
H34 H 0.22147 1.09403 0.89978 0.0
H35 H 0.22696 1.14535 0.99704 0.0
H36 H 0.13841 1.23652 1.23229 0.0
H37 H 0.12794 1.4218 1.43412 0.0
H38 H 0.15372 1.70901 1.69099 0.0
H39 H 0.16411 1.52424 1.48997 0.0
C40 C 0.07247 2.45817 2.00067 0.0
Eu41 Eu 0.06818 2.50148 2.09375 0.0
C42 C 0.06535 2.46488 1.9831 0.0
C43 C 0.06783 2.38402 1.88167 0.0
C44 C 0.05952 2.35069 1.8301 0.0
C45 C 0.04857 2.39702 1.8787 0.0
C46 C 0.04655 2.49238 1.99254 0.0
C47 C 0.05486 2.52512 2.04361 0.0
C48 C 0.08088 2.60713 2.2384 0.0
C49 C 0.07434 2.21845 1.85009 0.0
C50 C 0.0489 2.49323 2.18256 0.0
Eu51 Eu 0.0579 2.4783 2.1202 0.0
C52 C 0.04714 2.59305 2.30161 0.0
C53 C 0.04532 2.54788 2.2838 0.0
C54 C 0.04459 2.64159 2.3966 0.0
C55 C 0.04564 2.78172 2.52859 0.0
C56 C 0.04703 2.82646 2.54564 0.0
C57 C 0.04782 2.73274 2.43292 0.0
C58 C 0.04421 2.37193 1.97667 0.0
C59 C 0.06038 2.7932 2.39764 0.0
O60 O 0.07495 2.57274 2.12505 0.0
O61 O 0.0694 2.36267 1.92399 0.0
O62 O 0.08077 2.65569 2.26164 0.0
O63 O 0.07548 2.49714 2.13123 0.0
O64 O 0.07592 2.2927 1.90068 0.0
O65 O 0.06758 2.26988 1.91913 0.0
O66 O 0.05921 2.45987 2.14588 0.0
O67 O 0.04342 2.511 2.17745 0.0
O68 O 0.04747 2.30752 1.93485 0.0
O69 O 0.04959 2.48491 2.08593 0.0
O70 O 0.05865 2.72217 2.35116 0.0
O71 O 0.06255 2.72087 2.30517 0.0
H72 H 0.07585 2.3359 1.83319 0.0
H73 H 0.06143 2.27641 1.74206 0.0
H74 H 0.03828 2.53175 2.03392 0.0
H75 H 0.05278 2.58743 2.1218 0.0
H76 H 0.04477 2.44001 2.18264 0.0
H77 H 0.04353 2.60457 2.38075 0.0
H78 H 0.04811 2.93368 2.64606 0.0
H79 H 0.0493 2.76917 2.44829 0.0
C80 C 0.26988 3.3143 2.98734 0.0
Eu81 Eu 0.28789 3.36942 3.06934 0.0
C82 C 0.26006 3.23588 2.91954 0.0
C83 C 0.26118 3.14815 2.85569 0.0
C84 C 0.25186 3.08469 2.80477 0.0
C85 C 0.24113 3.10767 2.81677 0.0
C86 C 0.23998 3.19613 2.88124 0.0
C87 C 0.24941 3.26081 2.93339 0.0
C88 C 0.30601 3.5343 3.22037 0.0
C89 C 0.30623 3.13326 2.83178 0.0
C90 C 0.31943 3.37086 3.14809 0.0
Eu91 Eu 0.30308 3.3753 3.11753 0.0
C92 C 0.32212 3.44205 3.24307 0.0
C93 C 0.31368 3.49333 3.30954 0.0
C94 C 0.31621 3.59389 3.42719 0.0
C95 C 0.3204 0.67916 0.4519 0.0
C96 C 0.33574 3.58406 3.40576 0.0
C97 C 0.33321 3.48223 3.28727 0.0
C98 C 0.28206 3.31697 3.07946 0.0
C99 C 0.28878 3.65928 3.38473 0.0
O100 O 0.27151 3.42715 3.1111 0.0
O101 O 0.27909 3.24694 2.91876 0.0
O102 O 0.29598 3.5577 3.23489 0.0
O103 O 0.30622 3.41941 3.1187 0.0
O104 O 0.29819 3.19877 2.88318 0.0
O105 O 0.30897 3.17687 2.89948 0.0
O106 O 0.31929 3.45017 3.20459 0.0
O107 O 0.31111 3.28252 3.06169 0.0
O108 O 0.28877 3.41055 3.18037 0.0
O109 O 0.28641 3.26397 3.00673 0.0
O110 O 0.29793 3.60674 3.34469 0.0
O111 O 0.2824 3.57572 3.28828 0.0
H112 H 0.26932 3.12935 2.84601 0.0
H113 H 0.25313 3.01403 2.75203 0.0
H114 H 0.23184 3.21496 2.89103 0.0
H115 H 0.24837 3.33102 2.98551 0.0
H116 H 0.30504 3.4633 3.27669 0.0
H117 H 0.30268 0.66904 0.45067 0.0
H118 H 0.3375 0.65366 0.41365 0.0
H119 H 0.33983 3.44389 3.23726 0.0
C120 C -0.00571 1.74095 1.04902 0.0
Eu121 Eu 0.00819 1.809 1.07746 0.0
C122 C -0.00779 1.6398 0.9711 0.0
C123 C -0.0006 1.53116 0.86868 0.0
C124 C -0.00249 1.43927 0.79976 0.0
C125 C -0.0116 1.4549 0.8325 0.0
C126 C -0.01862 1.56615 0.93764 0.0
C127 C -0.0167 1.6579 1.00643 0.0
C128 C 0.00369 1.96903 1.19167 0.0
C129 C 0.01683 1.63126 0.85094 0.0
C130 C 0.0467 1.97469 1.19041 0.0
Eu131 Eu 0.02869 1.90744 1.15096 0.0
C132 C 0.05537 2.08141 1.29592 0.0
C133 C 0.06475 2.07167 1.26995 0.0
C134 C 0.07258 2.17874 1.37376 0.0
C135 C 0.07109 2.29714 1.50506 0.0
C136 C 0.06194 2.30272 1.52808 0.0
C137 C 0.05415 2.19554 1.42419 0.0
C138 C 0.0313 1.79089 1.08671 0.0
C139 C 0.01567 2.14497 1.41768 0.0
O140 O 0.00318 1.81782 1.12792 0.0
O141 O -0.00709 1.70308 0.9868 0.0
O142 O -0.0025 1.86439 1.09586 0.0
O143 O 0.01173 1.98051 1.219 0.0
O144 O 0.01012 1.62759 0.8689 0.0
O145 O 0.02407 1.73562 0.95149 0.0
O146 O 0.03672 2.01356 1.22152 0.0
O147 O 0.04656 1.88982 1.12752 0.0
O148 O 0.03556 1.90729 1.1934 0.0
O149 O 0.02545 1.74081 1.01843 0.0
O150 O 0.02395 2.12158 1.37754 0.0
O151 O 0.00897 2.03765 1.31875 0.0
H152 H 0.0064 1.51697 0.8415 0.0
H153 H 0.00295 1.35325 0.7175 0.0
H154 H -0.02565 1.58144 0.96573 0.0
H155 H -0.0222 1.7431 1.0873 0.0
H156 H 0.06583 1.98314 1.1706 0.0
H157 H 0.07958 2.17093 1.3526 0.0
H158 H 0.06042 2.39312 1.62838 0.0
H159 H 0.04696 2.2039 1.4453 0.0
C160 C 0.14426 2.35047 2.04317 0.0
Eu161 Eu 0.14374 2.4389 2.08021 0.0
C162 C 0.15157 2.25092 1.95834 0.0
C163 C 0.15927 2.18382 1.87657 0.0
C164 C 0.16746 2.10468 1.81091 0.0
C165 C 0.16811 2.09054 1.82526 0.0
C166 C 0.16025 2.15625 1.90569 0.0
C167 C 0.15209 2.23715 1.97297 0.0
C168 C 0.1285 2.5949 2.20572 0.0
C169 C 0.13701 2.2476 1.84258 0.0
C170 C 0.15718 2.62672 2.16804 0.0
Eu171 Eu 0.15235 2.54727 2.13916 0.0
C172 C 0.15928 2.7526 2.27636 0.0
C173 C 0.15876 2.75081 2.24638 0.0
C174 C 0.15946 2.87243 2.35098 0.0
C175 C 0.16071 2.99721 2.4868 0.0
C176 C 0.16184 2.99729 2.51517 0.0
C177 C 0.16109 2.87581 2.41066 0.0
C178 C 0.16876 2.42896 2.05283 0.0
C179 C 0.15141 2.76721 2.40654 0.0
O180 O 0.14967 2.45863 2.14078 0.0
O181 O 0.13707 2.30469 1.98035 0.0
O182 O 0.12593 2.48518 2.1118 0.0
O183 O 0.13865 2.6173 2.23082 0.0
O184 O 0.13771 2.25001 1.87157 0.0
O185 O 0.14166 2.35391 1.93351 0.0
O186 O 0.14701 2.60765 2.15797 0.0
O187 O 0.16464 2.59459 2.15461 0.0
O188 O 0.16926 2.55064 2.16216 0.0
O189 O 0.15913 2.37602 1.99629 0.0
O190 O 0.15282 2.75574 2.36841 0.0
O191 O 0.14841 2.65357 2.30815 0.0
H192 H 0.1591 2.19515 1.86592 0.0
H193 H 0.17317 2.05261 1.74687 0.0
H194 H 0.16052 2.14629 1.91769 0.0
H195 H 0.14633 2.29085 2.03825 0.0
H196 H 0.15738 2.65588 2.14266 0.0
H197 H 0.15858 2.86946 2.32632 0.0
H198 H 0.16259 3.09186 2.61892 0.0
H199 H 0.16147 2.87855 2.43518 0.0
C200 C -0.0584 3.43525 3.02348 0.0
Eu201 Eu -0.07638 3.51001 3.07187 0.0
C202 C -0.04692 3.45117 3.02925 0.0
C203 C -0.03951 3.3452 2.92961 0.0
C204 C -0.0307 3.32715 2.89415 0.0
C205 C -0.02925 3.4145 2.95731 0.0
C206 C -0.03566 3.53246 3.07137 0.0
C207 C -0.04451 3.55 3.10629 0.0
C208 C -0.09679 3.60359 3.18008 0.0
C209 C -0.09609 3.28916 2.84002 0.0
C210 C -0.10334 3.7112 3.19094 0.0
Eu211 Eu -0.0903 3.59796 3.11543 0.0
C212 C -0.10961 3.83628 3.30951 0.0
C213 C -0.11995 3.8287 3.28874 0.0
C214 C -0.12658 3.94341 3.39912 0.0
C215 C -0.12968 1.09961 0.50199 0.0
C216 C -0.11913 1.10788 0.5227 0.0
C217 C -0.11255 0.99276 0.41213 0.0
C218 C -0.07274 3.45473 2.95527 0.0
C219 C -0.07506 3.83858 3.3883 0.0
O220 O -0.06358 3.54657 3.13869 0.0
O221 O -0.06456 3.35286 2.92794 0.0
O222 O -0.0916 3.50428 3.09465 0.0
O223 O -0.09052 3.64811 3.20591 0.0
O224 O -0.08608 3.30562 2.86732 0.0
O225 O -0.10015 3.39519 2.93 0.0
O226 O -0.10695 3.63098 3.13164 0.0
O227 O -0.09244 3.72126 3.20003 0.0
O228 O -0.08312 3.42904 2.92499 0.0
O229 O -0.07219 3.5458 3.06264 0.0
O230 O -0.08274 3.8134 3.34381 0.0
O231 O -0.0708 3.73153 3.29559 0.0
H232 H -0.04126 3.2675 2.86851 0.0
H233 H -0.02598 3.23495 2.80584 0.0
H234 H -0.03462 3.60348 3.12439 0.0
H235 H -0.05014 3.63279 3.18372 0.0
H236 H -0.12304 3.73299 3.18669 0.0
H237 H -0.13466 3.93441 3.38044 0.0
H238 H -0.11617 1.20188 0.62401 0.0
H239 H -0.10463 1.0003 0.43015 0.0
C240 C 0.2672 2.09001 1.78605 0.0
Eu241 Eu 0.27009 2.05685 1.7022 0.0
C242 C 0.25934 2.17522 1.88381 0.0
C243 C 0.25361 2.27418 1.96618 0.0
C244 C 0.24465 2.33943 2.04159 0.0
C245 C 0.24125 2.30761 2.0368 0.0
C246 C 0.24718 2.21056 1.95661 0.0
C247 C 0.25611 2.14342 1.8791 0.0
C248 C 0.28633 1.95051 1.56811 0.0
C249 C 0.277 2.3306 1.93472 0.0
C250 C 0.26017 2.06232 1.59835 0.0
Eu251 Eu 0.26405 2.03814 1.62636 0.0
C252 C 0.254 1.99489 1.51029 0.0
C253 C 0.25348 2.05911 1.548 0.0
C254 C 0.25075 1.98366 1.45103 0.0
C255 C 0.24865 1.84255 1.31468 0.0
C256 C 0.24794 1.7824 1.28152 0.0
C257 C 0.25059 1.85815 1.37876 0.0
C258 C 0.24589 2.04819 1.66944 0.0
C259 C 0.26671 1.74301 1.36903 0.0
O260 O 0.26218 1.9945 1.67833 0.0
O261 O 0.27521 2.15282 1.83424 0.0
O262 O 0.28505 1.92164 1.56521 0.0
O263 O 0.28009 2.04651 1.65561 0.0
O264 O 0.27703 2.27376 1.90358 0.0
O265 O 0.27238 2.25925 1.84437 0.0
O266 O 0.26822 1.99169 1.53959 0.0
O267 O 0.25451 2.12647 1.67942 0.0
O268 O 0.24712 1.96057 1.56449 0.0
O269 O 0.25473 2.12078 1.74244 0.0
O270 O 0.26617 1.80435 1.40501 0.0
O271 O 0.26682 1.82101 1.46754 0.0
H272 H 0.2559 2.29842 1.96936 0.0
H273 H 0.24048 2.41675 2.10562 0.0
H274 H 0.24483 2.18568 1.95274 0.0
H275 H 0.26032 2.06481 1.81336 0.0
H276 H 0.25605 2.16494 1.64952 0.0
H277 H 0.25115 2.03351 1.48038 0.0
H278 H 0.24643 1.674 1.17762 0.0
H279 H 0.25095 1.80706 1.34807 0.0
C280 C -0.00203 3.4535 2.82329 0.0
Eu281 Eu -0.00692 3.47673 2.79478 0.0
C282 C -0.00616 3.50201 2.8967 0.0
C283 C -0.01275 3.61734 3.01074 0.0
C284 C -0.01652 3.66434 3.08147 0.0
C285 C -0.0136 3.59816 3.04085 0.0
C286 C -0.00722 3.48013 2.92401 0.0
C287 C -0.00362 3.43159 2.85156 0.0
C288 C 0.0085 3.48657 2.76761 0.0
C289 C -0.01133 3.74408 3.01777 0.0
C290 C -0.03234 3.42942 2.66357 0.0
Eu291 Eu -0.01878 3.42911 2.70468 0.0
C292 C -0.04306 3.36274 2.59158 0.0
C293 C -0.05068 3.42811 2.63869 0.0
C294 C -0.0604 3.35963 2.56297 0.0
C295 C -0.06256 3.22394 2.43796 0.0
C296 C -0.05522 3.16295 2.39678 0.0
C297 C -0.04562 3.23201 2.47329 0.0
C298 C -0.03091 3.42133 2.74494 0.0
C299 C -0.00718 3.15367 2.44993 0.0
O300 O -0.0088 3.37052 2.72905 0.0
O301 O 0.00265 3.54398 2.89603 0.0
O302 O 0.00831 3.56959 2.86915 0.0
O303 O -0.0 3.4063 2.6873 0.0
O304 O -0.0105 3.7071 3.00761 0.0
O305 O -0.01233 3.64208 2.90073 0.0
O306 O -0.02378 3.3502 2.58805 0.0
O307 O -0.03253 3.52012 2.7715 0.0
O308 O -0.03016 3.31959 2.62887 0.0
O309 O -0.02455 3.51418 2.82743 0.0
O310 O -0.01296 3.21128 2.48699 0.0
O311 O -0.00436 3.23445 2.55018 0.0
H312 H -0.01475 3.673 3.04704 0.0
H313 H -0.02116 3.75769 3.17308 0.0
H314 H -0.00474 3.4281 2.89134 0.0
H315 H 0.00139 3.34124 2.76248 0.0
H316 H -0.04892 3.53031 2.73153 0.0
H317 H 0.14191 2.54331 2.5993 0.0
H318 H -0.05644 3.05833 2.30067 0.0
H319 H -0.03992 3.18075 2.43659 0.0
C320 C 0.15976 1.12408 0.7832 0.0
Eu321 Eu 0.13836 1.07439 0.73728 0.0
C322 C 0.16753 1.19055 0.86729 0.0
C323 C 0.16326 1.24861 0.9475 0.0
C324 C 0.17042 1.30311 1.02043 0.0
C325 C 0.18204 1.30292 1.01662 0.0
C326 C 0.18634 1.2442 0.93565 0.0
C327 C 0.1791 1.18663 0.85983 0.0
C328 C 0.12342 1.01259 0.63789 0.0
C329 C 0.11814 1.29072 0.9589 0.0
C330 C 0.09956 0.88745 0.59795 0.0
Eu331 Eu 0.11905 0.95487 0.64456 0.0
C332 C 0.09283 0.7711 0.49325 0.0
C333 C 0.08393 0.79391 0.53301 0.0
C334 C 0.07677 0.68672 0.4354 0.0
C335 C 0.0852 3.52325 3.32662 0.0
C336 C 0.09448 3.49999 3.28736 0.0
C337 C 0.10164 3.60728 3.38513 0.0
C338 C 0.13657 0.98481 0.70942 0.0
C339 C 0.14096 3.6968 3.42105 0.0
O340 O 0.15538 1.01088 0.6816 0.0
O341 O 0.15231 1.20171 0.84785 0.0
O342 O 0.1304 1.11572 0.73729 0.0
O343 O 0.12494 0.95008 0.59839 0.0
O344 O 0.12897 1.28116 0.94367 0.0
O345 O 0.11272 1.17656 0.85416 0.0
O346 O 0.10165 0.8945 0.57906 0.0
O347 O 0.10814 0.92206 0.64683 0.0
O348 O 0.13068 0.87392 0.59742 0.0
O349 O 0.13329 1.07472 0.78084 0.0
O350 O 0.1248 0.74656 0.42239 0.0
O351 O 0.14069 0.84029 0.49606 0.0
H352 H 0.15434 1.25246 0.95418 0.0
H353 H 0.1668 1.35156 1.08526 0.0
H354 H 0.19525 1.24499 0.93295 0.0
H355 H 0.18251 1.1402 0.79652 0.0
H356 H 0.08233 0.8955 0.6398 0.0
H357 H 0.06977 0.70751 0.46867 0.0
H358 H 0.0959 3.4003 3.1813 0.0
H359 H 0.10854 3.58812 3.35301 0.0
C360 C -0.05297 2.2638 1.77608 0.0
Eu361 Eu -0.05986 2.15931 1.71913 0.0
C362 C -0.04608 2.38228 1.88425 0.0
C363 C -0.0388 2.44421 1.96367 0.0
C364 C -0.03268 2.5611 2.07119 0.0
C365 C -0.03378 2.61916 2.10222 0.0
C366 C -0.04089 2.55449 2.01988 0.0
C367 C -0.04697 2.43666 1.91146 0.0
C368 C -0.07943 2.03867 1.61398 0.0
C369 C -0.06803 2.33414 1.94305 0.0
C370 C -0.05956 1.91758 1.58196 0.0
Eu371 Eu -0.058 2.01355 1.62701 0.0
C372 C -0.06269 1.79984 1.48332 0.0
C373 C -0.06706 1.82281 1.53151 0.0
C374 C -0.06984 1.71356 1.44133 0.0
C375 C -0.06822 1.57939 1.30134 0.0
C376 C -0.06382 1.55674 1.25335 0.0
C377 C -0.0611 1.6662 1.34367 0.0
C378 C -0.03775 2.10964 1.70303 0.0
C379 C -0.06019 1.80904 1.37258 0.0
O380 O -0.04774 2.16817 1.6955 0.0
O381 O -0.06265 2.29049 1.81275 0.0
O382 O -0.07875 2.15156 1.7108 0.0
O383 O -0.06985 1.99835 1.57942 0.0
O384 O -0.06553 2.34207 1.92462 0.0
O385 O -0.06592 2.21762 1.84173 0.0
O386 O -0.06761 1.98137 1.63223 0.0
O387 O -0.05063 1.90845 1.55827 0.0
O388 O -0.03975 1.98877 1.59398 0.0
O389 O -0.04674 2.17665 1.76869 0.0
O390 O -0.06046 1.81538 1.40591 0.0
O391 O -0.05938 1.92944 1.47737 0.0
H392 H -0.03808 2.40411 1.94466 0.0
H393 H -0.02751 2.60964 2.13411 0.0
H394 H -0.04191 2.59659 2.04108 0.0
H395 H -0.05255 2.38971 1.85074 0.0
H396 H -0.06828 1.92564 1.63932 0.0
H397 H 0.33995 1.73404 1.48118 0.0
H398 H -0.06268 1.45426 1.14564 0.0
H399 H -0.05777 1.64654 1.30459 0.0
C400 C 0.19877 2.89379 2.82447 0.0
Eu401 Eu 0.21612 2.8265 2.78744 0.0
C402 C 0.19718 2.99709 2.90468 0.0
C403 C 0.20651 3.06378 2.95894 0.0
C404 C 0.20521 3.16068 3.03363 0.0
C405 C 0.19451 3.19379 3.05653 0.0
C406 C 0.18516 3.12442 2.99934 0.0
C407 C 0.1865 3.02617 2.92332 0.0
C408 C 0.21839 2.6878 2.69821 0.0
C409 C 0.22885 3.01638 3.01838 0.0
C410 C 0.2582 2.6875 2.67893 0.0
Eu411 Eu 0.23815 2.74 2.71257 0.0
C412 C 0.26558 2.5723 2.56963 0.0
C413 C 0.27446 2.58255 2.59816 0.0
C414 C 0.28134 2.47179 2.49414 0.0
C415 C 0.27944 2.34953 2.36028 0.0
C416 C 0.27065 2.34102 2.33296 0.0
C417 C 0.26375 2.45149 2.43684 0.0
C418 C 0.23653 2.85943 2.77976 0.0
C419 C 0.22118 2.49271 2.44724 0.0
O420 O 0.20564 2.79876 2.72474 0.0
O421 O 0.20058 2.93811 2.8924 0.0
O422 O 0.21179 2.79056 2.7967 0.0
O423 O 0.22238 2.66241 2.65101 0.0
O424 O 0.21978 3.00692 2.99347 0.0
O425 O 0.23689 2.92593 2.9255 0.0
O426 O 0.24942 2.68839 2.6951 0.0
O427 O 0.25597 2.7233 2.68925 0.0
O428 O 0.24072 2.74189 2.66963 0.0
O429 O 0.23235 2.90652 2.84757 0.0
O430 O 0.23139 2.52146 2.48557 0.0
O431 O 0.21398 2.59561 2.54722 0.0
H432 H 0.21484 3.04207 2.94496 0.0
H433 H 0.21258 3.2143 3.07894 0.0
H434 H 0.17682 3.14804 3.01564 0.0
H435 H 0.17921 2.97419 2.88055 0.0
H436 H 0.27595 2.67557 2.70057 0.0
H437 H 0.28803 2.48101 2.5179 0.0
H438 H 0.26883 2.24715 2.23028 0.0
H439 H 0.25687 2.44186 2.41318 0.0
C440 C 0.05117 1.28984 0.84007 0.0
Eu441 Eu 0.06845 1.20031 0.7271 0.0
C442 C 0.04173 1.36335 0.90038 0.0
C443 C 0.03714 1.47135 1.0203 0.0
C444 C 0.0304 1.56435 1.09797 0.0
C445 C 0.02819 1.55112 1.05713 0.0
C446 C 0.03194 1.43509 0.93005 0.0
C447 C 0.03871 1.34253 0.85281 0.0
C448 C 0.08551 1.03995 0.58342 0.0
C449 C 0.09007 1.42878 0.95221 0.0
C450 C 0.09704 1.14593 0.59026 0.0
Eu451 Eu 0.0839 1.18351 0.66795 0.0
C452 C 0.10366 1.0438 0.47681 0.0
C453 C 0.11138 1.08618 0.49884 0.0
C454 C 0.12458 3.95903 3.42237 0.0
C455 C 0.12329 3.82 3.29218 0.0
C456 C 0.11548 3.77803 3.27059 0.0
C457 C 0.1091 3.8735 3.37745 0.0
C458 C 0.06651 1.35076 0.81914 0.0
C459 C 0.07579 3.86323 3.43233 0.0
O460 O 0.05208 1.16346 0.70886 0.0
O461 O 0.0607 1.3562 0.90423 0.0
O462 O 0.07575 1.02793 0.58272 0.0
O463 O 0.08616 1.14907 0.67718 0.0
O464 O 0.08047 1.38573 0.92123 0.0
O465 O 0.0935 1.36165 0.86474 0.0
O466 O 0.10058 1.18736 0.65444 0.0
O467 O 0.08622 1.12817 0.57178 0.0
O468 O 0.07694 1.3839 0.85034 0.0
O469 O 0.06565 1.23374 0.71528 0.0
O470 O 0.07772 0.94995 0.44238 0.0
O471 O 0.06308 0.97905 0.49931 0.0
H472 H 0.03946 1.48979 1.05923 0.0
H473 H 0.02781 1.65314 1.19594 0.0
H474 H 0.03031 1.42088 0.8948 0.0
H475 H 0.04222 1.26013 0.76068 0.0
H476 H 0.11246 1.19314 0.5987 0.0
H477 H 0.12375 1.02577 0.41144 0.0
H478 H 0.11448 3.67164 3.17178 0.0
H479 H 0.10318 3.8396 3.35935 0.0
H480 H 0.17834 1.28678 1.14234 0.0
H481 H 0.14532 0.79101 0.55245 0.0
H482 H 0.1669 0.88031 0.7636 0.0
H483 H 0.14469 1.22675 0.97029 0.0
H484 H 0.15633 0.81933 0.62163 0.0
H485 H 0.1693 1.26398 1.07516 0.0
C486 C 0.17408 1.1921 1.04437 0.0
C487 C 0.17338 1.08541 0.95887 0.0
C488 C 0.15389 0.90916 0.69856 0.0
C489 C 0.16302 1.05827 0.88066 0.0
C490 C 0.14758 0.89311 0.659 0.0
C491 C 0.14407 1.00641 0.75497 0.0
C492 C 0.15688 1.04001 0.83611 0.0
C493 C 0.14734 1.13598 0.89176 0.0
C494 C 0.16884 1.17953 1.00645 0.0
C495 C 0.16765 0.96562 0.83342 0.0
N496 N 0.15353 1.1492 0.92807 0.0
N497 N 0.16278 0.95538 0.79843 0.0
H498 H 0.03445 2.12602 1.7255 0.0
H499 H -0.02915 2.37913 1.96635 0.0
H500 H 0.02695 2.55231 2.14248 0.0
H501 H -0.01906 1.9618 1.55312 0.0
H502 H -0.00921 2.45151 2.03679 0.0
H503 H 0.01473 2.07081 1.66389 0.0
C504 C 0.02867 2.20856 1.80405 0.0
C505 C 0.03251 2.34412 1.93917 0.0
C506 C -0.01139 2.3442 1.93056 0.0
C507 C 0.00943 2.28106 1.86962 0.0
C508 C -0.02281 2.30279 1.89012 0.0
C509 C -0.02591 2.1636 1.75305 0.0
C510 C -0.00296 2.24588 1.83343 0.0
C511 C -0.0172 2.07002 1.65986 0.0
C512 C 0.01731 2.17689 1.76893 0.0
C513 C 0.02447 2.44631 2.03655 0.0
N514 N -0.0063 2.11244 1.70148 0.0
N515 N 0.01334 2.41283 2.00033 0.0
H516 H 0.27231 3.05499 2.82198 0.0
H517 H 0.23992 3.14114 3.04839 0.0
H518 H 0.27217 3.43004 3.23411 0.0
H519 H 0.24332 2.75798 2.6323 0.0
H520 H 0.2497 3.255 3.12212 0.0
H521 H 0.25983 2.95125 2.75432 0.0
C522 C 0.26955 3.11646 2.89884 0.0
C523 C 0.27337 3.25233 3.03448 0.0
C524 C 0.2482 3.14608 3.01461 0.0
C525 C 0.25907 3.13256 2.95685 0.0
C526 C 0.24251 3.08108 2.97253 0.0
C527 C 0.24072 2.93899 2.83345 0.0
C528 C 0.25215 3.06923 2.9174 0.0
C529 C 0.24447 2.86741 2.74055 0.0
C530 C 0.26245 3.0567 2.85993 0.0
C531 C 0.26952 3.32516 3.12834 0.0
N532 N 0.24997 2.9324 2.78366 0.0
N533 N 0.26271 3.26492 3.08812 0.0
H534 H 0.0494 1.2285 0.66853 0.0
H535 H 0.04226 1.90641 1.24242 0.0
H536 H 0.06589 1.61464 1.06189 0.0
H537 H 0.02788 1.52095 0.83985 0.0
H538 H 0.04886 1.80138 1.18101 0.0
H539 H 0.0394 1.33231 0.73167 0.0
C540 C 0.05073 1.33562 0.76912 0.0
C541 C 0.05853 1.41279 0.86005 0.0
C542 C 0.04424 1.73883 1.10537 0.0
C543 C 0.04722 1.53212 0.93249 0.0
C544 C 0.04043 1.79921 1.14064 0.0
C545 C 0.03453 1.72297 1.04634 0.0
C546 C 0.04228 1.59929 0.97349 0.0
C547 C 0.0324 1.58424 0.91624 0.0
C548 C 0.0451 1.3946 0.80468 0.0
C549 C 0.05999 1.55074 0.9882 0.0
N550 N 0.03632 1.52678 0.88341 0.0
N551 N 0.05449 1.60502 1.01983 0.0
H552 H 0.17349 2.15311 1.77721 0.0
H553 H 0.23979 2.29001 1.92995 0.0
H554 H 0.18851 2.53922 2.17773 0.0
H555 H 0.22579 1.91258 1.52988 0.0
H556 H 0.22087 2.37085 2.01672 0.0
H557 H 0.19215 2.0515 1.67933 0.0
C558 C 0.18064 2.21588 1.84446 0.0
C559 C 0.17938 2.35535 1.98621 0.0
C560 C 0.2219 2.26971 1.90956 0.0
C561 C 0.20085 2.24013 1.87501 0.0
C562 C 0.23276 2.22297 1.85966 0.0
C563 C 0.23448 2.09381 1.72201 0.0
C564 C 0.21256 2.18742 1.82176 0.0
C565 C 0.22493 2.01292 1.63677 0.0
C566 C 0.19133 2.15815 1.78865 0.0
C567 C 0.18904 2.43155 2.068 0.0
N568 N 0.21445 2.06107 1.68784 0.0
N569 N 0.19927 2.37365 2.01174 0.0
H570 H -0.03325 3.63684 2.9905 0.0
H571 H -0.07064 3.2372 2.7086 0.0
H572 H -0.04165 3.21017 2.56579 0.0
H573 H -0.05655 3.63738 3.11492 0.0
H574 H -0.05995 3.22377 2.65359 0.0
H575 H -0.04181 3.6397 3.03809 0.0
C576 C -0.03686 3.54328 2.90679 0.0
C577 C -0.03661 3.42286 2.77351 0.0
C578 C -0.05907 3.31413 2.75446 0.0
C579 C -0.04667 3.42574 2.82814 0.0
C580 C -0.06513 3.32154 2.78583 0.0
C581 C -0.06449 3.43812 2.91649 0.0
C582 C -0.05241 3.42555 2.85513 0.0
C583 C -0.05728 3.54472 3.01245 0.0
C584 C -0.04177 3.54509 2.93427 0.0
C585 C -0.04161 3.30561 2.67013 0.0
N586 N -0.05167 3.53652 2.98047 0.0
N587 N -0.04642 3.31014 2.69955 0.0
H588 H 0.20709 3.27169 3.08894 0.0
H589 H 0.21872 0.87636 0.66067 0.0
H590 H 0.17912 3.39454 3.25684 0.0
H591 H 0.18519 1.01543 0.8071 0.0
H592 H 0.21185 0.70666 0.46295 0.0
H593 H 0.20981 3.50735 3.305 0.0
C594 C 0.20134 3.34764 3.17013 0.0
C595 C 0.19328 3.3151 3.15779 0.0
C596 C 0.20594 0.77744 0.54025 0.0
C597 C 0.19658 3.5844 3.40557 0.0
C598 C 0.20995 0.87563 0.65455 0.0
C599 C 0.20242 0.95432 0.74596 0.0
C600 C 0.19434 0.75625 0.51648 0.0
C601 C 0.19119 0.95087 0.73427 0.0
C602 C 0.20293 3.48235 3.29373 0.0
C603 C 0.18571 3.41559 3.26319 0.0
N604 N 0.18739 0.849 0.61816 0.0
N605 N 0.18777 3.54674 3.38433 0.0
H606 H 0.03551 1.64378 1.09886 0.0
H607 H 0.04682 2.29454 1.72643 0.0
H608 H 0.01205 1.73439 1.2502 0.0
H609 H 0.0287 2.31851 1.82449 0.0
H610 H 0.0355 2.09533 1.51877 0.0
H611 H 0.03455 1.87471 1.30922 0.0
C612 C 0.02978 1.7109 1.17446 0.0
C613 C 0.02424 1.67076 1.1588 0.0
C614 C 0.03389 2.14449 1.58593 0.0
C615 C 0.02333 1.9403 1.40513 0.0
C616 C 0.0403 2.25976 1.70586 0.0
C617 C 0.03915 2.31928 1.78969 0.0
C618 C 0.02649 2.08728 1.5489 0.0
C619 C 0.03019 2.27415 1.76149 0.0
C620 C 0.02928 1.84502 1.29677 0.0
C621 C 0.01688 1.76271 1.26039 0.0
N622 N 0.02446 2.15846 1.64151 0.0
N623 N 0.01691 1.89429 1.38086 0.0
H624 H 0.23601 3.04069 2.80358 0.0
H625 H 0.22087 2.37179 2.07831 0.0
H626 H 0.22455 2.97966 2.66197 0.0
H627 H 0.24154 2.43145 2.20745 0.0
H628 H 0.2113 2.58202 2.2945 0.0
H629 H 0.22682 2.8265 2.60659 0.0
C630 C 0.23119 2.98493 2.73389 0.0
C631 C 0.23164 3.02312 2.74399 0.0
C632 C 0.21759 2.54615 2.27332 0.0
C633 C 0.2212 2.77907 2.51944 0.0
C634 C 0.22308 2.42636 2.15008 0.0
C635 C 0.23242 2.38919 2.12906 0.0
C636 C 0.2217 2.62956 2.37599 0.0
C637 C 0.23466 2.45973 2.22218 0.0
C638 C 0.22589 2.86294 2.62178 0.0
C639 C 0.22482 2.95113 2.6551 0.0
N640 N 0.2296 2.57966 2.34419 0.0
N641 N 0.22018 2.82974 2.54358 0.0
H642 H 0.00133 3.63925 3.12252 0.0
H643 H 0.00245 1.31259 0.72643 0.0
H644 H -0.03251 3.72208 3.18019 0.0
H645 H -0.03229 1.34907 0.74081 0.0
H646 H -0.0017 1.09292 0.53152 0.0
H647 H 0.00181 3.84356 3.34979 0.0
C648 C -0.00617 3.69819 3.18154 0.0
C649 C -0.01537 3.66964 3.1367 0.0
C650 C -0.00854 1.14863 0.57753 0.0
C651 C -0.01462 3.90969 3.40122 0.0
C652 C -0.00612 1.27506 0.6897 0.0
C653 C -0.01448 1.34595 0.74546 0.0
C654 C -0.01936 1.0913 0.5186 0.0
C655 C -0.02549 1.29619 0.69858 0.0
C656 C -0.00583 3.81765 3.31373 0.0
C657 C -0.02498 3.74593 3.21496 0.0
N658 N -0.02756 1.17029 0.58557 0.0
N659 N -0.02423 3.86585 3.34588 0.0
H660 H 0.1825 1.30329 1.07245 0.0
H661 H 0.16465 1.89826 1.67606 0.0
H662 H 0.1975 1.49776 1.19389 0.0
H663 H 0.19023 2.0661 1.78889 0.0
H664 H 0.17558 1.69675 1.48503 0.0
H665 H 0.18596 1.51057 1.30162 0.0
C666 C 0.18689 1.3883 1.14636 0.0
C667 C 0.18909 1.38713 1.11745 0.0
C668 C 0.17915 1.7789 1.55365 0.0
C669 C 0.19245 1.62571 1.38019 0.0
C670 C 0.17281 1.895 1.66373 0.0
C671 C 0.1763 1.99594 1.74438 0.0
C672 C 0.18891 1.76307 1.52293 0.0
C673 C 0.18701 1.98715 1.72481 0.0
C674 C 0.18871 1.50755 1.27796 0.0
C675 C 0.19523 1.49661 1.21385 0.0
N676 N 0.19278 1.87059 1.61341 0.0
N677 N 0.19633 1.61378 1.34289 0.0
H678 H -0.03564 3.44268 2.93179 0.0
H679 H -0.04314 2.83455 2.28697 0.0
H680 H -0.0101 3.26348 2.80582 0.0
H681 H -0.01286 2.71613 2.21134 0.0
H682 H -0.03728 3.07011 2.52139 0.0
H683 H -0.03218 3.27733 2.73512 0.0
C684 C -0.02908 3.37072 2.86477 0.0
C685 C -0.02366 3.36174 2.88117 0.0
C686 C -0.03164 2.9941 2.45434 0.0
C687 C -0.02029 3.16394 2.6483 0.0
C688 C -0.03504 2.85789 2.31868 0.0
C689 C -0.02869 2.75552 2.23038 0.0
C690 C -0.02188 3.0283 2.50261 0.0
C691 C -0.01823 2.79242 2.27754 0.0
C692 C -0.02729 3.27318 2.74943 0.0
C693 C -0.01497 3.26917 2.79295 0.0
N694 N -0.01531 2.92588 2.41118 0.0
N695 N -0.01384 3.17042 2.67739 0.0
H696 H -0.00936 3.83403 3.05274 0.0
H697 H 0.17916 0.80645 0.82988 0.0
H698 H -0.01382 4.00667 3.30054 0.0
H699 H 0.19785 0.65037 0.61071 0.0
H700 H -0.02839 1.44649 0.62852 0.0
H701 H 0.19765 3.19542 3.25719 0.0
C702 C -0.01043 3.91916 3.14961 0.0
C703 C -0.01138 3.8945 3.15366 0.0
C704 C -0.02436 1.46089 0.62335 0.0
C705 C -0.01234 4.16916 3.3989 0.0
C706 C 0.18332 0.72529 0.74001 0.0
C707 C 0.18848 0.75363 0.74255 0.0
C708 C -0.01925 1.34917 0.50132 0.0
C709 C 0.19371 0.63876 0.61853 0.0
C710 C -0.01087 4.0523 3.26839 0.0
C711 C -0.01289 4.01524 3.28732 0.0
N712 N 0.19351 0.51115 0.50578 0.0
N713 N -0.01335 4.14397 3.40152 0.0
H714 H 0.09799 1.36695 1.05792 0.0
H715 H 0.09012 2.09873 1.69938 0.0
H716 H 0.12291 1.53888 1.17382 0.0
H717 H 0.07338 2.01093 1.68793 0.0
H718 H 0.09997 1.88327 1.49261 0.0
H719 H 0.08764 1.58168 1.26533 0.0
C720 C 0.10141 1.44884 1.12591 0.0
C721 C 0.11168 1.42929 1.09318 0.0
C722 C 0.09436 1.91103 1.53561 0.0
C723 C 0.0992 1.68428 1.33886 0.0
C724 C 0.08849 2.03588 1.65536 0.0
C725 C 0.08067 2.07968 1.71764 0.0
C726 C 0.09271 1.8223 1.47088 0.0
C727 C 0.07921 1.98672 1.64851 0.0
C728 C 0.09537 1.57356 1.24645 0.0
C729 C 0.11524 1.54427 1.19034 0.0
N730 N 0.08501 1.86538 1.53157 0.0
N731 N 0.10909 1.66259 1.30454 0.0
H732 H -0.07829 2.5735 2.15802 0.0
H733 H 0.3208 2.92876 2.65142 0.0
H734 H -0.07079 2.37899 2.04302 0.0
H735 H 0.30589 3.05702 2.70231 0.0
H736 H 0.3299 2.74199 2.44398 0.0
H737 H -0.08732 2.75825 2.36392 0.0
C738 C -0.07841 2.56855 2.17497 0.0
C739 C -0.0735 2.45579 2.07775 0.0
C740 C 0.32466 2.81072 2.50009 0.0
C741 C -0.08418 2.67632 2.3236 0.0
C742 C 0.31938 2.91935 2.6207 0.0
C743 C 0.3123 3.01338 2.69964 0.0
C744 C -0.08988 2.79298 2.45443 0.0
C745 C 0.31109 2.9902 2.64863 0.0
C746 C -0.0837 2.67579 2.29446 0.0
C747 C -0.07428 2.46067 2.11123 0.0
N748 N 0.31642 2.88589 2.53319 0.0
N749 N -0.07931 2.56674 2.22865 0.0
H750 H 0.00222 1.40083 0.61599 0.0
H751 H 0.24767 3.14376 3.16923 0.0
H752 H 0.03064 1.59979 0.77458 0.0
H753 H 0.21192 3.13869 3.16857 0.0
H754 H 0.24844 3.31017 3.36982 0.0
H755 H 0.00218 1.23159 0.41319 0.0
C756 C 0.00841 1.41148 0.61077 0.0
C757 C 0.01642 1.52017 0.71887 0.0
C758 C 0.24038 3.27308 3.32638 0.0
C759 C 0.01604 1.32119 0.47923 0.0
C760 C 0.23991 3.17635 3.20978 0.0
C761 C 0.22967 3.12382 3.14745 0.0
C762 C 0.23056 3.31792 3.3831 0.0
C763 C 0.22008 3.17405 3.20992 0.0
C764 C 0.00823 1.31429 0.49382 0.0
C765 C 0.02418 1.52132 0.6982 0.0
N766 N 0.22078 3.26419 3.31985 0.0
N767 N 0.0238 1.42585 0.58394 0.0
H768 H 0.12906 2.00042 1.62198 0.0
H769 H 0.10535 1.61257 1.10733 0.0
H770 H 0.12999 2.20497 1.74566 0.0
H771 H 0.09172 1.53272 1.10757 0.0
H772 H 0.11647 1.80495 1.31503 0.0
H773 H 0.11886 1.8092 1.41331 0.0
C774 C 0.12709 2.00748 1.6076 0.0
C775 C 0.13064 2.12484 1.70792 0.0
C776 C 0.11108 1.74585 1.27031 0.0
C777 C 0.11789 1.89794 1.46051 0.0
C778 C 0.10463 1.6338 1.14944 0.0
C779 C 0.09724 1.55157 1.08467 0.0
C780 C 0.11071 1.77827 1.32991 0.0
C781 C 0.09704 1.58989 1.14993 0.0
C782 C 0.12101 1.89652 1.48668 0.0
C783 C 0.12762 2.12021 1.67545 0.0
N784 N 0.10361 1.69637 1.26462 0.0
N785 N 0.12154 2.01141 1.55757 0.0
H786 H -0.11516 3.17194 2.69804 0.0
H787 H 0.29203 2.48421 2.11781 0.0
H788 H -0.09227 3.07902 2.67137 0.0
H789 H 0.27537 2.51462 2.07077 0.0
H790 H 0.30121 2.70743 2.32819 0.0
H791 H 0.28848 2.94798 2.48601 0.0
C792 C -0.11206 3.10618 2.64941 0.0
C793 C -0.10265 3.14996 2.70788 0.0
C794 C 0.29552 2.66651 2.27296 0.0
C795 C -0.11393 2.88506 2.45745 0.0
C796 C 0.29016 2.53692 2.15082 0.0
C797 C 0.28267 2.47483 2.0711 0.0
C798 C 0.29345 2.7419 2.32292 0.0
C799 C 0.28095 2.5539 2.12477 0.0
C800 C -0.11755 2.9761 2.52618 0.0
C801 C -0.09934 3.05437 2.63431 0.0
N802 N 0.28611 2.68049 2.2448 0.0
N803 N -0.10489 2.9306 2.51695 0.0
H804 H 0.2129 1.49452 1.48269 0.0
H805 H -0.01839 2.03532 1.25813 0.0
H806 H 0.18021 1.31443 1.31577 0.0
H807 H 0.01451 2.20306 1.40825 0.0
H808 H -0.02624 2.2542 1.46021 0.0
H809 H 0.2083 1.66014 1.67993 0.0
C810 C 0.20493 1.48638 1.48473 0.0
C811 C 0.19759 1.37505 1.37102 0.0
C812 C -0.01726 2.24395 1.45009 0.0
C813 C 0.19337 1.54735 1.58116 0.0
C814 C -0.01285 2.11726 1.33194 0.0
C815 C -0.0014 2.0971 1.30925 0.0
C816 C -0.01028 2.34506 1.53748 0.0
C817 C 0.00552 2.21073 1.41542 0.0
C818 C 0.20206 1.58438 1.5998 0.0
C819 C 0.18678 1.38348 1.38975 0.0
N820 N 0.00097 2.32992 1.52473 0.0
N821 N 0.18466 1.47753 1.50111 0.0
H822 H 0.09548 2.54606 2.22024 0.0
H823 H 0.13362 2.86378 2.48078 0.0
H824 H 0.07351 2.86418 2.5079 0.0
H825 H 0.10636 2.60668 2.20235 0.0
H826 H 0.1211 2.98861 2.63199 0.0
H827 H 0.10932 2.72255 2.40512 0.0
C828 C 0.09334 2.65199 2.3217 0.0
C829 C 0.08402 2.68936 2.3429 0.0
C830 C 0.11779 2.91068 2.54219 0.0
C831 C 0.10032 2.8792 2.53722 0.0
C832 C 0.12495 2.83549 2.45281 0.0
C833 C 0.12113 2.71229 2.32041 0.0
C834 C 0.10664 2.86981 2.50285 0.0
C835 C 0.10974 2.69408 2.29876 0.0
C836 C 0.10126 2.75411 2.42855 0.0
C837 C 0.08148 2.82867 2.47934 0.0
N838 N 0.10281 2.7735 2.39064 0.0
N839 N 0.08979 2.92231 2.57523 0.0
H840 H -0.08695 3.54759 3.20677 0.0
H841 H -0.10347 0.91328 0.41541 0.0
H842 H 0.30146 0.80935 0.45994 0.0
H843 H 0.29993 3.56605 3.1825 0.0
H844 H -0.10176 1.05241 0.59188 0.0
H845 H -0.08217 3.76192 3.39434 0.0
C846 C -0.08984 3.64175 3.30753 0.0
C847 C 0.31496 3.64057 3.32607 0.0
C848 C -0.10655 0.95772 0.49993 0.0
C849 C -0.10149 0.90451 0.4944 0.0
C850 C -0.10041 3.84308 3.42629 0.0
C851 C -0.10335 3.70402 3.29315 0.0
C852 C 0.30332 0.9012 0.46912 0.0
C853 C 0.30348 3.66765 3.27992 0.0
C854 C -0.08715 3.76569 3.41613 0.0
C855 C 0.30559 0.79989 0.43183 0.0
N856 N 0.3036 3.75316 3.38513 0.0
N857 N 0.30704 0.91393 0.5284 0.0
H858 H -0.08259 1.80161 1.40786 0.0
H859 H 0.28688 1.97798 1.54076 0.0
H860 H -0.09183 2.01402 1.54342 0.0
H861 H 0.2926 1.68496 1.31673 0.0
H862 H 0.29208 1.80835 1.34175 0.0
H863 H -0.0947 1.61187 1.20868 0.0
C864 C -0.08753 1.81012 1.39789 0.0
C865 C -0.08742 1.93086 1.50105 0.0
C866 C 0.2922 1.78041 1.33554 0.0
C867 C -0.1018 1.71851 1.27874 0.0
C868 C 0.28922 1.8785 1.45029 0.0
C869 C 0.29006 1.85029 1.45026 0.0
C870 C 0.29945 1.68066 1.24737 0.0
C871 C 0.29317 1.71865 1.32899 0.0
C872 C -0.09414 1.69992 1.28178 0.0
C873 C -0.09284 1.93009 1.4752 0.0
N874 N 0.29758 1.63491 1.22821 0.0
N875 N -0.09994 1.82562 1.3665 0.0
H876 H 0.01467 3.2401 2.50563 0.0
H877 H 0.2298 2.45814 2.48017 0.0
H878 H 0.02824 3.63426 2.9139 0.0
H879 H 0.22256 2.83999 2.89231 0.0
H880 H 0.03522 3.2762 2.46794 0.0
H881 H 0.03113 3.20574 2.44437 0.0
C882 C 0.02092 3.32086 2.5832 0.0
C883 C 0.01928 3.4498 2.72069 0.0
C884 C 0.2387 2.50382 2.56135 0.0
C885 C 0.03636 3.4184 2.65537 0.0
C886 C 0.2309 2.53044 2.56733 0.0
C887 C 0.22474 2.65047 2.68554 0.0
C888 C 0.03214 3.46337 2.67288 0.0
C889 C 0.22678 2.74376 2.79754 0.0
C890 C 0.03048 3.3005 2.54813 0.0
C891 C 0.02839 3.54208 2.81171 0.0
N892 N 0.02631 3.58124 2.78786 0.0
N893 N 0.03705 3.52199 2.77506 0.0
H894 H 0.10266 1.02816 0.53606 0.0
H895 H 0.11964 3.73464 3.42657 0.0
H896 H 0.0891 3.73865 3.36453 0.0
H897 H 0.13007 1.05222 0.62431 0.0
H898 H 0.11621 3.58609 3.24286 0.0
H899 H 0.12237 3.81052 3.37927 0.0
C900 C 0.10101 0.93406 0.45442 0.0
C901 C 0.09233 0.92225 0.46164 0.0
C902 C 0.12088 3.68035 3.33205 0.0
C903 C 0.11482 3.6958 3.29952 0.0
C904 C 0.11582 0.79903 0.4087 0.0
C905 C 0.12097 0.92743 0.53081 0.0
C906 C 0.12316 3.72875 3.35341 0.0
C907 C 0.12522 0.95962 0.53693 0.0
C908 C 0.11497 3.79385 3.37499 0.0
C909 C 0.09672 3.76037 3.37491 0.0
N910 N 0.12263 0.87805 0.43576 0.0
N911 N 0.10453 3.66259 3.27698 0.0
H912 H 0.13895 2.37083 2.39886 0.0
H913 H -0.07722 2.45602 1.63645 0.0
H914 H -0.07553 3.01072 2.2488 0.0
H915 H 0.13543 1.82741 1.79832 0.0
H916 H -0.08303 2.6604 1.86026 0.0
H917 H 0.1307 2.1866 2.19228 0.0
C918 C 0.13545 2.28427 2.32481 0.0
C919 C -0.07102 3.13782 2.33914 0.0
C920 C -0.081 2.66768 1.8462 0.0
C921 C 0.12783 2.05511 2.09816 0.0
C922 C 0.13018 1.68335 1.71831 0.0
C923 C 0.13387 1.69258 1.70065 0.0
C924 C 0.1274 1.92653 1.95667 0.0
C925 C 0.133 1.81734 1.80936 0.0
C926 C 0.1308 2.17771 2.20535 0.0
C927 C -0.07589 3.02295 2.2391 0.0
N928 N 0.13008 1.93007 1.93352 0.0
N929 N -0.07984 2.91754 2.12061 0.0
H930 H 0.06246 3.54607 3.34747 0.0
H931 H 0.03626 3.03213 2.77821 0.0
H932 H 0.0883 3.25189 3.07076 0.0
H933 H 0.05811 2.7575 2.55082 0.0
H934 H 0.04272 3.21508 2.98682 0.0
H935 H 0.04882 3.3609 3.16112 0.0
C936 C 0.06525 3.44244 3.24796 0.0
C937 C 0.07662 3.41426 3.22356 0.0
C938 C 0.04581 3.11417 2.89162 0.0
C939 C 0.06113 3.20168 3.00813 0.0
C940 C 0.04217 3.00967 2.77217 0.0
C941 C 0.04686 2.88064 2.6478 0.0
C942 C 0.0543 3.0893 2.8863 0.0
C943 C 0.05435 2.85596 2.64487 0.0
C944 C 0.05746 3.3364 3.14076 0.0
C945 C 0.07969 3.27807 3.0929 0.0
N946 N 0.05806 2.96034 2.7629 0.0
N947 N 0.07202 3.17677 2.98943 0.0
H948 H 0.30644 0.89685 0.666 0.0
H949 H 0.3258 1.54769 1.29978 0.0
H950 H 0.33944 0.77816 0.57487 0.0
H951 H -0.05678 1.34647 1.08333 0.0
H952 H 0.31915 1.34071 1.11975 0.0
H953 H 0.3121 1.13234 0.90127 0.0
C954 C 0.31477 0.91924 0.69554 0.0
C955 C 0.32257 0.81593 0.59803 0.0
C956 C 0.32733 1.34218 1.11211 0.0
C957 C 0.32921 1.08904 0.87029 0.0
C958 C 0.33117 1.4606 1.21534 0.0
C959 C 0.3415 1.46275 1.20435 0.0
C960 C 0.33384 1.22519 0.99695 0.0
C961 C -0.06495 1.3475 1.09343 0.0
C962 C 0.31802 1.05544 0.83151 0.0
C963 C 0.33326 0.85403 0.64498 0.0
N964 N 0.34415 1.23269 0.99306 0.0
N965 N 0.33639 0.98763 0.77693 0.0
H966 H 0.28812 2.16206 2.14229 0.0
H967 H 0.07906 2.48666 1.72724 0.0
H968 H 0.07707 3.12322 2.31852 0.0
H969 H 0.28632 1.52649 1.55144 0.0
H970 H 0.0851 2.71943 1.94457 0.0
H971 H 0.29419 1.93411 1.93114 0.0
C972 C 0.28891 2.13536 2.13726 0.0
C973 C 0.28573 2.22623 2.24641 0.0
C974 C 0.08393 2.64709 1.85744 0.0
C975 C 0.29255 1.96596 2.0055 0.0
C976 C 0.08044 2.51435 1.73349 0.0
C977 C 0.07789 2.42204 1.62223 0.0
C978 C 0.08475 2.68765 1.87007 0.0
C979 C 0.08017 2.46196 1.63473 0.0
C980 C 0.29242 2.00553 2.01702 0.0
C981 C 0.2872 2.18817 2.23619 0.0
N982 N 0.29109 1.72522 1.75739 0.0
N983 N 0.08238 2.92719 2.11654 0.0
H984 H 0.14582 3.83801 3.30137 0.0
H985 H 0.17222 3.23954 2.7304 0.0
H986 H 0.11711 3.57281 3.02909 0.0
H987 H 0.14487 3.05173 2.50217 0.0
H988 H 0.16522 3.46211 2.93651 0.0
H989 H 0.15789 3.65356 3.1072 0.0
C990 C 0.14205 3.74142 3.20078 0.0
C991 C 0.13048 3.71884 3.18031 0.0
C992 C 0.16097 3.37304 2.84108 0.0
C993 C 0.14422 3.50642 2.95778 0.0
C994 C 0.16495 3.24548 2.72318 0.0
C995 C 0.15895 3.1273 2.59993 0.0
C996 C 0.15086 3.38175 2.83518 0.0
C997 C 0.14971 3.14025 2.59534 0.0
C998 C 0.14896 3.63559 3.08972 0.0
C999 C 0.12602 3.59272 3.04848 0.0
N1000 N 0.14576 3.26534 2.71209 0.0
N1001 N 0.13292 3.49055 2.94193 0.0
H1002 H -0.1247 1.3668 0.75254 0.0
H1003 H 0.23686 1.60695 1.07101 0.0
H1004 H 0.26142 1.0993 0.51539 0.0
H1005 H 0.26324 1.87394 1.30376 0.0
H1006 H 0.24302 1.43161 0.86818 0.0
H1007 H -0.13618 1.56235 0.95413 0.0
C1008 C -0.13312 1.34946 0.74275 0.0
C1009 C -0.13719 1.21709 0.61801 0.0
C1010 C 0.24728 1.52989 0.96445 0.0
C1011 C 0.26278 1.43984 0.84805 0.0
C1012 C 0.24376 1.63004 1.08031 0.0
C1013 C 0.24972 1.75418 1.20404 0.0
C1014 C 0.25688 1.55387 0.97244 0.0
C1015 C 0.25842 1.77971 1.2108 0.0
C1016 C -0.1397 1.46095 0.85759 0.0
C1017 C 0.2649 1.19987 0.60996 0.0
N1018 N 0.26189 1.67933 1.09602 0.0
N1019 N 0.25878 1.31007 0.72409 0.0
H1020 H 0.18134 1.70664 1.65726 0.0
H1021 H 0.23356 2.25421 2.20559 0.0
H1022 H 0.21437 1.61474 1.54068 0.0
H1023 H 0.19946 2.38066 2.33056 0.0
H1024 H 0.22695 2.01915 1.96552 0.0
H1025 H 0.18772 1.94395 1.89852 0.0
C1026 C 0.18991 1.73503 1.68082 0.0
C1027 C 0.19713 1.63561 1.57301 0.0
C1028 C 0.22086 2.09778 2.04488 0.0
C1029 C 0.20483 1.91534 1.85815 0.0
C1030 C 0.22467 2.23411 2.18412 0.0
C1031 C 0.21721 2.34305 2.29402 0.0
C1032 C 0.20932 2.06404 2.00966 0.0
C1033 C 0.20573 2.30417 2.2533 0.0
C1034 C 0.19361 1.87252 1.82068 0.0
C1035 C 0.20826 1.68419 1.61625 0.0
N1036 N 0.20225 2.17091 2.11772 0.0
N1037 N 0.21167 1.81693 1.75191 0.0
H1038 H 0.0705 2.95149 2.51249 0.0
H1039 H 0.06134 3.71465 3.32082 0.0
H1040 H 0.05434 3.01224 2.64796 0.0
H1041 H 0.08431 3.63874 3.18245 0.0
H1042 H 0.05755 3.46773 3.08279 0.0
H1043 H 0.07419 3.19797 2.75065 0.0
C1044 C 0.06755 3.01537 2.59114 0.0
C1045 C 0.06191 2.95374 2.55299 0.0
C1046 C 0.0634 3.50383 3.10311 0.0
C1047 C 0.06632 3.24987 2.83912 0.0
C1048 C 0.06559 3.64756 3.24151 0.0
C1049 C 0.07319 3.70468 3.27839 0.0
C1050 C 0.06864 3.40913 2.99336 0.0
C1051 C 0.07834 3.60526 3.16461 0.0
C1052 C 0.06978 3.15892 2.72982 0.0
C1053 C 0.05862 3.04933 2.66654 0.0
N1054 N 0.07594 3.46632 3.031 0.0
N1055 N 0.06078 3.18897 2.80077 0.0
H1056 H 0.28926 0.90762 0.6014 0.0
H1057 H 0.26418 1.53307 1.12464 0.0
H1058 H 0.26922 0.84051 0.4644 0.0
H1059 H 0.27364 1.5858 1.25953 0.0
H1060 H 0.26761 1.28677 0.88784 0.0
H1061 H 0.28543 1.15421 0.83964 0.0
C1062 C 0.28401 0.94307 0.61981 0.0
C1063 C 0.27951 0.84737 0.50728 0.0
C1064 C 0.26892 1.35149 0.96867 0.0
C1065 C 0.27521 1.13901 0.78849 0.0
C1066 C 0.26691 1.49422 1.10594 0.0
C1067 C 0.26839 1.58558 1.21737 0.0
C1068 C 0.27277 1.29456 0.93751 0.0
C1069 C 0.27215 1.52322 1.18059 0.0
C1070 C 0.28181 1.08589 0.75779 0.0
C1071 C 0.27285 0.90587 0.54383 0.0
N1072 N 0.27424 1.38512 1.04711 0.0
N1073 N 0.27105 1.04441 0.67783 0.0
H1074 H 0.02073 2.39175 1.63329 0.0
H1075 H -0.00321 2.93677 2.27494 0.0
H1076 H 0.00355 2.24847 1.56358 0.0
H1077 H -0.00207 3.01948 2.27086 0.0
H1078 H 0.00204 2.69804 2.03172 0.0
H1079 H 0.01546 2.62616 1.87398 0.0
C1080 C 0.01595 2.40818 1.66745 0.0
C1081 C 0.01273 2.29457 1.57228 0.0
C1082 C 0.00119 2.76825 2.0838 0.0
C1083 C 0.00666 2.5737 1.8593 0.0
C1084 C -0.00178 2.90674 2.22488 0.0
C1085 C -0.00321 3.0038 2.29899 0.0
C1086 C 0.00319 2.72281 2.01259 0.0
C1087 C -0.0012 2.95231 2.22223 0.0
C1088 C 0.01286 2.54427 1.80709 0.0
C1089 C 0.00637 2.32892 1.62901 0.0
N1090 N 0.00193 2.8195 2.08754 0.0
N1091 N 0.00372 2.46258 1.76602 0.0
H1092 H 0.14235 2.82178 2.51041 0.0
H1093 H 0.15515 3.64081 3.32258 0.0
H1094 H 0.15809 3.04058 2.6597 0.0
H1095 H 0.13156 3.43215 3.16926 0.0
H1096 H 0.1578 3.42658 3.0877 0.0
H1097 H 0.13994 3.03763 2.7458 0.0
C1098 C 0.14547 2.91432 2.59166 0.0
C1099 C 0.1506 2.9071 2.55889 0.0
C1100 C 0.15207 3.4265 3.10436 0.0
C1101 C 0.14778 3.1653 2.84049 0.0
C1102 C 0.15056 3.55048 3.24047 0.0
C1103 C 0.14314 3.55936 3.27129 0.0
C1104 C 0.14629 3.30453 2.99205 0.0
C1105 C 0.13745 3.43467 3.15531 0.0
C1106 C 0.144 3.03978 2.72849 0.0
C1107 C 0.15417 3.03606 2.67483 0.0
N1108 N 0.13919 3.3155 3.02433 0.0
N1109 N 0.15279 3.15672 2.80722 0.0
H1110 H -0.06681 1.76229 1.27246 0.0
H1111 H -0.07142 0.93144 0.46681 0.0
H1112 H -0.06094 1.53569 1.12328 0.0
H1113 H -0.08528 1.1473 0.61073 0.0
H1114 H -0.06653 1.14882 0.7013 0.0
H1115 H -0.07227 1.54749 1.03895 0.0
C1116 C -0.06651 1.66814 1.19156 0.0
C1117 C -0.06313 1.67235 1.22327 0.0
C1118 C -0.0706 1.15038 0.68326 0.0
C1119 C -0.06962 1.4166 0.94534 0.0
C1120 C -0.07343 1.02384 0.54659 0.0
C1121 C -0.07883 1.01464 0.51192 0.0
C1122 C -0.07288 1.27618 0.79398 0.0
C1123 C -0.08114 1.14389 0.62684 0.0
C1124 C -0.06975 1.54366 1.05618 0.0
C1125 C -0.06328 1.54242 1.1088 0.0
N1126 N -0.07812 1.26625 0.75938 0.0
N1127 N -0.0663 1.42337 0.97862 0.0
loop_
_geom_bond_atom_site_label_1
_geom_bond_atom_site_label_2
_geom_bond_distance
_geom_bond_site_symmetry_2
_ccdc_geom_bond_type
C0 Eu1 2.835 . S
C0 C2 1.500 . S
C0 O20 1.257 . S
C0 O21 1.260 . S
Eu1 C0 2.835 . S
Eu1 O20 2.473 . S
Eu1 O21 2.480 . S
Eu1 O22 2.430 . S
Eu1 O23 2.670 . S
Eu1 O24 2.394 . S
Eu1 O29 2.355 . S
Eu1 O31 2.374 . S
C2 C0 1.500 . S
C2 C3 1.377 . S
C2 C7 1.377 . S
C3 C2 1.377 . S
C3 C4 1.395 . S
C3 H32 0.931 . S
C4 C3 1.395 . S
C4 C5 1.383 . S
C4 H33 0.931 . S
C5 C4 1.383 . S
C5 C6 1.394 . S
C6 C5 1.394 . S
C6 C7 1.378 . S
C6 H34 0.931 . S
C7 C2 1.377 . S
C7 C6 1.378 . S
C7 H35 0.931 . S
C8 O22 1.259 . S
C8 O23 1.270 . S
C9 O24 1.251 . S
C9 O25 1.251 . S
C10 Eu11 2.835 . S
C10 C12 1.500 . S
C10 O26 1.257 . S
C10 O27 1.260 . S
Eu11 C10 2.835 . S
Eu11 O23 2.355 . S
Eu11 O25 2.374 . S
Eu11 O26 2.473 . S
Eu11 O27 2.480 . S
Eu11 O28 2.430 . S
Eu11 O29 2.670 . S
Eu11 O30 2.394 . S
C12 C10 1.500 . S
C12 C13 1.377 . S
C12 C17 1.377 . S
C13 C12 1.377 . S
C13 C14 1.395 . S
C13 H36 0.931 . S
C14 C13 1.395 . S
C14 C15 1.383 . S
C14 H37 0.931 . S
C15 C14 1.383 . S
C15 C16 1.394 . S
C16 C15 1.394 . S
C16 C17 1.378 . S
C16 H38 0.931 . S
C17 C12 1.377 . S
C17 C16 1.378 . S
C17 H39 0.931 . S
C18 O28 1.259 . S
C18 O29 1.270 . S
C19 O30 1.251 . S
C19 O31 1.251 . S
O20 C0 1.257 . S
O20 Eu1 2.473 . S
O21 C0 1.260 . S
O21 Eu1 2.480 . S
O22 Eu1 2.430 . S
O22 C8 1.259 . S
O23 Eu1 2.670 . S
O23 C8 1.270 . S
O23 Eu11 2.355 . S
O24 Eu1 2.394 . S
O24 C9 1.251 . S
O25 C9 1.251 . S
O25 Eu11 2.374 . S
O26 C10 1.257 . S
O26 Eu11 2.473 . S
O27 C10 1.260 . S
O27 Eu11 2.480 . S
O28 Eu11 2.430 . S
O28 C18 1.259 . S
O29 Eu1 2.355 . S
O29 Eu11 2.670 . S
O29 C18 1.270 . S
O30 Eu11 2.394 . S
O30 C19 1.251 . S
O31 Eu1 2.374 . S
O31 C19 1.251 . S
H32 C3 0.931 . S
H33 C4 0.931 . S
H34 C6 0.931 . S
H35 C7 0.931 . S
H36 C13 0.931 . S
H37 C14 0.931 . S
H38 C16 0.931 . S
H39 C17 0.931 . S
C40 Eu41 2.835 . S
C40 C42 1.500 . S
C40 O60 1.257 . S
C40 O61 1.260 . S
Eu41 C40 2.835 . S
Eu41 O60 2.473 . S
Eu41 O61 2.480 . S
Eu41 O62 2.430 . S
Eu41 O63 2.670 . S
Eu41 O64 2.394 . S
Eu41 O69 2.355 . S
Eu41 O71 2.374 . S
C42 C40 1.500 . S
C42 C43 1.377 . S
C42 C47 1.377 . S
C43 C42 1.377 . S
C43 C44 1.395 . S
C43 H72 0.931 . S
C44 C43 1.395 . S
C44 C45 1.383 . S
C44 H73 0.931 . S
C45 C44 1.383 . S
C45 C46 1.394 . S
C46 C45 1.394 . S
C46 C47 1.378 . S
C46 H74 0.931 . S
C47 C42 1.377 . S
C47 C46 1.378 . S
C47 H75 0.931 . S
C48 O62 1.259 . S
C48 O63 1.270 . S
C49 O64 1.251 . S
C49 O65 1.251 . S
C50 Eu51 2.835 . S
C50 C52 1.500 . S
C50 O66 1.257 . S
C50 O67 1.260 . S
Eu51 C50 2.835 . S
Eu51 O63 2.355 . S
Eu51 O65 2.374 . S
Eu51 O66 2.473 . S
Eu51 O67 2.480 . S
Eu51 O68 2.430 . S
Eu51 O69 2.670 . S
Eu51 O70 2.394 . S
C52 C50 1.500 . S
C52 C53 1.377 . S
C52 C57 1.377 . S
C53 C52 1.377 . S
C53 C54 1.395 . S
C53 H76 0.931 . S
C54 C53 1.395 . S
C54 C55 1.383 . S
C54 H77 0.931 . S
C55 C54 1.383 . S
C55 C56 1.394 . S
C56 C55 1.394 . S
C56 C57 1.378 . S
C56 H78 0.931 . S
C57 C52 1.377 . S
C57 C56 1.378 . S
C57 H79 0.931 . S
C58 O68 1.259 . S
C58 O69 1.270 . S
C59 O70 1.251 . S
C59 O71 1.251 . S
O60 C40 1.257 . S
O60 Eu41 2.473 . S
O61 C40 1.260 . S
O61 Eu41 2.480 . S
O62 Eu41 2.430 . S
O62 C48 1.259 . S
O63 Eu41 2.670 . S
O63 C48 1.270 . S
O63 Eu51 2.355 . S
O64 Eu41 2.394 . S
O64 C49 1.251 . S
O65 C49 1.251 . S
O65 Eu51 2.374 . S
O66 C50 1.257 . S
O66 Eu51 2.473 . S
O67 C50 1.260 . S
O67 Eu51 2.480 . S
O68 Eu51 2.430 . S
O68 C58 1.259 . S
O69 Eu41 2.355 . S
O69 Eu51 2.670 . S
O69 C58 1.270 . S
O70 Eu51 2.394 . S
O70 C59 1.251 . S
O71 Eu41 2.374 . S
O71 C59 1.251 . S
H72 C43 0.931 . S
H73 C44 0.931 . S
H74 C46 0.931 . S
H75 C47 0.931 . S
H76 C53 0.931 . S
H77 C54 0.931 . S
H78 C56 0.931 . S
H79 C57 0.931 . S
C80 Eu81 2.835 . S
C80 C82 1.500 . S
C80 O100 1.257 . S
C80 O101 1.260 . S
Eu81 C80 2.835 . S
Eu81 O100 2.473 . S
Eu81 O101 2.480 . S
Eu81 O102 2.430 . S
Eu81 O103 2.670 . S
Eu81 O104 2.394 . S
Eu81 O109 2.355 . S
Eu81 O111 2.374 . S
C82 C80 1.500 . S
C82 C83 1.377 . S
C82 C87 1.377 . S
C83 C82 1.377 . S
C83 C84 1.395 . S
C83 H112 0.931 . S
C84 C83 1.395 . S
C84 C85 1.383 . S
C84 H113 0.931 . S
C85 C84 1.383 . S
C85 C86 1.394 . S
C86 C85 1.394 . S
C86 C87 1.378 . S
C86 H114 0.931 . S
C87 C82 1.377 . S
C87 C86 1.378 . S
C87 H115 0.931 . S
C88 O102 1.259 . S
C88 O103 1.270 . S
C89 O104 1.251 . S
C89 O105 1.251 . S
C90 Eu91 2.835 1_554 S
C90 C92 1.500 . S
C90 O106 1.257 1_554 S
C90 O107 1.260 1_554 S
Eu91 C90 2.835 1_556 S
Eu91 O103 2.355 . S
Eu91 O105 2.374 . S
Eu91 O106 2.473 . S
Eu91 O107 2.480 . S
Eu91 O108 2.430 . S
Eu91 O109 2.670 . S
Eu91 O110 2.394 . S
C92 C90 1.500 . S
C92 C93 1.377 . S
C92 C97 1.377 . S
C93 C92 1.377 . S
C93 C94 1.395 . S
C93 H116 0.931 . S
C94 C93 1.395 . S
C94 C95 1.383 . S
C94 H117 0.931 . S
C95 C94 1.383 . S
C95 C96 1.394 . S
C96 C95 1.394 . S
C96 C97 1.378 . S
C96 H118 0.931 . S
C97 C92 1.377 . S
C97 C96 1.378 . S
C97 H119 0.931 . S
C98 O108 1.259 . S
C98 O109 1.270 . S
C99 O110 1.251 . S
C99 O111 1.251 . S
O100 C80 1.257 . S
O100 Eu81 2.473 . S
O101 C80 1.260 . S
O101 Eu81 2.480 . S
O102 Eu81 2.430 . S
O102 C88 1.259 . S
O103 Eu81 2.670 . S
O103 C88 1.270 . S
O103 Eu91 2.355 . S
O104 Eu81 2.394 . S
O104 C89 1.251 . S
O105 C89 1.251 . S
O105 Eu91 2.374 . S
O106 C90 1.257 1_556 S
O106 Eu91 2.473 . S
O107 C90 1.260 1_556 S
O107 Eu91 2.480 . S
O108 Eu91 2.430 . S
O108 C98 1.259 . S
O109 Eu81 2.355 . S
O109 Eu91 2.670 . S
O109 C98 1.270 . S
O110 Eu91 2.394 . S
O110 C99 1.251 . S
O111 Eu81 2.374 . S
O111 C99 1.251 . S
H112 C83 0.931 . S
H113 C84 0.931 . S
H114 C86 0.931 . S
H115 C87 0.931 . S
H116 C93 0.931 . S
H117 C94 0.931 . S
H118 C96 0.931 . S
H119 C97 0.931 . S
C120 Eu121 2.835 . S
C120 C122 1.500 . S
C120 O140 1.257 . S
C120 O141 1.260 . S
Eu121 C120 2.835 . S
Eu121 O140 2.473 . S
Eu121 O141 2.480 . S
Eu121 O142 2.430 . S
Eu121 O143 2.670 . S
Eu121 O144 2.394 . S
Eu121 O149 2.355 . S
Eu121 O151 2.374 . S
C122 C120 1.500 . S
C122 C123 1.377 . S
C122 C127 1.377 . S
C123 C122 1.377 . S
C123 C124 1.395 . S
C123 H152 0.931 . S
C124 C123 1.395 . S
C124 C125 1.383 . S
C124 H153 0.931 . S
C125 C124 1.383 . S
C125 C126 1.394 . S
C126 C125 1.394 . S
C126 C127 1.378 . S
C126 H154 0.931 . S
C127 C122 1.377 . S
C127 C126 1.378 . S
C127 H155 0.931 . S
C128 O142 1.259 . S
C128 O143 1.270 . S
C129 O144 1.251 . S
C129 O145 1.251 . S
C130 Eu131 2.835 . S
C130 C132 1.500 . S
C130 O146 1.257 . S
C130 O147 1.260 . S
Eu131 C130 2.835 . S
Eu131 O143 2.355 . S
Eu131 O145 2.374 . S
Eu131 O146 2.473 . S
Eu131 O147 2.480 . S
Eu131 O148 2.430 . S
Eu131 O149 2.670 . S
Eu131 O150 2.394 . S
C132 C130 1.500 . S
C132 C133 1.377 . S
C132 C137 1.377 . S
C133 C132 1.377 . S
C133 C134 1.395 . S
C133 H156 0.931 . S
C134 C133 1.395 . S
C134 C135 1.383 . S
C134 H157 0.931 . S
C135 C134 1.383 . S
C135 C136 1.394 . S
C136 C135 1.394 . S
C136 C137 1.378 . S
C136 H158 0.931 . S
C137 C132 1.377 . S
C137 C136 1.378 . S
C137 H159 0.931 . S
C138 O148 1.259 . S
C138 O149 1.270 . S
C139 O150 1.251 . S
C139 O151 1.251 . S
O140 C120 1.257 . S
O140 Eu121 2.473 . S
O141 C120 1.260 . S
O141 Eu121 2.480 . S
O142 Eu121 2.430 . S
O142 C128 1.259 . S
O143 Eu121 2.670 . S
O143 C128 1.270 . S
O143 Eu131 2.355 . S
O144 Eu121 2.394 . S
O144 C129 1.251 . S
O145 C129 1.251 . S
O145 Eu131 2.374 . S
O146 C130 1.257 . S
O146 Eu131 2.473 . S
O147 C130 1.260 . S
O147 Eu131 2.480 . S
O148 Eu131 2.430 . S
O148 C138 1.259 . S
O149 Eu121 2.355 . S
O149 Eu131 2.670 . S
O149 C138 1.270 . S
O150 Eu131 2.394 . S
O150 C139 1.251 . S
O151 Eu121 2.374 . S
O151 C139 1.251 . S
H152 C123 0.931 . S
H153 C124 0.931 . S
H154 C126 0.931 . S
H155 C127 0.931 . S
H156 C133 0.931 . S
H157 C134 0.931 . S
H158 C136 0.931 . S
H159 C137 0.931 . S
C160 Eu161 2.835 . S
C160 C162 1.500 . S
C160 O180 1.257 . S
C160 O181 1.260 . S
Eu161 C160 2.835 . S
Eu161 O180 2.473 . S
Eu161 O181 2.480 . S
Eu161 O182 2.430 . S
Eu161 O183 2.670 . S
Eu161 O184 2.394 . S
Eu161 O189 2.355 . S
Eu161 O191 2.374 . S
C162 C160 1.500 . S
C162 C163 1.377 . S
C162 C167 1.377 . S
C163 C162 1.377 . S
C163 C164 1.395 . S
C163 H192 0.931 . S
C164 C163 1.395 . S
C164 C165 1.383 . S
C164 H193 0.931 . S
C165 C164 1.383 . S
C165 C166 1.394 . S
C166 C165 1.394 . S
C166 C167 1.378 . S
C166 H194 0.931 . S
C167 C162 1.377 . S
C167 C166 1.378 . S
C167 H195 0.931 . S
C168 O182 1.259 . S
C168 O183 1.270 . S
C169 O184 1.251 . S
C169 O185 1.251 . S
C170 Eu171 2.835 . S
C170 C172 1.500 . S
C170 O186 1.257 . S
C170 O187 1.260 . S
Eu171 C170 2.835 . S
Eu171 O183 2.355 . S
Eu171 O185 2.374 . S
Eu171 O186 2.473 . S
Eu171 O187 2.480 . S
Eu171 O188 2.430 . S
Eu171 O189 2.670 . S
Eu171 O190 2.394 . S
C172 C170 1.500 . S
C172 C173 1.377 . S
C172 C177 1.377 . S
C173 C172 1.377 . S
C173 C174 1.395 . S
C173 H196 0.931 . S
C174 C173 1.395 . S
C174 C175 1.383 . S
C174 H197 0.931 . S
C175 C174 1.383 . S
C175 C176 1.394 . S
C176 C175 1.394 . S
C176 C177 1.378 . S
C176 H198 0.931 . S
C177 C172 1.377 . S
C177 C176 1.378 . S
C177 H199 0.931 . S
C178 O188 1.259 . S
C178 O189 1.270 . S
C179 O190 1.251 . S
C179 O191 1.251 . S
O180 C160 1.257 . S
O180 Eu161 2.473 . S
O181 C160 1.260 . S
O181 Eu161 2.480 . S
O182 Eu161 2.430 . S
O182 C168 1.259 . S
O183 Eu161 2.670 . S
O183 C168 1.270 . S
O183 Eu171 2.355 . S
O184 Eu161 2.394 . S
O184 C169 1.251 . S
O185 C169 1.251 . S
O185 Eu171 2.374 . S
O186 C170 1.257 . S
O186 Eu171 2.473 . S
O187 C170 1.260 . S
O187 Eu171 2.480 . S
O188 Eu171 2.430 . S
O188 C178 1.259 . S
O189 Eu161 2.355 . S
O189 Eu171 2.670 . S
O189 C178 1.270 . S
O190 Eu171 2.394 . S
O190 C179 1.251 . S
O191 Eu161 2.374 . S
O191 C179 1.251 . S
H192 C163 0.931 . S
H193 C164 0.931 . S
H194 C166 0.931 . S
H195 C167 0.931 . S
H196 C173 0.931 . S
H197 C174 0.931 . S
H198 C176 0.931 . S
H199 C177 0.931 . S
C200 Eu201 2.835 . S
C200 C202 1.500 . S
C200 O220 1.257 . S
C200 O221 1.260 . S
Eu201 C200 2.835 . S
Eu201 O220 2.473 . S
Eu201 O221 2.480 . S
Eu201 O222 2.430 . S
Eu201 O223 2.670 . S
Eu201 O224 2.394 . S
Eu201 O229 2.355 . S
Eu201 O231 2.374 . S
C202 C200 1.500 . S
C202 C203 1.377 . S
C202 C207 1.377 . S
C203 C202 1.377 . S
C203 C204 1.395 . S
C203 H232 0.931 . S
C204 C203 1.395 . S
C204 C205 1.383 . S
C204 H233 0.931 . S
C205 C204 1.383 . S
C205 C206 1.394 . S
C206 C205 1.394 . S
C206 C207 1.378 . S
C206 H234 0.931 . S
C207 C202 1.377 . S
C207 C206 1.378 . S
C207 H235 0.931 . S
C208 O222 1.259 . S
C208 O223 1.270 . S
C209 O224 1.251 . S
C209 O225 1.251 . S
C210 Eu211 2.835 1_554 S
C210 C212 1.500 . S
C210 O226 1.257 1_554 S
C210 O227 1.260 1_554 S
Eu211 C210 2.835 1_556 S
Eu211 O223 2.355 . S
Eu211 O225 2.374 . S
Eu211 O226 2.473 . S
Eu211 O227 2.480 . S
Eu211 O228 2.430 . S
Eu211 O229 2.670 . S
Eu211 O230 2.394 . S
C212 C210 1.500 . S
C212 C213 1.377 . S
C212 C217 1.377 . S
C213 C212 1.377 . S
C213 C214 1.395 . S
C213 H236 0.931 . S
C214 C213 1.395 . S
C214 C215 1.383 . S
C214 H237 0.931 . S
C215 C214 1.383 . S
C215 C216 1.394 . S
C216 C215 1.394 . S
C216 C217 1.378 . S
C216 H238 0.931 . S
C217 C212 1.377 . S
C217 C216 1.378 . S
C217 H239 0.931 . S
C218 O228 1.259 . S
C218 O229 1.270 . S
C219 O230 1.251 . S
C219 O231 1.251 . S
O220 C200 1.257 . S
O220 Eu201 2.473 . S
O221 C200 1.260 . S
O221 Eu201 2.480 . S
O222 Eu201 2.430 . S
O222 C208 1.259 . S
O223 Eu201 2.670 . S
O223 C208 1.270 . S
O223 Eu211 2.355 . S
O224 Eu201 2.394 . S
O224 C209 1.251 . S
O225 C209 1.251 . S
O225 Eu211 2.374 . S
O226 C210 1.257 1_556 S
O226 Eu211 2.473 . S
O227 C210 1.260 1_556 S
O227 Eu211 2.480 . S
O228 Eu211 2.430 . S
O228 C218 1.259 . S
O229 Eu201 2.355 . S
O229 Eu211 2.670 . S
O229 C218 1.270 . S
O230 Eu211 2.394 . S
O230 C219 1.251 . S
O231 Eu201 2.374 . S
O231 C219 1.251 . S
H232 C203 0.931 . S
H233 C204 0.931 . S
H234 C206 0.931 . S
H235 C207 0.931 . S
H236 C213 0.931 . S
H237 C214 0.931 . S
H238 C216 0.931 . S
H239 C217 0.931 . S
C240 Eu241 2.835 . S
C240 C242 1.500 . S
C240 O260 1.257 . S
C240 O261 1.260 . S
Eu241 C240 2.835 . S
Eu241 O260 2.473 . S
Eu241 O261 2.480 . S
Eu241 O262 2.430 . S
Eu241 O263 2.670 . S
Eu241 O264 2.394 . S
Eu241 O269 2.355 . S
Eu241 O271 2.374 . S
C242 C240 1.500 . S
C242 C243 1.377 . S
C242 C247 1.377 . S
C243 C242 1.377 . S
C243 C244 1.395 . S
C243 H272 0.931 . S
C244 C243 1.395 . S
C244 C245 1.383 . S
C244 H273 0.931 . S
C245 C244 1.383 . S
C245 C246 1.394 . S
C246 C245 1.394 . S
C246 C247 1.378 . S
C246 H274 0.931 . S
C247 C242 1.377 . S
C247 C246 1.378 . S
C247 H275 0.931 . S
C248 O262 1.259 . S
C248 O263 1.270 . S
C249 O264 1.251 . S
C249 O265 1.251 . S
C250 Eu251 2.835 . S
C250 C252 1.500 . S
C250 O266 1.257 . S
C250 O267 1.260 . S
Eu251 C250 2.835 . S
Eu251 O263 2.355 . S
Eu251 O265 2.374 . S
Eu251 O266 2.473 . S
Eu251 O267 2.480 . S
Eu251 O268 2.430 . S
Eu251 O269 2.670 . S
Eu251 O270 2.394 . S
C252 C250 1.500 . S
C252 C253 1.377 . S
C252 C257 1.377 . S
C253 C252 1.377 . S
C253 C254 1.395 . S
C253 H276 0.931 . S
C254 C253 1.395 . S
C254 C255 1.383 . S
C254 H277 0.931 . S
C255 C254 1.383 . S
C255 C256 1.394 . S
C256 C255 1.394 . S
C256 C257 1.378 . S
C256 H278 0.931 . S
C257 C252 1.377 . S
C257 C256 1.378 . S
C257 H279 0.931 . S
C258 O268 1.259 . S
C258 O269 1.270 . S
C259 O270 1.251 . S
C259 O271 1.251 . S
O260 C240 1.257 . S
O260 Eu241 2.473 . S
O261 C240 1.260 . S
O261 Eu241 2.480 . S
O262 Eu241 2.430 . S
O262 C248 1.259 . S
O263 Eu241 2.670 . S
O263 C248 1.270 . S
O263 Eu251 2.355 . S
O264 Eu241 2.394 . S
O264 C249 1.251 . S
O265 C249 1.251 . S
O265 Eu251 2.374 . S
O266 C250 1.257 . S
O266 Eu251 2.473 . S
O267 C250 1.260 . S
O267 Eu251 2.480 . S
O268 Eu251 2.430 . S
O268 C258 1.259 . S
O269 Eu241 2.355 . S
O269 Eu251 2.670 . S
O269 C258 1.270 . S
O270 Eu251 2.394 . S
O270 C259 1.251 . S
O271 Eu241 2.374 . S
O271 C259 1.251 . S
H272 C243 0.931 . S
H273 C244 0.931 . S
H274 C246 0.931 . S
H275 C247 0.931 . S
H276 C253 0.931 . S
H277 C254 0.931 . S
H278 C256 0.931 . S
H279 C257 0.931 . S
C280 Eu281 2.835 . S
C280 C282 1.500 . S
C280 O300 1.257 . S
C280 O301 1.260 . S
Eu281 C280 2.835 . S
Eu281 O300 2.473 . S
Eu281 O301 2.480 . S
Eu281 O302 2.430 . S
Eu281 O303 2.670 . S
Eu281 O304 2.394 . S
Eu281 O309 2.355 . S
Eu281 O311 2.374 . S
C282 C280 1.500 . S
C282 C283 1.377 . S
C282 C287 1.377 . S
C283 C282 1.377 . S
C283 C284 1.395 . S
C283 H312 0.931 . S
C284 C283 1.395 . S
C284 C285 1.383 . S
C284 H313 0.931 . S
C285 C284 1.383 . S
C285 C286 1.394 . S
C286 C285 1.394 . S
C286 C287 1.378 . S
C286 H314 0.931 . S
C287 C282 1.377 . S
C287 C286 1.378 . S
C287 H315 0.931 . S
C288 O302 1.259 . S
C288 O303 1.270 . S
C289 O304 1.251 . S
C289 O305 1.251 . S
C290 Eu291 2.835 . S
C290 C292 1.500 . S
C290 O306 1.257 . S
C290 O307 1.260 . S
Eu291 C290 2.835 . S
Eu291 O303 2.355 . S
Eu291 O305 2.374 . S
Eu291 O306 2.473 . S
Eu291 O307 2.480 . S
Eu291 O308 2.430 . S
Eu291 O309 2.670 . S
Eu291 O310 2.394 . S
C292 C290 1.500 . S
C292 C293 1.377 . S
C292 C297 1.377 . S
C293 C292 1.377 . S
C293 C294 1.395 . S
C293 H316 0.931 . S
C294 C293 1.395 . S
C294 C295 1.383 . S
C294 H317 0.931 . S
C295 C294 1.383 . S
C295 C296 1.394 . S
C296 C295 1.394 . S
C296 C297 1.378 . S
C296 H318 0.931 . S
C297 C292 1.377 . S
C297 C296 1.378 . S
C297 H319 0.931 . S
C298 O308 1.259 . S
C298 O309 1.270 . S
C299 O310 1.251 . S
C299 O311 1.251 . S
O300 C280 1.257 . S
O300 Eu281 2.473 . S
O301 C280 1.260 . S
O301 Eu281 2.480 . S
O302 Eu281 2.430 . S
O302 C288 1.259 . S
O303 Eu281 2.670 . S
O303 C288 1.270 . S
O303 Eu291 2.355 . S
O304 Eu281 2.394 . S
O304 C289 1.251 . S
O305 C289 1.251 . S
O305 Eu291 2.374 . S
O306 C290 1.257 . S
O306 Eu291 2.473 . S
O307 C290 1.260 . S
O307 Eu291 2.480 . S
O308 Eu291 2.430 . S
O308 C298 1.259 . S
O309 Eu281 2.355 . S
O309 Eu291 2.670 . S
O309 C298 1.270 . S
O310 Eu291 2.394 . S
O310 C299 1.251 . S
O311 Eu281 2.374 . S
O311 C299 1.251 . S
H312 C283 0.931 . S
H313 C284 0.931 . S
H314 C286 0.931 . S
H315 C287 0.931 . S
H316 C293 0.931 . S
H317 C294 0.931 . S
H318 C296 0.931 . S
H319 C297 0.931 . S
C320 Eu321 2.835 . S
C320 C322 1.500 . S
C320 O340 1.257 . S
C320 O341 1.260 . S
Eu321 C320 2.835 . S
Eu321 O340 2.473 . S
Eu321 O341 2.480 . S
Eu321 O342 2.430 . S
Eu321 O343 2.670 . S
Eu321 O344 2.394 . S
Eu321 O349 2.355 . S
Eu321 O351 2.374 . S
C322 C320 1.500 . S
C322 C323 1.377 . S
C322 C327 1.377 . S
C323 C322 1.377 . S
C323 C324 1.395 . S
C323 H352 0.931 . S
C324 C323 1.395 . S
C324 C325 1.383 . S
C324 H353 0.931 . S
C325 C324 1.383 . S
C325 C326 1.394 . S
C326 C325 1.394 . S
C326 C327 1.378 . S
C326 H354 0.931 . S
C327 C322 1.377 . S
C327 C326 1.378 . S
C327 H355 0.931 . S
C328 O342 1.259 . S
C328 O343 1.270 . S
C329 O344 1.251 . S
C329 O345 1.251 . S
C330 Eu331 2.835 1_556 S
C330 C332 1.500 . S
C330 O346 1.257 1_556 S
C330 O347 1.260 1_556 S
Eu331 C330 2.835 1_554 S
Eu331 O343 2.355 . S
Eu331 O345 2.374 . S
Eu331 O346 2.473 . S
Eu331 O347 2.480 . S
Eu331 O348 2.430 . S
Eu331 O349 2.670 . S
Eu331 O350 2.394 . S
C332 C330 1.500 . S
C332 C333 1.377 . S
C332 C337 1.377 . S
C333 C332 1.377 . S
C333 C334 1.395 . S
C333 H356 0.931 . S
C334 C333 1.395 . S
C334 C335 1.383 . S
C334 H357 0.931 . S
C335 C334 1.383 . S
C335 C336 1.394 . S
C336 C335 1.394 . S
C336 C337 1.378 . S
C336 H358 0.931 . S
C337 C332 1.377 . S
C337 C336 1.378 . S
C337 H359 0.931 . S
C338 O348 1.259 . S
C338 O349 1.270 . S
C339 O350 1.251 . S
C339 O351 1.251 . S
O340 C320 1.257 . S
O340 Eu321 2.473 . S
O341 C320 1.260 . S
O341 Eu321 2.480 . S
O342 Eu321 2.430 . S
O342 C328 1.259 . S
O343 Eu321 2.670 . S
O343 C328 1.270 . S
O343 Eu331 2.355 . S
O344 Eu321 2.394 . S
O344 C329 1.251 . S
O345 C329 1.251 . S
O345 Eu331 2.374 . S
O346 C330 1.257 1_554 S
O346 Eu331 2.473 . S
O347 C330 1.260 1_554 S
O347 Eu331 2.480 . S
O348 Eu331 2.430 . S
O348 C338 1.259 . S
O349 Eu321 2.355 . S
O349 Eu331 2.670 . S
O349 C338 1.270 . S
O350 Eu331 2.394 . S
O350 C339 1.251 . S
O351 Eu321 2.374 . S
O351 C339 1.251 . S
H352 C323 0.931 . S
H353 C324 0.931 . S
H354 C326 0.931 . S
H355 C327 0.931 . S
H356 C333 0.931 . S
H357 C334 0.931 . S
H358 C336 0.931 . S
H359 C337 0.931 . S
C360 Eu361 2.835 . S
C360 C362 1.500 . S
C360 O380 1.257 . S
C360 O381 1.260 . S
Eu361 C360 2.835 . S
Eu361 O380 2.473 . S
Eu361 O381 2.480 . S
Eu361 O382 2.430 . S
Eu361 O383 2.670 . S
Eu361 O384 2.394 . S
Eu361 O389 2.355 . S
Eu361 O391 2.374 . S
C362 C360 1.500 . S
C362 C363 1.377 . S
C362 C367 1.377 . S
C363 C362 1.377 . S
C363 C364 1.395 . S
C363 H392 0.931 . S
C364 C363 1.395 . S
C364 C365 1.383 . S
C364 H393 0.931 . S
C365 C364 1.383 . S
C365 C366 1.394 . S
C366 C365 1.394 . S
C366 C367 1.378 . S
C366 H394 0.931 . S
C367 C362 1.377 . S
C367 C366 1.378 . S
C367 H395 0.931 . S
C368 O382 1.259 . S
C368 O383 1.270 . S
C369 O384 1.251 . S
C369 O385 1.251 . S
C370 Eu371 2.835 . S
C370 C372 1.500 . S
C370 O386 1.257 . S
C370 O387 1.260 . S
Eu371 C370 2.835 . S
Eu371 O383 2.355 . S
Eu371 O385 2.374 . S
Eu371 O386 2.473 . S
Eu371 O387 2.480 . S
Eu371 O388 2.430 . S
Eu371 O389 2.670 . S
Eu371 O390 2.394 . S
C372 C370 1.500 . S
C372 C373 1.377 . S
C372 C377 1.377 . S
C373 C372 1.377 . S
C373 C374 1.395 . S
C373 H396 0.931 . S
C374 C373 1.395 . S
C374 C375 1.383 . S
C374 H397 0.931 . S
C375 C374 1.383 . S
C375 C376 1.394 . S
C376 C375 1.394 . S
C376 C377 1.378 . S
C376 H398 0.931 . S
C377 C372 1.377 . S
C377 C376 1.378 . S
C377 H399 0.931 . S
C378 O388 1.259 . S
C378 O389 1.270 . S
C379 O390 1.251 . S
C379 O391 1.251 . S
O380 C360 1.257 . S
O380 Eu361 2.473 . S
O381 C360 1.260 . S
O381 Eu361 2.480 . S
O382 Eu361 2.430 . S
O382 C368 1.259 . S
O383 Eu361 2.670 . S
O383 C368 1.270 . S
O383 Eu371 2.355 . S
O384 Eu361 2.394 . S
O384 C369 1.251 . S
O385 C369 1.251 . S
O385 Eu371 2.374 . S
O386 C370 1.257 . S
O386 Eu371 2.473 . S
O387 C370 1.260 . S
O387 Eu371 2.480 . S
O388 Eu371 2.430 . S
O388 C378 1.259 . S
O389 Eu361 2.355 . S
O389 Eu371 2.670 . S
O389 C378 1.270 . S
O390 Eu371 2.394 . S
O390 C379 1.251 . S
O391 Eu361 2.374 . S
O391 C379 1.251 . S
H392 C363 0.931 . S
H393 C364 0.931 . S
H394 C366 0.931 . S
H395 C367 0.931 . S
H396 C373 0.931 . S
H397 C374 0.931 . S
H398 C376 0.931 . S
H399 C377 0.931 . S
C400 Eu401 2.835 . S
C400 C402 1.500 . S
C400 O420 1.257 . S
C400 O421 1.260 . S
Eu401 C400 2.835 . S
Eu401 O420 2.473 . S
Eu401 O421 2.480 . S
Eu401 O422 2.430 . S
Eu401 O423 2.670 . S
Eu401 O424 2.394 . S
Eu401 O429 2.355 . S
Eu401 O431 2.374 . S
C402 C400 1.500 . S
C402 C403 1.377 . S
C402 C407 1.377 . S
C403 C402 1.377 . S
C403 C404 1.395 . S
C403 H432 0.931 . S
C404 C403 1.395 . S
C404 C405 1.383 . S
C404 H433 0.931 . S
C405 C404 1.383 . S
C405 C406 1.394 . S
C406 C405 1.394 . S
C406 C407 1.378 . S
C406 H434 0.931 . S
C407 C402 1.377 . S
C407 C406 1.378 . S
C407 H435 0.931 . S
C408 O422 1.259 . S
C408 O423 1.270 . S
C409 O424 1.251 . S
C409 O425 1.251 . S
C410 Eu411 2.835 . S
C410 C412 1.500 . S
C410 O426 1.257 . S
C410 O427 1.260 . S
Eu411 C410 2.835 . S
Eu411 O423 2.355 . S
Eu411 O425 2.374 . S
Eu411 O426 2.473 . S
Eu411 O427 2.480 . S
Eu411 O428 2.430 . S
Eu411 O429 2.670 . S
Eu411 O430 2.394 . S
C412 C410 1.500 . S
C412 C413 1.377 . S
C412 C417 1.377 . S
C413 C412 1.377 . S
C413 C414 1.395 . S
C413 H436 0.931 . S
C414 C413 1.395 . S
C414 C415 1.383 . S
C414 H437 0.931 . S
C415 C414 1.383 . S
C415 C416 1.394 . S
C416 C415 1.394 . S
C416 C417 1.378 . S
C416 H438 0.931 . S
C417 C412 1.377 . S
C417 C416 1.378 . S
C417 H439 0.931 . S
C418 O428 1.259 . S
C418 O429 1.270 . S
C419 O430 1.251 . S
C419 O431 1.251 . S
O420 C400 1.257 . S
O420 Eu401 2.473 . S
O421 C400 1.260 . S
O421 Eu401 2.480 . S
O422 Eu401 2.430 . S
O422 C408 1.259 . S
O423 Eu401 2.670 . S
O423 C408 1.270 . S
O423 Eu411 2.355 . S
O424 Eu401 2.394 . S
O424 C409 1.251 . S
O425 C409 1.251 . S
O425 Eu411 2.374 . S
O426 C410 1.257 . S
O426 Eu411 2.473 . S
O427 C410 1.260 . S
O427 Eu411 2.480 . S
O428 Eu411 2.430 . S
O428 C418 1.259 . S
O429 Eu401 2.355 . S
O429 Eu411 2.670 . S
O429 C418 1.270 . S
O430 Eu411 2.394 . S
O430 C419 1.251 . S
O431 Eu401 2.374 . S
O431 C419 1.251 . S
H432 C403 0.931 . S
H433 C404 0.931 . S
H434 C406 0.931 . S
H435 C407 0.931 . S
H436 C413 0.931 . S
H437 C414 0.931 . S
H438 C416 0.931 . S
H439 C417 0.931 . S
C440 Eu441 2.835 . S
C440 C442 1.500 . S
C440 O460 1.257 . S
C440 O461 1.260 . S
Eu441 C440 2.835 . S
Eu441 O460 2.473 . S
Eu441 O461 2.480 . S
Eu441 O462 2.430 . S
Eu441 O463 2.670 . S
Eu441 O464 2.394 . S
Eu441 O469 2.355 . S
Eu441 O471 2.374 . S
C442 C440 1.500 . S
C442 C443 1.377 . S
C442 C447 1.377 . S
C443 C442 1.377 . S
C443 C444 1.395 . S
C443 H472 0.931 . S
C444 C443 1.395 . S
C444 C445 1.383 . S
C444 H473 0.931 . S
C445 C444 1.383 . S
C445 C446 1.394 . S
C446 C445 1.394 . S
C446 C447 1.378 . S
C446 H474 0.931 . S
C447 C442 1.377 . S
C447 C446 1.378 . S
C447 H475 0.931 . S
C448 O462 1.259 . S
C448 O463 1.270 . S
C449 O464 1.251 . S
C449 O465 1.251 . S
C450 Eu451 2.835 1_556 S
C450 C452 1.500 . S
C450 O466 1.257 1_556 S
C450 O467 1.260 1_556 S
Eu451 C450 2.835 1_554 S
Eu451 O463 2.355 . S
Eu451 O465 2.374 . S
Eu451 O466 2.473 . S
Eu451 O467 2.480 . S
Eu451 O468 2.430 . S
Eu451 O469 2.670 . S
Eu451 O470 2.394 . S
C452 C450 1.500 . S
C452 C453 1.377 . S
C452 C457 1.377 . S
C453 C452 1.377 . S
C453 C454 1.395 . S
C453 H476 0.931 . S
C454 C453 1.395 . S
C454 C455 1.383 . S
C454 H477 0.931 . S
C455 C454 1.383 . S
C455 C456 1.394 . S
C456 C455 1.394 . S
C456 C457 1.378 . S
C456 H478 0.931 . S
C457 C452 1.377 . S
C457 C456 1.378 . S
C457 H479 0.931 . S
C458 O468 1.259 . S
C458 O469 1.270 . S
C459 O470 1.251 . S
C459 O471 1.251 . S
O460 C440 1.257 . S
O460 Eu441 2.473 . S
O461 C440 1.260 . S
O461 Eu441 2.480 . S
O462 Eu441 2.430 . S
O462 C448 1.259 . S
O463 Eu441 2.670 . S
O463 C448 1.270 . S
O463 Eu451 2.355 . S
O464 Eu441 2.394 . S
O464 C449 1.251 . S
O465 C449 1.251 . S
O465 Eu451 2.374 . S
O466 C450 1.257 1_554 S
O466 Eu451 2.473 . S
O467 C450 1.260 1_554 S
O467 Eu451 2.480 . S
O468 Eu451 2.430 . S
O468 C458 1.259 . S
O469 Eu441 2.355 . S
O469 Eu451 2.670 . S
O469 C458 1.270 . S
O470 Eu451 2.394 . S
O470 C459 1.251 . S
O471 Eu441 2.374 . S
O471 C459 1.251 . S
H472 C443 0.931 . S
H473 C444 0.931 . S
H474 C446 0.931 . S
H475 C447 0.931 . S
H476 C453 0.931 . S
H477 C454 0.931 . S
H478 C456 0.931 . S
H479 C457 0.931 . S
H480 C486 0.930 . S
H481 C490 0.930 . S
H482 C495 0.929 . S
H483 C493 0.929 . S
H484 C488 0.929 . S
H485 C494 0.929 . S
C486 H480 0.930 . S
C486 C487 1.367 . S
C486 C494 1.378 . S
C487 C486 1.367 . S
C487 C495 1.433 . S
C488 H484 0.929 . S
C488 C490 1.378 . S
C488 C492 1.350 . S
C489 C492 1.463 . S
C489 C494 1.350 . S
C489 N497 1.427 . S
C490 H481 0.930 . S
C490 C488 1.378 . S
C490 C491 1.367 . S
C491 C490 1.367 . S
C491 C493 1.433 . S
C492 C488 1.350 . S
C492 C489 1.463 . S
C492 N496 1.427 . S
C493 H483 0.929 . S
C493 C491 1.433 . S
C493 N496 1.384 . S
C494 H485 0.929 . S
C494 C486 1.378 . S
C494 C489 1.350 . S
C495 H482 0.929 . S
C495 C487 1.433 . S
C495 N497 1.384 . S
N496 C492 1.427 . S
N496 C493 1.384 . S
N497 C489 1.427 . S
N497 C495 1.384 . S
H498 C504 0.930 . S
H499 C508 0.930 . S
H500 C513 0.929 . S
H501 C511 0.929 . S
H502 C506 0.929 . S
H503 C512 0.929 . S
C504 H498 0.930 . S
C504 C505 1.367 . S
C504 C512 1.378 . S
C505 C504 1.367 . S
C505 C513 1.433 . S
C506 H502 0.929 . S
C506 C508 1.378 . S
C506 C510 1.350 . S
C507 C510 1.463 . S
C507 C512 1.350 . S
C507 N515 1.427 . S
C508 H499 0.930 . S
C508 C506 1.378 . S
C508 C509 1.367 . S
C509 C508 1.367 . S
C509 C511 1.433 . S
C510 C506 1.350 . S
C510 C507 1.463 . S
C510 N514 1.427 . S
C511 H501 0.929 . S
C511 C509 1.433 . S
C511 N514 1.384 . S
C512 H503 0.929 . S
C512 C504 1.378 . S
C512 C507 1.350 . S
C513 H500 0.929 . S
C513 C505 1.433 . S
C513 N515 1.384 . S
N514 C510 1.427 . S
N514 C511 1.384 . S
N515 C507 1.427 . S
N515 C513 1.384 . S
H516 C522 0.930 . S
H517 C526 0.930 . S
H518 C531 0.929 . S
H519 C529 0.929 . S
H520 C524 0.929 . S
H521 C530 0.929 . S
C522 H516 0.930 . S
C522 C523 1.367 . S
C522 C530 1.378 . S
C523 C522 1.367 . S
C523 C531 1.433 . S
C524 H520 0.929 . S
C524 C526 1.378 . S
C524 C528 1.350 . S
C525 C528 1.463 . S
C525 C530 1.350 . S
C525 N533 1.427 . S
C526 H517 0.930 . S
C526 C524 1.378 . S
C526 C527 1.367 . S
C527 C526 1.367 . S
C527 C529 1.433 . S
C528 C524 1.350 . S
C528 C525 1.463 . S
C528 N532 1.427 . S
C529 H519 0.929 . S
C529 C527 1.433 . S
C529 N532 1.384 . S
C530 H521 0.929 . S
C530 C522 1.378 . S
C530 C525 1.350 . S
C531 H518 0.929 . S
C531 C523 1.433 . S
C531 N533 1.384 . S
N532 C528 1.427 . S
N532 C529 1.384 . S
N533 C525 1.427 . S
N533 C531 1.384 . S
H534 C540 0.930 . S
H535 C544 0.930 . S
H536 C549 0.929 . S
H537 C547 0.929 . S
H538 C542 0.929 . S
H539 C548 0.929 . S
C540 H534 0.930 . S
C540 C541 1.367 . S
C540 C548 1.378 . S
C541 C540 1.367 . S
C541 C549 1.433 . S
C542 H538 0.929 . S
C542 C544 1.378 . S
C542 C546 1.350 . S
C543 C546 1.463 . S
C543 C548 1.350 . S
C543 N551 1.427 . S
C544 H535 0.930 . S
C544 C542 1.378 . S
C544 C545 1.367 . S
C545 C544 1.367 . S
C545 C547 1.433 . S
C546 C542 1.350 . S
C546 C543 1.463 . S
C546 N550 1.427 . S
C547 H537 0.929 . S
C547 C545 1.433 . S
C547 N550 1.384 . S
C548 H539 0.929 . S
C548 C540 1.378 . S
C548 C543 1.350 . S
C549 H536 0.929 . S
C549 C541 1.433 . S
C549 N551 1.384 . S
N550 C546 1.427 . S
N550 C547 1.384 . S
N551 C543 1.427 . S
N551 C549 1.384 . S
H552 C558 0.930 . S
H553 C562 0.930 . S
H554 C567 0.929 . S
H555 C565 0.929 . S
H556 C560 0.929 . S
H557 C566 0.929 . S
C558 H552 0.930 . S
C558 C559 1.367 . S
C558 C566 1.378 . S
C559 C558 1.367 . S
C559 C567 1.433 . S
C560 H556 0.929 . S
C560 C562 1.378 . S
C560 C564 1.350 . S
C561 C564 1.463 . S
C561 C566 1.350 . S
C561 N569 1.427 . S
C562 H553 0.930 . S
C562 C560 1.378 . S
C562 C563 1.367 . S
C563 C562 1.367 . S
C563 C565 1.433 . S
C564 C560 1.350 . S
C564 C561 1.463 . S
C564 N568 1.427 . S
C565 H555 0.929 . S
C565 C563 1.433 . S
C565 N568 1.384 . S
C566 H557 0.929 . S
C566 C558 1.378 . S
C566 C561 1.350 . S
C567 H554 0.929 . S
C567 C559 1.433 . S
C567 N569 1.384 . S
N568 C564 1.427 . S
N568 C565 1.384 . S
N569 C561 1.427 . S
N569 C567 1.384 . S
H570 C576 0.930 . S
H571 C580 0.930 . S
H572 C585 0.929 . S
H573 C583 0.929 . S
H574 C578 0.929 . S
H575 C584 0.929 . S
C576 H570 0.930 . S
C576 C577 1.367 . S
C576 C584 1.378 . S
C577 C576 1.367 . S
C577 C585 1.433 . S
C578 H574 0.929 . S
C578 C580 1.378 . S
C578 C582 1.350 . S
C579 C582 1.463 . S
C579 C584 1.350 . S
C579 N587 1.427 . S
C580 H571 0.930 . S
C580 C578 1.378 . S
C580 C581 1.367 . S
C581 C580 1.367 . S
C581 C583 1.433 . S
C582 C578 1.350 . S
C582 C579 1.463 . S
C582 N586 1.427 . S
C583 H573 0.929 . S
C583 C581 1.433 . S
C583 N586 1.384 . S
C584 H575 0.929 . S
C584 C576 1.378 . S
C584 C579 1.350 . S
C585 H572 0.929 . S
C585 C577 1.433 . S
C585 N587 1.384 . S
N586 C582 1.427 . S
N586 C583 1.384 . S
N587 C579 1.427 . S
N587 C585 1.384 . S
H588 C594 0.930 . S
H589 C598 0.930 . S
H590 C603 0.929 . S
H591 C601 0.929 . S
H592 C596 0.929 . S
H593 C602 0.929 . S
C594 H588 0.930 . S
C594 C595 1.367 . S
C594 C602 1.378 . S
C595 C594 1.367 . S
C595 C603 1.433 . S
C596 H592 0.929 . S
C596 C598 1.378 . S
C596 C600 1.350 . S
C597 C600 1.463 1_556 S
C597 C602 1.350 . S
C597 N605 1.427 . S
C598 H589 0.930 . S
C598 C596 1.378 . S
C598 C599 1.367 . S
C599 C598 1.367 . S
C599 C601 1.433 . S
C600 C596 1.350 . S
C600 C597 1.463 1_554 S
C600 N604 1.427 . S
C601 H591 0.929 . S
C601 C599 1.433 . S
C601 N604 1.384 . S
C602 H593 0.929 . S
C602 C594 1.378 . S
C602 C597 1.350 . S
C603 H590 0.929 . S
C603 C595 1.433 . S
C603 N605 1.384 . S
N604 C600 1.427 . S
N604 C601 1.384 . S
N605 C597 1.427 . S
N605 C603 1.384 . S
H606 C612 0.930 . S
H607 C616 0.930 . S
H608 C621 0.929 . S
H609 C619 0.929 . S
H610 C614 0.929 . S
H611 C620 0.929 . S
C612 H606 0.930 . S
C612 C613 1.367 . S
C612 C620 1.378 . S
C613 C612 1.367 . S
C613 C621 1.433 . S
C614 H610 0.929 . S
C614 C616 1.378 . S
C614 C618 1.350 . S
C615 C618 1.463 . S
C615 C620 1.350 . S
C615 N623 1.427 . S
C616 H607 0.930 . S
C616 C614 1.378 . S
C616 C617 1.367 . S
C617 C616 1.367 . S
C617 C619 1.433 . S
C618 C614 1.350 . S
C618 C615 1.463 . S
C618 N622 1.427 . S
C619 H609 0.929 . S
C619 C617 1.433 . S
C619 N622 1.384 . S
C620 H611 0.929 . S
C620 C612 1.378 . S
C620 C615 1.350 . S
C621 H608 0.929 . S
C621 C613 1.433 . S
C621 N623 1.384 . S
N622 C618 1.427 . S
N622 C619 1.384 . S
N623 C615 1.427 . S
N623 C621 1.384 . S
H624 C630 0.930 . S
H625 C634 0.930 . S
H626 C639 0.929 . S
H627 C637 0.929 . S
H628 C632 0.929 . S
H629 C638 0.929 . S
C630 H624 0.930 . S
C630 C631 1.367 . S
C630 C638 1.378 . S
C631 C630 1.367 . S
C631 C639 1.433 . S
C632 H628 0.929 . S
C632 C634 1.378 . S
C632 C636 1.350 . S
C633 C636 1.463 . S
C633 C638 1.350 . S
C633 N641 1.427 . S
C634 H625 0.930 . S
C634 C632 1.378 . S
C634 C635 1.367 . S
C635 C634 1.367 . S
C635 C637 1.433 . S
C636 C632 1.350 . S
C636 C633 1.463 . S
C636 N640 1.427 . S
C637 H627 0.929 . S
C637 C635 1.433 . S
C637 N640 1.384 . S
C638 H629 0.929 . S
C638 C630 1.378 . S
C638 C633 1.350 . S
C639 H626 0.929 . S
C639 C631 1.433 . S
C639 N641 1.384 . S
N640 C636 1.427 . S
N640 C637 1.384 . S
N641 C633 1.427 . S
N641 C639 1.384 . S
H642 C648 0.930 . S
H643 C652 0.930 . S
H644 C657 0.929 . S
H645 C655 0.929 . S
H646 C650 0.929 1_556 S
H647 C656 0.929 1_554 S
C648 H642 0.930 . S
C648 C649 1.367 . S
C648 C656 1.378 . S
C649 C648 1.367 . S
C649 C657 1.433 . S
C650 H646 0.929 1_554 S
C650 C652 1.378 . S
C650 C654 1.350 . S
C651 C654 1.463 1_556 S
C651 C656 1.350 . S
C651 N659 1.427 . S
C652 H643 0.930 . S
C652 C650 1.378 . S
C652 C653 1.367 . S
C653 C652 1.367 . S
C653 C655 1.433 . S
C654 C650 1.350 . S
C654 C651 1.463 1_554 S
C654 N658 1.427 . S
C655 H645 0.929 . S
C655 C653 1.433 . S
C655 N658 1.384 . S
C656 H647 0.929 1_556 S
C656 C648 1.378 . S
C656 C651 1.350 . S
C657 H644 0.929 . S
C657 C649 1.433 . S
C657 N659 1.384 . S
N658 C654 1.427 . S
N658 C655 1.384 . S
N659 C651 1.427 . S
N659 C657 1.384 . S
H660 C666 0.930 . S
H661 C670 0.930 . S
H662 C675 0.929 . S
H663 C673 0.929 . S
H664 C668 0.929 . S
H665 C674 0.929 . S
C666 H660 0.930 . S
C666 C667 1.367 . S
C666 C674 1.378 . S
C667 C666 1.367 . S
C667 C675 1.433 . S
C668 H664 0.929 . S
C668 C670 1.378 . S
C668 C672 1.350 . S
C669 C672 1.463 . S
C669 C674 1.350 . S
C669 N677 1.427 . S
C670 H661 0.930 . S
C670 C668 1.378 . S
C670 C671 1.367 . S
C671 C670 1.367 . S
C671 C673 1.433 . S
C672 C668 1.350 . S
C672 C669 1.463 . S
C672 N676 1.427 . S
C673 H663 0.929 . S
C673 C671 1.433 . S
C673 N676 1.384 . S
C674 H665 0.929 . S
C674 C666 1.378 . S
C674 C669 1.350 . S
C675 H662 0.929 . S
C675 C667 1.433 . S
C675 N677 1.384 . S
N676 C672 1.427 . S
N676 C673 1.384 . S
N677 C669 1.427 . S
N677 C675 1.384 . S
H678 C684 0.930 . S
H679 C688 0.930 . S
H680 C693 0.929 . S
H681 C691 0.929 . S
H682 C686 0.929 . S
H683 C692 0.929 . S
C684 H678 0.930 . S
C684 C685 1.367 . S
C684 C692 1.378 . S
C685 C684 1.367 . S
C685 C693 1.433 . S
C686 H682 0.929 . S
C686 C688 1.378 . S
C686 C690 1.350 . S
C687 C690 1.463 . S
C687 C692 1.350 . S
C687 N695 1.427 . S
C688 H679 0.930 . S
C688 C686 1.378 . S
C688 C689 1.367 . S
C689 C688 1.367 . S
C689 C691 1.433 . S
C690 C686 1.350 . S
C690 C687 1.463 . S
C690 N694 1.427 . S
C691 H681 0.929 . S
C691 C689 1.433 . S
C691 N694 1.384 . S
C692 H683 0.929 . S
C692 C684 1.378 . S
C692 C687 1.350 . S
C693 H680 0.929 . S
C693 C685 1.433 . S
C693 N695 1.384 . S
N694 C690 1.427 . S
N694 C691 1.384 . S
N695 C687 1.427 . S
N695 C693 1.384 . S
H696 C702 0.930 . S
H697 C706 0.930 . S
H698 C711 0.929 . S
H699 C709 0.929 . S
H700 C704 0.929 . S
H701 C710 0.929 . S
C702 H696 0.930 . S
C702 C703 1.367 . S
C702 C710 1.378 1_565 S
C703 C702 1.367 . S
C703 C711 1.433 . S
C704 H700 0.929 . S
C704 C706 1.378 1_565 S
C704 C708 1.350 1_565 S
C705 C708 1.463 1_566 S
C705 C710 1.350 1_565 S
C705 N713 1.427 . S
C706 H697 0.930 . S
C706 C704 1.378 1_545 S
C706 C707 1.367 . S
C707 C706 1.367 . S
C707 C709 1.433 . S
C708 C704 1.350 1_545 S
C708 C705 1.463 1_544 S
C708 N712 1.427 . S
C709 H699 0.929 . S
C709 C707 1.433 . S
C709 N712 1.384 . S
C710 H701 0.929 . S
C710 C702 1.378 1_545 S
C710 C705 1.350 1_545 S
C711 H698 0.929 . S
C711 C703 1.433 . S
C711 N713 1.384 . S
N712 C708 1.427 . S
N712 C709 1.384 . S
N713 C705 1.427 . S
N713 C711 1.384 . S
H714 C720 0.930 . S
H715 C724 0.930 . S
H716 C729 0.929 . S
H717 C727 0.929 . S
H718 C722 0.929 . S
H719 C728 0.929 . S
C720 H714 0.930 . S
C720 C721 1.367 . S
C720 C728 1.378 . S
C721 C720 1.367 . S
C721 C729 1.433 . S
C722 H718 0.929 . S
C722 C724 1.378 . S
C722 C726 1.350 . S
C723 C726 1.463 . S
C723 C728 1.350 . S
C723 N731 1.427 . S
C724 H715 0.930 . S
C724 C722 1.378 . S
C724 C725 1.367 . S
C725 C724 1.367 . S
C725 C727 1.433 . S
C726 C722 1.350 . S
C726 C723 1.463 . S
C726 N730 1.427 . S
C727 H717 0.929 . S
C727 C725 1.433 . S
C727 N730 1.384 . S
C728 H719 0.929 . S
C728 C720 1.378 . S
C728 C723 1.350 . S
C729 H716 0.929 . S
C729 C721 1.433 . S
C729 N731 1.384 . S
N730 C726 1.427 . S
N730 C727 1.384 . S
N731 C723 1.427 . S
N731 C729 1.384 . S
H732 C738 0.929 . S
H733 C742 0.929 . S
H734 C747 0.929 . S
H735 C745 0.929 . S
H736 C740 0.929 . S
H737 C746 0.929 . S
C738 H732 0.929 . S
C738 C739 1.367 . S
C738 C746 1.378 1_455 S
C739 C738 1.367 . S
C739 C747 1.433 . S
C740 H736 0.929 . S
C740 C742 1.378 1_455 S
C740 C744 1.350 1_455 S
C741 C744 1.463 1_455 S
C741 C746 1.350 1_455 S
C741 N749 1.427 . S
C742 H733 0.929 . S
C742 C740 1.378 1_655 S
C742 C743 1.367 . S
C743 C742 1.367 . S
C743 C745 1.433 . S
C744 C740 1.350 1_655 S
C744 C741 1.463 1_655 S
C744 N748 1.427 . S
C745 H735 0.929 . S
C745 C743 1.433 . S
C745 N748 1.384 . S
C746 H737 0.929 . S
C746 C738 1.378 1_655 S
C746 C741 1.350 1_655 S
C747 H734 0.929 . S
C747 C739 1.433 . S
C747 N749 1.384 . S
N748 C744 1.427 . S
N748 C745 1.384 . S
N749 C741 1.427 . S
N749 C747 1.384 . S
H750 C756 0.930 . S
H751 C760 0.930 . S
H752 C765 0.927 1_545 S
H753 C763 0.927 1_565 S
H754 C758 0.929 1_554 S
H755 C764 0.929 1_556 S
C756 H750 0.930 . S
C756 C757 1.367 . S
C756 C764 1.378 . S
C757 C756 1.367 . S
C757 C765 1.433 . S
C758 H754 0.929 1_556 S
C758 C760 1.378 . S
C758 C762 1.350 . S
C759 C762 1.463 1_564 S
C759 C764 1.350 . S
C759 N767 1.427 1_565 S
C760 H751 0.930 . S
C760 C758 1.378 . S
C760 C761 1.367 . S
C761 C760 1.367 . S
C761 C763 1.433 . S
C762 C758 1.350 . S
C762 C759 1.463 1_546 S
C762 N766 1.427 1_545 S
C763 H753 0.927 1_545 S
C763 C761 1.433 . S
C763 N766 1.384 1_545 S
C764 H755 0.929 1_554 S
C764 C756 1.378 . S
C764 C759 1.350 . S
C765 H752 0.927 1_565 S
C765 C757 1.433 . S
C765 N767 1.384 1_565 S
N766 C762 1.427 1_565 S
N766 C763 1.384 1_565 S
N767 C759 1.427 1_545 S
N767 C765 1.384 1_545 S
H768 C774 0.930 . S
H769 C778 0.930 . S
H770 C783 0.929 . S
H771 C781 0.929 . S
H772 C776 0.929 . S
H773 C782 0.929 . S
C774 H768 0.930 . S
C774 C775 1.367 . S
C774 C782 1.378 . S
C775 C774 1.367 . S
C775 C783 1.433 . S
C776 H772 0.929 . S
C776 C778 1.378 . S
C776 C780 1.350 . S
C777 C780 1.463 . S
C777 C782 1.350 . S
C777 N785 1.427 . S
C778 H769 0.930 . S
C778 C776 1.378 . S
C778 C779 1.367 . S
C779 C778 1.367 . S
C779 C781 1.433 . S
C780 C776 1.350 . S
C780 C777 1.463 . S
C780 N784 1.427 . S
C781 H771 0.929 . S
C781 C779 1.433 . S
C781 N784 1.384 . S
C782 H773 0.929 . S
C782 C774 1.378 . S
C782 C777 1.350 . S
C783 H770 0.929 . S
C783 C775 1.433 . S
C783 N785 1.384 . S
N784 C780 1.427 . S
N784 C781 1.384 . S
N785 C777 1.427 . S
N785 C783 1.384 . S
H786 C792 0.930 1_655 S
H787 C796 0.930 1_455 S
H788 C801 0.929 . S
H789 C799 0.929 . S
H790 C794 0.929 . S
H791 C800 0.929 . S
C792 H786 0.930 1_455 S
C792 C793 1.367 . S
C792 C800 1.378 1_455 S
C793 C792 1.367 . S
C793 C801 1.433 . S
C794 H790 0.929 . S
C794 C796 1.378 1_455 S
C794 C798 1.350 1_455 S
C795 C798 1.463 1_455 S
C795 C800 1.350 1_455 S
C795 N803 1.427 . S
C796 H787 0.930 1_655 S
C796 C794 1.378 1_655 S
C796 C797 1.367 . S
C797 C796 1.367 . S
C797 C799 1.433 . S
C798 C794 1.350 1_655 S
C798 C795 1.463 1_655 S
C798 N802 1.427 . S
C799 H789 0.929 . S
C799 C797 1.433 . S
C799 N802 1.384 . S
C800 H791 0.929 . S
C800 C792 1.378 1_655 S
C800 C795 1.350 1_655 S
C801 H788 0.929 . S
C801 C793 1.433 . S
C801 N803 1.384 . S
N802 C798 1.427 . S
N802 C799 1.384 . S
N803 C795 1.427 . S
N803 C801 1.384 . S
H804 C810 0.930 . S
H805 C814 0.930 . S
H806 C819 0.929 . S
H807 C817 0.929 . S
H808 C812 0.929 1_545 S
H809 C818 0.929 1_565 S
C810 H804 0.930 . S
C810 C811 1.367 . S
C810 C818 1.378 . S
C811 C810 1.367 . S
C811 C819 1.433 . S
C812 H808 0.929 1_565 S
C812 C814 1.378 . S
C812 C816 1.350 . S
C813 C816 1.463 1_545 S
C813 C818 1.350 . S
C813 N821 1.427 . S
C814 H805 0.930 . S
C814 C812 1.378 . S
C814 C815 1.367 . S
C815 C814 1.367 . S
C815 C817 1.433 . S
C816 C812 1.350 . S
C816 C813 1.463 1_565 S
C816 N820 1.427 . S
C817 H807 0.929 . S
C817 C815 1.433 . S
C817 N820 1.384 . S
C818 H809 0.929 1_545 S
C818 C810 1.378 . S
C818 C813 1.350 . S
C819 H806 0.929 . S
C819 C811 1.433 . S
C819 N821 1.384 . S
N820 C816 1.427 . S
N820 C817 1.384 . S
N821 C813 1.427 . S
N821 C819 1.384 . S
H822 C828 0.930 . S
H823 C832 0.930 . S
H824 C837 0.929 . S
H825 C835 0.929 . S
H826 C830 0.929 . S
H827 C836 0.929 . S
C828 H822 0.930 . S
C828 C829 1.367 . S
C828 C836 1.378 . S
C829 C828 1.367 . S
C829 C837 1.433 . S
C830 H826 0.929 . S
C830 C832 1.378 . S
C830 C834 1.350 . S
C831 C834 1.463 . S
C831 C836 1.350 . S
C831 N839 1.427 . S
C832 H823 0.930 . S
C832 C830 1.378 . S
C832 C833 1.367 . S
C833 C832 1.367 . S
C833 C835 1.433 . S
C834 C830 1.350 . S
C834 C831 1.463 . S
C834 N838 1.427 . S
C835 H825 0.929 . S
C835 C833 1.433 . S
C835 N838 1.384 . S
C836 H827 0.929 . S
C836 C828 1.378 . S
C836 C831 1.350 . S
C837 H824 0.929 . S
C837 C829 1.433 . S
C837 N839 1.384 . S
N838 C834 1.427 . S
N838 C835 1.384 . S
N839 C831 1.427 . S
N839 C837 1.384 . S
H840 C846 0.930 . S
H841 C850 0.930 . S
H842 C855 0.929 . S
H843 C853 0.929 . S
H844 C848 0.929 . S
H845 C854 0.929 . S
C846 H840 0.930 . S
C846 C847 1.367 . S
C846 C854 1.378 . S
C847 C846 1.367 . S
C847 C855 1.433 . S
C848 H844 0.929 . S
C848 C850 1.378 . S
C848 C852 1.350 . S
C849 C852 1.463 1_655 S
C849 C854 1.350 . S
C849 N857 1.427 . S
C850 H841 0.930 . S
C850 C848 1.378 . S
C850 C851 1.367 . S
C851 C850 1.367 . S
C851 C853 1.433 . S
C852 C848 1.350 . S
C852 C849 1.463 1_455 S
C852 N856 1.427 . S
C853 H843 0.929 . S
C853 C851 1.433 . S
C853 N856 1.384 . S
C854 H845 0.929 . S
C854 C846 1.378 . S
C854 C849 1.350 . S
C855 H842 0.929 . S
C855 C847 1.433 . S
C855 N857 1.384 . S
N856 C852 1.427 . S
N856 C853 1.384 . S
N857 C849 1.427 . S
N857 C855 1.384 . S
H858 C864 0.930 . S
H859 C868 0.930 . S
H860 C873 0.929 . S
H861 C871 0.929 . S
H862 C866 0.929 . S
H863 C872 0.929 . S
C864 H858 0.930 . S
C864 C865 1.367 . S
C864 C872 1.378 . S
C865 C864 1.367 . S
C865 C873 1.433 . S
C866 H862 0.929 . S
C866 C868 1.378 . S
C866 C870 1.350 . S
C867 C870 1.463 1_455 S
C867 C872 1.350 . S
C867 N875 1.427 . S
C868 H859 0.930 . S
C868 C866 1.378 . S
C868 C869 1.367 . S
C869 C868 1.367 . S
C869 C871 1.433 . S
C870 C866 1.350 . S
C870 C867 1.463 1_655 S
C870 N874 1.427 . S
C871 H861 0.929 . S
C871 C869 1.433 . S
C871 N874 1.384 . S
C872 H863 0.929 . S
C872 C864 1.378 . S
C872 C867 1.350 . S
C873 H860 0.929 . S
C873 C865 1.433 . S
C873 N875 1.384 . S
N874 C870 1.427 . S
N874 C871 1.384 . S
N875 C867 1.427 . S
N875 C873 1.384 . S
H876 C882 0.930 . S
H877 C886 0.930 . S
H878 C891 0.929 . S
H879 C889 0.929 . S
H880 C884 0.929 . S
H881 C890 0.929 . S
C882 H876 0.930 . S
C882 C883 1.367 . S
C882 C890 1.378 . S
C883 C882 1.367 . S
C883 C891 1.433 . S
C884 H880 0.929 . S
C884 C886 1.378 . S
C884 C888 1.350 . S
C885 C888 1.463 1_565 S
C885 C890 1.350 . S
C885 N893 1.427 . S
C886 H877 0.930 . S
C886 C884 1.378 . S
C886 C887 1.367 . S
C887 C886 1.367 . S
C887 C889 1.433 . S
C888 C884 1.350 . S
C888 C885 1.463 1_545 S
C888 N892 1.427 . S
C889 H879 0.929 . S
C889 C887 1.433 . S
C889 N892 1.384 . S
C890 H881 0.929 . S
C890 C882 1.378 . S
C890 C885 1.350 . S
C891 H878 0.929 . S
C891 C883 1.433 . S
C891 N893 1.384 . S
N892 C888 1.427 . S
N892 C889 1.384 . S
N893 C885 1.427 . S
N893 C891 1.384 . S
H894 C900 0.930 . S
H895 C904 0.930 . S
H896 C909 0.929 . S
H897 C907 0.929 . S
H898 C902 0.929 . S
H899 C908 0.929 . S
C900 H894 0.930 . S
C900 C901 1.367 . S
C900 C908 1.378 . S
C901 C900 1.367 . S
C901 C909 1.433 . S
C902 H898 0.929 . S
C902 C904 1.378 . S
C902 C906 1.350 . S
C903 C906 1.463 . S
C903 C908 1.350 . S
C903 N911 1.427 . S
C904 H895 0.930 . S
C904 C902 1.378 . S
C904 C905 1.367 . S
C905 C904 1.367 . S
C905 C907 1.433 . S
C906 C902 1.350 . S
C906 C903 1.463 . S
C906 N910 1.427 . S
C907 H897 0.929 . S
C907 C905 1.433 . S
C907 N910 1.384 . S
C908 H899 0.929 . S
C908 C900 1.378 . S
C908 C903 1.350 . S
C909 H896 0.929 . S
C909 C901 1.433 . S
C909 N911 1.384 . S
N910 C906 1.427 . S
N910 C907 1.384 . S
N911 C903 1.427 . S
N911 C909 1.384 . S
H912 C918 0.930 . S
H913 C922 0.930 . S
H914 C927 0.929 . S
H915 C925 0.929 . S
H916 C920 0.929 1_565 S
H917 C926 0.929 1_545 S
C918 H912 0.930 . S
C918 C919 1.367 . S
C918 C926 1.378 . S
C919 C918 1.367 . S
C919 C927 1.433 . S
C920 H916 0.929 1_545 S
C920 C922 1.378 . S
C920 C924 1.350 . S
C921 C924 1.463 1_565 S
C921 C926 1.350 . S
C921 N929 1.427 . S
C922 H913 0.930 . S
C922 C920 1.378 . S
C922 C923 1.367 . S
C923 C922 1.367 . S
C923 C925 1.433 . S
C924 C920 1.350 . S
C924 C921 1.463 1_545 S
C924 N928 1.427 . S
C925 H915 0.929 . S
C925 C923 1.433 . S
C925 N928 1.384 . S
C926 H917 0.929 1_565 S
C926 C918 1.378 . S
C926 C921 1.350 . S
C927 H914 0.929 . S
C927 C919 1.433 . S
C927 N929 1.384 . S
N928 C924 1.427 . S
N928 C925 1.384 . S
N929 C921 1.427 . S
N929 C927 1.384 . S
H930 C936 0.930 . S
H931 C940 0.930 . S
H932 C945 0.929 . S
H933 C943 0.929 . S
H934 C938 0.929 . S
H935 C944 0.929 . S
C936 H930 0.930 . S
C936 C937 1.367 . S
C936 C944 1.378 . S
C937 C936 1.367 . S
C937 C945 1.433 . S
C938 H934 0.929 . S
C938 C940 1.378 . S
C938 C942 1.350 . S
C939 C942 1.463 . S
C939 C944 1.350 . S
C939 N947 1.427 . S
C940 H931 0.930 . S
C940 C938 1.378 . S
C940 C941 1.367 . S
C941 C940 1.367 . S
C941 C943 1.433 . S
C942 C938 1.350 . S
C942 C939 1.463 . S
C942 N946 1.427 . S
C943 H933 0.929 . S
C943 C941 1.433 . S
C943 N946 1.384 . S
C944 H935 0.929 . S
C944 C936 1.378 . S
C944 C939 1.350 . S
C945 H932 0.929 . S
C945 C937 1.433 . S
C945 N947 1.384 . S
N946 C942 1.427 . S
N946 C943 1.384 . S
N947 C939 1.427 . S
N947 C945 1.384 . S
H948 C954 0.930 . S
H949 C958 0.930 . S
H950 C963 0.929 . S
H951 C961 0.929 . S
H952 C956 0.929 . S
H953 C962 0.929 . S
C954 H948 0.930 . S
C954 C955 1.367 . S
C954 C962 1.378 . S
C955 C954 1.367 . S
C955 C963 1.433 . S
C956 H952 0.929 . S
C956 C958 1.378 . S
C956 C960 1.350 . S
C957 C960 1.463 1_655 S
C957 C962 1.350 . S
C957 N965 1.427 . S
C958 H949 0.930 . S
C958 C956 1.378 . S
C958 C959 1.367 . S
C959 C958 1.367 . S
C959 C961 1.433 . S
C960 C956 1.350 . S
C960 C957 1.463 1_455 S
C960 N964 1.427 . S
C961 H951 0.929 . S
C961 C959 1.433 . S
C961 N964 1.384 . S
C962 H953 0.929 . S
C962 C954 1.378 . S
C962 C957 1.350 . S
C963 H950 0.929 . S
C963 C955 1.433 . S
C963 N965 1.384 . S
N964 C960 1.427 . S
N964 C961 1.384 . S
N965 C957 1.427 . S
N965 C963 1.384 . S
H966 C972 0.930 . S
H967 C976 0.930 . S
H968 C981 0.929 . S
H969 C979 0.929 . S
H970 C974 0.929 . S
H971 C980 0.929 . S
C972 H966 0.930 . S
C972 C973 1.367 . S
C972 C980 1.378 . S
C973 C972 1.367 . S
C973 C981 1.433 . S
C974 H970 0.929 . S
C974 C976 1.378 . S
C974 C978 1.350 . S
C975 C978 1.463 1_545 S
C975 C980 1.350 . S
C975 N983 1.427 . S
C976 H967 0.930 . S
C976 C974 1.378 . S
C976 C977 1.367 . S
C977 C976 1.367 . S
C977 C979 1.433 . S
C978 C974 1.350 . S
C978 C975 1.463 1_565 S
C978 N982 1.427 . S
C979 H969 0.929 . S
C979 C977 1.433 . S
C979 N982 1.384 . S
C980 H971 0.929 . S
C980 C972 1.378 . S
C980 C975 1.350 . S
C981 H968 0.929 . S
C981 C973 1.433 . S
C981 N983 1.384 . S
N982 C978 1.427 . S
N982 C979 1.384 . S
N983 C975 1.427 . S
N983 C981 1.384 . S
H984 C990 0.930 . S
H985 C994 0.930 . S
H986 C999 0.929 . S
H987 C997 0.929 . S
H988 C992 0.929 . S
H989 C998 0.929 . S
C990 H984 0.930 . S
C990 C991 1.367 . S
C990 C998 1.378 . S
C991 C990 1.367 . S
C991 C999 1.433 . S
C992 H988 0.929 . S
C992 C994 1.378 . S
C992 C996 1.350 . S
C993 C996 1.463 . S
C993 C998 1.350 . S
C993 N1001 1.427 . S
C994 H985 0.930 . S
C994 C992 1.378 . S
C994 C995 1.367 . S
C995 C994 1.367 . S
C995 C997 1.433 . S
C996 C992 1.350 . S
C996 C993 1.463 . S
C996 N1000 1.427 . S
C997 H987 0.929 . S
C997 C995 1.433 . S
C997 N1000 1.384 . S
C998 H989 0.929 . S
C998 C990 1.378 . S
C998 C993 1.350 . S
C999 H986 0.929 . S
C999 C991 1.433 . S
C999 N1001 1.384 . S
N1000 C996 1.427 . S
N1000 C997 1.384 . S
N1001 C993 1.427 . S
N1001 C999 1.384 . S
H1002 C1008 0.930 . S
H1003 C1012 0.930 . S
H1004 C1017 0.929 . S
H1005 C1015 0.929 . S
H1006 C1010 0.929 . S
H1007 C1016 0.929 . S
C1008 H1002 0.930 . S
C1008 C1009 1.367 . S
C1008 C1016 1.378 . S
C1009 C1008 1.367 . S
C1009 C1017 1.433 . S
C1010 H1006 0.929 . S
C1010 C1012 1.378 . S
C1010 C1014 1.350 . S
C1011 C1014 1.463 1_455 S
C1011 C1016 1.350 . S
C1011 N1019 1.427 . S
C1012 H1003 0.930 . S
C1012 C1010 1.378 . S
C1012 C1013 1.367 . S
C1013 C1012 1.367 . S
C1013 C1015 1.433 . S
C1014 C1010 1.350 . S
C1014 C1011 1.463 1_655 S
C1014 N1018 1.427 . S
C1015 H1005 0.929 . S
C1015 C1013 1.433 . S
C1015 N1018 1.384 . S
C1016 H1007 0.929 . S
C1016 C1008 1.378 . S
C1016 C1011 1.350 . S
C1017 H1004 0.929 . S
C1017 C1009 1.433 . S
C1017 N1019 1.384 . S
N1018 C1014 1.427 . S
N1018 C1015 1.384 . S
N1019 C1011 1.427 . S
N1019 C1017 1.384 . S
H1020 C1026 0.930 . S
H1021 C1030 0.930 . S
H1022 C1035 0.929 . S
H1023 C1033 0.929 . S
H1024 C1028 0.929 . S
H1025 C1034 0.929 . S
C1026 H1020 0.930 . S
C1026 C1027 1.367 . S
C1026 C1034 1.378 . S
C1027 C1026 1.367 . S
C1027 C1035 1.433 . S
C1028 H1024 0.929 . S
C1028 C1030 1.378 . S
C1028 C1032 1.350 . S
C1029 C1032 1.463 . S
C1029 C1034 1.350 . S
C1029 N1037 1.427 . S
C1030 H1021 0.930 . S
C1030 C1028 1.378 . S
C1030 C1031 1.367 . S
C1031 C1030 1.367 . S
C1031 C1033 1.433 . S
C1032 C1028 1.350 . S
C1032 C1029 1.463 . S
C1032 N1036 1.427 . S
C1033 H1023 0.929 . S
C1033 C1031 1.433 . S
C1033 N1036 1.384 . S
C1034 H1025 0.929 . S
C1034 C1026 1.378 . S
C1034 C1029 1.350 . S
C1035 H1022 0.929 . S
C1035 C1027 1.433 . S
C1035 N1037 1.384 . S
N1036 C1032 1.427 . S
N1036 C1033 1.384 . S
N1037 C1029 1.427 . S
N1037 C1035 1.384 . S
H1038 C1044 0.930 . S
H1039 C1048 0.930 . S
H1040 C1053 0.929 . S
H1041 C1051 0.929 . S
H1042 C1046 0.929 . S
H1043 C1052 0.929 . S
C1044 H1038 0.930 . S
C1044 C1045 1.367 . S
C1044 C1052 1.378 . S
C1045 C1044 1.367 . S
C1045 C1053 1.433 . S
C1046 H1042 0.929 . S
C1046 C1048 1.378 . S
C1046 C1050 1.350 . S
C1047 C1050 1.463 . S
C1047 C1052 1.350 . S
C1047 N1055 1.427 . S
C1048 H1039 0.930 . S
C1048 C1046 1.378 . S
C1048 C1049 1.367 . S
C1049 C1048 1.367 . S
C1049 C1051 1.433 . S
C1050 C1046 1.350 . S
C1050 C1047 1.463 . S
C1050 N1054 1.427 . S
C1051 H1041 0.929 . S
C1051 C1049 1.433 . S
C1051 N1054 1.384 . S
C1052 H1043 0.929 . S
C1052 C1044 1.378 . S
C1052 C1047 1.350 . S
C1053 H1040 0.929 . S
C1053 C1045 1.433 . S
C1053 N1055 1.384 . S
N1054 C1050 1.427 . S
N1054 C1051 1.384 . S
N1055 C1047 1.427 . S
N1055 C1053 1.384 . S
H1056 C1062 0.930 . S
H1057 C1066 0.930 . S
H1058 C1071 0.929 . S
H1059 C1069 0.929 . S
H1060 C1064 0.929 . S
H1061 C1070 0.929 . S
C1062 H1056 0.930 . S
C1062 C1063 1.367 . S
C1062 C1070 1.378 . S
C1063 C1062 1.367 . S
C1063 C1071 1.433 . S
C1064 H1060 0.929 . S
C1064 C1066 1.378 . S
C1064 C1068 1.350 . S
C1065 C1068 1.463 . S
C1065 C1070 1.350 . S
C1065 N1073 1.427 . S
C1066 H1057 0.930 . S
C1066 C1064 1.378 . S
C1066 C1067 1.367 . S
C1067 C1066 1.367 . S
C1067 C1069 1.433 . S
C1068 C1064 1.350 . S
C1068 C1065 1.463 . S
C1068 N1072 1.427 . S
C1069 H1059 0.929 . S
C1069 C1067 1.433 . S
C1069 N1072 1.384 . S
C1070 H1061 0.929 . S
C1070 C1062 1.378 . S
C1070 C1065 1.350 . S
C1071 H1058 0.929 . S
C1071 C1063 1.433 . S
C1071 N1073 1.384 . S
N1072 C1068 1.427 . S
N1072 C1069 1.384 . S
N1073 C1065 1.427 . S
N1073 C1071 1.384 . S
H1074 C1080 0.930 . S
H1075 C1084 0.930 . S
H1076 C1089 0.929 . S
H1077 C1087 0.929 . S
H1078 C1082 0.929 . S
H1079 C1088 0.929 . S
C1080 H1074 0.930 . S
C1080 C1081 1.367 . S
C1080 C1088 1.378 . S
C1081 C1080 1.367 . S
C1081 C1089 1.433 . S
C1082 H1078 0.929 . S
C1082 C1084 1.378 . S
C1082 C1086 1.350 . S
C1083 C1086 1.463 . S
C1083 C1088 1.350 . S
C1083 N1091 1.427 . S
C1084 H1075 0.930 . S
C1084 C1082 1.378 . S
C1084 C1085 1.367 . S
C1085 C1084 1.367 . S
C1085 C1087 1.433 . S
C1086 C1082 1.350 . S
C1086 C1083 1.463 . S
C1086 N1090 1.427 . S
C1087 H1077 0.929 . S
C1087 C1085 1.433 . S
C1087 N1090 1.384 . S
C1088 H1079 0.929 . S
C1088 C1080 1.378 . S
C1088 C1083 1.350 . S
C1089 H1076 0.929 . S
C1089 C1081 1.433 . S
C1089 N1091 1.384 . S
N1090 C1086 1.427 . S
N1090 C1087 1.384 . S
N1091 C1083 1.427 . S
N1091 C1089 1.384 . S
H1092 C1098 0.930 . S
H1093 C1102 0.930 . S
H1094 C1107 0.929 . S
H1095 C1105 0.929 . S
H1096 C1100 0.929 . S
H1097 C1106 0.929 . S
C1098 H1092 0.930 . S
C1098 C1099 1.367 . S
C1098 C1106 1.378 . S
C1099 C1098 1.367 . S
C1099 C1107 1.433 . S
C1100 H1096 0.929 . S
C1100 C1102 1.378 . S
C1100 C1104 1.350 . S
C1101 C1104 1.463 . S
C1101 C1106 1.350 . S
C1101 N1109 1.427 . S
C1102 H1093 0.930 . S
C1102 C1100 1.378 . S
C1102 C1103 1.367 . S
C1103 C1102 1.367 . S
C1103 C1105 1.433 . S
C1104 C1100 1.350 . S
C1104 C1101 1.463 . S
C1104 N1108 1.427 . S
C1105 H1095 0.929 . S
C1105 C1103 1.433 . S
C1105 N1108 1.384 . S
C1106 H1097 0.929 . S
C1106 C1098 1.378 . S
C1106 C1101 1.350 . S
C1107 H1094 0.929 . S
C1107 C1099 1.433 . S
C1107 N1109 1.384 . S
N1108 C1104 1.427 . S
N1108 C1105 1.384 . S
N1109 C1101 1.427 . S
N1109 C1107 1.384 . S
H1110 C1116 0.930 . S
H1111 C1120 0.930 . S
H1112 C1125 0.929 . S
H1113 C1123 0.929 . S
H1114 C1118 0.929 . S
H1115 C1124 0.929 . S
C1116 H1110 0.930 . S
C1116 C1117 1.367 . S
C1116 C1124 1.378 . S
C1117 C1116 1.367 . S
C1117 C1125 1.433 . S
C1118 H1114 0.929 . S
C1118 C1120 1.378 . S
C1118 C1122 1.350 . S
C1119 C1122 1.463 . S
C1119 C1124 1.350 . S
C1119 N1127 1.427 . S
C1120 H1111 0.930 . S
C1120 C1118 1.378 . S
C1120 C1121 1.367 . S
C1121 C1120 1.367 . S
C1121 C1123 1.433 . S
C1122 C1118 1.350 . S
C1122 C1119 1.463 . S
C1122 N1126 1.427 . S
C1123 H1113 0.929 . S
C1123 C1121 1.433 . S
C1123 N1126 1.384 . S
C1124 H1115 0.929 . S
C1124 C1116 1.378 . S
C1124 C1119 1.350 . S
C1125 H1112 0.929 . S
C1125 C1117 1.433 . S
C1125 N1127 1.384 . S
N1126 C1122 1.427 . S
N1126 C1123 1.384 . S
N1127 C1119 1.427 . S
N1127 C1125 1.384 . S
C487 C18 1.064 . S
C491 C338 1.058 . S
C505 C58 1.053 . S
C509 C378 1.064 . S
C523 C98 1.063 . S
C527 C418 1.051 . S
C541 C458 1.061 . S
C545 C138 1.062 . S
C559 C178 1.048 . S
C563 C258 1.062 . S
C577 C298 1.047 . S
C581 C218 1.043 . S
C595 C405 1.597 . S
C599 C5 1.606 . S
C613 C445 1.593 . S
C617 C45 1.601 . S
C631 C85 1.606 . S
C635 C245 1.605 . S
C649 C285 1.607 . S
C653 C125 1.601 . S
C667 C325 1.594 . S
C671 C165 1.601 . S
C685 C205 1.594 . S
C689 C365 1.602 . S
C703 C289 4.317 . S
C707 C9 4.315 . S
C721 C329 4.320 . S
C725 C49 4.318 . S
C739 C369 4.315 . S
C743 C89 4.317 . S
C757 C129 4.318 . S
C761 C409 4.320 . S
C775 C169 4.315 . S
C779 C449 4.318 . S
C793 C209 4.317 . S
C797 C249 4.316 . S
C811 C8 0.600 . S
C815 C128 0.589 . S
C829 C48 0.561 . S
C833 C168 0.578 . S
C847 C88 0.563 . S
C851 C208 0.580 . S
C865 C368 0.573 . S
C869 C248 0.558 . S
C883 C288 0.556 . S
C887 C408 0.559 . S
C901 C448 0.565 . S
C905 C328 0.582 . S
C919 C295 0.651 . S
C923 C15 0.660 . S
C937 C335 0.678 . S
C941 C55 0.658 . S
C955 C95 0.656 . S
C959 C375 0.674 . S
C973 C415 0.689 . S
C977 C135 0.680 . S
C991 C455 0.682 . S
C995 C175 0.663 . S
C1009 C215 0.689 . S
C1013 C255 0.680 . S
C1027 C19 4.661 . S
C1031 C419 4.660 . S
C1045 C59 4.661 . S
C1049 C459 4.659 1_556 S
C1063 C99 4.661 1_554 S
C1067 C259 4.660 . S
C1081 C139 4.659 . S
C1085 C299 4.661 . S
C1099 C179 4.660 . S
C1103 C339 4.660 1_556 S
C1117 C379 4.661 . S
C1121 C219 4.659 1_554 S
