# Generated by pormake.
# Topology uni, (4)-cn, num edge types: 1
# Building blocks:
#     Node 0, Type 0, BuildingBlock: TATPOV_clean_sbu_0, # of connection points: 4
#     Node 1, Type 0, BuildingBlock: TATPOV_clean_sbu_0, # of connection points: 4
#     Node 2, Type 0, BuildingBlock: TATPOV_clean_sbu_0, # of connection points: 4
#     Node 3, Type 0, BuildingBlock: TATPOV_clean_sbu_0, # of connection points: 4
#     Node 4, Type 0, BuildingBlock: TATPOV_clean_sbu_0, # of connection points: 4
#     Node 5, Type 0, BuildingBlock: TATPOV_clean_sbu_0, # of connection points: 4
#     Edge 6, Type (0, 0), BuildingBlock: UVAHIK_clean_linker_0, # of connection points: 2
#     Edge 7, Type (0, 0), BuildingBlock: UVAHIK_clean_linker_0, # of connection points: 2
#     Edge 8, Type (0, 0), BuildingBlock: UVAHIK_clean_linker_0, # of connection points: 2
#     Edge 9, Type (0, 0), BuildingBlock: UVAHIK_clean_linker_0, # of connection points: 2
#     Edge 10, Type (0, 0), BuildingBlock: UVAHIK_clean_linker_0, # of connection points: 2
#     Edge 11, Type (0, 0), BuildingBlock: UVAHIK_clean_linker_0, # of connection points: 2
#     Edge 12, Type (0, 0), BuildingBlock: UVAHIK_clean_linker_0, # of connection points: 2
#     Edge 13, Type (0, 0), BuildingBlock: UVAHIK_clean_linker_0, # of connection points: 2
#     Edge 14, Type (0, 0), BuildingBlock: UVAHIK_clean_linker_0, # of connection points: 2
#     Edge 15, Type (0, 0), BuildingBlock: UVAHIK_clean_linker_0, # of connection points: 2
#     Edge 16, Type (0, 0), BuildingBlock: UVAHIK_clean_linker_0, # of connection points: 2
#     Edge 17, Type (0, 0), BuildingBlock: UVAHIK_clean_linker_0, # of connection points: 2
# Relax obj value: 0.034
# Max RMSD: 0.067
# Mean RMSD: 0.067
data_MOF--net-uni--node1-TATPOV_clean_sbu_0--edge1-UVAHIK_clean_linker_0
_symmetry_space_group_name_H-M    P1
_symmetry_Int_Tables_number       1
_symmetry_cell_setting            triclinic
loop_
_symmetry_equiv_pos_as_xyz
'x, y, z'
_cell_length_a     49.873304
_cell_length_b     49.848828
_cell_length_c     29.704334
_cell_angle_alpha  90.018046
_cell_angle_beta   90.031486
_cell_angle_gamma 119.96526
loop_
_atom_site_label
_atom_site_type_symbol
_atom_site_fract_x
_atom_site_fract_y
_atom_site_fract_z
_atom_type_partial_charge
Zn0 Zn 0.55741 0.9113 0.05818 0.0
Zn1 Zn 0.61467 0.96206 0.04828 0.0
O2 O 0.62533 0.9285 0.06592 0.0
O3 O 0.57915 0.88756 0.07563 0.0
O4 O 0.6552 1.00121 0.03696 0.0
O5 O 0.54701 0.91504 0.99311 0.0
O6 O 0.59299 0.95665 0.9877 0.0
C7 C 0.60839 0.90004 0.07634 0.0
C8 C 0.56883 0.96207 0.11731 0.0
O9 O 0.59537 0.975 0.09865 0.0
O10 O 0.54844 0.93489 0.10596 0.0
C11 C 0.68235 0.005 0.03472 0.0
O12 O 0.68657 0.98134 0.04165 0.0
C13 C 0.56687 0.93781 0.97034 0.0
Zn14 Zn 0.67711 0.56188 0.22666 0.0
Zn15 Zn 0.68269 0.61913 0.22832 0.0
O16 O 0.72739 0.62912 0.2416 0.0
O17 O 0.72305 0.58291 0.23948 0.0
O18 O 0.6842 0.66027 0.2257 0.0
O19 O 0.66157 0.55561 0.16229 0.0
O20 O 0.6648 0.60123 0.1663 0.0
C21 C 0.73955 0.61195 0.24472 0.0
C22 C 0.63878 0.56879 0.29381 0.0
O23 O 0.65151 0.5963 0.27848 0.0
O24 O 0.64591 0.54959 0.27781 0.0
C25 C 0.70266 0.6822 0.20009 0.0
O26 O 0.72312 0.67893 0.17647 0.0
C27 C 0.65763 0.5765 0.14461 0.0
Zn28 Zn 0.13866 0.65633 0.39639 0.0
Zn29 Zn 0.08842 0.66361 0.38671 0.0
O30 O 0.12245 0.70771 0.4042 0.0
O31 O 0.1628 0.70149 0.41461 0.0
O32 O 0.04989 0.66595 0.37406 0.0
O33 O 0.1352 0.64233 0.33139 0.0
O34 O 0.09352 0.64664 0.32655 0.0
C35 C 0.15075 0.71865 0.41515 0.0
C36 C 0.0878 0.61758 0.45575 0.0
O37 O 0.07502 0.63152 0.43751 0.0
O38 O 0.11473 0.62389 0.44382 0.0
C39 C 0.0442 0.68765 0.38234 0.0
O40 O 0.0651 0.71283 0.40287 0.0
C41 C 0.11222 0.63926 0.30896 0.0
Zn42 Zn 0.49452 0.12561 0.55836 0.0
Zn43 Zn 0.43609 0.07627 0.54923 0.0
O44 O 0.42828 0.11174 0.56722 0.0
O45 O 0.47529 0.15148 0.57649 0.0
O46 O 0.39327 0.03945 0.53863 0.0
O47 O 0.50344 0.12087 0.49304 0.0
O48 O 0.45674 0.08018 0.48813 0.0
C49 C 0.44619 0.14009 0.57751 0.0
C50 C 0.48189 0.07435 0.61702 0.0
O51 O 0.45523 0.0622 0.59874 0.0
O52 O 0.50278 0.10131 0.60571 0.0
C53 C 0.37974 0.01721 0.56637 0.0
O54 O 0.39317 0.01843 0.60496 0.0
C55 C 0.48296 0.09835 0.47049 0.0
Zn56 Zn 0.39641 0.48976 0.72403 0.0
Zn57 Zn 0.38733 0.43196 0.72509 0.0
O58 O 0.34383 0.42425 0.74192 0.0
O59 O 0.35271 0.47213 0.74722 0.0
O60 O 0.38368 0.38986 0.72213 0.0
O61 O 0.40632 0.49412 0.65768 0.0
O62 O 0.40362 0.4488 0.66169 0.0
C63 C 0.33449 0.44324 0.75108 0.0
C64 C 0.43665 0.48224 0.78551 0.0
O65 O 0.42031 0.45388 0.77422 0.0
O66 O 0.43187 0.50255 0.76768 0.0
C67 C 0.3646 0.3682 0.69665 0.0
O68 O 0.34472 0.37235 0.67294 0.0
C69 C 0.40968 0.47304 0.63943 0.0
Zn70 Zn 0.92499 0.37788 0.89675 0.0
Zn71 Zn 0.97459 0.36916 0.88869 0.0
O72 O 0.93897 0.32526 0.9037 0.0
O73 O 0.89873 0.33208 0.90935 0.0
O74 O 0.01209 0.36413 0.87868 0.0
O75 O 0.93145 0.39412 0.83298 0.0
O76 O 0.97169 0.38733 0.82803 0.0
C77 C 0.91014 0.31437 0.91074 0.0
C78 C 0.97438 0.41458 0.959 0.0
O79 O 0.98726 0.40106 0.93984 0.0
O80 O 0.94745 0.40838 0.94723 0.0
C81 C 0.03406 0.37289 0.90696 0.0
O82 O 0.03194 0.38412 0.94594 0.0
C83 C 0.95408 0.39626 0.81071 0.0
C84 C 0.53118 0.96582 0.16902 0.0
C85 C 0.56119 0.9792 0.15092 0.0
C86 C 0.52345 0.98228 0.19933 0.0
C87 C 0.55727 0.04637 0.28052 0.0
H88 H 0.4773 0.04138 0.27133 0.0
C89 C 0.52059 0.10906 0.40765 0.0
C90 C 0.49077 0.09091 0.4258 0.0
C91 C 0.5295 0.09934 0.36917 0.0
C92 C 0.49966 0.04291 0.27446 0.0
H93 H 0.60667 0.02041 0.15082 0.0
H94 H 0.59311 0.04912 0.20396 0.0
H95 H 0.4927 0.01631 0.21456 0.0
H96 H 0.44636 0.0492 0.41608 0.0
H97 H 0.46196 0.03215 0.34945 0.0
H98 H 0.56396 0.07225 0.341 0.0
C99 C 0.57563 0.02581 0.19472 0.0
C100 C 0.50846 0.02852 0.24198 0.0
C101 C 0.58337 0.00937 0.16421 0.0
C102 C 0.46953 0.06374 0.40309 0.0
C103 C 0.47845 0.05401 0.36468 0.0
C104 C 0.54844 0.06069 0.31308 0.0
C105 C 0.54553 0.01249 0.21241 0.0
C106 C 0.53716 0.02968 0.24505 0.0
C107 C 0.50879 0.07126 0.34797 0.0
C108 C 0.51933 0.05873 0.31083 0.0
H109 H 0.51351 0.94263 0.1596 0.0
H110 H 0.5002 0.97117 0.21294 0.0
H111 H 0.57938 0.04741 0.2841 0.0
H112 H 0.53749 0.13023 0.4241 0.0
H113 H 0.55287 0.11345 0.35665 0.0
C114 C 0.6004 0.52858 0.3464 0.0
C115 C 0.61423 0.55866 0.32842 0.0
C116 C 0.57599 0.51844 0.37706 0.0
C117 C 0.53897 0.54723 0.45639 0.0
H118 H 0.4698 0.46325 0.44862 0.0
C119 C 0.43401 0.50665 0.57201 0.0
C120 C 0.425 0.47875 0.59496 0.0
C121 C 0.45371 0.51499 0.53487 0.0
C122 C 0.48901 0.48672 0.45127 0.0
H123 H 0.61331 0.60173 0.32883 0.0
H124 H 0.5706 0.58396 0.38184 0.0
H125 H 0.51207 0.48115 0.39429 0.0
H126 H 0.42777 0.43665 0.59467 0.0
H127 H 0.46224 0.45131 0.52991 0.0
H128 H 0.51612 0.55279 0.51344 0.0
C129 C 0.57887 0.56831 0.37274 0.0
C130 C 0.51328 0.49695 0.42029 0.0
C131 C 0.60333 0.57848 0.34221 0.0
C132 C 0.43432 0.45836 0.57788 0.0
C133 C 0.45405 0.46672 0.54067 0.0
C134 C 0.5147 0.53705 0.48717 0.0
C135 C 0.56479 0.53812 0.39037 0.0
C136 C 0.53865 0.52729 0.42267 0.0
C137 C 0.46482 0.49562 0.51979 0.0
C138 C 0.48951 0.50666 0.48512 0.0
H139 H 0.60826 0.51272 0.33658 0.0
H140 H 0.56603 0.49523 0.39057 0.0
H141 H 0.55836 0.57055 0.4597 0.0
H142 H 0.42703 0.52278 0.58396 0.0
H143 H 0.46109 0.53712 0.51886 0.0
C144 C 0.94358 0.42359 0.74827 0.0
C145 C 0.96194 0.41216 0.76654 0.0
C146 C 0.95325 0.44233 0.70995 0.0
C147 C 0.00931 0.46898 0.61527 0.0
H148 H 0.00376 0.54371 0.62395 0.0
C149 C 0.08461 0.57671 0.50795 0.0
C150 C 0.07093 0.59305 0.4897 0.0
C151 C 0.06852 0.55277 0.53867 0.0
C152 C 0.00507 0.52276 0.62064 0.0
H153 H 0.0041 0.41019 0.75743 0.0
H154 H 0.02105 0.44307 0.69096 0.0
H155 H 0.97978 0.50387 0.68159 0.0
H156 H 0.02958 0.5971 0.48977 0.0
H157 H 1.00145 0.55518 0.54368 0.0
H158 H 0.03525 0.48826 0.55484 0.0
C159 C 0.99906 0.43737 0.706 0.0
C160 C 0.99128 0.49987 0.65363 0.0
C161 C 0.98938 0.4186 0.74429 0.0
C162 C 0.04082 0.58504 0.50327 0.0
C163 C 0.02473 0.56108 0.5342 0.0
C164 C 0.02314 0.49188 0.58233 0.0
C165 C 0.98147 0.45007 0.68904 0.0
C166 C 0.99364 0.47292 0.65169 0.0
C167 C 0.03836 0.54458 0.55202 0.0
C168 C 0.02161 0.51925 0.58506 0.0
H169 H 0.92219 0.41891 0.76436 0.0
H170 H 0.93891 0.4513 0.69723 0.0
H171 H 0.01112 0.44828 0.61241 0.0
H172 H 0.10777 0.58227 0.49837 0.0
H173 H 0.07988 0.54089 0.5524 0.0
C174 C 0.52836 0.92666 0.90847 0.0
C175 C 0.5585 0.94471 0.92565 0.0
C176 C 0.51915 0.936 0.86984 0.0
C177 C 0.54863 0.9907 0.7731 0.0
H178 H 0.47006 0.98854 0.78377 0.0
C179 C 0.51915 0.06926 0.6679 0.0
C180 C 0.48907 0.05664 0.65026 0.0
C181 C 0.52643 0.05235 0.698 0.0
C182 C 0.49183 0.9889 0.7799 0.0
H183 H 0.60312 0.98579 0.91413 0.0
H184 H 0.58704 0.00213 0.84729 0.0
H185 H 0.48522 0.96364 0.84099 0.0
H186 H 0.44299 0.01629 0.65071 0.0
H187 H 0.45576 0.9868 0.70359 0.0
H188 H 0.55558 0.01673 0.71264 0.0
C189 C 0.57051 0.98065 0.86336 0.0
C190 C 0.50051 0.97455 0.81264 0.0
C191 C 0.5797 0.97134 0.90191 0.0
C192 C 0.46636 0.02675 0.66375 0.0
C193 C 0.47364 0.00986 0.69411 0.0
C194 C 0.53999 0.00511 0.74045 0.0
C195 C 0.5399 0.96354 0.84752 0.0
C196 C 0.52926 0.97575 0.81007 0.0
C197 C 0.50382 0.02244 0.71137 0.0
C198 C 0.51175 0.00486 0.74393 0.0
H199 H 0.51147 0.90592 0.92577 0.0
H200 H 0.49556 0.92201 0.85806 0.0
H201 H 0.57069 0.9916 0.76969 0.0
H202 H 0.53723 0.09221 0.65831 0.0
H203 H 0.54975 0.06291 0.71128 0.0
C204 C 0.62519 0.58608 0.0903 0.0
C205 C 0.64142 0.57065 0.10096 0.0
C206 C 0.60627 0.57772 0.05225 0.0
C207 C 0.56519 0.51221 0.97194 0.0
H208 H 0.5472 0.57091 0.91361 0.0
C209 C 0.48832 0.52148 0.81512 0.0
C210 C 0.46204 0.49193 0.81834 0.0
C211 C 0.51248 0.53106 0.84602 0.0
C212 C 0.55222 0.55417 0.92875 0.0
H213 H 0.65208 0.53561 0.07878 0.0
H214 H 0.62043 0.52212 0.0109 0.0
H215 H 0.58735 0.58893 0.97015 0.0
H216 H 0.44025 0.44916 0.85626 0.0
H217 H 0.48149 0.46643 0.91205 0.0
H218 H 0.53119 0.47773 0.92876 0.0
C219 C 0.62119 0.53981 0.03287 0.0
C220 C 0.575 0.56449 0.96203 0.0
C221 C 0.63962 0.54774 0.07155 0.0
C222 C 0.46036 0.47204 0.85298 0.0
C223 C 0.4842 0.48192 0.8847 0.0
C224 C 0.54288 0.50199 0.93788 0.0
C225 C 0.60362 0.55414 0.02328 0.0
C226 C 0.58142 0.54359 0.98479 0.0
C227 C 0.51061 0.51165 0.88174 0.0
C228 C 0.53567 0.52272 0.9163 0.0
H229 H 0.62586 0.60364 0.11255 0.0
H230 H 0.59278 0.58897 0.04677 0.0
H231 H 0.56906 0.49522 0.98891 0.0
H232 H 0.49042 0.53711 0.78825 0.0
H233 H 0.53268 0.55373 0.84162 0.0
C234 C 0.97819 0.45558 0.01165 0.0
C235 C 0.99145 0.43889 0.99326 0.0
C236 C 0.9948 0.47976 0.04191 0.0
C237 C 0.05931 0.51053 0.1223 0.0
H238 H 0.05507 0.58584 0.11083 0.0
C239 C 0.1228 0.61139 0.24723 0.0
C240 C 0.10481 0.6235 0.26464 0.0
C241 C 0.11294 0.59225 0.20923 0.0
C242 C 0.05639 0.56492 0.11461 0.0
H243 H 0.03252 0.43436 0.99288 0.0
H244 H 0.06146 0.47655 0.04604 0.0
H245 H 0.02944 0.54469 0.05519 0.0
H246 H 0.06328 0.62644 0.25409 0.0
H247 H 0.04603 0.59295 0.1884 0.0
H248 H 0.08552 0.53032 0.18236 0.0
C249 C 0.03815 0.4708 0.03698 0.0
C250 C 0.04169 0.54135 0.08277 0.0
C251 C 0.02157 0.44665 0.00648 0.0
C252 C 0.0777 0.61749 0.24168 0.0
C253 C 0.06786 0.59835 0.20378 0.0
C254 C 0.07393 0.53407 0.15426 0.0
C255 C 0.02503 0.4878 0.05468 0.0
C256 C 0.04255 0.51368 0.08669 0.0
C257 C 0.08492 0.58483 0.18781 0.0
C258 C 0.07223 0.56135 0.1512 0.0
H259 H 0.95504 0.45024 0.00232 0.0
H260 H 0.98385 0.49206 0.05557 0.0
H261 H 0.06016 0.48938 0.12644 0.0
H262 H 0.14389 0.61569 0.26393 0.0
H263 H 0.12691 0.58264 0.19728 0.0
C264 C 0.67295 0.70995 0.21127 0.0
C265 C 0.69882 0.70955 0.19336 0.0
C266 C 0.66763 0.73432 0.20167 0.0
C267 C 0.68724 0.79652 0.11792 0.0
H268 H 0.64501 0.82134 0.20351 0.0
C269 C 0.65384 0.8913 0.08226 0.0
C270 C 0.62254 0.88145 0.09089 0.0
C271 C 0.66677 0.87337 0.09636 0.0
C272 C 0.65686 0.81465 0.17931 0.0
H273 H 0.7401 0.73515 0.15274 0.0
H274 H 0.73129 0.77819 0.13696 0.0
H275 H 0.66212 0.78541 0.22677 0.0
H276 H 0.58043 0.84529 0.1216 0.0
H277 H 0.6031 0.81449 0.14667 0.0
H278 H 0.6819 0.82603 0.07057 0.0
C279 C 0.71466 0.75924 0.15755 0.0
C280 C 0.66653 0.79394 0.1925 0.0
C281 C 0.71984 0.73466 0.16685 0.0
C282 C 0.60458 0.85352 0.11423 0.0
C283 C 0.61759 0.83596 0.12891 0.0
C284 C 0.67788 0.81759 0.10491 0.0
C285 C 0.68822 0.75917 0.17427 0.0
C286 C 0.68115 0.78395 0.16168 0.0
C287 C 0.64877 0.84564 0.1201 0.0
C288 C 0.66194 0.82626 0.13518 0.0
H289 H 0.65618 0.69091 0.23162 0.0
H290 H 0.64673 0.73307 0.21456 0.0
H291 H 0.69809 0.78915 0.09306 0.0
H292 H 0.66826 0.9127 0.06431 0.0
H293 H 0.69089 0.88134 0.08921 0.0
C294 C 0.99308 0.65801 0.34349 0.0
C295 C 0.01443 0.68456 0.36728 0.0
C296 C 0.9653 0.655 0.32809 0.0
C297 C 0.9097 0.68191 0.34641 0.0
H298 H 0.87995 0.64462 0.22904 0.0
C299 C 0.79079 0.65578 0.27157 0.0
C300 C 0.77293 0.62542 0.25492 0.0
C301 C 0.82198 0.66748 0.28295 0.0
C302 C 0.88794 0.65507 0.26189 0.0
H303 H 0.02305 0.7287 0.39394 0.0
H304 H 0.9742 0.72336 0.36685 0.0
H305 H 0.93141 0.65692 0.25384 0.0
H306 H 0.77405 0.58387 0.23633 0.0
H307 H 0.82808 0.60425 0.25574 0.0
H308 H 0.86575 0.67941 0.35458 0.0
C309 C 0.97912 0.70487 0.36033 0.0
C310 C 0.91738 0.66205 0.27615 0.0
C311 C 0.00711 0.70795 0.3757 0.0
C312 C 0.78705 0.60732 0.24912 0.0
C313 C 0.81814 0.61908 0.25995 0.0
C314 C 0.88015 0.67497 0.33202 0.0
C315 C 0.95803 0.67843 0.336 0.0
C316 C 0.92829 0.67472 0.31908 0.0
C317 C 0.83594 0.6492 0.27719 0.0
C318 C 0.86867 0.66067 0.29011 0.0
H319 H 0.99782 0.63944 0.33654 0.0
H320 H 0.94931 0.63405 0.31029 0.0
H321 H 0.91739 0.69157 0.37972 0.0
H322 H 0.78055 0.67027 0.27651 0.0
H323 H 0.83521 0.69082 0.29605 0.0
C324 C 0.16284 0.77408 0.41744 0.0
C325 C 0.16956 0.75101 0.43082 0.0
C326 C 0.18132 0.80468 0.43236 0.0
C327 C 0.23049 0.85068 0.52408 0.0
H328 H 0.28012 0.91487 0.43788 0.0
C329 C 0.34067 0.96135 0.57767 0.0
C330 C 0.35064 0.98895 0.55358 0.0
C331 C 0.3147 0.93393 0.56364 0.0
C332 C 0.26597 0.89755 0.46252 0.0
H333 H 0.20029 0.74168 0.47114 0.0
H334 H 0.23174 0.79469 0.49811 0.0
H335 H 0.24071 0.86385 0.4112 0.0
H336 H 0.34039 0.00977 0.49693 0.0
H337 H 0.29433 0.96215 0.47332 0.0
H338 H 0.25524 0.88395 0.57551 0.0
C339 C 0.21254 0.78922 0.47566 0.0
C340 C 0.24348 0.8683 0.4471 0.0
C341 C 0.19465 0.75897 0.45997 0.0
C342 C 0.33341 0.98879 0.51601 0.0
C343 C 0.3071 0.96141 0.50231 0.0
C344 C 0.2525 0.88002 0.53953 0.0
C345 C 0.20617 0.81235 0.46185 0.0
C346 C 0.22621 0.84444 0.47779 0.0
C347 C 0.29766 0.93346 0.52552 0.0
C348 C 0.27129 0.9036 0.509 0.0
H349 H 0.14365 0.76858 0.39496 0.0
H350 H 0.17609 0.82227 0.42129 0.0
H351 H 0.21721 0.83261 0.54833 0.0
H352 H 0.35354 0.9606 0.60657 0.0
H353 H 0.30871 0.9129 0.58194 0.0
C354 C 0.34547 0.31522 0.6638 0.0
C355 C 0.36709 0.34002 0.69027 0.0
C356 C 0.34938 0.28978 0.65498 0.0
C357 C 0.39455 0.25217 0.69143 0.0
H358 H 0.37835 0.21938 0.56983 0.0
C359 C 0.45214 0.18758 0.61523 0.0
C360 C 0.4333 0.15982 0.59194 0.0
C361 C 0.44032 0.20629 0.62951 0.0
C362 C 0.38259 0.22802 0.60408 0.0
H363 H 0.40946 0.35723 0.72895 0.0
H364 H 0.41672 0.31359 0.71271 0.0
H365 H 0.36428 0.25802 0.59133 0.0
H366 H 0.38726 0.13004 0.5651 0.0
H367 H 0.36675 0.16338 0.58929 0.0
H368 H 0.41418 0.22315 0.70334 0.0
C369 C 0.39631 0.31324 0.69949 0.0
C370 C 0.37444 0.2501 0.61653 0.0
C371 C 0.39226 0.33848 0.7086 0.0
C372 C 0.40233 0.15127 0.58302 0.0
C373 C 0.39062 0.17034 0.59672 0.0
C374 C 0.40303 0.23043 0.6788 0.0
C375 C 0.37512 0.28867 0.67217 0.0
C376 C 0.38085 0.26291 0.66016 0.0
C377 C 0.4095 0.19794 0.62033 0.0
C378 C 0.39762 0.21855 0.6348 0.0
H379 H 0.32573 0.31562 0.64936 0.0
H380 H 0.33232 0.27109 0.63442 0.0
H381 H 0.39916 0.26087 0.72562 0.0
H382 H 0.47606 0.19482 0.6228 0.0
H383 H 0.45548 0.22761 0.6472 0.0
C384 C 0.06455 0.35763 0.8563 0.0
C385 C 0.0633 0.37415 0.89389 0.0
C386 C 0.0929 0.36135 0.84161 0.0
C387 C 0.17236 0.41983 0.83367 0.0
H388 H 0.194 0.35548 0.82167 0.0
C389 C 0.29698 0.45175 0.79511 0.0
C390 C 0.30276 0.43219 0.76788 0.0
C391 C 0.2672 0.44235 0.81053 0.0
C392 C 0.18819 0.37366 0.82405 0.0
H393 H 0.09067 0.40684 0.94624 0.0
H394 H 0.14012 0.41394 0.91969 0.0
H395 H 0.14235 0.34228 0.84848 0.0
H396 H 0.28194 0.38716 0.73586 0.0
H397 H 0.22929 0.37107 0.76113 0.0
H398 H 0.21716 0.45112 0.80783 0.0
C399 C 0.11911 0.39789 0.90203 0.0
C400 C 0.1587 0.36607 0.83967 0.0
C401 C 0.0908 0.39373 0.91724 0.0
C402 C 0.2781 0.40271 0.75684 0.0
C403 C 0.24798 0.39347 0.77157 0.0
C404 C 0.20146 0.42732 0.81726 0.0
C405 C 0.12045 0.38209 0.86376 0.0
C406 C 0.15083 0.38924 0.84531 0.0
C407 C 0.2421 0.41335 0.79828 0.0
C408 C 0.21011 0.40451 0.81308 0.0
H409 H 0.04373 0.3423 0.83772 0.0
H410 H 0.09347 0.34903 0.81189 0.0
H411 H 0.16656 0.43798 0.83704 0.0
H412 H 0.31561 0.47439 0.80491 0.0
H413 H 0.26398 0.45795 0.83226 0.0
C414 C 0.90136 0.26106 0.92822 0.0
C415 C 0.8895 0.28103 0.92058 0.0
C416 C 0.88139 0.2297 0.93812 0.0
C417 C 0.79959 0.16826 0.9268 0.0
H418 H 0.81582 0.12935 0.0281 0.0
C419 C 0.70294 0.05977 0.01014 0.0
C420 C 0.70853 0.03567 0.02178 0.0
C421 C 0.72705 0.08835 0.99594 0.0
C422 C 0.8112 0.13976 -0.00069 0.0
H423 H 0.84733 0.28358 0.91723 0.0
H424 H 0.81287 0.22938 0.93438 0.0
H425 H 0.85477 0.18189 0.00551 0.0
H426 H 0.74412 0.02301 0.02848 0.0
H427 H 0.78649 0.07333 0.0037 0.0
H428 H 0.7559 0.12662 0.92101 0.0
C429 C 0.83749 0.23774 0.93236 0.0
C430 C 0.83349 0.1698 0.98636 0.0
C431 C 0.85733 0.26893 0.92282 0.0
C432 C 0.73902 0.04108 0.01968 0.0
C433 C 0.76329 0.06989 0.00564 0.0
C434 C 0.77741 0.13838 0.9397 0.0
C435 C 0.84921 0.21772 0.94006 0.0
C436 C 0.82754 0.18463 0.95066 0.0
C437 C 0.75744 0.09368 0.99307 0.0
C438 C 0.7826 0.12408 0.97679 0.0
H439 H 0.92604 0.26966 0.92683 0.0
H440 H 0.89106 0.21478 0.94377 0.0
H441 H 0.79461 0.1788 0.89852 0.0
H442 H 0.6798 0.05653 0.01152 0.0
H443 H 0.72187 0.1064 0.98733 0.0
loop_
_geom_bond_atom_site_label_1
_geom_bond_atom_site_label_2
_geom_bond_distance
_geom_bond_site_symmetry_2
_ccdc_geom_bond_type
Zn0 O3 2.031 . S
Zn0 O5 2.049 1_554 S
Zn0 O10 2.067 1_565 S
Zn1 O2 1.962 1_545 S
Zn1 O4 1.986 . S
Zn1 O6 2.006 . S
Zn1 O9 1.943 . S
O2 Zn1 1.962 1_565 S
O2 C7 1.254 . S
O3 Zn0 2.031 . S
O3 C7 1.269 . S
O4 Zn1 1.986 . S
O4 C11 1.262 . S
O5 Zn0 2.049 1_556 S
O5 C13 1.260 1_565 S
O6 Zn1 2.006 . S
O6 C13 1.251 1_554 S
C7 O2 1.254 . S
C7 O3 1.269 . S
C8 O9 1.249 . S
C8 O10 1.270 . S
O9 Zn1 1.943 . S
O9 C8 1.249 . S
O10 Zn0 2.067 1_545 S
O10 C8 1.270 . S
C11 O4 1.262 . S
C11 O12 1.232 . S
O12 C11 1.232 . S
C13 O5 1.260 1_545 S
C13 O6 1.251 1_556 S
Zn14 O17 2.031 . S
Zn14 O19 2.049 . S
Zn14 O24 2.067 . S
Zn15 O16 1.962 . S
Zn15 O18 1.986 . S
Zn15 O20 1.996 . S
Zn15 O23 1.943 . S
O16 Zn15 1.962 . S
O16 C21 1.254 . S
O17 Zn14 2.031 . S
O17 C21 1.269 . S
O18 Zn15 1.986 . S
O18 C25 1.262 . S
O19 Zn14 2.049 . S
O19 C27 1.260 . S
O20 Zn15 1.996 . S
O20 C27 1.257 . S
C21 O16 1.254 . S
C21 O17 1.269 . S
C22 O23 1.249 . S
C22 O24 1.270 . S
O23 Zn15 1.943 . S
O23 C22 1.249 . S
O24 Zn14 2.067 . S
O24 C22 1.270 . S
C25 O18 1.262 . S
C25 O26 1.232 . S
O26 C25 1.232 . S
C27 O19 1.260 . S
C27 O20 1.257 . S
Zn28 O31 2.031 . S
Zn28 O33 2.049 . S
Zn28 O38 2.067 . S
Zn29 O30 1.962 . S
Zn29 O32 1.986 1_455 S
Zn29 O34 1.996 . S
Zn29 O37 1.943 . S
O30 Zn29 1.962 . S
O30 C35 1.254 . S
O31 Zn28 2.031 . S
O31 C35 1.269 . S
O32 Zn29 1.986 1_655 S
O32 C39 1.262 . S
O33 Zn28 2.049 . S
O33 C41 1.260 . S
O34 Zn29 1.996 . S
O34 C41 1.257 . S
C35 O30 1.254 . S
C35 O31 1.269 . S
C36 O37 1.249 . S
C36 O38 1.270 . S
O37 Zn29 1.943 . S
O37 C36 1.249 . S
O38 Zn28 2.067 . S
O38 C36 1.270 . S
C39 O32 1.262 . S
C39 O40 1.232 . S
O40 C39 1.232 . S
C41 O33 1.260 . S
C41 O34 1.257 . S
Zn42 O45 2.031 . S
Zn42 O47 2.049 . S
Zn42 O52 2.067 . S
Zn43 O44 1.962 . S
Zn43 O46 1.986 1_545 S
Zn43 O48 1.996 . S
Zn43 O51 1.943 1_545 S
O44 Zn43 1.962 . S
O44 C49 1.254 . S
O45 Zn42 2.031 . S
O45 C49 1.269 . S
O46 Zn43 1.986 1_565 S
O46 C53 1.262 . S
O47 Zn42 2.049 . S
O47 C55 1.260 . S
O48 Zn43 1.996 . S
O48 C55 1.257 . S
C49 O44 1.254 . S
C49 O45 1.269 . S
C50 O51 1.249 1_545 S
C50 O52 1.270 . S
O51 Zn43 1.943 1_565 S
O51 C50 1.249 1_565 S
O52 Zn42 2.067 . S
O52 C50 1.270 . S
C53 O46 1.262 . S
C53 O54 1.232 . S
O54 C53 1.232 . S
C55 O47 1.260 . S
C55 O48 1.257 . S
Zn56 O59 2.031 . S
Zn56 O61 2.049 . S
Zn56 O66 2.067 . S
Zn57 O58 1.962 . S
Zn57 O60 1.986 . S
Zn57 O62 1.996 . S
Zn57 O65 1.943 . S
O58 Zn57 1.962 . S
O58 C63 1.254 . S
O59 Zn56 2.031 . S
O59 C63 1.269 . S
O60 Zn57 1.986 . S
O60 C67 1.262 . S
O61 Zn56 2.049 . S
O61 C69 1.260 . S
O62 Zn57 1.996 . S
O62 C69 1.257 . S
C63 O58 1.254 . S
C63 O59 1.269 . S
C64 O65 1.249 . S
C64 O66 1.270 . S
O65 Zn57 1.943 . S
O65 C64 1.249 . S
O66 Zn56 2.067 . S
O66 C64 1.270 . S
C67 O60 1.262 . S
C67 O68 1.232 . S
O68 C67 1.232 . S
C69 O61 1.260 . S
C69 O62 1.257 . S
Zn70 O73 2.031 . S
Zn70 O75 2.048 1_655 S
Zn70 O80 2.067 1_655 S
Zn71 O72 1.962 . S
Zn71 O74 1.986 . S
Zn71 O76 1.996 . S
Zn71 O79 1.943 . S
O72 Zn71 1.962 . S
O72 C77 1.254 1_455 S
O73 Zn70 2.031 . S
O73 C77 1.269 . S
O74 Zn71 1.986 . S
O74 C81 1.262 . S
O75 Zn70 2.048 1_455 S
O75 C83 1.280 . S
O76 Zn71 1.996 . S
O76 C83 1.257 . S
C77 O72 1.254 1_655 S
C77 O73 1.269 . S
C78 O79 1.249 . S
C78 O80 1.270 . S
O79 Zn71 1.943 . S
O79 C78 1.249 . S
O80 Zn70 2.067 1_455 S
O80 C78 1.270 . S
C81 O74 1.262 . S
C81 O82 1.232 . S
O82 C81 1.232 . S
C83 O75 1.280 . S
C83 O76 1.257 . S
C84 C85 1.349 . S
C84 C86 1.327 . S
C84 H109 0.950 1_545 S
C85 C84 1.349 . S
C85 C101 1.349 . S
C86 C84 1.327 . S
C86 C105 1.429 . S
C86 H110 0.950 1_545 S
C87 C104 1.574 . S
C87 C106 1.368 . S
C87 H111 0.949 . S
H88 C92 0.952 . S
C89 C90 1.349 . S
C89 C91 1.327 . S
C89 H112 0.950 . S
C90 C89 1.349 . S
C90 C102 1.349 1_545 S
C91 C89 1.327 . S
C91 C107 1.429 . S
C91 H113 0.950 . S
C92 H88 0.952 . S
C92 C100 1.575 1_565 S
C92 C108 1.364 1_565 S
H93 C101 0.950 . S
H94 C99 0.950 . S
H95 C100 0.949 1_565 S
H96 C102 0.950 . S
H97 C103 0.950 . S
H98 C104 0.949 . S
C99 H94 0.950 . S
C99 C101 1.327 . S
C99 C105 1.429 . S
C100 C92 1.575 1_545 S
C100 H95 0.949 1_545 S
C100 C106 1.368 . S
C101 C85 1.349 . S
C101 H93 0.950 . S
C101 C99 1.327 . S
C102 C90 1.349 1_565 S
C102 H96 0.950 . S
C102 C103 1.327 . S
C103 H97 0.950 . S
C103 C102 1.327 . S
C103 C107 1.429 1_565 S
C104 C87 1.574 . S
C104 H98 0.949 . S
C104 C108 1.368 . S
C105 C86 1.429 . S
C105 C99 1.429 . S
C105 C106 1.523 . S
C106 C87 1.368 . S
C106 C100 1.368 . S
C106 C105 1.523 . S
C107 C91 1.429 . S
C107 C103 1.429 1_545 S
C107 C108 1.523 . S
C108 C92 1.364 1_545 S
C108 C104 1.368 . S
C108 C107 1.523 . S
H109 C84 0.950 1_565 S
H110 C86 0.950 1_565 S
H111 C87 0.949 . S
H112 C89 0.950 . S
H113 C91 0.950 . S
C114 C115 1.349 . S
C114 C116 1.327 . S
C114 H139 0.950 . S
C115 C114 1.349 . S
C115 C131 1.349 . S
C116 C114 1.327 . S
C116 C135 1.429 . S
C116 H140 0.950 . S
C117 C134 1.574 . S
C117 C136 1.368 . S
C117 H141 0.949 . S
H118 C122 0.949 . S
C119 C120 1.349 . S
C119 C121 1.327 . S
C119 H142 0.950 . S
C120 C119 1.349 . S
C120 C132 1.349 . S
C121 C119 1.327 . S
C121 C137 1.429 . S
C121 H143 0.950 . S
C122 H118 0.949 . S
C122 C130 1.574 . S
C122 C138 1.368 . S
H123 C131 0.950 . S
H124 C129 0.950 . S
H125 C130 0.949 . S
H126 C132 0.950 . S
H127 C133 0.950 . S
H128 C134 0.949 . S
C129 H124 0.950 . S
C129 C131 1.327 . S
C129 C135 1.429 . S
C130 C122 1.574 . S
C130 H125 0.949 . S
C130 C136 1.368 . S
C131 C115 1.349 . S
C131 H123 0.950 . S
C131 C129 1.327 . S
C132 C120 1.349 . S
C132 H126 0.950 . S
C132 C133 1.327 . S
C133 H127 0.950 . S
C133 C132 1.327 . S
C133 C137 1.429 . S
C134 C117 1.574 . S
C134 H128 0.949 . S
C134 C138 1.368 . S
C135 C116 1.429 . S
C135 C129 1.429 . S
C135 C136 1.523 . S
C136 C117 1.368 . S
C136 C130 1.368 . S
C136 C135 1.523 . S
C137 C121 1.429 . S
C137 C133 1.429 . S
C137 C138 1.523 . S
C138 C122 1.368 . S
C138 C134 1.368 . S
C138 C137 1.523 . S
H139 C114 0.950 . S
H140 C116 0.950 . S
H141 C117 0.949 . S
H142 C119 0.950 . S
H143 C121 0.950 . S
C144 C145 1.349 . S
C144 C146 1.343 . S
C144 H169 0.950 1_455 S
C145 C144 1.349 . S
C145 C161 1.349 . S
C146 C144 1.343 . S
C146 C165 1.451 . S
C146 H170 0.911 1_455 S
C147 C164 1.574 . S
C147 C166 1.368 . S
C147 H171 0.949 . S
H148 C152 0.949 . S
C149 C150 1.349 . S
C149 C151 1.327 . S
C149 H172 0.950 . S
C150 C149 1.349 . S
C150 C162 1.349 1_455 S
C151 C149 1.327 . S
C151 C167 1.429 . S
C151 H173 0.950 . S
C152 H148 0.949 . S
C152 C160 1.574 . S
C152 C168 1.368 1_655 S
H153 C161 0.950 . S
H154 C159 0.950 . S
H155 C160 0.949 . S
H156 C162 0.950 . S
H157 C163 0.950 . S
H158 C164 0.949 . S
C159 H154 0.950 . S
C159 C161 1.327 . S
C159 C165 1.429 . S
C160 C152 1.574 . S
C160 H155 0.949 . S
C160 C166 1.368 1_655 S
C161 C145 1.349 . S
C161 H153 0.950 . S
C161 C159 1.327 . S
C162 C150 1.349 1_655 S
C162 H156 0.950 . S
C162 C163 1.327 . S
C163 H157 0.950 . S
C163 C162 1.327 . S
C163 C167 1.429 1_655 S
C164 C147 1.574 . S
C164 H158 0.949 . S
C164 C168 1.368 . S
C165 C146 1.451 . S
C165 C159 1.429 . S
C165 C166 1.523 . S
C166 C147 1.368 . S
C166 C160 1.368 1_455 S
C166 C165 1.523 . S
C167 C151 1.429 . S
C167 C163 1.429 1_455 S
C167 C168 1.523 . S
C168 C152 1.368 1_455 S
C168 C164 1.368 . S
C168 C167 1.523 . S
H169 C144 0.950 1_655 S
H170 C146 0.911 1_655 S
H171 C147 0.949 . S
H172 C149 0.950 . S
H173 C151 0.950 . S
C174 C175 1.349 1_565 S
C174 C176 1.327 . S
C174 H199 0.950 . S
C175 C174 1.349 1_545 S
C175 C191 1.349 . S
C176 C174 1.327 . S
C176 C195 1.429 1_565 S
C176 H200 0.950 . S
C177 C194 1.574 . S
C177 C196 1.368 . S
C177 H201 0.949 . S
H178 C182 0.949 . S
C179 C180 1.349 . S
C179 C181 1.327 . S
C179 H202 0.950 . S
C180 C179 1.349 . S
C180 C192 1.349 1_545 S
C181 C179 1.327 . S
C181 C197 1.429 . S
C181 H203 0.950 . S
C182 H178 0.949 . S
C182 C190 1.574 . S
C182 C198 1.368 1_565 S
H183 C191 0.950 . S
H184 C189 0.950 . S
H185 C190 0.949 . S
H186 C192 0.950 . S
H187 C193 0.950 . S
H188 C194 0.949 . S
C189 H184 0.950 . S
C189 C191 1.327 . S
C189 C195 1.429 . S
C190 C182 1.574 . S
C190 H185 0.949 . S
C190 C196 1.368 1_565 S
C191 C175 1.349 . S
C191 H183 0.950 . S
C191 C189 1.327 . S
C192 C180 1.349 1_565 S
C192 H186 0.950 . S
C192 C193 1.327 . S
C193 H187 0.950 . S
C193 C192 1.327 . S
C193 C197 1.429 1_565 S
C194 C177 1.574 . S
C194 H188 0.949 . S
C194 C198 1.368 . S
C195 C176 1.429 1_545 S
C195 C189 1.429 . S
C195 C196 1.523 . S
C196 C177 1.368 . S
C196 C190 1.368 1_545 S
C196 C195 1.523 . S
C197 C181 1.429 . S
C197 C193 1.429 1_545 S
C197 C198 1.523 . S
C198 C182 1.368 1_545 S
C198 C194 1.368 . S
C198 C197 1.523 . S
H199 C174 0.950 . S
H200 C176 0.950 . S
H201 C177 0.949 . S
H202 C179 0.950 . S
H203 C181 0.950 . S
C204 C205 1.349 . S
C204 C206 1.327 . S
C204 H229 0.950 . S
C205 C204 1.349 . S
C205 C221 1.349 . S
C206 C204 1.327 . S
C206 C225 1.429 . S
C206 H230 0.950 . S
C207 C224 1.574 . S
C207 C226 1.368 1_556 S
C207 H231 0.949 . S
H208 C212 0.949 . S
C209 C210 1.349 . S
C209 C211 1.327 . S
C209 H232 0.950 . S
C210 C209 1.349 . S
C210 C222 1.349 . S
C211 C209 1.327 . S
C211 C227 1.429 . S
C211 H233 0.950 . S
C212 H208 0.949 . S
C212 C220 1.574 1_556 S
C212 C228 1.368 . S
H213 C221 0.950 . S
H214 C219 0.950 . S
H215 C220 0.949 . S
H216 C222 0.950 . S
H217 C223 0.950 . S
H218 C224 0.949 . S
C219 H214 0.950 . S
C219 C221 1.327 . S
C219 C225 1.429 . S
C220 C212 1.574 1_554 S
C220 H215 0.949 . S
C220 C226 1.368 . S
C221 C205 1.349 . S
C221 H213 0.950 . S
C221 C219 1.327 . S
C222 C210 1.349 . S
C222 H216 0.950 . S
C222 C223 1.327 . S
C223 H217 0.950 . S
C223 C222 1.327 . S
C223 C227 1.429 . S
C224 C207 1.574 . S
C224 H218 0.949 . S
C224 C228 1.368 . S
C225 C206 1.429 . S
C225 C219 1.429 . S
C225 C226 1.523 . S
C226 C207 1.368 1_554 S
C226 C220 1.368 . S
C226 C225 1.523 . S
C227 C211 1.429 . S
C227 C223 1.429 . S
C227 C228 1.523 . S
C228 C212 1.368 . S
C228 C224 1.368 . S
C228 C227 1.523 . S
H229 C204 0.950 . S
H230 C206 0.950 . S
H231 C207 0.949 . S
H232 C209 0.950 . S
H233 C211 0.950 . S
C234 C235 1.349 1_554 S
C234 C236 1.327 . S
C234 H259 0.950 . S
C235 C234 1.349 1_556 S
C235 C251 1.349 . S
C236 C234 1.327 . S
C236 C255 1.429 . S
C236 H260 0.938 1_455 S
C237 C254 1.574 . S
C237 C256 1.368 . S
C237 H261 0.949 . S
H238 C242 0.949 1_655 S
C239 C240 1.349 . S
C239 C241 1.327 . S
C239 H262 0.950 . S
C240 C239 1.349 . S
C240 C252 1.349 . S
C241 C239 1.327 . S
C241 C257 1.429 . S
C241 H263 0.950 . S
C242 H238 0.949 1_455 S
C242 C250 1.574 . S
C242 C258 1.368 . S
H243 C251 0.950 . S
H244 C249 0.950 . S
H245 C250 0.949 1_655 S
H246 C252 0.950 1_655 S
H247 C253 0.950 1_655 S
H248 C254 0.949 . S
C249 H244 0.950 . S
C249 C251 1.327 1_554 S
C249 C255 1.429 . S
C250 C242 1.574 . S
C250 H245 0.949 1_455 S
C250 C256 1.368 . S
C251 C235 1.349 . S
C251 H243 0.950 . S
C251 C249 1.327 1_556 S
C252 C240 1.349 . S
C252 H246 0.950 1_455 S
C252 C253 1.327 . S
C253 H247 0.950 1_455 S
C253 C252 1.327 . S
C253 C257 1.429 . S
C254 C237 1.574 . S
C254 H248 0.949 . S
C254 C258 1.368 . S
C255 C236 1.429 . S
C255 C249 1.429 . S
C255 C256 1.523 . S
C256 C237 1.368 . S
C256 C250 1.368 . S
C256 C255 1.523 . S
C257 C241 1.429 . S
C257 C253 1.429 . S
C257 C258 1.523 . S
C258 C242 1.368 . S
C258 C254 1.368 . S
C258 C257 1.523 . S
H259 C234 0.950 . S
H260 C236 0.938 1_655 S
H261 C237 0.949 . S
H262 C239 0.950 . S
H263 C241 0.950 . S
C264 C265 1.349 . S
C264 C266 1.327 . S
C264 H289 0.950 . S
C265 C264 1.349 . S
C265 C281 1.349 . S
C266 C264 1.327 . S
C266 C285 1.429 . S
C266 H290 0.950 . S
C267 C284 1.574 . S
C267 C286 1.368 . S
C267 H291 0.949 . S
H268 C272 0.949 . S
C269 C270 1.349 . S
C269 C271 1.327 . S
C269 H292 0.950 . S
C270 C269 1.349 . S
C270 C282 1.349 . S
C271 C269 1.327 . S
C271 C287 1.429 . S
C271 H293 0.950 . S
C272 H268 0.949 . S
C272 C280 1.574 . S
C272 C288 1.368 . S
H273 C281 0.950 . S
H274 C279 0.950 . S
H275 C280 0.949 . S
H276 C282 0.950 . S
H277 C283 0.950 . S
H278 C284 0.949 . S
C279 H274 0.950 . S
C279 C281 1.327 . S
C279 C285 1.429 . S
C280 C272 1.574 . S
C280 H275 0.949 . S
C280 C286 1.368 . S
C281 C265 1.349 . S
C281 H273 0.950 . S
C281 C279 1.327 . S
C282 C270 1.349 . S
C282 H276 0.950 . S
C282 C283 1.327 . S
C283 H277 0.950 . S
C283 C282 1.327 . S
C283 C287 1.429 . S
C284 C267 1.574 . S
C284 H278 0.949 . S
C284 C288 1.368 . S
C285 C266 1.429 . S
C285 C279 1.429 . S
C285 C286 1.523 . S
C286 C267 1.368 . S
C286 C280 1.368 . S
C286 C285 1.523 . S
C287 C271 1.429 . S
C287 C283 1.429 . S
C287 C288 1.523 . S
C288 C272 1.368 . S
C288 C284 1.368 . S
C288 C287 1.523 . S
H289 C264 0.950 . S
H290 C266 0.950 . S
H291 C267 0.949 . S
H292 C269 0.950 . S
H293 C271 0.950 . S
C294 C295 1.349 . S
C294 C296 1.327 . S
C294 H319 0.950 . S
C295 C294 1.349 . S
C295 C311 1.349 . S
C296 C294 1.327 . S
C296 C315 1.429 . S
C296 H320 0.950 . S
C297 C314 1.574 . S
C297 C316 1.368 . S
C297 H321 0.949 . S
H298 C302 0.949 . S
C299 C300 1.349 . S
C299 C301 1.327 . S
C299 H322 0.950 . S
C300 C299 1.349 . S
C300 C312 1.349 . S
C301 C299 1.327 . S
C301 C317 1.429 . S
C301 H323 0.950 . S
C302 H298 0.949 . S
C302 C310 1.574 . S
C302 C318 1.368 . S
H303 C311 0.950 . S
H304 C309 0.950 . S
H305 C310 0.949 . S
H306 C312 0.950 . S
H307 C313 0.950 . S
H308 C314 0.949 . S
C309 H304 0.950 . S
C309 C311 1.327 . S
C309 C315 1.429 . S
C310 C302 1.574 . S
C310 H305 0.949 . S
C310 C316 1.368 . S
C311 C295 1.349 . S
C311 H303 0.950 . S
C311 C309 1.327 . S
C312 C300 1.349 . S
C312 H306 0.950 . S
C312 C313 1.327 . S
C313 H307 0.950 . S
C313 C312 1.327 . S
C313 C317 1.429 . S
C314 C297 1.574 . S
C314 H308 0.949 . S
C314 C318 1.368 . S
C315 C296 1.429 . S
C315 C309 1.429 . S
C315 C316 1.523 . S
C316 C297 1.368 . S
C316 C310 1.368 . S
C316 C315 1.523 . S
C317 C301 1.429 . S
C317 C313 1.429 . S
C317 C318 1.523 . S
C318 C302 1.368 . S
C318 C314 1.368 . S
C318 C317 1.523 . S
H319 C294 0.950 . S
H320 C296 0.950 . S
H321 C297 0.949 . S
H322 C299 0.950 . S
H323 C301 0.950 . S
C324 C325 1.349 . S
C324 C326 1.327 . S
C324 H349 0.950 . S
C325 C324 1.349 . S
C325 C341 1.349 . S
C326 C324 1.327 . S
C326 C345 1.429 . S
C326 H350 0.950 . S
C327 C344 1.574 . S
C327 C346 1.368 . S
C327 H351 0.949 . S
H328 C332 0.949 . S
C329 C330 1.349 . S
C329 C331 1.327 . S
C329 H352 0.950 . S
C330 C329 1.349 . S
C330 C342 1.349 . S
C331 C329 1.327 . S
C331 C347 1.429 . S
C331 H353 0.950 . S
C332 H328 0.949 . S
C332 C340 1.574 . S
C332 C348 1.368 . S
H333 C341 0.950 . S
H334 C339 0.950 . S
H335 C340 0.949 . S
H336 C342 0.950 . S
H337 C343 0.950 . S
H338 C344 0.949 . S
C339 H334 0.950 . S
C339 C341 1.327 . S
C339 C345 1.429 . S
C340 C332 1.574 . S
C340 H335 0.949 . S
C340 C346 1.368 . S
C341 C325 1.349 . S
C341 H333 0.950 . S
C341 C339 1.327 . S
C342 C330 1.349 . S
C342 H336 0.950 . S
C342 C343 1.327 . S
C343 H337 0.950 . S
C343 C342 1.327 . S
C343 C347 1.429 . S
C344 C327 1.574 . S
C344 H338 0.949 . S
C344 C348 1.368 . S
C345 C326 1.429 . S
C345 C339 1.429 . S
C345 C346 1.523 . S
C346 C327 1.368 . S
C346 C340 1.368 . S
C346 C345 1.523 . S
C347 C331 1.429 . S
C347 C343 1.429 . S
C347 C348 1.523 . S
C348 C332 1.368 . S
C348 C344 1.368 . S
C348 C347 1.523 . S
H349 C324 0.950 . S
H350 C326 0.950 . S
H351 C327 0.949 . S
H352 C329 0.950 . S
H353 C331 0.950 . S
C354 C355 1.349 . S
C354 C356 1.327 . S
C354 H379 0.950 . S
C355 C354 1.349 . S
C355 C371 1.349 . S
C356 C354 1.327 . S
C356 C375 1.429 . S
C356 H380 0.950 . S
C357 C374 1.574 . S
C357 C376 1.368 . S
C357 H381 0.949 . S
H358 C362 0.949 . S
C359 C360 1.349 . S
C359 C361 1.327 . S
C359 H382 0.950 . S
C360 C359 1.349 . S
C360 C372 1.349 . S
C361 C359 1.327 . S
C361 C377 1.429 . S
C361 H383 0.950 . S
C362 H358 0.949 . S
C362 C370 1.574 . S
C362 C378 1.368 . S
H363 C371 0.950 . S
H364 C369 0.950 . S
H365 C370 0.949 . S
H366 C372 0.950 . S
H367 C373 0.950 . S
H368 C374 0.949 . S
C369 H364 0.950 . S
C369 C371 1.327 . S
C369 C375 1.429 . S
C370 C362 1.574 . S
C370 H365 0.949 . S
C370 C376 1.368 . S
C371 C355 1.349 . S
C371 H363 0.950 . S
C371 C369 1.327 . S
C372 C360 1.349 . S
C372 H366 0.950 . S
C372 C373 1.327 . S
C373 H367 0.950 . S
C373 C372 1.327 . S
C373 C377 1.429 . S
C374 C357 1.574 . S
C374 H368 0.949 . S
C374 C378 1.368 . S
C375 C356 1.429 . S
C375 C369 1.429 . S
C375 C376 1.523 . S
C376 C357 1.368 . S
C376 C370 1.368 . S
C376 C375 1.523 . S
C377 C361 1.429 . S
C377 C373 1.429 . S
C377 C378 1.523 . S
C378 C362 1.368 . S
C378 C374 1.368 . S
C378 C377 1.523 . S
H379 C354 0.950 . S
H380 C356 0.950 . S
H381 C357 0.949 . S
H382 C359 0.950 . S
H383 C361 0.950 . S
C384 C385 1.349 . S
C384 C386 1.327 . S
C384 H409 0.950 . S
C385 C384 1.349 . S
C385 C401 1.349 . S
C386 C384 1.327 . S
C386 C405 1.429 . S
C386 H410 0.950 . S
C387 C404 1.574 . S
C387 C406 1.368 . S
C387 H411 0.949 . S
H388 C392 0.949 . S
C389 C390 1.349 . S
C389 C391 1.327 . S
C389 H412 0.950 . S
C390 C389 1.349 . S
C390 C402 1.349 . S
C391 C389 1.327 . S
C391 C407 1.429 . S
C391 H413 0.950 . S
C392 H388 0.949 . S
C392 C400 1.574 . S
C392 C408 1.368 . S
H393 C401 0.950 . S
H394 C399 0.950 . S
H395 C400 0.949 . S
H396 C402 0.950 . S
H397 C403 0.950 . S
H398 C404 0.949 . S
C399 H394 0.950 . S
C399 C401 1.327 . S
C399 C405 1.429 . S
C400 C392 1.574 . S
C400 H395 0.949 . S
C400 C406 1.368 . S
C401 C385 1.349 . S
C401 H393 0.950 . S
C401 C399 1.327 . S
C402 C390 1.349 . S
C402 H396 0.950 . S
C402 C403 1.327 . S
C403 H397 0.950 . S
C403 C402 1.327 . S
C403 C407 1.429 . S
C404 C387 1.574 . S
C404 H398 0.949 . S
C404 C408 1.368 . S
C405 C386 1.429 . S
C405 C399 1.429 . S
C405 C406 1.523 . S
C406 C387 1.368 . S
C406 C400 1.368 . S
C406 C405 1.523 . S
C407 C391 1.429 . S
C407 C403 1.429 . S
C407 C408 1.523 . S
C408 C392 1.368 . S
C408 C404 1.368 . S
C408 C407 1.523 . S
H409 C384 0.950 . S
H410 C386 0.950 . S
H411 C387 0.949 . S
H412 C389 0.950 . S
H413 C391 0.950 . S
C414 C415 1.349 . S
C414 C416 1.327 . S
C414 H439 0.950 . S
C415 C414 1.349 . S
C415 C431 1.349 . S
C416 C414 1.327 . S
C416 C435 1.429 . S
C416 H440 0.950 . S
C417 C434 1.574 . S
C417 C436 1.368 . S
C417 H441 0.949 . S
H418 C422 0.949 . S
C419 C420 1.355 . S
C419 C421 1.325 1_554 S
C419 H442 0.947 1_554 S
C420 C419 1.355 . S
C420 C432 1.349 . S
C421 C419 1.325 1_556 S
C421 C437 1.429 1_556 S
C421 H443 0.950 . S
C422 H418 0.949 . S
C422 C430 1.574 1_554 S
C422 C438 1.368 1_554 S
H423 C431 0.950 . S
H424 C429 0.950 . S
H425 C430 0.949 1_554 S
H426 C432 0.950 . S
H427 C433 0.950 . S
H428 C434 0.949 . S
C429 H424 0.950 . S
C429 C431 1.327 . S
C429 C435 1.429 . S
C430 C422 1.574 1_556 S
C430 H425 0.949 1_556 S
C430 C436 1.368 . S
C431 C415 1.349 . S
C431 H423 0.950 . S
C431 C429 1.327 . S
C432 C420 1.349 . S
C432 H426 0.950 . S
C432 C433 1.327 . S
C433 H427 0.950 . S
C433 C432 1.327 . S
C433 C437 1.429 . S
C434 C417 1.574 . S
C434 H428 0.949 . S
C434 C438 1.368 . S
C435 C416 1.429 . S
C435 C429 1.429 . S
C435 C436 1.523 . S
C436 C417 1.368 . S
C436 C430 1.368 . S
C436 C435 1.523 . S
C437 C421 1.429 1_554 S
C437 C433 1.429 . S
C437 C438 1.523 1_554 S
C438 C422 1.368 1_556 S
C438 C434 1.368 . S
C438 C437 1.523 1_556 S
H439 C414 0.950 . S
H440 C416 0.950 . S
H441 C417 0.949 . S
H442 C419 0.947 1_556 S
H443 C421 0.950 . S
C85 C8 1.368 . S
C90 C55 1.335 . S
C115 C22 1.368 . S
C120 C69 1.335 . S
C145 C83 1.335 . S
C150 C36 1.368 . S
C175 C13 1.335 . S
C180 C50 1.368 . S
C205 C27 1.335 . S
C210 C64 1.368 . S
C235 C78 1.368 . S
C240 C41 1.335 . S
C265 C25 1.402 . S
C270 C7 1.391 . S
C295 C39 1.402 . S
C300 C21 1.391 . S
C325 C35 1.391 . S
C330 C53 1.402 . S
C355 C67 1.402 . S
C360 C49 1.391 . S
C385 C81 1.402 . S
C390 C63 1.391 . S
C415 C77 1.391 . S
C420 C11 1.402 . S
