# Generated by pormake.
# Topology kag, (6)-cn, num edge types: 1
# Building blocks:
#     Node 0, Type 0, BuildingBlock: PAMTUU_clean_sbu_0, # of connection points: 6
#     Node 1, Type 0, BuildingBlock: PAMTUU_clean_sbu_0, # of connection points: 6
#     Node 2, Type 0, BuildingBlock: PAMTUU_clean_sbu_0, # of connection points: 6
#     Edge 3, Type (0, 0), BuildingBlock: MIFKUJ_clean_linker_0, # of connection points: 2
#     Edge 4, Type (0, 0), BuildingBlock: MIFKUJ_clean_linker_0, # of connection points: 2
#     Edge 5, Type (0, 0), BuildingBlock: MIFKUJ_clean_linker_0, # of connection points: 2
#     Edge 6, Type (0, 0), BuildingBlock: MIFKUJ_clean_linker_0, # of connection points: 2
#     Edge 7, Type (0, 0), BuildingBlock: MIFKUJ_clean_linker_0, # of connection points: 2
#     Edge 8, Type (0, 0), BuildingBlock: MIFKUJ_clean_linker_0, # of connection points: 2
#     Edge 9, Type (0, 0), BuildingBlock: MIFKUJ_clean_linker_0, # of connection points: 2
#     Edge 10, Type (0, 0), BuildingBlock: MIFKUJ_clean_linker_0, # of connection points: 2
#     Edge 11, Type (0, 0), BuildingBlock: MIFKUJ_clean_linker_0, # of connection points: 2
# Relax obj value: 0.062
# Max RMSD: 0.134
# Mean RMSD: 0.100
data_MOF--net-kag--node1-PAMTUU_clean_sbu_0--edge1-MIFKUJ_clean_linker_0
_symmetry_space_group_name_H-M    P1
_symmetry_Int_Tables_number       1
_symmetry_cell_setting            triclinic
loop_
_symmetry_equiv_pos_as_xyz
'x, y, z'
_cell_length_a     58.877508
_cell_length_b     39.90695
_cell_length_c     19.663645
_cell_angle_alpha  88.869535
_cell_angle_beta   98.377522
_cell_angle_gamma 121.85998
loop_
_atom_site_label
_atom_site_type_symbol
_atom_site_fract_x
_atom_site_fract_y
_atom_site_fract_z
_atom_type_partial_charge
Tb0 Tb 1.01812 0.57132 0.99026 0.0
Tb1 Tb 0.03245 0.50139 -0.0048 0.0
C2 C 1.02096 0.53319 0.85828 0.0
C3 C 0.97852 0.61802 -0.0039 0.0
C4 C 0.92822 0.60825 0.00875 0.0
C5 C 0.94464 0.63516 0.96392 0.0
C6 C 0.96956 0.64002 0.95778 0.0
C7 C 0.96237 0.59146 0.04163 0.0
C8 C 0.93752 0.58682 0.04827 0.0
C9 C 1.0034 0.62049 0.98347 0.0
O10 O 0.97918 0.51558 0.97102 0.0
O11 O 0.98981 0.46906 0.00585 0.0
O12 O 0.04247 0.52753 0.09989 0.0
O13 O 1.01242 0.54788 0.09084 0.0
O14 O 0.04201 0.46713 0.94019 0.0
O15 O 0.04067 0.46182 0.04895 0.0
O16 O 0.06925 0.5559 0.97948 0.0
O17 O 0.06213 0.60298 0.01932 0.0
O18 O 0.02932 0.56677 0.89188 0.0
O19 O 1.01387 0.50103 0.8911 0.0
C20 C 0.97213 0.47963 0.98801 0.0
O21 O 1.01876 0.61888 0.03683 0.0
O22 O 1.00018 0.59814 0.93099 0.0
C23 C 0.02799 0.53789 0.12819 0.0
C24 C 0.07455 0.45701 0.00448 0.0
C25 C 0.12634 0.46713 0.0149 0.0
C26 C 0.11969 0.48157 0.06864 0.0
C27 C 0.09411 0.47671 0.0634 0.0
C28 C 0.08106 0.44234 0.95118 0.0
C29 C 0.10664 0.4475 0.95607 0.0
C30 C 0.04781 0.453 -0.00441 0.0
C31 C 0.07828 0.59234 0.00147 0.0
H32 H 0.93814 0.65235 0.93331 0.0
H33 H 0.98161 0.66039 0.92195 0.0
H34 H 0.96869 0.57366 0.07089 0.0
H35 H 0.92519 0.56559 0.08267 0.0
H36 H 0.13416 0.49638 0.11508 0.0
H37 H 0.08976 0.48858 0.10527 0.0
H38 H 0.06642 0.42735 0.90498 0.0
H39 H 0.11108 0.43665 0.91299 0.0
Tb40 Tb 0.48944 1.01237 0.96714 0.0
Tb41 Tb 0.5571 0.06321 -0.00145 0.0
C42 C 0.52428 0.04275 0.84767 0.0
C43 C 0.41319 0.93885 0.95896 0.0
C44 C 0.36156 0.87577 0.98153 0.0
C45 C 0.36854 0.88181 0.91496 0.0
C46 C 0.39399 0.91302 0.90387 0.0
C47 C 0.40671 0.93204 0.02599 0.0
C48 C 0.38118 0.90084 0.0371 0.0
C49 C 0.43814 0.975 0.94385 0.0
O50 O 0.5011 0.96941 0.95454 0.0
O51 O 0.54368 1.00198 0.01952 0.0
O52 O 0.5423 0.06108 0.0944 0.0
O53 O 0.50017 1.00429 0.07365 0.0
O54 O 0.59424 0.07064 0.98424 0.0
O55 O 0.59292 0.10926 0.05666 0.0
O56 O 0.5467 0.1064 0.96371 0.0
O57 O 0.50348 0.07448 0.98991 0.0
O58 O 0.50289 1.03722 0.8713 0.0
O59 O 0.54579 0.0477 0.88832 0.0
C60 C 0.52236 0.96959 0.98726 0.0
O61 O 0.45317 1.00225 -0.00629 0.0
O62 O 0.45271 0.97081 0.90487 0.0
C63 C 0.521 1.03159 0.11628 0.0
C64 C 0.63413 0.13562 0.01128 0.0
C65 C 0.68731 0.19613 -0.00637 0.0
C66 C 0.67621 0.19796 0.05112 0.0
C67 C 0.65003 0.16807 0.05987 0.0
C68 C 0.64478 0.13427 0.95257 0.0
C69 C 0.67105 0.16424 0.94379 0.0
C70 C 0.60838 0.10155 0.02791 0.0
C71 C 0.52535 0.10673 0.97538 0.0
H72 H 0.35391 0.86349 0.8708 0.0
H73 H 0.3983 0.91787 0.85161 0.0
H74 H 0.42102 0.95145 0.06964 0.0
H75 H 0.37664 0.89674 0.08916 0.0
H76 H 0.68817 0.22163 0.09113 0.0
H77 H 0.6426 0.16961 0.10626 0.0
H78 H 0.63319 0.10954 0.91438 0.0
H79 H 0.67877 0.1621 0.89841 0.0
Tb80 Tb 0.55916 0.56591 0.98522 0.0
Tb81 Tb 0.49254 0.51391 0.95983 0.0
C82 C 0.52624 0.53942 0.10643 0.0
C83 C 0.6329 0.59789 0.00545 0.0
C84 C 0.67669 0.58647 0.014 0.0
C85 C 0.65788 0.5689 0.05999 0.0
C86 C 0.63605 0.57439 0.05555 0.0
C87 C 0.65179 0.61562 0.96013 0.0
C88 C 0.67337 0.60993 0.96418 0.0
C89 C 0.61037 0.60477 -0.00158 0.0
O90 O 0.54824 0.50545 0.96161 0.0
O91 O 0.50416 0.47054 0.98266 0.0
O92 O 0.50589 0.5088 0.86547 0.0
O93 O 0.54374 0.57035 0.88014 0.0
O94 O 0.45583 0.47321 -0.00668 0.0
O95 O 0.45628 0.49803 0.89439 0.0
O96 O 0.50425 0.5753 0.94658 0.0
O97 O 0.54802 0.60873 0.0049 0.0
O98 O 0.54601 0.54023 0.08148 0.0
O99 O 0.50632 0.53888 0.06558 0.0
C100 C 0.52632 0.47205 0.97229 0.0
O101 O 0.59427 0.59255 0.93951 0.0
O102 O 0.59704 0.59766 0.04978 0.0
C103 C 0.52499 0.53952 0.83966 0.0
C104 C 0.41961 0.4825 0.95168 0.0
C105 C 0.37591 0.48994 0.97288 0.0
C106 C 0.37612 0.47479 0.90909 0.0
C107 C 0.39767 0.47101 0.89878 0.0
C108 C 0.41997 0.49873 0.01494 0.0
C109 C 0.39829 0.50235 0.02545 0.0
C110 C 0.44139 0.4764 0.93955 0.0
C111 C 0.52601 0.60798 0.97669 0.0
H112 H 0.65985 0.55054 0.09874 0.0
H113 H 0.62169 0.56025 0.09105 0.0
H114 H 0.64986 0.63402 0.92134 0.0
H115 H 0.68774 0.62445 0.92879 0.0
H116 H 0.35956 0.4657 0.86694 0.0
H117 H 0.39707 0.45871 0.84942 0.0
H118 H 0.43678 0.50807 0.05652 0.0
H119 H 0.39875 0.51389 0.07535 0.0
H120 H 1.02095 0.58618 0.76802 0.0
H121 H 1.02182 0.58504 0.6439 0.0
H122 H 1.02213 0.47727 0.65427 0.0
H123 H 1.02077 0.47776 0.77823 0.0
H124 H 0.06258 0.53957 0.58057 0.0
H125 H 0.96667 0.46762 0.58893 0.0
H126 H 0.92523 0.45814 0.62404 0.0
H127 H 0.93747 0.56148 0.52292 0.0
H128 H 0.97924 0.57192 0.48807 0.0
H129 H 0.04171 0.49619 0.21922 0.0
H130 H 0.04033 0.4937 0.34309 0.0
H131 H 1.01549 0.57821 0.33197 0.0
H132 H 1.01552 0.57916 0.20788 0.0
H133 H 0.98712 0.52561 0.40825 0.0
H134 H 0.08252 0.60108 0.4025 0.0
H135 H 0.1256 0.6156 0.37003 0.0
H136 H 0.11703 0.51331 0.46816 0.0
H137 H 0.0737 0.49789 0.50046 0.0
C138 C 1.0211 0.56215 0.74386 0.0
C139 C 1.02069 0.53198 0.7829 0.0
C140 C 1.02156 0.56153 0.67298 0.0
C141 C 1.02201 0.53105 0.64 0.0
C142 C 1.0218 0.50105 0.67884 0.0
C143 C 1.02087 0.50127 0.74953 0.0
C144 C 1.02278 0.53064 0.56496 0.0
C145 C 0.04597 0.53599 0.54262 0.0
C146 C 1.00142 0.52714 0.51591 0.0
C147 C 0.97623 0.52077 0.53649 0.0
C148 C 0.96066 0.48852 0.5747 0.0
C149 C 0.93709 0.48293 0.59445 0.0
C150 C 0.92876 0.50925 0.57588 0.0
C151 C 0.94396 0.54115 0.53735 0.0
C152 C 0.96758 0.5469 0.51754 0.0
C153 C 0.03612 0.51439 0.24338 0.0
C154 C 0.02877 0.53791 0.20383 0.0
C155 C 0.03545 0.51312 0.31434 0.0
C156 C 0.02816 0.5362 0.34754 0.0
C157 C 1.0211 0.56 0.30791 0.0
C158 C 1.02122 0.56063 0.23688 0.0
C159 C 0.02716 0.53495 0.42303 0.0
C160 C 1.00385 0.52922 0.44574 0.0
C161 C 0.04867 0.53888 0.47251 0.0
C162 C 0.07473 0.5481 0.45325 0.0
C163 C 0.08973 0.58152 0.4167 0.0
C164 C 0.1142 0.58994 0.39841 0.0
C165 C 0.12401 0.56533 0.41684 0.0
C166 C 0.10939 0.53231 0.45381 0.0
C167 C 0.08488 0.52373 0.47217 0.0
H168 H 0.14296 0.5719 0.40263 0.0
H169 H 0.9105 0.50487 0.59122 0.0
H170 H 0.5638 0.07119 0.21978 0.0
H171 H 0.56306 0.07077 0.34359 0.0
H172 H 0.47653 0.98898 0.30671 0.0
H173 H 0.47705 0.98894 0.18217 0.0
H174 H 0.49528 0.05622 0.40006 0.0
H175 H 0.51312 0.95377 0.3643 0.0
H176 H 0.53746 0.92587 0.32134 0.0
H177 H 0.61139 1.01388 0.44672 0.0
H178 H 0.58757 0.04269 0.48966 0.0
H179 H 0.4801 1.01283 0.74689 0.0
H180 H 0.47895 1.00978 0.62267 0.0
H181 H 0.56616 0.06995 0.65329 0.0
H182 H 0.56736 0.07173 0.7781 0.0
H183 H 0.54603 1.01215 0.56113 0.0
H184 H 0.53082 0.11668 0.59485 0.0
H185 H 0.50887 0.1489 0.63602 0.0
H186 H 0.43322 0.0631 0.51389 0.0
H187 H 0.45464 1.03003 0.47269 0.0
C188 C 0.54459 0.05299 0.23786 0.0
C189 C 0.52046 1.03007 0.19119 0.0
C190 C 0.54424 0.05271 0.30864 0.0
C191 C 0.51977 1.02972 0.33409 0.0
C192 C 0.49561 1.00686 0.28783 0.0
C193 C 0.49597 1.00674 0.21686 0.0
C194 C 0.51954 1.03025 0.40914 0.0
C195 C 0.50597 0.046 0.4354 0.0
C196 C 0.5343 1.01814 0.45494 0.0
C197 C 0.5486 1.00059 0.42975 0.0
C198 C 0.53461 0.96736 0.38232 0.0
C199 C 0.54831 0.95135 0.35804 0.0
C200 C 0.57597 0.96814 0.38117 0.0
C201 C 0.58997 1.00092 0.4288 0.0
C202 C 0.57638 1.01708 0.45318 0.0
C203 C 0.49907 1.0257 0.72723 0.0
C204 C 0.52385 0.0427 0.77232 0.0
C205 C 0.49838 1.02405 0.65607 0.0
C206 C 0.52249 0.04019 0.62841 0.0
C207 C 0.54728 0.05731 0.67338 0.0
C208 C 0.54796 0.05842 0.74469 0.0
C209 C 0.52178 0.0383 0.55269 0.0
C210 C 0.53522 1.02231 0.52612 0.0
C211 C 0.50723 0.05079 0.50663 0.0
C212 C 0.49428 0.07064 0.53123 0.0
C213 C 0.50946 0.1045 0.57719 0.0
C214 C 0.49711 0.12295 0.60046 0.0
C215 C 0.46965 0.10799 0.57773 0.0
C216 C 0.45448 0.07462 0.53153 0.0
C217 C 0.46672 0.05603 0.50816 0.0
H218 H 0.46013 0.12232 0.5958 0.0
H219 H 0.58654 0.95572 0.3623 0.0
H220 H 0.55459 0.60264 0.76545 0.0
H221 H 0.55462 0.60301 0.64119 0.0
H222 H 0.49709 0.47699 0.61992 0.0
H223 H 0.49626 0.47668 0.74381 0.0
H224 H 0.56904 0.57192 0.55686 0.0
H225 H 0.45631 0.44988 0.46632 0.0
H226 H 0.41191 0.42288 0.50367 0.0
H227 H 0.44127 0.53354 0.61419 0.0
H228 H 0.4857 0.56136 0.57675 0.0
H229 H 0.55341 0.51789 0.20425 0.0
H230 H 0.55302 0.5174 0.32849 0.0
H231 H 0.49999 0.56235 0.30311 0.0
H232 H 0.49928 0.56102 0.17874 0.0
H233 H 0.48354 0.51037 0.38988 0.0
H234 H 0.571 0.62163 0.36677 0.0
H235 H 0.61573 0.65688 0.32901 0.0
H236 H 0.63758 0.58306 0.4453 0.0
H237 H 0.59282 0.54703 0.48305 0.0
C238 C 0.54187 0.57501 0.73429 0.0
C239 C 0.52525 0.53967 0.76444 0.0
C240 C 0.54198 0.57524 0.66321 0.0
C241 C 0.52562 0.54013 0.62082 0.0
C242 C 0.50945 0.50464 0.65114 0.0
C243 C 0.50906 0.50447 0.7221 0.0
C244 C 0.52551 0.54071 0.54502 0.0
C245 C 0.55033 0.55845 0.52038 0.0
C246 C 0.50117 0.52386 0.49713 0.0
C247 C 0.47442 0.50753 0.51931 0.0
C248 C 0.45325 0.46848 0.49839 0.0
C249 C 0.42808 0.45303 0.5196 0.0
C250 C 0.4238 0.47643 0.56147 0.0
C251 C 0.44464 0.51539 0.58199 0.0
C252 C 0.46983 0.531 0.56084 0.0
C253 C 0.5417 0.5277 0.22526 0.0
C254 C 0.52644 0.5396 0.18177 0.0
C255 C 0.54158 0.5276 0.29639 0.0
C256 C 0.52682 0.54046 0.32567 0.0
C257 C 0.51151 0.55222 0.28204 0.0
C258 C 0.51118 0.55156 0.21086 0.0
C259 C 0.52709 0.54144 0.40155 0.0
C260 C 0.50228 0.52384 0.42627 0.0
C261 C 0.55149 0.55964 0.44945 0.0
C262 C 0.57847 0.58141 0.4272 0.0
C263 C 0.58528 0.61276 0.38393 0.0
C264 C 0.61064 0.6329 0.36258 0.0
C265 C 0.62945 0.62215 0.3846 0.0
C266 C 0.62297 0.59132 0.42821 0.0
C267 C 0.59762 0.57105 0.44965 0.0
H268 H 0.64908 0.63777 0.368 0.0
H269 H 0.40431 0.4644 0.57789 0.0
H270 H 0.13863 0.41513 0.96841 0.0
H271 H 0.18301 0.42436 0.97179 0.0
H272 H 0.22047 0.53899 0.07906 0.0
H273 H 0.17603 0.53107 0.07181 0.0
H274 H 0.24948 0.54388 0.98759 0.0
H275 H 0.21339 0.45626 0.16327 0.0
H276 H 0.17961 0.39806 0.2165 0.0
H277 H 0.18189 0.32104 0.07195 0.0
H278 H 0.21541 0.37876 0.0172 0.0
H279 H 0.37497 0.54786 0.04435 0.0
H280 H 0.33515 0.54886 0.06406 0.0
H281 H 0.28305 0.4368 0.94655 0.0
H282 H 0.32242 0.43478 0.92921 0.0
H283 H 0.26466 0.43679 0.06179 0.0
H284 H 0.29951 0.52868 0.88201 0.0
H285 H 0.33392 0.58895 0.83442 0.0
H286 H 0.33528 0.66062 -0.00307 0.0
H287 H 0.30119 0.6007 0.0461 0.0
C288 C 0.15625 0.44256 -0.00791 0.0
C289 C 0.15358 0.47234 0.01979 0.0
C290 C 0.18169 0.44756 -0.00507 0.0
C291 C 0.20516 0.48204 0.027 0.0
C292 C 0.20268 0.51197 0.05455 0.0
C293 C 0.17718 0.50719 0.05099 0.0
C294 C 0.23217 0.48683 0.03011 0.0
C295 C 0.25295 0.52075 0.00499 0.0
C296 C 0.23684 0.45675 0.05279 0.0
C297 C 0.21681 0.42188 0.08586 0.0
C298 C 0.20657 0.42691 0.14256 0.0
C299 C 0.18748 0.394 0.17304 0.0
C300 C 0.17858 0.35588 0.14756 0.0
C301 C 0.1888 0.35059 0.09163 0.0
C302 C 0.20788 0.3834 0.06092 0.0
C303 C 0.35501 0.52329 0.02318 0.0
C304 C 0.35197 0.49135 0.98477 0.0
C305 C 0.33227 0.5241 0.03392 0.0
C306 C 0.30607 0.49311 0.00613 0.0
C307 C 0.30303 0.46114 0.96833 0.0
C308 C 0.32564 0.46023 0.95784 0.0
C309 C 0.28153 0.49306 0.01677 0.0
C310 C 0.26126 0.46007 0.04502 0.0
C311 C 0.27755 0.52427 -0.00206 0.0
C312 C 0.29808 0.56018 0.96825 0.0
C313 C 0.30734 0.55726 0.90796 0.0
C314 C 0.32676 0.59137 0.88064 0.0
C315 C 0.33687 0.62858 0.91279 0.0
C316 C 0.32751 0.63178 0.9722 0.0
C317 C 0.30815 0.59776 -0.00019 0.0
H318 H 0.35189 0.65494 0.89155 0.0
H319 H 0.16379 0.33044 0.1712 0.0
H320 H 0.7156 0.27633 0.02634 0.0
H321 H 0.76365 0.32441 0.02489 0.0
H322 H 0.77253 0.23255 0.94611 0.0
H323 H 0.72474 0.18402 0.94976 0.0
H324 H 0.81292 0.27754 0.0504 0.0
H325 H 0.76985 0.30253 0.84282 0.0
H326 H 0.73832 0.31915 0.77805 0.0
H327 H 0.77785 0.42941 0.8993 0.0
H328 H 0.80941 0.41322 0.96516 0.0
H329 H 0.945 0.39895 0.96712 0.0
H330 H 0.89663 0.35119 0.96547 0.0
H331 H 0.88534 0.44636 0.01124 0.0
H332 H 0.93326 0.49415 0.00881 0.0
H333 H 0.84567 0.3996 0.92442 0.0
H334 H 0.88676 0.37838 0.13462 0.0
H335 H 0.91797 0.36481 0.20977 0.0
H336 H 0.8824 0.25219 0.09912 0.0
H337 H 0.85119 0.26532 0.02269 0.0
C338 C 0.72775 0.26627 0.00881 0.0
C339 C 0.71616 0.22618 0.98802 0.0
C340 C 0.75522 0.29393 0.00745 0.0
C341 C 0.77174 0.28225 0.98475 0.0
C342 C 0.76022 0.24235 0.96362 0.0
C343 C 0.73277 0.21467 0.96503 0.0
C344 C 0.80114 0.31132 0.98452 0.0
C345 C 0.82009 0.30398 0.02206 0.0
C346 C 0.81061 0.34664 0.94984 0.0
C347 C 0.79181 0.35647 0.90941 0.0
C348 C 0.7717 0.33019 0.85594 0.0
C349 C 0.75384 0.33956 0.81896 0.0
C350 C 0.75602 0.37525 0.83466 0.0
C351 C 0.77614 0.40174 0.88721 0.0
C352 C 0.79403 0.3925 0.92433 0.0
C353 C 0.93216 0.4096 0.97684 0.0
C354 C 0.94295 0.4503 0.98805 0.0
C355 C 0.90448 0.38224 0.97639 0.0
C356 C 0.88716 0.39487 0.98949 0.0
C357 C 0.89806 0.43562 0.0008 0.0
C358 C 0.92554 0.463 -0.00045 0.0
C359 C 0.85766 0.3659 0.99024 0.0
C360 C 0.83863 0.37322 0.95284 0.0
C361 C 0.84814 0.33105 0.02656 0.0
C362 C 0.86683 0.32301 0.0725 0.0
C363 C 0.88573 0.35084 0.126 0.0
C364 C 0.9034 0.34321 0.16888 0.0
C365 C 0.90222 0.30771 0.15911 0.0
C366 C 0.88331 0.27971 0.10656 0.0
C367 C 0.86562 0.28721 0.06349 0.0
H368 H 0.91592 0.30186 0.19235 0.0
H369 H 0.74217 0.38243 0.806 0.0
H370 H 0.48332 0.89703 0.92196 0.0
H371 H 0.48368 0.83608 0.92107 0.0
H372 H 0.56121 0.89524 0.05348 0.0
H373 H 0.56125 0.95655 0.05356 0.0
H374 H 0.56164 0.8519 0.95466 0.0
H375 H 0.5 0.82785 0.11206 0.0
H376 H 0.45998 0.82241 0.14907 0.0
H377 H 0.40788 0.73197 0.98762 0.0
H378 H 0.44763 0.73732 0.94894 0.0
H379 H 0.56493 0.68052 0.04247 0.0
H380 H 0.56395 0.74096 0.04557 0.0
H381 H 0.48544 0.68069 0.91758 0.0
H382 H 0.48598 0.61991 0.91565 0.0
H383 H 0.4853 0.72447 0.01405 0.0
H384 H 0.54559 0.74843 0.85447 0.0
H385 H 0.58492 0.75329 0.81417 0.0
H386 H 0.63862 0.84314 0.97517 0.0
H387 H 0.59957 0.83844 0.01701 0.0
C388 C 0.50044 0.89716 0.95119 0.0
C389 C 0.52222 0.93195 0.98802 0.0
C390 C 0.50056 0.86206 0.95087 0.0
C391 C 0.52232 0.8606 0.98793 0.0
C392 C 0.54413 0.89535 0.02449 0.0
C393 C 0.54408 0.93049 0.02465 0.0
C394 C 0.52263 0.82322 0.98767 0.0
C395 C 0.54509 0.8242 0.96867 0.0
C396 C 0.50075 0.78654 0.0039 0.0
C397 C 0.47683 0.78328 0.02717 0.0
C398 C 0.48003 0.80703 0.08409 0.0
C399 C 0.45739 0.80393 0.10542 0.0
C400 C 0.43141 0.77695 0.0706 0.0
C401 C 0.42801 0.75293 0.01446 0.0
C402 C 0.45059 0.75597 -0.00716 0.0
C403 C 0.54744 0.68004 0.01483 0.0
C404 C 0.5256 0.64514 0.97852 0.0
C405 C 0.54695 0.71483 0.01638 0.0
C406 C 0.52478 0.71588 0.98095 0.0
C407 C 0.50283 0.68093 0.94533 0.0
C408 C 0.50323 0.64608 0.94408 0.0
C409 C 0.52436 0.75319 0.98126 0.0
C410 C 0.50187 0.75219 0.00016 0.0
C411 C 0.54611 0.7898 0.96445 0.0
C412 C 0.56964 0.7928 0.93928 0.0
C413 C 0.56577 0.76902 0.88159 0.0
C414 C 0.58802 0.77177 0.85842 0.0
C415 C 0.61424 0.79843 0.8922 0.0
C416 C 0.61829 0.82246 0.94911 0.0
C417 C 0.59611 0.81979 0.97255 0.0
H418 H 0.63144 0.80052 0.87419 0.0
H419 H 0.41391 0.77458 0.08721 0.0
H420 H 0.90587 0.6041 0.12402 0.0
H421 H 0.86184 0.59572 0.12933 0.0
H422 H 0.84531 0.58863 0.90719 0.0
H423 H 0.88944 0.59784 0.90184 0.0
H424 H 0.8331 0.63579 0.95606 0.0
H425 H 0.81392 0.50578 0.00641 0.0
H426 H 0.82098 0.45708 0.06924 0.0
H427 H 0.8093 0.49525 0.25656 0.0
H428 H 0.80263 0.54468 0.19517 0.0
H429 H 0.6953 0.57059 0.90737 0.0
H430 H 0.73649 0.5693 0.9115 0.0
H431 H 0.75231 0.58921 0.13274 0.0
H432 H 0.7109 0.59044 0.12896 0.0
H433 H 0.76489 0.53593 0.08921 0.0
H434 H 0.78383 0.66572 0.03623 0.0
H435 H 0.77604 0.71322 0.97141 0.0
H436 H 0.78758 0.67341 0.78553 0.0
H437 H 0.79506 0.62524 0.84909 0.0
C438 C 0.89271 0.60043 0.07639 0.0
C439 C 0.90117 0.60184 0.01252 0.0
C440 C 0.8675 0.5955 0.07943 0.0
C441 C 0.85005 0.59115 0.01862 0.0
C442 C 0.85839 0.59206 0.95486 0.0
C443 C 0.88366 0.59743 0.95183 0.0
C444 C 0.8236 0.58737 0.02096 0.0
C445 C 0.81808 0.61353 0.98445 0.0
C446 C 0.80418 0.55906 0.05945 0.0
C447 C 0.80805 0.52921 0.09632 0.0
C448 C 0.81306 0.504 0.06111 0.0
C449 C 0.81695 0.47622 0.09642 0.0
C450 C 0.81562 0.47311 0.16682 0.0
C451 C 0.81035 0.49772 0.20204 0.0
C452 C 0.8065 0.52562 0.16702 0.0
C453 C 0.70747 0.57453 0.95698 0.0
C454 C 0.70004 0.58119 0.01777 0.0
C455 C 0.73098 0.5737 0.95927 0.0
C456 C 0.74776 0.57989 0.0223 0.0
C457 C 0.73971 0.58449 0.08351 0.0
C458 C 0.71604 0.58514 0.08128 0.0
C459 C 0.77441 0.58391 0.02347 0.0
C460 C 0.77998 0.55804 0.06083 0.0
C461 C 0.79389 0.61232 0.98542 0.0
C462 C 0.78979 0.64166 0.94733 0.0
C463 C 0.78455 0.66693 0.98146 0.0
C464 C 0.7802 0.69399 0.94495 0.0
C465 C 0.78126 0.69628 0.87437 0.0
C466 C 0.78675 0.67158 0.84019 0.0
C467 C 0.79106 0.64443 0.87644 0.0
H468 H 0.77787 0.71723 0.84619 0.0
H469 H 0.81864 0.45158 0.19405 0.0
H470 H 0.10873 0.66683 0.06769 0.0
H471 H 0.15734 0.71464 0.07218 0.0
H472 H 0.16254 0.63339 0.94338 0.0
H473 H 0.11451 0.58521 0.94091 0.0
H474 H 0.20401 0.66445 0.03757 0.0
H475 H 0.16191 0.71773 0.88283 0.0
H476 H 0.13165 0.74219 0.84607 0.0
H477 H 0.1741 0.83387 0.00959 0.0
H478 H 0.20441 0.80961 0.04788 0.0
H479 H 0.32882 0.80032 0.92049 0.0
H480 H 0.28153 0.75226 0.93084 0.0
H481 H 0.28328 0.8332 0.07667 0.0
H482 H 0.3303 0.88183 0.0651 0.0
H483 H 0.239 0.80322 0.97993 0.0
H484 H 0.28377 0.75037 0.12671 0.0
H485 H 0.31395 0.72511 0.15621 0.0
H486 H 0.2662 0.63111 -0.00202 0.0
H487 H 0.23596 0.6562 0.96668 0.0
C488 C 0.12025 0.65922 0.04026 0.0
C489 C 0.10763 0.62218 0.00382 0.0
C490 C 0.14806 0.68666 0.04262 0.0
C491 C 0.16373 0.67799 0.00736 0.0
C492 C 0.15109 0.64093 0.97122 0.0
C493 C 0.12348 0.61337 0.96967 0.0
C494 C 0.19324 0.70718 0.00778 0.0
C495 C 0.21158 0.69467 0.0242 0.0
C496 C 0.20339 0.74693 0.99161 0.0
C497 C 0.18522 0.76158 0.96867 0.0
C498 C 0.16465 0.74292 0.91126 0.0
C499 C 0.14752 0.75678 0.8901 0.0
C500 C 0.1509 0.78949 0.9256 0.0
C501 C 0.17147 0.80848 0.98222 0.0
C502 C 0.18865 0.79471 0.00365 0.0
C503 C 0.31917 0.80791 0.95486 0.0
C504 C 0.33346 0.84502 -0.00801 0.0
C505 C 0.29216 0.78022 0.96119 0.0
C506 C 0.27882 0.7889 0.005 0.0
C507 C 0.29311 0.82572 0.04271 0.0
C508 C 0.32012 0.85339 0.03651 0.0
C509 C 0.24967 0.76038 0.00925 0.0
C510 C 0.23142 0.77304 -0.00636 0.0
C511 C 0.23957 0.72061 0.02504 0.0
C512 C 0.25774 0.70545 0.04388 0.0
C513 C 0.27983 0.72453 0.09776 0.0
C514 C 0.29693 0.71021 0.11487 0.0
C515 C 0.29205 0.67661 0.07884 0.0
C516 C 0.26999 0.65719 0.02574 0.0
C517 C 0.25285 0.67144 0.00832 0.0
H518 H 0.30531 0.66559 0.09222 0.0
H519 H 0.13761 0.80018 0.90913 0.0
H520 H 0.56868 0.46294 0.95887 0.0
H521 H 0.56907 0.402 0.95902 0.0
H522 H 0.48509 0.33529 0.98513 0.0
H523 H 0.48464 0.39622 0.98623 0.0
H524 H 0.51214 0.31014 0.06679 0.0
H525 H 0.50608 0.33578 0.82713 0.0
H526 H 0.52004 0.37552 0.72647 0.0
H527 H 0.597 0.38508 0.76601 0.0
H528 H 0.58363 0.34584 0.86752 0.0
H529 H 0.48398 0.11819 0.98717 0.0
H530 H 0.48482 0.17998 0.98547 0.0
H531 H 0.56863 0.24357 0.95789 0.0
H532 H 0.5678 0.18153 0.95809 0.0
H533 H 0.54266 0.27104 0.87784 0.0
H534 H 0.54885 0.24517 0.11653 0.0
H535 H 0.53521 0.20567 0.21757 0.0
H536 H 0.45853 0.19703 0.18065 0.0
H537 H 0.47157 0.23603 0.07878 0.0
C538 C 0.55022 0.43535 0.96452 0.0
C539 C 0.52658 0.43474 0.97225 0.0
C540 C 0.55045 0.40035 0.96429 0.0
C541 C 0.527 0.36366 0.97114 0.0
C542 C 0.50347 0.36304 0.97963 0.0
C543 C 0.50323 0.39804 0.98005 0.0
C544 C 0.52701 0.32606 0.9701 0.0
C545 C 0.51848 0.3014 0.02492 0.0
C546 C 0.53594 0.31483 0.91658 0.0
C547 C 0.54395 0.3382 0.85531 0.0
C548 C 0.52605 0.34659 0.81464 0.0
C549 C 0.53385 0.36899 0.7574 0.0
C550 C 0.55941 0.3829 0.73996 0.0
C551 C 0.57721 0.37434 0.77963 0.0
C552 C 0.56953 0.35199 0.83699 0.0
C553 C 0.50265 0.14524 0.98073 0.0
C554 C 0.52587 0.14464 0.97317 0.0
C555 C 0.50313 0.18076 0.98009 0.0
C556 C 0.52692 0.21686 0.97273 0.0
C557 C 0.55001 0.21629 0.96389 0.0
C558 C 0.54952 0.18069 0.96419 0.0
C559 C 0.52765 0.25502 0.97436 0.0
C560 C 0.53635 0.2798 0.91972 0.0
C561 C 0.51892 0.26643 0.02813 0.0
C562 C 0.5111 0.24322 0.08966 0.0
C563 C 0.52901 0.23462 0.12969 0.0
C564 C 0.52139 0.21235 0.18714 0.0
C565 C 0.496 0.19877 0.20542 0.0
C566 C 0.47819 0.20753 0.16638 0.0
C567 C 0.48569 0.22975 0.10882 0.0
H568 H 0.49014 0.18152 0.24991 0.0
H569 H 0.56541 0.40024 0.69563 0.0
loop_
_geom_bond_atom_site_label_1
_geom_bond_atom_site_label_2
_geom_bond_distance
_geom_bond_site_symmetry_2
_ccdc_geom_bond_type
Tb0 C9 2.764 . S
Tb0 O10 2.325 . S
Tb0 O13 2.285 1_656 S
Tb0 O17 2.322 1_655 S
Tb0 O18 2.349 . S
Tb0 O21 2.415 1_556 S
Tb0 O22 2.399 . S
Tb1 O11 2.322 1_455 S
Tb1 O12 2.349 . S
Tb1 O14 2.415 1_554 S
Tb1 O15 2.399 . S
Tb1 O16 2.325 . S
Tb1 O19 2.303 1_554 S
Tb1 C30 2.764 . S
C2 O18 1.261 . S
C2 O19 1.257 1_655 S
C3 C6 1.358 . S
C3 C7 1.332 1_556 S
C3 C9 1.504 . S
C4 C5 1.373 1_554 S
C4 C8 1.308 . S
C5 C4 1.373 1_556 S
C5 C6 1.429 . S
C5 H32 0.932 . S
C6 C3 1.358 . S
C6 C5 1.429 . S
C6 H33 0.930 . S
C7 C3 1.332 1_554 S
C7 C8 1.394 . S
C7 H34 0.932 . S
C8 C4 1.308 . S
C8 C7 1.394 . S
C8 H35 0.929 . S
C9 Tb0 2.764 . S
C9 C3 1.504 . S
C9 O21 1.239 1_556 S
C9 O22 1.263 . S
O10 Tb0 2.325 . S
O10 C20 1.236 . S
O11 Tb1 2.322 1_655 S
O11 C20 1.257 1_554 S
O12 Tb1 2.349 . S
O12 C23 1.261 . S
O13 Tb0 2.285 1_454 S
O13 C23 1.272 . S
O14 Tb1 2.415 1_556 S
O14 C30 1.239 1_556 S
O15 Tb1 2.399 . S
O15 C30 1.263 . S
O16 Tb1 2.325 . S
O16 C31 1.236 . S
O17 Tb0 2.322 1_455 S
O17 C31 1.257 1_556 S
O18 Tb0 2.349 . S
O18 C2 1.261 . S
O19 Tb1 2.303 1_556 S
O19 C2 1.257 1_455 S
C20 O10 1.236 . S
C20 O11 1.257 1_556 S
O21 Tb0 2.415 1_554 S
O21 C9 1.239 1_554 S
O22 Tb0 2.399 . S
O22 C9 1.263 . S
C23 O12 1.261 . S
C23 O13 1.272 . S
C24 C27 1.358 . S
C24 C28 1.332 1_554 S
C24 C30 1.504 . S
C25 C26 1.373 1_556 S
C25 C29 1.308 . S
C26 C25 1.373 1_554 S
C26 C27 1.429 . S
C26 H36 0.932 . S
C27 C24 1.358 . S
C27 C26 1.429 . S
C27 H37 0.930 . S
C28 C24 1.332 1_556 S
C28 C29 1.394 . S
C28 H38 0.932 . S
C29 C25 1.308 . S
C29 C28 1.394 . S
C29 H39 0.929 . S
C30 Tb1 2.764 . S
C30 O14 1.239 1_554 S
C30 O15 1.263 . S
C30 C24 1.504 . S
C31 O16 1.236 . S
C31 O17 1.257 1_554 S
H32 C5 0.932 . S
H33 C6 0.930 . S
H34 C7 0.932 . S
H35 C8 0.929 . S
H36 C26 0.932 . S
H37 C27 0.930 . S
H38 C28 0.932 . S
H39 C29 0.929 . S
Tb40 C49 2.764 . S
Tb40 O50 2.325 . S
Tb40 O53 2.303 1_556 S
Tb40 O57 2.322 1_565 S
Tb40 O58 2.349 . S
Tb40 O61 2.415 1_556 S
Tb40 O62 2.399 . S
Tb41 O51 2.322 1_545 S
Tb41 O52 2.349 . S
Tb41 O54 2.415 1_554 S
Tb41 O55 2.399 . S
Tb41 O56 2.325 . S
Tb41 O59 2.303 1_554 S
Tb41 C70 2.764 . S
C42 O58 1.261 . S
C42 O59 1.257 1_565 S
C43 C46 1.358 . S
C43 C47 1.332 1_556 S
C43 C49 1.504 . S
C44 C45 1.373 . S
C44 C48 1.308 1_556 S
C45 C44 1.373 . S
C45 C46 1.429 . S
C45 H72 0.932 . S
C46 C43 1.358 . S
C46 C45 1.429 . S
C46 H73 0.930 . S
C47 C43 1.332 1_554 S
C47 C48 1.394 . S
C47 H74 0.932 . S
C48 C44 1.308 1_554 S
C48 C47 1.394 . S
C48 H75 0.929 . S
C49 Tb40 2.764 . S
C49 C43 1.504 . S
C49 O61 1.239 1_556 S
C49 O62 1.263 . S
O50 Tb40 2.325 . S
O50 C60 1.236 1_556 S
O51 Tb41 2.322 1_565 S
O51 C60 1.257 . S
O52 Tb41 2.349 . S
O52 C63 1.261 . S
O53 Tb40 2.303 1_554 S
O53 C63 1.257 1_565 S
O54 Tb41 2.415 1_556 S
O54 C70 1.239 1_556 S
O55 Tb41 2.399 . S
O55 C70 1.263 . S
O56 Tb41 2.325 . S
O56 C71 1.236 1_554 S
O57 Tb40 2.322 1_545 S
O57 C71 1.257 . S
O58 Tb40 2.349 . S
O58 C42 1.261 . S
O59 Tb41 2.303 1_556 S
O59 C42 1.257 1_545 S
C60 O50 1.236 1_554 S
C60 O51 1.257 . S
O61 Tb40 2.415 1_554 S
O61 C49 1.239 1_554 S
O62 Tb40 2.399 . S
O62 C49 1.263 . S
C63 O52 1.261 . S
C63 O53 1.257 1_545 S
C64 C67 1.358 . S
C64 C68 1.332 1_554 S
C64 C70 1.504 . S
C65 C66 1.373 . S
C65 C69 1.308 1_554 S
C66 C65 1.373 . S
C66 C67 1.429 . S
C66 H76 0.932 . S
C67 C64 1.358 . S
C67 C66 1.429 . S
C67 H77 0.930 . S
C68 C64 1.332 1_556 S
C68 C69 1.394 . S
C68 H78 0.932 . S
C69 C65 1.308 1_556 S
C69 C68 1.394 . S
C69 H79 0.929 . S
C70 Tb41 2.764 . S
C70 O54 1.239 1_554 S
C70 O55 1.263 . S
C70 C64 1.504 . S
C71 O56 1.236 1_556 S
C71 O57 1.257 . S
H72 C45 0.932 . S
H73 C46 0.930 . S
H74 C47 0.932 . S
H75 C48 0.929 . S
H76 C66 0.932 . S
H77 C67 0.930 . S
H78 C68 0.932 . S
H79 C69 0.929 . S
Tb80 C89 2.764 . S
Tb80 O90 2.325 . S
Tb80 O93 2.303 1_554 S
Tb80 O97 2.322 . S
Tb80 O98 2.349 . S
Tb80 O101 2.415 1_554 S
Tb80 O102 2.399 . S
Tb81 O91 2.322 . S
Tb81 O92 2.349 . S
Tb81 O94 2.415 1_556 S
Tb81 O95 2.399 . S
Tb81 O96 2.325 . S
Tb81 O99 2.303 1_556 S
Tb81 C110 2.764 . S
C82 O98 1.261 . S
C82 O99 1.257 . S
C83 C86 1.358 . S
C83 C87 1.332 1_554 S
C83 C89 1.504 . S
C84 C85 1.373 . S
C84 C88 1.308 1_554 S
C85 C84 1.373 . S
C85 C86 1.429 . S
C85 H112 0.932 . S
C86 C83 1.358 . S
C86 C85 1.429 . S
C86 H113 0.930 . S
C87 C83 1.332 1_556 S
C87 C88 1.394 . S
C87 H114 0.932 . S
C88 C84 1.308 1_556 S
C88 C87 1.394 . S
C88 H115 0.929 . S
C89 Tb80 2.764 . S
C89 C83 1.504 . S
C89 O101 1.239 1_554 S
C89 O102 1.263 . S
O90 Tb80 2.325 . S
O90 C100 1.236 1_554 S
O91 Tb81 2.322 . S
O91 C100 1.257 . S
O92 Tb81 2.349 . S
O92 C103 1.261 . S
O93 Tb80 2.303 1_556 S
O93 C103 1.257 . S
O94 Tb81 2.415 1_554 S
O94 C110 1.239 1_554 S
O95 Tb81 2.399 . S
O95 C110 1.263 . S
O96 Tb81 2.325 . S
O96 C111 1.236 1_556 S
O97 Tb80 2.322 . S
O97 C111 1.257 . S
O98 Tb80 2.349 . S
O98 C82 1.261 . S
O99 Tb81 2.303 1_554 S
O99 C82 1.257 . S
C100 O90 1.236 1_556 S
C100 O91 1.257 . S
O101 Tb80 2.415 1_556 S
O101 C89 1.239 1_556 S
O102 Tb80 2.399 . S
O102 C89 1.263 . S
C103 O92 1.261 . S
C103 O93 1.257 . S
C104 C107 1.358 . S
C104 C108 1.332 1_556 S
C104 C110 1.504 . S
C105 C106 1.373 . S
C105 C109 1.308 1_556 S
C106 C105 1.373 . S
C106 C107 1.429 . S
C106 H116 0.932 . S
C107 C104 1.358 . S
C107 C106 1.429 . S
C107 H117 0.930 . S
C108 C104 1.332 1_554 S
C108 C109 1.394 . S
C108 H118 0.932 . S
C109 C105 1.308 1_554 S
C109 C108 1.394 . S
C109 H119 0.929 . S
C110 Tb81 2.764 . S
C110 O94 1.239 1_556 S
C110 O95 1.263 . S
C110 C104 1.504 . S
C111 O96 1.236 1_554 S
C111 O97 1.257 . S
H112 C85 0.932 . S
H113 C86 0.930 . S
H114 C87 0.932 . S
H115 C88 0.929 . S
H116 C106 0.932 . S
H117 C107 0.930 . S
H118 C108 0.932 . S
H119 C109 0.929 . S
H120 C138 0.951 . S
H121 C140 0.951 . S
H122 C142 0.950 . S
H123 C143 0.939 . S
H124 C145 0.950 . S
H125 C148 0.950 . S
H126 C149 0.950 . S
H127 C151 0.950 . S
H128 C152 0.950 . S
H129 C153 0.953 1_655 S
H130 C155 0.964 1_655 S
H131 C157 0.950 . S
H132 C158 0.950 . S
H133 C160 0.950 . S
H134 C163 0.950 . S
H135 C164 0.950 . S
H136 C166 0.950 . S
H137 C167 0.950 . S
C138 H120 0.951 . S
C138 C139 1.366 . S
C138 C140 1.388 . S
C139 C138 1.366 . S
C139 C143 1.403 1_455 S
C140 H121 0.951 . S
C140 C138 1.388 . S
C140 C141 1.366 . S
C141 C140 1.366 . S
C141 C142 1.414 1_455 S
C141 C144 1.491 . S
C142 H122 0.950 . S
C142 C141 1.414 1_655 S
C142 C143 1.369 . S
C143 H123 0.939 . S
C143 C139 1.403 1_655 S
C143 C142 1.369 . S
C144 C141 1.491 . S
C144 C145 1.419 . S
C144 C146 1.354 1_455 S
C145 H124 0.950 . S
C145 C144 1.419 . S
C145 C161 1.377 . S
C146 C144 1.354 1_655 S
C146 C147 1.524 . S
C146 C160 1.377 . S
C147 C146 1.524 . S
C147 C148 1.397 . S
C147 C152 1.363 . S
C148 H125 0.950 . S
C148 C147 1.397 . S
C148 C149 1.334 . S
C149 H126 0.950 . S
C149 C148 1.334 . S
C149 C150 1.287 . S
C150 C149 1.287 . S
C150 C151 1.524 . S
C150 H169 0.913 . S
C151 H127 0.950 . S
C151 C150 1.524 . S
C151 C152 1.415 . S
C152 H128 0.950 . S
C152 C147 1.363 . S
C152 C151 1.415 . S
C153 H129 0.953 1_455 S
C153 C154 1.364 . S
C153 C155 1.393 . S
C154 C153 1.364 . S
C154 C158 1.385 . S
C155 H130 0.964 1_455 S
C155 C153 1.393 . S
C155 C156 1.348 . S
C156 C155 1.348 . S
C156 C157 1.414 . S
C156 C159 1.499 . S
C157 H131 0.950 . S
C157 C156 1.414 . S
C157 C158 1.374 . S
C158 H132 0.950 . S
C158 C154 1.385 . S
C158 C157 1.374 . S
C159 C156 1.499 . S
C159 C160 1.373 1_455 S
C159 C161 1.389 . S
C160 H133 0.950 . S
C160 C146 1.377 . S
C160 C159 1.373 1_655 S
C161 C145 1.377 . S
C161 C159 1.389 . S
C161 C162 1.524 . S
C162 C161 1.524 . S
C162 C163 1.397 . S
C162 C167 1.363 . S
C163 H134 0.950 . S
C163 C162 1.397 . S
C163 C164 1.334 . S
C164 H135 0.950 . S
C164 C163 1.334 . S
C164 C165 1.287 . S
C165 C164 1.287 . S
C165 C166 1.524 . S
C165 H168 0.999 . S
C166 H136 0.950 . S
C166 C165 1.524 . S
C166 C167 1.415 . S
C167 H137 0.950 . S
C167 C162 1.363 . S
C167 C166 1.415 . S
H168 C165 0.999 . S
H169 C150 0.913 . S
H170 C188 0.951 . S
H171 C190 0.951 . S
H172 C192 0.950 . S
H173 C193 0.950 . S
H174 C195 0.950 . S
H175 C198 0.950 . S
H176 C199 0.950 . S
H177 C201 0.950 . S
H178 C202 0.950 . S
H179 C203 0.951 . S
H180 C205 0.951 . S
H181 C207 0.950 . S
H182 C208 0.950 . S
H183 C210 0.950 . S
H184 C213 0.950 . S
H185 C214 0.950 . S
H186 C216 0.950 . S
H187 C217 0.950 . S
C188 H170 0.951 . S
C188 C189 1.366 1_545 S
C188 C190 1.388 . S
C189 C188 1.366 1_565 S
C189 C193 1.385 . S
C190 H171 0.951 . S
C190 C188 1.388 . S
C190 C191 1.366 1_545 S
C191 C190 1.366 1_565 S
C191 C192 1.414 . S
C191 C194 1.499 . S
C192 H172 0.950 . S
C192 C191 1.414 . S
C192 C193 1.374 . S
C193 H173 0.950 . S
C193 C189 1.385 . S
C193 C192 1.374 . S
C194 C191 1.499 . S
C194 C195 1.373 . S
C194 C196 1.389 1_565 S
C195 H174 0.950 . S
C195 C194 1.373 . S
C195 C211 1.377 . S
C196 C194 1.389 1_545 S
C196 C197 1.524 . S
C196 C210 1.377 . S
C197 C196 1.524 . S
C197 C198 1.397 1_545 S
C197 C202 1.363 . S
C198 H175 0.950 . S
C198 C197 1.397 1_565 S
C198 C199 1.334 . S
C199 H176 0.950 . S
C199 C198 1.334 . S
C199 C200 1.287 1_565 S
C200 C199 1.287 1_545 S
C200 C201 1.524 . S
C200 H219 0.913 . S
C201 H177 0.950 . S
C201 C200 1.524 . S
C201 C202 1.415 . S
C202 H178 0.950 . S
C202 C197 1.363 . S
C202 C201 1.415 . S
C203 H179 0.951 . S
C203 C204 1.366 1_565 S
C203 C205 1.388 . S
C204 C203 1.366 1_545 S
C204 C208 1.385 . S
C205 H180 0.951 . S
C205 C203 1.388 . S
C205 C206 1.366 1_565 S
C206 C205 1.366 1_545 S
C206 C207 1.414 . S
C206 C209 1.499 . S
C207 H181 0.950 . S
C207 C206 1.414 . S
C207 C208 1.374 . S
C208 H182 0.950 . S
C208 C204 1.385 . S
C208 C207 1.374 . S
C209 C206 1.499 . S
C209 C210 1.373 . S
C209 C211 1.389 1_545 S
C210 H183 0.950 . S
C210 C196 1.377 . S
C210 C209 1.373 . S
C211 C195 1.377 . S
C211 C209 1.389 1_565 S
C211 C212 1.524 . S
C212 C211 1.524 . S
C212 C213 1.397 1_565 S
C212 C217 1.363 . S
C213 H184 0.950 . S
C213 C212 1.397 1_545 S
C213 C214 1.334 . S
C214 H185 0.950 . S
C214 C213 1.334 . S
C214 C215 1.287 1_545 S
C215 C214 1.287 1_565 S
C215 C216 1.524 . S
C215 H218 0.999 . S
C216 H186 0.950 . S
C216 C215 1.524 . S
C216 C217 1.415 . S
C217 H187 0.950 . S
C217 C212 1.363 . S
C217 C216 1.415 . S
H218 C215 0.999 . S
H219 C200 0.913 . S
H220 C238 0.951 . S
H221 C240 0.951 . S
H222 C242 0.950 . S
H223 C243 0.950 . S
H224 C245 0.950 . S
H225 C248 0.950 . S
H226 C249 0.950 . S
H227 C251 0.950 . S
H228 C252 0.950 . S
H229 C253 0.951 . S
H230 C255 0.951 . S
H231 C257 0.950 . S
H232 C258 0.950 . S
H233 C260 0.950 . S
H234 C263 0.950 . S
H235 C264 0.950 . S
H236 C266 0.950 . S
H237 C267 0.950 . S
C238 H220 0.951 . S
C238 C239 1.366 . S
C238 C240 1.388 . S
C239 C238 1.366 . S
C239 C243 1.385 . S
C240 H221 0.951 . S
C240 C238 1.388 . S
C240 C241 1.366 . S
C241 C240 1.366 . S
C241 C242 1.414 . S
C241 C244 1.499 . S
C242 H222 0.950 . S
C242 C241 1.414 . S
C242 C243 1.374 . S
C243 H223 0.950 . S
C243 C239 1.385 . S
C243 C242 1.374 . S
C244 C241 1.499 . S
C244 C245 1.373 . S
C244 C246 1.389 . S
C245 H224 0.950 . S
C245 C244 1.373 . S
C245 C261 1.377 . S
C246 C244 1.389 . S
C246 C247 1.524 . S
C246 C260 1.377 . S
C247 C246 1.524 . S
C247 C248 1.397 . S
C247 C252 1.363 . S
C248 H225 0.950 . S
C248 C247 1.397 . S
C248 C249 1.334 . S
C249 H226 0.950 . S
C249 C248 1.334 . S
C249 C250 1.287 . S
C250 C249 1.287 . S
C250 C251 1.524 . S
C250 H269 0.913 . S
C251 H227 0.950 . S
C251 C250 1.524 . S
C251 C252 1.415 . S
C252 H228 0.950 . S
C252 C247 1.363 . S
C252 C251 1.415 . S
C253 H229 0.951 . S
C253 C254 1.366 . S
C253 C255 1.388 . S
C254 C253 1.366 . S
C254 C258 1.385 . S
C255 H230 0.951 . S
C255 C253 1.388 . S
C255 C256 1.366 . S
C256 C255 1.366 . S
C256 C257 1.414 . S
C256 C259 1.499 . S
C257 H231 0.950 . S
C257 C256 1.414 . S
C257 C258 1.374 . S
C258 H232 0.950 . S
C258 C254 1.385 . S
C258 C257 1.374 . S
C259 C256 1.499 . S
C259 C260 1.373 . S
C259 C261 1.389 . S
C260 H233 0.950 . S
C260 C246 1.377 . S
C260 C259 1.373 . S
C261 C245 1.377 . S
C261 C259 1.389 . S
C261 C262 1.524 . S
C262 C261 1.524 . S
C262 C263 1.397 . S
C262 C267 1.363 . S
C263 H234 0.950 . S
C263 C262 1.397 . S
C263 C264 1.334 . S
C264 H235 0.950 . S
C264 C263 1.334 . S
C264 C265 1.287 . S
C265 C264 1.287 . S
C265 C266 1.524 . S
C265 H268 0.999 . S
C266 H236 0.950 . S
C266 C265 1.524 . S
C266 C267 1.415 . S
C267 H237 0.950 . S
C267 C262 1.363 . S
C267 C266 1.415 . S
H268 C265 0.999 . S
H269 C250 0.913 . S
H270 C288 0.951 . S
H271 C290 0.951 . S
H272 C292 0.950 . S
H273 C293 0.950 . S
H274 C295 0.950 . S
H275 C298 0.950 . S
H276 C299 0.950 . S
H277 C301 0.950 1_556 S
H278 C302 0.950 . S
H279 C303 0.951 . S
H280 C305 0.951 . S
H281 C307 0.950 . S
H282 C308 0.950 . S
H283 C310 0.950 . S
H284 C313 0.950 . S
H285 C314 0.950 . S
H286 C316 0.950 . S
H287 C317 0.950 1_554 S
C288 H270 0.951 . S
C288 C289 1.366 . S
C288 C290 1.388 . S
C289 C288 1.366 . S
C289 C293 1.385 1_556 S
C290 H271 0.951 . S
C290 C288 1.388 . S
C290 C291 1.366 . S
C291 C290 1.366 . S
C291 C292 1.414 1_556 S
C291 C294 1.499 . S
C292 H272 0.950 . S
C292 C291 1.414 1_554 S
C292 C293 1.374 . S
C293 H273 0.950 . S
C293 C289 1.385 1_554 S
C293 C292 1.374 . S
C294 C291 1.499 . S
C294 C295 1.373 . S
C294 C296 1.389 1_556 S
C295 H274 0.950 . S
C295 C294 1.373 . S
C295 C311 1.377 . S
C296 C294 1.389 1_554 S
C296 C297 1.524 . S
C296 C310 1.377 . S
C297 C296 1.524 . S
C297 C298 1.397 . S
C297 C302 1.363 1_554 S
C298 H275 0.950 . S
C298 C297 1.397 . S
C298 C299 1.334 . S
C299 H276 0.950 . S
C299 C298 1.334 . S
C299 C300 1.287 . S
C300 C299 1.287 . S
C300 C301 1.524 . S
C300 H319 0.913 . S
C301 H277 0.950 1_554 S
C301 C300 1.524 . S
C301 C302 1.415 1_554 S
C302 H278 0.950 . S
C302 C297 1.363 1_556 S
C302 C301 1.415 1_556 S
C303 H279 0.951 . S
C303 C304 1.366 1_554 S
C303 C305 1.388 . S
C304 C303 1.366 1_556 S
C304 C308 1.385 . S
C305 H280 0.951 . S
C305 C303 1.388 . S
C305 C306 1.366 1_554 S
C306 C305 1.366 1_556 S
C306 C307 1.414 . S
C306 C309 1.499 . S
C307 H281 0.950 . S
C307 C306 1.414 . S
C307 C308 1.374 . S
C308 H282 0.950 . S
C308 C304 1.385 . S
C308 C307 1.374 . S
C309 C306 1.499 . S
C309 C310 1.373 1_556 S
C309 C311 1.389 . S
C310 H283 0.950 . S
C310 C296 1.377 . S
C310 C309 1.373 1_554 S
C311 C295 1.377 . S
C311 C309 1.389 . S
C311 C312 1.524 . S
C312 C311 1.524 . S
C312 C313 1.397 . S
C312 C317 1.363 . S
C313 H284 0.950 . S
C313 C312 1.397 . S
C313 C314 1.334 . S
C314 H285 0.950 . S
C314 C313 1.334 . S
C314 C315 1.287 . S
C315 C314 1.287 . S
C315 C316 1.524 . S
C315 H318 0.999 . S
C316 H286 0.950 . S
C316 C315 1.524 . S
C316 C317 1.415 . S
C317 H287 0.950 1_556 S
C317 C312 1.363 . S
C317 C316 1.415 . S
H318 C315 0.999 . S
H319 C300 0.913 . S
H320 C338 0.951 . S
H321 C340 0.951 . S
H322 C342 0.950 . S
H323 C343 0.950 . S
H324 C345 0.950 . S
H325 C348 0.950 . S
H326 C349 0.950 . S
H327 C351 0.950 . S
H328 C352 0.950 . S
H329 C353 0.951 . S
H330 C355 0.951 . S
H331 C357 0.950 . S
H332 C358 0.950 . S
H333 C360 0.950 . S
H334 C363 0.950 . S
H335 C364 0.950 . S
H336 C366 0.950 . S
H337 C367 0.950 . S
C338 H320 0.951 . S
C338 C339 1.366 . S
C338 C340 1.388 . S
C339 C338 1.366 . S
C339 C343 1.385 1_554 S
C340 H321 0.951 . S
C340 C338 1.388 . S
C340 C341 1.366 1_554 S
C341 C340 1.366 1_556 S
C341 C342 1.414 . S
C341 C344 1.499 . S
C342 H322 0.950 . S
C342 C341 1.414 . S
C342 C343 1.374 . S
C343 H323 0.950 . S
C343 C339 1.385 1_556 S
C343 C342 1.374 . S
C344 C341 1.499 . S
C344 C345 1.373 1_556 S
C344 C346 1.389 . S
C345 H324 0.950 . S
C345 C344 1.373 1_554 S
C345 C361 1.377 . S
C346 C344 1.389 . S
C346 C347 1.524 . S
C346 C360 1.377 . S
C347 C346 1.524 . S
C347 C348 1.397 . S
C347 C352 1.363 . S
C348 H325 0.950 . S
C348 C347 1.397 . S
C348 C349 1.334 . S
C349 H326 0.950 . S
C349 C348 1.334 . S
C349 C350 1.287 . S
C350 C349 1.287 . S
C350 C351 1.524 . S
C350 H369 0.913 . S
C351 H327 0.950 . S
C351 C350 1.524 . S
C351 C352 1.415 . S
C352 H328 0.950 . S
C352 C347 1.363 . S
C352 C351 1.415 . S
C353 H329 0.951 . S
C353 C354 1.366 . S
C353 C355 1.388 . S
C354 C353 1.366 . S
C354 C358 1.385 1_556 S
C355 H330 0.951 . S
C355 C353 1.388 . S
C355 C356 1.366 1_556 S
C356 C355 1.366 1_554 S
C356 C357 1.414 . S
C356 C359 1.499 . S
C357 H331 0.950 . S
C357 C356 1.414 . S
C357 C358 1.374 . S
C358 H332 0.950 . S
C358 C354 1.385 1_554 S
C358 C357 1.374 . S
C359 C356 1.499 . S
C359 C360 1.373 1_554 S
C359 C361 1.389 . S
C360 H333 0.950 . S
C360 C346 1.377 . S
C360 C359 1.373 1_556 S
C361 C345 1.377 . S
C361 C359 1.389 . S
C361 C362 1.524 . S
C362 C361 1.524 . S
C362 C363 1.397 . S
C362 C367 1.363 . S
C363 H334 0.950 . S
C363 C362 1.397 . S
C363 C364 1.334 . S
C364 H335 0.950 . S
C364 C363 1.334 . S
C364 C365 1.287 . S
C365 C364 1.287 . S
C365 C366 1.524 . S
C365 H368 0.999 . S
C366 H336 0.950 . S
C366 C365 1.524 . S
C366 C367 1.415 . S
C367 H337 0.950 . S
C367 C362 1.363 . S
C367 C366 1.415 . S
H368 C365 0.999 . S
H369 C350 0.913 . S
H370 C388 0.951 . S
H371 C390 0.951 . S
H372 C392 0.950 . S
H373 C393 0.950 . S
H374 C395 0.950 . S
H375 C398 0.950 1_554 S
H376 C399 0.950 . S
H377 C401 0.950 . S
H378 C402 0.950 . S
H379 C403 0.951 . S
H380 C405 0.951 . S
H381 C407 0.950 . S
H382 C408 0.950 . S
H383 C410 0.950 . S
H384 C413 0.950 . S
H385 C414 0.950 . S
H386 C416 0.950 . S
H387 C417 0.950 . S
C388 H370 0.951 . S
C388 C389 1.366 1_556 S
C388 C390 1.388 . S
C389 C388 1.366 1_554 S
C389 C393 1.385 . S
C390 H371 0.951 . S
C390 C388 1.388 . S
C390 C391 1.366 1_556 S
C391 C390 1.366 1_554 S
C391 C392 1.414 . S
C391 C394 1.499 . S
C392 H372 0.950 . S
C392 C391 1.414 . S
C392 C393 1.374 . S
C393 H373 0.950 . S
C393 C389 1.385 . S
C393 C392 1.374 . S
C394 C391 1.499 . S
C394 C395 1.373 . S
C394 C396 1.389 1_554 S
C395 H374 0.950 . S
C395 C394 1.373 . S
C395 C411 1.377 . S
C396 C394 1.389 1_556 S
C396 C397 1.524 . S
C396 C410 1.377 . S
C397 C396 1.524 . S
C397 C398 1.397 . S
C397 C402 1.363 . S
C398 H375 0.950 1_556 S
C398 C397 1.397 . S
C398 C399 1.334 . S
C399 H376 0.950 . S
C399 C398 1.334 . S
C399 C400 1.287 . S
C400 C399 1.287 . S
C400 C401 1.524 . S
C400 H419 0.913 . S
C401 H377 0.950 . S
C401 C400 1.524 . S
C401 C402 1.415 . S
C402 H378 0.950 . S
C402 C397 1.363 . S
C402 C401 1.415 . S
C403 H379 0.951 . S
C403 C404 1.366 . S
C403 C405 1.388 . S
C404 C403 1.366 . S
C404 C408 1.385 1_554 S
C405 H380 0.951 . S
C405 C403 1.388 . S
C405 C406 1.366 . S
C406 C405 1.366 . S
C406 C407 1.414 1_554 S
C406 C409 1.499 . S
C407 H381 0.950 . S
C407 C406 1.414 1_556 S
C407 C408 1.374 . S
C408 H382 0.950 . S
C408 C404 1.385 1_556 S
C408 C407 1.374 . S
C409 C406 1.499 . S
C409 C410 1.373 1_554 S
C409 C411 1.389 . S
C410 H383 0.950 . S
C410 C396 1.377 . S
C410 C409 1.373 1_556 S
C411 C395 1.377 . S
C411 C409 1.389 . S
C411 C412 1.524 . S
C412 C411 1.524 . S
C412 C413 1.397 . S
C412 C417 1.363 . S
C413 H384 0.950 . S
C413 C412 1.397 . S
C413 C414 1.334 . S
C414 H385 0.950 . S
C414 C413 1.334 . S
C414 C415 1.287 . S
C415 C414 1.287 . S
C415 C416 1.524 . S
C415 H418 0.999 . S
C416 H386 0.950 . S
C416 C415 1.524 . S
C416 C417 1.415 . S
C417 H387 0.950 . S
C417 C412 1.363 . S
C417 C416 1.415 . S
H418 C415 0.999 . S
H419 C400 0.913 . S
H420 C438 0.951 . S
H421 C440 0.951 . S
H422 C442 0.950 . S
H423 C443 0.950 . S
H424 C445 0.950 . S
H425 C448 0.950 . S
H426 C449 0.950 . S
H427 C451 0.950 . S
H428 C452 0.950 . S
H429 C453 0.951 . S
H430 C455 0.951 . S
H431 C457 0.950 . S
H432 C458 0.950 . S
H433 C460 0.950 . S
H434 C463 0.950 . S
H435 C464 0.950 . S
H436 C466 0.950 . S
H437 C467 0.950 . S
C438 H420 0.951 . S
C438 C439 1.366 . S
C438 C440 1.388 . S
C439 C438 1.366 . S
C439 C443 1.385 1_554 S
C440 H421 0.951 . S
C440 C438 1.388 . S
C440 C441 1.366 . S
C441 C440 1.366 . S
C441 C442 1.414 1_554 S
C441 C444 1.499 . S
C442 H422 0.950 . S
C442 C441 1.414 1_556 S
C442 C443 1.374 . S
C443 H423 0.950 . S
C443 C439 1.385 1_556 S
C443 C442 1.374 . S
C444 C441 1.499 . S
C444 C445 1.373 1_554 S
C444 C446 1.389 . S
C445 H424 0.950 . S
C445 C444 1.373 1_556 S
C445 C461 1.377 . S
C446 C444 1.389 . S
C446 C447 1.524 . S
C446 C460 1.377 . S
C447 C446 1.524 . S
C447 C448 1.397 . S
C447 C452 1.363 . S
C448 H425 0.950 . S
C448 C447 1.397 . S
C448 C449 1.334 . S
C449 H426 0.950 . S
C449 C448 1.334 . S
C449 C450 1.287 . S
C450 C449 1.287 . S
C450 C451 1.524 . S
C450 H469 0.913 . S
C451 H427 0.950 . S
C451 C450 1.524 . S
C451 C452 1.415 . S
C452 H428 0.950 . S
C452 C447 1.363 . S
C452 C451 1.415 . S
C453 H429 0.951 . S
C453 C454 1.366 1_556 S
C453 C455 1.388 . S
C454 C453 1.366 1_554 S
C454 C458 1.385 . S
C455 H430 0.951 . S
C455 C453 1.388 . S
C455 C456 1.366 1_556 S
C456 C455 1.366 1_554 S
C456 C457 1.414 . S
C456 C459 1.499 . S
C457 H431 0.950 . S
C457 C456 1.414 . S
C457 C458 1.374 . S
C458 H432 0.950 . S
C458 C454 1.385 . S
C458 C457 1.374 . S
C459 C456 1.499 . S
C459 C460 1.373 . S
C459 C461 1.389 1_554 S
C460 H433 0.950 . S
C460 C446 1.377 . S
C460 C459 1.373 . S
C461 C445 1.377 . S
C461 C459 1.389 1_556 S
C461 C462 1.524 . S
C462 C461 1.524 . S
C462 C463 1.397 . S
C462 C467 1.363 . S
C463 H434 0.950 . S
C463 C462 1.397 . S
C463 C464 1.334 . S
C464 H435 0.950 . S
C464 C463 1.334 . S
C464 C465 1.287 . S
C465 C464 1.287 . S
C465 C466 1.524 . S
C465 H468 0.999 . S
C466 H436 0.950 . S
C466 C465 1.524 . S
C466 C467 1.415 . S
C467 H437 0.950 . S
C467 C462 1.363 . S
C467 C466 1.415 . S
H468 C465 0.999 . S
H469 C450 0.913 . S
H470 C488 0.951 . S
H471 C490 0.951 . S
H472 C492 0.950 . S
H473 C493 0.950 . S
H474 C495 0.950 . S
H475 C498 0.950 1_556 S
H476 C499 0.950 . S
H477 C501 0.950 . S
H478 C502 0.950 . S
H479 C503 0.951 . S
H480 C505 0.951 . S
H481 C507 0.950 . S
H482 C508 0.950 . S
H483 C510 0.950 . S
H484 C513 0.950 1_554 S
H485 C514 0.950 . S
H486 C516 0.950 . S
H487 C517 0.950 . S
C488 H470 0.951 . S
C488 C489 1.366 . S
C488 C490 1.388 . S
C489 C488 1.366 . S
C489 C493 1.385 1_554 S
C490 H471 0.951 . S
C490 C488 1.388 . S
C490 C491 1.379 . S
C491 C490 1.379 . S
C491 C492 1.403 1_554 S
C491 C494 1.496 1_554 S
C492 H472 0.950 . S
C492 C491 1.403 1_556 S
C492 C493 1.374 . S
C493 H473 0.950 . S
C493 C489 1.385 1_556 S
C493 C492 1.374 . S
C494 C491 1.496 1_556 S
C494 C495 1.373 . S
C494 C496 1.389 1_556 S
C495 H474 0.950 . S
C495 C494 1.373 . S
C495 C511 1.377 . S
C496 C494 1.389 1_554 S
C496 C497 1.524 . S
C496 C510 1.377 . S
C497 C496 1.524 . S
C497 C498 1.397 . S
C497 C502 1.363 . S
C498 H475 0.950 1_554 S
C498 C497 1.397 . S
C498 C499 1.334 . S
C499 H476 0.950 . S
C499 C498 1.334 . S
C499 C500 1.287 . S
C500 C499 1.287 . S
C500 C501 1.524 . S
C500 H519 0.913 . S
C501 H477 0.950 . S
C501 C500 1.524 . S
C501 C502 1.415 . S
C502 H478 0.950 . S
C502 C497 1.363 . S
C502 C501 1.415 . S
C503 H479 0.951 . S
C503 C504 1.366 . S
C503 C505 1.388 . S
C504 C503 1.366 . S
C504 C508 1.385 1_556 S
C505 H480 0.951 . S
C505 C503 1.388 . S
C505 C506 1.380 . S
C506 C505 1.380 . S
C506 C507 1.402 1_556 S
C506 C509 1.496 1_556 S
C507 H481 0.950 . S
C507 C506 1.402 1_554 S
C507 C508 1.374 . S
C508 H482 0.950 . S
C508 C504 1.385 1_554 S
C508 C507 1.374 . S
C509 C506 1.496 1_554 S
C509 C510 1.373 . S
C509 C511 1.389 1_554 S
C510 H483 0.950 . S
C510 C496 1.377 . S
C510 C509 1.373 . S
C511 C495 1.377 . S
C511 C509 1.389 1_556 S
C511 C512 1.524 . S
C512 C511 1.524 . S
C512 C513 1.397 . S
C512 C517 1.363 . S
C513 H484 0.950 1_556 S
C513 C512 1.397 . S
C513 C514 1.334 . S
C514 H485 0.950 . S
C514 C513 1.334 . S
C514 C515 1.287 . S
C515 C514 1.287 . S
C515 C516 1.524 . S
C515 H518 0.999 . S
C516 H486 0.950 . S
C516 C515 1.524 . S
C516 C517 1.415 . S
C517 H487 0.950 . S
C517 C512 1.363 . S
C517 C516 1.415 . S
H518 C515 0.999 . S
H519 C500 0.913 . S
H520 C538 0.951 . S
H521 C540 0.951 . S
H522 C542 0.950 . S
H523 C543 0.950 . S
H524 C545 0.950 . S
H525 C548 0.950 . S
H526 C549 0.950 . S
H527 C551 0.950 . S
H528 C552 0.950 . S
H529 C553 0.951 . S
H530 C555 0.951 . S
H531 C557 0.950 . S
H532 C558 0.950 . S
H533 C560 0.950 . S
H534 C563 0.950 . S
H535 C564 0.950 . S
H536 C566 0.950 . S
H537 C567 0.950 . S
C538 H520 0.951 . S
C538 C539 1.366 . S
C538 C540 1.388 . S
C539 C538 1.366 . S
C539 C543 1.385 1_556 S
C540 H521 0.951 . S
C540 C538 1.388 . S
C540 C541 1.366 . S
C541 C540 1.366 . S
C541 C542 1.414 1_556 S
C541 C544 1.499 . S
C542 H522 0.950 . S
C542 C541 1.414 1_554 S
C542 C543 1.374 . S
C543 H523 0.950 . S
C543 C539 1.385 1_554 S
C543 C542 1.374 . S
C544 C541 1.499 . S
C544 C545 1.373 1_556 S
C544 C546 1.389 . S
C545 H524 0.950 . S
C545 C544 1.373 1_554 S
C545 C561 1.377 . S
C546 C544 1.389 . S
C546 C547 1.524 . S
C546 C560 1.377 . S
C547 C546 1.524 . S
C547 C548 1.397 . S
C547 C552 1.363 . S
C548 H525 0.950 . S
C548 C547 1.397 . S
C548 C549 1.334 . S
C549 H526 0.950 . S
C549 C548 1.334 . S
C549 C550 1.287 . S
C550 C549 1.287 . S
C550 C551 1.524 . S
C550 H569 0.913 . S
C551 H527 0.950 . S
C551 C550 1.524 . S
C551 C552 1.415 . S
C552 H528 0.950 . S
C552 C547 1.363 . S
C552 C551 1.415 . S
C553 H529 0.951 . S
C553 C554 1.366 1_554 S
C553 C555 1.388 . S
C554 C553 1.366 1_556 S
C554 C558 1.385 . S
C555 H530 0.951 . S
C555 C553 1.388 . S
C555 C556 1.366 1_554 S
C556 C555 1.366 1_556 S
C556 C557 1.414 . S
C556 C559 1.499 . S
C557 H531 0.950 . S
C557 C556 1.414 . S
C557 C558 1.374 . S
C558 H532 0.950 . S
C558 C554 1.385 . S
C558 C557 1.374 . S
C559 C556 1.499 . S
C559 C560 1.373 . S
C559 C561 1.389 1_556 S
C560 H533 0.950 . S
C560 C546 1.377 . S
C560 C559 1.373 . S
C561 C545 1.377 . S
C561 C559 1.389 1_554 S
C561 C562 1.524 . S
C562 C561 1.524 . S
C562 C563 1.397 . S
C562 C567 1.363 . S
C563 H534 0.950 . S
C563 C562 1.397 . S
C563 C564 1.334 . S
C564 H535 0.950 . S
C564 C563 1.334 . S
C564 C565 1.287 . S
C565 C564 1.287 . S
C565 C566 1.524 . S
C565 H568 0.999 . S
C566 H536 0.950 . S
C566 C565 1.524 . S
C566 C567 1.415 . S
C567 H537 0.950 . S
C567 C562 1.363 . S
C567 C566 1.415 . S
H568 C565 0.999 . S
H569 C550 0.913 . S
C139 C2 1.465 1_455 S
C154 C23 1.465 . S
C189 C63 1.474 1_565 S
C204 C42 1.474 1_545 S
C239 C103 1.471 . S
C254 C82 1.471 . S
C289 C25 0.700 . S
C304 C105 0.699 . S
C339 C65 1.694 . S
C354 C20 1.693 . S
C389 C60 2.476 . S
C404 C111 2.491 . S
C439 C4 0.701 . S
C454 C84 0.699 . S
C489 C31 1.693 . S
C504 C44 1.694 . S
C539 C100 2.490 . S
C554 C71 2.476 . S
