# Generated by pormake.
# Topology pcl, (4)-cn, num edge types: 1
# Building blocks:
#     Node 0, Type 0, BuildingBlock: CEKHIL_clean_sbu_0, # of connection points: 4
#     Node 1, Type 0, BuildingBlock: CEKHIL_clean_sbu_0, # of connection points: 4
#     Node 2, Type 0, BuildingBlock: CEKHIL_clean_sbu_0, # of connection points: 4
#     Node 3, Type 0, BuildingBlock: CEKHIL_clean_sbu_0, # of connection points: 4
#     Node 4, Type 0, BuildingBlock: CEKHIL_clean_sbu_0, # of connection points: 4
#     Node 5, Type 0, BuildingBlock: CEKHIL_clean_sbu_0, # of connection points: 4
#     Node 6, Type 0, BuildingBlock: CEKHIL_clean_sbu_0, # of connection points: 4
#     Node 7, Type 0, BuildingBlock: CEKHIL_clean_sbu_0, # of connection points: 4
#     Node 8, Type 0, BuildingBlock: CEKHIL_clean_sbu_0, # of connection points: 4
#     Node 9, Type 0, BuildingBlock: CEKHIL_clean_sbu_0, # of connection points: 4
#     Node 10, Type 0, BuildingBlock: CEKHIL_clean_sbu_0, # of connection points: 4
#     Node 11, Type 0, BuildingBlock: CEKHIL_clean_sbu_0, # of connection points: 4
#     Node 12, Type 0, BuildingBlock: CEKHIL_clean_sbu_0, # of connection points: 4
#     Node 13, Type 0, BuildingBlock: CEKHIL_clean_sbu_0, # of connection points: 4
#     Node 14, Type 0, BuildingBlock: CEKHIL_clean_sbu_0, # of connection points: 4
#     Node 15, Type 0, BuildingBlock: CEKHIL_clean_sbu_0, # of connection points: 4
#     Edge 16, Type (0, 0), BuildingBlock: OJICUG_clean_linker_0, # of connection points: 2
#     Edge 17, Type (0, 0), BuildingBlock: OJICUG_clean_linker_0, # of connection points: 2
#     Edge 18, Type (0, 0), BuildingBlock: OJICUG_clean_linker_0, # of connection points: 2
#     Edge 19, Type (0, 0), BuildingBlock: OJICUG_clean_linker_0, # of connection points: 2
#     Edge 20, Type (0, 0), BuildingBlock: OJICUG_clean_linker_0, # of connection points: 2
#     Edge 21, Type (0, 0), BuildingBlock: OJICUG_clean_linker_0, # of connection points: 2
#     Edge 22, Type (0, 0), BuildingBlock: OJICUG_clean_linker_0, # of connection points: 2
#     Edge 23, Type (0, 0), BuildingBlock: OJICUG_clean_linker_0, # of connection points: 2
#     Edge 24, Type (0, 0), BuildingBlock: OJICUG_clean_linker_0, # of connection points: 2
#     Edge 25, Type (0, 0), BuildingBlock: OJICUG_clean_linker_0, # of connection points: 2
#     Edge 26, Type (0, 0), BuildingBlock: OJICUG_clean_linker_0, # of connection points: 2
#     Edge 27, Type (0, 0), BuildingBlock: OJICUG_clean_linker_0, # of connection points: 2
#     Edge 28, Type (0, 0), BuildingBlock: OJICUG_clean_linker_0, # of connection points: 2
#     Edge 29, Type (0, 0), BuildingBlock: OJICUG_clean_linker_0, # of connection points: 2
#     Edge 30, Type (0, 0), BuildingBlock: OJICUG_clean_linker_0, # of connection points: 2
#     Edge 31, Type (0, 0), BuildingBlock: OJICUG_clean_linker_0, # of connection points: 2
#     Edge 32, Type (0, 0), BuildingBlock: OJICUG_clean_linker_0, # of connection points: 2
#     Edge 33, Type (0, 0), BuildingBlock: OJICUG_clean_linker_0, # of connection points: 2
#     Edge 34, Type (0, 0), BuildingBlock: OJICUG_clean_linker_0, # of connection points: 2
#     Edge 35, Type (0, 0), BuildingBlock: OJICUG_clean_linker_0, # of connection points: 2
#     Edge 36, Type (0, 0), BuildingBlock: OJICUG_clean_linker_0, # of connection points: 2
#     Edge 37, Type (0, 0), BuildingBlock: OJICUG_clean_linker_0, # of connection points: 2
#     Edge 38, Type (0, 0), BuildingBlock: OJICUG_clean_linker_0, # of connection points: 2
#     Edge 39, Type (0, 0), BuildingBlock: OJICUG_clean_linker_0, # of connection points: 2
#     Edge 40, Type (0, 0), BuildingBlock: OJICUG_clean_linker_0, # of connection points: 2
#     Edge 41, Type (0, 0), BuildingBlock: OJICUG_clean_linker_0, # of connection points: 2
#     Edge 42, Type (0, 0), BuildingBlock: OJICUG_clean_linker_0, # of connection points: 2
#     Edge 43, Type (0, 0), BuildingBlock: OJICUG_clean_linker_0, # of connection points: 2
#     Edge 44, Type (0, 0), BuildingBlock: OJICUG_clean_linker_0, # of connection points: 2
#     Edge 45, Type (0, 0), BuildingBlock: OJICUG_clean_linker_0, # of connection points: 2
#     Edge 46, Type (0, 0), BuildingBlock: OJICUG_clean_linker_0, # of connection points: 2
#     Edge 47, Type (0, 0), BuildingBlock: OJICUG_clean_linker_0, # of connection points: 2
# Relax obj value: 0.071
# Max RMSD: 0.055
# Mean RMSD: 0.054
data_MOF--net-pcl--node1-CEKHIL_clean_sbu_0--edge1-OJICUG_clean_linker_0
_symmetry_space_group_name_H-M    P1
_symmetry_Int_Tables_number       1
_symmetry_cell_setting            triclinic
loop_
_symmetry_equiv_pos_as_xyz
'x, y, z'
_cell_length_a     38.130694
_cell_length_b     29.732246
_cell_length_c     31.015746
_cell_angle_alpha  89.987234
_cell_angle_beta   90.00815
_cell_angle_gamma 90.028539
loop_
_atom_site_label
_atom_site_type_symbol
_atom_site_fract_x
_atom_site_fract_y
_atom_site_fract_z
_atom_type_partial_charge
Co0 Co 0.13659 0.34682 0.07223 0.0
O1 O 0.18576 0.3428 0.0568 0.0
O2 O 0.14806 0.28719 0.04958 0.0
C3 C 0.1276 0.41439 0.03958 0.0
O4 O 0.08328 0.33949 0.08349 0.0
Co5 Co 0.1108 0.42598 0.13029 0.0
O6 O 0.06366 0.40126 0.11836 0.0
C7 C 0.1534 0.35252 0.16724 0.0
C8 C 0.18002 0.30183 0.04454 0.0
C9 C 0.05833 0.36347 0.10012 0.0
O10 O 0.14844 0.32789 0.13355 0.0
O11 O 0.14389 0.39372 0.16972 0.0
O12 O 0.12639 0.37737 0.01735 0.0
O13 O 0.13653 0.40948 0.07932 0.0
Co14 Co 0.89065 0.65896 0.57226 0.0
O15 O 0.84147 0.66298 0.55684 0.0
O16 O 0.87917 0.7186 0.54962 0.0
C17 C 0.89964 0.59142 0.53959 0.0
O18 O 0.94397 0.66629 0.58349 0.0
Co19 Co 0.91649 0.57977 0.63029 0.0
O20 O 0.96361 0.6045 0.61832 0.0
C21 C 0.87391 0.6532 0.66729 0.0
C22 C 0.84721 0.70396 0.54459 0.0
C23 C 0.96893 0.6423 0.60009 0.0
O24 O 0.87884 0.67785 0.63359 0.0
O25 O 0.88342 0.612 0.66976 0.0
O26 O 0.90083 0.62845 0.51736 0.0
O27 O 0.89073 0.5963 0.57933 0.0
Co28 Co 0.13613 0.65959 0.93174 0.0
O29 O 0.18532 0.66375 0.94708 0.0
O30 O 0.14758 0.71926 0.95435 0.0
C31 C 0.12728 0.59201 0.96444 0.0
O32 O 0.08279 0.66677 0.92057 0.0
Co33 Co 0.11031 0.58032 0.87379 0.0
O34 O 0.06317 0.60492 0.88579 0.0
C35 C 0.15279 0.65387 0.8367 0.0
C36 C 0.17956 0.70471 0.95935 0.0
C37 C 0.05784 0.64272 0.904 0.0
O38 O 0.14788 0.67852 0.87038 0.0
O39 O 0.14331 0.61265 0.83427 0.0
O40 O 0.12605 0.62903 0.98666 0.0
O41 O 0.13613 0.59693 0.92468 0.0
Co42 Co 0.8914 0.34623 0.4318 0.0
O43 O 0.84222 0.34205 0.44716 0.0
O44 O 0.87998 0.28655 0.45446 0.0
C45 C 0.90023 0.41382 0.46445 0.0
O46 O 0.94473 0.33907 0.42062 0.0
Co47 Co 0.91716 0.42549 0.37378 0.0
O48 O 0.96431 0.4009 0.38575 0.0
C49 C 0.87469 0.3519 0.33678 0.0
C50 C 0.848 0.3011 0.45944 0.0
C51 C 0.96966 0.36312 0.40399 0.0
O52 O 0.87963 0.32727 0.37047 0.0
O53 O 0.88414 0.39313 0.3343 0.0
O54 O 0.9015 0.3768 0.4867 0.0
O55 O 0.89137 0.40888 0.4247 0.0
Co56 Co 0.83135 0.67061 0.91087 0.0
O57 O 0.78164 0.68016 0.92019 0.0
O58 O 0.8232 0.70886 0.96117 0.0
C59 C 0.82984 0.68329 0.83877 0.0
O60 O 0.88562 0.66902 0.91042 0.0
Co61 Co 0.85707 0.59401 0.8498 0.0
O62 O 0.9024 0.62657 0.85394 0.0
C63 C 0.83016 0.57169 0.9366 0.0
C64 C 0.7898 0.70472 0.9532 0.0
C65 C 0.90946 0.65368 0.88461 0.0
O66 O 0.82945 0.61379 0.94707 0.0
O67 O 0.83741 0.55783 0.89855 0.0
O68 O 0.83225 0.71714 0.86518 0.0
O69 O 0.82621 0.64462 0.85668 0.0
Co70 Co 0.19615 0.33534 0.41075 0.0
O71 O 0.24587 0.32584 0.42007 0.0
O72 O 0.20433 0.29717 0.4611 0.0
C73 C 0.19763 0.32257 0.33868 0.0
O74 O 0.14188 0.33691 0.41032 0.0
Co75 Co 0.17038 0.41186 0.34959 0.0
O76 O 0.12506 0.37926 0.35377 0.0
C77 C 0.19727 0.43429 0.43636 0.0
C78 C 0.23773 0.30132 0.45312 0.0
C79 C 0.11803 0.35219 0.38449 0.0
O80 O 0.19803 0.39221 0.44686 0.0
O81 O 0.18999 0.44812 0.3983 0.0
O82 O 0.19524 0.28876 0.36514 0.0
O83 O 0.20125 0.36127 0.35652 0.0
Co84 Co 0.83187 0.33496 0.09329 0.0
O85 O 0.78217 0.32528 0.084 0.0
O86 O 0.82373 0.29685 0.04289 0.0
C87 C 0.83045 0.32204 0.16535 0.0
O88 O 0.88613 0.33675 0.0937 0.0
Co89 Co 0.8575 0.4115 0.15452 0.0
O90 O 0.90287 0.37909 0.15031 0.0
C91 C 0.8305 0.43396 0.06782 0.0
C92 C 0.79033 0.30087 0.0509 0.0
C93 C 0.90996 0.35209 0.11956 0.0
O94 O 0.82985 0.39188 0.05727 0.0
O95 O 0.83777 0.44776 0.10589 0.0
O96 O 0.83289 0.28829 0.13883 0.0
O97 O 0.82674 0.36075 0.14756 0.0
Co98 Co 0.19539 0.67095 0.59311 0.0
O99 O 0.24509 0.68067 0.58382 0.0
O100 O 0.2035 0.70914 0.54274 0.0
C101 C 0.19684 0.68378 0.66518 0.0
O102 O 0.14113 0.66913 0.59354 0.0
Co103 Co 0.16981 0.59431 0.65429 0.0
O104 O 0.12443 0.62669 0.6501 0.0
C105 C 0.19682 0.57199 0.56757 0.0
C106 C 0.23691 0.70512 0.55074 0.0
C107 C 0.11732 0.65373 0.61939 0.0
O108 O 0.19742 0.61408 0.55704 0.0
O109 O 0.18958 0.55814 0.60563 0.0
O110 O 0.19438 0.71756 0.63869 0.0
O111 O 0.20055 0.64509 0.64736 0.0
Co112 Co 0.6362 0.84656 0.07218 0.0
O113 O 0.68539 0.8424 0.05684 0.0
O114 O 0.6476 0.7869 0.04953 0.0
C115 C 0.62739 0.91416 0.03954 0.0
O116 O 0.58286 0.8394 0.08336 0.0
Co117 Co 0.6105 0.9258 0.13021 0.0
O118 O 0.56333 0.90124 0.11818 0.0
C119 C 0.65288 0.85217 0.16724 0.0
C120 C 0.67959 0.80145 0.04455 0.0
C121 C 0.55795 0.86346 0.09994 0.0
O122 O 0.64794 0.82757 0.13353 0.0
O123 O 0.64345 0.8934 0.16972 0.0
O124 O 0.62613 0.87715 0.01729 0.0
O125 O 0.63626 0.90921 0.07928 0.0
Co126 Co 0.39136 0.15959 0.57223 0.0
O127 O 0.34218 0.16374 0.55687 0.0
O128 O 0.37998 0.21923 0.54948 0.0
C129 C 0.40014 0.09195 0.53968 0.0
O130 O 0.4447 0.16675 0.58341 0.0
Co131 Co 0.41703 0.08044 0.6304 0.0
O132 O 0.4642 0.10496 0.61837 0.0
C133 C 0.37469 0.15415 0.66729 0.0
C134 C 0.34798 0.20468 0.54452 0.0
C135 C 0.4696 0.1427 0.60006 0.0
O136 O 0.37962 0.17868 0.63352 0.0
O137 O 0.3841 0.11293 0.66987 0.0
O138 O 0.40143 0.12894 0.51739 0.0
O139 O 0.39128 0.09694 0.57942 0.0
Co140 Co 0.63655 0.15935 0.93172 0.0
O141 O 0.68575 0.16337 0.94711 0.0
O142 O 0.64809 0.21899 0.95434 0.0
C143 C 0.62756 0.0918 0.9644 0.0
O144 O 0.58324 0.1667 0.92052 0.0
Co145 Co 0.61057 0.08018 0.87375 0.0
O146 O 0.56348 0.10492 0.88576 0.0
C147 C 0.65325 0.15357 0.8367 0.0
C148 C 0.68004 0.20435 0.95936 0.0
C149 C 0.55823 0.14273 0.90397 0.0
O150 O 0.64837 0.17824 0.87037 0.0
O151 O 0.64368 0.11238 0.83426 0.0
O152 O 0.62639 0.12882 0.98663 0.0
O153 O 0.63643 0.09669 0.92465 0.0
Co154 Co 0.39066 0.84686 0.43175 0.0
O155 O 0.34147 0.84281 0.4471 0.0
O156 O 0.37912 0.78718 0.45428 0.0
C157 C 0.39967 0.91435 0.46452 0.0
O158 O 0.44398 0.83952 0.42057 0.0
Co159 Co 0.41665 0.92613 0.3739 0.0
O160 O 0.46374 0.90137 0.38589 0.0
C161 C 0.37399 0.85281 0.33672 0.0
C162 C 0.34717 0.80181 0.45931 0.0
C163 C 0.46899 0.86352 0.40406 0.0
O164 O 0.37886 0.82808 0.37036 0.0
O165 O 0.38356 0.89401 0.33434 0.0
O166 O 0.40083 0.87729 0.48671 0.0
O167 O 0.39079 0.90952 0.42476 0.0
Co168 Co 0.33181 0.17131 0.91065 0.0
O169 O 0.2821 0.18096 0.9199 0.0
O170 O 0.32366 0.20939 0.96107 0.0
C171 C 0.33042 0.18427 0.83861 0.0
O172 O 0.38607 0.16955 0.9103 0.0
Co173 Co 0.35746 0.09484 0.84939 0.0
O174 O 0.40283 0.1273 0.85367 0.0
C175 C 0.33043 0.0723 0.93608 0.0
C176 C 0.29026 0.20536 0.95303 0.0
C177 C 0.4099 0.15427 0.88445 0.0
O178 O 0.32975 0.11436 0.94664 0.0
O179 O 0.33773 0.05853 0.89801 0.0
O180 O 0.33286 0.21801 0.86514 0.0
O181 O 0.32669 0.14554 0.85636 0.0
Co182 Co 0.69542 0.83477 0.41085 0.0
O183 O 0.74512 0.82508 0.42011 0.0
O184 O 0.70354 0.79654 0.46119 0.0
C185 C 0.69684 0.82203 0.33877 0.0
O186 O 0.64115 0.83656 0.41045 0.0
Co187 Co 0.66983 0.91145 0.34974 0.0
O188 O 0.62443 0.87904 0.35393 0.0
C189 C 0.69687 0.93371 0.43648 0.0
C190 C 0.73695 0.80059 0.45318 0.0
C191 C 0.61733 0.85197 0.38464 0.0
O192 O 0.69748 0.89162 0.44697 0.0
O193 O 0.68962 0.94758 0.39842 0.0
O194 O 0.69437 0.78821 0.36522 0.0
O195 O 0.70056 0.8607 0.35662 0.0
Co196 Co 0.33142 0.83562 0.09301 0.0
O197 O 0.2817 0.82604 0.0837 0.0
O198 O 0.32324 0.79735 0.04273 0.0
C199 C 0.32993 0.82297 0.16512 0.0
O200 O 0.38569 0.83725 0.09345 0.0
Co201 Co 0.35719 0.91228 0.15404 0.0
O202 O 0.40251 0.87974 0.14991 0.0
C203 C 0.33022 0.93453 0.06726 0.0
C204 C 0.28984 0.80148 0.05069 0.0
C205 C 0.40954 0.85262 0.11925 0.0
O206 O 0.32953 0.89243 0.0568 0.0
O207 O 0.33747 0.94841 0.10531 0.0
O208 O 0.33231 0.78912 0.13872 0.0
O209 O 0.32631 0.86163 0.14719 0.0
Co210 Co 0.69612 0.17039 0.59319 0.0
O211 O 0.74584 0.17993 0.5839 0.0
O212 O 0.70431 0.20852 0.54281 0.0
C213 C 0.69759 0.18325 0.66526 0.0
O214 O 0.64186 0.16879 0.5936 0.0
Co215 Co 0.67032 0.0939 0.65441 0.0
O216 O 0.62502 0.12648 0.65019 0.0
C217 C 0.69722 0.07141 0.56767 0.0
C218 C 0.73771 0.2044 0.55082 0.0
C219 C 0.618 0.15352 0.61945 0.0
O220 O 0.698 0.11349 0.55714 0.0
O221 O 0.68993 0.05761 0.60574 0.0
O222 O 0.69522 0.21702 0.63875 0.0
O223 O 0.70121 0.14453 0.64746 0.0
C224 C 1.00657 0.34259 0.14382 0.0
C225 C 0.02181 0.34636 0.10278 0.0
H226 H 0.95941 0.34028 0.18104 0.0
C227 C 0.99986 0.34416 0.06633 0.0
H228 H 0.02278 0.34463 0.17247 0.0
C229 C 0.96307 0.3417 0.07124 0.0
C230 C 0.94785 0.34191 0.11267 0.0
H231 H 1.01086 0.34795 0.03434 0.0
H232 H 0.94659 0.34342 0.04285 0.0
C233 C 0.97019 0.34033 0.14871 0.0
C234 C 0.02737 0.66164 0.56625 0.0
C235 C 1.00546 0.65941 0.60272 0.0
H236 H 0.08061 0.66243 0.54271 0.0
C237 C 0.02073 0.66318 0.64374 0.0
H238 H 0.01633 0.65787 0.53427 0.0
C239 C 0.05712 0.66545 0.64859 0.0
C240 C 0.07942 0.66391 0.61253 0.0
H241 H 1.00455 0.66111 0.67241 0.0
H242 H 0.06792 0.6655 0.68091 0.0
C243 C 0.06416 0.66412 0.57112 0.0
C244 C 0.96258 0.66423 0.93292 0.0
C245 C 0.94734 0.664 0.89149 0.0
H246 H 1.01038 0.6581 0.9698 0.0
C247 C 0.96966 0.66565 0.85545 0.0
H248 H 0.9461 0.66245 0.96131 0.0
C249 C 1.00604 0.6635 0.86033 0.0
C250 C 0.0213 0.65975 0.90137 0.0
H251 H 0.95886 0.66568 0.82312 0.0
H252 H 0.02224 0.66151 0.83168 0.0
C253 C 0.99937 0.66187 0.93782 0.0
C254 C 0.06495 0.34164 0.43284 0.0
C255 C 0.08016 0.34187 0.3914 0.0
H256 H 0.01717 0.34776 0.46976 0.0
C257 C 0.05781 0.3402 0.35538 0.0
H258 H 0.08145 0.34342 0.46122 0.0
C259 C 0.02143 0.34234 0.36029 0.0
C260 C 1.0062 0.3461 0.40134 0.0
H261 H 0.06858 0.34016 0.32304 0.0
H262 H 1.00521 0.34432 0.33165 0.0
C263 C 0.02816 0.34399 0.43777 0.0
C264 C 0.46266 0.84201 0.07098 0.0
C265 C 0.44741 0.84228 0.11239 0.0
H266 H 0.51048 0.84808 0.03412 0.0
C267 C 0.46973 0.84065 0.14845 0.0
H268 H 0.44619 0.84378 0.04258 0.0
C269 C 0.50611 0.84276 0.14359 0.0
C270 C 0.52138 0.84647 0.10256 0.0
H271 H 0.45893 0.84064 0.18077 0.0
H272 H 0.52231 0.84476 0.17225 0.0
C273 C 0.49945 0.84434 0.0661 0.0
C274 C 0.5649 0.16403 0.57112 0.0
C275 C 0.58013 0.16386 0.61254 0.0
H276 H 0.51709 0.15789 0.53424 0.0
C277 C 0.55781 0.1656 0.64858 0.0
H278 H 0.58137 0.16218 0.54273 0.0
C279 C 0.52143 0.1635 0.6437 0.0
C280 C 0.50617 0.15969 0.60266 0.0
H281 H 0.5686 0.16569 0.68091 0.0
H282 H 0.50522 0.16158 0.67235 0.0
C283 C 0.52811 0.16171 0.56621 0.0
C284 C 0.49978 0.16192 0.93778 0.0
C285 C 0.52174 0.1599 0.90135 0.0
H286 H 0.44651 0.16256 0.96122 0.0
C287 C 0.50652 0.1639 0.86031 0.0
H288 H 0.51077 0.15796 0.96976 0.0
C289 C 0.47014 0.1662 0.8554 0.0
C290 C 0.44779 0.16445 0.89141 0.0
H291 H 0.52274 0.16199 0.83167 0.0
H292 H 0.45937 0.16642 0.82306 0.0
C293 C 0.463 0.16443 0.93285 0.0
C294 C 0.52071 0.84251 0.36039 0.0
C295 C 0.50548 0.84635 0.40142 0.0
H296 H 0.56787 0.84011 0.32317 0.0
C297 C 0.52743 0.84417 0.43787 0.0
H298 H 0.50451 0.84455 0.33174 0.0
C299 C 0.56421 0.84166 0.43296 0.0
C300 C 0.57943 0.8418 0.39154 0.0
H301 H 0.51643 0.84801 0.46985 0.0
H302 H 0.5807 0.84339 0.46135 0.0
C303 C 0.55709 0.84021 0.3555 0.0
C304 C 0.1987 0.35925 0.22342 0.0
C305 C 0.17108 0.33424 0.20571 0.0
H306 H 0.22915 0.37406 0.27936 0.0
C307 C 0.15628 0.299 0.22994 0.0
H308 H 0.2104 0.38668 0.20543 0.0
C309 C 0.16704 0.29174 0.27283 0.0
C310 C 0.19251 0.31984 0.29156 0.0
H311 H 0.13451 0.27979 0.21711 0.0
H312 H 0.15345 0.26695 0.29223 0.0
C313 C 0.20932 0.3521 0.26579 0.0
C314 C 0.82871 0.64641 0.72358 0.0
C315 C 0.85627 0.67147 0.70578 0.0
H316 H 0.79835 0.63161 0.77959 0.0
C317 C 0.87104 0.70678 0.72993 0.0
H318 H 0.81703 0.61892 0.70566 0.0
C319 C 0.86033 0.71408 0.77282 0.0
C320 C 0.83492 0.68595 0.79164 0.0
H321 H 0.89276 0.72604 0.71702 0.0
H322 H 0.87389 0.73894 0.79215 0.0
C323 C 0.81814 0.65359 0.76595 0.0
C324 C 0.15554 0.70732 0.77394 0.0
C325 C 0.1704 0.67215 0.79818 0.0
H326 H 0.15261 0.73929 0.71162 0.0
C327 C 0.19804 0.64721 0.78047 0.0
H328 H 0.13376 0.72647 0.78678 0.0
C329 C 0.2086 0.65434 0.73808 0.0
C330 C 0.19174 0.68653 0.7123 0.0
H331 H 0.20979 0.61984 0.79848 0.0
H332 H 0.22845 0.63244 0.72451 0.0
C333 C 0.16625 0.71457 0.73103 0.0
C334 C 0.86117 0.29125 0.23111 0.0
C335 C 0.83559 0.31923 0.21245 0.0
H336 H 0.89376 0.27939 0.28678 0.0
C337 C 0.81871 0.35134 0.23829 0.0
H338 H 0.87481 0.26659 0.21166 0.0
C339 C 0.82932 0.35845 0.28066 0.0
C340 C 0.85703 0.33358 0.2983 0.0
H341 H 0.7988 0.37319 0.22476 0.0
H342 H 0.81755 0.38578 0.2987 0.0
C343 C 0.87192 0.29849 0.27401 0.0
C344 C 0.66623 0.79134 0.27287 0.0
C345 C 0.69175 0.81933 0.29164 0.0
H346 H 0.63374 0.77952 0.21709 0.0
C347 C 0.70866 0.85153 0.2659 0.0
H348 H 0.65256 0.76661 0.29224 0.0
C349 C 0.69813 0.85871 0.22351 0.0
C350 C 0.67046 0.83382 0.20575 0.0
H351 H 0.72854 0.8734 0.27951 0.0
H352 H 0.70992 0.8861 0.20554 0.0
C353 C 0.65555 0.79864 0.22995 0.0
C354 C 0.31857 0.15512 0.76564 0.0
C355 C 0.33558 0.18711 0.79151 0.0
H356 H 0.31732 0.12068 0.70522 0.0
C357 C 0.36133 0.21489 0.77291 0.0
H358 H 0.29853 0.1334 0.77913 0.0
C359 C 0.37211 0.20757 0.73004 0.0
C360 C 0.35707 0.17258 0.70572 0.0
H361 H 0.37509 0.23944 0.7924 0.0
H362 H 0.39407 0.2265 0.71732 0.0
C363 C 0.3292 0.14792 0.72329 0.0
C364 C 0.65621 0.20698 0.77392 0.0
C365 C 0.67096 0.17177 0.79821 0.0
H366 H 0.65344 0.23894 0.71159 0.0
C367 C 0.69856 0.14672 0.78056 0.0
H368 H 0.63446 0.22622 0.78671 0.0
C369 C 0.7092 0.1538 0.73819 0.0
C370 C 0.69244 0.18604 0.71237 0.0
H371 H 0.71023 0.11931 0.7986 0.0
H372 H 0.72902 0.13182 0.72466 0.0
C373 C 0.66699 0.21418 0.73103 0.0
C374 C 0.36028 0.79205 0.23111 0.0
C375 C 0.335 0.82033 0.21226 0.0
H376 H 0.3926 0.77989 0.28697 0.0
C377 C 0.31834 0.85277 0.23792 0.0
H378 H 0.37375 0.76711 0.2118 0.0
C379 C 0.3289 0.85988 0.28031 0.0
C380 C 0.35633 0.83467 0.29816 0.0
H381 H 0.29864 0.87485 0.22425 0.0
H382 H 0.3173 0.88742 0.29822 0.0
C383 C 0.37098 0.79927 0.27403 0.0
C384 C 0.2272 0.21437 0.97581 0.0
C385 C 0.26252 0.22801 0.97918 0.0
H386 H 0.17365 0.22614 0.9943 0.0
C387 C 0.27054 0.26452 0.00621 0.0
H388 H 0.22005 0.18625 0.95542 0.0
C389 C 0.2438 0.28779 0.028 0.0
C390 C 0.20841 0.27465 0.02402 0.0
H391 H 0.29737 0.27598 0.00955 0.0
H392 H 0.25086 0.31651 0.04766 0.0
C393 C 0.20055 0.23711 0.99825 0.0
C394 C 0.78341 0.71798 0.52802 0.0
C395 C 0.8188 0.73116 0.52409 0.0
H396 H 0.72985 0.7298 0.50954 0.0
C397 C 0.82666 0.76877 0.4984 0.0
H398 H 0.77636 0.6892 0.54761 0.0
C399 C 0.8 0.79155 0.47599 0.0
C400 C 0.76469 0.77788 0.4793 0.0
H401 H 0.85355 0.77977 0.49451 0.0
H402 H 0.80715 0.81973 0.45566 0.0
C403 C 0.75667 0.74129 0.50625 0.0
C404 C 0.27009 0.74219 0.99763 0.0
C405 C 0.26208 0.77875 0.02458 0.0
H406 H 0.2504 0.69009 0.95628 0.0
C407 C 0.22677 0.79237 0.02791 0.0
H408 H 0.29692 0.73074 0.99433 0.0
C409 C 0.20011 0.76956 0.00551 0.0
C410 C 0.20796 0.73197 0.97982 0.0
H411 H 0.21963 0.82053 0.04824 0.0
H412 H 0.17321 0.78052 0.00942 0.0
C413 C 0.24335 0.71884 0.97588 0.0
C414 C 0.80079 0.21349 0.52809 0.0
C415 C 0.76547 0.22709 0.52468 0.0
H416 H 0.85436 0.22536 0.50965 0.0
C417 C 0.75746 0.2636 0.49765 0.0
H418 H 0.80793 0.18538 0.54848 0.0
C419 C 0.78421 0.28693 0.47589 0.0
C420 C 0.8196 0.27384 0.47991 0.0
H421 H 0.73064 0.27503 0.49429 0.0
H422 H 0.77716 0.31564 0.45623 0.0
C423 C 0.82746 0.23629 0.50568 0.0
C424 C 0.74337 0.78732 0.02803 0.0
C425 C 0.70797 0.7742 0.02407 0.0
H426 H 0.79692 0.77544 0.00961 0.0
C427 C 0.70008 0.73663 0.99836 0.0
H428 H 0.75044 0.81606 0.04765 0.0
C429 C 0.72673 0.71382 0.97596 0.0
C430 C 0.76206 0.72743 0.97931 0.0
H431 H 0.67318 0.72567 0.99443 0.0
H432 H 0.71957 0.68567 0.95562 0.0
C433 C 0.77009 0.76399 0.00628 0.0
C434 C 0.2842 0.21881 0.52804 0.0
C435 C 0.3196 0.23191 0.52403 0.0
H436 H 0.23063 0.23069 0.50964 0.0
C437 C 0.32747 0.26945 0.49825 0.0
H438 H 0.27714 0.1901 0.54771 0.0
C439 C 0.30081 0.29224 0.47584 0.0
C440 C 0.26548 0.27864 0.47924 0.0
H441 H 0.35437 0.2804 0.49428 0.0
H442 H 0.30796 0.32036 0.45544 0.0
C443 C 0.25746 0.24213 0.50628 0.0
C444 C 0.77058 0.24167 0.99774 0.0
C445 C 0.76258 0.27821 0.02473 0.0
H446 H 0.75088 0.18964 0.95632 0.0
C447 C 0.72728 0.29186 0.02804 0.0
H448 H 0.7974 0.23019 0.99445 0.0
C449 C 0.70061 0.26911 0.0056 0.0
C450 C 0.70846 0.23154 0.97987 0.0
H451 H 0.72015 0.32 0.0484 0.0
H452 H 0.67372 0.28009 0.0095 0.0
C453 C 0.74384 0.21838 0.97594 0.0
C454 C 0.29995 0.71417 0.52787 0.0
C455 C 0.26464 0.72783 0.52459 0.0
H456 H 0.3535 0.72596 0.50934 0.0
C457 C 0.25664 0.76443 0.49765 0.0
H458 H 0.30709 0.68598 0.54819 0.0
C459 C 0.28338 0.78776 0.47588 0.0
C460 C 0.31876 0.77459 0.47979 0.0
H461 H 0.22981 0.77591 0.49438 0.0
H462 H 0.27633 0.81654 0.4563 0.0
C463 C 0.32661 0.73696 0.50546 0.0
C464 C 0.12183 0.50834 0.95729 0.0
C465 C 0.1226 0.54679 0.98374 0.0
H466 H 0.12228 0.43627 0.95415 0.0
C467 C 0.12175 0.54119 0.02867 0.0
H468 H 0.12231 0.51154 0.92251 0.0
C469 C 0.12201 0.49803 0.04677 0.0
C470 C 0.12277 0.45958 0.02031 0.0
H471 H 0.12231 0.57011 0.0499 0.0
H472 H 0.12263 0.49484 0.08155 0.0
C473 C 0.12173 0.46518 0.97538 0.0
C474 C 0.90536 0.50778 0.54678 0.0
C475 C 0.90454 0.54624 0.52032 0.0
H476 H 0.90518 0.43571 0.54992 0.0
C477 C 0.90558 0.54066 0.47539 0.0
H478 H 0.90474 0.51096 0.58156 0.0
C479 C 0.90556 0.49751 0.4573 0.0
C480 C 0.90485 0.45904 0.48376 0.0
H481 H 0.90498 0.56958 0.45416 0.0
H482 H 0.90507 0.49433 0.42252 0.0
C483 C 0.90569 0.46463 0.52869 0.0
C484 C 0.82402 0.45737 0.9904 0.0
C485 C 0.82528 0.46889 0.03422 0.0
H486 H 0.82419 0.48066 0.9253 0.0
C487 C 0.82433 0.51479 0.04569 0.0
H488 H 0.82449 0.42248 0.98036 0.0
C489 C 0.8242 0.54833 0.0141 0.0
C490 C 0.82509 0.5368 0.97027 0.0
H491 H 0.82486 0.52503 0.07919 0.0
H492 H 0.82483 0.58321 0.02413 0.0
C493 C 0.82395 0.4909 0.95881 0.0
C494 C 0.2033 0.51512 0.45854 0.0
C495 C 0.2023 0.46921 0.47 0.0
H496 H 0.20263 0.58353 0.48008 0.0
C497 C 0.2033 0.45768 0.51384 0.0
H498 H 0.20297 0.52537 0.42503 0.0
C499 C 0.20315 0.4912 0.54543 0.0
C500 C 0.20206 0.5371 0.53396 0.0
H501 H 0.20278 0.42278 0.52388 0.0
H502 H 0.20271 0.48094 0.57893 0.0
C503 C 0.20321 0.54864 0.49013 0.0
C504 C 0.62192 0.00815 0.95724 0.0
C505 C 0.62276 0.0466 0.9837 0.0
H506 H 0.62221 0.93608 0.9541 0.0
C507 C 0.62185 0.04099 0.02863 0.0
H508 H 0.62245 0.01135 0.92246 0.0
C509 C 0.62199 0.99783 0.04672 0.0
C510 C 0.62269 0.95938 0.02026 0.0
H511 H 0.62247 0.0699 0.04986 0.0
H512 H 0.62257 0.99463 0.0815 0.0
C513 C 0.62171 0.96499 0.97533 0.0
C514 C 0.4054 0.96509 0.52878 0.0
C515 C 0.40453 0.95952 0.48385 0.0
H516 H 0.40473 0.01143 0.58166 0.0
C517 C 0.40549 0.99798 0.4574 0.0
H518 H 0.4047 0.93617 0.55 0.0
C519 C 0.40578 0.04112 0.4755 0.0
C520 C 0.40477 0.04671 0.52042 0.0
H521 H 0.40499 0.99481 0.42262 0.0
H522 H 0.40537 0.07005 0.45426 0.0
C523 C 0.40534 0.00824 0.54688 0.0
C524 C 0.32387 0.0153 0.04506 0.0
C525 C 0.32511 0.96942 0.0336 0.0
H526 H 0.32431 0.08373 0.02353 0.0
C527 C 0.32428 0.95789 0.98975 0.0
H528 H 0.32406 0.02553 0.07857 0.0
C529 C 0.32437 0.99144 0.95817 0.0
C530 C 0.32524 0.03733 0.96965 0.0
H531 H 0.32498 0.92301 0.97972 0.0
H532 H 0.32495 0.9812 0.92467 0.0
C533 C 0.32391 0.04884 0.01348 0.0
C534 C 0.70318 0.99057 0.54553 0.0
C535 C 0.70228 0.03648 0.53406 0.0
H536 H 0.70246 0.92216 0.52398 0.0
C537 C 0.70341 0.04801 0.49022 0.0
H538 H 0.70274 0.98032 0.57903 0.0
C539 C 0.7033 0.01448 0.45864 0.0
C540 C 0.7021 0.96859 0.47011 0.0
H541 H 0.70298 0.0829 0.48018 0.0
H542 H 0.70297 0.02474 0.42513 0.0
C543 C 0.70312 0.95705 0.51394 0.0
loop_
_geom_bond_atom_site_label_1
_geom_bond_atom_site_label_2
_geom_bond_distance
_geom_bond_site_symmetry_2
_ccdc_geom_bond_type
Co0 O1 2.216 . S
Co0 O2 2.091 . S
Co0 O4 2.004 . S
Co0 O10 2.021 . S
Co0 O12 2.137 . S
Co0 O13 2.244 . S
O1 Co0 2.216 . S
O1 C8 1.247 . S
O2 Co0 2.091 . S
O2 C8 1.261 . S
C3 O12 1.247 . S
C3 O13 1.272 . S
O4 Co0 2.004 . S
O4 C9 1.259 . S
Co5 O6 2.061 . S
Co5 O11 2.052 . S
Co5 O13 2.135 . S
O6 Co5 2.061 . S
O6 C9 1.235 . S
C7 O10 1.238 . S
C7 O11 1.241 . S
C8 O1 1.247 . S
C8 O2 1.261 . S
C9 O4 1.259 . S
C9 O6 1.235 . S
O10 Co0 2.021 . S
O10 C7 1.238 . S
O11 Co5 2.052 . S
O11 C7 1.241 . S
O12 Co0 2.137 . S
O12 C3 1.247 . S
O13 Co0 2.244 . S
O13 C3 1.272 . S
O13 Co5 2.135 . S
Co14 O15 2.216 . S
Co14 O16 2.091 . S
Co14 O18 2.004 . S
Co14 O24 2.021 . S
Co14 O26 2.137 . S
Co14 O27 2.244 . S
O15 Co14 2.216 . S
O15 C22 1.247 . S
O16 Co14 2.091 . S
O16 C22 1.261 . S
C17 O26 1.247 . S
C17 O27 1.272 . S
O18 Co14 2.004 . S
O18 C23 1.259 . S
Co19 O20 2.061 . S
Co19 O25 2.052 . S
Co19 O27 2.135 . S
O20 Co19 2.061 . S
O20 C23 1.235 . S
C21 O24 1.238 . S
C21 O25 1.241 . S
C22 O15 1.247 . S
C22 O16 1.261 . S
C23 O18 1.259 . S
C23 O20 1.235 . S
O24 Co14 2.021 . S
O24 C21 1.238 . S
O25 Co19 2.052 . S
O25 C21 1.241 . S
O26 Co14 2.137 . S
O26 C17 1.247 . S
O27 Co14 2.244 . S
O27 C17 1.272 . S
O27 Co19 2.135 . S
Co28 O29 2.216 . S
Co28 O30 2.091 . S
Co28 O32 2.004 . S
Co28 O38 2.021 . S
Co28 O40 2.137 . S
Co28 O41 2.244 . S
O29 Co28 2.216 . S
O29 C36 1.247 . S
O30 Co28 2.091 . S
O30 C36 1.261 . S
C31 O40 1.247 . S
C31 O41 1.272 . S
O32 Co28 2.004 . S
O32 C37 1.259 . S
Co33 O34 2.061 . S
Co33 O39 2.052 . S
Co33 O41 2.135 . S
O34 Co33 2.061 . S
O34 C37 1.235 . S
C35 O38 1.238 . S
C35 O39 1.241 . S
C36 O29 1.247 . S
C36 O30 1.261 . S
C37 O32 1.259 . S
C37 O34 1.235 . S
O38 Co28 2.021 . S
O38 C35 1.238 . S
O39 Co33 2.052 . S
O39 C35 1.241 . S
O40 Co28 2.137 . S
O40 C31 1.247 . S
O41 Co28 2.244 . S
O41 C31 1.272 . S
O41 Co33 2.135 . S
Co42 O43 2.216 . S
Co42 O44 2.091 . S
Co42 O46 2.004 . S
Co42 O52 2.021 . S
Co42 O54 2.137 . S
Co42 O55 2.244 . S
O43 Co42 2.216 . S
O43 C50 1.247 . S
O44 Co42 2.091 . S
O44 C50 1.261 . S
C45 O54 1.247 . S
C45 O55 1.272 . S
O46 Co42 2.004 . S
O46 C51 1.259 . S
Co47 O48 2.061 . S
Co47 O53 2.052 . S
Co47 O55 2.135 . S
O48 Co47 2.061 . S
O48 C51 1.235 . S
C49 O52 1.238 . S
C49 O53 1.241 . S
C50 O43 1.247 . S
C50 O44 1.261 . S
C51 O46 1.259 . S
C51 O48 1.235 . S
O52 Co42 2.021 . S
O52 C49 1.238 . S
O53 Co47 2.052 . S
O53 C49 1.241 . S
O54 Co42 2.137 . S
O54 C45 1.247 . S
O55 Co42 2.244 . S
O55 C45 1.272 . S
O55 Co47 2.135 . S
Co56 O57 2.216 . S
Co56 O58 2.091 . S
Co56 O60 2.004 . S
Co56 O66 2.021 . S
Co56 O68 2.137 . S
Co56 O69 2.244 . S
O57 Co56 2.216 . S
O57 C64 1.247 . S
O58 Co56 2.091 . S
O58 C64 1.261 . S
C59 O68 1.247 . S
C59 O69 1.272 . S
O60 Co56 2.004 . S
O60 C65 1.259 . S
Co61 O62 2.061 . S
Co61 O67 2.052 . S
Co61 O69 2.135 . S
O62 Co61 2.061 . S
O62 C65 1.235 . S
C63 O66 1.238 . S
C63 O67 1.241 . S
C64 O57 1.247 . S
C64 O58 1.261 . S
C65 O60 1.259 . S
C65 O62 1.235 . S
O66 Co56 2.021 . S
O66 C63 1.238 . S
O67 Co61 2.052 . S
O67 C63 1.241 . S
O68 Co56 2.137 . S
O68 C59 1.247 . S
O69 Co56 2.244 . S
O69 C59 1.272 . S
O69 Co61 2.135 . S
Co70 O71 2.216 . S
Co70 O72 2.091 . S
Co70 O74 2.004 . S
Co70 O80 2.021 . S
Co70 O82 2.137 . S
Co70 O83 2.244 . S
O71 Co70 2.216 . S
O71 C78 1.247 . S
O72 Co70 2.091 . S
O72 C78 1.261 . S
C73 O82 1.247 . S
C73 O83 1.272 . S
O74 Co70 2.004 . S
O74 C79 1.259 . S
Co75 O76 2.061 . S
Co75 O81 2.052 . S
Co75 O83 2.135 . S
O76 Co75 2.061 . S
O76 C79 1.235 . S
C77 O80 1.238 . S
C77 O81 1.241 . S
C78 O71 1.247 . S
C78 O72 1.261 . S
C79 O74 1.259 . S
C79 O76 1.235 . S
O80 Co70 2.021 . S
O80 C77 1.238 . S
O81 Co75 2.052 . S
O81 C77 1.241 . S
O82 Co70 2.137 . S
O82 C73 1.247 . S
O83 Co70 2.244 . S
O83 C73 1.272 . S
O83 Co75 2.135 . S
Co84 O85 2.216 . S
Co84 O86 2.091 . S
Co84 O88 2.004 . S
Co84 O94 2.021 . S
Co84 O96 2.137 . S
Co84 O97 2.244 . S
O85 Co84 2.216 . S
O85 C92 1.247 . S
O86 Co84 2.091 . S
O86 C92 1.261 . S
C87 O96 1.247 . S
C87 O97 1.272 . S
O88 Co84 2.004 . S
O88 C93 1.259 . S
Co89 O90 2.061 . S
Co89 O95 2.052 . S
Co89 O97 2.135 . S
O90 Co89 2.061 . S
O90 C93 1.235 . S
C91 O94 1.238 . S
C91 O95 1.241 . S
C92 O85 1.247 . S
C92 O86 1.261 . S
C93 O88 1.259 . S
C93 O90 1.235 . S
O94 Co84 2.021 . S
O94 C91 1.238 . S
O95 Co89 2.052 . S
O95 C91 1.241 . S
O96 Co84 2.137 . S
O96 C87 1.247 . S
O97 Co84 2.244 . S
O97 C87 1.272 . S
O97 Co89 2.135 . S
Co98 O99 2.216 . S
Co98 O100 2.091 . S
Co98 O102 2.004 . S
Co98 O108 2.021 . S
Co98 O110 2.137 . S
Co98 O111 2.244 . S
O99 Co98 2.216 . S
O99 C106 1.247 . S
O100 Co98 2.091 . S
O100 C106 1.261 . S
C101 O110 1.247 . S
C101 O111 1.272 . S
O102 Co98 2.004 . S
O102 C107 1.259 . S
Co103 O104 2.061 . S
Co103 O109 2.052 . S
Co103 O111 2.135 . S
O104 Co103 2.061 . S
O104 C107 1.235 . S
C105 O108 1.238 . S
C105 O109 1.241 . S
C106 O99 1.247 . S
C106 O100 1.261 . S
C107 O102 1.259 . S
C107 O104 1.235 . S
O108 Co98 2.021 . S
O108 C105 1.238 . S
O109 Co103 2.052 . S
O109 C105 1.241 . S
O110 Co98 2.137 . S
O110 C101 1.247 . S
O111 Co98 2.244 . S
O111 C101 1.272 . S
O111 Co103 2.135 . S
Co112 O113 2.216 . S
Co112 O114 2.091 . S
Co112 O116 2.004 . S
Co112 O122 2.021 . S
Co112 O124 2.137 . S
Co112 O125 2.244 . S
O113 Co112 2.216 . S
O113 C120 1.247 . S
O114 Co112 2.091 . S
O114 C120 1.261 . S
C115 O124 1.247 . S
C115 O125 1.272 . S
O116 Co112 2.004 . S
O116 C121 1.259 . S
Co117 O118 2.061 . S
Co117 O123 2.052 . S
Co117 O125 2.135 . S
O118 Co117 2.061 . S
O118 C121 1.235 . S
C119 O122 1.238 . S
C119 O123 1.241 . S
C120 O113 1.247 . S
C120 O114 1.261 . S
C121 O116 1.259 . S
C121 O118 1.235 . S
O122 Co112 2.021 . S
O122 C119 1.238 . S
O123 Co117 2.052 . S
O123 C119 1.241 . S
O124 Co112 2.137 . S
O124 C115 1.247 . S
O125 Co112 2.244 . S
O125 C115 1.272 . S
O125 Co117 2.135 . S
Co126 O127 2.216 . S
Co126 O128 2.091 . S
Co126 O130 2.004 . S
Co126 O136 2.021 . S
Co126 O138 2.137 . S
Co126 O139 2.244 . S
O127 Co126 2.216 . S
O127 C134 1.247 . S
O128 Co126 2.091 . S
O128 C134 1.261 . S
C129 O138 1.247 . S
C129 O139 1.272 . S
O130 Co126 2.004 . S
O130 C135 1.259 . S
Co131 O132 2.061 . S
Co131 O137 2.052 . S
Co131 O139 2.135 . S
O132 Co131 2.061 . S
O132 C135 1.235 . S
C133 O136 1.238 . S
C133 O137 1.241 . S
C134 O127 1.247 . S
C134 O128 1.261 . S
C135 O130 1.259 . S
C135 O132 1.235 . S
O136 Co126 2.021 . S
O136 C133 1.238 . S
O137 Co131 2.052 . S
O137 C133 1.241 . S
O138 Co126 2.137 . S
O138 C129 1.247 . S
O139 Co126 2.244 . S
O139 C129 1.272 . S
O139 Co131 2.135 . S
Co140 O141 2.216 . S
Co140 O142 2.091 . S
Co140 O144 2.004 . S
Co140 O150 2.021 . S
Co140 O152 2.137 . S
Co140 O153 2.244 . S
O141 Co140 2.216 . S
O141 C148 1.247 . S
O142 Co140 2.091 . S
O142 C148 1.261 . S
C143 O152 1.247 . S
C143 O153 1.272 . S
O144 Co140 2.004 . S
O144 C149 1.259 . S
Co145 O146 2.061 . S
Co145 O151 2.052 . S
Co145 O153 2.135 . S
O146 Co145 2.061 . S
O146 C149 1.235 . S
C147 O150 1.238 . S
C147 O151 1.241 . S
C148 O141 1.247 . S
C148 O142 1.261 . S
C149 O144 1.259 . S
C149 O146 1.235 . S
O150 Co140 2.021 . S
O150 C147 1.238 . S
O151 Co145 2.052 . S
O151 C147 1.241 . S
O152 Co140 2.137 . S
O152 C143 1.247 . S
O153 Co140 2.244 . S
O153 C143 1.272 . S
O153 Co145 2.135 . S
Co154 O155 2.216 . S
Co154 O156 2.091 . S
Co154 O158 2.004 . S
Co154 O164 2.021 . S
Co154 O166 2.137 . S
Co154 O167 2.244 . S
O155 Co154 2.216 . S
O155 C162 1.247 . S
O156 Co154 2.091 . S
O156 C162 1.261 . S
C157 O166 1.247 . S
C157 O167 1.272 . S
O158 Co154 2.004 . S
O158 C163 1.259 . S
Co159 O160 2.061 . S
Co159 O165 2.052 . S
Co159 O167 2.135 . S
O160 Co159 2.061 . S
O160 C163 1.235 . S
C161 O164 1.238 . S
C161 O165 1.241 . S
C162 O155 1.247 . S
C162 O156 1.261 . S
C163 O158 1.259 . S
C163 O160 1.235 . S
O164 Co154 2.021 . S
O164 C161 1.238 . S
O165 Co159 2.052 . S
O165 C161 1.241 . S
O166 Co154 2.137 . S
O166 C157 1.247 . S
O167 Co154 2.244 . S
O167 C157 1.272 . S
O167 Co159 2.135 . S
Co168 O169 2.216 . S
Co168 O170 2.091 . S
Co168 O172 2.004 . S
Co168 O178 2.021 . S
Co168 O180 2.137 . S
Co168 O181 2.244 . S
O169 Co168 2.216 . S
O169 C176 1.247 . S
O170 Co168 2.091 . S
O170 C176 1.261 . S
C171 O180 1.247 . S
C171 O181 1.272 . S
O172 Co168 2.004 . S
O172 C177 1.259 . S
Co173 O174 2.061 . S
Co173 O179 2.052 . S
Co173 O181 2.135 . S
O174 Co173 2.061 . S
O174 C177 1.235 . S
C175 O178 1.238 . S
C175 O179 1.241 . S
C176 O169 1.247 . S
C176 O170 1.261 . S
C177 O172 1.259 . S
C177 O174 1.235 . S
O178 Co168 2.021 . S
O178 C175 1.238 . S
O179 Co173 2.052 . S
O179 C175 1.241 . S
O180 Co168 2.137 . S
O180 C171 1.247 . S
O181 Co168 2.244 . S
O181 C171 1.272 . S
O181 Co173 2.135 . S
Co182 O183 2.216 . S
Co182 O184 2.091 . S
Co182 O186 2.004 . S
Co182 O192 2.021 . S
Co182 O194 2.137 . S
Co182 O195 2.244 . S
O183 Co182 2.216 . S
O183 C190 1.247 . S
O184 Co182 2.091 . S
O184 C190 1.261 . S
C185 O194 1.247 . S
C185 O195 1.272 . S
O186 Co182 2.004 . S
O186 C191 1.259 . S
Co187 O188 2.061 . S
Co187 O193 2.052 . S
Co187 O195 2.135 . S
O188 Co187 2.061 . S
O188 C191 1.235 . S
C189 O192 1.238 . S
C189 O193 1.241 . S
C190 O183 1.247 . S
C190 O184 1.261 . S
C191 O186 1.259 . S
C191 O188 1.235 . S
O192 Co182 2.021 . S
O192 C189 1.238 . S
O193 Co187 2.052 . S
O193 C189 1.241 . S
O194 Co182 2.137 . S
O194 C185 1.247 . S
O195 Co182 2.244 . S
O195 C185 1.272 . S
O195 Co187 2.135 . S
Co196 O197 2.216 . S
Co196 O198 2.091 . S
Co196 O200 2.004 . S
Co196 O206 2.021 . S
Co196 O208 2.137 . S
Co196 O209 2.244 . S
O197 Co196 2.216 . S
O197 C204 1.247 . S
O198 Co196 2.091 . S
O198 C204 1.261 . S
C199 O208 1.247 . S
C199 O209 1.272 . S
O200 Co196 2.004 . S
O200 C205 1.259 . S
Co201 O202 2.061 . S
Co201 O207 2.052 . S
Co201 O209 2.135 . S
O202 Co201 2.061 . S
O202 C205 1.235 . S
C203 O206 1.238 . S
C203 O207 1.241 . S
C204 O197 1.247 . S
C204 O198 1.261 . S
C205 O200 1.259 . S
C205 O202 1.235 . S
O206 Co196 2.021 . S
O206 C203 1.238 . S
O207 Co201 2.052 . S
O207 C203 1.241 . S
O208 Co196 2.137 . S
O208 C199 1.247 . S
O209 Co196 2.244 . S
O209 C199 1.272 . S
O209 Co201 2.135 . S
Co210 O211 2.216 . S
Co210 O212 2.091 . S
Co210 O214 2.004 . S
Co210 O220 2.021 . S
Co210 O222 2.137 . S
Co210 O223 2.244 . S
O211 Co210 2.216 . S
O211 C218 1.247 . S
O212 Co210 2.091 . S
O212 C218 1.261 . S
C213 O222 1.247 . S
C213 O223 1.272 . S
O214 Co210 2.004 . S
O214 C219 1.259 . S
Co215 O216 2.061 . S
Co215 O221 2.052 . S
Co215 O223 2.135 . S
O216 Co215 2.061 . S
O216 C219 1.235 . S
C217 O220 1.238 . S
C217 O221 1.241 . S
C218 O211 1.247 . S
C218 O212 1.261 . S
C219 O214 1.259 . S
C219 O216 1.235 . S
O220 Co210 2.021 . S
O220 C217 1.238 . S
O221 Co215 2.052 . S
O221 C217 1.241 . S
O222 Co210 2.137 . S
O222 C213 1.247 . S
O223 Co210 2.244 . S
O223 C213 1.272 . S
O223 Co215 2.135 . S
C224 C225 1.387 . S
C224 H228 0.950 . S
C224 C233 1.390 1_455 S
C225 C224 1.387 . S
C225 C227 1.387 . S
H226 C233 0.950 . S
C227 C225 1.387 . S
C227 C229 1.390 1_455 S
C227 H231 0.950 . S
H228 C224 0.950 . S
C229 C227 1.390 1_655 S
C229 C230 1.387 . S
C229 H232 0.950 . S
C230 C229 1.387 . S
C230 C233 1.387 . S
H231 C227 0.950 . S
H232 C229 0.950 . S
C233 C224 1.390 1_655 S
C233 H226 0.950 . S
C233 C230 1.387 . S
C234 C235 1.387 . S
C234 H238 0.950 . S
C234 C243 1.390 1_655 S
C235 C234 1.387 . S
C235 C237 1.387 . S
H236 C243 0.950 . S
C237 C235 1.387 . S
C237 C239 1.390 1_655 S
C237 H241 0.950 . S
H238 C234 0.950 . S
C239 C237 1.390 1_455 S
C239 C240 1.387 . S
C239 H242 0.950 . S
C240 C239 1.387 . S
C240 C243 1.387 . S
H241 C237 0.950 . S
H242 C239 0.950 . S
C243 C234 1.390 1_455 S
C243 H236 0.950 . S
C243 C240 1.387 . S
C244 C245 1.387 . S
C244 H248 0.950 . S
C244 C253 1.390 1_655 S
C245 C244 1.387 . S
C245 C247 1.387 . S
H246 C253 0.950 . S
C247 C245 1.387 . S
C247 C249 1.390 1_655 S
C247 H251 0.950 . S
H248 C244 0.950 . S
C249 C247 1.390 1_455 S
C249 C250 1.387 . S
C249 H252 0.950 . S
C250 C249 1.387 . S
C250 C253 1.387 . S
H251 C247 0.950 . S
H252 C249 0.950 . S
C253 C244 1.390 1_455 S
C253 H246 0.950 . S
C253 C250 1.387 . S
C254 C255 1.387 . S
C254 H258 0.950 . S
C254 C263 1.390 1_455 S
C255 C254 1.387 . S
C255 C257 1.387 . S
H256 C263 0.950 . S
C257 C255 1.387 . S
C257 C259 1.390 1_455 S
C257 H261 0.950 . S
H258 C254 0.950 . S
C259 C257 1.390 1_655 S
C259 C260 1.387 . S
C259 H262 0.950 . S
C260 C259 1.387 . S
C260 C263 1.387 . S
H261 C257 0.950 . S
H262 C259 0.950 . S
C263 C254 1.390 1_655 S
C263 H256 0.950 . S
C263 C260 1.387 . S
C264 C265 1.387 . S
C264 H268 0.950 . S
C264 C273 1.390 . S
C265 C264 1.387 . S
C265 C267 1.387 . S
H266 C273 0.950 . S
C267 C265 1.387 . S
C267 C269 1.390 . S
C267 H271 0.950 . S
H268 C264 0.950 . S
C269 C267 1.390 . S
C269 C270 1.387 . S
C269 H272 0.950 . S
C270 C269 1.387 . S
C270 C273 1.387 . S
H271 C267 0.950 . S
H272 C269 0.950 . S
C273 C264 1.390 . S
C273 H266 0.950 . S
C273 C270 1.387 . S
C274 C275 1.387 . S
C274 H278 0.950 . S
C274 C283 1.390 . S
C275 C274 1.387 . S
C275 C277 1.387 . S
H276 C283 0.950 . S
C277 C275 1.387 . S
C277 C279 1.390 . S
C277 H281 0.950 . S
H278 C274 0.950 . S
C279 C277 1.390 . S
C279 C280 1.387 . S
C279 H282 0.950 . S
C280 C279 1.387 . S
C280 C283 1.387 . S
H281 C277 0.950 . S
H282 C279 0.950 . S
C283 C274 1.390 . S
C283 H276 0.950 . S
C283 C280 1.387 . S
C284 C285 1.387 . S
C284 H288 0.950 . S
C284 C293 1.390 . S
C285 C284 1.387 . S
C285 C287 1.387 . S
H286 C293 0.950 . S
C287 C285 1.387 . S
C287 C289 1.390 . S
C287 H291 0.950 . S
H288 C284 0.950 . S
C289 C287 1.390 . S
C289 C290 1.387 . S
C289 H292 0.950 . S
C290 C289 1.387 . S
C290 C293 1.387 . S
H291 C287 0.950 . S
H292 C289 0.950 . S
C293 C284 1.390 . S
C293 H286 0.950 . S
C293 C290 1.387 . S
C294 C295 1.387 . S
C294 H298 0.950 . S
C294 C303 1.390 . S
C295 C294 1.387 . S
C295 C297 1.387 . S
H296 C303 0.950 . S
C297 C295 1.387 . S
C297 C299 1.390 . S
C297 H301 0.950 . S
H298 C294 0.950 . S
C299 C297 1.390 . S
C299 C300 1.387 . S
C299 H302 0.950 . S
C300 C299 1.387 . S
C300 C303 1.387 . S
H301 C297 0.950 . S
H302 C299 0.950 . S
C303 C294 1.390 . S
C303 H296 0.950 . S
C303 C300 1.387 . S
C304 C305 1.387 . S
C304 H308 0.950 . S
C304 C313 1.390 . S
C305 C304 1.387 . S
C305 C307 1.387 . S
H306 C313 0.950 . S
C307 C305 1.387 . S
C307 C309 1.390 . S
C307 H311 0.950 . S
H308 C304 0.950 . S
C309 C307 1.390 . S
C309 C310 1.387 . S
C309 H312 0.950 . S
C310 C309 1.387 . S
C310 C313 1.387 . S
H311 C307 0.950 . S
H312 C309 0.950 . S
C313 C304 1.390 . S
C313 H306 0.950 . S
C313 C310 1.387 . S
C314 C315 1.387 . S
C314 H318 0.950 . S
C314 C323 1.390 . S
C315 C314 1.387 . S
C315 C317 1.387 . S
H316 C323 0.950 . S
C317 C315 1.387 . S
C317 C319 1.390 . S
C317 H321 0.950 . S
H318 C314 0.950 . S
C319 C317 1.390 . S
C319 C320 1.387 . S
C319 H322 0.950 . S
C320 C319 1.387 . S
C320 C323 1.387 . S
H321 C317 0.950 . S
H322 C319 0.950 . S
C323 C314 1.390 . S
C323 H316 0.950 . S
C323 C320 1.387 . S
C324 C325 1.387 . S
C324 H328 0.950 . S
C324 C333 1.390 . S
C325 C324 1.387 . S
C325 C327 1.387 . S
H326 C333 0.950 . S
C327 C325 1.387 . S
C327 C329 1.390 . S
C327 H331 0.950 . S
H328 C324 0.950 . S
C329 C327 1.390 . S
C329 C330 1.387 . S
C329 H332 0.950 . S
C330 C329 1.387 . S
C330 C333 1.387 . S
H331 C327 0.950 . S
H332 C329 0.950 . S
C333 C324 1.390 . S
C333 H326 0.950 . S
C333 C330 1.387 . S
C334 C335 1.387 . S
C334 H338 0.950 . S
C334 C343 1.390 . S
C335 C334 1.387 . S
C335 C337 1.387 . S
H336 C343 0.950 . S
C337 C335 1.387 . S
C337 C339 1.390 . S
C337 H341 0.950 . S
H338 C334 0.950 . S
C339 C337 1.390 . S
C339 C340 1.387 . S
C339 H342 0.950 . S
C340 C339 1.387 . S
C340 C343 1.387 . S
H341 C337 0.950 . S
H342 C339 0.950 . S
C343 C334 1.390 . S
C343 H336 0.950 . S
C343 C340 1.387 . S
C344 C345 1.387 . S
C344 H348 0.950 . S
C344 C353 1.390 . S
C345 C344 1.387 . S
C345 C347 1.387 . S
H346 C353 0.950 . S
C347 C345 1.387 . S
C347 C349 1.390 . S
C347 H351 0.950 . S
H348 C344 0.950 . S
C349 C347 1.390 . S
C349 C350 1.387 . S
C349 H352 0.950 . S
C350 C349 1.387 . S
C350 C353 1.387 . S
H351 C347 0.950 . S
H352 C349 0.950 . S
C353 C344 1.390 . S
C353 H346 0.950 . S
C353 C350 1.387 . S
C354 C355 1.387 . S
C354 H358 0.950 . S
C354 C363 1.390 . S
C355 C354 1.387 . S
C355 C357 1.387 . S
H356 C363 0.950 . S
C357 C355 1.387 . S
C357 C359 1.390 . S
C357 H361 0.950 . S
H358 C354 0.950 . S
C359 C357 1.390 . S
C359 C360 1.387 . S
C359 H362 0.950 . S
C360 C359 1.387 . S
C360 C363 1.387 . S
H361 C357 0.950 . S
H362 C359 0.950 . S
C363 C354 1.390 . S
C363 H356 0.950 . S
C363 C360 1.387 . S
C364 C365 1.387 . S
C364 H368 0.950 . S
C364 C373 1.390 . S
C365 C364 1.387 . S
C365 C367 1.387 . S
H366 C373 0.950 . S
C367 C365 1.387 . S
C367 C369 1.390 . S
C367 H371 0.950 . S
H368 C364 0.950 . S
C369 C367 1.390 . S
C369 C370 1.387 . S
C369 H372 0.950 . S
C370 C369 1.387 . S
C370 C373 1.387 . S
H371 C367 0.950 . S
H372 C369 0.950 . S
C373 C364 1.390 . S
C373 H366 0.950 . S
C373 C370 1.387 . S
C374 C375 1.387 . S
C374 H378 0.950 . S
C374 C383 1.390 . S
C375 C374 1.387 . S
C375 C377 1.387 . S
H376 C383 0.950 . S
C377 C375 1.387 . S
C377 C379 1.390 . S
C377 H381 0.950 . S
H378 C374 0.950 . S
C379 C377 1.390 . S
C379 C380 1.387 . S
C379 H382 0.950 . S
C380 C379 1.387 . S
C380 C383 1.387 . S
H381 C377 0.950 . S
H382 C379 0.950 . S
C383 C374 1.390 . S
C383 H376 0.950 . S
C383 C380 1.387 . S
C384 C385 1.387 . S
C384 H388 0.950 . S
C384 C393 1.390 . S
C385 C384 1.387 . S
C385 C387 1.387 1_556 S
H386 C393 0.950 . S
C387 C385 1.387 1_554 S
C387 C389 1.390 . S
C387 H391 0.950 . S
H388 C384 0.950 . S
C389 C387 1.390 . S
C389 C390 1.387 . S
C389 H392 0.950 . S
C390 C389 1.387 . S
C390 C393 1.387 1_554 S
H391 C387 0.950 . S
H392 C389 0.950 . S
C393 C384 1.390 . S
C393 H386 0.950 . S
C393 C390 1.387 1_556 S
C394 C395 1.387 . S
C394 H398 0.950 . S
C394 C403 1.390 . S
C395 C394 1.387 . S
C395 C397 1.387 . S
H396 C403 0.950 . S
C397 C395 1.387 . S
C397 C399 1.390 . S
C397 H401 0.950 . S
H398 C394 0.950 . S
C399 C397 1.390 . S
C399 C400 1.387 . S
C399 H402 0.950 . S
C400 C399 1.387 . S
C400 C403 1.387 . S
H401 C397 0.950 . S
H402 C399 0.950 . S
C403 C394 1.390 . S
C403 H396 0.950 . S
C403 C400 1.387 . S
C404 C405 1.387 . S
C404 H408 0.950 . S
C404 C413 1.390 1_554 S
C405 C404 1.387 . S
C405 C407 1.387 . S
H406 C413 0.950 . S
C407 C405 1.387 . S
C407 C409 1.390 1_554 S
C407 H411 0.950 . S
H408 C404 0.950 . S
C409 C407 1.390 1_556 S
C409 C410 1.387 . S
C409 H412 0.950 . S
C410 C409 1.387 . S
C410 C413 1.387 . S
H411 C407 0.950 . S
H412 C409 0.950 . S
C413 C404 1.390 1_556 S
C413 H406 0.950 . S
C413 C410 1.387 . S
C414 C415 1.387 . S
C414 H418 0.950 . S
C414 C423 1.390 . S
C415 C414 1.387 . S
C415 C417 1.387 . S
H416 C423 0.950 . S
C417 C415 1.387 . S
C417 C419 1.390 . S
C417 H421 0.950 . S
H418 C414 0.950 . S
C419 C417 1.390 . S
C419 C420 1.387 . S
C419 H422 0.950 . S
C420 C419 1.387 . S
C420 C423 1.387 . S
H421 C417 0.950 . S
H422 C419 0.950 . S
C423 C414 1.390 . S
C423 H416 0.950 . S
C423 C420 1.387 . S
C424 C425 1.387 . S
C424 H428 0.950 . S
C424 C433 1.390 . S
C425 C424 1.387 . S
C425 C427 1.387 1_554 S
H426 C433 0.950 . S
C427 C425 1.387 1_556 S
C427 C429 1.390 . S
C427 H431 0.950 . S
H428 C424 0.950 . S
C429 C427 1.390 . S
C429 C430 1.387 . S
C429 H432 0.950 . S
C430 C429 1.387 . S
C430 C433 1.387 1_556 S
H431 C427 0.950 . S
H432 C429 0.950 . S
C433 C424 1.390 . S
C433 H426 0.950 . S
C433 C430 1.387 1_554 S
C434 C435 1.387 . S
C434 H438 0.950 . S
C434 C443 1.390 . S
C435 C434 1.387 . S
C435 C437 1.387 . S
H436 C443 0.950 . S
C437 C435 1.387 . S
C437 C439 1.390 . S
C437 H441 0.950 . S
H438 C434 0.950 . S
C439 C437 1.390 . S
C439 C440 1.387 . S
C439 H442 0.950 . S
C440 C439 1.387 . S
C440 C443 1.387 . S
H441 C437 0.950 . S
H442 C439 0.950 . S
C443 C434 1.390 . S
C443 H436 0.950 . S
C443 C440 1.387 . S
C444 C445 1.387 1_556 S
C444 H448 0.950 . S
C444 C453 1.390 . S
C445 C444 1.387 1_554 S
C445 C447 1.387 . S
H446 C453 0.950 . S
C447 C445 1.387 . S
C447 C449 1.390 . S
C447 H451 0.950 . S
H448 C444 0.950 . S
C449 C447 1.390 . S
C449 C450 1.387 1_554 S
C449 H452 0.950 . S
C450 C449 1.387 1_556 S
C450 C453 1.387 . S
H451 C447 0.950 . S
H452 C449 0.950 . S
C453 C444 1.390 . S
C453 H446 0.950 . S
C453 C450 1.387 . S
C454 C455 1.387 . S
C454 H458 0.950 . S
C454 C463 1.390 . S
C455 C454 1.387 . S
C455 C457 1.387 . S
H456 C463 0.950 . S
C457 C455 1.387 . S
C457 C459 1.390 . S
C457 H461 0.950 . S
H458 C454 0.950 . S
C459 C457 1.390 . S
C459 C460 1.387 . S
C459 H462 0.950 . S
C460 C459 1.387 . S
C460 C463 1.387 . S
H461 C457 0.950 . S
H462 C459 0.950 . S
C463 C454 1.390 . S
C463 H456 0.950 . S
C463 C460 1.387 . S
C464 C465 1.387 . S
C464 H468 0.950 . S
C464 C473 1.390 1_556 S
C465 C464 1.387 . S
C465 C467 1.387 . S
H466 C473 0.950 . S
C467 C465 1.387 . S
C467 C469 1.390 1_556 S
C467 H471 0.950 . S
H468 C464 0.950 . S
C469 C467 1.390 1_554 S
C469 C470 1.387 . S
C469 H472 0.950 . S
C470 C469 1.387 . S
C470 C473 1.387 . S
H471 C467 0.950 . S
H472 C469 0.950 . S
C473 C464 1.390 1_554 S
C473 H466 0.950 . S
C473 C470 1.387 . S
C474 C475 1.387 . S
C474 H478 0.950 . S
C474 C483 1.390 . S
C475 C474 1.387 . S
C475 C477 1.387 . S
H476 C483 0.950 . S
C477 C475 1.387 . S
C477 C479 1.390 . S
C477 H481 0.950 . S
H478 C474 0.950 . S
C479 C477 1.390 . S
C479 C480 1.387 . S
C479 H482 0.950 . S
C480 C479 1.387 . S
C480 C483 1.387 . S
H481 C477 0.950 . S
H482 C479 0.950 . S
C483 C474 1.390 . S
C483 H476 0.950 . S
C483 C480 1.387 . S
C484 C485 1.387 . S
C484 H488 0.950 . S
C484 C493 1.390 1_554 S
C485 C484 1.387 . S
C485 C487 1.387 . S
H486 C493 0.950 . S
C487 C485 1.387 . S
C487 C489 1.390 1_554 S
C487 H491 0.950 . S
H488 C484 0.950 . S
C489 C487 1.390 1_556 S
C489 C490 1.387 . S
C489 H492 0.950 . S
C490 C489 1.387 . S
C490 C493 1.387 . S
H491 C487 0.950 . S
H492 C489 0.950 . S
C493 C484 1.390 1_556 S
C493 H486 0.950 . S
C493 C490 1.387 . S
C494 C495 1.387 . S
C494 H498 0.950 . S
C494 C503 1.390 . S
C495 C494 1.387 . S
C495 C497 1.387 . S
H496 C503 0.950 . S
C497 C495 1.387 . S
C497 C499 1.390 . S
C497 H501 0.950 . S
H498 C494 0.950 . S
C499 C497 1.390 . S
C499 C500 1.387 . S
C499 H502 0.950 . S
C500 C499 1.387 . S
C500 C503 1.387 . S
H501 C497 0.950 . S
H502 C499 0.950 . S
C503 C494 1.390 . S
C503 H496 0.950 . S
C503 C500 1.387 . S
C504 C505 1.387 . S
C504 H508 0.950 . S
C504 C513 1.390 1_546 S
C505 C504 1.387 . S
C505 C507 1.387 . S
H506 C513 0.950 . S
C507 C505 1.387 . S
C507 C509 1.390 1_546 S
C507 H511 0.950 . S
H508 C504 0.950 . S
C509 C507 1.390 1_564 S
C509 C510 1.387 . S
C509 H512 0.950 . S
C510 C509 1.387 . S
C510 C513 1.387 . S
H511 C507 0.950 . S
H512 C509 0.950 . S
C513 C504 1.390 1_564 S
C513 H506 0.950 . S
C513 C510 1.387 . S
C514 C515 1.387 . S
C514 H518 0.950 . S
C514 C523 1.390 1_565 S
C515 C514 1.387 . S
C515 C517 1.387 . S
H516 C523 0.950 . S
C517 C515 1.387 . S
C517 C519 1.390 1_565 S
C517 H521 0.950 . S
H518 C514 0.950 . S
C519 C517 1.390 1_545 S
C519 C520 1.387 . S
C519 H522 0.950 . S
C520 C519 1.387 . S
C520 C523 1.387 . S
H521 C517 0.950 . S
H522 C519 0.950 . S
C523 C514 1.390 1_545 S
C523 H516 0.950 . S
C523 C520 1.387 . S
C524 C525 1.387 . S
C524 H528 0.950 . S
C524 C533 1.390 1_564 S
C525 C524 1.387 . S
C525 C527 1.387 . S
H526 C533 0.950 . S
C527 C525 1.387 . S
C527 C529 1.390 1_564 S
C527 H531 0.950 . S
H528 C524 0.950 . S
C529 C527 1.390 1_546 S
C529 C530 1.387 . S
C529 H532 0.950 . S
C530 C529 1.387 . S
C530 C533 1.387 . S
H531 C527 0.950 . S
H532 C529 0.950 . S
C533 C524 1.390 1_546 S
C533 H526 0.950 . S
C533 C530 1.387 . S
C534 C535 1.387 . S
C534 H538 0.950 . S
C534 C543 1.390 1_545 S
C535 C534 1.387 . S
C535 C537 1.387 . S
H536 C543 0.950 . S
C537 C535 1.387 . S
C537 C539 1.390 1_545 S
C537 H541 0.950 . S
H538 C534 0.950 . S
C539 C537 1.390 1_565 S
C539 C540 1.387 . S
C539 H542 0.950 . S
C540 C539 1.387 . S
C540 C543 1.387 . S
H541 C537 0.950 . S
H542 C539 0.950 . S
C543 C534 1.390 1_565 S
C543 H536 0.950 . S
C543 C540 1.387 . S
C225 C9 1.439 . S
C230 C93 1.438 . S
C235 C23 1.437 . S
C240 C107 1.440 . S
C245 C65 1.439 . S
C250 C37 1.437 . S
C255 C79 1.440 . S
C260 C51 1.437 . S
C265 C205 1.440 . S
C270 C121 1.437 . S
C275 C219 1.440 . S
C280 C135 1.437 . S
C285 C149 1.437 . S
C290 C177 1.440 . S
C295 C163 1.439 . S
C300 C191 1.438 . S
C305 C7 1.447 . S
C310 C73 1.505 . S
C315 C21 1.447 . S
C320 C59 1.505 . S
C325 C35 1.445 . S
C330 C101 1.506 . S
C335 C87 1.506 . S
C340 C49 1.444 . S
C345 C185 1.506 . S
C350 C119 1.445 . S
C355 C171 1.506 . S
C360 C133 1.445 . S
C365 C147 1.445 . S
C370 C213 1.506 . S
C375 C199 1.506 . S
C380 C161 1.445 . S
C385 C176 1.436 . S
C390 C8 1.425 . S
C395 C22 1.425 . S
C400 C190 1.436 . S
C405 C204 1.436 . S
C410 C36 1.424 . S
C415 C218 1.437 . S
C420 C50 1.426 . S
C425 C120 1.425 . S
C430 C64 1.436 . S
C435 C134 1.425 . S
C440 C78 1.436 . S
C445 C92 1.436 . S
C450 C148 1.425 . S
C455 C106 1.437 . S
C460 C162 1.426 . S
C465 C31 1.514 . S
C470 C3 1.514 . S
C475 C17 1.515 . S
C480 C45 1.515 . S
C485 C91 1.433 . S
C490 C63 1.433 . S
C495 C77 1.433 . S
C500 C105 1.433 . S
C505 C143 1.514 . S
C510 C115 1.514 . S
C515 C157 1.514 . S
C520 C129 1.514 . S
C525 C203 1.430 . S
C530 C175 1.430 . S
C535 C217 1.430 . S
C540 C189 1.430 . S
