# Generated by pormake.
# Topology sml, (6)-cn, num edge types: 1
# Building blocks:
#     Node 0, Type 0, BuildingBlock: KUMBOL_clean_sbu_0, # of connection points: 6
#     Node 1, Type 0, BuildingBlock: KUMBOL_clean_sbu_0, # of connection points: 6
#     Node 2, Type 0, BuildingBlock: KUMBOL_clean_sbu_0, # of connection points: 6
#     Node 3, Type 0, BuildingBlock: KUMBOL_clean_sbu_0, # of connection points: 6
#     Node 4, Type 0, BuildingBlock: KUMBOL_clean_sbu_0, # of connection points: 6
#     Node 5, Type 0, BuildingBlock: KUMBOL_clean_sbu_0, # of connection points: 6
#     Edge 6, Type (0, 0), BuildingBlock: CIFDUS_clean_linker_0, # of connection points: 2
#     Edge 7, Type (0, 0), BuildingBlock: CIFDUS_clean_linker_0, # of connection points: 2
#     Edge 8, Type (0, 0), BuildingBlock: CIFDUS_clean_linker_0, # of connection points: 2
#     Edge 9, Type (0, 0), BuildingBlock: CIFDUS_clean_linker_0, # of connection points: 2
#     Edge 10, Type (0, 0), BuildingBlock: CIFDUS_clean_linker_0, # of connection points: 2
#     Edge 11, Type (0, 0), BuildingBlock: CIFDUS_clean_linker_0, # of connection points: 2
#     Edge 12, Type (0, 0), BuildingBlock: CIFDUS_clean_linker_0, # of connection points: 2
#     Edge 13, Type (0, 0), BuildingBlock: CIFDUS_clean_linker_0, # of connection points: 2
#     Edge 14, Type (0, 0), BuildingBlock: CIFDUS_clean_linker_0, # of connection points: 2
#     Edge 15, Type (0, 0), BuildingBlock: CIFDUS_clean_linker_0, # of connection points: 2
#     Edge 16, Type (0, 0), BuildingBlock: CIFDUS_clean_linker_0, # of connection points: 2
#     Edge 17, Type (0, 0), BuildingBlock: CIFDUS_clean_linker_0, # of connection points: 2
#     Edge 18, Type (0, 0), BuildingBlock: CIFDUS_clean_linker_0, # of connection points: 2
#     Edge 19, Type (0, 0), BuildingBlock: CIFDUS_clean_linker_0, # of connection points: 2
#     Edge 20, Type (0, 0), BuildingBlock: CIFDUS_clean_linker_0, # of connection points: 2
#     Edge 21, Type (0, 0), BuildingBlock: CIFDUS_clean_linker_0, # of connection points: 2
#     Edge 22, Type (0, 0), BuildingBlock: CIFDUS_clean_linker_0, # of connection points: 2
#     Edge 23, Type (0, 0), BuildingBlock: CIFDUS_clean_linker_0, # of connection points: 2
# Relax obj value: 0.033
# Max RMSD: 0.157
# Mean RMSD: 0.157
data_MOF--net-sml--node1-KUMBOL_clean_sbu_0--edge1-CIFDUS_clean_linker_0
_symmetry_space_group_name_H-M    P1
_symmetry_Int_Tables_number       1
_symmetry_cell_setting            triclinic
loop_
_symmetry_equiv_pos_as_xyz
'x, y, z'
_cell_length_a     28.362051
_cell_length_b     28.284635
_cell_length_c     21.844146
_cell_angle_alpha  89.874301
_cell_angle_beta   90.356459
_cell_angle_gamma 120.14999
loop_
_atom_site_label
_atom_site_type_symbol
_atom_site_fract_x
_atom_site_fract_y
_atom_site_fract_z
_atom_type_partial_charge
Gd0 Gd 0.27098 0.42641 0.09534 0.0
Gd1 Gd 0.17636 0.4217 0.97577 0.0
C2 C 0.08752 0.51667 0.94737 0.0
C3 C 0.99393 0.44321 0.93447 0.0
C4 C 0.06481 0.42263 0.96278 0.0
C5 C 0.10335 0.4778 0.96137 0.0
C6 C 0.00955 0.40479 0.94981 0.0
C7 C 0.03282 0.499 0.93325 0.0
C8 C 0.12746 0.57203 0.94551 0.0
C9 C 0.18191 0.58728 0.9547 0.0
N10 N 0.15659 0.49325 0.97022 0.0
C11 C 0.19588 0.54711 0.96535 0.0
H12 H 0.23843 0.55994 0.96875 0.0
C13 C 0.04567 0.3312 0.97055 0.0
N14 N 0.08176 0.38616 0.97307 0.0
C15 C 0.99013 0.31167 0.9605 0.0
C16 C 0.97198 0.34864 0.94996 0.0
H17 H 0.06004 0.30254 0.97611 0.0
H18 H 0.02023 0.52817 0.92088 0.0
H19 H 0.16514 0.2933 0.10794 0.0
H20 H 0.11685 0.60311 0.93553 0.0
H21 H 0.2134 0.62987 0.95191 0.0
H22 H 0.9519 0.43015 0.92297 0.0
H23 H 0.40619 0.50657 0.07432 0.0
H24 H 0.22693 0.18596 0.08362 0.0
H25 H 0.15056 0.20146 0.10568 0.0
H26 H 0.41445 0.3047 0.03597 0.0
H27 H 0.96156 0.26814 0.95935 0.0
H28 H 0.92918 0.3334 0.9406 0.0
H29 H 0.32432 0.22468 0.05516 0.0
H30 H 0.482 0.4972 0.03373 0.0
N31 N 0.25141 0.33361 0.09434 0.0
C32 C 0.23433 0.22736 0.08698 0.0
C33 C 0.19125 0.23596 0.09958 0.0
C34 C 0.28616 0.27224 0.0772 0.0
C35 C 0.29377 0.32549 0.08222 0.0
C36 C 0.20032 0.28922 0.1024 0.0
N37 N 0.34993 0.42084 0.07441 0.0
C38 C 0.3443 0.37039 0.07111 0.0
C39 C 0.44395 0.46122 0.04573 0.0
C40 C 0.43842 0.40968 0.0405 0.0
C41 C 0.40022 0.46617 0.0667 0.0
C42 C 0.38852 0.36347 0.05428 0.0
H43 H 0.47283 0.40599 0.02595 0.0
O44 O 0.33158 0.47578 0.1626 0.0
O45 O 0.21572 0.45694 0.06636 0.0
O46 O 0.26062 0.49196 0.95754 0.0
O47 O 0.32327 0.48194 1.01772 0.0
O48 O 0.29042 0.51359 0.10295 0.0
O49 O 0.25379 0.40645 0.1931 0.0
O50 O 0.15433 0.37171 0.89404 0.0
O51 O 0.2369 0.39891 1.00367 0.0
O52 O 0.18327 0.37985 0.13003 0.0
O53 O 0.12284 0.3838 0.05894 0.0
O54 O 0.1671 0.3374 0.96483 0.0
O55 O 0.19919 0.46014 0.88608 0.0
C56 C 0.24472 0.50657 0.08202 0.0
C57 C 0.38111 0.31074 0.04937 0.0
C58 C 0.32996 0.26523 0.06066 0.0
C59 C 0.30148 0.44732 0.20841 0.0
C60 C 0.32207 0.46101 0.27188 0.0
C61 C 0.37847 0.49453 0.28141 0.0
C62 C 0.28704 0.44096 0.32292 0.0
C63 C 0.30904 0.45384 0.38272 0.0
C64 C 0.39995 0.50765 0.34041 0.0
C65 C 0.36561 0.48736 0.39072 0.0
C66 C 0.31096 0.5042 0.97127 0.0
C67 C 0.21574 0.3512 0.98305 0.0
C68 C 0.17656 0.41348 0.85706 0.0
C69 C 0.14558 0.40888 0.80121 0.0
C70 C 0.08983 0.39103 0.80417 0.0
C71 C 0.17128 0.41913 0.74389 0.0
C72 C 0.14123 0.41185 0.68956 0.0
C73 C 0.05986 0.38317 0.75071 0.0
C74 C 0.08518 0.39358 0.69379 0.0
C75 C 0.13363 0.3685 0.11228 0.0
H76 H 0.4063 0.51037 0.24313 0.0
H77 H 0.24341 0.41514 0.31632 0.0
H78 H 0.44347 0.5335 0.34717 0.0
H79 H 0.38328 0.49817 0.43624 0.0
H80 H 0.06914 0.38194 0.84759 0.0
H81 H 0.21445 0.4328 0.74171 0.0
H82 H 0.01665 0.36803 0.7535 0.0
H83 H 0.06059 0.38634 0.65297 0.0
Gd84 Gd 0.83601 0.26332 0.43181 0.0
Gd85 Gd 0.75558 0.17448 0.30525 0.0
C86 C 0.5752 0.10539 0.26336 0.0
C87 C 0.54562 0.01016 0.2429 0.0
C88 C 0.63738 0.07137 0.28124 0.0
C89 C 0.62701 0.11426 0.2813 0.0
C90 C 0.59656 0.01869 0.26243 0.0
C91 C 0.53487 0.05333 0.24367 0.0
C92 C 0.56604 0.14955 0.26348 0.0
C93 C 0.60841 0.20118 0.27966 0.0
N94 N 0.66818 0.16505 0.29602 0.0
C95 C 0.65931 0.20835 0.29522 0.0
H96 H 0.69025 0.24878 0.30855 0.0
C97 C 0.70171 0.04174 0.29001 0.0
N98 N 0.68858 0.08198 0.29462 0.0
C99 C 0.66185 0.9883 0.27475 0.0
C100 C 0.60902 0.97673 0.26077 0.0
H101 H 0.7433 0.05129 0.29771 0.0
H102 H 0.49524 0.04604 0.22874 0.0
H103 H 0.86786 0.16673 0.4835 0.0
H104 H 0.52672 0.14433 0.25064 0.0
H105 H 0.60243 0.23592 0.28059 0.0
H106 H 0.51421 0.97028 0.22705 0.0
H107 H 0.89661 0.40081 0.41176 0.0
H108 H 0.03172 0.21898 0.43654 0.0
H109 H 0.94317 0.14959 0.47907 0.0
H110 H 0.09873 0.39915 0.35752 0.0
H111 H 0.67226 0.95642 0.272 0.0
H112 H 0.5786 0.9357 0.24716 0.0
H113 H 0.08927 0.31184 0.39119 0.0
H114 H 0.97952 0.47271 0.36164 0.0
N115 N 0.90957 0.24476 0.43894 0.0
C116 C 0.99806 0.22683 0.43749 0.0
C117 C 0.94813 0.18755 0.4612 0.0
C118 C 0.00432 0.2763 0.41659 0.0
C119 C 0.95899 0.28436 0.41851 0.0
C120 C 0.90457 0.19744 0.46242 0.0
N121 N 0.92138 0.34115 0.40703 0.0
C122 C 0.96465 0.33361 0.40061 0.0
C123 C 0.97635 0.43418 0.37366 0.0
C124 C 0.02003 0.42594 0.36316 0.0
C125 C 0.92859 0.39243 0.39972 0.0
C126 C 0.01532 0.37592 0.37896 0.0
H127 H 0.05761 0.45894 0.34473 0.0
O128 O 0.8425 0.32148 0.50039 0.0
O129 O 0.75269 0.20462 0.39887 0.0
O130 O 0.77422 0.25994 0.28604 0.0
O131 O 0.82938 0.32005 0.36227 0.0
O132 O 0.76322 0.27529 0.43537 0.0
O133 O 0.83481 0.24421 0.52823 0.0
O134 O 0.78047 0.14659 0.22581 0.0
O135 O 0.83693 0.23589 0.33858 0.0
O136 O 0.79322 0.17271 0.46144 0.0
O137 O 0.73813 0.11502 0.38275 0.0
O138 O 0.83181 0.16733 0.30214 0.0
O139 O 0.75339 0.20573 0.21538 0.0
C140 C 0.72642 0.22714 0.41724 0.0
C141 C 0.05975 0.3673 0.37451 0.0
C142 C 0.05439 0.31769 0.39378 0.0
C143 C 0.83933 0.29019 0.54589 0.0
C144 C 0.87236 0.31601 0.60048 0.0
C145 C 0.9221 0.36534 0.59728 0.0
C146 C 0.85085 0.29264 0.65764 0.0
C147 C 0.87754 0.31967 0.71174 0.0
C148 C 0.94898 0.39212 0.6511 0.0
C149 C 0.92631 0.37003 0.70802 0.0
C150 C 0.80292 0.30952 0.30933 0.0
C151 C 0.8656 0.21667 0.31982 0.0
C152 C 0.771 0.1767 0.18797 0.0
C153 C 0.74471 0.15175 0.12972 0.0
C154 C 0.69466 0.10283 0.12794 0.0
C155 C 0.77047 0.1773 0.07487 0.0
C156 C 0.74682 0.15304 1.01843 0.0
C157 C 0.67041 0.07949 0.07202 0.0
C158 C 0.69651 0.10401 1.01744 0.0
C159 C 0.75945 0.12322 0.43846 0.0
H160 H 0.93939 0.38368 0.55346 0.0
H161 H 0.81221 0.25457 0.66002 0.0
H162 H 0.98703 0.43055 0.64873 0.0
H163 H 0.94712 0.39198 0.74925 0.0
H164 H 0.67442 0.08253 0.16942 0.0
H165 H 0.80934 0.21519 0.07612 0.0
H166 H 0.63133 0.04233 0.0711 0.0
H167 H 0.67725 0.085 0.97437 0.0
Gd168 Gd 0.58401 0.84206 0.75813 0.0
Gd169 Gd 0.57478 0.75065 0.63545 0.0
C170 C 0.46466 0.56611 0.61792 0.0
C171 C 0.53073 0.53607 0.60715 0.0
C172 C 0.56132 0.63187 0.62649 0.0
C173 C 0.50772 0.62029 0.62661 0.0
C174 C 0.57339 0.58982 0.61684 0.0
C175 C 0.47648 0.52408 0.60855 0.0
C176 C 0.41109 0.55609 0.61626 0.0
C177 C 0.40165 0.59981 0.62067 0.0
N178 N 0.4978 0.66231 0.63171 0.0
C179 C 0.44575 0.65297 0.62699 0.0
H180 H 0.43765 0.68629 0.62788 0.0
C181 C 0.65522 0.69846 0.6285 0.0
N182 N 0.60175 0.68472 0.6321 0.0
C183 C 0.66918 0.65792 0.62099 0.0
C184 C 0.62807 0.60335 0.61506 0.0
H185 H 0.6871 0.74075 0.6316 0.0
H186 H 0.44402 0.48239 0.60088 0.0
H187 H 0.71992 0.89335 0.75931 0.0
H188 H 0.37692 0.51504 0.60994 0.0
H189 H 0.36048 0.59274 0.61804 0.0
H190 H 0.53926 0.50354 0.59774 0.0
H191 H 0.48304 0.86767 0.77808 0.0
H192 H 0.79822 0.06727 0.74535 0.0
H193 H 0.80371 0.98286 0.75225 0.0
H194 H 0.64973 0.10196 0.75922 0.0
H195 H 0.71159 0.66883 0.61878 0.0
H196 H 0.63888 0.57208 0.6083 0.0
H197 H 0.74019 0.11138 0.74677 0.0
H198 H 0.47026 0.94758 0.78822 0.0
N199 N 0.66669 0.92594 0.75336 0.0
C200 C 0.7611 0.02791 0.7478 0.0
C201 C 0.76438 0.9804 0.75193 0.0
C202 C 0.71002 0.02415 0.74906 0.0
C203 C 0.66296 0.97186 0.75176 0.0
C204 C 0.71658 0.92959 0.75593 0.0
N205 N 0.56804 0.91568 0.76082 0.0
C206 C 0.61202 0.96659 0.75638 0.0
C207 C 0.51027 0.9535 0.7786 0.0
C208 C 0.55501 0.00624 0.77262 0.0
C209 C 0.51758 0.9084 0.77274 0.0
C210 C 0.60663 0.01334 0.7611 0.0
H211 H 0.5495 0.04121 0.7781 0.0
O212 O 0.53738 0.82222 0.8417 0.0
O213 O 0.54392 0.75645 0.72632 0.0
O214 O 0.51242 0.77751 0.62406 0.0
O215 O 0.5422 0.85895 0.67833 0.0
O216 O 0.494 0.78227 0.76348 0.0
O217 O 0.62443 0.85235 0.84581 0.0
O218 O 0.62039 0.77273 0.55102 0.0
O219 O 0.61115 0.83607 0.6662 0.0
O220 O 0.63968 0.805 0.7744 0.0
O221 O 0.60161 0.72386 0.71854 0.0
O222 O 0.6641 0.8166 0.62692 0.0
O223 O 0.53245 0.73961 0.5494 0.0
C224 C 0.49534 0.74076 0.74133 0.0
C225 C 0.6531 0.06552 0.75648 0.0
C226 C 0.70465 0.07089 0.74971 0.0
C227 C 0.57983 0.83686 0.87666 0.0
C228 C 0.58386 0.86943 0.93017 0.0
C229 C 0.58775 0.92063 0.9243 0.0
C230 C 0.58027 0.84705 0.98824 0.0
C231 C 0.57901 0.875 0.04051 0.0
C232 C 0.58663 0.94861 0.97627 0.0
C233 C 0.58176 0.92569 0.03418 0.0
C234 C 0.51366 0.82435 0.63356 0.0
C235 C 0.6592 0.8567 0.64727 0.0
C236 C 0.57696 0.75779 0.51746 0.0
C237 C 0.5731 0.72826 0.46159 0.0
C238 C 0.56429 0.6749 0.46286 0.0
C239 C 0.57999 0.75511 0.40582 0.0
C240 C 0.5791 0.72913 0.35112 0.0
C241 C 0.56247 0.64855 0.40824 0.0
C242 C 0.57011 0.67564 0.35245 0.0
C243 C 0.63208 0.75516 0.7641 0.0
H244 H 0.59081 0.93858 0.87986 0.0
H245 H 0.57672 0.80715 0.99264 0.0
H246 H 0.58886 0.98776 0.97156 0.0
H247 H 0.58025 0.94738 0.07418 0.0
H248 H 0.55893 0.65378 0.50568 0.0
H249 H 0.58719 0.79662 0.40506 0.0
H250 H 0.55524 0.60719 0.40922 0.0
H251 H 0.56843 0.65486 0.31023 0.0
Gd252 Gd 0.73251 0.58488 0.09988 0.0
Gd253 Gd 0.82078 0.57892 0.98186 0.0
C254 C 0.88365 0.46192 1.01916 0.0
C255 C 0.97842 0.52492 0.0457 0.0
C256 C 0.92018 0.5594 1.00992 0.0
C257 C 0.87652 0.50678 1.00636 0.0
C258 C 0.97223 0.56905 0.02692 0.0
C259 C 0.9341 0.47133 0.04182 0.0
C260 C 0.84048 0.40923 1.00693 0.0
C261 C 0.79252 0.40263 0.9806 0.0
N262 N 0.82798 0.49948 0.98635 0.0
C263 C 0.78685 0.44845 0.97063 0.0
H264 H 0.7489 0.44228 0.95197 0.0
C265 C 0.95521 0.6529 0.98707 0.0
N266 N 0.91205 0.6011 0.99401 0.0
C267 C 0.00802 0.66444 1.00204 0.0
C268 C 0.01643 0.62252 1.02332 0.0
H269 H 0.9483 0.68557 0.97278 0.0
H270 H 0.93995 0.43742 0.0538 0.0
H271 H 0.80734 0.72301 0.09138 0.0
H272 H 0.8444 0.37363 1.0157 0.0
H273 H 0.75933 0.36216 0.96946 0.0
H274 H 0.01777 0.53153 0.0607 0.0
H275 H 0.6123 0.47936 0.13537 0.0
H276 H 0.69915 0.78531 0.06947 0.0
H277 H 0.79272 0.80048 0.07649 0.0
H278 H 0.52479 0.62936 0.11345 0.0
H279 H 0.04203 0.70573 0.99825 0.0
H280 H 0.05724 0.63162 0.03547 0.0
H281 H 0.59862 0.72089 0.08423 0.0
H282 H 0.51955 0.46066 0.15951 0.0
N283 N 0.72267 0.66278 0.0895 0.0
C284 C 0.70522 0.75078 0.07607 0.0
C285 C 0.75806 0.75951 0.08005 0.0
C286 C 0.66101 0.698 0.08428 0.0
C287 C 0.67124 0.65428 0.09046 0.0
C288 C 0.76607 0.71502 0.08842 0.0
N289 N 0.64118 0.56192 0.10964 0.0
C290 C 0.62927 0.60239 0.1029 0.0
C291 C 0.54993 0.5006 0.14308 0.0
C292 C 0.53714 0.54202 0.13646 0.0
C293 C 0.60237 0.51123 0.12896 0.0
C294 C 0.57647 0.59318 0.11436 0.0
H295 H 0.49677 0.53405 0.14837 0.0
O296 O 0.71416 0.54159 0.18651 0.0
O297 O 0.78174 0.54798 0.07162 0.0
O298 O 0.73186 0.51633 0.96477 0.0
O299 O 0.67341 0.53465 1.02269 0.0
O300 O 0.70555 0.49569 0.10735 0.0
O301 O 0.76613 0.62941 0.18478 0.0
O302 O 0.85499 0.62804 0.90039 0.0
O303 O 0.76666 0.61062 1.00735 0.0
O304 O 0.82263 0.64994 0.1126 0.0
O305 O 0.87162 0.61428 0.06705 0.0
O306 O 0.84018 0.66678 0.97067 0.0
O307 O 0.79654 0.54114 0.89227 0.0
C308 C 0.74947 0.4989 0.08654 0.0
C309 C 0.5654 0.63592 0.10607 0.0
C310 C 0.60745 0.68805 0.08966 0.0
C311 C 0.74205 0.58579 0.21873 0.0
C312 C 0.71577 0.58979 0.27425 0.0
C313 C 0.66878 0.59411 0.27067 0.0
C314 C 0.73669 0.58693 0.33163 0.0
C315 C 0.71024 0.5877 0.38552 0.0
C316 C 0.64239 0.59478 0.32391 0.0
C317 C 0.66295 0.59182 0.38108 0.0
C318 C 0.68278 0.50888 0.9773 0.0
C319 C 0.79326 0.65887 0.98775 0.0
C320 C 0.82693 0.58698 0.86349 0.0
C321 C 0.8543 0.58469 0.80819 0.0
C322 C 0.90031 0.57864 0.81115 0.0
C323 C 0.83456 0.59052 0.75132 0.0
C324 C 0.86116 0.5912 0.69706 0.0
C325 C 0.92656 0.57862 0.75728 0.0
C326 C 0.90737 0.58514 0.70057 0.0
C327 C 0.86724 0.64621 0.1077 0.0
H328 H 0.65222 0.59649 0.22692 0.0
H329 H 0.77261 0.58268 0.3342 0.0
H330 H 0.60554 0.59693 0.32071 0.0
H331 H 0.64189 0.59278 0.42184 0.0
H332 H 0.91588 0.57418 0.85489 0.0
H333 H 0.79922 0.59578 0.74949 0.0
H334 H 0.96187 0.57355 0.75945 0.0
H335 H 0.92822 0.5848 0.65936 0.0
Gd336 Gd 0.16446 0.74101 0.43179 0.0
Gd337 Gd 0.2496 0.82845 0.3063 0.0
C338 C 0.43219 0.89991 0.33537 0.0
C339 C 0.46121 0.99433 0.36035 0.0
C340 C 0.36781 0.93206 0.32865 0.0
C341 C 0.37869 0.88968 0.32558 0.0
C342 C 0.40965 0.98547 0.34285 0.0
C343 C 0.47247 0.95148 0.35663 0.0
C344 C 0.444 0.85878 0.32121 0.0
C345 C 0.40294 0.80925 0.29726 0.0
N346 N 0.33799 0.83959 0.30809 0.0
C347 C 0.34978 0.8 0.29169 0.0
H348 H 0.31887 0.76093 0.27441 0.0
C349 C 0.30674 0.96347 0.30473 0.0
N350 N 0.31686 0.92151 0.31423 0.0
C351 C 0.34733 0.01744 0.31706 0.0
C352 C 0.39862 0.02834 0.33773 0.0
H353 H 0.26644 0.9547 0.29094 0.0
H354 H 0.51324 0.95945 0.36703 0.0
H355 H 0.11241 0.82637 0.42533 0.0
H356 H 0.48482 0.86533 0.32713 0.0
H357 H 0.41156 0.77725 0.28535 0.0
H358 H 0.49343 0.0347 0.37373 0.0
H359 H 0.13777 0.6141 0.45582 0.0
H360 H 0.93992 0.72955 0.40409 0.0
H361 H 0.02363 0.81994 0.41308 0.0
H362 H 0.90493 0.54633 0.42573 0.0
H363 H 0.3388 0.05046 0.31156 0.0
H364 H 0.42982 0.07007 0.34785 0.0
H365 H 0.89616 0.62727 0.40649 0.0
H366 H 0.05746 0.52167 0.46826 0.0
N367 N 0.08067 0.74003 0.42306 0.0
C368 C 0.97908 0.732 0.4097 0.0
C369 C 0.02616 0.78303 0.41511 0.0
C370 C 0.98292 0.68471 0.41364 0.0
C371 C 0.03495 0.69015 0.42044 0.0
C372 C 0.07672 0.78634 0.4226 0.0
N373 N 0.09056 0.65127 0.43439 0.0
C374 C 0.04 0.64442 0.42765 0.0
C375 C 0.052 0.55574 0.45607 0.0
C376 C 0.99967 0.54795 0.4481 0.0
C377 C 0.09727 0.60798 0.44888 0.0
C378 C 0.99315 0.59225 0.4324 0.0
H379 H 0.96449 0.50775 0.45499 0.0
O380 O 0.17977 0.70816 0.51438 0.0
O381 O 0.24769 0.7969 0.39938 0.0
O382 O 0.23014 0.74108 0.29414 0.0
O383 O 0.16047 0.681 0.3595 0.0
O384 O 0.23588 0.72697 0.43997 0.0
O385 O 0.15836 0.77174 0.52044 0.0
O386 O 0.23225 0.86083 0.22476 0.0
O387 O 0.16684 0.76887 0.33694 0.0
O388 O 0.19421 0.83097 0.45477 0.0
O389 O 0.26379 0.88381 0.38617 0.0
O390 O 0.17358 0.83533 0.29195 0.0
O391 O 0.26182 0.8034 0.2171 0.0
C392 C 0.27288 0.77381 0.41925 0.0
C393 C 0.94136 0.58628 0.42354 0.0
C394 C 0.93636 0.63238 0.41293 0.0
C395 C 0.17 0.73893 0.55027 0.0
C396 C 0.13826 0.71347 0.60525 0.0
C397 C 0.08919 0.6635 0.60277 0.0
C398 C 0.15843 0.73974 0.66156 0.0
C399 C 0.1303 0.7158 0.71599 0.0
C400 C 0.06119 0.63927 0.65658 0.0
C401 C 0.08164 0.66499 0.7129 0.0
C402 C 0.19324 0.69111 0.31189 0.0
C403 C 0.1392 0.78791 0.31376 0.0
C404 C 0.24668 0.83397 0.18815 0.0
C405 C 0.27852 0.86316 0.13456 0.0
C406 C 0.32687 0.91357 0.13979 0.0
C407 C 0.25927 0.83976 0.07685 0.0
C408 C 0.28766 0.86676 1.02365 0.0
C409 C 0.35539 0.94074 0.08715 0.0
C410 C 0.33592 0.91767 0.02939 0.0
C411 C 0.23627 0.87818 0.43674 0.0
H412 H 0.07278 0.64306 0.55961 0.0
H413 H 0.19587 0.77902 0.6627 0.0
H414 H 0.02378 0.60021 0.65471 0.0
H415 H 0.05974 0.64476 0.75409 0.0
H416 H 0.3423 0.93188 0.18425 0.0
H417 H 0.22231 0.80019 0.0736 0.0
H418 H 0.39254 0.97991 0.09105 0.0
H419 H 0.35831 0.93997 0.98924 0.0
Gd420 Gd 0.4241 0.15607 0.76579 0.0
Gd421 Gd 0.4098 0.24098 0.6492 0.0
C422 C 0.55613 0.4136 0.67449 0.0
C423 C 0.51474 0.46029 0.72442 0.0
C424 C 0.45858 0.36648 0.68924 0.0
C425 C 0.50434 0.36606 0.66961 0.0
C426 C 0.46292 0.41451 0.7141 0.0
C427 C 0.56139 0.45988 0.70446 0.0
C428 C 0.60086 0.41335 0.64841 0.0
C429 C 0.5929 0.3674 0.61616 0.0
N430 N 0.49786 0.31992 0.64288 0.0
C431 C 0.54089 0.32099 0.61349 0.0
H432 H 0.53611 0.28664 0.58749 0.0
C433 C 0.36286 0.32427 0.68452 0.0
N434 N 0.40943 0.32138 0.67897 0.0
C435 C 0.3649 0.37104 0.70864 0.0
C436 C 0.4151 0.41587 0.72516 0.0
H437 H 0.32369 0.28994 0.67163 0.0
H438 H 0.60099 0.49632 0.70998 0.0
H439 H 0.30154 0.1172 0.83239 0.0
H440 H 0.64145 0.44838 0.65267 0.0
H441 H 0.62696 0.36733 0.59419 0.0
H442 H 0.51901 0.49717 0.74473 0.0
H443 H 0.50466 0.1021 0.73014 0.0
H444 H 0.18932 0.9528 0.78194 0.0
H445 H 0.20917 0.03906 0.83238 0.0
H446 H 0.30168 0.89416 0.68405 0.0
H447 H 0.32774 0.37241 0.71455 0.0
H448 H 0.41666 0.45214 0.7437 0.0
H449 H 0.22418 0.89913 0.72642 0.0
H450 H 0.49392 0.01958 0.68019 0.0
N451 N 0.3346 0.07958 0.77591 0.0
C452 C 0.23021 0.98783 0.78047 0.0
C453 C 0.24118 0.03647 0.80863 0.0
C454 C 0.27268 0.98435 0.7529 0.0
C455 C 0.32524 0.03129 0.75221 0.0
C456 C 0.29394 0.08164 0.80701 0.0
N457 N 0.41904 0.07332 0.73307 0.0
C458 C 0.36872 0.02835 0.72908 0.0
C459 C 0.45828 0.02136 0.69392 0.0
C460 C 0.40652 0.97613 0.68555 0.0
C461 C 0.46394 0.06873 0.72078 0.0
C462 C 0.361 0.97855 0.70515 0.0
H463 H 0.40237 0.93903 0.66611 0.0
O464 O 0.47042 0.13803 0.83215 0.0
O465 O 0.44964 0.24203 0.73927 0.0
O466 O 0.45811 0.20428 0.61233 0.0
O467 O 0.48527 0.168 0.69146 0.0
O468 O 0.51022 0.22483 0.76581 0.0
O469 O 0.41244 0.16239 0.86334 0.0
O470 O 0.36261 0.25446 0.57968 0.0
O471 O 0.38631 0.15675 0.67738 0.0
O472 O 0.37871 0.19779 0.80252 0.0
O473 O 0.34731 0.22679 0.7198 0.0
O474 O 0.32399 0.16823 0.64709 0.0
O475 O 0.42164 0.2313 0.553 0.0
C476 C 0.50023 0.26319 0.75096 0.0
C477 C 0.30843 0.93251 0.70284 0.0
C478 C 0.26434 0.93534 0.72697 0.0
C479 C 0.44819 0.14842 0.8783 0.0
C480 C 0.46197 0.14403 0.94246 0.0
C481 C 0.49292 0.11911 0.95554 0.0
C482 C 0.44467 0.16454 0.9909 0.0
C483 C 0.4583 0.16004 0.05203 0.0
C484 C 0.50605 0.11409 1.01579 0.0
C485 C 0.48875 0.13407 0.06368 0.0
C486 C 0.48621 0.18207 0.63354 0.0
C487 C 0.33624 0.13185 0.66388 0.0
C488 C 0.3851 0.24306 0.5346 0.0
C489 C 0.39429 0.2722 0.47597 0.0
C490 C 0.38241 0.31448 0.46869 0.0
C491 C 0.40875 0.25257 0.4244 0.0
C492 C 0.40963 0.27369 0.36589 0.0
C493 C 0.38381 0.33589 0.41058 0.0
C494 C 0.39669 0.31523 0.35932 0.0
C495 C 0.34759 0.21566 0.77814 0.0
H496 H 0.5067 0.10305 0.91917 0.0
H497 H 0.42158 0.18473 0.98096 0.0
H498 H 0.52956 0.09439 0.02549 0.0
H499 H 0.49885 0.12855 0.11005 0.0
H500 H 0.37087 0.33013 0.50752 0.0
H501 H 0.41753 0.21956 0.42941 0.0
H502 H 0.37427 0.36821 0.4051 0.0
H503 H 0.3974 0.33223 0.31462 0.0
H504 H 0.3835 0.31107 0.83595 0.0
H505 H 0.24039 0.15356 0.80793 0.0
H506 H 0.18721 0.17981 0.87344 0.0
H507 H 0.1812 0.24952 0.93626 0.0
H508 H 0.32319 0.41002 0.95233 0.0
H509 H 0.37707 0.38083 0.89557 0.0
C510 C 0.34087 0.28238 0.84516 0.0
C511 C 0.316 0.23009 0.81915 0.0
C512 C 0.31043 0.29837 0.88107 0.0
C513 C 0.26043 0.1936 0.82916 0.0
C514 C 0.23006 0.20873 0.86621 0.0
C515 C 0.22404 0.27776 0.92774 0.0
C516 C 0.24843 0.33135 0.95081 0.0
C517 C 0.25458 0.26119 0.89228 0.0
C518 C 0.3036 0.36802 0.93761 0.0
C519 C 0.33455 0.35152 0.90431 0.0
H520 H 0.03916 0.37147 0.12462 0.0
H521 H 0.12705 0.29677 0.20015 0.0
H522 H 0.05162 0.24148 0.26845 0.0
H523 H 0.95865 0.21176 0.30556 0.0
H524 H 0.87754 0.29694 0.24188 0.0
H525 H 0.95128 0.3499 0.17072 0.0
C526 C 0.04174 0.34304 0.15599 0.0
C527 C 0.0882 0.33725 0.15573 0.0
C528 C 0.99916 0.31306 0.1977 0.0
C529 C 0.09141 0.30129 0.198 0.0
C530 C 0.04824 0.26962 0.23746 0.0
C531 C 0.95774 0.24259 0.27683 0.0
C532 C 0.91306 0.25093 0.28004 0.0
C533 C 0.00165 0.27477 0.23748 0.0
C534 C 0.91195 0.29044 0.24164 0.0
C535 C 0.95407 0.32064 0.20043 0.0
H536 H 0.80594 0.06625 0.48523 0.0
H537 H 0.65866 0.07497 0.48656 0.0
H538 H 0.61637 0.99731 0.5571 0.0
H539 H 0.61968 0.92403 0.61373 0.0
H540 H 0.76418 0.91043 0.60771 0.0
H541 H 0.80944 0.99292 0.54431 0.0
C542 C 0.7648 0.05127 0.50151 0.0
C543 C 0.73547 0.07637 0.48126 0.0
C544 C 0.74032 0.0057 0.54119 0.0
C545 C 0.68192 0.05623 0.50177 0.0
C546 C 0.65779 0.01188 0.5421 0.0
C547 C 0.66129 0.93939 0.59966 0.0
C548 C 0.68858 0.91106 0.61622 0.0
C549 C 0.6864 0.98593 0.56171 0.0
C550 C 0.74236 0.93157 0.59611 0.0
C551 C 0.76816 0.97862 0.55957 0.0
H552 H 0.72595 0.80669 0.83367 0.0
H553 H 0.5883 0.64786 0.79171 0.0
H554 H 0.6225 0.60484 0.86192 0.0
H555 H 0.69325 0.61129 0.93249 0.0
H556 H 0.83716 0.76753 0.9647 0.0
H557 H 0.79878 0.81255 0.90248 0.0
C558 C 0.70344 0.76275 0.84024 0.0
C559 C 0.65454 0.73073 0.80752 0.0
C560 C 0.7244 0.73772 0.87944 0.0
C561 C 0.62618 0.67364 0.816 0.0
C562 C 0.6456 0.64887 0.8564 0.0
C563 C 0.7159 0.65526 0.92664 0.0
C564 C 0.76758 0.68622 0.95432 0.0
C565 C 0.69484 0.68039 0.88812 0.0
C566 C 0.79707 0.74295 0.94442 0.0
C567 C 0.77518 0.76864 0.90869 0.0
H568 H 0.06185 0.8136 0.27854 0.0
H569 H 0.09796 0.68274 0.27435 0.0
H570 H 0.01918 0.62884 0.20928 0.0
H571 H 0.9413 0.61961 0.14944 0.0
H572 H 0.8981 0.74529 0.16081 0.0
H573 H 0.97728 0.79981 0.22722 0.0
C574 C 0.05188 0.77294 0.26411 0.0
C575 C 0.08619 0.75254 0.28167 0.0
C576 C 0.00512 0.74117 0.22744 0.0
C577 C 0.07252 0.69965 0.26248 0.0
C578 C 0.02736 0.66869 0.22466 0.0
C579 C 0.94922 0.65899 0.16642 0.0
C580 C 0.9143 0.67878 0.14935 0.0
C581 C 0.99376 0.68929 0.20613 0.0
C582 C 0.92452 0.7293 0.17287 0.0
C583 C 0.96984 0.7605 0.21087 0.0
H584 H 0.38372 0.08767 0.59577 0.0
H585 H 0.22762 0.05741 0.65947 0.0
H586 H 0.18165 0.9734 0.59785 0.0
H587 H 0.18609 0.91171 0.51977 0.0
H588 H 0.34362 0.94817 0.45287 0.0
H589 H 0.38858 0.02656 0.52073 0.0
C590 C 0.33969 0.06233 0.59682 0.0
C591 C 0.30901 0.07811 0.63275 0.0
C592 C 0.31371 0.01561 0.55959 0.0
C593 C 0.25195 0.04557 0.6325 0.0
C594 C 0.22574 0.99775 0.59712 0.0
C595 C 0.23017 0.93691 0.52028 0.0
C596 C 0.26127 0.92491 0.48 0.0
C597 C 0.25613 0.98283 0.55944 0.0
C598 C 0.31849 0.95759 0.48163 0.0
C599 C 0.34443 0.00216 0.52106 0.0
H600 H 0.21421 0.38311 0.64808 0.0
H601 H 0.12668 0.46464 0.59325 0.0
H602 H 0.16514 0.47874 0.49075 0.0
H603 H 0.22706 0.4715 0.41731 0.0
H604 H 0.31669 0.39273 0.47331 0.0
H605 H 0.27393 0.37352 0.57401 0.0
C606 C 0.20389 0.40431 0.61383 0.0
C607 C 0.16739 0.42256 0.62833 0.0
C608 C 0.22625 0.41236 0.5548 0.0
C609 C 0.15411 0.44952 0.58311 0.0
C610 C 0.17615 0.4577 0.52443 0.0
C611 C 0.23612 0.44906 0.45123 0.0
C612 C 0.2747 0.43329 0.4381 0.0
C613 C 0.2123 0.43934 0.50966 0.0
C614 C 0.28688 0.40499 0.48258 0.0
C615 C 0.26277 0.3944 0.54027 0.0
H616 H 0.78305 0.2568 0.9792 0.0
H617 H 0.77207 0.10445 0.92801 0.0
H618 H 0.81164 0.14228 0.8282 0.0
H619 H 0.84528 0.21745 0.75341 0.0
H620 H 0.85656 0.36994 0.80454 0.0
H621 H 0.81931 0.33288 0.90533 0.0
C622 C 0.78966 0.23217 0.94611 0.0
C623 C 0.7744 0.17791 0.96028 0.0
C624 C 0.81129 0.2538 0.88835 0.0
C625 C 0.78299 0.14616 0.91739 0.0
C626 C 0.80536 0.16767 0.86036 0.0
C627 C 0.83947 0.2424 0.78679 0.0
C628 C 0.85381 0.29634 0.77203 0.0
C629 C 0.81876 0.2211 0.8449 0.0
C630 C 0.84629 0.32847 0.81541 0.0
C631 C 0.82498 0.30732 0.87295 0.0
H632 H 0.52265 0.77501 0.30563 0.0
H633 H 0.65669 0.74873 0.26746 0.0
H634 H 0.67062 0.79446 0.16877 0.0
H635 H 0.63975 0.83503 0.08949 0.0
H636 H 0.5051 0.8605 0.12738 0.0
H637 H 0.49489 0.81992 0.22861 0.0
C638 C 0.55468 0.77918 0.27527 0.0
C639 C 0.58812 0.75803 0.29267 0.0
C640 C 0.56125 0.80376 0.21786 0.0
C641 C 0.6299 0.76392 0.25389 0.0
C642 C 0.63763 0.78969 0.19746 0.0
C643 C 0.60819 0.83155 0.12012 0.0
C644 C 0.57322 0.85058 0.10151 0.0
C645 C 0.60269 0.80847 0.17827 0.0
C646 C 0.53265 0.84634 0.14128 0.0
C647 C 0.52665 0.82301 0.19897 0.0
H648 H 0.75651 0.53978 0.65481 0.0
H649 H 0.92096 0.65977 0.60488 0.0
H650 H 0.88913 0.67 0.50432 0.0
H651 H 0.81488 0.64179 0.42845 0.0
H652 H 0.65065 0.52158 0.47897 0.0
H653 H 0.6822 0.51418 0.58038 0.0
C654 C 0.78534 0.56819 0.62185 0.0
C655 C 0.84111 0.59848 0.63691 0.0
C656 C 0.76697 0.57308 0.56362 0.0
C657 C 0.87797 0.63518 0.59382 0.0
C658 C 0.85984 0.64092 0.53623 0.0
C659 C 0.78618 0.61363 0.46164 0.0
C660 C 0.73051 0.5824 0.44633 0.0
C661 C 0.80458 0.60939 0.52018 0.0
C662 C 0.69363 0.54649 0.48989 0.0
C663 C 0.71167 0.54194 0.54788 0.0
H664 H 0.23642 0.77259 0.75451 0.0
H665 H 0.0722 0.72136 0.81211 0.0
H666 H 0.10614 0.76234 0.91238 0.0
H667 H 0.18218 0.81279 0.98371 0.0
H668 H 0.34647 0.86457 0.92623 0.0
H669 H 0.31276 0.82476 0.82521 0.0
C670 C 0.20804 0.77091 0.78866 0.0
C671 C 0.1517 0.74332 0.77587 0.0
C672 C 0.22783 0.79495 0.84618 0.0
C673 C 0.11562 0.74122 0.82108 0.0
C674 C 0.135 0.76493 0.87838 0.0
C675 C 0.21063 0.81495 0.94933 0.0
C676 C 0.26685 0.84186 0.96251 0.0
C677 C 0.19096 0.79157 0.89156 0.0
C678 C 0.3031 0.84488 0.91702 0.0
C679 C 0.28383 0.8218 0.85935 0.0
H680 H 0.35009 0.2278 0.26236 0.0
H681 H 0.50488 0.27556 0.34844 0.0
H682 H 0.535 0.25007 0.2561 0.0
H683 H 0.5175 0.21218 0.15326 0.0
H684 H 0.36054 0.15708 0.06839 0.0
H685 H 0.33121 0.1871 0.15829 0.0
C686 C 0.39022 0.23196 0.26086 0.0
C687 C 0.42539 0.25358 0.31178 0.0
C688 C 0.40683 0.21554 0.20836 0.0
C689 C 0.4771 0.25863 0.30987 0.0
C690 C 0.49432 0.24393 0.2573 0.0
C691 C 0.47662 0.20619 0.15437 0.0
C692 C 0.44121 0.18189 0.10417 0.0
C693 C 0.45955 0.2221 0.20655 0.0
C694 C 0.38894 0.17604 0.10604 0.0
C695 C 0.37194 0.19279 0.15764 0.0
H696 H 0.16978 0.48242 0.17265 0.0
H697 H 0.28306 0.6117 0.05479 0.0
H698 H 0.27079 0.67816 0.1119 0.0
H699 H 0.23857 0.70166 0.2011 0.0
H700 H 0.13577 0.57828 0.33149 0.0
H701 H 0.13392 0.50732 0.26455 0.0
C702 C 0.18986 0.52484 0.1583 0.0
C703 C 0.22465 0.54164 0.1069 0.0
C704 C 0.1862 0.56404 0.19504 0.0
C705 C 0.25346 0.59722 0.09138 0.0
C706 C 0.24743 0.63548 0.12502 0.0
C707 C 0.21554 0.65943 0.21569 0.0
C708 C 0.18818 0.64583 0.27222 0.0
C709 C 0.21554 0.61963 0.17794 0.0
C710 C 0.15777 0.59029 0.28867 0.0
C711 C 0.15664 0.54969 0.25026 0.0
H712 H 0.61915 0.19851 0.40143 0.0
H713 H 0.73043 0.19591 0.5339 0.0
H714 H 0.6647 0.17707 0.61517 0.0
H715 H 0.57964 0.1748 0.64981 0.0
H716 H 0.46631 0.16786 0.51217 0.0
H717 H 0.52747 0.17417 0.43164 0.0
C718 C 0.62845 0.19113 0.44688 0.0
C719 C 0.68009 0.19861 0.46059 0.0
C720 C 0.58987 0.17919 0.49322 0.0
C721 C 0.69112 0.1905 0.52154 0.0
C722 C 0.65348 0.17993 0.56836 0.0
C723 C 0.56788 0.17339 0.60223 0.0
C724 C 0.51937 0.17324 0.58736 0.0
C725 C 0.60333 0.17634 0.55509 0.0
C726 C 0.50437 0.17029 0.52528 0.0
C727 C 0.53926 0.17366 0.47885 0.0
H728 H 0.29682 0.54949 0.86901 0.0
H729 H 0.4235 0.54982 0.97991 0.0
H730 H 0.4926 0.61681 0.91104 0.0
H731 H 0.51668 0.68124 0.82324 0.0
H732 H 0.38769 0.68438 0.72133 0.0
H733 H 0.31954 0.60817 0.78128 0.0
C734 C 0.33938 0.56359 0.87857 0.0
C735 C 0.35451 0.54452 0.93042 0.0
C736 C 0.37854 0.60209 0.8392 0.0
C737 C 0.41026 0.56373 0.94094 0.0
C738 C 0.44991 0.60202 0.90127 0.0
C739 C 0.47363 0.6636 0.81288 0.0
C740 C 0.45694 0.6866 0.76621 0.0
C741 C 0.43449 0.622 0.85052 0.0
C742 C 0.40122 0.66577 0.75535 0.0
C743 C 0.36234 0.62288 0.7903 0.0
H744 H 0.74287 0.29782 0.20827 0.0
H745 H 0.867 0.42257 0.32354 0.0
H746 H 0.86913 0.49331 0.25696 0.0
H747 H 0.83025 0.5193 0.16882 0.0
H748 H 0.69819 0.39171 0.06479 0.0
H749 H 0.70627 0.32231 0.12256 0.0
C750 C 0.77095 0.34033 0.21925 0.0
C751 C 0.80489 0.35434 0.27135 0.0
C752 C 0.77122 0.38041 0.18153 0.0
C753 C 0.8403 0.41008 0.28417 0.0
C754 C 0.84168 0.4507 0.24577 0.0
C755 C 0.80475 0.4763 0.1577 0.0
C756 C 0.76526 0.46034 0.1108 0.0
C757 C 0.80694 0.4363 0.19441 0.0
C758 C 0.73012 0.40465 0.09909 0.0
C759 C 0.73421 0.36506 0.13268 0.0
H760 H 0.37014 0.77953 0.40839 0.0
H761 H 0.28037 0.82768 0.52492 0.0
H762 H 0.35011 0.85423 0.60488 0.0
H763 H 0.43234 0.85139 0.64467 0.0
H764 H 0.53209 0.82784 0.51409 0.0
H765 H 0.46558 0.80902 0.43366 0.0
C766 C 0.36816 0.80063 0.4484 0.0
C767 C 0.32138 0.80378 0.45906 0.0
C768 C 0.41042 0.82014 0.49182 0.0
C769 C 0.31679 0.82594 0.51491 0.0
C770 C 0.35669 0.84112 0.5608 0.0
C771 C 0.44062 0.84479 0.59802 0.0
C772 C 0.48565 0.8382 0.58573 0.0
C773 C 0.40327 0.83693 0.55038 0.0
C774 C 0.49633 0.8305 0.52497 0.0
C775 C 0.45838 0.81981 0.47883 0.0
H776 H 0.69459 0.46794 0.87115 0.0
H777 H 0.56956 0.45832 0.9906 0.0
H778 H 0.49943 0.38583 0.92464 0.0
H779 H 0.4756 0.31885 0.83757 0.0
H780 H 0.60644 0.32538 0.73158 0.0
H781 H 0.67255 0.40613 0.7874 0.0
C782 C 0.65218 0.45048 0.88361 0.0
C783 C 0.63782 0.46841 0.93678 0.0
C784 C 0.61301 0.40836 0.84708 0.0
C785 C 0.58206 0.44529 0.95033 0.0
C786 C 0.54203 0.40374 0.91264 0.0
C787 C 0.51842 0.33926 0.82572 0.0
C788 C 0.53602 0.31778 0.77828 0.0
C789 C 0.55715 0.38414 0.86132 0.0
C790 C 0.59183 0.34247 0.7659 0.0
C791 C 0.62971 0.38823 0.7984 0.0
loop_
_geom_bond_atom_site_label_1
_geom_bond_atom_site_label_2
_geom_bond_distance
_geom_bond_site_symmetry_2
_ccdc_geom_bond_type
Gd0 N31 2.661 . S
Gd0 N37 2.601 . S
Gd0 O44 2.545 . S
Gd0 O45 2.606 . S
Gd0 O47 2.429 . S
Gd0 O48 2.545 . S
Gd0 O49 2.412 . S
Gd0 O51 2.362 1_554 S
Gd0 O52 2.324 . S
Gd0 C59 2.828 . S
Gd1 N10 2.661 . S
Gd1 N14 2.601 . S
Gd1 O45 2.362 1_556 S
Gd1 O46 2.324 . S
Gd1 O50 2.545 . S
Gd1 O51 2.606 . S
Gd1 O53 2.429 1_556 S
Gd1 O54 2.545 . S
Gd1 O55 2.412 . S
Gd1 C68 2.828 . S
C2 C5 1.417 . S
C2 C7 1.431 . S
C2 C8 1.412 . S
C3 C6 1.437 . S
C3 C7 1.317 . S
C3 H22 0.929 1_455 S
C4 C5 1.426 . S
C4 C6 1.413 . S
C4 N14 1.359 . S
C5 C2 1.417 . S
C5 C4 1.426 . S
C5 N10 1.350 . S
C6 C3 1.437 . S
C6 C4 1.413 . S
C6 C16 1.391 1_455 S
C7 C2 1.431 . S
C7 C3 1.317 . S
C7 H18 0.930 . S
C8 C2 1.412 . S
C8 C9 1.355 . S
C8 H20 0.930 . S
C9 C8 1.355 . S
C9 C11 1.402 . S
C9 H21 0.930 . S
N10 Gd1 2.661 . S
N10 C5 1.350 . S
N10 C11 1.307 . S
C11 C9 1.402 . S
C11 N10 1.307 . S
C11 H12 0.930 . S
H12 C11 0.930 . S
C13 N14 1.334 . S
C13 C15 1.394 1_455 S
C13 H17 0.930 . S
N14 Gd1 2.601 . S
N14 C4 1.359 . S
N14 C13 1.334 . S
C15 C13 1.394 1_655 S
C15 C16 1.359 . S
C15 H27 0.930 . S
C16 C6 1.391 1_655 S
C16 C15 1.359 . S
C16 H28 0.929 . S
H17 C13 0.930 . S
H18 C7 0.930 . S
H19 C36 0.930 . S
H20 C8 0.930 . S
H21 C9 0.930 . S
H22 C3 0.929 1_655 S
H23 C41 0.930 . S
H24 C32 0.930 . S
H25 C33 0.930 . S
H26 C57 0.929 . S
H27 C15 0.930 . S
H28 C16 0.929 . S
H29 C58 0.930 . S
H30 C39 0.930 . S
N31 Gd0 2.661 . S
N31 C35 1.350 . S
N31 C36 1.307 . S
C32 H24 0.930 . S
C32 C33 1.355 . S
C32 C34 1.412 . S
C33 H25 0.930 . S
C33 C32 1.355 . S
C33 C36 1.402 . S
C34 C32 1.412 . S
C34 C35 1.417 . S
C34 C58 1.431 . S
C35 N31 1.350 . S
C35 C34 1.417 . S
C35 C38 1.426 . S
C36 H19 0.930 . S
C36 N31 1.307 . S
C36 C33 1.402 . S
N37 Gd0 2.601 . S
N37 C38 1.359 . S
N37 C41 1.334 . S
C38 C35 1.426 . S
C38 N37 1.359 . S
C38 C42 1.413 . S
C39 H30 0.930 . S
C39 C40 1.359 . S
C39 C41 1.394 . S
C40 C39 1.359 . S
C40 C42 1.391 . S
C40 H43 0.929 . S
C41 H23 0.930 . S
C41 N37 1.334 . S
C41 C39 1.394 . S
C42 C38 1.413 . S
C42 C40 1.391 . S
C42 C57 1.437 . S
H43 C40 0.929 . S
O44 Gd0 2.545 . S
O44 C59 1.258 . S
O45 Gd0 2.606 . S
O45 Gd1 2.362 1_554 S
O45 C56 1.284 . S
O46 Gd1 2.324 . S
O46 C66 1.254 . S
O47 Gd0 2.429 . S
O47 C66 1.268 1_554 S
O48 Gd0 2.545 . S
O48 C56 1.250 . S
O49 Gd0 2.412 . S
O49 C59 1.252 . S
O50 Gd1 2.545 . S
O50 C68 1.258 . S
O51 Gd0 2.362 1_556 S
O51 Gd1 2.606 . S
O51 C67 1.284 . S
O52 Gd0 2.324 . S
O52 C75 1.254 . S
O53 Gd1 2.429 1_554 S
O53 C75 1.268 . S
O54 Gd1 2.545 . S
O54 C67 1.250 . S
O55 Gd1 2.412 . S
O55 C68 1.252 . S
C56 O45 1.284 . S
C56 O48 1.250 . S
C57 H26 0.929 . S
C57 C42 1.437 . S
C57 C58 1.317 . S
C58 H29 0.930 . S
C58 C34 1.431 . S
C58 C57 1.317 . S
C59 Gd0 2.828 . S
C59 O44 1.258 . S
C59 O49 1.252 . S
C59 C60 1.497 . S
C60 C59 1.497 . S
C60 C61 1.395 . S
C60 C62 1.380 . S
C61 C60 1.395 . S
C61 C64 1.398 . S
C61 H76 0.930 . S
C62 C60 1.380 . S
C62 C63 1.391 . S
C62 H77 0.930 . S
C63 C62 1.391 . S
C63 C65 1.387 . S
C64 C61 1.398 . S
C64 C65 1.380 . S
C64 H78 0.930 . S
C65 C63 1.387 . S
C65 C64 1.380 . S
C65 H79 0.930 . S
C66 O46 1.254 . S
C66 O47 1.268 1_556 S
C67 O51 1.284 . S
C67 O54 1.250 . S
C68 Gd1 2.828 . S
C68 O50 1.258 . S
C68 O55 1.252 . S
C68 C69 1.497 . S
C69 C68 1.497 . S
C69 C70 1.395 . S
C69 C71 1.380 . S
C70 C69 1.395 . S
C70 C73 1.398 . S
C70 H80 0.930 . S
C71 C69 1.380 . S
C71 C72 1.391 . S
C71 H81 0.930 . S
C72 C71 1.391 . S
C72 C74 1.387 . S
C73 C70 1.398 . S
C73 C74 1.380 . S
C73 H82 0.930 . S
C74 C72 1.387 . S
C74 C73 1.380 . S
C74 H83 0.930 . S
C75 O52 1.254 . S
C75 O53 1.268 . S
H76 C61 0.930 . S
H77 C62 0.930 . S
H78 C64 0.930 . S
H79 C65 0.930 . S
H80 C70 0.930 . S
H81 C71 0.930 . S
H82 C73 0.930 . S
H83 C74 0.930 . S
Gd84 N115 2.661 . S
Gd84 N121 2.601 . S
Gd84 O128 2.545 . S
Gd84 O129 2.606 . S
Gd84 O131 2.429 . S
Gd84 O132 2.545 . S
Gd84 O133 2.412 . S
Gd84 O135 2.362 . S
Gd84 O136 2.324 . S
Gd84 C143 2.828 . S
Gd85 N94 2.661 . S
Gd85 N98 2.601 . S
Gd85 O129 2.362 . S
Gd85 O130 2.324 . S
Gd85 O134 2.545 . S
Gd85 O135 2.606 . S
Gd85 O137 2.429 . S
Gd85 O138 2.545 . S
Gd85 O139 2.412 . S
Gd85 C152 2.828 . S
C86 C89 1.417 . S
C86 C91 1.431 . S
C86 C92 1.412 . S
C87 C90 1.437 . S
C87 C91 1.317 . S
C87 H106 0.929 1_545 S
C88 C89 1.426 . S
C88 C90 1.413 . S
C88 N98 1.359 . S
C89 C86 1.417 . S
C89 C88 1.426 . S
C89 N94 1.350 . S
C90 C87 1.437 . S
C90 C88 1.413 . S
C90 C100 1.391 1_545 S
C91 C86 1.431 . S
C91 C87 1.317 . S
C91 H102 0.930 . S
C92 C86 1.412 . S
C92 C93 1.355 . S
C92 H104 0.930 . S
C93 C92 1.355 . S
C93 C95 1.402 . S
C93 H105 0.930 . S
N94 Gd85 2.661 . S
N94 C89 1.350 . S
N94 C95 1.307 . S
C95 C93 1.402 . S
C95 N94 1.307 . S
C95 H96 0.930 . S
H96 C95 0.930 . S
C97 N98 1.334 . S
C97 C99 1.394 1_545 S
C97 H101 0.930 . S
N98 Gd85 2.601 . S
N98 C88 1.359 . S
N98 C97 1.334 . S
C99 C97 1.394 1_565 S
C99 C100 1.359 . S
C99 H111 0.930 . S
C100 C90 1.391 1_565 S
C100 C99 1.359 . S
C100 H112 0.929 . S
H101 C97 0.930 . S
H102 C91 0.930 . S
H103 C120 0.930 . S
H104 C92 0.930 . S
H105 C93 0.930 . S
H106 C87 0.929 1_565 S
H107 C125 0.930 . S
H108 C116 0.930 . S
H109 C117 0.930 . S
H110 C141 0.929 . S
H111 C99 0.930 . S
H112 C100 0.929 . S
H113 C142 0.930 . S
H114 C123 0.930 . S
N115 Gd84 2.661 . S
N115 C119 1.350 . S
N115 C120 1.307 . S
C116 H108 0.930 . S
C116 C117 1.355 1_455 S
C116 C118 1.412 . S
C117 H109 0.930 . S
C117 C116 1.355 1_655 S
C117 C120 1.402 . S
C118 C116 1.412 . S
C118 C119 1.417 1_455 S
C118 C142 1.431 . S
C119 N115 1.350 . S
C119 C118 1.417 1_655 S
C119 C122 1.426 . S
C120 H103 0.930 . S
C120 N115 1.307 . S
C120 C117 1.402 . S
N121 Gd84 2.601 . S
N121 C122 1.359 . S
N121 C125 1.334 . S
C122 C119 1.426 . S
C122 N121 1.359 . S
C122 C126 1.413 1_655 S
C123 H114 0.930 . S
C123 C124 1.359 1_655 S
C123 C125 1.394 . S
C124 C123 1.359 1_455 S
C124 C126 1.391 . S
C124 H127 0.929 . S
C125 H107 0.930 . S
C125 N121 1.334 . S
C125 C123 1.394 . S
C126 C122 1.413 1_455 S
C126 C124 1.391 . S
C126 C141 1.437 . S
H127 C124 0.929 . S
O128 Gd84 2.545 . S
O128 C143 1.258 . S
O129 Gd84 2.606 . S
O129 Gd85 2.362 . S
O129 C140 1.284 . S
O130 Gd85 2.324 . S
O130 C150 1.254 . S
O131 Gd84 2.429 . S
O131 C150 1.268 . S
O132 Gd84 2.545 . S
O132 C140 1.250 . S
O133 Gd84 2.412 . S
O133 C143 1.252 . S
O134 Gd85 2.545 . S
O134 C152 1.258 . S
O135 Gd84 2.362 . S
O135 Gd85 2.606 . S
O135 C151 1.284 . S
O136 Gd84 2.324 . S
O136 C159 1.254 . S
O137 Gd85 2.429 . S
O137 C159 1.268 . S
O138 Gd85 2.545 . S
O138 C151 1.250 . S
O139 Gd85 2.412 . S
O139 C152 1.252 . S
C140 O129 1.284 . S
C140 O132 1.250 . S
C141 H110 0.929 . S
C141 C126 1.437 . S
C141 C142 1.317 . S
C142 H113 0.930 . S
C142 C118 1.431 . S
C142 C141 1.317 . S
C143 Gd84 2.828 . S
C143 O128 1.258 . S
C143 O133 1.252 . S
C143 C144 1.497 . S
C144 C143 1.497 . S
C144 C145 1.395 . S
C144 C146 1.380 . S
C145 C144 1.395 . S
C145 C148 1.398 . S
C145 H160 0.930 . S
C146 C144 1.380 . S
C146 C147 1.391 . S
C146 H161 0.930 . S
C147 C146 1.391 . S
C147 C149 1.387 . S
C148 C145 1.398 . S
C148 C149 1.380 . S
C148 H162 0.930 . S
C149 C147 1.387 . S
C149 C148 1.380 . S
C149 H163 0.930 . S
C150 O130 1.254 . S
C150 O131 1.268 . S
C151 O135 1.284 . S
C151 O138 1.250 . S
C152 Gd85 2.828 . S
C152 O134 1.258 . S
C152 O139 1.252 . S
C152 C153 1.497 . S
C153 C152 1.497 . S
C153 C154 1.395 . S
C153 C155 1.380 . S
C154 C153 1.395 . S
C154 C157 1.398 . S
C154 H164 0.930 . S
C155 C153 1.380 . S
C155 C156 1.391 1_554 S
C155 H165 0.930 . S
C156 C155 1.391 1_556 S
C156 C158 1.387 . S
C157 C154 1.398 . S
C157 C158 1.380 1_554 S
C157 H166 0.930 . S
C158 C156 1.387 . S
C158 C157 1.380 1_556 S
C158 H167 0.930 . S
C159 O136 1.254 . S
C159 O137 1.268 . S
H160 C145 0.930 . S
H161 C146 0.930 . S
H162 C148 0.930 . S
H163 C149 0.930 . S
H164 C154 0.930 . S
H165 C155 0.930 . S
H166 C157 0.930 . S
H167 C158 0.930 . S
Gd168 N199 2.661 . S
Gd168 N205 2.601 . S
Gd168 O212 2.545 . S
Gd168 O213 2.606 . S
Gd168 O215 2.429 . S
Gd168 O216 2.545 . S
Gd168 O217 2.412 . S
Gd168 O219 2.362 . S
Gd168 O220 2.324 . S
Gd168 C227 2.828 . S
Gd169 N178 2.661 . S
Gd169 N182 2.601 . S
Gd169 O213 2.362 . S
Gd169 O214 2.324 . S
Gd169 O218 2.545 . S
Gd169 O219 2.606 . S
Gd169 O221 2.429 . S
Gd169 O222 2.545 . S
Gd169 O223 2.412 . S
Gd169 C236 2.828 . S
C170 C173 1.417 . S
C170 C175 1.431 . S
C170 C176 1.412 . S
C171 C174 1.437 . S
C171 C175 1.317 . S
C171 H190 0.929 . S
C172 C173 1.426 . S
C172 C174 1.413 . S
C172 N182 1.359 . S
C173 C170 1.417 . S
C173 C172 1.426 . S
C173 N178 1.350 . S
C174 C171 1.437 . S
C174 C172 1.413 . S
C174 C184 1.391 . S
C175 C170 1.431 . S
C175 C171 1.317 . S
C175 H186 0.930 . S
C176 C170 1.412 . S
C176 C177 1.355 . S
C176 H188 0.930 . S
C177 C176 1.355 . S
C177 C179 1.402 . S
C177 H189 0.930 . S
N178 Gd169 2.661 . S
N178 C173 1.350 . S
N178 C179 1.307 . S
C179 C177 1.402 . S
C179 N178 1.307 . S
C179 H180 0.930 . S
H180 C179 0.930 . S
C181 N182 1.334 . S
C181 C183 1.394 . S
C181 H185 0.930 . S
N182 Gd169 2.601 . S
N182 C172 1.359 . S
N182 C181 1.334 . S
C183 C181 1.394 . S
C183 C184 1.359 . S
C183 H195 0.930 . S
C184 C174 1.391 . S
C184 C183 1.359 . S
C184 H196 0.929 . S
H185 C181 0.930 . S
H186 C175 0.930 . S
H187 C204 0.930 . S
H188 C176 0.930 . S
H189 C177 0.930 . S
H190 C171 0.929 . S
H191 C209 0.930 . S
H192 C200 0.930 . S
H193 C201 0.930 . S
H194 C225 0.929 . S
H195 C183 0.930 . S
H196 C184 0.929 . S
H197 C226 0.930 . S
H198 C207 0.930 . S
N199 Gd168 2.661 . S
N199 C203 1.350 . S
N199 C204 1.307 . S
C200 H192 0.930 . S
C200 C201 1.355 1_545 S
C200 C202 1.412 . S
C201 H193 0.930 . S
C201 C200 1.355 1_565 S
C201 C204 1.402 . S
C202 C200 1.412 . S
C202 C203 1.417 1_545 S
C202 C226 1.431 . S
C203 N199 1.350 . S
C203 C202 1.417 1_565 S
C203 C206 1.426 . S
C204 H187 0.930 . S
C204 N199 1.307 . S
C204 C201 1.402 . S
N205 Gd168 2.601 . S
N205 C206 1.359 . S
N205 C209 1.334 . S
C206 C203 1.426 . S
C206 N205 1.359 . S
C206 C210 1.413 1_565 S
C207 H198 0.930 . S
C207 C208 1.359 1_565 S
C207 C209 1.394 . S
C208 C207 1.359 1_545 S
C208 C210 1.391 . S
C208 H211 0.929 . S
C209 H191 0.930 . S
C209 N205 1.334 . S
C209 C207 1.394 . S
C210 C206 1.413 1_545 S
C210 C208 1.391 . S
C210 C225 1.437 . S
H211 C208 0.929 . S
O212 Gd168 2.545 . S
O212 C227 1.258 . S
O213 Gd168 2.606 . S
O213 Gd169 2.362 . S
O213 C224 1.284 . S
O214 Gd169 2.324 . S
O214 C234 1.254 . S
O215 Gd168 2.429 . S
O215 C234 1.268 . S
O216 Gd168 2.545 . S
O216 C224 1.250 . S
O217 Gd168 2.412 . S
O217 C227 1.252 . S
O218 Gd169 2.545 . S
O218 C236 1.258 . S
O219 Gd168 2.362 . S
O219 Gd169 2.606 . S
O219 C235 1.284 . S
O220 Gd168 2.324 . S
O220 C243 1.254 . S
O221 Gd169 2.429 . S
O221 C243 1.268 . S
O222 Gd169 2.545 . S
O222 C235 1.250 . S
O223 Gd169 2.412 . S
O223 C236 1.252 . S
C224 O213 1.284 . S
C224 O216 1.250 . S
C225 H194 0.929 . S
C225 C210 1.437 . S
C225 C226 1.317 . S
C226 H197 0.930 . S
C226 C202 1.431 . S
C226 C225 1.317 . S
C227 Gd168 2.828 . S
C227 O212 1.258 . S
C227 O217 1.252 . S
C227 C228 1.497 . S
C228 C227 1.497 . S
C228 C229 1.395 . S
C228 C230 1.380 . S
C229 C228 1.395 . S
C229 C232 1.398 1_556 S
C229 H244 0.930 . S
C230 C228 1.380 . S
C230 C231 1.391 1_556 S
C230 H245 0.930 . S
C231 C230 1.391 1_554 S
C231 C233 1.387 . S
C232 C229 1.398 1_554 S
C232 C233 1.380 . S
C232 H246 0.930 . S
C233 C231 1.387 . S
C233 C232 1.380 . S
C233 H247 0.930 . S
C234 O214 1.254 . S
C234 O215 1.268 . S
C235 O219 1.284 . S
C235 O222 1.250 . S
C236 Gd169 2.828 . S
C236 O218 1.258 . S
C236 O223 1.252 . S
C236 C237 1.497 . S
C237 C236 1.497 . S
C237 C238 1.395 . S
C237 C239 1.380 . S
C238 C237 1.395 . S
C238 C241 1.398 . S
C238 H248 0.930 . S
C239 C237 1.380 . S
C239 C240 1.391 . S
C239 H249 0.930 . S
C240 C239 1.391 . S
C240 C242 1.387 . S
C241 C238 1.398 . S
C241 C242 1.380 . S
C241 H250 0.930 . S
C242 C240 1.387 . S
C242 C241 1.380 . S
C242 H251 0.930 . S
C243 O220 1.254 . S
C243 O221 1.268 . S
H244 C229 0.930 . S
H245 C230 0.930 . S
H246 C232 0.930 . S
H247 C233 0.930 . S
H248 C238 0.930 . S
H249 C239 0.930 . S
H250 C241 0.930 . S
H251 C242 0.930 . S
Gd252 N283 2.661 . S
Gd252 N289 2.601 . S
Gd252 O296 2.545 . S
Gd252 O297 2.606 . S
Gd252 O299 2.429 . S
Gd252 O300 2.545 . S
Gd252 O301 2.412 . S
Gd252 O303 2.362 1_554 S
Gd252 O304 2.324 . S
Gd252 C311 2.828 . S
Gd253 N262 2.661 . S
Gd253 N266 2.601 . S
Gd253 O297 2.362 1_556 S
Gd253 O298 2.324 . S
Gd253 O302 2.545 . S
Gd253 O303 2.606 . S
Gd253 O305 2.429 1_556 S
Gd253 O306 2.545 . S
Gd253 O307 2.412 . S
Gd253 C320 2.828 . S
C254 C257 1.417 . S
C254 C259 1.431 . S
C254 C260 1.412 . S
C255 C258 1.437 . S
C255 C259 1.317 . S
C255 H274 0.929 1_655 S
C256 C257 1.426 . S
C256 C258 1.413 . S
C256 N266 1.359 . S
C257 C254 1.417 . S
C257 C256 1.426 . S
C257 N262 1.350 . S
C258 C255 1.437 . S
C258 C256 1.413 . S
C258 C268 1.391 1_655 S
C259 C254 1.431 . S
C259 C255 1.317 . S
C259 H270 0.930 . S
C260 C254 1.412 . S
C260 C261 1.355 . S
C260 H272 0.930 . S
C261 C260 1.355 . S
C261 C263 1.402 . S
C261 H273 0.930 . S
N262 Gd253 2.661 . S
N262 C257 1.350 . S
N262 C263 1.307 . S
C263 C261 1.402 . S
C263 N262 1.307 . S
C263 H264 0.930 . S
H264 C263 0.930 . S
C265 N266 1.334 . S
C265 C267 1.394 1_655 S
C265 H269 0.930 . S
N266 Gd253 2.601 . S
N266 C256 1.359 . S
N266 C265 1.334 . S
C267 C265 1.394 1_455 S
C267 C268 1.359 . S
C267 H279 0.930 . S
C268 C258 1.391 1_455 S
C268 C267 1.359 . S
C268 H280 0.929 . S
H269 C265 0.930 . S
H270 C259 0.930 . S
H271 C288 0.930 . S
H272 C260 0.930 . S
H273 C261 0.930 . S
H274 C255 0.929 1_455 S
H275 C293 0.930 . S
H276 C284 0.930 . S
H277 C285 0.930 . S
H278 C309 0.929 . S
H279 C267 0.930 . S
H280 C268 0.929 . S
H281 C310 0.930 . S
H282 C291 0.930 . S
N283 Gd252 2.661 . S
N283 C287 1.350 . S
N283 C288 1.307 . S
C284 H276 0.930 . S
C284 C285 1.355 . S
C284 C286 1.412 . S
C285 H277 0.930 . S
C285 C284 1.355 . S
C285 C288 1.402 . S
C286 C284 1.412 . S
C286 C287 1.417 . S
C286 C310 1.431 . S
C287 N283 1.350 . S
C287 C286 1.417 . S
C287 C290 1.426 . S
C288 H271 0.930 . S
C288 N283 1.307 . S
C288 C285 1.402 . S
N289 Gd252 2.601 . S
N289 C290 1.359 . S
N289 C293 1.334 . S
C290 C287 1.426 . S
C290 N289 1.359 . S
C290 C294 1.413 . S
C291 H282 0.930 . S
C291 C292 1.359 . S
C291 C293 1.394 . S
C292 C291 1.359 . S
C292 C294 1.391 . S
C292 H295 0.929 . S
C293 H275 0.930 . S
C293 N289 1.334 . S
C293 C291 1.394 . S
C294 C290 1.413 . S
C294 C292 1.391 . S
C294 C309 1.437 . S
H295 C292 0.929 . S
O296 Gd252 2.545 . S
O296 C311 1.258 . S
O297 Gd252 2.606 . S
O297 Gd253 2.362 1_554 S
O297 C308 1.284 . S
O298 Gd253 2.324 . S
O298 C318 1.254 . S
O299 Gd252 2.429 . S
O299 C318 1.268 1_554 S
O300 Gd252 2.545 . S
O300 C308 1.250 . S
O301 Gd252 2.412 . S
O301 C311 1.252 . S
O302 Gd253 2.545 . S
O302 C320 1.258 . S
O303 Gd252 2.362 1_556 S
O303 Gd253 2.606 . S
O303 C319 1.284 . S
O304 Gd252 2.324 . S
O304 C327 1.254 . S
O305 Gd253 2.429 1_554 S
O305 C327 1.268 . S
O306 Gd253 2.545 . S
O306 C319 1.250 . S
O307 Gd253 2.412 . S
O307 C320 1.252 . S
C308 O297 1.284 . S
C308 O300 1.250 . S
C309 H278 0.929 . S
C309 C294 1.437 . S
C309 C310 1.317 . S
C310 H281 0.930 . S
C310 C286 1.431 . S
C310 C309 1.317 . S
C311 Gd252 2.828 . S
C311 O296 1.258 . S
C311 O301 1.252 . S
C311 C312 1.497 . S
C312 C311 1.497 . S
C312 C313 1.395 . S
C312 C314 1.380 . S
C313 C312 1.395 . S
C313 C316 1.398 . S
C313 H328 0.930 . S
C314 C312 1.380 . S
C314 C315 1.391 . S
C314 H329 0.930 . S
C315 C314 1.391 . S
C315 C317 1.387 . S
C316 C313 1.398 . S
C316 C317 1.380 . S
C316 H330 0.930 . S
C317 C315 1.387 . S
C317 C316 1.380 . S
C317 H331 0.930 . S
C318 O298 1.254 . S
C318 O299 1.268 1_556 S
C319 O303 1.284 . S
C319 O306 1.250 . S
C320 Gd253 2.828 . S
C320 O302 1.258 . S
C320 O307 1.252 . S
C320 C321 1.497 . S
C321 C320 1.497 . S
C321 C322 1.395 . S
C321 C323 1.380 . S
C322 C321 1.395 . S
C322 C325 1.398 . S
C322 H332 0.930 . S
C323 C321 1.380 . S
C323 C324 1.391 . S
C323 H333 0.930 . S
C324 C323 1.391 . S
C324 C326 1.387 . S
C325 C322 1.398 . S
C325 C326 1.380 . S
C325 H334 0.930 . S
C326 C324 1.387 . S
C326 C325 1.380 . S
C326 H335 0.930 . S
C327 O304 1.254 . S
C327 O305 1.268 . S
H328 C313 0.930 . S
H329 C314 0.930 . S
H330 C316 0.930 . S
H331 C317 0.930 . S
H332 C322 0.930 . S
H333 C323 0.930 . S
H334 C325 0.930 . S
H335 C326 0.930 . S
Gd336 N367 2.661 . S
Gd336 N373 2.601 . S
Gd336 O380 2.545 . S
Gd336 O381 2.606 . S
Gd336 O383 2.429 . S
Gd336 O384 2.545 . S
Gd336 O385 2.412 . S
Gd336 O387 2.362 . S
Gd336 O388 2.324 . S
Gd336 C395 2.828 . S
Gd337 N346 2.661 . S
Gd337 N350 2.601 . S
Gd337 O381 2.362 . S
Gd337 O382 2.324 . S
Gd337 O386 2.545 . S
Gd337 O387 2.606 . S
Gd337 O389 2.429 . S
Gd337 O390 2.545 . S
Gd337 O391 2.412 . S
Gd337 C404 2.828 . S
C338 C341 1.417 . S
C338 C343 1.431 . S
C338 C344 1.412 . S
C339 C342 1.437 . S
C339 C343 1.317 . S
C339 H358 0.929 1_565 S
C340 C341 1.426 . S
C340 C342 1.413 . S
C340 N350 1.359 . S
C341 C338 1.417 . S
C341 C340 1.426 . S
C341 N346 1.350 . S
C342 C339 1.437 . S
C342 C340 1.413 . S
C342 C352 1.391 1_565 S
C343 C338 1.431 . S
C343 C339 1.317 . S
C343 H354 0.930 . S
C344 C338 1.412 . S
C344 C345 1.355 . S
C344 H356 0.930 . S
C345 C344 1.355 . S
C345 C347 1.402 . S
C345 H357 0.930 . S
N346 Gd337 2.661 . S
N346 C341 1.350 . S
N346 C347 1.307 . S
C347 C345 1.402 . S
C347 N346 1.307 . S
C347 H348 0.930 . S
H348 C347 0.930 . S
C349 N350 1.334 . S
C349 C351 1.394 1_565 S
C349 H353 0.930 . S
N350 Gd337 2.601 . S
N350 C340 1.359 . S
N350 C349 1.334 . S
C351 C349 1.394 1_545 S
C351 C352 1.359 . S
C351 H363 0.930 . S
C352 C342 1.391 1_545 S
C352 C351 1.359 . S
C352 H364 0.929 . S
H353 C349 0.930 . S
H354 C343 0.930 . S
H355 C372 0.930 . S
H356 C344 0.930 . S
H357 C345 0.930 . S
H358 C339 0.929 1_545 S
H359 C377 0.930 . S
H360 C368 0.930 . S
H361 C369 0.930 . S
H362 C393 0.929 . S
H363 C351 0.930 . S
H364 C352 0.929 . S
H365 C394 0.930 . S
H366 C375 0.930 . S
N367 Gd336 2.661 . S
N367 C371 1.350 . S
N367 C372 1.307 . S
C368 H360 0.930 . S
C368 C369 1.355 1_655 S
C368 C370 1.412 . S
C369 H361 0.930 . S
C369 C368 1.355 1_455 S
C369 C372 1.402 . S
C370 C368 1.412 . S
C370 C371 1.417 1_655 S
C370 C394 1.431 . S
C371 N367 1.350 . S
C371 C370 1.417 1_455 S
C371 C374 1.426 . S
C372 H355 0.930 . S
C372 N367 1.307 . S
C372 C369 1.402 . S
N373 Gd336 2.601 . S
N373 C374 1.359 . S
N373 C377 1.334 . S
C374 C371 1.426 . S
C374 N373 1.359 . S
C374 C378 1.413 1_455 S
C375 H366 0.930 . S
C375 C376 1.359 1_455 S
C375 C377 1.394 . S
C376 C375 1.359 1_655 S
C376 C378 1.391 . S
C376 H379 0.929 . S
C377 H359 0.930 . S
C377 N373 1.334 . S
C377 C375 1.394 . S
C378 C374 1.413 1_655 S
C378 C376 1.391 . S
C378 C393 1.437 . S
H379 C376 0.929 . S
O380 Gd336 2.545 . S
O380 C395 1.258 . S
O381 Gd336 2.606 . S
O381 Gd337 2.362 . S
O381 C392 1.284 . S
O382 Gd337 2.324 . S
O382 C402 1.254 . S
O383 Gd336 2.429 . S
O383 C402 1.268 . S
O384 Gd336 2.545 . S
O384 C392 1.250 . S
O385 Gd336 2.412 . S
O385 C395 1.252 . S
O386 Gd337 2.545 . S
O386 C404 1.258 . S
O387 Gd336 2.362 . S
O387 Gd337 2.606 . S
O387 C403 1.284 . S
O388 Gd336 2.324 . S
O388 C411 1.254 . S
O389 Gd337 2.429 . S
O389 C411 1.268 . S
O390 Gd337 2.545 . S
O390 C403 1.250 . S
O391 Gd337 2.412 . S
O391 C404 1.252 . S
C392 O381 1.284 . S
C392 O384 1.250 . S
C393 H362 0.929 . S
C393 C378 1.437 . S
C393 C394 1.317 . S
C394 H365 0.930 . S
C394 C370 1.431 . S
C394 C393 1.317 . S
C395 Gd336 2.828 . S
C395 O380 1.258 . S
C395 O385 1.252 . S
C395 C396 1.497 . S
C396 C395 1.497 . S
C396 C397 1.395 . S
C396 C398 1.380 . S
C397 C396 1.395 . S
C397 C400 1.398 . S
C397 H412 0.930 . S
C398 C396 1.380 . S
C398 C399 1.391 . S
C398 H413 0.930 . S
C399 C398 1.391 . S
C399 C401 1.387 . S
C400 C397 1.398 . S
C400 C401 1.380 . S
C400 H414 0.930 . S
C401 C399 1.387 . S
C401 C400 1.380 . S
C401 H415 0.930 . S
C402 O382 1.254 . S
C402 O383 1.268 . S
C403 O387 1.284 . S
C403 O390 1.250 . S
C404 Gd337 2.828 . S
C404 O386 1.258 . S
C404 O391 1.252 . S
C404 C405 1.497 . S
C405 C404 1.497 . S
C405 C406 1.395 . S
C405 C407 1.380 . S
C406 C405 1.395 . S
C406 C409 1.398 . S
C406 H416 0.930 . S
C407 C405 1.380 . S
C407 C408 1.391 1_554 S
C407 H417 0.930 . S
C408 C407 1.391 1_556 S
C408 C410 1.387 . S
C409 C406 1.398 . S
C409 C410 1.380 1_554 S
C409 H418 0.930 . S
C410 C408 1.387 . S
C410 C409 1.380 1_556 S
C410 H419 0.930 . S
C411 O388 1.254 . S
C411 O389 1.268 . S
H412 C397 0.930 . S
H413 C398 0.930 . S
H414 C400 0.930 . S
H415 C401 0.930 . S
H416 C406 0.930 . S
H417 C407 0.930 . S
H418 C409 0.930 . S
H419 C410 0.930 . S
Gd420 N451 2.661 . S
Gd420 N457 2.601 . S
Gd420 O464 2.545 . S
Gd420 O465 2.606 . S
Gd420 O467 2.429 . S
Gd420 O468 2.545 . S
Gd420 O469 2.412 . S
Gd420 O471 2.362 . S
Gd420 O472 2.324 . S
Gd420 C479 2.828 . S
Gd421 N430 2.661 . S
Gd421 N434 2.601 . S
Gd421 O465 2.362 . S
Gd421 O466 2.324 . S
Gd421 O470 2.545 . S
Gd421 O471 2.606 . S
Gd421 O473 2.429 . S
Gd421 O474 2.545 . S
Gd421 O475 2.412 . S
Gd421 C488 2.828 . S
C422 C425 1.417 . S
C422 C427 1.431 . S
C422 C428 1.412 . S
C423 C426 1.437 . S
C423 C427 1.317 . S
C423 H442 0.929 . S
C424 C425 1.426 . S
C424 C426 1.413 . S
C424 N434 1.359 . S
C425 C422 1.417 . S
C425 C424 1.426 . S
C425 N430 1.350 . S
C426 C423 1.437 . S
C426 C424 1.413 . S
C426 C436 1.391 . S
C427 C422 1.431 . S
C427 C423 1.317 . S
C427 H438 0.930 . S
C428 C422 1.412 . S
C428 C429 1.355 . S
C428 H440 0.930 . S
C429 C428 1.355 . S
C429 C431 1.402 . S
C429 H441 0.930 . S
N430 Gd421 2.661 . S
N430 C425 1.350 . S
N430 C431 1.307 . S
C431 C429 1.402 . S
C431 N430 1.307 . S
C431 H432 0.930 . S
H432 C431 0.930 . S
C433 N434 1.334 . S
C433 C435 1.394 . S
C433 H437 0.930 . S
N434 Gd421 2.601 . S
N434 C424 1.359 . S
N434 C433 1.334 . S
C435 C433 1.394 . S
C435 C436 1.359 . S
C435 H447 0.930 . S
C436 C426 1.391 . S
C436 C435 1.359 . S
C436 H448 0.929 . S
H437 C433 0.930 . S
H438 C427 0.930 . S
H439 C456 0.930 . S
H440 C428 0.930 . S
H441 C429 0.930 . S
H442 C423 0.929 . S
H443 C461 0.930 . S
H444 C452 0.930 . S
H445 C453 0.930 . S
H446 C477 0.929 . S
H447 C435 0.930 . S
H448 C436 0.929 . S
H449 C478 0.930 . S
H450 C459 0.930 . S
N451 Gd420 2.661 . S
N451 C455 1.350 . S
N451 C456 1.307 . S
C452 H444 0.930 . S
C452 C453 1.355 1_565 S
C452 C454 1.412 . S
C453 H445 0.930 . S
C453 C452 1.355 1_545 S
C453 C456 1.402 . S
C454 C452 1.412 . S
C454 C455 1.417 1_565 S
C454 C478 1.431 . S
C455 N451 1.350 . S
C455 C454 1.417 1_545 S
C455 C458 1.426 . S
C456 H439 0.930 . S
C456 N451 1.307 . S
C456 C453 1.402 . S
N457 Gd420 2.601 . S
N457 C458 1.359 . S
N457 C461 1.334 . S
C458 C455 1.426 . S
C458 N457 1.359 . S
C458 C462 1.413 1_545 S
C459 H450 0.930 . S
C459 C460 1.359 1_545 S
C459 C461 1.394 . S
C460 C459 1.359 1_565 S
C460 C462 1.391 . S
C460 H463 0.929 . S
C461 H443 0.930 . S
C461 N457 1.334 . S
C461 C459 1.394 . S
C462 C458 1.413 1_565 S
C462 C460 1.391 . S
C462 C477 1.437 . S
H463 C460 0.929 . S
O464 Gd420 2.545 . S
O464 C479 1.258 . S
O465 Gd420 2.606 . S
O465 Gd421 2.362 . S
O465 C476 1.284 . S
O466 Gd421 2.324 . S
O466 C486 1.254 . S
O467 Gd420 2.429 . S
O467 C486 1.268 . S
O468 Gd420 2.545 . S
O468 C476 1.250 . S
O469 Gd420 2.412 . S
O469 C479 1.252 . S
O470 Gd421 2.545 . S
O470 C488 1.258 . S
O471 Gd420 2.362 . S
O471 Gd421 2.606 . S
O471 C487 1.284 . S
O472 Gd420 2.324 . S
O472 C495 1.254 . S
O473 Gd421 2.429 . S
O473 C495 1.268 . S
O474 Gd421 2.545 . S
O474 C487 1.250 . S
O475 Gd421 2.412 . S
O475 C488 1.252 . S
C476 O465 1.284 . S
C476 O468 1.250 . S
C477 H446 0.929 . S
C477 C462 1.437 . S
C477 C478 1.317 . S
C478 H449 0.930 . S
C478 C454 1.431 . S
C478 C477 1.317 . S
C479 Gd420 2.828 . S
C479 O464 1.258 . S
C479 O469 1.252 . S
C479 C480 1.497 . S
C480 C479 1.497 . S
C480 C481 1.395 . S
C480 C482 1.380 . S
C481 C480 1.395 . S
C481 C484 1.398 1_556 S
C481 H496 0.930 . S
C482 C480 1.380 . S
C482 C483 1.391 1_556 S
C482 H497 0.930 . S
C483 C482 1.391 1_554 S
C483 C485 1.387 . S
C484 C481 1.398 1_554 S
C484 C485 1.380 . S
C484 H498 0.930 . S
C485 C483 1.387 . S
C485 C484 1.380 . S
C485 H499 0.930 . S
C486 O466 1.254 . S
C486 O467 1.268 . S
C487 O471 1.284 . S
C487 O474 1.250 . S
C488 Gd421 2.828 . S
C488 O470 1.258 . S
C488 O475 1.252 . S
C488 C489 1.497 . S
C489 C488 1.497 . S
C489 C490 1.395 . S
C489 C491 1.380 . S
C490 C489 1.395 . S
C490 C493 1.398 . S
C490 H500 0.930 . S
C491 C489 1.380 . S
C491 C492 1.391 . S
C491 H501 0.930 . S
C492 C491 1.391 . S
C492 C494 1.387 . S
C493 C490 1.398 . S
C493 C494 1.380 . S
C493 H502 0.930 . S
C494 C492 1.387 . S
C494 C493 1.380 . S
C494 H503 0.930 . S
C495 O472 1.254 . S
C495 O473 1.268 . S
H496 C481 0.930 . S
H497 C482 0.930 . S
H498 C484 0.930 . S
H499 C485 0.930 . S
H500 C490 0.930 . S
H501 C491 0.930 . S
H502 C493 0.930 . S
H503 C494 0.930 . S
H504 C510 0.930 . S
H505 C513 0.930 . S
H506 C514 0.930 . S
H507 C515 0.930 . S
H508 C518 0.930 . S
H509 C519 0.930 . S
C510 H504 0.930 . S
C510 C511 1.355 . S
C510 C512 1.415 . S
C511 C510 1.355 . S
C511 C513 1.419 . S
C512 C510 1.415 . S
C512 C517 1.425 . S
C512 C519 1.409 . S
C513 H505 0.930 . S
C513 C511 1.419 . S
C513 C514 1.362 . S
C514 H506 0.930 . S
C514 C513 1.362 . S
C514 C517 1.409 . S
C515 H507 0.930 . S
C515 C516 1.355 . S
C515 C517 1.415 . S
C516 C515 1.355 . S
C516 C518 1.419 . S
C517 C512 1.425 . S
C517 C514 1.409 . S
C517 C515 1.415 . S
C518 H508 0.930 . S
C518 C516 1.419 . S
C518 C519 1.362 . S
C519 H509 0.930 . S
C519 C512 1.409 . S
C519 C518 1.362 . S
H520 C526 0.930 . S
H521 C529 0.930 . S
H522 C530 0.930 . S
H523 C531 0.930 . S
H524 C534 0.930 . S
H525 C535 0.930 . S
C526 H520 0.930 . S
C526 C527 1.355 . S
C526 C528 1.415 1_455 S
C527 C526 1.355 . S
C527 C529 1.419 . S
C528 C526 1.415 1_655 S
C528 C533 1.417 1_655 S
C528 C535 1.409 . S
C529 H521 0.930 . S
C529 C527 1.419 . S
C529 C530 1.362 . S
C530 H522 0.930 . S
C530 C529 1.362 . S
C530 C533 1.426 . S
C531 H523 0.930 . S
C531 C532 1.355 . S
C531 C533 1.405 1_655 S
C532 C531 1.355 . S
C532 C534 1.419 . S
C533 C528 1.417 1_455 S
C533 C530 1.426 . S
C533 C531 1.405 1_455 S
C534 H524 0.930 . S
C534 C532 1.419 . S
C534 C535 1.362 . S
C535 H525 0.930 . S
C535 C528 1.409 . S
C535 C534 1.362 . S
H536 C542 0.930 . S
H537 C545 0.930 . S
H538 C546 0.930 . S
H539 C547 0.930 . S
H540 C550 0.930 . S
H541 C551 0.930 . S
C542 H536 0.930 . S
C542 C543 1.355 . S
C542 C544 1.415 1_545 S
C543 C542 1.355 . S
C543 C545 1.419 . S
C544 C542 1.415 1_565 S
C544 C549 1.425 1_565 S
C544 C551 1.409 . S
C545 H537 0.930 . S
C545 C543 1.419 . S
C545 C546 1.362 . S
C546 H538 0.930 . S
C546 C545 1.362 . S
C546 C549 1.409 . S
C547 H539 0.930 . S
C547 C548 1.355 . S
C547 C549 1.415 1_565 S
C548 C547 1.355 . S
C548 C550 1.419 . S
C549 C544 1.425 1_545 S
C549 C546 1.409 . S
C549 C547 1.415 1_545 S
C550 H540 0.930 . S
C550 C548 1.419 . S
C550 C551 1.362 . S
C551 H541 0.930 . S
C551 C544 1.409 . S
C551 C550 1.362 . S
H552 C558 0.930 . S
H553 C561 0.930 . S
H554 C562 0.930 . S
H555 C563 0.930 . S
H556 C566 0.930 . S
H557 C567 0.930 . S
C558 H552 0.930 . S
C558 C559 1.355 . S
C558 C560 1.415 . S
C559 C558 1.355 . S
C559 C561 1.419 . S
C560 C558 1.415 . S
C560 C565 1.425 . S
C560 C567 1.409 . S
C561 H553 0.930 . S
C561 C559 1.419 . S
C561 C562 1.362 . S
C562 H554 0.930 . S
C562 C561 1.362 . S
C562 C565 1.409 . S
C563 H555 0.930 . S
C563 C564 1.355 . S
C563 C565 1.415 . S
C564 C563 1.355 . S
C564 C566 1.419 . S
C565 C560 1.425 . S
C565 C562 1.409 . S
C565 C563 1.415 . S
C566 H556 0.930 . S
C566 C564 1.419 . S
C566 C567 1.362 . S
C567 H557 0.930 . S
C567 C560 1.409 . S
C567 C566 1.362 . S
H568 C574 0.930 . S
H569 C577 0.930 . S
H570 C578 0.930 . S
H571 C579 0.930 . S
H572 C582 0.930 . S
H573 C583 0.930 . S
C574 H568 0.930 . S
C574 C575 1.355 . S
C574 C576 1.415 1_455 S
C575 C574 1.355 . S
C575 C577 1.419 . S
C576 C574 1.415 1_655 S
C576 C581 1.425 1_655 S
C576 C583 1.409 . S
C577 H569 0.930 . S
C577 C575 1.419 . S
C577 C578 1.362 . S
C578 H570 0.930 . S
C578 C577 1.362 . S
C578 C581 1.409 . S
C579 H571 0.930 . S
C579 C580 1.355 . S
C579 C581 1.415 1_655 S
C580 C579 1.355 . S
C580 C582 1.419 . S
C581 C576 1.425 1_455 S
C581 C578 1.409 . S
C581 C579 1.415 1_455 S
C582 H572 0.930 . S
C582 C580 1.419 . S
C582 C583 1.362 . S
C583 H573 0.930 . S
C583 C576 1.409 . S
C583 C582 1.362 . S
H584 C590 0.930 . S
H585 C593 0.930 . S
H586 C594 0.930 . S
H587 C595 0.930 . S
H588 C598 0.930 . S
H589 C599 0.930 . S
C590 H584 0.930 . S
C590 C591 1.355 . S
C590 C592 1.415 . S
C591 C590 1.355 . S
C591 C593 1.419 . S
C592 C590 1.415 . S
C592 C597 1.425 1_545 S
C592 C599 1.409 . S
C593 H585 0.930 . S
C593 C591 1.419 . S
C593 C594 1.362 1_545 S
C594 H586 0.930 . S
C594 C593 1.362 1_565 S
C594 C597 1.409 . S
C595 H587 0.930 . S
C595 C596 1.355 . S
C595 C597 1.415 . S
C596 C595 1.355 . S
C596 C598 1.419 . S
C597 C592 1.425 1_565 S
C597 C594 1.409 . S
C597 C595 1.415 . S
C598 H588 0.930 . S
C598 C596 1.419 . S
C598 C599 1.362 1_565 S
C599 H589 0.930 . S
C599 C592 1.409 . S
C599 C598 1.362 1_545 S
H600 C606 0.930 . S
H601 C609 0.930 . S
H602 C610 0.930 . S
H603 C611 0.930 . S
H604 C614 0.930 . S
H605 C615 0.930 . S
C606 H600 0.930 . S
C606 C607 1.355 . S
C606 C608 1.415 . S
C607 C606 1.355 . S
C607 C609 1.419 . S
C608 C606 1.415 . S
C608 C613 1.425 . S
C608 C615 1.409 . S
C609 H601 0.930 . S
C609 C607 1.419 . S
C609 C610 1.362 . S
C610 H602 0.930 . S
C610 C609 1.362 . S
C610 C613 1.409 . S
C611 H603 0.930 . S
C611 C612 1.355 . S
C611 C613 1.415 . S
C612 C611 1.355 . S
C612 C614 1.419 . S
C613 C608 1.425 . S
C613 C610 1.409 . S
C613 C611 1.415 . S
C614 H604 0.930 . S
C614 C612 1.419 . S
C614 C615 1.362 . S
C615 H605 0.930 . S
C615 C608 1.409 . S
C615 C614 1.362 . S
H616 C622 0.930 . S
H617 C625 0.930 . S
H618 C626 0.930 . S
H619 C627 0.930 . S
H620 C630 0.930 . S
H621 C631 0.930 . S
C622 H616 0.930 . S
C622 C623 1.355 . S
C622 C624 1.415 . S
C623 C622 1.355 . S
C623 C625 1.419 . S
C624 C622 1.415 . S
C624 C629 1.425 . S
C624 C631 1.409 . S
C625 H617 0.930 . S
C625 C623 1.419 . S
C625 C626 1.362 . S
C626 H618 0.930 . S
C626 C625 1.362 . S
C626 C629 1.409 . S
C627 H619 0.930 . S
C627 C628 1.355 . S
C627 C629 1.415 . S
C628 C627 1.355 . S
C628 C630 1.419 . S
C629 C624 1.425 . S
C629 C626 1.409 . S
C629 C627 1.415 . S
C630 H620 0.930 . S
C630 C628 1.419 . S
C630 C631 1.362 . S
C631 H621 0.930 . S
C631 C624 1.409 . S
C631 C630 1.362 . S
H632 C638 0.930 . S
H633 C641 0.930 . S
H634 C642 0.930 . S
H635 C643 0.930 . S
H636 C646 0.930 . S
H637 C647 0.930 . S
C638 H632 0.930 . S
C638 C639 1.355 . S
C638 C640 1.415 . S
C639 C638 1.355 . S
C639 C641 1.419 . S
C640 C638 1.415 . S
C640 C645 1.425 . S
C640 C647 1.409 . S
C641 H633 0.930 . S
C641 C639 1.419 . S
C641 C642 1.362 . S
C642 H634 0.930 . S
C642 C641 1.362 . S
C642 C645 1.409 . S
C643 H635 0.930 . S
C643 C644 1.355 . S
C643 C645 1.415 . S
C644 C643 1.355 . S
C644 C646 1.419 . S
C645 C640 1.425 . S
C645 C642 1.409 . S
C645 C643 1.415 . S
C646 H636 0.930 . S
C646 C644 1.419 . S
C646 C647 1.362 . S
C647 H637 0.930 . S
C647 C640 1.409 . S
C647 C646 1.362 . S
H648 C654 0.930 . S
H649 C657 0.930 . S
H650 C658 0.930 . S
H651 C659 0.930 . S
H652 C662 0.930 . S
H653 C663 0.930 . S
C654 H648 0.930 . S
C654 C655 1.355 . S
C654 C656 1.415 . S
C655 C654 1.355 . S
C655 C657 1.419 . S
C656 C654 1.415 . S
C656 C661 1.425 . S
C656 C663 1.409 . S
C657 H649 0.930 . S
C657 C655 1.419 . S
C657 C658 1.362 . S
C658 H650 0.930 . S
C658 C657 1.362 . S
C658 C661 1.409 . S
C659 H651 0.930 . S
C659 C660 1.355 . S
C659 C661 1.415 . S
C660 C659 1.355 . S
C660 C662 1.419 . S
C661 C656 1.425 . S
C661 C658 1.409 . S
C661 C659 1.415 . S
C662 H652 0.930 . S
C662 C660 1.419 . S
C662 C663 1.362 . S
C663 H653 0.930 . S
C663 C656 1.409 . S
C663 C662 1.362 . S
H664 C670 0.930 . S
H665 C673 0.930 . S
H666 C674 0.930 . S
H667 C675 0.930 . S
H668 C678 0.930 . S
H669 C679 0.930 . S
C670 H664 0.930 . S
C670 C671 1.355 . S
C670 C672 1.415 . S
C671 C670 1.355 . S
C671 C673 1.419 . S
C672 C670 1.415 . S
C672 C677 1.425 . S
C672 C679 1.409 . S
C673 H665 0.930 . S
C673 C671 1.419 . S
C673 C674 1.362 . S
C674 H666 0.930 . S
C674 C673 1.362 . S
C674 C677 1.409 . S
C675 H667 0.930 . S
C675 C676 1.355 . S
C675 C677 1.415 . S
C676 C675 1.355 . S
C676 C678 1.419 . S
C677 C672 1.425 . S
C677 C674 1.409 . S
C677 C675 1.415 . S
C678 H668 0.930 . S
C678 C676 1.419 . S
C678 C679 1.362 . S
C679 H669 0.930 . S
C679 C672 1.409 . S
C679 C678 1.362 . S
H680 C686 0.930 . S
H681 C689 0.930 . S
H682 C690 0.930 . S
H683 C691 0.930 . S
H684 C694 0.930 . S
H685 C695 0.930 . S
C686 H680 0.930 . S
C686 C687 1.355 . S
C686 C688 1.415 . S
C687 C686 1.355 . S
C687 C689 1.419 . S
C688 C686 1.415 . S
C688 C693 1.425 . S
C688 C695 1.409 . S
C689 H681 0.930 . S
C689 C687 1.419 . S
C689 C690 1.362 . S
C690 H682 0.930 . S
C690 C689 1.362 . S
C690 C693 1.409 . S
C691 H683 0.930 . S
C691 C692 1.355 . S
C691 C693 1.415 . S
C692 C691 1.355 . S
C692 C694 1.419 . S
C693 C688 1.425 . S
C693 C690 1.409 . S
C693 C691 1.415 . S
C694 H684 0.930 . S
C694 C692 1.419 . S
C694 C695 1.362 . S
C695 H685 0.930 . S
C695 C688 1.409 . S
C695 C694 1.362 . S
H696 C702 0.930 . S
H697 C705 0.930 . S
H698 C706 0.930 . S
H699 C707 0.930 . S
H700 C710 0.930 . S
H701 C711 0.930 . S
C702 H696 0.930 . S
C702 C703 1.355 . S
C702 C704 1.415 . S
C703 C702 1.355 . S
C703 C705 1.419 . S
C704 C702 1.415 . S
C704 C709 1.425 . S
C704 C711 1.409 . S
C705 H697 0.930 . S
C705 C703 1.419 . S
C705 C706 1.362 . S
C706 H698 0.930 . S
C706 C705 1.362 . S
C706 C709 1.409 . S
C707 H699 0.930 . S
C707 C708 1.355 . S
C707 C709 1.415 . S
C708 C707 1.355 . S
C708 C710 1.419 . S
C709 C704 1.425 . S
C709 C706 1.409 . S
C709 C707 1.415 . S
C710 H700 0.930 . S
C710 C708 1.419 . S
C710 C711 1.362 . S
C711 H701 0.930 . S
C711 C704 1.409 . S
C711 C710 1.362 . S
H712 C718 0.930 . S
H713 C721 0.930 . S
H714 C722 0.930 . S
H715 C723 0.930 . S
H716 C726 0.930 . S
H717 C727 0.930 . S
C718 H712 0.930 . S
C718 C719 1.355 . S
C718 C720 1.415 . S
C719 C718 1.355 . S
C719 C721 1.419 . S
C720 C718 1.415 . S
C720 C725 1.425 . S
C720 C727 1.409 . S
C721 H713 0.930 . S
C721 C719 1.419 . S
C721 C722 1.362 . S
C722 H714 0.930 . S
C722 C721 1.362 . S
C722 C725 1.409 . S
C723 H715 0.930 . S
C723 C724 1.355 . S
C723 C725 1.415 . S
C724 C723 1.355 . S
C724 C726 1.419 . S
C725 C720 1.425 . S
C725 C722 1.409 . S
C725 C723 1.415 . S
C726 H716 0.930 . S
C726 C724 1.419 . S
C726 C727 1.362 . S
C727 H717 0.930 . S
C727 C720 1.409 . S
C727 C726 1.362 . S
H728 C734 0.930 . S
H729 C737 0.930 . S
H730 C738 0.930 . S
H731 C739 0.930 . S
H732 C742 0.930 . S
H733 C743 0.930 . S
C734 H728 0.930 . S
C734 C735 1.355 . S
C734 C736 1.415 . S
C735 C734 1.355 . S
C735 C737 1.419 . S
C736 C734 1.415 . S
C736 C741 1.425 . S
C736 C743 1.409 . S
C737 H729 0.930 . S
C737 C735 1.419 . S
C737 C738 1.362 . S
C738 H730 0.930 . S
C738 C737 1.362 . S
C738 C741 1.409 . S
C739 H731 0.930 . S
C739 C740 1.355 . S
C739 C741 1.415 . S
C740 C739 1.355 . S
C740 C742 1.419 . S
C741 C736 1.425 . S
C741 C738 1.409 . S
C741 C739 1.415 . S
C742 H732 0.930 . S
C742 C740 1.419 . S
C742 C743 1.362 . S
C743 H733 0.930 . S
C743 C736 1.409 . S
C743 C742 1.362 . S
H744 C750 0.930 . S
H745 C753 0.930 . S
H746 C754 0.930 . S
H747 C755 0.930 . S
H748 C758 0.930 . S
H749 C759 0.930 . S
C750 H744 0.930 . S
C750 C751 1.355 . S
C750 C752 1.415 . S
C751 C750 1.355 . S
C751 C753 1.419 . S
C752 C750 1.415 . S
C752 C757 1.425 . S
C752 C759 1.409 . S
C753 H745 0.930 . S
C753 C751 1.419 . S
C753 C754 1.362 . S
C754 H746 0.930 . S
C754 C753 1.362 . S
C754 C757 1.409 . S
C755 H747 0.930 . S
C755 C756 1.355 . S
C755 C757 1.415 . S
C756 C755 1.355 . S
C756 C758 1.419 . S
C757 C752 1.425 . S
C757 C754 1.409 . S
C757 C755 1.415 . S
C758 H748 0.930 . S
C758 C756 1.419 . S
C758 C759 1.362 . S
C759 H749 0.930 . S
C759 C752 1.409 . S
C759 C758 1.362 . S
H760 C766 0.930 . S
H761 C769 0.930 . S
H762 C770 0.930 . S
H763 C771 0.930 . S
H764 C774 0.930 . S
H765 C775 0.930 . S
C766 H760 0.930 . S
C766 C767 1.355 . S
C766 C768 1.415 . S
C767 C766 1.355 . S
C767 C769 1.419 . S
C768 C766 1.415 . S
C768 C773 1.425 . S
C768 C775 1.409 . S
C769 H761 0.930 . S
C769 C767 1.419 . S
C769 C770 1.362 . S
C770 H762 0.930 . S
C770 C769 1.362 . S
C770 C773 1.409 . S
C771 H763 0.930 . S
C771 C772 1.355 . S
C771 C773 1.415 . S
C772 C771 1.355 . S
C772 C774 1.419 . S
C773 C768 1.425 . S
C773 C770 1.409 . S
C773 C771 1.415 . S
C774 H764 0.930 . S
C774 C772 1.419 . S
C774 C775 1.362 . S
C775 H765 0.930 . S
C775 C768 1.409 . S
C775 C774 1.362 . S
H776 C782 0.930 . S
H777 C785 0.930 . S
H778 C786 0.930 . S
H779 C787 0.930 . S
H780 C790 0.930 . S
H781 C791 0.930 . S
C782 H776 0.930 . S
C782 C783 1.355 . S
C782 C784 1.415 . S
C783 C782 1.355 . S
C783 C785 1.419 . S
C784 C782 1.415 . S
C784 C789 1.425 . S
C784 C791 1.409 . S
C785 H777 0.930 . S
C785 C783 1.419 . S
C785 C786 1.362 . S
C786 H778 0.930 . S
C786 C785 1.362 . S
C786 C789 1.409 . S
C787 H779 0.930 . S
C787 C788 1.355 . S
C787 C789 1.415 . S
C788 C787 1.355 . S
C788 C790 1.419 . S
C789 C784 1.425 . S
C789 C786 1.409 . S
C789 C787 1.415 . S
C790 H780 0.930 . S
C790 C788 1.419 . S
C790 C791 1.362 . S
C791 H781 0.930 . S
C791 C784 1.409 . S
C791 C790 1.362 . S
C511 C495 1.440 . S
C516 C67 1.399 . S
C527 C75 1.451 . S
C532 C151 1.351 . S
C543 C159 1.456 . S
C548 C235 1.355 . S
C559 C243 1.453 . S
C564 C319 1.391 . S
C575 C403 1.351 . S
C580 C327 1.451 . S
C591 C487 1.407 . S
C596 C411 1.449 . S
C607 C72 1.358 . S
C612 C63 1.358 . S
C623 C156 1.352 . S
C628 C147 1.352 . S
C639 C240 1.352 . S
C644 C231 1.352 . S
C655 C324 1.351 . S
C660 C315 1.351 . S
C671 C399 1.364 . S
C676 C408 1.364 . S
C687 C492 1.393 . S
C692 C483 1.393 . S
C703 C56 1.410 . S
C708 C402 1.470 . S
C719 C140 1.348 . S
C724 C486 1.500 . S
C735 C66 1.480 . S
C740 C224 1.394 . S
C751 C150 1.479 . S
C756 C308 1.395 . S
C767 C392 1.385 . S
C772 C234 1.468 . S
C783 C318 1.470 . S
C788 C476 1.409 . S
