# Generated by pormake.
# Topology uob, (4)-cn, num edge types: 1
# Building blocks:
#     Node 0, Type 0, BuildingBlock: NAWXER_clean_sbu_0, # of connection points: 4
#     Node 1, Type 0, BuildingBlock: NAWXER_clean_sbu_0, # of connection points: 4
#     Node 2, Type 0, BuildingBlock: NAWXER_clean_sbu_0, # of connection points: 4
#     Node 3, Type 0, BuildingBlock: NAWXER_clean_sbu_0, # of connection points: 4
#     Node 4, Type 0, BuildingBlock: NAWXER_clean_sbu_0, # of connection points: 4
#     Node 5, Type 0, BuildingBlock: NAWXER_clean_sbu_0, # of connection points: 4
#     Node 6, Type 0, BuildingBlock: NAWXER_clean_sbu_0, # of connection points: 4
#     Node 7, Type 0, BuildingBlock: NAWXER_clean_sbu_0, # of connection points: 4
#     Node 8, Type 0, BuildingBlock: NAWXER_clean_sbu_0, # of connection points: 4
#     Node 9, Type 0, BuildingBlock: NAWXER_clean_sbu_0, # of connection points: 4
#     Node 10, Type 0, BuildingBlock: NAWXER_clean_sbu_0, # of connection points: 4
#     Node 11, Type 0, BuildingBlock: NAWXER_clean_sbu_0, # of connection points: 4
#     Node 12, Type 0, BuildingBlock: NAWXER_clean_sbu_0, # of connection points: 4
#     Node 13, Type 0, BuildingBlock: NAWXER_clean_sbu_0, # of connection points: 4
#     Node 14, Type 0, BuildingBlock: NAWXER_clean_sbu_0, # of connection points: 4
#     Node 15, Type 0, BuildingBlock: NAWXER_clean_sbu_0, # of connection points: 4
#     Edge 16, Type (0, 0), BuildingBlock: ZUJKAS_clean_linker_0, # of connection points: 2
#     Edge 17, Type (0, 0), BuildingBlock: ZUJKAS_clean_linker_0, # of connection points: 2
#     Edge 18, Type (0, 0), BuildingBlock: ZUJKAS_clean_linker_0, # of connection points: 2
#     Edge 19, Type (0, 0), BuildingBlock: ZUJKAS_clean_linker_0, # of connection points: 2
#     Edge 20, Type (0, 0), BuildingBlock: ZUJKAS_clean_linker_0, # of connection points: 2
#     Edge 21, Type (0, 0), BuildingBlock: ZUJKAS_clean_linker_0, # of connection points: 2
#     Edge 22, Type (0, 0), BuildingBlock: ZUJKAS_clean_linker_0, # of connection points: 2
#     Edge 23, Type (0, 0), BuildingBlock: ZUJKAS_clean_linker_0, # of connection points: 2
#     Edge 24, Type (0, 0), BuildingBlock: ZUJKAS_clean_linker_0, # of connection points: 2
#     Edge 25, Type (0, 0), BuildingBlock: ZUJKAS_clean_linker_0, # of connection points: 2
#     Edge 26, Type (0, 0), BuildingBlock: ZUJKAS_clean_linker_0, # of connection points: 2
#     Edge 27, Type (0, 0), BuildingBlock: ZUJKAS_clean_linker_0, # of connection points: 2
#     Edge 28, Type (0, 0), BuildingBlock: ZUJKAS_clean_linker_0, # of connection points: 2
#     Edge 29, Type (0, 0), BuildingBlock: ZUJKAS_clean_linker_0, # of connection points: 2
#     Edge 30, Type (0, 0), BuildingBlock: ZUJKAS_clean_linker_0, # of connection points: 2
#     Edge 31, Type (0, 0), BuildingBlock: ZUJKAS_clean_linker_0, # of connection points: 2
#     Edge 32, Type (0, 0), BuildingBlock: ZUJKAS_clean_linker_0, # of connection points: 2
#     Edge 33, Type (0, 0), BuildingBlock: ZUJKAS_clean_linker_0, # of connection points: 2
#     Edge 34, Type (0, 0), BuildingBlock: ZUJKAS_clean_linker_0, # of connection points: 2
#     Edge 35, Type (0, 0), BuildingBlock: ZUJKAS_clean_linker_0, # of connection points: 2
#     Edge 36, Type (0, 0), BuildingBlock: ZUJKAS_clean_linker_0, # of connection points: 2
#     Edge 37, Type (0, 0), BuildingBlock: ZUJKAS_clean_linker_0, # of connection points: 2
#     Edge 38, Type (0, 0), BuildingBlock: ZUJKAS_clean_linker_0, # of connection points: 2
#     Edge 39, Type (0, 0), BuildingBlock: ZUJKAS_clean_linker_0, # of connection points: 2
#     Edge 40, Type (0, 0), BuildingBlock: ZUJKAS_clean_linker_0, # of connection points: 2
#     Edge 41, Type (0, 0), BuildingBlock: ZUJKAS_clean_linker_0, # of connection points: 2
#     Edge 42, Type (0, 0), BuildingBlock: ZUJKAS_clean_linker_0, # of connection points: 2
#     Edge 43, Type (0, 0), BuildingBlock: ZUJKAS_clean_linker_0, # of connection points: 2
#     Edge 44, Type (0, 0), BuildingBlock: ZUJKAS_clean_linker_0, # of connection points: 2
#     Edge 45, Type (0, 0), BuildingBlock: ZUJKAS_clean_linker_0, # of connection points: 2
#     Edge 46, Type (0, 0), BuildingBlock: ZUJKAS_clean_linker_0, # of connection points: 2
#     Edge 47, Type (0, 0), BuildingBlock: ZUJKAS_clean_linker_0, # of connection points: 2
# Relax obj value: 0.120
# Max RMSD: 0.245
# Mean RMSD: 0.245
data_MOF--net-uob--node1-NAWXER_clean_sbu_0--edge1-ZUJKAS_clean_linker_0
_symmetry_space_group_name_H-M    P1
_symmetry_Int_Tables_number       1
_symmetry_cell_setting            triclinic
loop_
_symmetry_equiv_pos_as_xyz
'x, y, z'
_cell_length_a     68.253967
_cell_length_b     68.239364
_cell_length_c     37.115305
_cell_angle_alpha  89.992636
_cell_angle_beta   90.006048
_cell_angle_gamma 89.994238
loop_
_atom_site_label
_atom_site_type_symbol
_atom_site_fract_x
_atom_site_fract_y
_atom_site_fract_z
_atom_type_partial_charge
C0 C 0.11472 0.08325 0.34651 0.0
C1 C 0.12984 0.09063 0.22014 0.0
O2 O 0.1216 0.06716 0.3336 0.0
Zn3 Zn 0.13254 0.05734 0.28106 0.0
O4 O 0.11337 0.09824 0.3264 0.0
Zn5 Zn 0.12384 0.08638 0.28447 0.0
O6 O 0.10065 0.06537 0.27213 0.0
O7 O 0.1148 0.03631 0.27079 0.0
O8 O 0.125 0.10319 0.2436 0.0
O9 O 0.13323 0.07292 0.23006 0.0
O10 O 0.15913 0.04991 0.29164 0.0
O11 O 0.15385 0.08127 0.30114 0.0
C12 C 0.09943 0.0467 0.26808 0.0
C13 C 0.1653 0.06637 0.30271 0.0
C14 C 0.92582 0.61643 0.59681 0.0
C15 C 0.91799 0.62982 0.46986 0.0
O16 O 0.94198 0.6227 0.5832 0.0
Zn17 Zn 0.95172 0.63266 0.53002 0.0
O18 O 0.91067 0.61516 0.57711 0.0
Zn19 Zn 0.92248 0.62473 0.53437 0.0
O20 O 0.94281 0.60091 0.52251 0.0
O21 O 0.97224 0.61421 0.52024 0.0
O22 O 0.90545 0.6257 0.49381 0.0
O23 O 0.93583 0.63295 0.47927 0.0
O24 O 0.9598 0.65926 0.53924 0.0
O25 O 0.92838 0.65481 0.54944 0.0
C26 C 0.96141 0.59912 0.5182 0.0
C27 C 0.94353 0.66594 0.55028 0.0
C28 C 0.39318 0.42409 0.84617 0.0
C29 C 0.37743 0.41748 0.71994 0.0
O30 O 0.38655 0.44035 0.83358 0.0
Zn31 Zn 0.3756 0.45057 0.78136 0.0
O32 O 0.39417 0.40916 0.82586 0.0
Zn33 Zn 0.38384 0.42137 0.78414 0.0
O34 O 0.40732 0.44201 0.77181 0.0
O35 O 0.39368 0.47131 0.771 0.0
O36 O 0.38234 0.40476 0.74305 0.0
O37 O 0.3743 0.43518 0.73022 0.0
O38 O 0.34917 0.45841 0.7923 0.0
O39 O 0.35389 0.42686 0.80075 0.0
C40 C 0.40885 0.46067 0.76796 0.0
C41 C 0.34269 0.44194 0.80271 0.0
C42 C 0.58312 0.89201 0.09852 0.0
C43 C 0.59141 0.87843 0.97164 0.0
O44 O 0.56706 0.88556 0.0848 0.0
Zn45 Zn 0.55773 0.87494 0.03172 0.0
O46 O 0.59836 0.89329 0.07907 0.0
Zn47 Zn 0.58678 0.88362 0.0362 0.0
O48 O 0.56583 0.90693 0.02414 0.0
O49 O 0.53678 0.8928 0.02145 0.0
O50 O 0.60385 0.88295 0.99553 0.0
O51 O 0.57366 0.87491 0.9811 0.0
O52 O 0.55041 0.84804 0.04109 0.0
O53 O 0.58162 0.85355 0.0516 0.0
C54 C 0.5472 0.90819 0.01956 0.0
C55 C 0.56685 0.84194 0.05237 0.0
C56 C 0.16662 0.44202 0.01537 0.0
C57 C 0.10046 0.46053 0.04988 0.0
O58 O 0.15557 0.42687 0.01792 0.0
Zn59 Zn 0.12574 0.42124 0.03465 0.0
O60 O 0.15999 0.45853 0.0252 0.0
Zn61 Zn 0.1336 0.45061 0.03658 0.0
O62 O 0.13483 0.43566 0.08832 0.0
O63 O 0.12752 0.40496 0.07618 0.0
O64 O 0.1154 0.47134 0.04542 0.0
O65 O 0.10209 0.44181 0.04734 0.0
O66 O 0.11563 0.40869 0.99269 0.0
O67 O 0.12242 0.44007 0.98507 0.0
C68 C 0.13201 0.41797 0.09904 0.0
C69 C 0.11612 0.4237 0.97251 0.0
C70 C 0.58344 0.61558 0.22095 0.0
C71 C 0.59157 0.63056 0.34726 0.0
O72 O 0.56743 0.62239 0.23429 0.0
Zn73 Zn 0.55787 0.63318 0.28706 0.0
O74 O 0.59855 0.61418 0.24072 0.0
Zn75 Zn 0.58699 0.62455 0.28302 0.0
O76 O 0.56625 0.60135 0.29592 0.0
O77 O 0.53703 0.61514 0.29773 0.0
O78 O 0.60403 0.62579 0.32359 0.0
O79 O 0.5738 0.63388 0.33765 0.0
O80 O 0.55044 0.65995 0.2769 0.0
O81 O 0.58168 0.65446 0.26653 0.0
C82 C 0.54763 0.5999 0.30035 0.0
C83 C 0.56686 0.66601 0.26541 0.0
C84 C 0.39046 0.08385 0.47316 0.0
C85 C 0.37607 0.0913 0.5999 0.0
O86 O 0.38422 0.06763 0.48653 0.0
Zn87 Zn 0.37346 0.05788 0.53914 0.0
O88 O 0.39137 0.09904 0.49283 0.0
Zn89 Zn 0.38173 0.08708 0.53544 0.0
O90 O 0.40529 0.06636 0.54739 0.0
O91 O 0.39149 0.03713 0.54946 0.0
O92 O 0.38073 0.1039 0.57639 0.0
O93 O 0.37276 0.07356 0.59 0.0
O94 O 0.34686 0.05015 0.52884 0.0
O95 O 0.3517 0.08162 0.51988 0.0
C96 C 0.40675 0.04771 0.55169 0.0
C97 C 0.34041 0.06661 0.51833 0.0
C98 C 0.92319 0.8899 0.72219 0.0
C99 C 0.91849 0.87544 0.8495 0.0
O100 O 0.93988 0.88451 0.73484 0.0
Zn101 Zn 0.95095 0.87434 0.7869 0.0
O102 O 0.90825 0.89005 0.74257 0.0
Zn103 Zn 0.92129 0.88101 0.7847 0.0
O104 O 0.94098 0.90564 0.79582 0.0
O105 O 0.97092 0.89338 0.79584 0.0
O106 O 0.90517 0.87888 0.82661 0.0
O107 O 0.93625 0.87336 0.83872 0.0
O108 O 0.95982 0.84806 0.77641 0.0
O109 O 0.92807 0.85136 0.76876 0.0
C110 C 0.9596 0.90806 0.79899 0.0
C111 C 0.94357 0.84082 0.76656 0.0
C112 C 0.66621 0.56683 0.80179 0.0
C113 C 0.59992 0.5485 0.76677 0.0
O114 O 0.6551 0.58196 0.79967 0.0
Zn115 Zn 0.62522 0.58762 0.78302 0.0
O116 O 0.65964 0.55037 0.79154 0.0
Zn117 Zn 0.63324 0.55831 0.78041 0.0
O118 O 0.63464 0.57364 0.7292 0.0
O119 O 0.62687 0.60416 0.74182 0.0
O120 O 0.61497 0.53769 0.77008 0.0
O121 O 0.60165 0.56714 0.77051 0.0
O122 O 0.61488 0.59989 0.82471 0.0
O123 O 0.62226 0.56865 0.83246 0.0
C124 C 0.63166 0.59135 0.7188 0.0
C125 C 0.6157 0.58494 0.84501 0.0
C126 C 0.42347 0.11668 0.09807 0.0
C127 C 0.4168 0.13138 0.97133 0.0
O128 O 0.43992 0.12238 0.08483 0.0
Zn129 Zn 0.45013 0.13291 0.0324 0.0
O130 O 0.40828 0.11639 0.07835 0.0
Zn131 Zn 0.42065 0.12567 0.03584 0.0
O132 O 0.44057 0.10142 0.02392 0.0
O133 O 0.47029 0.11415 0.02234 0.0
O134 O 0.40398 0.12727 0.99478 0.0
O135 O 0.43462 0.13404 0.98134 0.0
O136 O 0.45869 0.15928 0.04287 0.0
O137 O 0.42706 0.15546 0.05143 0.0
C138 C 0.45916 0.09928 0.01987 0.0
C139 C 0.44241 0.16626 0.05317 0.0
C140 C 0.90794 0.95994 0.26926 0.0
C141 C 0.84064 0.94415 0.30147 0.0
O142 O 0.90548 0.94133 0.27256 0.0
Zn143 Zn 0.88079 0.92172 0.28367 0.0
O144 O 0.89329 0.9713 0.27226 0.0
Zn145 Zn 0.8742 0.9514 0.28123 0.0
O146 O 0.88423 0.94039 0.33344 0.0
O147 O 0.88973 0.90873 0.32591 0.0
O148 O 0.84792 0.96036 0.29148 0.0
O149 O 0.85115 0.92862 0.29946 0.0
O150 O 0.87869 0.90552 0.24185 0.0
O151 O 0.87327 0.93659 0.22951 0.0
C152 C 0.88956 0.9237 0.34622 0.0
C153 C 0.87532 0.91881 0.21885 0.0
C154 C 0.0495 0.40805 0.51862 0.0
C155 C 0.06772 0.3415 0.55181 0.0
O156 O 0.0681 0.40645 0.5233 0.0
Zn157 Zn 0.08858 0.38271 0.53562 0.0
O158 O 0.03879 0.39287 0.52061 0.0
Zn159 Zn 0.05935 0.37468 0.53114 0.0
O160 O 0.06877 0.38528 0.58402 0.0
O161 O 0.10027 0.3922 0.57868 0.0
O162 O 0.05139 0.34809 0.54092 0.0
O163 O 0.08281 0.35268 0.55077 0.0
O164 O 0.10565 0.38173 0.49494 0.0
O165 O 0.0753 0.37422 0.48058 0.0
C166 C 0.08491 0.39139 0.5979 0.0
C167 C 0.09311 0.37742 0.47107 0.0
C168 C 0.66523 0.94507 0.51694 0.0
C169 C 0.59846 0.96133 0.55204 0.0
O170 O 0.6546 0.92961 0.5191 0.0
Zn171 Zn 0.62499 0.92296 0.53574 0.0
O172 O 0.65818 0.9613 0.52739 0.0
Zn173 Zn 0.63202 0.95251 0.53864 0.0
O174 O 0.63376 0.93721 0.58982 0.0
O175 O 0.62711 0.90645 0.57704 0.0
O176 O 0.61322 0.97254 0.54907 0.0
O177 O 0.60068 0.94273 0.5481 0.0
O178 O 0.61545 0.91035 0.49364 0.0
O179 O 0.62116 0.94201 0.48661 0.0
C180 C 0.63133 0.91941 0.60017 0.0
C181 C 0.61548 0.92547 0.47371 0.0
C182 C 0.0655 0.16573 0.76588 0.0
C183 C 0.0461 0.09975 0.80045 0.0
O184 O 0.08045 0.15438 0.76777 0.0
Zn185 Zn 0.08567 0.1244 0.78447 0.0
O186 O 0.049 0.15945 0.77653 0.0
Zn187 Zn 0.05657 0.13292 0.7874 0.0
O188 O 0.07197 0.13391 0.83856 0.0
O189 O 0.10231 0.12568 0.82557 0.0
O190 O 0.03563 0.11506 0.7976 0.0
O191 O 0.06477 0.10108 0.79661 0.0
O192 O 0.09777 0.11403 0.7427 0.0
O193 O 0.06665 0.12193 0.73508 0.0
C194 C 0.08965 0.13061 0.84877 0.0
C195 C 0.08284 0.11518 0.72241 0.0
C196 C 0.90819 0.54634 0.04886 0.0
C197 C 0.84241 0.56601 0.01412 0.0
O198 O 0.9068 0.5651 0.04712 0.0
Zn199 Zn 0.88354 0.58606 0.0346 0.0
O200 O 0.89316 0.53578 0.0435 0.0
Zn201 Zn 0.87522 0.55688 0.03542 0.0
O202 O 0.88639 0.56792 0.98412 0.0
O203 O 0.89433 0.59884 0.9937 0.0
O204 O 0.84879 0.54938 0.02384 0.0
O205 O 0.85366 0.58101 0.01703 0.0
O206 O 0.88175 0.60206 0.07629 0.0
O207 O 0.87409 0.57136 0.08775 0.0
C208 C 0.89327 0.58428 0.97254 0.0
C209 C 0.87708 0.58896 0.09885 0.0
C210 C 0.42451 0.39191 0.22212 0.0
C211 C 0.41702 0.37726 0.34866 0.0
O212 O 0.4407 0.38553 0.23541 0.0
Zn213 Zn 0.45058 0.37509 0.28819 0.0
O214 O 0.4094 0.39295 0.24195 0.0
Zn215 Zn 0.42133 0.38306 0.28432 0.0
O216 O 0.44168 0.40682 0.29657 0.0
O217 O 0.47108 0.39344 0.29852 0.0
O218 O 0.40442 0.38174 0.32503 0.0
O219 O 0.43482 0.37422 0.33895 0.0
O220 O 0.45868 0.34861 0.27813 0.0
O221 O 0.42721 0.35308 0.26851 0.0
C222 C 0.46028 0.40855 0.30088 0.0
C223 C 0.44237 0.34197 0.26724 0.0
H224 H 0.31529 0.03675 0.50131 0.0
H225 H 0.28554 0.03861 0.46486 0.0
H226 H 0.29152 0.10143 0.45866 0.0
H227 H 0.32161 0.09966 0.49436 0.0
H228 H 0.25061 0.05679 0.47322 0.0
H229 H 0.28864 0.08698 0.35324 0.0
H230 H 0.30173 0.07741 0.39162 0.0
H231 H 0.29142 0.10166 0.39302 0.0
C232 C 0.31021 0.051 0.4925 0.0
C233 C 0.32097 0.06804 0.50054 0.0
C234 C 0.29319 0.05203 0.47156 0.0
C235 C 0.28653 0.0701 0.45822 0.0
C236 C 0.29667 0.08725 0.46774 0.0
H237 H 0.18333 0.0993 0.32923 0.0
H238 H 0.21305 0.10084 0.36626 0.0
C239 C 0.31378 0.08623 0.48848 0.0
C240 C 0.26915 0.07084 0.43402 0.0
H241 H 0.25405 0.08448 0.34973 0.0
C242 C 0.25139 0.06284 0.44623 0.0
C243 C 0.27017 0.07867 0.39867 0.0
C244 C 0.28905 0.0865 0.38315 0.0
C245 C 0.23465 0.06255 0.42421 0.0
C246 C 0.23569 0.07037 0.38898 0.0
C247 C 0.25332 0.07857 0.37682 0.0
C248 C 0.21866 0.06968 0.36421 0.0
C249 C 0.21588 0.05397 0.43874 0.0
C250 C 0.21235 0.05173 0.34995 0.0
C251 C 0.19551 0.0508 0.32854 0.0
C252 C 0.18457 0.06783 0.32111 0.0
C253 C 0.19138 0.08592 0.3344 0.0
C254 C 0.20833 0.08683 0.35562 0.0
H255 H 0.21647 0.05177 0.46838 0.0
H256 H 0.20326 0.06362 0.43224 0.0
H257 H 0.21321 0.03954 0.42584 0.0
H258 H 0.22025 0.03836 0.35599 0.0
H259 H 0.19072 0.03663 0.31882 0.0
H260 H 0.91114 0.82045 0.74434 0.0
H261 H 0.91026 0.79054 0.70796 0.0
H262 H 0.97332 0.7875 0.71069 0.0
H263 H 0.97439 0.81736 0.74715 0.0
H264 H 0.95497 0.78584 0.6392 0.0
H265 H 0.92312 0.73247 0.73615 0.0
H266 H 0.91078 0.75567 0.73225 0.0
H267 H 0.9351 0.75475 0.75052 0.0
C268 C 0.92482 0.81325 0.73777 0.0
C269 C 0.94284 0.82133 0.74875 0.0
C270 C 0.92428 0.79613 0.717 0.0
C271 C 0.94172 0.78677 0.70675 0.0
C272 C 0.95969 0.79449 0.71839 0.0
H273 H 0.97385 0.69089 0.56527 0.0
H274 H 0.97286 0.72076 0.60135 0.0
C275 C 0.96026 0.81152 0.73938 0.0
C276 C 0.94129 0.76964 0.68211 0.0
H277 H 0.92733 0.7217 0.67619 0.0
C278 C 0.94898 0.77178 0.64726 0.0
C279 C 0.93328 0.75142 0.69261 0.0
C280 C 0.9252 0.74826 0.72998 0.0
C281 C 0.94872 0.75622 0.62245 0.0
C282 C 0.94103 0.73784 0.63311 0.0
C283 C 0.93321 0.73577 0.66795 0.0
C284 C 0.94142 0.7204 0.60901 0.0
C285 C 0.95632 0.75979 0.58484 0.0
C286 C 0.92411 0.71003 0.60147 0.0
C287 C 0.92465 0.69278 0.58108 0.0
C288 C 0.94254 0.68548 0.56783 0.0
C289 C 0.95978 0.69616 0.57467 0.0
C290 C 0.95924 0.71334 0.59524 0.0
H291 H 0.95572 0.77559 0.57765 0.0
H292 H 0.97186 0.75509 0.58334 0.0
H293 H 0.94782 0.75138 0.56456 0.0
H294 H 0.91019 0.71514 0.61188 0.0
H295 H 0.9111 0.68489 0.5765 0.0
H296 H 0.32399 0.40902 0.82762 0.0
H297 H 0.29346 0.4074 0.86215 0.0
H298 H 0.28742 0.47015 0.85421 0.0
H299 H 0.31754 0.47186 0.819 0.0
H300 H 0.2858 0.42357 0.92689 0.0
H301 H 0.23313 0.45293 0.8272 0.0
H302 H 0.25755 0.44535 0.81488 0.0
H303 H 0.2534 0.46918 0.83431 0.0
C304 C 0.31597 0.42244 0.83264 0.0
C305 C 0.32319 0.44056 0.82031 0.0
C306 C 0.29855 0.42149 0.85253 0.0
C307 C 0.28796 0.43861 0.86043 0.0
C308 C 0.29501 0.45667 0.84774 0.0
H309 H 0.1913 0.47202 0.99715 0.0
H310 H 0.22121 0.47015 0.96104 0.0
C311 C 0.31234 0.45763 0.82769 0.0
C312 C 0.27021 0.4378 0.8837 0.0
H313 H 0.22225 0.45199 0.88851 0.0
C314 C 0.27185 0.42959 0.91832 0.0
C315 C 0.25197 0.44563 0.87258 0.0
C316 C 0.24882 0.45358 0.83508 0.0
C317 C 0.25594 0.42953 0.94241 0.0
C318 C 0.23792 0.43783 0.93156 0.0
C319 C 0.23616 0.44578 0.89684 0.0
C320 C 0.22069 0.4386 0.9559 0.0
C321 C 0.25862 0.42108 0.97964 0.0
C322 C 0.2106 0.42143 0.96533 0.0
C323 C 0.19342 0.42243 0.98591 0.0
C324 C 0.18604 0.44064 0.99748 0.0
C325 C 0.19658 0.45775 0.98887 0.0
C326 C 0.21365 0.45673 0.96811 0.0
H327 H 0.27428 0.41825 0.98596 0.0
H328 H 0.25251 0.43117 0.00026 0.0
H329 H 0.25053 0.40701 0.98158 0.0
H330 H 0.21569 0.40731 0.95586 0.0
H331 H 0.18565 0.40898 0.9919 0.0
H332 H 0.5979 0.82734 0.09049 0.0
H333 H 0.59909 0.79714 0.12596 0.0
H334 H 0.54069 0.78249 0.091 0.0
H335 H 0.53928 0.81273 0.05551 0.0
H336 H 0.57046 0.78764 0.18291 0.0
H337 H 0.57451 0.73162 0.07428 0.0
H338 H 0.58146 0.75688 0.06721 0.0
H339 H 0.55605 0.75025 0.06927 0.0
C340 C 0.58541 0.81756 0.08981 0.0
C341 C 0.56849 0.82247 0.07006 0.0
C342 C 0.5861 0.80035 0.11026 0.0
C343 C 0.57001 0.78756 0.11101 0.0
C344 C 0.55333 0.79207 0.09051 0.0
H345 H 0.53924 0.69516 0.26174 0.0
H346 H 0.54063 0.72526 0.22585 0.0
C347 C 0.55256 0.80938 0.07026 0.0
C348 C 0.57031 0.77006 0.13475 0.0
H349 H 0.57032 0.72 0.1339 0.0
C350 C 0.57047 0.77284 0.17224 0.0
C351 C 0.57041 0.75081 0.12071 0.0
C352 C 0.57074 0.74707 0.08067 0.0
C353 C 0.57046 0.75683 0.19609 0.0
C354 C 0.57026 0.73758 0.18206 0.0
C355 C 0.57039 0.7348 0.14456 0.0
C356 C 0.56994 0.72009 0.20582 0.0
C357 C 0.57084 0.76057 0.23613 0.0
C358 C 0.586 0.70729 0.20666 0.0
C359 C 0.58533 0.69015 0.22734 0.0
C360 C 0.56844 0.68534 0.24725 0.0
C361 C 0.5525 0.69843 0.24688 0.0
C362 C 0.55327 0.71566 0.22641 0.0
H363 H 0.57466 0.77601 0.24251 0.0
H364 H 0.55614 0.75744 0.24758 0.0
H365 H 0.58154 0.75072 0.24957 0.0
H366 H 0.59899 0.71043 0.1909 0.0
H367 H 0.59783 0.68037 0.22677 0.0
H368 H 0.6851 0.59977 0.82608 0.0
H369 H 0.71571 0.60142 0.86037 0.0
H370 H 0.72145 0.5386 0.85344 0.0
H371 H 0.69124 0.53686 0.81847 0.0
H372 H 0.72348 0.58554 0.92531 0.0
H373 H 0.77576 0.55547 0.8257 0.0
H374 H 0.75134 0.5631 0.81345 0.0
H375 H 0.75543 0.53934 0.83321 0.0
C376 C 0.69307 0.58633 0.83128 0.0
C377 C 0.68574 0.56819 0.8193 0.0
C378 C 0.71054 0.5873 0.85102 0.0
C379 C 0.72107 0.57017 0.85914 0.0
C380 C 0.7139 0.55208 0.8468 0.0
H381 H 0.81727 0.53637 0.99612 0.0
H382 H 0.78746 0.53858 0.95986 0.0
C383 C 0.69653 0.55111 0.8269 0.0
C384 C 0.73889 0.57102 0.88225 0.0
H385 H 0.78678 0.55657 0.88694 0.0
C386 C 0.73738 0.57941 0.91674 0.0
C387 C 0.75707 0.56305 0.87111 0.0
C388 C 0.76008 0.55492 0.83371 0.0
C389 C 0.75334 0.57948 0.94071 0.0
C390 C 0.77128 0.57101 0.92988 0.0
C391 C 0.77292 0.56292 0.89526 0.0
C392 C 0.78851 0.57009 0.95422 0.0
C393 C 0.7508 0.5881 0.97784 0.0
C394 C 0.79887 0.58714 0.96343 0.0
C395 C 0.81601 0.58594 0.98412 0.0
C396 C 0.82307 0.56766 0.99601 0.0
C397 C 0.81226 0.5507 0.98759 0.0
C398 C 0.79524 0.55191 0.96673 0.0
H399 H 0.7352 0.59123 0.98411 0.0
H400 H 0.75672 0.57797 -0.00143 0.0
H401 H 0.75914 0.60203 0.97963 0.0
H402 H 0.79402 0.6013 0.95374 0.0
H403 H 0.824 0.59929 0.98995 0.0
H404 H 0.40983 0.323 0.24146 0.0
H405 H 0.40875 0.29262 0.20645 0.0
H406 H 0.47148 0.28708 0.21598 0.0
H407 H 0.47264 0.31706 0.2517 0.0
H408 H 0.42552 0.28562 0.142 0.0
H409 H 0.45453 0.23241 0.24116 0.0
H410 H 0.44668 0.25669 0.25387 0.0
H411 H 0.47063 0.25288 0.23479 0.0
C412 C 0.42336 0.31511 0.23672 0.0
C413 C 0.44131 0.32245 0.24961 0.0
C414 C 0.42273 0.29778 0.21654 0.0
C415 C 0.44 0.28738 0.20889 0.0
C416 C 0.45789 0.29452 0.22222 0.0
H417 H 0.473 0.19023 0.07157 0.0
H418 H 0.47175 0.22021 0.10766 0.0
C419 C 0.45853 0.31176 0.24257 0.0
C420 C 0.4395 0.26979 0.18516 0.0
H421 H 0.45363 0.22182 0.17978 0.0
C422 C 0.43149 0.27162 0.15042 0.0
C423 C 0.44731 0.25149 0.19607 0.0
C424 C 0.45509 0.24816 0.23363 0.0
C425 C 0.43152 0.25583 0.12607 0.0
C426 C 0.43969 0.23772 0.13677 0.0
C427 C 0.44753 0.2358 0.17156 0.0
C428 C 0.44018 0.22048 0.1124 0.0
C429 C 0.42324 0.25872 0.08877 0.0
C430 C 0.4228 0.21082 0.10273 0.0
C431 C 0.42345 0.19362 0.08218 0.0
C432 C 0.44151 0.18578 0.07084 0.0
C433 C 0.45884 0.19588 0.07964 0.0
C434 C 0.45817 0.21299 0.10041 0.0
H435 H 0.42086 0.27445 0.08243 0.0
H436 H 0.43318 0.25233 0.0682 0.0
H437 H 0.40894 0.25105 0.08677 0.0
H438 H 0.40878 0.21625 0.11204 0.0
H439 H 0.40983 0.18619 0.07605 0.0
H440 H 0.81691 0.97505 0.31938 0.0
H441 H 0.78717 0.97425 0.35605 0.0
H442 H 0.79035 0.91119 0.36062 0.0
H443 H 0.82037 0.91186 0.32465 0.0
H444 H 0.75129 0.95735 0.34752 0.0
H445 H 0.78864 0.92531 0.46654 0.0
H446 H 0.80192 0.93469 0.42823 0.0
H447 H 0.79092 0.91075 0.4265 0.0
C448 C 0.8112 0.96097 0.32786 0.0
C449 C 0.82116 0.94352 0.31929 0.0
C450 C 0.7942 0.96056 0.34893 0.0
C451 C 0.78678 0.9427 0.36189 0.0
C452 C 0.7961 0.92519 0.35182 0.0
H453 H 0.68488 0.91276 0.49195 0.0
H454 H 0.71467 0.91215 0.45515 0.0
C455 C 0.81317 0.92559 0.33093 0.0
C456 C 0.76947 0.9425 0.38628 0.0
H457 H 0.75405 0.92837 0.47006 0.0
C458 C 0.75192 0.95107 0.37434 0.0
C459 C 0.77031 0.93437 0.42139 0.0
C460 C 0.789 0.92593 0.43663 0.0
C461 C 0.73515 0.95146 0.3963 0.0
C462 C 0.73598 0.94325 0.43127 0.0
C463 C 0.75346 0.93462 0.44321 0.0
C464 C 0.7188 0.94356 0.45578 0.0
C465 C 0.71654 0.96042 0.38178 0.0
C466 C 0.71163 0.96138 0.46927 0.0
C467 C 0.6947 0.96179 0.49053 0.0
C468 C 0.68457 0.94436 0.49865 0.0
C469 C 0.69227 0.92645 0.48621 0.0
C470 C 0.70928 0.92607 0.46511 0.0
H471 H 0.71712 0.96242 0.35209 0.0
H472 H 0.70369 0.95115 0.38854 0.0
H473 H 0.7143 0.97501 0.39434 0.0
H474 H 0.71894 0.97502 0.46281 0.0
H475 H 0.68923 0.97583 0.49963 0.0
H476 H 0.03753 0.3166 0.56803 0.0
H477 H 0.03889 0.28678 0.60434 0.0
H478 H 0.1017 0.29216 0.61187 0.0
H479 H 0.10043 0.32234 0.57634 0.0
H480 H 0.05675 0.2517 0.59616 0.0
H481 H 0.08663 0.28919 0.71696 0.0
H482 H 0.07742 0.30245 0.67848 0.0
H483 H 0.10158 0.29192 0.67751 0.0
C484 C 0.05167 0.31138 0.5771 0.0
C485 C 0.06886 0.322 0.56949 0.0
C486 C 0.05242 0.29432 0.59796 0.0
C487 C 0.07034 0.28747 0.61164 0.0
C488 C 0.08764 0.29746 0.60254 0.0
H489 H 0.09853 0.18404 0.74049 0.0
H490 H 0.10022 0.21389 0.70382 0.0
C491 C 0.0869 0.31462 0.58189 0.0
C492 C 0.07077 0.27003 0.63573 0.0
H493 H 0.08393 0.25458 0.72007 0.0
C494 C 0.06268 0.25236 0.62324 0.0
C495 C 0.07844 0.27088 0.67122 0.0
C496 C 0.08634 0.28966 0.68703 0.0
C497 C 0.06217 0.23555 0.6451 0.0
C498 C 0.06984 0.23644 0.68044 0.0
C499 C 0.07811 0.25398 0.6929 0.0
C500 C 0.06902 0.2193 0.70498 0.0
C501 C 0.05352 0.21689 0.63022 0.0
C502 C 0.05098 0.21284 0.71865 0.0
C503 C 0.04997 0.19592 0.73984 0.0
C504 C 0.06699 0.18506 0.74766 0.0
C505 C 0.08514 0.19202 0.73499 0.0
C506 C 0.08615 0.20905 0.71398 0.0
H507 H 0.05156 0.21756 0.60053 0.0
H508 H 0.063 0.20416 0.63687 0.0
H509 H 0.03897 0.21434 0.64272 0.0
H510 H 0.03763 0.2207 0.71231 0.0
H511 H 0.03574 0.19102 0.74909 0.0
H512 H 0.06347 0.06437 0.2638 0.0
H513 H 0.03143 0.04848 0.25917 0.0
H514 H 0.05949 0.99193 0.25452 0.0
H515 H 0.09158 0.00763 0.25952 0.0
H516 H 0.01568 0.02278 0.20611 0.0
H517 H 0.02154 0.98705 0.34027 0.0
H518 H 0.03763 0.00662 0.32635 0.0
H519 H 0.0415 0.98214 0.31004 0.0
C520 C 0.06286 0.04856 0.26159 0.0
C521 C 0.08011 0.03727 0.26235 0.0
C522 C 0.04453 0.03951 0.25891 0.0
C523 C 0.04309 0.01902 0.25711 0.0
C524 C 0.06028 0.00775 0.25658 0.0
H525 H 0.9427 0.94006 0.26364 0.0
H526 H 0.9756 0.95394 0.2574 0.0
C527 C 0.07861 0.01677 0.25926 0.0
C528 C 0.02358 0.00946 0.25664 0.0
H529 H 0.99376 0.97921 0.30525 0.0
C530 C 0.01086 0.01324 0.22775 0.0
C531 C 0.01737 0.99702 0.28492 0.0
C532 C 0.03012 0.99305 0.31734 0.0
C533 C 0.99212 0.00477 0.22623 0.0
C534 C 0.98583 0.99249 0.2547 0.0
C535 C 0.99864 0.98857 0.28339 0.0
C536 C 0.9658 0.98408 0.25602 0.0
C537 C 0.97931 0.00884 0.19395 0.0
C538 C 0.94937 0.99642 0.25739 0.0
C539 C 0.93056 0.98856 0.26093 0.0
C540 C 0.9278 0.96817 0.26343 0.0
C541 C 0.94428 0.95582 0.26171 0.0
C542 C 0.9631 0.96372 0.25816 0.0
H543 H 0.98809 0.01364 0.17033 0.0
H544 H 0.97072 0.99567 0.18628 0.0
H545 H 0.96889 0.02077 0.20065 0.0
H546 H 0.95113 0.01219 0.2566 0.0
H547 H 0.91822 0.99851 0.26235 0.0
H548 H 0.94245 0.56399 0.51097 0.0
H549 H 0.95709 0.5314 0.50607 0.0
H550 H 0.01482 0.55701 0.50881 0.0
H551 H 1.00033 0.58972 0.51314 0.0
H552 H 0.0109 0.5272 0.45727 0.0
H553 H 0.98314 0.50344 0.59097 0.0
H554 H 0.96449 0.51202 0.56072 0.0
H555 H 0.9829 0.52872 0.57675 0.0
C556 C 0.95826 0.56273 0.51034 0.0
C557 C 0.97022 0.57948 0.51276 0.0
C558 C 0.9666 0.54407 0.50773 0.0
C559 C 0.98704 0.54177 0.50778 0.0
C560 C 0.99901 0.55847 0.50894 0.0
H561 H 0.06793 0.44364 0.51415 0.0
H562 H 0.05274 0.47598 0.50879 0.0
C563 C 0.99069 0.57715 0.51145 0.0
C564 C 0.99595 0.52194 0.50742 0.0
H565 H 0.99883 0.47933 0.55541 0.0
C566 C 0.00831 0.51673 0.47872 0.0
C567 C 0.99257 0.50833 0.53552 0.0
C568 C 0.9802 0.51341 0.56792 0.0
C569 C 0.01714 0.49814 0.47712 0.0
C570 C 0.01373 0.48455 0.5052 0.0
C571 C 1.00134 0.48976 0.53382 0.0
C572 C 0.02306 0.46493 0.50591 0.0
C573 C 0.02979 0.49308 0.44511 0.0
C574 C 0.01142 0.44799 0.5064 0.0
C575 C 0.02003 0.42949 0.50962 0.0
C576 C 0.04049 0.42757 0.5127 0.0
C577 C 0.05215 0.44457 0.51168 0.0
C578 C 0.0435 0.46307 0.50842 0.0
H579 H 0.02691 0.50295 0.4219 0.0
H580 H 0.04543 0.49464 0.45272 0.0
H581 H 0.02732 0.47769 0.43646 0.0
H582 H 0.99561 0.44911 0.50469 0.0
H583 H 0.01061 0.41673 0.51035 0.0
H584 H 0.44456 0.44246 0.76382 0.0
H585 H 0.47682 0.45787 0.75886 0.0
H586 H 0.44955 0.51479 0.75342 0.0
H587 H 0.41725 0.49958 0.75878 0.0
H588 H 0.49305 0.48305 0.70563 0.0
H589 H 0.48751 0.51958 0.83901 0.0
H590 H 0.47114 0.50018 0.82533 0.0
H591 H 0.46759 0.52469 0.8088 0.0
C592 C 0.44539 0.45825 0.76136 0.0
C593 C 0.42831 0.4698 0.76203 0.0
C594 C 0.46385 0.46703 0.75849 0.0
C595 C 0.46558 0.48748 0.75639 0.0
C596 C 0.44855 0.49899 0.75573 0.0
H597 H 0.56473 0.56734 0.75976 0.0
H598 H 0.53224 0.55258 0.75397 0.0
C599 C 0.43009 0.49025 0.75862 0.0
C600 C 0.48521 0.4968 0.75579 0.0
H601 H 0.51508 0.52749 0.80336 0.0
C602 C 0.49791 0.49275 0.72698 0.0
C603 C 0.4915 0.50942 0.78374 0.0
C604 C 0.47883 0.51363 0.81616 0.0
C605 C 0.51665 0.50124 0.72511 0.0
C606 C 0.52293 0.51384 0.7531 0.0
C607 C 0.5102 0.5179 0.78184 0.0
C608 C 0.54279 0.52269 0.7537 0.0
C609 C 0.52942 0.49693 0.6929 0.0
C610 C 0.55953 0.51078 0.75539 0.0
C611 C 0.57815 0.51916 0.75866 0.0
C612 C 0.58037 0.53964 0.76058 0.0
C613 C 0.56357 0.55153 0.75832 0.0
C614 C 0.54497 0.54312 0.75503 0.0
H615 H 0.52067 0.49158 0.66964 0.0
H616 H 0.53771 0.51015 0.68446 0.0
H617 H 0.54012 0.48534 0.70012 0.0
H618 H 0.55817 0.49496 0.75518 0.0
H619 H 0.59074 0.50956 0.76051 0.0
H620 H 0.50813 0.91631 0.01191 0.0
H621 H 0.49265 0.94849 0.00625 0.0
H622 H 0.54942 0.97613 0.00946 0.0
H623 H 0.56507 0.94403 0.0148 0.0
H624 H 0.49545 0.97897 0.05632 0.0
H625 H 0.52319 1.00247 0.92259 0.0
H626 H 0.524 0.97728 0.9375 0.0
H627 H 0.54193 0.99456 0.9533 0.0
C628 C 0.51736 0.9292 0.01099 0.0
C629 C 0.53786 0.92757 0.01378 0.0
C630 C 0.50848 0.94759 0.00778 0.0
C631 C 0.51989 0.96468 0.00699 0.0
C632 C 0.54035 0.96311 0.00929 0.0
H633 H 0.49791 0.08929 0.01453 0.0
H634 H 0.5119 0.0564 0.00995 0.0
C635 C 0.54927 0.94473 0.01255 0.0
C636 C 0.51033 0.9842 0.00611 0.0
H637 H 0.50747 0.02686 0.9582 0.0
C638 C 0.49793 0.98939 0.03472 0.0
C639 C 0.51368 0.99778 0.97797 0.0
C640 C 0.52628 0.99273 0.94591 0.0
C641 C 0.48916 0.00797 0.03646 0.0
C642 C 0.49257 0.02161 0.00841 0.0
C643 C 0.50486 0.01637 0.97963 0.0
C644 C 0.48391 0.04155 0.00903 0.0
C645 C 0.47683 0.01306 0.06889 0.0
C646 C 0.4635 0.04415 0.00914 0.0
C647 C 0.45544 0.06294 0.01189 0.0
C648 C 0.46764 0.0795 0.01429 0.0
C649 C 0.48808 0.07687 0.01286 0.0
C650 C 0.49612 0.05808 0.0102 0.0
H651 H 0.47964 1.00297 0.09183 0.0
H652 H 0.47968 0.02831 0.07791 0.0
H653 H 0.4611 0.01187 0.06164 0.0
H654 H 0.45381 0.03162 0.00749 0.0
H655 H 0.43965 0.06443 0.01264 0.0
H656 H 0.07136 0.44896 0.09568 0.0
H657 H 0.03885 0.46378 0.10273 0.0
H658 H 0.05299 0.50605 0.02007 0.0
H659 H 0.08593 0.49233 0.01551 0.0
H660 H 0.03391 0.5237 0.06679 0.0
H661 H 0.99303 0.45499 0.04214 0.0
H662 H 0.00811 0.45314 0.08146 0.0
H663 H 0.01925 0.45632 0.03775 0.0
C664 C 0.06746 0.4615 0.07929 0.0
C665 C 0.08104 0.46953 0.05504 0.0
C666 C 0.04881 0.46984 0.08297 0.0
C667 C 0.0431 0.48574 0.06118 0.0
C668 C 0.05688 0.49381 0.03723 0.0
H669 H 0.92349 0.51623 0.0108 0.0
H670 H 0.95631 0.50223 0.0158 0.0
C671 C 0.07572 0.48596 0.03455 0.0
C672 C 0.02294 0.49416 0.06312 0.0
H673 H 0.97432 0.48238 0.06082 0.0
C674 C 0.02089 0.51463 0.0652 0.0
C675 C 0.00583 0.48244 0.06067 0.0
C676 C 0.00665 0.46054 0.05499 0.0
C677 C 1.00243 0.52372 0.06396 0.0
C678 C 0.98531 0.51197 0.06299 0.0
C679 C 0.98735 0.49147 0.06184 0.0
C680 C 0.96519 0.5205 0.06077 0.0
C681 C 1.00173 0.54581 0.06185 0.0
C682 C 0.95895 0.53532 0.08454 0.0
C683 C 0.94042 0.54387 0.08066 0.0
C684 C 0.92745 0.53706 0.05414 0.0
C685 C 0.93325 0.52164 0.03157 0.0
C686 C 0.95201 0.51363 0.03452 0.0
H687 H 0.01564 0.55193 0.0511 0.0
H688 H 0.98955 0.5509 0.04436 0.0
H689 H 0.99963 0.5519 0.08929 0.0
H690 H 0.96841 0.54038 0.10599 0.0
H691 H 0.93611 0.55562 0.09863 0.0
H692 H 0.44168 0.44409 0.30422 0.0
H693 H 0.45674 0.47655 0.30881 0.0
H694 H 0.5139 0.44991 0.31532 0.0
H695 H 0.49906 0.41741 0.31037 0.0
H696 H 0.48175 0.49331 0.36212 0.0
H697 H 0.51832 0.48745 0.22884 0.0
H698 H 0.49903 0.47102 0.24274 0.0
H699 H 0.52355 0.46769 0.25933 0.0
C700 C 0.45745 0.4451 0.30683 0.0
C701 C 0.46918 0.42814 0.30659 0.0
C702 C 0.46602 0.46367 0.3095 0.0
C703 C 0.48644 0.46563 0.31179 0.0
C704 C 0.49813 0.44872 0.31288 0.0
H705 H 0.56616 0.56459 0.30754 0.0
H706 H 0.55119 0.53222 0.3135 0.0
C707 C 0.4896 0.43016 0.31021 0.0
C708 C 0.49556 0.48535 0.31208 0.0
H709 H 0.52611 0.51519 0.26417 0.0
C710 C 0.49143 0.49815 0.34071 0.0
C711 C 0.50814 0.49161 0.28405 0.0
C712 C 0.51243 0.47883 0.2518 0.0
C713 C 0.49984 0.51693 0.34237 0.0
C714 C 0.51243 0.52316 0.31433 0.0
C715 C 0.51653 0.51035 0.28573 0.0
C716 C 0.52137 0.54298 0.31368 0.0
C717 C 0.49547 0.52979 0.37444 0.0
C718 C 0.50958 0.55981 0.31193 0.0
C719 C 0.5181 0.57838 0.30858 0.0
C720 C 0.53858 0.58044 0.30663 0.0
C721 C 0.55035 0.56356 0.30897 0.0
C722 C 0.54182 0.54503 0.31236 0.0
H723 H 0.49005 0.52112 0.39774 0.0
H724 H 0.5087 0.53807 0.38292 0.0
H725 H 0.48394 0.54052 0.36704 0.0
H726 H 0.49376 0.55856 0.31214 0.0
H727 H 0.5086 0.59105 0.30667 0.0
H728 H 0.44255 0.06578 0.55523 0.0
H729 H 0.47476 0.05023 0.56008 0.0
H730 H 0.44729 0.99344 0.56602 0.0
H731 H 0.41503 0.00878 0.56082 0.0
H732 H 0.49072 0.02491 0.61387 0.0
H733 H 0.48534 0.98849 0.4803 0.0
H734 H 0.4691 0.00804 0.4938 0.0
H735 H 0.46535 0.9836 0.51046 0.0
C736 C 0.44333 0.04998 0.55775 0.0
C737 C 0.4262 0.03851 0.55733 0.0
C738 C 0.46176 0.04114 0.56056 0.0
C739 C 0.46341 0.02068 0.56282 0.0
C740 C 0.44634 0.00923 0.56362 0.0
H741 H 0.56361 0.9417 0.55814 0.0
H742 H 0.5308 0.95579 0.56416 0.0
C743 C 0.42791 0.01805 0.56082 0.0
C744 C 0.483 0.0113 0.56352 0.0
H745 H 0.51302 0.98085 0.51577 0.0
C746 C 0.49563 0.01528 0.59246 0.0
C747 C 0.48933 0.99873 0.53553 0.0
C748 C 0.47668 0.99454 0.50307 0.0
C749 C 0.51439 0.00684 0.59433 0.0
C750 C 0.52078 0.9944 0.56618 0.0
C751 C 0.50807 0.99032 0.5374 0.0
C752 C 0.54078 0.98588 0.56532 0.0
C753 C 0.52708 0.01109 0.62668 0.0
C754 C 0.55729 0.99811 0.564 0.0
C755 C 0.57606 0.99012 0.56063 0.0
C756 C 0.57869 0.96971 0.5582 0.0
C757 C 0.56213 0.95747 0.56 0.0
C758 C 0.54336 0.9655 0.56341 0.0
H759 H 0.51823 0.01605 0.65008 0.0
H760 H 0.53564 0.99796 0.63473 0.0
H761 H 0.53755 0.02297 0.61984 0.0
H762 H 0.55563 0.0139 0.56462 0.0
H763 H 0.58847 0.99998 0.55913 0.0
H764 H 0.06392 0.06385 0.80444 0.0
H765 H 0.04818 0.03173 0.80892 0.0
H766 H 0.99153 0.05955 0.81397 0.0
H767 H 0.00708 0.09172 0.8091 0.0
H768 H 0.0227 0.01573 0.86189 0.0
H769 H 0.98659 0.02174 0.72813 0.0
H770 H 0.0061 0.03791 0.74202 0.0
H771 H 0.98163 0.04161 0.75852 0.0
C772 C 0.04812 0.06317 0.80671 0.0
C773 C 0.03675 0.08037 0.8061 0.0
C774 C 0.03915 0.04479 0.80929 0.0
C775 C 0.01868 0.04326 0.81116 0.0
C776 C 0.00733 0.0604 0.81185 0.0
H777 H 0.9398 0.94284 0.80505 0.0
H778 H 0.95373 0.97572 0.81125 0.0
C779 C 0.01627 0.07878 0.80924 0.0
C780 C 0.0092 0.0237 0.81157 0.0
H781 H 0.97884 0.99391 0.76313 0.0
C782 C 0.0131 0.01093 0.84033 0.0
C783 C 0.99668 0.01751 0.78339 0.0
C784 C 0.99258 0.0303 0.75107 0.0
C785 C 0.00467 0.99216 0.84184 0.0
C786 C 0.99229 0.98591 0.81348 0.0
C787 C 0.98826 0.99876 0.7849 0.0
C788 C 0.98386 0.96588 0.81219 0.0
C789 C 0.00887 0.9793 0.87399 0.0
C790 C 0.99617 0.94943 0.8106 0.0
C791 C 0.98827 0.93063 0.80709 0.0
C792 C 0.96787 0.9279 0.80483 0.0
C793 C 0.95556 0.9444 0.80679 0.0
C794 C 0.96349 0.96321 0.8103 0.0
H795 H 0.01378 0.98804 0.89758 0.0
H796 H 0.99573 0.9707 0.8818 0.0
H797 H 0.02077 0.96888 0.86705 0.0
H798 H 0.01194 0.95117 0.81119 0.0
H799 H 0.9982 0.91828 0.80548 0.0
H800 H 0.0546 0.11742 0.67008 0.0
H801 H 0.05814 0.1094 0.60609 0.0
H802 H 0.11791 0.09155 0.62463 0.0
H803 H 0.11463 0.09966 0.68834 0.0
H804 H 0.1133 0.11863 0.56886 0.0
H805 H 0.06208 0.05579 0.55461 0.0
H806 H 0.05193 0.07721 0.57578 0.0
H807 H 0.07126 0.06393 0.59775 0.0
C808 C 0.06843 0.11159 0.6606 0.0
C809 C 0.08436 0.10924 0.68425 0.0
C810 C 0.07037 0.10691 0.62411 0.0
C811 C 0.08822 0.0997 0.61084 0.0
C812 C 0.104 0.09702 0.63448 0.0
H813 H 0.11897 0.05542 0.39913 0.0
H814 H 0.11158 0.05893 0.46342 0.0
C815 C 0.10209 0.10169 0.67086 0.0
C816 C 0.09103 0.09634 0.57189 0.0
H817 H 0.07549 0.06884 0.50058 0.0
C818 C 0.10507 0.10772 0.55392 0.0
C819 C 0.08037 0.08197 0.5527 0.0
C820 C 0.06567 0.06888 0.57116 0.0
C821 C 0.10864 0.10526 0.51707 0.0
C822 C 0.09763 0.09126 0.49764 0.0
C823 C 0.08376 0.07967 0.51563 0.0
C824 C 0.10049 0.08851 0.45857 0.0
C825 C 0.12434 0.11749 0.49932 0.0
C826 C 0.09623 0.10382 0.43468 0.0
C827 C 0.10049 0.10193 0.39812 0.0
C828 C 0.10898 0.08461 0.38478 0.0
C829 C 0.11251 0.06898 0.40861 0.0
C830 C 0.10827 0.07092 0.44527 0.0
H831 H 0.1345 0.12403 0.51939 0.0
H832 H 0.13301 0.10858 0.48001 0.0
H833 H 0.11735 0.12963 0.48414 0.0
H834 H 0.08993 0.11739 0.44446 0.0
H835 H 0.0974 0.11417 0.38043 0.0
H836 H 0.89421 0.6019 0.63293 0.0
H837 H 0.89142 0.59531 0.69734 0.0
H838 H 0.95155 0.61277 0.71269 0.0
H839 H 0.95461 0.6193 0.648 0.0
H840 H 0.93957 0.57745 0.75076 0.0
H841 H 0.88944 0.64051 0.77227 0.0
H842 H 0.88199 0.624 0.73715 0.0
H843 H 0.9042 0.63788 0.73219 0.0
C844 C 0.9069 0.60427 0.6499 0.0
C845 C 0.92459 0.61131 0.63541 0.0
C846 C 0.90525 0.60052 0.68668 0.0
C847 C 0.92119 0.60384 0.70966 0.0
C848 C 0.93908 0.61022 0.69526 0.0
H849 H 0.91028 0.61612 0.94093 0.0
H850 H 0.91914 0.62021 0.87767 0.0
C851 C 0.94077 0.61397 0.65837 0.0
C852 C 0.91888 0.60125 0.74889 0.0
H853 H 0.89324 0.61841 0.82109 0.0
C854 C 0.92954 0.58644 0.76629 0.0
C855 C 0.90597 0.61321 0.76895 0.0
C856 C 0.89486 0.62992 0.75183 0.0
C857 C 0.92723 0.58295 0.80332 0.0
C858 C 0.91375 0.59444 0.82308 0.0
C859 C 0.90346 0.60954 0.80576 0.0
C860 C 0.90993 0.59114 0.86178 0.0
C861 C 0.93931 0.56713 0.82101 0.0
C862 C 0.90185 0.57339 0.87375 0.0
C863 C 0.89678 0.57097 0.90995 0.0
C864 C 0.89954 0.58635 0.93465 0.0
C865 C 0.9079 0.604 0.92259 0.0
C866 C 0.91301 0.60637 0.88648 0.0
H867 H 0.95241 0.56333 0.80467 0.0
H868 H 0.94419 0.57173 0.84828 0.0
H869 H 0.93027 0.55372 0.82393 0.0
H870 H 0.89898 0.5616 0.85493 0.0
H871 H 0.89031 0.55722 0.91838 0.0
H872 H 0.3929 0.40703 0.18679 0.0
H873 H 0.39 0.41429 0.12263 0.0
H874 H 0.44999 0.39662 0.10622 0.0
H875 H 0.45316 0.38943 0.17064 0.0
H876 H 0.43802 0.4323 0.06904 0.0
H877 H 0.38764 0.36947 0.04691 0.0
H878 H 0.38039 0.3859 0.08232 0.0
H879 H 0.40252 0.37185 0.08689 0.0
C880 C 0.40554 0.40477 0.16964 0.0
C881 C 0.42321 0.39745 0.18374 0.0
C882 C 0.40383 0.40891 0.13301 0.0
C883 C 0.41969 0.40572 0.1098 0.0
C884 C 0.43758 0.39909 0.12384 0.0
H885 H 0.41028 0.39277 0.87919 0.0
H886 H 0.41859 0.38929 0.94277 0.0
C887 C 0.43933 0.39495 0.16058 0.0
C888 C 0.41728 0.40855 0.07066 0.0
H889 H 0.39181 0.39148 -0.00182 0.0
C890 C 0.428 0.42337 0.0534 0.0
C891 C 0.40436 0.39666 0.05048 0.0
C892 C 0.39318 0.37995 0.06744 0.0
C893 C 0.4258 0.42688 0.01635 0.0
C894 C 0.4124 0.41537 0.99643 0.0
C895 C 0.40197 0.40035 0.01365 0.0
C896 C 0.40899 0.41842 0.95753 0.0
C897 C 0.43797 0.44265 -0.00124 0.0
C898 C 0.40093 0.43602 0.94481 0.0
C899 C 0.39617 0.43809 0.90837 0.0
C900 C 0.39925 0.42251 0.88425 0.0
C901 C 0.40765 0.40503 0.89707 0.0
C902 C 0.41244 0.40301 0.93338 0.0
H903 H 0.45085 0.44669 0.01551 0.0
H904 H 0.44319 0.43788 0.97182 0.0
H905 H 0.42885 0.45597 0.99509 0.0
H906 H 0.39781 0.44794 0.9632 0.0
H907 H 0.38966 0.45171 0.89933 0.0
H908 H 0.61445 0.8925 0.43264 0.0
H909 H 0.60596 0.88983 0.36901 0.0
H910 H 0.59344 0.95181 0.36559 0.0
H911 H 0.60286 0.95473 0.42906 0.0
H912 H 0.57345 0.89624 0.33302 0.0
H913 H 0.63076 0.94725 0.28327 0.0
H914 H 0.63 0.93888 0.32929 0.0
H915 H 0.614 0.95825 0.3145 0.0
C916 C 0.60991 0.90558 0.41833 0.0
C917 C 0.60949 0.92386 0.43566 0.0
C918 C 0.60502 0.90403 0.38198 0.0
C919 C 0.59938 0.92067 0.36233 0.0
C920 C 0.59829 0.93887 0.37992 0.0
H921 H 0.55286 0.90195 0.14332 0.0
H922 H 0.55495 0.91083 0.20718 0.0
C923 C 0.60356 0.9405 0.4162 0.0
C924 C 0.59492 0.91876 0.32341 0.0
H925 H 0.60904 0.93434 0.24001 0.0
C926 C 0.58119 0.9046 0.31264 0.0
C927 C 0.60515 0.9296 0.29688 0.0
C928 C 0.62093 0.94421 0.30647 0.0
C929 C 0.57784 0.90051 0.27612 0.0
C930 C 0.58797 0.91144 0.24961 0.0
C931 C 0.60122 0.92605 0.26039 0.0
C932 C 0.58639 0.90691 0.21066 0.0
C933 C 0.56424 0.88386 0.26648 0.0
C934 C 0.60342 0.90249 0.19108 0.0
C935 C 0.60231 0.89791 0.15456 0.0
C936 C 0.58412 0.89742 0.13693 0.0
C937 C 0.56706 0.90199 0.15638 0.0
C938 C 0.56822 0.90695 0.19289 0.0
H939 H 0.56179 0.87385 0.28965 0.0
H940 H 0.54981 0.88993 0.25841 0.0
H941 H 0.57013 0.87516 0.24365 0.0
H942 H 0.6176 0.90235 0.2042 0.0
H943 H 0.61571 0.89439 0.14029 0.0
H944 H 0.05438 0.40125 0.64204 0.0
H945 H 0.05608 0.41087 0.70557 0.0
H946 H 0.11883 0.40314 0.70377 0.0
H947 H 0.11732 0.39439 0.64019 0.0
H948 H 0.06719 0.39128 0.76223 0.0
H949 H 0.11568 0.45556 0.75012 0.0
H950 H 0.10462 0.44409 0.71134 0.0
H951 H 0.12707 0.43458 0.73013 0.0
C952 C 0.06854 0.40179 0.65519 0.0
C953 C 0.08574 0.39723 0.63613 0.0
C954 C 0.06949 0.4073 0.69143 0.0
C955 C 0.08763 0.40818 0.70924 0.0
C956 C 0.10475 0.40327 0.69033 0.0
H957 H 0.11315 0.39072 0.93159 0.0
H958 H 0.10393 0.38843 0.86825 0.0
C959 C 0.10385 0.39809 0.65403 0.0
C960 C 0.08869 0.41311 0.74808 0.0
H961 H 0.11454 0.44022 0.80886 0.0
C962 C 0.07731 0.40222 0.7724 0.0
C963 C 0.1015 0.42772 0.76141 0.0
C964 C 0.11271 0.44129 0.73678 0.0
C965 C 0.0792 0.40478 0.80973 0.0
C966 C 0.09337 0.41808 0.82307 0.0
C967 C 0.10394 0.42974 0.79872 0.0
C968 C 0.09819 0.41947 0.86194 0.0
C969 C 0.06595 0.39319 0.83435 0.0
C970 C 0.09875 0.43778 0.87922 0.0
C971 C 0.10455 0.43918 0.91523 0.0
C972 C 0.10972 0.42227 0.93465 0.0
C973 C 0.10901 0.40397 0.91742 0.0
C974 C 0.10356 0.40262 0.88128 0.0
H975 H 0.0518 0.38978 0.82096 0.0
H976 H 0.07309 0.37905 0.84108 0.0
H977 H 0.06288 0.40122 0.85974 0.0
H978 H 0.09481 0.451 0.86477 0.0
H979 H 0.10493 0.45348 0.92788 0.0
H980 H 0.61485 0.60033 0.18524 0.0
H981 H 0.61762 0.59346 0.12092 0.0
H982 H 0.5577 0.61153 0.10514 0.0
H983 H 0.55466 0.61839 0.16972 0.0
H984 H 0.56993 0.57572 0.06705 0.0
H985 H 0.61958 0.63929 0.0464 0.0
H986 H 0.62683 0.62279 0.0817 0.0
H987 H 0.60454 0.63658 0.08611 0.0
C988 C 0.60218 0.60274 0.16821 0.0
C989 C 0.58458 0.6101 0.18252 0.0
C990 C 0.60382 0.59883 0.13148 0.0
C991 C 0.58794 0.60225 0.10842 0.0
C992 C 0.57012 0.60888 0.12266 0.0
H993 H 0.59835 0.61619 0.87781 0.0
H994 H 0.58958 0.61953 0.94123 0.0
C995 C 0.56844 0.61282 0.15949 0.0
C996 C 0.59034 0.59974 0.06921 0.0
H997 H 0.61573 0.61752 0.99723 0.0
C998 C 0.57985 0.58488 0.05163 0.0
C999 C 0.60312 0.61192 0.04932 0.0
C1000 C 0.61406 0.62867 0.06669 0.0
C1001 C 0.58218 0.58158 0.01454 0.0
C1002 C 0.59548 0.59334 0.99491 0.0
C1003 C 0.60564 0.60845 0.01245 0.0
C1004 C 0.59918 0.59041 0.95607 0.0
C1005 C 0.57027 0.56572 0.99663 0.0
C1006 C 0.60742 0.57287 0.94344 0.0
C1007 C 0.61243 0.57088 0.90712 0.0
C1008 C 0.60945 0.58649 0.88299 0.0
C1009 C 0.60091 0.60391 0.89571 0.0
C1010 C 0.59585 0.60585 0.93192 0.0
H1011 H 0.55729 0.5616 0.01303 0.0
H1012 H 0.56522 0.57044 0.96954 0.0
H1013 H 0.57951 0.55246 0.99326 0.0
H1014 H 0.61048 0.56094 0.96184 0.0
H1015 H 0.61905 0.5573 0.89816 0.0
H1016 H 0.39276 0.11663 0.4318 0.0
H1017 H 0.4009 0.11878 0.36798 0.0
H1018 H 0.41005 0.05622 0.36454 0.0
H1019 H 0.401 0.05387 0.42828 0.0
H1020 H 0.433 0.11054 0.33195 0.0
H1021 H 0.37279 0.0629 0.28239 0.0
H1022 H 0.3741 0.07121 0.32842 0.0
H1023 H 0.38899 0.051 0.31353 0.0
C1024 C 0.39648 0.10332 0.41746 0.0
C1025 C 0.3961 0.08506 0.43489 0.0
C1026 C 0.40116 0.10456 0.38099 0.0
C1027 C 0.40578 0.08763 0.3613 0.0
C1028 C 0.406 0.06941 0.37892 0.0
H1029 H 0.45298 0.10445 0.14252 0.0
H1030 H 0.45033 0.09516 0.2061 0.0
C1031 C 0.40095 0.0681 0.41535 0.0
C1032 C 0.41025 0.08931 0.32236 0.0
H1033 H 0.39502 0.07479 0.23898 0.0
C1034 C 0.42474 0.10269 0.31157 0.0
C1035 C 0.39935 0.07913 0.29587 0.0
C1036 C 0.38282 0.0654 0.30553 0.0
C1037 C 0.42821 0.10668 0.27507 0.0
C1038 C 0.4174 0.09641 0.24858 0.0
C1039 C 0.40336 0.08256 0.25935 0.0
C1040 C 0.41919 0.10094 0.20967 0.0
C1041 C 0.44271 0.12256 0.26546 0.0
C1042 C 0.40245 0.10647 0.19019 0.0
C1043 C 0.40384 0.11129 0.15379 0.0
C1044 C 0.42206 0.1109 0.13624 0.0
C1045 C 0.4388 0.10512 0.15556 0.0
C1046 C 0.43732 0.09993 0.1919 0.0
H1047 H 0.44575 0.13237 0.28868 0.0
H1048 H 0.45677 0.11572 0.25727 0.0
H1049 H 0.43727 0.13163 0.24272 0.0
H1050 H 0.38829 0.10735 0.20332 0.0
H1051 H 0.3907 0.11572 0.1396 0.0
H1052 H 0.88974 0.89101 0.68231 0.0
H1053 H 0.88649 0.89862 0.61836 0.0
H1054 H 0.94865 0.90967 0.61191 0.0
H1055 H 0.95213 0.9012 0.6757 0.0
H1056 H 0.89322 0.9306 0.58089 0.0
H1057 H 0.94214 0.87159 0.53104 0.0
H1058 H 0.93431 0.87299 0.57734 0.0
H1059 H 0.95404 0.88821 0.5614 0.0
C1060 C 0.90273 0.89504 0.66727 0.0
C1061 C 0.92122 0.89535 0.68389 0.0
C1062 C 0.90085 0.89941 0.63073 0.0
C1063 C 0.91738 0.90438 0.61015 0.0
C1064 C 0.93579 0.90532 0.62697 0.0
H1065 H 0.90068 0.9527 0.39276 0.0
H1066 H 0.90903 0.94927 0.45662 0.0
C1067 C 0.93773 0.9006 0.66346 0.0
C1068 C 0.91513 0.90851 0.57115 0.0
H1069 H 0.93007 0.89388 0.48764 0.0
C1070 C 0.90129 0.92259 0.56047 0.0
C1071 C 0.92552 0.89789 0.54456 0.0
C1072 C 0.93969 0.8817 0.55408 0.0
C1073 C 0.89726 0.92609 0.52397 0.0
C1074 C 0.90792 0.91573 0.49738 0.0
C1075 C 0.92203 0.90192 0.50806 0.0
C1076 C 0.90379 0.91797 0.45838 0.0
C1077 C 0.88104 0.94022 0.51444 0.0
C1078 C 0.89888 0.90143 0.4378 0.0
C1079 C 0.89458 0.90329 0.40122 0.0
C1080 C 0.89491 0.92177 0.38457 0.0
C1081 C 0.90008 0.93831 0.40502 0.0
C1082 C 0.90473 0.93639 0.44154 0.0
H1083 H 0.87093 0.94265 0.53747 0.0
H1084 H 0.88752 0.95459 0.50711 0.0
H1085 H 0.87236 0.93482 0.49117 0.0
H1086 H 0.89811 0.88707 0.45018 0.0
H1087 H 0.89061 0.89028 0.38618 0.0
H1088 H 0.06575 0.13702 0.90708 0.0
H1089 H 0.0742 0.13309 0.97086 0.0
H1090 H 0.13376 0.11931 0.94148 0.0
H1091 H 0.12563 0.12359 0.87808 0.0
H1092 H 0.08715 0.09937 0.00212 0.0
H1093 H 0.14203 0.15811 0.02243 0.0
H1094 H 0.12602 0.1574 0.98373 0.0
H1095 H 0.14778 0.14252 0.98498 0.0
C1096 C 0.08074 0.13356 0.91426 0.0
C1097 C 0.095 0.13064 0.88746 0.0
C1098 C 0.08553 0.13125 0.95069 0.0
C1099 C 0.10467 0.12611 0.96096 0.0
C1100 C 0.11902 0.12369 0.93431 0.0
H1101 H 0.13576 0.06694 0.16132 0.0
H1102 H 0.13093 0.07556 0.09783 0.0
C1103 C 0.11428 0.12604 0.89798 0.0
C1104 C 0.10932 0.12176 -0.00083 0.0
H1105 H 0.14059 0.1333 0.06782 0.0
C1106 C 0.09875 0.10688 0.01658 0.0
C1107 C 0.12439 0.13164 0.01805 0.0
C1108 C 0.13558 0.14844 0.00147 0.0
C1109 C 0.10298 0.10141 0.05219 0.0
C1110 C 0.11853 0.11079 0.07062 0.0
C1111 C 0.1289 0.12589 0.05343 0.0
C1112 C 0.12349 0.10585 0.10845 0.0
C1113 C 0.0905 0.08592 0.06996 0.0
C1114 C 0.12188 0.12024 0.13523 0.0
C1115 C 0.12485 0.11543 0.17137 0.0
C1116 C 0.12951 0.09611 0.18151 0.0
C1117 C 0.13208 0.08192 0.15445 0.0
C1118 C 0.12917 0.08678 0.1182 0.0
H1119 H 0.07637 0.0838 0.05559 0.0
H1120 H 0.09847 0.07175 0.06967 0.0
H1121 H 0.08734 0.08979 0.09843 0.0
H1122 H 0.11765 0.13507 0.1283 0.0
H1123 H 0.12284 0.12677 0.19146 0.0
H1124 H 0.88176 0.62215 0.44221 0.0
H1125 H 0.87312 0.61612 0.37948 0.0
H1126 H 0.93234 0.62943 0.34721 0.0
H1127 H 0.94131 0.63505 0.4103 0.0
H1128 H 0.87395 0.63821 0.31888 0.0
H1129 H 0.92447 0.5749 0.30575 0.0
H1130 H 0.91889 0.58606 0.3486 0.0
H1131 H 0.93644 0.59721 0.31881 0.0
C1132 C 0.89297 0.62397 0.42182 0.0
C1133 C 0.91231 0.6289 0.43136 0.0
C1134 C 0.88797 0.62051 0.38592 0.0
C1135 C 0.90217 0.62189 0.35876 0.0
C1136 C 0.92126 0.62779 0.36788 0.0
H1137 H 0.883 0.62475 0.1295 0.0
H1138 H 0.88726 0.63231 0.19307 0.0
C1139 C 0.92633 0.63118 0.4039 0.0
C1140 C 0.89697 0.61666 0.32115 0.0
H1141 H 0.90862 0.58557 0.25232 0.0
C1142 C 0.8815 0.62668 0.30433 0.0
C1143 C 0.90652 0.60128 0.30251 0.0
C1144 C 0.92237 0.58909 0.31991 0.0
C1145 C 0.87561 0.62204 0.2691 0.0
C1146 C 0.88574 0.60726 0.2499 0.0
C1147 C 0.90093 0.59696 0.26699 0.0
C1148 C 0.88146 0.6028 0.21157 0.0
C1149 C 0.85843 0.63286 0.253 0.0
C1150 C 0.87694 0.58361 0.20064 0.0
C1151 C 0.87466 0.57914 0.16404 0.0
C1152 C 0.87699 0.5938 0.13776 0.0
C1153 C 0.881 0.6131 0.14897 0.0
C1154 C 0.88333 0.61751 0.18542 0.0
H1155 H 0.84859 0.63874 0.27426 0.0
H1156 H 0.86391 0.64544 0.23699 0.0
H1157 H 0.84974 0.62322 0.23495 0.0
H1158 H 0.87554 0.57201 0.2204 0.0
H1159 H 0.87168 0.56413 0.15632 0.0
H1160 H 0.37077 0.44145 0.66182 0.0
H1161 H 0.37442 0.43308 0.59797 0.0
H1162 H 0.38827 0.37346 0.62693 0.0
H1163 H 0.38426 0.38152 0.69041 0.0
H1164 H 0.40798 0.42025 0.56635 0.0
H1165 H 0.34934 0.36525 0.54627 0.0
H1166 H 0.35013 0.38118 0.58508 0.0
H1167 H 0.36503 0.35943 0.58355 0.0
C1168 C 0.37419 0.42647 0.65454 0.0
C1169 C 0.37721 0.41217 0.68124 0.0
C1170 C 0.37634 0.42173 0.61807 0.0
C1171 C 0.38142 0.40259 0.60766 0.0
C1172 C 0.38392 0.3882 0.63422 0.0
H1173 H 0.44064 0.3716 0.40764 0.0
H1174 H 0.4319 0.37652 0.47103 0.0
C1175 C 0.38173 0.3929 0.67059 0.0
C1176 C 0.38568 0.39799 0.5694 0.0
H1177 H 0.37416 0.36667 0.50083 0.0
C1178 C 0.40049 0.40863 0.55192 0.0
C1179 C 0.37581 0.38291 0.55056 0.0
C1180 C 0.35906 0.37167 0.5672 0.0
C1181 C 0.40593 0.40441 0.51631 0.0
C1182 C 0.3966 0.38881 0.49795 0.0
C1183 C 0.38153 0.3784 0.51518 0.0
C1184 C 0.40159 0.38378 0.46018 0.0
C1185 C 0.42135 0.41695 0.49848 0.0
C1186 C 0.38723 0.38524 0.43332 0.0
C1187 C 0.3921 0.38222 0.39723 0.0
C1188 C 0.41147 0.37765 0.38724 0.0
C1189 C 0.42563 0.37521 0.41439 0.0
C1190 C 0.4207 0.37818 0.45059 0.0
H1191 H 0.42337 0.43112 0.51273 0.0
H1192 H 0.43557 0.40907 0.4989 0.0
H1193 H 0.41749 0.42002 0.46997 0.0
H1194 H 0.37237 0.38941 0.44015 0.0
H1195 H 0.38079 0.38412 0.37706 0.0
H1196 H 0.63667 0.9438 0.65817 0.0
H1197 H 0.63287 0.93553 0.72203 0.0
H1198 H 0.62149 0.87533 0.69357 0.0
H1199 H 0.62565 0.8833 0.63006 0.0
H1200 H 0.59968 0.92157 0.75331 0.0
H1201 H 0.66023 0.86888 0.77512 0.0
H1202 H 0.65904 0.88462 0.73609 0.0
H1203 H 0.64495 0.86235 0.73766 0.0
C1204 C 0.63376 0.92872 0.66556 0.0
C1205 C 0.63149 0.91422 0.63896 0.0
C1206 C 0.63153 0.92403 0.70205 0.0
C1207 C 0.6271 0.90476 0.71263 0.0
C1208 C 0.62533 0.89019 0.68619 0.0
H1209 H 0.56818 0.87223 0.9123 0.0
H1210 H 0.57695 0.87754 0.84903 0.0
C1211 C 0.62761 0.89483 0.64978 0.0
C1212 C 0.62281 0.90015 0.75091 0.0
H1213 H 0.6352 0.86962 0.8202 0.0
C1214 C 0.60754 0.91031 0.76803 0.0
C1215 C 0.63315 0.88554 0.77016 0.0
C1216 C 0.65038 0.87485 0.75395 0.0
C1217 C 0.60212 0.90606 0.80366 0.0
C1218 C 0.61195 0.89091 0.82244 0.0
C1219 C 0.62746 0.88099 0.80556 0.0
C1220 C 0.60696 0.88583 0.86023 0.0
C1221 C 0.58616 0.9181 0.82107 0.0
C1222 C 0.62115 0.88778 0.88729 0.0
C1223 C 0.61627 0.88453 0.92333 0.0
C1224 C 0.59705 0.87924 0.93309 0.0
C1225 C 0.58307 0.8764 0.90575 0.0
C1226 C 0.58801 0.87959 0.8696 0.0
H1227 H 0.58373 0.93216 0.80661 0.0
H1228 H 0.57223 0.90973 0.82047 0.0
H1229 H 0.58976 0.9214 0.84961 0.0
H1230 H 0.63589 0.89244 0.88065 0.0
H1231 H 0.62744 0.88678 0.94363 0.0
H1232 H 0.1292 0.38531 0.44283 0.0
H1233 H 0.13755 0.39106 0.37982 0.0
H1234 H 0.07833 0.37701 0.34862 0.0
H1235 H 0.06967 0.37162 0.4119 0.0
H1236 H 0.13638 0.36847 0.31908 0.0
H1237 H 0.08568 0.43169 0.30677 0.0
H1238 H 0.09171 0.42072 0.34959 0.0
H1239 H 0.07391 0.40939 0.32055 0.0
C1240 C 0.11795 0.38325 0.42261 0.0
C1241 C 0.09869 0.37819 0.43249 0.0
C1242 C 0.12277 0.38656 0.38655 0.0
C1243 C 0.10847 0.38489 0.35961 0.0
C1244 C 0.08948 0.37885 0.36911 0.0
H1245 H 0.12588 0.38208 0.12941 0.0
H1246 H 0.12195 0.37433 0.19304 0.0
C1247 C 0.0846 0.37561 0.40525 0.0
C1248 C 0.1134 0.39004 0.32183 0.0
H1249 H 0.10114 0.42095 0.25306 0.0
C1250 C 0.12871 0.37996 0.30464 0.0
C1251 C 0.10367 0.40535 0.30331 0.0
C1252 C 0.08796 0.41756 0.32106 0.0
C1253 C 0.13426 0.38449 0.26916 0.0
C1254 C 0.12398 0.39923 0.25014 0.0
C1255 C 0.10895 0.40958 0.26759 0.0
C1256 C 0.12804 0.40374 0.21173 0.0
C1257 C 0.15127 0.3736 0.25259 0.0
C1258 C 0.13262 0.42294 0.2009 0.0
C1259 C 0.13472 0.4275 0.16431 0.0
C1260 C 0.13216 0.41295 0.13791 0.0
C1261 C 0.12807 0.39365 0.14898 0.0
C1262 C 0.12592 0.38913 0.18545 0.0
H1263 H 0.1612 0.36757 0.27357 0.0
H1264 H 0.1456 0.36112 0.23653 0.0
H1265 H 0.1599 0.38325 0.23447 0.0
H1266 H 0.13422 0.43447 0.22075 0.0
H1267 H 0.13778 0.44252 0.15672 0.0
H1268 H 0.63799 0.56716 0.66088 0.0
H1269 H 0.63422 0.57536 0.59698 0.0
H1270 H 0.62097 0.63519 0.6254 0.0
H1271 H 0.62509 0.62729 0.68894 0.0
H1272 H 0.60064 0.58841 0.56557 0.0
H1273 H 0.65976 0.64276 0.54424 0.0
H1274 H 0.65894 0.62695 0.58322 0.0
H1275 H 0.64423 0.64882 0.58161 0.0
C1276 C 0.63468 0.58215 0.65347 0.0
C1277 C 0.63186 0.59656 0.68005 0.0
C1278 C 0.63247 0.5868 0.61697 0.0
C1279 C 0.62751 0.60594 0.60639 0.0
C1280 C 0.62521 0.62044 0.63282 0.0
H1281 H 0.56817 0.63679 0.40633 0.0
H1282 H 0.57699 0.63203 0.46973 0.0
C1283 C 0.62747 0.61583 0.66922 0.0
C1284 C 0.62318 0.61044 0.56812 0.0
H1285 H 0.63486 0.64133 0.49896 0.0
C1286 C 0.60821 0.59989 0.55092 0.0
C1287 C 0.63315 0.62535 0.54897 0.0
C1288 C 0.65005 0.63649 0.56533 0.0
C1289 C 0.60274 0.60401 0.51528 0.0
C1290 C 0.61219 0.61942 0.49659 0.0
C1291 C 0.6274 0.62975 0.51356 0.0
C1292 C 0.60717 0.62432 0.45878 0.0
C1293 C 0.58713 0.59157 0.49776 0.0
C1294 C 0.62144 0.62253 0.43183 0.0
C1295 C 0.61653 0.62545 0.39572 0.0
C1296 C 0.59721 0.63024 0.3858 0.0
C1297 C 0.58314 0.633 0.41303 0.0
C1298 C 0.58812 0.63013 0.44924 0.0
H1299 H 0.58497 0.57749 0.51228 0.0
H1300 H 0.57301 0.59962 0.4981 0.0
H1301 H 0.59091 0.5883 0.46929 0.0
H1302 H 0.63627 0.6182 0.43862 0.0
H1303 H 0.62777 0.6233 0.3755 0.0
H1304 H 0.36941 0.06768 0.65851 0.0
H1305 H 0.3737 0.0762 0.72215 0.0
H1306 H 0.3887 0.13538 0.69212 0.0
H1307 H 0.38405 0.12719 0.62882 0.0
H1308 H 0.40759 0.08843 0.75335 0.0
H1309 H 0.35021 0.1448 0.773 0.0
H1310 H 0.35057 0.12871 0.73442 0.0
H1311 H 0.36599 0.15009 0.7356 0.0
C1312 C 0.37324 0.08261 0.66551 0.0
C1313 C 0.37635 0.09675 0.63855 0.0
C1314 C 0.37575 0.08744 0.70187 0.0
C1315 C 0.38131 0.10649 0.71194 0.0
C1316 C 0.38398 0.12072 0.68512 0.0
H1317 H 0.44084 0.13636 0.91269 0.0
H1318 H 0.43229 0.13158 0.84916 0.0
C1319 C 0.38141 0.11594 0.64885 0.0
C1320 C 0.38578 0.11116 0.75012 0.0
H1321 H 0.37487 0.14279 0.81856 0.0
C1322 C 0.40035 0.10023 0.76769 0.0
C1323 C 0.37624 0.12649 0.76886 0.0
C1324 C 0.35975 0.13807 0.75214 0.0
C1325 C 0.40584 0.10437 0.80334 0.0
C1326 C 0.39681 0.12017 0.82164 0.0
C1327 C 0.38201 0.1309 0.80427 0.0
C1328 C 0.40177 0.12505 0.85951 0.0
C1329 C 0.42096 0.0915 0.82128 0.0
C1330 C 0.38726 0.12394 0.88616 0.0
C1331 C 0.39203 0.12689 0.92233 0.0
C1332 C 0.41144 0.13103 0.93264 0.0
C1333 C 0.42579 0.13309 0.9057 0.0
C1334 C 0.42096 0.1302 0.86942 0.0
H1335 H 0.42272 0.0773 0.80702 0.0
H1336 H 0.43533 0.09909 0.82101 0.0
H1337 H 0.41695 0.0885 0.84975 0.0
H1338 H 0.37233 0.12013 0.87911 0.0
H1339 H 0.38058 0.12528 0.94231 0.0
H1340 H 0.88194 0.94354 0.16217 0.0
H1341 H 0.88749 0.93451 0.09923 0.0
H1342 H 0.87537 0.87402 0.12478 0.0
H1343 H 0.87056 0.88287 0.18795 0.0
H1344 H 0.90776 0.87654 0.08719 0.0
H1345 H 0.85118 0.92108 0.01873 0.0
H1346 H 0.86703 0.93584 0.04605 0.0
H1347 H 0.85151 0.91775 0.06693 0.0
C1348 C 0.88007 0.92838 0.15422 0.0
C1349 C 0.87577 0.91392 0.18 0.0
C1350 C 0.88319 0.92323 0.11817 0.0
C1351 C 0.88162 0.90359 0.10706 0.0
C1352 C 0.87667 0.88926 0.13263 0.0
H1353 H 0.88263 0.87053 0.8806 0.0
H1354 H 0.87388 0.8753 0.94382 0.0
C1355 C 0.87385 0.89435 0.16872 0.0
C1356 C 0.88642 0.89775 0.06947 0.0
H1357 H 0.87635 0.90771 0.98127 0.0
C1358 C 0.90074 0.88324 0.06403 0.0
C1359 C 0.87714 0.90628 0.03919 0.0
C1360 C 0.86072 0.92095 0.04299 0.0
C1361 C 0.90625 0.87726 0.02926 0.0
C1362 C 0.89765 0.88647 -0.00102 0.0
C1363 C 0.8831 0.90075 0.00443 0.0
C1364 C 0.90345 0.88165 0.96138 0.0
C1365 C 0.92097 0.86088 0.02547 0.0
C1366 C 0.92306 0.88327 0.95017 0.0
C1367 C 0.92816 0.88017 0.91408 0.0
C1368 C 0.91368 0.87583 0.88838 0.0
C1369 C 0.89413 0.87385 0.89977 0.0
C1370 C 0.8891 0.87665 0.93589 0.0
H1371 H 0.92117 0.85136 0.04977 0.0
H1372 H 0.91778 0.85163 0.00157 0.0
H1373 H 0.93583 0.86724 0.02233 0.0
H1374 H 0.93435 0.88761 0.96904 0.0
H1375 H 0.9433 0.88209 0.90605 0.0
loop_
_geom_bond_atom_site_label_1
_geom_bond_atom_site_label_2
_geom_bond_distance
_geom_bond_site_symmetry_2
_ccdc_geom_bond_type
C0 O2 1.247 . S
C0 O4 1.258 . S
C1 O8 1.247 . S
C1 O9 1.258 . S
O2 C0 1.247 . S
O2 Zn3 2.028 . S
Zn3 O2 2.028 . S
Zn3 O7 2.035 . S
Zn3 O9 2.035 . S
Zn3 O10 2.028 . S
O4 C0 1.258 . S
O4 Zn5 2.035 . S
Zn5 O4 2.035 . S
Zn5 O6 2.028 . S
Zn5 O8 2.028 . S
Zn5 O11 2.035 . S
O6 Zn5 2.028 . S
O6 C12 1.247 . S
O7 Zn3 2.035 . S
O7 C12 1.258 . S
O8 C1 1.247 . S
O8 Zn5 2.028 . S
O9 C1 1.258 . S
O9 Zn3 2.035 . S
O10 Zn3 2.028 . S
O10 C13 1.247 . S
O11 Zn5 2.035 . S
O11 C13 1.258 . S
C12 O6 1.247 . S
C12 O7 1.258 . S
C13 O10 1.247 . S
C13 O11 1.258 . S
C14 O16 1.247 . S
C14 O18 1.258 . S
C15 O22 1.247 . S
C15 O23 1.258 . S
O16 C14 1.247 . S
O16 Zn17 2.028 . S
Zn17 O16 2.028 . S
Zn17 O21 2.035 . S
Zn17 O23 2.035 . S
Zn17 O24 2.028 . S
O18 C14 1.258 . S
O18 Zn19 2.035 . S
Zn19 O18 2.035 . S
Zn19 O20 2.028 . S
Zn19 O22 2.028 . S
Zn19 O25 2.035 . S
O20 Zn19 2.028 . S
O20 C26 1.247 . S
O21 Zn17 2.035 . S
O21 C26 1.258 . S
O22 C15 1.247 . S
O22 Zn19 2.028 . S
O23 C15 1.258 . S
O23 Zn17 2.035 . S
O24 Zn17 2.028 . S
O24 C27 1.247 . S
O25 Zn19 2.035 . S
O25 C27 1.258 . S
C26 O20 1.247 . S
C26 O21 1.258 . S
C27 O24 1.247 . S
C27 O25 1.258 . S
C28 O30 1.247 . S
C28 O32 1.258 . S
C29 O36 1.247 . S
C29 O37 1.258 . S
O30 C28 1.247 . S
O30 Zn31 2.028 . S
Zn31 O30 2.028 . S
Zn31 O35 2.035 . S
Zn31 O37 2.035 . S
Zn31 O38 2.028 . S
O32 C28 1.258 . S
O32 Zn33 2.035 . S
Zn33 O32 2.035 . S
Zn33 O34 2.028 . S
Zn33 O36 2.028 . S
Zn33 O39 2.035 . S
O34 Zn33 2.028 . S
O34 C40 1.247 . S
O35 Zn31 2.035 . S
O35 C40 1.258 . S
O36 C29 1.247 . S
O36 Zn33 2.028 . S
O37 C29 1.258 . S
O37 Zn31 2.035 . S
O38 Zn31 2.028 . S
O38 C41 1.247 . S
O39 Zn33 2.035 . S
O39 C41 1.258 . S
C40 O34 1.247 . S
C40 O35 1.258 . S
C41 O38 1.247 . S
C41 O39 1.258 . S
C42 O44 1.247 . S
C42 O46 1.258 . S
C43 O50 1.256 . S
C43 O51 1.258 1_556 S
O44 C42 1.247 . S
O44 Zn45 2.028 . S
Zn45 O44 2.028 . S
Zn45 O49 2.035 . S
Zn45 O51 2.035 . S
Zn45 O52 2.028 . S
O46 C42 1.258 . S
O46 Zn47 2.035 . S
Zn47 O46 2.035 . S
Zn47 O48 2.028 . S
Zn47 O50 2.007 1_554 S
Zn47 O53 2.035 . S
O48 Zn47 2.028 . S
O48 C54 1.247 . S
O49 Zn45 2.035 . S
O49 C54 1.258 . S
O50 C43 1.256 . S
O50 Zn47 2.007 1_556 S
O51 C43 1.258 1_554 S
O51 Zn45 2.035 . S
O52 Zn45 2.028 . S
O52 C55 1.247 . S
O53 Zn47 2.035 . S
O53 C55 1.258 . S
C54 O48 1.247 . S
C54 O49 1.258 . S
C55 O52 1.247 . S
C55 O53 1.258 . S
C56 O58 1.247 . S
C56 O60 1.258 . S
C57 O64 1.247 . S
C57 O65 1.258 . S
O58 C56 1.247 . S
O58 Zn59 2.028 . S
Zn59 O58 2.028 . S
Zn59 O63 2.035 . S
Zn59 O65 2.035 . S
Zn59 O66 2.028 1_554 S
O60 C56 1.258 . S
O60 Zn61 2.035 . S
Zn61 O60 2.035 . S
Zn61 O62 2.028 . S
Zn61 O64 2.028 . S
Zn61 O67 2.035 1_554 S
O62 Zn61 2.028 . S
O62 C68 1.247 . S
O63 Zn59 2.035 . S
O63 C68 1.258 . S
O64 C57 1.247 . S
O64 Zn61 2.028 . S
O65 C57 1.258 . S
O65 Zn59 2.035 . S
O66 Zn59 2.028 1_556 S
O66 C69 1.247 . S
O67 Zn61 2.035 1_556 S
O67 C69 1.258 . S
C68 O62 1.247 . S
C68 O63 1.258 . S
C69 O66 1.247 . S
C69 O67 1.258 . S
C70 O72 1.247 . S
C70 O74 1.258 . S
C71 O78 1.247 . S
C71 O79 1.258 . S
O72 C70 1.247 . S
O72 Zn73 2.028 . S
Zn73 O72 2.028 . S
Zn73 O77 2.035 . S
Zn73 O79 2.035 . S
Zn73 O80 2.028 . S
O74 C70 1.258 . S
O74 Zn75 2.035 . S
Zn75 O74 2.035 . S
Zn75 O76 2.028 . S
Zn75 O78 2.028 . S
Zn75 O81 2.035 . S
O76 Zn75 2.028 . S
O76 C82 1.247 . S
O77 Zn73 2.035 . S
O77 C82 1.258 . S
O78 C71 1.247 . S
O78 Zn75 2.028 . S
O79 C71 1.258 . S
O79 Zn73 2.035 . S
O80 Zn73 2.028 . S
O80 C83 1.247 . S
O81 Zn75 2.035 . S
O81 C83 1.258 . S
C82 O76 1.247 . S
C82 O77 1.258 . S
C83 O80 1.247 . S
C83 O81 1.258 . S
C84 O86 1.247 . S
C84 O88 1.258 . S
C85 O92 1.247 . S
C85 O93 1.258 . S
O86 C84 1.247 . S
O86 Zn87 2.028 . S
Zn87 O86 2.028 . S
Zn87 O91 2.035 . S
Zn87 O93 2.035 . S
Zn87 O94 2.028 . S
O88 C84 1.258 . S
O88 Zn89 2.035 . S
Zn89 O88 2.035 . S
Zn89 O90 2.028 . S
Zn89 O92 2.028 . S
Zn89 O95 2.035 . S
O90 Zn89 2.028 . S
O90 C96 1.247 . S
O91 Zn87 2.035 . S
O91 C96 1.258 . S
O92 C85 1.247 . S
O92 Zn89 2.028 . S
O93 C85 1.258 . S
O93 Zn87 2.035 . S
O94 Zn87 2.028 . S
O94 C97 1.247 . S
O95 Zn89 2.035 . S
O95 C97 1.258 . S
C96 O90 1.247 . S
C96 O91 1.258 . S
C97 O94 1.247 . S
C97 O95 1.258 . S
C98 O100 1.247 . S
C98 O102 1.258 . S
C99 O106 1.247 . S
C99 O107 1.258 . S
O100 C98 1.247 . S
O100 Zn101 2.028 . S
Zn101 O100 2.028 . S
Zn101 O105 2.035 . S
Zn101 O107 2.035 . S
Zn101 O108 2.028 . S
O102 C98 1.258 . S
O102 Zn103 2.035 . S
Zn103 O102 2.035 . S
Zn103 O104 2.028 . S
Zn103 O106 2.028 . S
Zn103 O109 2.035 . S
O104 Zn103 2.028 . S
O104 C110 1.247 . S
O105 Zn101 2.035 . S
O105 C110 1.258 . S
O106 C99 1.247 . S
O106 Zn103 2.028 . S
O107 C99 1.258 . S
O107 Zn101 2.035 . S
O108 Zn101 2.028 . S
O108 C111 1.247 . S
O109 Zn103 2.035 . S
O109 C111 1.258 . S
C110 O104 1.247 . S
C110 O105 1.258 . S
C111 O108 1.247 . S
C111 O109 1.258 . S
C112 O114 1.247 . S
C112 O116 1.258 . S
C113 O120 1.247 . S
C113 O121 1.258 . S
O114 C112 1.247 . S
O114 Zn115 2.028 . S
Zn115 O114 2.028 . S
Zn115 O119 2.035 . S
Zn115 O121 2.035 . S
Zn115 O122 2.028 . S
O116 C112 1.258 . S
O116 Zn117 2.035 . S
Zn117 O116 2.035 . S
Zn117 O118 2.028 . S
Zn117 O120 2.028 . S
Zn117 O123 2.035 . S
O118 Zn117 2.028 . S
O118 C124 1.247 . S
O119 Zn115 2.035 . S
O119 C124 1.258 . S
O120 C113 1.247 . S
O120 Zn117 2.028 . S
O121 C113 1.258 . S
O121 Zn115 2.035 . S
O122 Zn115 2.028 . S
O122 C125 1.247 . S
O123 Zn117 2.035 . S
O123 C125 1.258 . S
C124 O118 1.247 . S
C124 O119 1.258 . S
C125 O122 1.247 . S
C125 O123 1.258 . S
C126 O128 1.247 . S
C126 O130 1.258 . S
C127 O134 1.256 . S
C127 O135 1.258 1_556 S
O128 C126 1.247 . S
O128 Zn129 2.028 . S
Zn129 O128 2.028 . S
Zn129 O133 2.035 . S
Zn129 O135 2.035 . S
Zn129 O136 2.028 . S
O130 C126 1.258 . S
O130 Zn131 2.035 . S
Zn131 O130 2.035 . S
Zn131 O132 2.028 . S
Zn131 O134 2.007 1_554 S
Zn131 O137 2.035 . S
O132 Zn131 2.028 . S
O132 C138 1.247 . S
O133 Zn129 2.035 . S
O133 C138 1.258 . S
O134 C127 1.256 . S
O134 Zn131 2.007 1_556 S
O135 C127 1.258 1_554 S
O135 Zn129 2.035 . S
O136 Zn129 2.028 . S
O136 C139 1.247 . S
O137 Zn131 2.035 . S
O137 C139 1.258 . S
C138 O132 1.247 . S
C138 O133 1.258 . S
C139 O136 1.247 . S
C139 O137 1.258 . S
C140 O142 1.247 . S
C140 O144 1.258 . S
C141 O148 1.247 . S
C141 O149 1.258 . S
O142 C140 1.247 . S
O142 Zn143 2.028 . S
Zn143 O142 2.028 . S
Zn143 O147 2.035 . S
Zn143 O149 2.035 . S
Zn143 O150 2.028 . S
O144 C140 1.258 . S
O144 Zn145 2.035 . S
Zn145 O144 2.035 . S
Zn145 O146 2.028 . S
Zn145 O148 2.028 . S
Zn145 O151 2.035 . S
O146 Zn145 2.028 . S
O146 C152 1.247 . S
O147 Zn143 2.035 . S
O147 C152 1.258 . S
O148 C141 1.247 . S
O148 Zn145 2.028 . S
O149 C141 1.258 . S
O149 Zn143 2.035 . S
O150 Zn143 2.028 . S
O150 C153 1.247 . S
O151 Zn145 2.035 . S
O151 C153 1.258 . S
C152 O146 1.247 . S
C152 O147 1.258 . S
C153 O150 1.247 . S
C153 O151 1.258 . S
C154 O156 1.247 . S
C154 O158 1.258 . S
C155 O162 1.247 . S
C155 O163 1.258 . S
O156 C154 1.247 . S
O156 Zn157 2.028 . S
Zn157 O156 2.028 . S
Zn157 O161 2.035 . S
Zn157 O163 2.035 . S
Zn157 O164 2.028 . S
O158 C154 1.258 . S
O158 Zn159 2.035 . S
Zn159 O158 2.035 . S
Zn159 O160 2.028 . S
Zn159 O162 2.028 . S
Zn159 O165 2.035 . S
O160 Zn159 2.028 . S
O160 C166 1.247 . S
O161 Zn157 2.035 . S
O161 C166 1.258 . S
O162 C155 1.247 . S
O162 Zn159 2.028 . S
O163 C155 1.258 . S
O163 Zn157 2.035 . S
O164 Zn157 2.028 . S
O164 C167 1.247 . S
O165 Zn159 2.035 . S
O165 C167 1.258 . S
C166 O160 1.247 . S
C166 O161 1.258 . S
C167 O164 1.247 . S
C167 O165 1.258 . S
C168 O170 1.247 . S
C168 O172 1.258 . S
C169 O176 1.247 . S
C169 O177 1.258 . S
O170 C168 1.247 . S
O170 Zn171 2.028 . S
Zn171 O170 2.028 . S
Zn171 O175 2.035 . S
Zn171 O177 2.035 . S
Zn171 O178 2.028 . S
O172 C168 1.258 . S
O172 Zn173 2.035 . S
Zn173 O172 2.035 . S
Zn173 O174 2.028 . S
Zn173 O176 2.028 . S
Zn173 O179 2.035 . S
O174 Zn173 2.028 . S
O174 C180 1.247 . S
O175 Zn171 2.035 . S
O175 C180 1.258 . S
O176 C169 1.247 . S
O176 Zn173 2.028 . S
O177 C169 1.258 . S
O177 Zn171 2.035 . S
O178 Zn171 2.028 . S
O178 C181 1.247 . S
O179 Zn173 2.035 . S
O179 C181 1.258 . S
C180 O174 1.247 . S
C180 O175 1.258 . S
C181 O178 1.247 . S
C181 O179 1.258 . S
C182 O184 1.247 . S
C182 O186 1.258 . S
C183 O190 1.247 . S
C183 O191 1.258 . S
O184 C182 1.247 . S
O184 Zn185 2.028 . S
Zn185 O184 2.028 . S
Zn185 O189 2.035 . S
Zn185 O191 2.035 . S
Zn185 O192 2.028 . S
O186 C182 1.258 . S
O186 Zn187 2.035 . S
Zn187 O186 2.035 . S
Zn187 O188 2.028 . S
Zn187 O190 2.028 . S
Zn187 O193 2.035 . S
O188 Zn187 2.028 . S
O188 C194 1.247 . S
O189 Zn185 2.035 . S
O189 C194 1.258 . S
O190 C183 1.247 . S
O190 Zn187 2.028 . S
O191 C183 1.258 . S
O191 Zn185 2.035 . S
O192 Zn185 2.028 . S
O192 C195 1.247 . S
O193 Zn187 2.035 . S
O193 C195 1.258 . S
C194 O188 1.247 . S
C194 O189 1.258 . S
C195 O192 1.247 . S
C195 O193 1.258 . S
C196 O198 1.247 . S
C196 O200 1.258 . S
C197 O204 1.247 . S
C197 O205 1.258 . S
O198 C196 1.247 . S
O198 Zn199 2.028 . S
Zn199 O198 2.028 . S
Zn199 O203 2.035 1_554 S
Zn199 O205 2.035 . S
Zn199 O206 2.028 . S
O200 C196 1.258 . S
O200 Zn201 2.035 . S
Zn201 O200 2.035 . S
Zn201 O202 2.028 1_554 S
Zn201 O204 2.028 . S
Zn201 O207 2.035 . S
O202 Zn201 2.028 1_556 S
O202 C208 1.247 . S
O203 Zn199 2.035 1_556 S
O203 C208 1.258 . S
O204 C197 1.247 . S
O204 Zn201 2.028 . S
O205 C197 1.258 . S
O205 Zn199 2.035 . S
O206 Zn199 2.028 . S
O206 C209 1.247 . S
O207 Zn201 2.035 . S
O207 C209 1.258 . S
C208 O202 1.247 . S
C208 O203 1.258 . S
C209 O206 1.247 . S
C209 O207 1.258 . S
C210 O212 1.247 . S
C210 O214 1.258 . S
C211 O218 1.247 . S
C211 O219 1.258 . S
O212 C210 1.247 . S
O212 Zn213 2.028 . S
Zn213 O212 2.028 . S
Zn213 O217 2.035 . S
Zn213 O219 2.035 . S
Zn213 O220 2.028 . S
O214 C210 1.258 . S
O214 Zn215 2.035 . S
Zn215 O214 2.035 . S
Zn215 O216 2.028 . S
Zn215 O218 2.028 . S
Zn215 O221 2.035 . S
O216 Zn215 2.028 . S
O216 C222 1.247 . S
O217 Zn213 2.035 . S
O217 C222 1.258 . S
O218 C211 1.247 . S
O218 Zn215 2.028 . S
O219 C211 1.258 . S
O219 Zn213 2.035 . S
O220 Zn213 2.028 . S
O220 C223 1.247 . S
O221 Zn215 2.035 . S
O221 C223 1.258 . S
C222 O216 1.247 . S
C222 O217 1.258 . S
C223 O220 1.247 . S
C223 O221 1.258 . S
H224 C232 0.929 . S
H225 C234 0.930 . S
H226 C236 0.930 . S
H227 C239 0.929 . S
H228 C242 0.930 . S
H229 C244 0.960 . S
H230 C244 0.960 . S
H231 C244 0.960 . S
C232 H224 0.929 . S
C232 C233 1.377 . S
C232 C234 1.384 . S
C233 C232 1.377 . S
C233 C239 1.390 . S
C234 H225 0.930 . S
C234 C232 1.384 . S
C234 C235 1.372 . S
C235 C234 1.372 . S
C235 C236 1.400 . S
C235 C240 1.490 . S
C236 H226 0.930 . S
C236 C235 1.400 . S
C236 C239 1.386 . S
H237 C253 0.930 . S
H238 C254 0.931 . S
C239 H227 0.929 . S
C239 C233 1.390 . S
C239 C236 1.386 . S
C240 C235 1.490 . S
C240 C242 1.395 . S
C240 C243 1.403 . S
H241 C247 0.930 . S
C242 H228 0.930 . S
C242 C240 1.395 . S
C242 C245 1.403 . S
C243 C240 1.403 . S
C243 C244 1.524 . S
C243 C247 1.400 . S
C244 H229 0.960 . S
C244 H230 0.960 . S
C244 H231 0.960 . S
C244 C243 1.524 . S
C245 C242 1.403 . S
C245 C246 1.392 . S
C245 C249 1.495 . S
C246 C245 1.392 . S
C246 C247 1.385 . S
C246 C248 1.478 . S
C247 H241 0.930 . S
C247 C243 1.400 . S
C247 C246 1.385 . S
C248 C246 1.478 . S
C248 C250 1.381 . S
C248 C254 1.383 . S
C249 C245 1.495 . S
C249 H255 0.959 . S
C249 H256 0.961 . S
C249 H257 0.960 . S
C250 C248 1.381 . S
C250 C251 1.394 . S
C250 H258 0.930 . S
C251 C250 1.394 . S
C251 C252 1.383 . S
C251 H259 0.929 . S
C252 C251 1.383 . S
C252 C253 1.377 . S
C253 H237 0.930 . S
C253 C252 1.377 . S
C253 C254 1.379 . S
C254 H238 0.931 . S
C254 C248 1.383 . S
C254 C253 1.379 . S
H255 C249 0.959 . S
H256 C249 0.961 . S
H257 C249 0.960 . S
H258 C250 0.930 . S
H259 C251 0.929 . S
H260 C268 0.929 . S
H261 C270 0.930 . S
H262 C272 0.930 . S
H263 C275 0.929 . S
H264 C278 0.930 . S
H265 C280 0.960 . S
H266 C280 0.960 . S
H267 C280 0.960 . S
C268 H260 0.929 . S
C268 C269 1.377 . S
C268 C270 1.384 . S
C269 C268 1.377 . S
C269 C275 1.390 . S
C270 H261 0.930 . S
C270 C268 1.384 . S
C270 C271 1.372 . S
C271 C270 1.372 . S
C271 C272 1.400 . S
C271 C276 1.490 . S
C272 H262 0.930 . S
C272 C271 1.400 . S
C272 C275 1.386 . S
H273 C289 0.930 . S
H274 C290 0.931 . S
C275 H263 0.929 . S
C275 C269 1.390 . S
C275 C272 1.386 . S
C276 C271 1.490 . S
C276 C278 1.395 . S
C276 C279 1.403 . S
H277 C283 0.930 . S
C278 H264 0.930 . S
C278 C276 1.395 . S
C278 C281 1.403 . S
C279 C276 1.403 . S
C279 C280 1.524 . S
C279 C283 1.400 . S
C280 H265 0.960 . S
C280 H266 0.960 . S
C280 H267 0.960 . S
C280 C279 1.524 . S
C281 C278 1.403 . S
C281 C282 1.392 . S
C281 C285 1.495 . S
C282 C281 1.392 . S
C282 C283 1.385 . S
C282 C284 1.478 . S
C283 H277 0.930 . S
C283 C279 1.400 . S
C283 C282 1.385 . S
C284 C282 1.478 . S
C284 C286 1.381 . S
C284 C290 1.383 . S
C285 C281 1.495 . S
C285 H291 0.959 . S
C285 H292 0.961 . S
C285 H293 0.960 . S
C286 C284 1.381 . S
C286 C287 1.394 . S
C286 H294 0.930 . S
C287 C286 1.394 . S
C287 C288 1.383 . S
C287 H295 0.929 . S
C288 C287 1.383 . S
C288 C289 1.377 . S
C289 H273 0.930 . S
C289 C288 1.377 . S
C289 C290 1.379 . S
C290 H274 0.931 . S
C290 C284 1.383 . S
C290 C289 1.379 . S
H291 C285 0.959 . S
H292 C285 0.961 . S
H293 C285 0.960 . S
H294 C286 0.930 . S
H295 C287 0.929 . S
H296 C304 0.929 . S
H297 C306 0.930 . S
H298 C308 0.930 . S
H299 C311 0.929 . S
H300 C314 0.930 . S
H301 C316 0.960 . S
H302 C316 0.960 . S
H303 C316 0.960 . S
C304 H296 0.929 . S
C304 C305 1.377 . S
C304 C306 1.384 . S
C305 C304 1.377 . S
C305 C311 1.390 . S
C306 H297 0.930 . S
C306 C304 1.384 . S
C306 C307 1.372 . S
C307 C306 1.372 . S
C307 C308 1.400 . S
C307 C312 1.490 . S
C308 H298 0.930 . S
C308 C307 1.400 . S
C308 C311 1.386 . S
H309 C325 0.930 . S
H310 C326 0.931 . S
C311 H299 0.929 . S
C311 C305 1.390 . S
C311 C308 1.386 . S
C312 C307 1.490 . S
C312 C314 1.395 . S
C312 C315 1.403 . S
H313 C319 0.930 . S
C314 H300 0.930 . S
C314 C312 1.395 . S
C314 C317 1.403 . S
C315 C312 1.403 . S
C315 C316 1.524 . S
C315 C319 1.400 . S
C316 H301 0.960 . S
C316 H302 0.960 . S
C316 H303 0.960 . S
C316 C315 1.524 . S
C317 C314 1.403 . S
C317 C318 1.392 . S
C317 C321 1.495 . S
C318 C317 1.392 . S
C318 C319 1.385 . S
C318 C320 1.478 . S
C319 H313 0.930 . S
C319 C315 1.400 . S
C319 C318 1.385 . S
C320 C318 1.478 . S
C320 C322 1.381 . S
C320 C326 1.383 . S
C321 C317 1.495 . S
C321 H327 0.959 . S
C321 H328 0.947 1_556 S
C321 H329 0.960 . S
C322 C320 1.381 . S
C322 C323 1.394 . S
C322 H330 0.930 . S
C323 C322 1.394 . S
C323 C324 1.383 . S
C323 H331 0.929 . S
C324 C323 1.383 . S
C324 C325 1.377 . S
C325 H309 0.930 . S
C325 C324 1.377 . S
C325 C326 1.379 . S
C326 H310 0.931 . S
C326 C320 1.383 . S
C326 C325 1.379 . S
H327 C321 0.959 . S
H328 C321 0.947 1_554 S
H329 C321 0.960 . S
H330 C322 0.930 . S
H331 C323 0.929 . S
H332 C340 0.929 . S
H333 C342 0.930 . S
H334 C344 0.930 . S
H335 C347 0.929 . S
H336 C350 0.930 . S
H337 C352 0.960 . S
H338 C352 0.960 . S
H339 C352 0.960 . S
C340 H332 0.929 . S
C340 C341 1.377 . S
C340 C342 1.384 . S
C341 C340 1.377 . S
C341 C347 1.390 . S
C342 H333 0.930 . S
C342 C340 1.384 . S
C342 C343 1.372 . S
C343 C342 1.372 . S
C343 C344 1.400 . S
C343 C348 1.490 . S
C344 H334 0.930 . S
C344 C343 1.400 . S
C344 C347 1.386 . S
H345 C361 0.930 . S
H346 C362 0.931 . S
C347 H335 0.929 . S
C347 C341 1.390 . S
C347 C344 1.386 . S
C348 C343 1.490 . S
C348 C350 1.395 . S
C348 C351 1.403 . S
H349 C355 0.930 . S
C350 H336 0.930 . S
C350 C348 1.395 . S
C350 C353 1.403 . S
C351 C348 1.403 . S
C351 C352 1.524 . S
C351 C355 1.400 . S
C352 H337 0.960 . S
C352 H338 0.960 . S
C352 H339 0.960 . S
C352 C351 1.524 . S
C353 C350 1.403 . S
C353 C354 1.392 . S
C353 C357 1.495 . S
C354 C353 1.392 . S
C354 C355 1.385 . S
C354 C356 1.478 . S
C355 H349 0.930 . S
C355 C351 1.400 . S
C355 C354 1.385 . S
C356 C354 1.478 . S
C356 C358 1.381 . S
C356 C362 1.383 . S
C357 C353 1.495 . S
C357 H363 0.959 . S
C357 H364 0.961 . S
C357 H365 0.960 . S
C358 C356 1.381 . S
C358 C359 1.394 . S
C358 H366 0.930 . S
C359 C358 1.394 . S
C359 C360 1.383 . S
C359 H367 0.929 . S
C360 C359 1.383 . S
C360 C361 1.377 . S
C361 H345 0.930 . S
C361 C360 1.377 . S
C361 C362 1.379 . S
C362 H346 0.931 . S
C362 C356 1.383 . S
C362 C361 1.379 . S
H363 C357 0.959 . S
H364 C357 0.961 . S
H365 C357 0.960 . S
H366 C358 0.930 . S
H367 C359 0.929 . S
H368 C376 0.929 . S
H369 C378 0.930 . S
H370 C380 0.930 . S
H371 C383 0.929 . S
H372 C386 0.930 . S
H373 C388 0.960 . S
H374 C388 0.960 . S
H375 C388 0.960 . S
C376 H368 0.929 . S
C376 C377 1.377 . S
C376 C378 1.384 . S
C377 C376 1.377 . S
C377 C383 1.390 . S
C378 H369 0.930 . S
C378 C376 1.384 . S
C378 C379 1.372 . S
C379 C378 1.372 . S
C379 C380 1.400 . S
C379 C384 1.490 . S
C380 H370 0.930 . S
C380 C379 1.400 . S
C380 C383 1.386 . S
H381 C397 0.930 1_554 S
H382 C398 0.931 . S
C383 H371 0.929 . S
C383 C377 1.390 . S
C383 C380 1.386 . S
C384 C379 1.490 . S
C384 C386 1.395 . S
C384 C387 1.403 . S
H385 C391 0.930 . S
C386 H372 0.930 . S
C386 C384 1.395 . S
C386 C389 1.403 . S
C387 C384 1.403 . S
C387 C388 1.524 . S
C387 C391 1.400 . S
C388 H373 0.960 . S
C388 H374 0.960 . S
C388 H375 0.960 . S
C388 C387 1.524 . S
C389 C386 1.403 . S
C389 C390 1.392 . S
C389 C393 1.495 . S
C390 C389 1.392 . S
C390 C391 1.385 . S
C390 C392 1.478 . S
C391 H385 0.930 . S
C391 C387 1.400 . S
C391 C390 1.385 . S
C392 C390 1.478 . S
C392 C394 1.381 . S
C392 C398 1.383 . S
C393 C389 1.495 . S
C393 H399 0.959 . S
C393 H400 0.961 . S
C393 H401 0.960 . S
C394 C392 1.381 . S
C394 C395 1.394 . S
C394 H402 0.930 . S
C395 C394 1.394 . S
C395 C396 1.383 . S
C395 H403 0.929 . S
C396 C395 1.383 . S
C396 C397 1.377 . S
C397 H381 0.930 1_556 S
C397 C396 1.377 . S
C397 C398 1.379 . S
C398 H382 0.931 . S
C398 C392 1.383 . S
C398 C397 1.379 . S
H399 C393 0.959 . S
H400 C393 0.961 . S
H401 C393 0.960 . S
H402 C394 0.930 . S
H403 C395 0.929 . S
H404 C412 0.929 . S
H405 C414 0.930 . S
H406 C416 0.930 . S
H407 C419 0.929 . S
H408 C422 0.930 . S
H409 C424 0.960 . S
H410 C424 0.960 . S
H411 C424 0.960 . S
C412 H404 0.929 . S
C412 C413 1.377 . S
C412 C414 1.384 . S
C413 C412 1.377 . S
C413 C419 1.390 . S
C414 H405 0.930 . S
C414 C412 1.384 . S
C414 C415 1.372 . S
C415 C414 1.372 . S
C415 C416 1.400 . S
C415 C420 1.490 . S
C416 H406 0.930 . S
C416 C415 1.400 . S
C416 C419 1.386 . S
H417 C433 0.930 . S
H418 C434 0.931 . S
C419 H407 0.929 . S
C419 C413 1.390 . S
C419 C416 1.386 . S
C420 C415 1.490 . S
C420 C422 1.395 . S
C420 C423 1.403 . S
H421 C427 0.930 . S
C422 H408 0.930 . S
C422 C420 1.395 . S
C422 C425 1.403 . S
C423 C420 1.403 . S
C423 C424 1.524 . S
C423 C427 1.400 . S
C424 H409 0.960 . S
C424 H410 0.960 . S
C424 H411 0.960 . S
C424 C423 1.524 . S
C425 C422 1.403 . S
C425 C426 1.392 . S
C425 C429 1.495 . S
C426 C425 1.392 . S
C426 C427 1.385 . S
C426 C428 1.478 . S
C427 H421 0.930 . S
C427 C423 1.400 . S
C427 C426 1.385 . S
C428 C426 1.478 . S
C428 C430 1.381 . S
C428 C434 1.383 . S
C429 C425 1.495 . S
C429 H435 0.959 . S
C429 H436 0.961 . S
C429 H437 0.960 . S
C430 C428 1.381 . S
C430 C431 1.394 . S
C430 H438 0.930 . S
C431 C430 1.394 . S
C431 C432 1.383 . S
C431 H439 0.929 . S
C432 C431 1.383 . S
C432 C433 1.377 . S
C433 H417 0.930 . S
C433 C432 1.377 . S
C433 C434 1.379 . S
C434 H418 0.931 . S
C434 C428 1.383 . S
C434 C433 1.379 . S
H435 C429 0.959 . S
H436 C429 0.961 . S
H437 C429 0.960 . S
H438 C430 0.930 . S
H439 C431 0.929 . S
H440 C448 0.929 . S
H441 C450 0.930 . S
H442 C452 0.930 . S
H443 C455 0.929 . S
H444 C458 0.930 . S
H445 C460 0.960 . S
H446 C460 0.960 . S
H447 C460 0.960 . S
C448 H440 0.929 . S
C448 C449 1.377 . S
C448 C450 1.384 . S
C449 C448 1.377 . S
C449 C455 1.390 . S
C450 H441 0.930 . S
C450 C448 1.384 . S
C450 C451 1.372 . S
C451 C450 1.372 . S
C451 C452 1.400 . S
C451 C456 1.490 . S
C452 H442 0.930 . S
C452 C451 1.400 . S
C452 C455 1.386 . S
H453 C469 0.930 . S
H454 C470 0.931 . S
C455 H443 0.929 . S
C455 C449 1.390 . S
C455 C452 1.386 . S
C456 C451 1.490 . S
C456 C458 1.395 . S
C456 C459 1.403 . S
H457 C463 0.930 . S
C458 H444 0.930 . S
C458 C456 1.395 . S
C458 C461 1.403 . S
C459 C456 1.403 . S
C459 C460 1.524 . S
C459 C463 1.400 . S
C460 H445 0.960 . S
C460 H446 0.960 . S
C460 H447 0.960 . S
C460 C459 1.524 . S
C461 C458 1.403 . S
C461 C462 1.392 . S
C461 C465 1.495 . S
C462 C461 1.392 . S
C462 C463 1.385 . S
C462 C464 1.478 . S
C463 H457 0.930 . S
C463 C459 1.400 . S
C463 C462 1.385 . S
C464 C462 1.478 . S
C464 C466 1.381 . S
C464 C470 1.383 . S
C465 C461 1.495 . S
C465 H471 0.959 . S
C465 H472 0.961 . S
C465 H473 0.960 . S
C466 C464 1.381 . S
C466 C467 1.394 . S
C466 H474 0.930 . S
C467 C466 1.394 . S
C467 C468 1.383 . S
C467 H475 0.929 . S
C468 C467 1.383 . S
C468 C469 1.377 . S
C469 H453 0.930 . S
C469 C468 1.377 . S
C469 C470 1.379 . S
C470 H454 0.931 . S
C470 C464 1.383 . S
C470 C469 1.379 . S
H471 C465 0.959 . S
H472 C465 0.961 . S
H473 C465 0.960 . S
H474 C466 0.930 . S
H475 C467 0.929 . S
H476 C484 0.929 . S
H477 C486 0.930 . S
H478 C488 0.930 . S
H479 C491 0.929 . S
H480 C494 0.930 . S
H481 C496 0.960 . S
H482 C496 0.960 . S
H483 C496 0.960 . S
C484 H476 0.929 . S
C484 C485 1.377 . S
C484 C486 1.384 . S
C485 C484 1.377 . S
C485 C491 1.390 . S
C486 H477 0.930 . S
C486 C484 1.384 . S
C486 C487 1.372 . S
C487 C486 1.372 . S
C487 C488 1.400 . S
C487 C492 1.490 . S
C488 H478 0.930 . S
C488 C487 1.400 . S
C488 C491 1.386 . S
H489 C505 0.930 . S
H490 C506 0.931 . S
C491 H479 0.929 . S
C491 C485 1.390 . S
C491 C488 1.386 . S
C492 C487 1.490 . S
C492 C494 1.395 . S
C492 C495 1.403 . S
H493 C499 0.930 . S
C494 H480 0.930 . S
C494 C492 1.395 . S
C494 C497 1.403 . S
C495 C492 1.403 . S
C495 C496 1.524 . S
C495 C499 1.400 . S
C496 H481 0.960 . S
C496 H482 0.960 . S
C496 H483 0.960 . S
C496 C495 1.524 . S
C497 C494 1.403 . S
C497 C498 1.392 . S
C497 C501 1.495 . S
C498 C497 1.392 . S
C498 C499 1.385 . S
C498 C500 1.478 . S
C499 H493 0.930 . S
C499 C495 1.400 . S
C499 C498 1.385 . S
C500 C498 1.478 . S
C500 C502 1.381 . S
C500 C506 1.383 . S
C501 C497 1.495 . S
C501 H507 0.959 . S
C501 H508 0.961 . S
C501 H509 0.960 . S
C502 C500 1.381 . S
C502 C503 1.394 . S
C502 H510 0.930 . S
C503 C502 1.394 . S
C503 C504 1.383 . S
C503 H511 0.929 . S
C504 C503 1.383 . S
C504 C505 1.377 . S
C505 H489 0.930 . S
C505 C504 1.377 . S
C505 C506 1.379 . S
C506 H490 0.931 . S
C506 C500 1.383 . S
C506 C505 1.379 . S
H507 C501 0.959 . S
H508 C501 0.961 . S
H509 C501 0.960 . S
H510 C502 0.930 . S
H511 C503 0.929 . S
H512 C520 0.929 . S
H513 C522 0.930 . S
H514 C524 0.930 . S
H515 C527 0.929 . S
H516 C530 0.930 . S
H517 C532 0.960 . S
H518 C532 0.995 . S
H519 C532 0.960 . S
C520 H512 0.929 . S
C520 C521 1.377 . S
C520 C522 1.384 . S
C521 C520 1.377 . S
C521 C527 1.390 . S
C522 H513 0.930 . S
C522 C520 1.384 . S
C522 C523 1.372 . S
C523 C522 1.372 . S
C523 C524 1.400 . S
C523 C528 1.490 . S
C524 H514 0.930 . S
C524 C523 1.400 . S
C524 C527 1.386 . S
H525 C541 0.930 . S
H526 C542 0.931 . S
C527 H515 0.929 . S
C527 C521 1.390 . S
C527 C524 1.386 . S
C528 C523 1.490 . S
C528 C530 1.395 1_455 S
C528 C531 1.403 1_545 S
H529 C535 0.930 . S
C530 H516 0.930 . S
C530 C528 1.395 1_655 S
C530 C533 1.403 . S
C531 C528 1.403 1_565 S
C531 C532 1.524 . S
C531 C535 1.400 . S
C532 H517 0.960 . S
C532 H518 0.995 . S
C532 H519 0.960 . S
C532 C531 1.524 . S
C533 C530 1.403 . S
C533 C534 1.392 1_545 S
C533 C537 1.495 . S
C534 C533 1.392 1_565 S
C534 C535 1.385 1_655 S
C534 C536 1.478 . S
C535 H529 0.930 . S
C535 C531 1.400 . S
C535 C534 1.385 1_455 S
C536 C534 1.478 . S
C536 C538 1.381 . S
C536 C542 1.383 . S
C537 C533 1.495 . S
C537 H543 0.959 . S
C537 H544 0.961 . S
C537 H545 0.960 . S
C538 C536 1.381 . S
C538 C539 1.394 . S
C538 H546 0.930 . S
C539 C538 1.394 . S
C539 C540 1.383 . S
C539 H547 0.929 . S
C540 C539 1.383 . S
C540 C541 1.377 . S
C541 H525 0.930 . S
C541 C540 1.377 . S
C541 C542 1.379 . S
C542 H526 0.931 . S
C542 C536 1.383 . S
C542 C541 1.379 . S
H543 C537 0.959 . S
H544 C537 0.961 . S
H545 C537 0.960 . S
H546 C538 0.930 . S
H547 C539 0.929 . S
H548 C556 0.929 . S
H549 C558 0.930 . S
H550 C560 0.930 . S
H551 C563 0.929 . S
H552 C566 0.930 . S
H553 C568 0.960 . S
H554 C568 0.960 . S
H555 C568 0.960 . S
C556 H548 0.929 . S
C556 C557 1.377 . S
C556 C558 1.384 . S
C557 C556 1.377 . S
C557 C563 1.390 . S
C558 H549 0.930 . S
C558 C556 1.384 . S
C558 C559 1.372 . S
C559 C558 1.372 . S
C559 C560 1.400 . S
C559 C564 1.490 . S
C560 H550 0.930 . S
C560 C559 1.400 . S
C560 C563 1.386 . S
H561 C577 0.930 . S
H562 C578 0.931 . S
C563 H551 0.929 . S
C563 C557 1.390 . S
C563 C560 1.386 . S
C564 C559 1.490 . S
C564 C566 1.395 . S
C564 C567 1.403 . S
H565 C571 0.930 . S
C566 H552 0.930 . S
C566 C564 1.395 . S
C566 C569 1.403 1_655 S
C567 C564 1.403 . S
C567 C568 1.524 . S
C567 C571 1.400 1_655 S
C568 H553 0.960 . S
C568 H554 0.960 . S
C568 H555 0.960 . S
C568 C567 1.524 . S
C569 C566 1.403 1_455 S
C569 C570 1.392 . S
C569 C573 1.495 . S
C570 C569 1.392 . S
C570 C571 1.385 . S
C570 C572 1.478 . S
C571 H565 0.930 . S
C571 C567 1.400 1_455 S
C571 C570 1.385 . S
C572 C570 1.478 . S
C572 C574 1.381 . S
C572 C578 1.383 . S
C573 C569 1.495 . S
C573 H579 0.959 . S
C573 H580 0.961 . S
C573 H581 0.960 . S
C574 C572 1.381 . S
C574 C575 1.394 . S
C574 H582 0.930 . S
C575 C574 1.394 . S
C575 C576 1.383 . S
C575 H583 0.929 . S
C576 C575 1.383 . S
C576 C577 1.377 . S
C577 H561 0.930 . S
C577 C576 1.377 . S
C577 C578 1.379 . S
C578 H562 0.931 . S
C578 C572 1.383 . S
C578 C577 1.379 . S
H579 C573 0.959 . S
H580 C573 0.961 . S
H581 C573 0.960 . S
H582 C574 0.930 . S
H583 C575 0.929 . S
H584 C592 0.929 . S
H585 C594 0.930 . S
H586 C596 0.930 . S
H587 C599 0.929 . S
H588 C602 0.930 . S
H589 C604 0.960 . S
H590 C604 0.960 . S
H591 C604 0.960 . S
C592 H584 0.929 . S
C592 C593 1.377 . S
C592 C594 1.384 . S
C593 C592 1.377 . S
C593 C599 1.390 . S
C594 H585 0.930 . S
C594 C592 1.384 . S
C594 C595 1.372 . S
C595 C594 1.372 . S
C595 C596 1.400 . S
C595 C600 1.490 . S
C596 H586 0.930 . S
C596 C595 1.400 . S
C596 C599 1.386 . S
H597 C613 0.930 . S
H598 C614 0.931 . S
C599 H587 0.929 . S
C599 C593 1.390 . S
C599 C596 1.386 . S
C600 C595 1.490 . S
C600 C602 1.395 . S
C600 C603 1.403 . S
H601 C607 0.930 . S
C602 H588 0.930 . S
C602 C600 1.395 . S
C602 C605 1.403 . S
C603 C600 1.403 . S
C603 C604 1.524 . S
C603 C607 1.400 . S
C604 H589 0.960 . S
C604 H590 0.960 . S
C604 H591 0.960 . S
C604 C603 1.524 . S
C605 C602 1.403 . S
C605 C606 1.392 . S
C605 C609 1.495 . S
C606 C605 1.392 . S
C606 C607 1.385 . S
C606 C608 1.478 . S
C607 H601 0.930 . S
C607 C603 1.400 . S
C607 C606 1.385 . S
C608 C606 1.478 . S
C608 C610 1.381 . S
C608 C614 1.383 . S
C609 C605 1.495 . S
C609 H615 0.959 . S
C609 H616 0.961 . S
C609 H617 0.960 . S
C610 C608 1.381 . S
C610 C611 1.394 . S
C610 H618 0.930 . S
C611 C610 1.394 . S
C611 C612 1.383 . S
C611 H619 0.929 . S
C612 C611 1.383 . S
C612 C613 1.377 . S
C613 H597 0.930 . S
C613 C612 1.377 . S
C613 C614 1.379 . S
C614 H598 0.931 . S
C614 C608 1.383 . S
C614 C613 1.379 . S
H615 C609 0.959 . S
H616 C609 0.961 . S
H617 C609 0.960 . S
H618 C610 0.930 . S
H619 C611 0.929 . S
H620 C628 0.929 1_556 S
H621 C630 0.930 1_556 S
H622 C632 0.930 . S
H623 C635 0.929 . S
H624 C638 0.930 . S
H625 C640 0.960 . S
H626 C640 0.960 . S
H627 C640 0.960 . S
C628 H620 0.929 1_554 S
C628 C629 1.377 . S
C628 C630 1.384 . S
C629 C628 1.377 . S
C629 C635 1.390 . S
C630 H621 0.930 1_554 S
C630 C628 1.384 . S
C630 C631 1.372 . S
C631 C630 1.372 . S
C631 C632 1.400 . S
C631 C636 1.490 . S
C632 H622 0.930 . S
C632 C631 1.400 . S
C632 C635 1.386 . S
H633 C649 0.930 . S
H634 C650 0.931 . S
C635 H623 0.929 . S
C635 C629 1.390 . S
C635 C632 1.386 . S
C636 C631 1.490 . S
C636 C638 1.395 . S
C636 C639 1.403 1_565 S
H637 C643 0.930 . S
C638 H624 0.930 . S
C638 C636 1.395 . S
C638 C641 1.403 . S
C639 C636 1.403 1_545 S
C639 C640 1.524 . S
C639 C643 1.400 . S
C640 H625 0.960 . S
C640 H626 0.960 . S
C640 H627 0.960 . S
C640 C639 1.524 . S
C641 C638 1.403 . S
C641 C642 1.392 1_565 S
C641 C645 1.495 . S
C642 C641 1.392 1_545 S
C642 C643 1.385 . S
C642 C644 1.478 . S
C643 H637 0.930 . S
C643 C639 1.400 . S
C643 C642 1.385 . S
C644 C642 1.478 . S
C644 C646 1.381 . S
C644 C650 1.383 . S
C645 C641 1.495 . S
C645 H651 0.959 . S
C645 H652 0.961 . S
C645 H653 0.960 . S
C646 C644 1.381 . S
C646 C647 1.394 . S
C646 H654 0.930 1_554 S
C647 C646 1.394 . S
C647 C648 1.383 . S
C647 H655 0.929 1_554 S
C648 C647 1.383 . S
C648 C649 1.377 . S
C649 H633 0.930 . S
C649 C648 1.377 . S
C649 C650 1.379 . S
C650 H634 0.931 . S
C650 C644 1.383 . S
C650 C649 1.379 . S
H651 C645 0.959 . S
H652 C645 0.961 . S
H653 C645 0.960 . S
H654 C646 0.930 1_556 S
H655 C647 0.929 1_556 S
H656 C664 0.929 . S
H657 C666 0.930 . S
H658 C668 0.930 1_556 S
H659 C671 0.929 1_556 S
H660 C674 0.930 . S
H661 C676 0.960 1_556 S
H662 C676 0.960 . S
H663 C676 0.960 1_556 S
C664 H656 0.929 . S
C664 C665 1.377 . S
C664 C666 1.384 . S
C665 C664 1.377 . S
C665 C671 1.390 . S
C666 H657 0.930 . S
C666 C664 1.384 . S
C666 C667 1.372 . S
C667 C666 1.372 . S
C667 C668 1.400 . S
C667 C672 1.490 . S
C668 H658 0.930 1_554 S
C668 C667 1.400 . S
C668 C671 1.386 . S
H669 C685 0.930 1_556 S
H670 C686 0.931 1_556 S
C671 H659 0.929 1_554 S
C671 C665 1.390 . S
C671 C668 1.386 . S
C672 C667 1.490 . S
C672 C674 1.395 . S
C672 C675 1.403 1_455 S
H673 C679 0.930 . S
C674 H660 0.930 . S
C674 C672 1.395 . S
C674 C677 1.403 . S
C675 C672 1.403 1_655 S
C675 C676 1.524 . S
C675 C679 1.400 . S
C676 H661 0.960 1_554 S
C676 H662 0.960 . S
C676 H663 0.960 1_554 S
C676 C675 1.524 . S
C677 C674 1.403 . S
C677 C678 1.392 1_455 S
C677 C681 1.495 . S
C678 C677 1.392 1_655 S
C678 C679 1.385 . S
C678 C680 1.478 . S
C679 H673 0.930 . S
C679 C675 1.400 . S
C679 C678 1.385 . S
C680 C678 1.478 . S
C680 C682 1.381 . S
C680 C686 1.383 . S
C681 C677 1.495 . S
C681 H687 0.959 . S
C681 H688 0.961 . S
C681 H689 0.960 . S
C682 C680 1.381 . S
C682 C683 1.394 . S
C682 H690 0.930 . S
C683 C682 1.394 . S
C683 C684 1.383 . S
C683 H691 0.929 . S
C684 C683 1.383 . S
C684 C685 1.377 . S
C685 H669 0.930 1_554 S
C685 C684 1.377 . S
C685 C686 1.379 . S
C686 H670 0.931 1_554 S
C686 C680 1.383 . S
C686 C685 1.379 . S
H687 C681 0.959 . S
H688 C681 0.961 . S
H689 C681 0.960 . S
H690 C682 0.930 . S
H691 C683 0.929 . S
H692 C700 0.929 . S
H693 C702 0.930 . S
H694 C704 0.930 . S
H695 C707 0.929 . S
H696 C710 0.930 . S
H697 C712 0.960 . S
H698 C712 0.960 . S
H699 C712 0.960 . S
C700 H692 0.929 . S
C700 C701 1.377 . S
C700 C702 1.384 . S
C701 C700 1.377 . S
C701 C707 1.390 . S
C702 H693 0.930 . S
C702 C700 1.384 . S
C702 C703 1.372 . S
C703 C702 1.372 . S
C703 C704 1.400 . S
C703 C708 1.490 . S
C704 H694 0.930 . S
C704 C703 1.400 . S
C704 C707 1.386 . S
H705 C721 0.930 . S
H706 C722 0.931 . S
C707 H695 0.929 . S
C707 C701 1.390 . S
C707 C704 1.386 . S
C708 C703 1.490 . S
C708 C710 1.395 . S
C708 C711 1.403 . S
H709 C715 0.930 . S
C710 H696 0.930 . S
C710 C708 1.395 . S
C710 C713 1.403 . S
C711 C708 1.403 . S
C711 C712 1.524 . S
C711 C715 1.400 . S
C712 H697 0.960 . S
C712 H698 0.960 . S
C712 H699 0.960 . S
C712 C711 1.524 . S
C713 C710 1.403 . S
C713 C714 1.392 . S
C713 C717 1.495 . S
C714 C713 1.392 . S
C714 C715 1.385 . S
C714 C716 1.478 . S
C715 H709 0.930 . S
C715 C711 1.400 . S
C715 C714 1.385 . S
C716 C714 1.478 . S
C716 C718 1.381 . S
C716 C722 1.383 . S
C717 C713 1.495 . S
C717 H723 0.959 . S
C717 H724 0.961 . S
C717 H725 0.960 . S
C718 C716 1.381 . S
C718 C719 1.394 . S
C718 H726 0.930 . S
C719 C718 1.394 . S
C719 C720 1.383 . S
C719 H727 0.929 . S
C720 C719 1.383 . S
C720 C721 1.377 . S
C721 H705 0.930 . S
C721 C720 1.377 . S
C721 C722 1.379 . S
C722 H706 0.931 . S
C722 C716 1.383 . S
C722 C721 1.379 . S
H723 C717 0.959 . S
H724 C717 0.961 . S
H725 C717 0.960 . S
H726 C718 0.930 . S
H727 C719 0.929 . S
H728 C736 0.929 . S
H729 C738 0.930 . S
H730 C740 0.930 . S
H731 C743 0.929 . S
H732 C746 0.930 . S
H733 C748 0.960 . S
H734 C748 0.960 1_545 S
H735 C748 0.960 . S
C736 H728 0.929 . S
C736 C737 1.377 . S
C736 C738 1.384 . S
C737 C736 1.377 . S
C737 C743 1.390 . S
C738 H729 0.930 . S
C738 C736 1.384 . S
C738 C739 1.372 . S
C739 C738 1.372 . S
C739 C740 1.400 . S
C739 C744 1.490 . S
C740 H730 0.930 . S
C740 C739 1.400 . S
C740 C743 1.386 . S
H741 C757 0.930 . S
H742 C758 0.931 . S
C743 H731 0.929 . S
C743 C737 1.390 . S
C743 C740 1.386 . S
C744 C739 1.490 . S
C744 C746 1.395 . S
C744 C747 1.402 1_545 S
H745 C751 0.930 . S
C746 H732 0.930 . S
C746 C744 1.395 . S
C746 C749 1.403 . S
C747 C744 1.402 1_565 S
C747 C748 1.524 . S
C747 C751 1.401 . S
C748 H733 0.960 . S
C748 H734 0.960 1_565 S
C748 H735 0.960 . S
C748 C747 1.524 . S
C749 C746 1.403 . S
C749 C750 1.392 1_545 S
C749 C753 1.495 . S
C750 C749 1.392 1_565 S
C750 C751 1.385 . S
C750 C752 1.478 . S
C751 H745 0.930 . S
C751 C747 1.401 . S
C751 C750 1.385 . S
C752 C750 1.478 . S
C752 C754 1.381 . S
C752 C758 1.383 . S
C753 C749 1.495 . S
C753 H759 0.959 . S
C753 H760 0.961 1_545 S
C753 H761 0.960 . S
C754 C752 1.381 . S
C754 C755 1.394 . S
C754 H762 0.930 . S
C755 C754 1.394 . S
C755 C756 1.383 . S
C755 H763 0.929 . S
C756 C755 1.383 . S
C756 C757 1.377 . S
C757 H741 0.930 . S
C757 C756 1.377 . S
C757 C758 1.379 . S
C758 H742 0.931 . S
C758 C752 1.383 . S
C758 C757 1.379 . S
H759 C753 0.959 . S
H760 C753 0.961 1_565 S
H761 C753 0.960 . S
H762 C754 0.930 . S
H763 C755 0.929 . S
H764 C772 0.929 . S
H765 C774 0.930 . S
H766 C776 0.930 . S
H767 C779 0.929 . S
H768 C782 0.930 . S
H769 C784 0.960 . S
H770 C784 0.960 . S
H771 C784 0.960 . S
C772 H764 0.929 . S
C772 C773 1.377 . S
C772 C774 1.384 . S
C773 C772 1.377 . S
C773 C779 1.390 . S
C774 H765 0.930 . S
C774 C772 1.384 . S
C774 C775 1.372 . S
C775 C774 1.372 . S
C775 C776 1.400 . S
C775 C780 1.490 . S
C776 H766 0.930 . S
C776 C775 1.400 . S
C776 C779 1.386 . S
H777 C793 0.930 . S
H778 C794 0.931 . S
C779 H767 0.929 . S
C779 C773 1.390 . S
C779 C776 1.386 . S
C780 C775 1.490 . S
C780 C782 1.395 1_545 S
C780 C783 1.403 1_455 S
H781 C787 0.930 . S
C782 H768 0.930 . S
C782 C780 1.395 1_565 S
C782 C785 1.403 . S
C783 C780 1.403 1_655 S
C783 C784 1.524 . S
C783 C787 1.400 . S
C784 H769 0.960 . S
C784 H770 0.960 . S
C784 H771 0.960 . S
C784 C783 1.524 . S
C785 C782 1.403 . S
C785 C786 1.392 1_455 S
C785 C789 1.495 . S
C786 C785 1.392 1_655 S
C786 C787 1.385 1_565 S
C786 C788 1.478 . S
C787 H781 0.930 . S
C787 C783 1.400 . S
C787 C786 1.385 1_545 S
C788 C786 1.478 . S
C788 C790 1.381 . S
C788 C794 1.383 . S
C789 C785 1.495 . S
C789 H795 0.959 . S
C789 H796 0.961 . S
C789 H797 0.960 . S
C790 C788 1.381 . S
C790 C791 1.394 . S
C790 H798 0.930 . S
C791 C790 1.394 . S
C791 C792 1.383 . S
C791 H799 0.929 . S
C792 C791 1.383 . S
C792 C793 1.377 . S
C793 H777 0.930 . S
C793 C792 1.377 . S
C793 C794 1.379 . S
C794 H778 0.931 . S
C794 C788 1.383 . S
C794 C793 1.379 . S
H795 C789 0.959 . S
H796 C789 0.961 . S
H797 C789 0.960 . S
H798 C790 0.930 . S
H799 C791 0.929 . S
H800 C808 0.929 . S
H801 C810 0.930 . S
H802 C812 0.930 . S
H803 C815 0.929 . S
H804 C818 0.930 . S
H805 C820 0.960 . S
H806 C820 0.960 . S
H807 C820 0.960 . S
C808 H800 0.929 . S
C808 C809 1.377 . S
C808 C810 1.384 . S
C809 C808 1.377 . S
C809 C815 1.390 . S
C810 H801 0.930 . S
C810 C808 1.384 . S
C810 C811 1.372 . S
C811 C810 1.372 . S
C811 C812 1.400 . S
C811 C816 1.490 . S
C812 H802 0.930 . S
C812 C811 1.400 . S
C812 C815 1.386 . S
H813 C829 0.930 . S
H814 C830 0.931 . S
C815 H803 0.929 . S
C815 C809 1.390 . S
C815 C812 1.386 . S
C816 C811 1.490 . S
C816 C818 1.395 . S
C816 C819 1.403 . S
H817 C823 0.930 . S
C818 H804 0.930 . S
C818 C816 1.395 . S
C818 C821 1.403 . S
C819 C816 1.403 . S
C819 C820 1.524 . S
C819 C823 1.400 . S
C820 H805 0.960 . S
C820 H806 0.960 . S
C820 H807 0.960 . S
C820 C819 1.524 . S
C821 C818 1.403 . S
C821 C822 1.392 . S
C821 C825 1.495 . S
C822 C821 1.392 . S
C822 C823 1.385 . S
C822 C824 1.478 . S
C823 H817 0.930 . S
C823 C819 1.400 . S
C823 C822 1.385 . S
C824 C822 1.478 . S
C824 C826 1.381 . S
C824 C830 1.383 . S
C825 C821 1.495 . S
C825 H831 0.959 . S
C825 H832 0.961 . S
C825 H833 0.960 . S
C826 C824 1.381 . S
C826 C827 1.394 . S
C826 H834 0.930 . S
C827 C826 1.394 . S
C827 C828 1.383 . S
C827 H835 0.929 . S
C828 C827 1.383 . S
C828 C829 1.377 . S
C829 H813 0.930 . S
C829 C828 1.377 . S
C829 C830 1.379 . S
C830 H814 0.931 . S
C830 C824 1.383 . S
C830 C829 1.379 . S
H831 C825 0.959 . S
H832 C825 0.961 . S
H833 C825 0.960 . S
H834 C826 0.930 . S
H835 C827 0.929 . S
H836 C844 0.929 . S
H837 C846 0.930 . S
H838 C848 0.930 . S
H839 C851 0.929 . S
H840 C854 0.930 . S
H841 C856 0.960 . S
H842 C856 0.960 . S
H843 C856 0.960 . S
C844 H836 0.929 . S
C844 C845 1.377 . S
C844 C846 1.384 . S
C845 C844 1.377 . S
C845 C851 1.390 . S
C846 H837 0.930 . S
C846 C844 1.384 . S
C846 C847 1.372 . S
C847 C846 1.372 . S
C847 C848 1.400 . S
C847 C852 1.490 . S
C848 H838 0.930 . S
C848 C847 1.400 . S
C848 C851 1.386 . S
H849 C865 0.930 . S
H850 C866 0.931 . S
C851 H839 0.929 . S
C851 C845 1.390 . S
C851 C848 1.386 . S
C852 C847 1.490 . S
C852 C854 1.395 . S
C852 C855 1.403 . S
H853 C859 0.930 . S
C854 H840 0.930 . S
C854 C852 1.395 . S
C854 C857 1.403 . S
C855 C852 1.403 . S
C855 C856 1.524 . S
C855 C859 1.400 . S
C856 H841 0.960 . S
C856 H842 0.960 . S
C856 H843 0.960 . S
C856 C855 1.524 . S
C857 C854 1.403 . S
C857 C858 1.392 . S
C857 C861 1.495 . S
C858 C857 1.392 . S
C858 C859 1.385 . S
C858 C860 1.478 . S
C859 H853 0.930 . S
C859 C855 1.400 . S
C859 C858 1.385 . S
C860 C858 1.478 . S
C860 C862 1.381 . S
C860 C866 1.383 . S
C861 C857 1.495 . S
C861 H867 0.959 . S
C861 H868 0.961 . S
C861 H869 0.960 . S
C862 C860 1.381 . S
C862 C863 1.394 . S
C862 H870 0.930 . S
C863 C862 1.394 . S
C863 C864 1.383 . S
C863 H871 0.929 . S
C864 C863 1.383 . S
C864 C865 1.377 . S
C865 H849 0.930 . S
C865 C864 1.377 . S
C865 C866 1.379 . S
C866 H850 0.931 . S
C866 C860 1.383 . S
C866 C865 1.379 . S
H867 C861 0.959 . S
H868 C861 0.961 . S
H869 C861 0.960 . S
H870 C862 0.930 . S
H871 C863 0.929 . S
H872 C880 0.929 . S
H873 C882 0.930 . S
H874 C884 0.930 . S
H875 C887 0.929 . S
H876 C890 0.930 . S
H877 C892 0.960 . S
H878 C892 0.960 . S
H879 C892 0.960 . S
C880 H872 0.929 . S
C880 C881 1.377 . S
C880 C882 1.384 . S
C881 C880 1.377 . S
C881 C887 1.390 . S
C882 H873 0.930 . S
C882 C880 1.384 . S
C882 C883 1.372 . S
C883 C882 1.372 . S
C883 C884 1.400 . S
C883 C888 1.490 . S
C884 H874 0.930 . S
C884 C883 1.400 . S
C884 C887 1.386 . S
H885 C901 0.930 . S
H886 C902 0.931 . S
C887 H875 0.929 . S
C887 C881 1.390 . S
C887 C884 1.386 . S
C888 C883 1.490 . S
C888 C890 1.395 . S
C888 C891 1.403 . S
H889 C895 0.930 . S
C890 H876 0.930 . S
C890 C888 1.395 . S
C890 C893 1.403 . S
C891 C888 1.403 . S
C891 C892 1.524 . S
C891 C895 1.400 . S
C892 H877 0.960 . S
C892 H878 0.960 . S
C892 H879 0.960 . S
C892 C891 1.524 . S
C893 C890 1.403 . S
C893 C894 1.392 1_554 S
C893 C897 1.495 . S
C894 C893 1.392 1_556 S
C894 C895 1.385 1_556 S
C894 C896 1.478 . S
C895 H889 0.930 . S
C895 C891 1.400 . S
C895 C894 1.385 1_554 S
C896 C894 1.478 . S
C896 C898 1.381 . S
C896 C902 1.383 . S
C897 C893 1.495 . S
C897 H903 0.959 . S
C897 H904 0.961 1_554 S
C897 H905 0.960 1_554 S
C898 C896 1.381 . S
C898 C899 1.394 . S
C898 H906 0.930 . S
C899 C898 1.394 . S
C899 C900 1.383 . S
C899 H907 0.929 . S
C900 C899 1.383 . S
C900 C901 1.377 . S
C901 H885 0.930 . S
C901 C900 1.377 . S
C901 C902 1.379 . S
C902 H886 0.931 . S
C902 C896 1.383 . S
C902 C901 1.379 . S
H903 C897 0.959 . S
H904 C897 0.961 1_556 S
H905 C897 0.960 1_556 S
H906 C898 0.930 . S
H907 C899 0.929 . S
H908 C916 0.929 . S
H909 C918 0.930 . S
H910 C920 0.930 . S
H911 C923 0.929 . S
H912 C926 0.930 . S
H913 C928 0.960 . S
H914 C928 0.960 . S
H915 C928 0.960 . S
C916 H908 0.929 . S
C916 C917 1.377 . S
C916 C918 1.384 . S
C917 C916 1.377 . S
C917 C923 1.390 . S
C918 H909 0.930 . S
C918 C916 1.384 . S
C918 C919 1.372 . S
C919 C918 1.372 . S
C919 C920 1.400 . S
C919 C924 1.490 . S
C920 H910 0.930 . S
C920 C919 1.400 . S
C920 C923 1.386 . S
H921 C937 0.930 . S
H922 C938 0.931 . S
C923 H911 0.929 . S
C923 C917 1.390 . S
C923 C920 1.386 . S
C924 C919 1.490 . S
C924 C926 1.395 . S
C924 C927 1.403 . S
H925 C931 0.930 . S
C926 H912 0.930 . S
C926 C924 1.395 . S
C926 C929 1.403 . S
C927 C924 1.403 . S
C927 C928 1.524 . S
C927 C931 1.400 . S
C928 H913 0.960 . S
C928 H914 0.960 . S
C928 H915 0.960 . S
C928 C927 1.524 . S
C929 C926 1.403 . S
C929 C930 1.392 . S
C929 C933 1.495 . S
C930 C929 1.392 . S
C930 C931 1.385 . S
C930 C932 1.478 . S
C931 H925 0.930 . S
C931 C927 1.400 . S
C931 C930 1.385 . S
C932 C930 1.478 . S
C932 C934 1.381 . S
C932 C938 1.383 . S
C933 C929 1.495 . S
C933 H939 0.959 . S
C933 H940 0.961 . S
C933 H941 0.960 . S
C934 C932 1.381 . S
C934 C935 1.394 . S
C934 H942 0.930 . S
C935 C934 1.394 . S
C935 C936 1.383 . S
C935 H943 0.929 . S
C936 C935 1.383 . S
C936 C937 1.377 . S
C937 H921 0.930 . S
C937 C936 1.377 . S
C937 C938 1.379 . S
C938 H922 0.931 . S
C938 C932 1.383 . S
C938 C937 1.379 . S
H939 C933 0.959 . S
H940 C933 0.961 . S
H941 C933 0.960 . S
H942 C934 0.930 . S
H943 C935 0.929 . S
H944 C952 0.929 . S
H945 C954 0.930 . S
H946 C956 0.930 . S
H947 C959 0.929 . S
H948 C962 0.930 . S
H949 C964 0.960 . S
H950 C964 0.960 . S
H951 C964 0.960 . S
C952 H944 0.929 . S
C952 C953 1.377 . S
C952 C954 1.384 . S
C953 C952 1.377 . S
C953 C959 1.390 . S
C954 H945 0.930 . S
C954 C952 1.384 . S
C954 C955 1.372 . S
C955 C954 1.372 . S
C955 C956 1.400 . S
C955 C960 1.490 . S
C956 H946 0.930 . S
C956 C955 1.400 . S
C956 C959 1.386 . S
H957 C973 0.930 . S
H958 C974 0.931 . S
C959 H947 0.929 . S
C959 C953 1.390 . S
C959 C956 1.386 . S
C960 C955 1.490 . S
C960 C962 1.395 . S
C960 C963 1.403 . S
H961 C967 0.930 . S
C962 H948 0.930 . S
C962 C960 1.395 . S
C962 C965 1.403 . S
C963 C960 1.403 . S
C963 C964 1.524 . S
C963 C967 1.400 . S
C964 H949 0.960 . S
C964 H950 0.960 . S
C964 H951 0.960 . S
C964 C963 1.524 . S
C965 C962 1.403 . S
C965 C966 1.392 . S
C965 C969 1.495 . S
C966 C965 1.392 . S
C966 C967 1.385 . S
C966 C968 1.478 . S
C967 H961 0.930 . S
C967 C963 1.400 . S
C967 C966 1.385 . S
C968 C966 1.478 . S
C968 C970 1.381 . S
C968 C974 1.383 . S
C969 C965 1.495 . S
C969 H975 0.959 . S
C969 H976 0.961 . S
C969 H977 0.960 . S
C970 C968 1.381 . S
C970 C971 1.394 . S
C970 H978 0.930 . S
C971 C970 1.394 . S
C971 C972 1.383 . S
C971 H979 0.929 . S
C972 C971 1.383 . S
C972 C973 1.377 . S
C973 H957 0.930 . S
C973 C972 1.377 . S
C973 C974 1.379 . S
C974 H958 0.931 . S
C974 C968 1.383 . S
C974 C973 1.379 . S
H975 C969 0.959 . S
H976 C969 0.961 . S
H977 C969 0.960 . S
H978 C970 0.930 . S
H979 C971 0.929 . S
H980 C988 0.929 . S
H981 C990 0.930 . S
H982 C992 0.930 . S
H983 C995 0.929 . S
H984 C998 0.930 . S
H985 C1000 0.960 . S
H986 C1000 0.960 . S
H987 C1000 0.960 . S
C988 H980 0.929 . S
C988 C989 1.377 . S
C988 C990 1.384 . S
C989 C988 1.377 . S
C989 C995 1.390 . S
C990 H981 0.930 . S
C990 C988 1.384 . S
C990 C991 1.372 . S
C991 C990 1.372 . S
C991 C992 1.400 . S
C991 C996 1.490 . S
C992 H982 0.930 . S
C992 C991 1.400 . S
C992 C995 1.386 . S
H993 C1009 0.930 . S
H994 C1010 0.931 . S
C995 H983 0.929 . S
C995 C989 1.390 . S
C995 C992 1.386 . S
C996 C991 1.490 . S
C996 C998 1.395 . S
C996 C999 1.403 . S
H997 C1003 0.930 1_556 S
C998 H984 0.930 . S
C998 C996 1.395 . S
C998 C1001 1.403 . S
C999 C996 1.403 . S
C999 C1000 1.524 . S
C999 C1003 1.400 . S
C1000 H985 0.960 . S
C1000 H986 0.960 . S
C1000 H987 0.960 . S
C1000 C999 1.524 . S
C1001 C998 1.403 . S
C1001 C1002 1.394 1_554 S
C1001 C1005 1.495 . S
C1002 C1001 1.394 1_556 S
C1002 C1003 1.386 1_556 S
C1002 C1004 1.475 . S
C1003 H997 0.930 1_554 S
C1003 C999 1.400 . S
C1003 C1002 1.386 1_554 S
C1004 C1002 1.475 . S
C1004 C1006 1.381 . S
C1004 C1010 1.383 . S
C1005 C1001 1.495 . S
C1005 H1011 0.959 . S
C1005 H1012 0.961 1_554 S
C1005 H1013 0.960 . S
C1006 C1004 1.381 . S
C1006 C1007 1.394 . S
C1006 H1014 0.930 . S
C1007 C1006 1.394 . S
C1007 C1008 1.383 . S
C1007 H1015 0.929 . S
C1008 C1007 1.383 . S
C1008 C1009 1.377 . S
C1009 H993 0.930 . S
C1009 C1008 1.377 . S
C1009 C1010 1.379 . S
C1010 H994 0.931 . S
C1010 C1004 1.383 . S
C1010 C1009 1.379 . S
H1011 C1005 0.959 . S
H1012 C1005 0.961 1_556 S
H1013 C1005 0.960 . S
H1014 C1006 0.930 . S
H1015 C1007 0.929 . S
H1016 C1024 0.929 . S
H1017 C1026 0.930 . S
H1018 C1028 0.930 . S
H1019 C1031 0.929 . S
H1020 C1034 0.930 . S
H1021 C1036 0.960 . S
H1022 C1036 0.960 . S
H1023 C1036 0.960 . S
C1024 H1016 0.929 . S
C1024 C1025 1.377 . S
C1024 C1026 1.384 . S
C1025 C1024 1.377 . S
C1025 C1031 1.390 . S
C1026 H1017 0.930 . S
C1026 C1024 1.384 . S
C1026 C1027 1.372 . S
C1027 C1026 1.372 . S
C1027 C1028 1.400 . S
C1027 C1032 1.490 . S
C1028 H1018 0.930 . S
C1028 C1027 1.400 . S
C1028 C1031 1.386 . S
H1029 C1045 0.930 . S
H1030 C1046 0.931 . S
C1031 H1019 0.929 . S
C1031 C1025 1.390 . S
C1031 C1028 1.386 . S
C1032 C1027 1.490 . S
C1032 C1034 1.395 . S
C1032 C1035 1.403 . S
H1033 C1039 0.930 . S
C1034 H1020 0.930 . S
C1034 C1032 1.395 . S
C1034 C1037 1.403 . S
C1035 C1032 1.403 . S
C1035 C1036 1.524 . S
C1035 C1039 1.400 . S
C1036 H1021 0.960 . S
C1036 H1022 0.960 . S
C1036 H1023 0.960 . S
C1036 C1035 1.524 . S
C1037 C1034 1.403 . S
C1037 C1038 1.392 . S
C1037 C1041 1.495 . S
C1038 C1037 1.392 . S
C1038 C1039 1.385 . S
C1038 C1040 1.478 . S
C1039 H1033 0.930 . S
C1039 C1035 1.400 . S
C1039 C1038 1.385 . S
C1040 C1038 1.478 . S
C1040 C1042 1.381 . S
C1040 C1046 1.383 . S
C1041 C1037 1.495 . S
C1041 H1047 0.959 . S
C1041 H1048 0.961 . S
C1041 H1049 0.960 . S
C1042 C1040 1.381 . S
C1042 C1043 1.394 . S
C1042 H1050 0.930 . S
C1043 C1042 1.394 . S
C1043 C1044 1.383 . S
C1043 H1051 0.929 . S
C1044 C1043 1.383 . S
C1044 C1045 1.377 . S
C1045 H1029 0.930 . S
C1045 C1044 1.377 . S
C1045 C1046 1.379 . S
C1046 H1030 0.931 . S
C1046 C1040 1.383 . S
C1046 C1045 1.379 . S
H1047 C1041 0.959 . S
H1048 C1041 0.961 . S
H1049 C1041 0.960 . S
H1050 C1042 0.930 . S
H1051 C1043 0.929 . S
H1052 C1060 0.929 . S
H1053 C1062 0.930 . S
H1054 C1064 0.930 . S
H1055 C1067 0.929 . S
H1056 C1070 0.930 . S
H1057 C1072 0.960 . S
H1058 C1072 0.960 . S
H1059 C1072 0.960 . S
C1060 H1052 0.929 . S
C1060 C1061 1.377 . S
C1060 C1062 1.384 . S
C1061 C1060 1.377 . S
C1061 C1067 1.390 . S
C1062 H1053 0.930 . S
C1062 C1060 1.384 . S
C1062 C1063 1.372 . S
C1063 C1062 1.372 . S
C1063 C1064 1.400 . S
C1063 C1068 1.490 . S
C1064 H1054 0.930 . S
C1064 C1063 1.400 . S
C1064 C1067 1.386 . S
H1065 C1081 0.930 . S
H1066 C1082 0.931 . S
C1067 H1055 0.929 . S
C1067 C1061 1.390 . S
C1067 C1064 1.386 . S
C1068 C1063 1.490 . S
C1068 C1070 1.395 . S
C1068 C1071 1.403 . S
H1069 C1075 0.930 . S
C1070 H1056 0.930 . S
C1070 C1068 1.395 . S
C1070 C1073 1.403 . S
C1071 C1068 1.403 . S
C1071 C1072 1.524 . S
C1071 C1075 1.400 . S
C1072 H1057 0.960 . S
C1072 H1058 0.960 . S
C1072 H1059 0.960 . S
C1072 C1071 1.524 . S
C1073 C1070 1.403 . S
C1073 C1074 1.392 . S
C1073 C1077 1.495 . S
C1074 C1073 1.392 . S
C1074 C1075 1.385 . S
C1074 C1076 1.478 . S
C1075 H1069 0.930 . S
C1075 C1071 1.400 . S
C1075 C1074 1.385 . S
C1076 C1074 1.478 . S
C1076 C1078 1.381 . S
C1076 C1082 1.383 . S
C1077 C1073 1.495 . S
C1077 H1083 0.959 . S
C1077 H1084 0.961 . S
C1077 H1085 0.960 . S
C1078 C1076 1.381 . S
C1078 C1079 1.394 . S
C1078 H1086 0.930 . S
C1079 C1078 1.394 . S
C1079 C1080 1.383 . S
C1079 H1087 0.929 . S
C1080 C1079 1.383 . S
C1080 C1081 1.377 . S
C1081 H1065 0.930 . S
C1081 C1080 1.377 . S
C1081 C1082 1.379 . S
C1082 H1066 0.931 . S
C1082 C1076 1.383 . S
C1082 C1081 1.379 . S
H1083 C1077 0.959 . S
H1084 C1077 0.961 . S
H1085 C1077 0.960 . S
H1086 C1078 0.930 . S
H1087 C1079 0.929 . S
H1088 C1096 0.929 . S
H1089 C1098 0.930 . S
H1090 C1100 0.930 . S
H1091 C1103 0.929 . S
H1092 C1106 0.930 . S
H1093 C1108 0.977 . S
H1094 C1108 0.951 1_556 S
H1095 C1108 0.942 1_556 S
C1096 H1088 0.929 . S
C1096 C1097 1.377 . S
C1096 C1098 1.384 . S
C1097 C1096 1.377 . S
C1097 C1103 1.390 . S
C1098 H1089 0.930 . S
C1098 C1096 1.384 . S
C1098 C1099 1.372 . S
C1099 C1098 1.372 . S
C1099 C1100 1.400 . S
C1099 C1104 1.489 1_556 S
C1100 H1090 0.930 . S
C1100 C1099 1.400 . S
C1100 C1103 1.386 . S
H1101 C1117 0.930 . S
H1102 C1118 0.931 . S
C1103 H1091 0.929 . S
C1103 C1097 1.390 . S
C1103 C1100 1.386 . S
C1104 C1099 1.489 1_554 S
C1104 C1106 1.395 . S
C1104 C1107 1.403 . S
H1105 C1111 0.930 . S
C1106 H1092 0.930 . S
C1106 C1104 1.395 . S
C1106 C1109 1.403 . S
C1107 C1104 1.403 . S
C1107 C1108 1.535 . S
C1107 C1111 1.400 . S
C1108 H1093 0.977 . S
C1108 H1094 0.951 1_554 S
C1108 H1095 0.942 1_554 S
C1108 C1107 1.535 . S
C1109 C1106 1.403 . S
C1109 C1110 1.392 . S
C1109 C1113 1.495 . S
C1110 C1109 1.392 . S
C1110 C1111 1.385 . S
C1110 C1112 1.478 . S
C1111 H1105 0.930 . S
C1111 C1107 1.400 . S
C1111 C1110 1.385 . S
C1112 C1110 1.478 . S
C1112 C1114 1.381 . S
C1112 C1118 1.383 . S
C1113 C1109 1.495 . S
C1113 H1119 0.959 . S
C1113 H1120 0.961 . S
C1113 H1121 0.960 . S
C1114 C1112 1.381 . S
C1114 C1115 1.394 . S
C1114 H1122 0.930 . S
C1115 C1114 1.394 . S
C1115 C1116 1.383 . S
C1115 H1123 0.929 . S
C1116 C1115 1.383 . S
C1116 C1117 1.377 . S
C1117 H1101 0.930 . S
C1117 C1116 1.377 . S
C1117 C1118 1.379 . S
C1118 H1102 0.931 . S
C1118 C1112 1.383 . S
C1118 C1117 1.379 . S
H1119 C1113 0.959 . S
H1120 C1113 0.961 . S
H1121 C1113 0.960 . S
H1122 C1114 0.930 . S
H1123 C1115 0.929 . S
H1124 C1132 0.929 . S
H1125 C1134 0.930 . S
H1126 C1136 0.930 . S
H1127 C1139 0.929 . S
H1128 C1142 0.930 . S
H1129 C1144 0.960 . S
H1130 C1144 0.960 . S
H1131 C1144 0.960 . S
C1132 H1124 0.929 . S
C1132 C1133 1.377 . S
C1132 C1134 1.384 . S
C1133 C1132 1.377 . S
C1133 C1139 1.390 . S
C1134 H1125 0.930 . S
C1134 C1132 1.384 . S
C1134 C1135 1.372 . S
C1135 C1134 1.372 . S
C1135 C1136 1.400 . S
C1135 C1140 1.490 . S
C1136 H1126 0.930 . S
C1136 C1135 1.400 . S
C1136 C1139 1.386 . S
H1137 C1153 0.930 . S
H1138 C1154 0.931 . S
C1139 H1127 0.929 . S
C1139 C1133 1.390 . S
C1139 C1136 1.386 . S
C1140 C1135 1.490 . S
C1140 C1142 1.395 . S
C1140 C1143 1.403 . S
H1141 C1147 0.930 . S
C1142 H1128 0.930 . S
C1142 C1140 1.395 . S
C1142 C1145 1.403 . S
C1143 C1140 1.403 . S
C1143 C1144 1.524 . S
C1143 C1147 1.400 . S
C1144 H1129 0.960 . S
C1144 H1130 0.960 . S
C1144 H1131 0.960 . S
C1144 C1143 1.524 . S
C1145 C1142 1.403 . S
C1145 C1146 1.392 . S
C1145 C1149 1.495 . S
C1146 C1145 1.392 . S
C1146 C1147 1.385 . S
C1146 C1148 1.478 . S
C1147 H1141 0.930 . S
C1147 C1143 1.400 . S
C1147 C1146 1.385 . S
C1148 C1146 1.478 . S
C1148 C1150 1.381 . S
C1148 C1154 1.383 . S
C1149 C1145 1.495 . S
C1149 H1155 0.959 . S
C1149 H1156 0.961 . S
C1149 H1157 0.960 . S
C1150 C1148 1.381 . S
C1150 C1151 1.394 . S
C1150 H1158 0.930 . S
C1151 C1150 1.394 . S
C1151 C1152 1.383 . S
C1151 H1159 0.929 . S
C1152 C1151 1.383 . S
C1152 C1153 1.377 . S
C1153 H1137 0.930 . S
C1153 C1152 1.377 . S
C1153 C1154 1.379 . S
C1154 H1138 0.931 . S
C1154 C1148 1.383 . S
C1154 C1153 1.379 . S
H1155 C1149 0.959 . S
H1156 C1149 0.961 . S
H1157 C1149 0.960 . S
H1158 C1150 0.930 . S
H1159 C1151 0.929 . S
H1160 C1168 0.929 . S
H1161 C1170 0.930 . S
H1162 C1172 0.930 . S
H1163 C1175 0.929 . S
H1164 C1178 0.930 . S
H1165 C1180 0.960 . S
H1166 C1180 0.960 . S
H1167 C1180 0.960 . S
C1168 H1160 0.929 . S
C1168 C1169 1.377 . S
C1168 C1170 1.384 . S
C1169 C1168 1.377 . S
C1169 C1175 1.390 . S
C1170 H1161 0.930 . S
C1170 C1168 1.384 . S
C1170 C1171 1.372 . S
C1171 C1170 1.372 . S
C1171 C1172 1.400 . S
C1171 C1176 1.490 . S
C1172 H1162 0.930 . S
C1172 C1171 1.400 . S
C1172 C1175 1.386 . S
H1173 C1189 0.930 . S
H1174 C1190 0.931 . S
C1175 H1163 0.929 . S
C1175 C1169 1.390 . S
C1175 C1172 1.386 . S
C1176 C1171 1.490 . S
C1176 C1178 1.395 . S
C1176 C1179 1.403 . S
H1177 C1183 0.930 . S
C1178 H1164 0.930 . S
C1178 C1176 1.395 . S
C1178 C1181 1.403 . S
C1179 C1176 1.403 . S
C1179 C1180 1.524 . S
C1179 C1183 1.400 . S
C1180 H1165 0.960 . S
C1180 H1166 0.960 . S
C1180 H1167 0.960 . S
C1180 C1179 1.524 . S
C1181 C1178 1.403 . S
C1181 C1182 1.392 . S
C1181 C1185 1.495 . S
C1182 C1181 1.392 . S
C1182 C1183 1.385 . S
C1182 C1184 1.478 . S
C1183 H1177 0.930 . S
C1183 C1179 1.400 . S
C1183 C1182 1.385 . S
C1184 C1182 1.478 . S
C1184 C1186 1.381 . S
C1184 C1190 1.383 . S
C1185 C1181 1.495 . S
C1185 H1191 0.959 . S
C1185 H1192 0.961 . S
C1185 H1193 0.960 . S
C1186 C1184 1.381 . S
C1186 C1187 1.394 . S
C1186 H1194 0.930 . S
C1187 C1186 1.394 . S
C1187 C1188 1.383 . S
C1187 H1195 0.929 . S
C1188 C1187 1.383 . S
C1188 C1189 1.377 . S
C1189 H1173 0.930 . S
C1189 C1188 1.377 . S
C1189 C1190 1.379 . S
C1190 H1174 0.931 . S
C1190 C1184 1.383 . S
C1190 C1189 1.379 . S
H1191 C1185 0.959 . S
H1192 C1185 0.961 . S
H1193 C1185 0.960 . S
H1194 C1186 0.930 . S
H1195 C1187 0.929 . S
H1196 C1204 0.929 . S
H1197 C1206 0.930 . S
H1198 C1208 0.930 . S
H1199 C1211 0.929 . S
H1200 C1214 0.930 . S
H1201 C1216 0.960 . S
H1202 C1216 0.960 . S
H1203 C1216 0.960 . S
C1204 H1196 0.929 . S
C1204 C1205 1.377 . S
C1204 C1206 1.384 . S
C1205 C1204 1.377 . S
C1205 C1211 1.390 . S
C1206 H1197 0.930 . S
C1206 C1204 1.384 . S
C1206 C1207 1.372 . S
C1207 C1206 1.372 . S
C1207 C1208 1.400 . S
C1207 C1212 1.490 . S
C1208 H1198 0.930 . S
C1208 C1207 1.400 . S
C1208 C1211 1.386 . S
H1209 C1225 0.930 . S
H1210 C1226 0.931 . S
C1211 H1199 0.929 . S
C1211 C1205 1.390 . S
C1211 C1208 1.386 . S
C1212 C1207 1.490 . S
C1212 C1214 1.395 . S
C1212 C1215 1.403 . S
H1213 C1219 0.930 . S
C1214 H1200 0.930 . S
C1214 C1212 1.395 . S
C1214 C1217 1.403 . S
C1215 C1212 1.403 . S
C1215 C1216 1.524 . S
C1215 C1219 1.400 . S
C1216 H1201 0.960 . S
C1216 H1202 0.960 . S
C1216 H1203 0.960 . S
C1216 C1215 1.524 . S
C1217 C1214 1.403 . S
C1217 C1218 1.392 . S
C1217 C1221 1.495 . S
C1218 C1217 1.392 . S
C1218 C1219 1.385 . S
C1218 C1220 1.478 . S
C1219 H1213 0.930 . S
C1219 C1215 1.400 . S
C1219 C1218 1.385 . S
C1220 C1218 1.478 . S
C1220 C1222 1.381 . S
C1220 C1226 1.383 . S
C1221 C1217 1.495 . S
C1221 H1227 0.959 . S
C1221 H1228 0.961 . S
C1221 H1229 0.960 . S
C1222 C1220 1.381 . S
C1222 C1223 1.394 . S
C1222 H1230 0.930 . S
C1223 C1222 1.394 . S
C1223 C1224 1.383 . S
C1223 H1231 0.929 . S
C1224 C1223 1.383 . S
C1224 C1225 1.377 . S
C1225 H1209 0.930 . S
C1225 C1224 1.377 . S
C1225 C1226 1.379 . S
C1226 H1210 0.931 . S
C1226 C1220 1.383 . S
C1226 C1225 1.379 . S
H1227 C1221 0.959 . S
H1228 C1221 0.961 . S
H1229 C1221 0.960 . S
H1230 C1222 0.930 . S
H1231 C1223 0.929 . S
H1232 C1240 0.929 . S
H1233 C1242 0.930 . S
H1234 C1244 0.930 . S
H1235 C1247 0.929 . S
H1236 C1250 0.930 . S
H1237 C1252 0.960 . S
H1238 C1252 0.960 . S
H1239 C1252 0.960 . S
C1240 H1232 0.929 . S
C1240 C1241 1.377 . S
C1240 C1242 1.384 . S
C1241 C1240 1.377 . S
C1241 C1247 1.390 . S
C1242 H1233 0.930 . S
C1242 C1240 1.384 . S
C1242 C1243 1.372 . S
C1243 C1242 1.372 . S
C1243 C1244 1.400 . S
C1243 C1248 1.490 . S
C1244 H1234 0.930 . S
C1244 C1243 1.400 . S
C1244 C1247 1.386 . S
H1245 C1261 0.930 . S
H1246 C1262 0.931 . S
C1247 H1235 0.929 . S
C1247 C1241 1.390 . S
C1247 C1244 1.386 . S
C1248 C1243 1.490 . S
C1248 C1250 1.395 . S
C1248 C1251 1.403 . S
H1249 C1255 0.930 . S
C1250 H1236 0.930 . S
C1250 C1248 1.395 . S
C1250 C1253 1.403 . S
C1251 C1248 1.403 . S
C1251 C1252 1.524 . S
C1251 C1255 1.400 . S
C1252 H1237 0.960 . S
C1252 H1238 0.960 . S
C1252 H1239 0.960 . S
C1252 C1251 1.524 . S
C1253 C1250 1.403 . S
C1253 C1254 1.392 . S
C1253 C1257 1.495 . S
C1254 C1253 1.392 . S
C1254 C1255 1.385 . S
C1254 C1256 1.478 . S
C1255 H1249 0.930 . S
C1255 C1251 1.400 . S
C1255 C1254 1.385 . S
C1256 C1254 1.478 . S
C1256 C1258 1.381 . S
C1256 C1262 1.383 . S
C1257 C1253 1.495 . S
C1257 H1263 0.959 . S
C1257 H1264 0.961 . S
C1257 H1265 0.960 . S
C1258 C1256 1.381 . S
C1258 C1259 1.394 . S
C1258 H1266 0.930 . S
C1259 C1258 1.394 . S
C1259 C1260 1.383 . S
C1259 H1267 0.929 . S
C1260 C1259 1.383 . S
C1260 C1261 1.377 . S
C1261 H1245 0.930 . S
C1261 C1260 1.377 . S
C1261 C1262 1.379 . S
C1262 H1246 0.931 . S
C1262 C1256 1.383 . S
C1262 C1261 1.379 . S
H1263 C1257 0.959 . S
H1264 C1257 0.961 . S
H1265 C1257 0.960 . S
H1266 C1258 0.930 . S
H1267 C1259 0.929 . S
H1268 C1276 0.929 . S
H1269 C1278 0.930 . S
H1270 C1280 0.930 . S
H1271 C1283 0.929 . S
H1272 C1286 0.930 . S
H1273 C1288 0.960 . S
H1274 C1288 0.960 . S
H1275 C1288 0.960 . S
C1276 H1268 0.929 . S
C1276 C1277 1.377 . S
C1276 C1278 1.384 . S
C1277 C1276 1.377 . S
C1277 C1283 1.390 . S
C1278 H1269 0.930 . S
C1278 C1276 1.384 . S
C1278 C1279 1.372 . S
C1279 C1278 1.372 . S
C1279 C1280 1.400 . S
C1279 C1284 1.490 . S
C1280 H1270 0.930 . S
C1280 C1279 1.400 . S
C1280 C1283 1.386 . S
H1281 C1297 0.930 . S
H1282 C1298 0.931 . S
C1283 H1271 0.929 . S
C1283 C1277 1.390 . S
C1283 C1280 1.386 . S
C1284 C1279 1.490 . S
C1284 C1286 1.395 . S
C1284 C1287 1.403 . S
H1285 C1291 0.930 . S
C1286 H1272 0.930 . S
C1286 C1284 1.395 . S
C1286 C1289 1.403 . S
C1287 C1284 1.403 . S
C1287 C1288 1.524 . S
C1287 C1291 1.400 . S
C1288 H1273 0.960 . S
C1288 H1274 0.960 . S
C1288 H1275 0.960 . S
C1288 C1287 1.524 . S
C1289 C1286 1.403 . S
C1289 C1290 1.392 . S
C1289 C1293 1.495 . S
C1290 C1289 1.392 . S
C1290 C1291 1.385 . S
C1290 C1292 1.478 . S
C1291 H1285 0.930 . S
C1291 C1287 1.400 . S
C1291 C1290 1.385 . S
C1292 C1290 1.478 . S
C1292 C1294 1.381 . S
C1292 C1298 1.383 . S
C1293 C1289 1.495 . S
C1293 H1299 0.959 . S
C1293 H1300 0.961 . S
C1293 H1301 0.960 . S
C1294 C1292 1.381 . S
C1294 C1295 1.394 . S
C1294 H1302 0.930 . S
C1295 C1294 1.394 . S
C1295 C1296 1.383 . S
C1295 H1303 0.929 . S
C1296 C1295 1.383 . S
C1296 C1297 1.377 . S
C1297 H1281 0.930 . S
C1297 C1296 1.377 . S
C1297 C1298 1.379 . S
C1298 H1282 0.931 . S
C1298 C1292 1.383 . S
C1298 C1297 1.379 . S
H1299 C1293 0.959 . S
H1300 C1293 0.961 . S
H1301 C1293 0.960 . S
H1302 C1294 0.930 . S
H1303 C1295 0.929 . S
H1304 C1312 0.929 . S
H1305 C1314 0.930 . S
H1306 C1316 0.930 . S
H1307 C1319 0.929 . S
H1308 C1322 0.930 . S
H1309 C1324 0.960 . S
H1310 C1324 0.960 . S
H1311 C1324 0.960 . S
C1312 H1304 0.929 . S
C1312 C1313 1.377 . S
C1312 C1314 1.384 . S
C1313 C1312 1.377 . S
C1313 C1319 1.390 . S
C1314 H1305 0.930 . S
C1314 C1312 1.384 . S
C1314 C1315 1.372 . S
C1315 C1314 1.372 . S
C1315 C1316 1.400 . S
C1315 C1320 1.490 . S
C1316 H1306 0.930 . S
C1316 C1315 1.400 . S
C1316 C1319 1.386 . S
H1317 C1333 0.930 . S
H1318 C1334 0.931 . S
C1319 H1307 0.929 . S
C1319 C1313 1.390 . S
C1319 C1316 1.386 . S
C1320 C1315 1.490 . S
C1320 C1322 1.395 . S
C1320 C1323 1.403 . S
H1321 C1327 0.930 . S
C1322 H1308 0.930 . S
C1322 C1320 1.395 . S
C1322 C1325 1.403 . S
C1323 C1320 1.403 . S
C1323 C1324 1.524 . S
C1323 C1327 1.400 . S
C1324 H1309 0.960 . S
C1324 H1310 0.960 . S
C1324 H1311 0.960 . S
C1324 C1323 1.524 . S
C1325 C1322 1.403 . S
C1325 C1326 1.392 . S
C1325 C1329 1.495 . S
C1326 C1325 1.392 . S
C1326 C1327 1.385 . S
C1326 C1328 1.478 . S
C1327 H1321 0.930 . S
C1327 C1323 1.400 . S
C1327 C1326 1.385 . S
C1328 C1326 1.478 . S
C1328 C1330 1.381 . S
C1328 C1334 1.383 . S
C1329 C1325 1.495 . S
C1329 H1335 0.959 . S
C1329 H1336 0.961 . S
C1329 H1337 0.960 . S
C1330 C1328 1.381 . S
C1330 C1331 1.394 . S
C1330 H1338 0.930 . S
C1331 C1330 1.394 . S
C1331 C1332 1.383 . S
C1331 H1339 0.929 . S
C1332 C1331 1.383 . S
C1332 C1333 1.377 . S
C1333 H1317 0.930 . S
C1333 C1332 1.377 . S
C1333 C1334 1.379 . S
C1334 H1318 0.931 . S
C1334 C1328 1.383 . S
C1334 C1333 1.379 . S
H1335 C1329 0.959 . S
H1336 C1329 0.961 . S
H1337 C1329 0.960 . S
H1338 C1330 0.930 . S
H1339 C1331 0.929 . S
H1340 C1348 0.929 . S
H1341 C1350 0.930 . S
H1342 C1352 0.930 . S
H1343 C1355 0.929 . S
H1344 C1358 0.930 . S
H1345 C1360 0.960 . S
H1346 C1360 0.960 . S
H1347 C1360 0.960 . S
C1348 H1340 0.929 . S
C1348 C1349 1.377 . S
C1348 C1350 1.384 . S
C1349 C1348 1.377 . S
C1349 C1355 1.390 . S
C1350 H1341 0.930 . S
C1350 C1348 1.384 . S
C1350 C1351 1.372 . S
C1351 C1350 1.372 . S
C1351 C1352 1.400 . S
C1351 C1356 1.490 . S
C1352 H1342 0.930 . S
C1352 C1351 1.400 . S
C1352 C1355 1.386 . S
H1353 C1369 0.930 . S
H1354 C1370 0.931 . S
C1355 H1343 0.929 . S
C1355 C1349 1.390 . S
C1355 C1352 1.386 . S
C1356 C1351 1.490 . S
C1356 C1358 1.395 . S
C1356 C1359 1.403 . S
H1357 C1363 0.930 1_556 S
C1358 H1344 0.930 . S
C1358 C1356 1.395 . S
C1358 C1361 1.403 . S
C1359 C1356 1.403 . S
C1359 C1360 1.524 . S
C1359 C1363 1.400 . S
C1360 H1345 0.960 . S
C1360 H1346 0.960 . S
C1360 H1347 0.960 . S
C1360 C1359 1.524 . S
C1361 C1358 1.403 . S
C1361 C1362 1.391 . S
C1361 C1365 1.495 . S
C1362 C1361 1.391 . S
C1362 C1363 1.384 . S
C1362 C1364 1.480 1_554 S
C1363 H1357 0.930 1_554 S
C1363 C1359 1.400 . S
C1363 C1362 1.384 . S
C1364 C1362 1.480 1_556 S
C1364 C1366 1.381 . S
C1364 C1370 1.383 . S
C1365 C1361 1.495 . S
C1365 H1371 0.959 . S
C1365 H1372 0.961 . S
C1365 H1373 0.961 . S
C1366 C1364 1.381 . S
C1366 C1367 1.394 . S
C1366 H1374 0.930 . S
C1367 C1366 1.394 . S
C1367 C1368 1.383 . S
C1367 H1375 0.929 . S
C1368 C1367 1.383 . S
C1368 C1369 1.377 . S
C1369 H1353 0.930 . S
C1369 C1368 1.377 . S
C1369 C1370 1.379 . S
C1370 H1354 0.931 . S
C1370 C1364 1.383 . S
C1370 C1369 1.379 . S
H1371 C1365 0.959 . S
H1372 C1365 0.961 . S
H1373 C1365 0.961 . S
H1374 C1366 0.930 . S
H1375 C1367 0.929 . S
C233 C97 2.175 . S
C252 C13 2.163 . S
C269 C111 2.180 . S
C288 C27 2.172 . S
C305 C41 2.180 . S
C324 C56 2.188 1_556 S
C341 C55 2.180 . S
C360 C83 2.175 . S
C377 C112 2.181 . S
C396 C197 2.187 1_556 S
C413 C223 2.180 . S
C432 C139 2.182 . S
C449 C141 2.175 . S
C468 C168 2.166 . S
C485 C155 2.174 . S
C504 C182 2.169 . S
C521 C12 2.074 . S
C540 C140 2.063 . S
C557 C26 2.079 . S
C576 C154 2.087 . S
C593 C40 2.072 . S
C612 C113 2.052 . S
C629 C54 2.079 . S
C648 C138 2.085 . S
C665 C57 2.077 . S
C684 C196 2.090 . S
C701 C222 2.074 . S
C720 C82 2.063 . S
C737 C96 2.075 . S
C756 C169 2.067 . S
C773 C183 2.070 . S
C792 C110 2.058 . S
C809 C195 0.448 . S
C828 C0 0.433 . S
C845 C14 0.445 . S
C864 C208 0.434 . S
C881 C210 0.445 . S
C900 C28 0.437 . S
C917 C181 0.456 . S
C936 C42 0.482 . S
C953 C166 0.444 . S
C972 C69 0.425 . S
C989 C70 0.452 . S
C1008 C125 0.473 . S
C1025 C84 0.454 . S
C1044 C126 0.479 . S
C1061 C98 0.455 . S
C1080 C152 0.480 . S
C1097 C194 1.782 . S
C1116 C1 1.777 . S
C1133 C15 1.778 . S
C1152 C209 1.768 . S
C1169 C29 1.780 . S
C1188 C211 1.775 . S
C1205 C180 1.783 . S
C1224 C43 1.783 . S
C1241 C167 1.778 . S
C1260 C68 1.771 . S
C1277 C124 1.782 . S
C1296 C71 1.776 . S
C1313 C85 1.780 . S
C1332 C127 1.772 . S
C1349 C153 1.781 . S
C1368 C99 1.785 . S
