# Generated by pormake.
# Topology ske, (6)-cn, num edge types: 1
# Building blocks:
#     Node 0, Type 0, BuildingBlock: HISSIN_clean_sbu_0, # of connection points: 6
#     Node 1, Type 0, BuildingBlock: HISSIN_clean_sbu_0, # of connection points: 6
#     Node 2, Type 0, BuildingBlock: HISSIN_clean_sbu_0, # of connection points: 6
#     Node 3, Type 0, BuildingBlock: HISSIN_clean_sbu_0, # of connection points: 6
#     Node 4, Type 0, BuildingBlock: HISSIN_clean_sbu_0, # of connection points: 6
#     Node 5, Type 0, BuildingBlock: HISSIN_clean_sbu_0, # of connection points: 6
#     Node 6, Type 0, BuildingBlock: HISSIN_clean_sbu_0, # of connection points: 6
#     Node 7, Type 0, BuildingBlock: HISSIN_clean_sbu_0, # of connection points: 6
#     Edge 8, Type (0, 0), BuildingBlock: EZIPEK_clean_linker_0, # of connection points: 2
#     Edge 9, Type (0, 0), BuildingBlock: EZIPEK_clean_linker_0, # of connection points: 2
#     Edge 10, Type (0, 0), BuildingBlock: EZIPEK_clean_linker_0, # of connection points: 2
#     Edge 11, Type (0, 0), BuildingBlock: EZIPEK_clean_linker_0, # of connection points: 2
#     Edge 12, Type (0, 0), BuildingBlock: EZIPEK_clean_linker_0, # of connection points: 2
#     Edge 13, Type (0, 0), BuildingBlock: EZIPEK_clean_linker_0, # of connection points: 2
#     Edge 14, Type (0, 0), BuildingBlock: EZIPEK_clean_linker_0, # of connection points: 2
#     Edge 15, Type (0, 0), BuildingBlock: EZIPEK_clean_linker_0, # of connection points: 2
#     Edge 16, Type (0, 0), BuildingBlock: EZIPEK_clean_linker_0, # of connection points: 2
#     Edge 17, Type (0, 0), BuildingBlock: EZIPEK_clean_linker_0, # of connection points: 2
#     Edge 18, Type (0, 0), BuildingBlock: EZIPEK_clean_linker_0, # of connection points: 2
#     Edge 19, Type (0, 0), BuildingBlock: EZIPEK_clean_linker_0, # of connection points: 2
#     Edge 20, Type (0, 0), BuildingBlock: EZIPEK_clean_linker_0, # of connection points: 2
#     Edge 21, Type (0, 0), BuildingBlock: EZIPEK_clean_linker_0, # of connection points: 2
#     Edge 22, Type (0, 0), BuildingBlock: EZIPEK_clean_linker_0, # of connection points: 2
#     Edge 23, Type (0, 0), BuildingBlock: EZIPEK_clean_linker_0, # of connection points: 2
#     Edge 24, Type (0, 0), BuildingBlock: EZIPEK_clean_linker_0, # of connection points: 2
#     Edge 25, Type (0, 0), BuildingBlock: EZIPEK_clean_linker_0, # of connection points: 2
#     Edge 26, Type (0, 0), BuildingBlock: EZIPEK_clean_linker_0, # of connection points: 2
#     Edge 27, Type (0, 0), BuildingBlock: EZIPEK_clean_linker_0, # of connection points: 2
#     Edge 28, Type (0, 0), BuildingBlock: EZIPEK_clean_linker_0, # of connection points: 2
#     Edge 29, Type (0, 0), BuildingBlock: EZIPEK_clean_linker_0, # of connection points: 2
#     Edge 30, Type (0, 0), BuildingBlock: EZIPEK_clean_linker_0, # of connection points: 2
#     Edge 31, Type (0, 0), BuildingBlock: EZIPEK_clean_linker_0, # of connection points: 2
# Relax obj value: 0.189
# Max RMSD: 0.206
# Mean RMSD: 0.199
data_MOF--net-ske--node1-HISSIN_clean_sbu_0--edge1-EZIPEK_clean_linker_0
_symmetry_space_group_name_H-M    P1
_symmetry_Int_Tables_number       1
_symmetry_cell_setting            triclinic
loop_
_symmetry_equiv_pos_as_xyz
'x, y, z'
_cell_length_a     88.550123
_cell_length_b     22.349054
_cell_length_c     11.449633
_cell_angle_alpha  90.207156
_cell_angle_beta   90.281922
_cell_angle_gamma 97.343872
loop_
_atom_site_label
_atom_site_type_symbol
_atom_site_fract_x
_atom_site_fract_y
_atom_site_fract_z
_atom_type_partial_charge
Eu0 Eu 0.12169 0.24099 0.51223 0.0
Eu1 Eu 0.15991 0.26216 0.51372 0.0
C2 C 0.14022 0.37184 0.51671 0.0
C3 C 0.07523 0.22123 0.50031 0.0
C4 C 0.06782 0.2681 0.45453 0.0
C5 C 0.05047 0.16392 0.53856 0.0
C6 C 0.05193 0.26315 0.45169 0.0
C7 C 0.0664 0.16891 0.54171 0.0
C8 C 0.04315 0.21125 0.4943 0.0
C9 C 0.09207 0.22752 0.50541 0.0
O10 O 0.15358 0.26969 0.70455 0.0
O11 O 0.12797 0.23189 0.70315 0.0
C12 C 0.14078 0.2506 0.75876 0.0
O13 O 0.12968 0.15226 0.46597 0.0
O14 O 0.18136 0.31675 0.56022 0.0
O15 O 0.18161 0.23456 0.45936 0.0
O16 O 0.15263 0.16549 0.56309 0.0
C17 C 0.14124 0.13053 0.51496 0.0
O18 O 0.12828 0.25987 0.32358 0.0
O19 O 0.15336 0.24201 0.32463 0.0
O20 O 0.15159 0.35013 0.46564 0.0
O21 O 0.09972 0.18764 0.55327 0.0
O22 O 0.1005 0.27426 0.46208 0.0
O23 O 0.12924 0.33666 0.56737 0.0
C24 C 0.20372 0.26667 0.57515 0.0
C25 C 0.21252 0.22427 0.52851 0.0
C26 C 0.22339 0.29284 0.72324 0.0
C27 C 0.22661 0.21649 0.57811 0.0
C28 C 0.20926 0.30061 0.67373 0.0
C29 C 0.23222 0.2512 0.6749 0.0
C30 C 0.18976 0.2794 0.51262 0.0
C31 C 0.14081 0.25075 0.26879 0.0
H32 H 0.0743 0.30895 0.42188 0.0
H33 H 0.04384 0.12357 0.57197 0.0
H34 H 0.04646 0.30014 0.41753 0.0
H35 H 0.07179 0.13202 0.57717 0.0
H36 H 0.2087 0.19815 0.4516 0.0
H37 H 0.22757 0.32012 0.79781 0.0
H38 H 0.23329 0.18426 0.5395 0.0
H39 H 0.20289 0.3342 0.71102 0.0
Eu40 Eu 0.90259 0.23629 0.56656 0.0
Eu41 Eu 0.86433 0.22892 0.55744 0.0
C42 C 0.88064 0.10898 0.55231 0.0
C43 C 0.94736 0.23479 0.5358 0.0
C44 C 0.95151 0.17622 0.52715 0.0
C45 C 0.97373 0.27623 0.50195 0.0
C46 C 0.96675 0.16789 0.50857 0.0
C47 C 0.95855 0.28455 0.52003 0.0
C48 C 0.97799 0.21797 0.49912 0.0
C49 C 0.93229 0.24582 0.57967 0.0
O50 O 0.87003 0.23587 0.75139 0.0
O51 O 0.89562 0.22428 0.75459 0.0
C52 C 0.88275 0.22946 0.80807 0.0
O53 O 0.89607 0.32536 0.62493 0.0
O54 O 0.84135 0.18492 0.51382 0.0
O55 O 0.84466 0.27682 0.57978 0.0
O56 O 0.87513 0.32186 0.50796 0.0
C57 C 0.8861 0.3525 0.56815 0.0
O58 O 0.89686 0.25168 0.37652 0.0
O59 O 0.87132 0.21384 0.37094 0.0
O60 O 0.86898 0.13417 0.59053 0.0
O61 O 0.92501 0.28543 0.52728 0.0
O62 O 0.92321 0.201 0.6237 0.0
O63 O 0.89344 0.14056 0.51867 0.0
C64 C 0.82008 0.22133 0.60721 0.0
C65 C 0.81759 0.25178 0.71185 0.0
C66 C 0.79299 0.18449 0.5977 0.0
C67 C 0.80288 0.24968 0.75728 0.0
C68 C 0.80769 0.1867 0.55207 0.0
C69 C 0.79044 0.21719 0.69899 0.0
C70 C 0.83485 0.23151 0.5458 0.0
C71 C 0.88425 0.23273 0.31854 0.0
H72 H 0.94316 0.137 0.53992 0.0
H73 H 0.98228 0.31532 0.49522 0.0
H74 H 0.96988 0.12261 0.50698 0.0
H75 H 0.95569 0.33011 0.52781 0.0
H76 H 0.8269 0.27905 0.75616 0.0
H77 H 0.78352 0.15919 0.55159 0.0
H78 H 0.80111 0.27516 0.83562 0.0
H79 H 0.80927 0.16335 0.47081 0.0
Eu80 Eu 0.15853 0.75885 0.52504 0.0
Eu81 Eu 0.12045 0.74402 0.51729 0.0
C82 C 0.13866 0.62951 0.521 0.0
C83 C 0.20241 0.75928 0.47301 0.0
C84 C 0.21092 0.71558 0.51828 0.0
C85 C 0.22271 0.78832 0.3335 0.0
C86 C 0.2252 0.70866 0.4724 0.0
C87 C 0.20839 0.79521 0.37921 0.0
C88 C 0.23129 0.74561 0.38095 0.0
C89 C 0.18835 0.77158 0.53335 0.0
O90 O 0.12624 0.75966 0.7095 0.0
O91 O 0.15131 0.74078 0.71267 0.0
C92 C 0.13869 0.75001 0.76629 0.0
O93 O 0.15123 0.84754 0.57841 0.0
O94 O 0.09809 0.69398 0.47539 0.0
O95 O 0.09983 0.78646 0.5385 0.0
O96 O 0.12977 0.83861 0.46564 0.0
C97 C 0.14062 0.87184 0.52287 0.0
O98 O 0.15261 0.77078 0.33363 0.0
O99 O 0.12739 0.72871 0.33043 0.0
O100 O 0.12709 0.6531 0.56542 0.0
O101 O 0.18046 0.81147 0.4884 0.0
O102 O 0.1797 0.7261 0.57926 0.0
O103 O 0.15039 0.66278 0.47487 0.0
C104 C 0.07518 0.72798 0.5518 0.0
C105 C 0.06849 0.77606 0.60084 0.0
C106 C 0.05023 0.66737 0.55087 0.0
C107 C 0.05281 0.77049 0.62106 0.0
C108 C 0.06593 0.67299 0.53004 0.0
C109 C 0.0435 0.71684 0.59254 0.0
C110 C 0.09078 0.73916 0.50301 0.0
C111 C 0.14007 0.74963 0.27665 0.0
H112 H 0.20673 0.68789 0.59163 0.0
H113 H 0.22726 0.81725 0.26293 0.0
H114 H 0.23169 0.67551 0.5101 0.0
H115 H 0.20224 0.82981 0.34316 0.0
H116 H 0.0752 0.81931 0.61716 0.0
H117 H 0.0432 0.62564 0.52807 0.0
H118 H 0.04781 0.80919 0.65297 0.0
H119 H 0.07066 0.6354 0.49072 0.0
Eu120 Eu 0.86565 0.71717 0.53775 0.0
Eu121 Eu 0.90431 0.74941 0.53794 0.0
C122 C 0.88176 0.85264 0.52045 0.0
C123 C 0.82155 0.70382 0.49166 0.0
C124 C 0.81641 0.76089 0.49083 0.0
C125 C 0.79788 0.66131 0.39696 0.0
C126 C 0.80208 0.76787 0.44443 0.0
C127 C 0.81216 0.65426 0.44364 0.0
C128 C 0.79267 0.71799 0.39821 0.0
C129 C 0.83593 0.69376 0.55071 0.0
O130 O 0.89931 0.72958 0.72756 0.0
O131 O 0.87322 0.73113 0.72745 0.0
C132 C 0.8863 0.7296 0.78238 0.0
O133 O 0.87445 0.62753 0.54015 0.0
O134 O 0.92553 0.8023 0.5987 0.0
O135 O 0.92581 0.74007 0.45304 0.0
O136 O 0.90048 0.64947 0.56866 0.0
C137 C 0.88799 0.61122 0.55798 0.0
O138 O 0.87077 0.7189 0.34506 0.0
O139 O 0.89688 0.747 0.34745 0.0
O140 O 0.89449 0.83677 0.56194 0.0
O141 O 0.8445 0.65856 0.49886 0.0
O142 O 0.84391 0.73952 0.6025 0.0
O143 O 0.87042 0.81379 0.48358 0.0
C144 C 0.94896 0.76369 0.55889 0.0
C145 C 0.95178 0.70395 0.57776 0.0
C146 C 0.97605 0.79747 0.57933 0.0
C147 C 0.96673 0.69106 0.59516 0.0
C148 C 0.96116 0.81033 0.56243 0.0
C149 C 0.97898 0.73772 0.5934 0.0
C150 C 0.93386 0.77831 0.52225 0.0
C151 C 0.88386 0.73281 0.29172 0.0
H152 H 0.82331 0.79993 0.52792 0.0
H153 H 0.79075 0.62234 0.36172 0.0
H154 H 0.79822 0.81194 0.44613 0.0
H155 H 0.81574 0.60968 0.4444 0.0
H156 H 0.94253 0.66721 0.57484 0.0
H157 H 0.98536 0.83395 0.57724 0.0
H158 H 0.96881 0.64464 0.60531 0.0
H159 H 0.95925 0.8566 0.54729 0.0
Eu160 Eu 0.62179 0.75073 0.05924 0.0
Eu161 Eu 0.66004 0.75383 0.05559 0.0
C162 C 0.6439 0.87233 0.04649 0.0
C163 C 0.5767 0.74679 1.01977 0.0
C164 C 0.56955 0.79754 0.99136 0.0
C165 C 0.55214 0.68427 1.00357 0.0
C166 C 0.55383 0.79208 0.97275 0.0
C167 C 0.5679 0.68977 1.02288 0.0
C168 C 0.54495 0.73573 0.98214 0.0
C169 C 0.59248 0.75631 0.06559 0.0
O170 O 0.65417 0.75726 0.24837 0.0
O171 O 0.62782 0.74476 0.24908 0.0
C172 C 0.64101 0.75002 0.30356 0.0
O173 O 0.6263 0.65466 1.02787 0.0
O174 O 0.68204 0.80514 0.09621 0.0
O175 O 0.68113 0.71924 1.00536 0.0
O176 O 0.65111 0.65786 0.09443 0.0
C177 C 0.63801 0.62799 0.0622 0.0
O178 O 0.62828 0.76119 0.86883 0.0
O179 O 0.65257 0.73365 0.86877 0.0
O180 O 0.65396 0.84333 0.99557 0.0
O181 O 0.59879 0.7109 0.10651 0.0
O182 O 0.60228 0.79794 1.01916 0.0
O183 O 0.63273 0.84386 0.10653 0.0
C184 C 0.70362 0.75154 0.11713 0.0
C185 C 0.71302 0.71237 0.06696 0.0
C186 C 0.72259 0.77578 0.27083 0.0
C187 C 0.7271 0.70539 0.11743 0.0
C188 C 0.70847 0.78264 0.2206 0.0
C189 C 0.73209 0.73779 0.21856 0.0
C190 C 0.68983 0.76444 0.05314 0.0
C191 C 0.64034 0.74685 0.81376 0.0
H192 H 0.576 0.84214 0.99009 0.0
H193 H 0.54543 0.64042 1.01139 0.0
H194 H 0.54848 0.83227 0.95674 0.0
H195 H 0.57303 0.64992 0.0458 0.0
H196 H 0.70968 0.68849 0.98653 0.0
H197 H 0.72628 0.80117 0.34888 0.0
H198 H 0.7343 0.67595 0.07588 0.0
H199 H 0.70157 0.81357 0.26101 0.0
Eu200 Eu 0.40266 0.71799 0.06055 0.0
Eu201 Eu 0.36453 0.71196 0.05282 0.0
C202 C 0.3809 0.59541 0.03819 0.0
C203 C 0.44773 0.72469 1.03203 0.0
C204 C 0.45369 0.68057 0.96427 0.0
C205 C 0.47335 0.7784 0.05207 0.0
C206 C 0.46934 0.68452 0.94338 0.0
C207 C 0.45771 0.77442 0.07325 0.0
C208 C 0.47931 0.73255 0.99001 0.0
C209 C 0.43201 0.71314 0.07782 0.0
O210 O 0.37056 0.69651 0.24205 0.0
O211 O 0.3958 0.73718 0.24537 0.0
C212 C 0.38307 0.7174 0.29907 0.0
O213 O 0.39868 0.81224 1.01752 0.0
O214 O 0.34246 0.66004 0.08796 0.0
O215 O 0.3435 0.74923 1.0116 0.0
O216 O 0.374 0.80948 0.08379 0.0
C217 C 0.38692 0.83915 0.04695 0.0
O218 O 0.39685 0.71495 0.86594 0.0
O219 O 0.37092 0.72187 0.86331 0.0
O220 O 0.37092 0.62422 0.98526 0.0
O221 O 0.42539 0.75785 0.11817 0.0
O222 O 0.42242 0.67138 1.02857 0.0
O223 O 0.39159 0.62437 0.10361 0.0
C224 C 0.32091 0.71233 0.11813 0.0
C225 C 0.31599 0.76968 0.12515 0.0
C226 C 0.29735 0.66906 0.21124 0.0
C227 C 0.30179 0.77641 0.17345 0.0
C228 C 0.3115 0.66228 0.16296 0.0
C229 C 0.29229 0.72596 0.21498 0.0
C230 C 0.33474 0.70249 0.05203 0.0
C231 C 0.38395 0.71964 0.80963 0.0
H232 H 0.44638 0.64119 0.93274 0.0
H233 H 0.48091 0.81564 0.08924 0.0
H234 H 0.47376 0.64858 0.89588 0.0
H235 H 0.45355 0.8086 0.12734 0.0
H236 H 0.32286 0.80905 0.09024 0.0
H237 H 0.29014 0.62965 0.2427 0.0
H238 H 0.29803 0.82066 0.17556 0.0
H239 H 0.31486 0.61742 0.1572 0.0
Eu240 Eu 0.65842 0.26256 1.01133 0.0
Eu241 Eu 0.61983 0.22987 1.0083 0.0
C242 C 0.64222 0.12754 1.00222 0.0
C243 C 0.7023 0.2696 0.96604 0.0
C244 C 0.70351 0.21314 0.91473 0.0
C245 C 0.72887 0.30189 0.92021 0.0
C246 C 0.71739 0.20112 0.86716 0.0
C247 C 0.71506 0.31386 0.96763 0.0
C248 C 0.73019 0.24535 0.87049 0.0
C249 C 0.68822 0.28302 1.02326 0.0
O250 O 0.62476 0.24874 0.19914 0.0
O251 O 0.65097 0.25009 0.20104 0.0
C252 C 0.63782 0.24988 0.25508 0.0
O253 O 0.65001 0.35235 1.03161 0.0
O254 O 0.59881 0.17473 0.06382 0.0
O255 O 0.59819 0.23958 0.92383 0.0
O256 O 0.62367 0.33084 1.02898 0.0
C257 C 0.6363 0.36873 0.03525 0.0
O258 O 0.65248 0.26892 0.82017 0.0
O259 O 0.62767 0.22192 0.82047 0.0
O260 O 0.62986 0.14467 0.04661 0.0
O261 O 0.67988 0.31778 0.96768 0.0
O262 O 0.68003 0.23897 0.07708 0.0
O263 O 0.653 0.16568 0.95643 0.0
C264 C 0.57485 0.21014 1.02492 0.0
C265 C 0.56967 0.26668 1.01107 0.0
C266 C 0.54905 0.16665 0.07443 0.0
C267 C 0.55424 0.27273 1.02641 0.0
C268 C 0.56445 0.1606 0.05922 0.0
C269 C 0.54378 0.2224 0.05552 0.0
C270 C 0.59032 0.19944 0.9893 0.0
C271 C 0.64001 0.24562 0.76536 0.0
H272 H 0.69381 0.17831 0.9125 0.0
H273 H 0.73861 0.33658 0.92315 0.0
H274 H 0.7182 0.15733 0.82857 0.0
H275 H 0.71437 0.35759 1.00701 0.0
H276 H 0.5774 0.30562 0.98404 0.0
H277 H 0.54113 0.12731 0.09639 0.0
H278 H 0.55034 0.31604 1.01102 0.0
H279 H 0.56812 0.11647 0.06924 0.0
Eu280 Eu 0.36466 0.20358 0.99336 0.0
Eu281 Eu 0.40332 0.23606 0.99277 0.0
C282 C 0.38103 0.33897 0.98819 0.0
C283 C 0.32073 0.19756 0.94359 0.0
C284 C 0.31671 0.25652 0.94147 0.0
C285 C 0.29642 0.16099 0.85146 0.0
C286 C 0.3026 0.26736 0.89583 0.0
C287 C 0.31048 0.15009 0.89733 0.0
C288 C 0.2923 0.21954 0.85157 0.0
C289 C 0.33484 0.18351 1.00192 0.0
O290 O 0.39847 0.21842 0.1836 0.0
O291 O 0.37218 0.2152 0.18365 0.0
C292 C 0.38538 0.21635 0.23847 0.0
O293 O 0.37307 0.11351 1.01155 0.0
O294 O 0.42432 0.29296 0.0452 0.0
O295 O 0.42498 0.22399 0.91206 0.0
O296 O 0.39942 0.13549 1.01603 0.0
C297 C 0.38681 0.09741 1.01871 0.0
O298 O 0.37041 0.19821 0.80209 0.0
O299 O 0.39546 0.24257 0.80429 0.0
O300 O 0.3935 0.32157 1.03062 0.0
O301 O 0.34318 0.14879 0.94634 0.0
O302 O 0.34305 0.22657 0.05955 0.0
O303 O 0.36997 0.30112 0.9435 0.0
C304 C 0.44842 0.25951 1.00695 0.0
C305 C 0.45218 0.20555 0.05509 0.0
C306 C 0.47532 0.29855 0.99994 0.0
C307 C 0.4675 0.19802 0.07435 0.0
C308 C 0.46008 0.30617 0.98155 0.0
C309 C 0.47916 0.24417 0.04471 0.0
C310 C 0.43275 0.26721 0.97217 0.0
C311 C 0.38297 0.22014 0.74833 0.0
H312 H 0.32431 0.29406 0.97701 0.0
H313 H 0.28861 0.12354 0.81778 0.0
H314 H 0.2996 0.31285 0.89668 0.0
H315 H 0.31321 0.10421 0.89893 0.0
H316 H 0.44334 0.16889 0.07471 0.0
H317 H 0.48415 0.33451 0.97633 0.0
H318 H 0.47028 0.15565 0.10861 0.0
H319 H 0.45741 0.34798 0.94377 0.0
C320 C 0.24913 0.21398 0.82906 0.0
C321 C 0.24764 0.24527 0.72284 0.0
C322 C 0.27541 0.25783 0.69837 0.0
C323 C 0.27696 0.23018 0.80844 0.0
N324 N 0.26562 0.19207 0.98887 0.0
N325 N 0.25931 0.3068 0.56699 0.0
C326 C 0.26389 0.21119 0.87685 0.0
C327 C 0.26078 0.27009 0.66054 0.0
N328 N 0.23645 0.18515 0.88221 0.0
N329 N 0.28785 0.27042 0.62811 0.0
H330 H 0.24879 0.31681 0.53669 0.0
H331 H 0.26852 0.33149 0.52566 0.0
H332 H 0.29876 0.26244 0.65301 0.0
H333 H 0.28718 0.28424 0.54169 0.0
H334 H 0.23689 0.15593 0.95243 0.0
H335 H 0.22545 0.18653 0.85034 0.0
H336 H 0.25664 0.18378 0.04742 0.0
H337 H 0.27624 0.18953 1.02699 0.0
C338 C 0.75467 0.19933 0.88725 0.0
C339 C 0.74508 0.23326 0.82191 0.0
C340 C 0.76534 0.25779 0.67791 0.0
C341 C 0.77462 0.22101 0.73949 0.0
N342 N 0.77728 0.1482 0.89037 0.0
N343 N 0.74 0.28474 0.64428 0.0
C344 C 0.76902 0.18916 0.84058 0.0
C345 C 0.75004 0.25939 0.71378 0.0
N346 N 0.75032 0.1788 0.99586 0.0
N347 N 0.77134 0.29323 0.58812 0.0
H348 H 0.72871 0.2868 0.66798 0.0
H349 H 0.74241 0.2988 0.55904 0.0
H350 H 0.7825 0.29355 0.55907 0.0
H351 H 0.76572 0.32604 0.54862 0.0
H352 H 0.75751 0.15989 0.0534 0.0
H353 H 0.73983 0.1846 1.0323 0.0
H354 H 0.77314 0.11887 0.9566 0.0
H355 H 0.78785 0.13995 0.85878 0.0
C356 C 0.26394 0.71295 0.1842 0.0
C357 C 0.27669 0.73202 0.25708 0.0
C358 C 0.25973 0.7653 0.40607 0.0
C359 C 0.24693 0.7411 0.33784 0.0
N360 N 0.23664 0.68388 0.17039 0.0
N361 N 0.28681 0.76824 0.44371 0.0
C362 C 0.24898 0.71272 0.22905 0.0
C363 C 0.27461 0.75602 0.36988 0.0
N364 N 0.26614 0.69675 0.07086 0.0
N365 N 0.25768 0.79878 0.50358 0.0
H366 H 0.29789 0.76259 0.41977 0.0
H367 H 0.28581 0.77935 0.53149 0.0
H368 H 0.24697 0.80652 0.53303 0.0
H369 H 0.2666 0.8231 0.54986 0.0
H370 H 0.25737 0.68878 1.00967 0.0
H371 H 0.27692 0.69618 0.03483 0.0
H372 H 0.2375 0.65664 0.09738 0.0
H373 H 0.2255 0.68307 0.2002 0.0
C374 C 0.76055 0.76263 0.20674 0.0
C375 C 0.7476 0.73396 0.26651 0.0
C376 C 0.76418 0.70144 0.41975 0.0
C377 C 0.77715 0.72459 0.35367 0.0
N378 N 0.78779 0.76936 0.17611 0.0
N379 N 0.73699 0.66876 0.42081 0.0
C380 C 0.77537 0.75315 0.24488 0.0
C381 C 0.74938 0.70139 0.37075 0.0
N382 N 0.75869 0.80046 0.11562 0.0
N383 N 0.76601 0.68115 0.53081 0.0
H384 H 0.72596 0.66785 0.38772 0.0
H385 H 0.73776 0.63875 0.48929 0.0
H386 H 0.77666 0.68063 0.56983 0.0
H387 H 0.75699 0.66979 0.58794 0.0
H388 H 0.76768 0.82771 0.07673 0.0
H389 H 0.74803 0.80874 0.0853 0.0
H390 H 0.78703 0.78412 0.09037 0.0
H391 H 0.79883 0.76335 0.20117 0.0
C392 C 0.15167 0.97356 0.45006 0.0
C393 C 0.14106 0.93818 0.52253 0.0
C394 C 0.13098 0.02905 0.59243 0.0
C395 C 0.14128 0.06439 0.51772 0.0
N396 N 0.16185 0.07329 0.37937 0.0
N397 N 0.11975 0.92943 0.65425 0.0
C398 C 0.15179 0.03744 0.44769 0.0
C399 C 0.13047 0.96518 0.59142 0.0
N400 N 0.16119 0.94544 0.38058 0.0
N401 N 0.12223 0.05699 0.66844 0.0
H402 H 0.11954 0.88281 0.66086 0.0
H403 H 0.11054 0.94504 0.6951 0.0
H404 H 0.12222 0.10363 0.67129 0.0
H405 H 0.11574 0.03493 0.73461 0.0
H406 H 0.16873 0.96703 0.32039 0.0
H407 H 0.16133 0.89886 0.38016 0.0
H408 H 0.17049 0.05823 0.33077 0.0
H409 H 0.1618 0.11976 0.37216 0.0
C410 C 0.89902 0.45355 0.50705 0.0
C411 C 0.88731 0.41887 0.57061 0.0
C412 C 0.87845 0.51104 0.64408 0.0
C413 C 0.88886 0.54571 0.56903 0.0
N414 N 0.90784 0.54924 0.41678 0.0
N415 N 0.86457 0.41342 0.68737 0.0
C416 C 0.89898 0.51696 0.49813 0.0
C417 C 0.87663 0.44726 0.63551 0.0
N418 N 0.91006 0.42583 0.45381 0.0
N419 N 0.87068 0.53897 0.72678 0.0
H420 H 0.86304 0.36643 0.68636 0.0
H421 H 0.85544 0.43191 0.72376 0.0
H422 H 0.87185 0.58564 0.73793 0.0
H423 H 0.86425 0.5158 0.7922 0.0
H424 H 0.91993 0.44924 0.41891 0.0
H425 H 0.9099 0.37913 0.4511 0.0
H426 H 0.91393 0.52943 0.35291 0.0
H427 H 0.90825 0.5956 0.40604 0.0
C428 C 0.87276 0.9408 0.61993 0.0
C429 C 0.8798 0.91702 0.5224 0.0
C430 C 0.88328 0.01673 0.43333 0.0
C431 C 0.8791 0.04236 0.54025 0.0
N432 N 0.87116 0.02818 0.74159 0.0
N433 N 0.89283 0.93226 0.33847 0.0
C434 C 0.87403 0.00428 0.63517 0.0
C435 C 0.8854 0.95495 0.42958 0.0
N436 N 0.8647 0.90284 0.69709 0.0
N437 N 0.88435 0.05056 0.33395 0.0
H438 H 0.89425 0.88674 0.3315 0.0
H439 H 0.89851 0.95939 0.27449 0.0
H440 H 0.88152 0.09441 0.33203 0.0
H441 H 0.88614 0.03288 0.25158 0.0
H442 H 0.8581 0.91787 0.7635 0.0
H443 H 0.86342 0.85601 0.68783 0.0
H444 H 0.86922 0.00217 0.81665 0.0
H445 H 0.87196 0.07429 0.7579 0.0
C446 C 0.14903 0.53807 0.59743 0.0
C447 C 0.13861 0.56329 0.52321 0.0
C448 C 0.12918 0.46283 0.44548 0.0
C449 C 0.13978 0.43776 0.51806 0.0
N450 N 0.15849 0.44808 0.67262 0.0
N451 N 0.12001 0.55271 0.36769 0.0
C452 C 0.14945 0.47454 0.59616 0.0
C453 C 0.1289 0.5264 0.44556 0.0
N454 N 0.15867 0.57529 0.66768 0.0
N455 N 0.1192 0.42549 0.37798 0.0
H456 H 0.11936 0.59895 0.36623 0.0
H457 H 0.11396 0.52983 0.29952 0.0
H458 H 0.1196 0.3792 0.37087 0.0
H459 H 0.11001 0.43929 0.33327 0.0
H460 H 0.16768 0.56167 0.71493 0.0
H461 H 0.15806 0.62138 0.67616 0.0
H462 H 0.16477 0.47067 0.73998 0.0
H463 H 0.15918 0.40184 0.6732 0.0
C464 C 0.6411 0.52882 0.15724 0.0
C465 C 0.63679 0.56115 0.05848 0.0
C466 C 0.62927 0.46579 0.95469 0.0
C467 C 0.63527 0.43406 0.04769 0.0
N468 N 0.64893 0.43641 0.23158 0.0
N469 N 0.63082 0.56071 0.85256 0.0
C470 C 0.64179 0.46587 0.14725 0.0
C471 C 0.63183 0.52977 0.95446 0.0
N472 N 0.64414 0.55772 0.26177 0.0
N473 N 0.62143 0.43529 0.86502 0.0
H474 H 0.63402 0.60707 0.84635 0.0
H475 H 0.6287 0.53975 0.77166 0.0
H476 H 0.61972 0.38846 0.85849 0.0
H477 H 0.61549 0.45658 0.802 0.0
H478 H 0.64543 0.53514 0.3399 0.0
H479 H 0.64412 0.60392 0.27296 0.0
H480 H 0.65554 0.45861 0.29796 0.0
H481 H 0.64916 0.38994 0.23147 0.0
C482 C 0.38384 0.93821 0.14069 0.0
C483 C 0.38839 0.90605 0.04271 0.0
C484 C 0.39486 0.00169 0.93863 0.0
C485 C 0.38803 0.0322 1.0295 0.0
N486 N 0.37422 0.02783 0.21183 0.0
N487 N 0.3967 0.90677 0.84142 0.0
C488 C 0.38192 -7e-05 0.1288 0.0
C489 C 0.39365 0.93766 0.94008 0.0
N490 N 0.38218 0.91066 0.24709 0.0
N491 N 0.40239 0.03354 0.85006 0.0
H492 H 0.39618 0.86007 0.8372 0.0
H493 H 0.39854 0.92708 0.76011 0.0
H494 H 0.4029 0.08007 0.841 0.0
H495 H 0.40917 0.01433 0.78998 0.0
H496 H 0.38025 0.93345 0.32404 0.0
H497 H 0.38461 0.86677 0.26087 0.0
H498 H 0.36805 0.00448 0.27842 0.0
H499 H 0.37306 0.07362 0.21017 0.0
C500 C 0.36854 0.42646 0.06131 0.0
C501 C 0.37974 0.40409 0.99085 0.0
C502 C 0.39195 0.50681 0.95543 0.0
C503 C 0.38036 0.52959 1.02104 0.0
N504 N 0.35652 0.51263 0.12447 0.0
N505 N 0.40004 0.42206 0.85104 0.0
C506 C 0.36823 0.48983 0.06945 0.0
C507 C 0.39086 0.44406 0.93222 0.0
N508 N 0.35879 0.38742 0.12592 0.0
N509 N 0.40416 0.54498 0.91654 0.0
H510 H 0.39944 0.37626 0.83085 0.0
H511 H 0.40722 0.44935 0.79581 0.0
H512 H 0.40496 0.59162 0.92489 0.0
H513 H 0.41392 0.53036 0.88196 0.0
H514 H 0.35162 0.40116 0.18969 0.0
H515 H 0.35861 0.34074 0.12239 0.0
H516 H 0.34646 0.48643 0.14874 0.0
H517 H 0.35645 0.55856 0.1402 0.0
C518 C 0.63356 0.02196 0.93786 0.0
C519 C 0.64384 0.06271 1.00431 0.0
C520 C 0.65477 0.9784 0.09441 0.0
C521 C 0.64445 0.93782 1.02818 0.0
N522 N 0.62611 0.9192 0.87191 0.0
N523 N 0.66536 0.08203 0.13536 0.0
C524 C 0.63443 0.95912 0.94559 0.0
C525 C 0.65488 0.0416 0.07887 0.0
N526 N 0.62285 0.04348 0.86853 0.0
N527 N 0.66404 0.95626 0.17517 0.0
H528 H 0.66519 0.12851 0.13252 0.0
H529 H 0.67473 0.07022 0.18078 0.0
H530 H 0.66471 0.91029 0.18487 0.0
H531 H 0.67058 0.98264 0.23646 0.0
H532 H 0.61375 0.01636 0.82983 0.0
H533 H 0.6226 0.08933 0.85329 0.0
H534 H 0.61984 0.93181 0.8011 0.0
H535 H 0.62635 0.87283 0.87598 0.0
C536 C 0.13998 0.30523 0.07626 0.0
C537 C 0.14082 0.25066 0.13805 0.0
C538 C 0.14269 0.19698 0.95111 0.0
C539 C 0.14078 0.25057 0.8894 0.0
N540 N 0.13571 0.35391 0.89159 0.0
N541 N 0.14083 0.14286 0.13541 0.0
C542 C 0.13889 0.30421 0.95166 0.0
C543 C 0.14164 0.19605 0.07567 0.0
N544 N 0.14083 0.35848 0.13665 0.0
N545 N 0.14586 0.14727 0.89057 0.0
H546 H 0.14005 0.14044 0.22617 0.0
H547 H 0.13971 0.10066 0.09528 0.0
H548 H 0.1464 0.14594 0.79964 0.0
H549 H 0.14905 0.10888 0.93002 0.0
H550 H 0.14195 0.40064 0.09705 0.0
H551 H 0.14164 0.36102 0.22746 0.0
H552 H 0.13251 0.39227 0.93135 0.0
H553 H 0.13517 0.35525 0.80066 0.0
C554 C 0.89224 0.1925 0.125 0.0
C555 C 0.88439 0.23368 0.18805 0.0
C556 C 0.87703 0.27696 1.00203 0.0
C557 C 0.88298 0.23021 0.93924 0.0
N558 N 0.89398 0.13662 0.9453 0.0
N559 N 0.86791 0.31179 0.18623 0.0
C560 C 0.89002 0.18619 1.00195 0.0
C561 C 0.87624 0.2745 0.12635 0.0
N562 N 0.90199 0.15971 0.18192 0.0
N563 N 0.87318 0.32618 0.94398 0.0
H564 H 0.86787 0.31474 0.27709 0.0
H565 H 0.86028 0.33702 0.14568 0.0
H566 H 0.87471 0.33207 0.8545 0.0
H567 H 0.87021 0.36439 0.98593 0.0
H568 H 0.90927 0.13405 0.13861 0.0
H569 H 0.90381 0.16206 0.2719 0.0
H570 H 0.89751 0.09988 0.98869 0.0
H571 H 0.89234 0.12916 0.8561 0.0
C572 C 0.13954 0.80501 0.08466 0.0
C573 C 0.14002 0.75 0.1458 0.0
C574 C 0.13814 0.69453 0.95849 0.0
C575 C 0.13868 0.74994 0.8971 0.0
N576 N 0.14182 0.8586 0.89982 0.0
N577 N 0.14176 0.64338 0.14185 0.0
C578 C 0.13988 0.80538 0.95979 0.0
C579 C 0.13984 0.69498 0.08282 0.0
N580 N 0.13825 0.85669 0.14607 0.0
N581 N 0.13556 0.64132 0.8979 0.0
H582 H 0.14297 0.64206 0.23242 0.0
H583 H 0.14335 0.60294 0.10122 0.0
H584 H 0.13437 0.63936 0.80725 0.0
H585 H 0.13343 0.59923 0.93732 0.0
H586 H 0.1361 0.89688 0.10761 0.0
H587 H 0.13826 0.85845 0.23706 0.0
H588 H 0.14452 0.90062 0.9394 0.0
H589 H 0.14178 0.86068 0.80885 0.0
C590 C 0.88186 0.78161 0.97263 0.0
C591 C 0.88634 0.73085 0.9132 0.0
C592 C 0.88994 0.68252 0.10285 0.0
C593 C 0.88417 0.73107 0.16117 0.0
N594 N 0.87264 0.82292 0.15115 0.0
N595 N 0.89382 0.63095 0.9201 0.0
C596 C 0.87948 0.77933 0.09575 0.0
C597 C 0.89027 0.68087 0.978 0.0
N598 N 0.8808 0.83349 0.91206 0.0
N599 N 0.89518 0.638 0.16727 0.0
H600 H 0.89485 0.62906 0.82961 0.0
H601 H 0.89494 0.59009 0.96041 0.0
H602 H 0.89404 0.63535 0.2577 0.0
H603 H 0.90126 0.6053 0.13253 0.0
H604 H 0.87902 0.87409 0.95127 0.0
H605 H 0.88336 0.83771 0.82348 0.0
H606 H 0.86747 0.85566 0.10716 0.0
H607 H 0.87105 0.82364 0.24127 0.0
C608 C 0.64978 0.79534 0.49919 0.0
C609 C 0.64087 0.74908 0.43448 0.0
C610 C 0.63001 0.70649 0.61879 0.0
C611 C 0.64038 0.74793 0.68331 0.0
N612 N 0.66126 0.82899 0.68431 0.0
N613 N 0.6241 0.65458 0.43536 0.0
C614 C 0.6507 0.79109 0.6232 0.0
C615 C 0.63137 0.70312 0.49501 0.0
N616 N 0.65651 0.84572 0.44329 0.0
N617 N 0.61868 0.67062 0.67508 0.0
H618 H 0.62456 0.64973 0.3451 0.0
H619 H 0.6187 0.61621 0.47634 0.0
H620 H 0.61744 0.67002 0.76546 0.0
H621 H 0.60971 0.64501 0.63154 0.0
H622 H 0.66178 0.88381 0.48685 0.0
H623 H 0.65535 0.85254 0.35394 0.0
H624 H 0.67029 0.85569 0.6447 0.0
H625 H 0.66161 0.83123 0.77513 0.0
C626 C 0.38983 0.67305 0.61568 0.0
C627 C 0.38372 0.71937 0.67841 0.0
C628 C 0.37515 0.75887 0.49166 0.0
C629 C 0.38302 0.71741 0.42948 0.0
N630 N 0.39943 0.6391 0.43243 0.0
N631 N 0.3721 0.81162 0.67355 0.0
C632 C 0.39096 0.67615 0.49166 0.0
C633 C 0.37674 0.76361 0.61566 0.0
N634 N 0.39344 0.62341 0.67352 0.0
N635 N 0.36599 0.79339 0.43257 0.0
H636 H 0.37282 0.817 0.76381 0.0
H637 H 0.36872 0.84896 0.63138 0.0
H638 H 0.36483 0.79251 0.34192 0.0
H639 H 0.35859 0.81927 0.47376 0.0
H640 H 0.39658 0.58546 0.63167 0.0
H641 H 0.39144 0.61694 0.76231 0.0
H642 H 0.4069 0.61343 0.47373 0.0
H643 H 0.39981 0.63698 0.34154 0.0
C644 C 0.63395 0.29752 0.45228 0.0
C645 C 0.63776 0.24767 0.38607 0.0
C646 C 0.64204 0.19428 0.56968 0.0
C647 C 0.6397 0.24654 0.63466 0.0
N648 N 0.63594 0.35135 0.63737 0.0
N649 N 0.64603 0.14892 0.38075 0.0
C650 C 0.63638 0.29914 0.57568 0.0
C651 C 0.64203 0.1962 0.4447 0.0
N652 N 0.62769 0.34289 0.39796 0.0
N653 N 0.64398 0.1424 0.62767 0.0
H654 H 0.64488 0.14609 0.29016 0.0
H655 H 0.65108 0.11355 0.41641 0.0
H656 H 0.64468 0.14015 0.71848 0.0
H657 H 0.644 0.1007 0.587 0.0
H658 H 0.62318 0.37711 0.44274 0.0
H659 H 0.62574 0.34374 0.30825 0.0
H660 H 0.63522 0.39294 0.59846 0.0
H661 H 0.6377 0.35424 0.7274 0.0
C662 C 0.3813 0.27017 0.42843 0.0
C663 C 0.3854 0.21843 0.3694 0.0
C664 C 0.38637 0.16635 0.55803 0.0
C665 C 0.38324 0.2192 0.61763 0.0
N666 N 0.3792 0.32361 0.61221 0.0
N667 N 0.39486 0.12206 0.38009 0.0
C668 C 0.38112 0.27178 0.5534 0.0
C669 C 0.38887 0.16799 0.43492 0.0
N670 N 0.37759 0.31791 0.36476 0.0
N671 N 0.38653 0.11391 0.61882 0.0
H672 H 0.39684 0.12139 0.2905 0.0
H673 H 0.39911 0.08712 0.42436 0.0
H674 H 0.38464 0.11099 0.70852 0.0
H675 H 0.38713 0.07226 0.57931 0.0
H676 H 0.3727 0.35373 0.40028 0.0
H677 H 0.37883 0.32068 0.27436 0.0
H678 H 0.37937 0.36551 0.57256 0.0
H679 H 0.37825 0.32549 0.70286 0.0
C680 C 0.01881 0.21755 0.60303 0.0
C681 C 0.02625 0.20784 0.49639 0.0
C682 C 1.00192 0.20331 0.39048 0.0
C683 C 0.99442 0.21026 0.49789 0.0
N684 N 0.995 0.21279 0.70846 0.0
N685 N 0.02483 0.1811 0.29221 0.0
C686 C 1.00266 0.21378 0.60488 0.0
C687 C 0.01777 0.1976 0.39101 0.0
N688 N 0.02722 0.23314 0.70154 0.0
N689 N 0.99398 0.20391 0.28789 0.0
H690 H 0.03641 0.17667 0.28968 0.0
H691 H 0.01906 0.1671 0.21548 0.0
H692 H 0.98229 0.2061 0.2847 0.0
H693 H 0.99907 0.20608 0.20602 0.0
H694 H 0.02261 0.24776 0.77844 0.0
H695 H 0.03907 0.23612 0.70421 0.0
H696 H 1.00015 0.20839 0.78937 0.0
H697 H 0.9832 0.21132 0.71345 0.0
C698 C 1.00302 0.72221 0.70231 0.0
C699 C 0.99503 0.72439 0.59496 0.0
C700 C 0.01868 0.71994 0.48642 0.0
C701 C 0.02661 0.71535 0.59356 0.0
N702 N 0.02609 0.70149 0.80199 0.0
N703 N 0.99437 0.71279 0.38555 0.0
C704 C 0.01868 0.71321 0.70125 0.0
C705 C 1.0026 0.71907 0.48725 0.0
N706 N 0.99573 0.73057 0.80493 0.0
N707 N 0.02659 0.72847 0.38421 0.0
H708 H 0.98261 0.71317 0.38232 0.0
H709 H 0.99895 0.70193 0.30581 0.0
H710 H 0.03838 0.72974 0.37914 0.0
H711 H 0.02167 0.73933 0.3056 0.0
H712 H 1.00127 0.73647 0.88533 0.0
H713 H 0.98417 0.73519 0.80883 0.0
H714 H 0.02067 0.69354 0.88195 0.0
H715 H 0.03754 0.69485 0.8038 0.0
C716 C 0.52002 0.72263 0.08864 0.0
C717 C 0.52804 0.73204 0.98182 0.0
C718 C 0.50419 0.74549 0.88046 0.0
C719 C 0.49607 0.73139 0.98546 0.0
N720 N 0.49579 0.69403 0.18309 0.0
N721 N 0.52766 0.74302 0.77262 0.0
C722 C 0.50386 0.71623 0.08769 0.0
C723 C 0.52008 0.74076 0.87653 0.0
N724 N 0.52784 0.72245 0.19194 0.0
N725 N 0.49679 0.76519 0.78577 0.0
H726 H 0.53927 0.73967 0.76687 0.0
H727 H 0.52225 0.74317 0.69167 0.0
H728 H 0.48516 0.76869 0.78548 0.0
H729 H 0.50235 0.78239 0.71083 0.0
H730 H 0.52263 0.72274 0.27327 0.0
H731 H 0.53969 0.72757 0.19722 0.0
H732 H 0.50079 0.67593 0.25516 0.0
H733 H 0.48392 0.6884 0.18608 0.0
C734 C 0.5023 0.20859 0.95581 0.0
C735 C 0.49549 0.23477 0.05219 0.0
C736 C 0.52011 0.24813 0.1556 0.0
C737 C 0.52712 0.22656 0.05535 0.0
N738 N 0.52551 0.19327 0.85456 0.0
N739 N 0.49781 0.28452 0.23958 0.0
C740 C 0.51836 0.20845 0.95406 0.0
C741 C 0.50438 0.25588 0.15115 0.0
N742 N 0.49335 0.18324 0.86632 0.0
N743 N 0.52846 0.25986 0.25576 0.0
H744 H 0.48621 0.28864 0.24141 0.0
H745 H 0.50392 0.30723 0.30778 0.0
H746 H 0.54004 0.25574 0.2611 0.0
H747 H 0.52377 0.26962 0.33569 0.0
H748 H 0.4973 0.1572 0.80031 0.0
H749 H 0.48162 0.18432 0.86218 0.0
H750 H 0.5201 0.18653 0.77384 0.0
H751 H 0.53722 0.19178 0.85 0.0
loop_
_geom_bond_atom_site_label_1
_geom_bond_atom_site_label_2
_geom_bond_distance
_geom_bond_site_symmetry_2
_ccdc_geom_bond_type
Eu0 C9 2.828 . S
Eu0 O11 2.392 . S
Eu0 O13 2.418 . S
Eu0 O18 2.373 . S
Eu0 O21 2.488 . S
Eu0 O22 2.471 . S
Eu0 O23 2.349 . S
Eu1 O10 2.373 . S
Eu1 O14 2.488 . S
Eu1 O15 2.471 . S
Eu1 O16 2.349 . S
Eu1 O19 2.392 . S
Eu1 O20 2.418 . S
Eu1 C30 2.828 . S
C2 O20 1.244 . S
C2 O23 1.265 . S
C3 C4 1.379 . S
C3 C7 1.373 . S
C3 C9 1.505 . S
C4 C3 1.379 . S
C4 C6 1.369 . S
C4 H32 0.930 . S
C5 C7 1.383 . S
C5 C8 1.382 . S
C5 H33 0.930 . S
C6 C4 1.369 . S
C6 C8 1.392 . S
C6 H34 0.930 . S
C7 C3 1.373 . S
C7 C5 1.383 . S
C7 H35 0.931 . S
C8 C5 1.382 . S
C8 C6 1.392 . S
C9 Eu0 2.828 . S
C9 C3 1.505 . S
C9 O21 1.249 . S
C9 O22 1.244 . S
O10 Eu1 2.373 . S
O10 C12 1.258 . S
O11 Eu0 2.392 . S
O11 C12 1.242 . S
C12 O10 1.258 . S
C12 O11 1.242 . S
O13 Eu0 2.418 . S
O13 C17 1.244 . S
O14 Eu1 2.488 . S
O14 C30 1.249 . S
O15 Eu1 2.471 . S
O15 C30 1.244 . S
O16 Eu1 2.349 . S
O16 C17 1.265 . S
C17 O13 1.244 . S
C17 O16 1.265 . S
O18 Eu0 2.373 . S
O18 C31 1.258 . S
O19 Eu1 2.392 . S
O19 C31 1.242 . S
O20 Eu1 2.418 . S
O20 C2 1.244 . S
O21 Eu0 2.488 . S
O21 C9 1.249 . S
O22 Eu0 2.471 . S
O22 C9 1.244 . S
O23 Eu0 2.349 . S
O23 C2 1.265 . S
C24 C25 1.379 . S
C24 C28 1.373 . S
C24 C30 1.505 . S
C25 C24 1.379 . S
C25 C27 1.369 . S
C25 H36 0.930 . S
C26 C28 1.383 . S
C26 C29 1.382 . S
C26 H37 0.930 . S
C27 C25 1.369 . S
C27 C29 1.392 . S
C27 H38 0.930 . S
C28 C24 1.373 . S
C28 C26 1.383 . S
C28 H39 0.931 . S
C29 C26 1.382 . S
C29 C27 1.392 . S
C30 Eu1 2.828 . S
C30 O14 1.249 . S
C30 O15 1.244 . S
C30 C24 1.505 . S
C31 O18 1.258 . S
C31 O19 1.242 . S
H32 C4 0.930 . S
H33 C5 0.930 . S
H34 C6 0.930 . S
H35 C7 0.931 . S
H36 C25 0.930 . S
H37 C26 0.930 . S
H38 C27 0.930 . S
H39 C28 0.931 . S
Eu40 C49 2.828 . S
Eu40 O51 2.392 . S
Eu40 O53 2.418 . S
Eu40 O58 2.373 . S
Eu40 O61 2.488 . S
Eu40 O62 2.471 . S
Eu40 O63 2.349 . S
Eu41 O50 2.373 . S
Eu41 O54 2.488 . S
Eu41 O55 2.471 . S
Eu41 O56 2.349 . S
Eu41 O59 2.392 . S
Eu41 O60 2.418 . S
Eu41 C70 2.828 . S
C42 O60 1.244 . S
C42 O63 1.265 . S
C43 C44 1.379 . S
C43 C47 1.373 . S
C43 C49 1.505 . S
C44 C43 1.379 . S
C44 C46 1.369 . S
C44 H72 0.930 . S
C45 C47 1.383 . S
C45 C48 1.382 . S
C45 H73 0.930 . S
C46 C44 1.369 . S
C46 C48 1.392 . S
C46 H74 0.930 . S
C47 C43 1.373 . S
C47 C45 1.383 . S
C47 H75 0.931 . S
C48 C45 1.382 . S
C48 C46 1.392 . S
C49 Eu40 2.828 . S
C49 C43 1.505 . S
C49 O61 1.249 . S
C49 O62 1.244 . S
O50 Eu41 2.373 . S
O50 C52 1.258 . S
O51 Eu40 2.392 . S
O51 C52 1.242 . S
C52 O50 1.258 . S
C52 O51 1.242 . S
O53 Eu40 2.418 . S
O53 C57 1.244 . S
O54 Eu41 2.488 . S
O54 C70 1.249 . S
O55 Eu41 2.471 . S
O55 C70 1.244 . S
O56 Eu41 2.349 . S
O56 C57 1.265 . S
C57 O53 1.244 . S
C57 O56 1.265 . S
O58 Eu40 2.373 . S
O58 C71 1.258 . S
O59 Eu41 2.392 . S
O59 C71 1.242 . S
O60 Eu41 2.418 . S
O60 C42 1.244 . S
O61 Eu40 2.488 . S
O61 C49 1.249 . S
O62 Eu40 2.471 . S
O62 C49 1.244 . S
O63 Eu40 2.349 . S
O63 C42 1.265 . S
C64 C65 1.379 . S
C64 C68 1.373 . S
C64 C70 1.505 . S
C65 C64 1.379 . S
C65 C67 1.369 . S
C65 H76 0.930 . S
C66 C68 1.383 . S
C66 C69 1.382 . S
C66 H77 0.930 . S
C67 C65 1.369 . S
C67 C69 1.392 . S
C67 H78 0.930 . S
C68 C64 1.373 . S
C68 C66 1.383 . S
C68 H79 0.931 . S
C69 C66 1.382 . S
C69 C67 1.392 . S
C70 Eu41 2.828 . S
C70 O54 1.249 . S
C70 O55 1.244 . S
C70 C64 1.505 . S
C71 O58 1.258 . S
C71 O59 1.242 . S
H72 C44 0.930 . S
H73 C45 0.930 . S
H74 C46 0.930 . S
H75 C47 0.931 . S
H76 C65 0.930 . S
H77 C66 0.930 . S
H78 C67 0.930 . S
H79 C68 0.931 . S
Eu80 C89 2.828 . S
Eu80 O91 2.392 . S
Eu80 O93 2.418 . S
Eu80 O98 2.373 . S
Eu80 O101 2.488 . S
Eu80 O102 2.471 . S
Eu80 O103 2.349 . S
Eu81 O90 2.373 . S
Eu81 O94 2.488 . S
Eu81 O95 2.471 . S
Eu81 O96 2.349 . S
Eu81 O99 2.392 . S
Eu81 O100 2.418 . S
Eu81 C110 2.828 . S
C82 O100 1.244 . S
C82 O103 1.265 . S
C83 C84 1.379 . S
C83 C87 1.373 . S
C83 C89 1.505 . S
C84 C83 1.379 . S
C84 C86 1.369 . S
C84 H112 0.930 . S
C85 C87 1.383 . S
C85 C88 1.382 . S
C85 H113 0.930 . S
C86 C84 1.369 . S
C86 C88 1.392 . S
C86 H114 0.930 . S
C87 C83 1.373 . S
C87 C85 1.383 . S
C87 H115 0.931 . S
C88 C85 1.382 . S
C88 C86 1.392 . S
C89 Eu80 2.828 . S
C89 C83 1.505 . S
C89 O101 1.249 . S
C89 O102 1.244 . S
O90 Eu81 2.373 . S
O90 C92 1.258 . S
O91 Eu80 2.392 . S
O91 C92 1.242 . S
C92 O90 1.258 . S
C92 O91 1.242 . S
O93 Eu80 2.418 . S
O93 C97 1.244 . S
O94 Eu81 2.488 . S
O94 C110 1.249 . S
O95 Eu81 2.471 . S
O95 C110 1.244 . S
O96 Eu81 2.349 . S
O96 C97 1.265 . S
C97 O93 1.244 . S
C97 O96 1.265 . S
O98 Eu80 2.373 . S
O98 C111 1.258 . S
O99 Eu81 2.392 . S
O99 C111 1.242 . S
O100 Eu81 2.418 . S
O100 C82 1.244 . S
O101 Eu80 2.488 . S
O101 C89 1.249 . S
O102 Eu80 2.471 . S
O102 C89 1.244 . S
O103 Eu80 2.349 . S
O103 C82 1.265 . S
C104 C105 1.379 . S
C104 C108 1.373 . S
C104 C110 1.505 . S
C105 C104 1.379 . S
C105 C107 1.369 . S
C105 H116 0.930 . S
C106 C108 1.383 . S
C106 C109 1.382 . S
C106 H117 0.930 . S
C107 C105 1.369 . S
C107 C109 1.392 . S
C107 H118 0.930 . S
C108 C104 1.373 . S
C108 C106 1.383 . S
C108 H119 0.931 . S
C109 C106 1.382 . S
C109 C107 1.392 . S
C110 Eu81 2.828 . S
C110 O94 1.249 . S
C110 O95 1.244 . S
C110 C104 1.505 . S
C111 O98 1.258 . S
C111 O99 1.242 . S
H112 C84 0.930 . S
H113 C85 0.930 . S
H114 C86 0.930 . S
H115 C87 0.931 . S
H116 C105 0.930 . S
H117 C106 0.930 . S
H118 C107 0.930 . S
H119 C108 0.931 . S
Eu120 C129 2.828 . S
Eu120 O131 2.392 . S
Eu120 O133 2.418 . S
Eu120 O138 2.373 . S
Eu120 O141 2.488 . S
Eu120 O142 2.471 . S
Eu120 O143 2.349 . S
Eu121 O130 2.373 . S
Eu121 O134 2.488 . S
Eu121 O135 2.471 . S
Eu121 O136 2.349 . S
Eu121 O139 2.392 . S
Eu121 O140 2.418 . S
Eu121 C150 2.828 . S
C122 O140 1.244 . S
C122 O143 1.265 . S
C123 C124 1.379 . S
C123 C127 1.373 . S
C123 C129 1.505 . S
C124 C123 1.379 . S
C124 C126 1.369 . S
C124 H152 0.930 . S
C125 C127 1.383 . S
C125 C128 1.382 . S
C125 H153 0.930 . S
C126 C124 1.369 . S
C126 C128 1.392 . S
C126 H154 0.930 . S
C127 C123 1.373 . S
C127 C125 1.383 . S
C127 H155 0.931 . S
C128 C125 1.382 . S
C128 C126 1.392 . S
C129 Eu120 2.828 . S
C129 C123 1.505 . S
C129 O141 1.249 . S
C129 O142 1.244 . S
O130 Eu121 2.373 . S
O130 C132 1.258 . S
O131 Eu120 2.392 . S
O131 C132 1.242 . S
C132 O130 1.258 . S
C132 O131 1.242 . S
O133 Eu120 2.418 . S
O133 C137 1.244 . S
O134 Eu121 2.488 . S
O134 C150 1.249 . S
O135 Eu121 2.471 . S
O135 C150 1.244 . S
O136 Eu121 2.349 . S
O136 C137 1.265 . S
C137 O133 1.244 . S
C137 O136 1.265 . S
O138 Eu120 2.373 . S
O138 C151 1.258 . S
O139 Eu121 2.392 . S
O139 C151 1.242 . S
O140 Eu121 2.418 . S
O140 C122 1.244 . S
O141 Eu120 2.488 . S
O141 C129 1.249 . S
O142 Eu120 2.471 . S
O142 C129 1.244 . S
O143 Eu120 2.349 . S
O143 C122 1.265 . S
C144 C145 1.379 . S
C144 C148 1.373 . S
C144 C150 1.505 . S
C145 C144 1.379 . S
C145 C147 1.369 . S
C145 H156 0.930 . S
C146 C148 1.383 . S
C146 C149 1.382 . S
C146 H157 0.930 . S
C147 C145 1.369 . S
C147 C149 1.392 . S
C147 H158 0.930 . S
C148 C144 1.373 . S
C148 C146 1.383 . S
C148 H159 0.931 . S
C149 C146 1.382 . S
C149 C147 1.392 . S
C150 Eu121 2.828 . S
C150 O134 1.249 . S
C150 O135 1.244 . S
C150 C144 1.505 . S
C151 O138 1.258 . S
C151 O139 1.242 . S
H152 C124 0.930 . S
H153 C125 0.930 . S
H154 C126 0.930 . S
H155 C127 0.931 . S
H156 C145 0.930 . S
H157 C146 0.930 . S
H158 C147 0.930 . S
H159 C148 0.931 . S
Eu160 C169 2.828 1_554 S
Eu160 O171 2.392 . S
Eu160 O173 2.418 . S
Eu160 O178 2.373 1_554 S
Eu160 O181 2.488 1_554 S
Eu160 O182 2.471 1_554 S
Eu160 O183 2.349 . S
Eu161 O170 2.373 1_556 S
Eu161 O174 2.488 1_556 S
Eu161 O175 2.471 1_556 S
Eu161 O176 2.349 . S
Eu161 O179 2.392 . S
Eu161 O180 2.418 . S
Eu161 C190 2.828 1_556 S
C162 O180 1.244 1_554 S
C162 O183 1.265 . S
C163 C164 1.379 . S
C163 C167 1.373 . S
C163 C169 1.505 . S
C164 C163 1.379 . S
C164 C166 1.369 . S
C164 H192 0.930 . S
C165 C167 1.383 . S
C165 C168 1.382 . S
C165 H193 0.930 . S
C166 C164 1.369 . S
C166 C168 1.392 . S
C166 H194 0.930 . S
C167 C163 1.373 . S
C167 C165 1.383 . S
C167 H195 0.931 . S
C168 C165 1.382 . S
C168 C166 1.392 . S
C169 Eu160 2.828 1_556 S
C169 C163 1.505 . S
C169 O181 1.249 . S
C169 O182 1.244 . S
O170 Eu161 2.373 1_554 S
O170 C172 1.258 . S
O171 Eu160 2.392 . S
O171 C172 1.242 . S
C172 O170 1.258 . S
C172 O171 1.242 . S
O173 Eu160 2.418 . S
O173 C177 1.244 1_554 S
O174 Eu161 2.488 1_554 S
O174 C190 1.249 . S
O175 Eu161 2.471 1_554 S
O175 C190 1.244 . S
O176 Eu161 2.349 . S
O176 C177 1.265 . S
C177 O173 1.244 1_556 S
C177 O176 1.265 . S
O178 Eu160 2.373 1_556 S
O178 C191 1.258 . S
O179 Eu161 2.392 . S
O179 C191 1.242 . S
O180 Eu161 2.418 . S
O180 C162 1.244 1_556 S
O181 Eu160 2.488 1_556 S
O181 C169 1.249 . S
O182 Eu160 2.471 1_556 S
O182 C169 1.244 . S
O183 Eu160 2.349 . S
O183 C162 1.265 . S
C184 C185 1.379 . S
C184 C188 1.373 . S
C184 C190 1.505 . S
C185 C184 1.379 . S
C185 C187 1.369 . S
C185 H196 0.930 . S
C186 C188 1.383 . S
C186 C189 1.382 . S
C186 H197 0.930 . S
C187 C185 1.369 . S
C187 C189 1.392 . S
C187 H198 0.930 . S
C188 C184 1.373 . S
C188 C186 1.383 . S
C188 H199 0.931 . S
C189 C186 1.382 . S
C189 C187 1.392 . S
C190 Eu161 2.828 1_554 S
C190 O174 1.249 . S
C190 O175 1.244 . S
C190 C184 1.505 . S
C191 O178 1.258 . S
C191 O179 1.242 . S
H192 C164 0.930 . S
H193 C165 0.930 . S
H194 C166 0.930 . S
H195 C167 0.931 . S
H196 C185 0.930 . S
H197 C186 0.930 . S
H198 C187 0.930 . S
H199 C188 0.931 . S
Eu200 C209 2.828 1_554 S
Eu200 O211 2.392 . S
Eu200 O213 2.418 . S
Eu200 O218 2.373 1_554 S
Eu200 O221 2.488 1_554 S
Eu200 O222 2.471 1_554 S
Eu200 O223 2.349 . S
Eu201 O210 2.373 1_556 S
Eu201 O214 2.488 1_556 S
Eu201 O215 2.471 1_556 S
Eu201 O216 2.349 . S
Eu201 O219 2.392 . S
Eu201 O220 2.418 . S
Eu201 C230 2.828 1_556 S
C202 O220 1.244 1_554 S
C202 O223 1.265 . S
C203 C204 1.379 . S
C203 C207 1.373 . S
C203 C209 1.505 . S
C204 C203 1.379 . S
C204 C206 1.369 . S
C204 H232 0.930 . S
C205 C207 1.383 . S
C205 C208 1.382 . S
C205 H233 0.930 . S
C206 C204 1.369 . S
C206 C208 1.392 . S
C206 H234 0.930 . S
C207 C203 1.373 . S
C207 C205 1.383 . S
C207 H235 0.931 . S
C208 C205 1.382 . S
C208 C206 1.392 . S
C209 Eu200 2.828 1_556 S
C209 C203 1.505 . S
C209 O221 1.249 . S
C209 O222 1.244 . S
O210 Eu201 2.373 1_554 S
O210 C212 1.258 . S
O211 Eu200 2.392 . S
O211 C212 1.242 . S
C212 O210 1.258 . S
C212 O211 1.242 . S
O213 Eu200 2.418 . S
O213 C217 1.244 1_554 S
O214 Eu201 2.488 1_554 S
O214 C230 1.249 . S
O215 Eu201 2.471 1_554 S
O215 C230 1.244 . S
O216 Eu201 2.349 . S
O216 C217 1.265 . S
C217 O213 1.244 1_556 S
C217 O216 1.265 . S
O218 Eu200 2.373 1_556 S
O218 C231 1.258 . S
O219 Eu201 2.392 . S
O219 C231 1.242 . S
O220 Eu201 2.418 . S
O220 C202 1.244 1_556 S
O221 Eu200 2.488 1_556 S
O221 C209 1.249 . S
O222 Eu200 2.471 1_556 S
O222 C209 1.244 . S
O223 Eu200 2.349 . S
O223 C202 1.265 . S
C224 C225 1.379 . S
C224 C228 1.373 . S
C224 C230 1.505 . S
C225 C224 1.379 . S
C225 C227 1.369 . S
C225 H236 0.930 . S
C226 C228 1.383 . S
C226 C229 1.382 . S
C226 H237 0.930 . S
C227 C225 1.369 . S
C227 C229 1.392 . S
C227 H238 0.930 . S
C228 C224 1.373 . S
C228 C226 1.383 . S
C228 H239 0.931 . S
C229 C226 1.382 . S
C229 C227 1.392 . S
C230 Eu201 2.828 1_554 S
C230 O214 1.249 . S
C230 O215 1.244 . S
C230 C224 1.505 . S
C231 O218 1.258 . S
C231 O219 1.242 . S
H232 C204 0.930 . S
H233 C205 0.930 . S
H234 C206 0.930 . S
H235 C207 0.931 . S
H236 C225 0.930 . S
H237 C226 0.930 . S
H238 C227 0.930 . S
H239 C228 0.931 . S
Eu240 C249 2.828 1_554 S
Eu240 O251 2.392 . S
Eu240 O253 2.418 . S
Eu240 O258 2.373 1_554 S
Eu240 O261 2.488 1_554 S
Eu240 O262 2.471 1_554 S
Eu240 O263 2.349 . S
Eu241 O250 2.373 1_556 S
Eu241 O254 2.488 1_556 S
Eu241 O255 2.471 1_556 S
Eu241 O256 2.349 . S
Eu241 O259 2.392 . S
Eu241 O260 2.418 . S
Eu241 C270 2.828 1_556 S
C242 O260 1.244 1_554 S
C242 O263 1.265 . S
C243 C244 1.379 . S
C243 C247 1.373 . S
C243 C249 1.505 . S
C244 C243 1.379 . S
C244 C246 1.369 . S
C244 H272 0.930 . S
C245 C247 1.383 . S
C245 C248 1.382 . S
C245 H273 0.930 . S
C246 C244 1.369 . S
C246 C248 1.392 . S
C246 H274 0.930 . S
C247 C243 1.373 . S
C247 C245 1.383 . S
C247 H275 0.931 . S
C248 C245 1.382 . S
C248 C246 1.392 . S
C249 Eu240 2.828 1_556 S
C249 C243 1.505 . S
C249 O261 1.249 . S
C249 O262 1.244 . S
O250 Eu241 2.373 1_554 S
O250 C252 1.258 . S
O251 Eu240 2.392 . S
O251 C252 1.242 . S
C252 O250 1.258 . S
C252 O251 1.242 . S
O253 Eu240 2.418 . S
O253 C257 1.244 1_554 S
O254 Eu241 2.488 1_554 S
O254 C270 1.249 . S
O255 Eu241 2.471 1_554 S
O255 C270 1.244 . S
O256 Eu241 2.349 . S
O256 C257 1.265 . S
C257 O253 1.244 1_556 S
C257 O256 1.265 . S
O258 Eu240 2.373 1_556 S
O258 C271 1.258 . S
O259 Eu241 2.392 . S
O259 C271 1.242 . S
O260 Eu241 2.418 . S
O260 C242 1.244 1_556 S
O261 Eu240 2.488 1_556 S
O261 C249 1.249 . S
O262 Eu240 2.471 1_556 S
O262 C249 1.244 . S
O263 Eu240 2.349 . S
O263 C242 1.265 . S
C264 C265 1.379 . S
C264 C268 1.373 . S
C264 C270 1.505 . S
C265 C264 1.379 . S
C265 C267 1.369 . S
C265 H276 0.930 . S
C266 C268 1.383 . S
C266 C269 1.382 . S
C266 H277 0.930 . S
C267 C265 1.369 . S
C267 C269 1.392 . S
C267 H278 0.930 . S
C268 C264 1.373 . S
C268 C266 1.383 . S
C268 H279 0.931 . S
C269 C266 1.382 . S
C269 C267 1.392 . S
C270 Eu241 2.828 1_554 S
C270 O254 1.249 . S
C270 O255 1.244 . S
C270 C264 1.505 . S
C271 O258 1.258 . S
C271 O259 1.242 . S
H272 C244 0.930 . S
H273 C245 0.930 . S
H274 C246 0.930 . S
H275 C247 0.931 . S
H276 C265 0.930 . S
H277 C266 0.930 . S
H278 C267 0.930 . S
H279 C268 0.931 . S
Eu280 C289 2.828 1_554 S
Eu280 O291 2.392 . S
Eu280 O293 2.418 . S
Eu280 O298 2.373 1_554 S
Eu280 O301 2.488 1_554 S
Eu280 O302 2.471 1_554 S
Eu280 O303 2.349 . S
Eu281 O290 2.373 1_556 S
Eu281 O294 2.488 1_556 S
Eu281 O295 2.471 1_556 S
Eu281 O296 2.349 . S
Eu281 O299 2.392 . S
Eu281 O300 2.418 . S
Eu281 C310 2.828 1_556 S
C282 O300 1.244 1_554 S
C282 O303 1.265 . S
C283 C284 1.379 . S
C283 C287 1.373 . S
C283 C289 1.505 . S
C284 C283 1.379 . S
C284 C286 1.369 . S
C284 H312 0.930 . S
C285 C287 1.383 . S
C285 C288 1.382 . S
C285 H313 0.930 . S
C286 C284 1.369 . S
C286 C288 1.392 . S
C286 H314 0.930 . S
C287 C283 1.373 . S
C287 C285 1.383 . S
C287 H315 0.931 . S
C288 C285 1.382 . S
C288 C286 1.392 . S
C289 Eu280 2.828 1_556 S
C289 C283 1.505 . S
C289 O301 1.249 . S
C289 O302 1.244 . S
O290 Eu281 2.373 1_554 S
O290 C292 1.258 . S
O291 Eu280 2.392 . S
O291 C292 1.242 . S
C292 O290 1.258 . S
C292 O291 1.242 . S
O293 Eu280 2.418 . S
O293 C297 1.244 1_554 S
O294 Eu281 2.488 1_554 S
O294 C310 1.249 . S
O295 Eu281 2.471 1_554 S
O295 C310 1.244 . S
O296 Eu281 2.349 . S
O296 C297 1.265 . S
C297 O293 1.244 1_556 S
C297 O296 1.265 . S
O298 Eu280 2.373 1_556 S
O298 C311 1.258 . S
O299 Eu281 2.392 . S
O299 C311 1.242 . S
O300 Eu281 2.418 . S
O300 C282 1.244 1_556 S
O301 Eu280 2.488 1_556 S
O301 C289 1.249 . S
O302 Eu280 2.471 1_556 S
O302 C289 1.244 . S
O303 Eu280 2.349 . S
O303 C282 1.265 . S
C304 C305 1.379 . S
C304 C308 1.373 . S
C304 C310 1.505 . S
C305 C304 1.379 . S
C305 C307 1.369 . S
C305 H316 0.930 . S
C306 C308 1.383 . S
C306 C309 1.382 . S
C306 H317 0.930 . S
C307 C305 1.369 . S
C307 C309 1.392 . S
C307 H318 0.930 . S
C308 C304 1.373 . S
C308 C306 1.383 . S
C308 H319 0.931 . S
C309 C306 1.382 . S
C309 C307 1.392 . S
C310 Eu281 2.828 1_554 S
C310 O294 1.249 . S
C310 O295 1.244 . S
C310 C304 1.505 . S
C311 O298 1.258 . S
C311 O299 1.242 . S
H312 C284 0.930 . S
H313 C285 0.930 . S
H314 C286 0.930 . S
H315 C287 0.931 . S
H316 C305 0.930 . S
H317 C306 0.930 . S
H318 C307 0.930 . S
H319 C308 0.931 . S
C320 C321 1.363 . S
C320 C326 1.379 . S
C320 N328 1.356 . S
C321 C320 1.363 . S
C321 C327 1.363 . S
C322 C323 1.363 . S
C322 C327 1.379 . S
C322 N329 1.356 . S
C323 C322 1.363 . S
C323 C326 1.363 . S
N324 C326 1.356 . S
N324 H336 0.984 . S
N324 H337 0.985 . S
N325 C327 1.356 . S
N325 H330 0.984 . S
N325 H331 0.985 . S
C326 C320 1.379 . S
C326 C323 1.363 . S
C326 N324 1.356 . S
C327 C321 1.363 . S
C327 C322 1.379 . S
C327 N325 1.356 . S
N328 C320 1.356 . S
N328 H334 0.984 . S
N328 H335 0.984 . S
N329 C322 1.356 . S
N329 H332 0.984 . S
N329 H333 0.985 . S
H330 N325 0.984 . S
H331 N325 0.985 . S
H332 N329 0.984 . S
H333 N329 0.985 . S
H334 N328 0.984 . S
H335 N328 0.984 . S
H336 N324 0.984 . S
H337 N324 0.985 . S
C338 C339 1.363 . S
C338 C344 1.379 . S
C338 N346 1.356 . S
C339 C338 1.363 . S
C339 C345 1.363 . S
C340 C341 1.363 . S
C340 C345 1.379 . S
C340 N347 1.356 . S
C341 C340 1.363 . S
C341 C344 1.363 . S
N342 C344 1.356 . S
N342 H354 0.984 . S
N342 H355 0.985 . S
N343 C345 1.356 . S
N343 H348 0.984 . S
N343 H349 0.985 . S
C344 C338 1.379 . S
C344 C341 1.363 . S
C344 N342 1.356 . S
C345 C339 1.363 . S
C345 C340 1.379 . S
C345 N343 1.356 . S
N346 C338 1.356 . S
N346 H352 0.984 . S
N346 H353 0.984 . S
N347 C340 1.356 . S
N347 H350 0.984 . S
N347 H351 0.985 . S
H348 N343 0.984 . S
H349 N343 0.985 . S
H350 N347 0.984 . S
H351 N347 0.985 . S
H352 N346 0.984 . S
H353 N346 0.984 . S
H354 N342 0.984 . S
H355 N342 0.985 . S
C356 C357 1.363 . S
C356 C362 1.379 . S
C356 N364 1.356 . S
C357 C356 1.363 . S
C357 C363 1.363 . S
C358 C359 1.363 . S
C358 C363 1.379 . S
C358 N365 1.356 . S
C359 C358 1.363 . S
C359 C362 1.363 . S
N360 C362 1.356 . S
N360 H372 0.984 . S
N360 H373 0.985 . S
N361 C363 1.356 . S
N361 H366 0.984 . S
N361 H367 0.985 . S
C362 C356 1.379 . S
C362 C359 1.363 . S
C362 N360 1.356 . S
C363 C357 1.363 . S
C363 C358 1.379 . S
C363 N361 1.356 . S
N364 C356 1.356 . S
N364 H370 0.984 . S
N364 H371 0.984 . S
N365 C358 1.356 . S
N365 H368 0.984 . S
N365 H369 0.985 . S
H366 N361 0.984 . S
H367 N361 0.985 . S
H368 N365 0.984 . S
H369 N365 0.985 . S
H370 N364 0.984 . S
H371 N364 0.984 . S
H372 N360 0.984 . S
H373 N360 0.985 . S
C374 C375 1.363 . S
C374 C380 1.379 . S
C374 N382 1.356 . S
C375 C374 1.363 . S
C375 C381 1.363 . S
C376 C377 1.363 . S
C376 C381 1.379 . S
C376 N383 1.356 . S
C377 C376 1.363 . S
C377 C380 1.363 . S
N378 C380 1.356 . S
N378 H390 0.984 . S
N378 H391 0.985 . S
N379 C381 1.356 . S
N379 H384 0.984 . S
N379 H385 0.985 . S
C380 C374 1.379 . S
C380 C377 1.363 . S
C380 N378 1.356 . S
C381 C375 1.363 . S
C381 C376 1.379 . S
C381 N379 1.356 . S
N382 C374 1.356 . S
N382 H388 0.984 . S
N382 H389 0.984 . S
N383 C376 1.356 . S
N383 H386 0.984 . S
N383 H387 0.985 . S
H384 N379 0.984 . S
H385 N379 0.985 . S
H386 N383 0.984 . S
H387 N383 0.985 . S
H388 N382 0.984 . S
H389 N382 0.984 . S
H390 N378 0.984 . S
H391 N378 0.985 . S
C392 C393 1.363 . S
C392 C398 1.379 1_565 S
C392 N400 1.356 . S
C393 C392 1.363 . S
C393 C399 1.363 . S
C394 C395 1.363 . S
C394 C399 1.379 1_545 S
C394 N401 1.356 . S
C395 C394 1.363 . S
C395 C398 1.363 . S
N396 C398 1.356 . S
N396 H408 0.984 . S
N396 H409 0.985 . S
N397 C399 1.356 . S
N397 H402 0.984 . S
N397 H403 0.985 . S
C398 C392 1.379 1_545 S
C398 C395 1.363 . S
C398 N396 1.356 . S
C399 C393 1.363 . S
C399 C394 1.379 1_565 S
C399 N397 1.356 . S
N400 C392 1.356 . S
N400 H406 0.984 . S
N400 H407 0.984 . S
N401 C394 1.356 . S
N401 H404 0.984 . S
N401 H405 0.985 . S
H402 N397 0.984 . S
H403 N397 0.985 . S
H404 N401 0.984 . S
H405 N401 0.985 . S
H406 N400 0.984 . S
H407 N400 0.984 . S
H408 N396 0.984 . S
H409 N396 0.985 . S
C410 C411 1.363 . S
C410 C416 1.379 . S
C410 N418 1.356 . S
C411 C410 1.363 . S
C411 C417 1.363 . S
C412 C413 1.363 . S
C412 C417 1.379 . S
C412 N419 1.356 . S
C413 C412 1.363 . S
C413 C416 1.363 . S
N414 C416 1.356 . S
N414 H426 0.984 . S
N414 H427 0.985 . S
N415 C417 1.356 . S
N415 H420 0.984 . S
N415 H421 0.985 . S
C416 C410 1.379 . S
C416 C413 1.363 . S
C416 N414 1.356 . S
C417 C411 1.363 . S
C417 C412 1.379 . S
C417 N415 1.356 . S
N418 C410 1.356 . S
N418 H424 0.984 . S
N418 H425 0.984 . S
N419 C412 1.356 . S
N419 H422 0.984 . S
N419 H423 0.985 . S
H420 N415 0.984 . S
H421 N415 0.985 . S
H422 N419 0.984 . S
H423 N419 0.985 . S
H424 N418 0.984 . S
H425 N418 0.984 . S
H426 N414 0.984 . S
H427 N414 0.985 . S
C428 C429 1.363 . S
C428 C434 1.379 1_565 S
C428 N436 1.356 . S
C429 C428 1.363 . S
C429 C435 1.363 . S
C430 C431 1.363 . S
C430 C435 1.379 1_545 S
C430 N437 1.356 . S
C431 C430 1.363 . S
C431 C434 1.363 . S
N432 C434 1.356 . S
N432 H444 0.984 . S
N432 H445 0.985 . S
N433 C435 1.356 . S
N433 H438 0.984 . S
N433 H439 0.985 . S
C434 C428 1.379 1_545 S
C434 C431 1.363 . S
C434 N432 1.356 . S
C435 C429 1.363 . S
C435 C430 1.379 1_565 S
C435 N433 1.356 . S
N436 C428 1.356 . S
N436 H442 0.984 . S
N436 H443 0.984 . S
N437 C430 1.356 . S
N437 H440 0.984 . S
N437 H441 0.985 . S
H438 N433 0.984 . S
H439 N433 0.985 . S
H440 N437 0.984 . S
H441 N437 0.985 . S
H442 N436 0.984 . S
H443 N436 0.984 . S
H444 N432 0.984 . S
H445 N432 0.985 . S
C446 C447 1.363 . S
C446 C452 1.379 . S
C446 N454 1.356 . S
C447 C446 1.363 . S
C447 C453 1.363 . S
C448 C449 1.363 . S
C448 C453 1.379 . S
C448 N455 1.356 . S
C449 C448 1.363 . S
C449 C452 1.363 . S
N450 C452 1.356 . S
N450 H462 0.984 . S
N450 H463 0.985 . S
N451 C453 1.356 . S
N451 H456 0.984 . S
N451 H457 0.985 . S
C452 C446 1.379 . S
C452 C449 1.363 . S
C452 N450 1.356 . S
C453 C447 1.363 . S
C453 C448 1.379 . S
C453 N451 1.356 . S
N454 C446 1.356 . S
N454 H460 0.984 . S
N454 H461 0.984 . S
N455 C448 1.356 . S
N455 H458 0.984 . S
N455 H459 0.985 . S
H456 N451 0.984 . S
H457 N451 0.985 . S
H458 N455 0.984 . S
H459 N455 0.985 . S
H460 N454 0.984 . S
H461 N454 0.984 . S
H462 N450 0.984 . S
H463 N450 0.985 . S
C464 C465 1.363 1_554 S
C464 C470 1.379 . S
C464 N472 1.356 . S
C465 C464 1.363 1_556 S
C465 C471 1.363 . S
C466 C467 1.363 . S
C466 C471 1.379 . S
C466 N473 1.356 . S
C467 C466 1.363 . S
C467 C470 1.363 1_556 S
N468 C470 1.356 . S
N468 H480 0.984 . S
N468 H481 0.985 . S
N469 C471 1.356 . S
N469 H474 0.984 . S
N469 H475 0.985 . S
C470 C464 1.379 . S
C470 C467 1.363 1_554 S
C470 N468 1.356 . S
C471 C465 1.363 . S
C471 C466 1.379 . S
C471 N469 1.356 . S
N472 C464 1.356 . S
N472 H478 0.984 . S
N472 H479 0.984 . S
N473 C466 1.356 . S
N473 H476 0.984 . S
N473 H477 0.985 . S
H474 N469 0.984 . S
H475 N469 0.985 . S
H476 N473 0.984 . S
H477 N473 0.985 . S
H478 N472 0.984 . S
H479 N472 0.984 . S
H480 N468 0.984 . S
H481 N468 0.985 . S
C482 C483 1.363 1_554 S
C482 C488 1.379 1_565 S
C482 N490 1.356 . S
C483 C482 1.363 1_556 S
C483 C489 1.363 . S
C484 C485 1.363 . S
C484 C489 1.379 1_545 S
C484 N491 1.356 . S
C485 C484 1.363 . S
C485 C488 1.363 1_556 S
N486 C488 1.356 . S
N486 H498 0.984 . S
N486 H499 0.985 . S
N487 C489 1.356 . S
N487 H492 0.984 . S
N487 H493 0.985 . S
C488 C482 1.379 1_545 S
C488 C485 1.363 1_554 S
C488 N486 1.356 . S
C489 C483 1.363 . S
C489 C484 1.379 1_565 S
C489 N487 1.356 . S
N490 C482 1.356 . S
N490 H496 0.984 . S
N490 H497 0.984 . S
N491 C484 1.356 . S
N491 H494 0.984 . S
N491 H495 0.985 . S
H492 N487 0.984 . S
H493 N487 0.985 . S
H494 N491 0.984 . S
H495 N491 0.985 . S
H496 N490 0.984 . S
H497 N490 0.984 . S
H498 N486 0.984 . S
H499 N486 0.985 . S
C500 C501 1.363 . S
C500 C506 1.379 . S
C500 N508 1.356 . S
C501 C500 1.363 . S
C501 C507 1.363 1_554 S
C502 C503 1.363 1_556 S
C502 C507 1.379 . S
C502 N509 1.356 . S
C503 C502 1.363 1_554 S
C503 C506 1.363 . S
N504 C506 1.356 . S
N504 H516 0.984 . S
N504 H517 0.985 . S
N505 C507 1.356 . S
N505 H510 0.984 . S
N505 H511 0.985 . S
C506 C500 1.379 . S
C506 C503 1.363 . S
C506 N504 1.356 . S
C507 C501 1.363 1_556 S
C507 C502 1.379 . S
C507 N505 1.356 . S
N508 C500 1.356 . S
N508 H514 0.984 . S
N508 H515 0.984 . S
N509 C502 1.356 . S
N509 H512 0.984 . S
N509 H513 0.985 . S
H510 N505 0.984 . S
H511 N505 0.985 . S
H512 N509 0.984 . S
H513 N509 0.985 . S
H514 N508 0.984 . S
H515 N508 0.984 . S
H516 N504 0.984 . S
H517 N504 0.985 . S
C518 C519 1.363 1_556 S
C518 C524 1.379 1_545 S
C518 N526 1.356 . S
C519 C518 1.363 1_554 S
C519 C525 1.363 . S
C520 C521 1.363 . S
C520 C525 1.379 1_565 S
C520 N527 1.356 . S
C521 C520 1.363 . S
C521 C524 1.363 1_554 S
N522 C524 1.356 . S
N522 H534 0.984 . S
N522 H535 0.985 . S
N523 C525 1.356 . S
N523 H528 0.984 . S
N523 H529 0.985 . S
C524 C518 1.379 1_565 S
C524 C521 1.363 1_556 S
C524 N522 1.356 . S
C525 C519 1.363 . S
C525 C520 1.379 1_545 S
C525 N523 1.356 . S
N526 C518 1.356 . S
N526 H532 0.984 . S
N526 H533 0.984 . S
N527 C520 1.356 . S
N527 H530 0.984 . S
N527 H531 0.985 . S
H528 N523 0.984 . S
H529 N523 0.985 . S
H530 N527 0.984 . S
H531 N527 0.985 . S
H532 N526 0.984 . S
H533 N526 0.984 . S
H534 N522 0.984 . S
H535 N522 0.985 . S
C536 C537 1.363 1_556 S
C536 C542 1.379 . S
C536 N544 1.356 1_556 S
C537 C536 1.363 1_554 S
C537 C543 1.363 1_554 S
C538 C539 1.363 . S
C538 C543 1.379 . S
C538 N545 1.356 . S
C539 C538 1.363 . S
C539 C542 1.363 . S
N540 C542 1.356 . S
N540 H552 0.984 . S
N540 H553 0.985 . S
N541 C543 1.356 1_554 S
N541 H546 0.984 . S
N541 H547 0.985 . S
C542 C536 1.379 . S
C542 C539 1.363 . S
C542 N540 1.356 . S
C543 C537 1.363 1_556 S
C543 C538 1.379 . S
C543 N541 1.356 1_556 S
N544 C536 1.356 1_554 S
N544 H550 0.984 . S
N544 H551 0.984 . S
N545 C538 1.356 . S
N545 H548 0.984 . S
N545 H549 0.985 . S
H546 N541 0.984 . S
H547 N541 0.985 . S
H548 N545 0.984 . S
H549 N545 0.985 . S
H550 N544 0.984 . S
H551 N544 0.984 . S
H552 N540 0.984 . S
H553 N540 0.985 . S
C554 C555 1.363 1_556 S
C554 C560 1.379 . S
C554 N562 1.356 1_556 S
C555 C554 1.363 1_554 S
C555 C561 1.363 1_554 S
C556 C557 1.363 . S
C556 C561 1.379 . S
C556 N563 1.356 . S
C557 C556 1.363 . S
C557 C560 1.363 . S
N558 C560 1.356 . S
N558 H570 0.984 . S
N558 H571 0.985 . S
N559 C561 1.356 1_554 S
N559 H564 0.984 . S
N559 H565 0.985 . S
C560 C554 1.379 . S
C560 C557 1.363 . S
C560 N558 1.356 . S
C561 C555 1.363 1_556 S
C561 C556 1.379 . S
C561 N559 1.356 1_556 S
N562 C554 1.356 1_554 S
N562 H568 0.987 . S
N562 H569 0.984 . S
N563 C556 1.356 . S
N563 H566 0.984 . S
N563 H567 0.985 . S
H564 N559 0.984 . S
H565 N559 0.985 . S
H566 N563 0.984 . S
H567 N563 0.985 . S
H568 N562 0.987 . S
H569 N562 0.984 . S
H570 N558 0.984 . S
H571 N558 0.985 . S
C572 C573 1.363 . S
C572 C578 1.379 . S
C572 N580 1.356 . S
C573 C572 1.363 . S
C573 C579 1.363 . S
C574 C575 1.363 1_554 S
C574 C579 1.379 . S
C574 N581 1.356 1_554 S
C575 C574 1.363 1_556 S
C575 C578 1.363 1_556 S
N576 C578 1.356 1_556 S
N576 H588 0.984 . S
N576 H589 0.985 . S
N577 C579 1.356 . S
N577 H582 0.984 . S
N577 H583 0.985 . S
C578 C572 1.379 . S
C578 C575 1.363 1_554 S
C578 N576 1.356 1_554 S
C579 C573 1.363 . S
C579 C574 1.379 . S
C579 N577 1.356 . S
N580 C572 1.356 . S
N580 H586 0.984 . S
N580 H587 0.984 . S
N581 C574 1.356 1_556 S
N581 H584 0.984 . S
N581 H585 0.985 . S
H582 N577 0.984 . S
H583 N577 0.985 . S
H584 N581 0.984 . S
H585 N581 0.985 . S
H586 N580 0.984 . S
H587 N580 0.984 . S
H588 N576 0.984 . S
H589 N576 0.985 . S
C590 C591 1.363 1_554 S
C590 C596 1.379 . S
C590 N598 1.356 1_554 S
C591 C590 1.363 1_556 S
C591 C597 1.363 1_556 S
C592 C593 1.363 . S
C592 C597 1.379 . S
C592 N599 1.356 . S
C593 C592 1.363 . S
C593 C596 1.363 . S
N594 C596 1.356 . S
N594 H606 0.984 . S
N594 H607 0.985 . S
N595 C597 1.356 1_556 S
N595 H600 0.984 . S
N595 H601 0.985 . S
C596 C590 1.379 . S
C596 C593 1.363 . S
C596 N594 1.356 . S
C597 C591 1.363 1_554 S
C597 C592 1.379 . S
C597 N595 1.356 1_554 S
N598 C590 1.356 1_556 S
N598 H604 0.984 1_556 S
N598 H605 0.984 . S
N599 C592 1.356 . S
N599 H602 0.984 . S
N599 H603 0.985 . S
H600 N595 0.984 . S
H601 N595 0.985 . S
H602 N599 0.984 . S
H603 N599 0.985 . S
H604 N598 0.984 1_554 S
H605 N598 0.984 . S
H606 N594 0.984 . S
H607 N594 0.985 . S
C608 C609 1.363 . S
C608 C614 1.379 . S
C608 N616 1.356 . S
C609 C608 1.363 . S
C609 C615 1.363 . S
C610 C611 1.363 . S
C610 C615 1.379 . S
C610 N617 1.356 . S
C611 C610 1.363 . S
C611 C614 1.363 . S
N612 C614 1.356 . S
N612 H624 0.984 . S
N612 H625 0.985 . S
N613 C615 1.356 . S
N613 H618 0.984 . S
N613 H619 0.985 . S
C614 C608 1.379 . S
C614 C611 1.363 . S
C614 N612 1.356 . S
C615 C609 1.363 . S
C615 C610 1.379 . S
C615 N613 1.356 . S
N616 C608 1.356 . S
N616 H622 0.984 . S
N616 H623 0.984 . S
N617 C610 1.356 . S
N617 H620 0.984 . S
N617 H621 0.985 . S
H618 N613 0.984 . S
H619 N613 0.985 . S
H620 N617 0.984 . S
H621 N617 0.985 . S
H622 N616 0.984 . S
H623 N616 0.984 . S
H624 N612 0.984 . S
H625 N612 0.985 . S
C626 C627 1.363 . S
C626 C632 1.379 . S
C626 N634 1.356 . S
C627 C626 1.363 . S
C627 C633 1.363 . S
C628 C629 1.363 . S
C628 C633 1.379 . S
C628 N635 1.356 . S
C629 C628 1.363 . S
C629 C632 1.363 . S
N630 C632 1.356 . S
N630 H642 0.984 . S
N630 H643 0.985 . S
N631 C633 1.356 . S
N631 H636 0.984 . S
N631 H637 0.985 . S
C632 C626 1.379 . S
C632 C629 1.363 . S
C632 N630 1.356 . S
C633 C627 1.363 . S
C633 C628 1.379 . S
C633 N631 1.356 . S
N634 C626 1.356 . S
N634 H640 0.984 . S
N634 H641 0.984 . S
N635 C628 1.356 . S
N635 H638 0.984 . S
N635 H639 0.985 . S
H636 N631 0.984 . S
H637 N631 0.985 . S
H638 N635 0.984 . S
H639 N635 0.985 . S
H640 N634 0.984 . S
H641 N634 0.984 . S
H642 N630 0.984 . S
H643 N630 0.985 . S
C644 C645 1.363 . S
C644 C650 1.379 . S
C644 N652 1.356 . S
C645 C644 1.363 . S
C645 C651 1.363 . S
C646 C647 1.363 . S
C646 C651 1.379 . S
C646 N653 1.356 . S
C647 C646 1.363 . S
C647 C650 1.363 . S
N648 C650 1.356 . S
N648 H660 0.984 . S
N648 H661 0.985 . S
N649 C651 1.356 . S
N649 H654 0.984 . S
N649 H655 0.985 . S
C650 C644 1.379 . S
C650 C647 1.363 . S
C650 N648 1.356 . S
C651 C645 1.363 . S
C651 C646 1.379 . S
C651 N649 1.356 . S
N652 C644 1.356 . S
N652 H658 0.984 . S
N652 H659 0.984 . S
N653 C646 1.356 . S
N653 H656 0.984 . S
N653 H657 0.985 . S
H654 N649 0.984 . S
H655 N649 0.985 . S
H656 N653 0.984 . S
H657 N653 0.985 . S
H658 N652 0.984 . S
H659 N652 0.984 . S
H660 N648 0.984 . S
H661 N648 0.985 . S
C662 C663 1.363 . S
C662 C668 1.379 . S
C662 N670 1.356 . S
C663 C662 1.363 . S
C663 C669 1.363 . S
C664 C665 1.363 . S
C664 C669 1.379 . S
C664 N671 1.356 . S
C665 C664 1.363 . S
C665 C668 1.363 . S
N666 C668 1.356 . S
N666 H678 0.984 . S
N666 H679 0.985 . S
N667 C669 1.356 . S
N667 H672 0.984 . S
N667 H673 0.985 . S
C668 C662 1.379 . S
C668 C665 1.363 . S
C668 N666 1.356 . S
C669 C663 1.363 . S
C669 C664 1.379 . S
C669 N667 1.356 . S
N670 C662 1.356 . S
N670 H676 0.984 . S
N670 H677 0.984 . S
N671 C664 1.356 . S
N671 H674 0.984 . S
N671 H675 0.985 . S
H672 N667 0.984 . S
H673 N667 0.985 . S
H674 N671 0.984 . S
H675 N671 0.985 . S
H676 N670 0.984 . S
H677 N670 0.984 . S
H678 N666 0.984 . S
H679 N666 0.985 . S
C680 C681 1.363 . S
C680 C686 1.379 1_455 S
C680 N688 1.356 . S
C681 C680 1.363 . S
C681 C687 1.363 . S
C682 C683 1.363 . S
C682 C687 1.379 1_655 S
C682 N689 1.356 1_554 S
C683 C682 1.363 . S
C683 C686 1.363 . S
N684 C686 1.356 . S
N684 H696 0.984 . S
N684 H697 0.985 . S
N685 C687 1.356 1_556 S
N685 H690 0.984 1_556 S
N685 H691 0.985 . S
C686 C680 1.379 1_655 S
C686 C683 1.363 . S
C686 N684 1.356 . S
C687 C681 1.363 . S
C687 C682 1.379 1_455 S
C687 N685 1.356 1_554 S
N688 C680 1.356 . S
N688 H694 0.984 . S
N688 H695 0.984 . S
N689 C682 1.356 1_556 S
N689 H692 0.984 1_556 S
N689 H693 0.985 . S
H690 N685 0.984 1_554 S
H691 N685 0.985 . S
H692 N689 0.984 1_554 S
H693 N689 0.985 . S
H694 N688 0.984 . S
H695 N688 0.984 . S
H696 N684 0.984 . S
H697 N684 0.985 . S
C698 C699 1.363 . S
C698 C704 1.379 1_655 S
C698 N706 1.356 1_556 S
C699 C698 1.363 . S
C699 C705 1.363 . S
C700 C701 1.363 . S
C700 C705 1.379 1_455 S
C700 N707 1.356 . S
C701 C700 1.363 . S
C701 C704 1.363 . S
N702 C704 1.356 1_554 S
N702 H714 0.984 . S
N702 H715 0.985 1_554 S
N703 C705 1.356 . S
N703 H708 0.984 . S
N703 H709 0.985 . S
C704 C698 1.379 1_455 S
C704 C701 1.363 . S
C704 N702 1.356 1_556 S
C705 C699 1.363 . S
C705 C700 1.379 1_655 S
C705 N703 1.356 . S
N706 C698 1.356 1_554 S
N706 H712 0.984 . S
N706 H713 0.984 1_554 S
N707 C700 1.356 . S
N707 H710 0.984 . S
N707 H711 0.985 . S
H708 N703 0.984 . S
H709 N703 0.985 . S
H710 N707 0.984 . S
H711 N707 0.985 . S
H712 N706 0.984 . S
H713 N706 0.984 1_556 S
H714 N702 0.984 . S
H715 N702 0.985 1_556 S
C716 C717 1.363 . S
C716 C722 1.379 . S
C716 N724 1.356 . S
C717 C716 1.363 . S
C717 C723 1.363 . S
C718 C719 1.363 . S
C718 C723 1.379 . S
C718 N725 1.356 . S
C719 C718 1.363 . S
C719 C722 1.363 . S
N720 C722 1.356 . S
N720 H732 0.984 . S
N720 H733 0.985 . S
N721 C723 1.356 . S
N721 H726 0.984 . S
N721 H727 0.985 . S
C722 C716 1.379 . S
C722 C719 1.363 . S
C722 N720 1.356 . S
C723 C717 1.363 . S
C723 C718 1.379 . S
C723 N721 1.356 . S
N724 C716 1.356 . S
N724 H730 0.984 . S
N724 H731 0.984 . S
N725 C718 1.356 . S
N725 H728 0.984 . S
N725 H729 0.985 . S
H726 N721 0.984 . S
H727 N721 0.985 . S
H728 N725 0.984 . S
H729 N725 0.985 . S
H730 N724 0.984 . S
H731 N724 0.984 . S
H732 N720 0.984 . S
H733 N720 0.985 . S
C734 C735 1.363 . S
C734 C740 1.379 . S
C734 N742 1.356 . S
C735 C734 1.363 . S
C735 C741 1.363 . S
C736 C737 1.363 . S
C736 C741 1.379 . S
C736 N743 1.356 . S
C737 C736 1.363 . S
C737 C740 1.363 . S
N738 C740 1.356 . S
N738 H750 0.984 . S
N738 H751 0.985 . S
N739 C741 1.356 . S
N739 H744 0.984 . S
N739 H745 0.985 . S
C740 C734 1.379 . S
C740 C737 1.363 . S
C740 N738 1.356 . S
C741 C735 1.363 . S
C741 C736 1.379 . S
C741 N739 1.356 . S
N742 C734 1.356 . S
N742 H748 0.984 . S
N742 H749 0.984 . S
N743 C736 1.356 . S
N743 H746 0.984 . S
N743 H747 0.985 . S
H744 N739 0.984 . S
H745 N739 0.985 . S
H746 N743 0.984 . S
H747 N743 0.985 . S
H748 N742 0.984 . S
H749 N742 0.984 . S
H750 N738 0.984 . S
H751 N738 0.985 . S
C321 C29 1.663 . S
C323 C288 1.662 . S
C339 C248 1.663 . S
C341 C69 1.662 . S
C357 C229 1.663 . S
C359 C88 1.662 . S
C375 C189 1.663 . S
C377 C128 1.662 . S
C393 C97 1.634 . S
C395 C17 1.603 . S
C411 C57 1.603 . S
C413 C137 1.634 . S
C429 C122 1.603 . S
C431 C42 1.634 . S
C447 C82 1.603 . S
C449 C2 1.634 . S
C465 C177 1.449 . S
C467 C257 1.449 . S
C483 C217 1.449 . S
C485 C297 1.449 . S
C501 C282 1.449 . S
C503 C202 1.449 . S
C519 C242 1.449 . S
C521 C162 1.449 . S
C537 C31 2.066 . S
C539 C12 2.066 . S
C555 C71 2.066 . S
C557 C52 2.066 . S
C573 C111 2.066 . S
C575 C92 2.066 . S
C591 C132 2.066 . S
C593 C151 2.066 . S
C609 C172 2.066 . S
C611 C191 2.066 . S
C627 C231 2.066 . S
C629 C212 2.066 . S
C645 C252 2.066 . S
C647 C271 2.066 . S
C663 C292 2.066 . S
C665 C311 2.066 . S
C681 C8 2.189 . S
C683 C48 2.189 . S
C699 C149 2.189 . S
C701 C109 2.189 . S
C717 C168 2.191 . S
C719 C208 2.191 . S
C735 C309 2.191 . S
C737 C269 2.191 . S
