# Generated by pormake.
# Topology ukc, (4)-cn, num edge types: 1
# Building blocks:
#     Node 0, Type 0, BuildingBlock: QUQFOY_clean_sbu_1, # of connection points: 4
#     Node 1, Type 0, BuildingBlock: QUQFOY_clean_sbu_1, # of connection points: 4
#     Node 2, Type 0, BuildingBlock: QUQFOY_clean_sbu_1, # of connection points: 4
#     Node 3, Type 0, BuildingBlock: QUQFOY_clean_sbu_1, # of connection points: 4
#     Node 4, Type 0, BuildingBlock: QUQFOY_clean_sbu_1, # of connection points: 4
#     Node 5, Type 0, BuildingBlock: QUQFOY_clean_sbu_1, # of connection points: 4
#     Node 6, Type 0, BuildingBlock: QUQFOY_clean_sbu_1, # of connection points: 4
#     Node 7, Type 0, BuildingBlock: QUQFOY_clean_sbu_1, # of connection points: 4
#     Node 8, Type 0, BuildingBlock: QUQFOY_clean_sbu_1, # of connection points: 4
#     Node 9, Type 0, BuildingBlock: QUQFOY_clean_sbu_1, # of connection points: 4
#     Node 10, Type 0, BuildingBlock: QUQFOY_clean_sbu_1, # of connection points: 4
#     Node 11, Type 0, BuildingBlock: QUQFOY_clean_sbu_1, # of connection points: 4
#     Node 12, Type 0, BuildingBlock: QUQFOY_clean_sbu_1, # of connection points: 4
#     Node 13, Type 0, BuildingBlock: QUQFOY_clean_sbu_1, # of connection points: 4
#     Node 14, Type 0, BuildingBlock: QUQFOY_clean_sbu_1, # of connection points: 4
#     Node 15, Type 0, BuildingBlock: QUQFOY_clean_sbu_1, # of connection points: 4
#     Node 16, Type 0, BuildingBlock: QUQFOY_clean_sbu_1, # of connection points: 4
#     Node 17, Type 0, BuildingBlock: QUQFOY_clean_sbu_1, # of connection points: 4
#     Node 18, Type 0, BuildingBlock: QUQFOY_clean_sbu_1, # of connection points: 4
#     Node 19, Type 0, BuildingBlock: QUQFOY_clean_sbu_1, # of connection points: 4
#     Node 20, Type 0, BuildingBlock: QUQFOY_clean_sbu_1, # of connection points: 4
#     Node 21, Type 0, BuildingBlock: QUQFOY_clean_sbu_1, # of connection points: 4
#     Node 22, Type 0, BuildingBlock: QUQFOY_clean_sbu_1, # of connection points: 4
#     Node 23, Type 0, BuildingBlock: QUQFOY_clean_sbu_1, # of connection points: 4
#     Node 24, Type 0, BuildingBlock: QUQFOY_clean_sbu_1, # of connection points: 4
#     Node 25, Type 0, BuildingBlock: QUQFOY_clean_sbu_1, # of connection points: 4
#     Node 26, Type 0, BuildingBlock: QUQFOY_clean_sbu_1, # of connection points: 4
#     Node 27, Type 0, BuildingBlock: QUQFOY_clean_sbu_1, # of connection points: 4
#     Node 28, Type 0, BuildingBlock: QUQFOY_clean_sbu_1, # of connection points: 4
#     Node 29, Type 0, BuildingBlock: QUQFOY_clean_sbu_1, # of connection points: 4
#     Node 30, Type 0, BuildingBlock: QUQFOY_clean_sbu_1, # of connection points: 4
#     Node 31, Type 0, BuildingBlock: QUQFOY_clean_sbu_1, # of connection points: 4
#     Edge 32, Type (0, 0), BuildingBlock: EZIPEK_clean_linker_0, # of connection points: 2
#     Edge 33, Type (0, 0), BuildingBlock: EZIPEK_clean_linker_0, # of connection points: 2
#     Edge 34, Type (0, 0), BuildingBlock: EZIPEK_clean_linker_0, # of connection points: 2
#     Edge 35, Type (0, 0), BuildingBlock: EZIPEK_clean_linker_0, # of connection points: 2
#     Edge 36, Type (0, 0), BuildingBlock: EZIPEK_clean_linker_0, # of connection points: 2
#     Edge 37, Type (0, 0), BuildingBlock: EZIPEK_clean_linker_0, # of connection points: 2
#     Edge 38, Type (0, 0), BuildingBlock: EZIPEK_clean_linker_0, # of connection points: 2
#     Edge 39, Type (0, 0), BuildingBlock: EZIPEK_clean_linker_0, # of connection points: 2
#     Edge 40, Type (0, 0), BuildingBlock: EZIPEK_clean_linker_0, # of connection points: 2
#     Edge 41, Type (0, 0), BuildingBlock: EZIPEK_clean_linker_0, # of connection points: 2
#     Edge 42, Type (0, 0), BuildingBlock: EZIPEK_clean_linker_0, # of connection points: 2
#     Edge 43, Type (0, 0), BuildingBlock: EZIPEK_clean_linker_0, # of connection points: 2
#     Edge 44, Type (0, 0), BuildingBlock: EZIPEK_clean_linker_0, # of connection points: 2
#     Edge 45, Type (0, 0), BuildingBlock: EZIPEK_clean_linker_0, # of connection points: 2
#     Edge 46, Type (0, 0), BuildingBlock: EZIPEK_clean_linker_0, # of connection points: 2
#     Edge 47, Type (0, 0), BuildingBlock: EZIPEK_clean_linker_0, # of connection points: 2
#     Edge 48, Type (0, 0), BuildingBlock: EZIPEK_clean_linker_0, # of connection points: 2
#     Edge 49, Type (0, 0), BuildingBlock: EZIPEK_clean_linker_0, # of connection points: 2
#     Edge 50, Type (0, 0), BuildingBlock: EZIPEK_clean_linker_0, # of connection points: 2
#     Edge 51, Type (0, 0), BuildingBlock: EZIPEK_clean_linker_0, # of connection points: 2
#     Edge 52, Type (0, 0), BuildingBlock: EZIPEK_clean_linker_0, # of connection points: 2
#     Edge 53, Type (0, 0), BuildingBlock: EZIPEK_clean_linker_0, # of connection points: 2
#     Edge 54, Type (0, 0), BuildingBlock: EZIPEK_clean_linker_0, # of connection points: 2
#     Edge 55, Type (0, 0), BuildingBlock: EZIPEK_clean_linker_0, # of connection points: 2
#     Edge 56, Type (0, 0), BuildingBlock: EZIPEK_clean_linker_0, # of connection points: 2
#     Edge 57, Type (0, 0), BuildingBlock: EZIPEK_clean_linker_0, # of connection points: 2
#     Edge 58, Type (0, 0), BuildingBlock: EZIPEK_clean_linker_0, # of connection points: 2
#     Edge 59, Type (0, 0), BuildingBlock: EZIPEK_clean_linker_0, # of connection points: 2
#     Edge 60, Type (0, 0), BuildingBlock: EZIPEK_clean_linker_0, # of connection points: 2
#     Edge 61, Type (0, 0), BuildingBlock: EZIPEK_clean_linker_0, # of connection points: 2
#     Edge 62, Type (0, 0), BuildingBlock: EZIPEK_clean_linker_0, # of connection points: 2
#     Edge 63, Type (0, 0), BuildingBlock: EZIPEK_clean_linker_0, # of connection points: 2
#     Edge 64, Type (0, 0), BuildingBlock: EZIPEK_clean_linker_0, # of connection points: 2
#     Edge 65, Type (0, 0), BuildingBlock: EZIPEK_clean_linker_0, # of connection points: 2
#     Edge 66, Type (0, 0), BuildingBlock: EZIPEK_clean_linker_0, # of connection points: 2
#     Edge 67, Type (0, 0), BuildingBlock: EZIPEK_clean_linker_0, # of connection points: 2
#     Edge 68, Type (0, 0), BuildingBlock: EZIPEK_clean_linker_0, # of connection points: 2
#     Edge 69, Type (0, 0), BuildingBlock: EZIPEK_clean_linker_0, # of connection points: 2
#     Edge 70, Type (0, 0), BuildingBlock: EZIPEK_clean_linker_0, # of connection points: 2
#     Edge 71, Type (0, 0), BuildingBlock: EZIPEK_clean_linker_0, # of connection points: 2
#     Edge 72, Type (0, 0), BuildingBlock: EZIPEK_clean_linker_0, # of connection points: 2
#     Edge 73, Type (0, 0), BuildingBlock: EZIPEK_clean_linker_0, # of connection points: 2
#     Edge 74, Type (0, 0), BuildingBlock: EZIPEK_clean_linker_0, # of connection points: 2
#     Edge 75, Type (0, 0), BuildingBlock: EZIPEK_clean_linker_0, # of connection points: 2
#     Edge 76, Type (0, 0), BuildingBlock: EZIPEK_clean_linker_0, # of connection points: 2
#     Edge 77, Type (0, 0), BuildingBlock: EZIPEK_clean_linker_0, # of connection points: 2
#     Edge 78, Type (0, 0), BuildingBlock: EZIPEK_clean_linker_0, # of connection points: 2
#     Edge 79, Type (0, 0), BuildingBlock: EZIPEK_clean_linker_0, # of connection points: 2
#     Edge 80, Type (0, 0), BuildingBlock: EZIPEK_clean_linker_0, # of connection points: 2
#     Edge 81, Type (0, 0), BuildingBlock: EZIPEK_clean_linker_0, # of connection points: 2
#     Edge 82, Type (0, 0), BuildingBlock: EZIPEK_clean_linker_0, # of connection points: 2
#     Edge 83, Type (0, 0), BuildingBlock: EZIPEK_clean_linker_0, # of connection points: 2
#     Edge 84, Type (0, 0), BuildingBlock: EZIPEK_clean_linker_0, # of connection points: 2
#     Edge 85, Type (0, 0), BuildingBlock: EZIPEK_clean_linker_0, # of connection points: 2
#     Edge 86, Type (0, 0), BuildingBlock: EZIPEK_clean_linker_0, # of connection points: 2
#     Edge 87, Type (0, 0), BuildingBlock: EZIPEK_clean_linker_0, # of connection points: 2
#     Edge 88, Type (0, 0), BuildingBlock: EZIPEK_clean_linker_0, # of connection points: 2
#     Edge 89, Type (0, 0), BuildingBlock: EZIPEK_clean_linker_0, # of connection points: 2
#     Edge 90, Type (0, 0), BuildingBlock: EZIPEK_clean_linker_0, # of connection points: 2
#     Edge 91, Type (0, 0), BuildingBlock: EZIPEK_clean_linker_0, # of connection points: 2
#     Edge 92, Type (0, 0), BuildingBlock: EZIPEK_clean_linker_0, # of connection points: 2
#     Edge 93, Type (0, 0), BuildingBlock: EZIPEK_clean_linker_0, # of connection points: 2
#     Edge 94, Type (0, 0), BuildingBlock: EZIPEK_clean_linker_0, # of connection points: 2
#     Edge 95, Type (0, 0), BuildingBlock: EZIPEK_clean_linker_0, # of connection points: 2
# Relax obj value: 0.077
# Max RMSD: 0.149
# Mean RMSD: 0.149
data_MOF--net-ukc--node1-QUQFOY_clean_sbu_1--edge1-EZIPEK_clean_linker_0
_symmetry_space_group_name_H-M    P1
_symmetry_Int_Tables_number       1
_symmetry_cell_setting            triclinic
loop_
_symmetry_equiv_pos_as_xyz
'x, y, z'
_cell_length_a     36.516604
_cell_length_b     36.519696
_cell_length_c     61.780021
_cell_angle_alpha  89.928766
_cell_angle_beta   90.077779
_cell_angle_gamma 89.965485
loop_
_atom_site_label
_atom_site_type_symbol
_atom_site_fract_x
_atom_site_fract_y
_atom_site_fract_z
_atom_type_partial_charge
O0 O 0.13604 0.35789 0.0673 0.0
Cd1 Cd 0.13401 0.35083 0.03434 0.0
Cd2 Cd 0.07108 0.39213 0.03997 0.0
O3 O 0.09092 0.39775 0.07117 0.0
O4 O 0.18369 0.33121 0.02813 0.0
O5 O 0.16346 0.38392 0.0149 0.0
C6 C 0.18963 0.36034 0.01694 0.0
C7 C 0.04644 0.44215 0.02142 0.0
C8 C 0.11707 0.37901 0.07909 0.0
C9 C 0.06343 0.31319 0.0258 0.0
O10 O 0.04822 0.34201 0.03295 0.0
O11 O 0.09794 0.31138 0.02347 0.0
O12 O 0.02919 0.42709 0.03727 0.0
O13 O 0.07831 0.42945 0.0163 0.0
O14 O 0.90078 0.88845 0.31769 0.0
Cd15 Cd 0.91052 0.88402 0.28517 0.0
Cd16 Cd 0.8674 0.82113 0.2911 0.0
O17 O 0.86537 0.84002 0.32267 0.0
O18 O 0.93298 0.93256 0.27889 0.0
O19 O 0.88091 0.91415 0.26407 0.0
C20 C 0.90528 0.9394 0.26664 0.0
C21 C 0.8156 0.79659 0.27422 0.0
C22 C 0.88236 0.86774 0.33005 0.0
C23 C 0.94667 0.81141 0.27799 0.0
O24 O 0.91617 0.79687 0.28284 0.0
O25 O 0.9502 0.84601 0.27695 0.0
O26 O 0.83195 0.77947 0.28969 0.0
O27 O 0.82784 0.82841 0.26863 0.0
O28 O 0.38613 0.66263 0.56782 0.0
Cd29 Cd 0.38387 0.66702 0.53465 0.0
Cd30 Cd 0.43848 0.61845 0.53915 0.0
O31 O 0.41018 0.60776 0.56767 0.0
O32 O 0.33442 0.68763 0.5285 0.0
O33 O 0.35249 0.63302 0.51695 0.0
C34 C 0.32719 0.65768 0.51835 0.0
C35 C 0.46625 0.56974 0.52087 0.0
C36 C 0.39479 0.63363 0.57793 0.0
C37 C 0.45529 0.69763 0.52734 0.0
O38 O 0.466 0.66821 0.53644 0.0
O39 O 0.42211 0.70157 0.52171 0.0
O40 O 0.47908 0.58161 0.53896 0.0
O41 O 0.43695 0.58483 0.51323 0.0
O42 O 0.60671 0.14081 0.81729 0.0
Cd43 Cd 0.60329 0.13947 0.7841 0.0
Cd44 Cd 0.65287 0.19246 0.78926 0.0
O45 O 0.66217 0.16339 0.81772 0.0
O46 O 0.58196 0.09064 0.77751 0.0
O47 O 0.63718 0.1079 0.76652 0.0
C48 C 0.61204 0.08307 0.76758 0.0
C49 C 0.70286 0.21887 0.77149 0.0
C50 C 0.63571 0.14841 0.82767 0.0
C51 C 0.57434 0.21152 0.77693 0.0
O52 O 0.60386 0.22137 0.78624 0.0
O53 O 0.56978 0.17856 0.7711 0.0
O54 O 0.69075 0.23201 0.78943 0.0
O55 O 0.68718 0.19004 0.7637 0.0
O56 O 0.1251 0.66188 0.43253 0.0
Cd57 Cd 0.12529 0.66416 0.46575 0.0
Cd58 Cd 0.07455 0.61281 0.45965 0.0
O59 O 0.10456 0.60571 0.43119 0.0
O60 O 0.17345 0.68628 0.47326 0.0
O61 O 0.15717 0.63017 0.4832 0.0
C62 C 0.18148 0.65587 0.48276 0.0
C63 C 0.04983 0.56219 0.47769 0.0
C64 C 0.11913 0.63297 0.42174 0.0
C65 C 0.05188 0.68993 0.47275 0.0
O66 O 0.04339 0.66022 0.46324 0.0
O67 O 0.08464 0.69583 0.47865 0.0
O68 O 0.03655 0.57336 0.45953 0.0
O69 O 0.07831 0.57874 0.48533 0.0
O70 O 0.60294 0.88001 0.68241 0.0
Cd71 Cd 0.59986 0.88147 0.71563 0.0
Cd72 Cd 0.64899 0.8286 0.71048 0.0
O73 O 0.65842 0.85742 0.68199 0.0
O74 O 0.57951 0.93065 0.72243 0.0
O75 O 0.63471 0.91233 0.73302 0.0
C76 C 0.60998 0.93763 0.73215 0.0
C77 C 0.69865 0.80209 0.72853 0.0
C78 C 0.63185 0.87228 0.67203 0.0
C79 C 0.57067 0.80966 0.72277 0.0
O80 O 0.60002 0.79982 0.71332 0.0
O81 O 0.56627 0.84258 0.72873 0.0
O82 O 0.68676 0.78897 0.71052 0.0
O83 O 0.68298 0.83101 0.73621 0.0
O84 O 0.39269 0.35698 0.93191 0.0
Cd85 Cd 0.39134 0.35345 0.96508 0.0
Cd86 Cd 0.44393 0.4029 0.96028 0.0
O87 O 0.4155 0.41234 0.93155 0.0
O88 O 0.3424 0.33242 0.97166 0.0
O89 O 0.36 0.38754 0.98267 0.0
C90 C 0.33502 0.36254 0.98159 0.0
C91 C 0.46873 0.45263 0.97905 0.0
C92 C 0.4004 0.38597 0.92156 0.0
C93 C 0.46328 0.32439 0.97238 0.0
O94 O 0.47319 0.35408 0.9633 0.0
O95 O 0.43024 0.31969 0.97803 0.0
O96 O 0.48291 0.44133 0.9612 0.0
O97 O 0.43977 0.43631 0.98618 0.0
O98 O 0.9099 0.14107 0.17939 0.0
Cd99 Cd 0.91508 0.14033 0.21244 0.0
Cd100 Cd 0.86277 0.19261 0.20846 0.0
O101 O 0.85512 0.16572 0.17904 0.0
O102 O 0.93671 0.09164 0.2193 0.0
O103 O 0.88184 0.10923 0.23074 0.0
C104 C 0.90693 0.08432 0.22962 0.0
C105 C 0.81219 0.21802 0.22606 0.0
C106 C 0.88113 0.14987 0.1691 0.0
C107 C 0.94126 0.21374 0.2207 0.0
O108 O 0.91019 0.22308 0.21313 0.0
O109 O 0.94843 0.18035 0.22453 0.0
O110 O 0.82477 0.23198 0.20845 0.0
O111 O 0.82737 0.18859 0.23344 0.0
O112 O 0.88649 0.65026 0.93334 0.0
Cd113 Cd 0.89203 0.65702 0.9661 0.0
Cd114 Cd 0.9533 0.61328 0.95798 0.0
O115 O 0.93324 0.61352 0.92657 0.0
O116 O 0.84402 0.67996 0.97318 0.0
O117 O 0.86131 0.62619 0.98628 0.0
C118 C 0.83653 0.65125 0.98441 0.0
C119 C 0.97639 0.5606 0.9745 0.0
C120 C 0.90586 0.63214 0.92011 0.0
C121 C 0.96566 0.69093 0.97337 0.0
O122 O 0.97912 0.66075 0.96698 0.0
O123 O 0.93122 0.69503 0.97536 0.0
O124 O 0.99366 0.57636 0.9589 0.0
O125 O 0.94498 0.57372 0.98021 0.0
O126 O 0.10763 0.14309 0.68309 0.0
Cd127 Cd 0.10597 0.14242 0.71638 0.0
Cd128 Cd 0.15529 0.19549 0.70977 0.0
O129 O 0.16268 0.16658 0.68108 0.0
O130 O 0.08486 0.09363 0.72365 0.0
O131 O 0.14076 0.11072 0.73349 0.0
C132 C 0.11553 0.08594 0.73295 0.0
C133 C 0.20569 0.22196 0.7271 0.0
C134 C 0.13573 0.15091 0.67195 0.0
C135 C 0.07773 0.215 0.72362 0.0
O136 O 0.1067 0.22453 0.71367 0.0
O137 O 0.07329 0.18209 0.72968 0.0
O138 O 0.19294 0.23524 0.70931 0.0
O139 O 0.19062 0.19279 0.73489 0.0
O140 O 0.62214 0.35668 0.42995 0.0
Cd141 Cd 0.62382 0.35182 0.4631 0.0
Cd142 Cd 0.56927 0.4031 0.45852 0.0
O143 O 0.59515 0.41037 0.4288 0.0
O144 O 0.67233 0.3287 0.46914 0.0
O145 O 0.65704 0.38391 0.48096 0.0
C146 C 0.68113 0.35811 0.47941 0.0
C147 C 0.54383 0.45382 0.47612 0.0
C148 C 0.61197 0.38458 0.41923 0.0
C149 C 0.55056 0.32453 0.47186 0.0
O150 O 0.5403 0.35487 0.4637 0.0
O151 O 0.58413 0.31851 0.47585 0.0
O152 O 0.52907 0.44036 0.45896 0.0
O153 O 0.57402 0.43944 0.483 0.0
O154 O 0.41597 0.8754 0.18056 0.0
Cd155 Cd 0.41896 0.8764 0.21371 0.0
Cd156 Cd 0.36694 0.82583 0.20895 0.0
O157 O 0.35982 0.85446 0.18 0.0
O158 O 0.43959 0.9252 0.22105 0.0
O159 O 0.38398 0.90715 0.23097 0.0
C160 C 0.40891 0.93226 0.23048 0.0
C161 C 0.31606 0.80103 0.22649 0.0
C162 C 0.38679 0.86877 0.17014 0.0
C163 C 0.4444 0.80325 0.22205 0.0
O164 O 0.41405 0.79454 0.21332 0.0
O165 O 0.45115 0.83633 0.22685 0.0
O166 O 0.32811 0.78733 0.20869 0.0
O167 O 0.33194 0.82989 0.23408 0.0
O168 O 0.87915 0.36294 0.56581 0.0
Cd169 Cd 0.88323 0.35249 0.53328 0.0
Cd170 Cd 0.94801 0.39414 0.53965 0.0
O171 O 0.92881 0.39649 0.57115 0.0
O172 O 0.83423 0.33036 0.52759 0.0
O173 O 0.85283 0.38171 0.51205 0.0
C174 C 0.82738 0.35772 0.51509 0.0
C175 C 0.97413 0.44524 0.5228 0.0
C176 C 0.90038 0.38046 0.57834 0.0
C177 C 0.9553 0.31465 0.52618 0.0
O178 O 0.97062 0.34461 0.53137 0.0
O179 O 0.92061 0.31206 0.52501 0.0
O180 O 0.99076 0.42837 0.53826 0.0
O181 O 0.94189 0.43403 0.51728 0.0
O182 O 0.40207 0.12881 0.3175 0.0
Cd183 Cd 0.41075 0.13291 0.28481 0.0
Cd184 Cd 0.36687 0.19496 0.2908 0.0
O185 O 0.36529 0.17624 0.32243 0.0
O186 O 0.43336 0.0845 0.27843 0.0
O187 O 0.38056 0.10243 0.26425 0.0
C188 C 0.40526 0.0774 0.26657 0.0
C189 C 0.3146 0.21787 0.27367 0.0
C190 C 0.38311 0.14903 0.32985 0.0
C191 C 0.44554 0.20578 0.27669 0.0
O192 O 0.41509 0.2199 0.28207 0.0
O193 O 0.44953 0.17123 0.27568 0.0
O194 O 0.33038 0.23568 0.28905 0.0
O195 O 0.3275 0.18612 0.26849 0.0
O196 O 0.63383 0.65474 0.06779 0.0
Cd197 Cd 0.63292 0.66197 0.0348 0.0
Cd198 Cd 0.56684 0.62303 0.04082 0.0
O199 O 0.5857 0.61873 0.07228 0.0
O200 O 0.68294 0.68199 0.02966 0.0
O201 O 0.66385 0.62961 0.01563 0.0
C202 C 0.68974 0.65326 0.01833 0.0
C203 C 0.54041 0.57247 0.02366 0.0
C204 C 0.61325 0.63568 0.07989 0.0
C205 C 0.56322 0.70191 0.02539 0.0
O206 O 0.54651 0.67377 0.03235 0.0
O207 O 0.59789 0.70223 0.02349 0.0
O208 O 0.5234 0.58985 0.03874 0.0
O209 O 0.57298 0.58319 0.01852 0.0
O210 O 0.1142 0.88267 0.81639 0.0
Cd211 Cd 0.10856 0.88193 0.78327 0.0
Cd212 Cd 0.15126 0.81848 0.78958 0.0
O213 O 0.15489 0.83832 0.82082 0.0
O214 O 0.08712 0.93124 0.7775 0.0
O215 O 0.14095 0.91385 0.76466 0.0
C216 C 0.11629 0.93896 0.76676 0.0
C217 C 0.20213 0.79163 0.77302 0.0
C218 C 0.13506 0.86382 0.82849 0.0
C219 C 0.07281 0.81048 0.77387 0.0
O220 O 0.10153 0.79568 0.78151 0.0
O221 O 0.07057 0.84499 0.77151 0.0
O222 O 0.18511 0.77547 0.78856 0.0
O223 O 0.19109 0.82377 0.76717 0.0
O224 O 0.62374 0.85473 0.56875 0.0
Cd225 Cd 0.62504 0.85107 0.53558 0.0
Cd226 Cd 0.57205 0.90037 0.54026 0.0
O227 O 0.60086 0.91009 0.56876 0.0
O228 O 0.67418 0.83053 0.52898 0.0
O229 O 0.65597 0.88552 0.51795 0.0
C230 C 0.68123 0.86077 0.51904 0.0
C231 C 0.54616 0.95017 0.52205 0.0
C232 C 0.6161 0.88391 0.57889 0.0
C233 C 0.5532 0.82181 0.52813 0.0
O234 O 0.54311 0.85142 0.53721 0.0
O235 O 0.58631 0.81719 0.52261 0.0
O236 O 0.53259 0.93831 0.53995 0.0
O237 O 0.57509 0.93432 0.51453 0.0
O238 O 0.41564 0.37982 0.81813 0.0
Cd239 Cd 0.4196 0.38105 0.78494 0.0
Cd240 Cd 0.37111 0.3266 0.78989 0.0
O241 O 0.36112 0.35498 0.81848 0.0
O242 O 0.44006 0.43027 0.77831 0.0
O243 O 0.38538 0.41186 0.767 0.0
C244 C 0.41004 0.43717 0.7681 0.0
C245 C 0.32189 0.29929 0.7718 0.0
C246 C 0.38691 0.37112 0.82844 0.0
C247 C 0.45012 0.30952 0.77768 0.0
O248 O 0.42071 0.29885 0.78673 0.0
O249 O 0.45417 0.34274 0.77219 0.0
O250 O 0.33438 0.28596 0.78964 0.0
O251 O 0.33673 0.32878 0.76429 0.0
O252 O 0.89041 0.16404 0.06567 0.0
Cd253 Cd 0.88969 0.16675 0.03248 0.0
Cd254 Cd 0.93904 0.11456 0.03786 0.0
O255 O 0.90927 0.10719 0.06629 0.0
O256 O 0.84129 0.18825 0.02497 0.0
O257 O 0.85831 0.13222 0.01524 0.0
C258 C 0.83363 0.15762 0.01564 0.0
C259 C 0.9636 0.06404 0.0199 0.0
C260 C 0.89587 0.13464 0.07612 0.0
C261 C 0.96307 0.19158 0.02548 0.0
O262 O 0.97097 0.16142 0.03473 0.0
O263 O 0.93046 0.19825 0.01958 0.0
O264 O 0.97676 0.07495 0.03812 0.0
O265 O 0.93536 0.08085 0.01211 0.0
O266 O 0.10829 0.64351 0.31869 0.0
Cd267 Cd 0.10275 0.6434 0.2856 0.0
Cd268 Cd 0.15157 0.69876 0.29096 0.0
O269 O 0.16167 0.67074 0.31974 0.0
O270 O 0.07877 0.59513 0.28093 0.0
O271 O 0.13169 0.60993 0.26607 0.0
C272 C 0.1062 0.58593 0.26904 0.0
C273 C 0.20057 0.72528 0.27249 0.0
C274 C 0.13649 0.65301 0.32927 0.0
C275 C 0.07281 0.71592 0.27834 0.0
O276 O 0.1022 0.72669 0.28738 0.0
O277 O 0.06831 0.6825 0.27346 0.0
O278 O 0.18846 0.73911 0.29025 0.0
O279 O 0.18552 0.69567 0.26532 0.0
O280 O 0.62942 0.16441 0.93104 0.0
Cd281 Cd 0.63133 0.1681 0.96423 0.0
Cd282 Cd 0.57612 0.12024 0.95929 0.0
O283 O 0.60466 0.10988 0.93081 0.0
O284 O 0.68087 0.18819 0.97044 0.0
O285 O 0.6624 0.13359 0.98184 0.0
C286 C 0.68785 0.15806 0.98052 0.0
C287 C 0.54767 0.07117 0.97687 0.0
C288 C 0.62073 0.13563 0.92079 0.0
C289 C 0.56032 0.19942 0.97179 0.0
O290 O 0.54926 0.17032 0.96253 0.0
O291 O 0.59357 0.20289 0.97734 0.0
O292 O 0.5348 0.0843 0.95907 0.0
O293 O 0.57728 0.08536 0.98466 0.0
O294 O 0.11855 0.38321 0.18285 0.0
Cd295 Cd 0.10608 0.38183 0.21532 0.0
Cd296 Cd 0.14452 0.31452 0.21064 0.0
O297 O 0.15058 0.33219 0.17909 0.0
O298 O 0.08426 0.43166 0.21802 0.0
O299 O 0.13114 0.41359 0.23779 0.0
C300 C 0.10825 0.43909 0.23261 0.0
C301 C 0.19405 0.28824 0.22888 0.0
C302 C 0.13652 0.36108 0.17115 0.0
C303 C 0.06427 0.31225 0.22294 0.0
O304 O 0.09323 0.29483 0.21808 0.0
O305 O 0.06387 0.34702 0.22383 0.0
O306 O 0.17741 0.27101 0.21359 0.0
O307 O 0.18313 0.3209 0.23368 0.0
O308 O 0.88093 0.85965 0.43391 0.0
Cd309 Cd 0.88272 0.85121 0.46673 0.0
Cd310 Cd 0.94606 0.89315 0.46192 0.0
O311 O 0.92609 0.89965 0.43088 0.0
O312 O 0.83307 0.83119 0.47253 0.0
O313 O 0.85294 0.88344 0.48647 0.0
C314 C 0.82688 0.85989 0.48404 0.0
C315 C 0.97242 0.9431 0.47965 0.0
C316 C 0.90015 0.88121 0.42253 0.0
C317 C 0.9534 0.81333 0.47498 0.0
O318 O 0.96867 0.84262 0.46856 0.0
O319 O 0.91884 0.81131 0.47702 0.0
O320 O 0.98888 0.92707 0.46387 0.0
O321 O 0.94045 0.93133 0.48525 0.0
O322 O 0.41421 0.63921 0.68113 0.0
Cd323 Cd 0.41906 0.63777 0.71427 0.0
Cd324 Cd 0.36937 0.69081 0.71013 0.0
O325 O 0.35896 0.6624 0.68159 0.0
O326 O 0.43973 0.58862 0.72087 0.0
O327 O 0.38512 0.60704 0.73232 0.0
C328 C 0.40982 0.58174 0.73115 0.0
C329 C 0.32024 0.71678 0.72882 0.0
C330 C 0.38481 0.64714 0.67123 0.0
C331 C 0.44816 0.70975 0.72168 0.0
O332 O 0.41825 0.71984 0.7129 0.0
O333 O 0.45317 0.67656 0.72696 0.0
O334 O 0.33156 0.73038 0.7108 0.0
O335 O 0.33615 0.68768 0.73614 0.0
O336 O 0.38029 0.15476 0.4339 0.0
Cd337 Cd 0.38198 0.16276 0.46677 0.0
Cd338 Cd 0.44585 0.121 0.46174 0.0
O339 O 0.42616 0.11558 0.43057 0.0
O340 O 0.33224 0.18281 0.47257 0.0
O341 O 0.352 0.13041 0.48643 0.0
C342 C 0.32594 0.15401 0.484 0.0
C343 C 0.47266 0.0705 0.47885 0.0
C344 C 0.39993 0.13386 0.42236 0.0
C345 C 0.45279 0.20061 0.47523 0.0
O346 O 0.46823 0.17138 0.46887 0.0
O347 O 0.41818 0.20256 0.47711 0.0
O348 O 0.48898 0.08734 0.4633 0.0
O349 O 0.44057 0.08179 0.48458 0.0
O350 O 0.61376 0.63308 0.18364 0.0
Cd351 Cd 0.60609 0.63409 0.21655 0.0
Cd352 Cd 0.6463 0.69888 0.21118 0.0
O353 O 0.65122 0.68022 0.17976 0.0
O354 O 0.58541 0.58441 0.22168 0.0
O355 O 0.63781 0.60289 0.23603 0.0
C356 C 0.61389 0.5773 0.23322 0.0
C357 C 0.69651 0.72468 0.22901 0.0
C358 C 0.63355 0.65341 0.17182 0.0
C359 C 0.56704 0.70423 0.22524 0.0
O360 O 0.59576 0.72032 0.21866 0.0
O361 O 0.56591 0.66959 0.22719 0.0
O362 O 0.6801 0.74176 0.21354 0.0
O363 O 0.68495 0.69241 0.23422 0.0
O364 O 0.13241 0.86141 0.93246 0.0
Cd365 Cd 0.13107 0.85487 0.96552 0.0
Cd366 Cd 0.06645 0.89629 0.95878 0.0
O367 O 0.08696 0.90076 0.92772 0.0
O368 O 0.18026 0.83296 0.97106 0.0
O369 O 0.16312 0.88636 0.9846 0.0
C370 C 0.1881 0.86164 0.98221 0.0
C371 C 0.03902 0.94652 0.97558 0.0
C372 C 0.11342 0.88199 0.92027 0.0
C373 C 0.05982 0.81781 0.97437 0.0
O374 O 0.04443 0.84613 0.96663 0.0
O375 O 0.09434 0.81641 0.97696 0.0
O376 O 0.0231 0.92965 0.95988 0.0
O377 O 0.07123 0.93567 0.98144 0.0
O378 O 0.90783 0.38362 0.68219 0.0
Cd379 Cd 0.91611 0.38278 0.71507 0.0
Cd380 Cd 0.87263 0.31988 0.71076 0.0
O381 O 0.86647 0.33961 0.67961 0.0
O382 O 0.93676 0.43236 0.72048 0.0
O383 O 0.88429 0.41345 0.73458 0.0
C384 C 0.90818 0.43915 0.73197 0.0
C385 C 0.82215 0.29363 0.72818 0.0
C386 C 0.88573 0.36468 0.67099 0.0
C387 C 0.95256 0.31163 0.72401 0.0
O388 O 0.92297 0.2968 0.71765 0.0
O389 O 0.95524 0.34618 0.7258 0.0
O390 O 0.83848 0.27714 0.71252 0.0
O391 O 0.83393 0.32555 0.73385 0.0
O392 O 0.39213 0.85597 0.06667 0.0
Cd393 Cd 0.39111 0.85134 0.0336 0.0
Cd394 Cd 0.4433 0.9038 0.0377 0.0
O395 O 0.4163 0.9109 0.06715 0.0
O396 O 0.34226 0.82992 0.02686 0.0
O397 O 0.35974 0.88488 0.0155 0.0
C398 C 0.33478 0.85988 0.01671 0.0
C399 C 0.4685 0.95503 0.02048 0.0
C400 C 0.40073 0.88464 0.07705 0.0
C401 C 0.46454 0.82514 0.02543 0.0
O402 O 0.47377 0.8563 0.03288 0.0
O403 O 0.43117 0.81796 0.02153 0.0
O404 O 0.48256 0.942 0.03797 0.0
O405 O 0.43918 0.93986 0.01297 0.0
O406 O 0.9078 0.6391 0.81657 0.0
Cd407 Cd 0.91447 0.64168 0.78359 0.0
Cd408 Cd 0.86866 0.70213 0.78962 0.0
O409 O 0.8644 0.68081 0.82056 0.0
O410 O 0.93647 0.59305 0.77716 0.0
O411 O 0.88257 0.61066 0.76429 0.0
C412 C 0.9074 0.58564 0.76621 0.0
C413 C 0.81721 0.72713 0.77257 0.0
C414 C 0.88528 0.65627 0.82843 0.0
C415 C 0.94741 0.71453 0.77519 0.0
O416 O 0.91753 0.72762 0.78233 0.0
O417 O 0.95152 0.68023 0.77269 0.0
O418 O 0.83287 0.74354 0.78852 0.0
O419 O 0.82995 0.69573 0.76659 0.0
O420 O 0.12257 0.16093 0.56802 0.0
Cd421 Cd 0.12321 0.16132 0.53469 0.0
Cd422 Cd 0.07155 0.11205 0.5417 0.0
O423 O 0.10143 0.10504 0.57014 0.0
O424 O 0.17155 0.18295 0.52716 0.0
O425 O 0.15543 0.12632 0.51826 0.0
C426 C 0.17974 0.15203 0.51838 0.0
C427 C 0.04675 0.06137 0.52404 0.0
C428 C 0.11615 0.13253 0.57922 0.0
C429 C 0.05038 0.18821 0.52689 0.0
O430 O 0.04145 0.16005 0.53781 0.0
O431 O 0.08312 0.19244 0.52052 0.0
O432 O 0.03327 0.07302 0.54202 0.0
O433 O 0.0753 0.07767 0.51633 0.0
O434 O 0.59905 0.37254 0.31535 0.0
Cd435 Cd 0.59902 0.3739 0.28205 0.0
Cd436 Cd 0.64737 0.32218 0.28892 0.0
O437 O 0.65545 0.35282 0.31694 0.0
O438 O 0.57921 0.42301 0.27459 0.0
O439 O 0.63553 0.40505 0.26612 0.0
C440 C 0.61067 0.43027 0.26617 0.0
C441 C 0.69705 0.29541 0.27135 0.0
C442 C 0.62788 0.36688 0.3263 0.0
C443 C 0.57079 0.30219 0.27447 0.0
O444 O 0.59866 0.29314 0.28563 0.0
O445 O 0.56728 0.33474 0.26762 0.0
O446 O 0.68518 0.28267 0.28947 0.0
O447 O 0.68154 0.32427 0.2634 0.0
C448 C 0.97909 0.49429 0.98551 0.0
C449 C 0.99392 0.53014 0.98662 0.0
C450 C 0.04398 0.50818 0.01 0.0
C451 C 0.02908 0.47234 0.00898 0.0
N452 N 0.98607 0.42948 0.9937 0.0
N453 N 0.03664 0.57301 0.00222 0.0
C454 C 0.99737 0.46495 0.99632 0.0
C455 C 0.02558 0.53752 0.99932 0.0
N456 N 0.94727 0.48851 0.9743 0.0
N457 N 0.07595 0.51401 0.02105 0.0
H458 H 0.02357 0.59531 0.995 0.0
H459 H 0.05701 0.58106 0.01297 0.0
H460 H 0.08896 0.49378 0.03018 0.0
H461 H 0.0909 0.53821 0.02037 0.0
H462 H 0.93247 0.46421 0.97465 0.0
H463 H 0.93432 0.50889 0.96525 0.0
H464 H 0.96538 0.42132 0.9832 0.0
H465 H 0.99915 0.40728 0.00102 0.0
C466 C 0.71951 0.77399 0.25378 0.0
C467 C 0.72696 0.7426 0.24091 0.0
C468 C 0.79253 0.74738 0.24947 0.0
C469 C 0.78506 0.77874 0.26236 0.0
N470 N 0.74302 0.82447 0.27539 0.0
N471 N 0.7691 0.69698 0.22779 0.0
C472 C 0.74896 0.79283 0.26407 0.0
C473 C 0.76309 0.72855 0.23917 0.0
N474 N 0.68393 0.78442 0.25712 0.0
N475 N 0.8281 0.73698 0.24609 0.0
H476 H 0.74872 0.68374 0.21893 0.0
H477 H 0.79369 0.68261 0.22786 0.0
H478 H 0.8504 0.75042 0.25303 0.0
H479 H 0.83617 0.71677 0.23527 0.0
H480 H 0.67587 0.80471 0.26789 0.0
H481 H 0.66165 0.77093 0.25019 0.0
H482 H 0.7184 0.83879 0.27539 0.0
H483 H 0.76351 0.83781 0.28411 0.0
C484 C 0.50977 0.4772 0.50863 0.0
C485 C 0.5254 0.48405 0.48795 0.0
C486 C 0.50317 0.5476 0.48917 0.0
C487 C 0.48544 0.53996 0.50911 0.0
N488 N 0.46717 0.49673 0.5365 0.0
N489 N 0.53443 0.52425 0.45741 0.0
C490 C 0.48767 0.5046 0.51856 0.0
C491 C 0.52119 0.5188 0.47786 0.0
N492 N 0.51585 0.44441 0.51874 0.0
N493 N 0.50432 0.5828 0.48159 0.0
H494 H 0.55028 0.50494 0.44924 0.0
H495 H 0.5282 0.54712 0.44802 0.0
H496 H 0.49146 0.60462 0.48937 0.0
H497 H 0.52026 0.59108 0.46852 0.0
H498 H 0.50924 0.43933 0.53484 0.0
H499 H 0.52958 0.42262 0.51148 0.0
H500 H 0.46424 0.47054 0.54292 0.0
H501 H 0.4504 0.51597 0.54407 0.0
C502 C 0.75752 0.27005 0.72838 0.0
C503 C 0.79114 0.27565 0.73949 0.0
C504 C 0.76808 0.24045 0.77052 0.0
C505 C 0.73358 0.23718 0.76007 0.0
N506 N 0.69323 0.25381 0.73071 0.0
N507 N 0.82757 0.26993 0.77194 0.0
C508 C 0.72772 0.25312 0.73937 0.0
C509 C 0.79606 0.26214 0.76086 0.0
N510 N 0.75406 0.28092 0.70729 0.0
N511 N 0.77464 0.2213 0.78917 0.0
H512 H 0.84961 0.28384 0.76506 0.0
H513 H 0.83105 0.26477 0.78838 0.0
H514 H 0.75506 0.20462 0.7965 0.0
H515 H 0.8003 0.21923 0.79642 0.0
H516 H 0.73215 0.2735 0.69743 0.0
H517 H 0.7742 0.29573 0.69913 0.0
H518 H 0.68625 0.26861 0.7169 0.0
H519 H 0.6706 0.24204 0.73829 0.0
C520 C 1.00589 0.46979 0.4898 0.0
C521 C 0.99262 0.47561 0.51113 0.0
C522 C 0.01603 0.53867 0.51036 0.0
C523 C 0.03167 0.53195 0.48969 0.0
N524 N 0.04686 0.48964 0.46119 0.0
N525 N 0.98864 0.51362 0.54293 0.0
C526 C 0.02791 0.49713 0.47975 0.0
C527 C 0.99895 0.50943 0.52181 0.0
N528 N 0.99751 0.43808 0.47914 0.0
N529 N 0.01565 0.57346 0.51854 0.0
H530 H 0.97393 0.49381 0.55144 0.0
H531 H 0.99655 0.53575 0.55246 0.0
H532 H 0.02738 0.59577 0.51061 0.0
H533 H 1.00107 0.58098 0.53231 0.0
H534 H 1.00247 0.43402 0.46273 0.0
H535 H 0.98334 0.41647 0.4863 0.0
H536 H 0.04854 0.4637 0.45431 0.0
H537 H 0.06382 0.50872 0.45361 0.0
C538 C 0.76387 0.78071 0.73002 0.0
C539 C 0.72913 0.78367 0.74015 0.0
C540 C 0.75238 0.75017 0.77182 0.0
C541 C 0.7863 0.74495 0.76103 0.0
N542 N 0.82359 0.75162 0.72904 0.0
N543 N 0.68811 0.76647 0.76898 0.0
C544 C 0.79172 0.75896 0.73981 0.0
C545 C 0.72281 0.76731 0.76066 0.0
N546 N 0.77077 0.80021 0.71154 0.0
N547 N 0.74843 0.73877 0.79279 0.0
H548 H 0.66568 0.77846 0.76128 0.0
H549 H 0.68082 0.7514 0.78262 0.0
H550 H 0.76842 0.72379 0.80101 0.0
H551 H 0.72623 0.74586 0.80247 0.0
H552 H 0.79659 0.80253 0.70456 0.0
H553 H 0.75126 0.8169 0.7041 0.0
H554 H 0.82746 0.7571 0.71266 0.0
H555 H 0.84562 0.73783 0.73605 0.0
C556 C 0.52061 0.4769 0.00155 0.0
C557 C 0.48628 0.48289 0.99126 0.0
C558 C 0.48924 0.54811 0.00064 0.0
C559 C 0.52228 0.54164 0.01221 0.0
N560 N 0.56652 0.49919 0.02675 0.0
N561 N 0.43529 0.52265 0.98329 0.0
C562 C 0.53732 0.50586 0.01342 0.0
C563 C 0.46971 0.51802 0.99161 0.0
N564 N 0.53731 0.44347 -6e-05 0.0
N565 N 0.47754 0.58326 0.99728 0.0
H566 H 0.42083 0.50173 0.97562 0.0
H567 H 0.41995 0.54643 0.98532 0.0
H568 H 0.49146 0.6061 0.00319 0.0
H569 H 0.45595 0.59016 0.98704 0.0
H570 H 0.56426 0.43862 0.00465 0.0
H571 H 0.52492 0.42082 0.99273 0.0
H572 H 0.57628 0.47307 0.03028 0.0
H573 H 0.57932 0.5196 0.03581 0.0
C574 C 0.74754 0.22112 0.23993 0.0
C575 C 0.78279 0.23716 0.23814 0.0
C576 C 0.76166 0.29191 0.25766 0.0
C577 C 0.72644 0.27587 0.25951 0.0
N578 N 0.68368 0.22806 0.25037 0.0
N579 N 0.82569 0.2845 0.24794 0.0
C580 C 0.71886 0.24104 0.25026 0.0
C581 C 0.79041 0.27183 0.24757 0.0
N582 N 0.74171 0.18671 0.23188 0.0
N583 N 0.76741 0.32658 0.26533 0.0
H584 H 0.84759 0.27032 0.24109 0.0
H585 H 0.83416 0.30761 0.25639 0.0
H586 H 0.74763 0.34129 0.27384 0.0
H587 H 0.79091 0.34183 0.26234 0.0
H588 H 0.71809 0.17148 0.2345 0.0
H589 H 0.76148 0.17223 0.22324 0.0
H590 H 0.6751 0.2046 0.24232 0.0
H591 H 0.66192 0.24212 0.25746 0.0
C592 C 0.2996 0.24512 0.75063 0.0
C593 C 0.29228 0.27997 0.75992 0.0
C594 C 0.2281 0.27619 0.74813 0.0
C595 C 0.23542 0.24135 0.73883 0.0
N596 N 0.27624 0.19062 0.73269 0.0
N597 N 0.25145 0.33074 0.76599 0.0
C598 C 0.27066 0.2252 0.74054 0.0
C599 C 0.25705 0.29614 0.75818 0.0
N600 N 0.33478 0.23211 0.75044 0.0
N601 N 0.1929 0.28915 0.74841 0.0
H602 H 0.2713 0.34527 0.77455 0.0
H603 H 0.22794 0.3461 0.76316 0.0
H604 H 0.17091 0.2751 0.74155 0.0
H605 H 0.18458 0.31246 0.7567 0.0
H606 H 0.34312 0.20872 0.74224 0.0
H607 H 0.35674 0.24618 0.75732 0.0
H608 H 0.29979 0.17528 0.73542 0.0
H609 H 0.25632 0.1761 0.72417 0.0
C610 C 0.26513 0.72787 0.25856 0.0
C611 C 0.22998 0.7442 0.26029 0.0
C612 C 0.25141 0.79847 0.24034 0.0
C613 C 0.28652 0.78213 0.23859 0.0
N614 N 0.32907 0.73435 0.24834 0.0
N615 N 0.18742 0.79191 0.25048 0.0
C616 C 0.29392 0.74746 0.24816 0.0
C617 C 0.22258 0.77885 0.2507 0.0
N618 N 0.27076 0.69346 0.26671 0.0
N619 N 0.24587 0.83297 0.2323 0.0
H620 H 0.16552 0.77803 0.25755 0.0
H621 H 0.17903 0.81511 0.24206 0.0
H622 H 0.26577 0.84731 0.22366 0.0
H623 H 0.22241 0.84843 0.23503 0.0
H624 H 0.29418 0.67795 0.26395 0.0
H625 H 0.25102 0.67921 0.27552 0.0
H626 H 0.33749 0.71116 0.25676 0.0
H627 H 0.35097 0.74815 0.24122 0.0
C628 C 0.28749 0.24538 0.23996 0.0
C629 C 0.28321 0.23448 0.26192 0.0
C630 C 0.22073 0.25968 0.2624 0.0
C631 C 0.22503 0.27062 0.24048 0.0
N632 N 0.26284 0.27826 0.20889 0.0
N633 N 0.24522 0.22641 0.29337 0.0
C634 C 0.25841 0.26429 0.22931 0.0
C635 C 0.24974 0.24061 0.27303 0.0
N636 N 0.31943 0.23752 0.22935 0.0
N637 N 0.18893 0.26788 0.27306 0.0
H638 H 0.26565 0.21179 0.30144 0.0
H639 H 0.22069 0.22671 0.30189 0.0
H640 H 0.16636 0.27985 0.26549 0.0
H641 H 0.18508 0.26452 0.28961 0.0
H642 H 0.32331 0.24081 0.2128 0.0
H643 H 0.34221 0.22602 0.23694 0.0
H644 H 0.28728 0.27784 0.2003 0.0
H645 H 0.24236 0.29267 0.20075 0.0
C646 C 0.26849 0.78738 0.76245 0.0
C647 C 0.23254 0.77275 0.76167 0.0
C648 C 0.25514 0.71909 0.74174 0.0
C649 C 0.29046 0.73515 0.74098 0.0
N650 N 0.33074 0.78584 0.74876 0.0
N651 N 0.1901 0.72802 0.74767 0.0
C652 C 0.29708 0.76976 0.75074 0.0
C653 C 0.22546 0.73937 0.75064 0.0
N654 N 0.27565 0.81712 0.77521 0.0
N655 N 0.24993 0.68446 0.73393 0.0
H656 H 0.16754 0.74246 0.75351 0.0
H657 H 0.18275 0.70616 0.73779 0.0
H658 H 0.27051 0.66945 0.72632 0.0
H659 H 0.22599 0.66954 0.7363 0.0
H660 H 0.30191 0.82673 0.77845 0.0
H661 H 0.25547 0.83065 0.78406 0.0
H662 H 0.33606 0.81288 0.75305 0.0
H663 H 0.35314 0.77279 0.7417 0.0
C664 C 0.49323 0.97475 0.50051 0.0
C665 C 0.52801 0.9806 0.51027 0.0
C666 C 0.5246 0.04594 0.50116 0.0
C667 C 0.49106 0.03962 0.49011 0.0
N668 N 0.44604 0.99746 0.47624 0.0
N669 N 0.57924 0.02028 0.51768 0.0
C670 C 0.47593 1.00389 0.48906 0.0
C671 C 0.54452 0.01574 0.50982 0.0
N672 N 0.47669 0.94127 0.50223 0.0
N673 N 0.53648 0.08105 0.50435 0.0
H674 H 0.594 0.9993 0.52514 0.0
H675 H 0.59448 0.04408 0.51552 0.0
H676 H 0.52231 0.10394 0.49865 0.0
H677 H 0.55853 0.08787 0.51424 0.0
H678 H 0.44953 0.93647 0.49796 0.0
H679 H 0.48948 0.91848 0.50908 0.0
H680 H 0.43609 0.97142 0.47278 0.0
H681 H 0.43271 0.01804 0.46755 0.0
C682 C 0.9864 0.96951 0.99781 0.0
C683 C 0.01994 0.97674 0.98697 0.0
C684 C 0.01684 0.04109 0.99821 0.0
C685 C 0.9821 0.03434 0.00777 0.0
N686 N 0.93124 0.99384 0.01433 0.0
N687 N 0.06441 0.02006 0.97378 0.0
C688 C 0.96601 0.99908 0.00675 0.0
C689 C 0.03457 0.01269 0.98642 0.0
N690 N 0.97499 0.93412 0.00054 0.0
N691 N 0.03296 0.07468 0.00047 0.0
H692 H 0.07801 1.00004 0.96484 0.0
H693 H 0.07402 0.04638 0.97071 0.0
H694 H 0.01989 0.09699 0.00762 0.0
H695 H 0.06007 0.08001 0.99634 0.0
H696 H 0.95295 0.92666 0.01025 0.0
H697 H 0.98951 0.91164 0.99465 0.0
H698 H 0.91634 0.96992 0.01181 0.0
H699 H 0.9161 0.01444 0.02184 0.0
C700 C 0.5249 1.00635 0.97828 0.0
C701 C 0.52805 0.04122 0.98828 0.0
C702 C 0.49008 0.02026 0.01874 0.0
C703 C 0.48711 0.98532 0.0088 0.0
N704 N 0.50528 0.94293 0.9809 0.0
N705 N 0.50993 0.08366 0.01614 0.0
C706 C 0.50513 0.97789 0.9889 0.0
C707 C 0.50993 0.04871 0.00813 0.0
N708 N 0.54058 1.00064 0.95845 0.0
N709 N 0.47427 0.02595 0.03853 0.0
H710 H 0.52402 0.10521 0.00886 0.0
H711 H 0.49422 0.09227 0.0292 0.0
H712 H 0.45729 1.00679 0.046 0.0
H713 H 0.47899 0.04887 0.04811 0.0
H714 H 0.53555 0.97785 0.94882 0.0
H715 H 0.55768 0.01968 0.95097 0.0
H716 H 0.52114 0.93435 0.96789 0.0
H717 H 0.4912 0.92132 0.98813 0.0
C718 C 0.01265 0.03725 0.49172 0.0
C719 C 0.02876 0.03083 0.51232 0.0
C720 C 1.0042 0.96822 0.51249 0.0
C721 C 0.99048 0.97376 0.49121 0.0
N722 N 0.98491 0.01172 0.45939 0.0
N723 N 0.04503 0.98905 0.54097 0.0
C724 C 0.99586 1.0077 0.48044 0.0
C725 C 0.02578 0.99602 0.5224 0.0
N726 N 0.0116 0.07201 0.48345 0.0
N727 N 0.99666 0.93632 0.52322 0.0
H728 H 0.06159 0.00854 0.54848 0.0
H729 H 0.04728 0.9632 0.54796 0.0
H730 H 0.9828 0.91444 0.51613 0.0
H731 H 1.002 0.93231 0.53961 0.0
H732 H 0.99664 0.07929 0.46975 0.0
H733 H 0.0232 0.09451 0.49125 0.0
H734 H 0.99219 0.03398 0.44977 0.0
H735 H 0.97025 0.99172 0.45103 0.0
C736 C 1.00119 0.23729 0.00487 0.0
C737 C 0.9907 0.22119 0.02486 0.0
C738 C 0.03417 0.26039 0.04414 0.0
C739 C 0.0413 0.27946 0.02463 0.0
N740 N 0.03014 0.28869 0.98662 0.0
N741 N 0.99172 0.22253 0.06403 0.0
C742 C 0.0245 0.26859 0.00498 0.0
C743 C 1.00588 0.23392 0.04465 0.0
N744 N 0.98972 0.22203 0.98585 0.0
N745 N 0.05466 0.26746 0.06222 0.0
H746 H 0.96989 0.20428 0.06533 0.0
H747 H 0.99904 0.23406 0.07882 0.0
H748 H 0.0757 0.28676 0.06249 0.0
H749 H 0.05321 0.25176 0.07628 0.0
H750 H 0.99919 0.23027 0.97072 0.0
H751 H 0.97286 0.19899 0.98526 0.0
H752 H 0.01559 0.28473 0.97231 0.0
H753 H 0.04805 0.31094 0.98611 0.0
C754 C 0.03458 0.76383 0.25969 0.0
C755 C 0.04091 0.74071 0.27777 0.0
C756 C 0.98838 0.76726 0.29656 0.0
C757 C 0.97964 0.78776 0.27767 0.0
N758 N 0.9917 0.80304 0.2404 0.0
N759 N 0.02144 0.71627 0.31221 0.0
C760 C 1.00212 0.78555 0.25899 0.0
C761 C 0.01705 0.74117 0.29582 0.0
N762 N 0.05983 0.76533 0.2434 0.0
N763 N 0.97053 0.77402 0.31562 0.0
H764 H 0.04299 0.69753 0.31283 0.0
H765 H 1.00215 0.71225 0.32438 0.0
H766 H 0.94965 0.79328 0.31717 0.0
H767 H 0.97873 0.76314 0.33044 0.0
H768 H 0.05886 0.78432 0.23084 0.0
H769 H 0.08335 0.74907 0.24327 0.0
H770 H 1.00482 0.79959 0.2256 0.0
H771 H 0.96809 0.81904 0.23939 0.0
C772 C 0.48951 0.74634 0.54702 0.0
C773 C 0.47993 0.72972 0.52706 0.0
C774 C 0.51567 0.77588 0.5074 0.0
C775 C 0.52778 0.79032 0.52748 0.0
N776 N 0.53223 0.78485 0.56638 0.0
N777 N 0.48658 0.72541 0.48837 0.0
C778 C 0.51632 0.77437 0.5473 0.0
C779 C 0.49368 0.74364 0.50722 0.0
N780 N 0.47201 0.73625 0.56567 0.0
N781 N 0.52433 0.79361 0.48859 0.0
H782 H 0.47026 0.70199 0.48774 0.0
H783 H 0.49886 0.73183 0.47365 0.0
H784 H 0.54053 0.81713 0.48821 0.0
H785 H 0.51334 0.78675 0.47358 0.0
H786 H 0.47486 0.75032 0.58023 0.0
H787 H 0.45196 0.71594 0.56624 0.0
H788 H 0.52797 0.77121 0.58098 0.0
H789 H 0.55241 0.80497 0.5674 0.0
C790 C 0.52871 0.25048 0.75681 0.0
C791 C 0.54271 0.23679 0.77667 0.0
C792 C 0.49821 0.27341 0.79685 0.0
C793 C 0.48203 0.28462 0.77703 0.0
N794 N 0.47859 0.281 0.73815 0.0
N795 N 0.53639 0.2292 0.81534 0.0
C796 C 0.49643 0.27245 0.75696 0.0
C797 C 0.52626 0.2466 0.79663 0.0
N798 N 0.54687 0.2433 0.73796 0.0
N799 N 0.48781 0.28948 0.81588 0.0
H800 H 0.55663 0.20907 0.81598 0.0
H801 H 0.52239 0.23222 0.82991 0.0
H802 H 0.46763 0.30964 0.81683 0.0
H803 H 0.50157 0.28541 0.83046 0.0
H804 H 0.54036 0.2555 0.72321 0.0
H805 H 0.57038 0.22707 0.73735 0.0
H806 H 0.4854 0.26993 0.72317 0.0
H807 H 0.45508 0.29724 0.73775 0.0
C808 C 0.99201 0.76698 0.49477 0.0
C809 C 0.97547 0.77947 0.47535 0.0
C810 C 0.00988 0.73429 0.45441 0.0
C811 C 0.02473 0.72 0.47393 0.0
N812 N 0.02584 0.71853 0.51294 0.0
N813 N 0.96239 0.77059 0.43743 0.0
C814 C 0.01464 0.73516 0.49423 0.0
C815 C 0.98236 0.76159 0.45542 0.0
N816 N 0.98677 0.78604 0.51353 0.0
N817 N 0.02369 0.72354 0.43483 0.0
H818 H 0.94222 0.79084 0.4374 0.0
H819 H 0.96341 0.75575 0.42305 0.0
H820 H 0.04484 0.70456 0.43319 0.0
H821 H 0.01679 0.73612 0.42024 0.0
H822 H 1.0012 0.78086 0.52775 0.0
H823 H 0.96939 0.80868 0.51448 0.0
H824 H 0.01661 0.72608 0.52823 0.0
H825 H 0.04219 0.69509 0.51306 0.0
C826 C 0.52211 0.77534 0.70304 0.0
C827 C 0.53905 0.78445 0.723 0.0
C828 C 0.49408 0.7471 0.74255 0.0
C829 C 0.47936 0.7355 0.72242 0.0
N830 N 0.48393 0.73264 0.68344 0.0
N831 N 0.54449 0.77638 0.76155 0.0
C832 C 0.4946 0.74801 0.70263 0.0
C833 C 0.52591 0.76967 0.74275 0.0
N834 N 0.53138 0.79374 0.68454 0.0
N835 N 0.47697 0.73742 0.76137 0.0
H836 H 0.56762 0.79312 0.76222 0.0
H837 H 0.5387 0.76339 0.77616 0.0
H838 H 0.45376 0.72079 0.76172 0.0
H839 H 0.48402 0.74798 0.77645 0.0
H840 H 0.51699 0.79119 0.67005 0.0
H841 H 0.55128 0.81421 0.68406 0.0
H842 H 0.4971 0.73772 0.6688 0.0
H843 H 0.46419 0.71209 0.68233 0.0
C844 C 0.52268 0.24535 0.99244 0.0
C845 C 0.53596 0.23173 0.97243 0.0
C846 C 0.49961 0.27717 0.9527 0.0
C847 C 0.48862 0.2928 0.97268 0.0
N848 N 0.49278 0.2952 0.01157 0.0
N849 N 0.54332 0.2391 0.93382 0.0
C850 C 0.50097 0.27781 0.9926 0.0
C851 C 0.5262 0.2489 0.95264 0.0
N852 N 0.52995 0.22663 0.01113 0.0
N853 N 0.48342 0.28815 0.93378 0.0
H854 H 0.56321 0.21864 0.933 0.0
H855 H 0.54035 0.25355 0.91938 0.0
H856 H 0.46335 0.30845 0.93299 0.0
H857 H 0.48731 0.27477 0.91908 0.0
H858 H 0.51799 0.23285 0.02596 0.0
H859 H 0.54606 0.20302 0.01152 0.0
H860 H 0.50396 0.28789 0.02647 0.0
H861 H 0.4768 0.31887 0.01218 0.0
C862 C 1.00635 0.29095 0.20584 0.0
C863 C 0.02956 0.29157 0.22425 0.0
C864 C 0.99066 0.2458 0.242 0.0
C865 C 0.97076 0.24148 0.22239 0.0
N866 N 0.96522 0.25464 0.1841 0.0
N867 N 0.04596 0.26816 0.25941 0.0
C868 C 0.9798 0.26288 0.20393 0.0
C869 C 0.02231 0.26858 0.24225 0.0
N870 N 0.00994 0.31682 0.18997 0.0
N871 N 0.97866 0.22907 0.26047 0.0
H872 H 0.06828 0.2859 0.26055 0.0
H873 H 0.04463 0.24898 0.27187 0.0
H874 H 0.95517 0.21284 0.26092 0.0
H875 H 0.98996 0.23388 0.27568 0.0
H876 H 0.99118 0.31986 0.17737 0.0
H877 H 0.02954 0.33752 0.19042 0.0
H878 H 0.97404 0.26678 0.16976 0.0
H879 H 0.94734 0.23287 0.18145 0.0
C880 C 0.99363 0.74395 0.99379 0.0
C881 C 0.99018 0.72321 0.97448 0.0
C882 C 0.03722 0.76088 0.95707 0.0
C883 C 0.03815 0.78376 0.97557 0.0
N884 N 0.01496 0.80016 0.01069 0.0
N885 N 1.00248 0.71725 0.93615 0.0
C886 C 0.01566 0.77621 0.99373 0.0
C887 C 0.01042 0.73299 0.9557 0.0
N888 N 0.97687 0.73217 0.0123 0.0
N889 N 0.06195 0.76581 0.9407 0.0
H890 H 0.98217 0.69755 0.93404 0.0
H891 H 0.01332 0.72642 0.92153 0.0
H892 H 0.08146 0.78665 0.94064 0.0
H893 H 0.06525 0.74731 0.92803 0.0
H894 H 0.98119 0.74399 0.02741 0.0
H895 H 0.9607 0.70865 0.01285 0.0
H896 H 0.99628 0.79847 0.02337 0.0
H897 H 0.03185 0.82318 0.01142 0.0
C898 C 1.00141 0.27766 0.70459 0.0
C899 C 0.98606 0.28893 0.72458 0.0
C900 C 0.03342 0.25469 0.74428 0.0
C901 C 0.04633 0.24059 0.72429 0.0
N902 N 0.03838 0.23307 0.6857 0.0
N903 N 0.98474 0.28647 0.76349 0.0
C904 C 0.02924 0.25063 0.7045 0.0
C905 C 1.00138 0.27708 0.74449 0.0
N906 N 0.98999 0.29352 0.68567 0.0
N907 N 0.05234 0.24742 0.7629 0.0
H908 H 0.96184 0.30355 0.76409 0.0
H909 H 0.99211 0.27568 0.77847 0.0
H910 H 0.07567 0.2309 0.76322 0.0
H911 H 0.04661 0.25972 0.7777 0.0
H912 H 1.00289 0.28929 0.67086 0.0
H913 H 0.96979 0.31371 0.68502 0.0
H914 H 0.02387 0.23625 0.6713 0.0
H915 H 0.05827 0.21262 0.68485 0.0
C916 C 0.51672 0.27704 0.49372 0.0
C917 C 0.52391 0.29406 0.47348 0.0
C918 C 0.47903 0.25409 0.45587 0.0
C919 C 0.47476 0.23455 0.47555 0.0
N920 N 0.49143 0.22453 0.51278 0.0
N921 N 0.51753 0.29393 0.43451 0.0
C922 C 0.49411 0.24523 0.49441 0.0
C923 C 0.50639 0.28148 0.45434 0.0
N924 N 0.53063 0.29191 0.51228 0.0
N925 N 0.45689 0.24645 0.43856 0.0
H926 H 0.53847 0.313 0.43242 0.0
H927 H 0.50866 0.28266 0.41994 0.0
H928 H 0.43706 0.22591 0.43877 0.0
H929 H 0.45595 0.26254 0.42464 0.0
H930 H 0.52358 0.28299 0.52773 0.0
H931 H 0.54709 0.31526 0.51229 0.0
H932 H 0.50788 0.22836 0.52636 0.0
H933 H 0.47405 0.20193 0.51394 0.0
C934 C 0.49118 0.76844 0.24395 0.0
C935 C 0.47392 0.77555 0.22375 0.0
C936 C 0.51241 0.72914 0.20644 0.0
C937 C 0.53271 0.72552 0.22589 0.0
N938 N 0.54401 0.74326 0.26279 0.0
N939 N 0.47335 0.76806 0.18482 0.0
C940 C 0.52279 0.74555 0.2446 0.0
C941 C 0.48568 0.75712 0.20474 0.0
N942 N 0.47673 0.78269 0.26251 0.0
N943 N 0.51882 0.70595 0.18949 0.0
H944 H 0.45512 0.78969 0.18252 0.0
H945 H 0.48416 0.7583 0.17034 0.0
H946 H 0.53868 0.68542 0.18991 0.0
H947 H 0.5022 0.70483 0.17579 0.0
H948 H 0.48594 0.77576 0.27794 0.0
H949 H 0.45335 0.79912 0.26259 0.0
H950 H 0.54073 0.76025 0.27617 0.0
H951 H 0.56641 0.7256 0.26396 0.0
C952 C 0.99622 0.27074 0.5454 0.0
C953 C 0.97808 0.28109 0.52598 0.0
C954 C 1.00445 0.22783 0.5074 0.0
C955 C 0.0252 0.21984 0.52626 0.0
N956 N 0.04552 0.23663 0.5621 0.0
N957 N 0.96696 0.27207 0.48793 0.0
C958 C 0.02236 0.2421 0.54495 0.0
C959 C 0.98255 0.26021 0.5068 0.0
N960 N 0.98744 0.28737 0.56455 0.0
N961 N 1.00524 0.20411 0.49032 0.0
H962 H 0.95059 0.29545 0.48707 0.0
H963 H 0.97213 0.26031 0.4729 0.0
H964 H 0.02154 0.18062 0.49023 0.0
H965 H 0.98807 0.20624 0.47692 0.0
H966 H 0.9964 0.27798 0.57957 0.0
H967 H 0.96845 0.30857 0.56576 0.0
H968 H 0.04783 0.25481 0.57501 0.0
H969 H 0.06478 0.21555 0.5627 0.0
C970 C 0.48765 0.25058 0.29422 0.0
C971 C 0.47809 0.22989 0.27559 0.0
C972 C 0.53145 0.25463 0.25635 0.0
C973 C 0.53868 0.2777 0.2743 0.0
N974 N 0.52033 0.30254 0.30882 0.0
N975 N 0.4879 0.21491 0.23806 0.0
C976 C 0.51576 0.27713 0.29277 0.0
C977 C 0.49927 0.2325 0.25639 0.0
N978 N 0.47114 0.24363 0.31367 0.0
N979 N 0.55569 0.25345 0.23953 0.0
H980 H 0.46449 0.19857 0.23761 0.0
H981 H 0.49999 0.21859 0.22297 0.0
H982 H 0.57898 0.26997 0.2389 0.0
H983 H 0.55414 0.23451 0.22699 0.0
H984 H 0.4801 0.25474 0.32827 0.0
H985 H 0.45073 0.22403 0.31574 0.0
H986 H 0.50167 0.30624 0.32137 0.0
H987 H 0.54106 0.32217 0.30868 0.0
C988 C 0.51352 0.78706 0.04288 0.0
C989 C 0.49226 0.79546 0.02423 0.0
C990 C 0.51936 0.74292 0.00529 0.0
C991 C 0.54235 0.73646 0.02341 0.0
N992 N 0.56758 0.75759 0.05731 0.0
N993 N 0.47997 0.78586 0.98628 0.0
C994 C 0.54165 0.76046 0.04141 0.0
C995 C 0.49662 0.77466 0.00497 0.0
N996 N 0.5051 0.80226 0.06249 0.0
N997 N 0.51886 0.71841 0.9886 0.0
H998 H 0.46381 0.80938 0.9854 0.0
H999 H 0.4848 0.77383 0.97128 0.0
H1000 H 0.53643 0.69589 0.98795 0.0
H1001 H 0.49973 0.71926 0.97609 0.0
H1002 H 0.51724 0.79397 0.07696 0.0
H1003 H 0.48317 0.82006 0.06488 0.0
H1004 H 0.57051 0.77682 0.06964 0.0
H1005 H 0.58842 0.73809 0.05708 0.0
C1006 C 0.99717 0.74659 0.75405 0.0
C1007 C 0.97966 0.73898 0.77405 0.0
C1008 C 0.01946 0.78291 0.7925 0.0
C1009 C 0.03917 0.78812 0.773 0.0
N1010 N 0.04999 0.77273 0.73569 0.0
N1011 N 0.97968 0.7432 0.81307 0.0
C1012 C 0.02894 0.76934 0.75385 0.0
C1013 C 0.99226 0.75539 0.79349 0.0
N1014 N 0.98284 0.73292 0.73529 0.0
N1015 N 0.02655 0.80452 0.8101 0.0
H1016 H 0.96095 0.72182 0.81459 0.0
H1017 H 0.99066 0.75144 0.82784 0.0
H1018 H 0.0466 0.82485 0.81017 0.0
H1019 H 0.01035 0.80461 0.82396 0.0
H1020 H 0.99206 0.74031 0.71996 0.0
H1021 H 0.95988 0.71593 0.73501 0.0
H1022 H 0.0464 0.75686 0.72187 0.0
H1023 H 0.07261 0.79014 0.73495 0.0
C1024 C 0.29292 0.36748 0.01355 0.0
C1025 C 0.2981 0.36824 0.99083 0.0
C1026 C 0.23164 0.36719 0.985 0.0
C1027 C 0.22643 0.3669 0.00773 0.0
N1028 N 0.251 0.37583 0.04358 0.0
N1029 N 0.27333 0.37817 0.95516 0.0
C1030 C 0.2568 0.36989 0.022 0.0
C1031 C 0.26767 0.37104 0.97662 0.0
N1032 N 0.32231 0.36277 0.02701 0.0
N1033 N 0.20249 0.36194 0.97145 0.0
H1034 H 0.29943 0.38197 0.94871 0.0
H1035 H 0.25232 0.38392 0.94427 0.0
H1036 H 0.17564 0.3593 0.97697 0.0
H1037 H 0.20514 0.35755 0.95488 0.0
H1038 H 0.31991 0.35756 0.04352 0.0
H1039 H 0.34923 0.3616 0.02143 0.0
H1040 H 0.27189 0.38181 0.05451 0.0
H1041 H 0.22487 0.37824 0.05025 0.0
C1042 C 0.89893 0.01669 0.22533 0.0
C1043 C 0.90157 0.04752 0.23921 0.0
C1044 C 0.89823 1.00713 0.27082 0.0
C1045 C 0.90098 0.97625 0.25694 0.0
N1046 N 0.90743 0.95126 0.22104 0.0
N1047 N 0.90684 0.07256 0.27516 0.0
C1048 C 0.90192 0.98086 0.23417 0.0
C1049 C 0.90173 0.04294 0.26199 0.0
N1050 N 0.89256 0.02175 0.20373 0.0
N1051 N 0.89128 1.00219 0.29237 0.0
H1052 H 0.90898 0.09927 0.2693 0.0
H1053 H 0.91159 0.07046 0.29173 0.0
H1054 H 0.88796 0.97637 0.29935 0.0
H1055 H 0.88534 0.02358 0.30293 0.0
H1056 H 0.88685 1.00047 0.19305 0.0
H1057 H 0.88932 0.04767 0.19692 0.0
H1058 H 0.91264 0.95342 0.20452 0.0
H1059 H 0.9096 0.92456 0.2269 0.0
C1060 C 0.24886 0.64702 0.47803 0.0
C1061 C 0.21843 0.65056 0.49213 0.0
C1062 C 0.25969 0.64968 0.52341 0.0
C1063 C 0.29015 0.65173 0.50919 0.0
N1064 N 0.31418 0.65514 0.47291 0.0
N1065 N 0.1942 0.65746 0.52815 0.0
C1066 C 0.28493 0.65076 0.48645 0.0
C1067 C 0.2236 0.65215 0.51484 0.0
N1068 N 0.24316 0.63926 0.45666 0.0
N1069 N 0.26537 0.64436 0.54505 0.0
H1070 H 0.1673 0.65848 0.52247 0.0
H1071 H 0.19656 0.66322 0.54459 0.0
H1072 H 0.29149 0.64155 0.55169 0.0
H1073 H 0.24443 0.63918 0.55605 0.0
H1074 H 0.26413 0.63298 0.44588 0.0
H1075 H 0.21704 0.63551 0.45019 0.0
H1076 H 0.31163 0.659 0.45627 0.0
H1077 H 0.34106 0.65758 0.47846 0.0
C1078 C 0.62084 0.0157 0.77245 0.0
C1079 C 0.61751 0.04615 0.75829 0.0
C1080 C 0.61879 1.00495 0.72707 0.0
C1081 C 0.61644 0.97451 0.74131 0.0
N1082 N 0.61294 0.95032 0.77757 0.0
N1083 N 0.61105 0.07041 0.72219 0.0
C1084 C 0.61726 0.97965 0.76404 0.0
C1085 C 0.61627 0.04102 0.73557 0.0
N1086 N 0.62823 0.02138 0.79388 0.0
N1087 N 0.62435 0.99925 0.70546 0.0
H1088 H 0.60981 0.0973 0.72781 0.0
H1089 H 0.60551 0.06803 0.70572 0.0
H1090 H 0.62719 0.97312 0.69889 0.0
H1091 H 0.62971 0.02017 0.69446 0.0
H1092 H 0.63437 1.00042 0.80473 0.0
H1093 H 0.63173 0.04749 0.80037 0.0
H1094 H 0.60895 0.95275 0.79419 0.0
H1095 H 0.61083 0.92345 0.772 0.0
C1096 C 0.7329 0.64775 0.98684 0.0
C1097 C 0.72698 0.6474 0.00951 0.0
C1098 C 0.79335 0.64688 0.01601 0.0
C1099 C 0.79923 0.64642 0.99334 0.0
N1100 N 0.77537 0.63749 0.95732 0.0
N1101 N 0.75057 0.63805 0.04557 0.0
C1102 C 0.76918 0.64407 0.9788 0.0
C1103 C 0.75696 0.64431 0.02407 0.0
N1104 N 0.70417 0.65348 0.97303 0.0
N1105 N 0.82232 0.65151 0.02977 0.0
H1106 H 0.72426 0.63553 0.05197 0.0
H1107 H 0.77116 0.63194 0.05668 0.0
H1108 H 0.84937 0.65302 0.02445 0.0
H1109 H 0.81942 0.65644 0.04627 0.0
H1110 H 0.70734 0.65842 0.95654 0.0
H1111 H 0.67716 0.65606 0.97827 0.0
H1112 H 0.7546 0.6318 0.94626 0.0
H1113 H 0.80158 0.63423 0.9509 0.0
C1114 C 0.12225 1.00645 0.77273 0.0
C1115 C 0.12158 0.97647 0.7581 0.0
C1116 C 0.12658 0.01903 0.72755 0.0
C1117 C 0.12165 0.04883 0.74196 0.0
N1118 N 0.11268 0.07158 0.77814 0.0
N1119 N 0.12012 0.95377 0.72146 0.0
C1120 C 0.11925 0.04278 0.76456 0.0
C1121 C 0.12338 0.98257 0.73545 0.0
N1122 N 0.12673 1.00015 0.7944 0.0
N1123 N 0.13505 0.02571 0.70637 0.0
H1124 H 0.11785 0.92666 0.7266 0.0
H1125 H 0.11692 0.95689 0.70481 0.0
H1126 H 0.13833 0.05215 0.70028 0.0
H1127 H 0.14237 1.00532 0.69543 0.0
H1128 H 0.13102 0.02086 0.80569 0.0
H1129 H 0.12965 0.97391 0.80089 0.0
H1130 H 0.10624 0.06849 0.79445 0.0
H1131 H 0.11136 0.09864 0.77278 0.0
C1132 C 0.75999 0.36735 0.5196 0.0
C1133 C 0.79036 0.36208 0.5056 0.0
C1134 C 0.74913 0.36188 0.47431 0.0
C1135 C 0.71855 0.3622 0.4885 0.0
N1136 N 0.69445 0.36147 0.52482 0.0
N1137 N 0.81415 0.35068 0.46987 0.0
C1138 C 0.72382 0.36425 0.51121 0.0
C1139 C 0.78508 0.35864 0.48298 0.0
N1140 N 0.7658 0.37623 0.54082 0.0
N1141 N 0.74379 0.36581 0.45254 0.0
H1142 H 0.84095 0.34849 0.47559 0.0
H1143 H 0.81142 0.34353 0.45364 0.0
H1144 H 0.71786 0.36903 0.44576 0.0
H1145 H 0.76498 0.36946 0.44149 0.0
H1146 H 0.74496 0.38411 0.55132 0.0
H1147 H 0.79193 0.37906 0.54748 0.0
H1148 H 0.6969 0.35844 0.54152 0.0
H1149 H 0.66753 0.35933 0.51932 0.0
C1150 C 0.40145 0.03553 0.23435 0.0
C1151 C 0.40091 0.04043 0.25711 0.0
C1152 C 0.40266 0.97385 0.26257 0.0
C1153 C 0.40246 0.96898 0.23983 0.0
N1154 N 0.39264 0.99397 0.2042 0.0
N1155 N 0.39209 0.01491 0.29275 0.0
C1156 C 0.39904 0.99952 0.22575 0.0
C1157 C 0.39878 0.00973 0.27119 0.0
N1158 N 0.40606 0.06506 0.221 0.0
N1159 N 0.40812 0.94443 0.2759 0.0
H1160 H 0.38852 0.0408 0.29956 0.0
H1161 H 0.38664 0.99363 0.3035 0.0
H1162 H 0.41032 0.91765 0.27019 0.0
H1163 H 0.41298 0.94675 0.29245 0.0
H1164 H 0.41096 0.06281 0.20446 0.0
H1165 H 0.40772 0.09188 0.22669 0.0
H1166 H 0.38646 0.01495 0.19337 0.0
H1167 H 0.38993 0.96787 0.19756 0.0
C1168 C 0.7596 0.8686 0.47877 0.0
C1169 C 0.78991 0.86605 0.49313 0.0
C1170 C 0.74839 0.8703 0.52409 0.0
C1171 C 0.7181 0.86689 0.50984 0.0
N1172 N 0.69421 0.86067 0.47365 0.0
N1173 N 0.81357 0.86166 0.52951 0.0
C1174 C 0.72345 0.86588 0.48714 0.0
C1175 C 0.78451 0.86659 0.51584 0.0
N1176 N 0.76545 0.87449 0.45718 0.0
N1177 N 0.7425 0.87787 0.54546 0.0
H1178 H 0.84047 0.85897 0.52411 0.0
H1179 H 0.81077 0.8575 0.54611 0.0
H1180 H 0.71631 0.8817 0.55178 0.0
H1181 H 0.76338 0.88402 0.55636 0.0
H1182 H 0.74454 0.88014 0.44619 0.0
H1183 H 0.79158 0.87725 0.45056 0.0
H1184 H 0.6968 0.85525 0.45718 0.0
H1185 H 0.66727 0.85932 0.47917 0.0
C1186 C 0.40481 0.54051 0.76357 0.0
C1187 C 0.40402 0.54508 0.74079 0.0
C1188 C 0.40385 0.47845 0.73573 0.0
C1189 C 0.40408 0.47388 0.75852 0.0
N1190 N 0.39558 0.49962 0.79403 0.0
N1191 N 0.39372 0.51948 0.7054 0.0
C1192 C 0.40171 0.5047 0.77242 0.0
C1193 C 0.40071 0.51431 0.72692 0.0
N1194 N 0.4102 0.57015 0.77669 0.0
N1195 N 0.40836 0.44877 0.72253 0.0
H1196 H 0.3905 0.54544 0.69861 0.0
H1197 H 0.38757 0.49828 0.69475 0.0
H1198 H 0.41024 0.42203 0.72837 0.0
H1199 H 0.41279 0.4508 0.70593 0.0
H1200 H 0.4154 0.56807 0.79322 0.0
H1201 H 0.412 0.59687 0.77082 0.0
H1202 H 0.39016 0.5209 0.80476 0.0
H1203 H 0.39229 0.4737 0.80085 0.0
C1204 C 0.79122 0.15103 0.98383 0.0
C1205 C 0.7966 0.15163 0.00655 0.0
C1206 C 0.73017 0.15274 0.01244 0.0
C1207 C 0.72477 0.1518 0.98973 0.0
N1208 N 0.74901 0.14074 0.9541 0.0
N1209 N 0.77215 0.14348 0.04241 0.0
C1210 C 0.75502 0.14804 0.9755 0.0
C1211 C 0.76629 0.14951 0.02084 0.0
N1212 N 0.82049 0.15489 0.97025 0.0
N1213 N 0.70104 0.15836 0.02591 0.0
H1214 H 0.79831 0.13994 0.04887 0.0
H1215 H 0.75125 0.13832 0.05344 0.0
H1216 H 0.67411 0.16018 0.02036 0.0
H1217 H 0.70374 0.16368 0.04239 0.0
H1218 H 0.81797 0.159 0.95364 0.0
H1219 H 0.84745 0.15642 0.97579 0.0
H1220 H 0.76977 0.13438 0.9432 0.0
H1221 H 0.72277 0.13745 0.94772 0.0
C1222 C 0.14119 0.52849 0.25856 0.0
C1223 C 0.10787 0.54866 0.25926 0.0
C1224 C 0.07506 0.49401 0.24717 0.0
C1225 C 0.10875 0.47598 0.24293 0.0
N1226 N 0.17473 0.48119 0.23983 0.0
N1227 N 0.04453 0.55247 0.24776 0.0
C1228 C 0.14218 0.49458 0.24727 0.0
C1229 C 0.07518 0.532 0.25166 0.0
N1230 N 0.1715 0.54043 0.26944 0.0
N1231 N 0.04297 0.47484 0.24783 0.0
H1232 H 0.04413 0.58093 0.249 0.0
H1233 H 0.02108 0.54156 0.2406 0.0
H1234 H 0.04183 0.44641 0.24648 0.0
H1235 H 0.01826 0.48672 0.25254 0.0
H1236 H 0.19526 0.52474 0.27081 0.0
H1237 H 0.17158 0.56364 0.27922 0.0
H1238 H 0.19917 0.4958 0.24106 0.0
H1239 H 0.17681 0.45784 0.23025 0.0
C1240 C 0.22245 0.14736 0.4867 0.0
C1241 C 0.21683 0.14628 0.50937 0.0
C1242 C 0.28318 0.14712 0.51565 0.0
C1243 C 0.28886 0.14774 0.49295 0.0
N1244 N 0.26489 0.13934 0.4569 0.0
N1245 N 0.24086 0.13584 0.54515 0.0
C1246 C 0.25873 0.14504 0.47847 0.0
C1247 C 0.24697 0.14321 0.52377 0.0
N1248 N 0.19327 0.15211 0.47309 0.0
N1249 N 0.31207 0.15216 0.52942 0.0
H1250 H 0.21462 0.13202 0.5514 0.0
H1251 H 0.26163 0.12991 0.55617 0.0
H1252 H 0.33901 0.15496 0.52411 0.0
H1253 H 0.3091 0.15626 0.546 0.0
H1254 H 0.19592 0.15758 0.45662 0.0
H1255 H 0.16624 0.15293 0.47853 0.0
H1256 H 0.24418 0.13359 0.44582 0.0
H1257 H 0.29112 0.13687 0.45038 0.0
C1258 C 0.62139 0.49694 0.27236 0.0
C1259 C 0.61804 0.46738 0.25762 0.0
C1260 C 0.62187 0.51016 0.22717 0.0
C1261 C 0.61934 0.53988 0.2419 0.0
N1262 N 0.61418 0.5621 0.27852 0.0
N1263 N 0.6133 0.4451 0.22104 0.0
C1264 C 0.6189 0.5335 0.26454 0.0
C1265 C 0.61821 0.47371 0.235 0.0
N1266 N 0.62763 0.48992 0.29378 0.0
N1267 N 0.62862 0.51685 0.20576 0.0
H1268 H 0.61149 0.41795 0.2262 0.0
H1269 H 0.60871 0.44841 0.20452 0.0
H1270 H 0.63204 0.54323 0.19956 0.0
H1271 H 0.63426 0.49637 0.19454 0.0
H1272 H 0.63369 0.51014 0.30509 0.0
H1273 H 0.63033 0.46338 0.29984 0.0
H1274 H 0.6093 0.55875 0.295 0.0
H1275 H 0.61249 0.58928 0.27343 0.0
C1276 C 0.23128 0.8667 0.01381 0.0
C1277 C 0.2255 0.86628 0.99111 0.0
C1278 C 0.29192 0.86436 0.98494 0.0
C1279 C 0.29766 0.86566 0.00761 0.0
N1280 N 0.27388 0.87718 0.04329 0.0
N1281 N 0.24968 0.87332 0.95504 0.0
C1282 C 0.2676 0.86965 0.02195 0.0
C1283 C 0.25569 0.86774 0.97665 0.0
N1284 N 0.20231 0.86246 0.02758 0.0
N1285 N 0.32088 0.85838 0.97138 0.0
H1286 H 0.22353 0.87646 0.94847 0.0
H1287 H 0.27054 0.87826 0.94395 0.0
H1288 H 0.34786 0.85652 0.97685 0.0
H1289 H 0.31799 0.85279 0.95495 0.0
H1290 H 0.20525 0.85821 0.04416 0.0
H1291 H 0.17528 0.86038 0.02226 0.0
H1292 H 0.25325 0.88383 0.05422 0.0
H1293 H 0.30019 0.88043 0.04956 0.0
C1294 C 0.90345 0.48206 0.76362 0.0
C1295 C 0.9026 0.4763 0.74094 0.0
C1296 C 0.90215 0.54267 0.7346 0.0
C1297 C 0.90221 0.54841 0.75728 0.0
N1298 N 0.89409 0.5244 0.79333 0.0
N1299 N 0.89243 0.50013 0.70502 0.0
C1300 C 0.9001 0.51829 0.77179 0.0
C1301 C 0.89924 0.50637 0.72647 0.0
N1302 N 0.90929 0.45319 0.77731 0.0
N1303 N 0.90664 0.57168 0.72085 0.0
H1304 H 0.88969 0.47388 0.69857 0.0
H1305 H 0.88609 0.52081 0.69401 0.0
H1306 H 0.90847 0.5987 0.72619 0.0
H1307 H 0.9112 0.56883 0.7043 0.0
H1308 H 0.91455 0.45619 0.79378 0.0
H1309 H 0.91158 0.42621 0.77197 0.0
H1310 H 0.88862 0.5036 0.8044 0.0
H1311 H 0.8911 0.55059 0.79983 0.0
C1312 C 0.09673 0.35418 0.11463 0.0
C1313 C 0.12158 0.37643 0.10282 0.0
C1314 C 0.15841 0.38652 0.13563 0.0
C1315 C 0.13318 0.36477 0.14742 0.0
N1316 N 0.07671 0.33062 0.14934 0.0
N1317 N 0.17728 0.41145 0.10077 0.0
C1318 C 0.10198 0.34923 0.1372 0.0
C1319 C 0.1528 0.39204 0.11298 0.0
N1320 N 0.0692 0.33617 0.10397 0.0
N1321 N 0.18704 0.40252 0.14633 0.0
H1322 H 0.17307 0.41707 0.08439 0.0
H1323 H 0.20224 0.42123 0.10641 0.0
H1324 H 0.19219 0.39799 0.16274 0.0
H1325 H 0.20515 0.42107 0.13942 0.0
H1326 H 0.05317 0.31574 0.11088 0.0
H1327 H 0.0635 0.33985 0.08757 0.0
H1328 H 0.05092 0.32306 0.14374 0.0
H1329 H 0.08063 0.32415 0.16562 0.0
C1330 C 0.92442 0.86466 0.38616 0.0
C1331 C 0.8959 0.88007 0.39877 0.0
C1332 C 0.85688 0.88489 0.36648 0.0
C1333 C 0.88655 0.87232 0.35369 0.0
N1334 N 0.9504 0.85509 0.3507 0.0
N1335 N 0.83668 0.90883 0.40118 0.0
C1336 C 0.92092 0.8639 0.36333 0.0
C1337 C 0.86248 0.89122 0.389 0.0
N1338 N 0.95392 0.84855 0.39604 0.0
N1339 N 0.82342 0.89051 0.3571 0.0
H1340 H 0.84013 0.91397 0.41767 0.0
H1341 H 0.8132 0.92083 0.39476 0.0
H1342 H 0.8189 0.88761 0.34051 0.0
H1343 H 0.79965 0.89588 0.36581 0.0
H1344 H 0.97314 0.83272 0.38784 0.0
H1345 H 0.95764 0.84788 0.41277 0.0
H1346 H 0.97708 0.85355 0.35663 0.0
H1347 H 0.94898 0.85177 0.33399 0.0
C1348 C 0.36131 0.66224 0.63321 0.0
C1349 C 0.38201 0.63957 0.64747 0.0
C1350 C 0.41166 0.61167 0.61603 0.0
C1351 C 0.38816 0.63152 0.60181 0.0
N1352 N 0.33027 0.6636 0.59879 0.0
N1353 N 0.41483 0.58215 0.65088 0.0
C1354 C 0.3595 0.65278 0.61101 0.0
C1355 C 0.40318 0.61074 0.6384 0.0
N1356 N 0.34547 0.6941 0.64002 0.0
N1357 N 0.44339 0.59584 0.60899 0.0
H1358 H 0.40665 0.57882 0.66691 0.0
H1359 H 0.42835 0.55951 0.64439 0.0
H1360 H 0.45378 0.59881 0.59344 0.0
H1361 H 0.462 0.58368 0.61963 0.0
H1362 H 0.33265 0.71213 0.62931 0.0
H1363 H 0.34907 0.70518 0.65536 0.0
H1364 H 0.30778 0.67718 0.60542 0.0
H1365 H 0.32635 0.65466 0.58295 0.0
C1366 C 0.65732 0.16359 0.86601 0.0
C1367 C 0.63719 0.141 0.85148 0.0
C1368 C 0.6055 0.1138 0.88247 0.0
C1369 C 0.62846 0.13349 0.89703 0.0
N1370 N 0.68656 0.16488 0.90096 0.0
N1371 N 0.60385 0.08398 0.84771 0.0
C1372 C 0.65784 0.15432 0.88828 0.0
C1373 C 0.61519 0.11253 0.86028 0.0
N1374 N 0.67382 0.19522 0.85937 0.0
N1375 N 0.57324 0.09846 0.88898 0.0
H1376 H 0.61284 0.0804 0.83186 0.0
H1377 H 0.58971 0.0616 0.85405 0.0
H1378 H 0.56206 0.10178 0.90432 0.0
H1379 H 0.55506 0.08641 0.87807 0.0
H1380 H 0.68622 0.21321 0.87025 0.0
H1381 H 0.67117 0.20622 0.84393 0.0
H1382 H 0.70953 0.17811 0.89468 0.0
H1383 H 0.68959 0.15605 0.91691 0.0
C1384 C 0.15579 0.66722 0.36823 0.0
C1385 C 0.13848 0.64389 0.35288 0.0
C1386 C 0.10857 0.61131 0.38269 0.0
C1387 C 0.12848 0.63249 0.39809 0.0
N1388 N 0.1832 0.66888 0.40369 0.0
N1389 N 0.11177 0.58397 0.34721 0.0
C1390 C 0.15615 0.65656 0.3903 0.0
C1391 C 0.11935 0.61264 0.36065 0.0
N1392 N 0.16975 0.70054 0.36253 0.0
N1393 N 0.078 0.59197 0.38826 0.0
H1394 H 0.1218 0.58256 0.33142 0.0
H1395 H 0.09988 0.55975 0.35275 0.0
H1396 H 0.06593 0.59266 0.40347 0.0
H1397 H 0.06177 0.57879 0.37675 0.0
H1398 H 0.17983 0.71894 0.37399 0.0
H1399 H 0.16731 0.71201 0.3472 0.0
H1400 H 0.20509 0.6846 0.39811 0.0
H1401 H 0.18639 0.65925 0.41947 0.0
C1402 C 0.65273 0.85605 0.63375 0.0
C1403 C 0.63309 0.87924 0.64818 0.0
C1404 C 0.60148 0.90636 0.61708 0.0
C1405 C 0.62403 0.88611 0.60261 0.0
N1406 N 0.68143 0.85341 0.59872 0.0
N1407 N 0.60033 0.93664 0.6517 0.0
C1408 C 0.65312 0.86486 0.61142 0.0
C1409 C 0.61132 0.90782 0.63926 0.0
N1410 N 0.66882 0.82429 0.64059 0.0
N1411 N 0.56938 0.92207 0.61049 0.0
H1412 H 0.60938 0.94027 0.66755 0.0
H1413 H 0.5864 0.95912 0.64528 0.0
H1414 H 0.5581 0.91866 0.59517 0.0
H1415 H 0.55141 0.93455 0.62133 0.0
H1416 H 0.68081 0.80586 0.62983 0.0
H1417 H 0.66617 0.81368 0.65612 0.0
H1418 H 0.70426 0.83989 0.60502 0.0
H1419 H 0.68435 0.86172 0.58268 0.0
C1420 C 0.36545 0.35583 0.86682 0.0
C1421 C 0.38493 0.37886 0.85221 0.0
C1422 C 0.41517 0.40782 0.88317 0.0
C1423 C 0.39279 0.38757 0.89776 0.0
N1424 N 0.33583 0.35415 0.90162 0.0
N1425 N 0.41606 0.43706 0.8482 0.0
C1426 C 0.3643 0.36552 0.88901 0.0
C1427 C 0.40572 0.40831 0.86091 0.0
N1428 N 0.35019 0.3235 0.86034 0.0
N1429 N 0.44675 0.42451 0.88973 0.0
H1430 H 0.40705 0.44004 0.83229 0.0
H1431 H 0.42926 0.46009 0.85444 0.0
H1432 H 0.45783 0.42198 0.90516 0.0
H1433 H 0.4646 0.43701 0.87882 0.0
H1434 H 0.33831 0.30528 0.87129 0.0
H1435 H 0.35346 0.31232 0.84501 0.0
H1436 H 0.31345 0.33995 0.89532 0.0
H1437 H 0.33228 0.36317 0.91747 0.0
C1438 C 0.86115 0.16638 0.13065 0.0
C1439 C 0.87928 0.14237 0.14533 0.0
C1440 C 0.90901 0.1124 0.11458 0.0
C1441 C 0.88782 0.1337 0.09985 0.0
N1442 N 0.83286 0.17027 0.09548 0.0
N1443 N 0.90831 0.08314 0.14954 0.0
C1444 C 0.86026 0.15715 0.10838 0.0
C1445 C 0.89916 0.11223 0.13675 0.0
N1446 N 0.84696 0.19915 0.13722 0.0
N1447 N 0.93999 0.09444 0.10821 0.0
H1448 H 0.89906 0.08064 0.16541 0.0
H1449 H 0.92073 0.0596 0.14341 0.0
H1450 H 0.95144 0.09668 0.09287 0.0
H1451 H 0.95713 0.08111 0.11921 0.0
H1452 H 0.83625 0.21817 0.1263 0.0
H1453 H 0.84995 0.20965 0.15276 0.0
H1454 H 0.81098 0.18545 0.10158 0.0
H1455 H 0.82946 0.1619 0.07949 0.0
C1456 C 0.90156 0.67928 0.86527 0.0
C1457 C 0.88731 0.65077 0.85214 0.0
C1458 C 0.88741 0.60885 0.88331 0.0
C1459 C 0.89969 0.63798 0.89665 0.0
N1460 N 0.91508 0.70202 0.90112 0.0
N1461 N 0.8622 0.59016 0.84856 0.0
C1462 C 0.90551 0.67355 0.88787 0.0
C1463 C 0.87907 0.61595 0.86113 0.0
N1464 N 0.91359 0.71111 0.85595 0.0
N1465 N 0.8839 0.57447 0.89184 0.0
H1466 H 0.85547 0.59474 0.83236 0.0
H1467 H 0.85228 0.56536 0.85443 0.0
H1468 H 0.88798 0.56877 0.90821 0.0
H1469 H 0.87897 0.55117 0.88262 0.0
H1470 H 0.929 0.73073 0.86409 0.0
H1471 H 0.9107 0.71707 0.83955 0.0
H1472 H 0.91427 0.72935 0.89633 0.0
H1473 H 0.92206 0.69886 0.91736 0.0
C1474 C 0.10338 0.11298 0.61823 0.0
C1475 C 0.12482 0.13273 0.60293 0.0
C1476 C 0.15385 0.1656 0.63294 0.0
C1477 C 0.13564 0.14276 0.6482 0.0
N1478 N 0.10444 0.08488 0.65352 0.0
N1479 N 0.18093 0.16697 0.59741 0.0
C1480 C 0.11417 0.11317 0.64027 0.0
C1481 C 0.15353 0.15546 0.61079 0.0
N1482 N 0.07142 0.09615 0.61248 0.0
N1483 N 0.16928 0.19816 0.63884 0.0
H1484 H 0.18353 0.15774 0.58154 0.0
H1485 H 0.20353 0.18159 0.60306 0.0
H1486 H 0.16702 0.20949 0.65421 0.0
H1487 H 0.18019 0.21633 0.62751 0.0
H1488 H 0.0542 0.08398 0.62387 0.0
H1489 H 0.05943 0.09842 0.59727 0.0
H1490 H 0.09081 0.06171 0.64781 0.0
H1491 H 0.11423 0.08237 0.6693 0.0
C1492 C 0.59477 0.40258 0.38046 0.0
C1493 C 0.61925 0.38567 0.39538 0.0
C1494 C 0.64978 0.35537 0.36505 0.0
C1495 C 0.6281 0.37552 0.35 0.0
N1496 N 0.59056 0.42974 0.34499 0.0
N1497 N 0.6794 0.35878 0.39982 0.0
C1498 C 0.60404 0.4029 0.35818 0.0
C1499 C 0.64988 0.3663 0.38702 0.0
N1500 N 0.56167 0.41623 0.38684 0.0
N1501 N 0.6683 0.32442 0.3592 0.0
H1502 H 0.68187 0.36929 0.41542 0.0
H1503 H 0.70319 0.34665 0.39383 0.0
H1504 H 0.66594 0.31198 0.34414 0.0
H1505 H 0.68211 0.3082 0.37048 0.0
H1506 H 0.54243 0.42607 0.37576 0.0
H1507 H 0.55124 0.41359 0.40241 0.0
H1508 H 0.57485 0.45143 0.35086 0.0
H1509 H 0.59916 0.4331 0.32904 0.0
C1510 C 0.417 0.90477 0.11552 0.0
C1511 C 0.39344 0.88604 0.10088 0.0
C1512 C 0.36475 0.85515 0.1317 0.0
C1513 C 0.38547 0.87688 0.14639 0.0
N1514 N 0.42006 0.93306 0.15068 0.0
N1515 N 0.33499 0.85538 0.09689 0.0
C1516 C 0.40788 0.90525 0.13782 0.0
C1517 C 0.36399 0.86521 0.10955 0.0
N1518 N 0.4493 0.91994 0.10892 0.0
N1519 N 0.34786 0.82357 0.13808 0.0
H1520 H 0.33191 0.86473 0.08106 0.0
H1521 H 0.31195 0.8422 0.10312 0.0
H1522 H 0.35066 0.81208 0.1534 0.0
H1523 H 0.33497 0.80613 0.1271 0.0
H1524 H 0.468 0.93118 0.11983 0.0
H1525 H 0.4599 0.91726 0.0934 0.0
H1526 H 0.43446 0.95543 0.14455 0.0
H1527 H 0.41157 0.93618 0.16667 0.0
C1528 C 0.87805 0.40242 0.63725 0.0
C1529 C 0.88676 0.3684 0.64715 0.0
C1530 C 0.90062 0.34183 0.61173 0.0
C1531 C 0.89503 0.37669 0.60198 0.0
N1532 N 0.88173 0.44106 0.60525 0.0
N1533 N 0.91368 0.30808 0.64451 0.0
C1534 C 0.8848 0.40733 0.6147 0.0
C1535 C 0.89975 0.33862 0.63459 0.0
N1536 N 0.86226 0.42954 0.6493 0.0
N1537 N 0.90697 0.31158 0.59923 0.0
H1538 H 0.91423 0.30443 0.66123 0.0
H1539 H 0.92793 0.28766 0.63632 0.0
H1540 H 0.91049 0.3125 0.58252 0.0
H1541 H 0.9062 0.28494 0.60526 0.0
H1542 H 0.852 0.45374 0.64277 0.0
H1543 H 0.85667 0.4266 0.66577 0.0
H1544 H 0.87837 0.46523 0.61393 0.0
H1545 H 0.88472 0.44522 0.58864 0.0
C1546 C 0.3575 0.13062 0.36606 0.0
C1547 C 0.38702 0.14424 0.35351 0.0
C1548 C 0.42411 0.15224 0.38625 0.0
C1549 C 0.39586 0.13572 0.3986 0.0
N1550 N 0.3374 0.10542 0.4005 0.0
N1551 N 0.45035 0.16338 0.351 0.0
C1552 C 0.36291 0.12394 0.38858 0.0
C1553 C 0.42095 0.15344 0.3634 0.0
N1554 N 0.32436 0.1243 0.35645 0.0
N1555 N 0.45297 0.16891 0.39642 0.0
H1556 H 0.44905 0.16696 0.33429 0.0
H1557 H 0.47687 0.16561 0.35708 0.0
H1558 H 0.45635 0.1693 0.41318 0.0
H1559 H 0.47189 0.18541 0.38844 0.0
H1560 H 0.30061 0.11812 0.36499 0.0
H1561 H 0.32003 0.12743 0.33985 0.0
H1562 H 0.31436 0.09294 0.39388 0.0
H1563 H 0.34068 0.10007 0.41699 0.0
C1564 C 0.64698 0.61954 0.13743 0.0
C1565 C 0.63027 0.64958 0.14811 0.0
C1566 C 0.60259 0.67009 0.11404 0.0
C1567 C 0.61781 0.63907 0.10354 0.0
N1568 N 0.65104 0.58222 0.1049 0.0
N1569 N 0.58782 0.70034 0.14778 0.0
C1570 C 0.63905 0.61314 0.11515 0.0
C1571 C 0.60704 0.67415 0.13672 0.0
N1572 N 0.67108 0.59783 0.14854 0.0
N1573 N 0.58424 0.69598 0.1022 0.0
H1574 H 0.59084 0.70497 0.16433 0.0
H1575 H 0.5669 0.71591 0.14095 0.0
H1576 H 0.57799 0.69279 0.08584 0.0
H1577 H 0.57687 0.72155 0.10822 0.0
H1578 H 0.68686 0.57742 0.14143 0.0
H1579 H 0.67723 0.6019 0.16486 0.0
H1580 H 0.66376 0.56042 0.11273 0.0
H1581 H 0.64611 0.57725 0.08852 0.0
C1582 C 0.10776 0.84374 0.86347 0.0
C1583 C 0.1314 0.86796 0.85216 0.0
C1584 C 0.144 0.90151 0.88575 0.0
C1585 C 0.11845 0.87885 0.89665 0.0
N1586 N 0.07201 0.83192 0.89578 0.0
N1587 N 0.16885 0.92221 0.85137 0.0
C1588 C 0.09919 0.85094 0.88546 0.0
C1589 C 0.14862 0.89758 0.86297 0.0
N1590 N 0.09381 0.81361 0.8532 0.0
N1591 N 0.16432 0.92614 0.89728 0.0
H1592 H 0.17393 0.91925 0.83485 0.0
H1593 H 0.17884 0.94662 0.85775 0.0
H1594 H 0.16069 0.93039 0.91384 0.0
H1595 H 0.1862 0.94075 0.89082 0.0
H1596 H 0.07986 0.79268 0.86112 0.0
H1597 H 0.09838 0.80792 0.8369 0.0
H1598 H 0.05414 0.81409 0.88797 0.0
H1599 H 0.06522 0.83603 0.91199 0.0
loop_
_geom_bond_atom_site_label_1
_geom_bond_atom_site_label_2
_geom_bond_distance
_geom_bond_site_symmetry_2
_ccdc_geom_bond_type
O0 Cd1 2.223 . S
O0 C8 1.315 . S
Cd1 O0 2.223 . S
Cd1 O4 2.297 . S
Cd1 O5 2.439 . S
Cd1 O11 2.240 . S
Cd2 O3 2.240 . S
Cd2 O10 2.223 . S
Cd2 O12 2.297 . S
Cd2 O13 2.439 . S
O3 Cd2 2.240 . S
O3 C8 1.279 . S
O4 Cd1 2.297 . S
O4 C6 1.247 . S
O5 Cd1 2.439 . S
O5 C6 1.208 . S
C6 O4 1.247 . S
C6 O5 1.208 . S
C7 O12 1.247 . S
C7 O13 1.208 . S
C8 O0 1.315 . S
C8 O3 1.279 . S
C9 O10 1.315 . S
C9 O11 1.279 . S
O10 Cd2 2.223 . S
O10 C9 1.315 . S
O11 Cd1 2.240 . S
O11 C9 1.279 . S
O12 Cd2 2.297 . S
O12 C7 1.247 . S
O13 Cd2 2.439 . S
O13 C7 1.208 . S
O14 Cd15 2.223 . S
O14 C22 1.315 . S
Cd15 O14 2.223 . S
Cd15 O18 2.297 . S
Cd15 O19 2.439 . S
Cd15 O25 2.240 . S
Cd16 O17 2.240 . S
Cd16 O24 2.223 . S
Cd16 O26 2.297 . S
Cd16 O27 2.439 . S
O17 Cd16 2.240 . S
O17 C22 1.279 . S
O18 Cd15 2.297 . S
O18 C20 1.247 . S
O19 Cd15 2.439 . S
O19 C20 1.208 . S
C20 O18 1.247 . S
C20 O19 1.208 . S
C21 O26 1.247 . S
C21 O27 1.208 . S
C22 O14 1.315 . S
C22 O17 1.279 . S
C23 O24 1.315 . S
C23 O25 1.279 . S
O24 Cd16 2.223 . S
O24 C23 1.315 . S
O25 Cd15 2.240 . S
O25 C23 1.279 . S
O26 Cd16 2.297 . S
O26 C21 1.247 . S
O27 Cd16 2.439 . S
O27 C21 1.208 . S
O28 Cd29 2.223 . S
O28 C36 1.315 . S
Cd29 O28 2.223 . S
Cd29 O32 2.297 . S
Cd29 O33 2.439 . S
Cd29 O39 2.240 . S
Cd30 O31 2.240 . S
Cd30 O38 2.223 . S
Cd30 O40 2.297 . S
Cd30 O41 2.439 . S
O31 Cd30 2.240 . S
O31 C36 1.279 . S
O32 Cd29 2.297 . S
O32 C34 1.247 . S
O33 Cd29 2.439 . S
O33 C34 1.208 . S
C34 O32 1.247 . S
C34 O33 1.208 . S
C35 O40 1.247 . S
C35 O41 1.208 . S
C36 O28 1.315 . S
C36 O31 1.279 . S
C37 O38 1.315 . S
C37 O39 1.279 . S
O38 Cd30 2.223 . S
O38 C37 1.315 . S
O39 Cd29 2.240 . S
O39 C37 1.279 . S
O40 Cd30 2.297 . S
O40 C35 1.247 . S
O41 Cd30 2.439 . S
O41 C35 1.208 . S
O42 Cd43 2.223 . S
O42 C50 1.315 . S
Cd43 O42 2.223 . S
Cd43 O46 2.297 . S
Cd43 O47 2.439 . S
Cd43 O53 2.240 . S
Cd44 O45 2.240 . S
Cd44 O52 2.223 . S
Cd44 O54 2.297 . S
Cd44 O55 2.439 . S
O45 Cd44 2.240 . S
O45 C50 1.279 . S
O46 Cd43 2.297 . S
O46 C48 1.247 . S
O47 Cd43 2.439 . S
O47 C48 1.208 . S
C48 O46 1.247 . S
C48 O47 1.208 . S
C49 O54 1.247 . S
C49 O55 1.208 . S
C50 O42 1.315 . S
C50 O45 1.279 . S
C51 O52 1.315 . S
C51 O53 1.279 . S
O52 Cd44 2.223 . S
O52 C51 1.315 . S
O53 Cd43 2.240 . S
O53 C51 1.279 . S
O54 Cd44 2.297 . S
O54 C49 1.247 . S
O55 Cd44 2.439 . S
O55 C49 1.208 . S
O56 Cd57 2.223 . S
O56 C64 1.315 . S
Cd57 O56 2.223 . S
Cd57 O60 2.297 . S
Cd57 O61 2.439 . S
Cd57 O67 2.240 . S
Cd58 O59 2.240 . S
Cd58 O66 2.223 . S
Cd58 O68 2.297 . S
Cd58 O69 2.439 . S
O59 Cd58 2.240 . S
O59 C64 1.279 . S
O60 Cd57 2.297 . S
O60 C62 1.247 . S
O61 Cd57 2.439 . S
O61 C62 1.208 . S
C62 O60 1.247 . S
C62 O61 1.208 . S
C63 O68 1.247 . S
C63 O69 1.208 . S
C64 O56 1.315 . S
C64 O59 1.279 . S
C65 O66 1.315 . S
C65 O67 1.279 . S
O66 Cd58 2.223 . S
O66 C65 1.315 . S
O67 Cd57 2.240 . S
O67 C65 1.279 . S
O68 Cd58 2.297 . S
O68 C63 1.247 . S
O69 Cd58 2.439 . S
O69 C63 1.208 . S
O70 Cd71 2.223 . S
O70 C78 1.315 . S
Cd71 O70 2.223 . S
Cd71 O74 2.297 . S
Cd71 O75 2.439 . S
Cd71 O81 2.240 . S
Cd72 O73 2.240 . S
Cd72 O80 2.223 . S
Cd72 O82 2.297 . S
Cd72 O83 2.439 . S
O73 Cd72 2.240 . S
O73 C78 1.279 . S
O74 Cd71 2.297 . S
O74 C76 1.247 . S
O75 Cd71 2.439 . S
O75 C76 1.208 . S
C76 O74 1.247 . S
C76 O75 1.208 . S
C77 O82 1.247 . S
C77 O83 1.208 . S
C78 O70 1.315 . S
C78 O73 1.279 . S
C79 O80 1.315 . S
C79 O81 1.279 . S
O80 Cd72 2.223 . S
O80 C79 1.315 . S
O81 Cd71 2.240 . S
O81 C79 1.279 . S
O82 Cd72 2.297 . S
O82 C77 1.247 . S
O83 Cd72 2.439 . S
O83 C77 1.208 . S
O84 Cd85 2.223 . S
O84 C92 1.315 . S
Cd85 O84 2.223 . S
Cd85 O88 2.297 . S
Cd85 O89 2.439 . S
Cd85 O95 2.240 . S
Cd86 O87 2.240 . S
Cd86 O94 2.223 . S
Cd86 O96 2.297 . S
Cd86 O97 2.439 . S
O87 Cd86 2.240 . S
O87 C92 1.279 . S
O88 Cd85 2.297 . S
O88 C90 1.247 . S
O89 Cd85 2.439 . S
O89 C90 1.208 . S
C90 O88 1.247 . S
C90 O89 1.208 . S
C91 O96 1.247 . S
C91 O97 1.208 . S
C92 O84 1.315 . S
C92 O87 1.279 . S
C93 O94 1.315 . S
C93 O95 1.279 . S
O94 Cd86 2.223 . S
O94 C93 1.315 . S
O95 Cd85 2.240 . S
O95 C93 1.279 . S
O96 Cd86 2.297 . S
O96 C91 1.247 . S
O97 Cd86 2.439 . S
O97 C91 1.208 . S
O98 Cd99 2.223 . S
O98 C106 1.315 . S
Cd99 O98 2.223 . S
Cd99 O102 2.297 . S
Cd99 O103 2.439 . S
Cd99 O109 2.240 . S
Cd100 O101 2.240 . S
Cd100 O108 2.223 . S
Cd100 O110 2.297 . S
Cd100 O111 2.439 . S
O101 Cd100 2.240 . S
O101 C106 1.279 . S
O102 Cd99 2.297 . S
O102 C104 1.247 . S
O103 Cd99 2.439 . S
O103 C104 1.208 . S
C104 O102 1.247 . S
C104 O103 1.208 . S
C105 O110 1.247 . S
C105 O111 1.208 . S
C106 O98 1.315 . S
C106 O101 1.279 . S
C107 O108 1.315 . S
C107 O109 1.279 . S
O108 Cd100 2.223 . S
O108 C107 1.315 . S
O109 Cd99 2.240 . S
O109 C107 1.279 . S
O110 Cd100 2.297 . S
O110 C105 1.247 . S
O111 Cd100 2.439 . S
O111 C105 1.208 . S
O112 Cd113 2.223 . S
O112 C120 1.315 . S
Cd113 O112 2.223 . S
Cd113 O116 2.297 . S
Cd113 O117 2.439 . S
Cd113 O123 2.240 . S
Cd114 O115 2.240 . S
Cd114 O122 2.223 . S
Cd114 O124 2.297 . S
Cd114 O125 2.439 . S
O115 Cd114 2.240 . S
O115 C120 1.279 . S
O116 Cd113 2.297 . S
O116 C118 1.247 . S
O117 Cd113 2.439 . S
O117 C118 1.208 . S
C118 O116 1.247 . S
C118 O117 1.208 . S
C119 O124 1.247 . S
C119 O125 1.208 . S
C120 O112 1.315 . S
C120 O115 1.279 . S
C121 O122 1.315 . S
C121 O123 1.279 . S
O122 Cd114 2.223 . S
O122 C121 1.315 . S
O123 Cd113 2.240 . S
O123 C121 1.279 . S
O124 Cd114 2.297 . S
O124 C119 1.247 . S
O125 Cd114 2.439 . S
O125 C119 1.208 . S
O126 Cd127 2.223 . S
O126 C134 1.315 . S
Cd127 O126 2.223 . S
Cd127 O130 2.297 . S
Cd127 O131 2.439 . S
Cd127 O137 2.240 . S
Cd128 O129 2.240 . S
Cd128 O136 2.223 . S
Cd128 O138 2.297 . S
Cd128 O139 2.439 . S
O129 Cd128 2.240 . S
O129 C134 1.279 . S
O130 Cd127 2.297 . S
O130 C132 1.247 . S
O131 Cd127 2.439 . S
O131 C132 1.208 . S
C132 O130 1.247 . S
C132 O131 1.208 . S
C133 O138 1.247 . S
C133 O139 1.208 . S
C134 O126 1.315 . S
C134 O129 1.279 . S
C135 O136 1.315 . S
C135 O137 1.279 . S
O136 Cd128 2.223 . S
O136 C135 1.315 . S
O137 Cd127 2.240 . S
O137 C135 1.279 . S
O138 Cd128 2.297 . S
O138 C133 1.247 . S
O139 Cd128 2.439 . S
O139 C133 1.208 . S
O140 Cd141 2.223 . S
O140 C148 1.315 . S
Cd141 O140 2.223 . S
Cd141 O144 2.297 . S
Cd141 O145 2.439 . S
Cd141 O151 2.240 . S
Cd142 O143 2.240 . S
Cd142 O150 2.223 . S
Cd142 O152 2.297 . S
Cd142 O153 2.439 . S
O143 Cd142 2.240 . S
O143 C148 1.279 . S
O144 Cd141 2.297 . S
O144 C146 1.247 . S
O145 Cd141 2.439 . S
O145 C146 1.208 . S
C146 O144 1.247 . S
C146 O145 1.208 . S
C147 O152 1.247 . S
C147 O153 1.208 . S
C148 O140 1.315 . S
C148 O143 1.279 . S
C149 O150 1.315 . S
C149 O151 1.279 . S
O150 Cd142 2.223 . S
O150 C149 1.315 . S
O151 Cd141 2.240 . S
O151 C149 1.279 . S
O152 Cd142 2.297 . S
O152 C147 1.247 . S
O153 Cd142 2.439 . S
O153 C147 1.208 . S
O154 Cd155 2.223 . S
O154 C162 1.315 . S
Cd155 O154 2.223 . S
Cd155 O158 2.297 . S
Cd155 O159 2.439 . S
Cd155 O165 2.240 . S
Cd156 O157 2.240 . S
Cd156 O164 2.223 . S
Cd156 O166 2.297 . S
Cd156 O167 2.439 . S
O157 Cd156 2.240 . S
O157 C162 1.279 . S
O158 Cd155 2.297 . S
O158 C160 1.247 . S
O159 Cd155 2.439 . S
O159 C160 1.208 . S
C160 O158 1.247 . S
C160 O159 1.208 . S
C161 O166 1.247 . S
C161 O167 1.208 . S
C162 O154 1.315 . S
C162 O157 1.279 . S
C163 O164 1.315 . S
C163 O165 1.279 . S
O164 Cd156 2.223 . S
O164 C163 1.315 . S
O165 Cd155 2.240 . S
O165 C163 1.279 . S
O166 Cd156 2.297 . S
O166 C161 1.247 . S
O167 Cd156 2.439 . S
O167 C161 1.208 . S
O168 Cd169 2.223 . S
O168 C176 1.315 . S
Cd169 O168 2.223 . S
Cd169 O172 2.297 . S
Cd169 O173 2.439 . S
Cd169 O179 2.240 . S
Cd170 O171 2.240 . S
Cd170 O178 2.223 . S
Cd170 O180 2.297 . S
Cd170 O181 2.439 . S
O171 Cd170 2.240 . S
O171 C176 1.279 . S
O172 Cd169 2.297 . S
O172 C174 1.247 . S
O173 Cd169 2.439 . S
O173 C174 1.208 . S
C174 O172 1.247 . S
C174 O173 1.208 . S
C175 O180 1.247 . S
C175 O181 1.208 . S
C176 O168 1.315 . S
C176 O171 1.279 . S
C177 O178 1.315 . S
C177 O179 1.279 . S
O178 Cd170 2.223 . S
O178 C177 1.315 . S
O179 Cd169 2.240 . S
O179 C177 1.279 . S
O180 Cd170 2.297 . S
O180 C175 1.247 . S
O181 Cd170 2.439 . S
O181 C175 1.208 . S
O182 Cd183 2.223 . S
O182 C190 1.315 . S
Cd183 O182 2.223 . S
Cd183 O186 2.297 . S
Cd183 O187 2.439 . S
Cd183 O193 2.240 . S
Cd184 O185 2.240 . S
Cd184 O192 2.223 . S
Cd184 O194 2.297 . S
Cd184 O195 2.439 . S
O185 Cd184 2.240 . S
O185 C190 1.279 . S
O186 Cd183 2.297 . S
O186 C188 1.247 . S
O187 Cd183 2.439 . S
O187 C188 1.208 . S
C188 O186 1.247 . S
C188 O187 1.208 . S
C189 O194 1.247 . S
C189 O195 1.208 . S
C190 O182 1.315 . S
C190 O185 1.279 . S
C191 O192 1.315 . S
C191 O193 1.279 . S
O192 Cd184 2.223 . S
O192 C191 1.315 . S
O193 Cd183 2.240 . S
O193 C191 1.279 . S
O194 Cd184 2.297 . S
O194 C189 1.247 . S
O195 Cd184 2.439 . S
O195 C189 1.208 . S
O196 Cd197 2.223 . S
O196 C204 1.315 . S
Cd197 O196 2.223 . S
Cd197 O200 2.297 . S
Cd197 O201 2.439 . S
Cd197 O207 2.240 . S
Cd198 O199 2.240 . S
Cd198 O206 2.223 . S
Cd198 O208 2.297 . S
Cd198 O209 2.439 . S
O199 Cd198 2.240 . S
O199 C204 1.279 . S
O200 Cd197 2.297 . S
O200 C202 1.247 . S
O201 Cd197 2.439 . S
O201 C202 1.208 . S
C202 O200 1.247 . S
C202 O201 1.208 . S
C203 O208 1.247 . S
C203 O209 1.208 . S
C204 O196 1.315 . S
C204 O199 1.279 . S
C205 O206 1.315 . S
C205 O207 1.279 . S
O206 Cd198 2.223 . S
O206 C205 1.315 . S
O207 Cd197 2.240 . S
O207 C205 1.279 . S
O208 Cd198 2.297 . S
O208 C203 1.247 . S
O209 Cd198 2.439 . S
O209 C203 1.208 . S
O210 Cd211 2.223 . S
O210 C218 1.315 . S
Cd211 O210 2.223 . S
Cd211 O214 2.297 . S
Cd211 O215 2.439 . S
Cd211 O221 2.240 . S
Cd212 O213 2.240 . S
Cd212 O220 2.223 . S
Cd212 O222 2.297 . S
Cd212 O223 2.439 . S
O213 Cd212 2.240 . S
O213 C218 1.279 . S
O214 Cd211 2.297 . S
O214 C216 1.247 . S
O215 Cd211 2.439 . S
O215 C216 1.208 . S
C216 O214 1.247 . S
C216 O215 1.208 . S
C217 O222 1.247 . S
C217 O223 1.208 . S
C218 O210 1.315 . S
C218 O213 1.279 . S
C219 O220 1.315 . S
C219 O221 1.279 . S
O220 Cd212 2.223 . S
O220 C219 1.315 . S
O221 Cd211 2.240 . S
O221 C219 1.279 . S
O222 Cd212 2.297 . S
O222 C217 1.247 . S
O223 Cd212 2.439 . S
O223 C217 1.208 . S
O224 Cd225 2.223 . S
O224 C232 1.315 . S
Cd225 O224 2.223 . S
Cd225 O228 2.297 . S
Cd225 O229 2.439 . S
Cd225 O235 2.240 . S
Cd226 O227 2.240 . S
Cd226 O234 2.223 . S
Cd226 O236 2.297 . S
Cd226 O237 2.439 . S
O227 Cd226 2.240 . S
O227 C232 1.279 . S
O228 Cd225 2.297 . S
O228 C230 1.247 . S
O229 Cd225 2.439 . S
O229 C230 1.208 . S
C230 O228 1.247 . S
C230 O229 1.208 . S
C231 O236 1.247 . S
C231 O237 1.208 . S
C232 O224 1.315 . S
C232 O227 1.279 . S
C233 O234 1.315 . S
C233 O235 1.279 . S
O234 Cd226 2.223 . S
O234 C233 1.315 . S
O235 Cd225 2.240 . S
O235 C233 1.279 . S
O236 Cd226 2.297 . S
O236 C231 1.247 . S
O237 Cd226 2.439 . S
O237 C231 1.208 . S
O238 Cd239 2.223 . S
O238 C246 1.315 . S
Cd239 O238 2.223 . S
Cd239 O242 2.297 . S
Cd239 O243 2.439 . S
Cd239 O249 2.240 . S
Cd240 O241 2.240 . S
Cd240 O248 2.223 . S
Cd240 O250 2.297 . S
Cd240 O251 2.439 . S
O241 Cd240 2.240 . S
O241 C246 1.279 . S
O242 Cd239 2.297 . S
O242 C244 1.247 . S
O243 Cd239 2.439 . S
O243 C244 1.208 . S
C244 O242 1.247 . S
C244 O243 1.208 . S
C245 O250 1.247 . S
C245 O251 1.208 . S
C246 O238 1.315 . S
C246 O241 1.279 . S
C247 O248 1.315 . S
C247 O249 1.279 . S
O248 Cd240 2.223 . S
O248 C247 1.315 . S
O249 Cd239 2.240 . S
O249 C247 1.279 . S
O250 Cd240 2.297 . S
O250 C245 1.247 . S
O251 Cd240 2.439 . S
O251 C245 1.208 . S
O252 Cd253 2.223 . S
O252 C260 1.315 . S
Cd253 O252 2.223 . S
Cd253 O256 2.297 . S
Cd253 O257 2.439 . S
Cd253 O263 2.240 . S
Cd254 O255 2.240 . S
Cd254 O262 2.223 . S
Cd254 O264 2.297 . S
Cd254 O265 2.439 . S
O255 Cd254 2.240 . S
O255 C260 1.279 . S
O256 Cd253 2.297 . S
O256 C258 1.247 . S
O257 Cd253 2.439 . S
O257 C258 1.208 . S
C258 O256 1.247 . S
C258 O257 1.208 . S
C259 O264 1.247 . S
C259 O265 1.208 . S
C260 O252 1.315 . S
C260 O255 1.279 . S
C261 O262 1.315 . S
C261 O263 1.279 . S
O262 Cd254 2.223 . S
O262 C261 1.315 . S
O263 Cd253 2.240 . S
O263 C261 1.279 . S
O264 Cd254 2.297 . S
O264 C259 1.247 . S
O265 Cd254 2.439 . S
O265 C259 1.208 . S
O266 Cd267 2.223 . S
O266 C274 1.315 . S
Cd267 O266 2.223 . S
Cd267 O270 2.297 . S
Cd267 O271 2.439 . S
Cd267 O277 2.240 . S
Cd268 O269 2.240 . S
Cd268 O276 2.223 . S
Cd268 O278 2.297 . S
Cd268 O279 2.439 . S
O269 Cd268 2.240 . S
O269 C274 1.279 . S
O270 Cd267 2.297 . S
O270 C272 1.247 . S
O271 Cd267 2.439 . S
O271 C272 1.208 . S
C272 O270 1.247 . S
C272 O271 1.208 . S
C273 O278 1.247 . S
C273 O279 1.208 . S
C274 O266 1.315 . S
C274 O269 1.279 . S
C275 O276 1.315 . S
C275 O277 1.279 . S
O276 Cd268 2.223 . S
O276 C275 1.315 . S
O277 Cd267 2.240 . S
O277 C275 1.279 . S
O278 Cd268 2.297 . S
O278 C273 1.247 . S
O279 Cd268 2.439 . S
O279 C273 1.208 . S
O280 Cd281 2.223 . S
O280 C288 1.315 . S
Cd281 O280 2.223 . S
Cd281 O284 2.297 . S
Cd281 O285 2.439 . S
Cd281 O291 2.240 . S
Cd282 O283 2.240 . S
Cd282 O290 2.223 . S
Cd282 O292 2.297 . S
Cd282 O293 2.439 . S
O283 Cd282 2.240 . S
O283 C288 1.279 . S
O284 Cd281 2.297 . S
O284 C286 1.247 . S
O285 Cd281 2.439 . S
O285 C286 1.208 . S
C286 O284 1.247 . S
C286 O285 1.208 . S
C287 O292 1.247 . S
C287 O293 1.208 . S
C288 O280 1.315 . S
C288 O283 1.279 . S
C289 O290 1.315 . S
C289 O291 1.279 . S
O290 Cd282 2.223 . S
O290 C289 1.315 . S
O291 Cd281 2.240 . S
O291 C289 1.279 . S
O292 Cd282 2.297 . S
O292 C287 1.247 . S
O293 Cd282 2.439 . S
O293 C287 1.208 . S
O294 Cd295 2.223 . S
O294 C302 1.315 . S
Cd295 O294 2.223 . S
Cd295 O298 2.297 . S
Cd295 O299 2.439 . S
Cd295 O305 2.240 . S
Cd296 O297 2.240 . S
Cd296 O304 2.223 . S
Cd296 O306 2.297 . S
Cd296 O307 2.439 . S
O297 Cd296 2.240 . S
O297 C302 1.279 . S
O298 Cd295 2.297 . S
O298 C300 1.247 . S
O299 Cd295 2.439 . S
O299 C300 1.208 . S
C300 O298 1.247 . S
C300 O299 1.208 . S
C301 O306 1.247 . S
C301 O307 1.208 . S
C302 O294 1.315 . S
C302 O297 1.279 . S
C303 O304 1.315 . S
C303 O305 1.279 . S
O304 Cd296 2.223 . S
O304 C303 1.315 . S
O305 Cd295 2.240 . S
O305 C303 1.279 . S
O306 Cd296 2.297 . S
O306 C301 1.247 . S
O307 Cd296 2.439 . S
O307 C301 1.208 . S
O308 Cd309 2.223 . S
O308 C316 1.315 . S
Cd309 O308 2.223 . S
Cd309 O312 2.297 . S
Cd309 O313 2.439 . S
Cd309 O319 2.240 . S
Cd310 O311 2.240 . S
Cd310 O318 2.223 . S
Cd310 O320 2.297 . S
Cd310 O321 2.439 . S
O311 Cd310 2.240 . S
O311 C316 1.279 . S
O312 Cd309 2.297 . S
O312 C314 1.247 . S
O313 Cd309 2.439 . S
O313 C314 1.208 . S
C314 O312 1.247 . S
C314 O313 1.208 . S
C315 O320 1.247 . S
C315 O321 1.208 . S
C316 O308 1.315 . S
C316 O311 1.279 . S
C317 O318 1.315 . S
C317 O319 1.279 . S
O318 Cd310 2.223 . S
O318 C317 1.315 . S
O319 Cd309 2.240 . S
O319 C317 1.279 . S
O320 Cd310 2.297 . S
O320 C315 1.247 . S
O321 Cd310 2.439 . S
O321 C315 1.208 . S
O322 Cd323 2.223 . S
O322 C330 1.315 . S
Cd323 O322 2.223 . S
Cd323 O326 2.297 . S
Cd323 O327 2.439 . S
Cd323 O333 2.240 . S
Cd324 O325 2.240 . S
Cd324 O332 2.223 . S
Cd324 O334 2.297 . S
Cd324 O335 2.439 . S
O325 Cd324 2.240 . S
O325 C330 1.279 . S
O326 Cd323 2.297 . S
O326 C328 1.247 . S
O327 Cd323 2.439 . S
O327 C328 1.208 . S
C328 O326 1.247 . S
C328 O327 1.208 . S
C329 O334 1.247 . S
C329 O335 1.208 . S
C330 O322 1.315 . S
C330 O325 1.279 . S
C331 O332 1.315 . S
C331 O333 1.279 . S
O332 Cd324 2.223 . S
O332 C331 1.315 . S
O333 Cd323 2.240 . S
O333 C331 1.279 . S
O334 Cd324 2.297 . S
O334 C329 1.247 . S
O335 Cd324 2.439 . S
O335 C329 1.208 . S
O336 Cd337 2.223 . S
O336 C344 1.315 . S
Cd337 O336 2.223 . S
Cd337 O340 2.297 . S
Cd337 O341 2.439 . S
Cd337 O347 2.240 . S
Cd338 O339 2.240 . S
Cd338 O346 2.223 . S
Cd338 O348 2.297 . S
Cd338 O349 2.439 . S
O339 Cd338 2.240 . S
O339 C344 1.279 . S
O340 Cd337 2.297 . S
O340 C342 1.247 . S
O341 Cd337 2.439 . S
O341 C342 1.208 . S
C342 O340 1.247 . S
C342 O341 1.208 . S
C343 O348 1.247 . S
C343 O349 1.208 . S
C344 O336 1.315 . S
C344 O339 1.279 . S
C345 O346 1.315 . S
C345 O347 1.279 . S
O346 Cd338 2.223 . S
O346 C345 1.315 . S
O347 Cd337 2.240 . S
O347 C345 1.279 . S
O348 Cd338 2.297 . S
O348 C343 1.247 . S
O349 Cd338 2.439 . S
O349 C343 1.208 . S
O350 Cd351 2.223 . S
O350 C358 1.315 . S
Cd351 O350 2.223 . S
Cd351 O354 2.297 . S
Cd351 O355 2.439 . S
Cd351 O361 2.240 . S
Cd352 O353 2.240 . S
Cd352 O360 2.223 . S
Cd352 O362 2.297 . S
Cd352 O363 2.439 . S
O353 Cd352 2.240 . S
O353 C358 1.279 . S
O354 Cd351 2.297 . S
O354 C356 1.247 . S
O355 Cd351 2.439 . S
O355 C356 1.208 . S
C356 O354 1.247 . S
C356 O355 1.208 . S
C357 O362 1.247 . S
C357 O363 1.208 . S
C358 O350 1.315 . S
C358 O353 1.279 . S
C359 O360 1.315 . S
C359 O361 1.279 . S
O360 Cd352 2.223 . S
O360 C359 1.315 . S
O361 Cd351 2.240 . S
O361 C359 1.279 . S
O362 Cd352 2.297 . S
O362 C357 1.247 . S
O363 Cd352 2.439 . S
O363 C357 1.208 . S
O364 Cd365 2.223 . S
O364 C372 1.315 . S
Cd365 O364 2.223 . S
Cd365 O368 2.297 . S
Cd365 O369 2.439 . S
Cd365 O375 2.240 . S
Cd366 O367 2.240 . S
Cd366 O374 2.223 . S
Cd366 O376 2.297 . S
Cd366 O377 2.439 . S
O367 Cd366 2.240 . S
O367 C372 1.279 . S
O368 Cd365 2.297 . S
O368 C370 1.247 . S
O369 Cd365 2.439 . S
O369 C370 1.208 . S
C370 O368 1.247 . S
C370 O369 1.208 . S
C371 O376 1.247 . S
C371 O377 1.208 . S
C372 O364 1.315 . S
C372 O367 1.279 . S
C373 O374 1.315 . S
C373 O375 1.279 . S
O374 Cd366 2.223 . S
O374 C373 1.315 . S
O375 Cd365 2.240 . S
O375 C373 1.279 . S
O376 Cd366 2.297 . S
O376 C371 1.247 . S
O377 Cd366 2.439 . S
O377 C371 1.208 . S
O378 Cd379 2.223 . S
O378 C386 1.315 . S
Cd379 O378 2.223 . S
Cd379 O382 2.297 . S
Cd379 O383 2.439 . S
Cd379 O389 2.240 . S
Cd380 O381 2.240 . S
Cd380 O388 2.223 . S
Cd380 O390 2.297 . S
Cd380 O391 2.439 . S
O381 Cd380 2.240 . S
O381 C386 1.279 . S
O382 Cd379 2.297 . S
O382 C384 1.247 . S
O383 Cd379 2.439 . S
O383 C384 1.208 . S
C384 O382 1.247 . S
C384 O383 1.208 . S
C385 O390 1.247 . S
C385 O391 1.208 . S
C386 O378 1.315 . S
C386 O381 1.279 . S
C387 O388 1.315 . S
C387 O389 1.279 . S
O388 Cd380 2.223 . S
O388 C387 1.315 . S
O389 Cd379 2.240 . S
O389 C387 1.279 . S
O390 Cd380 2.297 . S
O390 C385 1.247 . S
O391 Cd380 2.439 . S
O391 C385 1.208 . S
O392 Cd393 2.223 . S
O392 C400 1.315 . S
Cd393 O392 2.223 . S
Cd393 O396 2.297 . S
Cd393 O397 2.439 . S
Cd393 O403 2.240 . S
Cd394 O395 2.240 . S
Cd394 O402 2.223 . S
Cd394 O404 2.297 . S
Cd394 O405 2.439 . S
O395 Cd394 2.240 . S
O395 C400 1.279 . S
O396 Cd393 2.297 . S
O396 C398 1.247 . S
O397 Cd393 2.439 . S
O397 C398 1.208 . S
C398 O396 1.247 . S
C398 O397 1.208 . S
C399 O404 1.247 . S
C399 O405 1.208 . S
C400 O392 1.315 . S
C400 O395 1.279 . S
C401 O402 1.315 . S
C401 O403 1.279 . S
O402 Cd394 2.223 . S
O402 C401 1.315 . S
O403 Cd393 2.240 . S
O403 C401 1.279 . S
O404 Cd394 2.297 . S
O404 C399 1.247 . S
O405 Cd394 2.439 . S
O405 C399 1.208 . S
O406 Cd407 2.223 . S
O406 C414 1.315 . S
Cd407 O406 2.223 . S
Cd407 O410 2.297 . S
Cd407 O411 2.439 . S
Cd407 O417 2.240 . S
Cd408 O409 2.240 . S
Cd408 O416 2.223 . S
Cd408 O418 2.297 . S
Cd408 O419 2.439 . S
O409 Cd408 2.240 . S
O409 C414 1.279 . S
O410 Cd407 2.297 . S
O410 C412 1.247 . S
O411 Cd407 2.439 . S
O411 C412 1.208 . S
C412 O410 1.247 . S
C412 O411 1.208 . S
C413 O418 1.247 . S
C413 O419 1.208 . S
C414 O406 1.315 . S
C414 O409 1.279 . S
C415 O416 1.315 . S
C415 O417 1.279 . S
O416 Cd408 2.223 . S
O416 C415 1.315 . S
O417 Cd407 2.240 . S
O417 C415 1.279 . S
O418 Cd408 2.297 . S
O418 C413 1.247 . S
O419 Cd408 2.439 . S
O419 C413 1.208 . S
O420 Cd421 2.223 . S
O420 C428 1.315 . S
Cd421 O420 2.223 . S
Cd421 O424 2.297 . S
Cd421 O425 2.439 . S
Cd421 O431 2.240 . S
Cd422 O423 2.240 . S
Cd422 O430 2.223 . S
Cd422 O432 2.297 . S
Cd422 O433 2.439 . S
O423 Cd422 2.240 . S
O423 C428 1.279 . S
O424 Cd421 2.297 . S
O424 C426 1.247 . S
O425 Cd421 2.439 . S
O425 C426 1.208 . S
C426 O424 1.247 . S
C426 O425 1.208 . S
C427 O432 1.247 . S
C427 O433 1.208 . S
C428 O420 1.315 . S
C428 O423 1.279 . S
C429 O430 1.315 . S
C429 O431 1.279 . S
O430 Cd422 2.223 . S
O430 C429 1.315 . S
O431 Cd421 2.240 . S
O431 C429 1.279 . S
O432 Cd422 2.297 . S
O432 C427 1.247 . S
O433 Cd422 2.439 . S
O433 C427 1.208 . S
O434 Cd435 2.223 . S
O434 C442 1.315 . S
Cd435 O434 2.223 . S
Cd435 O438 2.297 . S
Cd435 O439 2.439 . S
Cd435 O445 2.240 . S
Cd436 O437 2.240 . S
Cd436 O444 2.223 . S
Cd436 O446 2.297 . S
Cd436 O447 2.439 . S
O437 Cd436 2.240 . S
O437 C442 1.279 . S
O438 Cd435 2.297 . S
O438 C440 1.247 . S
O439 Cd435 2.439 . S
O439 C440 1.208 . S
C440 O438 1.247 . S
C440 O439 1.208 . S
C441 O446 1.247 . S
C441 O447 1.208 . S
C442 O434 1.315 . S
C442 O437 1.279 . S
C443 O444 1.315 . S
C443 O445 1.279 . S
O444 Cd436 2.223 . S
O444 C443 1.315 . S
O445 Cd435 2.240 . S
O445 C443 1.279 . S
O446 Cd436 2.297 . S
O446 C441 1.247 . S
O447 Cd436 2.439 . S
O447 C441 1.208 . S
C448 C449 1.363 1_554 S
C448 C454 1.379 . S
C448 N456 1.356 . S
C449 C448 1.363 1_556 S
C449 C455 1.363 1_655 S
C450 C451 1.363 1_556 S
C450 C455 1.379 . S
C450 N457 1.356 . S
C451 C450 1.363 1_554 S
C451 C454 1.363 1_455 S
N452 C454 1.356 . S
N452 H464 0.984 . S
N452 H465 0.985 . S
N453 C455 1.356 . S
N453 H458 0.984 . S
N453 H459 0.985 . S
C454 C448 1.379 . S
C454 C451 1.363 1_655 S
C454 N452 1.356 . S
C455 C449 1.363 1_455 S
C455 C450 1.379 . S
C455 N453 1.356 . S
N456 C448 1.356 . S
N456 H462 0.984 . S
N456 H463 0.984 . S
N457 C450 1.356 . S
N457 H460 0.984 . S
N457 H461 0.985 . S
H458 N453 0.984 . S
H459 N453 0.985 . S
H460 N457 0.984 . S
H461 N457 0.985 . S
H462 N456 0.984 . S
H463 N456 0.984 . S
H464 N452 0.984 . S
H465 N452 0.985 . S
C466 C467 1.363 . S
C466 C472 1.379 . S
C466 N474 1.356 . S
C467 C466 1.363 . S
C467 C473 1.363 . S
C468 C469 1.363 . S
C468 C473 1.379 . S
C468 N475 1.356 . S
C469 C468 1.363 . S
C469 C472 1.363 . S
N470 C472 1.356 . S
N470 H482 0.984 . S
N470 H483 0.985 . S
N471 C473 1.356 . S
N471 H476 0.984 . S
N471 H477 0.985 . S
C472 C466 1.379 . S
C472 C469 1.363 . S
C472 N470 1.356 . S
C473 C467 1.363 . S
C473 C468 1.379 . S
C473 N471 1.356 . S
N474 C466 1.356 . S
N474 H480 0.984 . S
N474 H481 0.984 . S
N475 C468 1.356 . S
N475 H478 0.984 . S
N475 H479 0.985 . S
H476 N471 0.984 . S
H477 N471 0.985 . S
H478 N475 0.984 . S
H479 N475 0.985 . S
H480 N474 0.984 . S
H481 N474 0.984 . S
H482 N470 0.984 . S
H483 N470 0.985 . S
C484 C485 1.363 . S
C484 C490 1.379 . S
C484 N492 1.356 . S
C485 C484 1.363 . S
C485 C491 1.363 . S
C486 C487 1.363 . S
C486 C491 1.379 . S
C486 N493 1.356 . S
C487 C486 1.363 . S
C487 C490 1.363 . S
N488 C490 1.356 . S
N488 H500 0.984 . S
N488 H501 0.985 . S
N489 C491 1.356 . S
N489 H494 0.984 . S
N489 H495 0.985 . S
C490 C484 1.379 . S
C490 C487 1.363 . S
C490 N488 1.356 . S
C491 C485 1.363 . S
C491 C486 1.379 . S
C491 N489 1.356 . S
N492 C484 1.356 . S
N492 H498 0.984 . S
N492 H499 0.984 . S
N493 C486 1.356 . S
N493 H496 0.984 . S
N493 H497 0.985 . S
H494 N489 0.984 . S
H495 N489 0.985 . S
H496 N493 0.984 . S
H497 N493 0.985 . S
H498 N492 0.984 . S
H499 N492 0.984 . S
H500 N488 0.984 . S
H501 N488 0.985 . S
C502 C503 1.363 . S
C502 C508 1.379 . S
C502 N510 1.356 . S
C503 C502 1.363 . S
C503 C509 1.363 . S
C504 C505 1.363 . S
C504 C509 1.379 . S
C504 N511 1.356 . S
C505 C504 1.363 . S
C505 C508 1.363 . S
N506 C508 1.356 . S
N506 H518 0.984 . S
N506 H519 0.985 . S
N507 C509 1.356 . S
N507 H512 0.984 . S
N507 H513 0.985 . S
C508 C502 1.379 . S
C508 C505 1.363 . S
C508 N506 1.356 . S
C509 C503 1.363 . S
C509 C504 1.379 . S
C509 N507 1.356 . S
N510 C502 1.356 . S
N510 H516 0.984 . S
N510 H517 0.984 . S
N511 C504 1.356 . S
N511 H514 0.984 . S
N511 H515 0.985 . S
H512 N507 0.984 . S
H513 N507 0.985 . S
H514 N511 0.984 . S
H515 N511 0.985 . S
H516 N510 0.984 . S
H517 N510 0.984 . S
H518 N506 0.984 . S
H519 N506 0.985 . S
C520 C521 1.363 1_455 S
C520 C526 1.379 . S
C520 N528 1.356 . S
C521 C520 1.363 1_655 S
C521 C527 1.363 . S
C522 C523 1.363 1_655 S
C522 C527 1.379 . S
C522 N529 1.356 . S
C523 C522 1.363 1_455 S
C523 C526 1.363 . S
N524 C526 1.356 . S
N524 H536 0.984 . S
N524 H537 0.985 . S
N525 C527 1.356 . S
N525 H530 0.984 . S
N525 H531 0.985 . S
C526 C520 1.379 . S
C526 C523 1.363 . S
C526 N524 1.356 . S
C527 C521 1.363 . S
C527 C522 1.379 . S
C527 N525 1.356 . S
N528 C520 1.356 . S
N528 H534 0.984 . S
N528 H535 0.984 1_455 S
N529 C522 1.356 . S
N529 H532 0.984 1_655 S
N529 H533 0.985 . S
H530 N525 0.984 . S
H531 N525 0.985 . S
H532 N529 0.984 1_455 S
H533 N529 0.985 . S
H534 N528 0.984 . S
H535 N528 0.984 1_655 S
H536 N524 0.984 . S
H537 N524 0.985 . S
C538 C539 1.363 . S
C538 C544 1.379 . S
C538 N546 1.356 . S
C539 C538 1.363 . S
C539 C545 1.363 . S
C540 C541 1.363 . S
C540 C545 1.379 . S
C540 N547 1.356 . S
C541 C540 1.363 . S
C541 C544 1.363 . S
N542 C544 1.356 . S
N542 H554 0.984 . S
N542 H555 0.985 . S
N543 C545 1.356 . S
N543 H548 0.984 . S
N543 H549 0.985 . S
C544 C538 1.379 . S
C544 C541 1.363 . S
C544 N542 1.356 . S
C545 C539 1.363 . S
C545 C540 1.379 . S
C545 N543 1.356 . S
N546 C538 1.356 . S
N546 H552 0.984 . S
N546 H553 0.984 . S
N547 C540 1.356 . S
N547 H550 0.984 . S
N547 H551 0.985 . S
H548 N543 0.984 . S
H549 N543 0.985 . S
H550 N547 0.984 . S
H551 N547 0.985 . S
H552 N546 0.984 . S
H553 N546 0.984 . S
H554 N542 0.984 . S
H555 N542 0.985 . S
C556 C557 1.363 . S
C556 C562 1.379 . S
C556 N564 1.356 . S
C557 C556 1.363 . S
C557 C563 1.363 1_556 S
C558 C559 1.363 . S
C558 C563 1.379 . S
C558 N565 1.356 . S
C559 C558 1.363 . S
C559 C562 1.363 1_554 S
N560 C562 1.356 . S
N560 H572 0.984 . S
N560 H573 0.985 . S
N561 C563 1.356 . S
N561 H566 0.984 . S
N561 H567 0.985 . S
C562 C556 1.379 . S
C562 C559 1.363 1_556 S
C562 N560 1.356 . S
C563 C557 1.363 1_554 S
C563 C558 1.379 . S
C563 N561 1.356 . S
N564 C556 1.356 . S
N564 H570 0.984 . S
N564 H571 0.984 . S
N565 C558 1.356 . S
N565 H568 0.984 . S
N565 H569 0.985 . S
H566 N561 0.984 . S
H567 N561 0.985 . S
H568 N565 0.984 . S
H569 N565 0.985 . S
H570 N564 0.984 . S
H571 N564 0.984 . S
H572 N560 0.984 . S
H573 N560 0.985 . S
C574 C575 1.363 . S
C574 C580 1.379 . S
C574 N582 1.356 . S
C575 C574 1.363 . S
C575 C581 1.363 . S
C576 C577 1.363 . S
C576 C581 1.379 . S
C576 N583 1.356 . S
C577 C576 1.363 . S
C577 C580 1.363 . S
N578 C580 1.356 . S
N578 H590 0.984 . S
N578 H591 0.985 . S
N579 C581 1.356 . S
N579 H584 0.984 . S
N579 H585 0.985 . S
C580 C574 1.379 . S
C580 C577 1.363 . S
C580 N578 1.356 . S
C581 C575 1.363 . S
C581 C576 1.379 . S
C581 N579 1.356 . S
N582 C574 1.356 . S
N582 H588 0.984 . S
N582 H589 0.984 . S
N583 C576 1.356 . S
N583 H586 0.984 . S
N583 H587 0.985 . S
H584 N579 0.984 . S
H585 N579 0.985 . S
H586 N583 0.984 . S
H587 N583 0.985 . S
H588 N582 0.984 . S
H589 N582 0.984 . S
H590 N578 0.984 . S
H591 N578 0.985 . S
C592 C593 1.363 . S
C592 C598 1.379 . S
C592 N600 1.356 . S
C593 C592 1.363 . S
C593 C599 1.363 . S
C594 C595 1.363 . S
C594 C599 1.379 . S
C594 N601 1.356 . S
C595 C594 1.363 . S
C595 C598 1.363 . S
N596 C598 1.356 . S
N596 H608 0.984 . S
N596 H609 0.985 . S
N597 C599 1.356 . S
N597 H602 0.984 . S
N597 H603 0.985 . S
C598 C592 1.379 . S
C598 C595 1.363 . S
C598 N596 1.356 . S
C599 C593 1.363 . S
C599 C594 1.379 . S
C599 N597 1.356 . S
N600 C592 1.356 . S
N600 H606 0.984 . S
N600 H607 0.984 . S
N601 C594 1.356 . S
N601 H604 0.984 . S
N601 H605 0.985 . S
H602 N597 0.984 . S
H603 N597 0.985 . S
H604 N601 0.984 . S
H605 N601 0.985 . S
H606 N600 0.984 . S
H607 N600 0.984 . S
H608 N596 0.984 . S
H609 N596 0.985 . S
C610 C611 1.363 . S
C610 C616 1.379 . S
C610 N618 1.356 . S
C611 C610 1.363 . S
C611 C617 1.363 . S
C612 C613 1.363 . S
C612 C617 1.379 . S
C612 N619 1.356 . S
C613 C612 1.363 . S
C613 C616 1.363 . S
N614 C616 1.356 . S
N614 H626 0.984 . S
N614 H627 0.985 . S
N615 C617 1.356 . S
N615 H620 0.984 . S
N615 H621 0.985 . S
C616 C610 1.379 . S
C616 C613 1.363 . S
C616 N614 1.356 . S
C617 C611 1.363 . S
C617 C612 1.379 . S
C617 N615 1.356 . S
N618 C610 1.356 . S
N618 H624 0.984 . S
N618 H625 0.984 . S
N619 C612 1.356 . S
N619 H622 0.984 . S
N619 H623 0.985 . S
H620 N615 0.984 . S
H621 N615 0.985 . S
H622 N619 0.984 . S
H623 N619 0.985 . S
H624 N618 0.984 . S
H625 N618 0.984 . S
H626 N614 0.984 . S
H627 N614 0.985 . S
C628 C629 1.363 . S
C628 C634 1.379 . S
C628 N636 1.356 . S
C629 C628 1.363 . S
C629 C635 1.363 . S
C630 C631 1.363 . S
C630 C635 1.379 . S
C630 N637 1.356 . S
C631 C630 1.363 . S
C631 C634 1.363 . S
N632 C634 1.356 . S
N632 H644 0.984 . S
N632 H645 0.985 . S
N633 C635 1.356 . S
N633 H638 0.984 . S
N633 H639 0.985 . S
C634 C628 1.379 . S
C634 C631 1.363 . S
C634 N632 1.356 . S
C635 C629 1.363 . S
C635 C630 1.379 . S
C635 N633 1.356 . S
N636 C628 1.356 . S
N636 H642 0.984 . S
N636 H643 0.984 . S
N637 C630 1.356 . S
N637 H640 0.984 . S
N637 H641 0.985 . S
H638 N633 0.984 . S
H639 N633 0.985 . S
H640 N637 0.984 . S
H641 N637 0.985 . S
H642 N636 0.984 . S
H643 N636 0.984 . S
H644 N632 0.984 . S
H645 N632 0.985 . S
C646 C647 1.363 . S
C646 C652 1.379 . S
C646 N654 1.356 . S
C647 C646 1.363 . S
C647 C653 1.363 . S
C648 C649 1.363 . S
C648 C653 1.379 . S
C648 N655 1.356 . S
C649 C648 1.363 . S
C649 C652 1.363 . S
N650 C652 1.356 . S
N650 H662 0.984 . S
N650 H663 0.985 . S
N651 C653 1.356 . S
N651 H656 0.984 . S
N651 H657 0.985 . S
C652 C646 1.379 . S
C652 C649 1.363 . S
C652 N650 1.356 . S
C653 C647 1.363 . S
C653 C648 1.379 . S
C653 N651 1.356 . S
N654 C646 1.356 . S
N654 H660 0.984 . S
N654 H661 0.984 . S
N655 C648 1.356 . S
N655 H658 0.984 . S
N655 H659 0.985 . S
H656 N651 0.984 . S
H657 N651 0.985 . S
H658 N655 0.984 . S
H659 N655 0.985 . S
H660 N654 0.984 . S
H661 N654 0.984 . S
H662 N650 0.984 . S
H663 N650 0.985 . S
C664 C665 1.363 . S
C664 C670 1.379 1_565 S
C664 N672 1.356 . S
C665 C664 1.363 . S
C665 C671 1.363 . S
C666 C667 1.363 . S
C666 C671 1.379 1_545 S
C666 N673 1.356 . S
C667 C666 1.363 . S
C667 C670 1.363 . S
N668 C670 1.356 . S
N668 H680 0.984 . S
N668 H681 0.985 . S
N669 C671 1.356 . S
N669 H674 0.984 . S
N669 H675 0.985 . S
C670 C664 1.379 1_545 S
C670 C667 1.363 . S
C670 N668 1.356 . S
C671 C665 1.363 . S
C671 C666 1.379 1_565 S
C671 N669 1.356 . S
N672 C664 1.356 . S
N672 H678 0.984 . S
N672 H679 0.984 . S
N673 C666 1.356 . S
N673 H676 0.984 . S
N673 H677 0.985 . S
H674 N669 0.984 . S
H675 N669 0.985 . S
H676 N673 0.984 . S
H677 N673 0.985 . S
H678 N672 0.984 . S
H679 N672 0.984 . S
H680 N668 0.984 . S
H681 N668 0.985 . S
C682 C683 1.363 1_655 S
C682 C688 1.379 1_565 S
C682 N690 1.356 . S
C683 C682 1.363 1_455 S
C683 C689 1.363 1_556 S
C684 C685 1.363 1_455 S
C684 C689 1.379 1_545 S
C684 N691 1.356 . S
C685 C684 1.363 1_655 S
C685 C688 1.363 1_554 S
N686 C688 1.356 . S
N686 H698 0.984 . S
N686 H699 0.973 1_556 S
N687 C689 1.356 . S
N687 H692 0.973 1_554 S
N687 H693 0.985 . S
C688 C682 1.379 1_545 S
C688 C685 1.363 1_556 S
C688 N686 1.356 . S
C689 C683 1.363 1_554 S
C689 C684 1.379 1_565 S
C689 N687 1.356 . S
N690 C682 1.356 . S
N690 H696 0.984 . S
N690 H697 0.984 . S
N691 C684 1.356 . S
N691 H694 0.984 . S
N691 H695 0.985 . S
H692 N687 0.973 1_556 S
H693 N687 0.985 . S
H694 N691 0.984 . S
H695 N691 0.985 . S
H696 N690 0.984 . S
H697 N690 0.984 . S
H698 N686 0.984 . S
H699 N686 0.973 1_554 S
C700 C701 1.363 . S
C700 C706 1.379 1_545 S
C700 N708 1.356 . S
C701 C700 1.363 . S
C701 C707 1.363 1_556 S
C702 C703 1.363 . S
C702 C707 1.379 1_565 S
C702 N709 1.356 . S
C703 C702 1.363 . S
C703 C706 1.363 1_554 S
N704 C706 1.356 . S
N704 H716 0.984 . S
N704 H717 0.985 . S
N705 C707 1.356 . S
N705 H710 0.984 . S
N705 H711 0.985 . S
C706 C700 1.379 1_565 S
C706 C703 1.363 1_556 S
C706 N704 1.356 . S
C707 C701 1.363 1_554 S
C707 C702 1.379 1_545 S
C707 N705 1.356 . S
N708 C700 1.356 . S
N708 H714 0.984 . S
N708 H715 0.984 . S
N709 C702 1.356 . S
N709 H712 0.984 . S
N709 H713 0.985 . S
H710 N705 0.984 . S
H711 N705 0.985 . S
H712 N709 0.984 . S
H713 N709 0.985 . S
H714 N708 0.984 . S
H715 N708 0.984 . S
H716 N704 0.984 . S
H717 N704 0.985 . S
C718 C719 1.363 . S
C718 C724 1.379 1_445 S
C718 N726 1.356 . S
C719 C718 1.363 . S
C719 C725 1.363 . S
C720 C721 1.363 . S
C720 C725 1.379 1_665 S
C720 N727 1.356 . S
C721 C720 1.363 . S
C721 C724 1.363 . S
N722 C724 1.356 . S
N722 H734 0.984 . S
N722 H735 0.985 . S
N723 C725 1.356 . S
N723 H728 0.984 . S
N723 H729 0.985 . S
C724 C718 1.379 1_665 S
C724 C721 1.363 . S
C724 N722 1.356 . S
C725 C719 1.363 . S
C725 C720 1.379 1_445 S
C725 N723 1.356 . S
N726 C718 1.356 . S
N726 H732 0.984 . S
N726 H733 0.984 . S
N727 C720 1.356 . S
N727 H730 0.984 . S
N727 H731 0.985 . S
H728 N723 0.984 . S
H729 N723 0.985 . S
H730 N727 0.984 . S
H731 N727 0.985 . S
H732 N726 0.984 . S
H733 N726 0.984 . S
H734 N722 0.984 . S
H735 N722 0.985 . S
C736 C737 1.363 1_455 S
C736 C742 1.379 . S
C736 N744 1.356 . S
C737 C736 1.363 1_655 S
C737 C743 1.363 . S
C738 C739 1.363 1_655 S
C738 C743 1.379 . S
C738 N745 1.356 . S
C739 C738 1.363 1_455 S
C739 C742 1.363 . S
N740 C742 1.356 . S
N740 H752 0.984 . S
N740 H753 0.985 . S
N741 C743 1.356 . S
N741 H746 0.984 . S
N741 H747 0.985 . S
C742 C736 1.379 . S
C742 C739 1.363 . S
C742 N740 1.356 . S
C743 C737 1.363 . S
C743 C738 1.379 . S
C743 N741 1.356 . S
N744 C736 1.356 . S
N744 H750 0.984 . S
N744 H751 0.984 1_455 S
N745 C738 1.356 . S
N745 H748 0.984 1_655 S
N745 H749 0.985 . S
H746 N741 0.984 . S
H747 N741 0.985 . S
H748 N745 0.984 1_455 S
H749 N745 0.985 . S
H750 N744 0.984 . S
H751 N744 0.984 1_655 S
H752 N740 0.984 . S
H753 N740 0.985 . S
C754 C755 1.363 . S
C754 C760 1.379 1_455 S
C754 N762 1.356 . S
C755 C754 1.363 . S
C755 C761 1.363 . S
C756 C757 1.363 . S
C756 C761 1.379 1_655 S
C756 N763 1.356 . S
C757 C756 1.363 . S
C757 C760 1.363 . S
N758 C760 1.356 . S
N758 H770 0.984 . S
N758 H771 0.985 . S
N759 C761 1.356 . S
N759 H764 0.984 . S
N759 H765 0.985 . S
C760 C754 1.379 1_655 S
C760 C757 1.363 . S
C760 N758 1.356 . S
C761 C755 1.363 . S
C761 C756 1.379 1_455 S
C761 N759 1.356 . S
N762 C754 1.356 . S
N762 H768 0.984 . S
N762 H769 0.984 . S
N763 C756 1.356 . S
N763 H766 0.984 . S
N763 H767 0.985 . S
H764 N759 0.984 . S
H765 N759 0.985 . S
H766 N763 0.984 . S
H767 N763 0.985 . S
H768 N762 0.984 . S
H769 N762 0.984 . S
H770 N758 0.984 . S
H771 N758 0.985 . S
C772 C773 1.363 . S
C772 C778 1.379 . S
C772 N780 1.356 . S
C773 C772 1.363 . S
C773 C779 1.363 . S
C774 C775 1.363 . S
C774 C779 1.379 . S
C774 N781 1.356 . S
C775 C774 1.363 . S
C775 C778 1.363 . S
N776 C778 1.356 . S
N776 H788 0.984 . S
N776 H789 0.985 . S
N777 C779 1.356 . S
N777 H782 0.984 . S
N777 H783 0.985 . S
C778 C772 1.379 . S
C778 C775 1.363 . S
C778 N776 1.356 . S
C779 C773 1.363 . S
C779 C774 1.379 . S
C779 N777 1.356 . S
N780 C772 1.356 . S
N780 H786 0.984 . S
N780 H787 0.984 . S
N781 C774 1.356 . S
N781 H784 0.984 . S
N781 H785 0.985 . S
H782 N777 0.984 . S
H783 N777 0.985 . S
H784 N781 0.984 . S
H785 N781 0.985 . S
H786 N780 0.984 . S
H787 N780 0.984 . S
H788 N776 0.984 . S
H789 N776 0.985 . S
C790 C791 1.363 . S
C790 C796 1.379 . S
C790 N798 1.356 . S
C791 C790 1.363 . S
C791 C797 1.363 . S
C792 C793 1.363 . S
C792 C797 1.379 . S
C792 N799 1.356 . S
C793 C792 1.363 . S
C793 C796 1.363 . S
N794 C796 1.356 . S
N794 H806 0.984 . S
N794 H807 0.985 . S
N795 C797 1.356 . S
N795 H800 0.984 . S
N795 H801 0.985 . S
C796 C790 1.379 . S
C796 C793 1.363 . S
C796 N794 1.356 . S
C797 C791 1.363 . S
C797 C792 1.379 . S
C797 N795 1.356 . S
N798 C790 1.356 . S
N798 H804 0.984 . S
N798 H805 0.984 . S
N799 C792 1.356 . S
N799 H802 0.984 . S
N799 H803 0.985 . S
H800 N795 0.984 . S
H801 N795 0.985 . S
H802 N799 0.984 . S
H803 N799 0.985 . S
H804 N798 0.984 . S
H805 N798 0.984 . S
H806 N794 0.984 . S
H807 N794 0.985 . S
C808 C809 1.363 1_455 S
C808 C814 1.379 . S
C808 N816 1.356 . S
C809 C808 1.363 1_655 S
C809 C815 1.363 . S
C810 C811 1.363 1_655 S
C810 C815 1.379 . S
C810 N817 1.356 . S
C811 C810 1.363 1_455 S
C811 C814 1.363 . S
N812 C814 1.356 . S
N812 H824 0.984 . S
N812 H825 0.985 . S
N813 C815 1.356 . S
N813 H818 0.984 . S
N813 H819 0.985 . S
C814 C808 1.379 . S
C814 C811 1.363 . S
C814 N812 1.356 . S
C815 C809 1.363 . S
C815 C810 1.379 . S
C815 N813 1.356 . S
N816 C808 1.356 . S
N816 H822 0.984 . S
N816 H823 0.984 1_455 S
N817 C810 1.356 . S
N817 H820 0.984 1_655 S
N817 H821 0.985 . S
H818 N813 0.984 . S
H819 N813 0.985 . S
H820 N817 0.984 1_455 S
H821 N817 0.985 . S
H822 N816 0.984 . S
H823 N816 0.984 1_655 S
H824 N812 0.984 . S
H825 N812 0.985 . S
C826 C827 1.363 . S
C826 C832 1.379 . S
C826 N834 1.356 . S
C827 C826 1.363 . S
C827 C833 1.363 . S
C828 C829 1.363 . S
C828 C833 1.379 . S
C828 N835 1.356 . S
C829 C828 1.363 . S
C829 C832 1.363 . S
N830 C832 1.356 . S
N830 H842 0.984 . S
N830 H843 0.985 . S
N831 C833 1.356 . S
N831 H836 0.984 . S
N831 H837 0.985 . S
C832 C826 1.379 . S
C832 C829 1.363 . S
C832 N830 1.356 . S
C833 C827 1.363 . S
C833 C828 1.379 . S
C833 N831 1.356 . S
N834 C826 1.356 . S
N834 H840 0.984 . S
N834 H841 0.984 . S
N835 C828 1.356 . S
N835 H838 0.984 . S
N835 H839 0.985 . S
H836 N831 0.984 . S
H837 N831 0.985 . S
H838 N835 0.984 . S
H839 N835 0.985 . S
H840 N834 0.984 . S
H841 N834 0.984 . S
H842 N830 0.984 . S
H843 N830 0.985 . S
C844 C845 1.363 . S
C844 C850 1.379 . S
C844 N852 1.356 . S
C845 C844 1.363 . S
C845 C851 1.363 . S
C846 C847 1.363 . S
C846 C851 1.379 . S
C846 N853 1.356 . S
C847 C846 1.363 . S
C847 C850 1.363 . S
N848 C850 1.356 . S
N848 H860 0.984 . S
N848 H861 0.985 . S
N849 C851 1.356 . S
N849 H854 0.984 . S
N849 H855 0.985 . S
C850 C844 1.379 . S
C850 C847 1.363 . S
C850 N848 1.356 . S
C851 C845 1.363 . S
C851 C846 1.379 . S
C851 N849 1.356 . S
N852 C844 1.356 . S
N852 H858 0.984 . S
N852 H859 0.984 . S
N853 C846 1.356 . S
N853 H856 0.984 . S
N853 H857 0.985 . S
H854 N849 0.984 . S
H855 N849 0.985 . S
H856 N853 0.984 . S
H857 N853 0.985 . S
H858 N852 0.984 . S
H859 N852 0.984 . S
H860 N848 0.984 . S
H861 N848 0.985 . S
C862 C863 1.363 . S
C862 C868 1.379 1_455 S
C862 N870 1.356 . S
C863 C862 1.363 . S
C863 C869 1.363 . S
C864 C865 1.363 . S
C864 C869 1.379 1_655 S
C864 N871 1.356 . S
C865 C864 1.363 . S
C865 C868 1.363 . S
N866 C868 1.356 . S
N866 H878 0.984 . S
N866 H879 0.985 . S
N867 C869 1.356 . S
N867 H872 0.984 . S
N867 H873 0.985 . S
C868 C862 1.379 1_655 S
C868 C865 1.363 . S
C868 N866 1.356 . S
C869 C863 1.363 . S
C869 C864 1.379 1_455 S
C869 N867 1.356 . S
N870 C862 1.356 . S
N870 H876 0.984 . S
N870 H877 0.984 . S
N871 C864 1.356 . S
N871 H874 0.984 . S
N871 H875 0.985 . S
H872 N867 0.984 . S
H873 N867 0.985 . S
H874 N871 0.984 . S
H875 N871 0.985 . S
H876 N870 0.984 . S
H877 N870 0.984 . S
H878 N866 0.984 . S
H879 N866 0.985 . S
C880 C881 1.363 . S
C880 C886 1.379 . S
C880 N888 1.356 . S
C881 C880 1.363 . S
C881 C887 1.363 1_655 S
C882 C883 1.363 . S
C882 C887 1.379 . S
C882 N889 1.356 . S
C883 C882 1.363 . S
C883 C886 1.363 1_455 S
N884 C886 1.356 . S
N884 H896 0.984 . S
N884 H897 0.985 1_655 S
N885 C887 1.356 . S
N885 H890 0.984 1_455 S
N885 H891 0.985 . S
C886 C880 1.379 . S
C886 C883 1.363 1_655 S
C886 N884 1.356 . S
C887 C881 1.363 1_455 S
C887 C882 1.379 . S
C887 N885 1.356 . S
N888 C880 1.356 . S
N888 H894 0.984 . S
N888 H895 0.984 . S
N889 C882 1.356 . S
N889 H892 0.984 . S
N889 H893 0.985 . S
H890 N885 0.984 1_655 S
H891 N885 0.985 . S
H892 N889 0.984 . S
H893 N889 0.985 . S
H894 N888 0.984 . S
H895 N888 0.984 . S
H896 N884 0.984 . S
H897 N884 0.985 1_455 S
C898 C899 1.363 . S
C898 C904 1.379 1_655 S
C898 N906 1.356 . S
C899 C898 1.363 . S
C899 C905 1.363 . S
C900 C901 1.363 . S
C900 C905 1.379 1_455 S
C900 N907 1.356 . S
C901 C900 1.363 . S
C901 C904 1.363 . S
N902 C904 1.356 . S
N902 H914 0.984 . S
N902 H915 0.985 . S
N903 C905 1.356 . S
N903 H908 0.984 . S
N903 H909 0.985 . S
C904 C898 1.379 1_455 S
C904 C901 1.363 . S
C904 N902 1.356 . S
C905 C899 1.363 . S
C905 C900 1.379 1_655 S
C905 N903 1.356 . S
N906 C898 1.356 . S
N906 H912 0.984 . S
N906 H913 0.984 . S
N907 C900 1.356 . S
N907 H910 0.984 . S
N907 H911 0.985 . S
H908 N903 0.984 . S
H909 N903 0.985 . S
H910 N907 0.984 . S
H911 N907 0.985 . S
H912 N906 0.984 . S
H913 N906 0.984 . S
H914 N902 0.984 . S
H915 N902 0.985 . S
C916 C917 1.363 . S
C916 C922 1.379 . S
C916 N924 1.356 . S
C917 C916 1.363 . S
C917 C923 1.363 . S
C918 C919 1.363 . S
C918 C923 1.379 . S
C918 N925 1.356 . S
C919 C918 1.363 . S
C919 C922 1.363 . S
N920 C922 1.356 . S
N920 H932 0.984 . S
N920 H933 0.985 . S
N921 C923 1.356 . S
N921 H926 0.984 . S
N921 H927 0.985 . S
C922 C916 1.379 . S
C922 C919 1.363 . S
C922 N920 1.356 . S
C923 C917 1.363 . S
C923 C918 1.379 . S
C923 N921 1.356 . S
N924 C916 1.356 . S
N924 H930 0.984 . S
N924 H931 0.984 . S
N925 C918 1.356 . S
N925 H928 0.984 . S
N925 H929 0.985 . S
H926 N921 0.984 . S
H927 N921 0.985 . S
H928 N925 0.984 . S
H929 N925 0.985 . S
H930 N924 0.984 . S
H931 N924 0.984 . S
H932 N920 0.984 . S
H933 N920 0.985 . S
C934 C935 1.363 . S
C934 C940 1.379 . S
C934 N942 1.356 . S
C935 C934 1.363 . S
C935 C941 1.363 . S
C936 C937 1.363 . S
C936 C941 1.379 . S
C936 N943 1.356 . S
C937 C936 1.363 . S
C937 C940 1.363 . S
N938 C940 1.356 . S
N938 H950 0.984 . S
N938 H951 0.985 . S
N939 C941 1.356 . S
N939 H944 0.984 . S
N939 H945 0.985 . S
C940 C934 1.379 . S
C940 C937 1.363 . S
C940 N938 1.356 . S
C941 C935 1.363 . S
C941 C936 1.379 . S
C941 N939 1.356 . S
N942 C934 1.356 . S
N942 H948 0.984 . S
N942 H949 0.984 . S
N943 C936 1.356 . S
N943 H946 0.984 . S
N943 H947 0.985 . S
H944 N939 0.984 . S
H945 N939 0.985 . S
H946 N943 0.984 . S
H947 N943 0.985 . S
H948 N942 0.984 . S
H949 N942 0.984 . S
H950 N938 0.984 . S
H951 N938 0.985 . S
C952 C953 1.363 1_455 S
C952 C958 1.379 . S
C952 N960 1.356 . S
C953 C952 1.363 1_655 S
C953 C959 1.363 . S
C954 C955 1.363 1_655 S
C954 C959 1.379 . S
C954 N961 1.356 . S
C955 C954 1.363 1_455 S
C955 C958 1.363 . S
N956 C958 1.356 . S
N956 H968 0.984 . S
N956 H969 0.985 . S
N957 C959 1.356 . S
N957 H962 0.984 . S
N957 H963 0.985 . S
C958 C952 1.379 . S
C958 C955 1.363 . S
C958 N956 1.356 . S
C959 C953 1.363 . S
C959 C954 1.379 . S
C959 N957 1.356 . S
N960 C952 1.356 . S
N960 H966 0.984 . S
N960 H967 0.984 1_455 S
N961 C954 1.356 . S
N961 H964 0.984 1_655 S
N961 H965 0.985 . S
H962 N957 0.984 . S
H963 N957 0.985 . S
H964 N961 0.984 1_455 S
H965 N961 0.985 . S
H966 N960 0.984 . S
H967 N960 0.984 1_655 S
H968 N956 0.984 . S
H969 N956 0.985 . S
C970 C971 1.363 . S
C970 C976 1.379 . S
C970 N978 1.356 . S
C971 C970 1.363 . S
C971 C977 1.363 . S
C972 C973 1.363 . S
C972 C977 1.379 . S
C972 N979 1.356 . S
C973 C972 1.363 . S
C973 C976 1.363 . S
N974 C976 1.356 . S
N974 H986 0.984 . S
N974 H987 0.985 . S
N975 C977 1.356 . S
N975 H980 0.984 . S
N975 H981 0.985 . S
C976 C970 1.379 . S
C976 C973 1.363 . S
C976 N974 1.356 . S
C977 C971 1.363 . S
C977 C972 1.379 . S
C977 N975 1.356 . S
N978 C970 1.356 . S
N978 H984 0.984 . S
N978 H985 0.984 . S
N979 C972 1.356 . S
N979 H982 0.984 . S
N979 H983 0.985 . S
H980 N975 0.984 . S
H981 N975 0.985 . S
H982 N979 0.984 . S
H983 N979 0.985 . S
H984 N978 0.984 . S
H985 N978 0.984 . S
H986 N974 0.984 . S
H987 N974 0.985 . S
C988 C989 1.363 . S
C988 C994 1.379 . S
C988 N996 1.356 . S
C989 C988 1.363 . S
C989 C995 1.363 . S
C990 C991 1.363 . S
C990 C995 1.379 . S
C990 N997 1.356 . S
C991 C990 1.363 . S
C991 C994 1.363 . S
N992 C994 1.356 . S
N992 H1004 0.984 . S
N992 H1005 0.985 . S
N993 C995 1.356 . S
N993 H998 0.984 . S
N993 H999 0.985 . S
C994 C988 1.379 . S
C994 C991 1.363 . S
C994 N992 1.356 . S
C995 C989 1.363 . S
C995 C990 1.379 . S
C995 N993 1.356 . S
N996 C988 1.356 . S
N996 H1002 0.984 . S
N996 H1003 0.984 . S
N997 C990 1.356 . S
N997 H1000 0.984 . S
N997 H1001 0.985 . S
H998 N993 0.984 . S
H999 N993 0.985 . S
H1000 N997 0.984 . S
H1001 N997 0.985 . S
H1002 N996 0.984 . S
H1003 N996 0.984 . S
H1004 N992 0.984 . S
H1005 N992 0.985 . S
C1006 C1007 1.363 . S
C1006 C1012 1.379 1_655 S
C1006 N1014 1.356 . S
C1007 C1006 1.363 . S
C1007 C1013 1.363 . S
C1008 C1009 1.363 . S
C1008 C1013 1.379 1_455 S
C1008 N1015 1.356 . S
C1009 C1008 1.363 . S
C1009 C1012 1.363 . S
N1010 C1012 1.356 . S
N1010 H1022 0.984 . S
N1010 H1023 0.985 . S
N1011 C1013 1.356 . S
N1011 H1016 0.984 . S
N1011 H1017 0.985 . S
C1012 C1006 1.379 1_455 S
C1012 C1009 1.363 . S
C1012 N1010 1.356 . S
C1013 C1007 1.363 . S
C1013 C1008 1.379 1_655 S
C1013 N1011 1.356 . S
N1014 C1006 1.356 . S
N1014 H1020 0.984 . S
N1014 H1021 0.984 . S
N1015 C1008 1.356 . S
N1015 H1018 0.984 . S
N1015 H1019 0.985 . S
H1016 N1011 0.984 . S
H1017 N1011 0.985 . S
H1018 N1015 0.984 . S
H1019 N1015 0.985 . S
H1020 N1014 0.984 . S
H1021 N1014 0.984 . S
H1022 N1010 0.984 . S
H1023 N1010 0.985 . S
C1024 C1025 1.363 1_554 S
C1024 C1030 1.379 . S
C1024 N1032 1.356 . S
C1025 C1024 1.363 1_556 S
C1025 C1031 1.363 . S
C1026 C1027 1.363 1_556 S
C1026 C1031 1.379 . S
C1026 N1033 1.356 . S
C1027 C1026 1.363 1_554 S
C1027 C1030 1.363 . S
N1028 C1030 1.356 . S
N1028 H1040 0.984 . S
N1028 H1041 0.985 . S
N1029 C1031 1.356 . S
N1029 H1034 0.984 . S
N1029 H1035 0.985 . S
C1030 C1024 1.379 . S
C1030 C1027 1.363 . S
C1030 N1028 1.356 . S
C1031 C1025 1.363 . S
C1031 C1026 1.379 . S
C1031 N1029 1.356 . S
N1032 C1024 1.356 . S
N1032 H1038 0.984 . S
N1032 H1039 0.984 1_554 S
N1033 C1026 1.356 . S
N1033 H1036 0.984 1_556 S
N1033 H1037 0.985 . S
H1034 N1029 0.984 . S
H1035 N1029 0.985 . S
H1036 N1033 0.984 1_554 S
H1037 N1033 0.985 . S
H1038 N1032 0.984 . S
H1039 N1032 0.984 1_556 S
H1040 N1028 0.984 . S
H1041 N1028 0.985 . S
C1042 C1043 1.363 . S
C1042 C1048 1.379 1_545 S
C1042 N1050 1.356 . S
C1043 C1042 1.363 . S
C1043 C1049 1.363 . S
C1044 C1045 1.363 . S
C1044 C1049 1.379 1_565 S
C1044 N1051 1.356 . S
C1045 C1044 1.363 . S
C1045 C1048 1.363 . S
N1046 C1048 1.356 . S
N1046 H1058 0.984 . S
N1046 H1059 0.985 . S
N1047 C1049 1.356 . S
N1047 H1052 0.984 . S
N1047 H1053 0.985 . S
C1048 C1042 1.379 1_565 S
C1048 C1045 1.363 . S
C1048 N1046 1.356 . S
C1049 C1043 1.363 . S
C1049 C1044 1.379 1_545 S
C1049 N1047 1.356 . S
N1050 C1042 1.356 . S
N1050 H1056 0.984 . S
N1050 H1057 0.984 . S
N1051 C1044 1.356 . S
N1051 H1054 0.984 . S
N1051 H1055 0.985 . S
H1052 N1047 0.984 . S
H1053 N1047 0.985 . S
H1054 N1051 0.984 . S
H1055 N1051 0.985 . S
H1056 N1050 0.984 . S
H1057 N1050 0.984 . S
H1058 N1046 0.984 . S
H1059 N1046 0.985 . S
C1060 C1061 1.363 . S
C1060 C1066 1.379 . S
C1060 N1068 1.356 . S
C1061 C1060 1.363 . S
C1061 C1067 1.363 . S
C1062 C1063 1.363 . S
C1062 C1067 1.379 . S
C1062 N1069 1.356 . S
C1063 C1062 1.363 . S
C1063 C1066 1.363 . S
N1064 C1066 1.356 . S
N1064 H1076 0.984 . S
N1064 H1077 0.985 . S
N1065 C1067 1.356 . S
N1065 H1070 0.984 . S
N1065 H1071 0.985 . S
C1066 C1060 1.379 . S
C1066 C1063 1.363 . S
C1066 N1064 1.356 . S
C1067 C1061 1.363 . S
C1067 C1062 1.379 . S
C1067 N1065 1.356 . S
N1068 C1060 1.356 . S
N1068 H1074 0.984 . S
N1068 H1075 0.984 . S
N1069 C1062 1.356 . S
N1069 H1072 0.984 . S
N1069 H1073 0.985 . S
H1070 N1065 0.984 . S
H1071 N1065 0.985 . S
H1072 N1069 0.984 . S
H1073 N1069 0.985 . S
H1074 N1068 0.984 . S
H1075 N1068 0.984 . S
H1076 N1064 0.984 . S
H1077 N1064 0.985 . S
C1078 C1079 1.363 . S
C1078 C1084 1.379 1_545 S
C1078 N1086 1.356 . S
C1079 C1078 1.363 . S
C1079 C1085 1.363 . S
C1080 C1081 1.363 . S
C1080 C1085 1.379 1_565 S
C1080 N1087 1.356 . S
C1081 C1080 1.363 . S
C1081 C1084 1.363 . S
N1082 C1084 1.356 . S
N1082 H1094 0.984 . S
N1082 H1095 0.985 . S
N1083 C1085 1.356 . S
N1083 H1088 0.984 . S
N1083 H1089 0.985 . S
C1084 C1078 1.379 1_565 S
C1084 C1081 1.363 . S
C1084 N1082 1.356 . S
C1085 C1079 1.363 . S
C1085 C1080 1.379 1_545 S
C1085 N1083 1.356 . S
N1086 C1078 1.356 . S
N1086 H1092 0.984 . S
N1086 H1093 0.984 . S
N1087 C1080 1.356 . S
N1087 H1090 0.984 . S
N1087 H1091 0.985 . S
H1088 N1083 0.984 . S
H1089 N1083 0.985 . S
H1090 N1087 0.984 . S
H1091 N1087 0.985 . S
H1092 N1086 0.984 . S
H1093 N1086 0.984 . S
H1094 N1082 0.984 . S
H1095 N1082 0.985 . S
C1096 C1097 1.363 1_556 S
C1096 C1102 1.379 . S
C1096 N1104 1.356 . S
C1097 C1096 1.363 1_554 S
C1097 C1103 1.363 . S
C1098 C1099 1.363 1_554 S
C1098 C1103 1.379 . S
C1098 N1105 1.356 . S
C1099 C1098 1.363 1_556 S
C1099 C1102 1.363 . S
N1100 C1102 1.356 . S
N1100 H1112 0.984 . S
N1100 H1113 0.985 . S
N1101 C1103 1.356 . S
N1101 H1106 0.984 . S
N1101 H1107 0.985 . S
C1102 C1096 1.379 . S
C1102 C1099 1.363 . S
C1102 N1100 1.356 . S
C1103 C1097 1.363 . S
C1103 C1098 1.379 . S
C1103 N1101 1.356 . S
N1104 C1096 1.356 . S
N1104 H1110 0.984 . S
N1104 H1111 0.984 1_556 S
N1105 C1098 1.356 . S
N1105 H1108 0.984 1_554 S
N1105 H1109 0.985 . S
H1106 N1101 0.984 . S
H1107 N1101 0.985 . S
H1108 N1105 0.984 1_556 S
H1109 N1105 0.985 . S
H1110 N1104 0.984 . S
H1111 N1104 0.984 1_554 S
H1112 N1100 0.984 . S
H1113 N1100 0.985 . S
C1114 C1115 1.363 . S
C1114 C1120 1.379 1_565 S
C1114 N1122 1.356 . S
C1115 C1114 1.363 . S
C1115 C1121 1.363 . S
C1116 C1117 1.363 . S
C1116 C1121 1.379 1_545 S
C1116 N1123 1.356 . S
C1117 C1116 1.363 . S
C1117 C1120 1.363 . S
N1118 C1120 1.356 . S
N1118 H1130 0.984 . S
N1118 H1131 0.985 . S
N1119 C1121 1.356 . S
N1119 H1124 0.984 . S
N1119 H1125 0.985 . S
C1120 C1114 1.379 1_545 S
C1120 C1117 1.363 . S
C1120 N1118 1.356 . S
C1121 C1115 1.363 . S
C1121 C1116 1.379 1_565 S
C1121 N1119 1.356 . S
N1122 C1114 1.356 . S
N1122 H1128 0.984 . S
N1122 H1129 0.984 . S
N1123 C1116 1.356 . S
N1123 H1126 0.984 . S
N1123 H1127 0.985 . S
H1124 N1119 0.984 . S
H1125 N1119 0.985 . S
H1126 N1123 0.984 . S
H1127 N1123 0.985 . S
H1128 N1122 0.984 . S
H1129 N1122 0.984 . S
H1130 N1118 0.984 . S
H1131 N1118 0.985 . S
C1132 C1133 1.363 . S
C1132 C1138 1.379 . S
C1132 N1140 1.356 . S
C1133 C1132 1.363 . S
C1133 C1139 1.363 . S
C1134 C1135 1.363 . S
C1134 C1139 1.379 . S
C1134 N1141 1.356 . S
C1135 C1134 1.363 . S
C1135 C1138 1.363 . S
N1136 C1138 1.356 . S
N1136 H1148 0.984 . S
N1136 H1149 0.985 . S
N1137 C1139 1.356 . S
N1137 H1142 0.984 . S
N1137 H1143 0.985 . S
C1138 C1132 1.379 . S
C1138 C1135 1.363 . S
C1138 N1136 1.356 . S
C1139 C1133 1.363 . S
C1139 C1134 1.379 . S
C1139 N1137 1.356 . S
N1140 C1132 1.356 . S
N1140 H1146 0.984 . S
N1140 H1147 0.984 . S
N1141 C1134 1.356 . S
N1141 H1144 0.984 . S
N1141 H1145 0.985 . S
H1142 N1137 0.984 . S
H1143 N1137 0.985 . S
H1144 N1141 0.984 . S
H1145 N1141 0.985 . S
H1146 N1140 0.984 . S
H1147 N1140 0.984 . S
H1148 N1136 0.984 . S
H1149 N1136 0.985 . S
C1150 C1151 1.363 . S
C1150 C1156 1.379 1_545 S
C1150 N1158 1.356 . S
C1151 C1150 1.363 . S
C1151 C1157 1.363 . S
C1152 C1153 1.363 . S
C1152 C1157 1.379 1_565 S
C1152 N1159 1.356 . S
C1153 C1152 1.363 . S
C1153 C1156 1.363 . S
N1154 C1156 1.356 . S
N1154 H1166 0.984 . S
N1154 H1167 0.985 . S
N1155 C1157 1.356 . S
N1155 H1160 0.984 . S
N1155 H1161 0.985 . S
C1156 C1150 1.379 1_565 S
C1156 C1153 1.363 . S
C1156 N1154 1.356 . S
C1157 C1151 1.363 . S
C1157 C1152 1.379 1_545 S
C1157 N1155 1.356 . S
N1158 C1150 1.356 . S
N1158 H1164 0.984 . S
N1158 H1165 0.984 . S
N1159 C1152 1.356 . S
N1159 H1162 0.984 . S
N1159 H1163 0.985 . S
H1160 N1155 0.984 . S
H1161 N1155 0.985 . S
H1162 N1159 0.984 . S
H1163 N1159 0.985 . S
H1164 N1158 0.984 . S
H1165 N1158 0.984 . S
H1166 N1154 0.984 . S
H1167 N1154 0.985 . S
C1168 C1169 1.363 . S
C1168 C1174 1.379 . S
C1168 N1176 1.356 . S
C1169 C1168 1.363 . S
C1169 C1175 1.363 . S
C1170 C1171 1.363 . S
C1170 C1175 1.379 . S
C1170 N1177 1.356 . S
C1171 C1170 1.363 . S
C1171 C1174 1.363 . S
N1172 C1174 1.356 . S
N1172 H1184 0.984 . S
N1172 H1185 0.985 . S
N1173 C1175 1.356 . S
N1173 H1178 0.984 . S
N1173 H1179 0.985 . S
C1174 C1168 1.379 . S
C1174 C1171 1.363 . S
C1174 N1172 1.356 . S
C1175 C1169 1.363 . S
C1175 C1170 1.379 . S
C1175 N1173 1.356 . S
N1176 C1168 1.356 . S
N1176 H1182 0.984 . S
N1176 H1183 0.984 . S
N1177 C1170 1.356 . S
N1177 H1180 0.984 . S
N1177 H1181 0.985 . S
H1178 N1173 0.984 . S
H1179 N1173 0.985 . S
H1180 N1177 0.984 . S
H1181 N1177 0.985 . S
H1182 N1176 0.984 . S
H1183 N1176 0.984 . S
H1184 N1172 0.984 . S
H1185 N1172 0.985 . S
C1186 C1187 1.363 . S
C1186 C1192 1.379 . S
C1186 N1194 1.356 . S
C1187 C1186 1.363 . S
C1187 C1193 1.363 . S
C1188 C1189 1.363 . S
C1188 C1193 1.379 . S
C1188 N1195 1.356 . S
C1189 C1188 1.363 . S
C1189 C1192 1.363 . S
N1190 C1192 1.356 . S
N1190 H1202 0.984 . S
N1190 H1203 0.985 . S
N1191 C1193 1.356 . S
N1191 H1196 0.984 . S
N1191 H1197 0.985 . S
C1192 C1186 1.379 . S
C1192 C1189 1.363 . S
C1192 N1190 1.356 . S
C1193 C1187 1.363 . S
C1193 C1188 1.379 . S
C1193 N1191 1.356 . S
N1194 C1186 1.356 . S
N1194 H1200 0.984 . S
N1194 H1201 0.984 . S
N1195 C1188 1.356 . S
N1195 H1198 0.984 . S
N1195 H1199 0.985 . S
H1196 N1191 0.984 . S
H1197 N1191 0.985 . S
H1198 N1195 0.984 . S
H1199 N1195 0.985 . S
H1200 N1194 0.984 . S
H1201 N1194 0.984 . S
H1202 N1190 0.984 . S
H1203 N1190 0.985 . S
C1204 C1205 1.363 1_556 S
C1204 C1210 1.379 . S
C1204 N1212 1.356 . S
C1205 C1204 1.363 1_554 S
C1205 C1211 1.363 . S
C1206 C1207 1.363 1_554 S
C1206 C1211 1.379 . S
C1206 N1213 1.356 . S
C1207 C1206 1.363 1_556 S
C1207 C1210 1.363 . S
N1208 C1210 1.356 . S
N1208 H1220 0.984 . S
N1208 H1221 0.985 . S
N1209 C1211 1.356 . S
N1209 H1214 0.984 . S
N1209 H1215 0.985 . S
C1210 C1204 1.379 . S
C1210 C1207 1.363 . S
C1210 N1208 1.356 . S
C1211 C1205 1.363 . S
C1211 C1206 1.379 . S
C1211 N1209 1.356 . S
N1212 C1204 1.356 . S
N1212 H1218 0.984 . S
N1212 H1219 0.984 1_556 S
N1213 C1206 1.356 . S
N1213 H1216 0.984 1_554 S
N1213 H1217 0.985 . S
H1214 N1209 0.984 . S
H1215 N1209 0.985 . S
H1216 N1213 0.984 1_556 S
H1217 N1213 0.985 . S
H1218 N1212 0.984 . S
H1219 N1212 0.984 1_554 S
H1220 N1208 0.984 . S
H1221 N1208 0.985 . S
C1222 C1223 1.363 . S
C1222 C1228 1.379 . S
C1222 N1230 1.356 . S
C1223 C1222 1.363 . S
C1223 C1229 1.363 . S
C1224 C1225 1.363 . S
C1224 C1229 1.379 . S
C1224 N1231 1.356 . S
C1225 C1224 1.363 . S
C1225 C1228 1.363 . S
N1226 C1228 1.356 . S
N1226 H1238 0.984 . S
N1226 H1239 0.985 . S
N1227 C1229 1.356 . S
N1227 H1232 0.984 . S
N1227 H1233 0.985 . S
C1228 C1222 1.379 . S
C1228 C1225 1.363 . S
C1228 N1226 1.356 . S
C1229 C1223 1.363 . S
C1229 C1224 1.379 . S
C1229 N1227 1.356 . S
N1230 C1222 1.356 . S
N1230 H1236 0.984 . S
N1230 H1237 0.984 . S
N1231 C1224 1.356 . S
N1231 H1234 0.984 . S
N1231 H1235 0.985 . S
H1232 N1227 0.984 . S
H1233 N1227 0.985 . S
H1234 N1231 0.984 . S
H1235 N1231 0.985 . S
H1236 N1230 0.984 . S
H1237 N1230 0.984 . S
H1238 N1226 0.984 . S
H1239 N1226 0.985 . S
C1240 C1241 1.363 . S
C1240 C1246 1.379 . S
C1240 N1248 1.356 . S
C1241 C1240 1.363 . S
C1241 C1247 1.363 . S
C1242 C1243 1.363 . S
C1242 C1247 1.379 . S
C1242 N1249 1.356 . S
C1243 C1242 1.363 . S
C1243 C1246 1.363 . S
N1244 C1246 1.356 . S
N1244 H1256 0.984 . S
N1244 H1257 0.985 . S
N1245 C1247 1.356 . S
N1245 H1250 0.984 . S
N1245 H1251 0.985 . S
C1246 C1240 1.379 . S
C1246 C1243 1.363 . S
C1246 N1244 1.356 . S
C1247 C1241 1.363 . S
C1247 C1242 1.379 . S
C1247 N1245 1.356 . S
N1248 C1240 1.356 . S
N1248 H1254 0.984 . S
N1248 H1255 0.984 . S
N1249 C1242 1.356 . S
N1249 H1252 0.984 . S
N1249 H1253 0.985 . S
H1250 N1245 0.984 . S
H1251 N1245 0.985 . S
H1252 N1249 0.984 . S
H1253 N1249 0.985 . S
H1254 N1248 0.984 . S
H1255 N1248 0.984 . S
H1256 N1244 0.984 . S
H1257 N1244 0.985 . S
C1258 C1259 1.363 . S
C1258 C1264 1.379 . S
C1258 N1266 1.356 . S
C1259 C1258 1.363 . S
C1259 C1265 1.363 . S
C1260 C1261 1.363 . S
C1260 C1265 1.379 . S
C1260 N1267 1.356 . S
C1261 C1260 1.363 . S
C1261 C1264 1.363 . S
N1262 C1264 1.356 . S
N1262 H1274 0.984 . S
N1262 H1275 0.985 . S
N1263 C1265 1.356 . S
N1263 H1268 0.984 . S
N1263 H1269 0.985 . S
C1264 C1258 1.379 . S
C1264 C1261 1.363 . S
C1264 N1262 1.356 . S
C1265 C1259 1.363 . S
C1265 C1260 1.379 . S
C1265 N1263 1.356 . S
N1266 C1258 1.356 . S
N1266 H1272 0.984 . S
N1266 H1273 0.984 . S
N1267 C1260 1.356 . S
N1267 H1270 0.984 . S
N1267 H1271 0.985 . S
H1268 N1263 0.984 . S
H1269 N1263 0.985 . S
H1270 N1267 0.984 . S
H1271 N1267 0.985 . S
H1272 N1266 0.984 . S
H1273 N1266 0.984 . S
H1274 N1262 0.984 . S
H1275 N1262 0.985 . S
C1276 C1277 1.363 1_554 S
C1276 C1282 1.379 . S
C1276 N1284 1.356 . S
C1277 C1276 1.363 1_556 S
C1277 C1283 1.363 . S
C1278 C1279 1.363 1_556 S
C1278 C1283 1.379 . S
C1278 N1285 1.356 . S
C1279 C1278 1.363 1_554 S
C1279 C1282 1.363 . S
N1280 C1282 1.356 . S
N1280 H1292 0.984 . S
N1280 H1293 0.985 . S
N1281 C1283 1.356 . S
N1281 H1286 0.984 . S
N1281 H1287 0.985 . S
C1282 C1276 1.379 . S
C1282 C1279 1.363 . S
C1282 N1280 1.356 . S
C1283 C1277 1.363 . S
C1283 C1278 1.379 . S
C1283 N1281 1.356 . S
N1284 C1276 1.356 . S
N1284 H1290 0.984 . S
N1284 H1291 0.984 1_554 S
N1285 C1278 1.356 . S
N1285 H1288 0.984 1_556 S
N1285 H1289 0.985 . S
H1286 N1281 0.984 . S
H1287 N1281 0.985 . S
H1288 N1285 0.984 1_554 S
H1289 N1285 0.985 . S
H1290 N1284 0.984 . S
H1291 N1284 0.984 1_556 S
H1292 N1280 0.984 . S
H1293 N1280 0.985 . S
C1294 C1295 1.363 . S
C1294 C1300 1.379 . S
C1294 N1302 1.356 . S
C1295 C1294 1.363 . S
C1295 C1301 1.363 . S
C1296 C1297 1.363 . S
C1296 C1301 1.379 . S
C1296 N1303 1.356 . S
C1297 C1296 1.363 . S
C1297 C1300 1.363 . S
N1298 C1300 1.356 . S
N1298 H1310 0.984 . S
N1298 H1311 0.985 . S
N1299 C1301 1.356 . S
N1299 H1304 0.984 . S
N1299 H1305 0.985 . S
C1300 C1294 1.379 . S
C1300 C1297 1.363 . S
C1300 N1298 1.356 . S
C1301 C1295 1.363 . S
C1301 C1296 1.379 . S
C1301 N1299 1.356 . S
N1302 C1294 1.356 . S
N1302 H1308 0.984 . S
N1302 H1309 0.984 . S
N1303 C1296 1.356 . S
N1303 H1306 0.984 . S
N1303 H1307 0.985 . S
H1304 N1299 0.984 . S
H1305 N1299 0.985 . S
H1306 N1303 0.984 . S
H1307 N1303 0.985 . S
H1308 N1302 0.984 . S
H1309 N1302 0.984 . S
H1310 N1298 0.984 . S
H1311 N1298 0.985 . S
C1312 C1313 1.363 . S
C1312 C1318 1.379 . S
C1312 N1320 1.356 . S
C1313 C1312 1.363 . S
C1313 C1319 1.363 . S
C1314 C1315 1.363 . S
C1314 C1319 1.379 . S
C1314 N1321 1.356 . S
C1315 C1314 1.363 . S
C1315 C1318 1.363 . S
N1316 C1318 1.356 . S
N1316 H1328 0.984 . S
N1316 H1329 0.985 . S
N1317 C1319 1.356 . S
N1317 H1322 0.984 . S
N1317 H1323 0.985 . S
C1318 C1312 1.379 . S
C1318 C1315 1.363 . S
C1318 N1316 1.356 . S
C1319 C1313 1.363 . S
C1319 C1314 1.379 . S
C1319 N1317 1.356 . S
N1320 C1312 1.356 . S
N1320 H1326 0.984 . S
N1320 H1327 0.984 . S
N1321 C1314 1.356 . S
N1321 H1324 0.984 . S
N1321 H1325 0.985 . S
H1322 N1317 0.984 . S
H1323 N1317 0.985 . S
H1324 N1321 0.984 . S
H1325 N1321 0.985 . S
H1326 N1320 0.984 . S
H1327 N1320 0.984 . S
H1328 N1316 0.984 . S
H1329 N1316 0.985 . S
C1330 C1331 1.363 . S
C1330 C1336 1.379 . S
C1330 N1338 1.356 . S
C1331 C1330 1.363 . S
C1331 C1337 1.363 . S
C1332 C1333 1.363 . S
C1332 C1337 1.379 . S
C1332 N1339 1.356 . S
C1333 C1332 1.363 . S
C1333 C1336 1.363 . S
N1334 C1336 1.356 . S
N1334 H1346 0.984 . S
N1334 H1347 0.985 . S
N1335 C1337 1.356 . S
N1335 H1340 0.984 . S
N1335 H1341 0.985 . S
C1336 C1330 1.379 . S
C1336 C1333 1.363 . S
C1336 N1334 1.356 . S
C1337 C1331 1.363 . S
C1337 C1332 1.379 . S
C1337 N1335 1.356 . S
N1338 C1330 1.356 . S
N1338 H1344 0.984 . S
N1338 H1345 0.984 . S
N1339 C1332 1.356 . S
N1339 H1342 0.984 . S
N1339 H1343 0.985 . S
H1340 N1335 0.984 . S
H1341 N1335 0.985 . S
H1342 N1339 0.984 . S
H1343 N1339 0.985 . S
H1344 N1338 0.984 . S
H1345 N1338 0.984 . S
H1346 N1334 0.984 . S
H1347 N1334 0.985 . S
C1348 C1349 1.363 . S
C1348 C1354 1.379 . S
C1348 N1356 1.356 . S
C1349 C1348 1.363 . S
C1349 C1355 1.363 . S
C1350 C1351 1.363 . S
C1350 C1355 1.379 . S
C1350 N1357 1.356 . S
C1351 C1350 1.363 . S
C1351 C1354 1.363 . S
N1352 C1354 1.356 . S
N1352 H1364 0.984 . S
N1352 H1365 0.985 . S
N1353 C1355 1.356 . S
N1353 H1358 0.984 . S
N1353 H1359 0.985 . S
C1354 C1348 1.379 . S
C1354 C1351 1.363 . S
C1354 N1352 1.356 . S
C1355 C1349 1.363 . S
C1355 C1350 1.379 . S
C1355 N1353 1.356 . S
N1356 C1348 1.356 . S
N1356 H1362 0.984 . S
N1356 H1363 0.984 . S
N1357 C1350 1.356 . S
N1357 H1360 0.984 . S
N1357 H1361 0.985 . S
H1358 N1353 0.984 . S
H1359 N1353 0.985 . S
H1360 N1357 0.984 . S
H1361 N1357 0.985 . S
H1362 N1356 0.984 . S
H1363 N1356 0.984 . S
H1364 N1352 0.984 . S
H1365 N1352 0.985 . S
C1366 C1367 1.363 . S
C1366 C1372 1.379 . S
C1366 N1374 1.356 . S
C1367 C1366 1.363 . S
C1367 C1373 1.363 . S
C1368 C1369 1.363 . S
C1368 C1373 1.379 . S
C1368 N1375 1.356 . S
C1369 C1368 1.363 . S
C1369 C1372 1.363 . S
N1370 C1372 1.356 . S
N1370 H1382 0.984 . S
N1370 H1383 0.985 . S
N1371 C1373 1.356 . S
N1371 H1376 0.984 . S
N1371 H1377 0.985 . S
C1372 C1366 1.379 . S
C1372 C1369 1.363 . S
C1372 N1370 1.356 . S
C1373 C1367 1.363 . S
C1373 C1368 1.379 . S
C1373 N1371 1.356 . S
N1374 C1366 1.356 . S
N1374 H1380 0.984 . S
N1374 H1381 0.984 . S
N1375 C1368 1.356 . S
N1375 H1378 0.984 . S
N1375 H1379 0.985 . S
H1376 N1371 0.984 . S
H1377 N1371 0.985 . S
H1378 N1375 0.984 . S
H1379 N1375 0.985 . S
H1380 N1374 0.984 . S
H1381 N1374 0.984 . S
H1382 N1370 0.984 . S
H1383 N1370 0.985 . S
C1384 C1385 1.363 . S
C1384 C1390 1.379 . S
C1384 N1392 1.356 . S
C1385 C1384 1.363 . S
C1385 C1391 1.363 . S
C1386 C1387 1.363 . S
C1386 C1391 1.379 . S
C1386 N1393 1.356 . S
C1387 C1386 1.363 . S
C1387 C1390 1.363 . S
N1388 C1390 1.356 . S
N1388 H1400 0.984 . S
N1388 H1401 0.985 . S
N1389 C1391 1.356 . S
N1389 H1394 0.984 . S
N1389 H1395 0.985 . S
C1390 C1384 1.379 . S
C1390 C1387 1.363 . S
C1390 N1388 1.356 . S
C1391 C1385 1.363 . S
C1391 C1386 1.379 . S
C1391 N1389 1.356 . S
N1392 C1384 1.356 . S
N1392 H1398 0.984 . S
N1392 H1399 0.984 . S
N1393 C1386 1.356 . S
N1393 H1396 0.984 . S
N1393 H1397 0.985 . S
H1394 N1389 0.984 . S
H1395 N1389 0.985 . S
H1396 N1393 0.984 . S
H1397 N1393 0.985 . S
H1398 N1392 0.984 . S
H1399 N1392 0.984 . S
H1400 N1388 0.984 . S
H1401 N1388 0.985 . S
C1402 C1403 1.363 . S
C1402 C1408 1.379 . S
C1402 N1410 1.356 . S
C1403 C1402 1.363 . S
C1403 C1409 1.363 . S
C1404 C1405 1.363 . S
C1404 C1409 1.379 . S
C1404 N1411 1.356 . S
C1405 C1404 1.363 . S
C1405 C1408 1.363 . S
N1406 C1408 1.356 . S
N1406 H1418 0.984 . S
N1406 H1419 0.985 . S
N1407 C1409 1.356 . S
N1407 H1412 0.984 . S
N1407 H1413 0.985 . S
C1408 C1402 1.379 . S
C1408 C1405 1.363 . S
C1408 N1406 1.356 . S
C1409 C1403 1.363 . S
C1409 C1404 1.379 . S
C1409 N1407 1.356 . S
N1410 C1402 1.356 . S
N1410 H1416 0.984 . S
N1410 H1417 0.984 . S
N1411 C1404 1.356 . S
N1411 H1414 0.984 . S
N1411 H1415 0.985 . S
H1412 N1407 0.984 . S
H1413 N1407 0.985 . S
H1414 N1411 0.984 . S
H1415 N1411 0.985 . S
H1416 N1410 0.984 . S
H1417 N1410 0.984 . S
H1418 N1406 0.984 . S
H1419 N1406 0.985 . S
C1420 C1421 1.363 . S
C1420 C1426 1.379 . S
C1420 N1428 1.356 . S
C1421 C1420 1.363 . S
C1421 C1427 1.363 . S
C1422 C1423 1.363 . S
C1422 C1427 1.379 . S
C1422 N1429 1.356 . S
C1423 C1422 1.363 . S
C1423 C1426 1.363 . S
N1424 C1426 1.356 . S
N1424 H1436 0.984 . S
N1424 H1437 0.985 . S
N1425 C1427 1.356 . S
N1425 H1430 0.984 . S
N1425 H1431 0.985 . S
C1426 C1420 1.379 . S
C1426 C1423 1.363 . S
C1426 N1424 1.356 . S
C1427 C1421 1.363 . S
C1427 C1422 1.379 . S
C1427 N1425 1.356 . S
N1428 C1420 1.356 . S
N1428 H1434 0.984 . S
N1428 H1435 0.984 . S
N1429 C1422 1.356 . S
N1429 H1432 0.984 . S
N1429 H1433 0.985 . S
H1430 N1425 0.984 . S
H1431 N1425 0.985 . S
H1432 N1429 0.984 . S
H1433 N1429 0.985 . S
H1434 N1428 0.984 . S
H1435 N1428 0.984 . S
H1436 N1424 0.984 . S
H1437 N1424 0.985 . S
C1438 C1439 1.363 . S
C1438 C1444 1.379 . S
C1438 N1446 1.356 . S
C1439 C1438 1.363 . S
C1439 C1445 1.363 . S
C1440 C1441 1.363 . S
C1440 C1445 1.379 . S
C1440 N1447 1.356 . S
C1441 C1440 1.363 . S
C1441 C1444 1.363 . S
N1442 C1444 1.356 . S
N1442 H1454 0.984 . S
N1442 H1455 0.985 . S
N1443 C1445 1.356 . S
N1443 H1448 0.984 . S
N1443 H1449 0.985 . S
C1444 C1438 1.379 . S
C1444 C1441 1.363 . S
C1444 N1442 1.356 . S
C1445 C1439 1.363 . S
C1445 C1440 1.379 . S
C1445 N1443 1.356 . S
N1446 C1438 1.356 . S
N1446 H1452 0.984 . S
N1446 H1453 0.984 . S
N1447 C1440 1.356 . S
N1447 H1450 0.984 . S
N1447 H1451 0.985 . S
H1448 N1443 0.984 . S
H1449 N1443 0.985 . S
H1450 N1447 0.984 . S
H1451 N1447 0.985 . S
H1452 N1446 0.984 . S
H1453 N1446 0.984 . S
H1454 N1442 0.984 . S
H1455 N1442 0.985 . S
C1456 C1457 1.363 . S
C1456 C1462 1.379 . S
C1456 N1464 1.356 . S
C1457 C1456 1.363 . S
C1457 C1463 1.363 . S
C1458 C1459 1.363 . S
C1458 C1463 1.379 . S
C1458 N1465 1.356 . S
C1459 C1458 1.363 . S
C1459 C1462 1.363 . S
N1460 C1462 1.356 . S
N1460 H1472 0.984 . S
N1460 H1473 0.985 . S
N1461 C1463 1.356 . S
N1461 H1466 0.984 . S
N1461 H1467 0.985 . S
C1462 C1456 1.379 . S
C1462 C1459 1.363 . S
C1462 N1460 1.356 . S
C1463 C1457 1.363 . S
C1463 C1458 1.379 . S
C1463 N1461 1.356 . S
N1464 C1456 1.356 . S
N1464 H1470 0.984 . S
N1464 H1471 0.984 . S
N1465 C1458 1.356 . S
N1465 H1468 0.984 . S
N1465 H1469 0.985 . S
H1466 N1461 0.984 . S
H1467 N1461 0.985 . S
H1468 N1465 0.984 . S
H1469 N1465 0.985 . S
H1470 N1464 0.984 . S
H1471 N1464 0.984 . S
H1472 N1460 0.984 . S
H1473 N1460 0.985 . S
C1474 C1475 1.363 . S
C1474 C1480 1.379 . S
C1474 N1482 1.356 . S
C1475 C1474 1.363 . S
C1475 C1481 1.363 . S
C1476 C1477 1.363 . S
C1476 C1481 1.379 . S
C1476 N1483 1.356 . S
C1477 C1476 1.363 . S
C1477 C1480 1.363 . S
N1478 C1480 1.356 . S
N1478 H1490 0.984 . S
N1478 H1491 0.985 . S
N1479 C1481 1.356 . S
N1479 H1484 0.984 . S
N1479 H1485 0.985 . S
C1480 C1474 1.379 . S
C1480 C1477 1.363 . S
C1480 N1478 1.356 . S
C1481 C1475 1.363 . S
C1481 C1476 1.379 . S
C1481 N1479 1.356 . S
N1482 C1474 1.356 . S
N1482 H1488 0.984 . S
N1482 H1489 0.984 . S
N1483 C1476 1.356 . S
N1483 H1486 0.984 . S
N1483 H1487 0.985 . S
H1484 N1479 0.984 . S
H1485 N1479 0.985 . S
H1486 N1483 0.984 . S
H1487 N1483 0.985 . S
H1488 N1482 0.984 . S
H1489 N1482 0.984 . S
H1490 N1478 0.984 . S
H1491 N1478 0.985 . S
C1492 C1493 1.363 . S
C1492 C1498 1.379 . S
C1492 N1500 1.356 . S
C1493 C1492 1.363 . S
C1493 C1499 1.363 . S
C1494 C1495 1.363 . S
C1494 C1499 1.379 . S
C1494 N1501 1.356 . S
C1495 C1494 1.363 . S
C1495 C1498 1.363 . S
N1496 C1498 1.356 . S
N1496 H1508 0.984 . S
N1496 H1509 0.985 . S
N1497 C1499 1.356 . S
N1497 H1502 0.984 . S
N1497 H1503 0.985 . S
C1498 C1492 1.379 . S
C1498 C1495 1.363 . S
C1498 N1496 1.356 . S
C1499 C1493 1.363 . S
C1499 C1494 1.379 . S
C1499 N1497 1.356 . S
N1500 C1492 1.356 . S
N1500 H1506 0.984 . S
N1500 H1507 0.984 . S
N1501 C1494 1.356 . S
N1501 H1504 0.984 . S
N1501 H1505 0.985 . S
H1502 N1497 0.984 . S
H1503 N1497 0.985 . S
H1504 N1501 0.984 . S
H1505 N1501 0.985 . S
H1506 N1500 0.984 . S
H1507 N1500 0.984 . S
H1508 N1496 0.984 . S
H1509 N1496 0.985 . S
C1510 C1511 1.363 . S
C1510 C1516 1.379 . S
C1510 N1518 1.356 . S
C1511 C1510 1.363 . S
C1511 C1517 1.363 . S
C1512 C1513 1.363 . S
C1512 C1517 1.379 . S
C1512 N1519 1.356 . S
C1513 C1512 1.363 . S
C1513 C1516 1.363 . S
N1514 C1516 1.356 . S
N1514 H1526 0.984 . S
N1514 H1527 0.985 . S
N1515 C1517 1.356 . S
N1515 H1520 0.984 . S
N1515 H1521 0.985 . S
C1516 C1510 1.379 . S
C1516 C1513 1.363 . S
C1516 N1514 1.356 . S
C1517 C1511 1.363 . S
C1517 C1512 1.379 . S
C1517 N1515 1.356 . S
N1518 C1510 1.356 . S
N1518 H1524 0.984 . S
N1518 H1525 0.984 . S
N1519 C1512 1.356 . S
N1519 H1522 0.984 . S
N1519 H1523 0.985 . S
H1520 N1515 0.984 . S
H1521 N1515 0.985 . S
H1522 N1519 0.984 . S
H1523 N1519 0.985 . S
H1524 N1518 0.984 . S
H1525 N1518 0.984 . S
H1526 N1514 0.984 . S
H1527 N1514 0.985 . S
C1528 C1529 1.363 . S
C1528 C1534 1.379 . S
C1528 N1536 1.356 . S
C1529 C1528 1.363 . S
C1529 C1535 1.363 . S
C1530 C1531 1.363 . S
C1530 C1535 1.379 . S
C1530 N1537 1.356 . S
C1531 C1530 1.363 . S
C1531 C1534 1.363 . S
N1532 C1534 1.356 . S
N1532 H1544 0.984 . S
N1532 H1545 0.985 . S
N1533 C1535 1.356 . S
N1533 H1538 0.984 . S
N1533 H1539 0.985 . S
C1534 C1528 1.379 . S
C1534 C1531 1.363 . S
C1534 N1532 1.356 . S
C1535 C1529 1.363 . S
C1535 C1530 1.379 . S
C1535 N1533 1.356 . S
N1536 C1528 1.356 . S
N1536 H1542 0.984 . S
N1536 H1543 0.984 . S
N1537 C1530 1.356 . S
N1537 H1540 0.984 . S
N1537 H1541 0.985 . S
H1538 N1533 0.984 . S
H1539 N1533 0.985 . S
H1540 N1537 0.984 . S
H1541 N1537 0.985 . S
H1542 N1536 0.984 . S
H1543 N1536 0.984 . S
H1544 N1532 0.984 . S
H1545 N1532 0.985 . S
C1546 C1547 1.363 . S
C1546 C1552 1.379 . S
C1546 N1554 1.356 . S
C1547 C1546 1.363 . S
C1547 C1553 1.363 . S
C1548 C1549 1.363 . S
C1548 C1553 1.379 . S
C1548 N1555 1.356 . S
C1549 C1548 1.363 . S
C1549 C1552 1.363 . S
N1550 C1552 1.356 . S
N1550 H1562 0.984 . S
N1550 H1563 0.985 . S
N1551 C1553 1.356 . S
N1551 H1556 0.984 . S
N1551 H1557 0.985 . S
C1552 C1546 1.379 . S
C1552 C1549 1.363 . S
C1552 N1550 1.356 . S
C1553 C1547 1.363 . S
C1553 C1548 1.379 . S
C1553 N1551 1.356 . S
N1554 C1546 1.356 . S
N1554 H1560 0.984 . S
N1554 H1561 0.984 . S
N1555 C1548 1.356 . S
N1555 H1558 0.984 . S
N1555 H1559 0.985 . S
H1556 N1551 0.984 . S
H1557 N1551 0.985 . S
H1558 N1555 0.984 . S
H1559 N1555 0.985 . S
H1560 N1554 0.984 . S
H1561 N1554 0.984 . S
H1562 N1550 0.984 . S
H1563 N1550 0.985 . S
C1564 C1565 1.363 . S
C1564 C1570 1.379 . S
C1564 N1572 1.356 . S
C1565 C1564 1.363 . S
C1565 C1571 1.363 . S
C1566 C1567 1.363 . S
C1566 C1571 1.379 . S
C1566 N1573 1.356 . S
C1567 C1566 1.363 . S
C1567 C1570 1.363 . S
N1568 C1570 1.356 . S
N1568 H1580 0.984 . S
N1568 H1581 0.985 . S
N1569 C1571 1.356 . S
N1569 H1574 0.984 . S
N1569 H1575 0.985 . S
C1570 C1564 1.379 . S
C1570 C1567 1.363 . S
C1570 N1568 1.356 . S
C1571 C1565 1.363 . S
C1571 C1566 1.379 . S
C1571 N1569 1.356 . S
N1572 C1564 1.356 . S
N1572 H1578 0.984 . S
N1572 H1579 0.984 . S
N1573 C1566 1.356 . S
N1573 H1576 0.984 . S
N1573 H1577 0.985 . S
H1574 N1569 0.984 . S
H1575 N1569 0.985 . S
H1576 N1573 0.984 . S
H1577 N1573 0.985 . S
H1578 N1572 0.984 . S
H1579 N1572 0.984 . S
H1580 N1568 0.984 . S
H1581 N1568 0.985 . S
C1582 C1583 1.363 . S
C1582 C1588 1.379 . S
C1582 N1590 1.356 . S
C1583 C1582 1.363 . S
C1583 C1589 1.363 . S
C1584 C1585 1.363 . S
C1584 C1589 1.379 . S
C1584 N1591 1.356 . S
C1585 C1584 1.363 . S
C1585 C1588 1.363 . S
N1586 C1588 1.356 . S
N1586 H1598 0.984 . S
N1586 H1599 0.985 . S
N1587 C1589 1.356 . S
N1587 H1592 0.984 . S
N1587 H1593 0.985 . S
C1588 C1582 1.379 . S
C1588 C1585 1.363 . S
C1588 N1586 1.356 . S
C1589 C1583 1.363 . S
C1589 C1584 1.379 . S
C1589 N1587 1.356 . S
N1590 C1582 1.356 . S
N1590 H1596 0.984 . S
N1590 H1597 0.984 . S
N1591 C1584 1.356 . S
N1591 H1594 0.984 . S
N1591 H1595 0.985 . S
H1592 N1587 0.984 . S
H1593 N1587 0.985 . S
H1594 N1591 0.984 . S
H1595 N1591 0.985 . S
H1596 N1590 0.984 . S
H1597 N1590 0.984 . S
H1598 N1586 0.984 . S
H1599 N1586 0.985 . S
C449 C119 1.462 . S
C451 C7 1.462 . S
C467 C357 1.462 . S
C469 C21 1.462 . S
C485 C147 1.462 . S
C487 C35 1.462 . S
C503 C385 1.462 . S
C505 C49 1.462 . S
C521 C175 1.462 . S
C523 C63 1.462 . S
C539 C77 1.462 . S
C541 C413 1.462 . S
C557 C91 1.462 . S
C559 C203 1.462 . S
C575 C105 1.462 . S
C577 C441 1.462 . S
C593 C245 1.462 . S
C595 C133 1.462 . S
C611 C273 1.462 . S
C613 C161 1.462 . S
C629 C189 1.462 . S
C631 C301 1.462 . S
C647 C217 1.462 . S
C649 C329 1.462 . S
C665 C231 1.462 . S
C667 C343 1.462 . S
C683 C371 1.462 . S
C685 C259 1.462 . S
C701 C287 1.462 . S
C703 C399 1.462 . S
C719 C427 1.462 . S
C721 C315 1.462 . S
C737 C261 1.924 . S
C739 C9 1.924 . S
C755 C275 1.924 . S
C757 C23 1.924 . S
C773 C37 1.924 . S
C775 C233 1.924 . S
C791 C51 1.924 . S
C793 C247 1.924 . S
C809 C317 1.924 . S
C811 C65 1.924 . S
C827 C79 1.924 . S
C829 C331 1.924 . S
C845 C289 1.924 . S
C847 C93 1.924 . S
C863 C303 1.924 . S
C865 C107 1.924 . S
C881 C121 1.924 . S
C883 C373 1.924 . S
C899 C387 1.924 . S
C901 C135 1.924 . S
C917 C149 1.924 . S
C919 C345 1.924 . S
C935 C163 1.924 . S
C937 C359 1.924 . S
C953 C177 1.924 . S
C955 C429 1.924 . S
C971 C191 1.924 . S
C973 C443 1.924 . S
C989 C401 1.924 . S
C991 C205 1.924 . S
C1007 C415 1.924 . S
C1009 C219 1.924 . S
C1025 C90 1.547 . S
C1027 C6 1.547 . S
C1043 C104 1.547 . S
C1045 C20 1.547 . S
C1061 C62 1.547 . S
C1063 C34 1.547 . S
C1079 C48 1.547 . S
C1081 C76 1.547 . S
C1097 C202 1.547 . S
C1099 C118 1.547 . S
C1115 C216 1.547 . S
C1117 C132 1.547 . S
C1133 C174 1.547 . S
C1135 C146 1.547 . S
C1151 C188 1.547 . S
C1153 C160 1.547 . S
C1169 C314 1.547 . S
C1171 C230 1.547 . S
C1187 C328 1.547 . S
C1189 C244 1.547 . S
C1205 C258 1.547 . S
C1207 C286 1.547 . S
C1223 C272 1.547 . S
C1225 C300 1.547 . S
C1241 C426 1.547 . S
C1243 C342 1.547 . S
C1259 C440 1.547 . S
C1261 C356 1.547 . S
C1277 C370 1.547 . S
C1279 C398 1.547 . S
C1295 C384 1.547 . S
C1297 C412 1.547 . S
C1313 C8 1.609 . S
C1315 C302 1.609 . S
C1331 C316 1.609 . S
C1333 C22 1.609 . S
C1349 C330 1.609 . S
C1351 C36 1.609 . S
C1367 C50 1.609 . S
C1369 C288 1.609 . S
C1385 C274 1.609 . S
C1387 C64 1.609 . S
C1403 C78 1.609 . S
C1405 C232 1.609 . S
C1421 C246 1.609 . S
C1423 C92 1.609 . S
C1439 C106 1.609 . S
C1441 C260 1.609 . S
C1457 C414 1.609 . S
C1459 C120 1.609 . S
C1475 C428 1.609 . S
C1477 C134 1.609 . S
C1493 C148 1.609 . S
C1495 C442 1.609 . S
C1511 C400 1.609 . S
C1513 C162 1.609 . S
C1529 C386 1.609 . S
C1531 C176 1.609 . S
C1547 C190 1.609 . S
C1549 C344 1.609 . S
C1565 C358 1.609 . S
C1567 C204 1.609 . S
C1583 C218 1.609 . S
C1585 C372 1.609 . S
