# Generated by pormake.
# Topology unf, (4)-cn, num edge types: 1
# Building blocks:
#     Node 0, Type 0, BuildingBlock: UXUYUI_clean_sbu_0, # of connection points: 4
#     Node 1, Type 0, BuildingBlock: UXUYUI_clean_sbu_0, # of connection points: 4
#     Node 2, Type 0, BuildingBlock: UXUYUI_clean_sbu_0, # of connection points: 4
#     Node 3, Type 0, BuildingBlock: UXUYUI_clean_sbu_0, # of connection points: 4
#     Node 4, Type 0, BuildingBlock: UXUYUI_clean_sbu_0, # of connection points: 4
#     Node 5, Type 0, BuildingBlock: UXUYUI_clean_sbu_0, # of connection points: 4
#     Node 6, Type 0, BuildingBlock: UXUYUI_clean_sbu_0, # of connection points: 4
#     Node 7, Type 0, BuildingBlock: UXUYUI_clean_sbu_0, # of connection points: 4
#     Node 8, Type 0, BuildingBlock: UXUYUI_clean_sbu_0, # of connection points: 4
#     Node 9, Type 0, BuildingBlock: UXUYUI_clean_sbu_0, # of connection points: 4
#     Node 10, Type 0, BuildingBlock: UXUYUI_clean_sbu_0, # of connection points: 4
#     Node 11, Type 0, BuildingBlock: UXUYUI_clean_sbu_0, # of connection points: 4
#     Edge 12, Type (0, 0), BuildingBlock: XUDNAN_clean_linker_2, # of connection points: 2
#     Edge 13, Type (0, 0), BuildingBlock: XUDNAN_clean_linker_2, # of connection points: 2
#     Edge 14, Type (0, 0), BuildingBlock: XUDNAN_clean_linker_2, # of connection points: 2
#     Edge 15, Type (0, 0), BuildingBlock: XUDNAN_clean_linker_2, # of connection points: 2
#     Edge 16, Type (0, 0), BuildingBlock: XUDNAN_clean_linker_2, # of connection points: 2
#     Edge 17, Type (0, 0), BuildingBlock: XUDNAN_clean_linker_2, # of connection points: 2
#     Edge 18, Type (0, 0), BuildingBlock: XUDNAN_clean_linker_2, # of connection points: 2
#     Edge 19, Type (0, 0), BuildingBlock: XUDNAN_clean_linker_2, # of connection points: 2
#     Edge 20, Type (0, 0), BuildingBlock: XUDNAN_clean_linker_2, # of connection points: 2
#     Edge 21, Type (0, 0), BuildingBlock: XUDNAN_clean_linker_2, # of connection points: 2
#     Edge 22, Type (0, 0), BuildingBlock: XUDNAN_clean_linker_2, # of connection points: 2
#     Edge 23, Type (0, 0), BuildingBlock: XUDNAN_clean_linker_2, # of connection points: 2
#     Edge 24, Type (0, 0), BuildingBlock: XUDNAN_clean_linker_2, # of connection points: 2
#     Edge 25, Type (0, 0), BuildingBlock: XUDNAN_clean_linker_2, # of connection points: 2
#     Edge 26, Type (0, 0), BuildingBlock: XUDNAN_clean_linker_2, # of connection points: 2
#     Edge 27, Type (0, 0), BuildingBlock: XUDNAN_clean_linker_2, # of connection points: 2
#     Edge 28, Type (0, 0), BuildingBlock: XUDNAN_clean_linker_2, # of connection points: 2
#     Edge 29, Type (0, 0), BuildingBlock: XUDNAN_clean_linker_2, # of connection points: 2
#     Edge 30, Type (0, 0), BuildingBlock: XUDNAN_clean_linker_2, # of connection points: 2
#     Edge 31, Type (0, 0), BuildingBlock: XUDNAN_clean_linker_2, # of connection points: 2
#     Edge 32, Type (0, 0), BuildingBlock: XUDNAN_clean_linker_2, # of connection points: 2
#     Edge 33, Type (0, 0), BuildingBlock: XUDNAN_clean_linker_2, # of connection points: 2
#     Edge 34, Type (0, 0), BuildingBlock: XUDNAN_clean_linker_2, # of connection points: 2
#     Edge 35, Type (0, 0), BuildingBlock: XUDNAN_clean_linker_2, # of connection points: 2
# Relax obj value: 0.347
# Max RMSD: 0.227
# Mean RMSD: 0.226
data_MOF--net-unf--node1-UXUYUI_clean_sbu_0--edge1-XUDNAN_clean_linker_2
_symmetry_space_group_name_H-M    P1
_symmetry_Int_Tables_number       1
_symmetry_cell_setting            triclinic
loop_
_symmetry_equiv_pos_as_xyz
'x, y, z'
_cell_length_a     55.185161
_cell_length_b     55.143817
_cell_length_c     52.853725
_cell_angle_alpha  90.054523
_cell_angle_beta   89.905201
_cell_angle_gamma 120.01822
loop_
_atom_site_label
_atom_site_type_symbol
_atom_site_fract_x
_atom_site_fract_y
_atom_site_fract_z
_atom_type_partial_charge
Li0 Li 0.05379 0.37891 0.07552 0.0
Li1 Li 0.07521 0.35999 0.10825 0.0
Li2 Li 0.07189 0.34858 0.06334 0.0
Li3 Li 0.03086 0.32953 0.08776 0.0
C4 C 0.11628 0.39967 0.06445 0.0
N5 N 0.16334 0.42527 0.03414 0.0
C6 C 0.1382 0.39425 0.06815 0.0
C7 C 0.11837 0.41829 0.0455 0.0
C8 C 0.16178 0.40733 0.05256 0.0
C9 C 0.14234 0.431 0.03035 0.0
C10 C 0.0163 0.35119 0.12407 0.0
C11 C 0.98907 0.325 0.16016 0.0
N12 N 0.96671 0.32623 0.15093 0.0
C13 C 0.99315 0.35237 0.11498 0.0
C14 C 0.01436 0.33753 0.14687 0.0
C15 C 0.96822 0.33954 0.12882 0.0
C16 C 0.02875 0.40377 0.04816 0.0
N17 N 0.04829 0.40886 0.06613 0.0
C18 C 0.06041 0.45688 0.06852 0.0
C19 C 0.06383 0.43465 0.0766 0.0
C20 C 0.04109 0.45258 0.0492 0.0
C21 C 0.02501 0.42543 0.03917 0.0
H22 H 0.01634 0.38291 0.04051 0.0
H23 H 0.07905 0.43797 0.09105 0.0
C24 C 0.11734 0.35954 0.13639 0.0
N25 N 0.09877 0.36889 0.13685 0.0
C26 C 0.13568 0.36516 0.15652 0.0
C27 C 0.11579 0.39039 0.17714 0.0
C28 C 0.09762 0.38409 0.1566 0.0
C29 C 0.13507 0.38077 0.17726 0.0
H30 H 0.11776 0.34755 0.12035 0.0
H31 H 0.08264 0.39129 0.15638 0.0
C32 C 0.03187 0.33473 0.02991 0.0
N33 N 0.02439 0.3123 0.98186 0.0
C34 C 0.02287 0.3063 0.02669 0.0
C35 C 0.0369 0.35172 0.00868 0.0
C36 C 0.01927 0.29537 0.00225 0.0
C37 C 0.03303 0.33998 0.98455 0.0
C38 C 0.05315 0.29779 0.10361 0.0
C39 C 0.04216 0.27364 0.08867 0.0
C40 C 0.0543 0.2955 0.12989 0.0
C41 C 0.03223 0.24761 0.10027 0.0
C42 C 0.04426 0.26909 0.14076 0.0
N43 N 0.03349 0.24589 0.12586 0.0
C44 C 0.09675 0.32014 0.04146 0.0
C45 C 0.09838 0.35536 0.01468 0.0
C46 C 0.10921 0.3121 0.02285 0.0
N47 N 0.09113 0.34108 0.03697 0.0
C48 C 0.1111 0.34812 0.99553 0.0
C49 C 0.11626 0.32594 0.99942 0.0
H50 H 0.09149 0.30959 0.0595 0.0
H51 H 0.09405 0.37218 0.01161 0.0
C52 C 0.97543 0.2959 0.07325 0.0
N53 N 0.9937 0.29783 0.09143 0.0
C54 C 0.94902 0.27218 0.07153 0.0
C55 C 0.95955 0.25356 0.10859 0.0
C56 C 0.98581 0.27785 0.10967 0.0
C57 C 0.94109 0.25021 0.08889 0.0
H58 H 0.9817 0.31243 0.05947 0.0
H59 H -4e-05 0.28033 0.12476 0.0
O60 O 0.09285 0.38678 0.07925 0.0
O61 O 0.04058 0.36287 0.11043 0.0
O62 O 0.03586 0.34584 0.05374 0.0
O63 O 0.06333 0.32352 0.09253 0.0
H64 H 0.13685 0.37984 0.0827 0.0
H65 H 0.10154 0.42264 0.04237 0.0
H66 H 0.17882 0.40318 0.05507 0.0
H67 H 0.14419 0.44534 0.01552 0.0
H68 H 0.98719 0.31422 0.17778 0.0
H69 H 0.99435 0.36278 0.09727 0.0
H70 H 0.03212 0.3364 0.15407 0.0
H71 H 0.95005 0.3401 0.12195 0.0
H72 H 0.07285 0.47719 0.07729 0.0
H73 H 0.01016 0.42095 0.02405 0.0
H74 H 0.15045 0.35767 0.15569 0.0
H75 H 0.11454 0.40232 0.19286 0.0
H76 H 0.01876 0.29285 0.04289 0.0
H77 H 0.04425 0.37384 0.01077 0.0
H78 H 0.01241 0.27343 0.9995 0.0
H79 H 0.03704 0.35293 0.96796 0.0
H80 H 0.04132 0.27495 0.06831 0.0
H81 H 0.06239 0.31379 0.14186 0.0
H82 H 0.02358 0.22877 0.08893 0.0
H83 H 0.04489 0.26702 0.16107 0.0
H84 H 0.11349 0.29534 0.02684 0.0
H85 H 0.11632 0.35937 0.97774 0.0
H86 H 0.93554 0.27053 0.05596 0.0
H87 H 0.95399 0.23735 0.12267 0.0
Li88 Li 0.63342 0.70763 0.10733 0.0
Li89 Li 0.61879 0.66277 0.08116 0.0
Li90 Li 0.66764 0.6978 0.08819 0.0
Li91 Li 0.64018 0.70868 0.06138 0.0
C92 C 0.65674 0.67267 0.13114 0.0
N93 N 0.69447 0.66904 0.16291 0.0
C94 C 0.6613 0.64999 0.12922 0.0
C95 C 0.67125 0.69345 0.14925 0.0
C96 C 0.68051 0.64856 0.14544 0.0
C97 C 0.69025 0.69123 0.16515 0.0
C98 C 0.58771 0.69454 0.06447 0.0
C99 C 0.55832 0.68314 0.02758 0.0
N100 N 0.557 0.70691 0.03102 0.0
C101 C 0.58596 0.71877 0.06772 0.0
C102 C 0.57375 0.67652 0.04428 0.0
C103 C 0.57038 0.72468 0.05057 0.0
C104 C 0.63172 0.7523 0.12856 0.0
N105 N 0.6247 0.72541 0.13352 0.0
C106 C 0.60625 0.7274 0.17393 0.0
C107 C 0.61218 0.71271 0.15562 0.0
C108 C 0.6133 0.75532 0.16929 0.0
C109 C 0.62632 0.76772 0.14625 0.0
H110 H 0.64167 0.76181 0.11079 0.0
H111 H 0.60676 0.69123 0.15899 0.0
C112 C 0.6068 0.60907 0.07047 0.0
N113 N 0.5942 0.62411 0.07632 0.0
C114 C 0.5909 0.58139 0.06244 0.0
C115 C 0.54914 0.58477 0.06773 0.0
C116 C 0.56593 0.61251 0.07566 0.0
C117 C 0.5617 0.56904 0.06045 0.0
H118 H 0.62939 0.6191 0.07078 0.0
H119 H 0.55653 0.62509 0.08032 0.0
C120 C 0.69285 0.75504 0.08846 0.0
N121 N 0.74678 0.79996 0.09051 0.0
C122 C 0.71007 0.76262 0.0671 0.0
C123 C 0.70291 0.77051 0.11078 0.0
C124 C 0.73732 0.78532 0.06855 0.0
C125 C 0.73028 0.79312 0.11145 0.0
C126 C 0.65297 0.67581 0.03168 0.0
C127 C 0.67874 0.69336 0.02014 0.0
C128 C 0.63121 0.65479 0.01752 0.0
C129 C 0.68219 0.68988 0.99445 0.0
C130 C 0.63551 0.65195 0.99188 0.0
N131 N 0.66068 0.66943 0.98097 0.0
C132 C 0.7066 0.68197 0.07642 0.0
C133 C 0.72539 0.72059 0.10455 0.0
C134 C 0.73281 0.68448 0.07328 0.0
N135 N 0.70357 0.70059 0.09099 0.0
C136 C 0.75215 0.7241 0.10173 0.0
C137 C 0.75618 0.70638 0.08531 0.0
H138 H 0.68882 0.66581 0.06633 0.0
H139 H 0.72233 0.73442 0.11687 0.0
C140 C 0.65106 0.75746 0.03679 0.0
N141 N 0.6404 0.72967 0.03241 0.0
C142 C 0.65196 0.77508 0.01753 0.0
C143 C 0.6301 0.73514 0.98953 0.0
C144 C 0.62971 0.71824 0.0094 0.0
C145 C 0.64153 0.76401 0.99347 0.0
H146 H 0.65847 0.76594 0.05543 0.0
H147 H 0.62032 0.696 0.00652 0.0
O148 O 0.63871 0.67495 0.11495 0.0
O149 O 0.60356 0.68883 0.08059 0.0
O150 O 0.6661 0.73289 0.08744 0.0
O151 O 0.64933 0.67866 0.0569 0.0
H152 H 0.65032 0.63383 0.11519 0.0
H153 H 0.6681 0.71126 0.1508 0.0
H154 H 0.68438 0.63121 0.1441 0.0
H155 H 0.70174 0.70722 0.17917 0.0
H156 H 0.54756 0.66949 0.01177 0.0
H157 H 0.59675 0.73299 0.08317 0.0
H158 H 0.57522 0.65789 0.04127 0.0
H159 H 0.56898 0.74345 0.05276 0.0
H160 H 0.59603 0.71695 0.19135 0.0
H161 H 0.6327 0.78932 0.14201 0.0
H162 H 0.60156 0.57031 0.05663 0.0
H163 H 0.52668 0.57596 0.06675 0.0
H164 H 0.70243 0.75114 0.04959 0.0
H165 H 0.68987 0.76491 0.12751 0.0
H166 H 0.75093 0.79133 0.05219 0.0
H167 H 0.73843 0.80517 0.12864 0.0
H168 H 0.69596 0.70937 0.03092 0.0
H169 H 0.6111 0.64105 0.02608 0.0
H170 H 0.702 0.70337 0.98526 0.0
H171 H 0.6188 0.63591 0.98065 0.0
H172 H 0.73497 0.67042 0.06035 0.0
H173 H 0.76962 0.74097 0.11166 0.0
H174 H 0.66019 0.79707 0.02164 0.0
H175 H 0.62162 0.72575 0.97131 0.0
Li176 Li 0.28725 0.9218 0.12029 0.0
Li177 Li 0.32692 0.9455 0.09427 0.0
Li178 Li 0.29861 0.96684 0.10132 0.0
Li179 Li 0.28153 0.92281 0.07466 0.0
C180 C 0.31935 0.97059 0.14949 0.0
N181 N 0.31603 0.99262 0.19548 0.0
C182 C 0.34289 0.98399 0.16505 0.0
C183 C 0.29414 0.96844 0.15729 0.0
C184 C 0.34079 0.99498 0.18825 0.0
C185 C 0.29287 0.9797 0.18061 0.0
C186 C 0.31001 0.88988 0.10458 0.0
C187 C 0.31286 0.84776 0.10791 0.0
N188 N 0.33084 0.85917 0.12768 0.0
C189 C 0.32851 0.90119 0.12495 0.0
C190 C 0.30208 0.86295 0.096 0.0
C191 C 0.33881 0.88533 0.13636 0.0
C192 C 0.25064 0.87018 0.14354 0.0
N193 N 0.27146 0.89668 0.14871 0.0
C194 C 0.27012 0.88508 0.1925 0.0
C195 C 0.28177 0.9041 0.17259 0.0
C196 C 0.24796 0.85788 0.18782 0.0
C197 C 0.23832 0.85046 0.16289 0.0
H198 H 0.24397 0.86409 0.12426 0.0
H199 H 0.29933 0.92454 0.17638 0.0
C200 C 0.38494 0.9809 0.09645 0.0
N201 N 0.3646 0.95567 0.08776 0.0
C202 C 0.41257 0.99165 0.08855 0.0
C203 C 0.39792 0.94956 0.06396 0.0
C204 C 0.37053 0.9397 0.07221 0.0
C205 C 0.41927 0.97618 0.07164 0.0
H206 H 0.3794 0.99329 0.10846 0.0
H207 H 0.35381 0.91988 0.06534 0.0
C208 C 0.23406 0.91492 0.10765 0.0
N209 N 0.17795 0.88155 0.11922 0.0
C210 C 0.21898 0.88762 0.09822 0.0
C211 C 0.22043 0.92544 0.12254 0.0
C212 C 0.19069 0.87103 0.10441 0.0
C213 C 0.1921 0.90818 0.1283 0.0
C214 C 0.3341 0.97489 0.05251 0.0
C215 C 0.35344 0.00318 0.05651 0.0
C216 C 0.3378 0.96069 0.03231 0.0
C217 C 0.37651 0.01675 0.04038 0.0
C218 C 0.36116 0.975 0.01662 0.0
N219 N 0.37988 0.00248 0.02096 0.0
C220 C 0.31501 0.023 0.11698 0.0
C221 C 0.28475 0.00452 0.08167 0.0
C222 C 0.31782 0.04931 0.11301 0.0
N223 N 0.29884 0.00135 0.10123 0.0
C224 C 0.28746 0.0306 0.07667 0.0
C225 C 0.30469 0.05368 0.09212 0.0
H226 H 0.32678 0.02037 0.13193 0.0
H227 H 0.2726 0.98707 0.06912 0.0
C228 C 0.26255 0.88339 0.03478 0.0
N229 N 0.26053 0.90467 0.04558 0.0
C230 C 0.24637 0.86957 0.01361 0.0
C231 C 0.22682 0.90024 0.01497 0.0
C232 C 0.2434 0.91347 0.03605 0.0
C233 C 0.228 0.8778 0.0036 0.0
H234 H 0.27649 0.87698 0.0428 0.0
H235 H 0.24245 0.93061 0.04506 0.0
O236 O 0.32126 0.95991 0.12669 0.0
O237 O 0.29925 0.90475 0.09323 0.0
O238 O 0.26171 0.93167 0.10154 0.0
O239 O 0.31192 0.961 0.0686 0.0
H240 H 0.36258 0.98585 0.15924 0.0
H241 H 0.27579 0.95818 0.14552 0.0
H242 H 0.35884 0.00538 0.20049 0.0
H243 H 0.27348 0.97815 0.18689 0.0
H244 H 0.30689 0.82688 0.10146 0.0
H245 H 0.33484 0.92192 0.13198 0.0
H246 H 0.28767 0.85383 0.08034 0.0
H247 H 0.35311 0.89381 0.15215 0.0
H248 H 0.27829 0.89173 0.21141 0.0
H249 H 0.2218 0.82948 0.1583 0.0
H250 H 0.42821 0.01241 0.09468 0.0
H251 H 0.4022 0.93675 0.05122 0.0
H252 H 0.22907 0.87917 0.0865 0.0
H253 H 0.23152 0.94676 0.12946 0.0
H254 H 0.17886 0.84977 0.09742 0.0
H255 H 0.18134 0.91601 0.1399 0.0
H256 H 0.35086 0.01442 0.07212 0.0
H257 H 0.323 0.93874 0.02904 0.0
H258 H 0.3918 0.03859 0.04335 0.0
H259 H 0.36447 0.96422 0.00105 0.0
H260 H 0.33098 0.06626 0.1257 0.0
H261 H 0.27737 0.03284 0.06001 0.0
H262 H 0.24767 0.85217 0.00562 0.0
H263 H 0.21319 0.90745 0.00769 0.0
Li264 Li 0.65208 0.92692 0.43229 0.0
Li265 Li 0.67778 0.96962 0.40628 0.0
Li266 Li 0.62807 0.95036 0.41572 0.0
Li267 Li 0.64391 0.92525 0.38717 0.0
C268 C 0.65242 0.967 0.46393 0.0
N269 N 0.63742 0.97058 0.51308 0.0
C270 C 0.67113 0.98864 0.47968 0.0
C271 C 0.62607 0.94719 0.47314 0.0
C272 C 0.66316 0.99008 0.50449 0.0
C273 C 0.61889 0.94936 0.49805 0.0
C274 C 0.69955 0.9325 0.39183 0.0
C275 C 0.73252 0.94652 0.35736 0.0
N276 N 0.73992 0.92759 0.36506 0.0
C277 C 0.70762 0.91332 0.39953 0.0
C278 C 0.71219 0.94935 0.37068 0.0
C279 C 0.72801 0.9111 0.38569 0.0
C280 C 0.6327 0.88889 0.47373 0.0
N281 N 0.65562 0.90817 0.46084 0.0
C282 C 0.6859 0.90168 0.48871 0.0
C283 C 0.68189 0.91496 0.46801 0.0
C284 C 0.6626 0.88121 0.50213 0.0
C285 C 0.63572 0.87503 0.4945 0.0
H286 H 0.61204 0.88411 0.46779 0.0
H287 H 0.69972 0.93066 0.45754 0.0
C288 C 0.70904 0.02768 0.40139 0.0
N289 N 0.71149 0.00451 0.40407 0.0
C290 C 0.73248 0.05431 0.40354 0.0
C291 C 0.76069 0.03279 0.41113 0.0
C292 C 0.73666 0.00653 0.40875 0.0
C293 C 0.75865 0.05711 0.40901 0.0
H294 H 0.68862 0.02551 0.39903 0.0
H295 H 0.7379 0.98781 0.41182 0.0
C296 C 0.60298 0.88078 0.41453 0.0
N297 N 0.57884 0.82318 0.4134 0.0
C298 C 0.61975 0.86851 0.41229 0.0
C299 C 0.57394 0.86376 0.4162 0.0
C300 C 0.60715 0.83936 0.41175 0.0
C301 C 0.56213 0.83468 0.4156 0.0
C302 C 0.65375 0.97953 0.36221 0.0
C303 C 0.64823 0.00166 0.36245 0.0
C304 C 0.6655 0.97479 0.34066 0.0
C305 C 0.65537 0.01923 0.34138 0.0
C306 C 0.67231 0.99279 0.31996 0.0
N307 N 0.66719 0.01449 0.32076 0.0
C308 C 0.61513 0.98983 0.43133 0.0
C309 C 0.5744 0.94585 0.42429 0.0
C310 C 0.59918 0.00083 0.44098 0.0
N311 N 0.60265 0.96273 0.42366 0.0
C312 C 0.55749 0.95615 0.43353 0.0
C313 C 0.56992 0.98391 0.44246 0.0
H314 H 0.6377 0.00261 0.43084 0.0
H315 H 0.56511 0.92426 0.41826 0.0
C316 C 0.64761 0.88782 0.35203 0.0
N317 N 0.63438 0.90235 0.35759 0.0
C318 C 0.64088 0.8716 0.33016 0.0
C319 C 0.60588 0.8843 0.32063 0.0
C320 C 0.61366 0.9007 0.34254 0.0
C321 C 0.61974 0.86961 0.31401 0.0
H322 H 0.66341 0.88866 0.36452 0.0
H323 H 0.60318 0.91216 0.34761 0.0
O324 O 0.65992 0.96542 0.43957 0.0
O325 O 0.67947 0.93472 0.40514 0.0
O326 O 0.61474 0.90929 0.41494 0.0
O327 O 0.64656 0.96196 0.3826 0.0
H328 H 0.69159 0.00415 0.47278 0.0
H329 H 0.6113 0.93033 0.46119 0.0
H330 H 0.67743 0.00672 0.51691 0.0
H331 H 0.59857 0.93418 0.50543 0.0
H332 H 0.74249 0.95946 0.34095 0.0
H333 H 0.69805 0.90015 0.41591 0.0
H334 H 0.70669 0.96473 0.36484 0.0
H335 H 0.73435 0.89625 0.39135 0.0
H336 H 0.70701 0.9074 0.49415 0.0
H337 H 0.61716 0.85917 0.50406 0.0
H338 H 0.72978 0.07243 0.4025 0.0
H339 H 0.78046 0.03405 0.41548 0.0
H340 H 0.64225 0.8813 0.41104 0.0
H341 H 0.56067 0.87295 0.41793 0.0
H342 H 0.61989 0.8296 0.41002 0.0
H343 H 0.53967 0.82124 0.41688 0.0
H344 H 0.63868 0.00533 0.3788 0.0
H345 H 0.66907 0.95725 0.33976 0.0
H346 H 0.65145 0.03659 0.34141 0.0
H347 H 0.68152 0.98943 0.30319 0.0
H348 H 0.60991 0.02208 0.44811 0.0
H349 H 0.53503 0.9424 0.43397 0.0
H350 H 0.65255 0.86113 0.32585 0.0
H351 H 0.58907 0.88306 0.30915 0.0
Li352 Li 0.05447 0.71038 0.43185 0.0
Li353 Li 0.01669 0.6927 0.4028 0.0
Li354 Li 0.03189 0.66113 0.41952 0.0
Li355 Li 0.06159 0.70078 0.38783 0.0
C356 C 0.00762 0.68337 0.4611 0.0
N357 N 0.99081 0.68935 0.50882 0.0
C358 C 5e-05 0.70368 0.46557 0.0
C359 C 0.00632 0.66585 0.48079 0.0
C360 C 0.99171 0.70645 0.48986 0.0
C361 C 0.99785 0.66927 0.50481 0.0
C362 C 0.04794 0.74876 0.39095 0.0
C363 C 0.04945 0.77766 0.35606 0.0
N364 N 0.03907 0.79013 0.3714 0.0
C365 C 0.03756 0.76206 0.40643 0.0
C366 C 0.05416 0.75674 0.3656 0.0
C367 C 0.03309 0.78284 0.39617 0.0
C368 C 0.08632 0.76402 0.45199 0.0
N369 N 0.07254 0.73658 0.45882 0.0
C370 C 0.08507 0.74898 0.50219 0.0
C371 C 0.07177 0.72875 0.48338 0.0
C372 C 0.09868 0.77738 0.49561 0.0
C373 C 0.09929 0.78489 0.47022 0.0
H374 H 0.08726 0.76977 0.43235 0.0
H375 H 0.06099 0.70688 0.48844 0.0
C376 C 0.96085 0.67388 0.41053 0.0
N377 N 0.9824 0.6923 0.39576 0.0
C378 C 0.93606 0.67465 0.41162 0.0
C379 C 0.95494 0.71166 0.38045 0.0
C380 C 0.9794 0.70999 0.37983 0.0
C381 C 0.9333 0.69452 0.39723 0.0
H382 H 0.96346 0.65952 0.42256 0.0
H383 H 0.99627 0.72364 0.36742 0.0
C384 C 0.09349 0.69653 0.43775 0.0
N385 N 0.13467 0.71263 0.47413 0.0
C386 C 0.12071 0.71813 0.43276 0.0
C387 C 0.08728 0.68303 0.46121 0.0
C388 C 0.14121 0.72601 0.45141 0.0
C389 C 0.10837 0.69148 0.47935 0.0
C390 C 0.00397 0.65926 0.36506 0.0
C391 C 0.97804 0.63481 0.36752 0.0
C392 C 0.00872 0.67735 0.34477 0.0
C393 C 0.95716 0.62895 0.34968 0.0
C394 C 0.98731 0.67075 0.32732 0.0
N395 N 0.96218 0.64689 0.33013 0.0
C396 C 0.99014 0.60945 0.43526 0.0
C397 C 0.03524 0.61491 0.44046 0.0
C398 C 0.97801 0.58445 0.44884 0.0
N399 N 0.01828 0.62437 0.43186 0.0
C400 C 0.02405 0.59023 0.45466 0.0
C401 C 0.99508 0.57503 0.45966 0.0
H402 H 0.97725 0.61777 0.42856 0.0
H403 H 0.0576 0.62728 0.43754 0.0
C404 C 0.11106 0.7397 0.36578 0.0
N405 N 0.08832 0.71415 0.36141 0.0
C406 C 0.13208 0.75221 0.34764 0.0
C407 C 0.10544 0.71236 0.32027 0.0
C408 C 0.08507 0.70029 0.33925 0.0
C409 C 0.12937 0.73855 0.32455 0.0
H410 H 0.11261 0.75053 0.3833 0.0
H411 H 0.0666 0.68009 0.33622 0.0
O412 O 0.01578 0.68029 0.43745 0.0
O413 O 0.05269 0.72855 0.4007 0.0
O414 O 0.07301 0.68871 0.41984 0.0
O415 O 0.02442 0.66587 0.38273 0.0
H416 H 0.00055 0.7171 0.45044 0.0
H417 H 0.01208 0.65 0.47765 0.0
H418 H 0.98589 0.72215 0.49362 0.0
H419 H 0.99692 0.656 0.52028 0.0
H420 H 0.05404 0.78395 0.33646 0.0
H421 H 0.03301 0.75642 0.42616 0.0
H422 H 0.0624 0.74684 0.35338 0.0
H423 H 0.02492 0.7932 0.4079 0.0
H424 H 0.0844 0.74256 0.52167 0.0
H425 H 0.11003 0.80668 0.4645 0.0
H426 H 0.92006 0.66111 0.42495 0.0
H427 H 0.95341 0.72693 0.36871 0.0
H428 H 0.126 0.72869 0.41471 0.0
H429 H 0.06623 0.66667 0.46563 0.0
H430 H 0.16234 0.74274 0.44782 0.0
H431 H 0.10377 0.68135 0.49765 0.0
H432 H 0.97403 0.62057 0.38308 0.0
H433 H 0.02861 0.69646 0.3427 0.0
H434 H 0.93694 0.61015 0.3514 0.0
H435 H 0.99064 0.68464 0.31161 0.0
H436 H 0.95554 0.57318 0.45152 0.0
H437 H 0.03817 0.58406 0.4627 0.0
H438 H 0.15 0.77268 0.35138 0.0
H439 H 0.10268 0.70134 0.30258 0.0
Li440 Li 0.31373 0.34071 0.40812 0.0
Li441 Li 0.29216 0.36258 0.43134 0.0
Li442 Li 0.29895 0.36866 0.38427 0.0
Li443 Li 0.33919 0.38987 0.41533 0.0
C444 C 0.26002 0.30628 0.40228 0.0
N445 N 0.23133 0.24854 0.39936 0.0
C446 C 0.24842 0.29022 0.42407 0.0
C447 C 0.25694 0.29303 0.37899 0.0
C448 C 0.23402 0.26103 0.4222 0.0
C449 C 0.24237 0.26379 0.37791 0.0
C450 C 0.34626 0.36951 0.458 0.0
C451 C 0.3724 0.40003 0.49258 0.0
N452 N 0.39061 0.39023 0.49154 0.0
C453 C 0.36531 0.35979 0.45725 0.0
C454 C 0.34983 0.38978 0.47584 0.0
C455 C 0.38754 0.37047 0.4744 0.0
C456 C 0.31593 0.29167 0.38881 0.0
N457 N 0.31479 0.30641 0.40904 0.0
C458 C 0.31365 0.27236 0.43759 0.0
C459 C 0.31273 0.29668 0.433 0.0
C460 C 0.31621 0.25745 0.41728 0.0
C461 C 0.31674 0.26694 0.39254 0.0
H462 H 0.31601 0.29885 0.36982 0.0
H463 H 0.31036 0.30787 0.44871 0.0
C464 C 0.24196 0.35542 0.45139 0.0
N465 N 0.26666 0.35727 0.45774 0.0
C466 C 0.22265 0.35188 0.47011 0.0
C467 C 0.254 0.35091 0.50149 0.0
C468 C 0.27279 0.35462 0.48213 0.0
C469 C 0.22867 0.34978 0.49558 0.0
H470 H 0.2373 0.35672 0.43175 0.0
H471 H 0.29216 0.35522 0.48657 0.0
C472 C 0.34554 0.358 0.36604 0.0
N473 N 0.36525 0.33341 0.33248 0.0
C474 C 0.36821 0.35465 0.37263 0.0
C475 C 0.33296 0.34896 0.34234 0.0
C476 C 0.37783 0.34211 0.35542 0.0
C477 C 0.34323 0.33657 0.32565 0.0
C478 C 0.2934 0.40992 0.4205 0.0
C479 C 0.27197 0.40973 0.40627 0.0
C480 C 0.29928 0.42182 0.44467 0.0
C481 C 0.2566 0.42121 0.41658 0.0
C482 C 0.2834 0.43304 0.45433 0.0
N483 N 0.26256 0.43249 0.44021 0.0
C484 C 0.25582 0.35487 0.34939 0.0
C485 C 0.29769 0.39715 0.34014 0.0
C486 C 0.24218 0.3592 0.32921 0.0
N487 N 0.283 0.37379 0.35449 0.0
C488 C 0.28478 0.40244 0.31984 0.0
C489 C 0.25656 0.38343 0.31433 0.0
H490 H 0.24444 0.33685 0.36152 0.0
H491 H 0.31919 0.412 0.3449 0.0
C492 C 0.39743 0.41839 0.42559 0.0
N493 N 0.37464 0.42157 0.42337 0.0
C494 C 0.42103 0.43825 0.43866 0.0
C495 C 0.39867 0.46603 0.44391 0.0
C496 C 0.37531 0.44537 0.43115 0.0
C497 C 0.42137 0.46192 0.44903 0.0
H498 H 0.39641 0.39932 0.41916 0.0
H499 H 0.35711 0.44763 0.42877 0.0
O500 O 0.2749 0.33484 0.40386 0.0
O501 O 0.32452 0.35955 0.44113 0.0
O502 O 0.33611 0.37066 0.38241 0.0
O503 O 0.30835 0.39829 0.41092 0.0
H504 H 0.25079 0.30019 0.44226 0.0
H505 H 0.2661 0.3052 0.362 0.0
H506 H 0.22506 0.24831 0.43892 0.0
H507 H 0.23997 0.25323 0.36005 0.0
H508 H 0.3755 0.41588 0.50632 0.0
H509 H 0.36336 0.34459 0.44327 0.0
H510 H 0.33555 0.39782 0.47655 0.0
H511 H 0.40248 0.36323 0.47394 0.0
H512 H 0.31227 0.26523 0.45692 0.0
H513 H 0.31825 0.25568 0.37638 0.0
H514 H 0.20304 0.3504 0.46467 0.0
H515 H 0.25937 0.34927 0.52087 0.0
H516 H 0.37805 0.36133 0.39095 0.0
H517 H 0.31543 0.35144 0.33691 0.0
H518 H 0.39525 0.33923 0.36032 0.0
H519 H 0.33367 0.32942 0.30727 0.0
H520 H 0.26706 0.40064 0.38756 0.0
H521 H 0.31569 0.42209 0.45601 0.0
H522 H 0.23988 0.42108 0.40582 0.0
H523 H 0.2876 0.4421 0.47309 0.0
H524 H 0.22029 0.34426 0.3259 0.0
H525 H 0.29665 0.42128 0.30872 0.0
H526 H 0.43785 0.43396 0.44212 0.0
H527 H 0.39833 0.48438 0.45071 0.0
Li528 Li 0.94026 0.66575 0.92996 0.0
Li529 Li 0.95885 0.63393 0.92341 0.0
Li530 Li 0.97921 0.67911 0.90316 0.0
Li531 Li 0.93404 0.64417 0.88927 0.0
C532 C -0.00067 0.69309 0.95003 0.0
N533 N 0.04668 0.73942 0.96856 0.0
C534 C 0.02335 0.69158 0.95534 0.0
C535 C -0.00068 0.71811 0.95435 0.0
C536 C 0.0471 0.71526 0.96462 0.0
C537 C 0.02349 0.74131 0.9637 0.0
C538 C 0.89779 0.61574 0.93947 0.0
C539 C 0.85001 0.60125 0.95055 0.0
N540 N 0.85599 0.59996 0.97529 0.0
C541 C 0.90339 0.61406 0.96499 0.0
C542 C 0.87084 0.60911 0.93215 0.0
C543 C 0.882 0.60611 0.98282 0.0
C544 C 0.90695 0.6882 0.94607 0.0
N545 N 0.92407 0.67875 0.95426 0.0
C546 C 0.91744 0.68741 0.9973 0.0
C547 C 0.92987 0.6786 0.97925 0.0
C548 C 0.89967 0.69719 0.98934 0.0
C549 C 0.8946 0.69782 0.96344 0.0
H550 H 0.90281 0.6881 0.92606 0.0
H551 H 0.94383 0.67124 0.98514 0.0
C552 C 0.99552 0.61495 0.93313 0.0
N553 N 0.9689 0.6088 0.93812 0.0
C554 C 0.00665 0.60015 0.94502 0.0
C555 C 0.96243 0.57226 0.96644 0.0
C556 C 0.95202 0.58743 0.95383 0.0
C557 C 0.99034 0.57896 0.9625 0.0
H558 H 0.00835 0.63189 0.92032 0.0
H559 H 0.93074 0.58256 0.95711 0.0
C560 C 0.95013 0.6977 0.87425 0.0
N561 N 0.95618 0.72471 0.82867 0.0
C562 C 0.96376 0.69325 0.85397 0.0
C563 C 0.93961 0.71591 0.87133 0.0
C564 C 0.96659 0.70709 0.83109 0.0
C565 C 0.94288 0.72937 0.84815 0.0
C566 C 0.96647 0.61982 0.87501 0.0
C567 C 0.98609 0.62182 0.85717 0.0
C568 C 0.94328 0.59366 0.88054 0.0
C569 C 0.9821 0.5976 0.84498 0.0
C570 C 0.94005 0.56994 0.86795 0.0
N571 N 0.95936 0.57238 0.85058 0.0
C572 C 0.03635 0.70433 0.89316 0.0
C573 C 0.01937 0.73619 0.89571 0.0
C574 C 0.06394 0.7263 0.89464 0.0
N575 N 0.01487 0.70963 0.89479 0.0
C576 C 0.04662 0.75878 0.89718 0.0
C577 C 0.06923 0.75382 0.8979 0.0
H578 H 0.03201 0.6829 0.89297 0.0
H579 H 0.00185 0.73971 0.8975 0.0
C580 C 0.88657 0.63438 0.86247 0.0
N581 N 0.90935 0.63111 0.86076 0.0
C582 C 0.86821 0.62749 0.84209 0.0
C583 C 0.89738 0.61455 0.81822 0.0
C584 C 0.91517 0.62167 0.83908 0.0
C585 C 0.87355 0.6175 0.81952 0.0
H586 H 0.88306 0.64302 0.87953 0.0
H587 H 0.934 0.62043 0.83755 0.0
O588 O 0.97614 0.67038 0.94019 0.0
O589 O 0.91864 0.62404 0.92182 0.0
O590 O 0.9466 0.68411 0.8968 0.0
O591 O 0.97043 0.64343 0.8872 0.0
H592 H 0.02374 0.67242 0.95208 0.0
H593 H 0.98104 0.71977 0.95007 0.0
H594 H 0.06591 0.71446 0.96862 0.0
H595 H 0.02387 0.76087 0.96691 0.0
H596 H 0.82909 0.59615 0.94514 0.0
H597 H 0.92423 0.61958 0.97108 0.0
H598 H 0.86597 0.60988 0.91249 0.0
H599 H 0.88616 0.60505 0.00266 0.0
H600 H 0.92169 0.68669 0.01721 0.0
H601 H 0.88078 0.70511 0.95681 0.0
H602 H 0.02797 0.60556 0.94075 0.0
H603 H 0.94902 0.55617 0.97974 0.0
H604 H 0.97202 0.67924 0.85575 0.0
H605 H 0.92896 0.71955 0.88682 0.0
H606 H 0.97704 0.70379 0.81524 0.0
H607 H 0.93481 0.7435 0.84563 0.0
H608 H 0.00422 0.64191 0.85278 0.0
H609 H 0.9279 0.59159 0.89434 0.0
H610 H 0.9971 0.59885 0.83109 0.0
H611 H 0.9222 0.54958 0.87201 0.0
H612 H 0.08069 0.72149 0.89547 0.0
H613 H 0.04985 0.77972 0.89948 0.0
H614 H 0.85011 0.63011 0.84399 0.0
H615 H 0.90275 0.60765 0.801 0.0
Li616 Li 0.33064 0.29645 0.89751 0.0
Li617 Li 0.37748 0.32256 0.91595 0.0
Li618 Li 0.36413 0.28407 0.88422 0.0
Li619 Li 0.34576 0.27268 0.9261 0.0
C620 C 0.35836 0.33718 0.86651 0.0
N621 N 0.34 0.36865 0.84093 0.0
C622 C 0.36732 0.36471 0.87398 0.0
C623 C 0.34026 0.32573 0.84591 0.0
C624 C 0.35776 0.38026 0.86083 0.0
C625 C 0.33115 0.34195 0.83327 0.0
C626 C 0.31902 0.29791 0.94918 0.0
C627 C 0.29746 0.30735 0.98471 0.0
N628 N 0.27318 0.28315 0.98001 0.0
C629 C 0.29389 0.27299 0.94487 0.0
C630 C 0.32087 0.31515 0.96937 0.0
C631 C 0.27094 0.26596 0.96059 0.0
C632 C 0.2748 0.28036 0.88191 0.0
N633 N 0.2991 0.30126 0.89162 0.0
C634 C 0.27592 0.32538 0.90632 0.0
C635 C 0.30028 0.32405 0.90275 0.0
C636 C 0.25007 0.30321 0.89793 0.0
C637 C 0.25008 0.28127 0.88431 0.0
H638 H 0.274 0.26195 0.87407 0.0
H639 H 0.31974 0.34001 0.91093 0.0
C640 C 0.43285 0.36519 0.92704 0.0
N641 N 0.40534 0.35733 0.92922 0.0
C642 C 0.45298 0.38822 0.94061 0.0
C643 C 0.41627 0.39589 0.95664 0.0
C644 C 0.39684 0.37254 0.943 0.0
C645 C 0.44463 0.40342 0.95616 0.0
H646 H 0.43894 0.35265 0.91588 0.0
H647 H 0.37484 0.36594 0.94406 0.0
C648 C 0.31859 0.23742 0.87676 0.0
N649 N 0.30823 0.19675 0.84087 0.0
C650 C 0.32599 0.21699 0.8814 0.0
C651 C 0.30615 0.23723 0.85365 0.0
C652 C 0.32057 0.19663 0.86307 0.0
C653 C 0.30096 0.21644 0.83584 0.0
C654 C 0.39595 0.28168 0.93531 0.0
C655 C 0.39088 0.25414 0.93487 0.0
C656 C 0.41034 0.29894 0.95583 0.0
C657 C 0.4003 0.24442 0.95483 0.0
C658 C 0.41951 0.28848 0.97538 0.0
N659 N 0.41432 0.26166 0.9745 0.0
C660 C 0.39345 0.2594 0.86339 0.0
C661 C 0.36922 0.27037 0.83266 0.0
C662 C 0.39779 0.2429 0.84605 0.0
N663 N 0.378 0.27138 0.85689 0.0
C664 C 0.37334 0.25424 0.81455 0.0
C665 C 0.38659 0.23921 0.82163 0.0
H666 H 0.40099 0.26124 0.88247 0.0
H667 H 0.35716 0.28023 0.82787 0.0
C668 C 0.31871 0.21962 0.95178 0.0
N669 N 0.33491 0.24782 0.9544 0.0
C670 C 0.3147 0.202 0.97224 0.0
C671 C 0.34192 0.24289 0.99825 0.0
C672 C 0.34539 0.25966 0.9773 0.0
C673 C 0.32719 0.21364 0.99565 0.0
H674 H 0.30956 0.21072 0.93369 0.0
H675 H 0.35746 0.28221 0.97903 0.0
O676 O 0.36707 0.32145 0.87946 0.0
O677 O 0.34168 0.30555 0.93373 0.0
O678 O 0.32412 0.25782 0.89441 0.0
O679 O 0.3863 0.29142 0.91615 0.0
H680 H 0.38138 0.37393 0.88983 0.0
H681 H 0.33296 0.30441 0.84 0.0
H682 H 0.36443 0.40156 0.86647 0.0
H683 H 0.31696 0.33328 0.81742 0.0
H684 H 0.2986 0.32055 0.00035 0.0
H685 H 0.292 0.25924 0.92947 0.0
H686 H 0.34018 0.33436 0.9732 0.0
H687 H 0.25135 0.24684 0.95733 0.0
H688 H 0.27725 0.34256 0.91731 0.0
H689 H 0.23092 0.264 0.87692 0.0
H690 H 0.47471 0.39362 0.9395 0.0
H691 H 0.40898 0.40703 0.96844 0.0
H692 H 0.33635 0.21712 0.89873 0.0
H693 H 0.30129 0.25339 0.84908 0.0
H694 H 0.32637 0.18085 0.86643 0.0
H695 H 0.29148 0.21619 0.81788 0.0
H696 H 0.37929 0.24013 0.91959 0.0
H697 H 0.41385 0.31997 0.95708 0.0
H698 H 0.39629 0.22311 0.95476 0.0
H699 H 0.43053 0.30162 0.99139 0.0
H700 H 0.40858 0.23202 0.85203 0.0
H701 H 0.3644 0.25186 0.79585 0.0
H702 H 0.30309 0.17955 0.9694 0.0
H703 H 0.35134 0.25273 0.0161 0.0
Li704 Li 0.70167 0.06577 0.89167 0.0
Li705 Li 0.71448 0.06492 0.93547 0.0
Li706 Li 0.68413 0.02097 0.91016 0.0
Li707 Li 0.66607 0.05044 0.92429 0.0
C708 C 0.74738 0.06054 0.89025 0.0
N709 N 0.79392 0.08371 0.85908 0.0
C710 C 0.77234 0.08378 0.89827 0.0
C711 C 0.7463 0.04876 0.86655 0.0
C712 C 0.79559 0.09526 0.88221 0.0
C713 C 0.76998 0.06088 0.85101 0.0
C714 C 0.69397 0.10789 0.91215 0.0
C715 C 0.70314 0.15548 0.91099 0.0
N716 N 0.68157 0.1476 0.89451 0.0
C717 C 0.67189 0.10027 0.89519 0.0
C718 C 0.70974 0.13572 0.92012 0.0
C719 C 0.66595 0.12065 0.8865 0.0
C720 C 0.70265 0.07698 0.83912 0.0
N721 N 0.71617 0.08686 0.86146 0.0
C722 C 0.75467 0.12521 0.8406 0.0
C723 C 0.74119 0.11102 0.8627 0.0
C724 C 0.74189 0.1148 0.817 0.0
C725 C 0.71509 0.09079 0.81657 0.0
H726 H 0.68249 0.05804 0.83872 0.0
H727 H 0.75123 0.11862 0.88083 0.0
C728 C 0.74358 0.06618 0.98004 0.0
N729 N 0.74165 0.08185 0.96117 0.0
C730 C 0.76297 0.07907 0.99954 0.0
C731 C 0.77808 0.12383 0.97952 0.0
C732 C 0.7583 0.11012 0.96058 0.0
C733 C 0.78052 0.10833 0.99947 0.0
H734 H 0.72983 0.04371 0.98008 0.0
H735 H 0.75634 0.12195 0.94523 0.0
C736 C 0.64601 0.0124 0.87457 0.0
N737 N 0.61265 0.96759 0.84347 0.0
C738 C 0.6169 0.00029 0.87529 0.0
C739 C 0.65813 0.00211 0.85758 0.0
C740 C 0.6004 0.97756 0.85953 0.0
C741 C 0.64094 0.97933 0.84215 0.0
C742 C 0.66645 0.02577 0.96808 0.0
C743 C 0.6455 0.9988 0.97477 0.0
C744 C 0.67282 0.04822 0.9843 0.0
C745 C 0.63106 0.99477 0.99753 0.0
C746 C 0.65789 0.04332 0.00688 0.0
N747 N 0.63747 0.01693 0.01297 0.0
C748 C 0.69524 0.97712 0.90073 0.0
C749 C 0.64819 0.96271 0.91143 0.0
C750 C 0.68936 0.94939 0.90086 0.0
N751 N 0.67484 0.98318 0.90643 0.0
C752 C 0.64138 0.93471 0.9118 0.0
C753 C 0.66229 0.92782 0.9071 0.0
H754 H 0.71628 0.99389 0.89694 0.0
H755 H 0.63247 0.96826 0.91602 0.0
C756 C 0.63569 0.07108 0.95175 0.0
N757 N 0.63378 0.04873 0.93904 0.0
C758 C 0.61374 0.0678 0.96725 0.0
C759 C 0.58797 0.01885 0.95564 0.0
C760 C 0.61046 0.02302 0.94052 0.0
C761 C 0.58974 0.04128 0.96971 0.0
H762 H 0.65487 0.09104 0.95113 0.0
H763 H 0.61014 0.00531 0.9314 0.0
O764 O 0.72425 0.04934 0.90559 0.0
O765 O 0.70045 0.08842 0.92079 0.0
O766 O 0.66251 0.03456 0.89003 0.0
O767 O 0.68009 0.03033 0.94542 0.0
H768 H 0.77373 0.09304 0.9166 0.0
H769 H 0.72744 0.03049 0.86015 0.0
H770 H 0.81495 0.11339 0.88812 0.0
H771 H 0.76932 0.0521 0.83254 0.0
H772 H 0.71517 0.17709 0.91701 0.0
H773 H 0.65938 0.07889 0.88878 0.0
H774 H 0.72689 0.142 0.93324 0.0
H775 H 0.64892 0.11504 0.87339 0.0
H776 H 0.77535 0.14344 0.84204 0.0
H777 H 0.70401 0.0824 0.79897 0.0
H778 H 0.76395 0.06632 0.01463 0.0
H779 H 0.79157 0.14632 0.9783 0.0
H780 H 0.60713 0.00855 0.88761 0.0
H781 H 0.68056 0.01146 0.85648 0.0
H782 H 0.57784 0.96793 0.85999 0.0
H783 H 0.65009 0.97101 0.82912 0.0
H784 H 0.64027 0.98121 0.96241 0.0
H785 H 0.68873 0.06929 0.97926 0.0
H786 H 0.61468 0.97403 0.00289 0.0
H787 H 0.6624 0.06053 0.0195 0.0
H788 H 0.70602 0.94496 0.89691 0.0
H789 H 0.62036 0.91884 0.91706 0.0
H790 H 0.6159 0.08559 0.97786 0.0
H791 H 0.57013 0.99793 0.95749 0.0
Li792 Li 0.34841 0.06039 0.56601 0.0
Li793 Li 0.35977 0.06066 0.61093 0.0
Li794 Li 0.37602 0.03935 0.57886 0.0
Li795 Li 0.32681 0.01746 0.59141 0.0
C796 C 0.41378 0.09531 0.57944 0.0
N797 N 0.47125 0.12696 0.57429 0.0
C798 C 0.43055 0.1084 0.60054 0.0
C799 C 0.42625 0.09841 0.5557 0.0
C800 C 0.45956 0.12432 0.59754 0.0
C801 C 0.45533 0.11445 0.5535 0.0
C802 C 0.31285 0.06398 0.61 0.0
C803 C 0.29431 0.06925 0.64969 0.0
N804 N 0.29399 0.09203 0.64027 0.0
C805 C 0.31225 0.08739 0.60069 0.0
C806 C 0.30369 0.05473 0.63466 0.0
C807 C 0.30265 0.10129 0.61629 0.0
C808 C 0.31623 0.07155 0.53109 0.0
N809 N 0.34254 0.08037 0.53975 0.0
C810 C 0.36163 0.11901 0.51115 0.0
C811 C 0.36505 0.10356 0.5302 0.0
C812 C 0.3347 0.11068 0.50198 0.0
C813 C 0.31181 0.08642 0.512 0.0
H814 H 0.29866 0.05321 0.5393 0.0
H815 H 0.38565 0.11033 0.53763 0.0
C816 C 0.37315 0.07276 0.66299 0.0
N817 N 0.36901 0.08269 0.6409 0.0
C818 C 0.37748 0.08783 0.6854 0.0
C819 C 0.37355 0.1232 0.66177 0.0
C820 C 0.3701 0.10783 0.63976 0.0
C821 C 0.37692 0.11311 0.68519 0.0
H822 H 0.3727 0.05293 0.66326 0.0
H823 H 0.36727 0.11546 0.62181 0.0
C824 C 0.33469 0.02069 0.53248 0.0
N825 N 0.31783 0.0176 0.48283 0.0
C826 C 0.30625 0.00583 0.52636 0.0
C827 C 0.35456 0.0339 0.51335 0.0
C828 C 0.29815 0.00451 0.50114 0.0
C829 C 0.34561 0.03213 0.48837 0.0
C830 C 0.34828 0.999 0.62387 0.0
C831 C 0.35355 0.97867 0.61375 0.0
C832 C 0.33032 0.99243 0.64461 0.0
C833 C 0.34055 0.95193 0.62448 0.0
C834 C 0.31771 0.96544 0.65479 0.0
N835 N 0.32303 0.94592 0.64459 0.0
C836 C 0.43107 0.04596 0.57662 0.0
C837 C 0.39731 0.01313 0.54829 0.0
C838 C 0.45225 0.04331 0.56472 0.0
N839 N 0.40449 0.03196 0.56746 0.0
C840 C 0.41764 0.00929 0.53627 0.0
C841 C 0.4456 0.02521 0.54395 0.0
H842 H 0.43609 0.06011 0.59242 0.0
H843 H 0.3759 0.00173 0.54177 0.0
C844 C 0.2706 0.98012 0.60635 0.0
N845 N 0.29335 0.98238 0.59421 0.0
C846 C 0.24468 0.95565 0.60415 0.0
C847 C 0.26647 0.93598 0.57789 0.0
C848 C 0.29197 0.96071 0.58079 0.0
C849 C 0.24216 0.93354 0.58898 0.0
H850 H 0.2722 0.99776 0.61667 0.0
H851 H 0.31038 0.96331 0.57104 0.0
O852 O 0.38532 0.07971 0.58201 0.0
O853 O 0.32245 0.05027 0.59509 0.0
O854 O 0.34304 0.02272 0.55712 0.0
O855 O 0.36019 0.02503 0.6132 0.0
H856 H 0.42131 0.10624 0.61905 0.0
H857 H 0.41364 0.08819 0.53921 0.0
H858 H 0.4728 0.13452 0.61371 0.0
H859 H 0.46526 0.11685 0.53529 0.0
H860 H 0.2874 0.06248 0.66887 0.0
H861 H 0.31935 0.09491 0.5817 0.0
H862 H 0.30431 0.03686 0.64229 0.0
H863 H 0.30218 0.11951 0.60937 0.0
H864 H 0.37987 0.13747 0.50383 0.0
H865 H 0.29066 0.07953 0.50576 0.0
H866 H 0.38091 0.0795 0.70269 0.0
H867 H 0.37258 0.14227 0.66039 0.0
H868 H 0.29057 0.99576 0.54095 0.0
H869 H 0.37664 0.0456 0.51779 0.0
H870 H 0.27621 0.9932 0.49613 0.0
H871 H 0.36075 0.04236 0.47339 0.0
H872 H 0.36731 0.98341 0.59763 0.0
H873 H 0.32595 0.00791 0.6526 0.0
H874 H 0.34432 0.93593 0.61677 0.0
H875 H 0.30364 0.96 0.67075 0.0
H876 H 0.47363 0.05566 0.57127 0.0
H877 H 0.41181 0.9951 0.52032 0.0
H878 H 0.2266 0.95456 0.61332 0.0
H879 H 0.26557 0.91976 0.56569 0.0
Li880 Li 0.97372 0.31062 0.59471 0.0
Li881 Li 0.94414 0.32995 0.59041 0.0
Li882 Li 0.92968 0.28757 0.61797 0.0
Li883 Li 0.93093 0.28582 0.57061 0.0
C884 C 0.98266 0.33619 0.63984 0.0
N885 N 0.02533 0.35574 0.67504 0.0
C886 C 0.00778 0.36106 0.63539 0.0
C887 C 0.97921 0.32132 0.66224 0.0
C888 C 0.02911 0.37057 0.6534 0.0
C889 C 0.00103 0.33155 0.67979 0.0
C890 C 0.9731 0.34556 0.54838 0.0
C891 C 0.96509 0.37203 0.51646 0.0
N892 N 0.99156 0.3937 0.51989 0.0
C893 C 0.00024 0.36814 0.55159 0.0
C894 C 0.9554 0.3475 0.53061 0.0
C895 C 0.00919 0.39226 0.53699 0.0
C896 C 0.02148 0.3207 0.56948 0.0
N897 N 0.01146 0.31753 0.59346 0.0
C898 C 0.0537 0.32147 0.6099 0.0
C899 C 0.02673 0.31724 0.61357 0.0
C900 C 0.06479 0.32578 0.58532 0.0
C901 C 0.04817 0.32507 0.56497 0.0
H902 H 0.00851 0.31936 0.55366 0.0
H903 H 0.01791 0.31319 0.63236 0.0
C904 C 0.91966 0.36276 0.57691 0.0
N905 N 0.94313 0.36376 0.58613 0.0
C906 C 0.92071 0.38711 0.568 0.0
C907 C 0.96959 0.41318 0.57968 0.0
C908 C 0.96745 0.38845 0.58872 0.0
C909 C 0.94624 0.41245 0.56845 0.0
H910 H 0.90054 0.3429 0.57521 0.0
H911 H 0.98576 0.38867 0.59611 0.0
C912 C 0.96177 0.25816 0.59467 0.0
N913 N 0.99725 0.23648 0.59162 0.0
C914 C 0.96869 0.25177 0.57111 0.0
C915 C 0.97281 0.25346 0.61669 0.0
C916 C 0.98669 0.24084 0.56997 0.0
C917 C 0.99072 0.24248 0.61474 0.0
C918 C 0.88123 0.27864 0.58218 0.0
C919 C 0.86118 0.25468 0.59485 0.0
C920 C 0.87487 0.28529 0.5585 0.0
C921 C 0.83518 0.23767 0.58353 0.0
C922 C 0.84865 0.26772 0.54779 0.0
N923 N 0.82952 0.24446 0.56042 0.0
C924 C 0.89439 0.27469 0.6611 0.0
C925 C 0.90541 0.24007 0.64845 0.0
C926 C 0.87523 0.25642 0.67897 0.0
N927 N 0.9086 0.26602 0.64606 0.0
C928 C 0.88677 0.22129 0.66615 0.0
C929 C 0.87075 0.22905 0.68123 0.0
H930 H 0.89698 0.2953 0.65839 0.0
H931 H 0.91647 0.23349 0.63588 0.0
C932 C 0.92152 0.26924 0.51873 0.0
N933 N 0.91356 0.26107 0.54304 0.0
C934 C 0.90855 0.25035 0.49889 0.0
C935 C 0.8799 0.21499 0.52959 0.0
C936 C 0.89354 0.23446 0.54878 0.0
C937 C 0.88736 0.2228 0.5042 0.0
H938 H 0.93813 0.29028 0.51476 0.0
H939 H 0.88812 0.22842 0.56834 0.0
O940 O 0.9613 0.32675 0.62269 0.0
O941 O 0.96378 0.32188 0.56281 0.0
O942 O 0.94488 0.26968 0.59612 0.0
O943 O 0.90701 0.29534 0.59277 0.0
H944 H 0.011 0.37265 0.61805 0.0
H945 H 0.95991 0.30209 0.66605 0.0
H946 H 0.04873 0.38967 0.65012 0.0
H947 H 0.99867 0.32023 0.69718 0.0
H948 H 0.95152 0.37387 0.50279 0.0
H949 H 0.01411 0.36733 0.56557 0.0
H950 H 0.93428 0.3304 0.52798 0.0
H951 H 0.03006 0.40993 0.5394 0.0
H952 H 0.06573 0.32142 0.62605 0.0
H953 H 0.0555 0.32727 0.54562 0.0
H954 H 0.90229 0.38583 0.55943 0.0
H955 H 0.98955 0.43245 0.58049 0.0
H956 H 0.96054 0.25553 0.55387 0.0
H957 H 0.96803 0.25873 0.63506 0.0
H958 H 0.99235 0.23594 0.55186 0.0
H959 H -0.00042 0.23892 0.63161 0.0
H960 H 0.86564 0.24909 0.61313 0.0
H961 H 0.89014 0.30359 0.5483 0.0
H962 H 0.81953 0.21901 0.59309 0.0
H963 H 0.84356 0.27252 0.52939 0.0
H964 H 0.86316 0.26321 0.69002 0.0
H965 H 0.88442 0.20063 0.66752 0.0
H966 H 0.91532 0.25713 0.47965 0.0
H967 H 0.86345 0.19415 0.53463 0.0
Li968 Li 0.7175 0.63963 0.61193 0.0
Li969 Li 0.70472 0.67497 0.59944 0.0
Li970 Li 0.67998 0.62878 0.58314 0.0
Li971 Li 0.72661 0.65953 0.5682 0.0
C972 C 0.65835 0.61761 0.62803 0.0
N973 N 0.60894 0.57127 0.64324 0.0
C974 C 0.63432 0.61961 0.63166 0.0
C975 C 0.6573 0.5921 0.63232 0.0
C976 C 0.60953 0.59593 0.6393 0.0
C977 C 0.63212 0.5689 0.63997 0.0
C978 C 0.75746 0.69436 0.62183 0.0
C979 C 0.80096 0.72373 0.64358 0.0
N980 N 0.78641 0.72313 0.66459 0.0
C981 C 0.74295 0.69404 0.64367 0.0
C982 C 0.78671 0.70931 0.62179 0.0
C983 C 0.75796 0.70872 0.66507 0.0
C984 C 0.75223 0.62061 0.63158 0.0
N985 N 0.7329 0.62792 0.63802 0.0
C986 C 0.73897 0.62223 0.68194 0.0
C987 C 0.72591 0.62865 0.66257 0.0
C988 C 0.75923 0.61482 0.67589 0.0
C989 C 0.7656 0.61375 0.65031 0.0
H990 H 0.75757 0.62057 0.61188 0.0
H991 H 0.71056 0.63472 0.66711 0.0
C992 C 0.67453 0.70225 0.60725 0.0
N993 N 0.70099 0.7065 0.6075 0.0
C994 C 0.67006 0.72496 0.60594 0.0
C995 C 0.72019 0.75605 0.60609 0.0
C996 C 0.7237 0.73274 0.60769 0.0
C997 C 0.6931 0.75218 0.60431 0.0
H998 H 0.65697 0.6812 0.60594 0.0
H999 H 0.74453 0.73559 0.60693 0.0
C1000 C 0.70087 0.59416 0.56917 0.0
N1001 N 0.68099 0.54143 0.54869 0.0
C1002 C 0.69364 0.58938 0.54359 0.0
C1003 C 0.69818 0.57216 0.58431 0.0
C1004 C 0.68356 0.56256 0.5336 0.0
C1005 C 0.68805 0.54565 0.57361 0.0
C1006 C 0.69989 0.68681 0.54967 0.0
C1007 C 0.67948 0.68708 0.53424 0.0
C1008 C 0.72651 0.71061 0.55095 0.0
C1009 C 0.686 0.7112 0.52044 0.0
C1010 C 0.7322 0.73432 0.53688 0.0
N1011 N 0.712 0.73413 0.52206 0.0
C1012 C 0.62765 0.61497 0.56712 0.0
C1013 C 0.63178 0.57426 0.56929 0.0
C1014 C 0.60049 0.59947 0.55783 0.0
N1015 N 0.64289 0.60239 0.57222 0.0
C1016 C 0.6048 0.55798 0.55947 0.0
C1017 C 0.58898 0.57071 0.5535 0.0
H1018 H 0.63673 0.63723 0.57023 0.0
H1019 H 0.6437 0.56439 0.57442 0.0
C1020 C 0.77906 0.68677 0.54387 0.0
N1021 N 0.75109 0.67056 0.53992 0.0
C1022 C 0.79759 0.69556 0.52346 0.0
C1023 C 0.7582 0.67052 0.4953 0.0
C1024 C 0.74037 0.66274 0.51623 0.0
C1025 C 0.78715 0.68715 0.49889 0.0
H1026 H 0.78693 0.6928 0.56289 0.0
H1027 H 0.71798 0.65053 0.51358 0.0
O1028 O 0.68261 0.64023 0.61964 0.0
O1029 O 0.74326 0.6797 0.60074 0.0
O1030 O 0.71108 0.62032 0.57927 0.0
O1031 O 0.69339 0.66363 0.56399 0.0
H1032 H 0.63471 0.63915 0.62846 0.0
H1033 H 0.67564 0.59013 0.62948 0.0
H1034 H 0.59073 0.59714 0.64204 0.0
H1035 H 0.63098 0.54899 0.6432 0.0
H1036 H 0.8236 0.73536 0.6438 0.0
H1037 H 0.72035 0.68259 0.6442 0.0
H1038 H 0.79835 0.70971 0.60517 0.0
H1039 H 0.74697 0.70861 0.68208 0.0
H1040 H 0.73335 0.62311 0.70142 0.0
H1041 H 0.78135 0.6085 0.64487 0.0
H1042 H 0.64888 0.72112 0.60403 0.0
H1043 H 0.73844 0.77676 0.60469 0.0
H1044 H 0.69535 0.60606 0.53167 0.0
H1045 H 0.70387 0.57551 0.6041 0.0
H1046 H 0.6777 0.55853 0.51387 0.0
H1047 H 0.6858 0.52842 0.58511 0.0
H1048 H 0.65875 0.66889 0.53302 0.0
H1049 H 0.74254 0.71098 0.56294 0.0
H1050 H 0.67036 0.71172 0.5085 0.0
H1051 H 0.75266 0.75291 0.53784 0.0
H1052 H 0.58886 0.60997 0.55346 0.0
H1053 H 0.59631 0.5357 0.55672 0.0
H1054 H 0.81988 0.70821 0.52687 0.0
H1055 H 0.74952 0.66381 0.47653 0.0
H1056 H 0.16163 0.35948 0.96957 0.0
H1057 H 0.10032 0.27259 0.98469 0.0
H1058 H 0.12467 0.25748 0.95496 0.0
H1059 H 0.17324 0.34956 0.90096 0.0
H1060 H 0.21011 0.37459 0.90308 0.0
H1061 H 0.18552 0.37873 0.92249 0.0
H1062 H 0.21303 0.37993 0.9626 0.0
H1063 H 0.23757 0.37567 0.94339 0.0
H1064 H 0.21925 0.35132 0.96866 0.0
H1065 H 0.15896 0.25174 0.9294 0.0
H1066 H 0.20064 0.25539 0.90941 0.0
H1067 H 0.23887 0.34611 0.90766 0.0
C1068 C 0.15287 0.33732 0.96598 0.0
C1069 C 0.12912 0.31718 0.97941 0.0
C1070 C 0.11865 0.28834 0.97475 0.0
C1071 C 0.13218 0.27956 0.95773 0.0
C1072 C 0.15598 0.29989 0.94531 0.0
C1073 C 0.16614 0.32819 0.949 0.0
C1074 C 0.19357 0.34561 0.93508 0.0
C1075 C 0.19041 0.36316 0.91416 0.0
C1076 C 0.21724 0.36421 0.95354 0.0
C1077 C 0.19783 0.32265 0.92399 0.0
C1078 C 0.17568 0.29648 0.92984 0.0
C1079 C 0.17607 0.27208 0.924 0.0
C1080 C 0.19994 0.27444 0.91236 0.0
C1081 C 0.22325 0.30107 0.90645 0.0
C1082 C 0.22162 0.3254 0.91181 0.0
H1083 H 0.68396 0.81639 0.98166 0.0
H1084 H 0.59956 0.75408 0.95998 0.0
H1085 H 0.59825 0.78781 0.93 0.0
H1086 H 0.6722 0.87162 0.98459 0.0
H1087 H 0.70598 0.89757 0.97266 0.0
H1088 H 0.70213 0.86707 0.98859 0.0
H1089 H 0.72271 0.8551 0.94954 0.0
H1090 H 0.72665 0.88568 0.93344 0.0
H1091 H 0.70704 0.85168 0.91888 0.0
H1092 H 0.60368 0.8305 0.90737 0.0
H1093 H 0.61547 0.87814 0.89396 0.0
H1094 H 0.69578 0.91224 0.93159 0.0
C1095 C 0.66538 0.80966 0.97026 0.0
C1096 C 0.64188 0.78264 0.9731 0.0
C1097 C 0.61796 0.77457 0.95783 0.0
C1098 C 0.61702 0.7936 0.9408 0.0
C1099 C 0.64028 0.82045 0.93909 0.0
C1100 C 0.66411 0.82835 0.95329 0.0
C1101 C 0.68518 0.8591 0.94999 0.0
C1102 C 0.69173 0.87474 0.97546 0.0
C1103 C 0.71198 0.86311 0.93719 0.0
C1104 C 0.66903 0.86761 0.93259 0.0
C1105 C 0.64337 0.845 0.92613 0.0
C1106 C 0.62392 0.84827 0.91193 0.0
C1107 C 0.63071 0.8754 0.90454 0.0
C1108 C 0.65664 0.89888 0.91154 0.0
C1109 C 0.67615 0.89469 0.92529 0.0
H1110 H 0.17269 0.86168 0.99865 0.0
H1111 H 0.24057 0.85808 0.96064 0.0
H1112 H 0.20808 0.82956 0.92653 0.0
H1113 H 0.12111 0.79271 0.98655 0.0
H1114 H 0.09337 0.80053 0.98207 0.0
H1115 H 0.12263 0.82263 0.00195 0.0
H1116 H 0.13189 0.86578 0.97499 0.0
H1117 H 0.10269 0.84361 0.95492 0.0
H1118 H 0.13688 0.86537 0.94131 0.0
H1119 H 0.16702 0.79807 0.89853 0.0
H1120 H 0.12081 0.76566 0.87966 0.0
H1121 H 0.08079 0.79106 0.93615 0.0
C1122 C 0.18093 0.85552 0.98284 0.0
C1123 C 0.2092 0.86226 0.98221 0.0
C1124 C 0.21893 0.85303 0.96156 0.0
C1125 C 0.2007 0.83702 0.94202 0.0
C1126 C 0.17287 0.83056 0.94338 0.0
C1127 C 0.16308 0.83959 0.96327 0.0
C1128 C 0.13192 0.8283 0.96129 0.0
C1129 C 0.11636 0.80995 0.98432 0.0
C1130 C 0.12548 0.8522 0.95792 0.0
C1131 C 0.12554 0.811 0.93747 0.0
C1132 C 0.1494 0.8127 0.92723 0.0
C1133 C 0.14826 0.7969 0.90617 0.0
C1134 C 0.12197 0.77853 0.89562 0.0
C1135 C 0.09726 0.77614 0.90621 0.0
C1136 C 0.09931 0.79302 0.92711 0.0
H1137 H 0.71854 0.78816 0.5654 0.0
H1138 H 0.65667 0.76727 0.62453 0.0
H1139 H 0.64512 0.80196 0.60703 0.0
H1140 H 0.74136 0.86376 0.55982 0.0
H1141 H 0.74454 0.86304 0.52591 0.0
H1142 H 0.75071 0.83989 0.54544 0.0
H1143 H 0.71349 0.7973 0.51999 0.0
H1144 H 0.70704 0.82021 0.50055 0.0
H1145 H 0.67853 0.7918 0.51733 0.0
H1146 H 0.63738 0.83554 0.58052 0.0
H1147 H 0.63359 0.86476 0.54709 0.0
H1148 H 0.69938 0.86162 0.50464 0.0
C1149 C 0.70332 0.79166 0.57523 0.0
C1150 C 0.68887 0.77556 0.5966 0.0
C1151 C 0.66816 0.77973 0.6083 0.0
C1152 C 0.66154 0.79938 0.59853 0.0
C1153 C 0.67577 0.8145 0.57703 0.0
C1154 C 0.69629 0.81089 0.56559 0.0
C1155 C 0.70651 0.82747 0.5413 0.0
C1156 C 0.73763 0.84988 0.54325 0.0
C1157 C 0.70105 0.80803 0.51846 0.0
C1158 C 0.68816 0.84059 0.54054 0.0
C1159 C 0.6708 0.83316 0.56144 0.0
C1160 C 0.65106 0.8417 0.5642 0.0
C1161 C 0.64891 0.85809 0.54502 0.0
C1162 C 0.66623 0.86556 0.52325 0.0
C1163 C 0.68625 0.85683 0.52126 0.0
H1164 H 0.14216 0.78617 0.52602 0.0
H1165 H 0.08752 0.81878 0.50717 0.0
H1166 H 0.11457 0.85921 0.53555 0.0
H1167 H 0.15776 0.81253 0.59327 0.0
H1168 H 0.19377 0.82119 0.59049 0.0
H1169 H 0.16696 0.79215 0.57287 0.0
H1170 H 0.19402 0.81397 0.53125 0.0
H1171 H 0.22078 0.84303 0.54865 0.0
H1172 H 0.20305 0.84924 0.52304 0.0
H1173 H 0.15072 0.89862 0.56065 0.0
H1174 H 0.19465 0.93567 0.57894 0.0
H1175 H 0.22675 0.87811 0.58177 0.0
C1176 C 0.13544 0.8014 0.52866 0.0
C1177 C 0.11263 0.79938 0.5149 0.0
C1178 C 0.10484 0.82004 0.51788 0.0
C1179 C 0.11997 0.8429 0.53401 0.0
C1180 C 0.14284 0.84475 0.54692 0.0
C1181 C 0.15058 0.82457 0.54445 0.0
C1182 C 0.17807 0.83338 0.55775 0.0
C1183 C 0.17388 0.81363 0.57992 0.0
C1184 C 0.20028 0.83501 0.53905 0.0
C1185 C 0.18513 0.86215 0.56712 0.0
C1186 C 0.16422 0.868 0.56116 0.0
C1187 C 0.16697 0.89408 0.56595 0.0
C1188 C 0.19203 0.915 0.57652 0.0
C1189 C 0.21417 0.90982 0.58205 0.0
C1190 C 0.21024 0.88275 0.57785 0.0
H1191 H 0.10406 0.36386 0.55331 0.0
H1192 H 0.0888 0.29679 0.60518 0.0
H1193 H 0.13306 0.2996 0.59146 0.0
H1194 H 0.12632 0.34014 0.50372 0.0
H1195 H 0.15255 0.37409 0.49235 0.0
H1196 H 0.12278 0.37044 0.50954 0.0
H1197 H 0.1556 0.40769 0.54199 0.0
H1198 H 0.18559 0.4117 0.52472 0.0
H1199 H 0.18194 0.40319 0.55794 0.0
H1200 H 0.17537 0.30536 0.56755 0.0
H1201 H 0.21219 0.31398 0.53621 0.0
H1202 H 0.19888 0.3769 0.49994 0.0
C1203 C 0.11032 0.35014 0.56216 0.0
C1204 C 0.09309 0.33012 0.5803 0.0
C1205 C 0.10193 0.31253 0.59149 0.0
C1206 C 0.12697 0.31394 0.58375 0.0
C1207 C 0.14294 0.33324 0.56505 0.0
C1208 C 0.13506 0.35123 0.55462 0.0
C1209 C 0.15426 0.36822 0.53322 0.0
C1210 C 0.138 0.36288 0.50824 0.0
C1211 C 0.17031 0.39956 0.53988 0.0
C1212 C 0.17355 0.3562 0.53249 0.0
C1213 C 0.16705 0.33638 0.55121 0.0
C1214 C 0.18097 0.32121 0.55312 0.0
C1215 C 0.20186 0.32627 0.53528 0.0
C1216 C 0.20835 0.34611 0.51567 0.0
C1217 C 0.19427 0.36151 0.51464 0.0
H1218 H 0.77476 0.66892 0.08013 0.0
H1219 H 0.80108 0.75704 0.07301 0.0
H1220 H 0.8449 0.76563 0.05257 0.0
H1221 H 0.84721 0.67858 0.0892 0.0
H1222 H 0.8382 0.64767 0.07079 0.0
H1223 H 0.8118 0.64957 0.08942 0.0
H1224 H 0.78105 0.63878 0.04938 0.0
H1225 H 0.80739 0.63722 0.03058 0.0
H1226 H 0.79523 0.66093 0.02193 0.0
H1227 H 0.88039 0.76285 0.02528 0.0
H1228 H 0.90738 0.74943 0.99666 0.0
H1229 H 0.85922 0.66364 0.02258 0.0
C1230 C 0.79019 0.69016 0.07499 0.0
C1231 C 0.78464 0.71234 0.07826 0.0
C1232 C 0.80514 0.73983 0.0711 0.0
C1233 C 0.83004 0.74489 0.05936 0.0
C1234 C 0.8343 0.72232 0.05534 0.0
C1235 C 0.8152 0.69556 0.0634 0.0
C1236 C 0.82343 0.67451 0.05469 0.0
C1237 C 0.83059 0.66184 0.07738 0.0
C1238 C 0.80041 0.65152 0.03816 0.0
C1239 C 0.84929 0.69332 0.03932 0.0
C1240 C 0.85538 0.72088 0.04011 0.0
C1241 C 0.87639 0.74154 0.02512 0.0
C1242 C 0.89147 0.73377 0.00887 0.0
C1243 C 0.88553 0.70572 0.00797 0.0
C1244 C 0.86452 0.68537 0.0236 0.0
H1245 H 0.28346 0.16287 0.01127 0.0
H1246 H 0.37081 0.22278 0.02618 0.0
H1247 H 0.37244 0.19045 0.05732 0.0
H1248 H 0.26493 0.13402 0.077 0.0
H1249 H 0.24227 0.09896 0.06556 0.0
H1250 H 0.24659 0.12857 0.04747 0.0
H1251 H 0.26153 0.11064 0.00845 0.0
H1252 H 0.25741 0.08113 0.02639 0.0
H1253 H 0.29038 0.10418 0.01125 0.0
H1254 H 0.36694 0.14943 0.08148 0.0
H1255 H 0.3545 0.10296 0.09774 0.0
H1256 H 0.26995 0.06964 0.06896 0.0
C1257 C 0.30277 0.16938 0.02145 0.0
C1258 C 0.32692 0.19547 0.01646 0.0
C1259 C 0.35185 0.20319 0.03007 0.0
C1260 C 0.35303 0.18491 0.04775 0.0
C1261 C 0.32904 0.1591 0.05179 0.0
C1262 C 0.30428 0.15141 0.03923 0.0
C1263 C 0.28224 0.12156 0.04548 0.0
C1264 C 0.25755 0.12074 0.05973 0.0
C1265 C 0.27233 0.10331 0.02147 0.0
C1266 C 0.29891 0.11328 0.06258 0.0
C1267 C 0.32573 0.13536 0.06622 0.0
C1268 C 0.34577 0.13216 0.07937 0.0
C1269 C 0.33837 0.10558 0.08872 0.0
C1270 C 0.31107 0.08243 0.08497 0.0
C1271 C 0.291 0.08671 0.07219 0.0
H1272 H 0.88984 0.24228 0.07489 0.0
H1273 H 0.93372 0.19744 0.09214 0.0
H1274 H 0.8932 0.15357 0.07695 0.0
H1275 H 0.81669 0.18262 0.08828 0.0
H1276 H 0.80272 0.19275 0.06215 0.0
H1277 H 0.83235 0.21901 0.07958 0.0
H1278 H 0.86052 0.23638 0.03778 0.0
H1279 H 0.83125 0.21006 0.0203 0.0
H1280 H 0.86476 0.21195 0.01822 0.0
H1281 H 0.85229 0.11706 0.05248 0.0
H1282 H 0.81367 0.09066 0.02242 0.0
H1283 H 0.79604 0.15905 0.02157 0.0
C1284 C 0.89058 0.22306 0.07614 0.0
C1285 C 0.91487 0.22324 0.08478 0.0
C1286 C 0.91514 0.19772 0.08602 0.0
C1287 C 0.89224 0.17269 0.07733 0.0
C1288 C 0.86912 0.1735 0.06779 0.0
C1289 C 0.86795 0.19797 0.06753 0.0
C1290 C 0.84221 0.19406 0.05378 0.0
C1291 C 0.82231 0.19729 0.07204 0.0
C1292 C 0.85018 0.2143 0.03119 0.0
C1293 C 0.82992 0.16404 0.0451 0.0
C1294 C 0.84542 0.15235 0.05373 0.0
C1295 C 0.83955 0.12573 0.04616 0.0
C1296 C 0.81752 0.11085 0.02909 0.0
C1297 C 0.80174 0.12273 0.01963 0.0
C1298 C 0.80774 0.14941 0.02832 0.0
H1299 H 0.35962 0.16756 0.50188 0.0
H1300 H 0.29963 0.0937 0.46064 0.0
H1301 H 0.29123 0.12378 0.43132 0.0
H1302 H 0.3224 0.2029 0.49941 0.0
H1303 H 0.35275 0.23721 0.4959 0.0
H1304 H 0.35577 0.21004 0.51179 0.0
H1305 H 0.39506 0.21679 0.48068 0.0
H1306 H 0.39219 0.24408 0.46467 0.0
H1307 H 0.38864 0.21444 0.44709 0.0
H1308 H 0.28749 0.1624 0.40823 0.0
H1309 H 0.28716 0.20545 0.39513 0.0
H1310 H 0.35016 0.25295 0.45168 0.0
C1311 C 0.34523 0.1577 0.48631 0.0
C1312 C 0.33048 0.12833 0.48338 0.0
C1313 C 0.31111 0.1162 0.46325 0.0
C1314 C 0.30638 0.13311 0.44642 0.0
C1315 C 0.32124 0.16205 0.44999 0.0
C1316 C 0.34029 0.17417 0.46948 0.0
C1317 C 0.35221 0.20547 0.4705 0.0
C1318 C 0.34535 0.21441 0.4959 0.0
C1319 C 0.38391 0.22111 0.46542 0.0
C1320 C 0.33646 0.20911 0.4489 0.0
C1321 C 0.31893 0.18398 0.43701 0.0
C1322 C 0.30137 0.18222 0.41724 0.0
C1323 C 0.30137 0.20672 0.40986 0.0
C1324 C 0.31858 0.23237 0.42247 0.0
C1325 C 0.33671 0.23355 0.4418 0.0
H1326 H 0.87017 0.16674 0.50398 0.0
H1327 H 0.87094 0.23227 0.45795 0.0
H1328 H 0.84323 0.19727 0.42528 0.0
H1329 H 0.87142 0.12272 0.4518 0.0
H1330 H 0.84766 0.09075 0.46804 0.0
H1331 H 0.87117 0.12151 0.48589 0.0
H1332 H 0.8291 0.11854 0.51055 0.0
H1333 H 0.80556 0.08779 0.4929 0.0
H1334 H 0.80056 0.11769 0.49324 0.0
H1335 H 0.81076 0.15443 0.4001 0.0
H1336 H 0.77555 0.10728 0.38504 0.0
H1337 H 0.79497 0.07006 0.44845 0.0
C1338 C 0.86477 0.17384 0.48694 0.0
C1339 C 0.87281 0.2023 0.48354 0.0
C1340 C 0.86544 0.21068 0.46084 0.0
C1341 C 0.84964 0.19093 0.44218 0.0
C1342 C 0.84153 0.16294 0.44645 0.0
C1343 C 0.84893 0.15444 0.46826 0.0
C1344 C 0.8355 0.1229 0.46944 0.0
C1345 C 0.85777 0.11395 0.46874 0.0
C1346 C 0.81655 0.11105 0.49291 0.0
C1347 C 0.8186 0.11488 0.44527 0.0
C1348 C 0.82267 0.13825 0.43206 0.0
C1349 C 0.80772 0.13599 0.4101 0.0
C1350 C 0.78769 0.10916 0.40175 0.0
C1351 C 0.78268 0.08501 0.41545 0.0
C1352 C 0.79884 0.08804 0.43717 0.0
H1353 H 0.87806 0.65554 0.40496 0.0
H1354 H 0.93618 0.74502 0.4035 0.0
H1355 H 0.90045 0.75338 0.42299 0.0
H1356 H 0.81113 0.65942 0.39708 0.0
H1357 H 0.79269 0.63059 0.4187 0.0
H1358 H 0.81988 0.63203 0.39868 0.0
H1359 H 0.84518 0.62791 0.43828 0.0
H1360 H 0.81845 0.62686 0.4584 0.0
H1361 H 0.85454 0.65308 0.4635 0.0
H1362 H 0.86387 0.75151 0.45166 0.0
H1363 H 0.82716 0.73947 0.48409 0.0
H1364 H 0.79202 0.65145 0.46663 0.0
C1365 C 0.88286 0.67693 0.40789 0.0
C1366 C 0.90983 0.69962 0.4026 0.0
C1367 C 0.91549 0.72733 0.40692 0.0
C1368 C 0.89533 0.73228 0.41811 0.0
C1369 C 0.86948 0.70934 0.4245 0.0
C1370 C 0.86295 0.6822 0.41905 0.0
C1371 C 0.83519 0.6611 0.43069 0.0
C1372 C 0.81343 0.64483 0.41005 0.0
C1373 C 0.83857 0.64109 0.44879 0.0
C1374 C 0.82803 0.68053 0.4449 0.0
C1375 C 0.84785 0.70832 0.44077 0.0
C1376 C 0.8477 0.72992 0.45439 0.0
C1377 C 0.82696 0.72294 0.47284 0.0
C1378 C 0.80666 0.69464 0.47737 0.0
C1379 C 0.80686 0.67328 0.46286 0.0
H1380 H 0.22018 0.34661 0.27924 0.0
H1381 H 0.25904 0.43324 0.30362 0.0
H1382 H 0.23222 0.44222 0.27121 0.0
H1383 H 0.21879 0.3598 0.21244 0.0
H1384 H 0.18538 0.32868 0.20745 0.0
H1385 H 0.2082 0.32945 0.23214 0.0
H1386 H 0.16854 0.31577 0.26504 0.0
H1387 H 0.14564 0.31509 0.24046 0.0
H1388 H 0.15216 0.3369 0.26793 0.0
H1389 H 0.19957 0.44111 0.23712 0.0
H1390 H 0.16579 0.43065 0.20231 0.0
H1391 H 0.14844 0.34474 0.20067 0.0
C1392 C 0.22306 0.36748 0.27776 0.0
C1393 C 0.24171 0.38924 0.29393 0.0
C1394 C 0.24512 0.41634 0.29121 0.0
C1395 C 0.22984 0.42159 0.27299 0.0
C1396 C 0.21136 0.39956 0.25757 0.0
C1397 C 0.20809 0.3731 0.25964 0.0
C1398 C 0.18693 0.35302 0.2408 0.0
C1399 C 0.20066 0.34211 0.2221 0.0
C1400 C 0.16183 0.32877 0.25437 0.0
C1401 C 0.17866 0.37227 0.22788 0.0
C1402 C 0.19287 0.399 0.23785 0.0
C1403 C 0.18838 0.42027 0.22911 0.0
C1404 C 0.16904 0.4141 0.20948 0.0
C1405 C 0.15458 0.38693 0.19875 0.0
C1406 C 0.15944 0.3658 0.20826 0.0
H1407 H 0.61909 0.75546 0.22102 0.0
H1408 H 0.59548 0.79297 0.16073 0.0
H1409 H 0.59139 0.82418 0.1917 0.0
H1410 H 0.57203 0.75858 0.26966 0.0
H1411 H 0.59711 0.76625 0.29459 0.0
H1412 H 0.59593 0.74529 0.26793 0.0
H1413 H 0.64857 0.7796 0.25948 0.0
H1414 H 0.64986 0.80078 0.28591 0.0
H1415 H 0.66058 0.8163 0.25498 0.0
H1416 H 0.59491 0.85468 0.2283 0.0
H1417 H 0.60357 0.88076 0.26822 0.0
H1418 H 0.62094 0.82081 0.3054 0.0
C1419 C 0.61234 0.7697 0.21439 0.0
C1420 C 0.60782 0.77186 0.18837 0.0
C1421 C 0.59955 0.79123 0.18048 0.0
C1422 C 0.59694 0.80891 0.19796 0.0
C1423 C 0.60224 0.80672 0.22334 0.0
C1424 C 0.60939 0.78735 0.23162 0.0
C1425 C 0.61513 0.7901 0.25979 0.0
C1426 C 0.59377 0.76347 0.27382 0.0
C1427 C 0.64533 0.79712 0.26535 0.0
C1428 C 0.61091 0.81458 0.26588 0.0
C1429 C 0.60337 0.82378 0.24463 0.0
C1430 C 0.6002 0.8473 0.24521 0.0
C1431 C 0.60502 0.8619 0.2681 0.0
C1432 C 0.61282 0.8529 0.29021 0.0
C1433 C 0.6153 0.82858 0.28895 0.0
H1434 H 0.19213 0.82102 0.19602 0.0
H1435 H 0.27462 0.849 0.22739 0.0
H1436 H 0.25305 0.81784 0.2641 0.0
H1437 H 0.1589 0.81844 0.25278 0.0
H1438 H 0.12622 0.78743 0.24527 0.0
H1439 H 0.14815 0.80979 0.22027 0.0
H1440 H 0.14894 0.76763 0.19945 0.0
H1441 H 0.12694 0.74507 0.22442 0.0
H1442 H 0.16006 0.74735 0.21772 0.0
H1443 H 0.22272 0.78753 0.29914 0.0
H1444 H 0.18539 0.75952 0.3301 0.0
H1445 H 0.12259 0.74974 0.2755 0.0
C1446 C 0.20569 0.82009 0.2103 0.0
C1447 C 0.23507 0.8375 0.20885 0.0
C1448 C 0.25205 0.83612 0.22824 0.0
C1449 C 0.24001 0.81831 0.24906 0.0
C1450 C 0.21097 0.80179 0.2501 0.0
C1451 C 0.19401 0.80235 0.23118 0.0
C1452 C 0.16333 0.78378 0.23765 0.0
C1453 C 0.14828 0.80089 0.23909 0.0
C1454 C 0.14898 0.75952 0.21868 0.0
C1455 C 0.1657 0.77331 0.2635 0.0
C1456 C 0.19339 0.7838 0.27022 0.0
C1457 C 0.20096 0.77879 0.29394 0.0
C1458 C 0.17969 0.76297 0.31139 0.0
C1459 C 0.15124 0.7523 0.30498 0.0
C1460 C 0.14418 0.75714 0.28059 0.0
H1461 H 0.84883 0.64697 0.80232 0.0
H1462 H 0.85648 0.57391 0.78594 0.0
H1463 H 0.82709 0.56451 0.74793 0.0
H1464 H 0.77628 0.61672 0.78261 0.0
H1465 H 0.78158 0.64914 0.76938 0.0
H1466 H 0.80272 0.64969 0.79556 0.0
H1467 H 0.84767 0.68091 0.76961 0.0
H1468 H 0.82669 0.68042 0.74335 0.0
H1469 H 0.852 0.66921 0.73894 0.0
H1470 H 0.79812 0.56406 0.71088 0.0
H1471 H 0.77124 0.57227 0.67794 0.0
H1472 H 0.78184 0.64497 0.71926 0.0
C1473 C 0.84397 0.62871 0.79102 0.0
C1474 C 0.85497 0.61116 0.79717 0.0
C1475 C 0.84857 0.58785 0.78148 0.0
C1476 C 0.83175 0.58223 0.75994 0.0
C1477 C 0.82139 0.60005 0.75439 0.0
C1478 C 0.82718 0.62276 0.76953 0.0
C1479 C 0.81397 0.639 0.75912 0.0
C1480 C 0.79235 0.6386 0.77778 0.0
C1481 C 0.83642 0.66917 0.75235 0.0
C1482 C 0.79998 0.62199 0.73566 0.0
C1483 C 0.8045 0.59961 0.73325 0.0
C1484 C 0.79432 0.58143 0.71265 0.0
C1485 C 0.7792 0.58632 0.694 0.0
C1486 C 0.77434 0.60915 0.69612 0.0
C1487 C 0.7848 0.62706 0.71734 0.0
H1488 H 0.40208 0.24342 0.77151 0.0
H1489 H 0.36812 0.1851 0.83423 0.0
H1490 H 0.36359 0.14695 0.80662 0.0
H1491 H 0.35889 0.19675 0.7234 0.0
H1492 H 0.38591 0.20932 0.6996 0.0
H1493 H 0.38741 0.23242 0.72442 0.0
H1494 H 0.43697 0.24232 0.73679 0.0
H1495 H 0.43567 0.21933 0.71192 0.0
H1496 H 0.44238 0.21343 0.74404 0.0
H1497 H 0.3592 0.1146 0.77175 0.0
H1498 H 0.35786 0.0903 0.73242 0.0
H1499 H 0.39881 0.17017 0.69277 0.0
C1500 C 0.39392 0.22264 0.77937 0.0
C1501 C 0.38562 0.21716 0.80499 0.0
C1502 C 0.37496 0.18975 0.81472 0.0
C1503 C 0.3722 0.16795 0.79918 0.0
C1504 C 0.38049 0.17396 0.77401 0.0
C1505 C 0.39144 0.20066 0.76419 0.0
C1506 C 0.39869 0.2013 0.73643 0.0
C1507 C 0.38171 0.21049 0.72 0.0
C1508 C 0.43031 0.22022 0.73205 0.0
C1509 C 0.3896 0.17073 0.73214 0.0
C1510 C 0.37907 0.15536 0.75405 0.0
C1511 C 0.36795 0.12648 0.75455 0.0
C1512 C 0.36755 0.11288 0.73203 0.0
C1513 C 0.37859 0.12814 0.70924 0.0
C1514 C 0.38997 0.15759 0.70959 0.0
H1515 H 0.7788 0.17081 0.80719 0.0
H1516 H 0.74036 0.08826 0.77257 0.0
H1517 H 0.76704 0.10912 0.73359 0.0
H1518 H 0.78359 0.2104 0.75062 0.0
H1519 H 0.81746 0.23941 0.75879 0.0
H1520 H 0.79342 0.21849 0.78338 0.0
H1521 H 0.83099 0.20865 0.80221 0.0
H1522 H 0.85513 0.22952 0.7777 0.0
H1523 H 0.8468 0.19378 0.78232 0.0
H1524 H 0.79895 0.13819 0.69901 0.0
H1525 H 0.83501 0.17363 0.67116 0.0
H1526 H 0.85564 0.23697 0.72907 0.0
C1527 C 0.7759 0.15704 0.79146 0.0
C1528 C 0.75708 0.12783 0.79303 0.0
C1529 C 0.75396 0.11075 0.77179 0.0
C1530 C 0.76923 0.12237 0.74955 0.0
C1531 C 0.78774 0.1511 0.74882 0.0
C1532 C 0.79125 0.16823 0.76919 0.0
C1533 C 0.81366 0.19824 0.76387 0.0
C1534 C 0.80128 0.21778 0.76418 0.0
C1535 C 0.83809 0.20812 0.78264 0.0
C1536 C 0.82236 0.19518 0.73739 0.0
C1537 C 0.80695 0.16784 0.72905 0.0
C1538 C 0.81125 0.15966 0.70535 0.0
C1539 C 0.832 0.17994 0.68976 0.0
C1540 C 0.84848 0.20808 0.698 0.0
C1541 C 0.84333 0.21573 0.72212 0.0
H1542 H 0.99364 0.45129 0.03059 0.0
H1543 H 0.08239 0.5077 0.04376 0.0
H1544 H 0.07829 0.54637 0.02517 0.0
H1545 H 0.99297 0.47839 0.96959 0.0
H1546 H 0.95845 0.47386 0.97319 0.0
H1547 H 0.96764 0.45109 0.98977 0.0
H1548 H 0.95391 0.46436 0.03233 0.0
H1549 H 0.9447 0.48721 0.01588 0.0
H1550 H 0.96984 0.50072 0.04126 0.0
H1551 H 0.06501 0.57871 0.00413 0.0
H1552 H 0.04388 0.60215 0.98089 0.0
H1553 H 0.96493 0.52361 0.97764 0.0
C1554 C 0.01233 0.47168 0.02954 0.0
C1555 C 0.03833 0.47627 0.03893 0.0
C1556 C 0.06205 0.50357 0.03736 0.0
C1557 C 0.06001 0.52571 0.02662 0.0
C1558 C 0.03419 0.52026 0.01728 0.0
C1559 C 0.01081 0.49391 0.0185 0.0
C1560 C 0.98589 0.4933 0.00584 0.0
C1561 C 0.97564 0.47296 0.98326 0.0
C1562 C 0.96219 0.48597 0.02498 0.0
C1563 C 0.999 0.52343 0.99718 0.0
C1564 C 0.0268 0.53867 0.00418 0.0
C1565 C 0.04331 0.56695 0.99837 0.0
C1566 C 0.03113 0.58001 0.98492 0.0
C1567 C 0.00276 0.56473 0.97707 0.0
C1568 C 0.98656 0.53604 0.98347 0.0
H1569 H 0.5181 0.55114 0.0269 0.0
H1570 H 0.5678 0.52309 0.06778 0.0
H1571 H 0.54344 0.47784 0.04528 0.0
H1572 H 0.45307 0.4834 0.02707 0.0
H1573 H 0.44333 0.48856 0.99585 0.0
H1574 H 0.46403 0.51829 0.01592 0.0
H1575 H 0.50178 0.54008 0.9808 0.0
H1576 H 0.48139 0.51027 0.96075 0.0
H1577 H 0.51704 0.5203 0.9683 0.0
H1578 H 0.51565 0.43681 0.01667 0.0
H1579 H 0.48356 0.40116 0.98628 0.0
H1580 H 0.45106 0.45545 0.96496 0.0
C1581 C 0.52345 0.53529 0.03159 0.0
C1582 C 0.54494 0.54073 0.0491 0.0
C1583 C 0.55167 0.51955 0.05422 0.0
C1584 C 0.53788 0.49375 0.04161 0.0
C1585 C 0.51727 0.48935 0.02407 0.0
C1586 C 0.50981 0.50937 0.01928 0.0
C1587 C 0.4872 0.49951 0.99928 0.0
C1588 C 0.46031 0.4973 0.01019 0.0
C1589 C 0.49748 0.51868 0.9759 0.0
C1590 C 0.48329 0.47089 0.99342 0.0
C1591 C 0.50093 0.4655 0.00785 0.0
C1592 C 0.50162 0.44071 0.00536 0.0
C1593 C 0.48352 0.42072 0.98791 0.0
C1594 C 0.4649 0.4256 0.97325 0.0
C1595 C 0.46493 0.45109 0.97605 0.0
H1596 H 0.43395 0.97228 0.02283 0.0
H1597 H 0.46944 0.00822 0.09603 0.0
H1598 H 0.51687 0.03046 0.07745 0.0
H1599 H 0.48733 0.9561 0.00496 0.0
H1600 H 0.48662 0.96427 0.97205 0.0
H1601 H 0.45556 0.95176 0.99113 0.0
H1602 H 0.45246 0.99568 0.97906 0.0
H1603 H 0.48364 0.00844 0.9601 0.0
H1604 H 0.48199 0.03003 0.9849 0.0
H1605 H 0.56039 0.04882 0.05079 0.0
H1606 H 0.59698 0.05984 0.01857 0.0
H1607 H 0.53286 0.01088 0.96322 0.0
C1608 C 0.45166 0.98447 0.0351 0.0
C1609 C 0.44793 0.98847 0.06093 0.0
C1610 C 0.47173 0.00511 0.07613 0.0
C1611 C 0.49876 0.01775 0.06578 0.0
C1612 C 0.50162 0.01348 0.04022 0.0
C1613 C 0.47873 0.99708 0.02513 0.0
C1614 C 0.48748 0.99544 0.99832 0.0
C1615 C 0.47873 0.96509 0.99121 0.0
C1616 C 0.47569 0.00816 0.97949 0.0
C1617 C 0.51891 0.0134 0.00069 0.0
C1618 C 0.52665 0.02379 0.02495 0.0
C1619 C 0.55459 0.04087 0.03171 0.0
C1620 C 0.57519 0.04719 0.01325 0.0
C1621 C 0.56771 0.03634 0.98839 0.0
C1622 C 0.53917 0.01939 0.98209 0.0
H1623 H 0.52263 0.95542 0.47211 0.0
H1624 H 0.57866 0.03757 0.44026 0.0
H1625 H 0.554 0.0571 0.46407 0.0
H1626 H 0.46008 0.96219 0.46867 0.0
H1627 H 0.44569 0.94293 0.49758 0.0
H1628 H 0.46794 0.93545 0.47804 0.0
H1629 H 0.50045 0.9442 0.51644 0.0
H1630 H 0.47856 0.95212 0.53601 0.0
H1631 H 0.51534 0.97719 0.53297 0.0
H1632 H 0.52533 0.06843 0.49337 0.0
H1633 H 0.49025 0.06948 0.52191 0.0
H1634 H 0.45045 0.97953 0.53175 0.0
C1635 C 0.52945 0.9774 0.46965 0.0
C1636 C 0.55297 0.99496 0.45451 0.0
C1637 C 0.56123 0.02373 0.45222 0.0
C1638 C 0.54725 0.03504 0.46557 0.0
C1639 C 0.52469 0.01728 0.48079 0.0
C1640 C 0.51544 0.98898 0.48249 0.0
C1641 C 0.49023 0.97438 0.49978 0.0
C1642 C 0.46446 0.95244 0.48514 0.0
C1643 C 0.49654 0.9612 0.52265 0.0
C1644 C 0.48695 0.99897 0.5077 0.0
C1645 C 0.50727 0.02359 0.49677 0.0
C1646 C 0.50914 0.04927 0.50186 0.0
C1647 C 0.48934 0.04971 0.5182 0.0
C1648 C 0.46783 0.02461 0.52891 0.0
C1649 C 0.46671 0.99897 0.52367 0.0
H1650 H 0.98462 0.44301 0.53237 0.0
H1651 H 0.9141 0.43713 0.57396 0.0
H1652 H 0.91878 0.47817 0.55045 0.0
H1653 H 0.02554 0.51812 0.52876 0.0
H1654 H 0.03758 0.51828 0.497 0.0
H1655 H 0.02903 0.4891 0.51763 0.0
H1656 H 0.99408 0.45511 0.48434 0.0
H1657 H 0.00249 0.48419 0.46361 0.0
H1658 H 0.96667 0.46086 0.47273 0.0
H1659 H 0.93229 0.52051 0.52333 0.0
H1660 H 0.95187 0.55988 0.4934 0.0
H1661 H 0.01133 0.53553 0.46701 0.0
C1662 C 0.97038 0.45061 0.53668 0.0
C1663 C 0.94923 0.43732 0.55513 0.0
C1664 C 0.9305 0.44726 0.55993 0.0
C1665 C 0.93303 0.47048 0.54672 0.0
C1666 C 0.95414 0.48312 0.52858 0.0
C1667 C 0.97234 0.4734 0.52342 0.0
C1668 C 0.9926 0.49011 0.50248 0.0
C1669 C 0.02299 0.50477 0.51205 0.0
C1670 C 0.98872 0.47145 0.47942 0.0
C1671 C 0.98317 0.51099 0.4968 0.0
C1672 C 0.96106 0.50668 0.51215 0.0
C1673 C 0.94932 0.52385 0.51095 0.0
C1674 C 0.96048 0.54604 0.49363 0.0
C1675 C 0.98297 0.55076 0.47739 0.0
C1676 C 0.99429 0.53277 0.4791 0.0
H1677 H 0.47753 0.4777 0.4483 0.0
H1678 H 0.41583 0.48754 0.49141 0.0
H1679 H 0.45188 0.51621 0.52261 0.0
H1680 H 0.51173 0.46927 0.50254 0.0
H1681 H 0.54622 0.48787 0.48876 0.0
H1682 H 0.516 0.46943 0.46871 0.0
H1683 H 0.53059 0.515 0.4435 0.0
H1684 H 0.56096 0.53354 0.46335 0.0
H1685 H 0.53658 0.54608 0.46014 0.0
H1686 H 0.49441 0.5438 0.5493 0.0
H1687 H 0.54092 0.56818 0.56982 0.0
H1688 H 0.57406 0.53758 0.51136 0.0
C1689 C 0.47149 0.48579 0.46428 0.0
C1690 C 0.44376 0.48057 0.46703 0.0
C1691 C 0.437 0.49182 0.48829 0.0
C1692 C 0.45728 0.50791 0.50636 0.0
C1693 C 0.48422 0.51234 0.50316 0.0
C1694 C 0.49138 0.50156 0.48273 0.0
C1695 C 0.52171 0.50885 0.48415 0.0
C1696 C 0.52403 0.48227 0.48616 0.0
C1697 C 0.53844 0.52695 0.46144 0.0
C1698 C 0.53046 0.52548 0.50855 0.0
C1699 C 0.50854 0.52734 0.51914 0.0
C1700 C 0.51171 0.54237 0.54129 0.0
C1701 C 0.53811 0.55612 0.55278 0.0
C1702 C 0.56082 0.55447 0.54224 0.0
C1703 C 0.55684 0.53872 0.51999 0.0
loop_
_geom_bond_atom_site_label_1
_geom_bond_atom_site_label_2
_geom_bond_distance
_geom_bond_site_symmetry_2
_ccdc_geom_bond_type
Li0 N17 1.990 . S
Li0 O60 1.956 . S
Li0 O61 1.970 . S
Li0 O62 1.961 . S
Li1 N25 1.990 . S
Li1 O60 1.970 . S
Li1 O61 1.956 . S
Li1 O63 1.961 . S
Li2 N47 1.990 . S
Li2 O60 1.961 . S
Li2 O62 1.956 . S
Li2 O63 1.970 . S
Li3 N53 1.990 1_455 S
Li3 O61 1.961 . S
Li3 O62 1.970 . S
Li3 O63 1.956 . S
C4 C6 1.348 . S
C4 C7 1.356 . S
C4 O60 1.325 . S
N5 C8 1.314 . S
N5 C9 1.279 . S
C6 C4 1.348 . S
C6 C8 1.353 . S
C6 H64 0.929 . S
C7 C4 1.356 . S
C7 C9 1.358 . S
C7 H65 0.930 . S
C8 N5 1.314 . S
C8 C6 1.353 . S
C8 H66 0.930 . S
C9 N5 1.279 . S
C9 C7 1.358 . S
C9 H67 0.930 . S
C10 C13 1.348 . S
C10 C14 1.356 . S
C10 O61 1.325 1_655 S
C11 N12 1.279 . S
C11 C14 1.358 . S
C11 H68 0.930 . S
N12 C11 1.279 . S
N12 C15 1.314 . S
C13 C10 1.348 . S
C13 C15 1.353 . S
C13 H69 0.929 1_655 S
C14 C10 1.356 . S
C14 C11 1.358 . S
C14 H70 0.930 . S
C15 N12 1.314 . S
C15 C13 1.353 . S
C15 H71 0.930 . S
C16 N17 1.314 . S
C16 C21 1.353 . S
C16 H22 0.930 . S
N17 Li0 1.990 . S
N17 C16 1.314 . S
N17 C19 1.279 . S
C18 C19 1.358 . S
C18 C20 1.356 . S
C18 H72 0.930 . S
C19 N17 1.279 . S
C19 C18 1.358 . S
C19 H23 0.930 . S
C20 C18 1.356 . S
C20 C21 1.348 . S
C21 C16 1.353 . S
C21 C20 1.348 . S
C21 H73 0.929 . S
H22 C16 0.930 . S
H23 C19 0.930 . S
C24 N25 1.314 . S
C24 C26 1.353 . S
C24 H30 0.930 . S
N25 Li1 1.990 . S
N25 C24 1.314 . S
N25 C28 1.279 . S
C26 C24 1.353 . S
C26 C29 1.348 . S
C26 H74 0.929 . S
C27 C28 1.358 . S
C27 C29 1.356 . S
C27 H75 0.930 . S
C28 N25 1.279 . S
C28 C27 1.358 . S
C28 H31 0.930 . S
C29 C26 1.348 . S
C29 C27 1.356 . S
H30 C24 0.930 . S
H31 C28 0.930 . S
C32 C34 1.348 . S
C32 C35 1.356 . S
C32 O62 1.325 . S
N33 C36 1.314 . S
N33 C37 1.279 . S
C34 C32 1.348 . S
C34 C36 1.353 1_554 S
C34 H76 0.929 1_455 S
C35 C32 1.356 . S
C35 C37 1.358 1_554 S
C35 H77 0.930 . S
C36 N33 1.314 . S
C36 C34 1.353 1_556 S
C36 H78 0.930 1_455 S
C37 N33 1.279 . S
C37 C35 1.358 1_556 S
C37 H79 0.930 . S
C38 C39 1.348 . S
C38 C40 1.356 . S
C38 O63 1.325 . S
C39 C38 1.348 . S
C39 C41 1.353 . S
C39 H80 0.929 . S
C40 C38 1.356 . S
C40 C42 1.358 . S
C40 H81 0.930 . S
C41 C39 1.353 . S
C41 N43 1.314 . S
C41 H82 0.930 . S
C42 C40 1.358 . S
C42 N43 1.279 . S
C42 H83 0.930 . S
N43 C41 1.314 . S
N43 C42 1.279 . S
C44 C46 1.353 . S
C44 N47 1.314 . S
C44 H50 0.930 . S
C45 N47 1.279 . S
C45 C48 1.358 . S
C45 H51 0.930 . S
C46 C44 1.353 . S
C46 C49 1.348 . S
C46 H84 0.929 . S
N47 Li2 1.990 . S
N47 C44 1.314 . S
N47 C45 1.279 . S
C48 C45 1.358 . S
C48 C49 1.356 . S
C48 H85 0.930 1_554 S
C49 C46 1.348 . S
C49 C48 1.356 . S
H50 C44 0.930 . S
H51 C45 0.930 . S
C52 N53 1.314 . S
C52 C54 1.353 . S
C52 H58 0.930 . S
N53 Li3 1.990 1_655 S
N53 C52 1.314 . S
N53 C56 1.279 . S
C54 C52 1.353 . S
C54 C57 1.348 . S
C54 H86 0.929 . S
C55 C56 1.358 . S
C55 C57 1.356 . S
C55 H87 0.930 . S
C56 N53 1.279 . S
C56 C55 1.358 . S
C56 H59 0.930 . S
C57 C54 1.348 . S
C57 C55 1.356 . S
H58 C52 0.930 . S
H59 C56 0.930 . S
O60 Li0 1.956 . S
O60 Li1 1.970 . S
O60 Li2 1.961 . S
O60 C4 1.325 . S
O61 Li0 1.970 . S
O61 Li1 1.956 . S
O61 Li3 1.961 . S
O61 C10 1.325 1_455 S
O62 Li0 1.961 . S
O62 Li2 1.956 . S
O62 Li3 1.970 . S
O62 C32 1.325 . S
O63 Li1 1.961 . S
O63 Li2 1.970 . S
O63 Li3 1.956 . S
O63 C38 1.325 . S
H64 C6 0.929 . S
H65 C7 0.930 . S
H66 C8 0.930 . S
H67 C9 0.930 . S
H68 C11 0.930 . S
H69 C13 0.929 1_455 S
H70 C14 0.930 . S
H71 C15 0.930 . S
H72 C18 0.930 . S
H73 C21 0.929 . S
H74 C26 0.929 . S
H75 C27 0.930 . S
H76 C34 0.929 1_655 S
H77 C35 0.930 . S
H78 C36 0.930 1_655 S
H79 C37 0.930 . S
H80 C39 0.929 . S
H81 C40 0.930 . S
H82 C41 0.930 . S
H83 C42 0.930 . S
H84 C46 0.929 . S
H85 C48 0.930 1_556 S
H86 C54 0.929 . S
H87 C55 0.930 . S
Li88 N105 1.990 . S
Li88 O148 1.956 . S
Li88 O149 1.970 . S
Li88 O150 1.961 . S
Li89 N113 1.990 . S
Li89 O148 1.970 . S
Li89 O149 1.956 . S
Li89 O151 1.961 . S
Li90 N135 1.990 . S
Li90 O148 1.961 . S
Li90 O150 1.956 . S
Li90 O151 1.970 . S
Li91 N141 1.990 . S
Li91 O149 1.961 . S
Li91 O150 1.970 . S
Li91 O151 1.956 . S
C92 C94 1.348 . S
C92 C95 1.356 . S
C92 O148 1.325 . S
N93 C96 1.314 . S
N93 C97 1.279 . S
C94 C92 1.348 . S
C94 C96 1.353 . S
C94 H152 0.929 . S
C95 C92 1.356 . S
C95 C97 1.358 . S
C95 H153 0.930 . S
C96 N93 1.314 . S
C96 C94 1.353 . S
C96 H154 0.930 . S
C97 N93 1.279 . S
C97 C95 1.358 . S
C97 H155 0.930 . S
C98 C101 1.348 . S
C98 C102 1.356 . S
C98 O149 1.325 . S
C99 N100 1.279 . S
C99 C102 1.358 . S
C99 H156 0.930 . S
N100 C99 1.279 . S
N100 C103 1.314 . S
C101 C98 1.348 . S
C101 C103 1.353 . S
C101 H157 0.929 . S
C102 C98 1.356 . S
C102 C99 1.358 . S
C102 H158 0.930 . S
C103 N100 1.314 . S
C103 C101 1.353 . S
C103 H159 0.930 . S
C104 N105 1.314 . S
C104 C109 1.353 . S
C104 H110 0.930 . S
N105 Li88 1.990 . S
N105 C104 1.314 . S
N105 C107 1.279 . S
C106 C107 1.358 . S
C106 C108 1.356 . S
C106 H160 0.930 . S
C107 N105 1.279 . S
C107 C106 1.358 . S
C107 H111 0.930 . S
C108 C106 1.356 . S
C108 C109 1.348 . S
C109 C104 1.353 . S
C109 C108 1.348 . S
C109 H161 0.929 . S
H110 C104 0.930 . S
H111 C107 0.930 . S
C112 N113 1.314 . S
C112 C114 1.353 . S
C112 H118 0.930 . S
N113 Li89 1.990 . S
N113 C112 1.314 . S
N113 C116 1.279 . S
C114 C112 1.353 . S
C114 C117 1.348 . S
C114 H162 0.929 . S
C115 C116 1.358 . S
C115 C117 1.356 . S
C115 H163 0.930 . S
C116 N113 1.279 . S
C116 C115 1.358 . S
C116 H119 0.930 . S
C117 C114 1.348 . S
C117 C115 1.356 . S
H118 C112 0.930 . S
H119 C116 0.930 . S
C120 C122 1.348 . S
C120 C123 1.356 . S
C120 O150 1.325 . S
N121 C124 1.314 . S
N121 C125 1.279 . S
C122 C120 1.348 . S
C122 C124 1.353 . S
C122 H164 0.929 . S
C123 C120 1.356 . S
C123 C125 1.358 . S
C123 H165 0.930 . S
C124 N121 1.314 . S
C124 C122 1.353 . S
C124 H166 0.930 . S
C125 N121 1.279 . S
C125 C123 1.358 . S
C125 H167 0.930 . S
C126 C127 1.348 . S
C126 C128 1.356 . S
C126 O151 1.325 . S
C127 C126 1.348 . S
C127 C129 1.353 1_554 S
C127 H168 0.929 . S
C128 C126 1.356 . S
C128 C130 1.358 1_554 S
C128 H169 0.930 . S
C129 C127 1.353 1_556 S
C129 N131 1.314 . S
C129 H170 0.930 . S
C130 C128 1.358 1_556 S
C130 N131 1.279 . S
C130 H171 0.930 . S
N131 C129 1.314 . S
N131 C130 1.279 . S
C132 C134 1.353 . S
C132 N135 1.314 . S
C132 H138 0.930 . S
C133 N135 1.279 . S
C133 C136 1.358 . S
C133 H139 0.930 . S
C134 C132 1.353 . S
C134 C137 1.348 . S
C134 H172 0.929 . S
N135 Li90 1.990 . S
N135 C132 1.314 . S
N135 C133 1.279 . S
C136 C133 1.358 . S
C136 C137 1.356 . S
C136 H173 0.930 . S
C137 C134 1.348 . S
C137 C136 1.356 . S
H138 C132 0.930 . S
H139 C133 0.930 . S
C140 N141 1.314 . S
C140 C142 1.353 . S
C140 H146 0.930 . S
N141 Li91 1.990 . S
N141 C140 1.314 . S
N141 C144 1.279 . S
C142 C140 1.353 . S
C142 C145 1.348 . S
C142 H174 0.929 . S
C143 C144 1.358 . S
C143 C145 1.356 . S
C143 H175 0.930 1_554 S
C144 N141 1.279 . S
C144 C143 1.358 . S
C144 H147 0.930 . S
C145 C142 1.348 . S
C145 C143 1.356 . S
H146 C140 0.930 . S
H147 C144 0.930 . S
O148 Li88 1.956 . S
O148 Li89 1.970 . S
O148 Li90 1.961 . S
O148 C92 1.325 . S
O149 Li88 1.970 . S
O149 Li89 1.956 . S
O149 Li91 1.961 . S
O149 C98 1.325 . S
O150 Li88 1.961 . S
O150 Li90 1.956 . S
O150 Li91 1.970 . S
O150 C120 1.325 . S
O151 Li89 1.961 . S
O151 Li90 1.970 . S
O151 Li91 1.956 . S
O151 C126 1.325 . S
H152 C94 0.929 . S
H153 C95 0.930 . S
H154 C96 0.930 . S
H155 C97 0.930 . S
H156 C99 0.930 . S
H157 C101 0.929 . S
H158 C102 0.930 . S
H159 C103 0.930 . S
H160 C106 0.930 . S
H161 C109 0.929 . S
H162 C114 0.929 . S
H163 C115 0.930 . S
H164 C122 0.929 . S
H165 C123 0.930 . S
H166 C124 0.930 . S
H167 C125 0.930 . S
H168 C127 0.929 . S
H169 C128 0.930 . S
H170 C129 0.930 . S
H171 C130 0.930 . S
H172 C134 0.929 . S
H173 C136 0.930 . S
H174 C142 0.929 . S
H175 C143 0.930 1_556 S
Li176 N193 1.990 . S
Li176 O236 1.956 . S
Li176 O237 1.970 . S
Li176 O238 1.961 . S
Li177 N201 1.990 . S
Li177 O236 1.970 . S
Li177 O237 1.956 . S
Li177 O239 1.961 . S
Li178 N223 1.990 1_565 S
Li178 O236 1.961 . S
Li178 O238 1.956 . S
Li178 O239 1.970 . S
Li179 N229 1.990 . S
Li179 O237 1.961 . S
Li179 O238 1.970 . S
Li179 O239 1.956 . S
C180 C182 1.348 . S
C180 C183 1.356 . S
C180 O236 1.325 1_545 S
N181 C184 1.314 . S
N181 C185 1.279 . S
C182 C180 1.348 . S
C182 C184 1.353 . S
C182 H240 0.929 1_545 S
C183 C180 1.356 . S
C183 C185 1.358 . S
C183 H241 0.930 . S
C184 N181 1.314 . S
C184 C182 1.353 . S
C184 H242 0.930 . S
C185 N181 1.279 . S
C185 C183 1.358 . S
C185 H243 0.930 . S
C186 C189 1.348 . S
C186 C190 1.356 . S
C186 O237 1.325 . S
C187 N188 1.279 . S
C187 C190 1.358 . S
C187 H244 0.930 . S
N188 C187 1.279 . S
N188 C191 1.314 . S
C189 C186 1.348 . S
C189 C191 1.353 . S
C189 H245 0.929 . S
C190 C186 1.356 . S
C190 C187 1.358 . S
C190 H246 0.930 . S
C191 N188 1.314 . S
C191 C189 1.353 . S
C191 H247 0.930 . S
C192 N193 1.314 . S
C192 C197 1.353 . S
C192 H198 0.930 . S
N193 Li176 1.990 . S
N193 C192 1.314 . S
N193 C195 1.279 . S
C194 C195 1.358 . S
C194 C196 1.356 . S
C194 H248 0.930 . S
C195 N193 1.279 . S
C195 C194 1.358 . S
C195 H199 0.930 . S
C196 C194 1.356 . S
C196 C197 1.348 . S
C197 C192 1.353 . S
C197 C196 1.348 . S
C197 H249 0.929 . S
H198 C192 0.930 . S
H199 C195 0.930 . S
C200 N201 1.314 . S
C200 C202 1.353 . S
C200 H206 0.930 . S
N201 Li177 1.990 . S
N201 C200 1.314 . S
N201 C204 1.279 . S
C202 C200 1.353 . S
C202 C205 1.348 . S
C202 H250 0.929 . S
C203 C204 1.358 . S
C203 C205 1.356 . S
C203 H251 0.930 . S
C204 N201 1.279 . S
C204 C203 1.358 . S
C204 H207 0.930 . S
C205 C202 1.348 . S
C205 C203 1.356 . S
H206 C200 0.930 . S
H207 C204 0.930 . S
C208 C210 1.348 . S
C208 C211 1.356 . S
C208 O238 1.325 . S
N209 C212 1.314 . S
N209 C213 1.279 . S
C210 C208 1.348 . S
C210 C212 1.353 . S
C210 H252 0.929 . S
C211 C208 1.356 . S
C211 C213 1.358 . S
C211 H253 0.930 . S
C212 N209 1.314 . S
C212 C210 1.353 . S
C212 H254 0.930 . S
C213 N209 1.279 . S
C213 C211 1.358 . S
C213 H255 0.930 . S
C214 C215 1.348 . S
C214 C216 1.356 . S
C214 O239 1.325 . S
C215 C214 1.348 . S
C215 C217 1.353 1_554 S
C215 H256 0.929 1_565 S
C216 C214 1.356 . S
C216 C218 1.358 1_554 S
C216 H257 0.930 . S
C217 C215 1.353 1_556 S
C217 N219 1.314 . S
C217 H258 0.930 1_565 S
C218 C216 1.358 1_556 S
C218 N219 1.279 . S
C218 H259 0.930 . S
N219 C217 1.314 . S
N219 C218 1.279 . S
C220 C222 1.353 . S
C220 N223 1.314 . S
C220 H226 0.930 . S
C221 N223 1.279 . S
C221 C224 1.358 . S
C221 H227 0.930 . S
C222 C220 1.353 . S
C222 C225 1.348 . S
C222 H260 0.929 . S
N223 Li178 1.990 1_545 S
N223 C220 1.314 . S
N223 C221 1.279 . S
C224 C221 1.358 . S
C224 C225 1.356 . S
C224 H261 0.930 . S
C225 C222 1.348 . S
C225 C224 1.356 . S
H226 C220 0.930 . S
H227 C221 0.930 . S
C228 N229 1.314 . S
C228 C230 1.353 . S
C228 H234 0.930 . S
N229 Li179 1.990 . S
N229 C228 1.314 . S
N229 C232 1.279 . S
C230 C228 1.353 . S
C230 C233 1.348 . S
C230 H262 0.929 . S
C231 C232 1.358 . S
C231 C233 1.356 . S
C231 H263 0.930 1_554 S
C232 N229 1.279 . S
C232 C231 1.358 . S
C232 H235 0.930 . S
C233 C230 1.348 . S
C233 C231 1.356 . S
H234 C228 0.930 . S
H235 C232 0.930 . S
O236 Li176 1.956 . S
O236 Li177 1.970 . S
O236 Li178 1.961 . S
O236 C180 1.325 1_565 S
O237 Li176 1.970 . S
O237 Li177 1.956 . S
O237 Li179 1.961 . S
O237 C186 1.325 . S
O238 Li176 1.961 . S
O238 Li178 1.956 . S
O238 Li179 1.970 . S
O238 C208 1.325 . S
O239 Li177 1.961 . S
O239 Li178 1.970 . S
O239 Li179 1.956 . S
O239 C214 1.325 . S
H240 C182 0.929 1_565 S
H241 C183 0.930 . S
H242 C184 0.930 . S
H243 C185 0.930 . S
H244 C187 0.930 . S
H245 C189 0.929 . S
H246 C190 0.930 . S
H247 C191 0.930 . S
H248 C194 0.930 . S
H249 C197 0.929 . S
H250 C202 0.929 . S
H251 C203 0.930 . S
H252 C210 0.929 . S
H253 C211 0.930 . S
H254 C212 0.930 . S
H255 C213 0.930 . S
H256 C215 0.929 1_545 S
H257 C216 0.930 . S
H258 C217 0.930 1_545 S
H259 C218 0.930 . S
H260 C222 0.929 . S
H261 C224 0.930 . S
H262 C230 0.929 . S
H263 C231 0.930 1_556 S
Li264 N281 1.990 . S
Li264 O324 1.956 . S
Li264 O325 1.970 . S
Li264 O326 1.961 . S
Li265 N289 1.990 1_565 S
Li265 O324 1.970 . S
Li265 O325 1.956 . S
Li265 O327 1.961 . S
Li266 N311 1.990 . S
Li266 O324 1.961 . S
Li266 O326 1.956 . S
Li266 O327 1.970 . S
Li267 N317 1.990 . S
Li267 O325 1.961 . S
Li267 O326 1.970 . S
Li267 O327 1.956 . S
C268 C270 1.348 . S
C268 C271 1.356 . S
C268 O324 1.325 . S
N269 C272 1.314 . S
N269 C273 1.279 . S
C270 C268 1.348 . S
C270 C272 1.353 . S
C270 H328 0.929 1_565 S
C271 C268 1.356 . S
C271 C273 1.358 . S
C271 H329 0.930 . S
C272 N269 1.314 . S
C272 C270 1.353 . S
C272 H330 0.930 1_565 S
C273 N269 1.279 . S
C273 C271 1.358 . S
C273 H331 0.930 . S
C274 C277 1.348 . S
C274 C278 1.356 . S
C274 O325 1.325 . S
C275 N276 1.279 . S
C275 C278 1.358 . S
C275 H332 0.930 . S
N276 C275 1.279 . S
N276 C279 1.314 . S
C277 C274 1.348 . S
C277 C279 1.353 . S
C277 H333 0.929 . S
C278 C274 1.356 . S
C278 C275 1.358 . S
C278 H334 0.930 . S
C279 N276 1.314 . S
C279 C277 1.353 . S
C279 H335 0.930 . S
C280 N281 1.314 . S
C280 C285 1.353 . S
C280 H286 0.930 . S
N281 Li264 1.990 . S
N281 C280 1.314 . S
N281 C283 1.279 . S
C282 C283 1.358 . S
C282 C284 1.356 . S
C282 H336 0.930 . S
C283 N281 1.279 . S
C283 C282 1.358 . S
C283 H287 0.930 . S
C284 C282 1.356 . S
C284 C285 1.348 . S
C285 C280 1.353 . S
C285 C284 1.348 . S
C285 H337 0.929 . S
H286 C280 0.930 . S
H287 C283 0.930 . S
C288 N289 1.314 . S
C288 C290 1.353 . S
C288 H294 0.930 . S
N289 Li265 1.990 1_545 S
N289 C288 1.314 . S
N289 C292 1.279 . S
C290 C288 1.353 . S
C290 C293 1.348 . S
C290 H338 0.929 . S
C291 C292 1.358 . S
C291 C293 1.356 . S
C291 H339 0.930 . S
C292 N289 1.279 . S
C292 C291 1.358 . S
C292 H295 0.930 . S
C293 C290 1.348 . S
C293 C291 1.356 . S
H294 C288 0.930 . S
H295 C292 0.930 . S
C296 C298 1.348 . S
C296 C299 1.356 . S
C296 O326 1.325 . S
N297 C300 1.314 . S
N297 C301 1.279 . S
C298 C296 1.348 . S
C298 C300 1.353 . S
C298 H340 0.929 . S
C299 C296 1.356 . S
C299 C301 1.358 . S
C299 H341 0.930 . S
C300 N297 1.314 . S
C300 C298 1.353 . S
C300 H342 0.930 . S
C301 N297 1.279 . S
C301 C299 1.358 . S
C301 H343 0.930 . S
C302 C303 1.348 . S
C302 C304 1.356 . S
C302 O327 1.325 1_545 S
C303 C302 1.348 . S
C303 C305 1.353 . S
C303 H344 0.929 1_545 S
C304 C302 1.356 . S
C304 C306 1.358 . S
C304 H345 0.930 . S
C305 C303 1.353 . S
C305 N307 1.314 . S
C305 H346 0.930 . S
C306 C304 1.358 . S
C306 N307 1.279 . S
C306 H347 0.930 . S
N307 C305 1.314 . S
N307 C306 1.279 . S
C308 C310 1.353 . S
C308 N311 1.314 . S
C308 H314 0.930 . S
C309 N311 1.279 . S
C309 C312 1.358 . S
C309 H315 0.930 . S
C310 C308 1.353 . S
C310 C313 1.348 . S
C310 H348 0.929 . S
N311 Li266 1.990 . S
N311 C308 1.314 . S
N311 C309 1.279 . S
C312 C309 1.358 . S
C312 C313 1.356 . S
C312 H349 0.930 . S
C313 C310 1.348 . S
C313 C312 1.356 . S
H314 C308 0.930 . S
H315 C309 0.930 . S
C316 N317 1.314 . S
C316 C318 1.353 . S
C316 H322 0.930 . S
N317 Li267 1.990 . S
N317 C316 1.314 . S
N317 C320 1.279 . S
C318 C316 1.353 . S
C318 C321 1.348 . S
C318 H350 0.929 . S
C319 C320 1.358 . S
C319 C321 1.356 . S
C319 H351 0.930 . S
C320 N317 1.279 . S
C320 C319 1.358 . S
C320 H323 0.930 . S
C321 C318 1.348 . S
C321 C319 1.356 . S
H322 C316 0.930 . S
H323 C320 0.930 . S
O324 Li264 1.956 . S
O324 Li265 1.970 . S
O324 Li266 1.961 . S
O324 C268 1.325 . S
O325 Li264 1.970 . S
O325 Li265 1.956 . S
O325 Li267 1.961 . S
O325 C274 1.325 . S
O326 Li264 1.961 . S
O326 Li266 1.956 . S
O326 Li267 1.970 . S
O326 C296 1.325 . S
O327 Li265 1.961 . S
O327 Li266 1.970 . S
O327 Li267 1.956 . S
O327 C302 1.325 1_565 S
H328 C270 0.929 1_545 S
H329 C271 0.930 . S
H330 C272 0.930 1_545 S
H331 C273 0.930 . S
H332 C275 0.930 . S
H333 C277 0.929 . S
H334 C278 0.930 . S
H335 C279 0.930 . S
H336 C282 0.930 . S
H337 C285 0.929 . S
H338 C290 0.929 . S
H339 C291 0.930 . S
H340 C298 0.929 . S
H341 C299 0.930 . S
H342 C300 0.930 . S
H343 C301 0.930 . S
H344 C303 0.929 1_565 S
H345 C304 0.930 . S
H346 C305 0.930 . S
H347 C306 0.930 . S
H348 C310 0.929 . S
H349 C312 0.930 . S
H350 C318 0.929 . S
H351 C319 0.930 . S
Li352 N369 1.990 . S
Li352 O412 1.956 . S
Li352 O413 1.970 . S
Li352 O414 1.961 . S
Li353 N377 1.990 1_455 S
Li353 O412 1.970 . S
Li353 O413 1.956 . S
Li353 O415 1.961 . S
Li354 N399 1.990 . S
Li354 O412 1.961 . S
Li354 O414 1.956 . S
Li354 O415 1.970 . S
Li355 N405 1.990 . S
Li355 O413 1.961 . S
Li355 O414 1.970 . S
Li355 O415 1.956 . S
C356 C358 1.348 . S
C356 C359 1.356 . S
C356 O412 1.325 . S
N357 C360 1.314 . S
N357 C361 1.279 . S
C358 C356 1.348 . S
C358 C360 1.353 . S
C358 H416 0.929 1_455 S
C359 C356 1.356 . S
C359 C361 1.358 . S
C359 H417 0.930 . S
C360 N357 1.314 . S
C360 C358 1.353 . S
C360 H418 0.930 1_455 S
C361 N357 1.279 . S
C361 C359 1.358 . S
C361 H419 0.930 . S
C362 C365 1.348 . S
C362 C366 1.356 . S
C362 O413 1.325 . S
C363 N364 1.279 . S
C363 C366 1.358 . S
C363 H420 0.930 . S
N364 C363 1.279 . S
N364 C367 1.314 . S
C365 C362 1.348 . S
C365 C367 1.353 . S
C365 H421 0.929 . S
C366 C362 1.356 . S
C366 C363 1.358 . S
C366 H422 0.930 . S
C367 N364 1.314 . S
C367 C365 1.353 . S
C367 H423 0.930 . S
C368 N369 1.314 . S
C368 C373 1.353 . S
C368 H374 0.930 . S
N369 Li352 1.990 . S
N369 C368 1.314 . S
N369 C371 1.279 . S
C370 C371 1.358 . S
C370 C372 1.356 . S
C370 H424 0.930 . S
C371 N369 1.279 . S
C371 C370 1.358 . S
C371 H375 0.930 . S
C372 C370 1.356 . S
C372 C373 1.348 . S
C373 C368 1.353 . S
C373 C372 1.348 . S
C373 H425 0.929 . S
H374 C368 0.930 . S
H375 C371 0.930 . S
C376 N377 1.314 . S
C376 C378 1.353 . S
C376 H382 0.930 . S
N377 Li353 1.990 1_655 S
N377 C376 1.314 . S
N377 C380 1.279 . S
C378 C376 1.353 . S
C378 C381 1.348 . S
C378 H426 0.929 . S
C379 C380 1.358 . S
C379 C381 1.356 . S
C379 H427 0.930 . S
C380 N377 1.279 . S
C380 C379 1.358 . S
C380 H383 0.930 . S
C381 C378 1.348 . S
C381 C379 1.356 . S
H382 C376 0.930 . S
H383 C380 0.930 . S
C384 C386 1.348 . S
C384 C387 1.356 . S
C384 O414 1.325 . S
N385 C388 1.314 . S
N385 C389 1.279 . S
C386 C384 1.348 . S
C386 C388 1.353 . S
C386 H428 0.929 . S
C387 C384 1.356 . S
C387 C389 1.358 . S
C387 H429 0.930 . S
C388 N385 1.314 . S
C388 C386 1.353 . S
C388 H430 0.930 . S
C389 N385 1.279 . S
C389 C387 1.358 . S
C389 H431 0.930 . S
C390 C391 1.348 . S
C390 C392 1.356 . S
C390 O415 1.325 1_655 S
C391 C390 1.348 . S
C391 C393 1.353 . S
C391 H432 0.929 1_655 S
C392 C390 1.356 . S
C392 C394 1.358 . S
C392 H433 0.930 . S
C393 C391 1.353 . S
C393 N395 1.314 . S
C393 H434 0.930 . S
C394 C392 1.358 . S
C394 N395 1.279 . S
C394 H435 0.930 . S
N395 C393 1.314 . S
N395 C394 1.279 . S
C396 C398 1.353 . S
C396 N399 1.314 . S
C396 H402 0.930 . S
C397 N399 1.279 . S
C397 C400 1.358 . S
C397 H403 0.930 . S
C398 C396 1.353 . S
C398 C401 1.348 . S
C398 H436 0.929 . S
N399 Li354 1.990 . S
N399 C396 1.314 . S
N399 C397 1.279 . S
C400 C397 1.358 . S
C400 C401 1.356 . S
C400 H437 0.930 . S
C401 C398 1.348 . S
C401 C400 1.356 . S
H402 C396 0.930 . S
H403 C397 0.930 . S
C404 N405 1.314 . S
C404 C406 1.353 . S
C404 H410 0.930 . S
N405 Li355 1.990 . S
N405 C404 1.314 . S
N405 C408 1.279 . S
C406 C404 1.353 . S
C406 C409 1.348 . S
C406 H438 0.929 . S
C407 C408 1.358 . S
C407 C409 1.356 . S
C407 H439 0.930 . S
C408 N405 1.279 . S
C408 C407 1.358 . S
C408 H411 0.930 . S
C409 C406 1.348 . S
C409 C407 1.356 . S
H410 C404 0.930 . S
H411 C408 0.930 . S
O412 Li352 1.956 . S
O412 Li353 1.970 . S
O412 Li354 1.961 . S
O412 C356 1.325 . S
O413 Li352 1.970 . S
O413 Li353 1.956 . S
O413 Li355 1.961 . S
O413 C362 1.325 . S
O414 Li352 1.961 . S
O414 Li354 1.956 . S
O414 Li355 1.970 . S
O414 C384 1.325 . S
O415 Li353 1.961 . S
O415 Li354 1.970 . S
O415 Li355 1.956 . S
O415 C390 1.325 1_455 S
H416 C358 0.929 1_655 S
H417 C359 0.930 . S
H418 C360 0.930 1_655 S
H419 C361 0.930 . S
H420 C363 0.930 . S
H421 C365 0.929 . S
H422 C366 0.930 . S
H423 C367 0.930 . S
H424 C370 0.930 . S
H425 C373 0.929 . S
H426 C378 0.929 . S
H427 C379 0.930 . S
H428 C386 0.929 . S
H429 C387 0.930 . S
H430 C388 0.930 . S
H431 C389 0.930 . S
H432 C391 0.929 1_455 S
H433 C392 0.930 . S
H434 C393 0.930 . S
H435 C394 0.930 . S
H436 C398 0.929 . S
H437 C400 0.930 . S
H438 C406 0.929 . S
H439 C407 0.930 . S
Li440 N457 1.990 . S
Li440 O500 1.956 . S
Li440 O501 1.970 . S
Li440 O502 1.961 . S
Li441 N465 1.990 . S
Li441 O500 1.970 . S
Li441 O501 1.956 . S
Li441 O503 1.961 . S
Li442 N487 1.990 . S
Li442 O500 1.961 . S
Li442 O502 1.956 . S
Li442 O503 1.970 . S
Li443 N493 1.990 . S
Li443 O501 1.961 . S
Li443 O502 1.970 . S
Li443 O503 1.956 . S
C444 C446 1.348 . S
C444 C447 1.356 . S
C444 O500 1.325 . S
N445 C448 1.314 . S
N445 C449 1.279 . S
C446 C444 1.348 . S
C446 C448 1.353 . S
C446 H504 0.929 . S
C447 C444 1.356 . S
C447 C449 1.358 . S
C447 H505 0.930 . S
C448 N445 1.314 . S
C448 C446 1.353 . S
C448 H506 0.930 . S
C449 N445 1.279 . S
C449 C447 1.358 . S
C449 H507 0.930 . S
C450 C453 1.348 . S
C450 C454 1.356 . S
C450 O501 1.325 . S
C451 N452 1.279 . S
C451 C454 1.358 . S
C451 H508 0.930 . S
N452 C451 1.279 . S
N452 C455 1.314 . S
C453 C450 1.348 . S
C453 C455 1.353 . S
C453 H509 0.929 . S
C454 C450 1.356 . S
C454 C451 1.358 . S
C454 H510 0.930 . S
C455 N452 1.314 . S
C455 C453 1.353 . S
C455 H511 0.930 . S
C456 N457 1.314 . S
C456 C461 1.353 . S
C456 H462 0.930 . S
N457 Li440 1.990 . S
N457 C456 1.314 . S
N457 C459 1.279 . S
C458 C459 1.358 . S
C458 C460 1.356 . S
C458 H512 0.930 . S
C459 N457 1.279 . S
C459 C458 1.358 . S
C459 H463 0.930 . S
C460 C458 1.356 . S
C460 C461 1.348 . S
C461 C456 1.353 . S
C461 C460 1.348 . S
C461 H513 0.929 . S
H462 C456 0.930 . S
H463 C459 0.930 . S
C464 N465 1.314 . S
C464 C466 1.353 . S
C464 H470 0.930 . S
N465 Li441 1.990 . S
N465 C464 1.314 . S
N465 C468 1.279 . S
C466 C464 1.353 . S
C466 C469 1.348 . S
C466 H514 0.929 . S
C467 C468 1.358 . S
C467 C469 1.356 . S
C467 H515 0.930 . S
C468 N465 1.279 . S
C468 C467 1.358 . S
C468 H471 0.930 . S
C469 C466 1.348 . S
C469 C467 1.356 . S
H470 C464 0.930 . S
H471 C468 0.930 . S
C472 C474 1.348 . S
C472 C475 1.356 . S
C472 O502 1.325 . S
N473 C476 1.314 . S
N473 C477 1.279 . S
C474 C472 1.348 . S
C474 C476 1.353 . S
C474 H516 0.929 . S
C475 C472 1.356 . S
C475 C477 1.358 . S
C475 H517 0.930 . S
C476 N473 1.314 . S
C476 C474 1.353 . S
C476 H518 0.930 . S
C477 N473 1.279 . S
C477 C475 1.358 . S
C477 H519 0.930 . S
C478 C479 1.348 . S
C478 C480 1.356 . S
C478 O503 1.325 . S
C479 C478 1.348 . S
C479 C481 1.353 . S
C479 H520 0.929 . S
C480 C478 1.356 . S
C480 C482 1.358 . S
C480 H521 0.930 . S
C481 C479 1.353 . S
C481 N483 1.314 . S
C481 H522 0.930 . S
C482 C480 1.358 . S
C482 N483 1.279 . S
C482 H523 0.930 . S
N483 C481 1.314 . S
N483 C482 1.279 . S
C484 C486 1.353 . S
C484 N487 1.314 . S
C484 H490 0.930 . S
C485 N487 1.279 . S
C485 C488 1.358 . S
C485 H491 0.930 . S
C486 C484 1.353 . S
C486 C489 1.348 . S
C486 H524 0.929 . S
N487 Li442 1.990 . S
N487 C484 1.314 . S
N487 C485 1.279 . S
C488 C485 1.358 . S
C488 C489 1.356 . S
C488 H525 0.930 . S
C489 C486 1.348 . S
C489 C488 1.356 . S
H490 C484 0.930 . S
H491 C485 0.930 . S
C492 N493 1.314 . S
C492 C494 1.353 . S
C492 H498 0.930 . S
N493 Li443 1.990 . S
N493 C492 1.314 . S
N493 C496 1.279 . S
C494 C492 1.353 . S
C494 C497 1.348 . S
C494 H526 0.929 . S
C495 C496 1.358 . S
C495 C497 1.356 . S
C495 H527 0.930 . S
C496 N493 1.279 . S
C496 C495 1.358 . S
C496 H499 0.930 . S
C497 C494 1.348 . S
C497 C495 1.356 . S
H498 C492 0.930 . S
H499 C496 0.930 . S
O500 Li440 1.956 . S
O500 Li441 1.970 . S
O500 Li442 1.961 . S
O500 C444 1.325 . S
O501 Li440 1.970 . S
O501 Li441 1.956 . S
O501 Li443 1.961 . S
O501 C450 1.325 . S
O502 Li440 1.961 . S
O502 Li442 1.956 . S
O502 Li443 1.970 . S
O502 C472 1.325 . S
O503 Li441 1.961 . S
O503 Li442 1.970 . S
O503 Li443 1.956 . S
O503 C478 1.325 . S
H504 C446 0.929 . S
H505 C447 0.930 . S
H506 C448 0.930 . S
H507 C449 0.930 . S
H508 C451 0.930 . S
H509 C453 0.929 . S
H510 C454 0.930 . S
H511 C455 0.930 . S
H512 C458 0.930 . S
H513 C461 0.929 . S
H514 C466 0.929 . S
H515 C467 0.930 . S
H516 C474 0.929 . S
H517 C475 0.930 . S
H518 C476 0.930 . S
H519 C477 0.930 . S
H520 C479 0.929 . S
H521 C480 0.930 . S
H522 C481 0.930 . S
H523 C482 0.930 . S
H524 C486 0.929 . S
H525 C488 0.930 . S
H526 C494 0.929 . S
H527 C495 0.930 . S
Li528 N545 1.990 . S
Li528 O588 1.956 . S
Li528 O589 1.970 . S
Li528 O590 1.961 . S
Li529 N553 1.990 . S
Li529 O588 1.970 . S
Li529 O589 1.956 . S
Li529 O591 1.961 . S
Li530 N575 1.990 1_655 S
Li530 O588 1.961 . S
Li530 O590 1.956 . S
Li530 O591 1.970 . S
Li531 N581 1.990 . S
Li531 O589 1.961 . S
Li531 O590 1.970 . S
Li531 O591 1.956 . S
C532 C534 1.348 . S
C532 C535 1.356 . S
C532 O588 1.325 . S
N533 C536 1.314 . S
N533 C537 1.279 . S
C534 C532 1.348 . S
C534 C536 1.353 1_556 S
C534 H592 0.929 . S
C535 C532 1.356 . S
C535 C537 1.358 1_556 S
C535 H593 0.930 . S
C536 N533 1.314 . S
C536 C534 1.353 1_554 S
C536 H594 0.930 . S
C537 N533 1.279 . S
C537 C535 1.358 1_554 S
C537 H595 0.930 . S
C538 C541 1.348 . S
C538 C542 1.356 . S
C538 O589 1.325 . S
C539 N540 1.279 . S
C539 C542 1.358 . S
C539 H596 0.930 . S
N540 C539 1.279 . S
N540 C543 1.314 . S
C541 C538 1.348 . S
C541 C543 1.353 . S
C541 H597 0.929 . S
C542 C538 1.356 . S
C542 C539 1.358 . S
C542 H598 0.930 . S
C543 N540 1.314 . S
C543 C541 1.353 . S
C543 H599 0.930 . S
C544 N545 1.314 . S
C544 C549 1.353 . S
C544 H550 0.930 . S
N545 Li528 1.990 . S
N545 C544 1.314 . S
N545 C547 1.279 . S
C546 C547 1.358 . S
C546 C548 1.356 . S
C546 H600 0.930 1_556 S
C547 N545 1.279 . S
C547 C546 1.358 . S
C547 H551 0.930 . S
C548 C546 1.356 . S
C548 C549 1.348 . S
C549 C544 1.353 . S
C549 C548 1.348 . S
C549 H601 0.929 . S
H550 C544 0.930 . S
H551 C547 0.930 . S
C552 N553 1.314 . S
C552 C554 1.353 . S
C552 H558 0.930 1_655 S
N553 Li529 1.990 . S
N553 C552 1.314 . S
N553 C556 1.279 . S
C554 C552 1.353 . S
C554 C557 1.348 . S
C554 H602 0.929 1_655 S
C555 C556 1.358 . S
C555 C557 1.356 . S
C555 H603 0.930 . S
C556 N553 1.279 . S
C556 C555 1.358 . S
C556 H559 0.930 . S
C557 C554 1.348 . S
C557 C555 1.356 . S
H558 C552 0.930 1_455 S
H559 C556 0.930 . S
C560 C562 1.348 . S
C560 C563 1.356 . S
C560 O590 1.325 . S
N561 C564 1.314 . S
N561 C565 1.279 . S
C562 C560 1.348 . S
C562 C564 1.353 . S
C562 H604 0.929 . S
C563 C560 1.356 . S
C563 C565 1.358 . S
C563 H605 0.930 . S
C564 N561 1.314 . S
C564 C562 1.353 . S
C564 H606 0.930 . S
C565 N561 1.279 . S
C565 C563 1.358 . S
C565 H607 0.930 . S
C566 C567 1.348 . S
C566 C568 1.353 . S
C566 O591 1.325 1_455 S
C567 C566 1.348 . S
C567 C569 1.353 . S
C567 H608 0.929 . S
C568 C566 1.353 . S
C568 C570 1.367 . S
C568 H609 0.924 1_455 S
C569 C567 1.353 . S
C569 N571 1.314 . S
C569 H610 0.930 . S
C570 C568 1.367 . S
C570 N571 1.279 . S
C570 H611 0.930 . S
N571 C569 1.314 . S
N571 C570 1.279 . S
C572 C574 1.353 . S
C572 N575 1.314 . S
C572 H578 0.930 . S
C573 N575 1.279 . S
C573 C576 1.358 . S
C573 H579 0.930 . S
C574 C572 1.353 . S
C574 C577 1.348 . S
C574 H612 0.929 . S
N575 Li530 1.990 1_455 S
N575 C572 1.314 . S
N575 C573 1.279 . S
C576 C573 1.358 . S
C576 C577 1.356 . S
C576 H613 0.930 . S
C577 C574 1.348 . S
C577 C576 1.356 . S
H578 C572 0.930 . S
H579 C573 0.930 . S
C580 N581 1.314 . S
C580 C582 1.353 . S
C580 H586 0.930 . S
N581 Li531 1.990 . S
N581 C580 1.314 . S
N581 C584 1.279 . S
C582 C580 1.353 . S
C582 C585 1.348 . S
C582 H614 0.929 . S
C583 C584 1.358 . S
C583 C585 1.356 . S
C583 H615 0.930 . S
C584 N581 1.279 . S
C584 C583 1.358 . S
C584 H587 0.930 . S
C585 C582 1.348 . S
C585 C583 1.356 . S
H586 C580 0.930 . S
H587 C584 0.930 . S
O588 Li528 1.956 . S
O588 Li529 1.970 . S
O588 Li530 1.961 . S
O588 C532 1.325 . S
O589 Li528 1.970 . S
O589 Li529 1.956 . S
O589 Li531 1.961 . S
O589 C538 1.325 . S
O590 Li528 1.961 . S
O590 Li530 1.956 . S
O590 Li531 1.970 . S
O590 C560 1.325 . S
O591 Li529 1.961 . S
O591 Li530 1.970 . S
O591 Li531 1.956 . S
O591 C566 1.325 1_655 S
H592 C534 0.929 . S
H593 C535 0.930 . S
H594 C536 0.930 . S
H595 C537 0.930 . S
H596 C539 0.930 . S
H597 C541 0.929 . S
H598 C542 0.930 . S
H599 C543 0.930 . S
H600 C546 0.930 1_554 S
H601 C549 0.929 . S
H602 C554 0.929 1_455 S
H603 C555 0.930 . S
H604 C562 0.929 . S
H605 C563 0.930 . S
H606 C564 0.930 . S
H607 C565 0.930 . S
H608 C567 0.929 . S
H609 C568 0.924 1_655 S
H610 C569 0.930 . S
H611 C570 0.930 . S
H612 C574 0.929 . S
H613 C576 0.930 . S
H614 C582 0.929 . S
H615 C583 0.930 . S
Li616 N633 1.990 . S
Li616 O676 1.956 . S
Li616 O677 1.970 . S
Li616 O678 1.961 . S
Li617 N641 1.990 . S
Li617 O676 1.970 . S
Li617 O677 1.956 . S
Li617 O679 1.961 . S
Li618 N663 1.990 . S
Li618 O676 1.961 . S
Li618 O678 1.956 . S
Li618 O679 1.970 . S
Li619 N669 1.990 . S
Li619 O677 1.961 . S
Li619 O678 1.970 . S
Li619 O679 1.956 . S
C620 C622 1.348 . S
C620 C623 1.356 . S
C620 O676 1.325 . S
N621 C624 1.314 . S
N621 C625 1.279 . S
C622 C620 1.348 . S
C622 C624 1.353 . S
C622 H680 0.929 . S
C623 C620 1.356 . S
C623 C625 1.358 . S
C623 H681 0.930 . S
C624 N621 1.314 . S
C624 C622 1.353 . S
C624 H682 0.930 . S
C625 N621 1.279 . S
C625 C623 1.358 . S
C625 H683 0.930 . S
C626 C629 1.348 . S
C626 C630 1.356 . S
C626 O677 1.325 . S
C627 N628 1.279 . S
C627 C630 1.358 1_554 S
C627 H684 0.930 . S
N628 C627 1.279 . S
N628 C631 1.314 . S
C629 C626 1.348 . S
C629 C631 1.353 1_556 S
C629 H685 0.929 . S
C630 C626 1.356 . S
C630 C627 1.358 1_556 S
C630 H686 0.930 . S
C631 N628 1.314 . S
C631 C629 1.353 1_554 S
C631 H687 0.930 . S
C632 N633 1.314 . S
C632 C637 1.353 . S
C632 H638 0.930 . S
N633 Li616 1.990 . S
N633 C632 1.314 . S
N633 C635 1.279 . S
C634 C635 1.358 . S
C634 C636 1.356 . S
C634 H688 0.930 . S
C635 N633 1.279 . S
C635 C634 1.358 . S
C635 H639 0.930 . S
C636 C634 1.356 . S
C636 C637 1.348 . S
C637 C632 1.353 . S
C637 C636 1.348 . S
C637 H689 0.929 . S
H638 C632 0.930 . S
H639 C635 0.930 . S
C640 N641 1.314 . S
C640 C642 1.353 . S
C640 H646 0.930 . S
N641 Li617 1.990 . S
N641 C640 1.314 . S
N641 C644 1.279 . S
C642 C640 1.353 . S
C642 C645 1.348 . S
C642 H690 0.929 . S
C643 C644 1.358 . S
C643 C645 1.356 . S
C643 H691 0.930 . S
C644 N641 1.279 . S
C644 C643 1.358 . S
C644 H647 0.930 . S
C645 C642 1.348 . S
C645 C643 1.356 . S
H646 C640 0.930 . S
H647 C644 0.930 . S
C648 C650 1.348 . S
C648 C651 1.356 . S
C648 O678 1.325 . S
N649 C652 1.314 . S
N649 C653 1.279 . S
C650 C648 1.348 . S
C650 C652 1.353 . S
C650 H692 0.929 . S
C651 C648 1.356 . S
C651 C653 1.358 . S
C651 H693 0.930 . S
C652 N649 1.314 . S
C652 C650 1.353 . S
C652 H694 0.930 . S
C653 N649 1.279 . S
C653 C651 1.358 . S
C653 H695 0.930 . S
C654 C655 1.348 . S
C654 C656 1.356 . S
C654 O679 1.325 . S
C655 C654 1.348 . S
C655 C657 1.353 . S
C655 H696 0.929 . S
C656 C654 1.356 . S
C656 C658 1.358 . S
C656 H697 0.930 . S
C657 C655 1.353 . S
C657 N659 1.314 . S
C657 H698 0.930 . S
C658 C656 1.358 . S
C658 N659 1.279 . S
C658 H699 0.930 . S
N659 C657 1.314 . S
N659 C658 1.279 . S
C660 C662 1.353 . S
C660 N663 1.314 . S
C660 H666 0.930 . S
C661 N663 1.279 . S
C661 C664 1.358 . S
C661 H667 0.930 . S
C662 C660 1.353 . S
C662 C665 1.348 . S
C662 H700 0.929 . S
N663 Li618 1.990 . S
N663 C660 1.314 . S
N663 C661 1.279 . S
C664 C661 1.358 . S
C664 C665 1.356 . S
C664 H701 0.930 . S
C665 C662 1.348 . S
C665 C664 1.356 . S
H666 C660 0.930 . S
H667 C661 0.930 . S
C668 N669 1.314 . S
C668 C670 1.353 . S
C668 H674 0.930 . S
N669 Li619 1.990 . S
N669 C668 1.314 . S
N669 C672 1.279 . S
C670 C668 1.353 . S
C670 C673 1.348 . S
C670 H702 0.929 1_556 S
C671 C672 1.358 . S
C671 C673 1.356 . S
C671 H703 0.930 . S
C672 N669 1.279 . S
C672 C671 1.358 . S
C672 H675 0.930 . S
C673 C670 1.348 . S
C673 C671 1.356 . S
H674 C668 0.930 . S
H675 C672 0.930 . S
O676 Li616 1.956 . S
O676 Li617 1.970 . S
O676 Li618 1.961 . S
O676 C620 1.325 . S
O677 Li616 1.970 . S
O677 Li617 1.956 . S
O677 Li619 1.961 . S
O677 C626 1.325 . S
O678 Li616 1.961 . S
O678 Li618 1.956 . S
O678 Li619 1.970 . S
O678 C648 1.325 . S
O679 Li617 1.961 . S
O679 Li618 1.970 . S
O679 Li619 1.956 . S
O679 C654 1.325 . S
H680 C622 0.929 . S
H681 C623 0.930 . S
H682 C624 0.930 . S
H683 C625 0.930 . S
H684 C627 0.930 . S
H685 C629 0.929 . S
H686 C630 0.930 . S
H687 C631 0.930 . S
H688 C634 0.930 . S
H689 C637 0.929 . S
H690 C642 0.929 . S
H691 C643 0.930 . S
H692 C650 0.929 . S
H693 C651 0.930 . S
H694 C652 0.930 . S
H695 C653 0.930 . S
H696 C655 0.929 . S
H697 C656 0.930 . S
H698 C657 0.930 . S
H699 C658 0.930 . S
H700 C662 0.929 . S
H701 C664 0.930 . S
H702 C670 0.929 1_554 S
H703 C671 0.930 . S
Li704 N721 1.990 . S
Li704 O764 1.956 . S
Li704 O765 1.970 . S
Li704 O766 1.961 . S
Li705 N729 1.990 . S
Li705 O764 1.970 . S
Li705 O765 1.956 . S
Li705 O767 1.961 . S
Li706 N751 1.990 1_545 S
Li706 O764 1.961 . S
Li706 O766 1.956 . S
Li706 O767 1.970 . S
Li707 N757 1.990 . S
Li707 O765 1.961 . S
Li707 O766 1.970 . S
Li707 O767 1.956 . S
C708 C710 1.348 . S
C708 C711 1.356 . S
C708 O764 1.325 . S
N709 C712 1.314 . S
N709 C713 1.279 . S
C710 C708 1.348 . S
C710 C712 1.353 . S
C710 H768 0.929 . S
C711 C708 1.356 . S
C711 C713 1.358 . S
C711 H769 0.930 . S
C712 N709 1.314 . S
C712 C710 1.353 . S
C712 H770 0.930 . S
C713 N709 1.279 . S
C713 C711 1.358 . S
C713 H771 0.930 . S
C714 C717 1.348 . S
C714 C718 1.356 . S
C714 O765 1.325 . S
C715 N716 1.279 . S
C715 C718 1.358 . S
C715 H772 0.930 . S
N716 C715 1.279 . S
N716 C719 1.314 . S
C717 C714 1.348 . S
C717 C719 1.353 . S
C717 H773 0.929 . S
C718 C714 1.356 . S
C718 C715 1.358 . S
C718 H774 0.930 . S
C719 N716 1.314 . S
C719 C717 1.353 . S
C719 H775 0.930 . S
C720 N721 1.314 . S
C720 C725 1.353 . S
C720 H726 0.930 . S
N721 Li704 1.990 . S
N721 C720 1.314 . S
N721 C723 1.279 . S
C722 C723 1.358 . S
C722 C724 1.356 . S
C722 H776 0.930 . S
C723 N721 1.279 . S
C723 C722 1.358 . S
C723 H727 0.930 . S
C724 C722 1.356 . S
C724 C725 1.348 . S
C725 C720 1.353 . S
C725 C724 1.348 . S
C725 H777 0.929 . S
H726 C720 0.930 . S
H727 C723 0.930 . S
C728 N729 1.314 . S
C728 C730 1.353 . S
C728 H734 0.930 . S
N729 Li705 1.990 . S
N729 C728 1.314 . S
N729 C732 1.279 . S
C730 C728 1.353 . S
C730 C733 1.348 . S
C730 H778 0.929 1_556 S
C731 C732 1.358 . S
C731 C733 1.356 . S
C731 H779 0.930 . S
C732 N729 1.279 . S
C732 C731 1.358 . S
C732 H735 0.930 . S
C733 C730 1.348 . S
C733 C731 1.356 . S
H734 C728 0.930 . S
H735 C732 0.930 . S
C736 C738 1.348 . S
C736 C739 1.356 . S
C736 O766 1.325 1_565 S
N737 C740 1.314 . S
N737 C741 1.279 . S
C738 C736 1.348 . S
C738 C740 1.353 . S
C738 H780 0.929 . S
C739 C736 1.356 . S
C739 C741 1.358 . S
C739 H781 0.930 . S
C740 N737 1.314 . S
C740 C738 1.353 . S
C740 H782 0.930 . S
C741 N737 1.279 . S
C741 C739 1.358 . S
C741 H783 0.930 . S
C742 C743 1.334 1_545 S
C742 C744 1.356 . S
C742 O767 1.325 . S
C743 C742 1.334 1_565 S
C743 C745 1.354 1_556 S
C743 H784 0.942 . S
C744 C742 1.356 . S
C744 C746 1.358 1_556 S
C744 H785 0.930 . S
C745 C743 1.354 1_554 S
C745 N747 1.314 1_565 S
C745 H786 0.930 . S
C746 C744 1.358 1_554 S
C746 N747 1.279 . S
C746 H787 0.930 . S
N747 C745 1.314 1_545 S
N747 C746 1.279 . S
C748 C750 1.353 . S
C748 N751 1.314 . S
C748 H754 0.930 . S
C749 N751 1.279 . S
C749 C752 1.358 . S
C749 H755 0.930 . S
C750 C748 1.353 . S
C750 C753 1.348 . S
C750 H788 0.929 . S
N751 Li706 1.990 1_565 S
N751 C748 1.314 . S
N751 C749 1.279 . S
C752 C749 1.358 . S
C752 C753 1.356 . S
C752 H789 0.930 . S
C753 C750 1.348 . S
C753 C752 1.356 . S
H754 C748 0.930 . S
H755 C749 0.930 . S
C756 N757 1.314 . S
C756 C758 1.353 . S
C756 H762 0.930 . S
N757 Li707 1.990 . S
N757 C756 1.314 . S
N757 C760 1.279 . S
C758 C756 1.353 . S
C758 C761 1.348 . S
C758 H790 0.929 . S
C759 C760 1.358 . S
C759 C761 1.356 . S
C759 H791 0.930 . S
C760 N757 1.279 . S
C760 C759 1.358 . S
C760 H763 0.930 . S
C761 C758 1.348 . S
C761 C759 1.356 . S
H762 C756 0.930 . S
H763 C760 0.930 . S
O764 Li704 1.956 . S
O764 Li705 1.970 . S
O764 Li706 1.961 . S
O764 C708 1.325 . S
O765 Li704 1.970 . S
O765 Li705 1.956 . S
O765 Li707 1.961 . S
O765 C714 1.325 . S
O766 Li704 1.961 . S
O766 Li706 1.956 . S
O766 Li707 1.970 . S
O766 C736 1.325 1_545 S
O767 Li705 1.961 . S
O767 Li706 1.970 . S
O767 Li707 1.956 . S
O767 C742 1.325 . S
H768 C710 0.929 . S
H769 C711 0.930 . S
H770 C712 0.930 . S
H771 C713 0.930 . S
H772 C715 0.930 . S
H773 C717 0.929 . S
H774 C718 0.930 . S
H775 C719 0.930 . S
H776 C722 0.930 . S
H777 C725 0.929 . S
H778 C730 0.929 1_554 S
H779 C731 0.930 . S
H780 C738 0.929 . S
H781 C739 0.930 . S
H782 C740 0.930 . S
H783 C741 0.930 . S
H784 C743 0.942 . S
H785 C744 0.930 . S
H786 C745 0.930 . S
H787 C746 0.930 . S
H788 C750 0.929 . S
H789 C752 0.930 . S
H790 C758 0.929 . S
H791 C759 0.930 . S
Li792 N809 1.990 . S
Li792 O852 1.956 . S
Li792 O853 1.970 . S
Li792 O854 1.961 . S
Li793 N817 1.990 . S
Li793 O852 1.970 . S
Li793 O853 1.956 . S
Li793 O855 1.961 . S
Li794 N839 1.990 . S
Li794 O852 1.961 . S
Li794 O854 1.956 . S
Li794 O855 1.970 . S
Li795 N845 1.990 1_545 S
Li795 O853 1.961 . S
Li795 O854 1.970 . S
Li795 O855 1.956 . S
C796 C798 1.348 . S
C796 C799 1.356 . S
C796 O852 1.325 . S
N797 C800 1.314 . S
N797 C801 1.279 . S
C798 C796 1.348 . S
C798 C800 1.353 . S
C798 H856 0.929 . S
C799 C796 1.356 . S
C799 C801 1.358 . S
C799 H857 0.930 . S
C800 N797 1.314 . S
C800 C798 1.353 . S
C800 H858 0.930 . S
C801 N797 1.279 . S
C801 C799 1.358 . S
C801 H859 0.930 . S
C802 C805 1.348 . S
C802 C806 1.356 . S
C802 O853 1.325 . S
C803 N804 1.279 . S
C803 C806 1.358 . S
C803 H860 0.930 . S
N804 C803 1.279 . S
N804 C807 1.314 . S
C805 C802 1.348 . S
C805 C807 1.353 . S
C805 H861 0.929 . S
C806 C802 1.356 . S
C806 C803 1.358 . S
C806 H862 0.930 . S
C807 N804 1.314 . S
C807 C805 1.353 . S
C807 H863 0.930 . S
C808 N809 1.314 . S
C808 C813 1.353 . S
C808 H814 0.930 . S
N809 Li792 1.990 . S
N809 C808 1.314 . S
N809 C811 1.279 . S
C810 C811 1.358 . S
C810 C812 1.356 . S
C810 H864 0.930 . S
C811 N809 1.279 . S
C811 C810 1.358 . S
C811 H815 0.930 . S
C812 C810 1.356 . S
C812 C813 1.348 . S
C813 C808 1.353 . S
C813 C812 1.348 . S
C813 H865 0.929 . S
H814 C808 0.930 . S
H815 C811 0.930 . S
C816 N817 1.314 . S
C816 C818 1.353 . S
C816 H822 0.930 . S
N817 Li793 1.990 . S
N817 C816 1.314 . S
N817 C820 1.279 . S
C818 C816 1.353 . S
C818 C821 1.348 . S
C818 H866 0.929 . S
C819 C820 1.358 . S
C819 C821 1.356 . S
C819 H867 0.930 . S
C820 N817 1.279 . S
C820 C819 1.358 . S
C820 H823 0.930 . S
C821 C818 1.348 . S
C821 C819 1.356 . S
H822 C816 0.930 . S
H823 C820 0.930 . S
C824 C826 1.336 1_545 S
C824 C827 1.356 . S
C824 O854 1.325 . S
N825 C828 1.314 1_545 S
N825 C829 1.279 . S
C826 C824 1.336 1_565 S
C826 C828 1.356 . S
C826 H868 0.938 . S
C827 C824 1.356 . S
C827 C829 1.358 . S
C827 H869 0.930 . S
C828 N825 1.314 1_565 S
C828 C826 1.356 . S
C828 H870 0.930 . S
C829 N825 1.279 . S
C829 C827 1.358 . S
C829 H871 0.930 . S
C830 C831 1.348 . S
C830 C832 1.356 . S
C830 O855 1.325 1_565 S
C831 C830 1.348 . S
C831 C833 1.353 . S
C831 H872 0.929 . S
C832 C830 1.356 . S
C832 C834 1.358 . S
C832 H873 0.930 . S
C833 C831 1.353 . S
C833 N835 1.314 . S
C833 H874 0.930 . S
C834 C832 1.358 . S
C834 N835 1.279 . S
C834 H875 0.930 . S
N835 C833 1.314 . S
N835 C834 1.279 . S
C836 C838 1.353 . S
C836 N839 1.314 . S
C836 H842 0.930 . S
C837 N839 1.279 . S
C837 C840 1.358 . S
C837 H843 0.930 . S
C838 C836 1.353 . S
C838 C841 1.348 . S
C838 H876 0.929 . S
N839 Li794 1.990 . S
N839 C836 1.314 . S
N839 C837 1.279 . S
C840 C837 1.358 . S
C840 C841 1.356 . S
C840 H877 0.930 . S
C841 C838 1.348 . S
C841 C840 1.356 . S
H842 C836 0.930 . S
H843 C837 0.930 . S
C844 N845 1.314 . S
C844 C846 1.353 . S
C844 H850 0.930 . S
N845 Li795 1.990 1_565 S
N845 C844 1.314 . S
N845 C848 1.279 . S
C846 C844 1.353 . S
C846 C849 1.348 . S
C846 H878 0.929 . S
C847 C848 1.358 . S
C847 C849 1.356 . S
C847 H879 0.930 . S
C848 N845 1.279 . S
C848 C847 1.358 . S
C848 H851 0.930 . S
C849 C846 1.348 . S
C849 C847 1.356 . S
H850 C844 0.930 . S
H851 C848 0.930 . S
O852 Li792 1.956 . S
O852 Li793 1.970 . S
O852 Li794 1.961 . S
O852 C796 1.325 . S
O853 Li792 1.970 . S
O853 Li793 1.956 . S
O853 Li795 1.961 . S
O853 C802 1.325 . S
O854 Li792 1.961 . S
O854 Li794 1.956 . S
O854 Li795 1.970 . S
O854 C824 1.325 . S
O855 Li793 1.961 . S
O855 Li794 1.970 . S
O855 Li795 1.956 . S
O855 C830 1.325 1_545 S
H856 C798 0.929 . S
H857 C799 0.930 . S
H858 C800 0.930 . S
H859 C801 0.930 . S
H860 C803 0.930 . S
H861 C805 0.929 . S
H862 C806 0.930 . S
H863 C807 0.930 . S
H864 C810 0.930 . S
H865 C813 0.929 . S
H866 C818 0.929 . S
H867 C819 0.930 . S
H868 C826 0.938 . S
H869 C827 0.930 . S
H870 C828 0.930 . S
H871 C829 0.930 . S
H872 C831 0.929 . S
H873 C832 0.930 . S
H874 C833 0.930 . S
H875 C834 0.930 . S
H876 C838 0.929 . S
H877 C840 0.930 . S
H878 C846 0.929 . S
H879 C847 0.930 . S
Li880 N897 1.990 1_655 S
Li880 O940 1.956 . S
Li880 O941 1.970 . S
Li880 O942 1.961 . S
Li881 N905 1.990 . S
Li881 O940 1.970 . S
Li881 O941 1.956 . S
Li881 O943 1.961 . S
Li882 N927 1.990 . S
Li882 O940 1.961 . S
Li882 O942 1.956 . S
Li882 O943 1.970 . S
Li883 N933 1.990 . S
Li883 O941 1.961 . S
Li883 O942 1.970 . S
Li883 O943 1.956 . S
C884 C886 1.348 . S
C884 C887 1.356 . S
C884 O940 1.325 1_455 S
N885 C888 1.314 . S
N885 C889 1.279 . S
C886 C884 1.348 . S
C886 C888 1.353 . S
C886 H944 0.929 . S
C887 C884 1.356 . S
C887 C889 1.358 . S
C887 H945 0.930 . S
C888 N885 1.314 . S
C888 C886 1.353 . S
C888 H946 0.930 . S
C889 N885 1.279 . S
C889 C887 1.358 . S
C889 H947 0.930 . S
C890 C893 1.327 1_655 S
C890 C894 1.356 . S
C890 O941 1.325 . S
C891 N892 1.279 . S
C891 C894 1.358 . S
C891 H948 0.930 . S
N892 C891 1.279 . S
N892 C895 1.314 1_655 S
C893 C890 1.327 1_455 S
C893 C895 1.355 . S
C893 H949 0.949 . S
C894 C890 1.356 . S
C894 C891 1.358 . S
C894 H950 0.930 . S
C895 N892 1.314 1_455 S
C895 C893 1.355 . S
C895 H951 0.930 . S
C896 N897 1.314 . S
C896 C901 1.353 . S
C896 H902 0.930 . S
N897 Li880 1.990 1_455 S
N897 C896 1.314 . S
N897 C899 1.279 . S
C898 C899 1.358 . S
C898 C900 1.356 . S
C898 H952 0.930 . S
C899 N897 1.279 . S
C899 C898 1.358 . S
C899 H903 0.930 . S
C900 C898 1.356 . S
C900 C901 1.348 . S
C901 C896 1.353 . S
C901 C900 1.348 . S
C901 H953 0.929 . S
H902 C896 0.930 . S
H903 C899 0.930 . S
C904 N905 1.314 . S
C904 C906 1.353 . S
C904 H910 0.930 . S
N905 Li881 1.990 . S
N905 C904 1.314 . S
N905 C908 1.279 . S
C906 C904 1.353 . S
C906 C909 1.348 . S
C906 H954 0.929 . S
C907 C908 1.358 . S
C907 C909 1.356 . S
C907 H955 0.930 . S
C908 N905 1.279 . S
C908 C907 1.358 . S
C908 H911 0.930 . S
C909 C906 1.348 . S
C909 C907 1.356 . S
H910 C904 0.930 . S
H911 C908 0.930 . S
C912 C914 1.348 . S
C912 C915 1.356 . S
C912 O942 1.325 . S
N913 C916 1.314 . S
N913 C917 1.279 . S
C914 C912 1.348 . S
C914 C916 1.353 . S
C914 H956 0.929 . S
C915 C912 1.356 . S
C915 C917 1.358 . S
C915 H957 0.930 . S
C916 N913 1.314 . S
C916 C914 1.353 . S
C916 H958 0.930 . S
C917 N913 1.279 . S
C917 C915 1.358 . S
C917 H959 0.930 . S
C918 C919 1.348 . S
C918 C920 1.356 . S
C918 O943 1.325 . S
C919 C918 1.348 . S
C919 C921 1.353 . S
C919 H960 0.929 . S
C920 C918 1.356 . S
C920 C922 1.358 . S
C920 H961 0.930 . S
C921 C919 1.353 . S
C921 N923 1.314 . S
C921 H962 0.930 . S
C922 C920 1.358 . S
C922 N923 1.279 . S
C922 H963 0.930 . S
N923 C921 1.314 . S
N923 C922 1.279 . S
C924 C926 1.353 . S
C924 N927 1.314 . S
C924 H930 0.930 . S
C925 N927 1.279 . S
C925 C928 1.358 . S
C925 H931 0.930 . S
C926 C924 1.353 . S
C926 C929 1.348 . S
C926 H964 0.929 . S
N927 Li882 1.990 . S
N927 C924 1.314 . S
N927 C925 1.279 . S
C928 C925 1.358 . S
C928 C929 1.356 . S
C928 H965 0.930 . S
C929 C926 1.348 . S
C929 C928 1.356 . S
H930 C924 0.930 . S
H931 C925 0.930 . S
C932 N933 1.314 . S
C932 C934 1.353 . S
C932 H938 0.930 . S
N933 Li883 1.990 . S
N933 C932 1.314 . S
N933 C936 1.279 . S
C934 C932 1.353 . S
C934 C937 1.348 . S
C934 H966 0.929 . S
C935 C936 1.358 . S
C935 C937 1.356 . S
C935 H967 0.930 . S
C936 N933 1.279 . S
C936 C935 1.358 . S
C936 H939 0.930 . S
C937 C934 1.348 . S
C937 C935 1.356 . S
H938 C932 0.930 . S
H939 C936 0.930 . S
O940 Li880 1.956 . S
O940 Li881 1.970 . S
O940 Li882 1.961 . S
O940 C884 1.325 1_655 S
O941 Li880 1.970 . S
O941 Li881 1.956 . S
O941 Li883 1.961 . S
O941 C890 1.325 . S
O942 Li880 1.961 . S
O942 Li882 1.956 . S
O942 Li883 1.970 . S
O942 C912 1.325 . S
O943 Li881 1.961 . S
O943 Li882 1.970 . S
O943 Li883 1.956 . S
O943 C918 1.325 . S
H944 C886 0.929 . S
H945 C887 0.930 . S
H946 C888 0.930 . S
H947 C889 0.930 . S
H948 C891 0.930 . S
H949 C893 0.949 . S
H950 C894 0.930 . S
H951 C895 0.930 . S
H952 C898 0.930 . S
H953 C901 0.929 . S
H954 C906 0.929 . S
H955 C907 0.930 . S
H956 C914 0.929 . S
H957 C915 0.930 . S
H958 C916 0.930 . S
H959 C917 0.930 . S
H960 C919 0.929 . S
H961 C920 0.930 . S
H962 C921 0.930 . S
H963 C922 0.930 . S
H964 C926 0.929 . S
H965 C928 0.930 . S
H966 C934 0.929 . S
H967 C935 0.930 . S
Li968 N985 1.990 . S
Li968 O1028 1.956 . S
Li968 O1029 1.970 . S
Li968 O1030 1.961 . S
Li969 N993 1.990 . S
Li969 O1028 1.970 . S
Li969 O1029 1.956 . S
Li969 O1031 1.961 . S
Li970 N1015 1.990 . S
Li970 O1028 1.961 . S
Li970 O1030 1.956 . S
Li970 O1031 1.970 . S
Li971 N1021 1.990 . S
Li971 O1029 1.961 . S
Li971 O1030 1.970 . S
Li971 O1031 1.956 . S
C972 C974 1.348 . S
C972 C975 1.356 . S
C972 O1028 1.325 . S
N973 C976 1.314 . S
N973 C977 1.279 . S
C974 C972 1.348 . S
C974 C976 1.353 . S
C974 H1032 0.929 . S
C975 C972 1.356 . S
C975 C977 1.358 . S
C975 H1033 0.930 . S
C976 N973 1.314 . S
C976 C974 1.353 . S
C976 H1034 0.930 . S
C977 N973 1.279 . S
C977 C975 1.358 . S
C977 H1035 0.930 . S
C978 C981 1.348 . S
C978 C982 1.356 . S
C978 O1029 1.325 . S
C979 N980 1.279 . S
C979 C982 1.358 . S
C979 H1036 0.930 . S
N980 C979 1.279 . S
N980 C983 1.314 . S
C981 C978 1.348 . S
C981 C983 1.353 . S
C981 H1037 0.929 . S
C982 C978 1.356 . S
C982 C979 1.358 . S
C982 H1038 0.930 . S
C983 N980 1.314 . S
C983 C981 1.353 . S
C983 H1039 0.930 . S
C984 N985 1.314 . S
C984 C989 1.353 . S
C984 H990 0.930 . S
N985 Li968 1.990 . S
N985 C984 1.314 . S
N985 C987 1.279 . S
C986 C987 1.358 . S
C986 C988 1.356 . S
C986 H1040 0.930 . S
C987 N985 1.279 . S
C987 C986 1.358 . S
C987 H991 0.930 . S
C988 C986 1.356 . S
C988 C989 1.348 . S
C989 C984 1.353 . S
C989 C988 1.348 . S
C989 H1041 0.929 . S
H990 C984 0.930 . S
H991 C987 0.930 . S
C992 N993 1.314 . S
C992 C994 1.353 . S
C992 H998 0.930 . S
N993 Li969 1.990 . S
N993 C992 1.314 . S
N993 C996 1.279 . S
C994 C992 1.353 . S
C994 C997 1.348 . S
C994 H1042 0.929 . S
C995 C996 1.358 . S
C995 C997 1.356 . S
C995 H1043 0.930 . S
C996 N993 1.279 . S
C996 C995 1.358 . S
C996 H999 0.930 . S
C997 C994 1.348 . S
C997 C995 1.356 . S
H998 C992 0.930 . S
H999 C996 0.930 . S
C1000 C1002 1.348 . S
C1000 C1003 1.356 . S
C1000 O1030 1.325 . S
N1001 C1004 1.314 . S
N1001 C1005 1.279 . S
C1002 C1000 1.348 . S
C1002 C1004 1.353 . S
C1002 H1044 0.929 . S
C1003 C1000 1.356 . S
C1003 C1005 1.358 . S
C1003 H1045 0.930 . S
C1004 N1001 1.314 . S
C1004 C1002 1.353 . S
C1004 H1046 0.930 . S
C1005 N1001 1.279 . S
C1005 C1003 1.358 . S
C1005 H1047 0.930 . S
C1006 C1007 1.348 . S
C1006 C1008 1.356 . S
C1006 O1031 1.325 . S
C1007 C1006 1.348 . S
C1007 C1009 1.353 . S
C1007 H1048 0.929 . S
C1008 C1006 1.356 . S
C1008 C1010 1.358 . S
C1008 H1049 0.930 . S
C1009 C1007 1.353 . S
C1009 N1011 1.314 . S
C1009 H1050 0.930 . S
C1010 C1008 1.358 . S
C1010 N1011 1.279 . S
C1010 H1051 0.930 . S
N1011 C1009 1.314 . S
N1011 C1010 1.279 . S
C1012 C1014 1.353 . S
C1012 N1015 1.314 . S
C1012 H1018 0.930 . S
C1013 N1015 1.279 . S
C1013 C1016 1.358 . S
C1013 H1019 0.930 . S
C1014 C1012 1.353 . S
C1014 C1017 1.348 . S
C1014 H1052 0.929 . S
N1015 Li970 1.990 . S
N1015 C1012 1.314 . S
N1015 C1013 1.279 . S
C1016 C1013 1.358 . S
C1016 C1017 1.356 . S
C1016 H1053 0.930 . S
C1017 C1014 1.348 . S
C1017 C1016 1.356 . S
H1018 C1012 0.930 . S
H1019 C1013 0.930 . S
C1020 N1021 1.314 . S
C1020 C1022 1.353 . S
C1020 H1026 0.930 . S
N1021 Li971 1.990 . S
N1021 C1020 1.314 . S
N1021 C1024 1.279 . S
C1022 C1020 1.353 . S
C1022 C1025 1.348 . S
C1022 H1054 0.929 . S
C1023 C1024 1.358 . S
C1023 C1025 1.356 . S
C1023 H1055 0.930 . S
C1024 N1021 1.279 . S
C1024 C1023 1.358 . S
C1024 H1027 0.930 . S
C1025 C1022 1.348 . S
C1025 C1023 1.356 . S
H1026 C1020 0.930 . S
H1027 C1024 0.930 . S
O1028 Li968 1.956 . S
O1028 Li969 1.970 . S
O1028 Li970 1.961 . S
O1028 C972 1.325 . S
O1029 Li968 1.970 . S
O1029 Li969 1.956 . S
O1029 Li971 1.961 . S
O1029 C978 1.325 . S
O1030 Li968 1.961 . S
O1030 Li970 1.956 . S
O1030 Li971 1.970 . S
O1030 C1000 1.325 . S
O1031 Li969 1.961 . S
O1031 Li970 1.970 . S
O1031 Li971 1.956 . S
O1031 C1006 1.325 . S
H1032 C974 0.929 . S
H1033 C975 0.930 . S
H1034 C976 0.930 . S
H1035 C977 0.930 . S
H1036 C979 0.930 . S
H1037 C981 0.929 . S
H1038 C982 0.930 . S
H1039 C983 0.930 . S
H1040 C986 0.930 . S
H1041 C989 0.929 . S
H1042 C994 0.929 . S
H1043 C995 0.930 . S
H1044 C1002 0.929 . S
H1045 C1003 0.930 . S
H1046 C1004 0.930 . S
H1047 C1005 0.930 . S
H1048 C1007 0.929 . S
H1049 C1008 0.930 . S
H1050 C1009 0.930 . S
H1051 C1010 0.930 . S
H1052 C1014 0.929 . S
H1053 C1016 0.930 . S
H1054 C1022 0.929 . S
H1055 C1023 0.930 . S
H1056 C1068 0.930 . S
H1057 C1070 0.930 . S
H1058 C1071 0.930 . S
H1059 C1075 0.959 . S
H1060 C1075 0.959 . S
H1061 C1075 0.961 . S
H1062 C1076 0.960 . S
H1063 C1076 0.961 . S
H1064 C1076 0.959 . S
H1065 C1079 0.929 . S
H1066 C1080 0.931 . S
H1067 C1082 0.930 . S
C1068 H1056 0.930 . S
C1068 C1069 1.399 1_556 S
C1068 C1073 1.399 . S
C1069 C1068 1.399 1_554 S
C1069 C1070 1.376 . S
C1070 H1057 0.930 . S
C1070 C1069 1.376 . S
C1070 C1071 1.388 . S
C1071 H1058 0.930 . S
C1071 C1070 1.388 . S
C1071 C1072 1.390 1_554 S
C1072 C1071 1.390 1_556 S
C1072 C1073 1.394 . S
C1072 C1078 1.465 . S
C1073 C1068 1.399 . S
C1073 C1072 1.394 . S
C1073 C1074 1.516 . S
C1074 C1073 1.516 . S
C1074 C1075 1.502 . S
C1074 C1076 1.561 . S
C1074 C1077 1.526 . S
C1075 H1059 0.959 . S
C1075 H1060 0.959 . S
C1075 H1061 0.961 . S
C1075 C1074 1.502 . S
C1076 H1062 0.960 . S
C1076 H1063 0.961 . S
C1076 H1064 0.959 . S
C1076 C1074 1.561 . S
C1077 C1074 1.526 . S
C1077 C1078 1.396 . S
C1077 C1082 1.390 . S
C1078 C1072 1.465 . S
C1078 C1077 1.396 . S
C1078 C1079 1.399 . S
C1079 H1065 0.929 . S
C1079 C1078 1.399 . S
C1079 C1080 1.385 . S
C1080 H1066 0.931 . S
C1080 C1079 1.385 . S
C1080 C1081 1.389 . S
C1081 C1080 1.389 . S
C1081 C1082 1.387 . S
C1082 H1067 0.930 . S
C1082 C1077 1.390 . S
C1082 C1081 1.387 . S
H1083 C1095 0.930 . S
H1084 C1097 0.930 . S
H1085 C1098 0.930 . S
H1086 C1102 0.959 . S
H1087 C1102 0.959 . S
H1088 C1102 0.961 . S
H1089 C1103 0.960 . S
H1090 C1103 0.961 . S
H1091 C1103 0.959 . S
H1092 C1106 0.929 . S
H1093 C1107 0.931 . S
H1094 C1109 0.930 . S
C1095 H1083 0.930 . S
C1095 C1096 1.399 . S
C1095 C1100 1.399 1_554 S
C1096 C1095 1.399 . S
C1096 C1097 1.376 1_554 S
C1097 H1084 0.930 . S
C1097 C1096 1.376 1_556 S
C1097 C1098 1.388 . S
C1098 H1085 0.930 . S
C1098 C1097 1.388 . S
C1098 C1099 1.390 . S
C1099 C1098 1.390 . S
C1099 C1100 1.394 . S
C1099 C1105 1.465 . S
C1100 C1095 1.399 1_556 S
C1100 C1099 1.394 . S
C1100 C1101 1.516 . S
C1101 C1100 1.516 . S
C1101 C1102 1.502 1_556 S
C1101 C1103 1.561 . S
C1101 C1104 1.526 . S
C1102 H1086 0.959 . S
C1102 H1087 0.959 . S
C1102 H1088 0.961 . S
C1102 C1101 1.502 1_554 S
C1103 H1089 0.960 . S
C1103 H1090 0.961 . S
C1103 H1091 0.959 . S
C1103 C1101 1.561 . S
C1104 C1101 1.526 . S
C1104 C1105 1.396 . S
C1104 C1109 1.390 . S
C1105 C1099 1.465 . S
C1105 C1104 1.396 . S
C1105 C1106 1.399 . S
C1106 H1092 0.929 . S
C1106 C1105 1.399 . S
C1106 C1107 1.385 . S
C1107 H1093 0.931 . S
C1107 C1106 1.385 . S
C1107 C1108 1.389 . S
C1108 C1107 1.389 . S
C1108 C1109 1.387 . S
C1109 H1094 0.930 . S
C1109 C1104 1.390 . S
C1109 C1108 1.387 . S
H1110 C1122 0.930 . S
H1111 C1124 0.930 . S
H1112 C1125 0.930 . S
H1113 C1129 0.959 . S
H1114 C1129 0.959 . S
H1115 C1129 0.961 . S
H1116 C1130 0.960 . S
H1117 C1130 0.961 . S
H1118 C1130 0.959 . S
H1119 C1133 0.929 . S
H1120 C1134 0.931 . S
H1121 C1136 0.930 . S
C1122 H1110 0.930 . S
C1122 C1123 1.399 1_556 S
C1122 C1127 1.399 . S
C1123 C1122 1.399 1_554 S
C1123 C1124 1.376 . S
C1124 H1111 0.930 . S
C1124 C1123 1.376 . S
C1124 C1125 1.388 1_554 S
C1125 H1112 0.930 . S
C1125 C1124 1.388 1_556 S
C1125 C1126 1.390 . S
C1126 C1125 1.390 . S
C1126 C1127 1.394 . S
C1126 C1132 1.465 . S
C1127 C1122 1.399 . S
C1127 C1126 1.394 . S
C1127 C1128 1.516 . S
C1128 C1127 1.516 . S
C1128 C1129 1.502 . S
C1128 C1130 1.561 . S
C1128 C1131 1.526 . S
C1129 H1113 0.959 . S
C1129 H1114 0.959 . S
C1129 H1115 0.961 . S
C1129 C1128 1.502 . S
C1130 H1116 0.960 . S
C1130 H1117 0.961 . S
C1130 H1118 0.959 . S
C1130 C1128 1.561 . S
C1131 C1128 1.526 . S
C1131 C1132 1.396 . S
C1131 C1136 1.390 . S
C1132 C1126 1.465 . S
C1132 C1131 1.396 . S
C1132 C1133 1.399 . S
C1133 H1119 0.929 . S
C1133 C1132 1.399 . S
C1133 C1134 1.385 . S
C1134 H1120 0.931 . S
C1134 C1133 1.385 . S
C1134 C1135 1.389 . S
C1135 C1134 1.389 . S
C1135 C1136 1.387 . S
C1136 H1121 0.930 . S
C1136 C1131 1.390 . S
C1136 C1135 1.387 . S
H1137 C1149 0.930 . S
H1138 C1151 0.930 . S
H1139 C1152 0.930 . S
H1140 C1156 0.959 . S
H1141 C1156 0.959 . S
H1142 C1156 0.961 . S
H1143 C1157 0.960 . S
H1144 C1157 0.961 . S
H1145 C1157 0.959 . S
H1146 C1160 0.929 . S
H1147 C1161 0.931 . S
H1148 C1163 0.930 . S
C1149 H1137 0.930 . S
C1149 C1150 1.399 . S
C1149 C1154 1.399 . S
C1150 C1149 1.399 . S
C1150 C1151 1.376 . S
C1151 H1138 0.930 . S
C1151 C1150 1.376 . S
C1151 C1152 1.388 . S
C1152 H1139 0.930 . S
C1152 C1151 1.388 . S
C1152 C1153 1.390 . S
C1153 C1152 1.390 . S
C1153 C1154 1.394 . S
C1153 C1159 1.465 . S
C1154 C1149 1.399 . S
C1154 C1153 1.394 . S
C1154 C1155 1.516 . S
C1155 C1154 1.516 . S
C1155 C1156 1.502 . S
C1155 C1157 1.561 . S
C1155 C1158 1.526 . S
C1156 H1140 0.959 . S
C1156 H1141 0.959 . S
C1156 H1142 0.961 . S
C1156 C1155 1.502 . S
C1157 H1143 0.960 . S
C1157 H1144 0.961 . S
C1157 H1145 0.959 . S
C1157 C1155 1.561 . S
C1158 C1155 1.526 . S
C1158 C1159 1.396 . S
C1158 C1163 1.390 . S
C1159 C1153 1.465 . S
C1159 C1158 1.396 . S
C1159 C1160 1.399 . S
C1160 H1146 0.929 . S
C1160 C1159 1.399 . S
C1160 C1161 1.385 . S
C1161 H1147 0.931 . S
C1161 C1160 1.385 . S
C1161 C1162 1.389 . S
C1162 C1161 1.389 . S
C1162 C1163 1.387 . S
C1163 H1148 0.930 . S
C1163 C1158 1.390 . S
C1163 C1162 1.387 . S
H1164 C1176 0.930 . S
H1165 C1178 0.930 . S
H1166 C1179 0.930 . S
H1167 C1183 0.959 . S
H1168 C1183 0.959 . S
H1169 C1183 0.961 . S
H1170 C1184 0.960 . S
H1171 C1184 0.961 . S
H1172 C1184 0.959 . S
H1173 C1187 0.929 . S
H1174 C1188 0.931 . S
H1175 C1190 0.930 . S
C1176 H1164 0.930 . S
C1176 C1177 1.399 . S
C1176 C1181 1.399 . S
C1177 C1176 1.399 . S
C1177 C1178 1.376 . S
C1178 H1165 0.930 . S
C1178 C1177 1.376 . S
C1178 C1179 1.388 . S
C1179 H1166 0.930 . S
C1179 C1178 1.388 . S
C1179 C1180 1.390 . S
C1180 C1179 1.390 . S
C1180 C1181 1.394 . S
C1180 C1186 1.465 . S
C1181 C1176 1.399 . S
C1181 C1180 1.394 . S
C1181 C1182 1.516 . S
C1182 C1181 1.516 . S
C1182 C1183 1.502 . S
C1182 C1184 1.561 . S
C1182 C1185 1.526 . S
C1183 H1167 0.959 . S
C1183 H1168 0.959 . S
C1183 H1169 0.961 . S
C1183 C1182 1.502 . S
C1184 H1170 0.960 . S
C1184 H1171 0.961 . S
C1184 H1172 0.959 . S
C1184 C1182 1.561 . S
C1185 C1182 1.526 . S
C1185 C1186 1.396 . S
C1185 C1190 1.390 . S
C1186 C1180 1.465 . S
C1186 C1185 1.396 . S
C1186 C1187 1.399 . S
C1187 H1173 0.929 . S
C1187 C1186 1.399 . S
C1187 C1188 1.385 . S
C1188 H1174 0.931 . S
C1188 C1187 1.385 . S
C1188 C1189 1.389 . S
C1189 C1188 1.389 . S
C1189 C1190 1.387 . S
C1190 H1175 0.930 . S
C1190 C1185 1.390 . S
C1190 C1189 1.387 . S
H1191 C1203 0.930 . S
H1192 C1205 0.930 . S
H1193 C1206 0.930 . S
H1194 C1210 0.959 . S
H1195 C1210 0.959 . S
H1196 C1210 0.961 . S
H1197 C1211 0.960 . S
H1198 C1211 0.961 . S
H1199 C1211 0.959 . S
H1200 C1214 0.929 . S
H1201 C1215 0.931 . S
H1202 C1217 0.930 . S
C1203 H1191 0.930 . S
C1203 C1204 1.399 . S
C1203 C1208 1.399 . S
C1204 C1203 1.399 . S
C1204 C1205 1.376 . S
C1205 H1192 0.930 . S
C1205 C1204 1.376 . S
C1205 C1206 1.388 . S
C1206 H1193 0.930 . S
C1206 C1205 1.388 . S
C1206 C1207 1.390 . S
C1207 C1206 1.390 . S
C1207 C1208 1.394 . S
C1207 C1213 1.465 . S
C1208 C1203 1.399 . S
C1208 C1207 1.394 . S
C1208 C1209 1.516 . S
C1209 C1208 1.516 . S
C1209 C1210 1.502 . S
C1209 C1211 1.561 . S
C1209 C1212 1.526 . S
C1210 H1194 0.959 . S
C1210 H1195 0.959 . S
C1210 H1196 0.961 . S
C1210 C1209 1.502 . S
C1211 H1197 0.960 . S
C1211 H1198 0.961 . S
C1211 H1199 0.959 . S
C1211 C1209 1.561 . S
C1212 C1209 1.526 . S
C1212 C1213 1.396 . S
C1212 C1217 1.390 . S
C1213 C1207 1.465 . S
C1213 C1212 1.396 . S
C1213 C1214 1.399 . S
C1214 H1200 0.929 . S
C1214 C1213 1.399 . S
C1214 C1215 1.385 . S
C1215 H1201 0.931 . S
C1215 C1214 1.385 . S
C1215 C1216 1.389 . S
C1216 C1215 1.389 . S
C1216 C1217 1.387 . S
C1217 H1202 0.930 . S
C1217 C1212 1.390 . S
C1217 C1216 1.387 . S
H1218 C1230 0.930 . S
H1219 C1232 0.930 . S
H1220 C1233 0.930 . S
H1221 C1237 0.959 . S
H1222 C1237 0.959 . S
H1223 C1237 0.961 . S
H1224 C1238 0.960 . S
H1225 C1238 0.961 . S
H1226 C1238 0.959 . S
H1227 C1241 0.929 . S
H1228 C1242 0.931 . S
H1229 C1244 0.930 . S
C1230 H1218 0.930 . S
C1230 C1231 1.399 . S
C1230 C1235 1.399 . S
C1231 C1230 1.399 . S
C1231 C1232 1.376 . S
C1232 H1219 0.930 . S
C1232 C1231 1.376 . S
C1232 C1233 1.388 . S
C1233 H1220 0.930 . S
C1233 C1232 1.388 . S
C1233 C1234 1.390 . S
C1234 C1233 1.390 . S
C1234 C1235 1.394 . S
C1234 C1240 1.465 . S
C1235 C1230 1.399 . S
C1235 C1234 1.394 . S
C1235 C1236 1.516 . S
C1236 C1235 1.516 . S
C1236 C1237 1.502 . S
C1236 C1238 1.561 . S
C1236 C1239 1.526 . S
C1237 H1221 0.959 . S
C1237 H1222 0.959 . S
C1237 H1223 0.961 . S
C1237 C1236 1.502 . S
C1238 H1224 0.960 . S
C1238 H1225 0.961 . S
C1238 H1226 0.959 . S
C1238 C1236 1.561 . S
C1239 C1236 1.526 . S
C1239 C1240 1.396 . S
C1239 C1244 1.390 . S
C1240 C1234 1.465 . S
C1240 C1239 1.396 . S
C1240 C1241 1.399 1_554 S
C1241 H1227 0.929 . S
C1241 C1240 1.399 1_556 S
C1241 C1242 1.385 . S
C1242 H1228 0.931 . S
C1242 C1241 1.385 . S
C1242 C1243 1.389 . S
C1243 C1242 1.389 . S
C1243 C1244 1.387 1_556 S
C1244 H1229 0.930 . S
C1244 C1239 1.390 . S
C1244 C1243 1.387 1_554 S
H1245 C1257 0.930 . S
H1246 C1259 0.930 . S
H1247 C1260 0.930 . S
H1248 C1264 0.959 . S
H1249 C1264 0.959 . S
H1250 C1264 0.961 . S
H1251 C1265 0.960 . S
H1252 C1265 0.961 . S
H1253 C1265 0.959 . S
H1254 C1268 0.929 . S
H1255 C1269 0.931 . S
H1256 C1271 0.930 . S
C1257 H1245 0.930 . S
C1257 C1258 1.399 1_554 S
C1257 C1262 1.399 . S
C1258 C1257 1.399 1_556 S
C1258 C1259 1.376 . S
C1259 H1246 0.930 . S
C1259 C1258 1.376 . S
C1259 C1260 1.388 . S
C1260 H1247 0.930 . S
C1260 C1259 1.388 . S
C1260 C1261 1.390 1_556 S
C1261 C1260 1.390 1_554 S
C1261 C1262 1.394 . S
C1261 C1267 1.465 . S
C1262 C1257 1.399 . S
C1262 C1261 1.394 . S
C1262 C1263 1.516 . S
C1263 C1262 1.516 . S
C1263 C1264 1.502 . S
C1263 C1265 1.561 . S
C1263 C1266 1.526 . S
C1264 H1248 0.959 . S
C1264 H1249 0.959 . S
C1264 H1250 0.961 . S
C1264 C1263 1.502 . S
C1265 H1251 0.960 . S
C1265 H1252 0.961 . S
C1265 H1253 0.959 . S
C1265 C1263 1.561 . S
C1266 C1263 1.526 . S
C1266 C1267 1.396 . S
C1266 C1271 1.390 . S
C1267 C1261 1.465 . S
C1267 C1266 1.396 . S
C1267 C1268 1.399 . S
C1268 H1254 0.929 . S
C1268 C1267 1.399 . S
C1268 C1269 1.385 . S
C1269 H1255 0.931 . S
C1269 C1268 1.385 . S
C1269 C1270 1.389 . S
C1270 C1269 1.389 . S
C1270 C1271 1.387 . S
C1271 H1256 0.930 . S
C1271 C1266 1.390 . S
C1271 C1270 1.387 . S
H1272 C1284 0.930 . S
H1273 C1286 0.930 . S
H1274 C1287 0.930 . S
H1275 C1291 0.959 . S
H1276 C1291 0.959 . S
H1277 C1291 0.961 . S
H1278 C1292 0.960 . S
H1279 C1292 0.961 . S
H1280 C1292 0.959 . S
H1281 C1295 0.929 . S
H1282 C1296 0.931 . S
H1283 C1298 0.930 . S
C1284 H1272 0.930 . S
C1284 C1285 1.399 . S
C1284 C1289 1.399 . S
C1285 C1284 1.399 . S
C1285 C1286 1.376 . S
C1286 H1273 0.930 . S
C1286 C1285 1.376 . S
C1286 C1287 1.388 . S
C1287 H1274 0.930 . S
C1287 C1286 1.388 . S
C1287 C1288 1.390 . S
C1288 C1287 1.390 . S
C1288 C1289 1.394 . S
C1288 C1294 1.465 . S
C1289 C1284 1.399 . S
C1289 C1288 1.394 . S
C1289 C1290 1.516 . S
C1290 C1289 1.516 . S
C1290 C1291 1.502 . S
C1290 C1292 1.561 . S
C1290 C1293 1.526 . S
C1291 H1275 0.959 . S
C1291 H1276 0.959 . S
C1291 H1277 0.961 . S
C1291 C1290 1.502 . S
C1292 H1278 0.960 . S
C1292 H1279 0.961 . S
C1292 H1280 0.959 . S
C1292 C1290 1.561 . S
C1293 C1290 1.526 . S
C1293 C1294 1.396 . S
C1293 C1298 1.390 . S
C1294 C1288 1.465 . S
C1294 C1293 1.396 . S
C1294 C1295 1.399 1_554 S
C1295 H1281 0.929 . S
C1295 C1294 1.399 1_556 S
C1295 C1296 1.385 . S
C1296 H1282 0.931 . S
C1296 C1295 1.385 . S
C1296 C1297 1.389 . S
C1297 C1296 1.389 . S
C1297 C1298 1.387 1_556 S
C1298 H1283 0.930 . S
C1298 C1293 1.390 . S
C1298 C1297 1.387 1_554 S
H1299 C1311 0.930 . S
H1300 C1313 0.930 . S
H1301 C1314 0.930 . S
H1302 C1318 0.959 . S
H1303 C1318 0.959 . S
H1304 C1318 0.961 . S
H1305 C1319 0.960 . S
H1306 C1319 0.961 . S
H1307 C1319 0.959 . S
H1308 C1322 0.929 . S
H1309 C1323 0.931 . S
H1310 C1325 0.930 . S
C1311 H1299 0.930 . S
C1311 C1312 1.399 . S
C1311 C1316 1.399 . S
C1312 C1311 1.399 . S
C1312 C1313 1.376 . S
C1313 H1300 0.930 . S
C1313 C1312 1.376 . S
C1313 C1314 1.388 . S
C1314 H1301 0.930 . S
C1314 C1313 1.388 . S
C1314 C1315 1.390 . S
C1315 C1314 1.390 . S
C1315 C1316 1.394 . S
C1315 C1321 1.465 . S
C1316 C1311 1.399 . S
C1316 C1315 1.394 . S
C1316 C1317 1.516 . S
C1317 C1316 1.516 . S
C1317 C1318 1.502 . S
C1317 C1319 1.561 . S
C1317 C1320 1.526 . S
C1318 H1302 0.959 . S
C1318 H1303 0.959 . S
C1318 H1304 0.961 . S
C1318 C1317 1.502 . S
C1319 H1305 0.960 . S
C1319 H1306 0.961 . S
C1319 H1307 0.959 . S
C1319 C1317 1.561 . S
C1320 C1317 1.526 . S
C1320 C1321 1.396 . S
C1320 C1325 1.390 . S
C1321 C1315 1.465 . S
C1321 C1320 1.396 . S
C1321 C1322 1.399 . S
C1322 H1308 0.929 . S
C1322 C1321 1.399 . S
C1322 C1323 1.385 . S
C1323 H1309 0.931 . S
C1323 C1322 1.385 . S
C1323 C1324 1.389 . S
C1324 C1323 1.389 . S
C1324 C1325 1.387 . S
C1325 H1310 0.930 . S
C1325 C1320 1.390 . S
C1325 C1324 1.387 . S
H1326 C1338 0.930 . S
H1327 C1340 0.930 . S
H1328 C1341 0.930 . S
H1329 C1345 0.959 . S
H1330 C1345 0.959 . S
H1331 C1345 0.961 . S
H1332 C1346 0.960 . S
H1333 C1346 0.961 . S
H1334 C1346 0.959 . S
H1335 C1349 0.929 . S
H1336 C1350 0.931 . S
H1337 C1352 0.930 . S
C1338 H1326 0.930 . S
C1338 C1339 1.399 . S
C1338 C1343 1.399 . S
C1339 C1338 1.399 . S
C1339 C1340 1.376 . S
C1340 H1327 0.930 . S
C1340 C1339 1.376 . S
C1340 C1341 1.388 . S
C1341 H1328 0.930 . S
C1341 C1340 1.388 . S
C1341 C1342 1.390 . S
C1342 C1341 1.390 . S
C1342 C1343 1.394 . S
C1342 C1348 1.465 . S
C1343 C1338 1.399 . S
C1343 C1342 1.394 . S
C1343 C1344 1.516 . S
C1344 C1343 1.516 . S
C1344 C1345 1.502 . S
C1344 C1346 1.561 . S
C1344 C1347 1.526 . S
C1345 H1329 0.959 . S
C1345 H1330 0.959 . S
C1345 H1331 0.961 . S
C1345 C1344 1.502 . S
C1346 H1332 0.960 . S
C1346 H1333 0.961 . S
C1346 H1334 0.959 . S
C1346 C1344 1.561 . S
C1347 C1344 1.526 . S
C1347 C1348 1.396 . S
C1347 C1352 1.390 . S
C1348 C1342 1.465 . S
C1348 C1347 1.396 . S
C1348 C1349 1.399 . S
C1349 H1335 0.929 . S
C1349 C1348 1.399 . S
C1349 C1350 1.385 . S
C1350 H1336 0.931 . S
C1350 C1349 1.385 . S
C1350 C1351 1.389 . S
C1351 C1350 1.389 . S
C1351 C1352 1.387 . S
C1352 H1337 0.930 . S
C1352 C1347 1.390 . S
C1352 C1351 1.387 . S
H1353 C1365 0.930 . S
H1354 C1367 0.930 . S
H1355 C1368 0.930 . S
H1356 C1372 0.959 . S
H1357 C1372 0.959 . S
H1358 C1372 0.961 . S
H1359 C1373 0.960 . S
H1360 C1373 0.961 . S
H1361 C1373 0.959 . S
H1362 C1376 0.929 . S
H1363 C1377 0.931 . S
H1364 C1379 0.930 . S
C1365 H1353 0.930 . S
C1365 C1366 1.399 . S
C1365 C1370 1.399 . S
C1366 C1365 1.399 . S
C1366 C1367 1.376 . S
C1367 H1354 0.930 . S
C1367 C1366 1.376 . S
C1367 C1368 1.388 . S
C1368 H1355 0.930 . S
C1368 C1367 1.388 . S
C1368 C1369 1.390 . S
C1369 C1368 1.390 . S
C1369 C1370 1.394 . S
C1369 C1375 1.465 . S
C1370 C1365 1.399 . S
C1370 C1369 1.394 . S
C1370 C1371 1.516 . S
C1371 C1370 1.516 . S
C1371 C1372 1.502 . S
C1371 C1373 1.561 . S
C1371 C1374 1.526 . S
C1372 H1356 0.959 . S
C1372 H1357 0.959 . S
C1372 H1358 0.961 . S
C1372 C1371 1.502 . S
C1373 H1359 0.960 . S
C1373 H1360 0.961 . S
C1373 H1361 0.959 . S
C1373 C1371 1.561 . S
C1374 C1371 1.526 . S
C1374 C1375 1.396 . S
C1374 C1379 1.390 . S
C1375 C1369 1.465 . S
C1375 C1374 1.396 . S
C1375 C1376 1.399 . S
C1376 H1362 0.929 . S
C1376 C1375 1.399 . S
C1376 C1377 1.385 . S
C1377 H1363 0.931 . S
C1377 C1376 1.385 . S
C1377 C1378 1.389 . S
C1378 C1377 1.389 . S
C1378 C1379 1.387 . S
C1379 H1364 0.930 . S
C1379 C1374 1.390 . S
C1379 C1378 1.387 . S
H1380 C1392 0.930 . S
H1381 C1394 0.930 . S
H1382 C1395 0.930 . S
H1383 C1399 0.959 . S
H1384 C1399 0.959 . S
H1385 C1399 0.961 . S
H1386 C1400 0.960 . S
H1387 C1400 0.961 . S
H1388 C1400 0.959 . S
H1389 C1403 0.929 . S
H1390 C1404 0.931 . S
H1391 C1406 0.930 . S
C1392 H1380 0.930 . S
C1392 C1393 1.399 . S
C1392 C1397 1.399 . S
C1393 C1392 1.399 . S
C1393 C1394 1.376 . S
C1394 H1381 0.930 . S
C1394 C1393 1.376 . S
C1394 C1395 1.388 . S
C1395 H1382 0.930 . S
C1395 C1394 1.388 . S
C1395 C1396 1.390 . S
C1396 C1395 1.390 . S
C1396 C1397 1.394 . S
C1396 C1402 1.465 . S
C1397 C1392 1.399 . S
C1397 C1396 1.394 . S
C1397 C1398 1.516 . S
C1398 C1397 1.516 . S
C1398 C1399 1.502 . S
C1398 C1400 1.561 . S
C1398 C1401 1.526 . S
C1399 H1383 0.959 . S
C1399 H1384 0.959 . S
C1399 H1385 0.961 . S
C1399 C1398 1.502 . S
C1400 H1386 0.960 . S
C1400 H1387 0.961 . S
C1400 H1388 0.959 . S
C1400 C1398 1.561 . S
C1401 C1398 1.526 . S
C1401 C1402 1.396 . S
C1401 C1406 1.390 . S
C1402 C1396 1.465 . S
C1402 C1401 1.396 . S
C1402 C1403 1.399 . S
C1403 H1389 0.929 . S
C1403 C1402 1.399 . S
C1403 C1404 1.385 . S
C1404 H1390 0.931 . S
C1404 C1403 1.385 . S
C1404 C1405 1.389 . S
C1405 C1404 1.389 . S
C1405 C1406 1.387 . S
C1406 H1391 0.930 . S
C1406 C1401 1.390 . S
C1406 C1405 1.387 . S
H1407 C1419 0.930 . S
H1408 C1421 0.930 . S
H1409 C1422 0.930 . S
H1410 C1426 0.959 . S
H1411 C1426 0.959 . S
H1412 C1426 0.961 . S
H1413 C1427 0.960 . S
H1414 C1427 0.961 . S
H1415 C1427 0.959 . S
H1416 C1430 0.929 . S
H1417 C1431 0.931 . S
H1418 C1433 0.930 . S
C1419 H1407 0.930 . S
C1419 C1420 1.399 . S
C1419 C1424 1.399 . S
C1420 C1419 1.399 . S
C1420 C1421 1.376 . S
C1421 H1408 0.930 . S
C1421 C1420 1.376 . S
C1421 C1422 1.388 . S
C1422 H1409 0.930 . S
C1422 C1421 1.388 . S
C1422 C1423 1.390 . S
C1423 C1422 1.390 . S
C1423 C1424 1.394 . S
C1423 C1429 1.465 . S
C1424 C1419 1.399 . S
C1424 C1423 1.394 . S
C1424 C1425 1.516 . S
C1425 C1424 1.516 . S
C1425 C1426 1.502 . S
C1425 C1427 1.561 . S
C1425 C1428 1.526 . S
C1426 H1410 0.959 . S
C1426 H1411 0.959 . S
C1426 H1412 0.961 . S
C1426 C1425 1.502 . S
C1427 H1413 0.960 . S
C1427 H1414 0.961 . S
C1427 H1415 0.959 . S
C1427 C1425 1.561 . S
C1428 C1425 1.526 . S
C1428 C1429 1.396 . S
C1428 C1433 1.390 . S
C1429 C1423 1.465 . S
C1429 C1428 1.396 . S
C1429 C1430 1.399 . S
C1430 H1416 0.929 . S
C1430 C1429 1.399 . S
C1430 C1431 1.385 . S
C1431 H1417 0.931 . S
C1431 C1430 1.385 . S
C1431 C1432 1.389 . S
C1432 C1431 1.389 . S
C1432 C1433 1.387 . S
C1433 H1418 0.930 . S
C1433 C1428 1.390 . S
C1433 C1432 1.387 . S
H1434 C1446 0.930 . S
H1435 C1448 0.930 . S
H1436 C1449 0.930 . S
H1437 C1453 0.959 . S
H1438 C1453 0.959 . S
H1439 C1453 0.961 . S
H1440 C1454 0.960 . S
H1441 C1454 0.961 . S
H1442 C1454 0.959 . S
H1443 C1457 0.929 . S
H1444 C1458 0.931 . S
H1445 C1460 0.930 . S
C1446 H1434 0.930 . S
C1446 C1447 1.399 . S
C1446 C1451 1.399 . S
C1447 C1446 1.399 . S
C1447 C1448 1.376 . S
C1448 H1435 0.930 . S
C1448 C1447 1.376 . S
C1448 C1449 1.388 . S
C1449 H1436 0.930 . S
C1449 C1448 1.388 . S
C1449 C1450 1.390 . S
C1450 C1449 1.390 . S
C1450 C1451 1.394 . S
C1450 C1456 1.465 . S
C1451 C1446 1.399 . S
C1451 C1450 1.394 . S
C1451 C1452 1.516 . S
C1452 C1451 1.516 . S
C1452 C1453 1.502 . S
C1452 C1454 1.561 . S
C1452 C1455 1.526 . S
C1453 H1437 0.959 . S
C1453 H1438 0.959 . S
C1453 H1439 0.961 . S
C1453 C1452 1.502 . S
C1454 H1440 0.960 . S
C1454 H1441 0.961 . S
C1454 H1442 0.959 . S
C1454 C1452 1.561 . S
C1455 C1452 1.526 . S
C1455 C1456 1.396 . S
C1455 C1460 1.390 . S
C1456 C1450 1.465 . S
C1456 C1455 1.396 . S
C1456 C1457 1.399 . S
C1457 H1443 0.929 . S
C1457 C1456 1.399 . S
C1457 C1458 1.385 . S
C1458 H1444 0.931 . S
C1458 C1457 1.385 . S
C1458 C1459 1.389 . S
C1459 C1458 1.389 . S
C1459 C1460 1.387 . S
C1460 H1445 0.930 . S
C1460 C1455 1.390 . S
C1460 C1459 1.387 . S
H1461 C1473 0.930 . S
H1462 C1475 0.930 . S
H1463 C1476 0.930 . S
H1464 C1480 0.959 . S
H1465 C1480 0.959 . S
H1466 C1480 0.961 . S
H1467 C1481 0.960 . S
H1468 C1481 0.961 . S
H1469 C1481 0.959 . S
H1470 C1484 0.929 . S
H1471 C1485 0.931 . S
H1472 C1487 0.930 . S
C1473 H1461 0.930 . S
C1473 C1474 1.399 . S
C1473 C1478 1.399 . S
C1474 C1473 1.399 . S
C1474 C1475 1.376 . S
C1475 H1462 0.930 . S
C1475 C1474 1.376 . S
C1475 C1476 1.388 . S
C1476 H1463 0.930 . S
C1476 C1475 1.388 . S
C1476 C1477 1.390 . S
C1477 C1476 1.390 . S
C1477 C1478 1.394 . S
C1477 C1483 1.465 . S
C1478 C1473 1.399 . S
C1478 C1477 1.394 . S
C1478 C1479 1.516 . S
C1479 C1478 1.516 . S
C1479 C1480 1.502 . S
C1479 C1481 1.561 . S
C1479 C1482 1.526 . S
C1480 H1464 0.959 . S
C1480 H1465 0.959 . S
C1480 H1466 0.961 . S
C1480 C1479 1.502 . S
C1481 H1467 0.960 . S
C1481 H1468 0.961 . S
C1481 H1469 0.959 . S
C1481 C1479 1.561 . S
C1482 C1479 1.526 . S
C1482 C1483 1.396 . S
C1482 C1487 1.390 . S
C1483 C1477 1.465 . S
C1483 C1482 1.396 . S
C1483 C1484 1.399 . S
C1484 H1470 0.929 . S
C1484 C1483 1.399 . S
C1484 C1485 1.385 . S
C1485 H1471 0.931 . S
C1485 C1484 1.385 . S
C1485 C1486 1.389 . S
C1486 C1485 1.389 . S
C1486 C1487 1.387 . S
C1487 H1472 0.930 . S
C1487 C1482 1.390 . S
C1487 C1486 1.387 . S
H1488 C1500 0.930 . S
H1489 C1502 0.930 . S
H1490 C1503 0.930 . S
H1491 C1507 0.959 . S
H1492 C1507 0.959 . S
H1493 C1507 0.961 . S
H1494 C1508 0.960 . S
H1495 C1508 0.961 . S
H1496 C1508 0.959 . S
H1497 C1511 0.929 . S
H1498 C1512 0.931 . S
H1499 C1514 0.930 . S
C1500 H1488 0.930 . S
C1500 C1501 1.399 . S
C1500 C1505 1.399 . S
C1501 C1500 1.399 . S
C1501 C1502 1.376 . S
C1502 H1489 0.930 . S
C1502 C1501 1.376 . S
C1502 C1503 1.388 . S
C1503 H1490 0.930 . S
C1503 C1502 1.388 . S
C1503 C1504 1.390 . S
C1504 C1503 1.390 . S
C1504 C1505 1.394 . S
C1504 C1510 1.465 . S
C1505 C1500 1.399 . S
C1505 C1504 1.394 . S
C1505 C1506 1.516 . S
C1506 C1505 1.516 . S
C1506 C1507 1.502 . S
C1506 C1508 1.561 . S
C1506 C1509 1.526 . S
C1507 H1491 0.959 . S
C1507 H1492 0.959 . S
C1507 H1493 0.961 . S
C1507 C1506 1.502 . S
C1508 H1494 0.960 . S
C1508 H1495 0.961 . S
C1508 H1496 0.959 . S
C1508 C1506 1.561 . S
C1509 C1506 1.526 . S
C1509 C1510 1.396 . S
C1509 C1514 1.390 . S
C1510 C1504 1.465 . S
C1510 C1509 1.396 . S
C1510 C1511 1.399 . S
C1511 H1497 0.929 . S
C1511 C1510 1.399 . S
C1511 C1512 1.385 . S
C1512 H1498 0.931 . S
C1512 C1511 1.385 . S
C1512 C1513 1.389 . S
C1513 C1512 1.389 . S
C1513 C1514 1.387 . S
C1514 H1499 0.930 . S
C1514 C1509 1.390 . S
C1514 C1513 1.387 . S
H1515 C1527 0.930 . S
H1516 C1529 0.930 . S
H1517 C1530 0.930 . S
H1518 C1534 0.959 . S
H1519 C1534 0.959 . S
H1520 C1534 0.961 . S
H1521 C1535 0.960 . S
H1522 C1535 0.961 . S
H1523 C1535 0.959 . S
H1524 C1538 0.929 . S
H1525 C1539 0.931 . S
H1526 C1541 0.930 . S
C1527 H1515 0.930 . S
C1527 C1528 1.399 . S
C1527 C1532 1.399 . S
C1528 C1527 1.399 . S
C1528 C1529 1.376 . S
C1529 H1516 0.930 . S
C1529 C1528 1.376 . S
C1529 C1530 1.388 . S
C1530 H1517 0.930 . S
C1530 C1529 1.388 . S
C1530 C1531 1.390 . S
C1531 C1530 1.390 . S
C1531 C1532 1.394 . S
C1531 C1537 1.465 . S
C1532 C1527 1.399 . S
C1532 C1531 1.394 . S
C1532 C1533 1.516 . S
C1533 C1532 1.516 . S
C1533 C1534 1.502 . S
C1533 C1535 1.561 . S
C1533 C1536 1.526 . S
C1534 H1518 0.959 . S
C1534 H1519 0.959 . S
C1534 H1520 0.961 . S
C1534 C1533 1.502 . S
C1535 H1521 0.960 . S
C1535 H1522 0.961 . S
C1535 H1523 0.959 . S
C1535 C1533 1.561 . S
C1536 C1533 1.526 . S
C1536 C1537 1.396 . S
C1536 C1541 1.390 . S
C1537 C1531 1.465 . S
C1537 C1536 1.396 . S
C1537 C1538 1.399 . S
C1538 H1524 0.929 . S
C1538 C1537 1.399 . S
C1538 C1539 1.385 . S
C1539 H1525 0.931 . S
C1539 C1538 1.385 . S
C1539 C1540 1.389 . S
C1540 C1539 1.389 . S
C1540 C1541 1.387 . S
C1541 H1526 0.930 . S
C1541 C1536 1.390 . S
C1541 C1540 1.387 . S
H1542 C1554 0.930 1_655 S
H1543 C1556 0.930 . S
H1544 C1557 0.930 . S
H1545 C1561 0.959 . S
H1546 C1561 0.959 . S
H1547 C1561 0.961 . S
H1548 C1562 0.960 . S
H1549 C1562 0.961 . S
H1550 C1562 0.959 . S
H1551 C1565 0.929 . S
H1552 C1566 0.931 . S
H1553 C1568 0.930 . S
C1554 H1542 0.930 1_455 S
C1554 C1555 1.399 . S
C1554 C1559 1.399 1_455 S
C1555 C1554 1.399 . S
C1555 C1556 1.376 . S
C1556 H1543 0.930 . S
C1556 C1555 1.376 . S
C1556 C1557 1.388 . S
C1557 H1544 0.930 . S
C1557 C1556 1.388 . S
C1557 C1558 1.390 . S
C1558 C1557 1.390 . S
C1558 C1559 1.394 1_455 S
C1558 C1564 1.465 1_554 S
C1559 C1554 1.399 1_655 S
C1559 C1558 1.394 1_655 S
C1559 C1560 1.516 1_554 S
C1560 C1559 1.516 1_556 S
C1560 C1561 1.502 . S
C1560 C1562 1.561 1_556 S
C1560 C1563 1.526 . S
C1561 H1545 0.959 . S
C1561 H1546 0.959 . S
C1561 H1547 0.961 . S
C1561 C1560 1.502 . S
C1562 H1548 0.960 . S
C1562 H1549 0.961 . S
C1562 H1550 0.959 . S
C1562 C1560 1.561 1_554 S
C1563 C1560 1.526 . S
C1563 C1564 1.396 1_655 S
C1563 C1568 1.390 . S
C1564 C1558 1.465 1_556 S
C1564 C1563 1.396 1_455 S
C1564 C1565 1.399 . S
C1565 H1551 0.929 . S
C1565 C1564 1.399 . S
C1565 C1566 1.385 . S
C1566 H1552 0.931 . S
C1566 C1565 1.385 . S
C1566 C1567 1.389 1_455 S
C1567 C1566 1.389 1_655 S
C1567 C1568 1.387 . S
C1568 H1553 0.930 . S
C1568 C1563 1.390 . S
C1568 C1567 1.387 . S
H1569 C1581 0.930 . S
H1570 C1583 0.930 . S
H1571 C1584 0.930 . S
H1572 C1588 0.959 . S
H1573 C1588 0.959 . S
H1574 C1588 0.961 . S
H1575 C1589 0.960 . S
H1576 C1589 0.961 . S
H1577 C1589 0.959 . S
H1578 C1592 0.929 . S
H1579 C1593 0.931 . S
H1580 C1595 0.930 . S
C1581 H1569 0.930 . S
C1581 C1582 1.399 . S
C1581 C1586 1.399 . S
C1582 C1581 1.399 . S
C1582 C1583 1.376 . S
C1583 H1570 0.930 . S
C1583 C1582 1.376 . S
C1583 C1584 1.388 . S
C1584 H1571 0.930 . S
C1584 C1583 1.388 . S
C1584 C1585 1.390 . S
C1585 C1584 1.390 . S
C1585 C1586 1.394 . S
C1585 C1591 1.465 1_554 S
C1586 C1581 1.399 . S
C1586 C1585 1.394 . S
C1586 C1587 1.516 1_554 S
C1587 C1586 1.516 1_556 S
C1587 C1588 1.502 . S
C1587 C1589 1.561 . S
C1587 C1590 1.526 . S
C1588 H1572 0.959 . S
C1588 H1573 0.959 . S
C1588 H1574 0.961 . S
C1588 C1587 1.502 . S
C1589 H1575 0.960 . S
C1589 H1576 0.961 . S
C1589 H1577 0.959 . S
C1589 C1587 1.561 . S
C1590 C1587 1.526 . S
C1590 C1591 1.396 . S
C1590 C1595 1.390 . S
C1591 C1585 1.465 1_556 S
C1591 C1590 1.396 . S
C1591 C1592 1.399 1_556 S
C1592 H1578 0.929 . S
C1592 C1591 1.399 1_554 S
C1592 C1593 1.385 1_554 S
C1593 H1579 0.931 . S
C1593 C1592 1.385 1_556 S
C1593 C1594 1.389 . S
C1594 C1593 1.389 . S
C1594 C1595 1.387 . S
C1595 H1580 0.930 . S
C1595 C1590 1.390 . S
C1595 C1594 1.387 . S
H1596 C1608 0.930 . S
H1597 C1610 0.930 . S
H1598 C1611 0.930 . S
H1599 C1615 0.959 . S
H1600 C1615 0.969 . S
H1601 C1615 0.961 . S
H1602 C1616 0.960 . S
H1603 C1616 0.961 . S
H1604 C1616 0.959 . S
H1605 C1619 0.929 . S
H1606 C1620 0.931 . S
H1607 C1622 0.905 1_565 S
C1608 H1596 0.930 . S
C1608 C1609 1.399 . S
C1608 C1613 1.399 . S
C1609 C1608 1.399 . S
C1609 C1610 1.376 1_565 S
C1610 H1597 0.930 . S
C1610 C1609 1.376 1_545 S
C1610 C1611 1.388 . S
C1611 H1598 0.930 . S
C1611 C1610 1.388 . S
C1611 C1612 1.390 . S
C1612 C1611 1.390 . S
C1612 C1613 1.394 1_545 S
C1612 C1618 1.465 1_554 S
C1613 C1608 1.399 . S
C1613 C1612 1.394 1_565 S
C1613 C1614 1.516 1_554 S
C1614 C1613 1.516 1_556 S
C1614 C1615 1.502 1_556 S
C1614 C1616 1.561 . S
C1614 C1617 1.526 . S
C1615 H1599 0.959 . S
C1615 H1600 0.969 . S
C1615 H1601 0.961 . S
C1615 C1614 1.502 1_554 S
C1616 H1602 0.960 . S
C1616 H1603 0.961 . S
C1616 H1604 0.959 . S
C1616 C1614 1.561 . S
C1617 C1614 1.526 . S
C1617 C1618 1.396 1_565 S
C1617 C1622 1.396 1_565 S
C1618 C1612 1.465 1_556 S
C1618 C1617 1.396 1_545 S
C1618 C1619 1.399 . S
C1619 H1605 0.929 . S
C1619 C1618 1.399 . S
C1619 C1620 1.385 . S
C1620 H1606 0.931 . S
C1620 C1619 1.385 . S
C1620 C1621 1.389 . S
C1621 C1620 1.389 . S
C1621 C1622 1.405 . S
C1622 H1607 0.905 1_545 S
C1622 C1617 1.396 1_545 S
C1622 C1621 1.405 . S
H1623 C1635 0.930 . S
H1624 C1637 0.930 . S
H1625 C1638 0.930 . S
H1626 C1642 0.959 . S
H1627 C1642 0.959 . S
H1628 C1642 0.961 . S
H1629 C1643 0.960 . S
H1630 C1643 0.961 . S
H1631 C1643 0.959 . S
H1632 C1646 0.929 . S
H1633 C1647 0.931 . S
H1634 C1649 0.923 1_565 S
C1635 H1623 0.930 . S
C1635 C1636 1.399 . S
C1635 C1640 1.399 . S
C1636 C1635 1.399 . S
C1636 C1637 1.376 1_565 S
C1637 H1624 0.930 . S
C1637 C1636 1.376 1_545 S
C1637 C1638 1.388 . S
C1638 H1625 0.930 . S
C1638 C1637 1.388 . S
C1638 C1639 1.390 . S
C1639 C1638 1.390 . S
C1639 C1640 1.394 1_545 S
C1639 C1645 1.465 . S
C1640 C1635 1.399 . S
C1640 C1639 1.394 1_565 S
C1640 C1641 1.516 . S
C1641 C1640 1.516 . S
C1641 C1642 1.502 . S
C1641 C1643 1.561 . S
C1641 C1644 1.526 . S
C1642 H1626 0.959 . S
C1642 H1627 0.959 . S
C1642 H1628 0.961 . S
C1642 C1641 1.502 . S
C1643 H1629 0.960 . S
C1643 H1630 0.961 . S
C1643 H1631 0.959 . S
C1643 C1641 1.561 . S
C1644 C1641 1.526 . S
C1644 C1645 1.396 1_565 S
C1644 C1649 1.378 1_565 S
C1645 C1639 1.465 . S
C1645 C1644 1.396 1_545 S
C1645 C1646 1.399 . S
C1646 H1632 0.929 . S
C1646 C1645 1.399 . S
C1646 C1647 1.385 . S
C1647 H1633 0.931 . S
C1647 C1646 1.385 . S
C1647 C1648 1.389 . S
C1648 C1647 1.389 . S
C1648 C1649 1.405 . S
C1649 H1634 0.923 1_545 S
C1649 C1644 1.378 1_545 S
C1649 C1648 1.405 . S
H1650 C1662 0.930 . S
H1651 C1664 0.930 . S
H1652 C1665 0.930 1_455 S
H1653 C1669 0.959 1_455 S
H1654 C1669 0.959 . S
H1655 C1669 0.961 . S
H1656 C1670 0.960 . S
H1657 C1670 0.961 . S
H1658 C1670 0.959 . S
H1659 C1673 0.929 . S
H1660 C1674 0.931 . S
H1661 C1676 0.930 . S
C1662 H1650 0.930 . S
C1662 C1663 1.399 . S
C1662 C1667 1.399 . S
C1663 C1662 1.399 . S
C1663 C1664 1.376 . S
C1664 H1651 0.930 . S
C1664 C1663 1.376 . S
C1664 C1665 1.388 . S
C1665 H1652 0.930 1_655 S
C1665 C1664 1.388 . S
C1665 C1666 1.390 . S
C1666 C1665 1.390 . S
C1666 C1667 1.394 . S
C1666 C1672 1.465 1_655 S
C1667 C1662 1.399 . S
C1667 C1666 1.394 . S
C1667 C1668 1.516 . S
C1668 C1667 1.516 . S
C1668 C1669 1.502 . S
C1668 C1670 1.561 . S
C1668 C1671 1.526 1_655 S
C1669 H1653 0.959 1_655 S
C1669 H1654 0.959 . S
C1669 H1655 0.961 . S
C1669 C1668 1.502 . S
C1670 H1656 0.960 . S
C1670 H1657 0.961 . S
C1670 H1658 0.959 . S
C1670 C1668 1.561 . S
C1671 C1668 1.526 1_455 S
C1671 C1672 1.396 . S
C1671 C1676 1.390 . S
C1672 C1666 1.465 1_455 S
C1672 C1671 1.396 . S
C1672 C1673 1.399 . S
C1673 H1659 0.929 . S
C1673 C1672 1.399 . S
C1673 C1674 1.385 . S
C1674 H1660 0.931 . S
C1674 C1673 1.385 . S
C1674 C1675 1.389 . S
C1675 C1674 1.389 . S
C1675 C1676 1.387 . S
C1676 H1661 0.930 . S
C1676 C1671 1.390 . S
C1676 C1675 1.387 . S
H1677 C1689 0.930 . S
H1678 C1691 0.930 . S
H1679 C1692 0.930 . S
H1680 C1696 0.959 . S
H1681 C1696 0.959 . S
H1682 C1696 0.961 . S
H1683 C1697 0.960 . S
H1684 C1697 0.961 . S
H1685 C1697 0.959 . S
H1686 C1700 0.929 . S
H1687 C1701 0.931 . S
H1688 C1703 0.930 . S
C1689 H1677 0.930 . S
C1689 C1690 1.399 . S
C1689 C1694 1.399 . S
C1690 C1689 1.399 . S
C1690 C1691 1.376 . S
C1691 H1678 0.930 . S
C1691 C1690 1.376 . S
C1691 C1692 1.388 . S
C1692 H1679 0.930 . S
C1692 C1691 1.388 . S
C1692 C1693 1.390 . S
C1693 C1692 1.390 . S
C1693 C1694 1.394 . S
C1693 C1699 1.465 . S
C1694 C1689 1.399 . S
C1694 C1693 1.394 . S
C1694 C1695 1.516 . S
C1695 C1694 1.516 . S
C1695 C1696 1.502 . S
C1695 C1697 1.561 . S
C1695 C1698 1.526 . S
C1696 H1680 0.959 . S
C1696 H1681 0.959 . S
C1696 H1682 0.961 . S
C1696 C1695 1.502 . S
C1697 H1683 0.960 . S
C1697 H1684 0.961 . S
C1697 H1685 0.959 . S
C1697 C1695 1.561 . S
C1698 C1695 1.526 . S
C1698 C1699 1.396 . S
C1698 C1703 1.390 . S
C1699 C1693 1.465 . S
C1699 C1698 1.396 . S
C1699 C1700 1.399 . S
C1700 H1686 0.929 . S
C1700 C1699 1.399 . S
C1700 C1701 1.385 . S
C1701 H1687 0.931 . S
C1701 C1700 1.385 . S
C1701 C1702 1.389 . S
C1702 C1701 1.389 . S
C1702 C1703 1.387 . S
C1703 H1688 0.930 . S
C1703 C1698 1.390 . S
C1703 C1702 1.387 . S
C1069 C49 0.204 . S
C1081 C636 0.290 . S
C1096 C145 0.241 . S
C1108 C753 0.384 . S
C1123 C233 0.290 . S
C1135 C577 0.308 . S
C1150 C997 0.212 . S
C1162 C284 0.288 . S
C1177 C372 0.259 . S
C1189 C849 0.203 . S
C1204 C900 0.435 . S
C1216 C469 0.078 . S
C1231 C137 0.251 . S
C1243 C548 0.160 . S
C1258 C673 0.244 . S
C1270 C225 0.183 . S
C1285 C57 0.223 . S
C1297 C733 0.161 . S
C1312 C812 0.229 . S
C1324 C460 0.448 . S
C1339 C937 0.250 . S
C1351 C293 0.420 . S
C1366 C381 0.306 . S
C1378 C1025 0.111 . S
C1393 C489 2.478 . S
C1405 C29 2.519 . S
C1420 C108 2.467 . S
C1432 C321 2.534 . S
C1447 C196 2.523 . S
C1459 C409 2.471 . S
C1474 C585 2.533 . S
C1486 C988 2.493 . S
C1501 C665 2.454 . S
C1513 C821 2.521 . S
C1528 C724 2.511 . S
C1540 C929 2.453 . S
C1555 C20 1.867 . S
C1567 C557 1.816 . S
C1582 C117 1.821 . S
C1594 C645 1.816 . S
C1609 C205 1.796 . S
C1621 C761 1.843 . S
C1636 C313 1.796 . S
C1648 C841 1.842 . S
C1663 C909 1.850 . S
C1675 C401 1.803 . S
C1690 C497 1.843 . S
C1702 C1017 1.843 . S
