# Generated by pormake.
# Topology wls, (5)-cn, num edge types: 1
# Building blocks:
#     Node 0, Type 0, BuildingBlock: XOMCOT_clean_sbu_1, # of connection points: 5
#     Node 1, Type 0, BuildingBlock: XOMCOT_clean_sbu_1, # of connection points: 5
#     Node 2, Type 0, BuildingBlock: XOMCOT_clean_sbu_1, # of connection points: 5
#     Node 3, Type 0, BuildingBlock: XOMCOT_clean_sbu_1, # of connection points: 5
#     Node 4, Type 0, BuildingBlock: XOMCOT_clean_sbu_1, # of connection points: 5
#     Node 5, Type 0, BuildingBlock: XOMCOT_clean_sbu_1, # of connection points: 5
#     Node 6, Type 0, BuildingBlock: XOMCOT_clean_sbu_1, # of connection points: 5
#     Node 7, Type 0, BuildingBlock: XOMCOT_clean_sbu_1, # of connection points: 5
#     Node 8, Type 0, BuildingBlock: XOMCOT_clean_sbu_1, # of connection points: 5
#     Node 9, Type 0, BuildingBlock: XOMCOT_clean_sbu_1, # of connection points: 5
#     Node 10, Type 0, BuildingBlock: XOMCOT_clean_sbu_1, # of connection points: 5
#     Node 11, Type 0, BuildingBlock: XOMCOT_clean_sbu_1, # of connection points: 5
#     Node 12, Type 0, BuildingBlock: XOMCOT_clean_sbu_1, # of connection points: 5
#     Node 13, Type 0, BuildingBlock: XOMCOT_clean_sbu_1, # of connection points: 5
#     Node 14, Type 0, BuildingBlock: XOMCOT_clean_sbu_1, # of connection points: 5
#     Node 15, Type 0, BuildingBlock: XOMCOT_clean_sbu_1, # of connection points: 5
#     Node 16, Type 0, BuildingBlock: XOMCOT_clean_sbu_1, # of connection points: 5
#     Node 17, Type 0, BuildingBlock: XOMCOT_clean_sbu_1, # of connection points: 5
#     Node 18, Type 0, BuildingBlock: XOMCOT_clean_sbu_1, # of connection points: 5
#     Node 19, Type 0, BuildingBlock: XOMCOT_clean_sbu_1, # of connection points: 5
#     Node 20, Type 0, BuildingBlock: XOMCOT_clean_sbu_1, # of connection points: 5
#     Node 21, Type 0, BuildingBlock: XOMCOT_clean_sbu_1, # of connection points: 5
#     Node 22, Type 0, BuildingBlock: XOMCOT_clean_sbu_1, # of connection points: 5
#     Node 23, Type 0, BuildingBlock: XOMCOT_clean_sbu_1, # of connection points: 5
#     Node 24, Type 0, BuildingBlock: XOMCOT_clean_sbu_1, # of connection points: 5
#     Node 25, Type 0, BuildingBlock: XOMCOT_clean_sbu_1, # of connection points: 5
#     Node 26, Type 0, BuildingBlock: XOMCOT_clean_sbu_1, # of connection points: 5
#     Node 27, Type 0, BuildingBlock: XOMCOT_clean_sbu_1, # of connection points: 5
#     Node 28, Type 0, BuildingBlock: XOMCOT_clean_sbu_1, # of connection points: 5
#     Node 29, Type 0, BuildingBlock: XOMCOT_clean_sbu_1, # of connection points: 5
#     Node 30, Type 0, BuildingBlock: XOMCOT_clean_sbu_1, # of connection points: 5
#     Node 31, Type 0, BuildingBlock: XOMCOT_clean_sbu_1, # of connection points: 5
#     Node 32, Type 0, BuildingBlock: XOMCOT_clean_sbu_1, # of connection points: 5
#     Node 33, Type 0, BuildingBlock: XOMCOT_clean_sbu_1, # of connection points: 5
#     Node 34, Type 0, BuildingBlock: XOMCOT_clean_sbu_1, # of connection points: 5
#     Node 35, Type 0, BuildingBlock: XOMCOT_clean_sbu_1, # of connection points: 5
#     Edge 36, Type (0, 0), None
#     Edge 37, Type (0, 0), None
#     Edge 38, Type (0, 0), None
#     Edge 39, Type (0, 0), None
#     Edge 40, Type (0, 0), None
#     Edge 41, Type (0, 0), None
#     Edge 42, Type (0, 0), None
#     Edge 43, Type (0, 0), None
#     Edge 44, Type (0, 0), None
#     Edge 45, Type (0, 0), None
#     Edge 46, Type (0, 0), None
#     Edge 47, Type (0, 0), None
#     Edge 48, Type (0, 0), None
#     Edge 49, Type (0, 0), None
#     Edge 50, Type (0, 0), None
#     Edge 51, Type (0, 0), None
#     Edge 52, Type (0, 0), None
#     Edge 53, Type (0, 0), None
#     Edge 54, Type (0, 0), None
#     Edge 55, Type (0, 0), None
#     Edge 56, Type (0, 0), None
#     Edge 57, Type (0, 0), None
#     Edge 58, Type (0, 0), None
#     Edge 59, Type (0, 0), None
#     Edge 60, Type (0, 0), None
#     Edge 61, Type (0, 0), None
#     Edge 62, Type (0, 0), None
#     Edge 63, Type (0, 0), None
#     Edge 64, Type (0, 0), None
#     Edge 65, Type (0, 0), None
#     Edge 66, Type (0, 0), None
#     Edge 67, Type (0, 0), None
#     Edge 68, Type (0, 0), None
#     Edge 69, Type (0, 0), None
#     Edge 70, Type (0, 0), None
#     Edge 71, Type (0, 0), None
#     Edge 72, Type (0, 0), None
#     Edge 73, Type (0, 0), None
#     Edge 74, Type (0, 0), None
#     Edge 75, Type (0, 0), None
#     Edge 76, Type (0, 0), None
#     Edge 77, Type (0, 0), None
#     Edge 78, Type (0, 0), None
#     Edge 79, Type (0, 0), None
#     Edge 80, Type (0, 0), None
#     Edge 81, Type (0, 0), None
#     Edge 82, Type (0, 0), None
#     Edge 83, Type (0, 0), None
#     Edge 84, Type (0, 0), None
#     Edge 85, Type (0, 0), None
#     Edge 86, Type (0, 0), None
#     Edge 87, Type (0, 0), None
#     Edge 88, Type (0, 0), None
#     Edge 89, Type (0, 0), None
#     Edge 90, Type (0, 0), None
#     Edge 91, Type (0, 0), None
#     Edge 92, Type (0, 0), None
#     Edge 93, Type (0, 0), None
#     Edge 94, Type (0, 0), None
#     Edge 95, Type (0, 0), None
#     Edge 96, Type (0, 0), None
#     Edge 97, Type (0, 0), None
#     Edge 98, Type (0, 0), None
#     Edge 99, Type (0, 0), None
#     Edge 100, Type (0, 0), None
#     Edge 101, Type (0, 0), None
#     Edge 102, Type (0, 0), None
#     Edge 103, Type (0, 0), None
#     Edge 104, Type (0, 0), None
#     Edge 105, Type (0, 0), None
#     Edge 106, Type (0, 0), None
#     Edge 107, Type (0, 0), None
#     Edge 108, Type (0, 0), None
#     Edge 109, Type (0, 0), None
#     Edge 110, Type (0, 0), None
#     Edge 111, Type (0, 0), None
#     Edge 112, Type (0, 0), None
#     Edge 113, Type (0, 0), None
#     Edge 114, Type (0, 0), None
#     Edge 115, Type (0, 0), None
#     Edge 116, Type (0, 0), None
#     Edge 117, Type (0, 0), None
#     Edge 118, Type (0, 0), None
#     Edge 119, Type (0, 0), None
#     Edge 120, Type (0, 0), None
#     Edge 121, Type (0, 0), None
#     Edge 122, Type (0, 0), None
#     Edge 123, Type (0, 0), None
#     Edge 124, Type (0, 0), None
#     Edge 125, Type (0, 0), None
# Relax obj value: 0.268
# Max RMSD: 0.170
# Mean RMSD: 0.170
data_MOF--net-wls--node1-XOMCOT_clean_sbu_1--edge1-none
_symmetry_space_group_name_H-M    P1
_symmetry_Int_Tables_number       1
_symmetry_cell_setting            triclinic
loop_
_symmetry_equiv_pos_as_xyz
'x, y, z'
_cell_length_a     42.9535
_cell_length_b     42.953439
_cell_length_c     14.806974
_cell_angle_alpha  90.203075
_cell_angle_beta   89.786512
_cell_angle_gamma 120.1896
loop_
_atom_site_label
_atom_site_type_symbol
_atom_site_fract_x
_atom_site_fract_y
_atom_site_fract_z
_atom_type_partial_charge
C0 C 0.26286 0.27869 1.03993 0.0
C1 C 0.28462 0.31319 1.07192 0.0
N2 N 0.29623 0.31098 0.15492 0.0
N3 N 0.26069 0.25565 1.10427 0.0
C4 C 0.28268 0.27619 0.17065 0.0
H5 H 0.24803 0.27094 0.97714 0.0
Co6 Co 0.23471 0.20732 0.11758 0.0
C7 C 0.21231 0.21422 0.31726 0.0
O8 O 0.17857 0.20343 0.29871 0.0
N9 N 0.20926 0.15689 0.13602 0.0
C10 C 0.17048 0.10292 0.19224 0.0
C11 C 0.17855 0.13795 0.18404 0.0
C12 C 0.21929 0.13243 0.11583 0.0
N13 N 0.19623 0.09924 0.14985 0.0
O14 O 0.28282 0.20974 1.11348 0.0
H15 H 0.16285 0.14875 0.21257 0.0
H16 H 0.24352 0.13921 1.07841 0.0
O17 O 0.2339 0.21382 0.256 0.0
C18 C 0.2988 0.21666 1.03509 0.0
O19 O 0.27948 0.2126 0.9628 0.0
N20 N 0.19075 0.20843 1.10521 0.0
C21 C 0.12602 0.20877 1.07844 0.0
C22 C 0.1542 0.23591 0.12912 0.0
C23 C 0.18652 0.23576 0.13963 0.0
C24 C 0.16515 0.18398 1.04843 0.0
C25 C 0.13253 0.18321 1.03551 0.0
H26 H 0.2076 0.25699 0.17941 0.0
H27 H 0.16974 0.16449 1.01345 0.0
H28 H 0.28771 0.26621 0.23223 0.0
H29 H 0.28976 0.33747 1.03853 0.0
H30 H 0.14778 0.0822 0.22913 0.0
H31 H 0.15153 0.25704 0.16146 0.0
H32 H 0.11287 0.16255 0.99186 0.0
C33 C 0.69732 0.97944 1.04324 0.0
C34 C 0.66331 0.96779 1.07716 0.0
N35 N 0.6666 0.98404 0.15756 0.0
N36 N 0.72123 0.00122 1.10537 0.0
C37 C 0.70167 0.00521 0.17068 0.0
H38 H 0.70413 0.97059 0.98161 0.0
Co39 Co 0.76974 0.02466 0.11715 0.0
C40 C 0.74575 0.98955 0.31187 0.0
O41 O 0.71618 0.96094 0.28557 0.0
N42 N 0.82008 0.05163 0.13621 0.0
C43 C 0.87251 0.07019 0.20506 0.0
C44 C 0.83748 0.04299 0.19819 0.0
C45 C 0.84537 0.08468 1.10683 0.0
N46 N 0.87777 0.09678 0.14798 0.0
O47 O 0.76599 0.06979 1.1137 0.0
H48 H 0.82527 0.01853 0.23775 0.0
H49 H 0.83964 0.09985 1.05827 0.0
O50 O 0.76513 0.01565 0.25589 0.0
C51 C 0.75999 0.07884 1.03432 0.0
O52 O 0.76488 0.0636 0.96285 0.0
N53 N 0.77129 0.98002 1.10319 0.0
C54 C 0.77611 0.91696 1.08831 0.0
C55 C 0.74468 0.91548 0.1193 0.0
C56 C 0.74258 0.9468 0.12406 0.0
C57 C 0.80086 0.98126 1.0642 0.0
C58 C 0.80427 0.9505 1.05867 0.0
H59 H 0.71682 0.94317 0.1417 0.0
H60 H 0.8224 0.00617 1.03713 0.0
H61 H 0.7128 0.02193 0.22994 0.0
H62 H 0.63846 0.9473 1.04812 0.0
H63 H 0.89204 0.07048 0.25133 0.0
H64 H 0.72118 0.89014 0.13728 0.0
H65 H 0.82887 0.95327 1.03109 0.0
C66 C 0.00727 0.72218 1.05626 0.0
C67 C 0.02292 0.70393 1.09371 0.0
N68 N 0.0038 0.68681 0.16788 0.0
N69 N 0.98003 0.7176 1.11084 0.0
C70 C 0.97746 0.69428 0.17455 0.0
H71 H 0.01805 0.74127 1.00123 0.0
Co72 Co 0.95598 0.74217 0.12922 0.0
C73 C 0.98547 0.76287 0.32956 0.0
O74 O 0.00719 0.79715 0.31329 0.0
N75 N 0.92963 0.76603 0.15203 0.0
C76 C 0.91339 0.8036 0.21078 0.0
C77 C 0.94017 0.79524 0.20525 0.0
C78 C 0.89596 0.75718 0.1259 0.0
N79 N 0.88529 0.77964 0.16107 0.0
O80 O 0.91047 0.69337 0.12343 0.0
H81 H 0.96594 0.81022 0.23762 0.0
H82 H 0.87961 0.73456 1.08222 0.0
O83 O 0.96371 0.74137 0.26766 0.0
C84 C 0.89972 0.6777 1.04511 0.0
O85 O 0.91431 0.69696 0.97215 0.0
N86 N 0.00047 0.78733 0.11971 0.0
C87 C 0.0648 0.85345 1.09713 0.0
C88 C 0.06442 0.82509 0.14447 0.0
C89 C 0.03233 0.7923 0.15366 0.0
C90 C 0.0009 0.81361 1.06737 0.0
C91 C 0.03235 0.84701 1.0572 0.0
H92 H 0.03304 0.77125 0.19172 0.0
H93 H 0.97658 0.80894 1.03391 0.0
H94 H 0.95886 0.68561 0.23072 0.0
H95 H 0.04823 0.70612 1.07402 0.0
H96 H 0.91464 0.82546 0.25006 0.0
H97 H 0.0886 0.82783 0.17431 0.0
H98 H 0.03079 0.86739 1.01826 0.0
C99 C 0.27634 0.27245 0.68034 0.0
C100 C 0.31017 0.29558 0.6462 0.0
N101 N 0.30638 0.30462 0.56144 0.0
N102 N 0.25218 0.26641 0.61508 0.0
C103 C 0.27124 0.28804 0.54639 0.0
H104 H 0.26987 0.25972 0.74599 0.0
Co105 Co 0.20362 0.24002 0.60673 0.0
C106 C 0.22445 0.22527 0.41172 0.0
O107 O 0.25313 0.22454 0.43748 0.0
N108 N 0.15304 0.21499 0.5914 0.0
C109 C 0.0999 0.17864 0.52752 0.0
C110 C 0.13517 0.18727 0.53318 0.0
C111 C 0.12782 0.22294 0.61961 0.0
N112 N 0.09509 0.20119 0.58139 0.0
O113 O 0.20641 0.28836 0.60521 0.0
H114 H 0.14729 0.17461 0.4948 0.0
H115 H 0.13377 0.24506 0.66484 0.0
O116 O 0.20642 0.23356 0.4682 0.0
C117 C 0.213 0.30465 0.68324 0.0
O118 O 0.2082 0.28547 0.75626 0.0
N119 N 0.2036 0.19486 0.62546 0.0
C120 C 0.2014 0.12859 0.65071 0.0
C121 C 0.23216 0.1586 0.61659 0.0
C122 C 0.23299 0.19132 0.60675 0.0
C123 C 0.17488 0.16682 0.66802 0.0
C124 C 0.17273 0.13339 0.67861 0.0
H125 H 0.25829 0.21379 0.5864 0.0
H126 H 0.15309 0.16986 0.6944 0.0
H127 H 0.25985 0.29118 0.48469 0.0
H128 H 0.3353 0.30361 0.67961 0.0
H129 H 0.07992 0.15841 0.48335 0.0
H130 H 0.25602 0.15737 0.59953 0.0
H131 H 0.14864 0.11172 0.70871 0.0
C132 C 0.71753 0.01225 0.67727 0.0
C133 C 0.69949 0.02814 0.64 0.0
N134 N 0.68226 0.00911 0.56583 0.0
N135 N 0.71263 0.98487 0.62277 0.0
C136 C 0.68948 0.9826 0.55893 0.0
H137 H 0.73656 0.02281 0.73243 0.0
Co138 Co 0.73675 0.96032 0.60519 0.0
C139 C 0.75819 0.98913 0.405 0.0
O140 O 0.79269 0.00958 0.42114 0.0
N141 N 0.7602 0.9334 0.58303 0.0
C142 C 0.79851 0.91756 0.5276 0.0
C143 C 0.79077 0.9447 0.53494 0.0
C144 C 0.74975 0.89873 0.60365 0.0
N145 N 0.77264 0.88823 0.57028 0.0
O146 O 0.68777 0.9152 0.61069 0.0
H147 H 0.80723 0.97129 0.50768 0.0
H148 H 0.72556 0.88151 0.64152 0.0
O149 O 0.73621 0.96795 0.46696 0.0
C150 C 0.67206 0.9046 0.68897 0.0
O151 O 0.69136 0.91902 0.76193 0.0
N152 N 0.78211 0.00469 0.61492 0.0
C153 C 0.84828 0.06901 0.63823 0.0
C154 C 0.82038 0.06847 0.58826 0.0
C155 C 0.78754 0.03642 0.57885 0.0
C156 C 0.80782 0.0053 0.66988 0.0
C157 C 0.84125 0.03672 0.68051 0.0
H158 H 0.76675 0.03707 0.53943 0.0
H159 H 0.80269 0.9811 0.70484 0.0
H160 H 0.68063 0.96397 0.50283 0.0
H161 H 0.70173 0.05344 0.66005 0.0
H162 H 0.82184 0.91984 0.49346 0.0
H163 H 0.82349 0.0925 0.55657 0.0
H164 H 0.86116 0.03526 0.72169 0.0
C165 C 0.97502 0.70146 0.69189 0.0
C166 C 0.96327 0.66749 0.6576 0.0
N167 N 0.97936 0.67086 0.57692 0.0
N168 N -0.00328 0.72543 0.62973 0.0
C169 C 0.00056 0.70593 0.56399 0.0
H170 H 0.96626 0.70821 0.75377 0.0
Co171 Co 0.02004 0.7739 0.61817 0.0
C172 C 0.98517 0.7503 0.42296 0.0
O173 O 0.95616 0.72101 0.44889 0.0
N174 N 0.0468 0.82418 0.59919 0.0
C175 C 0.06511 0.87655 0.53033 0.0
C176 C 0.03803 0.84149 0.53723 0.0
C177 C 0.07978 0.84956 0.6286 0.0
N178 N 0.09171 0.8819 0.58743 0.0
O179 O 0.06515 0.77034 0.62155 0.0
H180 H 0.01358 0.82918 0.49767 0.0
H181 H 0.09501 0.84394 0.67722 0.0
O182 O 0.01118 0.76938 0.47941 0.0
C183 C 0.07407 0.76446 0.70118 0.0
O184 O 0.05872 0.76945 0.77227 0.0
N185 N 0.97544 0.77532 0.63241 0.0
C186 C 0.91256 0.78046 0.64624 0.0
C187 C 0.911 0.74889 0.61584 0.0
C188 C 0.94224 0.74665 0.61149 0.0
C189 C 0.9767 0.8048 0.67193 0.0
C190 C 0.94606 0.8084 0.6769 0.0
H191 H 0.9386 0.7209 0.5936 0.0
H192 H 0.00159 0.82619 0.6995 0.0
H193 H 0.01722 0.71709 0.50466 0.0
H194 H 0.94281 0.64261 0.68659 0.0
H195 H 0.06537 0.89604 0.4839 0.0
H196 H 0.88577 0.72547 0.59703 0.0
H197 H 0.94903 0.83302 0.70473 0.0
C198 C 0.70717 0.70329 0.18027 0.0
C199 C 0.68404 0.66945 0.14615 0.0
N200 N 0.675 0.67325 1.06138 0.0
N201 N 0.71321 0.72745 1.11501 0.0
C202 C 0.69159 0.7084 1.04632 0.0
H203 H 0.71988 0.70974 0.24593 0.0
Co204 Co 0.73961 0.77601 1.10665 0.0
C205 C 0.75438 0.75519 0.91165 0.0
O206 O 0.75509 0.7265 0.93741 0.0
N207 N 0.76464 0.82659 1.09132 0.0
C208 C 0.80099 0.87974 1.02743 0.0
C209 C 0.79237 0.84447 1.03311 0.0
C210 C 0.75668 0.8518 0.11951 0.0
N211 N 0.77841 0.88453 1.08124 0.0
O212 O 0.69127 0.77322 1.10512 0.0
H213 H 0.80505 0.83236 0.99474 0.0
H214 H 0.73456 0.84584 0.16475 0.0
O215 O 0.74609 0.77322 0.96812 0.0
C216 C 0.67497 0.76663 0.18316 0.0
O217 O 0.69415 0.77143 0.25618 0.0
N218 N 0.78476 0.77603 0.12539 0.0
C219 C 0.85103 0.77821 0.15068 0.0
C220 C 0.82102 0.74746 0.11654 0.0
C221 C 0.7883 0.74663 1.10668 0.0
C222 C 0.8128 0.80473 0.16796 0.0
C223 C 0.84623 0.80688 0.17857 0.0
H224 H 0.76583 0.72134 1.08632 0.0
H225 H 0.80975 0.82652 0.19433 0.0
H226 H 0.68846 0.71979 0.98462 0.0
H227 H 0.67599 0.64432 0.17957 0.0
H228 H 0.82123 0.89973 0.98327 0.0
H229 H 0.82225 0.7236 1.09947 0.0
H230 H 0.86789 0.83097 0.20867 0.0
C231 C 0.27815 0.00459 0.19185 0.0
C232 C 0.31212 0.01634 0.15755 0.0
N233 N 0.30875 0.00026 1.07687 0.0
N234 N 0.25419 0.98289 0.12971 0.0
C235 C 0.27368 0.97906 1.06396 0.0
H236 H 0.27139 0.01334 0.25374 0.0
Co237 Co 0.20571 0.95957 0.11818 0.0
C238 C 0.2293 -0.00556 0.92294 0.0
O239 O 0.2586 0.02345 0.94883 0.0
N240 N 0.15543 0.93281 1.09923 0.0
C241 C 0.10307 0.91452 1.03037 0.0
C242 C 0.13813 0.9416 1.03729 0.0
C243 C 0.13006 0.89983 0.1286 0.0
N244 N 0.09772 0.8879 1.08742 0.0
O245 O 0.20927 0.91446 0.12158 0.0
H246 H 0.15043 0.96607 0.99776 0.0
H247 H 0.13567 0.88458 0.17719 0.0
O248 O 0.21023 0.96843 0.97941 0.0
C249 C 0.21515 0.90555 0.20122 0.0
O250 O 0.21016 0.9209 0.27229 0.0
N251 N 0.20429 0.00417 0.1324 0.0
C252 C 0.19917 0.06706 0.14628 0.0
C253 C 0.23073 0.06862 0.11582 0.0
C254 C 0.23296 0.03737 1.11145 0.0
C255 C 0.17482 0.00292 0.17197 0.0
C256 C 0.17122 0.03355 0.17696 0.0
H257 H 0.25871 0.04101 1.09353 0.0
H258 H 0.15343 0.97803 0.19956 0.0
H259 H 0.26253 0.96241 1.00463 0.0
H260 H 0.337 0.0368 0.18653 0.0
H261 H 0.08358 0.91427 0.98397 0.0
H262 H 0.25415 0.09384 1.09699 0.0
H263 H 0.1466 0.03059 0.20481 0.0
C264 C 0.96741 0.2621 0.17728 0.0
C265 C 0.95151 0.28014 0.14003 0.0
N266 N 0.97053 0.29736 1.06584 0.0
N267 N -0.00523 0.26699 0.12274 0.0
C268 C -0.00296 0.29014 1.0589 0.0
H269 H 0.95685 0.24307 0.23247 0.0
Co270 Co 0.01933 0.24287 1.10513 0.0
C271 C -0.00949 0.22145 0.90497 0.0
O272 O 0.97003 0.18695 0.92114 0.0
N273 N 0.04626 0.21944 1.08295 0.0
C274 C 0.06212 0.18116 1.02744 0.0
C275 C 0.03498 0.1889 1.03476 0.0
C276 C 0.08091 0.22986 1.10367 0.0
N277 N 0.09143 0.20699 1.07027 0.0
O278 O 0.06445 0.29186 1.1106 0.0
H279 H 0.0084 0.17247 1.0074 0.0
H280 H 0.09811 0.25402 0.14167 0.0
O281 O 0.0117 0.24343 0.9669 0.0
C282 C 0.07504 0.30757 0.18888 0.0
O283 O 0.06061 0.28826 0.26185 0.0
N284 N 0.97496 0.19751 1.11488 0.0
C285 C 0.91064 0.13133 0.13815 0.0
C286 C 0.91118 0.15925 1.08829 0.0
C287 C 0.94323 0.1921 1.07889 0.0
C288 C 0.97435 0.17178 0.16974 0.0
C289 C 0.94293 0.13834 0.18034 0.0
H290 H 0.94257 0.21289 1.03952 0.0
H291 H -0.00145 0.17688 0.20464 0.0
H292 H 0.01566 0.29899 1.00276 0.0
H293 H 0.92621 0.27791 0.16012 0.0
H294 H 0.05986 0.15786 0.9932 0.0
H295 H 0.88715 0.15615 1.05666 0.0
H296 H 0.9444 0.11841 0.22144 0.0
C297 C 0.70094 0.7168 0.53988 0.0
C298 C 0.66644 0.69504 0.57189 0.0
N299 N 0.66865 0.68343 0.65489 0.0
N300 N 0.72398 0.71896 0.60421 0.0
C301 C 0.70343 0.69697 0.67062 0.0
H302 H 0.7087 0.73164 0.47708 0.0
Co303 Co 0.77231 0.74494 0.61748 0.0
C304 C 0.76544 0.76734 0.81718 0.0
O305 O 0.77627 0.80109 0.79863 0.0
N306 N 0.82274 0.7704 0.63589 0.0
C307 C 0.87672 0.80919 0.69201 0.0
C308 C 0.84169 0.80113 0.68377 0.0
C309 C 0.84719 0.76034 0.61581 0.0
N310 N 0.88038 0.7834 0.64979 0.0
O311 O 0.76989 0.69683 0.61339 0.0
H312 H 0.83091 0.81686 0.71219 0.0
H313 H 0.8404 0.73608 0.57851 0.0
O314 O 0.76582 0.74574 0.75592 0.0
C315 C 0.76296 0.68086 0.535 0.0
O316 O 0.76702 0.70017 0.4627 0.0
N317 N 0.77119 0.7889 0.60513 0.0
C318 C 0.77085 0.85362 0.5784 0.0
C319 C 0.74373 0.82545 0.62917 0.0
C320 C 0.74388 0.79314 0.63965 0.0
C321 C 0.79562 0.81449 0.54825 0.0
C322 C 0.79638 0.84711 0.53535 0.0
H323 H 0.72266 0.77205 0.67949 0.0
H324 H 0.81508 0.80989 0.5132 0.0
H325 H 0.71342 0.69194 0.73219 0.0
H326 H 0.64217 0.68991 0.53851 0.0
H327 H 0.89745 0.83192 0.72879 0.0
H328 H 0.72262 0.82813 0.66161 0.0
H329 H 0.81701 0.86676 0.4916 0.0
C330 C 0.25742 0.97233 0.55625 0.0
C331 C 0.27568 0.95669 0.5937 0.0
N332 N 0.2928 0.97582 0.66785 0.0
N333 N 0.26201 -0.00041 0.6108 0.0
C334 C 0.28533 0.00216 0.67449 0.0
H335 H 0.23834 0.96155 0.50124 0.0
Co336 Co 0.23743 0.02363 0.62918 0.0
C337 C 0.21674 -0.00587 0.82954 0.0
O338 O 0.18245 0.97242 0.81331 0.0
N339 N 0.21357 0.04998 0.652 0.0
C340 C 0.176 0.06621 0.71078 0.0
C341 C 0.18436 0.03943 0.70522 0.0
C342 C 0.22243 0.08366 0.62591 0.0
N343 N 0.19998 0.09432 0.6611 0.0
O344 O 0.28623 0.06915 0.62336 0.0
H345 H 0.16937 0.01365 0.73756 0.0
H346 H 0.24506 0.10002 0.58223 0.0
O347 O 0.23824 0.01589 0.76762 0.0
C348 C 0.3019 0.07989 0.54503 0.0
O349 O 0.28264 0.0653 0.47209 0.0
N350 N 0.19228 0.97914 0.6197 0.0
C351 C 0.12616 0.91481 0.59713 0.0
C352 C 0.15451 0.91519 0.64449 0.0
C353 C 0.1873 0.94728 0.65367 0.0
C354 C 0.16601 0.97872 0.56735 0.0
C355 C 0.13261 0.94727 0.55718 0.0
H356 H 0.20834 0.94656 0.69173 0.0
H357 H 0.17068 0.00304 0.53387 0.0
H358 H 0.294 0.02076 0.73065 0.0
H359 H 0.27349 0.93138 0.57405 0.0
H360 H 0.15414 0.06495 0.75005 0.0
H361 H 0.15176 0.89101 0.67434 0.0
H362 H 0.11224 0.94884 0.51824 0.0
C363 C 0.00019 0.28232 0.54319 0.0
C364 C 0.01183 0.31633 0.57711 0.0
N365 N -0.00442 0.31304 0.65751 0.0
N366 N 0.97841 0.25841 0.60534 0.0
C367 C 0.97442 0.27796 0.67065 0.0
H368 H 0.00904 0.27552 0.48155 0.0
Co369 Co 0.95497 0.2099 0.61715 0.0
C370 C -0.00992 0.23389 0.81183 0.0
O371 O 0.0187 0.26346 0.78549 0.0
N372 N 0.928 0.15956 0.63624 0.0
C373 C 0.90942 0.10713 0.70514 0.0
C374 C 0.93663 0.14215 0.69824 0.0
C375 C 0.89495 0.13428 0.60689 0.0
N376 N 0.88282 0.10189 0.64809 0.0
O377 O 0.90985 0.21365 0.61373 0.0
H378 H 0.96108 0.15435 0.73778 0.0
H379 H 0.87979 0.14002 0.55833 0.0
O380 O 0.96398 0.21451 0.75589 0.0
C381 C 0.90079 0.21965 0.53435 0.0
O382 O 0.91603 0.21476 0.46287 0.0
N383 N -0.00039 0.20834 0.60318 0.0
C384 C 0.06266 0.20352 0.58836 0.0
C385 C 0.06415 0.23495 0.61928 0.0
C386 C 0.03283 0.23706 0.624 0.0
C387 C -0.00163 0.17877 0.56425 0.0
C388 C 0.02913 0.17535 0.55875 0.0
H389 H 0.03647 0.26283 0.6416 0.0
H390 H 0.97346 0.15723 0.53721 0.0
H391 H 0.9577 0.26684 0.72991 0.0
H392 H 0.03233 0.34118 0.54806 0.0
H393 H 0.90912 0.08759 0.75141 0.0
H394 H 0.08949 0.25845 0.63724 0.0
H395 H 0.02636 0.15074 0.53125 0.0
C396 C 0.93442 0.61573 0.38829 0.0
C397 C 0.95803 0.64935 0.42286 0.0
N398 N 0.96675 0.6451 0.50759 0.0
N399 N 0.92789 0.59128 0.45317 0.0
C400 C 0.94962 0.60991 0.52207 0.0
H401 H 0.92187 0.60961 0.32244 0.0
Co402 Co 0.9012 0.54276 0.46088 0.0
C403 C 0.88642 0.5635 0.65593 0.0
O404 O 0.88622 0.5925 0.63052 0.0
N405 N 0.87589 0.49229 0.47546 0.0
C406 C 0.83961 0.43882 0.53781 0.0
C407 C 0.84834 0.47417 0.534 0.0
C408 C 0.88352 0.46719 0.44487 0.0
N409 N 0.8619 0.43428 0.48225 0.0
O410 O 0.94926 0.54508 0.46287 0.0
H411 H 0.83584 0.48613 0.57369 0.0
H412 H 0.90535 0.4734 0.39842 0.0
O413 O 0.89447 0.54534 0.59929 0.0
C414 C 0.96549 0.55149 0.38481 0.0
O415 O 0.94634 0.54689 0.31185 0.0
N416 N 0.85636 0.54303 0.44176 0.0
C417 C 0.78999 0.54054 0.4175 0.0
C418 C 0.81996 0.57137 0.45161 0.0
C419 C 0.85277 0.57235 0.46098 0.0
C420 C 0.82844 0.51442 0.39867 0.0
C421 C 0.79495 0.5121 0.3886 0.0
H422 H 0.87524 0.59761 0.48155 0.0
H423 H 0.8316 0.49278 0.37165 0.0
H424 H 0.9525 0.59819 0.5835 0.0
H425 H 0.96669 0.67466 0.3897 0.0
H426 H 0.81949 0.4186 0.58173 0.0
H427 H 0.81863 0.59511 0.46931 0.0
H428 H 0.77339 0.48802 0.35822 0.0
C429 C 0.36315 0.31272 0.37794 0.0
C430 C 0.32909 0.3009 0.41184 0.0
N431 N 0.33236 0.3169 0.4926 0.0
N432 N 0.38702 0.33443 0.44028 0.0
C433 C 0.3674 0.33815 0.50587 0.0
H434 H 0.37002 0.3041 0.31603 0.0
Co435 Co 0.43553 0.35787 0.45185 0.0
C436 C 0.41202 0.32334 0.6474 0.0
O437 O 0.38266 0.29432 0.62192 0.0
N438 N 0.4858 0.38473 0.47064 0.0
C439 C 0.53819 0.40327 0.53954 0.0
C440 C 0.50323 0.37599 0.53229 0.0
C441 C 0.511 0.41789 0.44179 0.0
N442 N 0.54336 0.42998 0.48302 0.0
O443 O 0.43194 0.40287 0.44846 0.0
H444 H 0.49105 0.35145 0.57155 0.0
H445 H 0.50522 0.43316 0.39367 0.0
O446 O 0.43109 0.34919 0.59058 0.0
C447 C 0.42623 0.41179 0.36871 0.0
O448 O 0.43138 0.39647 0.29781 0.0
N449 N 0.437 0.31333 0.43784 0.0
C450 C 0.44212 0.25044 0.42385 0.0
C451 C 0.41064 0.24892 0.45489 0.0
C452 C 0.40841 0.28016 0.45931 0.0
C453 C 0.46638 0.31456 0.39779 0.0
C454 C 0.46996 0.28392 0.39265 0.0
H455 H 0.3827 0.27654 0.47758 0.0
H456 H 0.48769 0.33943 0.36991 0.0
H457 H 0.37844 0.35482 0.56521 0.0
H458 H 0.30426 0.28056 0.38234 0.0
H459 H 0.55773 0.40355 0.58581 0.0
H460 H 0.38727 0.22375 0.47427 0.0
H461 H 0.49449 0.28688 0.36419 0.0
C462 C 0.67644 0.05806 0.38192 0.0
C463 C 0.69195 0.04002 0.42123 0.0
N464 N 0.67148 0.02187 0.49277 0.0
N465 N 0.64778 0.05215 0.43265 0.0
C466 C 0.64454 0.02852 0.49628 0.0
H467 H 0.68794 0.07769 0.3282 0.0
Co468 Co 0.62293 0.07601 0.44831 0.0
C469 C 0.64945 0.09718 0.65018 0.0
O470 O 0.66863 0.13191 0.63542 0.0
N471 N 0.59579 0.09943 0.46912 0.0
C472 C 0.58035 0.13847 0.52178 0.0
C473 C 0.60774 0.13121 0.51219 0.0
C474 C 0.56041 0.08776 0.45414 0.0
N475 N 0.55019 0.11105 0.48604 0.0
O476 O 0.57777 0.02683 0.44013 0.0
H477 H 0.63487 0.14869 0.53519 0.0
H478 H 0.54242 0.06232 0.422 0.0
O479 O 0.62945 0.07506 0.58694 0.0
C480 C 0.56781 0.01117 0.3615 0.0
O481 O 0.58301 0.03047 0.28897 0.0
N482 N 0.6673 0.12132 0.44033 0.0
C483 C 0.73156 0.1876 0.41775 0.0
C484 C 0.7305 0.16045 0.47224 0.0
C485 C 0.69853 0.12746 0.48094 0.0
C486 C 0.66856 0.1461 0.38092 0.0
C487 C 0.69994 0.17955 0.37026 0.0
H488 H 0.69884 0.10703 0.52267 0.0
H489 H 0.64482 0.1402 0.34255 0.0
H490 H 0.62474 0.01888 0.54982 0.0
H491 H 0.71764 0.04256 0.40404 0.0
H492 H 0.58298 0.16255 0.55241 0.0
H493 H 0.75401 0.16427 0.50815 0.0
H494 H 0.69894 0.19859 0.32475 0.0
C495 C 0.94098 0.60171 1.0276 0.0
C496 C 0.9755 0.62339 0.99568 0.0
N497 N 0.97337 0.63476 0.91233 0.0
N498 N 0.91799 0.59943 0.963 0.0
C499 C 0.93859 0.62118 0.89631 0.0
H500 H 0.93316 0.58708 1.0907 0.0
Co501 Co 0.86962 0.57333 0.95082 0.0
C502 C 0.87509 0.55116 0.75017 0.0
O503 O 0.86347 0.51719 0.76793 0.0
N504 N 0.81906 0.5476 0.9338 0.0
C505 C 0.76477 0.50826 0.88025 0.0
C506 C 0.79982 0.51636 0.88805 0.0
C507 C 0.79473 0.55791 0.95302 0.0
N508 N 0.76134 0.53452 0.92057 0.0
O509 O 0.87176 0.62133 0.95648 0.0
H510 H 0.81037 0.50024 0.86084 0.0
H511 H 0.80174 0.58258 0.98858 0.0
O512 O 0.87553 0.5729 0.81218 0.0
C513 C 0.87863 0.63717 1.03504 0.0
O514 O 0.87489 0.61784 1.10709 0.0
N515 N 0.87115 0.52954 0.96138 0.0
C516 C 0.87122 0.46449 0.98253 0.0
C517 C 0.89796 0.49278 0.93131 0.0
C518 C 0.89804 0.52532 0.9238 0.0
C519 C 0.84747 0.50396 1.01949 0.0
C520 C 0.84662 0.47118 1.02986 0.0
H521 H 0.91887 0.5465 0.88337 0.0
H522 H 0.82853 0.50862 1.05699 0.0
H523 H 0.92865 0.62605 0.8345 0.0
H524 H -0.00025 0.62867 1.02947 0.0
H525 H 0.74384 0.48508 0.84522 0.0
H526 H 0.91835 0.48987 0.89566 0.0
H527 H 0.82662 0.45146 1.07477 0.0
C528 C 0.38354 0.34627 1.01217 0.0
C529 C 0.36522 0.36161 0.97356 0.0
N530 N 0.34808 0.34202 0.89998 0.0
N531 N 0.37895 0.31869 0.95889 0.0
C532 C 0.35557 0.31567 0.89485 0.0
H533 H 0.4027 0.35745 1.06695 0.0
Co534 Co 0.40371 0.29481 0.94146 0.0
C535 C 0.42462 0.32385 0.74086 0.0
O536 O 0.45891 0.34554 0.75701 0.0
N537 N 0.42775 0.26869 0.91931 0.0
C538 C 0.46549 0.25264 0.86093 0.0
C539 C 0.45738 0.27955 0.86751 0.0
C540 C 0.4184 0.2347 0.94356 0.0
N541 N 0.44093 0.22412 0.90852 0.0
O542 O 0.35502 0.24914 0.9471 0.0
H543 H 0.47277 0.30561 0.83669 0.0
H544 H 0.39532 0.21805 0.98564 0.0
O545 O 0.40307 0.30232 0.80301 0.0
C546 C 0.33932 0.23824 1.02533 0.0
O547 O 0.35842 0.25294 1.09842 0.0
N548 N 0.44874 0.33938 0.95123 0.0
C549 C 0.515 0.40354 0.97384 0.0
C550 C 0.48689 0.40318 0.92525 0.0
C551 C 0.45399 0.37117 0.91613 0.0
C552 C 0.47467 0.33984 1.00502 0.0
C553 C 0.50814 0.37118 1.01526 0.0
H554 H 0.4331 0.37186 0.87729 0.0
H555 H 0.46971 0.31559 1.03938 0.0
H556 H 0.34694 0.29676 0.83935 0.0
H557 H 0.36739 0.38704 0.99199 0.0
H558 H 0.48761 0.25412 0.8224 0.0
H559 H 0.48992 0.42729 0.89428 0.0
H560 H 0.52823 0.36959 1.05536 0.0
C561 C 0.63556 0.03429 1.00793 0.0
C562 C 0.62253 0.00051 0.97051 0.0
N563 N 0.64077 0.00434 0.89314 0.0
N564 N 0.65992 0.05861 0.95007 0.0
C565 C 0.66398 0.03927 0.88431 0.0
H566 H 0.62546 0.04091 1.06765 0.0
Co567 Co 0.68423 0.10747 0.9394 0.0
C568 C 0.64978 0.08441 0.74309 0.0
O569 O 0.62114 0.05468 0.7682 0.0
N570 N 0.71165 0.15787 0.9216 0.0
C571 C 0.72998 0.21065 0.85489 0.0
C572 C 0.7026 0.17572 0.86203 0.0
C573 C 0.74519 0.18278 0.94901 0.0
N574 N 0.75719 0.21538 0.90904 0.0
O575 O 0.72921 0.10337 0.94243 0.0
H576 H 0.67772 0.16386 0.82422 0.0
H577 H 0.76079 0.17657 0.99495 0.0
O578 O 0.67553 0.1036 0.80011 0.0
C579 C 0.73917 0.09836 1.02168 0.0
O580 O 0.72426 0.10344 1.09353 0.0
N581 N 0.64006 0.10966 0.95398 0.0
C582 C 0.5776 0.11522 0.97295 0.0
C583 C 0.57581 0.08436 0.93671 0.0
C584 C 0.6068 0.08188 0.92976 0.0
C585 C 0.64164 0.13862 0.99746 0.0
C586 C 0.61117 0.14244 1.00523 0.0
H587 H 0.60272 0.05635 0.9088 0.0
H588 H 0.66665 0.1593 1.02636 0.0
H589 H 0.68199 0.05066 0.8273 0.0
H590 H 0.59976 0.97562 0.99411 0.0
H591 H 0.72977 0.23052 0.81079 0.0
H592 H 0.55046 0.06142 0.91639 0.0
H593 H 0.61418 0.16654 1.03671 0.0
C594 C 0.3779 0.03864 0.52753 0.0
C595 C 0.35623 0.00412 0.49563 0.0
N596 N 0.34486 0.00624 0.41228 0.0
N597 N 0.38018 0.06162 0.46292 0.0
C598 C 0.35843 0.04103 0.39625 0.0
H599 H 0.39253 0.04645 0.59062 0.0
Co600 Co 0.40628 0.11 0.45071 0.0
C601 C 0.42846 0.10452 0.25006 0.0
O602 O 0.46242 0.11614 0.26781 0.0
N603 N 0.432 0.16056 0.43366 0.0
C604 C 0.47135 0.21485 0.38006 0.0
C605 C 0.46325 0.1798 0.38787 0.0
C606 C 0.4217 0.18489 0.45289 0.0
N607 N 0.44509 0.21827 0.42039 0.0
O608 O 0.35828 0.10785 0.45638 0.0
H609 H 0.47937 0.16925 0.36065 0.0
H610 H 0.39704 0.17788 0.48848 0.0
O611 O 0.40672 0.10409 0.31208 0.0
C612 C 0.34244 0.10098 0.53494 0.0
O613 O 0.36176 0.10472 0.60698 0.0
N614 N 0.45008 0.10847 0.46127 0.0
C615 C 0.51512 0.1084 0.48249 0.0
C616 C 0.48684 0.08167 0.43127 0.0
C617 C 0.4543 0.08159 0.42373 0.0
C618 C 0.47564 0.13215 0.51938 0.0
C619 C 0.50842 0.13301 0.52977 0.0
H620 H 0.43312 0.06075 0.38331 0.0
H621 H 0.47097 0.15109 0.55685 0.0
H622 H 0.35357 0.05096 0.33444 0.0
H623 H 0.35094 0.97986 0.52943 0.0
H624 H 0.49453 0.23578 0.34503 0.0
H625 H 0.48976 0.06127 0.39564 0.0
H626 H 0.52813 0.15301 0.57468 0.0
C627 C 0.94532 0.34408 0.5079 0.0
C628 C 0.97911 0.35711 0.47047 0.0
N629 N 0.97527 0.33886 0.39312 0.0
N630 N 0.921 0.31972 0.45007 0.0
C631 C 0.94035 0.31565 0.38432 0.0
H632 H 0.9387 0.35418 0.56761 0.0
Co633 Co 0.87215 0.2954 0.43942 0.0
C634 C 0.89521 0.32985 0.24308 0.0
O635 O 0.92494 0.35849 0.26816 0.0
N636 N 0.82174 0.26798 0.42163 0.0
C637 C 0.76898 0.24966 0.35492 0.0
C638 C 0.8039 0.27704 0.36209 0.0
C639 C 0.79684 0.23443 0.44902 0.0
N640 N 0.76424 0.22243 0.40902 0.0
O641 O 0.87625 0.25042 0.44246 0.0
H642 H 0.81577 0.30193 0.3243 0.0
H643 H 0.80304 0.21882 0.49495 0.0
O644 O 0.87602 0.3041 0.30013 0.0
C645 C 0.88127 0.24046 0.52172 0.0
O646 O 0.87618 0.25537 0.59357 0.0
N647 N 0.86995 0.33957 0.45399 0.0
C648 C 0.86438 0.40202 0.47296 0.0
C649 C 0.89524 0.40381 0.43668 0.0
C650 C 0.89772 0.37283 0.42973 0.0
C651 C 0.84099 0.33798 0.49751 0.0
C652 C 0.83716 0.36844 0.50528 0.0
H653 H 0.92326 0.37691 0.40873 0.0
H654 H 0.82031 0.31297 0.52643 0.0
H655 H 0.92897 0.29764 0.32732 0.0
H656 H 0.00399 0.37988 0.49405 0.0
H657 H 0.74911 0.24988 0.31083 0.0
H658 H 0.91817 0.42917 0.41631 0.0
H659 H 0.81306 0.36543 0.53677 0.0
C660 C 0.63336 0.5961 0.51218 0.0
C661 C 0.61801 0.61443 0.47357 0.0
N662 N 0.6376 0.63157 0.39996 0.0
N663 N 0.66094 0.6007 0.45888 0.0
C664 C 0.66395 0.62408 0.39482 0.0
H665 H 0.62218 0.57695 0.56697 0.0
Co666 Co 0.68483 0.57595 0.44145 0.0
C667 C 0.65578 0.55504 0.24086 0.0
O668 O 0.6341 0.52075 0.25705 0.0
N669 N 0.71095 0.55191 0.4193 0.0
C670 C 0.72701 0.51418 0.36093 0.0
C671 C 0.7001 0.52229 0.36748 0.0
C672 C 0.74493 0.56126 0.44357 0.0
N673 N 0.75552 0.53873 0.40853 0.0
O674 O 0.73049 0.62463 0.44705 0.0
H675 H 0.67405 0.5069 0.33665 0.0
H676 H 0.76158 0.58432 0.48568 0.0
O677 O 0.67731 0.57658 0.30299 0.0
C678 C 0.74139 0.64034 0.52527 0.0
O679 O 0.72669 0.62123 0.59837 0.0
N680 N 0.64026 0.53091 0.45125 0.0
C681 C 0.5761 0.46463 0.4738 0.0
C682 C 0.57646 0.49276 0.42526 0.0
C683 C 0.60847 0.52566 0.41616 0.0
C684 C 0.63979 0.50497 0.505 0.0
C685 C 0.60845 0.47149 0.51521 0.0
H686 H 0.60777 0.54656 0.37733 0.0
H687 H 0.66405 0.50993 0.53935 0.0
H688 H 0.68286 0.63271 0.33931 0.0
H689 H 0.59259 0.61225 0.49201 0.0
H690 H 0.72554 0.49206 0.3224 0.0
H691 H 0.55235 0.48973 0.39429 0.0
H692 H 0.61005 0.45139 0.55528 0.0
C693 C 0.3639 0.04521 0.88822 0.0
C694 C 0.33028 0.0216 0.9228 0.0
N695 N 0.33452 0.01287 1.00753 0.0
N696 N 0.38834 0.05173 0.95309 0.0
C697 C 0.36971 0.03 1.022 0.0
H698 H 0.37002 0.05777 0.82237 0.0
Co699 Co 0.43686 0.07842 0.96079 0.0
C700 C 0.41611 0.09319 0.15584 0.0
O701 O 0.38712 0.09339 0.13045 0.0
N702 N 0.48733 0.10372 0.97537 0.0
C703 C 0.54079 0.13999 1.03774 0.0
C704 C 0.50545 0.13128 1.03388 0.0
C705 C 0.51243 0.09607 0.94485 0.0
N706 N 0.54533 0.11768 0.98228 0.0
O707 O 0.43454 0.03035 0.96279 0.0
H708 H 0.49349 0.14379 1.07351 0.0
H709 H 0.50622 0.07424 0.89844 0.0
O710 O 0.43427 0.08514 1.0992 0.0
C711 C 0.42813 0.01412 0.88474 0.0
O712 O 0.43274 0.03328 0.81178 0.0
N713 N 0.4366 0.12326 0.94165 0.0
C714 C 0.43911 0.18965 0.91743 0.0
C715 C 0.40827 0.15967 0.95155 0.0
C716 C 0.40729 0.12686 0.9609 0.0
C717 C 0.46522 0.15118 0.89855 0.0
C718 C 0.46755 0.18467 0.8885 0.0
H719 H 0.38202 0.10438 0.98147 0.0
H720 H 0.48685 0.14802 0.87153 0.0
H721 H 0.38142 0.02712 1.08343 0.0
H722 H 0.30497 0.01294 0.88965 0.0
H723 H 0.56101 0.16012 1.08163 0.0
H724 H 0.38454 0.161 0.96927 0.0
H725 H 0.49163 0.20625 0.85813 0.0
C726 C 0.92157 0.30317 0.88195 0.0
C727 C 0.93961 0.28767 0.92126 0.0
N728 N 0.95776 0.30813 0.99279 0.0
N729 N 0.92748 0.33184 0.93265 0.0
C730 C 0.9511 0.33508 0.99628 0.0
H731 H 0.90194 0.29167 0.82823 0.0
Co732 Co 0.90362 0.35669 0.94828 0.0
C733 C 0.88244 0.33017 0.15018 0.0
O734 O 0.84771 0.31099 0.13544 0.0
N735 N 0.88019 0.38382 0.96909 0.0
C736 C 0.84114 0.39924 1.02174 0.0
C737 C 0.8484 0.37186 1.01214 0.0
C738 C 0.89187 0.4192 0.95413 0.0
N739 N 0.86857 0.42942 0.98603 0.0
O740 O 0.9528 0.40185 0.94007 0.0
H741 H 0.83091 0.34473 1.03512 0.0
H742 H 0.91732 0.43721 0.92203 0.0
O743 O 0.90456 0.35016 1.08692 0.0
C744 C 0.96846 0.41181 0.86143 0.0
O745 O 0.94917 0.39661 0.78891 0.0
N746 N 0.85831 0.31232 0.94032 0.0
C747 C 0.79203 0.24806 0.91775 0.0
C748 C 0.81916 0.24912 0.97227 0.0
C749 C 0.85216 0.28108 0.98097 0.0
C750 C 0.83354 0.31106 0.88089 0.0
C751 C 0.80009 0.27968 0.87023 0.0
H752 H 0.87258 0.28077 1.02271 0.0
H753 H 0.83945 0.3348 0.8425 0.0
H754 H 0.96074 0.35488 1.0498 0.0
H755 H 0.93708 0.26198 0.90408 0.0
H756 H 0.81706 0.39661 1.05238 0.0
H757 H 0.81534 0.2256 1.00821 0.0
H758 H 0.78106 0.28068 0.82469 0.0
C759 C 0.66692 0.6165 0.87791 0.0
C760 C 0.67873 0.65055 0.91179 0.0
N761 N 0.66273 0.64728 0.99255 0.0
N762 N 0.6452 0.59263 0.94027 0.0
C763 C 0.64148 0.61225 1.00584 0.0
H764 H 0.67554 0.60962 0.81601 0.0
Co765 Co 0.62176 0.54411 0.95188 0.0
C766 C 0.65629 0.56763 0.1474 0.0
O767 O 0.68532 0.59699 0.12187 0.0
N768 N 0.5949 0.49384 0.97072 0.0
C769 C 0.57634 0.44145 1.03966 0.0
C770 C 0.60363 0.47641 1.03241 0.0
C771 C 0.56174 0.46865 0.94186 0.0
N772 N 0.54964 0.43629 0.98313 0.0
O773 O 0.57677 0.54771 0.9485 0.0
H774 H 0.62815 0.4886 1.07167 0.0
H775 H 0.54649 0.47443 0.89369 0.0
O776 O 0.63044 0.54856 1.09061 0.0
C777 C 0.56784 0.55342 0.86874 0.0
O778 O 0.58317 0.54827 0.79784 0.0
N779 N 0.6663 0.54264 0.93787 0.0
C780 C 0.72918 0.5375 0.92395 0.0
C781 C 0.73071 0.569 0.95492 0.0
C782 C 0.69948 0.57123 0.9593 0.0
C783 C 0.66507 0.51325 0.89789 0.0
C784 C 0.6957 0.50966 0.89279 0.0
H785 H 0.7031 0.59695 0.97751 0.0
H786 H 0.64019 0.49194 0.87004 0.0
H787 H 0.6248 0.6012 1.06519 0.0
H788 H 0.69907 0.67538 0.88228 0.0
H789 H 0.57606 0.42191 1.08595 0.0
H790 H 0.75588 0.59236 0.97426 0.0
H791 H 0.69274 0.48512 0.8644 0.0
C792 C 0.59728 0.94735 0.7074 0.0
C793 C 0.61938 0.98166 0.74013 0.0
N794 N 0.63034 0.97893 0.82349 0.0
N795 N 0.59443 0.92394 0.77148 0.0
C796 C 0.61626 0.94404 0.83861 0.0
H797 H 0.58286 0.94 0.644 0.0
Co798 Co 0.56796 0.87559 0.78271 0.0
C799 C 0.5458 0.88094 0.98351 0.0
O800 O 0.51193 0.86988 0.96594 0.0
N801 N 0.54191 0.82515 0.79877 0.0
C802 C 0.50272 0.77063 0.85122 0.0
C803 C 0.51087 0.80576 0.84526 0.0
C804 C 0.55201 0.80092 0.77715 0.0
N805 N 0.52878 0.76741 0.80898 0.0
O806 O 0.61569 0.87725 0.7774 0.0
H807 H 0.49496 0.81627 0.8741 0.0
H808 H 0.57648 0.80818 0.74043 0.0
O809 O 0.56733 0.8811 0.92131 0.0
C810 C 0.63154 0.88397 0.6989 0.0
O811 O 0.61233 0.8805 0.62682 0.0
N812 N 0.52446 0.87746 0.77196 0.0
C813 C 0.45925 0.87712 0.75225 0.0
C814 C 0.48759 0.904 0.80301 0.0
C815 C 0.52025 0.9043 0.80977 0.0
C816 C 0.49888 0.8538 0.71384 0.0
C817 C 0.46601 0.85274 0.70416 0.0
H818 H 0.54146 0.92512 0.85014 0.0
H819 H 0.50359 0.83496 0.676 0.0
H820 H 0.62088 0.93371 0.90007 0.0
H821 H 0.62532 0.00621 0.70684 0.0
H822 H 0.47965 0.74947 0.88607 0.0
H823 H 0.48457 0.92424 0.83917 0.0
H824 H 0.44622 0.83274 0.65937 0.0
C825 C 0.0292 0.63973 0.72903 0.0
C826 C -0.00466 0.62658 0.76614 0.0
N827 N -0.00097 0.64486 0.84334 0.0
N828 N 0.05341 0.66427 0.78676 0.0
C829 C 0.03391 0.66827 0.85224 0.0
H830 H 0.03595 0.62966 0.66947 0.0
Co831 Co 0.10232 0.68874 0.79722 0.0
C832 C 0.07938 0.65469 0.99392 0.0
O833 O 0.04936 0.62627 0.96945 0.0
N834 N 0.15275 0.71628 0.81462 0.0
C835 C 0.20566 0.73472 0.88068 0.0
C836 C 0.1708 0.7072 0.87345 0.0
C837 C 0.17746 0.75 0.78785 0.0
N838 N 0.21013 0.76209 0.82748 0.0
O839 O 0.0982 0.73361 0.79399 0.0
H840 H 0.1591 0.68221 0.91079 0.0
H841 H 0.17104 0.7657 0.7428 0.0
O842 O 0.09865 0.68024 0.9365 0.0
C843 C 0.09345 0.74358 0.7145 0.0
O844 O 0.0987 0.72862 0.64298 0.0
N845 N 0.10458 0.64466 0.78287 0.0
C846 C 0.1101 0.58223 0.76317 0.0
C847 C 0.07947 0.58049 0.80082 0.0
C848 C 0.077 0.61146 0.80815 0.0
C849 C 0.13332 0.64622 0.7383 0.0
C850 C 0.13713 0.61576 0.7301 0.0
H851 H 0.05157 0.6074 0.82994 0.0
H852 H 0.15382 0.6712 0.70882 0.0
H853 H 0.04519 0.6864 0.90906 0.0
H854 H 0.9705 0.60382 0.74228 0.0
H855 H 0.22569 0.73447 0.92408 0.0
H856 H 0.05666 0.55517 0.82186 0.0
H857 H 0.16105 0.61874 0.69763 0.0
C858 C 0.34387 0.39082 0.71378 0.0
C859 C 0.35877 0.37246 0.75443 0.0
N860 N 0.33774 0.35442 0.82534 0.0
N861 N 0.31507 0.38531 0.76332 0.0
C862 C 0.31105 0.36145 0.82714 0.0
H863 H 0.35599 0.41054 0.66045 0.0
Co864 Co 0.29097 0.4099 0.77901 0.0
C865 C 0.31807 0.43044 0.98131 0.0
O866 O 0.33891 0.46501 0.96683 0.0
N867 N 0.26474 0.43399 0.80001 0.0
C868 C 0.24934 0.47245 0.85692 0.0
C869 C 0.2764 0.46468 0.84799 0.0
C870 C 0.23005 0.42365 0.7806 0.0
N871 N 0.21985 0.4466 0.81491 0.0
O872 O 0.24522 0.36104 0.77113 0.0
H873 H 0.30306 0.48096 0.875 0.0
H874 H 0.2126 0.3995 0.74287 0.0
O875 O 0.29753 0.40891 0.91778 0.0
C876 C 0.23487 0.34523 0.69275 0.0
O877 O 0.2502 0.36419 0.61986 0.0
N878 N 0.33557 0.45486 0.77081 0.0
C879 C 0.39966 0.52129 0.74948 0.0
C880 C 0.39886 0.49376 0.80181 0.0
C881 C 0.36693 0.46071 0.81002 0.0
C882 C 0.3366 0.48007 0.7133 0.0
C883 C 0.36789 0.51359 0.70335 0.0
H884 H 0.36731 0.44009 0.85084 0.0
H885 H 0.31273 0.47448 0.67596 0.0
H886 H 0.29101 0.35212 0.88013 0.0
H887 H 0.38452 0.37484 0.73885 0.0
H888 H 0.25149 0.49532 0.89324 0.0
H889 H 0.4225 0.49735 0.83661 0.0
H890 H 0.36667 0.53299 0.6596 0.0
C891 C 0.61107 0.93952 0.34597 0.0
C892 C 0.64478 0.96294 0.31157 0.0
N893 N 0.64073 0.97164 0.22666 0.0
N894 N 0.58674 0.9331 0.2809 0.0
C895 C 0.60555 0.95472 0.21196 0.0
H896 H 0.60481 0.927 0.41189 0.0
Co897 Co 0.53819 0.90647 0.27354 0.0
C898 C 0.5583 0.89191 1.07776 0.0
O899 O 0.58709 0.8912 1.10254 0.0
N900 N 0.48771 0.8812 0.25935 0.0
C901 C 0.43422 0.84508 0.19691 0.0
C902 C 0.46958 0.85386 0.20024 0.0
C903 C 0.46259 0.88864 0.29076 0.0
N904 N 0.42966 0.86712 0.25335 0.0
O905 O 0.5405 0.95457 0.27303 0.0
H906 H 0.48154 0.84154 0.15987 0.0
H907 H 0.46879 0.91028 0.3378 0.0
O908 O 0.5405 0.90021 0.13493 0.0
C909 C 0.54675 0.97061 0.35134 0.0
O910 O 0.54226 0.95135 0.42403 0.0
N911 N 0.53849 0.86153 0.29109 0.0
C912 C 0.53541 0.79465 0.31008 0.0
C913 C 0.56648 0.8249 0.27781 0.0
C914 C 0.56776 0.85795 0.2712 0.0
C915 C 0.5098 0.83338 0.33332 0.0
C916 C 0.50719 0.79967 0.34076 0.0
H917 H 0.59312 0.88054 0.25152 0.0
H918 H 0.48827 0.83647 0.36133 0.0
H919 H 0.59397 0.95769 0.15043 0.0
H920 H 0.67001 0.97151 0.345 0.0
H921 H 0.41401 0.82511 0.15272 0.0
H922 H 0.59011 0.82355 0.25897 0.0
H923 H 0.483 0.77799 0.3704 0.0
C924 C 0.05306 0.68223 0.35273 0.0
C925 C 0.035 0.6975 0.31233 0.0
N926 N 0.01667 0.67653 0.24166 0.0
N927 N 0.04696 0.65316 0.30351 0.0
C928 C 0.02321 0.6495 0.23973 0.0
H929 H 0.07284 0.69413 0.40598 0.0
Co930 Co 0.07092 0.62841 0.2887 0.0
C931 C 0.09225 0.65432 1.08665 0.0
O932 O 0.12703 0.67307 1.10113 0.0
N933 N 0.09446 0.60143 0.26857 0.0
C934 C 0.13362 0.58598 0.21697 0.0
C935 C 0.12663 0.61352 0.22736 0.0
C936 C 0.0823 0.56585 0.28157 0.0
N937 N 0.10563 0.55563 0.25022 0.0
O938 O 0.02181 0.58314 0.29673 0.0
H939 H 0.14449 0.64079 0.20581 0.0
H940 H 0.05645 0.54769 0.31163 0.0
O941 O 0.07006 0.63471 0.15017 0.0
C942 C 0.00605 0.57295 0.37517 0.0
O943 O 0.02514 0.58814 0.44797 0.0
N944 N 0.11614 0.67284 0.29672 0.0
C945 C 0.18252 0.73697 0.31922 0.0
C946 C 0.15571 0.7358 0.26313 0.0
C947 C 0.12263 0.70391 0.25458 0.0
C948 C 0.14051 0.67427 0.35774 0.0
C949 C 0.17399 0.7056 0.36853 0.0
H950 H 0.10238 0.70415 0.21191 0.0
H951 H 0.13427 0.65067 0.39719 0.0
H952 H 0.01352 0.62937 0.18697 0.0
H953 H 0.03766 0.72335 0.32813 0.0
H954 H 0.15788 0.58859 0.18745 0.0
H955 H 0.15989 0.75915 0.22575 0.0
H956 H 0.19268 0.70475 0.41557 0.0
C957 C 0.30154 0.36643 0.33945 0.0
C958 C 0.28816 0.33267 0.30162 0.0
N959 N 0.30639 0.33648 0.22427 0.0
N960 N 0.32619 0.39071 0.28202 0.0
C961 C 0.33002 0.37132 0.21597 0.0
H962 H 0.2915 0.37312 0.39917 0.0
Co963 Co 0.35055 0.43962 0.27199 0.0
C964 C 0.31722 0.41729 1.07434 0.0
O965 O 0.28817 0.38766 1.09792 0.0
N966 N 0.37785 0.48999 0.25482 0.0
C967 C 0.39603 0.54272 0.18814 0.0
C968 C 0.36863 0.50784 0.1957 0.0
C969 C 0.41147 0.51484 0.28163 0.0
N970 N 0.4234 0.54741 0.24162 0.0
O971 O 0.39545 0.43573 0.27538 0.0
H972 H 0.34368 0.49597 0.15817 0.0
H973 H 0.42721 0.50862 0.32705 0.0
O974 O 0.34252 0.4361 0.1327 0.0
C975 C 0.40533 0.43109 0.35502 0.0
O976 O 0.39022 0.4363 0.42628 0.0
N977 N 0.30646 0.4417 0.28612 0.0
C978 C 0.24419 0.44763 0.30334 0.0
C979 C 0.24249 0.41691 0.26614 0.0
C980 C 0.27336 0.41423 0.26015 0.0
C981 C 0.3079 0.47025 0.3313 0.0
C982 C 0.27753 0.47426 0.33843 0.0
H983 H 0.26934 0.38882 0.23821 0.0
H984 H 0.33277 0.49053 0.36172 0.0
H985 H 0.34821 0.38265 0.15928 0.0
H986 H 0.26528 0.30783 0.32512 0.0
H987 H 0.39578 0.56255 0.14396 0.0
H988 H 0.21742 0.39432 0.24318 0.0
H989 H 0.28055 0.49804 0.37166 0.0
C990 C 0.04011 0.36854 0.84591 0.0
C991 C 0.01669 0.33484 0.81151 0.0
N992 N 0.00799 0.3389 0.72661 0.0
N993 N 0.04653 0.39288 0.78083 0.0
C994 C 0.02491 0.37408 0.7119 0.0
H995 H 0.05263 0.3748 0.91181 0.0
Co996 Co 0.07316 0.44143 0.77345 0.0
C997 C 0.08774 0.42132 0.57767 0.0
O998 O 0.08843 0.39252 0.60248 0.0
N999 N 0.09843 0.49191 0.75922 0.0
C1000 C 0.13454 0.5454 0.69674 0.0
C1001 C 0.12577 0.51005 0.70011 0.0
C1002 C 0.09097 0.51702 0.7906 0.0
N1003 N 0.11247 0.54994 0.75313 0.0
O1004 O 0.02506 0.43912 0.77294 0.0
H1005 H 0.13811 0.4981 0.65977 0.0
H1006 H 0.06932 0.51081 0.83765 0.0
O1007 O 0.07944 0.43912 0.63483 0.0
C1008 C 0.00902 0.43286 0.85125 0.0
O1009 O 0.02827 0.43736 0.92393 0.0
N1010 N 0.1181 0.44113 0.791 0.0
C1011 C 0.18498 0.44421 0.81002 0.0
C1012 C 0.15474 0.41314 0.77775 0.0
C1013 C 0.12169 0.41186 0.77112 0.0
C1014 C 0.14625 0.46982 0.83322 0.0
C1015 C 0.17996 0.47244 0.84067 0.0
H1016 H 0.0991 0.3865 0.75145 0.0
H1017 H 0.14316 0.49135 0.86121 0.0
H1018 H 0.02195 0.38567 0.65038 0.0
H1019 H 0.00811 0.3096 0.84494 0.0
H1020 H 0.15452 0.56563 0.65257 0.0
H1021 H 0.15609 0.38951 0.75892 0.0
H1022 H 0.20163 0.49662 0.8703 0.0
C1023 C 0.61318 0.6781 0.83944 0.0
C1024 C 0.64694 0.69148 0.8016 0.0
N1025 N 0.64314 0.67326 0.72425 0.0
N1026 N 0.5889 0.65344 0.78201 0.0
C1027 C 0.6083 0.64962 0.71596 0.0
H1028 H 0.60649 0.68814 0.89916 0.0
Co1029 Co 0.54 0.62908 0.772 0.0
C1030 C 0.56232 0.66242 0.57433 0.0
O1031 O 0.59196 0.69146 0.59788 0.0
N1032 N 0.48963 0.60178 0.75484 0.0
C1033 C 0.43691 0.5836 0.68815 0.0
C1034 C 0.47178 0.61101 0.69574 0.0
C1035 C 0.46478 0.56814 0.78162 0.0
N1036 N 0.43222 0.55622 0.74158 0.0
O1037 O 0.54389 0.58419 0.77541 0.0
H1038 H 0.48365 0.63597 0.65823 0.0
H1039 H 0.47101 0.5524 0.82703 0.0
O1040 O 0.54352 0.63712 0.63271 0.0
C1041 C 0.54854 0.57431 0.85505 0.0
O1042 O 0.54332 0.58941 0.92631 0.0
N1043 N 0.53791 0.67317 0.78612 0.0
C1044 C 0.53198 0.73543 0.80337 0.0
C1045 C 0.5627 0.73714 0.76613 0.0
C1046 C 0.56538 0.70627 0.76013 0.0
C1047 C 0.50936 0.67172 0.83132 0.0
C1048 C 0.50535 0.70208 0.83847 0.0
H1049 H 0.59079 0.7103 0.73816 0.0
H1050 H 0.48908 0.64685 0.86176 0.0
H1051 H 0.59698 0.63144 0.65928 0.0
H1052 H 0.67178 0.71436 0.82508 0.0
H1053 H 0.41708 0.58386 0.64399 0.0
H1054 H 0.58529 0.76221 0.74316 0.0
H1055 H 0.48156 0.69906 0.87171 0.0
C1056 C 0.29738 0.92657 0.85274 0.0
C1057 C 0.28211 0.94462 0.81234 0.0
N1058 N 0.30309 0.96295 0.74164 0.0
N1059 N 0.32645 0.93267 0.8035 0.0
C1060 C 0.33011 0.95641 0.7397 0.0
H1061 H 0.28549 0.90678 0.90601 0.0
Co1062 Co 0.3512 0.9087 0.7887 0.0
C1063 C 0.3253 0.88737 0.58666 0.0
O1064 O 0.30654 0.85259 0.60117 0.0
N1065 N 0.37818 0.88516 0.76858 0.0
C1066 C 0.39363 0.846 0.71701 0.0
C1067 C 0.3661 0.85299 0.72737 0.0
C1068 C 0.41376 0.89732 0.78162 0.0
N1069 N 0.42398 0.87398 0.75029 0.0
O1070 O 0.39647 0.95781 0.79669 0.0
H1071 H 0.33883 0.83514 0.70581 0.0
H1072 H 0.43192 0.92316 0.81168 0.0
O1073 O 0.34491 0.90956 0.65017 0.0
C1074 C 0.40666 0.97357 0.87513 0.0
O1075 O 0.39147 0.95447 0.94794 0.0
N1076 N 0.30677 0.86349 0.79674 0.0
C1077 C 0.24264 0.79709 0.8192 0.0
C1078 C 0.24381 0.82391 0.76314 0.0
C1079 C 0.2757 0.85701 0.75461 0.0
C1080 C 0.30533 0.8391 0.85775 0.0
C1081 C 0.27401 0.80562 0.86851 0.0
H1082 H 0.27547 0.87725 0.71196 0.0
H1083 H 0.32892 0.84533 0.8972 0.0
H1084 H 0.35024 0.9661 0.68692 0.0
H1085 H 0.25626 0.94197 0.82815 0.0
H1086 H 0.39102 0.82175 0.6875 0.0
H1087 H 0.22047 0.81974 0.72575 0.0
H1088 H 0.27485 0.78692 0.91553 0.0
C1089 C 0.03228 0.38234 0.20735 0.0
C1090 C -0.00203 0.36026 0.2401 0.0
N1091 N 0.00069 0.34929 0.32346 0.0
N1092 N 0.05569 0.38519 0.27142 0.0
C1093 C 0.03558 0.36337 0.33857 0.0
H1094 H 0.03964 0.39676 0.14394 0.0
Co1095 Co 0.10403 0.41166 0.28261 0.0
C1096 C 0.09872 0.43382 0.48342 0.0
O1097 O 0.10981 0.46769 0.46583 0.0
N1098 N 0.15448 0.43771 0.29864 0.0
C1099 C 0.209 0.47692 0.35101 0.0
C1100 C 0.17387 0.46877 0.345 0.0
C1101 C 0.1787 0.42759 0.27713 0.0
N1102 N 0.21221 0.45082 0.30894 0.0
O1103 O 0.10238 0.36392 0.2773 0.0
H1104 H 0.16337 0.48471 0.37373 0.0
H1105 H 0.17144 0.4031 0.24054 0.0
O1106 O 0.09852 0.41228 0.42122 0.0
C1107 C 0.09566 0.34808 0.19881 0.0
O1108 O 0.09913 0.3673 0.12672 0.0
N1109 N 0.10216 0.45516 0.27187 0.0
C1110 C 0.10249 0.52036 0.25217 0.0
C1111 C 0.07562 0.49202 0.303 0.0
C1112 C 0.07533 0.45937 0.30975 0.0
C1113 C 0.1258 0.48073 0.21368 0.0
C1114 C 0.12685 0.5136 0.204 0.0
H1115 H 0.05452 0.43816 0.35017 0.0
H1116 H 0.14463 0.47602 0.17579 0.0
H1117 H 0.04591 0.35874 0.40003 0.0
H1118 H 0.97342 0.35433 0.20682 0.0
H1119 H 0.23016 0.50001 0.38575 0.0
H1120 H 0.0554 0.49504 0.33922 0.0
H1121 H 0.14684 0.53338 0.15916 0.0
C1122 C 0.58879 0.63576 0.21379 0.0
C1123 C 0.60716 0.62086 0.25445 0.0
N1124 N 0.6252 0.6419 0.32533 0.0
N1125 N 0.59431 0.66456 0.26329 0.0
C1126 C 0.61817 0.66859 0.32709 0.0
H1127 H 0.56907 0.62363 0.16048 0.0
Co1128 Co 0.56972 0.68866 0.27898 0.0
C1129 C 0.54918 0.66156 0.48131 0.0
O1130 O 0.51461 0.64072 0.46686 0.0
N1131 N 0.54562 0.71489 0.29999 0.0
C1132 C 0.50716 0.73028 0.35694 0.0
C1133 C 0.51493 0.70322 0.34797 0.0
C1134 C 0.55597 0.74958 0.28062 0.0
N1135 N 0.53302 0.75978 0.31496 0.0
O1136 O 0.61857 0.73441 0.27107 0.0
H1137 H 0.49864 0.67655 0.37496 0.0
H1138 H 0.58013 0.76704 0.24289 0.0
O1139 O 0.5707 0.6821 0.41776 0.0
C1140 C 0.6344 0.74477 0.19268 0.0
O1141 O 0.61544 0.72943 0.1198 0.0
N1142 N 0.52475 0.64406 0.27082 0.0
C1143 C 0.45832 0.57997 0.2495 0.0
C1144 C 0.48585 0.58077 0.30184 0.0
C1145 C 0.5189 0.6127 0.31004 0.0
C1146 C 0.49955 0.64304 0.2133 0.0
C1147 C 0.46604 0.61175 0.20335 0.0
H1148 H 0.53952 0.61232 0.35086 0.0
H1149 H 0.50515 0.66691 0.17594 0.0
H1150 H 0.6275 0.68863 0.38006 0.0
H1151 H 0.60477 0.59511 0.23889 0.0
H1152 H 0.48429 0.72812 0.39326 0.0
H1153 H 0.48226 0.55712 0.33666 0.0
H1154 H 0.44664 0.61296 0.1596 0.0
C1155 C 0.33988 0.95042 0.229 0.0
C1156 C 0.35303 0.98428 0.2661 0.0
N1157 N 0.33475 0.98059 0.3433 0.0
N1158 N 0.31534 0.92621 0.28677 0.0
C1159 C 0.31134 0.94571 0.35223 0.0
H1160 H 0.34995 0.94367 0.16944 0.0
Co1161 Co 0.29087 0.8773 0.29726 0.0
C1162 C 0.32492 0.90024 0.49393 0.0
O1163 O 0.35335 0.93025 0.46942 0.0
N1164 N 0.26332 0.82687 0.31471 0.0
C1165 C 0.24487 0.77396 0.38081 0.0
C1166 C 0.27239 0.80882 0.37357 0.0
C1167 C 0.22961 0.80216 0.2879 0.0
N1168 N 0.21751 0.76949 0.32757 0.0
O1169 O 0.246 0.88143 0.29403 0.0
H1170 H 0.29737 0.82052 0.41093 0.0
H1171 H 0.21393 0.80858 0.2428 0.0
O1172 O 0.29936 0.88097 0.43654 0.0
C1173 C 0.23604 0.88617 0.21454 0.0
O1174 O 0.25099 0.88092 0.14302 0.0
N1175 N 0.33495 0.87504 0.28292 0.0
C1176 C 0.39738 0.8695 0.2633 0.0
C1177 C 0.39913 0.90015 0.30086 0.0
C1178 C 0.36815 0.90262 0.30815 0.0
C1179 C 0.33339 0.84629 0.23843 0.0
C1180 C 0.36385 0.84247 0.23028 0.0
H1181 H 0.37221 0.92806 0.32988 0.0
H1182 H 0.30842 0.82578 0.20898 0.0
H1183 H 0.29322 0.93443 0.40907 0.0
H1184 H 0.37579 0.00912 0.24221 0.0
H1185 H 0.2451 0.75393 0.42423 0.0
H1186 H 0.42445 0.92296 0.32187 0.0
H1187 H 0.36087 0.81854 0.19789 0.0
loop_
_geom_bond_atom_site_label_1
_geom_bond_atom_site_label_2
_geom_bond_distance
_geom_bond_site_symmetry_2
_ccdc_geom_bond_type
C0 C1 1.351 . S
C0 N3 1.368 . S
C0 H5 0.931 1_554 S
C1 C0 1.351 . S
C1 N2 1.373 . S
C1 H29 0.930 1_554 S
N2 C1 1.373 . S
N2 C4 1.340 . S
N3 C0 1.368 . S
N3 C4 1.321 . S
N3 Co6 2.135 . S
C4 N2 1.340 . S
C4 N3 1.321 . S
C4 H28 0.930 . S
H5 C0 0.931 1_556 S
Co6 N3 2.135 . S
Co6 N9 2.121 . S
Co6 O14 2.055 . S
Co6 O17 2.039 . S
Co6 N20 2.140 . S
C7 O8 1.227 . S
C7 O17 1.265 . S
O8 C7 1.227 . S
N9 Co6 2.121 . S
N9 C11 1.375 . S
N9 C12 1.313 . S
C10 C11 1.338 . S
C10 N13 1.377 . S
C10 H30 0.930 . S
C11 N9 1.375 . S
C11 C10 1.338 . S
C11 H15 0.931 . S
C12 N9 1.313 . S
C12 N13 1.344 . S
C12 H16 0.930 1_554 S
N13 C10 1.377 . S
N13 C12 1.344 . S
O14 Co6 2.055 . S
O14 C18 1.253 1_554 S
H15 C11 0.931 . S
H16 C12 0.930 1_556 S
O17 Co6 2.039 . S
O17 C7 1.265 . S
C18 O14 1.253 1_556 S
C18 O19 1.227 . S
O19 C18 1.227 . S
N20 Co6 2.140 . S
N20 C23 1.346 . S
N20 C24 1.345 1_554 S
C21 C22 1.387 1_556 S
C21 C25 1.391 . S
C22 C21 1.387 1_554 S
C22 C23 1.369 . S
C22 H31 0.929 . S
C23 N20 1.346 . S
C23 C22 1.369 . S
C23 H26 0.928 . S
C24 N20 1.345 1_556 S
C24 C25 1.371 . S
C24 H27 0.931 . S
C25 C21 1.391 . S
C25 C24 1.371 . S
C25 H32 0.930 . S
H26 C23 0.928 . S
H27 C24 0.931 . S
H28 C4 0.930 . S
H29 C1 0.930 1_556 S
H30 C10 0.930 . S
H31 C22 0.929 . S
H32 C25 0.930 . S
C33 C34 1.351 . S
C33 N36 1.368 . S
C33 H38 0.931 1_554 S
C34 C33 1.351 . S
C34 N35 1.373 . S
C34 H62 0.930 1_554 S
N35 C34 1.373 . S
N35 C37 1.340 . S
N36 C33 1.368 . S
N36 C37 1.321 . S
N36 Co39 2.135 1_565 S
C37 N35 1.340 . S
C37 N36 1.321 . S
C37 H61 0.930 . S
H38 C33 0.931 1_556 S
Co39 N36 2.135 1_545 S
Co39 N42 2.121 . S
Co39 O47 2.055 . S
Co39 O50 2.039 . S
Co39 N53 2.140 1_545 S
C40 O41 1.227 1_545 S
C40 O50 1.265 . S
O41 C40 1.227 1_565 S
N42 Co39 2.121 . S
N42 C44 1.375 . S
N42 C45 1.313 . S
C43 C44 1.338 . S
C43 N46 1.377 . S
C43 H63 0.930 . S
C44 N42 1.375 . S
C44 C43 1.338 . S
C44 H48 0.931 . S
C45 N42 1.313 . S
C45 N46 1.344 . S
C45 H49 0.930 1_554 S
N46 C43 1.377 . S
N46 C45 1.344 . S
O47 Co39 2.055 . S
O47 C51 1.253 1_554 S
H48 C44 0.931 . S
H49 C45 0.930 1_556 S
O50 Co39 2.039 . S
O50 C40 1.265 . S
C51 O47 1.253 1_556 S
C51 O52 1.227 . S
O52 C51 1.227 . S
N53 Co39 2.140 1_565 S
N53 C56 1.346 . S
N53 C57 1.345 1_554 S
C54 C55 1.387 1_556 S
C54 C58 1.391 . S
C55 C54 1.387 1_554 S
C55 C56 1.369 . S
C55 H64 0.929 . S
C56 N53 1.346 . S
C56 C55 1.369 . S
C56 H59 0.928 . S
C57 N53 1.345 1_556 S
C57 C58 1.371 . S
C57 H60 0.931 1_565 S
C58 C54 1.391 . S
C58 C57 1.371 . S
C58 H65 0.930 . S
H59 C56 0.928 . S
H60 C57 0.931 1_545 S
H61 C37 0.930 . S
H62 C34 0.930 1_556 S
H63 C43 0.930 . S
H64 C55 0.929 . S
H65 C58 0.930 . S
C66 C67 1.351 . S
C66 N69 1.368 . S
C66 H71 0.931 1_554 S
C67 C66 1.351 . S
C67 N68 1.373 . S
C67 H95 0.930 1_554 S
N68 C67 1.373 . S
N68 C70 1.340 . S
N69 C66 1.368 . S
N69 C70 1.321 . S
N69 Co72 2.135 1_455 S
C70 N68 1.340 . S
C70 N69 1.321 . S
C70 H94 0.930 . S
H71 C66 0.931 1_556 S
Co72 N69 2.135 1_655 S
Co72 N75 2.121 . S
Co72 O80 2.055 . S
Co72 O83 2.039 . S
Co72 N86 2.140 1_655 S
C73 O74 1.227 1_655 S
C73 O83 1.265 . S
O74 C73 1.227 1_455 S
N75 Co72 2.121 . S
N75 C77 1.375 . S
N75 C78 1.313 . S
C76 C77 1.338 . S
C76 N79 1.377 . S
C76 H96 0.930 . S
C77 N75 1.375 . S
C77 C76 1.338 . S
C77 H81 0.931 . S
C78 N75 1.313 . S
C78 N79 1.344 . S
C78 H82 0.930 1_554 S
N79 C76 1.377 . S
N79 C78 1.344 . S
O80 Co72 2.055 . S
O80 C84 1.253 1_554 S
H81 C77 0.931 . S
H82 C78 0.930 1_556 S
O83 Co72 2.039 . S
O83 C73 1.265 . S
C84 O80 1.253 1_556 S
C84 O85 1.227 . S
O85 C84 1.227 . S
N86 Co72 2.140 1_455 S
N86 C89 1.346 . S
N86 C90 1.345 1_554 S
C87 C88 1.387 1_556 S
C87 C91 1.391 . S
C88 C87 1.387 1_554 S
C88 C89 1.369 . S
C88 H97 0.929 . S
C89 N86 1.346 . S
C89 C88 1.369 . S
C89 H92 0.928 . S
C90 N86 1.345 1_556 S
C90 C91 1.371 . S
C90 H93 0.931 1_455 S
C91 C87 1.391 . S
C91 C90 1.371 . S
C91 H98 0.930 . S
H92 C89 0.928 . S
H93 C90 0.931 1_655 S
H94 C70 0.930 . S
H95 C67 0.930 1_556 S
H96 C76 0.930 . S
H97 C88 0.929 . S
H98 C91 0.930 . S
C99 C100 1.351 . S
C99 N102 1.368 . S
C99 H104 0.931 . S
C100 C99 1.351 . S
C100 N101 1.373 . S
C100 H128 0.930 . S
N101 C100 1.373 . S
N101 C103 1.340 . S
N102 C99 1.368 . S
N102 C103 1.321 . S
N102 Co105 2.135 . S
C103 N101 1.340 . S
C103 N102 1.321 . S
C103 H127 0.930 . S
H104 C99 0.931 . S
Co105 N102 2.135 . S
Co105 N108 2.121 . S
Co105 O113 2.055 . S
Co105 O116 2.039 . S
Co105 N119 2.140 . S
C106 O107 1.227 . S
C106 O116 1.265 . S
O107 C106 1.227 . S
N108 Co105 2.121 . S
N108 C110 1.375 . S
N108 C111 1.313 . S
C109 C110 1.338 . S
C109 N112 1.377 . S
C109 H129 0.930 . S
C110 N108 1.375 . S
C110 C109 1.338 . S
C110 H114 0.931 . S
C111 N108 1.313 . S
C111 N112 1.344 . S
C111 H115 0.930 . S
N112 C109 1.377 . S
N112 C111 1.344 . S
O113 Co105 2.055 . S
O113 C117 1.253 . S
H114 C110 0.931 . S
H115 C111 0.930 . S
O116 Co105 2.039 . S
O116 C106 1.265 . S
C117 O113 1.253 . S
C117 O118 1.227 . S
O118 C117 1.227 . S
N119 Co105 2.140 . S
N119 C122 1.346 . S
N119 C123 1.345 . S
C120 C121 1.387 . S
C120 C124 1.391 . S
C121 C120 1.387 . S
C121 C122 1.369 . S
C121 H130 0.929 . S
C122 N119 1.346 . S
C122 C121 1.369 . S
C122 H125 0.928 . S
C123 N119 1.345 . S
C123 C124 1.371 . S
C123 H126 0.931 . S
C124 C120 1.391 . S
C124 C123 1.371 . S
C124 H131 0.930 . S
H125 C122 0.928 . S
H126 C123 0.931 . S
H127 C103 0.930 . S
H128 C100 0.930 . S
H129 C109 0.930 . S
H130 C121 0.929 . S
H131 C124 0.930 . S
C132 C133 1.351 . S
C132 N135 1.368 . S
C132 H137 0.931 . S
C133 C132 1.351 . S
C133 N134 1.373 . S
C133 H161 0.930 . S
N134 C133 1.373 . S
N134 C136 1.340 . S
N135 C132 1.368 . S
N135 C136 1.321 . S
N135 Co138 2.135 1_545 S
C136 N134 1.340 . S
C136 N135 1.321 . S
C136 H160 0.930 . S
H137 C132 0.931 . S
Co138 N135 2.135 1_565 S
Co138 N141 2.121 . S
Co138 O146 2.055 . S
Co138 O149 2.039 . S
Co138 N152 2.140 1_565 S
C139 O140 1.227 1_565 S
C139 O149 1.265 . S
O140 C139 1.227 1_545 S
N141 Co138 2.121 . S
N141 C143 1.375 . S
N141 C144 1.313 . S
C142 C143 1.338 . S
C142 N145 1.377 . S
C142 H162 0.930 . S
C143 N141 1.375 . S
C143 C142 1.338 . S
C143 H147 0.931 . S
C144 N141 1.313 . S
C144 N145 1.344 . S
C144 H148 0.930 . S
N145 C142 1.377 . S
N145 C144 1.344 . S
O146 Co138 2.055 . S
O146 C150 1.253 . S
H147 C143 0.931 . S
H148 C144 0.930 . S
O149 Co138 2.039 . S
O149 C139 1.265 . S
C150 O146 1.253 . S
C150 O151 1.227 . S
O151 C150 1.227 . S
N152 Co138 2.140 1_545 S
N152 C155 1.346 . S
N152 C156 1.345 . S
C153 C154 1.387 . S
C153 C157 1.391 . S
C154 C153 1.387 . S
C154 C155 1.369 . S
C154 H163 0.929 . S
C155 N152 1.346 . S
C155 C154 1.369 . S
C155 H158 0.928 . S
C156 N152 1.345 . S
C156 C157 1.371 . S
C156 H159 0.931 1_545 S
C157 C153 1.391 . S
C157 C156 1.371 . S
C157 H164 0.930 . S
H158 C155 0.928 . S
H159 C156 0.931 1_565 S
H160 C136 0.930 . S
H161 C133 0.930 . S
H162 C142 0.930 . S
H163 C154 0.929 . S
H164 C157 0.930 . S
C165 C166 1.351 . S
C165 N168 1.368 . S
C165 H170 0.931 . S
C166 C165 1.351 . S
C166 N167 1.373 . S
C166 H194 0.930 . S
N167 C166 1.373 . S
N167 C169 1.340 . S
N168 C165 1.368 . S
N168 C169 1.321 . S
N168 Co171 2.135 1_655 S
C169 N167 1.340 . S
C169 N168 1.321 . S
C169 H193 0.930 . S
H170 C165 0.931 . S
Co171 N168 2.135 1_455 S
Co171 N174 2.121 . S
Co171 O179 2.055 . S
Co171 O182 2.039 . S
Co171 N185 2.140 1_455 S
C172 O173 1.227 1_455 S
C172 O182 1.265 . S
O173 C172 1.227 1_655 S
N174 Co171 2.121 . S
N174 C176 1.375 . S
N174 C177 1.313 . S
C175 C176 1.338 . S
C175 N178 1.377 . S
C175 H195 0.930 . S
C176 N174 1.375 . S
C176 C175 1.338 . S
C176 H180 0.931 . S
C177 N174 1.313 . S
C177 N178 1.344 . S
C177 H181 0.930 . S
N178 C175 1.377 . S
N178 C177 1.344 . S
O179 Co171 2.055 . S
O179 C183 1.253 . S
H180 C176 0.931 . S
H181 C177 0.930 . S
O182 Co171 2.039 . S
O182 C172 1.265 . S
C183 O179 1.253 . S
C183 O184 1.227 . S
O184 C183 1.227 . S
N185 Co171 2.140 1_655 S
N185 C188 1.346 . S
N185 C189 1.345 . S
C186 C187 1.387 . S
C186 C190 1.391 . S
C187 C186 1.387 . S
C187 C188 1.369 . S
C187 H196 0.929 . S
C188 N185 1.346 . S
C188 C187 1.369 . S
C188 H191 0.928 . S
C189 N185 1.345 . S
C189 C190 1.371 . S
C189 H192 0.931 1_655 S
C190 C186 1.391 . S
C190 C189 1.371 . S
C190 H197 0.930 . S
H191 C188 0.928 . S
H192 C189 0.931 1_455 S
H193 C169 0.930 . S
H194 C166 0.930 . S
H195 C175 0.930 . S
H196 C187 0.929 . S
H197 C190 0.930 . S
C198 C199 1.351 . S
C198 N201 1.368 . S
C198 H203 0.931 1_556 S
C199 C198 1.351 . S
C199 N200 1.373 . S
C199 H227 0.930 1_556 S
N200 C199 1.373 . S
N200 C202 1.340 . S
N201 C198 1.368 . S
N201 C202 1.321 . S
N201 Co204 2.135 . S
C202 N200 1.340 . S
C202 N201 1.321 . S
C202 H226 0.930 . S
H203 C198 0.931 1_554 S
Co204 N201 2.135 . S
Co204 N207 2.121 . S
Co204 O212 2.055 . S
Co204 O215 2.039 . S
Co204 N218 2.140 . S
C205 O206 1.227 . S
C205 O215 1.265 . S
O206 C205 1.227 . S
N207 Co204 2.121 . S
N207 C209 1.375 . S
N207 C210 1.313 . S
C208 C209 1.338 . S
C208 N211 1.377 . S
C208 H228 0.930 . S
C209 N207 1.375 . S
C209 C208 1.338 . S
C209 H213 0.931 . S
C210 N207 1.313 . S
C210 N211 1.344 . S
C210 H214 0.930 1_556 S
N211 C208 1.377 . S
N211 C210 1.344 . S
O212 Co204 2.055 . S
O212 C216 1.253 1_556 S
H213 C209 0.931 . S
H214 C210 0.930 1_554 S
O215 Co204 2.039 . S
O215 C205 1.265 . S
C216 O212 1.253 1_554 S
C216 O217 1.227 . S
O217 C216 1.227 . S
N218 Co204 2.140 . S
N218 C221 1.346 . S
N218 C222 1.345 1_556 S
C219 C220 1.387 1_554 S
C219 C223 1.391 . S
C220 C219 1.387 1_556 S
C220 C221 1.369 . S
C220 H229 0.929 . S
C221 N218 1.346 . S
C221 C220 1.369 . S
C221 H224 0.928 . S
C222 N218 1.345 1_554 S
C222 C223 1.371 . S
C222 H225 0.931 . S
C223 C219 1.391 . S
C223 C222 1.371 . S
C223 H230 0.930 . S
H224 C221 0.928 . S
H225 C222 0.931 . S
H226 C202 0.930 . S
H227 C199 0.930 1_554 S
H228 C208 0.930 . S
H229 C220 0.929 . S
H230 C223 0.930 . S
C231 C232 1.351 . S
C231 N234 1.368 . S
C231 H236 0.931 1_556 S
C232 C231 1.351 . S
C232 N233 1.373 . S
C232 H260 0.930 1_556 S
N233 C232 1.373 . S
N233 C235 1.340 . S
N234 C231 1.368 . S
N234 C235 1.321 . S
N234 Co237 2.135 1_545 S
C235 N233 1.340 . S
C235 N234 1.321 . S
C235 H259 0.930 . S
H236 C231 0.931 1_554 S
Co237 N234 2.135 1_565 S
Co237 N240 2.121 . S
Co237 O245 2.055 . S
Co237 O248 2.039 . S
Co237 N251 2.140 1_565 S
C238 O239 1.227 1_565 S
C238 O248 1.265 . S
O239 C238 1.227 1_545 S
N240 Co237 2.121 . S
N240 C242 1.375 . S
N240 C243 1.313 . S
C241 C242 1.338 . S
C241 N244 1.377 . S
C241 H261 0.930 . S
C242 N240 1.375 . S
C242 C241 1.338 . S
C242 H246 0.931 . S
C243 N240 1.313 . S
C243 N244 1.344 . S
C243 H247 0.930 1_556 S
N244 C241 1.377 . S
N244 C243 1.344 . S
O245 Co237 2.055 . S
O245 C249 1.253 1_556 S
H246 C242 0.931 . S
H247 C243 0.930 1_554 S
O248 Co237 2.039 . S
O248 C238 1.265 . S
C249 O245 1.253 1_554 S
C249 O250 1.227 . S
O250 C249 1.227 . S
N251 Co237 2.140 1_545 S
N251 C254 1.346 . S
N251 C255 1.345 1_556 S
C252 C253 1.387 1_554 S
C252 C256 1.391 . S
C253 C252 1.387 1_556 S
C253 C254 1.369 . S
C253 H262 0.929 . S
C254 N251 1.346 . S
C254 C253 1.369 . S
C254 H257 0.928 . S
C255 N251 1.345 1_554 S
C255 C256 1.371 . S
C255 H258 0.931 1_545 S
C256 C252 1.391 . S
C256 C255 1.371 . S
C256 H263 0.930 . S
H257 C254 0.928 . S
H258 C255 0.931 1_565 S
H259 C235 0.930 . S
H260 C232 0.930 1_554 S
H261 C241 0.930 . S
H262 C253 0.929 . S
H263 C256 0.930 . S
C264 C265 1.351 . S
C264 N267 1.368 . S
C264 H269 0.931 1_556 S
C265 C264 1.351 . S
C265 N266 1.373 . S
C265 H293 0.930 1_556 S
N266 C265 1.373 . S
N266 C268 1.340 . S
N267 C264 1.368 . S
N267 C268 1.321 . S
N267 Co270 2.135 1_655 S
C268 N266 1.340 . S
C268 N267 1.321 . S
C268 H292 0.930 . S
H269 C264 0.931 1_554 S
Co270 N267 2.135 1_455 S
Co270 N273 2.121 . S
Co270 O278 2.055 . S
Co270 O281 2.039 . S
Co270 N284 2.140 1_455 S
C271 O272 1.227 1_455 S
C271 O281 1.265 . S
O272 C271 1.227 1_655 S
N273 Co270 2.121 . S
N273 C275 1.375 . S
N273 C276 1.313 . S
C274 C275 1.338 . S
C274 N277 1.377 . S
C274 H294 0.930 . S
C275 N273 1.375 . S
C275 C274 1.338 . S
C275 H279 0.931 . S
C276 N273 1.313 . S
C276 N277 1.344 . S
C276 H280 0.930 1_556 S
N277 C274 1.377 . S
N277 C276 1.344 . S
O278 Co270 2.055 . S
O278 C282 1.253 1_556 S
H279 C275 0.931 . S
H280 C276 0.930 1_554 S
O281 Co270 2.039 . S
O281 C271 1.265 . S
C282 O278 1.253 1_554 S
C282 O283 1.227 . S
O283 C282 1.227 . S
N284 Co270 2.140 1_655 S
N284 C287 1.346 . S
N284 C288 1.345 1_556 S
C285 C286 1.387 1_554 S
C285 C289 1.391 . S
C286 C285 1.387 1_556 S
C286 C287 1.369 . S
C286 H295 0.929 . S
C287 N284 1.346 . S
C287 C286 1.369 . S
C287 H290 0.928 . S
C288 N284 1.345 1_554 S
C288 C289 1.371 . S
C288 H291 0.931 1_655 S
C289 C285 1.391 . S
C289 C288 1.371 . S
C289 H296 0.930 . S
H290 C287 0.928 . S
H291 C288 0.931 1_455 S
H292 C268 0.930 . S
H293 C265 0.930 1_554 S
H294 C274 0.930 . S
H295 C286 0.929 . S
H296 C289 0.930 . S
C297 C298 1.351 . S
C297 N300 1.368 . S
C297 H302 0.931 . S
C298 C297 1.351 . S
C298 N299 1.373 . S
C298 H326 0.930 . S
N299 C298 1.373 . S
N299 C301 1.340 . S
N300 C297 1.368 . S
N300 C301 1.321 . S
N300 Co303 2.135 . S
C301 N299 1.340 . S
C301 N300 1.321 . S
C301 H325 0.930 . S
H302 C297 0.931 . S
Co303 N300 2.135 . S
Co303 N306 2.121 . S
Co303 O311 2.055 . S
Co303 O314 2.039 . S
Co303 N317 2.140 . S
C304 O305 1.227 . S
C304 O314 1.265 . S
O305 C304 1.227 . S
N306 Co303 2.121 . S
N306 C308 1.375 . S
N306 C309 1.313 . S
C307 C308 1.338 . S
C307 N310 1.377 . S
C307 H327 0.930 . S
C308 N306 1.375 . S
C308 C307 1.338 . S
C308 H312 0.931 . S
C309 N306 1.313 . S
C309 N310 1.344 . S
C309 H313 0.930 . S
N310 C307 1.377 . S
N310 C309 1.344 . S
O311 Co303 2.055 . S
O311 C315 1.253 . S
H312 C308 0.931 . S
H313 C309 0.930 . S
O314 Co303 2.039 . S
O314 C304 1.265 . S
C315 O311 1.253 . S
C315 O316 1.227 . S
O316 C315 1.227 . S
N317 Co303 2.140 . S
N317 C320 1.346 . S
N317 C321 1.345 . S
C318 C319 1.387 . S
C318 C322 1.391 . S
C319 C318 1.387 . S
C319 C320 1.369 . S
C319 H328 0.929 . S
C320 N317 1.346 . S
C320 C319 1.369 . S
C320 H323 0.928 . S
C321 N317 1.345 . S
C321 C322 1.371 . S
C321 H324 0.931 . S
C322 C318 1.391 . S
C322 C321 1.371 . S
C322 H329 0.930 . S
H323 C320 0.928 . S
H324 C321 0.931 . S
H325 C301 0.930 . S
H326 C298 0.930 . S
H327 C307 0.930 . S
H328 C319 0.929 . S
H329 C322 0.930 . S
C330 C331 1.351 . S
C330 N333 1.368 . S
C330 H335 0.931 . S
C331 C330 1.351 . S
C331 N332 1.373 . S
C331 H359 0.930 . S
N332 C331 1.373 . S
N332 C334 1.340 . S
N333 C330 1.368 . S
N333 C334 1.321 . S
N333 Co336 2.135 1_565 S
C334 N332 1.340 . S
C334 N333 1.321 . S
C334 H358 0.930 . S
H335 C330 0.931 . S
Co336 N333 2.135 1_545 S
Co336 N339 2.121 . S
Co336 O344 2.055 . S
Co336 O347 2.039 . S
Co336 N350 2.140 1_545 S
C337 O338 1.227 1_545 S
C337 O347 1.265 . S
O338 C337 1.227 1_565 S
N339 Co336 2.121 . S
N339 C341 1.375 . S
N339 C342 1.313 . S
C340 C341 1.338 . S
C340 N343 1.377 . S
C340 H360 0.930 . S
C341 N339 1.375 . S
C341 C340 1.338 . S
C341 H345 0.931 . S
C342 N339 1.313 . S
C342 N343 1.344 . S
C342 H346 0.930 . S
N343 C340 1.377 . S
N343 C342 1.344 . S
O344 Co336 2.055 . S
O344 C348 1.253 . S
H345 C341 0.931 . S
H346 C342 0.930 . S
O347 Co336 2.039 . S
O347 C337 1.265 . S
C348 O344 1.253 . S
C348 O349 1.227 . S
O349 C348 1.227 . S
N350 Co336 2.140 1_565 S
N350 C353 1.346 . S
N350 C354 1.345 . S
C351 C352 1.387 . S
C351 C355 1.391 . S
C352 C351 1.387 . S
C352 C353 1.369 . S
C352 H361 0.929 . S
C353 N350 1.346 . S
C353 C352 1.369 . S
C353 H356 0.928 . S
C354 N350 1.345 . S
C354 C355 1.371 . S
C354 H357 0.931 1_565 S
C355 C351 1.391 . S
C355 C354 1.371 . S
C355 H362 0.930 . S
H356 C353 0.928 . S
H357 C354 0.931 1_545 S
H358 C334 0.930 . S
H359 C331 0.930 . S
H360 C340 0.930 . S
H361 C352 0.929 . S
H362 C355 0.930 . S
C363 C364 1.351 . S
C363 N366 1.368 . S
C363 H368 0.931 . S
C364 C363 1.351 . S
C364 N365 1.373 . S
C364 H392 0.930 . S
N365 C364 1.373 . S
N365 C367 1.340 . S
N366 C363 1.368 . S
N366 C367 1.321 . S
N366 Co369 2.135 1_455 S
C367 N365 1.340 . S
C367 N366 1.321 . S
C367 H391 0.930 . S
H368 C363 0.931 . S
Co369 N366 2.135 1_655 S
Co369 N372 2.121 . S
Co369 O377 2.055 . S
Co369 O380 2.039 . S
Co369 N383 2.140 1_655 S
C370 O371 1.227 1_655 S
C370 O380 1.265 . S
O371 C370 1.227 1_455 S
N372 Co369 2.121 . S
N372 C374 1.375 . S
N372 C375 1.313 . S
C373 C374 1.338 . S
C373 N376 1.377 . S
C373 H393 0.930 . S
C374 N372 1.375 . S
C374 C373 1.338 . S
C374 H378 0.931 . S
C375 N372 1.313 . S
C375 N376 1.344 . S
C375 H379 0.930 . S
N376 C373 1.377 . S
N376 C375 1.344 . S
O377 Co369 2.055 . S
O377 C381 1.253 . S
H378 C374 0.931 . S
H379 C375 0.930 . S
O380 Co369 2.039 . S
O380 C370 1.265 . S
C381 O377 1.253 . S
C381 O382 1.227 . S
O382 C381 1.227 . S
N383 Co369 2.140 1_455 S
N383 C386 1.346 . S
N383 C387 1.345 . S
C384 C385 1.387 . S
C384 C388 1.391 . S
C385 C384 1.387 . S
C385 C386 1.369 . S
C385 H394 0.929 . S
C386 N383 1.346 . S
C386 C385 1.369 . S
C386 H389 0.928 . S
C387 N383 1.345 . S
C387 C388 1.371 . S
C387 H390 0.931 1_455 S
C388 C384 1.391 . S
C388 C387 1.371 . S
C388 H395 0.930 . S
H389 C386 0.928 . S
H390 C387 0.931 1_655 S
H391 C367 0.930 . S
H392 C364 0.930 . S
H393 C373 0.930 . S
H394 C385 0.929 . S
H395 C388 0.930 . S
C396 C397 1.351 . S
C396 N399 1.368 . S
C396 H401 0.931 . S
C397 C396 1.351 . S
C397 N398 1.373 . S
C397 H425 0.930 . S
N398 C397 1.373 . S
N398 C400 1.340 . S
N399 C396 1.368 . S
N399 C400 1.321 . S
N399 Co402 2.135 . S
C400 N398 1.340 . S
C400 N399 1.321 . S
C400 H424 0.930 . S
H401 C396 0.931 . S
Co402 N399 2.135 . S
Co402 N405 2.121 . S
Co402 O410 2.055 . S
Co402 O413 2.039 . S
Co402 N416 2.140 . S
C403 O404 1.227 . S
C403 O413 1.265 . S
O404 C403 1.227 . S
N405 Co402 2.121 . S
N405 C407 1.375 . S
N405 C408 1.313 . S
C406 C407 1.338 . S
C406 N409 1.377 . S
C406 H426 0.930 . S
C407 N405 1.375 . S
C407 C406 1.338 . S
C407 H411 0.931 . S
C408 N405 1.313 . S
C408 N409 1.344 . S
C408 H412 0.930 . S
N409 C406 1.377 . S
N409 C408 1.344 . S
O410 Co402 2.055 . S
O410 C414 1.253 . S
H411 C407 0.931 . S
H412 C408 0.930 . S
O413 Co402 2.039 . S
O413 C403 1.265 . S
C414 O410 1.253 . S
C414 O415 1.227 . S
O415 C414 1.227 . S
N416 Co402 2.140 . S
N416 C419 1.346 . S
N416 C420 1.345 . S
C417 C418 1.387 . S
C417 C421 1.391 . S
C418 C417 1.387 . S
C418 C419 1.369 . S
C418 H427 0.929 . S
C419 N416 1.346 . S
C419 C418 1.369 . S
C419 H422 0.928 . S
C420 N416 1.345 . S
C420 C421 1.371 . S
C420 H423 0.931 . S
C421 C417 1.391 . S
C421 C420 1.371 . S
C421 H428 0.930 . S
H422 C419 0.928 . S
H423 C420 0.931 . S
H424 C400 0.930 . S
H425 C397 0.930 . S
H426 C406 0.930 . S
H427 C418 0.929 . S
H428 C421 0.930 . S
C429 C430 1.351 . S
C429 N432 1.368 . S
C429 H434 0.931 . S
C430 C429 1.351 . S
C430 N431 1.373 . S
C430 H458 0.930 . S
N431 C430 1.373 . S
N431 C433 1.340 . S
N432 C429 1.368 . S
N432 C433 1.321 . S
N432 Co435 2.135 . S
C433 N431 1.340 . S
C433 N432 1.321 . S
C433 H457 0.930 . S
H434 C429 0.931 . S
Co435 N432 2.135 . S
Co435 N438 2.121 . S
Co435 O443 2.055 . S
Co435 O446 2.039 . S
Co435 N449 2.140 . S
C436 O437 1.227 . S
C436 O446 1.265 . S
O437 C436 1.227 . S
N438 Co435 2.121 . S
N438 C440 1.375 . S
N438 C441 1.313 . S
C439 C440 1.338 . S
C439 N442 1.377 . S
C439 H459 0.930 . S
C440 N438 1.375 . S
C440 C439 1.338 . S
C440 H444 0.931 . S
C441 N438 1.313 . S
C441 N442 1.344 . S
C441 H445 0.930 . S
N442 C439 1.377 . S
N442 C441 1.344 . S
O443 Co435 2.055 . S
O443 C447 1.253 . S
H444 C440 0.931 . S
H445 C441 0.930 . S
O446 Co435 2.039 . S
O446 C436 1.265 . S
C447 O443 1.253 . S
C447 O448 1.227 . S
O448 C447 1.227 . S
N449 Co435 2.140 . S
N449 C452 1.346 . S
N449 C453 1.345 . S
C450 C451 1.387 . S
C450 C454 1.391 . S
C451 C450 1.387 . S
C451 C452 1.369 . S
C451 H460 0.929 . S
C452 N449 1.346 . S
C452 C451 1.369 . S
C452 H455 0.928 . S
C453 N449 1.345 . S
C453 C454 1.371 . S
C453 H456 0.931 . S
C454 C450 1.391 . S
C454 C453 1.371 . S
C454 H461 0.930 . S
H455 C452 0.928 . S
H456 C453 0.931 . S
H457 C433 0.930 . S
H458 C430 0.930 . S
H459 C439 0.930 . S
H460 C451 0.929 . S
H461 C454 0.930 . S
C462 C463 1.351 . S
C462 N465 1.368 . S
C462 H467 0.931 . S
C463 C462 1.351 . S
C463 N464 1.373 . S
C463 H491 0.930 . S
N464 C463 1.373 . S
N464 C466 1.340 . S
N465 C462 1.368 . S
N465 C466 1.321 . S
N465 Co468 2.135 . S
C466 N464 1.340 . S
C466 N465 1.321 . S
C466 H490 0.930 . S
H467 C462 0.931 . S
Co468 N465 2.135 . S
Co468 N471 2.121 . S
Co468 O476 2.055 . S
Co468 O479 2.039 . S
Co468 N482 2.140 . S
C469 O470 1.227 . S
C469 O479 1.265 . S
O470 C469 1.227 . S
N471 Co468 2.121 . S
N471 C473 1.375 . S
N471 C474 1.313 . S
C472 C473 1.338 . S
C472 N475 1.377 . S
C472 H492 0.930 . S
C473 N471 1.375 . S
C473 C472 1.338 . S
C473 H477 0.931 . S
C474 N471 1.313 . S
C474 N475 1.344 . S
C474 H478 0.930 . S
N475 C472 1.377 . S
N475 C474 1.344 . S
O476 Co468 2.055 . S
O476 C480 1.253 . S
H477 C473 0.931 . S
H478 C474 0.930 . S
O479 Co468 2.039 . S
O479 C469 1.265 . S
C480 O476 1.253 . S
C480 O481 1.227 . S
O481 C480 1.227 . S
N482 Co468 2.140 . S
N482 C485 1.346 . S
N482 C486 1.345 . S
C483 C484 1.387 . S
C483 C487 1.391 . S
C484 C483 1.387 . S
C484 C485 1.369 . S
C484 H493 0.929 . S
C485 N482 1.346 . S
C485 C484 1.369 . S
C485 H488 0.928 . S
C486 N482 1.345 . S
C486 C487 1.371 . S
C486 H489 0.931 . S
C487 C483 1.391 . S
C487 C486 1.371 . S
C487 H494 0.930 . S
H488 C485 0.928 . S
H489 C486 0.931 . S
H490 C466 0.930 . S
H491 C463 0.930 . S
H492 C472 0.930 . S
H493 C484 0.929 . S
H494 C487 0.930 . S
C495 C496 1.342 1_655 S
C495 N498 1.368 . S
C495 H500 0.931 . S
C496 C495 1.342 1_455 S
C496 N497 1.375 1_455 S
C496 H524 0.937 . S
N497 C496 1.375 1_655 S
N497 C499 1.349 . S
N498 C495 1.368 . S
N498 C499 1.321 . S
N498 Co501 2.135 . S
C499 N497 1.349 . S
C499 N498 1.321 . S
C499 H523 0.930 . S
H500 C495 0.931 . S
Co501 N498 2.135 . S
Co501 N504 2.121 . S
Co501 O509 2.055 . S
Co501 O512 2.039 . S
Co501 N515 2.140 . S
C502 O503 1.227 . S
C502 O512 1.265 . S
O503 C502 1.227 . S
N504 Co501 2.121 . S
N504 C506 1.375 . S
N504 C507 1.313 . S
C505 C506 1.338 . S
C505 N508 1.377 . S
C505 H525 0.930 . S
C506 N504 1.375 . S
C506 C505 1.338 . S
C506 H510 0.931 . S
C507 N504 1.313 . S
C507 N508 1.344 . S
C507 H511 0.930 . S
N508 C505 1.377 . S
N508 C507 1.344 . S
O509 Co501 2.055 . S
O509 C513 1.253 . S
H510 C506 0.931 . S
H511 C507 0.930 . S
O512 Co501 2.039 . S
O512 C502 1.265 . S
C513 O509 1.253 . S
C513 O514 1.227 . S
O514 C513 1.227 . S
N515 Co501 2.140 . S
N515 C518 1.346 . S
N515 C519 1.345 . S
C516 C517 1.387 . S
C516 C520 1.391 . S
C517 C516 1.387 . S
C517 C518 1.369 . S
C517 H526 0.929 . S
C518 N515 1.346 . S
C518 C517 1.369 . S
C518 H521 0.928 . S
C519 N515 1.345 . S
C519 C520 1.371 . S
C519 H522 0.931 . S
C520 C516 1.391 . S
C520 C519 1.371 . S
C520 H527 0.930 . S
H521 C518 0.928 . S
H522 C519 0.931 . S
H523 C499 0.930 . S
H524 C496 0.937 . S
H525 C505 0.930 . S
H526 C517 0.929 . S
H527 C520 0.930 . S
C528 C529 1.351 . S
C528 N531 1.368 . S
C528 H533 0.931 . S
C529 C528 1.351 . S
C529 N530 1.373 . S
C529 H557 0.930 . S
N530 C529 1.373 . S
N530 C532 1.340 . S
N531 C528 1.368 . S
N531 C532 1.321 . S
N531 Co534 2.135 . S
C532 N530 1.340 . S
C532 N531 1.321 . S
C532 H556 0.930 . S
H533 C528 0.931 . S
Co534 N531 2.135 . S
Co534 N537 2.121 . S
Co534 O542 2.055 . S
Co534 O545 2.039 . S
Co534 N548 2.140 . S
C535 O536 1.227 . S
C535 O545 1.265 . S
O536 C535 1.227 . S
N537 Co534 2.121 . S
N537 C539 1.375 . S
N537 C540 1.313 . S
C538 C539 1.338 . S
C538 N541 1.377 . S
C538 H558 0.930 . S
C539 N537 1.375 . S
C539 C538 1.338 . S
C539 H543 0.931 . S
C540 N537 1.313 . S
C540 N541 1.344 . S
C540 H544 0.930 . S
N541 C538 1.377 . S
N541 C540 1.344 . S
O542 Co534 2.055 . S
O542 C546 1.253 . S
H543 C539 0.931 . S
H544 C540 0.930 . S
O545 Co534 2.039 . S
O545 C535 1.265 . S
C546 O542 1.253 . S
C546 O547 1.227 . S
O547 C546 1.227 . S
N548 Co534 2.140 . S
N548 C551 1.346 . S
N548 C552 1.345 . S
C549 C550 1.387 . S
C549 C553 1.391 . S
C550 C549 1.387 . S
C550 C551 1.369 . S
C550 H559 0.929 . S
C551 N548 1.346 . S
C551 C550 1.369 . S
C551 H554 0.928 . S
C552 N548 1.345 . S
C552 C553 1.371 . S
C552 H555 0.931 . S
C553 C549 1.391 . S
C553 C552 1.371 . S
C553 H560 0.930 . S
H554 C551 0.928 . S
H555 C552 0.931 . S
H556 C532 0.930 . S
H557 C529 0.930 . S
H558 C538 0.930 . S
H559 C550 0.929 . S
H560 C553 0.930 . S
C561 C562 1.345 1_545 S
C561 N564 1.368 . S
C561 H566 0.931 . S
C562 C561 1.345 1_565 S
C562 N563 1.371 1_565 S
C562 H590 0.935 . S
N563 C562 1.371 1_545 S
N563 C565 1.347 . S
N564 C561 1.368 . S
N564 C565 1.321 . S
N564 Co567 2.135 . S
C565 N563 1.347 . S
C565 N564 1.321 . S
C565 H589 0.930 . S
H566 C561 0.931 . S
Co567 N564 2.135 . S
Co567 N570 2.121 . S
Co567 O575 2.055 . S
Co567 O578 2.039 . S
Co567 N581 2.140 . S
C568 O569 1.227 . S
C568 O578 1.265 . S
O569 C568 1.227 . S
N570 Co567 2.121 . S
N570 C572 1.375 . S
N570 C573 1.313 . S
C571 C572 1.338 . S
C571 N574 1.377 . S
C571 H591 0.930 . S
C572 N570 1.375 . S
C572 C571 1.338 . S
C572 H576 0.931 . S
C573 N570 1.313 . S
C573 N574 1.344 . S
C573 H577 0.930 . S
N574 C571 1.377 . S
N574 C573 1.344 . S
O575 Co567 2.055 . S
O575 C579 1.253 . S
H576 C572 0.931 . S
H577 C573 0.930 . S
O578 Co567 2.039 . S
O578 C568 1.265 . S
C579 O575 1.253 . S
C579 O580 1.227 . S
O580 C579 1.227 . S
N581 Co567 2.140 . S
N581 C584 1.346 . S
N581 C585 1.345 . S
C582 C583 1.387 . S
C582 C586 1.391 . S
C583 C582 1.387 . S
C583 C584 1.369 . S
C583 H592 0.929 . S
C584 N581 1.346 . S
C584 C583 1.369 . S
C584 H587 0.928 . S
C585 N581 1.345 . S
C585 C586 1.371 . S
C585 H588 0.931 . S
C586 C582 1.391 . S
C586 C585 1.371 . S
C586 H593 0.930 . S
H587 C584 0.928 . S
H588 C585 0.931 . S
H589 C565 0.930 . S
H590 C562 0.935 . S
H591 C571 0.930 . S
H592 C583 0.929 . S
H593 C586 0.930 . S
C594 C595 1.342 1_545 S
C594 N597 1.368 . S
C594 H599 0.931 . S
C595 C594 1.342 1_565 S
C595 N596 1.375 1_565 S
C595 H623 0.937 . S
N596 C595 1.375 1_545 S
N596 C598 1.349 . S
N597 C594 1.368 . S
N597 C598 1.321 . S
N597 Co600 2.135 . S
C598 N596 1.349 . S
C598 N597 1.321 . S
C598 H622 0.930 . S
H599 C594 0.931 . S
Co600 N597 2.135 . S
Co600 N603 2.121 . S
Co600 O608 2.055 . S
Co600 O611 2.039 . S
Co600 N614 2.140 . S
C601 O602 1.227 . S
C601 O611 1.265 . S
O602 C601 1.227 . S
N603 Co600 2.121 . S
N603 C605 1.375 . S
N603 C606 1.313 . S
C604 C605 1.338 . S
C604 N607 1.377 . S
C604 H624 0.930 . S
C605 N603 1.375 . S
C605 C604 1.338 . S
C605 H609 0.931 . S
C606 N603 1.313 . S
C606 N607 1.344 . S
C606 H610 0.930 . S
N607 C604 1.377 . S
N607 C606 1.344 . S
O608 Co600 2.055 . S
O608 C612 1.253 . S
H609 C605 0.931 . S
H610 C606 0.930 . S
O611 Co600 2.039 . S
O611 C601 1.265 . S
C612 O608 1.253 . S
C612 O613 1.227 . S
O613 C612 1.227 . S
N614 Co600 2.140 . S
N614 C617 1.346 . S
N614 C618 1.345 . S
C615 C616 1.387 . S
C615 C619 1.391 . S
C616 C615 1.387 . S
C616 C617 1.369 . S
C616 H625 0.929 . S
C617 N614 1.346 . S
C617 C616 1.369 . S
C617 H620 0.928 . S
C618 N614 1.345 . S
C618 C619 1.371 . S
C618 H621 0.931 . S
C619 C615 1.391 . S
C619 C618 1.371 . S
C619 H626 0.930 . S
H620 C617 0.928 . S
H621 C618 0.931 . S
H622 C598 0.930 . S
H623 C595 0.937 . S
H624 C604 0.930 . S
H625 C616 0.929 . S
H626 C619 0.930 . S
C627 C628 1.345 1_655 S
C627 N630 1.368 . S
C627 H632 0.931 . S
C628 C627 1.345 1_455 S
C628 N629 1.371 1_455 S
C628 H656 0.935 . S
N629 C628 1.371 1_655 S
N629 C631 1.347 . S
N630 C627 1.368 . S
N630 C631 1.321 . S
N630 Co633 2.135 . S
C631 N629 1.347 . S
C631 N630 1.321 . S
C631 H655 0.930 . S
H632 C627 0.931 . S
Co633 N630 2.135 . S
Co633 N636 2.121 . S
Co633 O641 2.055 . S
Co633 O644 2.039 . S
Co633 N647 2.140 . S
C634 O635 1.227 . S
C634 O644 1.265 . S
O635 C634 1.227 . S
N636 Co633 2.121 . S
N636 C638 1.375 . S
N636 C639 1.313 . S
C637 C638 1.338 . S
C637 N640 1.377 . S
C637 H657 0.930 . S
C638 N636 1.375 . S
C638 C637 1.338 . S
C638 H642 0.931 . S
C639 N636 1.313 . S
C639 N640 1.344 . S
C639 H643 0.930 . S
N640 C637 1.377 . S
N640 C639 1.344 . S
O641 Co633 2.055 . S
O641 C645 1.253 . S
H642 C638 0.931 . S
H643 C639 0.930 . S
O644 Co633 2.039 . S
O644 C634 1.265 . S
C645 O641 1.253 . S
C645 O646 1.227 . S
O646 C645 1.227 . S
N647 Co633 2.140 . S
N647 C650 1.346 . S
N647 C651 1.345 . S
C648 C649 1.387 . S
C648 C652 1.391 . S
C649 C648 1.387 . S
C649 C650 1.369 . S
C649 H658 0.929 . S
C650 N647 1.346 . S
C650 C649 1.369 . S
C650 H653 0.928 . S
C651 N647 1.345 . S
C651 C652 1.371 . S
C651 H654 0.931 . S
C652 C648 1.391 . S
C652 C651 1.371 . S
C652 H659 0.930 . S
H653 C650 0.928 . S
H654 C651 0.931 . S
H655 C631 0.930 . S
H656 C628 0.935 . S
H657 C637 0.930 . S
H658 C649 0.929 . S
H659 C652 0.930 . S
C660 C661 1.351 . S
C660 N663 1.368 . S
C660 H665 0.931 . S
C661 C660 1.351 . S
C661 N662 1.373 . S
C661 H689 0.930 . S
N662 C661 1.373 . S
N662 C664 1.340 . S
N663 C660 1.368 . S
N663 C664 1.321 . S
N663 Co666 2.135 . S
C664 N662 1.340 . S
C664 N663 1.321 . S
C664 H688 0.930 . S
H665 C660 0.931 . S
Co666 N663 2.135 . S
Co666 N669 2.121 . S
Co666 O674 2.055 . S
Co666 O677 2.039 . S
Co666 N680 2.140 . S
C667 O668 1.227 . S
C667 O677 1.265 . S
O668 C667 1.227 . S
N669 Co666 2.121 . S
N669 C671 1.375 . S
N669 C672 1.313 . S
C670 C671 1.338 . S
C670 N673 1.377 . S
C670 H690 0.930 . S
C671 N669 1.375 . S
C671 C670 1.338 . S
C671 H675 0.931 . S
C672 N669 1.313 . S
C672 N673 1.344 . S
C672 H676 0.930 . S
N673 C670 1.377 . S
N673 C672 1.344 . S
O674 Co666 2.055 . S
O674 C678 1.253 . S
H675 C671 0.931 . S
H676 C672 0.930 . S
O677 Co666 2.039 . S
O677 C667 1.265 . S
C678 O674 1.253 . S
C678 O679 1.227 . S
O679 C678 1.227 . S
N680 Co666 2.140 . S
N680 C683 1.346 . S
N680 C684 1.345 . S
C681 C682 1.387 . S
C681 C685 1.391 . S
C682 C681 1.387 . S
C682 C683 1.369 . S
C682 H691 0.929 . S
C683 N680 1.346 . S
C683 C682 1.369 . S
C683 H686 0.928 . S
C684 N680 1.345 . S
C684 C685 1.371 . S
C684 H687 0.931 . S
C685 C681 1.391 . S
C685 C684 1.371 . S
C685 H692 0.930 . S
H686 C683 0.928 . S
H687 C684 0.931 . S
H688 C664 0.930 . S
H689 C661 0.930 . S
H690 C670 0.930 . S
H691 C682 0.929 . S
H692 C685 0.930 . S
C693 C694 1.351 . S
C693 N696 1.368 . S
C693 H698 0.931 . S
C694 C693 1.351 . S
C694 N695 1.373 . S
C694 H722 0.930 . S
N695 C694 1.373 . S
N695 C697 1.340 . S
N696 C693 1.368 . S
N696 C697 1.321 . S
N696 Co699 2.135 . S
C697 N695 1.340 . S
C697 N696 1.321 . S
C697 H721 0.930 . S
H698 C693 0.931 . S
Co699 N696 2.135 . S
Co699 N702 2.121 . S
Co699 O707 2.055 . S
Co699 O710 2.039 1_556 S
Co699 N713 2.140 . S
C700 O701 1.227 . S
C700 O710 1.265 . S
O701 C700 1.227 . S
N702 Co699 2.121 . S
N702 C704 1.375 . S
N702 C705 1.313 . S
C703 C704 1.338 . S
C703 N706 1.377 . S
C703 H723 0.930 . S
C704 N702 1.375 . S
C704 C703 1.338 . S
C704 H708 0.931 . S
C705 N702 1.313 . S
C705 N706 1.344 . S
C705 H709 0.930 . S
N706 C703 1.377 . S
N706 C705 1.344 . S
O707 Co699 2.055 . S
O707 C711 1.253 . S
H708 C704 0.931 . S
H709 C705 0.930 . S
O710 Co699 2.039 1_554 S
O710 C700 1.265 . S
C711 O707 1.253 . S
C711 O712 1.227 . S
O712 C711 1.227 . S
N713 Co699 2.140 . S
N713 C716 1.346 . S
N713 C717 1.345 . S
C714 C715 1.387 . S
C714 C718 1.391 . S
C715 C714 1.387 . S
C715 C716 1.369 . S
C715 H724 0.929 . S
C716 N713 1.346 . S
C716 C715 1.369 . S
C716 H719 0.928 . S
C717 N713 1.345 . S
C717 C718 1.371 . S
C717 H720 0.931 . S
C718 C714 1.391 . S
C718 C717 1.371 . S
C718 H725 0.930 . S
H719 C716 0.928 . S
H720 C717 0.931 . S
H721 C697 0.930 . S
H722 C694 0.930 . S
H723 C703 0.930 . S
H724 C715 0.929 . S
H725 C718 0.930 . S
C726 C727 1.351 . S
C726 N729 1.368 . S
C726 H731 0.931 . S
C727 C726 1.351 . S
C727 N728 1.373 . S
C727 H755 0.930 . S
N728 C727 1.373 . S
N728 C730 1.340 . S
N729 C726 1.368 . S
N729 C730 1.321 . S
N729 Co732 2.135 . S
C730 N728 1.340 . S
C730 N729 1.321 . S
C730 H754 0.930 . S
H731 C726 0.931 . S
Co732 N729 2.135 . S
Co732 N735 2.121 . S
Co732 O740 2.055 . S
Co732 O743 2.039 1_556 S
Co732 N746 2.140 . S
C733 O734 1.227 . S
C733 O743 1.265 . S
O734 C733 1.227 . S
N735 Co732 2.121 . S
N735 C737 1.375 . S
N735 C738 1.313 . S
C736 C737 1.338 . S
C736 N739 1.377 . S
C736 H756 0.930 . S
C737 N735 1.375 . S
C737 C736 1.338 . S
C737 H741 0.931 . S
C738 N735 1.313 . S
C738 N739 1.344 . S
C738 H742 0.930 . S
N739 C736 1.377 . S
N739 C738 1.344 . S
O740 Co732 2.055 . S
O740 C744 1.253 . S
H741 C737 0.931 . S
H742 C738 0.930 . S
O743 Co732 2.039 1_554 S
O743 C733 1.265 . S
C744 O740 1.253 . S
C744 O745 1.227 . S
O745 C744 1.227 . S
N746 Co732 2.140 . S
N746 C749 1.346 . S
N746 C750 1.345 . S
C747 C748 1.387 . S
C747 C751 1.391 . S
C748 C747 1.387 . S
C748 C749 1.369 . S
C748 H757 0.929 . S
C749 N746 1.346 . S
C749 C748 1.369 . S
C749 H752 0.928 . S
C750 N746 1.345 . S
C750 C751 1.371 . S
C750 H753 0.931 . S
C751 C747 1.391 . S
C751 C750 1.371 . S
C751 H758 0.930 . S
H752 C749 0.928 . S
H753 C750 0.931 . S
H754 C730 0.930 . S
H755 C727 0.930 . S
H756 C736 0.930 . S
H757 C748 0.929 . S
H758 C751 0.930 . S
C759 C760 1.351 . S
C759 N762 1.368 . S
C759 H764 0.931 . S
C760 C759 1.351 . S
C760 N761 1.373 . S
C760 H788 0.930 . S
N761 C760 1.373 . S
N761 C763 1.340 . S
N762 C759 1.368 . S
N762 C763 1.321 . S
N762 Co765 2.135 . S
C763 N761 1.340 . S
C763 N762 1.321 . S
C763 H787 0.930 . S
H764 C759 0.931 . S
Co765 N762 2.135 . S
Co765 N768 2.121 . S
Co765 O773 2.055 . S
Co765 O776 2.039 1_556 S
Co765 N779 2.140 . S
C766 O767 1.227 . S
C766 O776 1.265 . S
O767 C766 1.227 . S
N768 Co765 2.121 . S
N768 C770 1.375 . S
N768 C771 1.313 . S
C769 C770 1.338 . S
C769 N772 1.377 . S
C769 H789 0.930 . S
C770 N768 1.375 . S
C770 C769 1.338 . S
C770 H774 0.931 . S
C771 N768 1.313 . S
C771 N772 1.344 . S
C771 H775 0.930 . S
N772 C769 1.377 . S
N772 C771 1.344 . S
O773 Co765 2.055 . S
O773 C777 1.253 . S
H774 C770 0.931 . S
H775 C771 0.930 . S
O776 Co765 2.039 1_554 S
O776 C766 1.265 . S
C777 O773 1.253 . S
C777 O778 1.227 . S
O778 C777 1.227 . S
N779 Co765 2.140 . S
N779 C782 1.346 . S
N779 C783 1.345 . S
C780 C781 1.387 . S
C780 C784 1.391 . S
C781 C780 1.387 . S
C781 C782 1.369 . S
C781 H790 0.929 . S
C782 N779 1.346 . S
C782 C781 1.369 . S
C782 H785 0.928 . S
C783 N779 1.345 . S
C783 C784 1.371 . S
C783 H786 0.931 . S
C784 C780 1.391 . S
C784 C783 1.371 . S
C784 H791 0.930 . S
H785 C782 0.928 . S
H786 C783 0.931 . S
H787 C763 0.930 . S
H788 C760 0.930 . S
H789 C769 0.930 . S
H790 C781 0.929 . S
H791 C784 0.930 . S
C792 C793 1.342 1_565 S
C792 N795 1.368 . S
C792 H797 0.931 . S
C793 C792 1.342 1_545 S
C793 N794 1.375 1_545 S
C793 H821 0.937 . S
N794 C793 1.375 1_565 S
N794 C796 1.349 . S
N795 C792 1.368 . S
N795 C796 1.321 . S
N795 Co798 2.135 . S
C796 N794 1.349 . S
C796 N795 1.321 . S
C796 H820 0.930 . S
H797 C792 0.931 . S
Co798 N795 2.135 . S
Co798 N801 2.121 . S
Co798 O806 2.055 . S
Co798 O809 2.039 . S
Co798 N812 2.140 . S
C799 O800 1.227 . S
C799 O809 1.265 . S
O800 C799 1.227 . S
N801 Co798 2.121 . S
N801 C803 1.375 . S
N801 C804 1.313 . S
C802 C803 1.338 . S
C802 N805 1.377 . S
C802 H822 0.930 . S
C803 N801 1.375 . S
C803 C802 1.338 . S
C803 H807 0.931 . S
C804 N801 1.313 . S
C804 N805 1.344 . S
C804 H808 0.930 . S
N805 C802 1.377 . S
N805 C804 1.344 . S
O806 Co798 2.055 . S
O806 C810 1.253 . S
H807 C803 0.931 . S
H808 C804 0.930 . S
O809 Co798 2.039 . S
O809 C799 1.265 . S
C810 O806 1.253 . S
C810 O811 1.227 . S
O811 C810 1.227 . S
N812 Co798 2.140 . S
N812 C815 1.346 . S
N812 C816 1.345 . S
C813 C814 1.387 . S
C813 C817 1.391 . S
C814 C813 1.387 . S
C814 C815 1.369 . S
C814 H823 0.929 . S
C815 N812 1.346 . S
C815 C814 1.369 . S
C815 H818 0.928 . S
C816 N812 1.345 . S
C816 C817 1.371 . S
C816 H819 0.931 . S
C817 C813 1.391 . S
C817 C816 1.371 . S
C817 H824 0.930 . S
H818 C815 0.928 . S
H819 C816 0.931 . S
H820 C796 0.930 . S
H821 C793 0.937 . S
H822 C802 0.930 . S
H823 C814 0.929 . S
H824 C817 0.930 . S
C825 C826 1.345 1_455 S
C825 N828 1.368 . S
C825 H830 0.931 . S
C826 C825 1.345 1_655 S
C826 N827 1.371 1_655 S
C826 H854 0.935 . S
N827 C826 1.371 1_455 S
N827 C829 1.347 . S
N828 C825 1.368 . S
N828 C829 1.321 . S
N828 Co831 2.135 . S
C829 N827 1.347 . S
C829 N828 1.321 . S
C829 H853 0.930 . S
H830 C825 0.931 . S
Co831 N828 2.135 . S
Co831 N834 2.121 . S
Co831 O839 2.055 . S
Co831 O842 2.039 . S
Co831 N845 2.140 . S
C832 O833 1.227 . S
C832 O842 1.265 . S
O833 C832 1.227 . S
N834 Co831 2.121 . S
N834 C836 1.375 . S
N834 C837 1.313 . S
C835 C836 1.338 . S
C835 N838 1.377 . S
C835 H855 0.930 . S
C836 N834 1.375 . S
C836 C835 1.338 . S
C836 H840 0.931 . S
C837 N834 1.313 . S
C837 N838 1.344 . S
C837 H841 0.930 . S
N838 C835 1.377 . S
N838 C837 1.344 . S
O839 Co831 2.055 . S
O839 C843 1.253 . S
H840 C836 0.931 . S
H841 C837 0.930 . S
O842 Co831 2.039 . S
O842 C832 1.265 . S
C843 O839 1.253 . S
C843 O844 1.227 . S
O844 C843 1.227 . S
N845 Co831 2.140 . S
N845 C848 1.346 . S
N845 C849 1.345 . S
C846 C847 1.387 . S
C846 C850 1.391 . S
C847 C846 1.387 . S
C847 C848 1.369 . S
C847 H856 0.929 . S
C848 N845 1.346 . S
C848 C847 1.369 . S
C848 H851 0.928 . S
C849 N845 1.345 . S
C849 C850 1.371 . S
C849 H852 0.931 . S
C850 C846 1.391 . S
C850 C849 1.371 . S
C850 H857 0.930 . S
H851 C848 0.928 . S
H852 C849 0.931 . S
H853 C829 0.930 . S
H854 C826 0.935 . S
H855 C835 0.930 . S
H856 C847 0.929 . S
H857 C850 0.930 . S
C858 C859 1.351 . S
C858 N861 1.368 . S
C858 H863 0.931 . S
C859 C858 1.351 . S
C859 N860 1.373 . S
C859 H887 0.930 . S
N860 C859 1.373 . S
N860 C862 1.340 . S
N861 C858 1.368 . S
N861 C862 1.321 . S
N861 Co864 2.135 . S
C862 N860 1.340 . S
C862 N861 1.321 . S
C862 H886 0.930 . S
H863 C858 0.931 . S
Co864 N861 2.135 . S
Co864 N867 2.121 . S
Co864 O872 2.055 . S
Co864 O875 2.039 . S
Co864 N878 2.140 . S
C865 O866 1.227 . S
C865 O875 1.265 . S
O866 C865 1.227 . S
N867 Co864 2.121 . S
N867 C869 1.375 . S
N867 C870 1.313 . S
C868 C869 1.338 . S
C868 N871 1.377 . S
C868 H888 0.930 . S
C869 N867 1.375 . S
C869 C868 1.338 . S
C869 H873 0.931 . S
C870 N867 1.313 . S
C870 N871 1.344 . S
C870 H874 0.930 . S
N871 C868 1.377 . S
N871 C870 1.344 . S
O872 Co864 2.055 . S
O872 C876 1.253 . S
H873 C869 0.931 . S
H874 C870 0.930 . S
O875 Co864 2.039 . S
O875 C865 1.265 . S
C876 O872 1.253 . S
C876 O877 1.227 . S
O877 C876 1.227 . S
N878 Co864 2.140 . S
N878 C881 1.346 . S
N878 C882 1.345 . S
C879 C880 1.387 . S
C879 C883 1.391 . S
C880 C879 1.387 . S
C880 C881 1.369 . S
C880 H889 0.929 . S
C881 N878 1.346 . S
C881 C880 1.369 . S
C881 H884 0.928 . S
C882 N878 1.345 . S
C882 C883 1.371 . S
C882 H885 0.931 . S
C883 C879 1.391 . S
C883 C882 1.371 . S
C883 H890 0.930 . S
H884 C881 0.928 . S
H885 C882 0.931 . S
H886 C862 0.930 . S
H887 C859 0.930 . S
H888 C868 0.930 . S
H889 C880 0.929 . S
H890 C883 0.930 . S
C891 C892 1.351 . S
C891 N894 1.368 . S
C891 H896 0.931 . S
C892 C891 1.351 . S
C892 N893 1.373 . S
C892 H920 0.930 . S
N893 C892 1.373 . S
N893 C895 1.340 . S
N894 C891 1.368 . S
N894 C895 1.321 . S
N894 Co897 2.135 . S
C895 N893 1.340 . S
C895 N894 1.321 . S
C895 H919 0.930 . S
H896 C891 0.931 . S
Co897 N894 2.135 . S
Co897 N900 2.121 . S
Co897 O905 2.055 . S
Co897 O908 2.039 1_554 S
Co897 N911 2.140 . S
C898 O899 1.227 . S
C898 O908 1.265 . S
O899 C898 1.227 . S
N900 Co897 2.121 . S
N900 C902 1.375 . S
N900 C903 1.313 . S
C901 C902 1.338 . S
C901 N904 1.377 . S
C901 H921 0.930 . S
C902 N900 1.375 . S
C902 C901 1.338 . S
C902 H906 0.931 . S
C903 N900 1.313 . S
C903 N904 1.344 . S
C903 H907 0.930 . S
N904 C901 1.377 . S
N904 C903 1.344 . S
O905 Co897 2.055 . S
O905 C909 1.253 . S
H906 C902 0.931 . S
H907 C903 0.930 . S
O908 Co897 2.039 1_556 S
O908 C898 1.265 . S
C909 O905 1.253 . S
C909 O910 1.227 . S
O910 C909 1.227 . S
N911 Co897 2.140 . S
N911 C914 1.346 . S
N911 C915 1.345 . S
C912 C913 1.387 . S
C912 C916 1.391 . S
C913 C912 1.387 . S
C913 C914 1.369 . S
C913 H922 0.929 . S
C914 N911 1.346 . S
C914 C913 1.369 . S
C914 H917 0.928 . S
C915 N911 1.345 . S
C915 C916 1.371 . S
C915 H918 0.931 . S
C916 C912 1.391 . S
C916 C915 1.371 . S
C916 H923 0.930 . S
H917 C914 0.928 . S
H918 C915 0.931 . S
H919 C895 0.930 . S
H920 C892 0.930 . S
H921 C901 0.930 . S
H922 C913 0.929 . S
H923 C916 0.930 . S
C924 C925 1.351 . S
C924 N927 1.368 . S
C924 H929 0.931 . S
C925 C924 1.351 . S
C925 N926 1.373 . S
C925 H953 0.930 . S
N926 C925 1.373 . S
N926 C928 1.340 . S
N927 C924 1.368 . S
N927 C928 1.321 . S
N927 Co930 2.135 . S
C928 N926 1.340 . S
C928 N927 1.321 . S
C928 H952 0.930 . S
H929 C924 0.931 . S
Co930 N927 2.135 . S
Co930 N933 2.121 . S
Co930 O938 2.055 . S
Co930 O941 2.039 1_554 S
Co930 N944 2.140 . S
C931 O932 1.227 . S
C931 O941 1.265 . S
O932 C931 1.227 . S
N933 Co930 2.121 . S
N933 C935 1.375 . S
N933 C936 1.313 . S
C934 C935 1.338 . S
C934 N937 1.377 . S
C934 H954 0.930 . S
C935 N933 1.375 . S
C935 C934 1.338 . S
C935 H939 0.931 . S
C936 N933 1.313 . S
C936 N937 1.344 . S
C936 H940 0.930 . S
N937 C934 1.377 . S
N937 C936 1.344 . S
O938 Co930 2.055 . S
O938 C942 1.253 . S
H939 C935 0.931 . S
H940 C936 0.930 . S
O941 Co930 2.039 1_556 S
O941 C931 1.265 . S
C942 O938 1.253 . S
C942 O943 1.227 . S
O943 C942 1.227 . S
N944 Co930 2.140 . S
N944 C947 1.346 . S
N944 C948 1.345 . S
C945 C946 1.387 . S
C945 C949 1.391 . S
C946 C945 1.387 . S
C946 C947 1.369 . S
C946 H955 0.929 . S
C947 N944 1.346 . S
C947 C946 1.369 . S
C947 H950 0.928 . S
C948 N944 1.345 . S
C948 C949 1.371 . S
C948 H951 0.931 . S
C949 C945 1.391 . S
C949 C948 1.371 . S
C949 H956 0.930 . S
H950 C947 0.928 . S
H951 C948 0.931 . S
H952 C928 0.930 . S
H953 C925 0.930 . S
H954 C934 0.930 . S
H955 C946 0.929 . S
H956 C949 0.930 . S
C957 C958 1.351 . S
C957 N960 1.368 . S
C957 H962 0.931 . S
C958 C957 1.351 . S
C958 N959 1.373 . S
C958 H986 0.930 . S
N959 C958 1.373 . S
N959 C961 1.340 . S
N960 C957 1.368 . S
N960 C961 1.321 . S
N960 Co963 2.135 . S
C961 N959 1.340 . S
C961 N960 1.321 . S
C961 H985 0.930 . S
H962 C957 0.931 . S
Co963 N960 2.135 . S
Co963 N966 2.121 . S
Co963 O971 2.055 . S
Co963 O974 2.039 1_554 S
Co963 N977 2.140 . S
C964 O965 1.227 . S
C964 O974 1.265 . S
O965 C964 1.227 . S
N966 Co963 2.121 . S
N966 C968 1.375 . S
N966 C969 1.313 . S
C967 C968 1.338 . S
C967 N970 1.377 . S
C967 H987 0.930 . S
C968 N966 1.375 . S
C968 C967 1.338 . S
C968 H972 0.931 . S
C969 N966 1.313 . S
C969 N970 1.344 . S
C969 H973 0.930 . S
N970 C967 1.377 . S
N970 C969 1.344 . S
O971 Co963 2.055 . S
O971 C975 1.253 . S
H972 C968 0.931 . S
H973 C969 0.930 . S
O974 Co963 2.039 1_556 S
O974 C964 1.265 . S
C975 O971 1.253 . S
C975 O976 1.227 . S
O976 C975 1.227 . S
N977 Co963 2.140 . S
N977 C980 1.346 . S
N977 C981 1.345 . S
C978 C979 1.387 . S
C978 C982 1.391 . S
C979 C978 1.387 . S
C979 C980 1.369 . S
C979 H988 0.929 . S
C980 N977 1.346 . S
C980 C979 1.369 . S
C980 H983 0.928 . S
C981 N977 1.345 . S
C981 C982 1.371 . S
C981 H984 0.931 . S
C982 C978 1.391 . S
C982 C981 1.371 . S
C982 H989 0.930 . S
H983 C980 0.928 . S
H984 C981 0.931 . S
H985 C961 0.930 . S
H986 C958 0.930 . S
H987 C967 0.930 . S
H988 C979 0.929 . S
H989 C982 0.930 . S
C990 C991 1.351 . S
C990 N993 1.368 . S
C990 H995 0.931 . S
C991 C990 1.351 . S
C991 N992 1.373 . S
C991 H1019 0.930 . S
N992 C991 1.373 . S
N992 C994 1.340 . S
N993 C990 1.368 . S
N993 C994 1.321 . S
N993 Co996 2.135 . S
C994 N992 1.340 . S
C994 N993 1.321 . S
C994 H1018 0.930 . S
H995 C990 0.931 . S
Co996 N993 2.135 . S
Co996 N999 2.121 . S
Co996 O1004 2.055 . S
Co996 O1007 2.039 . S
Co996 N1010 2.140 . S
C997 O998 1.227 . S
C997 O1007 1.265 . S
O998 C997 1.227 . S
N999 Co996 2.121 . S
N999 C1001 1.375 . S
N999 C1002 1.313 . S
C1000 C1001 1.338 . S
C1000 N1003 1.377 . S
C1000 H1020 0.930 . S
C1001 N999 1.375 . S
C1001 C1000 1.338 . S
C1001 H1005 0.931 . S
C1002 N999 1.313 . S
C1002 N1003 1.344 . S
C1002 H1006 0.930 . S
N1003 C1000 1.377 . S
N1003 C1002 1.344 . S
O1004 Co996 2.055 . S
O1004 C1008 1.253 . S
H1005 C1001 0.931 . S
H1006 C1002 0.930 . S
O1007 Co996 2.039 . S
O1007 C997 1.265 . S
C1008 O1004 1.253 . S
C1008 O1009 1.227 . S
O1009 C1008 1.227 . S
N1010 Co996 2.140 . S
N1010 C1013 1.346 . S
N1010 C1014 1.345 . S
C1011 C1012 1.387 . S
C1011 C1015 1.391 . S
C1012 C1011 1.387 . S
C1012 C1013 1.369 . S
C1012 H1021 0.929 . S
C1013 N1010 1.346 . S
C1013 C1012 1.369 . S
C1013 H1016 0.928 . S
C1014 N1010 1.345 . S
C1014 C1015 1.371 . S
C1014 H1017 0.931 . S
C1015 C1011 1.391 . S
C1015 C1014 1.371 . S
C1015 H1022 0.930 . S
H1016 C1013 0.928 . S
H1017 C1014 0.931 . S
H1018 C994 0.930 . S
H1019 C991 0.930 . S
H1020 C1000 0.930 . S
H1021 C1012 0.929 . S
H1022 C1015 0.930 . S
C1023 C1024 1.351 . S
C1023 N1026 1.368 . S
C1023 H1028 0.931 . S
C1024 C1023 1.351 . S
C1024 N1025 1.373 . S
C1024 H1052 0.930 . S
N1025 C1024 1.373 . S
N1025 C1027 1.340 . S
N1026 C1023 1.368 . S
N1026 C1027 1.321 . S
N1026 Co1029 2.135 . S
C1027 N1025 1.340 . S
C1027 N1026 1.321 . S
C1027 H1051 0.930 . S
H1028 C1023 0.931 . S
Co1029 N1026 2.135 . S
Co1029 N1032 2.121 . S
Co1029 O1037 2.055 . S
Co1029 O1040 2.039 . S
Co1029 N1043 2.140 . S
C1030 O1031 1.227 . S
C1030 O1040 1.265 . S
O1031 C1030 1.227 . S
N1032 Co1029 2.121 . S
N1032 C1034 1.375 . S
N1032 C1035 1.313 . S
C1033 C1034 1.338 . S
C1033 N1036 1.377 . S
C1033 H1053 0.930 . S
C1034 N1032 1.375 . S
C1034 C1033 1.338 . S
C1034 H1038 0.931 . S
C1035 N1032 1.313 . S
C1035 N1036 1.344 . S
C1035 H1039 0.930 . S
N1036 C1033 1.377 . S
N1036 C1035 1.344 . S
O1037 Co1029 2.055 . S
O1037 C1041 1.253 . S
H1038 C1034 0.931 . S
H1039 C1035 0.930 . S
O1040 Co1029 2.039 . S
O1040 C1030 1.265 . S
C1041 O1037 1.253 . S
C1041 O1042 1.227 . S
O1042 C1041 1.227 . S
N1043 Co1029 2.140 . S
N1043 C1046 1.346 . S
N1043 C1047 1.345 . S
C1044 C1045 1.387 . S
C1044 C1048 1.391 . S
C1045 C1044 1.387 . S
C1045 C1046 1.369 . S
C1045 H1054 0.929 . S
C1046 N1043 1.346 . S
C1046 C1045 1.369 . S
C1046 H1049 0.928 . S
C1047 N1043 1.345 . S
C1047 C1048 1.371 . S
C1047 H1050 0.931 . S
C1048 C1044 1.391 . S
C1048 C1047 1.371 . S
C1048 H1055 0.930 . S
H1049 C1046 0.928 . S
H1050 C1047 0.931 . S
H1051 C1027 0.930 . S
H1052 C1024 0.930 . S
H1053 C1033 0.930 . S
H1054 C1045 0.929 . S
H1055 C1048 0.930 . S
C1056 C1057 1.351 . S
C1056 N1059 1.368 . S
C1056 H1061 0.931 . S
C1057 C1056 1.351 . S
C1057 N1058 1.373 . S
C1057 H1085 0.930 . S
N1058 C1057 1.373 . S
N1058 C1060 1.340 . S
N1059 C1056 1.368 . S
N1059 C1060 1.321 . S
N1059 Co1062 2.135 . S
C1060 N1058 1.340 . S
C1060 N1059 1.321 . S
C1060 H1084 0.930 . S
H1061 C1056 0.931 . S
Co1062 N1059 2.135 . S
Co1062 N1065 2.121 . S
Co1062 O1070 2.055 . S
Co1062 O1073 2.039 . S
Co1062 N1076 2.140 . S
C1063 O1064 1.227 . S
C1063 O1073 1.265 . S
O1064 C1063 1.227 . S
N1065 Co1062 2.121 . S
N1065 C1067 1.375 . S
N1065 C1068 1.313 . S
C1066 C1067 1.338 . S
C1066 N1069 1.377 . S
C1066 H1086 0.930 . S
C1067 N1065 1.375 . S
C1067 C1066 1.338 . S
C1067 H1071 0.931 . S
C1068 N1065 1.313 . S
C1068 N1069 1.344 . S
C1068 H1072 0.930 . S
N1069 C1066 1.377 . S
N1069 C1068 1.344 . S
O1070 Co1062 2.055 . S
O1070 C1074 1.253 . S
H1071 C1067 0.931 . S
H1072 C1068 0.930 . S
O1073 Co1062 2.039 . S
O1073 C1063 1.265 . S
C1074 O1070 1.253 . S
C1074 O1075 1.227 . S
O1075 C1074 1.227 . S
N1076 Co1062 2.140 . S
N1076 C1079 1.346 . S
N1076 C1080 1.345 . S
C1077 C1078 1.387 . S
C1077 C1081 1.391 . S
C1078 C1077 1.387 . S
C1078 C1079 1.369 . S
C1078 H1087 0.929 . S
C1079 N1076 1.346 . S
C1079 C1078 1.369 . S
C1079 H1082 0.928 . S
C1080 N1076 1.345 . S
C1080 C1081 1.371 . S
C1080 H1083 0.931 . S
C1081 C1077 1.391 . S
C1081 C1080 1.371 . S
C1081 H1088 0.930 . S
H1082 C1079 0.928 . S
H1083 C1080 0.931 . S
H1084 C1060 0.930 . S
H1085 C1057 0.930 . S
H1086 C1066 0.930 . S
H1087 C1078 0.929 . S
H1088 C1081 0.930 . S
C1089 C1090 1.342 1_455 S
C1089 N1092 1.368 . S
C1089 H1094 0.931 . S
C1090 C1089 1.342 1_655 S
C1090 N1091 1.375 1_655 S
C1090 H1118 0.937 . S
N1091 C1090 1.375 1_455 S
N1091 C1093 1.349 . S
N1092 C1089 1.368 . S
N1092 C1093 1.321 . S
N1092 Co1095 2.135 . S
C1093 N1091 1.349 . S
C1093 N1092 1.321 . S
C1093 H1117 0.930 . S
H1094 C1089 0.931 . S
Co1095 N1092 2.135 . S
Co1095 N1098 2.121 . S
Co1095 O1103 2.055 . S
Co1095 O1106 2.039 . S
Co1095 N1109 2.140 . S
C1096 O1097 1.227 . S
C1096 O1106 1.265 . S
O1097 C1096 1.227 . S
N1098 Co1095 2.121 . S
N1098 C1100 1.375 . S
N1098 C1101 1.313 . S
C1099 C1100 1.338 . S
C1099 N1102 1.377 . S
C1099 H1119 0.930 . S
C1100 N1098 1.375 . S
C1100 C1099 1.338 . S
C1100 H1104 0.931 . S
C1101 N1098 1.313 . S
C1101 N1102 1.344 . S
C1101 H1105 0.930 . S
N1102 C1099 1.377 . S
N1102 C1101 1.344 . S
O1103 Co1095 2.055 . S
O1103 C1107 1.253 . S
H1104 C1100 0.931 . S
H1105 C1101 0.930 . S
O1106 Co1095 2.039 . S
O1106 C1096 1.265 . S
C1107 O1103 1.253 . S
C1107 O1108 1.227 . S
O1108 C1107 1.227 . S
N1109 Co1095 2.140 . S
N1109 C1112 1.346 . S
N1109 C1113 1.345 . S
C1110 C1111 1.387 . S
C1110 C1114 1.391 . S
C1111 C1110 1.387 . S
C1111 C1112 1.369 . S
C1111 H1120 0.929 . S
C1112 N1109 1.346 . S
C1112 C1111 1.369 . S
C1112 H1115 0.928 . S
C1113 N1109 1.345 . S
C1113 C1114 1.371 . S
C1113 H1116 0.931 . S
C1114 C1110 1.391 . S
C1114 C1113 1.371 . S
C1114 H1121 0.930 . S
H1115 C1112 0.928 . S
H1116 C1113 0.931 . S
H1117 C1093 0.930 . S
H1118 C1090 0.937 . S
H1119 C1099 0.930 . S
H1120 C1111 0.929 . S
H1121 C1114 0.930 . S
C1122 C1123 1.351 . S
C1122 N1125 1.368 . S
C1122 H1127 0.931 . S
C1123 C1122 1.351 . S
C1123 N1124 1.373 . S
C1123 H1151 0.930 . S
N1124 C1123 1.373 . S
N1124 C1126 1.340 . S
N1125 C1122 1.368 . S
N1125 C1126 1.321 . S
N1125 Co1128 2.135 . S
C1126 N1124 1.340 . S
C1126 N1125 1.321 . S
C1126 H1150 0.930 . S
H1127 C1122 0.931 . S
Co1128 N1125 2.135 . S
Co1128 N1131 2.121 . S
Co1128 O1136 2.055 . S
Co1128 O1139 2.039 . S
Co1128 N1142 2.140 . S
C1129 O1130 1.227 . S
C1129 O1139 1.265 . S
O1130 C1129 1.227 . S
N1131 Co1128 2.121 . S
N1131 C1133 1.375 . S
N1131 C1134 1.313 . S
C1132 C1133 1.338 . S
C1132 N1135 1.377 . S
C1132 H1152 0.930 . S
C1133 N1131 1.375 . S
C1133 C1132 1.338 . S
C1133 H1137 0.931 . S
C1134 N1131 1.313 . S
C1134 N1135 1.344 . S
C1134 H1138 0.930 . S
N1135 C1132 1.377 . S
N1135 C1134 1.344 . S
O1136 Co1128 2.055 . S
O1136 C1140 1.253 . S
H1137 C1133 0.931 . S
H1138 C1134 0.930 . S
O1139 Co1128 2.039 . S
O1139 C1129 1.265 . S
C1140 O1136 1.253 . S
C1140 O1141 1.227 . S
O1141 C1140 1.227 . S
N1142 Co1128 2.140 . S
N1142 C1145 1.346 . S
N1142 C1146 1.345 . S
C1143 C1144 1.387 . S
C1143 C1147 1.391 . S
C1144 C1143 1.387 . S
C1144 C1145 1.369 . S
C1144 H1153 0.929 . S
C1145 N1142 1.346 . S
C1145 C1144 1.369 . S
C1145 H1148 0.928 . S
C1146 N1142 1.345 . S
C1146 C1147 1.371 . S
C1146 H1149 0.931 . S
C1147 C1143 1.391 . S
C1147 C1146 1.371 . S
C1147 H1154 0.930 . S
H1148 C1145 0.928 . S
H1149 C1146 0.931 . S
H1150 C1126 0.930 . S
H1151 C1123 0.930 . S
H1152 C1132 0.930 . S
H1153 C1144 0.929 . S
H1154 C1147 0.930 . S
C1155 C1156 1.345 1_565 S
C1155 N1158 1.368 . S
C1155 H1160 0.931 . S
C1156 C1155 1.345 1_545 S
C1156 N1157 1.371 1_545 S
C1156 H1184 0.935 . S
N1157 C1156 1.371 1_565 S
N1157 C1159 1.347 . S
N1158 C1155 1.368 . S
N1158 C1159 1.321 . S
N1158 Co1161 2.135 . S
C1159 N1157 1.347 . S
C1159 N1158 1.321 . S
C1159 H1183 0.930 . S
H1160 C1155 0.931 . S
Co1161 N1158 2.135 . S
Co1161 N1164 2.121 . S
Co1161 O1169 2.055 . S
Co1161 O1172 2.039 . S
Co1161 N1175 2.140 . S
C1162 O1163 1.227 . S
C1162 O1172 1.265 . S
O1163 C1162 1.227 . S
N1164 Co1161 2.121 . S
N1164 C1166 1.375 . S
N1164 C1167 1.313 . S
C1165 C1166 1.338 . S
C1165 N1168 1.377 . S
C1165 H1185 0.930 . S
C1166 N1164 1.375 . S
C1166 C1165 1.338 . S
C1166 H1170 0.931 . S
C1167 N1164 1.313 . S
C1167 N1168 1.344 . S
C1167 H1171 0.930 . S
N1168 C1165 1.377 . S
N1168 C1167 1.344 . S
O1169 Co1161 2.055 . S
O1169 C1173 1.253 . S
H1170 C1166 0.931 . S
H1171 C1167 0.930 . S
O1172 Co1161 2.039 . S
O1172 C1162 1.265 . S
C1173 O1169 1.253 . S
C1173 O1174 1.227 . S
O1174 C1173 1.227 . S
N1175 Co1161 2.140 . S
N1175 C1178 1.346 . S
N1175 C1179 1.345 . S
C1176 C1177 1.387 . S
C1176 C1180 1.391 . S
C1177 C1176 1.387 . S
C1177 C1178 1.369 . S
C1177 H1186 0.929 . S
C1178 N1175 1.346 . S
C1178 C1177 1.369 . S
C1178 H1181 0.928 . S
C1179 N1175 1.345 . S
C1179 C1180 1.371 . S
C1179 H1182 0.931 . S
C1180 C1176 1.391 . S
C1180 C1179 1.371 . S
C1180 H1187 0.930 . S
H1181 C1178 0.928 . S
H1182 C1179 0.931 . S
H1183 C1159 0.930 . S
H1184 C1156 0.935 . S
H1185 C1165 0.930 . S
H1186 C1177 0.929 . S
H1187 C1180 0.930 . S
C252 N13 1.460 . S
N46 C285 1.461 . S
C219 N79 1.460 . S
C384 N112 1.460 . S
C318 N145 1.461 . S
N178 C351 1.461 . S
N211 C54 1.460 . S
N244 C87 1.461 . S
N277 C21 1.460 . S
C186 N310 1.460 . S
C120 N343 1.461 . S
N376 C153 1.461 . S
C648 N409 1.460 . S
C681 N442 1.461 . S
C615 N475 1.461 . S
C780 N508 1.460 . S
C714 N541 1.460 . S
C747 N574 1.461 . S
N607 C450 1.461 . S
N640 C483 1.461 . S
C417 N673 1.460 . S
N706 C582 1.460 . S
N739 C516 1.461 . S
N772 C549 1.461 . S
C1044 N805 1.461 . S
C1077 N838 1.461 . S
N871 C1011 1.460 . S
N904 C1176 1.460 . S
N937 C1110 1.461 . S
N970 C1143 1.461 . S
C846 N1003 1.460 . S
C879 N1036 1.461 . S
N1069 C813 1.461 . S
C978 N1102 1.460 . S
C912 N1135 1.460 . S
N1168 C945 1.461 . S
C7 C106 2.140 . S
C40 C139 2.139 1_545 S
C73 C172 2.139 1_655 S
C304 C205 2.140 . S
C337 C238 2.139 1_545 S
C370 C271 2.139 1_655 S
C403 C502 2.140 . S
C436 C535 2.140 . S
C568 C469 2.139 . S
C601 C700 2.140 . S
C733 C634 2.139 . S
C766 C667 2.140 . S
C898 C799 2.140 . S
C931 C832 2.139 . S
C964 C865 2.140 . S
C1096 C997 2.140 . S
C1129 C1030 2.140 . S
C1063 C1162 2.139 . S
C18 C546 2.898 . S
C579 C51 2.898 . S
C84 C513 2.897 . S
C876 C117 2.898 . S
C150 C810 2.897 . S
C843 C183 2.898 . S
C1140 C216 2.898 . S
C249 C1173 2.898 . S
C1107 C282 2.897 . S
C315 C678 2.898 . S
C348 C612 2.897 . S
C645 C381 2.898 . S
C942 C414 2.898 1_455 S
C975 C447 2.897 . S
C480 C909 2.897 1_545 S
C711 C1074 2.897 1_545 S
C744 C1008 2.898 1_655 S
C1041 C777 2.897 . S
N959 N2 0.419 . S
N893 N35 0.419 . S
N926 N68 0.418 . S
N101 N431 0.419 . S
N134 N464 0.418 . S
N398 N167 0.419 . S
N200 N761 0.419 . S
N695 N233 0.419 . S
N266 N728 0.418 . S
N299 N1025 0.419 . S
N1058 N332 0.418 . S
N365 N992 0.419 . S
N827 N497 0.418 1_455 S
N530 N860 0.418 . S
N563 N794 0.418 1_545 S
N596 N1157 0.418 1_545 S
N1091 N629 0.418 1_455 S
N1124 N662 0.418 . S
