# Generated by pormake.
# Topology npo, (4)-cn, num edge types: 1
# Building blocks:
#     Node 0, Type 0, BuildingBlock: UXUYUI_clean_sbu_0, # of connection points: 4
#     Node 1, Type 0, BuildingBlock: UXUYUI_clean_sbu_0, # of connection points: 4
#     Node 2, Type 0, BuildingBlock: UXUYUI_clean_sbu_0, # of connection points: 4
#     Node 3, Type 0, BuildingBlock: UXUYUI_clean_sbu_0, # of connection points: 4
#     Node 4, Type 0, BuildingBlock: UXUYUI_clean_sbu_0, # of connection points: 4
#     Node 5, Type 0, BuildingBlock: UXUYUI_clean_sbu_0, # of connection points: 4
#     Edge 6, Type (0, 0), BuildingBlock: TEMPAE_clean_linker_10, # of connection points: 2
#     Edge 7, Type (0, 0), BuildingBlock: TEMPAE_clean_linker_10, # of connection points: 2
#     Edge 8, Type (0, 0), BuildingBlock: TEMPAE_clean_linker_10, # of connection points: 2
#     Edge 9, Type (0, 0), BuildingBlock: TEMPAE_clean_linker_10, # of connection points: 2
#     Edge 10, Type (0, 0), BuildingBlock: TEMPAE_clean_linker_10, # of connection points: 2
#     Edge 11, Type (0, 0), BuildingBlock: TEMPAE_clean_linker_10, # of connection points: 2
#     Edge 12, Type (0, 0), BuildingBlock: TEMPAE_clean_linker_10, # of connection points: 2
#     Edge 13, Type (0, 0), BuildingBlock: TEMPAE_clean_linker_10, # of connection points: 2
#     Edge 14, Type (0, 0), BuildingBlock: TEMPAE_clean_linker_10, # of connection points: 2
#     Edge 15, Type (0, 0), BuildingBlock: TEMPAE_clean_linker_10, # of connection points: 2
#     Edge 16, Type (0, 0), BuildingBlock: TEMPAE_clean_linker_10, # of connection points: 2
#     Edge 17, Type (0, 0), BuildingBlock: TEMPAE_clean_linker_10, # of connection points: 2
# Relax obj value: 0.320
# Max RMSD: 0.247
# Mean RMSD: 0.247
data_MOF--net-npo--node1-UXUYUI_clean_sbu_0--edge1-TEMPAE_clean_linker_10
_symmetry_space_group_name_H-M    P1
_symmetry_Int_Tables_number       1
_symmetry_cell_setting            triclinic
loop_
_symmetry_equiv_pos_as_xyz
'x, y, z'
_cell_length_a     61.563802
_cell_length_b     61.471113
_cell_length_c     38.390713
_cell_angle_alpha  89.992076
_cell_angle_beta   89.988806
_cell_angle_gamma 120.07933
loop_
_atom_site_label
_atom_site_type_symbol
_atom_site_fract_x
_atom_site_fract_y
_atom_site_fract_z
_atom_type_partial_charge
Li0 Li 0.51411 0.1083 0.23096 0.0
Li1 Li 0.55673 0.1143 0.24315 0.0
Li2 Li 0.52507 0.07629 0.21561 0.0
Li3 Li 0.52199 0.08304 0.27601 0.0
C4 C 0.54024 0.1089 0.16312 0.0
N5 N 0.54 0.10088 0.09232 0.0
C6 C 0.5621 0.11284 0.14646 0.0
C7 C 0.51832 0.10112 0.1438 0.0
C8 C 0.56158 0.10862 0.11062 0.0
C9 C 0.51857 0.0971 0.10802 0.0
C10 C 0.55082 0.14196 0.28986 0.0
C11 C 0.58426 0.16588 0.33061 0.0
N12 N 0.58614 0.18746 0.31808 0.0
C13 C 0.55294 0.16434 0.27757 0.0
C14 C 0.56645 0.14268 0.31677 0.0
C15 C 0.57096 0.18717 0.29213 0.0
C16 C 0.47534 0.12014 0.2368 0.0
N17 N 0.49675 0.12526 0.21981 0.0
C18 C 0.49834 0.16044 0.19125 0.0
C19 C 0.50801 0.14455 0.19683 0.0
C20 C 0.47684 0.15643 0.20954 0.0
C21 C 0.46489 0.13552 0.23187 0.0
H22 H 0.467 0.10477 0.25523 0.0
H23 H 0.5253 0.14839 0.18424 0.0
C24 C 0.6087 0.13635 0.25965 0.0
N25 N 0.59095 0.13969 0.24348 0.0
C26 C 0.63355 0.15602 0.26106 0.0
C27 C 0.62131 0.18188 0.22853 0.0
C28 C 0.5968 0.1617 0.22758 0.0
C29 C 0.63999 0.17924 0.24573 0.0
H30 H 0.60353 0.11856 0.2718 0.0
H31 H 0.58225 0.16366 0.21466 0.0
C32 C 0.474 0.04879 0.23632 0.0
N33 N 0.4319 0.00213 0.22663 0.0
C34 C 0.4749 0.02697 0.24343 0.0
C35 C 0.45175 0.04691 0.22408 0.0
C36 C 0.45341 0.00355 0.23843 0.0
C37 C 0.43064 0.02314 0.2194 0.0
C38 C 0.5526 0.06372 0.27286 0.0
C39 C 0.54398 0.03896 0.26226 0.0
C40 C 0.56503 0.07207 0.30475 0.0
C41 C 0.54768 0.02286 0.28397 0.0
C42 C 0.56833 0.05538 0.32574 0.0
N43 N 0.55965 0.03132 0.31501 0.0
C44 C 0.54208 0.05343 0.16931 0.0
C45 C 0.49912 0.04066 0.16153 0.0
C46 C 0.54187 0.04042 0.13946 0.0
N47 N 0.52101 0.0536 0.1794 0.0
C48 C 0.49792 0.02699 0.13196 0.0
C49 C 0.51966 0.02728 0.12 0.0
H50 H 0.55937 0.06443 0.18359 0.0
H51 H 0.48286 0.0418 0.1692 0.0
C52 C 0.50961 0.084 0.34564 0.0
N53 N 0.51107 0.06885 0.32109 0.0
C54 C 0.50266 0.07546 0.37971 0.0
C55 C 0.49824 0.03562 0.36245 0.0
C56 C 0.50507 0.04487 0.32868 0.0
C57 C 0.49715 0.05106 0.38858 0.0
H58 H 0.51397 0.10281 0.33882 0.0
H59 H 0.50606 0.03301 0.30882 0.0
O60 O 0.54012 0.11206 0.19834 0.0
O61 O 0.53385 0.11948 0.27519 0.0
O62 O 0.49489 0.07192 0.24047 0.0
O63 O 0.54924 0.07979 0.25188 0.0
H64 H 0.57917 0.11878 0.16116 0.0
H65 H 0.5012 0.0978 0.15643 0.0
H66 H 0.57829 0.11141 0.09738 0.0
H67 H 0.50169 0.09086 0.09277 0.0
H68 H 0.59661 0.16673 0.35126 0.0
H69 H 0.541 0.16413 0.25676 0.0
H70 H 0.56498 0.12552 0.32665 0.0
H71 H 0.57294 0.20466 0.28271 0.0
H72 H 0.50857 0.1766 0.17445 0.0
H73 H 0.44823 0.13167 0.24633 0.0
H74 H 0.64742 0.15331 0.27465 0.0
H75 H 0.6256 0.19935 0.21593 0.0
H76 H 0.49215 0.02811 0.25194 0.0
H77 H 0.45083 0.06363 0.21808 0.0
H78 H 0.45387 0.9865 0.24371 0.0
H79 H 0.41329 0.0214 0.20993 0.0
H80 H 0.53436 0.03214 0.23768 0.0
H81 H 0.57178 0.09113 0.31342 0.0
H82 H 0.54098 0.00361 0.27617 0.0
H83 H 0.57774 0.06153 0.35059 0.0
H84 H 0.5592 0.0416 0.13095 0.0
H85 H 0.48028 0.01686 0.11813 0.0
H86 H 0.50163 0.08784 0.39887 0.0
H87 H 0.49446 0.01679 0.36818 0.0
Li88 Li 0.45536 0.54783 0.78416 0.0
Li89 Li 0.45732 0.57793 0.74408 0.0
Li90 Li 0.41834 0.53894 0.75285 0.0
Li91 Li 0.45396 0.54011 0.71963 0.0
C92 C 0.4377 0.57119 0.82117 0.0
N93 N 0.44057 0.5808 0.89185 0.0
C94 C 0.45517 0.59491 0.83402 0.0
C95 C 0.42155 0.55243 0.84426 0.0
C96 C 0.45634 0.59939 0.86984 0.0
C97 C 0.42336 0.55762 0.87991 0.0
C98 C 0.50469 0.58694 0.74262 0.0
C99 C 0.54187 0.61027 0.70752 0.0
N100 N 0.55086 0.62933 0.73112 0.0
C101 C 0.51433 0.60673 0.76656 0.0
C102 C 0.51857 0.58869 0.71286 0.0
C103 C 0.53768 0.62802 0.76025 0.0
C104 C 0.45594 0.5179 0.83881 0.0
N105 N 0.46661 0.542 0.82731 0.0
C106 C 0.49003 0.55727 0.88001 0.0
C107 C 0.48377 0.56152 0.84682 0.0
C108 C 0.47882 0.53262 0.89298 0.0
C109 C 0.46185 0.51274 0.87168 0.0
H110 H 0.44263 0.50269 0.82261 0.0
H111 H 0.49206 0.58048 0.83711 0.0
C112 C 0.45582 0.62206 0.74979 0.0
N113 N 0.46904 0.61255 0.73407 0.0
C114 C 0.46117 0.64643 0.74258 0.0
C115 C 0.4937 0.65099 0.70291 0.0
C116 C 0.48745 0.62631 0.71054 0.0
C117 C 0.4803 0.66117 0.71887 0.0
H118 H 0.44066 0.61046 0.76737 0.0
H119 H 0.49684 0.61799 0.69696 0.0
C120 C 0.41215 0.49306 0.75684 0.0
N121 N 0.36958 0.44603 0.75462 0.0
C122 C 0.40705 0.47781 0.72747 0.0
C123 C 0.39573 0.48425 0.78525 0.0
C124 C 0.3854 0.45412 0.72682 0.0
C125 C 0.37427 0.46046 0.78357 0.0
C126 C 0.43137 0.5715 0.68633 0.0
C127 C 0.41367 0.57884 0.69317 0.0
C128 C 0.44749 0.58167 0.6578 0.0
C129 C 0.41256 0.5965 0.67144 0.0
C130 C 0.44576 0.59925 0.63667 0.0
N131 N 0.4285 0.60626 0.6439 0.0
C132 C 0.37364 0.53519 0.77547 0.0
C133 C 0.36822 0.50693 0.72975 0.0
C134 C 0.3483 0.52791 0.77429 0.0
N135 N 0.38307 0.5248 0.75327 0.0
C136 C 0.3426 0.49879 0.72802 0.0
C137 C 0.3326 0.50976 0.75004 0.0
H138 H 0.38597 0.54989 0.79313 0.0
H139 H 0.37641 0.49964 0.71158 0.0
C140 C 0.48109 0.52103 0.68362 0.0
N141 N 0.4621 0.5262 0.68186 0.0
C142 C 0.48754 0.5121 0.65423 0.0
C143 C 0.45414 0.51324 0.62253 0.0
C144 C 0.44839 0.52213 0.65241 0.0
C145 C 0.4742 0.5085 0.62305 0.0
H146 H 0.49156 0.5244 0.70758 0.0
H147 H 0.43312 0.52604 0.65208 0.0
O148 O 0.43648 0.56631 0.7862 0.0
O149 O 0.48196 0.56581 0.74843 0.0
O150 O 0.43319 0.51639 0.75788 0.0
O151 O 0.43327 0.55485 0.70792 0.0
H152 H 0.46794 0.60963 0.81662 0.0
H153 H 0.40789 0.53401 0.83479 0.0
H154 H 0.46987 0.61761 0.88015 0.0
H155 H 0.41109 0.54322 0.89807 0.0
H156 H 0.55278 0.61189 0.68457 0.0
H157 H 0.50367 0.60595 0.78933 0.0
H158 H 0.51139 0.57364 0.69395 0.0
H159 H 0.54526 0.64355 0.77843 0.0
H160 H 0.50304 0.57319 0.89562 0.0
H161 H 0.45321 0.49339 0.88029 0.0
H162 H 0.45043 0.6537 0.75539 0.0
H163 H 0.50831 0.66175 0.68405 0.0
H164 H 0.41961 0.48418 0.70536 0.0
H165 H 0.39943 0.49571 0.80825 0.0
H166 H 0.38118 0.44217 0.70419 0.0
H167 H 0.36132 0.4535 0.80527 0.0
H168 H 0.40117 0.57126 0.71528 0.0
H169 H 0.46146 0.57634 0.65237 0.0
H170 H 0.39909 0.60251 0.67656 0.0
H171 H 0.45823 0.60742 0.61464 0.0
H172 H 0.34114 0.53683 0.79151 0.0
H173 H 0.33101 0.48503 0.70864 0.0
H174 H 0.5032 0.50875 0.65558 0.0
H175 H 0.4431 0.51023 0.5992 0.0
Li176 Li 0.88093 0.4613 0.24441 0.0
Li177 Li 0.91126 0.45459 0.27097 0.0
Li178 Li 0.90618 0.45126 0.20642 0.0
Li179 Li 0.87476 0.4193 0.24736 0.0
C180 C 0.92111 0.50472 0.22915 0.0
N181 N 0.92789 0.55174 0.21415 0.0
C182 C 0.91912 0.51933 0.25552 0.0
C183 C 0.92664 0.51412 0.19515 0.0
C184 C 0.92256 0.543 0.2474 0.0
C185 C 0.93 0.53792 0.1881 0.0
C186 C 0.88016 0.4434 0.32125 0.0
C187 C 0.88492 0.42748 0.37648 0.0
N188 N 0.89088 0.44976 0.39171 0.0
C189 C 0.8862 0.46609 0.33753 0.0
C190 C 0.87944 0.42389 0.34092 0.0
C191 C 0.89161 0.46896 0.37314 0.0
C192 C 0.84601 0.47271 0.27264 0.0
N193 N 0.86215 0.47835 0.24554 0.0
C194 C 0.84598 0.50221 0.2181 0.0
C195 C 0.86258 0.49299 0.21864 0.0
C196 C 0.82867 0.4961 0.24537 0.0
C197 C 0.82915 0.48153 0.2732 0.0
H198 H 0.84533 0.46028 0.29303 0.0
H199 H 0.87498 0.49656 0.19681 0.0
C200 C 0.93871 0.44799 0.32484 0.0
N201 N 0.9355 0.46529 0.30707 0.0
C202 C 0.95329 0.45492 0.35496 0.0
C203 C 0.96251 0.4977 0.34637 0.0
C204 C 0.94765 0.4899 0.31652 0.0
C205 C 0.96485 0.47993 0.36649 0.0
H206 H 0.92899 0.42861 0.31659 0.0
H207 H 0.94499 0.50328 0.30172 0.0
C208 C 0.84836 0.43472 0.1943 0.0
N209 N 0.80563 0.43443 0.1716 0.0
C210 C 0.82614 0.42222 0.21357 0.0
C211 C 0.84882 0.44697 0.1634 0.0
C212 C 0.80475 0.42233 0.20169 0.0
C213 C 0.82701 0.44661 0.15236 0.0
C214 C 0.90859 0.40559 0.23463 0.0
C215 C 0.91325 0.39894 0.20182 0.0
C216 C 0.90165 0.38853 0.26223 0.0
C217 C 0.91066 0.37521 0.19709 0.0
C218 C 0.89922 0.36498 0.25643 0.0
N219 N 0.90373 0.35886 0.22425 0.0
C220 C 0.94755 0.47115 0.16217 0.0
C221 C 0.90844 0.44602 0.13395 0.0
C222 C 0.96012 0.4767 0.13037 0.0
N223 N 0.92219 0.45643 0.1632 0.0
C224 C 0.92024 0.45106 0.10155 0.0
C225 C 0.94638 0.46687 0.0995 0.0
H226 H 0.9579 0.47895 0.18606 0.0
H227 H 0.8883 0.43407 0.13579 0.0
C228 C 0.83388 0.37662 0.2779 0.0
N229 N 0.84965 0.38481 0.25009 0.0
C230 C 0.81372 0.35204 0.27882 0.0
C231 C 0.82642 0.34474 0.22246 0.0
C232 C 0.84627 0.36953 0.22256 0.0
C233 C 0.80962 0.33581 0.25067 0.0
H234 H 0.83628 0.38946 0.2987 0.0
H235 H 0.85863 0.37678 0.20029 0.0
O236 O 0.91792 0.4815 0.23659 0.0
O237 O 0.87557 0.44053 0.28615 0.0
O238 O 0.86971 0.43556 0.20617 0.0
O239 O 0.91092 0.42871 0.23971 0.0
H240 H 0.91456 0.51233 0.28189 0.0
H241 H 0.9281 0.50314 0.17429 0.0
H242 H 0.9209 0.5544 0.26753 0.0
H243 H 0.9342 0.54536 0.16189 0.0
H244 H 0.88464 0.41262 0.39192 0.0
H245 H 0.88699 0.48145 0.32279 0.0
H246 H 0.87522 0.40634 0.32877 0.0
H247 H 0.89648 0.48649 0.38598 0.0
H248 H 0.84612 0.51329 0.19607 0.0
H249 H 0.81567 0.47577 0.29427 0.0
H250 H 0.95497 0.44076 0.36958 0.0
H251 H 0.97105 0.51714 0.3545 0.0
H252 H 0.82555 0.41294 0.23779 0.0
H253 H 0.86594 0.45706 0.14843 0.0
H254 H 0.78749 0.41291 0.21649 0.0
H255 H 0.82713 0.45616 0.12863 0.0
H256 H 0.91877 0.41189 0.18018 0.0
H257 H 0.89767 0.3932 0.28768 0.0
H258 H 0.91414 0.3698 0.17181 0.0
H259 H 0.89364 0.35152 0.27748 0.0
H260 H 0.98035 0.48863 0.12992 0.0
H261 H 0.90897 0.44321 0.07834 0.0
H262 H 0.80086 0.34619 0.30066 0.0
H263 H 0.82399 0.33287 0.20025 0.0
Li264 Li 0.45934 0.9204 0.71712 0.0
Li265 Li 0.46887 0.91353 0.77905 0.0
Li266 Li 0.46571 0.88605 0.73221 0.0
Li267 Li 0.42896 0.88547 0.75214 0.0
C268 C 0.51283 0.92375 0.73067 0.0
N269 N 0.55765 0.92494 0.71839 0.0
C270 C 0.52826 0.92548 0.7585 0.0
C271 C 0.52039 0.923 0.69657 0.0
C272 C 0.5508 0.92597 0.75177 0.0
C273 C 0.54305 0.92351 0.69091 0.0
C274 C 0.42326 0.92121 0.7775 0.0
C275 C 0.39793 0.91458 0.82863 0.0
N276 N 0.38107 0.91727 0.8089 0.0
C277 C 0.40576 0.92401 0.75774 0.0
C278 C 0.4194 0.91652 0.81324 0.0
C279 C 0.38452 0.92192 0.7741 0.0
C280 C 0.44369 0.94103 0.66473 0.0
N281 N 0.46392 0.94425 0.68316 0.0
C282 C 0.49171 0.97867 0.6472 0.0
C283 C 0.48757 0.96284 0.67549 0.0
C284 C 0.47127 0.97523 0.62685 0.0
C285 C 0.44694 0.95652 0.63633 0.0
H286 H 0.42518 0.92573 0.6712 0.0
H287 H 0.50326 0.96473 0.69058 0.0
C288 C 0.48881 0.91523 0.84496 0.0
N289 N 0.48482 0.92901 0.82084 0.0
C290 C 0.49819 0.92534 0.87771 0.0
C291 C 0.50026 0.96402 0.8594 0.0
C292 C 0.49067 0.95309 0.82706 0.0
C293 C 0.50359 0.94987 0.88539 0.0
H294 H 0.48416 0.8962 0.83896 0.0
H295 H 0.4871 0.96344 0.80728 0.0
C296 C 0.43572 0.87695 0.66997 0.0
N297 N 0.42985 0.86032 0.60186 0.0
C298 C 0.41482 0.85405 0.66045 0.0
C299 C 0.45355 0.89144 0.64476 0.0
C300 C 0.41222 0.84594 0.62592 0.0
C301 C 0.45026 0.8827 0.61049 0.0
C302 C 0.43889 0.8511 0.78425 0.0
C303 C 0.42596 0.83478 0.75675 0.0
C304 C 0.43973 0.8412 0.81667 0.0
C305 C 0.41417 0.80885 0.7621 0.0
C306 C 0.42769 0.81515 0.82101 0.0
N307 N 0.41527 0.79964 0.79385 0.0
C308 C 0.49294 0.86237 0.74476 0.0
C309 C 0.47357 0.85165 0.68925 0.0
C310 C 0.50078 0.84481 0.74124 0.0
N311 N 0.47924 0.86518 0.71925 0.0
C312 C 0.48072 0.83356 0.68485 0.0
C313 C 0.4939 0.82946 0.71151 0.0
H314 H 0.49678 0.87299 0.76864 0.0
H315 H 0.46245 0.85379 0.66943 0.0
C316 C 0.37812 0.86063 0.73342 0.0
N317 N 0.39403 0.86478 0.76036 0.0
C318 C 0.35268 0.84289 0.73658 0.0
C319 C 0.36032 0.83508 0.79583 0.0
C320 C 0.3856 0.85305 0.79154 0.0
C321 C 0.34366 0.82933 0.76778 0.0
H322 H 0.3854 0.87044 0.70903 0.0
H323 H 0.39867 0.857 0.81268 0.0
O324 O 0.49052 0.9229 0.73682 0.0
O325 O 0.44377 0.92242 0.76182 0.0
O326 O 0.43834 0.88519 0.70366 0.0
O327 O 0.45069 0.87663 0.7797 0.0
H328 H 0.5228 0.92622 0.78504 0.0
H329 H 0.50888 0.92195 0.6747 0.0
H330 H 0.56282 0.92712 0.77308 0.0
H331 H 0.54904 0.92277 0.66466 0.0
H332 H 0.39461 0.91082 0.85623 0.0
H333 H 0.40844 0.92753 0.73003 0.0
H334 H 0.43267 0.91408 0.82884 0.0
H335 H 0.37074 0.92392 0.75911 0.0
H336 H 0.51071 0.993 0.64074 0.0
H337 H 0.43078 0.95307 0.62093 0.0
H338 H 0.50069 0.91396 0.89708 0.0
H339 H 0.5039 0.98289 0.86456 0.0
H340 H 0.40077 0.84258 0.67955 0.0
H341 H 0.46978 0.90918 0.65149 0.0
H342 H 0.39619 0.82822 0.61825 0.0
H343 H 0.46395 0.89373 0.59076 0.0
H344 H 0.42504 0.84198 0.73152 0.0
H345 H 0.4495 0.8535 0.83835 0.0
H346 H 0.40415 0.79604 0.741 0.0
H347 H 0.4282 0.80725 0.84597 0.0
H348 H 0.51123 0.84259 0.76226 0.0
H349 H 0.47465 0.82194 0.6617 0.0
H350 H 0.3405 0.83888 0.71425 0.0
H351 H 0.35401 0.82524 0.82043 0.0
Li352 Li 0.5382 0.44493 0.28393 0.0
Li353 Li 0.53189 0.41224 0.24271 0.0
Li354 Li 0.57381 0.45111 0.25095 0.0
Li355 Li 0.54049 0.4532 0.21975 0.0
C356 C 0.55195 0.41572 0.31802 0.0
N357 N 0.54715 0.4 0.38648 0.0
C358 C 0.5347 0.39085 0.32689 0.0
C359 C 0.56699 0.43251 0.34395 0.0
C360 C 0.53251 0.38328 0.36165 0.0
C361 C 0.5642 0.42424 0.37841 0.0
C362 C 0.48642 0.41322 0.24047 0.0
C363 C 0.45296 0.39292 0.19845 0.0
N364 N 0.43616 0.38224 0.22488 0.0
C365 C 0.46873 0.40235 0.2672 0.0
C366 C 0.4784 0.40873 0.20581 0.0
C367 C 0.44346 0.38663 0.2588 0.0
C368 C 0.53869 0.47504 0.33905 0.0
N369 N 0.52809 0.45092 0.32772 0.0
C370 C 0.5058 0.43558 0.38125 0.0
C371 C 0.51167 0.43131 0.34781 0.0
C372 C 0.5169 0.46027 0.39395 0.0
C373 C 0.53336 0.48018 0.3723 0.0
H374 H 0.55148 0.49028 0.32239 0.0
H375 H 0.50364 0.4123 0.33822 0.0
C376 C 0.53074 0.3699 0.21628 0.0
N377 N 0.51635 0.3772 0.23391 0.0
C378 C 0.522 0.34454 0.21011 0.0
C379 C 0.4838 0.33444 0.24085 0.0
C380 C 0.49321 0.36013 0.24607 0.0
C381 C 0.49845 0.32637 0.22305 0.0
H382 H 0.54928 0.38381 0.20753 0.0
H383 H 0.48244 0.36631 0.26098 0.0
C384 C 0.58444 0.49781 0.25958 0.0
N385 N 0.63015 0.54192 0.26283 0.0
C386 C 0.59263 0.51462 0.2316 0.0
C387 C 0.59934 0.50363 0.28943 0.0
C388 C 0.61583 0.53678 0.23369 0.0
C389 C 0.62244 0.52596 0.29051 0.0
C390 C 0.55645 0.42803 0.17273 0.0
C391 C 0.57858 0.43874 0.15314 0.0
C392 C 0.53374 0.41101 0.1569 0.0
C393 C 0.5775 0.43277 0.11783 0.0
C394 C 0.53343 0.40548 0.12155 0.0
N395 N 0.55512 0.41643 0.10288 0.0
C396 C 0.61841 0.45522 0.27641 0.0
C397 C 0.62366 0.47982 0.22616 0.0
C398 C 0.6439 0.46302 0.27668 0.0
N399 N 0.60884 0.46356 0.25129 0.0
C400 C 0.6493 0.48801 0.22529 0.0
C401 C 0.65963 0.4793 0.25053 0.0
H402 H 0.60618 0.44216 0.2959 0.0
H403 H 0.61549 0.48607 0.20644 0.0
C404 C 0.51261 0.47079 0.18235 0.0
N405 N 0.53379 0.46908 0.1826 0.0
C406 C 0.50661 0.48019 0.15305 0.0
C407 C 0.54498 0.48703 0.12582 0.0
C408 C 0.5503 0.47772 0.15565 0.0
C409 C 0.52264 0.4878 0.12404 0.0
H410 H 0.50003 0.46415 0.20447 0.0
H411 H 0.56749 0.4771 0.15715 0.0
O412 O 0.55418 0.42352 0.28414 0.0
O413 O 0.51126 0.42877 0.24833 0.0
O414 O 0.56194 0.47582 0.25779 0.0
O415 O 0.5572 0.43384 0.20734 0.0
H416 H 0.52304 0.37754 0.30721 0.0
H417 H 0.5805 0.45179 0.33759 0.0
H418 H 0.51913 0.36412 0.36888 0.0
H419 H 0.57557 0.43709 0.39875 0.0
H420 H 0.44656 0.38925 0.17173 0.0
H421 H 0.47442 0.4059 0.29416 0.0
H422 H 0.49156 0.41761 0.18474 0.0
H423 H 0.42963 0.37795 0.27926 0.0
H424 H 0.49315 0.41971 0.39725 0.0
H425 H 0.54194 0.49953 0.38092 0.0
H426 H 0.53381 0.33922 0.19585 0.0
H427 H 0.46574 0.32106 0.2518 0.0
H428 H 0.58125 0.51059 0.20846 0.0
H429 H 0.59325 0.49094 0.31141 0.0
H430 H 0.62245 0.54988 0.21214 0.0
H431 H 0.63425 0.53058 0.31333 0.0
H432 H 0.5964 0.45165 0.16497 0.0
H433 H 0.51662 0.4018 0.17184 0.0
H434 H 0.59446 0.4411 0.10233 0.0
H435 H 0.51595 0.39237 0.10901 0.0
H436 H 0.65115 0.45612 0.29692 0.0
H437 H 0.66069 0.50036 0.20448 0.0
H438 H 0.48922 0.48059 0.15254 0.0
H439 H 0.55802 0.49326 0.10417 0.0
Li440 Li 0.08855 0.54666 0.77134 0.0
Li441 Li 0.11816 0.53994 0.73756 0.0
Li442 Li 0.12143 0.5813 0.74086 0.0
Li443 Li 0.08783 0.54693 0.7084 0.0
C444 C 0.14612 0.57914 0.79483 0.0
N445 N 0.19003 0.61685 0.82381 0.0
C446 C 0.16894 0.58017 0.78818 0.0
C447 C 0.14562 0.59721 0.81642 0.0
C448 C 0.19093 0.59938 0.80307 0.0
C449 C 0.16803 0.61616 0.83073 0.0
C450 C 0.07793 0.49519 0.74304 0.0
C451 C 0.08044 0.45995 0.72015 0.0
N452 N 0.0732 0.44836 0.75164 0.0
C453 C 0.07048 0.4829 0.77516 0.0
C454 C 0.08289 0.4836 0.71526 0.0
C455 C 0.0682 0.45923 0.77898 0.0
C456 C 0.04332 0.52132 0.80924 0.0
N457 N 0.06861 0.53633 0.81196 0.0
C458 C 0.06619 0.53503 0.87395 0.0
C459 C 0.08021 0.54322 0.8434 0.0
C460 C 0.04002 0.51945 0.87204 0.0
C461 C 0.02853 0.51271 0.83916 0.0
H462 H 0.03472 0.51574 0.7838 0.0
H463 H 0.10037 0.55481 0.84475 0.0
C464 C 0.15306 0.52826 0.70917 0.0
N465 N 0.13727 0.52359 0.73642 0.0
C466 C 0.16908 0.51838 0.70885 0.0
C467 C 0.15172 0.49843 0.76421 0.0
C468 C 0.13629 0.50902 0.76368 0.0
C469 C 0.16879 0.50348 0.73685 0.0
H470 H 0.15393 0.54046 0.68831 0.0
H471 H 0.12392 0.5061 0.78538 0.0
C472 C 0.0662 0.57198 0.75562 0.0
N473 N 0.02625 0.57201 0.78834 0.0
C474 C 0.04217 0.55873 0.74117 0.0
C475 C 0.06997 0.58539 0.78658 0.0
C476 C 0.0222 0.55897 0.75813 0.0
C477 C 0.04951 0.5851 0.80278 0.0
C478 C 0.12566 0.56753 0.66468 0.0
C479 C 0.13098 0.59088 0.65143 0.0
C480 C 0.12042 0.54781 0.64178 0.0
C481 C 0.13081 0.59405 0.61541 0.0
C482 C 0.12034 0.55172 0.60594 0.0
N483 N 0.12549 0.57456 0.59361 0.0
C484 C 0.16869 0.62271 0.73045 0.0
C485 C 0.13953 0.63357 0.75307 0.0
C486 C 0.18792 0.64766 0.73215 0.0
N487 N 0.14519 0.61615 0.74124 0.0
C488 C 0.15824 0.65884 0.7552 0.0
C489 C 0.18287 0.66611 0.74487 0.0
H490 H 0.17259 0.60838 0.72127 0.0
H491 H 0.12062 0.62779 0.76133 0.0
C492 C 0.05588 0.51456 0.65673 0.0
N493 N 0.06783 0.53876 0.66795 0.0
C494 C 0.04403 0.50844 0.62444 0.0
C495 C 0.0557 0.55204 0.61678 0.0
C496 C 0.06743 0.55734 0.64926 0.0
C497 C 0.04436 0.52741 0.60374 0.0
H498 H 0.05616 0.50015 0.67241 0.0
H499 H 0.07707 0.57641 0.65902 0.0
O500 O 0.12446 0.56088 0.77975 0.0
O501 O 0.08042 0.51846 0.73882 0.0
O502 O 0.08591 0.57165 0.7397 0.0
O503 O 0.1251 0.56386 0.69989 0.0
H504 H 0.16975 0.56647 0.77142 0.0
H505 H 0.12818 0.59689 0.82153 0.0
H506 H 0.20873 0.60047 0.798 0.0
H507 H 0.16794 0.6304 0.8472 0.0
H508 H 0.0844 0.45087 0.69895 0.0
H509 H 0.0667 0.49156 0.79704 0.0
H510 H 0.08904 0.49296 0.69035 0.0
H511 H 0.06253 0.44954 0.80372 0.0
H512 H 0.07573 0.54084 0.89881 0.0
H513 H 0.00843 0.50046 0.83662 0.0
H514 H 0.18235 0.5234 0.68765 0.0
H515 H 0.15072 0.48695 0.78623 0.0
H516 H 0.03891 0.54818 0.7173 0.0
H517 H 0.0884 0.59553 0.7983 0.0
H518 H 0.00348 0.54871 0.74734 0.0
H519 H 0.0521 0.59521 0.82691 0.0
H520 H 0.13487 0.60629 0.66876 0.0
H521 H 0.11607 0.52957 0.6516 0.0
H522 H 0.13476 0.61197 0.60479 0.0
H523 H 0.11608 0.53656 0.58794 0.0
H524 H 0.20669 0.65232 0.72446 0.0
H525 H 0.15353 0.67252 0.76487 0.0
H526 H 0.03503 0.48914 0.61551 0.0
H527 H 0.05637 0.56717 0.60149 0.0
C528 C 0.47168 0.1892 0.17784 0.0
C529 C 0.46936 0.17595 0.20868 0.0
C530 C 0.47122 0.21176 0.17846 0.0
C531 C 0.468 0.22103 0.21063 0.0
C532 C 0.46269 0.20625 0.24109 0.0
C533 C 0.4636 0.18393 0.23982 0.0
C534 C 0.47685 0.2269 0.14534 0.0
C535 C 0.45868 0.21525 0.27579 0.0
C536 C 0.50757 0.29116 0.22451 0.0
C537 C 0.49013 0.29923 0.21979 0.0
C538 C 0.5005 0.26581 0.22131 0.0
C539 C 0.47521 0.24789 0.21372 0.0
C540 C 0.45734 0.25573 0.2094 0.0
C541 C 0.46504 0.2814 0.21238 0.0
C542 C 0.5202 0.25825 0.22615 0.0
C543 C 0.43019 0.23706 0.20163 0.0
H544 H 0.47547 0.18277 0.15351 0.0
H545 H 0.46179 0.17391 0.26385 0.0
H546 H 0.46464 0.2353 0.14292 0.0
H547 H 0.49659 0.24256 0.14599 0.0
H548 H 0.47435 0.2153 0.12186 0.0
H549 H 0.44988 0.1997 0.29505 0.0
H550 H 0.47706 0.22985 0.28632 0.0
H551 H 0.44669 0.22387 0.27292 0.0
H552 H 0.52683 0.3047 0.23114 0.0
H553 H 0.4515 0.28753 0.20853 0.0
H554 H 0.52121 0.24835 0.20257 0.0
H555 H 0.51505 0.24503 0.24838 0.0
H556 H 0.53915 0.27463 0.23115 0.0
H557 H 0.42874 0.22731 0.1767 0.0
H558 H 0.41852 0.24613 0.19983 0.0
H559 H 0.42233 0.22246 0.22226 0.0
C560 C 0.30193 0.52398 0.73998 0.0
C561 C 0.3065 0.50417 0.74588 0.0
C562 C 0.27743 0.51961 0.73727 0.0
C563 C 0.25698 0.49482 0.74107 0.0
C564 C 0.26147 0.4746 0.74632 0.0
C565 C 0.28633 0.47952 0.74838 0.0
C566 C 0.27346 0.54165 0.73105 0.0
C567 C 0.24011 0.44802 0.75088 0.0
C568 C 0.2 0.49735 0.77085 0.0
C569 C 0.18808 0.49574 0.73902 0.0
C570 C 0.22128 0.49467 0.77235 0.0
C571 C 0.23111 0.49074 0.7412 0.0
C572 C 0.21807 0.4871 0.70945 0.0
C573 C 0.19656 0.48946 0.7088 0.0
C574 C 0.23444 0.49825 0.80685 0.0
C575 C 0.22796 0.48286 0.67568 0.0
H576 H 0.31765 0.54299 0.73755 0.0
H577 H 0.29001 0.46426 0.75297 0.0
H578 H 0.26122 0.53803 0.70802 0.0
H579 H 0.26384 0.54418 0.75382 0.0
H580 H 0.29139 0.55948 0.72672 0.0
H581 H 0.24671 0.4342 0.75174 0.0
H582 H 0.23004 0.44659 0.77551 0.0
H583 H 0.22636 0.44286 0.72938 0.0
H584 H 0.19379 0.50235 0.79437 0.0
H585 H 0.18707 0.48752 0.68424 0.0
H586 H 0.25164 0.51707 0.80742 0.0
H587 H 0.24031 0.48402 0.81033 0.0
H588 H 0.22235 0.49695 0.82916 0.0
H589 H 0.24454 0.50077 0.66724 0.0
H590 H 0.21368 0.4763 0.65461 0.0
H591 H 0.23418 0.4689 0.67913 0.0
C592 C 0.68659 0.19768 0.24127 0.0
C593 C 0.66594 0.20082 0.24801 0.0
C594 C 0.71116 0.21828 0.24214 0.0
C595 C 0.71506 0.24246 0.25009 0.0
C596 C 0.69429 0.2456 0.25767 0.0
C597 C 0.66999 0.22475 0.25648 0.0
C598 C 0.73287 0.21427 0.23379 0.0
C599 C 0.6977 0.27108 0.26655 0.0
C600 C 0.77819 0.29573 0.27993 0.0
C601 C 0.78683 0.31048 0.24968 0.0
C602 C 0.75527 0.27298 0.28014 0.0
C603 C 0.74071 0.26479 0.24935 0.0
C604 C 0.74983 0.27902 0.21837 0.0
C605 C 0.77273 0.30173 0.21894 0.0
C606 C 0.74617 0.25824 0.31364 0.0
C607 C 0.73485 0.27086 0.18499 0.0
H608 H 0.68349 0.17922 0.2345 0.0
H609 H 0.65407 0.22714 0.26229 0.0
H610 H 0.74247 0.2248 0.20982 0.0
H611 H 0.74688 0.22171 0.25515 0.0
H612 H 0.72676 0.19411 0.22978 0.0
H613 H 0.67965 0.27016 0.27285 0.0
H614 H 0.71051 0.27923 0.28916 0.0
H615 H 0.7065 0.28412 0.24428 0.0
H616 H 0.78918 0.3022 0.30363 0.0
H617 H 0.77907 0.31315 0.19557 0.0
H618 H 0.74078 0.23832 0.30923 0.0
H619 H 0.72918 0.2584 0.3229 0.0
H620 H 0.7606 0.26608 0.33451 0.0
H621 H 0.72919 0.25108 0.17888 0.0
H622 H 0.74552 0.28287 0.16252 0.0
H623 H 0.7174 0.27177 0.18817 0.0
C624 C 0.4938 0.79292 0.74014 0.0
C625 C 0.49778 0.80749 0.71013 0.0
C626 C 0.49428 0.77043 0.73879 0.0
C627 C 0.49851 0.76205 0.70653 0.0
C628 C 0.50366 0.77713 0.67641 0.0
C629 C 0.50331 0.79975 0.67858 0.0
C630 C 0.48883 0.75493 0.77158 0.0
C631 C 0.50826 0.76876 0.64159 0.0
C632 C 0.5103 0.70732 0.7139 0.0
C633 C 0.48582 0.68693 0.71087 0.0
C634 C 0.51508 0.73209 0.71072 0.0
C635 C 0.49489 0.73635 0.70408 0.0
C636 C 0.47041 0.71572 0.69888 0.0
C637 C 0.46616 0.69124 0.70251 0.0
C638 C 0.54139 0.75363 0.71656 0.0
C639 C 0.44842 0.71948 0.69134 0.0
H640 H 0.48905 0.79842 0.76452 0.0
H641 H 0.50676 0.81108 0.65538 0.0
H642 H 0.47035 0.73747 0.76913 0.0
H643 H 0.50319 0.74929 0.77546 0.0
H644 H 0.48841 0.76525 0.7951 0.0
H645 H 0.51492 0.7839 0.6217 0.0
H646 H 0.52232 0.76259 0.64411 0.0
H647 H 0.49058 0.7524 0.63213 0.0
H648 H 0.52548 0.70392 0.72043 0.0
H649 H 0.44729 0.67539 0.69965 0.0
H650 H 0.54228 0.76266 0.74196 0.0
H651 H 0.54664 0.76817 0.6961 0.0
H652 H 0.55543 0.74731 0.71677 0.0
H653 H 0.44438 0.72761 0.71457 0.0
H654 H 0.43118 0.70158 0.68457 0.0
H655 H 0.45296 0.73293 0.66955 0.0
C656 C 0.69275 0.46738 0.2548 0.0
C657 C 0.68631 0.48592 0.24864 0.0
C658 C 0.71771 0.47296 0.25305 0.0
C659 C 0.73676 0.49768 0.24458 0.0
C660 C 0.73047 0.51651 0.23805 0.0
C661 C 0.70525 0.5104 0.24022 0.0
C662 C 0.72365 0.4523 0.26014 0.0
C663 C 0.75034 0.543 0.2288 0.0
C664 C 0.80029 0.50921 0.27321 0.0
C665 C 0.80825 0.50216 0.24323 0.0
C666 C 0.77785 0.50984 0.27331 0.0
C667 C 0.76316 0.50335 0.24264 0.0
C668 C 0.77222 0.4984 0.21151 0.0
C669 C 0.79466 0.49777 0.21219 0.0
C670 C 0.76887 0.51534 0.307 0.0
C671 C 0.75718 0.49161 0.1782 0.0
H672 H 0.67816 0.4483 0.26056 0.0
H673 H 0.70039 0.52485 0.23565 0.0
H674 H 0.7326 0.44937 0.23692 0.0
H675 H 0.73718 0.45779 0.28201 0.0
H676 H 0.70664 0.43416 0.26681 0.0
H677 H 0.74231 0.55539 0.22414 0.0
H678 H 0.76434 0.55117 0.25011 0.0
H679 H 0.76054 0.54288 0.20505 0.0
H680 H 0.81101 0.51305 0.29709 0.0
H681 H 0.80059 0.49214 0.18897 0.0
H682 H 0.75325 0.49759 0.31769 0.0
H683 H 0.76155 0.52832 0.30252 0.0
H684 H 0.78403 0.52372 0.32684 0.0
H685 H 0.74098 0.47221 0.18033 0.0
H686 H 0.76858 0.49244 0.15525 0.0
H687 H 0.7496 0.50437 0.17365 0.0
C688 C 0.31373 0.78457 0.7828 0.0
C689 C 0.31777 0.80757 0.76959 0.0
C690 C 0.2901 0.76283 0.78059 0.0
C691 C 0.26996 0.76413 0.76494 0.0
C692 C 0.27357 0.78754 0.75318 0.0
C693 C 0.29751 0.80901 0.75547 0.0
C694 C 0.28707 0.73818 0.79326 0.0
C695 C 0.25243 0.78971 0.73683 0.0
C696 C 0.22189 0.70336 0.72231 0.0
C697 C 0.20354 0.69252 0.74835 0.0
C698 C 0.24312 0.72715 0.72684 0.0
C699 C 0.24597 0.74055 0.75809 0.0
C700 C 0.22688 0.73033 0.78372 0.0
C701 C 0.20589 0.70635 0.7786 0.0
C702 C 0.26305 0.73743 0.69884 0.0
C703 C 0.22918 0.74419 0.81721 0.0
H704 H 0.32939 0.78328 0.7933 0.0
H705 H 0.30053 0.82683 0.74555 0.0
H706 H 0.27076 0.72874 0.81111 0.0
H707 H 0.28334 0.72545 0.77076 0.0
H708 H 0.30403 0.74069 0.80707 0.0
H709 H 0.25748 0.8096 0.73283 0.0
H710 H 0.24761 0.78009 0.71119 0.0
H711 H 0.23537 0.78028 0.75334 0.0
H712 H 0.21991 0.69297 0.69858 0.0
H713 H 0.19186 0.69802 0.79895 0.0
H714 H 0.28061 0.73891 0.70909 0.0
H715 H 0.26744 0.7566 0.69117 0.0
H716 H 0.25727 0.72535 0.67524 0.0
H717 H 0.24425 0.74459 0.83352 0.0
H718 H 0.21144 0.73519 0.83243 0.0
H719 H 0.23451 0.76398 0.81173 0.0
C720 C 0.49574 0.94527 0.94928 0.0
C721 C 0.5103 0.95985 0.9212 0.0
C722 C 0.49936 0.95551 0.98279 0.0
C723 C 0.51815 0.98084 0.98827 0.0
C724 C 0.53395 0.99517 0.96043 0.0
C725 C 0.52969 0.98453 0.92706 0.0
C726 C 0.48193 0.93975 0.01173 0.0
C727 C 0.55449 0.0221 0.9655 0.0
C728 C 0.50544 0.01629 0.05825 0.0
C729 C 0.51948 0.01528 0.08634 0.0
C730 C 0.50487 0.0051 0.02629 0.0
C731 C 0.51921 0.99313 0.02193 0.0
C732 C 0.5339 0.99247 0.0498 0.0
C733 C 0.53366 0.00335 0.08184 0.0
C734 C 0.48876 0.00597 -0.00276 0.0
C735 C 0.54974 0.98021 0.04578 0.0
H736 H 0.48057 0.92626 0.9447 0.0
H737 H 0.54111 0.9957 0.90536 0.0
H738 H 0.49277 0.94069 0.0353 0.0
H739 H 0.46948 0.94726 0.01892 0.0
H740 H 0.47002 0.91973 0.00406 0.0
H741 H 0.56716 0.02947 0.94257 0.0
H742 H 0.54602 0.03411 0.96984 0.0
H743 H 0.56584 0.02381 0.98888 0.0
H744 H 0.495 0.02608 0.06106 0.0
H745 H 0.54442 0.00229 0.10344 0.0
H746 H 0.47496 0.98659 0.98879 0.0
H747 H 0.50061 0.01592 0.97436 0.0
H748 H 0.47836 0.01563 0.00514 0.0
H749 H 0.53753 0.95986 0.04043 0.0
H750 H 0.56109 0.98244 0.06941 0.0
H751 H 0.56259 0.98847 0.02321 0.0
C752 C 0.48656 0.4531 0.44191 0.0
C753 C 0.51131 0.46535 0.42953 0.0
C754 C 0.48085 0.45879 0.4748 0.0
C755 C 0.50038 0.47715 0.49568 0.0
C756 C 0.5255 0.48898 0.4838 0.0
C757 C 0.53067 0.48294 0.45081 0.0
C758 C 0.45382 0.44585 0.48663 0.0
C759 C 0.54681 0.50858 0.50548 0.0
C760 C 0.4827 0.51268 0.55924 0.0
C761 C 0.48152 0.50066 0.59078 0.0
C762 C 0.48898 0.50527 0.52817 0.0
C763 C 0.49428 0.48539 0.5287 0.0
C764 C 0.49347 0.47336 0.56051 0.0
C765 C 0.48712 0.48119 0.59129 0.0
C766 C 0.48981 0.51865 0.49474 0.0
C767 C 0.49903 0.45208 0.56192 0.0
H768 H 0.47153 0.43963 0.42541 0.0
H769 H 0.54988 0.4921 0.44153 0.0
H770 H 0.45199 0.43761 0.51292 0.0
H771 H 0.44745 0.4598 0.48856 0.0
H772 H 0.44114 0.4307 0.46847 0.0
H773 H 0.56544 0.5147 0.49353 0.0
H774 H 0.54457 0.52529 0.50858 0.0
H775 H 0.54646 0.50115 0.53193 0.0
H776 H 0.47883 0.52806 0.55889 0.0
H777 H 0.48606 0.47176 0.61563 0.0
H778 H 0.47618 0.50503 0.47577 0.0
H779 H 0.50872 0.52693 0.48279 0.0
H780 H 0.48535 0.53388 0.49891 0.0
H781 H 0.48529 0.4362 0.54565 0.0
H782 H 0.49822 0.44516 0.58889 0.0
H783 H 0.51794 0.45829 0.55102 0.0
C784 C 0.00237 0.51021 0.90778 0.0
C785 C 0.02495 0.51004 0.90428 0.0
C786 C 0.98846 0.50221 0.93875 0.0
C787 C -0.0026 0.49387 0.96674 0.0
C788 C 0.0199 0.49317 0.96308 0.0
C789 C 0.0334 0.50125 0.93186 0.0
C790 C 0.96452 0.50321 0.94181 0.0
C791 C 0.02996 0.48431 0.99237 0.0
C792 C 0.9777 0.49862 0.0585 0.0
C793 C 0.95922 0.47367 0.06531 0.0
C794 C 0.99011 0.50546 0.02637 0.0
C795 C 0.98384 0.4869 0.00044 0.0
C796 C 0.96506 0.46171 0.00699 0.0
C797 C 0.95295 0.45538 0.03942 0.0
C798 C 0.01002 0.53254 0.02025 0.0
C799 C 0.95797 0.44145 0.97988 0.0
H800 H -0.00411 0.51718 0.8866 0.0
H801 H 0.05063 0.50068 0.92899 0.0
H802 H 0.94875 0.48454 0.94951 0.0
H803 H 0.9666 0.51672 0.96251 0.0
H804 H 0.95953 0.50902 0.91707 0.0
H805 H 0.04725 0.48405 0.98484 0.0
H806 H 0.03427 0.49684 0.01526 0.0
H807 H 0.01557 0.46511 0.00067 0.0
H808 H 0.98228 0.51288 0.07824 0.0
H809 H 0.93882 0.43604 0.04472 0.0
H810 H 0.00508 0.54004 -0.00282 0.0
H811 H 0.02828 0.53376 0.01465 0.0
H812 H 0.01242 0.54471 0.043 0.0
H813 H 0.95199 0.44668 0.95554 0.0
H814 H 0.94254 0.42289 0.98881 0.0
H815 H 0.97452 0.43958 0.97339 0.0
C816 C 0.50464 0.05795 0.45279 0.0
C817 C 0.49119 0.04198 0.42505 0.0
C818 C 0.50066 0.04902 0.48714 0.0
C819 C 0.48305 0.02347 0.49378 0.0
C820 C 0.46876 0.00749 0.4661 0.0
C821 C 0.4729 0.01698 0.43208 0.0
C822 C 0.51608 0.06665 0.51609 0.0
C823 C 0.44983 0.98009 0.4722 0.0
C824 C 0.49376 0.99146 0.57058 0.0
C825 C 0.47545 0.98947 0.5941 0.0
C826 C 0.49672 0.00295 0.5381 0.0
C827 C 0.48109 0.01284 0.52906 0.0
C828 C 0.46304 0.01155 0.55308 0.0
C829 C 0.46031 -0.0003 0.58534 0.0
C830 C 0.51604 0.00377 0.51301 0.0
C831 C 0.4463 0.02221 0.54443 0.0
H832 H 0.51897 0.07722 0.44757 0.0
H833 H 0.46208 0.00469 0.41085 0.0
H834 H 0.5038 0.0654 0.53807 0.0
H835 H 0.52948 0.0611 0.52624 0.0
H836 H 0.52689 0.0865 0.50721 0.0
H837 H 0.43917 0.9706 0.44824 0.0
H838 H 0.45961 0.97015 0.48147 0.0
H839 H 0.43633 0.97817 0.49278 0.0
H840 H 0.50522 0.98321 0.57709 0.0
H841 H 0.44625 -0.00171 0.60365 0.0
H842 H 0.52905 0.02341 0.50477 0.0
H843 H 0.50656 0.99285 0.48924 0.0
H844 H 0.52723 0.99594 0.52453 0.0
H845 H 0.45781 0.04215 0.53631 0.0
H846 H 0.43434 0.0211 0.5668 0.0
H847 H 0.43394 0.01177 0.52219 0.0
C848 C 0.50934 0.54097 0.94134 0.0
C849 C 0.48471 0.52761 0.92852 0.0
C850 C 0.51527 0.53583 0.97444 0.0
C851 C 0.49617 0.51666 -0.00505 0.0
C852 C 0.4712 0.50345 0.98251 0.0
C853 C 0.46574 0.5092 0.94951 0.0
C854 C 0.54209 0.55042 0.98704 0.0
C855 C 0.45039 0.48276 0.00362 0.0
C856 C 0.51666 0.48425 0.05988 0.0
C857 C 0.5156 0.49526 0.0913 0.0
C858 C 0.51014 0.49092 0.02839 0.0
C859 C 0.50266 0.50925 0.02836 0.0
C860 C 0.50151 0.52043 0.06003 0.0
C861 C 0.50784 0.51313 0.0913 0.0
C862 C 0.51122 0.47831 -0.00483 0.0
C863 C 0.49389 0.54025 0.0608 0.0
H864 H 0.52415 0.55503 0.92516 0.0
H865 H 0.44657 0.49918 0.94008 0.0
H866 H 0.54287 0.55828 0.01333 0.0
H867 H 0.54988 0.53765 0.98929 0.0
H868 H 0.55427 0.56607 0.96918 0.0
H869 H 0.43178 0.47507 0.99085 0.0
H870 H 0.45437 0.4672 0.00747 0.0
H871 H 0.44941 0.48984 0.02981 0.0
H872 H 0.52232 0.47015 0.06004 0.0
H873 H 0.50716 0.52168 0.11566 0.0
H874 H 0.52469 0.49258 0.97671 0.0
H875 H 0.49255 0.46891 0.98237 0.0
H876 H 0.517 0.4641 -0.00014 0.0
H877 H 0.50694 0.55652 0.04451 0.0
H878 H 0.49389 0.54703 0.08763 0.0
H879 H 0.47484 0.53264 0.04957 0.0
C880 C 0.01805 0.53047 0.5565 0.0
C881 C 0.03373 0.52157 0.5682 0.0
C882 C 0.00745 0.52444 0.5231 0.0
C883 C 0.01286 0.50934 0.50097 0.0
C884 C 0.0291 0.50075 0.51242 0.0
C885 C 0.03932 0.50695 0.54596 0.0
C886 C 0.99009 0.53381 0.51173 0.0
C887 C 0.03543 0.48477 0.48941 0.0
C888 C 0.96633 0.47213 0.42988 0.0
C889 C 0.97777 0.48712 0.40054 0.0
C890 C 0.97757 0.47918 0.46276 0.0
C891 C 0.00084 0.50174 0.46627 0.0
C892 C 0.0126 0.51688 0.4367 0.0
C893 C 0.00086 0.50941 0.40412 0.0
C894 C 0.96443 0.46263 0.49378 0.0
C895 C 0.03751 0.54097 0.43953 0.0
H896 H 0.01365 0.54168 0.57377 0.0
H897 H 0.05182 0.50045 0.55479 0.0
H898 H -0.00305 0.54458 0.48709 0.0
H899 H 0.97111 0.5176 0.50652 0.0
H900 H 0.98845 0.54601 0.53165 0.0
H901 H 0.04909 0.48039 0.50183 0.0
H902 H 0.01811 0.46683 0.48323 0.0
H903 H 0.0434 0.49454 0.46435 0.0
H904 H 0.94824 0.45512 0.42726 0.0
H905 H 0.00976 0.52094 0.38138 0.0
H906 H 0.96056 0.47341 0.51356 0.0
H907 H 0.97673 0.45648 0.5062 0.0
H908 H 0.94642 0.44568 0.48655 0.0
H909 H 0.03587 0.55408 0.45775 0.0
H910 H 0.04422 0.55049 0.41396 0.0
H911 H 0.05188 0.537 0.45035 0.0
loop_
_geom_bond_atom_site_label_1
_geom_bond_atom_site_label_2
_geom_bond_distance
_geom_bond_site_symmetry_2
_ccdc_geom_bond_type
Li0 N17 1.990 . S
Li0 O60 1.956 . S
Li0 O61 1.970 . S
Li0 O62 1.961 . S
Li1 N25 1.990 . S
Li1 O60 1.970 . S
Li1 O61 1.956 . S
Li1 O63 1.961 . S
Li2 N47 1.990 . S
Li2 O60 1.961 . S
Li2 O62 1.956 . S
Li2 O63 1.970 . S
Li3 N53 1.990 . S
Li3 O61 1.961 . S
Li3 O62 1.970 . S
Li3 O63 1.956 . S
C4 C6 1.348 . S
C4 C7 1.356 . S
C4 O60 1.325 . S
N5 C8 1.314 . S
N5 C9 1.279 . S
C6 C4 1.348 . S
C6 C8 1.353 . S
C6 H64 0.929 . S
C7 C4 1.356 . S
C7 C9 1.358 . S
C7 H65 0.930 . S
C8 N5 1.314 . S
C8 C6 1.353 . S
C8 H66 0.930 . S
C9 N5 1.279 . S
C9 C7 1.358 . S
C9 H67 0.930 . S
C10 C13 1.348 . S
C10 C14 1.356 . S
C10 O61 1.325 . S
C11 N12 1.279 . S
C11 C14 1.358 . S
C11 H68 0.930 . S
N12 C11 1.279 . S
N12 C15 1.314 . S
C13 C10 1.348 . S
C13 C15 1.353 . S
C13 H69 0.929 . S
C14 C10 1.356 . S
C14 C11 1.358 . S
C14 H70 0.930 . S
C15 N12 1.314 . S
C15 C13 1.353 . S
C15 H71 0.930 . S
C16 N17 1.314 . S
C16 C21 1.353 . S
C16 H22 0.930 . S
N17 Li0 1.990 . S
N17 C16 1.314 . S
N17 C19 1.279 . S
C18 C19 1.358 . S
C18 C20 1.356 . S
C18 H72 0.930 . S
C19 N17 1.279 . S
C19 C18 1.358 . S
C19 H23 0.930 . S
C20 C18 1.356 . S
C20 C21 1.348 . S
C21 C16 1.353 . S
C21 C20 1.348 . S
C21 H73 0.929 . S
H22 C16 0.930 . S
H23 C19 0.930 . S
C24 N25 1.314 . S
C24 C26 1.353 . S
C24 H30 0.930 . S
N25 Li1 1.990 . S
N25 C24 1.314 . S
N25 C28 1.279 . S
C26 C24 1.353 . S
C26 C29 1.348 . S
C26 H74 0.929 . S
C27 C28 1.358 . S
C27 C29 1.356 . S
C27 H75 0.930 . S
C28 N25 1.279 . S
C28 C27 1.358 . S
C28 H31 0.930 . S
C29 C26 1.348 . S
C29 C27 1.356 . S
H30 C24 0.930 . S
H31 C28 0.930 . S
C32 C34 1.348 . S
C32 C35 1.356 . S
C32 O62 1.325 . S
N33 C36 1.314 . S
N33 C37 1.279 . S
C34 C32 1.348 . S
C34 C36 1.353 . S
C34 H76 0.929 . S
C35 C32 1.356 . S
C35 C37 1.358 . S
C35 H77 0.930 . S
C36 N33 1.314 . S
C36 C34 1.353 . S
C36 H78 0.930 . S
C37 N33 1.279 . S
C37 C35 1.358 . S
C37 H79 0.930 . S
C38 C39 1.348 . S
C38 C40 1.356 . S
C38 O63 1.325 . S
C39 C38 1.348 . S
C39 C41 1.353 . S
C39 H80 0.929 . S
C40 C38 1.356 . S
C40 C42 1.358 . S
C40 H81 0.930 . S
C41 C39 1.353 . S
C41 N43 1.314 . S
C41 H82 0.930 . S
C42 C40 1.358 . S
C42 N43 1.279 . S
C42 H83 0.930 . S
N43 C41 1.314 . S
N43 C42 1.279 . S
C44 C46 1.353 . S
C44 N47 1.314 . S
C44 H50 0.930 . S
C45 N47 1.279 . S
C45 C48 1.358 . S
C45 H51 0.930 . S
C46 C44 1.353 . S
C46 C49 1.348 . S
C46 H84 0.929 . S
N47 Li2 1.990 . S
N47 C44 1.314 . S
N47 C45 1.279 . S
C48 C45 1.358 . S
C48 C49 1.356 . S
C48 H85 0.930 . S
C49 C46 1.348 . S
C49 C48 1.356 . S
H50 C44 0.930 . S
H51 C45 0.930 . S
C52 N53 1.314 . S
C52 C54 1.353 . S
C52 H58 0.930 . S
N53 Li3 1.990 . S
N53 C52 1.314 . S
N53 C56 1.279 . S
C54 C52 1.353 . S
C54 C57 1.348 . S
C54 H86 0.929 . S
C55 C56 1.358 . S
C55 C57 1.356 . S
C55 H87 0.930 . S
C56 N53 1.279 . S
C56 C55 1.358 . S
C56 H59 0.930 . S
C57 C54 1.348 . S
C57 C55 1.356 . S
H58 C52 0.930 . S
H59 C56 0.930 . S
O60 Li0 1.956 . S
O60 Li1 1.970 . S
O60 Li2 1.961 . S
O60 C4 1.325 . S
O61 Li0 1.970 . S
O61 Li1 1.956 . S
O61 Li3 1.961 . S
O61 C10 1.325 . S
O62 Li0 1.961 . S
O62 Li2 1.956 . S
O62 Li3 1.970 . S
O62 C32 1.325 . S
O63 Li1 1.961 . S
O63 Li2 1.970 . S
O63 Li3 1.956 . S
O63 C38 1.325 . S
H64 C6 0.929 . S
H65 C7 0.930 . S
H66 C8 0.930 . S
H67 C9 0.930 . S
H68 C11 0.930 . S
H69 C13 0.929 . S
H70 C14 0.930 . S
H71 C15 0.930 . S
H72 C18 0.930 . S
H73 C21 0.929 . S
H74 C26 0.929 . S
H75 C27 0.930 . S
H76 C34 0.929 . S
H77 C35 0.930 . S
H78 C36 0.930 . S
H79 C37 0.930 . S
H80 C39 0.929 . S
H81 C40 0.930 . S
H82 C41 0.930 . S
H83 C42 0.930 . S
H84 C46 0.929 . S
H85 C48 0.930 . S
H86 C54 0.929 . S
H87 C55 0.930 . S
Li88 N105 1.990 . S
Li88 O148 1.956 . S
Li88 O149 1.970 . S
Li88 O150 1.961 . S
Li89 N113 1.990 . S
Li89 O148 1.970 . S
Li89 O149 1.956 . S
Li89 O151 1.961 . S
Li90 N135 1.990 . S
Li90 O148 1.961 . S
Li90 O150 1.956 . S
Li90 O151 1.970 . S
Li91 N141 1.990 . S
Li91 O149 1.961 . S
Li91 O150 1.970 . S
Li91 O151 1.956 . S
C92 C94 1.348 . S
C92 C95 1.356 . S
C92 O148 1.325 . S
N93 C96 1.314 . S
N93 C97 1.279 . S
C94 C92 1.348 . S
C94 C96 1.353 . S
C94 H152 0.929 . S
C95 C92 1.356 . S
C95 C97 1.358 . S
C95 H153 0.930 . S
C96 N93 1.314 . S
C96 C94 1.353 . S
C96 H154 0.930 . S
C97 N93 1.279 . S
C97 C95 1.358 . S
C97 H155 0.930 . S
C98 C101 1.348 . S
C98 C102 1.356 . S
C98 O149 1.325 . S
C99 N100 1.279 . S
C99 C102 1.358 . S
C99 H156 0.930 . S
N100 C99 1.279 . S
N100 C103 1.314 . S
C101 C98 1.348 . S
C101 C103 1.353 . S
C101 H157 0.929 . S
C102 C98 1.356 . S
C102 C99 1.358 . S
C102 H158 0.930 . S
C103 N100 1.314 . S
C103 C101 1.353 . S
C103 H159 0.930 . S
C104 N105 1.314 . S
C104 C109 1.353 . S
C104 H110 0.930 . S
N105 Li88 1.990 . S
N105 C104 1.314 . S
N105 C107 1.279 . S
C106 C107 1.358 . S
C106 C108 1.356 . S
C106 H160 0.930 . S
C107 N105 1.279 . S
C107 C106 1.358 . S
C107 H111 0.930 . S
C108 C106 1.356 . S
C108 C109 1.348 . S
C109 C104 1.353 . S
C109 C108 1.348 . S
C109 H161 0.929 . S
H110 C104 0.930 . S
H111 C107 0.930 . S
C112 N113 1.314 . S
C112 C114 1.353 . S
C112 H118 0.930 . S
N113 Li89 1.990 . S
N113 C112 1.314 . S
N113 C116 1.279 . S
C114 C112 1.353 . S
C114 C117 1.348 . S
C114 H162 0.929 . S
C115 C116 1.358 . S
C115 C117 1.356 . S
C115 H163 0.930 . S
C116 N113 1.279 . S
C116 C115 1.358 . S
C116 H119 0.930 . S
C117 C114 1.348 . S
C117 C115 1.356 . S
H118 C112 0.930 . S
H119 C116 0.930 . S
C120 C122 1.348 . S
C120 C123 1.356 . S
C120 O150 1.325 . S
N121 C124 1.314 . S
N121 C125 1.279 . S
C122 C120 1.348 . S
C122 C124 1.353 . S
C122 H164 0.929 . S
C123 C120 1.356 . S
C123 C125 1.358 . S
C123 H165 0.930 . S
C124 N121 1.314 . S
C124 C122 1.353 . S
C124 H166 0.930 . S
C125 N121 1.279 . S
C125 C123 1.358 . S
C125 H167 0.930 . S
C126 C127 1.348 . S
C126 C128 1.356 . S
C126 O151 1.325 . S
C127 C126 1.348 . S
C127 C129 1.353 . S
C127 H168 0.929 . S
C128 C126 1.356 . S
C128 C130 1.358 . S
C128 H169 0.930 . S
C129 C127 1.353 . S
C129 N131 1.314 . S
C129 H170 0.930 . S
C130 C128 1.358 . S
C130 N131 1.279 . S
C130 H171 0.930 . S
N131 C129 1.314 . S
N131 C130 1.279 . S
C132 C134 1.353 . S
C132 N135 1.314 . S
C132 H138 0.930 . S
C133 N135 1.279 . S
C133 C136 1.358 . S
C133 H139 0.930 . S
C134 C132 1.353 . S
C134 C137 1.348 . S
C134 H172 0.929 . S
N135 Li90 1.990 . S
N135 C132 1.314 . S
N135 C133 1.279 . S
C136 C133 1.358 . S
C136 C137 1.356 . S
C136 H173 0.930 . S
C137 C134 1.348 . S
C137 C136 1.356 . S
H138 C132 0.930 . S
H139 C133 0.930 . S
C140 N141 1.314 . S
C140 C142 1.353 . S
C140 H146 0.930 . S
N141 Li91 1.990 . S
N141 C140 1.314 . S
N141 C144 1.279 . S
C142 C140 1.353 . S
C142 C145 1.348 . S
C142 H174 0.929 . S
C143 C144 1.358 . S
C143 C145 1.356 . S
C143 H175 0.930 . S
C144 N141 1.279 . S
C144 C143 1.358 . S
C144 H147 0.930 . S
C145 C142 1.348 . S
C145 C143 1.356 . S
H146 C140 0.930 . S
H147 C144 0.930 . S
O148 Li88 1.956 . S
O148 Li89 1.970 . S
O148 Li90 1.961 . S
O148 C92 1.325 . S
O149 Li88 1.970 . S
O149 Li89 1.956 . S
O149 Li91 1.961 . S
O149 C98 1.325 . S
O150 Li88 1.961 . S
O150 Li90 1.956 . S
O150 Li91 1.970 . S
O150 C120 1.325 . S
O151 Li89 1.961 . S
O151 Li90 1.970 . S
O151 Li91 1.956 . S
O151 C126 1.325 . S
H152 C94 0.929 . S
H153 C95 0.930 . S
H154 C96 0.930 . S
H155 C97 0.930 . S
H156 C99 0.930 . S
H157 C101 0.929 . S
H158 C102 0.930 . S
H159 C103 0.930 . S
H160 C106 0.930 . S
H161 C109 0.929 . S
H162 C114 0.929 . S
H163 C115 0.930 . S
H164 C122 0.929 . S
H165 C123 0.930 . S
H166 C124 0.930 . S
H167 C125 0.930 . S
H168 C127 0.929 . S
H169 C128 0.930 . S
H170 C129 0.930 . S
H171 C130 0.930 . S
H172 C134 0.929 . S
H173 C136 0.930 . S
H174 C142 0.929 . S
H175 C143 0.930 . S
Li176 N193 1.990 . S
Li176 O236 1.956 . S
Li176 O237 1.970 . S
Li176 O238 1.961 . S
Li177 N201 1.990 . S
Li177 O236 1.970 . S
Li177 O237 1.956 . S
Li177 O239 1.961 . S
Li178 N223 1.990 . S
Li178 O236 1.961 . S
Li178 O238 1.956 . S
Li178 O239 1.970 . S
Li179 N229 1.990 . S
Li179 O237 1.961 . S
Li179 O238 1.970 . S
Li179 O239 1.956 . S
C180 C182 1.348 . S
C180 C183 1.356 . S
C180 O236 1.325 . S
N181 C184 1.314 . S
N181 C185 1.279 . S
C182 C180 1.348 . S
C182 C184 1.353 . S
C182 H240 0.929 . S
C183 C180 1.356 . S
C183 C185 1.358 . S
C183 H241 0.930 . S
C184 N181 1.314 . S
C184 C182 1.353 . S
C184 H242 0.930 . S
C185 N181 1.279 . S
C185 C183 1.358 . S
C185 H243 0.930 . S
C186 C189 1.348 . S
C186 C190 1.356 . S
C186 O237 1.325 . S
C187 N188 1.279 . S
C187 C190 1.358 . S
C187 H244 0.930 . S
N188 C187 1.279 . S
N188 C191 1.314 . S
C189 C186 1.348 . S
C189 C191 1.353 . S
C189 H245 0.929 . S
C190 C186 1.356 . S
C190 C187 1.358 . S
C190 H246 0.930 . S
C191 N188 1.314 . S
C191 C189 1.353 . S
C191 H247 0.930 . S
C192 N193 1.314 . S
C192 C197 1.353 . S
C192 H198 0.930 . S
N193 Li176 1.990 . S
N193 C192 1.314 . S
N193 C195 1.279 . S
C194 C195 1.358 . S
C194 C196 1.356 . S
C194 H248 0.930 . S
C195 N193 1.279 . S
C195 C194 1.358 . S
C195 H199 0.930 . S
C196 C194 1.356 . S
C196 C197 1.348 . S
C197 C192 1.353 . S
C197 C196 1.348 . S
C197 H249 0.929 . S
H198 C192 0.930 . S
H199 C195 0.930 . S
C200 N201 1.314 . S
C200 C202 1.353 . S
C200 H206 0.930 . S
N201 Li177 1.990 . S
N201 C200 1.314 . S
N201 C204 1.279 . S
C202 C200 1.353 . S
C202 C205 1.348 . S
C202 H250 0.929 . S
C203 C204 1.358 . S
C203 C205 1.356 . S
C203 H251 0.930 . S
C204 N201 1.279 . S
C204 C203 1.358 . S
C204 H207 0.930 . S
C205 C202 1.348 . S
C205 C203 1.356 . S
H206 C200 0.930 . S
H207 C204 0.930 . S
C208 C210 1.348 . S
C208 C211 1.356 . S
C208 O238 1.325 . S
N209 C212 1.314 . S
N209 C213 1.279 . S
C210 C208 1.348 . S
C210 C212 1.353 . S
C210 H252 0.929 . S
C211 C208 1.356 . S
C211 C213 1.358 . S
C211 H253 0.930 . S
C212 N209 1.314 . S
C212 C210 1.353 . S
C212 H254 0.930 . S
C213 N209 1.279 . S
C213 C211 1.358 . S
C213 H255 0.930 . S
C214 C215 1.348 . S
C214 C216 1.356 . S
C214 O239 1.325 . S
C215 C214 1.348 . S
C215 C217 1.353 . S
C215 H256 0.929 . S
C216 C214 1.356 . S
C216 C218 1.358 . S
C216 H257 0.930 . S
C217 C215 1.353 . S
C217 N219 1.314 . S
C217 H258 0.930 . S
C218 C216 1.358 . S
C218 N219 1.279 . S
C218 H259 0.930 . S
N219 C217 1.314 . S
N219 C218 1.279 . S
C220 C222 1.353 . S
C220 N223 1.314 . S
C220 H226 0.930 . S
C221 N223 1.279 . S
C221 C224 1.358 . S
C221 H227 0.930 . S
C222 C220 1.353 . S
C222 C225 1.348 . S
C222 H260 0.929 . S
N223 Li178 1.990 . S
N223 C220 1.314 . S
N223 C221 1.279 . S
C224 C221 1.358 . S
C224 C225 1.356 . S
C224 H261 0.930 . S
C225 C222 1.348 . S
C225 C224 1.356 . S
H226 C220 0.930 . S
H227 C221 0.930 . S
C228 N229 1.314 . S
C228 C230 1.353 . S
C228 H234 0.930 . S
N229 Li179 1.990 . S
N229 C228 1.314 . S
N229 C232 1.279 . S
C230 C228 1.353 . S
C230 C233 1.348 . S
C230 H262 0.929 . S
C231 C232 1.358 . S
C231 C233 1.356 . S
C231 H263 0.930 . S
C232 N229 1.279 . S
C232 C231 1.358 . S
C232 H235 0.930 . S
C233 C230 1.348 . S
C233 C231 1.356 . S
H234 C228 0.930 . S
H235 C232 0.930 . S
O236 Li176 1.956 . S
O236 Li177 1.970 . S
O236 Li178 1.961 . S
O236 C180 1.325 . S
O237 Li176 1.970 . S
O237 Li177 1.956 . S
O237 Li179 1.961 . S
O237 C186 1.325 . S
O238 Li176 1.961 . S
O238 Li178 1.956 . S
O238 Li179 1.970 . S
O238 C208 1.325 . S
O239 Li177 1.961 . S
O239 Li178 1.970 . S
O239 Li179 1.956 . S
O239 C214 1.325 . S
H240 C182 0.929 . S
H241 C183 0.930 . S
H242 C184 0.930 . S
H243 C185 0.930 . S
H244 C187 0.930 . S
H245 C189 0.929 . S
H246 C190 0.930 . S
H247 C191 0.930 . S
H248 C194 0.930 . S
H249 C197 0.929 . S
H250 C202 0.929 . S
H251 C203 0.930 . S
H252 C210 0.929 . S
H253 C211 0.930 . S
H254 C212 0.930 . S
H255 C213 0.930 . S
H256 C215 0.929 . S
H257 C216 0.930 . S
H258 C217 0.930 . S
H259 C218 0.930 . S
H260 C222 0.929 . S
H261 C224 0.930 . S
H262 C230 0.929 . S
H263 C231 0.930 . S
Li264 N281 1.990 . S
Li264 O324 1.956 . S
Li264 O325 1.970 . S
Li264 O326 1.961 . S
Li265 N289 1.990 . S
Li265 O324 1.970 . S
Li265 O325 1.956 . S
Li265 O327 1.961 . S
Li266 N311 1.990 . S
Li266 O324 1.961 . S
Li266 O326 1.956 . S
Li266 O327 1.970 . S
Li267 N317 1.990 . S
Li267 O325 1.961 . S
Li267 O326 1.970 . S
Li267 O327 1.956 . S
C268 C270 1.348 . S
C268 C271 1.356 . S
C268 O324 1.325 . S
N269 C272 1.314 . S
N269 C273 1.279 . S
C270 C268 1.348 . S
C270 C272 1.353 . S
C270 H328 0.929 . S
C271 C268 1.356 . S
C271 C273 1.358 . S
C271 H329 0.930 . S
C272 N269 1.314 . S
C272 C270 1.353 . S
C272 H330 0.930 . S
C273 N269 1.279 . S
C273 C271 1.358 . S
C273 H331 0.930 . S
C274 C277 1.348 . S
C274 C278 1.356 . S
C274 O325 1.325 . S
C275 N276 1.279 . S
C275 C278 1.358 . S
C275 H332 0.930 . S
N276 C275 1.279 . S
N276 C279 1.314 . S
C277 C274 1.348 . S
C277 C279 1.353 . S
C277 H333 0.929 . S
C278 C274 1.356 . S
C278 C275 1.358 . S
C278 H334 0.930 . S
C279 N276 1.314 . S
C279 C277 1.353 . S
C279 H335 0.930 . S
C280 N281 1.314 . S
C280 C285 1.353 . S
C280 H286 0.930 . S
N281 Li264 1.990 . S
N281 C280 1.314 . S
N281 C283 1.279 . S
C282 C283 1.358 . S
C282 C284 1.356 . S
C282 H336 0.930 . S
C283 N281 1.279 . S
C283 C282 1.358 . S
C283 H287 0.930 . S
C284 C282 1.356 . S
C284 C285 1.348 . S
C285 C280 1.353 . S
C285 C284 1.348 . S
C285 H337 0.929 . S
H286 C280 0.930 . S
H287 C283 0.930 . S
C288 N289 1.314 . S
C288 C290 1.353 . S
C288 H294 0.930 . S
N289 Li265 1.990 . S
N289 C288 1.314 . S
N289 C292 1.279 . S
C290 C288 1.353 . S
C290 C293 1.348 . S
C290 H338 0.929 . S
C291 C292 1.358 . S
C291 C293 1.356 . S
C291 H339 0.930 . S
C292 N289 1.279 . S
C292 C291 1.358 . S
C292 H295 0.930 . S
C293 C290 1.348 . S
C293 C291 1.356 . S
H294 C288 0.930 . S
H295 C292 0.930 . S
C296 C298 1.348 . S
C296 C299 1.356 . S
C296 O326 1.325 . S
N297 C300 1.314 . S
N297 C301 1.279 . S
C298 C296 1.348 . S
C298 C300 1.353 . S
C298 H340 0.929 . S
C299 C296 1.356 . S
C299 C301 1.358 . S
C299 H341 0.930 . S
C300 N297 1.314 . S
C300 C298 1.353 . S
C300 H342 0.930 . S
C301 N297 1.279 . S
C301 C299 1.358 . S
C301 H343 0.930 . S
C302 C303 1.348 . S
C302 C304 1.356 . S
C302 O327 1.325 . S
C303 C302 1.348 . S
C303 C305 1.353 . S
C303 H344 0.929 . S
C304 C302 1.356 . S
C304 C306 1.358 . S
C304 H345 0.930 . S
C305 C303 1.353 . S
C305 N307 1.314 . S
C305 H346 0.930 . S
C306 C304 1.358 . S
C306 N307 1.279 . S
C306 H347 0.930 . S
N307 C305 1.314 . S
N307 C306 1.279 . S
C308 C310 1.353 . S
C308 N311 1.314 . S
C308 H314 0.930 . S
C309 N311 1.279 . S
C309 C312 1.358 . S
C309 H315 0.930 . S
C310 C308 1.353 . S
C310 C313 1.348 . S
C310 H348 0.929 . S
N311 Li266 1.990 . S
N311 C308 1.314 . S
N311 C309 1.279 . S
C312 C309 1.358 . S
C312 C313 1.356 . S
C312 H349 0.930 . S
C313 C310 1.348 . S
C313 C312 1.356 . S
H314 C308 0.930 . S
H315 C309 0.930 . S
C316 N317 1.314 . S
C316 C318 1.353 . S
C316 H322 0.930 . S
N317 Li267 1.990 . S
N317 C316 1.314 . S
N317 C320 1.279 . S
C318 C316 1.353 . S
C318 C321 1.348 . S
C318 H350 0.929 . S
C319 C320 1.358 . S
C319 C321 1.356 . S
C319 H351 0.930 . S
C320 N317 1.279 . S
C320 C319 1.358 . S
C320 H323 0.930 . S
C321 C318 1.348 . S
C321 C319 1.356 . S
H322 C316 0.930 . S
H323 C320 0.930 . S
O324 Li264 1.956 . S
O324 Li265 1.970 . S
O324 Li266 1.961 . S
O324 C268 1.325 . S
O325 Li264 1.970 . S
O325 Li265 1.956 . S
O325 Li267 1.961 . S
O325 C274 1.325 . S
O326 Li264 1.961 . S
O326 Li266 1.956 . S
O326 Li267 1.970 . S
O326 C296 1.325 . S
O327 Li265 1.961 . S
O327 Li266 1.970 . S
O327 Li267 1.956 . S
O327 C302 1.325 . S
H328 C270 0.929 . S
H329 C271 0.930 . S
H330 C272 0.930 . S
H331 C273 0.930 . S
H332 C275 0.930 . S
H333 C277 0.929 . S
H334 C278 0.930 . S
H335 C279 0.930 . S
H336 C282 0.930 . S
H337 C285 0.929 . S
H338 C290 0.929 . S
H339 C291 0.930 . S
H340 C298 0.929 . S
H341 C299 0.930 . S
H342 C300 0.930 . S
H343 C301 0.930 . S
H344 C303 0.929 . S
H345 C304 0.930 . S
H346 C305 0.930 . S
H347 C306 0.930 . S
H348 C310 0.929 . S
H349 C312 0.930 . S
H350 C318 0.929 . S
H351 C319 0.930 . S
Li352 N369 1.990 . S
Li352 O412 1.956 . S
Li352 O413 1.970 . S
Li352 O414 1.961 . S
Li353 N377 1.990 . S
Li353 O412 1.970 . S
Li353 O413 1.956 . S
Li353 O415 1.961 . S
Li354 N399 1.990 . S
Li354 O412 1.961 . S
Li354 O414 1.956 . S
Li354 O415 1.970 . S
Li355 N405 1.990 . S
Li355 O413 1.961 . S
Li355 O414 1.970 . S
Li355 O415 1.956 . S
C356 C358 1.348 . S
C356 C359 1.356 . S
C356 O412 1.325 . S
N357 C360 1.314 . S
N357 C361 1.279 . S
C358 C356 1.348 . S
C358 C360 1.353 . S
C358 H416 0.929 . S
C359 C356 1.356 . S
C359 C361 1.358 . S
C359 H417 0.930 . S
C360 N357 1.314 . S
C360 C358 1.353 . S
C360 H418 0.930 . S
C361 N357 1.279 . S
C361 C359 1.358 . S
C361 H419 0.930 . S
C362 C365 1.348 . S
C362 C366 1.356 . S
C362 O413 1.325 . S
C363 N364 1.279 . S
C363 C366 1.358 . S
C363 H420 0.930 . S
N364 C363 1.279 . S
N364 C367 1.314 . S
C365 C362 1.348 . S
C365 C367 1.353 . S
C365 H421 0.929 . S
C366 C362 1.356 . S
C366 C363 1.358 . S
C366 H422 0.930 . S
C367 N364 1.314 . S
C367 C365 1.353 . S
C367 H423 0.930 . S
C368 N369 1.314 . S
C368 C373 1.353 . S
C368 H374 0.930 . S
N369 Li352 1.990 . S
N369 C368 1.314 . S
N369 C371 1.279 . S
C370 C371 1.358 . S
C370 C372 1.356 . S
C370 H424 0.930 . S
C371 N369 1.279 . S
C371 C370 1.358 . S
C371 H375 0.930 . S
C372 C370 1.356 . S
C372 C373 1.348 . S
C373 C368 1.353 . S
C373 C372 1.348 . S
C373 H425 0.929 . S
H374 C368 0.930 . S
H375 C371 0.930 . S
C376 N377 1.314 . S
C376 C378 1.353 . S
C376 H382 0.930 . S
N377 Li353 1.990 . S
N377 C376 1.314 . S
N377 C380 1.279 . S
C378 C376 1.353 . S
C378 C381 1.348 . S
C378 H426 0.929 . S
C379 C380 1.358 . S
C379 C381 1.356 . S
C379 H427 0.930 . S
C380 N377 1.279 . S
C380 C379 1.358 . S
C380 H383 0.930 . S
C381 C378 1.348 . S
C381 C379 1.356 . S
H382 C376 0.930 . S
H383 C380 0.930 . S
C384 C386 1.348 . S
C384 C387 1.356 . S
C384 O414 1.325 . S
N385 C388 1.314 . S
N385 C389 1.279 . S
C386 C384 1.348 . S
C386 C388 1.353 . S
C386 H428 0.929 . S
C387 C384 1.356 . S
C387 C389 1.358 . S
C387 H429 0.930 . S
C388 N385 1.314 . S
C388 C386 1.353 . S
C388 H430 0.930 . S
C389 N385 1.279 . S
C389 C387 1.358 . S
C389 H431 0.930 . S
C390 C391 1.348 . S
C390 C392 1.356 . S
C390 O415 1.325 . S
C391 C390 1.348 . S
C391 C393 1.353 . S
C391 H432 0.929 . S
C392 C390 1.356 . S
C392 C394 1.358 . S
C392 H433 0.930 . S
C393 C391 1.353 . S
C393 N395 1.314 . S
C393 H434 0.930 . S
C394 C392 1.358 . S
C394 N395 1.279 . S
C394 H435 0.930 . S
N395 C393 1.314 . S
N395 C394 1.279 . S
C396 C398 1.353 . S
C396 N399 1.314 . S
C396 H402 0.930 . S
C397 N399 1.279 . S
C397 C400 1.358 . S
C397 H403 0.930 . S
C398 C396 1.353 . S
C398 C401 1.348 . S
C398 H436 0.929 . S
N399 Li354 1.990 . S
N399 C396 1.314 . S
N399 C397 1.279 . S
C400 C397 1.358 . S
C400 C401 1.356 . S
C400 H437 0.930 . S
C401 C398 1.348 . S
C401 C400 1.356 . S
H402 C396 0.930 . S
H403 C397 0.930 . S
C404 N405 1.314 . S
C404 C406 1.353 . S
C404 H410 0.930 . S
N405 Li355 1.990 . S
N405 C404 1.314 . S
N405 C408 1.279 . S
C406 C404 1.353 . S
C406 C409 1.348 . S
C406 H438 0.929 . S
C407 C408 1.358 . S
C407 C409 1.356 . S
C407 H439 0.930 . S
C408 N405 1.279 . S
C408 C407 1.358 . S
C408 H411 0.930 . S
C409 C406 1.348 . S
C409 C407 1.356 . S
H410 C404 0.930 . S
H411 C408 0.930 . S
O412 Li352 1.956 . S
O412 Li353 1.970 . S
O412 Li354 1.961 . S
O412 C356 1.325 . S
O413 Li352 1.970 . S
O413 Li353 1.956 . S
O413 Li355 1.961 . S
O413 C362 1.325 . S
O414 Li352 1.961 . S
O414 Li354 1.956 . S
O414 Li355 1.970 . S
O414 C384 1.325 . S
O415 Li353 1.961 . S
O415 Li354 1.970 . S
O415 Li355 1.956 . S
O415 C390 1.325 . S
H416 C358 0.929 . S
H417 C359 0.930 . S
H418 C360 0.930 . S
H419 C361 0.930 . S
H420 C363 0.930 . S
H421 C365 0.929 . S
H422 C366 0.930 . S
H423 C367 0.930 . S
H424 C370 0.930 . S
H425 C373 0.929 . S
H426 C378 0.929 . S
H427 C379 0.930 . S
H428 C386 0.929 . S
H429 C387 0.930 . S
H430 C388 0.930 . S
H431 C389 0.930 . S
H432 C391 0.929 . S
H433 C392 0.930 . S
H434 C393 0.930 . S
H435 C394 0.930 . S
H436 C398 0.929 . S
H437 C400 0.930 . S
H438 C406 0.929 . S
H439 C407 0.930 . S
Li440 N457 1.990 . S
Li440 O500 1.956 . S
Li440 O501 1.970 . S
Li440 O502 1.961 . S
Li441 N465 1.990 . S
Li441 O500 1.970 . S
Li441 O501 1.956 . S
Li441 O503 1.961 . S
Li442 N487 1.990 . S
Li442 O500 1.961 . S
Li442 O502 1.956 . S
Li442 O503 1.970 . S
Li443 N493 1.990 . S
Li443 O501 1.961 . S
Li443 O502 1.970 . S
Li443 O503 1.956 . S
C444 C446 1.348 . S
C444 C447 1.356 . S
C444 O500 1.325 . S
N445 C448 1.314 . S
N445 C449 1.279 . S
C446 C444 1.348 . S
C446 C448 1.353 . S
C446 H504 0.929 . S
C447 C444 1.356 . S
C447 C449 1.358 . S
C447 H505 0.930 . S
C448 N445 1.314 . S
C448 C446 1.353 . S
C448 H506 0.930 . S
C449 N445 1.279 . S
C449 C447 1.358 . S
C449 H507 0.930 . S
C450 C453 1.348 . S
C450 C454 1.356 . S
C450 O501 1.325 . S
C451 N452 1.279 . S
C451 C454 1.358 . S
C451 H508 0.930 . S
N452 C451 1.279 . S
N452 C455 1.314 . S
C453 C450 1.348 . S
C453 C455 1.353 . S
C453 H509 0.929 . S
C454 C450 1.356 . S
C454 C451 1.358 . S
C454 H510 0.930 . S
C455 N452 1.314 . S
C455 C453 1.353 . S
C455 H511 0.930 . S
C456 N457 1.314 . S
C456 C461 1.353 . S
C456 H462 0.930 . S
N457 Li440 1.990 . S
N457 C456 1.314 . S
N457 C459 1.279 . S
C458 C459 1.358 . S
C458 C460 1.356 . S
C458 H512 0.930 . S
C459 N457 1.279 . S
C459 C458 1.358 . S
C459 H463 0.930 . S
C460 C458 1.356 . S
C460 C461 1.348 . S
C461 C456 1.353 . S
C461 C460 1.348 . S
C461 H513 0.929 . S
H462 C456 0.930 . S
H463 C459 0.930 . S
C464 N465 1.314 . S
C464 C466 1.353 . S
C464 H470 0.930 . S
N465 Li441 1.990 . S
N465 C464 1.314 . S
N465 C468 1.279 . S
C466 C464 1.353 . S
C466 C469 1.348 . S
C466 H514 0.929 . S
C467 C468 1.358 . S
C467 C469 1.356 . S
C467 H515 0.930 . S
C468 N465 1.279 . S
C468 C467 1.358 . S
C468 H471 0.930 . S
C469 C466 1.348 . S
C469 C467 1.356 . S
H470 C464 0.930 . S
H471 C468 0.930 . S
C472 C474 1.348 . S
C472 C475 1.356 . S
C472 O502 1.325 . S
N473 C476 1.314 . S
N473 C477 1.279 . S
C474 C472 1.348 . S
C474 C476 1.353 . S
C474 H516 0.929 . S
C475 C472 1.356 . S
C475 C477 1.358 . S
C475 H517 0.930 . S
C476 N473 1.314 . S
C476 C474 1.353 . S
C476 H518 0.930 . S
C477 N473 1.279 . S
C477 C475 1.358 . S
C477 H519 0.930 . S
C478 C479 1.348 . S
C478 C480 1.356 . S
C478 O503 1.325 . S
C479 C478 1.348 . S
C479 C481 1.353 . S
C479 H520 0.929 . S
C480 C478 1.356 . S
C480 C482 1.358 . S
C480 H521 0.930 . S
C481 C479 1.353 . S
C481 N483 1.314 . S
C481 H522 0.930 . S
C482 C480 1.358 . S
C482 N483 1.279 . S
C482 H523 0.930 . S
N483 C481 1.314 . S
N483 C482 1.279 . S
C484 C486 1.353 . S
C484 N487 1.314 . S
C484 H490 0.930 . S
C485 N487 1.279 . S
C485 C488 1.358 . S
C485 H491 0.930 . S
C486 C484 1.353 . S
C486 C489 1.348 . S
C486 H524 0.929 . S
N487 Li442 1.990 . S
N487 C484 1.314 . S
N487 C485 1.279 . S
C488 C485 1.358 . S
C488 C489 1.356 . S
C488 H525 0.930 . S
C489 C486 1.348 . S
C489 C488 1.356 . S
H490 C484 0.930 . S
H491 C485 0.930 . S
C492 N493 1.314 . S
C492 C494 1.353 . S
C492 H498 0.930 . S
N493 Li443 1.990 . S
N493 C492 1.314 . S
N493 C496 1.279 . S
C494 C492 1.353 . S
C494 C497 1.348 . S
C494 H526 0.929 . S
C495 C496 1.358 . S
C495 C497 1.356 . S
C495 H527 0.930 . S
C496 N493 1.279 . S
C496 C495 1.358 . S
C496 H499 0.930 . S
C497 C494 1.348 . S
C497 C495 1.356 . S
H498 C492 0.930 . S
H499 C496 0.930 . S
O500 Li440 1.956 . S
O500 Li441 1.970 . S
O500 Li442 1.961 . S
O500 C444 1.325 . S
O501 Li440 1.970 . S
O501 Li441 1.956 . S
O501 Li443 1.961 . S
O501 C450 1.325 . S
O502 Li440 1.961 . S
O502 Li442 1.956 . S
O502 Li443 1.970 . S
O502 C472 1.325 . S
O503 Li441 1.961 . S
O503 Li442 1.970 . S
O503 Li443 1.956 . S
O503 C478 1.325 . S
H504 C446 0.929 . S
H505 C447 0.930 . S
H506 C448 0.930 . S
H507 C449 0.930 . S
H508 C451 0.930 . S
H509 C453 0.929 . S
H510 C454 0.930 . S
H511 C455 0.930 . S
H512 C458 0.930 . S
H513 C461 0.929 . S
H514 C466 0.929 . S
H515 C467 0.930 . S
H516 C474 0.929 . S
H517 C475 0.930 . S
H518 C476 0.930 . S
H519 C477 0.930 . S
H520 C479 0.929 . S
H521 C480 0.930 . S
H522 C481 0.930 . S
H523 C482 0.930 . S
H524 C486 0.929 . S
H525 C488 0.930 . S
H526 C494 0.929 . S
H527 C495 0.930 . S
C528 C529 1.391 . S
C528 C530 1.394 . S
C528 H544 0.931 . S
C529 C528 1.391 . S
C529 C533 1.376 . S
C530 C528 1.394 . S
C530 C531 1.369 . S
C530 C534 1.531 . S
C531 C530 1.369 . S
C531 C532 1.410 . S
C531 C539 1.503 . S
C532 C531 1.410 . S
C532 C533 1.392 . S
C532 C535 1.511 . S
C533 C529 1.376 . S
C533 C532 1.392 . S
C533 H545 0.929 . S
C534 C530 1.531 . S
C534 H546 0.960 . S
C534 H547 0.962 . S
C534 H548 0.960 . S
C535 C532 1.511 . S
C535 H549 0.961 . S
C535 H550 0.961 . S
C535 H551 0.961 . S
C536 C537 1.370 . S
C536 C538 1.363 . S
C536 H552 0.931 . S
C537 C536 1.370 . S
C537 C541 1.408 . S
C538 C536 1.363 . S
C538 C539 1.370 . S
C538 C542 1.524 . S
C539 C531 1.503 . S
C539 C538 1.370 . S
C539 C540 1.403 . S
C540 C539 1.403 . S
C540 C541 1.404 . S
C540 C543 1.539 . S
C541 C537 1.408 . S
C541 C540 1.404 . S
C541 H553 0.930 . S
C542 C538 1.524 . S
C542 H554 0.956 . S
C542 H555 0.961 . S
C542 H556 0.961 . S
C543 C540 1.539 . S
C543 H557 0.958 . S
C543 H558 0.961 . S
C543 H559 0.960 . S
H544 C528 0.931 . S
H545 C533 0.929 . S
H546 C534 0.960 . S
H547 C534 0.962 . S
H548 C534 0.960 . S
H549 C535 0.961 . S
H550 C535 0.961 . S
H551 C535 0.961 . S
H552 C536 0.931 . S
H553 C541 0.930 . S
H554 C542 0.956 . S
H555 C542 0.961 . S
H556 C542 0.961 . S
H557 C543 0.958 . S
H558 C543 0.961 . S
H559 C543 0.960 . S
C560 C561 1.391 . S
C560 C562 1.394 . S
C560 H576 0.931 . S
C561 C560 1.391 . S
C561 C565 1.376 . S
C562 C560 1.394 . S
C562 C563 1.369 . S
C562 C566 1.531 . S
C563 C562 1.369 . S
C563 C564 1.410 . S
C563 C571 1.503 . S
C564 C563 1.410 . S
C564 C565 1.392 . S
C564 C567 1.511 . S
C565 C561 1.376 . S
C565 C564 1.392 . S
C565 H577 0.929 . S
C566 C562 1.531 . S
C566 H578 0.960 . S
C566 H579 0.962 . S
C566 H580 0.960 . S
C567 C564 1.511 . S
C567 H581 0.961 . S
C567 H582 0.961 . S
C567 H583 0.961 . S
C568 C569 1.370 . S
C568 C570 1.363 . S
C568 H584 0.931 . S
C569 C568 1.370 . S
C569 C573 1.408 . S
C570 C568 1.363 . S
C570 C571 1.370 . S
C570 C574 1.524 . S
C571 C563 1.503 . S
C571 C570 1.370 . S
C571 C572 1.403 . S
C572 C571 1.403 . S
C572 C573 1.404 . S
C572 C575 1.539 . S
C573 C569 1.408 . S
C573 C572 1.404 . S
C573 H585 0.930 . S
C574 C570 1.524 . S
C574 H586 0.956 . S
C574 H587 0.961 . S
C574 H588 0.961 . S
C575 C572 1.539 . S
C575 H589 0.958 . S
C575 H590 0.961 . S
C575 H591 0.960 . S
H576 C560 0.931 . S
H577 C565 0.929 . S
H578 C566 0.960 . S
H579 C566 0.962 . S
H580 C566 0.960 . S
H581 C567 0.961 . S
H582 C567 0.961 . S
H583 C567 0.961 . S
H584 C568 0.931 . S
H585 C573 0.930 . S
H586 C574 0.956 . S
H587 C574 0.961 . S
H588 C574 0.961 . S
H589 C575 0.958 . S
H590 C575 0.961 . S
H591 C575 0.960 . S
C592 C593 1.391 . S
C592 C594 1.394 . S
C592 H608 0.931 . S
C593 C592 1.391 . S
C593 C597 1.376 . S
C594 C592 1.394 . S
C594 C595 1.369 . S
C594 C598 1.531 . S
C595 C594 1.369 . S
C595 C596 1.410 . S
C595 C603 1.503 . S
C596 C595 1.410 . S
C596 C597 1.392 . S
C596 C599 1.511 . S
C597 C593 1.376 . S
C597 C596 1.392 . S
C597 H609 0.929 . S
C598 C594 1.531 . S
C598 H610 0.960 . S
C598 H611 0.962 . S
C598 H612 0.960 . S
C599 C596 1.511 . S
C599 H613 0.961 . S
C599 H614 0.961 . S
C599 H615 0.961 . S
C600 C601 1.370 . S
C600 C602 1.363 . S
C600 H616 0.931 . S
C601 C600 1.370 . S
C601 C605 1.408 . S
C602 C600 1.363 . S
C602 C603 1.370 . S
C602 C606 1.524 . S
C603 C595 1.503 . S
C603 C602 1.370 . S
C603 C604 1.403 . S
C604 C603 1.403 . S
C604 C605 1.404 . S
C604 C607 1.539 . S
C605 C601 1.408 . S
C605 C604 1.404 . S
C605 H617 0.930 . S
C606 C602 1.524 . S
C606 H618 0.956 . S
C606 H619 0.961 . S
C606 H620 0.961 . S
C607 C604 1.539 . S
C607 H621 0.958 . S
C607 H622 0.961 . S
C607 H623 0.960 . S
H608 C592 0.931 . S
H609 C597 0.929 . S
H610 C598 0.960 . S
H611 C598 0.962 . S
H612 C598 0.960 . S
H613 C599 0.961 . S
H614 C599 0.961 . S
H615 C599 0.961 . S
H616 C600 0.931 . S
H617 C605 0.930 . S
H618 C606 0.956 . S
H619 C606 0.961 . S
H620 C606 0.961 . S
H621 C607 0.958 . S
H622 C607 0.961 . S
H623 C607 0.960 . S
C624 C625 1.391 . S
C624 C626 1.394 . S
C624 H640 0.931 . S
C625 C624 1.391 . S
C625 C629 1.376 . S
C626 C624 1.394 . S
C626 C627 1.369 . S
C626 C630 1.531 . S
C627 C626 1.369 . S
C627 C628 1.410 . S
C627 C635 1.503 . S
C628 C627 1.410 . S
C628 C629 1.392 . S
C628 C631 1.511 . S
C629 C625 1.376 . S
C629 C628 1.392 . S
C629 H641 0.929 . S
C630 C626 1.531 . S
C630 H642 0.960 . S
C630 H643 0.962 . S
C630 H644 0.960 . S
C631 C628 1.511 . S
C631 H645 0.961 . S
C631 H646 0.961 . S
C631 H647 0.961 . S
C632 C633 1.370 . S
C632 C634 1.363 . S
C632 H648 0.931 . S
C633 C632 1.370 . S
C633 C637 1.408 . S
C634 C632 1.363 . S
C634 C635 1.370 . S
C634 C638 1.524 . S
C635 C627 1.503 . S
C635 C634 1.370 . S
C635 C636 1.403 . S
C636 C635 1.403 . S
C636 C637 1.404 . S
C636 C639 1.539 . S
C637 C633 1.408 . S
C637 C636 1.404 . S
C637 H649 0.930 . S
C638 C634 1.524 . S
C638 H650 0.956 . S
C638 H651 0.961 . S
C638 H652 0.961 . S
C639 C636 1.539 . S
C639 H653 0.958 . S
C639 H654 0.961 . S
C639 H655 0.960 . S
H640 C624 0.931 . S
H641 C629 0.929 . S
H642 C630 0.960 . S
H643 C630 0.962 . S
H644 C630 0.960 . S
H645 C631 0.961 . S
H646 C631 0.961 . S
H647 C631 0.961 . S
H648 C632 0.931 . S
H649 C637 0.930 . S
H650 C638 0.956 . S
H651 C638 0.961 . S
H652 C638 0.961 . S
H653 C639 0.958 . S
H654 C639 0.961 . S
H655 C639 0.960 . S
C656 C657 1.391 . S
C656 C658 1.394 . S
C656 H672 0.931 . S
C657 C656 1.391 . S
C657 C661 1.376 . S
C658 C656 1.394 . S
C658 C659 1.369 . S
C658 C662 1.531 . S
C659 C658 1.369 . S
C659 C660 1.410 . S
C659 C667 1.503 . S
C660 C659 1.410 . S
C660 C661 1.392 . S
C660 C663 1.511 . S
C661 C657 1.376 . S
C661 C660 1.392 . S
C661 H673 0.929 . S
C662 C658 1.531 . S
C662 H674 0.960 . S
C662 H675 0.962 . S
C662 H676 0.960 . S
C663 C660 1.511 . S
C663 H677 0.961 . S
C663 H678 0.961 . S
C663 H679 0.961 . S
C664 C665 1.370 . S
C664 C666 1.363 . S
C664 H680 0.931 . S
C665 C664 1.370 . S
C665 C669 1.408 . S
C666 C664 1.363 . S
C666 C667 1.370 . S
C666 C670 1.524 . S
C667 C659 1.503 . S
C667 C666 1.370 . S
C667 C668 1.403 . S
C668 C667 1.403 . S
C668 C669 1.404 . S
C668 C671 1.539 . S
C669 C665 1.408 . S
C669 C668 1.404 . S
C669 H681 0.930 . S
C670 C666 1.524 . S
C670 H682 0.956 . S
C670 H683 0.961 . S
C670 H684 0.961 . S
C671 C668 1.539 . S
C671 H685 0.958 . S
C671 H686 0.961 . S
C671 H687 0.960 . S
H672 C656 0.931 . S
H673 C661 0.929 . S
H674 C662 0.960 . S
H675 C662 0.962 . S
H676 C662 0.960 . S
H677 C663 0.961 . S
H678 C663 0.961 . S
H679 C663 0.961 . S
H680 C664 0.931 . S
H681 C669 0.930 . S
H682 C670 0.956 . S
H683 C670 0.961 . S
H684 C670 0.961 . S
H685 C671 0.958 . S
H686 C671 0.961 . S
H687 C671 0.960 . S
C688 C689 1.391 . S
C688 C690 1.394 . S
C688 H704 0.931 . S
C689 C688 1.391 . S
C689 C693 1.376 . S
C690 C688 1.394 . S
C690 C691 1.369 . S
C690 C694 1.531 . S
C691 C690 1.369 . S
C691 C692 1.410 . S
C691 C699 1.503 . S
C692 C691 1.410 . S
C692 C693 1.392 . S
C692 C695 1.511 . S
C693 C689 1.376 . S
C693 C692 1.392 . S
C693 H705 0.929 . S
C694 C690 1.531 . S
C694 H706 0.960 . S
C694 H707 0.962 . S
C694 H708 0.960 . S
C695 C692 1.511 . S
C695 H709 0.961 . S
C695 H710 0.961 . S
C695 H711 0.961 . S
C696 C697 1.370 . S
C696 C698 1.363 . S
C696 H712 0.931 . S
C697 C696 1.370 . S
C697 C701 1.408 . S
C698 C696 1.363 . S
C698 C699 1.370 . S
C698 C702 1.524 . S
C699 C691 1.503 . S
C699 C698 1.370 . S
C699 C700 1.403 . S
C700 C699 1.403 . S
C700 C701 1.404 . S
C700 C703 1.539 . S
C701 C697 1.408 . S
C701 C700 1.404 . S
C701 H713 0.930 . S
C702 C698 1.524 . S
C702 H714 0.956 . S
C702 H715 0.961 . S
C702 H716 0.961 . S
C703 C700 1.539 . S
C703 H717 0.958 . S
C703 H718 0.961 . S
C703 H719 0.960 . S
H704 C688 0.931 . S
H705 C693 0.929 . S
H706 C694 0.960 . S
H707 C694 0.962 . S
H708 C694 0.960 . S
H709 C695 0.961 . S
H710 C695 0.961 . S
H711 C695 0.961 . S
H712 C696 0.931 . S
H713 C701 0.930 . S
H714 C702 0.956 . S
H715 C702 0.961 . S
H716 C702 0.961 . S
H717 C703 0.958 . S
H718 C703 0.961 . S
H719 C703 0.960 . S
C720 C721 1.391 . S
C720 C722 1.394 . S
C720 H736 0.931 . S
C721 C720 1.391 . S
C721 C725 1.376 . S
C722 C720 1.394 . S
C722 C723 1.369 . S
C722 C726 1.531 1_556 S
C723 C722 1.369 . S
C723 C724 1.410 1_565 S
C723 C731 1.503 1_566 S
C724 C723 1.410 1_545 S
C724 C725 1.392 1_545 S
C724 C727 1.511 . S
C725 C721 1.376 . S
C725 C724 1.392 1_565 S
C725 H737 0.929 1_565 S
C726 C722 1.531 1_554 S
C726 H738 0.960 . S
C726 H739 0.962 . S
C726 H740 0.960 . S
C727 C724 1.511 . S
C727 H741 0.961 . S
C727 H742 0.961 . S
C727 H743 0.961 . S
C728 C729 1.370 . S
C728 C730 1.363 . S
C728 H744 0.931 . S
C729 C728 1.370 . S
C729 C733 1.408 . S
C730 C728 1.363 . S
C730 C731 1.370 . S
C730 C734 1.524 . S
C731 C723 1.503 1_544 S
C731 C730 1.370 . S
C731 C732 1.403 . S
C732 C731 1.403 . S
C732 C733 1.404 . S
C732 C735 1.539 1_545 S
C733 C729 1.408 . S
C733 C732 1.404 . S
C733 H745 0.930 . S
C734 C730 1.524 . S
C734 H746 0.956 1_554 S
C734 H747 0.961 1_554 S
C734 H748 0.961 . S
C735 C732 1.539 1_565 S
C735 H749 0.958 . S
C735 H750 0.961 . S
C735 H751 0.960 . S
H736 C720 0.931 . S
H737 C725 0.929 1_545 S
H738 C726 0.960 . S
H739 C726 0.962 . S
H740 C726 0.960 . S
H741 C727 0.961 . S
H742 C727 0.961 . S
H743 C727 0.961 . S
H744 C728 0.931 . S
H745 C733 0.930 . S
H746 C734 0.956 1_556 S
H747 C734 0.961 1_556 S
H748 C734 0.961 . S
H749 C735 0.958 . S
H750 C735 0.961 . S
H751 C735 0.960 . S
C752 C753 1.391 . S
C752 C754 1.394 . S
C752 H768 0.931 . S
C753 C752 1.391 . S
C753 C757 1.376 . S
C754 C752 1.394 . S
C754 C755 1.369 . S
C754 C758 1.531 . S
C755 C754 1.369 . S
C755 C756 1.410 . S
C755 C763 1.503 . S
C756 C755 1.410 . S
C756 C757 1.392 . S
C756 C759 1.511 . S
C757 C753 1.376 . S
C757 C756 1.392 . S
C757 H769 0.929 . S
C758 C754 1.531 . S
C758 H770 0.960 . S
C758 H771 0.962 . S
C758 H772 0.960 . S
C759 C756 1.511 . S
C759 H773 0.961 . S
C759 H774 0.961 . S
C759 H775 0.961 . S
C760 C761 1.370 . S
C760 C762 1.363 . S
C760 H776 0.931 . S
C761 C760 1.370 . S
C761 C765 1.408 . S
C762 C760 1.363 . S
C762 C763 1.370 . S
C762 C766 1.524 . S
C763 C755 1.503 . S
C763 C762 1.370 . S
C763 C764 1.403 . S
C764 C763 1.403 . S
C764 C765 1.404 . S
C764 C767 1.539 . S
C765 C761 1.408 . S
C765 C764 1.404 . S
C765 H777 0.930 . S
C766 C762 1.524 . S
C766 H778 0.956 . S
C766 H779 0.961 . S
C766 H780 0.961 . S
C767 C764 1.539 . S
C767 H781 0.958 . S
C767 H782 0.961 . S
C767 H783 0.960 . S
H768 C752 0.931 . S
H769 C757 0.929 . S
H770 C758 0.960 . S
H771 C758 0.962 . S
H772 C758 0.960 . S
H773 C759 0.961 . S
H774 C759 0.961 . S
H775 C759 0.961 . S
H776 C760 0.931 . S
H777 C765 0.930 . S
H778 C766 0.956 . S
H779 C766 0.961 . S
H780 C766 0.961 . S
H781 C767 0.958 . S
H782 C767 0.961 . S
H783 C767 0.960 . S
C784 C785 1.391 . S
C784 C786 1.394 1_455 S
C784 H800 0.931 1_455 S
C785 C784 1.391 . S
C785 C789 1.376 . S
C786 C784 1.394 1_655 S
C786 C787 1.369 1_655 S
C786 C790 1.531 . S
C787 C786 1.369 1_455 S
C787 C788 1.410 . S
C787 C795 1.503 1_456 S
C788 C787 1.410 . S
C788 C789 1.392 . S
C788 C791 1.511 1_556 S
C789 C785 1.376 . S
C789 C788 1.392 . S
C789 H801 0.929 . S
C790 C786 1.531 . S
C790 H802 0.960 . S
C790 H803 0.962 . S
C790 H804 0.960 . S
C791 C788 1.511 1_554 S
C791 H805 0.961 . S
C791 H806 0.961 . S
C791 H807 0.961 . S
C792 C793 1.370 . S
C792 C794 1.363 . S
C792 H808 0.931 . S
C793 C792 1.370 . S
C793 C797 1.408 . S
C794 C792 1.363 . S
C794 C795 1.370 . S
C794 C798 1.524 1_655 S
C795 C787 1.503 1_654 S
C795 C794 1.370 . S
C795 C796 1.403 . S
C796 C795 1.403 . S
C796 C797 1.404 . S
C796 C799 1.539 . S
C797 C793 1.408 . S
C797 C796 1.404 . S
C797 H809 0.930 . S
C798 C794 1.524 1_455 S
C798 H810 0.956 . S
C798 H811 0.961 . S
C798 H812 0.961 . S
C799 C796 1.539 . S
C799 H813 0.958 1_554 S
C799 H814 0.961 . S
C799 H815 0.960 1_554 S
H800 C784 0.931 1_655 S
H801 C789 0.929 . S
H802 C790 0.960 . S
H803 C790 0.962 . S
H804 C790 0.960 . S
H805 C791 0.961 . S
H806 C791 0.961 . S
H807 C791 0.961 . S
H808 C792 0.931 . S
H809 C797 0.930 . S
H810 C798 0.956 . S
H811 C798 0.961 . S
H812 C798 0.961 . S
H813 C799 0.958 1_556 S
H814 C799 0.961 . S
H815 C799 0.960 1_556 S
C816 C817 1.391 . S
C816 C818 1.394 . S
C816 H832 0.931 . S
C817 C816 1.391 . S
C817 C821 1.376 . S
C818 C816 1.394 . S
C818 C819 1.369 . S
C818 C822 1.531 . S
C819 C818 1.369 . S
C819 C820 1.410 . S
C819 C827 1.503 1_545 S
C820 C819 1.410 . S
C820 C821 1.397 . S
C820 C823 1.507 1_545 S
C821 C817 1.376 . S
C821 C820 1.397 . S
C821 H833 0.929 . S
C822 C818 1.531 . S
C822 H834 0.960 . S
C822 H835 0.962 . S
C822 H836 0.960 . S
C823 C820 1.507 1_565 S
C823 H837 0.961 . S
C823 H838 0.961 . S
C823 H839 0.961 . S
C824 C825 1.370 . S
C824 C826 1.363 . S
C824 H840 0.931 . S
C825 C824 1.370 . S
C825 C829 1.408 . S
C826 C824 1.363 . S
C826 C827 1.370 . S
C826 C830 1.524 . S
C827 C819 1.503 1_565 S
C827 C826 1.370 . S
C827 C828 1.403 1_565 S
C828 C827 1.403 1_545 S
C828 C829 1.404 1_545 S
C828 C831 1.539 . S
C829 C825 1.408 . S
C829 C828 1.404 1_565 S
C829 H841 0.930 . S
C830 C826 1.524 . S
C830 H842 0.956 . S
C830 H843 0.961 . S
C830 H844 0.961 . S
C831 C828 1.539 . S
C831 H845 0.958 . S
C831 H846 0.961 . S
C831 H847 0.960 . S
H832 C816 0.931 . S
H833 C821 0.929 . S
H834 C822 0.960 . S
H835 C822 0.962 . S
H836 C822 0.960 . S
H837 C823 0.961 . S
H838 C823 0.961 . S
H839 C823 0.961 . S
H840 C824 0.931 . S
H841 C829 0.930 . S
H842 C830 0.956 . S
H843 C830 0.961 . S
H844 C830 0.961 . S
H845 C831 0.958 . S
H846 C831 0.961 . S
H847 C831 0.960 . S
C848 C849 1.391 . S
C848 C850 1.394 . S
C848 H864 0.931 . S
C849 C848 1.391 . S
C849 C853 1.376 . S
C850 C848 1.394 . S
C850 C851 1.369 . S
C850 C854 1.531 . S
C851 C850 1.369 . S
C851 C852 1.410 . S
C851 C859 1.503 1_556 S
C852 C851 1.410 . S
C852 C853 1.392 . S
C852 C855 1.511 . S
C853 C849 1.376 . S
C853 C852 1.392 . S
C853 H865 0.929 . S
C854 C850 1.531 . S
C854 H866 0.960 1_556 S
C854 H867 0.962 . S
C854 H868 0.960 . S
C855 C852 1.511 . S
C855 H869 0.961 . S
C855 H870 0.961 1_556 S
C855 H871 0.961 1_556 S
C856 C857 1.370 . S
C856 C858 1.363 . S
C856 H872 0.931 . S
C857 C856 1.370 . S
C857 C861 1.408 . S
C858 C856 1.363 . S
C858 C859 1.370 . S
C858 C862 1.524 1_554 S
C859 C851 1.503 1_554 S
C859 C858 1.370 . S
C859 C860 1.403 . S
C860 C859 1.403 . S
C860 C861 1.404 . S
C860 C863 1.539 . S
C861 C857 1.408 . S
C861 C860 1.404 . S
C861 H873 0.930 . S
C862 C858 1.524 1_556 S
C862 H874 0.956 . S
C862 H875 0.961 . S
C862 H876 0.961 . S
C863 C860 1.539 . S
C863 H877 0.958 . S
C863 H878 0.961 . S
C863 H879 0.960 . S
H864 C848 0.931 . S
H865 C853 0.929 . S
H866 C854 0.960 1_554 S
H867 C854 0.962 . S
H868 C854 0.960 . S
H869 C855 0.961 . S
H870 C855 0.961 1_554 S
H871 C855 0.961 1_554 S
H872 C856 0.931 . S
H873 C861 0.930 . S
H874 C862 0.956 . S
H875 C862 0.961 . S
H876 C862 0.961 . S
H877 C863 0.958 . S
H878 C863 0.961 . S
H879 C863 0.960 . S
C880 C881 1.391 . S
C880 C882 1.394 . S
C880 H896 0.931 . S
C881 C880 1.391 . S
C881 C885 1.376 . S
C882 C880 1.394 . S
C882 C883 1.369 . S
C882 C886 1.531 . S
C883 C882 1.369 . S
C883 C884 1.410 . S
C883 C891 1.503 1_455 S
C884 C883 1.410 . S
C884 C885 1.392 . S
C884 C887 1.511 . S
C885 C881 1.376 . S
C885 C884 1.392 . S
C885 H897 0.929 . S
C886 C882 1.531 . S
C886 H898 0.960 . S
C886 H899 0.962 1_455 S
C886 H900 0.960 . S
C887 C884 1.511 . S
C887 H901 0.961 . S
C887 H902 0.961 1_455 S
C887 H903 0.961 . S
C888 C889 1.370 . S
C888 C890 1.363 . S
C888 H904 0.931 . S
C889 C888 1.370 . S
C889 C893 1.408 . S
C890 C888 1.363 . S
C890 C891 1.370 . S
C890 C894 1.524 . S
C891 C883 1.503 1_655 S
C891 C890 1.370 . S
C891 C892 1.403 1_655 S
C892 C891 1.403 1_455 S
C892 C893 1.404 1_455 S
C892 C895 1.539 . S
C893 C889 1.408 . S
C893 C892 1.404 1_655 S
C893 H905 0.930 1_655 S
C894 C890 1.524 . S
C894 H906 0.956 . S
C894 H907 0.961 . S
C894 H908 0.961 . S
C895 C892 1.539 . S
C895 H909 0.958 . S
C895 H910 0.961 . S
C895 H911 0.960 . S
H896 C880 0.931 . S
H897 C885 0.929 . S
H898 C886 0.960 . S
H899 C886 0.962 1_655 S
H900 C886 0.960 . S
H901 C887 0.961 . S
H902 C887 0.961 1_655 S
H903 C887 0.961 . S
H904 C888 0.931 . S
H905 C893 0.930 1_455 S
H906 C894 0.956 . S
H907 C894 0.961 . S
H908 C894 0.961 . S
H909 C895 0.958 . S
H910 C895 0.961 . S
H911 C895 0.960 . S
C529 C20 0.886 . S
C537 C381 0.873 . S
C561 C137 0.885 . S
C569 C469 0.873 . S
C593 C29 0.826 . S
C601 C233 0.845 . S
C625 C313 0.818 . S
C633 C117 0.845 . S
C657 C401 0.887 . S
C665 C196 0.873 . S
C689 C321 0.871 . S
C697 C489 0.867 . S
C721 C293 1.254 . S
C729 C49 1.262 . S
C753 C372 1.253 . S
C761 C145 1.274 . S
C785 C460 1.273 . S
C793 C225 1.267 . S
C817 C57 1.250 . S
C825 C284 1.264 . S
C849 C108 1.251 . S
C857 C409 1.274 . S
C881 C497 1.251 . S
C889 C205 1.273 . S
