# Generated by pormake.
# Topology umo, (4)-cn, num edge types: 1
# Building blocks:
#     Node 0, Type 0, BuildingBlock: KOZSID_clean_sbu_0, # of connection points: 4
#     Node 1, Type 0, BuildingBlock: KOZSID_clean_sbu_0, # of connection points: 4
#     Node 2, Type 0, BuildingBlock: KOZSID_clean_sbu_0, # of connection points: 4
#     Node 3, Type 0, BuildingBlock: KOZSID_clean_sbu_0, # of connection points: 4
#     Node 4, Type 0, BuildingBlock: KOZSID_clean_sbu_0, # of connection points: 4
#     Node 5, Type 0, BuildingBlock: KOZSID_clean_sbu_0, # of connection points: 4
#     Node 6, Type 0, BuildingBlock: KOZSID_clean_sbu_0, # of connection points: 4
#     Node 7, Type 0, BuildingBlock: KOZSID_clean_sbu_0, # of connection points: 4
#     Node 8, Type 0, BuildingBlock: KOZSID_clean_sbu_0, # of connection points: 4
#     Node 9, Type 0, BuildingBlock: KOZSID_clean_sbu_0, # of connection points: 4
#     Node 10, Type 0, BuildingBlock: KOZSID_clean_sbu_0, # of connection points: 4
#     Node 11, Type 0, BuildingBlock: KOZSID_clean_sbu_0, # of connection points: 4
#     Edge 12, Type (0, 0), BuildingBlock: KIFKEQ_clean_linker_1, # of connection points: 2
#     Edge 13, Type (0, 0), BuildingBlock: KIFKEQ_clean_linker_1, # of connection points: 2
#     Edge 14, Type (0, 0), BuildingBlock: KIFKEQ_clean_linker_1, # of connection points: 2
#     Edge 15, Type (0, 0), BuildingBlock: KIFKEQ_clean_linker_1, # of connection points: 2
#     Edge 16, Type (0, 0), BuildingBlock: KIFKEQ_clean_linker_1, # of connection points: 2
#     Edge 17, Type (0, 0), BuildingBlock: KIFKEQ_clean_linker_1, # of connection points: 2
#     Edge 18, Type (0, 0), BuildingBlock: KIFKEQ_clean_linker_1, # of connection points: 2
#     Edge 19, Type (0, 0), BuildingBlock: KIFKEQ_clean_linker_1, # of connection points: 2
#     Edge 20, Type (0, 0), BuildingBlock: KIFKEQ_clean_linker_1, # of connection points: 2
#     Edge 21, Type (0, 0), BuildingBlock: KIFKEQ_clean_linker_1, # of connection points: 2
#     Edge 22, Type (0, 0), BuildingBlock: KIFKEQ_clean_linker_1, # of connection points: 2
#     Edge 23, Type (0, 0), BuildingBlock: KIFKEQ_clean_linker_1, # of connection points: 2
#     Edge 24, Type (0, 0), BuildingBlock: KIFKEQ_clean_linker_1, # of connection points: 2
#     Edge 25, Type (0, 0), BuildingBlock: KIFKEQ_clean_linker_1, # of connection points: 2
#     Edge 26, Type (0, 0), BuildingBlock: KIFKEQ_clean_linker_1, # of connection points: 2
#     Edge 27, Type (0, 0), BuildingBlock: KIFKEQ_clean_linker_1, # of connection points: 2
#     Edge 28, Type (0, 0), BuildingBlock: KIFKEQ_clean_linker_1, # of connection points: 2
#     Edge 29, Type (0, 0), BuildingBlock: KIFKEQ_clean_linker_1, # of connection points: 2
#     Edge 30, Type (0, 0), BuildingBlock: KIFKEQ_clean_linker_1, # of connection points: 2
#     Edge 31, Type (0, 0), BuildingBlock: KIFKEQ_clean_linker_1, # of connection points: 2
#     Edge 32, Type (0, 0), BuildingBlock: KIFKEQ_clean_linker_1, # of connection points: 2
#     Edge 33, Type (0, 0), BuildingBlock: KIFKEQ_clean_linker_1, # of connection points: 2
#     Edge 34, Type (0, 0), BuildingBlock: KIFKEQ_clean_linker_1, # of connection points: 2
#     Edge 35, Type (0, 0), BuildingBlock: KIFKEQ_clean_linker_1, # of connection points: 2
# Relax obj value: 0.199
# Max RMSD: 0.249
# Mean RMSD: 0.249
data_MOF--net-umo--node1-KOZSID_clean_sbu_0--edge1-KIFKEQ_clean_linker_1
_symmetry_space_group_name_H-M    P1
_symmetry_Int_Tables_number       1
_symmetry_cell_setting            triclinic
loop_
_symmetry_equiv_pos_as_xyz
'x, y, z'
_cell_length_a     65.379658
_cell_length_b     65.385543
_cell_length_c     39.624895
_cell_angle_alpha  89.998469
_cell_angle_beta   89.975498
_cell_angle_gamma 120.10519
loop_
_atom_site_label
_atom_site_type_symbol
_atom_site_fract_x
_atom_site_fract_y
_atom_site_fract_z
_atom_type_partial_charge
C0 C 0.20681 0.52468 0.34218 0.0
C1 C 0.21093 0.50589 0.33987 0.0
C2 C 0.1999 0.49157 0.36721 0.0
C3 C 0.18966 0.50239 0.38451 0.0
N4 N 0.19354 0.52245 0.36951 0.0
Co5 Co 0.18308 0.5442 0.38579 0.0
N6 N 0.18006 0.53243 0.43246 0.0
C7 C 0.17802 0.51165 0.44161 0.0
C8 C 0.1763 0.50835 0.47593 0.0
C9 C 0.1771 0.52818 0.48901 0.0
C10 C 0.17911 0.54248 0.46179 0.0
N11 N 0.17243 0.56589 0.40204 0.0
C12 C 0.17185 0.57308 0.43391 0.0
C13 C 0.16257 0.58807 0.43418 0.0
C14 C 0.15715 0.59012 0.40122 0.0
C15 C 0.16332 0.57627 0.38265 0.0
N16 N 0.18643 0.55574 0.33891 0.0
C17 C 0.17618 0.56731 0.32571 0.0
C18 C 0.1836 0.57461 0.29313 0.0
C19 C 0.19948 0.56717 0.28579 0.0
C20 C 0.20082 0.55567 0.31434 0.0
N21 N 0.14968 0.52013 0.37702 0.0
C22 C 0.1011 0.49141 0.36166 0.0
C23 C 0.11865 0.4937 0.33891 0.0
C24 C 0.14279 0.50817 0.34699 0.0
C25 C 0.10858 0.50289 0.39288 0.0
C26 C 0.13271 0.51687 0.40012 0.0
N27 N 0.21605 0.56876 0.39433 0.0
C28 C 0.24601 0.60983 0.39018 0.0
C29 C 0.26256 0.60554 0.40616 0.0
C30 C 0.25547 0.58217 0.41549 0.0
C31 C 0.23201 0.56401 0.40958 0.0
C32 C 0.22313 0.59139 0.38446 0.0
H33 H 0.22672 0.54622 0.41743 0.0
H34 H 0.2111 0.59561 0.37201 0.0
H35 H 0.15587 0.51032 0.32851 0.0
H36 H 0.13756 0.52576 0.42415 0.0
C37 C 0.18174 0.4978 0.41804 0.0
C38 C 0.21517 0.54418 0.31799 0.0
C39 C 0.17813 0.56442 0.46427 0.0
C40 C 0.16487 0.57583 0.34714 0.0
H41 H 0.22116 0.50312 0.32082 0.0
H42 H 0.20064 0.47604 0.37471 0.0
H43 H 0.17547 0.49373 0.4899 0.0
H44 H 0.17612 0.53155 0.51552 0.0
H45 H 0.15985 0.59645 0.45591 0.0
H46 H 0.15034 0.6011 0.39186 0.0
H47 H 0.17931 0.58546 0.27738 0.0
H48 H 0.20919 0.57025 0.26246 0.0
H49 H 0.11383 0.48516 0.31447 0.0
H50 H 0.09581 0.50133 0.41164 0.0
H51 H 0.25075 0.62747 0.38194 0.0
H52 H 0.26773 0.57806 0.42789 0.0
C53 C 0.69134 0.20227 0.51141 0.0
C54 C 0.71431 0.20627 0.51096 0.0
C55 C 0.71662 0.19513 0.53887 0.0
C56 C 0.6951 0.18513 0.5549 0.0
N57 N 0.6795 0.18926 0.53864 0.0
Co58 Co 0.64707 0.17953 0.55357 0.0
N59 N 0.65468 0.17627 0.6008 0.0
C60 C 0.67291 0.17371 0.61102 0.0
C61 C 0.67372 0.17184 0.64543 0.0
C62 C 0.6547 0.1731 0.65747 0.0
C63 C 0.64322 0.17554 0.62956 0.0
N64 N 0.61455 0.16965 0.56845 0.0
C65 C 0.60623 0.16919 0.59994 0.0
C66 C 0.58202 0.16042 0.59919 0.0
C67 C 0.57512 0.15516 0.56599 0.0
C68 C 0.59543 0.16093 0.54831 0.0
N69 N 0.63991 0.18301 0.50625 0.0
C70 C 0.61833 0.1731 0.49219 0.0
C71 C 0.61926 0.18024 0.45924 0.0
C72 C 0.64286 0.19557 0.45256 0.0
C73 C 0.65502 0.19698 0.48189 0.0
N74 N 0.63711 0.14595 0.54522 0.0
C75 C 0.61742 0.09731 0.53037 0.0
C76 C 0.63336 0.11482 0.50808 0.0
C77 C 0.6429 0.13896 0.51588 0.0
C78 C 0.61251 0.10487 0.56087 0.0
C79 C 0.62258 0.12904 0.56788 0.0
N80 N 0.65623 0.21274 0.56155 0.0
C81 C 0.64759 0.24417 0.55334 0.0
C82 C 0.66866 0.26044 0.56929 0.0
C83 C 0.68325 0.25211 0.58194 0.0
C84 C 0.67676 0.22821 0.5777 0.0
C85 C 0.64174 0.22064 0.54982 0.0
H86 H 0.68836 0.22225 0.58719 0.0
H87 H 0.62541 0.20885 0.53726 0.0
H88 H 0.65444 0.15198 0.49773 0.0
H89 H 0.61797 0.13398 0.59139 0.0
C90 C 0.69085 0.17715 0.58838 0.0
C91 C 0.68087 0.21058 0.48589 0.0
C92 C 0.62053 0.17508 0.63092 0.0
C93 C 0.59806 0.16229 0.51289 0.0
H94 H 0.72816 0.21651 0.49298 0.0
H95 H 0.73259 0.19573 0.54761 0.0
H96 H 0.68701 0.17061 0.66014 0.0
H97 H 0.6498 0.17212 0.68375 0.0
H98 H 0.57056 0.1579 0.62042 0.0
H99 H 0.55755 0.14867 0.5559 0.0
H100 H 0.6045 0.17603 0.4427 0.0
H101 H 0.65026 0.20482 0.42908 0.0
H102 H 0.63776 0.10995 0.48419 0.0
H103 H 0.60074 0.09216 0.57928 0.0
H104 H 0.63541 0.24946 0.54385 0.0
H105 H 0.69972 0.26401 0.5945 0.0
C106 C 0.49771 0.68751 0.6788 0.0
C107 C 0.51683 0.71044 0.67837 0.0
C108 C 0.53057 0.71252 0.70582 0.0
C109 C 0.51908 0.69092 0.72163 0.0
N110 N 0.49905 0.6755 0.70566 0.0
Co111 Co 0.47643 0.64302 0.72045 0.0
N112 N 0.48776 0.65043 0.76743 0.0
C113 C 0.50891 0.66828 0.77736 0.0
C114 C 0.51208 0.66858 0.81165 0.0
C115 C 0.4917 0.64966 0.82385 0.0
C116 C 0.47714 0.6389 0.79619 0.0
N117 N 0.454 0.61041 0.73529 0.0
C118 C 0.44601 0.60214 0.76677 0.0
C119 C 0.4299 0.57806 0.76582 0.0
C120 C 0.42821 0.57119 0.7326 0.0
C121 C 0.44322 0.59138 0.71501 0.0
N122 N 0.4652 0.6361 0.67337 0.0
C123 C 0.45329 0.61459 0.65917 0.0
C124 C 0.44675 0.61566 0.62646 0.0
C125 C 0.45508 0.6393 0.62011 0.0
C126 C 0.46618 0.65134 0.64937 0.0
N127 N 0.49999 0.63318 0.71099 0.0
C128 C 0.52945 0.6142 0.69531 0.0
C129 C 0.52648 0.62903 0.67252 0.0
C130 C 0.51189 0.63843 0.6809 0.0
C131 C 0.51779 0.60978 0.7265 0.0
C132 C 0.50326 0.6193 0.73375 0.0
N133 N 0.45241 0.652 0.72964 0.0
C134 C 0.41162 0.64192 0.72594 0.0
C135 C 0.41657 0.6628 0.74241 0.0
C136 C 0.44006 0.67853 0.75189 0.0
C137 C 0.45773 0.67268 0.74555 0.0
C138 C 0.42965 0.63698 0.71961 0.0
H139 H 0.47561 0.68474 0.75362 0.0
H140 H 0.42501 0.62079 0.7066 0.0
H141 H 0.5098 0.64954 0.66269 0.0
H142 H 0.49407 0.61476 0.75759 0.0
C143 C 0.52328 0.68635 0.75473 0.0
C144 C 0.47871 0.67721 0.65352 0.0
C145 C 0.45439 0.61669 0.79764 0.0
C146 C 0.44405 0.59422 0.67963 0.0
H147 H 0.52038 0.72442 0.66067 0.0
H148 H 0.54618 0.72838 0.71442 0.0
H149 H 0.52705 0.68143 0.8262 0.0
H150 H 0.48811 0.64425 0.85001 0.0
H151 H 0.42025 0.56666 0.78676 0.0
H152 H 0.41652 0.55379 0.72236 0.0
H153 H 0.43599 0.60098 0.60989 0.0
H154 H 0.45305 0.6468 0.59687 0.0
H155 H 0.53531 0.63333 0.64828 0.0
H156 H 0.51917 0.5983 0.74493 0.0
H157 H 0.39379 0.6294 0.71784 0.0
H158 H 0.4446 0.69488 0.76478 0.0
C159 C 0.81842 0.49399 0.84447 0.0
C160 C 0.81381 0.51254 0.84341 0.0
C161 C 0.82482 0.52653 0.87094 0.0
C162 C 0.83539 0.51575 0.88737 0.0
N163 N 0.8317 0.49594 0.87171 0.0
Co164 Co 0.84249 0.47425 0.88731 0.0
N165 N 0.84574 0.48576 0.93419 0.0
C166 C 0.84766 0.50639 0.94383 0.0
C167 C 0.84953 0.50948 0.97818 0.0
C168 C 0.84894 0.48965 0.99079 0.0
C169 C 0.84688 0.47556 0.96326 0.0
N170 N 0.85357 0.45276 0.90285 0.0
C171 C 0.85439 0.44543 0.93455 0.0
C172 C 0.86387 0.43062 0.9343 0.0
C173 C 0.86918 0.42881 0.90117 0.0
C174 C 0.86273 0.44263 0.88303 0.0
N175 N 0.83886 0.46285 0.84036 0.0
C176 C 0.84924 0.45154 0.82666 0.0
C177 C 0.84198 0.4447 0.7939 0.0
C178 C 0.8261 0.45218 0.78696 0.0
C179 C 0.82449 0.46314 0.81595 0.0
N180 N 0.87575 0.49857 0.87809 0.0
C181 C 0.92418 0.52822 0.86212 0.0
C182 C 0.90628 0.52478 0.8392 0.0
C183 C 0.88229 0.51011 0.84772 0.0
C184 C 0.91703 0.51709 0.89368 0.0
C185 C 0.89297 0.50248 0.9011 0.0
N186 N 0.80966 0.44946 0.89621 0.0
C187 C 0.77989 0.40833 0.89184 0.0
C188 C 0.76326 0.4124 0.90807 0.0
C189 C 0.77024 0.43569 0.9177 0.0
C190 C 0.79364 0.45398 0.91177 0.0
C191 C 0.80271 0.4269 0.88612 0.0
H192 H 0.79883 0.47171 0.91983 0.0
H193 H 0.81479 0.42285 0.87342 0.0
H194 H 0.86901 0.50756 0.82935 0.0
H195 H 0.8884 0.49364 0.9252 0.0
C196 C 0.84355 0.52019 0.92075 0.0
C197 C 0.81042 0.47491 0.81946 0.0
C198 C 0.84798 0.45369 0.96519 0.0
C199 C 0.86089 0.44315 0.84758 0.0
H200 H 0.80324 0.5155 0.82524 0.0
H201 H 0.82381 0.54178 0.87919 0.0
H202 H 0.85029 0.52395 0.99248 0.0
H203 H 0.85006 0.48612 0.01719 0.0
H204 H 0.86676 0.42216 0.95578 0.0
H205 H 0.87606 0.41799 0.89142 0.0
H206 H 0.84656 0.43429 0.77765 0.0
H207 H 0.81666 0.44974 0.7635 0.0
H208 H 0.91073 0.53325 0.8147 0.0
H209 H 0.92996 0.51886 0.91226 0.0
H210 H 0.77525 0.39077 0.88336 0.0
H211 H 0.75793 0.43963 0.93033 0.0
C212 C 0.33378 0.81433 0.01098 0.0
C213 C 0.31074 0.8101 0.01019 0.0
C214 C 0.30816 0.82128 0.03783 0.0
C215 C 0.3296 0.83154 0.05406 0.0
N216 N 0.34541 0.82752 0.03816 0.0
Co217 Co 0.37785 0.83767 0.05349 0.0
N218 N 0.36992 0.84104 0.10051 0.0
C219 C 0.3515 0.8434 0.11037 0.0
C220 C 0.35049 0.84536 0.14473 0.0
C221 C 0.36957 0.84438 0.15712 0.0
C222 C 0.38129 0.842 0.12946 0.0
N223 N 0.41038 0.84805 0.06874 0.0
C224 C 0.41859 0.84874 0.10036 0.0
C225 C 0.44285 0.85778 0.09987 0.0
C226 C 0.44988 0.86295 0.0667 0.0
C227 C 0.42961 0.85686 0.04876 0.0
N228 N 0.3853 0.83398 0.00638 0.0
C229 C 0.40695 0.84401 0.99251 0.0
C230 C 0.40625 0.83671 0.9597 0.0
C231 C 0.38272 0.82116 0.95291 0.0
C232 C 0.37037 0.81979 0.98204 0.0
N233 N 0.38745 0.8711 0.04457 0.0
C234 C 0.40622 0.91962 0.02932 0.0
C235 C 0.39152 0.90184 0.00638 0.0
C236 C 0.38223 0.87781 0.01453 0.0
C237 C 0.41057 0.91231 0.06049 0.0
C238 C 0.40112 0.8882 0.06755 0.0
N239 N 0.36902 0.80461 0.062 0.0
C240 C 0.37806 0.77342 0.05438 0.0
C241 C 0.35688 0.75702 0.06999 0.0
C242 C 0.34205 0.76518 0.08226 0.0
C243 C 0.34841 0.78903 0.0779 0.0
C244 C 0.38377 0.79689 0.05076 0.0
H245 H 0.3366 0.79486 0.08702 0.0
H246 H 0.40018 0.80878 0.03842 0.0
H247 H 0.37127 0.86463 0.99617 0.0
H248 H 0.40556 0.8835 0.09139 0.0
C249 C 0.33361 0.83967 0.08746 0.0
C250 C 0.3445 0.80604 0.9858 0.0
C251 C 0.40409 0.84271 0.13117 0.0
C252 C 0.42712 0.8552 0.01333 0.0
H253 H 0.297 0.79967 0.99216 0.0
H254 H 0.29206 0.82055 0.0463 0.0
H255 H 0.33703 0.84647 0.15919 0.0
H256 H 0.37435 0.84549 0.18347 0.0
H257 H 0.45424 0.8605 0.12125 0.0
H258 H 0.46752 0.86954 0.05679 0.0
H259 H 0.42113 0.841 0.94334 0.0
H260 H 0.3755 0.81177 0.92949 0.0
H261 H 0.38724 0.90641 0.98217 0.0
H262 H 0.42193 0.92515 0.07905 0.0
H263 H 0.39042 0.76824 0.04521 0.0
H264 H 0.3255 0.75318 0.09457 0.0
C265 C 0.52721 0.32996 0.17915 0.0
C266 C 0.50789 0.30715 0.17915 0.0
C267 C 0.49453 0.3054 0.20696 0.0
C268 C 0.50644 0.32706 0.22251 0.0
N269 N 0.52635 0.34221 0.20605 0.0
Co270 Co 0.54962 0.37459 0.22041 0.0
N271 N 0.53886 0.36745 0.26767 0.0
C272 C 0.51765 0.34993 0.27807 0.0
C273 C 0.51485 0.34984 0.31242 0.0
C274 C 0.53554 0.36856 0.32417 0.0
C275 C 0.54991 0.379 0.2962 0.0
N276 N 0.57284 0.40705 0.23482 0.0
C277 C 0.5813 0.41531 0.26613 0.0
C278 C 0.59776 0.43929 0.26489 0.0
C279 C 0.59918 0.44612 0.23168 0.0
C280 C 0.58366 0.426 0.21439 0.0
N281 N 0.56008 0.38123 0.17298 0.0
C282 C 0.57207 0.40268 0.15858 0.0
C283 C 0.57812 0.40136 0.12567 0.0
C284 C 0.56941 0.37764 0.11942 0.0
C285 C 0.55858 0.36581 0.14894 0.0
N286 N 0.52643 0.38507 0.21201 0.0
C287 C 0.49804 0.40535 0.19726 0.0
C288 C 0.49911 0.3891 0.17511 0.0
C289 C 0.51344 0.37926 0.18286 0.0
C290 C 0.51074 0.41031 0.22756 0.0
C291 C 0.52456 0.39996 0.2345 0.0
N292 N 0.57327 0.36494 0.22848 0.0
C293 C 0.61313 0.37297 0.22009 0.0
C294 C 0.60813 0.35207 0.23669 0.0
C295 C 0.5852 0.33786 0.24975 0.0
C296 C 0.56798 0.34457 0.24524 0.0
C297 C 0.59567 0.37904 0.21636 0.0
H298 H 0.55039 0.33328 0.25505 0.0
H299 H 0.60041 0.39526 0.20335 0.0
H300 H 0.51453 0.36745 0.16483 0.0
H301 H 0.53432 0.40465 0.25785 0.0
C302 C 0.50278 0.33188 0.25576 0.0
C303 C 0.54597 0.33997 0.15345 0.0
C304 C 0.57291 0.40095 0.29718 0.0
C305 C 0.58212 0.4231 0.179 0.0
H306 H 0.50395 0.29303 0.16154 0.0
H307 H 0.47891 0.2897 0.21593 0.0
H308 H 0.49991 0.33726 0.32729 0.0
H309 H 0.53945 0.37406 0.35026 0.0
H310 H 0.60773 0.45067 0.28566 0.0
H311 H 0.61094 0.46345 0.22125 0.0
H312 H 0.58891 0.41593 0.10891 0.0
H313 H 0.57106 0.36996 0.09611 0.0
H314 H 0.48965 0.38465 0.15136 0.0
H315 H 0.51018 0.42232 0.24587 0.0
H316 H 0.63064 0.38487 0.21028 0.0
H317 H 0.58049 0.32155 0.26285 0.0
C318 C 0.4988 0.81551 0.49176 0.0
C319 C 0.51751 0.81114 0.49259 0.0
C320 C 0.53124 0.8221 0.4648 0.0
C321 C 0.52016 0.83239 0.44846 0.0
N322 N 0.50041 0.82859 0.46442 0.0
Co323 Co 0.47828 0.83887 0.44899 0.0
N324 N 0.48943 0.84194 0.40193 0.0
C325 C 0.51011 0.84406 0.39203 0.0
C326 C 0.51294 0.84572 0.35763 0.0
C327 C 0.4929 0.8448 0.34527 0.0
C328 C 0.47895 0.84276 0.37298 0.0
N329 N 0.45625 0.84936 0.43363 0.0
C330 C 0.44863 0.84987 0.40202 0.0
C331 C 0.43356 0.85906 0.4024 0.0
C332 C 0.4319 0.8645 0.43551 0.0
C333 C 0.44606 0.85842 0.45351 0.0
N334 N 0.46729 0.83551 0.49614 0.0
C335 C 0.45588 0.84577 0.5099 0.0
C336 C 0.44934 0.83869 0.54281 0.0
C337 C 0.45713 0.82304 0.54978 0.0
C338 C 0.46794 0.82139 0.52066 0.0
N339 N 0.50233 0.87233 0.4575 0.0
C340 C 0.53089 0.92095 0.47283 0.0
C341 C 0.52898 0.90343 0.49535 0.0
C342 C 0.5146 0.87929 0.48727 0.0
C343 C 0.51912 0.91341 0.4418 0.0
C344 C 0.50521 0.88926 0.43458 0.0
N345 N 0.45372 0.80587 0.44075 0.0
C346 C 0.41272 0.77584 0.44564 0.0
C347 C 0.41683 0.75941 0.42892 0.0
C348 C 0.4401 0.76657 0.41891 0.0
C349 C 0.45831 0.79 0.42486 0.0
C350 C 0.43121 0.7987 0.45134 0.0
H351 H 0.47602 0.79536 0.41644 0.0
H352 H 0.42711 0.81065 0.46429 0.0
H353 H 0.51275 0.86624 0.50561 0.0
H354 H 0.49607 0.88436 0.41074 0.0
C355 C 0.52423 0.84032 0.41496 0.0
C356 C 0.47987 0.80748 0.51707 0.0
C357 C 0.45692 0.84361 0.37126 0.0
C358 C 0.447 0.85697 0.48896 0.0
H359 H 0.52075 0.80075 0.51074 0.0
H360 H 0.54652 0.82121 0.45632 0.0
H361 H 0.52739 0.84657 0.34315 0.0
H362 H 0.48914 0.84569 0.3189 0.0
H363 H 0.42486 0.8617 0.381 0.0
H364 H 0.42101 0.87127 0.44535 0.0
H365 H 0.43891 0.84318 0.55914 0.0
H366 H 0.45494 0.81377 0.57332 0.0
H367 H 0.53775 0.90829 0.51962 0.0
H368 H 0.52039 0.92613 0.4232 0.0
H369 H 0.39517 0.77104 0.4544 0.0
H370 H 0.44407 0.7544 0.40592 0.0
C371 C 0.691 0.49411 0.65915 0.0
C372 C 0.71385 0.51334 0.65994 0.0
C373 C 0.71608 0.52705 0.63236 0.0
C374 C 0.69464 0.51543 0.61615 0.0
N375 N 0.67918 0.49536 0.632 0.0
Co376 Co 0.64694 0.47248 0.61669 0.0
N377 N 0.65479 0.48376 0.56972 0.0
C378 C 0.67259 0.505 0.55995 0.0
C379 C 0.67319 0.50817 0.52563 0.0
C380 C 0.65452 0.48769 0.51324 0.0
C381 C 0.64359 0.47308 0.54082 0.0
N382 N 0.61458 0.44973 0.60133 0.0
C383 C 0.60668 0.4417 0.56974 0.0
C384 C 0.58263 0.42543 0.57029 0.0
C385 C 0.5754 0.42369 0.60335 0.0
C386 C 0.59536 0.43883 0.62125 0.0
N387 N 0.6396 0.46141 0.66381 0.0
C388 C 0.61796 0.44938 0.67763 0.0
C389 C 0.61879 0.44287 0.71044 0.0
C390 C 0.6424 0.45133 0.71726 0.0
C391 C 0.65466 0.46248 0.68814 0.0
N392 N 0.63665 0.4958 0.62533 0.0
C393 C 0.61664 0.52454 0.64004 0.0
C394 C 0.63166 0.5221 0.66314 0.0
C395 C 0.64152 0.50781 0.65528 0.0
C396 C 0.61283 0.51293 0.60888 0.0
C397 C 0.62282 0.49875 0.60213 0.0
N398 N 0.65637 0.44869 0.60841 0.0
C399 C 0.64788 0.40862 0.61611 0.0
C400 C 0.66902 0.41366 0.60023 0.0
C401 C 0.68359 0.43671 0.58782 0.0
C402 C 0.67699 0.45402 0.5923 0.0
C403 C 0.64192 0.42616 0.61982 0.0
H404 H 0.68856 0.4717 0.58304 0.0
H405 H 0.62551 0.42139 0.63229 0.0
H406 H 0.65255 0.50593 0.67386 0.0
H407 H 0.61877 0.48965 0.57825 0.0
C408 C 0.69036 0.51953 0.58284 0.0
C409 C 0.68055 0.47503 0.68432 0.0
C410 C 0.62149 0.45025 0.53911 0.0
C411 C 0.5978 0.43983 0.65671 0.0
H412 H 0.72767 0.51699 0.67795 0.0
H413 H 0.73196 0.54273 0.62395 0.0
H414 H 0.68608 0.52321 0.51121 0.0
H415 H 0.64936 0.48409 0.48699 0.0
H416 H 0.57147 0.41576 0.54918 0.0
H417 H 0.55791 0.41192 0.61328 0.0
H418 H 0.60398 0.43198 0.72677 0.0
H419 H 0.64973 0.44932 0.74067 0.0
H420 H 0.63526 0.53053 0.68763 0.0
H421 H 0.60201 0.51458 0.58961 0.0
H422 H 0.63572 0.39102 0.6254 0.0
H423 H 0.7001 0.44146 0.57528 0.0
C424 C 0.20644 0.68726 0.82487 0.0
C425 C 0.21086 0.71037 0.8257 0.0
C426 C 0.20003 0.71317 0.79781 0.0
C427 C 0.18977 0.69178 0.78142 0.0
N428 N 0.19345 0.67579 0.79746 0.0
Co429 Co 0.18317 0.64336 0.78205 0.0
N430 N 0.18042 0.65153 0.73491 0.0
C431 C 0.17837 0.6701 0.72492 0.0
C432 C 0.17673 0.67122 0.69051 0.0
C433 C 0.1776 0.65204 0.67823 0.0
C434 C 0.1796 0.64018 0.706 0.0
N435 N 0.17262 0.61081 0.76671 0.0
C436 C 0.1721 0.60264 0.73511 0.0
C437 C 0.16277 0.57834 0.7355 0.0
C438 C 0.15722 0.57123 0.76859 0.0
C439 C 0.1634 0.59151 0.78657 0.0
N440 N 0.18629 0.63568 0.82926 0.0
C441 C 0.17595 0.61398 0.843 0.0
C442 C 0.18295 0.61451 0.87594 0.0
C443 C 0.19864 0.63797 0.88293 0.0
C444 C 0.20039 0.65046 0.85379 0.0
N445 N 0.14972 0.63399 0.79028 0.0
C446 C 0.101 0.61456 0.80503 0.0
C447 C 0.11859 0.62939 0.82815 0.0
C448 C 0.14272 0.63896 0.82027 0.0
C449 C 0.10866 0.61076 0.77375 0.0
C450 C 0.13283 0.62049 0.76695 0.0
N451 N 0.21624 0.65189 0.77429 0.0
C452 C 0.24699 0.64243 0.78336 0.0
C453 C 0.26389 0.66379 0.76876 0.0
C454 C 0.25622 0.67886 0.7559 0.0
C455 C 0.23229 0.67262 0.75906 0.0
C456 C 0.2235 0.63684 0.78576 0.0
H457 H 0.22681 0.68463 0.74968 0.0
H458 H 0.21127 0.62034 0.79756 0.0
H459 H 0.15572 0.64978 0.83892 0.0
H460 H 0.13777 0.61642 0.74301 0.0
C461 C 0.18201 0.68796 0.74784 0.0
C462 C 0.21439 0.67633 0.85016 0.0
C463 C 0.17861 0.61725 0.70437 0.0
C464 C 0.16475 0.59388 0.82204 0.0
H465 H 0.22121 0.72399 0.8439 0.0
H466 H 0.20102 0.72937 0.78931 0.0
H467 H 0.17588 0.68479 0.67597 0.0
H468 H 0.17661 0.64727 0.6519 0.0
H469 H 0.1601 0.56697 0.71411 0.0
H470 H 0.15032 0.55353 0.77843 0.0
H471 H 0.17838 0.59955 0.89226 0.0
H472 H 0.20789 0.64506 0.90649 0.0
H473 H 0.11385 0.63298 0.85271 0.0
H474 H 0.09607 0.60009 0.75448 0.0
H475 H 0.25183 0.62991 0.7929 0.0
H476 H 0.26865 0.69553 0.74426 0.0
C477 C 0.52735 0.20224 0.99311 0.0
C478 C 0.50869 0.20668 0.99448 0.0
C479 C 0.49474 0.19582 0.96685 0.0
C480 C 0.50566 0.18552 0.95007 0.0
N481 N 0.5255 0.18921 0.96562 0.0
Co482 Co 0.54738 0.17878 0.94956 0.0
N483 N 0.53591 0.17587 0.90271 0.0
C484 C 0.51524 0.17393 0.89323 0.0
C485 C 0.51218 0.17236 0.85887 0.0
C486 C 0.53207 0.17316 0.84608 0.0
C487 C 0.54615 0.17502 0.87351 0.0
N488 N 0.56906 0.16803 0.93357 0.0
C489 C 0.57638 0.16743 0.90178 0.0
C490 C 0.59128 0.15804 0.90172 0.0
C491 C 0.59315 0.15257 0.93473 0.0
C492 C 0.57928 0.15883 0.95312 0.0
N493 N 0.55876 0.1821 0.99649 0.0
C494 C 0.57019 0.17176 0.00986 0.0
C495 C 0.57702 0.17882 0.04269 0.0
C496 C 0.56939 0.19454 0.05002 0.0
C497 C 0.55838 0.19625 0.02118 0.0
N498 N 0.52324 0.14537 0.95825 0.0
C499 C 0.49444 0.09664 0.97342 0.0
C500 C 0.49746 0.11422 0.99673 0.0
C501 C 0.51176 0.13836 0.98863 0.0
C502 C 0.5053 0.10431 0.94175 0.0
C503 C 0.51949 0.12848 0.93476 0.0
N504 N 0.57204 0.21174 0.94116 0.0
C505 C 0.61314 0.24158 0.94557 0.0
C506 C 0.609 0.25821 0.92954 0.0
C507 C 0.58568 0.25122 0.92005 0.0
C508 C 0.56743 0.22778 0.92586 0.0
C509 C 0.59462 0.21872 0.95118 0.0
H510 H 0.54968 0.22257 0.91788 0.0
H511 H 0.59873 0.20663 0.96367 0.0
H512 H 0.51421 0.15137 0.00741 0.0
H513 H 0.52811 0.1334 0.91052 0.0
C514 C 0.50132 0.17769 0.91654 0.0
C515 C 0.54647 0.21021 0.01804 0.0
C516 C 0.56802 0.1739 0.87131 0.0
C517 C 0.57872 0.16038 0.98861 0.0
H518 H 0.50563 0.21705 0.01289 0.0
H519 H 0.47944 0.19679 0.95876 0.0
H520 H 0.49769 0.17165 0.8447 0.0
H521 H 0.53563 0.17228 0.81962 0.0
H522 H 0.59975 0.15531 0.8801 0.0
H523 H 0.60402 0.14569 0.94424 0.0
H524 H 0.58751 0.17424 0.05873 0.0
H525 H 0.5718 0.20381 0.07362 0.0
H526 H 0.48955 0.10945 0.02157 0.0
H527 H 0.50312 0.09173 0.92233 0.0
H528 H 0.63072 0.24623 0.95395 0.0
H529 H 0.58168 0.26354 0.90759 0.0
C530 C 0.33609 0.52487 0.16059 0.0
C531 C 0.31339 0.50558 0.16256 0.0
C532 C 0.3108 0.49142 0.13531 0.0
C533 C 0.33204 0.50284 0.11838 0.0
N534 N 0.34765 0.52312 0.13354 0.0
Co535 Co 0.37978 0.54575 0.11771 0.0
N536 N 0.37157 0.53408 0.071 0.0
C537 C 0.35364 0.51276 0.06174 0.0
C538 C 0.35281 0.50928 0.02748 0.0
C539 C 0.37145 0.52961 0.01461 0.0
C540 C 0.38261 0.54447 0.04185 0.0
N541 N 0.41202 0.56839 0.10181 0.0
C542 C 0.41972 0.57616 0.07005 0.0
C543 C 0.44377 0.59248 0.07022 0.0
C544 C 0.4512 0.5945 0.10319 0.0
C545 C 0.43137 0.57947 0.12143 0.0
N546 N 0.38743 0.55709 0.16472 0.0
C547 C 0.40917 0.56924 0.17818 0.0
C548 C 0.40857 0.57626 0.21076 0.0
C549 C 0.38504 0.56804 0.21781 0.0
C550 C 0.37253 0.55637 0.1891 0.0
N551 N 0.39006 0.52244 0.12645 0.0
C552 C 0.41012 0.49388 0.14138 0.0
C553 C 0.39444 0.49562 0.16396 0.0
C554 C 0.3847 0.51002 0.1561 0.0
C555 C 0.41458 0.50599 0.1106 0.0
C556 C 0.40435 0.51991 0.10358 0.0
N557 N 0.37032 0.5695 0.10928 0.0
C558 C 0.37874 0.60957 0.11665 0.0
C559 C 0.35749 0.60438 0.101 0.0
C560 C 0.34292 0.58127 0.08883 0.0
C561 C 0.34962 0.56405 0.09336 0.0
C562 C 0.38479 0.59209 0.12041 0.0
H563 H 0.33802 0.54631 0.08433 0.0
H564 H 0.40127 0.59695 0.13273 0.0
H565 H 0.37336 0.51164 0.17443 0.0
H566 H 0.40865 0.5292 0.07985 0.0
C567 C 0.33601 0.49839 0.08505 0.0
C568 C 0.34665 0.5443 0.18497 0.0
C569 C 0.40475 0.56725 0.03961 0.0
C570 C 0.42916 0.57868 0.15692 0.0
H571 H 0.30009 0.50232 0.18139 0.0
H572 H 0.29486 0.47554 0.12765 0.0
H573 H 0.33981 0.49412 0.0134 0.0
H574 H 0.37643 0.53294 0.98827 0.0
H575 H 0.45479 0.602 0.04891 0.0
H576 H 0.46875 0.60636 0.11284 0.0
H577 H 0.42352 0.5875 0.22665 0.0
H578 H 0.37805 0.57081 0.24101 0.0
H579 H 0.39039 0.48664 0.18807 0.0
H580 H 0.42612 0.5049 0.09196 0.0
H581 H 0.39091 0.62722 0.12574 0.0
H582 H 0.32633 0.57642 0.07649 0.0
C583 C 0.81969 0.32999 0.32505 0.0
C584 C 0.81571 0.30704 0.3256 0.0
C585 C 0.82679 0.30466 0.29765 0.0
C586 C 0.83674 0.32613 0.28151 0.0
N587 N 0.83263 0.34177 0.29774 0.0
Co588 Co 0.84228 0.37414 0.28265 0.0
N589 N 0.8454 0.36639 0.23543 0.0
C590 C 0.84792 0.34814 0.22525 0.0
C591 C 0.84966 0.34722 0.19083 0.0
C592 C 0.84837 0.3662 0.17875 0.0
C593 C 0.84605 0.37778 0.20663 0.0
N594 N 0.85209 0.40661 0.26765 0.0
C595 C 0.85247 0.41485 0.23613 0.0
C596 C 0.86124 0.43906 0.23678 0.0
C597 C 0.86658 0.44604 0.26994 0.0
C598 C 0.86085 0.42578 0.2877 0.0
N599 N 0.83893 0.38141 0.32997 0.0
C600 C 0.84885 0.40303 0.34393 0.0
C601 C 0.84177 0.40218 0.3769 0.0
C602 C 0.82646 0.37859 0.3837 0.0
C603 C 0.825 0.36637 0.35441 0.0
N604 N 0.8759 0.38416 0.29078 0.0
C605 C 0.92459 0.40402 0.30529 0.0
C606 C 0.90719 0.38814 0.32776 0.0
C607 C 0.88302 0.37851 0.32012 0.0
C608 C 0.9169 0.40877 0.27479 0.0
C609 C 0.89271 0.39861 0.26796 0.0
N610 N 0.80904 0.36492 0.27489 0.0
C611 C 0.77761 0.37354 0.28319 0.0
C612 C 0.76129 0.35238 0.26749 0.0
C613 C 0.76959 0.33775 0.25491 0.0
C614 C 0.79352 0.3443 0.25897 0.0
C615 C 0.80116 0.37943 0.28655 0.0
H616 H 0.79947 0.33267 0.24953 0.0
H617 H 0.81299 0.39583 0.29895 0.0
H618 H 0.87007 0.36703 0.3384 0.0
H619 H 0.88768 0.40312 0.24445 0.0
C620 C 0.84459 0.33028 0.24797 0.0
C621 C 0.81139 0.34051 0.35052 0.0
C622 C 0.84654 0.40049 0.2052 0.0
C623 C 0.8596 0.42324 0.32313 0.0
H624 H 0.80551 0.29322 0.34365 0.0
H625 H 0.82617 0.28867 0.28895 0.0
H626 H 0.85084 0.33389 0.17615 0.0
H627 H 0.84925 0.37102 0.15245 0.0
H628 H 0.86372 0.45046 0.21551 0.0
H629 H 0.8731 0.46363 0.27996 0.0
H630 H 0.846 0.41698 0.39338 0.0
H631 H 0.81725 0.37125 0.40722 0.0
H632 H 0.91217 0.38387 0.35165 0.0
H633 H 0.92954 0.42048 0.25627 0.0
H634 H 0.77235 0.38577 0.2926 0.0
H635 H 0.75766 0.32121 0.24255 0.0
H636 H 0.30608 0.60984 0.39298 0.0
H637 H 0.27348 0.64744 0.43499 0.0
H638 H 0.34508 0.646 0.39711 0.0
H639 H 0.31193 0.6831 0.43927 0.0
H640 H 0.37473 0.74881 0.40115 0.0
H641 H 0.33898 0.71044 0.39678 0.0
H642 H 0.37627 0.67683 0.43658 0.0
H643 H 0.41252 0.71575 0.44079 0.0
C644 C 0.3073 0.62566 0.40367 0.0
C645 C 0.28666 0.62588 0.4132 0.0
C646 C 0.32959 0.64637 0.40595 0.0
C647 C 0.3316 0.66763 0.41778 0.0
C648 C 0.31104 0.66729 0.42911 0.0
C649 C 0.28896 0.64678 0.42682 0.0
C650 C 0.37541 0.73325 0.40877 0.0
C651 C 0.39639 0.73538 0.42177 0.0
C652 C 0.35485 0.71122 0.40643 0.0
C653 C 0.35454 0.69054 0.41709 0.0
C654 C 0.37587 0.6924 0.42827 0.0
C655 C 0.39663 0.71465 0.4306 0.0
H656 H 0.68751 0.28997 0.62422 0.0
H657 H 0.66325 0.28815 0.52239 0.0
H658 H 0.69278 0.32946 0.6317 0.0
H659 H 0.66749 0.32695 0.53022 0.0
H660 H 0.68747 0.40288 0.54495 0.0
H661 H 0.69246 0.3685 0.53729 0.0
H662 H 0.66807 0.34613 0.63928 0.0
H663 H 0.66408 0.38082 0.64723 0.0
C664 C 0.68357 0.29808 0.60328 0.0
C665 C 0.67465 0.28566 0.57286 0.0
C666 C 0.68633 0.32066 0.60767 0.0
C667 C 0.68032 0.33147 0.58172 0.0
C668 C 0.6725 0.31945 0.55077 0.0
C669 C 0.66976 0.29696 0.5464 0.0
C670 C 0.68369 0.39089 0.56594 0.0
C671 C 0.67508 0.39452 0.59655 0.0
C672 C 0.68628 0.37098 0.56146 0.0
C673 C 0.68042 0.35422 0.58751 0.0
C674 C 0.67296 0.35858 0.61864 0.0
C675 C 0.67038 0.37841 0.62309 0.0
H676 H 0.29542 0.68204 0.71566 0.0
H677 H 0.28954 0.65865 0.81889 0.0
H678 H 0.33452 0.68548 0.71166 0.0
H679 H 0.32824 0.66193 0.81486 0.0
H680 H 0.37601 0.63368 0.77585 0.0
H681 H 0.34134 0.63788 0.78367 0.0
H682 H 0.37705 0.70557 0.73336 0.0
H683 H 0.41208 0.70125 0.72557 0.0
C684 C 0.30264 0.67811 0.73767 0.0
C685 C 0.28913 0.66964 0.76738 0.0
C686 C 0.32505 0.68007 0.7354 0.0
C687 C 0.33436 0.67359 0.76277 0.0
C688 C 0.32142 0.66656 0.79305 0.0
C689 C 0.29919 0.66467 0.79534 0.0
C690 C 0.37659 0.6496 0.76683 0.0
C691 C 0.39678 0.66716 0.75021 0.0
C692 C 0.35674 0.65208 0.77142 0.0
C693 C 0.35636 0.67209 0.7592 0.0
C694 C 0.37672 0.6899 0.74294 0.0
C695 C 0.39683 0.68755 0.73877 0.0
H696 H 0.75243 0.37018 0.9358 0.0
H697 H 0.71967 0.40813 0.89564 0.0
H698 H 0.71401 0.33445 0.93979 0.0
H699 H 0.68071 0.37191 0.8995 0.0
H700 H 0.61339 0.30179 0.94253 0.0
H701 H 0.64964 0.34073 0.93867 0.0
H702 H 0.68681 0.30746 0.89721 0.0
H703 H 0.65105 0.26906 0.90121 0.0
C704 C 0.73693 0.3709 0.92796 0.0
C705 C 0.73918 0.39193 0.91494 0.0
C706 C 0.71487 0.35035 0.9301 0.0
C707 C 0.69426 0.35009 0.91921 0.0
C708 C 0.69622 0.37147 0.90799 0.0
C709 C 0.7185 0.39221 0.90586 0.0
C710 C 0.62924 0.30297 0.93205 0.0
C711 C 0.62945 0.2823 0.92265 0.0
C712 C 0.65001 0.32523 0.92993 0.0
C713 C 0.67132 0.32718 0.91838 0.0
C714 C 0.67096 0.3066 0.90716 0.0
C715 C 0.6504 0.28455 0.90929 0.0
H716 H 0.36262 0.72952 0.02315 0.0
H717 H 0.33797 0.72743 0.12485 0.0
H718 H 0.35855 0.69077 0.03099 0.0
H719 H 0.33293 0.68803 0.13236 0.0
H720 H 0.36241 0.63725 0.14789 0.0
H721 H 0.35811 0.67176 0.13993 0.0
H722 H 0.33352 0.64912 0.03813 0.0
H723 H 0.33877 0.61489 0.04582 0.0
C724 C 0.35606 0.72066 0.04714 0.0
C725 C 0.351 0.73185 0.07356 0.0
C726 C 0.35343 0.69821 0.05151 0.0
C727 C 0.34557 0.68616 0.08243 0.0
C728 C 0.3394 0.69686 0.10835 0.0
C729 C 0.34203 0.71939 0.10395 0.0
C730 C 0.356 0.63955 0.1238 0.0
C731 C 0.3513 0.62342 0.09732 0.0
C732 C 0.35324 0.65928 0.11935 0.0
C733 C 0.34563 0.6635 0.08826 0.0
C734 C 0.33979 0.64672 0.06226 0.0
C735 C 0.34254 0.62691 0.06676 0.0
H736 H 0.73147 0.333 0.21296 0.0
H737 H 0.7338 0.3582 0.31436 0.0
H738 H 0.69195 0.32765 0.20565 0.0
H739 H 0.69499 0.35394 0.30665 0.0
H740 H 0.61917 0.33425 0.29242 0.0
H741 H 0.65348 0.32916 0.30016 0.0
H742 H 0.6752 0.35215 0.19752 0.0
H743 H 0.64055 0.35616 0.1895 0.0
C744 C 0.72347 0.33714 0.23384 0.0
C745 C 0.73605 0.34635 0.26408 0.0
C746 C 0.70087 0.33433 0.22954 0.0
C747 C 0.6902 0.34061 0.25539 0.0
C748 C 0.70237 0.34872 0.28618 0.0
C749 C 0.72488 0.35148 0.29047 0.0
C750 C 0.631 0.33769 0.27131 0.0
C751 C 0.6272 0.34592 0.24049 0.0
C752 C 0.65087 0.33505 0.27583 0.0
C753 C 0.66744 0.3405 0.24961 0.0
C754 C 0.6629 0.34758 0.2183 0.0
C755 C 0.64309 0.35018 0.2138 0.0
H756 H 0.2142 0.61618 0.67019 0.0
H757 H 0.14073 0.5959 0.66247 0.0
H758 H 0.21364 0.60356 0.61182 0.0
H759 H 0.14012 0.58428 0.60375 0.0
H760 H 0.21295 0.60263 0.49716 0.0
H761 H 0.21263 0.61472 0.55559 0.0
H762 H 0.1408 0.55696 0.56671 0.0
H763 H 0.14107 0.54588 0.50795 0.0
C764 C 0.19788 0.60875 0.65594 0.0
C765 C 0.17747 0.60676 0.67065 0.0
C766 C 0.19758 0.60186 0.62236 0.0
C767 C 0.17688 0.59308 0.60265 0.0
C768 C 0.15631 0.59063 0.61799 0.0
C769 C 0.15659 0.59727 0.65163 0.0
C770 C 0.19704 0.5929 0.51212 0.0
C771 C 0.17704 0.57343 0.49829 0.0
C772 C 0.1969 0.59955 0.54573 0.0
C773 C 0.17677 0.58668 0.5663 0.0
C774 C 0.15655 0.56752 0.55182 0.0
C775 C 0.15665 0.56109 0.51816 0.0
H776 H 0.59881 0.13696 0.67231 0.0
H777 H 0.61939 0.21053 0.66539 0.0
H778 H 0.58733 0.13612 0.73113 0.0
H779 H 0.60683 0.20974 0.72384 0.0
H780 H 0.60613 0.20881 0.83834 0.0
H781 H 0.61803 0.20862 0.77977 0.0
H782 H 0.56049 0.13665 0.76891 0.0
H783 H 0.54969 0.13679 0.82783 0.0
C784 C 0.60023 0.15279 0.68333 0.0
C785 C 0.60983 0.17377 0.66453 0.0
C786 C 0.59367 0.15239 0.71705 0.0
C787 C 0.59627 0.17293 0.73267 0.0
C788 C 0.60505 0.1937 0.71312 0.0
C789 C 0.61189 0.19414 0.67947 0.0
C790 C 0.59646 0.19289 0.82342 0.0
C791 C 0.57713 0.1728 0.83737 0.0
C792 C 0.60296 0.19282 0.78971 0.0
C793 C 0.59008 0.17271 0.76914 0.0
C794 C 0.57108 0.15239 0.78377 0.0
C795 C 0.56482 0.15241 0.81754 0.0
H796 H 0.44201 0.56949 0.00484 0.0
H797 H 0.38597 0.58572 0.99663 0.0
H798 H 0.45301 0.58121 0.94609 0.0
H799 H 0.39605 0.59644 0.93735 0.0
H800 H 0.43519 0.63492 0.84027 0.0
H801 H 0.42407 0.62453 0.89935 0.0
H802 H 0.43971 0.56785 0.89061 0.0
H803 H 0.45182 0.57916 0.83204 0.0
C804 C 0.43239 0.57607 0.99056 0.0
C805 C 0.4136 0.57739 0.00545 0.0
C806 C 0.43832 0.58233 0.95666 0.0
C807 C 0.42534 0.58967 0.93665 0.0
C808 C 0.40671 0.59123 0.95191 0.0
C809 C 0.40091 0.58513 0.98587 0.0
C810 C 0.43575 0.61995 0.85096 0.0
C811 C 0.44377 0.60746 0.83144 0.0
C812 C 0.42942 0.61398 0.88482 0.0
C813 C 0.43103 0.59536 0.90004 0.0
C814 C 0.43855 0.58252 0.88006 0.0
C815 C 0.44503 0.58863 0.84626 0.0
H816 H 0.88459 0.42173 0.16357 0.0
H817 H 0.81129 0.40215 0.17097 0.0
H818 H 0.88546 0.43332 0.10481 0.0
H819 H 0.81214 0.41485 0.11257 0.0
H820 H 0.81286 0.41572 0.99808 0.0
H821 H 0.81299 0.4036 0.05654 0.0
H822 H 0.88528 0.4605 0.0673 0.0
H823 H 0.88519 0.47152 0.00849 0.0
C824 C 0.86883 0.42053 0.15266 0.0
C825 C 0.8479 0.41118 0.17157 0.0
C826 C 0.86926 0.42717 0.11898 0.0
C827 C 0.84881 0.4249 0.10352 0.0
C828 C 0.8281 0.41636 0.12317 0.0
C829 C 0.82764 0.40944 0.15679 0.0
C830 C 0.82884 0.4252 0.01295 0.0
C831 C 0.84903 0.4444 0.999 0.0
C832 C 0.82887 0.41857 0.04659 0.0
C833 C 0.84906 0.43121 0.0671 0.0
C834 C 0.86947 0.45009 0.05248 0.0
C835 C 0.86949 0.45648 0.01877 0.0
H836 H 0.42503 0.88062 0.17308 0.0
H837 H 0.4057 0.80741 0.16536 0.0
H838 H 0.43646 0.88135 0.23188 0.0
H839 H 0.41822 0.80812 0.22381 0.0
H840 H 0.419 0.8085 0.33828 0.0
H841 H 0.40689 0.80875 0.27986 0.0
H842 H 0.46361 0.88116 0.26941 0.0
H843 H 0.47461 0.88094 0.32819 0.0
C844 C 0.42384 0.86485 0.18394 0.0
C845 C 0.41461 0.84399 0.16491 0.0
C846 C 0.43038 0.86519 0.21764 0.0
C847 C 0.42814 0.84473 0.23303 0.0
C848 C 0.41971 0.82409 0.21327 0.0
C849 C 0.41289 0.82371 0.17963 0.0
C850 C 0.42843 0.82453 0.32349 0.0
C851 C 0.44758 0.84472 0.33752 0.0
C852 C 0.42181 0.82464 0.28987 0.0
C853 C 0.43441 0.8449 0.26945 0.0
C854 C 0.45322 0.8653 0.28416 0.0
C855 C 0.4596 0.86524 0.31785 0.0
H856 H 0.59192 0.38259 0.33986 0.0
H857 H 0.57594 0.43878 0.33123 0.0
H858 H 0.60267 0.39278 0.39906 0.0
H859 H 0.58766 0.44986 0.38997 0.0
H860 H 0.58425 0.44778 0.50408 0.0
H861 H 0.57363 0.43614 0.44522 0.0
H862 H 0.63047 0.42065 0.4375 0.0
H863 H 0.64018 0.43132 0.49684 0.0
C864 C 0.59147 0.39763 0.35048 0.0
C865 C 0.5837 0.41028 0.33084 0.0
C866 C 0.59756 0.40347 0.38442 0.0
C867 C 0.59596 0.42211 0.39958 0.0
C868 C 0.58878 0.43517 0.37945 0.0
C869 C 0.58254 0.42919 0.34556 0.0
C870 C 0.59389 0.44112 0.49001 0.0
C871 C 0.61257 0.43976 0.50518 0.0
C872 C 0.58819 0.43492 0.45605 0.0
C873 C 0.60129 0.4276 0.43629 0.0
C874 C 0.61974 0.42588 0.45186 0.0
C875 C 0.62531 0.43193 0.48587 0.0
H876 H 0.95778 0.45069 0.29608 0.0
H877 H 0.95034 0.38538 0.33376 0.0
H878 H 0.99995 0.47101 0.30892 0.0
H879 H 0.99278 0.40585 0.34674 0.0
H880 H 0.07529 0.4478 0.33075 0.0
H881 H 0.03287 0.42623 0.31747 0.0
H882 H 0.02598 0.48339 0.35933 0.0
H883 H 0.0681 0.50482 0.37248 0.0
C884 C 0.96515 0.44059 0.30697 0.0
C885 C 0.95052 0.4163 0.31374 0.0
C886 C 0.98938 0.45233 0.3146 0.0
C887 C 0.99992 0.44015 0.32891 0.0
C888 C 0.98537 0.4158 0.3355 0.0
C889 C 0.96097 0.40409 0.32832 0.0
C890 C 0.06473 0.45578 0.33699 0.0
C891 C 0.07523 0.47807 0.35283 0.0
C892 C 0.04034 0.44332 0.32963 0.0
C893 C 0.02587 0.45301 0.3373 0.0
C894 C 0.03648 0.47539 0.35281 0.0
C895 C 0.06069 0.48763 0.36061 0.0
H896 H 0.57456 0.94694 0.50354 0.0
H897 H 0.51718 0.95378 0.46243 0.0
H898 H 0.59589 0.98931 0.51711 0.0
H899 H 0.5384 0.99586 0.47581 0.0
H900 H 0.57077 0.06391 0.5393 0.0
H901 H 0.55066 0.02179 0.52614 0.0
H902 H 0.61606 0.02946 0.48843 0.0
H903 H 0.63632 0.07183 0.50176 0.0
C904 C 0.56645 0.95742 0.49747 0.0
C905 C 0.54412 0.94682 0.48173 0.0
C906 C 0.57878 0.98178 0.505 0.0
C907 C 0.56893 0.99614 0.49759 0.0
C908 C 0.54653 0.98544 0.48215 0.0
C909 C 0.53441 0.96125 0.4742 0.0
C910 C 0.58097 0.05666 0.52838 0.0
C911 C 0.60526 0.07142 0.52174 0.0
C912 C 0.56935 0.03246 0.52055 0.0
C913 C 0.58166 0.02206 0.50617 0.0
C914 C 0.60601 0.03674 0.49971 0.0
C915 C 0.6176 0.06111 0.5071 0.0
H916 H 0.53236 0.59538 0.63442 0.0
H917 H 0.55916 0.60666 0.73631 0.0
H918 H 0.55401 0.57496 0.62105 0.0
H919 H 0.58034 0.58574 0.72318 0.0
H920 H 0.63304 0.56523 0.67866 0.0
H921 H 0.61318 0.58752 0.69153 0.0
H922 H 0.5528 0.53801 0.63309 0.0
H923 H 0.57231 0.51554 0.62072 0.0
C924 C 0.54301 0.59372 0.65396 0.0
C925 C 0.54384 0.60274 0.68653 0.0
C926 C 0.55526 0.5817 0.64638 0.0
C927 C 0.56894 0.57845 0.67103 0.0
C928 C 0.5702 0.58794 0.70339 0.0
C929 C 0.5578 0.5998 0.71104 0.0
C930 C 0.61544 0.55889 0.66875 0.0
C931 C 0.60454 0.53848 0.64833 0.0
C932 C 0.60402 0.57179 0.67612 0.0
C933 C 0.58133 0.56479 0.66321 0.0
C934 C 0.57042 0.54435 0.64296 0.0
C935 C 0.58174 0.53141 0.63578 0.0
H936 H 0.06539 0.57026 0.78607 0.0
H937 H 0.07707 0.63128 0.84365 0.0
H938 H 0.02341 0.55088 0.79894 0.0
H939 H 0.03492 0.61162 0.85691 0.0
H940 H 0.96178 0.55839 0.90246 0.0
H941 H 1.00387 0.57929 0.88889 0.0
H942 H 0.98766 0.55182 0.78736 0.0
H943 H 0.94561 0.53036 0.80122 0.0
C944 C 0.05907 0.57978 0.80115 0.0
C945 C 0.07497 0.60261 0.81347 0.0
C946 C 0.03481 0.56853 0.80861 0.0
C947 C 0.02548 0.5796 0.82888 0.0
C948 C 0.04134 0.60233 0.84152 0.0
C949 C 0.06565 0.61366 0.8339 0.0
C950 C 0.96713 0.5567 0.87723 0.0
C951 C 0.95004 0.54248 0.85305 0.0
C952 C 0.99138 0.56895 0.86931 0.0
C953 C 0.99943 0.5673 0.83699 0.0
C954 C 0.98232 0.55337 0.81266 0.0
C955 C 0.95806 0.54124 0.82051 0.0
H956 H 0.50347 0.06154 0.95341 0.0
H957 H 0.45444 0.07222 0.01341 0.0
H958 H 0.48147 0.01954 0.96617 0.0
H959 H 0.43254 0.03001 0.02656 0.0
H960 H 0.41394 0.95686 0.07063 0.0
H961 H 0.43461 0.99902 0.05752 0.0
H962 H 0.44477 0.9836 0.955 0.0
H963 H 0.42471 0.94151 0.96836 0.0
C964 C 0.48783 0.05499 0.96901 0.0
C965 C 0.48079 0.07062 0.982 0.0
C966 C 0.47515 0.03072 0.97641 0.0
C967 C 0.455 0.02108 0.99728 0.0
C968 C 0.44806 0.03667 0.01066 0.0
C969 C 0.46071 0.06101 0.00311 0.0
C970 C 0.42063 0.9624 0.04528 0.0
C971 C 0.41761 0.94552 0.02066 0.0
C972 C 0.43233 0.98669 0.03764 0.0
C973 C 0.44157 0.99499 0.00516 0.0
C974 C 0.43824 0.97808 0.98042 0.0
C975 C 0.42642 0.95379 0.988 0.0
H976 H 0.39187 0.44994 0.17148 0.0
H977 H 0.4566 0.50714 0.13076 0.0
H978 H 0.41243 0.42814 0.18455 0.0
H979 H 0.47698 0.48543 0.14357 0.0
H980 H 0.51205 0.45217 0.20605 0.0
H981 H 0.4905 0.47271 0.19325 0.0
H982 H 0.43189 0.40767 0.15591 0.0
H983 H 0.45354 0.38696 0.16896 0.0
C984 C 0.41047 0.45792 0.16539 0.0
C985 C 0.42248 0.48035 0.14993 0.0
C986 C 0.42223 0.44532 0.17262 0.0
C987 C 0.44645 0.45495 0.16515 0.0
C988 C 0.45842 0.47745 0.14996 0.0
C989 C 0.44663 0.48986 0.14233 0.0
C990 C 0.49451 0.44214 0.19529 0.0
C991 C 0.48459 0.4178 0.1887 0.0
C992 C 0.48219 0.45401 0.18765 0.0
C993 C 0.45937 0.44194 0.17348 0.0
C994 C 0.44933 0.41755 0.16704 0.0
C995 C 0.46184 0.4057 0.17425 0.0
H996 H 0.2171 0.53694 0.2501 0.0
H997 H 0.26041 0.56276 0.33922 0.0
H998 H 0.25076 0.54029 0.21832 0.0
H999 H 0.2943 0.56652 0.30763 0.0
H1000 H 0.33728 0.53736 0.25286 0.0
H1001 H 0.30695 0.54083 0.28431 0.0
H1002 H 0.28902 0.56558 0.19409 0.0
H1003 H 0.31921 0.56173 0.16283 0.0
C1004 C 0.23407 0.54409 0.26254 0.0
C1005 C 0.23631 0.55004 0.29689 0.0
C1006 C 0.2534 0.54594 0.24443 0.0
C1007 C 0.27539 0.55362 0.26033 0.0
C1008 C 0.27766 0.56023 0.29456 0.0
C1009 C 0.25834 0.55835 0.3126 0.0
C1010 C 0.32729 0.54418 0.24011 0.0
C1011 C 0.33089 0.54973 0.20563 0.0
C1012 C 0.3098 0.54611 0.25804 0.0
C1013 C 0.29537 0.55348 0.24184 0.0
C1014 C 0.29949 0.55957 0.20741 0.0
C1015 C 0.31695 0.55761 0.18954 0.0
H1016 H 0.76629 0.33274 0.35142 0.0
H1017 H 0.81236 0.31307 0.40164 0.0
H1018 H 0.73234 0.3021 0.38341 0.0
H1019 H 0.77849 0.282 0.43253 0.0
H1020 H 0.70816 0.20933 0.43477 0.0
H1021 H 0.73938 0.24305 0.40382 0.0
H1022 H 0.71976 0.2896 0.45287 0.0
H1023 H 0.68897 0.25579 0.4849 0.0
C1024 C 0.76916 0.32214 0.36976 0.0
C1025 C 0.79182 0.32503 0.37394 0.0
C1026 C 0.74979 0.30459 0.38787 0.0
C1027 C 0.75277 0.28947 0.41001 0.0
C1028 C 0.77566 0.29322 0.41531 0.0
C1029 C 0.79502 0.31101 0.39779 0.0
C1030 C 0.71035 0.22673 0.43857 0.0
C1031 C 0.69641 0.23008 0.46241 0.0
C1032 C 0.72823 0.246 0.42103 0.0
C1033 C 0.73216 0.26896 0.42629 0.0
C1034 C 0.71713 0.2721 0.44843 0.0
C1035 C 0.69949 0.2528 0.46657 0.0
H1036 H 0.44166 0.68542 0.65247 0.0
H1037 H 0.50749 0.70468 0.60258 0.0
H1038 H 0.43877 0.71619 0.62036 0.0
H1039 H 0.50513 0.7359 0.57161 0.0
H1040 H 0.50796 0.80878 0.56887 0.0
H1041 H 0.50507 0.77509 0.60023 0.0
H1042 H 0.43911 0.72852 0.55042 0.0
H1043 H 0.44252 0.76229 0.51799 0.0
C1044 C 0.45526 0.69597 0.63421 0.0
C1045 C 0.47491 0.6929 0.63015 0.0
C1046 C 0.45367 0.7136 0.61602 0.0
C1047 C 0.47192 0.72864 0.59393 0.0
C1048 C 0.49097 0.72475 0.58879 0.0
C1049 C 0.49229 0.70687 0.60636 0.0
C1050 C 0.49269 0.7914 0.56503 0.0
C1051 C 0.47558 0.78804 0.54086 0.0
C1052 C 0.49109 0.77213 0.58279 0.0
C1053 C 0.47201 0.74917 0.57744 0.0
C1054 C 0.45401 0.74603 0.55496 0.0
C1055 C 0.45589 0.7653 0.5366 0.0
H1056 H 0.76503 0.43798 0.81964 0.0
H1057 H 0.81189 0.5024 0.76675 0.0
H1058 H 0.73124 0.43473 0.78745 0.0
H1059 H 0.77819 0.49969 0.7356 0.0
H1060 H 0.70812 0.5033 0.73553 0.0
H1061 H 0.7392 0.50043 0.76607 0.0
H1062 H 0.71895 0.4343 0.71631 0.0
H1063 H 0.68832 0.43771 0.68462 0.0
C1064 C 0.76811 0.45112 0.8006 0.0
C1065 C 0.79096 0.47049 0.79567 0.0
C1066 C 0.74883 0.44934 0.78238 0.0
C1067 C 0.75211 0.46713 0.7594 0.0
C1068 C 0.77516 0.48586 0.75339 0.0
C1069 C 0.79442 0.48735 0.77102 0.0
C1070 C 0.71016 0.48804 0.73144 0.0
C1071 C 0.69609 0.47089 0.70748 0.0
C1072 C 0.72795 0.48643 0.74877 0.0
C1073 C 0.73164 0.4673 0.74322 0.0
C1074 C 0.7165 0.44926 0.72096 0.0
C1075 C 0.69896 0.45114 0.70302 0.0
H1076 H 0.31763 0.80717 0.93402 0.0
H1077 H 0.33635 0.76079 0.98546 0.0
H1078 H 0.28655 0.77336 0.90308 0.0
H1079 H 0.3057 0.72689 0.95343 0.0
H1080 H 0.25956 0.68425 0.85048 0.0
H1081 H 0.29351 0.71478 0.88257 0.0
H1082 H 0.24718 0.73404 0.93317 0.0
H1083 H 0.21332 0.70308 0.90215 0.0
C1084 C 0.3154 0.78978 0.93808 0.0
C1085 C 0.32915 0.78648 0.96229 0.0
C1086 C 0.29759 0.77046 0.92055 0.0
C1087 C 0.29356 0.7475 0.92618 0.0
C1088 C 0.30842 0.7444 0.94869 0.0
C1089 C 0.32597 0.76374 0.96682 0.0
C1090 C 0.25664 0.69461 0.8692 0.0
C1091 C 0.23393 0.6915 0.8738 0.0
C1092 C 0.27602 0.7121 0.88737 0.0
C1093 C 0.27297 0.72696 0.90996 0.0
C1094 C 0.25004 0.72299 0.91565 0.0
C1095 C 0.23069 0.70525 0.89808 0.0
H1096 H 0.58374 0.3329 0.15184 0.0
H1097 H 0.51676 0.31114 0.10385 0.0
H1098 H 0.58718 0.30225 0.12024 0.0
H1099 H 0.51967 0.28003 0.07347 0.0
H1100 H 0.5191 0.20836 0.07119 0.0
H1101 H 0.52154 0.24184 0.10259 0.0
H1102 H 0.58608 0.28935 0.05024 0.0
H1103 H 0.5831 0.25576 0.01783 0.0
C1104 C 0.56997 0.32178 0.13416 0.0
C1105 C 0.54984 0.32411 0.13053 0.0
C1106 C 0.57187 0.30423 0.11626 0.0
C1107 C 0.55349 0.28854 0.09487 0.0
C1108 C 0.53392 0.29167 0.09015 0.0
C1109 C 0.53228 0.30947 0.10742 0.0
C1110 C 0.53402 0.2259 0.06688 0.0
C1111 C 0.55083 0.22956 0.04203 0.0
C1112 C 0.53535 0.24505 0.08465 0.0
C1113 C 0.55386 0.2682 0.07856 0.0
C1114 C 0.57163 0.27169 0.05538 0.0
C1115 C 0.57 0.25252 0.03703 0.0
loop_
_geom_bond_atom_site_label_1
_geom_bond_atom_site_label_2
_geom_bond_distance
_geom_bond_site_symmetry_2
_ccdc_geom_bond_type
C0 C1 1.443 . S
C0 N4 1.376 . S
C0 C38 1.389 . S
C1 C0 1.443 . S
C1 C2 1.340 . S
C1 H41 0.951 . S
C2 C1 1.340 . S
C2 C3 1.439 . S
C2 H42 0.950 . S
C3 C2 1.439 . S
C3 N4 1.374 . S
C3 C37 1.395 . S
N4 C0 1.376 . S
N4 C3 1.374 . S
N4 Co5 2.008 . S
Co5 N4 2.008 . S
Co5 N6 1.995 . S
Co5 N11 2.008 . S
Co5 N16 1.995 . S
Co5 N21 2.282 . S
Co5 N27 2.282 . S
N6 Co5 1.995 . S
N6 C7 1.376 . S
N6 C10 1.383 . S
C7 N6 1.376 . S
C7 C8 1.446 . S
C7 C37 1.391 . S
C8 C7 1.446 . S
C8 C9 1.339 . S
C8 H43 0.949 . S
C9 C8 1.339 . S
C9 C10 1.439 . S
C9 H44 0.950 . S
C10 N6 1.383 . S
C10 C9 1.439 . S
C10 C39 1.392 . S
N11 Co5 2.008 . S
N11 C12 1.376 . S
N11 C15 1.374 . S
C12 N11 1.376 . S
C12 C13 1.443 . S
C12 C39 1.389 . S
C13 C12 1.443 . S
C13 C14 1.340 . S
C13 H45 0.951 . S
C14 C13 1.340 . S
C14 C15 1.439 . S
C14 H46 0.950 . S
C15 N11 1.374 . S
C15 C14 1.439 . S
C15 C40 1.395 . S
N16 Co5 1.995 . S
N16 C17 1.376 . S
N16 C20 1.383 . S
C17 N16 1.376 . S
C17 C18 1.446 . S
C17 C40 1.391 . S
C18 C17 1.446 . S
C18 C19 1.339 . S
C18 H47 0.949 . S
C19 C18 1.339 . S
C19 C20 1.439 . S
C19 H48 0.950 . S
C20 N16 1.383 . S
C20 C19 1.439 . S
C20 C38 1.392 . S
N21 Co5 2.282 . S
N21 C24 1.332 . S
N21 C26 1.332 . S
C22 C23 1.386 . S
C22 C25 1.388 . S
C23 C22 1.386 . S
C23 C24 1.382 . S
C23 H49 0.950 . S
C24 N21 1.332 . S
C24 C23 1.382 . S
C24 H35 0.952 . S
C25 C22 1.388 . S
C25 C26 1.382 . S
C25 H50 0.950 . S
C26 N21 1.332 . S
C26 C25 1.382 . S
C26 H36 0.948 . S
N27 Co5 2.282 . S
N27 C31 1.332 . S
N27 C32 1.332 . S
C28 C29 1.388 . S
C28 C32 1.382 . S
C28 H51 0.950 . S
C29 C28 1.388 . S
C29 C30 1.386 . S
C30 C29 1.386 . S
C30 C31 1.382 . S
C30 H52 0.950 . S
C31 N27 1.332 . S
C31 C30 1.382 . S
C31 H33 0.952 . S
C32 N27 1.332 . S
C32 C28 1.382 . S
C32 H34 0.948 . S
H33 C31 0.952 . S
H34 C32 0.948 . S
H35 C24 0.952 . S
H36 C26 0.948 . S
C37 C3 1.395 . S
C37 C7 1.391 . S
C38 C0 1.389 . S
C38 C20 1.392 . S
C39 C10 1.392 . S
C39 C12 1.389 . S
C40 C15 1.395 . S
C40 C17 1.391 . S
H41 C1 0.951 . S
H42 C2 0.950 . S
H43 C8 0.949 . S
H44 C9 0.950 . S
H45 C13 0.951 . S
H46 C14 0.950 . S
H47 C18 0.949 . S
H48 C19 0.950 . S
H49 C23 0.950 . S
H50 C25 0.950 . S
H51 C28 0.950 . S
H52 C30 0.950 . S
C53 C54 1.443 . S
C53 N57 1.376 . S
C53 C91 1.389 . S
C54 C53 1.443 . S
C54 C55 1.340 . S
C54 H94 0.951 . S
C55 C54 1.340 . S
C55 C56 1.439 . S
C55 H95 0.950 . S
C56 C55 1.439 . S
C56 N57 1.374 . S
C56 C90 1.395 . S
N57 C53 1.376 . S
N57 C56 1.374 . S
N57 Co58 2.008 . S
Co58 N57 2.008 . S
Co58 N59 1.995 . S
Co58 N64 2.008 . S
Co58 N69 1.995 . S
Co58 N74 2.282 . S
Co58 N80 2.282 . S
N59 Co58 1.995 . S
N59 C60 1.376 . S
N59 C63 1.383 . S
C60 N59 1.376 . S
C60 C61 1.446 . S
C60 C90 1.391 . S
C61 C60 1.446 . S
C61 C62 1.339 . S
C61 H96 0.949 . S
C62 C61 1.339 . S
C62 C63 1.439 . S
C62 H97 0.950 . S
C63 N59 1.383 . S
C63 C62 1.439 . S
C63 C92 1.392 . S
N64 Co58 2.008 . S
N64 C65 1.376 . S
N64 C68 1.374 . S
C65 N64 1.376 . S
C65 C66 1.443 . S
C65 C92 1.389 . S
C66 C65 1.443 . S
C66 C67 1.340 . S
C66 H98 0.951 . S
C67 C66 1.340 . S
C67 C68 1.439 . S
C67 H99 0.950 . S
C68 N64 1.374 . S
C68 C67 1.439 . S
C68 C93 1.395 . S
N69 Co58 1.995 . S
N69 C70 1.376 . S
N69 C73 1.383 . S
C70 N69 1.376 . S
C70 C71 1.446 . S
C70 C93 1.391 . S
C71 C70 1.446 . S
C71 C72 1.339 . S
C71 H100 0.949 . S
C72 C71 1.339 . S
C72 C73 1.439 . S
C72 H101 0.950 . S
C73 N69 1.383 . S
C73 C72 1.439 . S
C73 C91 1.392 . S
N74 Co58 2.282 . S
N74 C77 1.332 . S
N74 C79 1.332 . S
C75 C76 1.386 . S
C75 C78 1.388 . S
C76 C75 1.386 . S
C76 C77 1.382 . S
C76 H102 0.950 . S
C77 N74 1.332 . S
C77 C76 1.382 . S
C77 H88 0.952 . S
C78 C75 1.388 . S
C78 C79 1.382 . S
C78 H103 0.950 . S
C79 N74 1.332 . S
C79 C78 1.382 . S
C79 H89 0.948 . S
N80 Co58 2.282 . S
N80 C84 1.332 . S
N80 C85 1.332 . S
C81 C82 1.388 . S
C81 C85 1.382 . S
C81 H104 0.950 . S
C82 C81 1.388 . S
C82 C83 1.386 . S
C83 C82 1.386 . S
C83 C84 1.382 . S
C83 H105 0.950 . S
C84 N80 1.332 . S
C84 C83 1.382 . S
C84 H86 0.952 . S
C85 N80 1.332 . S
C85 C81 1.382 . S
C85 H87 0.948 . S
H86 C84 0.952 . S
H87 C85 0.948 . S
H88 C77 0.952 . S
H89 C79 0.948 . S
C90 C56 1.395 . S
C90 C60 1.391 . S
C91 C53 1.389 . S
C91 C73 1.392 . S
C92 C63 1.392 . S
C92 C65 1.389 . S
C93 C68 1.395 . S
C93 C70 1.391 . S
H94 C54 0.951 . S
H95 C55 0.950 . S
H96 C61 0.949 . S
H97 C62 0.950 . S
H98 C66 0.951 . S
H99 C67 0.950 . S
H100 C71 0.949 . S
H101 C72 0.950 . S
H102 C76 0.950 . S
H103 C78 0.950 . S
H104 C81 0.950 . S
H105 C83 0.950 . S
C106 C107 1.443 . S
C106 N110 1.376 . S
C106 C144 1.389 . S
C107 C106 1.443 . S
C107 C108 1.340 . S
C107 H147 0.951 . S
C108 C107 1.340 . S
C108 C109 1.439 . S
C108 H148 0.950 . S
C109 C108 1.439 . S
C109 N110 1.374 . S
C109 C143 1.395 . S
N110 C106 1.376 . S
N110 C109 1.374 . S
N110 Co111 2.008 . S
Co111 N110 2.008 . S
Co111 N112 1.995 . S
Co111 N117 2.008 . S
Co111 N122 1.995 . S
Co111 N127 2.282 . S
Co111 N133 2.282 . S
N112 Co111 1.995 . S
N112 C113 1.376 . S
N112 C116 1.383 . S
C113 N112 1.376 . S
C113 C114 1.446 . S
C113 C143 1.391 . S
C114 C113 1.446 . S
C114 C115 1.339 . S
C114 H149 0.949 . S
C115 C114 1.339 . S
C115 C116 1.439 . S
C115 H150 0.950 . S
C116 N112 1.383 . S
C116 C115 1.439 . S
C116 C145 1.392 . S
N117 Co111 2.008 . S
N117 C118 1.376 . S
N117 C121 1.374 . S
C118 N117 1.376 . S
C118 C119 1.443 . S
C118 C145 1.389 . S
C119 C118 1.443 . S
C119 C120 1.340 . S
C119 H151 0.951 . S
C120 C119 1.340 . S
C120 C121 1.439 . S
C120 H152 0.950 . S
C121 N117 1.374 . S
C121 C120 1.439 . S
C121 C146 1.395 . S
N122 Co111 1.995 . S
N122 C123 1.376 . S
N122 C126 1.383 . S
C123 N122 1.376 . S
C123 C124 1.446 . S
C123 C146 1.391 . S
C124 C123 1.446 . S
C124 C125 1.339 . S
C124 H153 0.949 . S
C125 C124 1.339 . S
C125 C126 1.439 . S
C125 H154 0.950 . S
C126 N122 1.383 . S
C126 C125 1.439 . S
C126 C144 1.392 . S
N127 Co111 2.282 . S
N127 C130 1.332 . S
N127 C132 1.332 . S
C128 C129 1.386 . S
C128 C131 1.388 . S
C129 C128 1.386 . S
C129 C130 1.382 . S
C129 H155 0.950 . S
C130 N127 1.332 . S
C130 C129 1.382 . S
C130 H141 0.952 . S
C131 C128 1.388 . S
C131 C132 1.382 . S
C131 H156 0.950 . S
C132 N127 1.332 . S
C132 C131 1.382 . S
C132 H142 0.948 . S
N133 Co111 2.282 . S
N133 C137 1.332 . S
N133 C138 1.332 . S
C134 C135 1.388 . S
C134 C138 1.382 . S
C134 H157 0.950 . S
C135 C134 1.388 . S
C135 C136 1.386 . S
C136 C135 1.386 . S
C136 C137 1.382 . S
C136 H158 0.950 . S
C137 N133 1.332 . S
C137 C136 1.382 . S
C137 H139 0.952 . S
C138 N133 1.332 . S
C138 C134 1.382 . S
C138 H140 0.948 . S
H139 C137 0.952 . S
H140 C138 0.948 . S
H141 C130 0.952 . S
H142 C132 0.948 . S
C143 C109 1.395 . S
C143 C113 1.391 . S
C144 C106 1.389 . S
C144 C126 1.392 . S
C145 C116 1.392 . S
C145 C118 1.389 . S
C146 C121 1.395 . S
C146 C123 1.391 . S
H147 C107 0.951 . S
H148 C108 0.950 . S
H149 C114 0.949 . S
H150 C115 0.950 . S
H151 C119 0.951 . S
H152 C120 0.950 . S
H153 C124 0.949 . S
H154 C125 0.950 . S
H155 C129 0.950 . S
H156 C131 0.950 . S
H157 C134 0.950 . S
H158 C136 0.950 . S
C159 C160 1.443 . S
C159 N163 1.376 . S
C159 C197 1.389 . S
C160 C159 1.443 . S
C160 C161 1.340 . S
C160 H200 0.951 . S
C161 C160 1.340 . S
C161 C162 1.439 . S
C161 H201 0.950 . S
C162 C161 1.439 . S
C162 N163 1.374 . S
C162 C196 1.395 . S
N163 C159 1.376 . S
N163 C162 1.374 . S
N163 Co164 2.008 . S
Co164 N163 2.008 . S
Co164 N165 1.995 . S
Co164 N170 2.008 . S
Co164 N175 1.995 . S
Co164 N180 2.282 . S
Co164 N186 2.282 . S
N165 Co164 1.995 . S
N165 C166 1.376 . S
N165 C169 1.383 . S
C166 N165 1.376 . S
C166 C167 1.446 1_556 S
C166 C196 1.391 . S
C167 C166 1.446 1_554 S
C167 C168 1.339 . S
C167 H202 0.949 . S
C168 C167 1.339 . S
C168 C169 1.439 1_554 S
C168 H203 0.950 . S
C169 N165 1.383 . S
C169 C168 1.439 1_556 S
C169 C198 1.392 . S
N170 Co164 2.008 . S
N170 C171 1.376 . S
N170 C174 1.374 . S
C171 N170 1.376 . S
C171 C172 1.443 . S
C171 C198 1.389 . S
C172 C171 1.443 . S
C172 C173 1.340 . S
C172 H204 0.951 . S
C173 C172 1.340 . S
C173 C174 1.439 . S
C173 H205 0.950 . S
C174 N170 1.374 . S
C174 C173 1.439 . S
C174 C199 1.395 . S
N175 Co164 1.995 . S
N175 C176 1.376 . S
N175 C179 1.383 . S
C176 N175 1.376 . S
C176 C177 1.446 . S
C176 C199 1.391 . S
C177 C176 1.446 . S
C177 C178 1.339 . S
C177 H206 0.949 . S
C178 C177 1.339 . S
C178 C179 1.439 . S
C178 H207 0.950 . S
C179 N175 1.383 . S
C179 C178 1.439 . S
C179 C197 1.392 . S
N180 Co164 2.282 . S
N180 C183 1.332 . S
N180 C185 1.332 . S
C181 C182 1.386 . S
C181 C184 1.388 . S
C182 C181 1.386 . S
C182 C183 1.382 . S
C182 H208 0.950 . S
C183 N180 1.332 . S
C183 C182 1.382 . S
C183 H194 0.952 . S
C184 C181 1.388 . S
C184 C185 1.382 . S
C184 H209 0.950 . S
C185 N180 1.332 . S
C185 C184 1.382 . S
C185 H195 0.948 . S
N186 Co164 2.282 . S
N186 C190 1.332 . S
N186 C191 1.332 . S
C187 C188 1.388 . S
C187 C191 1.382 . S
C187 H210 0.950 . S
C188 C187 1.388 . S
C188 C189 1.386 . S
C189 C188 1.386 . S
C189 C190 1.382 . S
C189 H211 0.950 . S
C190 N186 1.332 . S
C190 C189 1.382 . S
C190 H192 0.952 . S
C191 N186 1.332 . S
C191 C187 1.382 . S
C191 H193 0.948 . S
H192 C190 0.952 . S
H193 C191 0.948 . S
H194 C183 0.952 . S
H195 C185 0.948 . S
C196 C162 1.395 . S
C196 C166 1.391 . S
C197 C159 1.389 . S
C197 C179 1.392 . S
C198 C169 1.392 . S
C198 C171 1.389 . S
C199 C174 1.395 . S
C199 C176 1.391 . S
H200 C160 0.951 . S
H201 C161 0.950 . S
H202 C167 0.949 . S
H203 C168 0.950 . S
H204 C172 0.951 . S
H205 C173 0.950 . S
H206 C177 0.949 . S
H207 C178 0.950 . S
H208 C182 0.950 . S
H209 C184 0.950 . S
H210 C187 0.950 . S
H211 C189 0.950 . S
C212 C213 1.443 . S
C212 N216 1.376 . S
C212 C250 1.389 . S
C213 C212 1.443 . S
C213 C214 1.340 . S
C213 H253 0.951 . S
C214 C213 1.340 . S
C214 C215 1.439 . S
C214 H254 0.950 . S
C215 C214 1.439 . S
C215 N216 1.374 . S
C215 C249 1.395 . S
N216 C212 1.376 . S
N216 C215 1.374 . S
N216 Co217 2.008 . S
Co217 N216 2.008 . S
Co217 N218 1.995 . S
Co217 N223 2.008 . S
Co217 N228 1.995 . S
Co217 N233 2.282 . S
Co217 N239 2.282 . S
N218 Co217 1.995 . S
N218 C219 1.376 . S
N218 C222 1.383 . S
C219 N218 1.376 . S
C219 C220 1.446 . S
C219 C249 1.391 . S
C220 C219 1.446 . S
C220 C221 1.339 . S
C220 H255 0.949 . S
C221 C220 1.339 . S
C221 C222 1.439 . S
C221 H256 0.950 . S
C222 N218 1.383 . S
C222 C221 1.439 . S
C222 C251 1.392 . S
N223 Co217 2.008 . S
N223 C224 1.376 . S
N223 C227 1.374 . S
C224 N223 1.376 . S
C224 C225 1.443 . S
C224 C251 1.389 . S
C225 C224 1.443 . S
C225 C226 1.340 . S
C225 H257 0.951 . S
C226 C225 1.340 . S
C226 C227 1.439 . S
C226 H258 0.950 . S
C227 N223 1.374 . S
C227 C226 1.439 . S
C227 C252 1.395 . S
N228 Co217 1.995 . S
N228 C229 1.376 . S
N228 C232 1.391 . S
C229 N228 1.376 . S
C229 C230 1.446 1_554 S
C229 C252 1.391 . S
C230 C229 1.446 1_556 S
C230 C231 1.339 . S
C230 H259 0.949 . S
C231 C230 1.339 . S
C231 C232 1.429 1_556 S
C231 H260 0.950 . S
C232 N228 1.391 . S
C232 C231 1.429 1_554 S
C232 C250 1.393 . S
N233 Co217 2.282 . S
N233 C236 1.332 . S
N233 C238 1.332 . S
C234 C235 1.386 . S
C234 C237 1.388 . S
C235 C234 1.386 . S
C235 C236 1.382 . S
C235 H261 0.950 . S
C236 N233 1.332 . S
C236 C235 1.382 . S
C236 H247 0.952 . S
C237 C234 1.388 . S
C237 C238 1.382 . S
C237 H262 0.950 . S
C238 N233 1.332 . S
C238 C237 1.382 . S
C238 H248 0.948 . S
N239 Co217 2.282 . S
N239 C243 1.332 . S
N239 C244 1.332 . S
C240 C241 1.388 . S
C240 C244 1.382 . S
C240 H263 0.950 . S
C241 C240 1.388 . S
C241 C242 1.386 . S
C242 C241 1.386 . S
C242 C243 1.382 . S
C242 H264 0.950 . S
C243 N239 1.332 . S
C243 C242 1.382 . S
C243 H245 0.952 . S
C244 N239 1.332 . S
C244 C240 1.382 . S
C244 H246 0.948 . S
H245 C243 0.952 . S
H246 C244 0.948 . S
H247 C236 0.952 . S
H248 C238 0.948 . S
C249 C215 1.395 . S
C249 C219 1.391 . S
C250 C212 1.389 . S
C250 C232 1.393 . S
C251 C222 1.392 . S
C251 C224 1.389 . S
C252 C227 1.395 . S
C252 C229 1.391 . S
H253 C213 0.951 . S
H254 C214 0.950 . S
H255 C220 0.949 . S
H256 C221 0.950 . S
H257 C225 0.951 . S
H258 C226 0.950 . S
H259 C230 0.949 . S
H260 C231 0.950 . S
H261 C235 0.950 . S
H262 C237 0.950 . S
H263 C240 0.950 . S
H264 C242 0.950 . S
C265 C266 1.443 . S
C265 N269 1.376 . S
C265 C303 1.389 . S
C266 C265 1.443 . S
C266 C267 1.340 . S
C266 H306 0.951 . S
C267 C266 1.340 . S
C267 C268 1.439 . S
C267 H307 0.950 . S
C268 C267 1.439 . S
C268 N269 1.374 . S
C268 C302 1.395 . S
N269 C265 1.376 . S
N269 C268 1.374 . S
N269 Co270 2.008 . S
Co270 N269 2.008 . S
Co270 N271 1.995 . S
Co270 N276 2.008 . S
Co270 N281 1.995 . S
Co270 N286 2.282 . S
Co270 N292 2.282 . S
N271 Co270 1.995 . S
N271 C272 1.376 . S
N271 C275 1.383 . S
C272 N271 1.376 . S
C272 C273 1.446 . S
C272 C302 1.391 . S
C273 C272 1.446 . S
C273 C274 1.339 . S
C273 H308 0.949 . S
C274 C273 1.339 . S
C274 C275 1.439 . S
C274 H309 0.950 . S
C275 N271 1.383 . S
C275 C274 1.439 . S
C275 C304 1.392 . S
N276 Co270 2.008 . S
N276 C277 1.376 . S
N276 C280 1.374 . S
C277 N276 1.376 . S
C277 C278 1.443 . S
C277 C304 1.389 . S
C278 C277 1.443 . S
C278 C279 1.340 . S
C278 H310 0.951 . S
C279 C278 1.340 . S
C279 C280 1.439 . S
C279 H311 0.950 . S
C280 N276 1.374 . S
C280 C279 1.439 . S
C280 C305 1.395 . S
N281 Co270 1.995 . S
N281 C282 1.376 . S
N281 C285 1.383 . S
C282 N281 1.376 . S
C282 C283 1.446 . S
C282 C305 1.391 . S
C283 C282 1.446 . S
C283 C284 1.339 . S
C283 H312 0.949 . S
C284 C283 1.339 . S
C284 C285 1.439 . S
C284 H313 0.950 . S
C285 N281 1.383 . S
C285 C284 1.439 . S
C285 C303 1.392 . S
N286 Co270 2.282 . S
N286 C289 1.332 . S
N286 C291 1.332 . S
C287 C288 1.386 . S
C287 C290 1.388 . S
C288 C287 1.386 . S
C288 C289 1.382 . S
C288 H314 0.950 . S
C289 N286 1.332 . S
C289 C288 1.382 . S
C289 H300 0.952 . S
C290 C287 1.388 . S
C290 C291 1.382 . S
C290 H315 0.950 . S
C291 N286 1.332 . S
C291 C290 1.382 . S
C291 H301 0.948 . S
N292 Co270 2.282 . S
N292 C296 1.332 . S
N292 C297 1.332 . S
C293 C294 1.388 . S
C293 C297 1.382 . S
C293 H316 0.950 . S
C294 C293 1.388 . S
C294 C295 1.386 . S
C295 C294 1.386 . S
C295 C296 1.382 . S
C295 H317 0.950 . S
C296 N292 1.332 . S
C296 C295 1.382 . S
C296 H298 0.952 . S
C297 N292 1.332 . S
C297 C293 1.382 . S
C297 H299 0.948 . S
H298 C296 0.952 . S
H299 C297 0.948 . S
H300 C289 0.952 . S
H301 C291 0.948 . S
C302 C268 1.395 . S
C302 C272 1.391 . S
C303 C265 1.389 . S
C303 C285 1.392 . S
C304 C275 1.392 . S
C304 C277 1.389 . S
C305 C280 1.395 . S
C305 C282 1.391 . S
H306 C266 0.951 . S
H307 C267 0.950 . S
H308 C273 0.949 . S
H309 C274 0.950 . S
H310 C278 0.951 . S
H311 C279 0.950 . S
H312 C283 0.949 . S
H313 C284 0.950 . S
H314 C288 0.950 . S
H315 C290 0.950 . S
H316 C293 0.950 . S
H317 C295 0.950 . S
C318 C319 1.443 . S
C318 N322 1.376 . S
C318 C356 1.389 . S
C319 C318 1.443 . S
C319 C320 1.340 . S
C319 H359 0.951 . S
C320 C319 1.340 . S
C320 C321 1.439 . S
C320 H360 0.950 . S
C321 C320 1.439 . S
C321 N322 1.374 . S
C321 C355 1.395 . S
N322 C318 1.376 . S
N322 C321 1.374 . S
N322 Co323 2.008 . S
Co323 N322 2.008 . S
Co323 N324 1.995 . S
Co323 N329 2.008 . S
Co323 N334 1.995 . S
Co323 N339 2.282 . S
Co323 N345 2.282 . S
N324 Co323 1.995 . S
N324 C325 1.376 . S
N324 C328 1.383 . S
C325 N324 1.376 . S
C325 C326 1.446 . S
C325 C355 1.391 . S
C326 C325 1.446 . S
C326 C327 1.339 . S
C326 H361 0.949 . S
C327 C326 1.339 . S
C327 C328 1.439 . S
C327 H362 0.950 . S
C328 N324 1.383 . S
C328 C327 1.439 . S
C328 C357 1.392 . S
N329 Co323 2.008 . S
N329 C330 1.376 . S
N329 C333 1.374 . S
C330 N329 1.376 . S
C330 C331 1.443 . S
C330 C357 1.389 . S
C331 C330 1.443 . S
C331 C332 1.340 . S
C331 H363 0.951 . S
C332 C331 1.340 . S
C332 C333 1.439 . S
C332 H364 0.950 . S
C333 N329 1.374 . S
C333 C332 1.439 . S
C333 C358 1.395 . S
N334 Co323 1.995 . S
N334 C335 1.376 . S
N334 C338 1.383 . S
C335 N334 1.376 . S
C335 C336 1.446 . S
C335 C358 1.391 . S
C336 C335 1.446 . S
C336 C337 1.339 . S
C336 H365 0.949 . S
C337 C336 1.339 . S
C337 C338 1.439 . S
C337 H366 0.950 . S
C338 N334 1.383 . S
C338 C337 1.439 . S
C338 C356 1.392 . S
N339 Co323 2.282 . S
N339 C342 1.332 . S
N339 C344 1.332 . S
C340 C341 1.386 . S
C340 C343 1.388 . S
C341 C340 1.386 . S
C341 C342 1.382 . S
C341 H367 0.950 . S
C342 N339 1.332 . S
C342 C341 1.382 . S
C342 H353 0.952 . S
C343 C340 1.388 . S
C343 C344 1.382 . S
C343 H368 0.950 . S
C344 N339 1.332 . S
C344 C343 1.382 . S
C344 H354 0.948 . S
N345 Co323 2.282 . S
N345 C349 1.332 . S
N345 C350 1.332 . S
C346 C347 1.388 . S
C346 C350 1.382 . S
C346 H369 0.950 . S
C347 C346 1.388 . S
C347 C348 1.386 . S
C348 C347 1.386 . S
C348 C349 1.382 . S
C348 H370 0.950 . S
C349 N345 1.332 . S
C349 C348 1.382 . S
C349 H351 0.952 . S
C350 N345 1.332 . S
C350 C346 1.382 . S
C350 H352 0.948 . S
H351 C349 0.952 . S
H352 C350 0.948 . S
H353 C342 0.952 . S
H354 C344 0.948 . S
C355 C321 1.395 . S
C355 C325 1.391 . S
C356 C318 1.389 . S
C356 C338 1.392 . S
C357 C328 1.392 . S
C357 C330 1.389 . S
C358 C333 1.395 . S
C358 C335 1.391 . S
H359 C319 0.951 . S
H360 C320 0.950 . S
H361 C326 0.949 . S
H362 C327 0.950 . S
H363 C331 0.951 . S
H364 C332 0.950 . S
H365 C336 0.949 . S
H366 C337 0.950 . S
H367 C341 0.950 . S
H368 C343 0.950 . S
H369 C346 0.950 . S
H370 C348 0.950 . S
C371 C372 1.443 . S
C371 N375 1.376 . S
C371 C409 1.389 . S
C372 C371 1.443 . S
C372 C373 1.340 . S
C372 H412 0.951 . S
C373 C372 1.340 . S
C373 C374 1.439 . S
C373 H413 0.950 . S
C374 C373 1.439 . S
C374 N375 1.374 . S
C374 C408 1.395 . S
N375 C371 1.376 . S
N375 C374 1.374 . S
N375 Co376 2.008 . S
Co376 N375 2.008 . S
Co376 N377 1.995 . S
Co376 N382 2.008 . S
Co376 N387 1.995 . S
Co376 N392 2.282 . S
Co376 N398 2.282 . S
N377 Co376 1.995 . S
N377 C378 1.376 . S
N377 C381 1.383 . S
C378 N377 1.376 . S
C378 C379 1.446 . S
C378 C408 1.391 . S
C379 C378 1.446 . S
C379 C380 1.339 . S
C379 H414 0.949 . S
C380 C379 1.339 . S
C380 C381 1.439 . S
C380 H415 0.950 . S
C381 N377 1.383 . S
C381 C380 1.439 . S
C381 C410 1.392 . S
N382 Co376 2.008 . S
N382 C383 1.376 . S
N382 C386 1.374 . S
C383 N382 1.376 . S
C383 C384 1.443 . S
C383 C410 1.389 . S
C384 C383 1.443 . S
C384 C385 1.340 . S
C384 H416 0.951 . S
C385 C384 1.340 . S
C385 C386 1.439 . S
C385 H417 0.950 . S
C386 N382 1.374 . S
C386 C385 1.439 . S
C386 C411 1.395 . S
N387 Co376 1.995 . S
N387 C388 1.376 . S
N387 C391 1.383 . S
C388 N387 1.376 . S
C388 C389 1.446 . S
C388 C411 1.391 . S
C389 C388 1.446 . S
C389 C390 1.339 . S
C389 H418 0.949 . S
C390 C389 1.339 . S
C390 C391 1.439 . S
C390 H419 0.950 . S
C391 N387 1.383 . S
C391 C390 1.439 . S
C391 C409 1.392 . S
N392 Co376 2.282 . S
N392 C395 1.332 . S
N392 C397 1.332 . S
C393 C394 1.386 . S
C393 C396 1.388 . S
C394 C393 1.386 . S
C394 C395 1.382 . S
C394 H420 0.950 . S
C395 N392 1.332 . S
C395 C394 1.382 . S
C395 H406 0.952 . S
C396 C393 1.388 . S
C396 C397 1.382 . S
C396 H421 0.950 . S
C397 N392 1.332 . S
C397 C396 1.382 . S
C397 H407 0.948 . S
N398 Co376 2.282 . S
N398 C402 1.332 . S
N398 C403 1.332 . S
C399 C400 1.388 . S
C399 C403 1.382 . S
C399 H422 0.950 . S
C400 C399 1.388 . S
C400 C401 1.386 . S
C401 C400 1.386 . S
C401 C402 1.382 . S
C401 H423 0.950 . S
C402 N398 1.332 . S
C402 C401 1.382 . S
C402 H404 0.952 . S
C403 N398 1.332 . S
C403 C399 1.382 . S
C403 H405 0.948 . S
H404 C402 0.952 . S
H405 C403 0.948 . S
H406 C395 0.952 . S
H407 C397 0.948 . S
C408 C374 1.395 . S
C408 C378 1.391 . S
C409 C371 1.389 . S
C409 C391 1.392 . S
C410 C381 1.392 . S
C410 C383 1.389 . S
C411 C386 1.395 . S
C411 C388 1.391 . S
H412 C372 0.951 . S
H413 C373 0.950 . S
H414 C379 0.949 . S
H415 C380 0.950 . S
H416 C384 0.951 . S
H417 C385 0.950 . S
H418 C389 0.949 . S
H419 C390 0.950 . S
H420 C394 0.950 . S
H421 C396 0.950 . S
H422 C399 0.950 . S
H423 C401 0.950 . S
C424 C425 1.443 . S
C424 N428 1.376 . S
C424 C462 1.389 . S
C425 C424 1.443 . S
C425 C426 1.340 . S
C425 H465 0.951 . S
C426 C425 1.340 . S
C426 C427 1.439 . S
C426 H466 0.950 . S
C427 C426 1.439 . S
C427 N428 1.374 . S
C427 C461 1.395 . S
N428 C424 1.376 . S
N428 C427 1.374 . S
N428 Co429 2.008 . S
Co429 N428 2.008 . S
Co429 N430 1.995 . S
Co429 N435 2.008 . S
Co429 N440 1.995 . S
Co429 N445 2.282 . S
Co429 N451 2.282 . S
N430 Co429 1.995 . S
N430 C431 1.376 . S
N430 C434 1.383 . S
C431 N430 1.376 . S
C431 C432 1.446 . S
C431 C461 1.391 . S
C432 C431 1.446 . S
C432 C433 1.339 . S
C432 H467 0.949 . S
C433 C432 1.339 . S
C433 C434 1.439 . S
C433 H468 0.950 . S
C434 N430 1.383 . S
C434 C433 1.439 . S
C434 C463 1.392 . S
N435 Co429 2.008 . S
N435 C436 1.376 . S
N435 C439 1.374 . S
C436 N435 1.376 . S
C436 C437 1.443 . S
C436 C463 1.389 . S
C437 C436 1.443 . S
C437 C438 1.340 . S
C437 H469 0.951 . S
C438 C437 1.340 . S
C438 C439 1.439 . S
C438 H470 0.950 . S
C439 N435 1.374 . S
C439 C438 1.439 . S
C439 C464 1.395 . S
N440 Co429 1.995 . S
N440 C441 1.376 . S
N440 C444 1.383 . S
C441 N440 1.376 . S
C441 C442 1.446 . S
C441 C464 1.391 . S
C442 C441 1.446 . S
C442 C443 1.339 . S
C442 H471 0.949 . S
C443 C442 1.339 . S
C443 C444 1.439 . S
C443 H472 0.950 . S
C444 N440 1.383 . S
C444 C443 1.439 . S
C444 C462 1.392 . S
N445 Co429 2.282 . S
N445 C448 1.332 . S
N445 C450 1.332 . S
C446 C447 1.386 . S
C446 C449 1.388 . S
C447 C446 1.386 . S
C447 C448 1.382 . S
C447 H473 0.950 . S
C448 N445 1.332 . S
C448 C447 1.382 . S
C448 H459 0.952 . S
C449 C446 1.388 . S
C449 C450 1.382 . S
C449 H474 0.950 . S
C450 N445 1.332 . S
C450 C449 1.382 . S
C450 H460 0.948 . S
N451 Co429 2.282 . S
N451 C455 1.332 . S
N451 C456 1.332 . S
C452 C453 1.388 . S
C452 C456 1.382 . S
C452 H475 0.950 . S
C453 C452 1.388 . S
C453 C454 1.386 . S
C454 C453 1.386 . S
C454 C455 1.382 . S
C454 H476 0.950 . S
C455 N451 1.332 . S
C455 C454 1.382 . S
C455 H457 0.952 . S
C456 N451 1.332 . S
C456 C452 1.382 . S
C456 H458 0.948 . S
H457 C455 0.952 . S
H458 C456 0.948 . S
H459 C448 0.952 . S
H460 C450 0.948 . S
C461 C427 1.395 . S
C461 C431 1.391 . S
C462 C424 1.389 . S
C462 C444 1.392 . S
C463 C434 1.392 . S
C463 C436 1.389 . S
C464 C439 1.395 . S
C464 C441 1.391 . S
H465 C425 0.951 . S
H466 C426 0.950 . S
H467 C432 0.949 . S
H468 C433 0.950 . S
H469 C437 0.951 . S
H470 C438 0.950 . S
H471 C442 0.949 . S
H472 C443 0.950 . S
H473 C447 0.950 . S
H474 C449 0.950 . S
H475 C452 0.950 . S
H476 C454 0.950 . S
C477 C478 1.443 . S
C477 N481 1.376 . S
C477 C515 1.389 . S
C478 C477 1.443 . S
C478 C479 1.340 . S
C478 H518 0.951 . S
C479 C478 1.340 . S
C479 C480 1.439 . S
C479 H519 0.950 . S
C480 C479 1.439 . S
C480 N481 1.374 . S
C480 C514 1.395 . S
N481 C477 1.376 . S
N481 C480 1.374 . S
N481 Co482 2.008 . S
Co482 N481 2.008 . S
Co482 N483 1.995 . S
Co482 N488 2.008 . S
Co482 N493 1.995 . S
Co482 N498 2.282 . S
Co482 N504 2.282 . S
N483 Co482 1.995 . S
N483 C484 1.376 . S
N483 C487 1.383 . S
C484 N483 1.376 . S
C484 C485 1.446 . S
C484 C514 1.391 . S
C485 C484 1.446 . S
C485 C486 1.339 . S
C485 H520 0.949 . S
C486 C485 1.339 . S
C486 C487 1.439 . S
C486 H521 0.950 . S
C487 N483 1.383 . S
C487 C486 1.439 . S
C487 C516 1.392 . S
N488 Co482 2.008 . S
N488 C489 1.376 . S
N488 C492 1.374 . S
C489 N488 1.376 . S
C489 C490 1.443 . S
C489 C516 1.389 . S
C490 C489 1.443 . S
C490 C491 1.340 . S
C490 H522 0.951 . S
C491 C490 1.340 . S
C491 C492 1.439 . S
C491 H523 0.950 . S
C492 N488 1.374 . S
C492 C491 1.439 . S
C492 C517 1.395 . S
N493 Co482 1.995 . S
N493 C494 1.376 . S
N493 C497 1.391 . S
C494 N493 1.376 . S
C494 C495 1.446 1_556 S
C494 C517 1.391 . S
C495 C494 1.446 1_554 S
C495 C496 1.339 . S
C495 H524 0.949 . S
C496 C495 1.339 . S
C496 C497 1.429 1_554 S
C496 H525 0.950 . S
C497 N493 1.391 . S
C497 C496 1.429 1_556 S
C497 C515 1.393 . S
N498 Co482 2.282 . S
N498 C501 1.332 . S
N498 C503 1.332 . S
C499 C500 1.386 . S
C499 C502 1.388 . S
C500 C499 1.386 . S
C500 C501 1.382 . S
C500 H526 0.950 . S
C501 N498 1.332 . S
C501 C500 1.382 . S
C501 H512 0.952 . S
C502 C499 1.388 . S
C502 C503 1.382 . S
C502 H527 0.950 . S
C503 N498 1.332 . S
C503 C502 1.382 . S
C503 H513 0.948 . S
N504 Co482 2.282 . S
N504 C508 1.332 . S
N504 C509 1.332 . S
C505 C506 1.388 . S
C505 C509 1.382 . S
C505 H528 0.950 . S
C506 C505 1.388 . S
C506 C507 1.386 . S
C507 C506 1.386 . S
C507 C508 1.382 . S
C507 H529 0.950 . S
C508 N504 1.332 . S
C508 C507 1.382 . S
C508 H510 0.952 . S
C509 N504 1.332 . S
C509 C505 1.382 . S
C509 H511 0.948 . S
H510 C508 0.952 . S
H511 C509 0.948 . S
H512 C501 0.952 . S
H513 C503 0.948 . S
C514 C480 1.395 . S
C514 C484 1.391 . S
C515 C477 1.389 . S
C515 C497 1.393 . S
C516 C487 1.392 . S
C516 C489 1.389 . S
C517 C492 1.395 . S
C517 C494 1.391 . S
H518 C478 0.951 . S
H519 C479 0.950 . S
H520 C485 0.949 . S
H521 C486 0.950 . S
H522 C490 0.951 . S
H523 C491 0.950 . S
H524 C495 0.949 . S
H525 C496 0.950 . S
H526 C500 0.950 . S
H527 C502 0.950 . S
H528 C505 0.950 . S
H529 C507 0.950 . S
C530 C531 1.443 . S
C530 N534 1.376 . S
C530 C568 1.389 . S
C531 C530 1.443 . S
C531 C532 1.340 . S
C531 H571 0.951 . S
C532 C531 1.340 . S
C532 C533 1.439 . S
C532 H572 0.950 . S
C533 C532 1.439 . S
C533 N534 1.374 . S
C533 C567 1.395 . S
N534 C530 1.376 . S
N534 C533 1.374 . S
N534 Co535 2.008 . S
Co535 N534 2.008 . S
Co535 N536 1.995 . S
Co535 N541 2.008 . S
Co535 N546 1.995 . S
Co535 N551 2.282 . S
Co535 N557 2.282 . S
N536 Co535 1.995 . S
N536 C537 1.376 . S
N536 C540 1.383 . S
C537 N536 1.376 . S
C537 C538 1.446 1_554 S
C537 C567 1.391 . S
C538 C537 1.446 1_556 S
C538 C539 1.339 . S
C538 H573 0.949 . S
C539 C538 1.339 . S
C539 C540 1.439 1_556 S
C539 H574 0.950 . S
C540 N536 1.383 . S
C540 C539 1.439 1_554 S
C540 C569 1.392 . S
N541 Co535 2.008 . S
N541 C542 1.376 . S
N541 C545 1.374 . S
C542 N541 1.376 . S
C542 C543 1.443 . S
C542 C569 1.389 . S
C543 C542 1.443 . S
C543 C544 1.340 . S
C543 H575 0.951 . S
C544 C543 1.340 . S
C544 C545 1.439 . S
C544 H576 0.950 . S
C545 N541 1.374 . S
C545 C544 1.439 . S
C545 C570 1.395 . S
N546 Co535 1.995 . S
N546 C547 1.376 . S
N546 C550 1.383 . S
C547 N546 1.376 . S
C547 C548 1.446 . S
C547 C570 1.391 . S
C548 C547 1.446 . S
C548 C549 1.339 . S
C548 H577 0.949 . S
C549 C548 1.339 . S
C549 C550 1.439 . S
C549 H578 0.950 . S
C550 N546 1.383 . S
C550 C549 1.439 . S
C550 C568 1.392 . S
N551 Co535 2.282 . S
N551 C554 1.332 . S
N551 C556 1.332 . S
C552 C553 1.386 . S
C552 C555 1.388 . S
C553 C552 1.386 . S
C553 C554 1.382 . S
C553 H579 0.950 . S
C554 N551 1.332 . S
C554 C553 1.382 . S
C554 H565 0.952 . S
C555 C552 1.388 . S
C555 C556 1.382 . S
C555 H580 0.950 . S
C556 N551 1.332 . S
C556 C555 1.382 . S
C556 H566 0.948 . S
N557 Co535 2.282 . S
N557 C561 1.332 . S
N557 C562 1.332 . S
C558 C559 1.388 . S
C558 C562 1.382 . S
C558 H581 0.950 . S
C559 C558 1.388 . S
C559 C560 1.386 . S
C560 C559 1.386 . S
C560 C561 1.382 . S
C560 H582 0.950 . S
C561 N557 1.332 . S
C561 C560 1.382 . S
C561 H563 0.952 . S
C562 N557 1.332 . S
C562 C558 1.382 . S
C562 H564 0.948 . S
H563 C561 0.952 . S
H564 C562 0.948 . S
H565 C554 0.952 . S
H566 C556 0.948 . S
C567 C533 1.395 . S
C567 C537 1.391 . S
C568 C530 1.389 . S
C568 C550 1.392 . S
C569 C540 1.392 . S
C569 C542 1.389 . S
C570 C545 1.395 . S
C570 C547 1.391 . S
H571 C531 0.951 . S
H572 C532 0.950 . S
H573 C538 0.949 . S
H574 C539 0.950 . S
H575 C543 0.951 . S
H576 C544 0.950 . S
H577 C548 0.949 . S
H578 C549 0.950 . S
H579 C553 0.950 . S
H580 C555 0.950 . S
H581 C558 0.950 . S
H582 C560 0.950 . S
C583 C584 1.443 . S
C583 N587 1.376 . S
C583 C621 1.389 . S
C584 C583 1.443 . S
C584 C585 1.340 . S
C584 H624 0.951 . S
C585 C584 1.340 . S
C585 C586 1.439 . S
C585 H625 0.950 . S
C586 C585 1.439 . S
C586 N587 1.374 . S
C586 C620 1.395 . S
N587 C583 1.376 . S
N587 C586 1.374 . S
N587 Co588 2.008 . S
Co588 N587 2.008 . S
Co588 N589 1.995 . S
Co588 N594 2.008 . S
Co588 N599 1.995 . S
Co588 N604 2.282 . S
Co588 N610 2.282 . S
N589 Co588 1.995 . S
N589 C590 1.376 . S
N589 C593 1.383 . S
C590 N589 1.376 . S
C590 C591 1.446 . S
C590 C620 1.391 . S
C591 C590 1.446 . S
C591 C592 1.339 . S
C591 H626 0.949 . S
C592 C591 1.339 . S
C592 C593 1.439 . S
C592 H627 0.950 . S
C593 N589 1.383 . S
C593 C592 1.439 . S
C593 C622 1.392 . S
N594 Co588 2.008 . S
N594 C595 1.376 . S
N594 C598 1.374 . S
C595 N594 1.376 . S
C595 C596 1.443 . S
C595 C622 1.389 . S
C596 C595 1.443 . S
C596 C597 1.340 . S
C596 H628 0.951 . S
C597 C596 1.340 . S
C597 C598 1.439 . S
C597 H629 0.950 . S
C598 N594 1.374 . S
C598 C597 1.439 . S
C598 C623 1.395 . S
N599 Co588 1.995 . S
N599 C600 1.376 . S
N599 C603 1.383 . S
C600 N599 1.376 . S
C600 C601 1.446 . S
C600 C623 1.391 . S
C601 C600 1.446 . S
C601 C602 1.339 . S
C601 H630 0.949 . S
C602 C601 1.339 . S
C602 C603 1.439 . S
C602 H631 0.950 . S
C603 N599 1.383 . S
C603 C602 1.439 . S
C603 C621 1.392 . S
N604 Co588 2.282 . S
N604 C607 1.332 . S
N604 C609 1.332 . S
C605 C606 1.386 . S
C605 C608 1.388 . S
C606 C605 1.386 . S
C606 C607 1.382 . S
C606 H632 0.950 . S
C607 N604 1.332 . S
C607 C606 1.382 . S
C607 H618 0.952 . S
C608 C605 1.388 . S
C608 C609 1.382 . S
C608 H633 0.950 . S
C609 N604 1.332 . S
C609 C608 1.382 . S
C609 H619 0.948 . S
N610 Co588 2.282 . S
N610 C614 1.332 . S
N610 C615 1.332 . S
C611 C612 1.388 . S
C611 C615 1.382 . S
C611 H634 0.950 . S
C612 C611 1.388 . S
C612 C613 1.386 . S
C613 C612 1.386 . S
C613 C614 1.382 . S
C613 H635 0.950 . S
C614 N610 1.332 . S
C614 C613 1.382 . S
C614 H616 0.952 . S
C615 N610 1.332 . S
C615 C611 1.382 . S
C615 H617 0.948 . S
H616 C614 0.952 . S
H617 C615 0.948 . S
H618 C607 0.952 . S
H619 C609 0.948 . S
C620 C586 1.395 . S
C620 C590 1.391 . S
C621 C583 1.389 . S
C621 C603 1.392 . S
C622 C593 1.392 . S
C622 C595 1.389 . S
C623 C598 1.395 . S
C623 C600 1.391 . S
H624 C584 0.951 . S
H625 C585 0.950 . S
H626 C591 0.949 . S
H627 C592 0.950 . S
H628 C596 0.951 . S
H629 C597 0.950 . S
H630 C601 0.949 . S
H631 C602 0.950 . S
H632 C606 0.950 . S
H633 C608 0.950 . S
H634 C611 0.950 . S
H635 C613 0.950 . S
H636 C644 0.950 . S
H637 C649 0.950 . S
H638 C646 0.950 . S
H639 C648 0.950 . S
H640 C650 0.950 . S
H641 C652 0.950 . S
H642 C654 0.950 . S
H643 C655 0.950 . S
C644 H636 0.950 . S
C644 C645 1.386 . S
C644 C646 1.391 . S
C645 C644 1.386 . S
C645 C649 1.393 . S
C646 H638 0.950 . S
C646 C644 1.391 . S
C646 C647 1.400 . S
C647 C646 1.400 . S
C647 C648 1.398 . S
C647 C653 1.491 . S
C648 H639 0.950 . S
C648 C647 1.398 . S
C648 C649 1.391 . S
C649 H637 0.950 . S
C649 C645 1.393 . S
C649 C648 1.391 . S
C650 H640 0.950 . S
C650 C651 1.386 . S
C650 C652 1.391 . S
C651 C650 1.386 . S
C651 C655 1.393 . S
C652 H641 0.950 . S
C652 C650 1.391 . S
C652 C653 1.400 . S
C653 C647 1.491 . S
C653 C652 1.400 . S
C653 C654 1.398 . S
C654 H642 0.950 . S
C654 C653 1.398 . S
C654 C655 1.391 . S
C655 H643 0.950 . S
C655 C651 1.393 . S
C655 C654 1.391 . S
H656 C664 0.950 . S
H657 C669 0.950 . S
H658 C666 0.950 . S
H659 C668 0.950 . S
H660 C670 0.950 . S
H661 C672 0.950 . S
H662 C674 0.950 . S
H663 C675 0.950 . S
C664 H656 0.950 . S
C664 C665 1.386 . S
C664 C666 1.391 . S
C665 C664 1.386 . S
C665 C669 1.393 . S
C666 H658 0.950 . S
C666 C664 1.391 . S
C666 C667 1.400 . S
C667 C666 1.400 . S
C667 C668 1.398 . S
C667 C673 1.491 . S
C668 H659 0.950 . S
C668 C667 1.398 . S
C668 C669 1.391 . S
C669 H657 0.950 . S
C669 C665 1.393 . S
C669 C668 1.391 . S
C670 H660 0.950 . S
C670 C671 1.386 . S
C670 C672 1.391 . S
C671 C670 1.386 . S
C671 C675 1.393 . S
C672 H661 0.950 . S
C672 C670 1.391 . S
C672 C673 1.400 . S
C673 C667 1.491 . S
C673 C672 1.400 . S
C673 C674 1.398 . S
C674 H662 0.950 . S
C674 C673 1.398 . S
C674 C675 1.391 . S
C675 H663 0.950 . S
C675 C671 1.393 . S
C675 C674 1.391 . S
H676 C684 0.950 . S
H677 C689 0.950 . S
H678 C686 0.950 . S
H679 C688 0.950 . S
H680 C690 0.950 . S
H681 C692 0.950 . S
H682 C694 0.950 . S
H683 C695 0.950 . S
C684 H676 0.950 . S
C684 C685 1.386 . S
C684 C686 1.391 . S
C685 C684 1.386 . S
C685 C689 1.393 . S
C686 H678 0.950 . S
C686 C684 1.391 . S
C686 C687 1.400 . S
C687 C686 1.400 . S
C687 C688 1.398 . S
C687 C693 1.491 . S
C688 H679 0.950 . S
C688 C687 1.398 . S
C688 C689 1.391 . S
C689 H677 0.950 . S
C689 C685 1.393 . S
C689 C688 1.391 . S
C690 H680 0.950 . S
C690 C691 1.386 . S
C690 C692 1.391 . S
C691 C690 1.386 . S
C691 C695 1.393 . S
C692 H681 0.950 . S
C692 C690 1.391 . S
C692 C693 1.400 . S
C693 C687 1.491 . S
C693 C692 1.400 . S
C693 C694 1.398 . S
C694 H682 0.950 . S
C694 C693 1.398 . S
C694 C695 1.391 . S
C695 H683 0.950 . S
C695 C691 1.393 . S
C695 C694 1.391 . S
H696 C704 0.950 . S
H697 C709 0.950 . S
H698 C706 0.950 . S
H699 C708 0.950 . S
H700 C710 0.950 . S
H701 C712 0.950 . S
H702 C714 0.950 . S
H703 C715 0.950 . S
C704 H696 0.950 . S
C704 C705 1.386 . S
C704 C706 1.391 . S
C705 C704 1.386 . S
C705 C709 1.393 . S
C706 H698 0.950 . S
C706 C704 1.391 . S
C706 C707 1.400 . S
C707 C706 1.400 . S
C707 C708 1.398 . S
C707 C713 1.491 . S
C708 H699 0.950 . S
C708 C707 1.398 . S
C708 C709 1.391 . S
C709 H697 0.950 . S
C709 C705 1.393 . S
C709 C708 1.391 . S
C710 H700 0.950 . S
C710 C711 1.386 . S
C710 C712 1.391 . S
C711 C710 1.386 . S
C711 C715 1.393 . S
C712 H701 0.950 . S
C712 C710 1.391 . S
C712 C713 1.400 . S
C713 C707 1.491 . S
C713 C712 1.400 . S
C713 C714 1.398 . S
C714 H702 0.950 . S
C714 C713 1.398 . S
C714 C715 1.391 . S
C715 H703 0.950 . S
C715 C711 1.393 . S
C715 C714 1.391 . S
H716 C724 0.950 . S
H717 C729 0.950 . S
H718 C726 0.950 . S
H719 C728 0.950 . S
H720 C730 0.950 . S
H721 C732 0.950 . S
H722 C734 0.950 . S
H723 C735 0.950 . S
C724 H716 0.950 . S
C724 C725 1.386 . S
C724 C726 1.391 . S
C725 C724 1.386 . S
C725 C729 1.393 . S
C726 H718 0.950 . S
C726 C724 1.391 . S
C726 C727 1.400 . S
C727 C726 1.400 . S
C727 C728 1.398 . S
C727 C733 1.491 . S
C728 H719 0.950 . S
C728 C727 1.398 . S
C728 C729 1.391 . S
C729 H717 0.950 . S
C729 C725 1.393 . S
C729 C728 1.391 . S
C730 H720 0.950 . S
C730 C731 1.386 . S
C730 C732 1.391 . S
C731 C730 1.386 . S
C731 C735 1.393 . S
C732 H721 0.950 . S
C732 C730 1.391 . S
C732 C733 1.400 . S
C733 C727 1.491 . S
C733 C732 1.400 . S
C733 C734 1.398 . S
C734 H722 0.950 . S
C734 C733 1.398 . S
C734 C735 1.391 . S
C735 H723 0.950 . S
C735 C731 1.393 . S
C735 C734 1.391 . S
H736 C744 0.950 . S
H737 C749 0.950 . S
H738 C746 0.950 . S
H739 C748 0.950 . S
H740 C750 0.950 . S
H741 C752 0.950 . S
H742 C754 0.950 . S
H743 C755 0.950 . S
C744 H736 0.950 . S
C744 C745 1.386 . S
C744 C746 1.391 . S
C745 C744 1.386 . S
C745 C749 1.393 . S
C746 H738 0.950 . S
C746 C744 1.391 . S
C746 C747 1.400 . S
C747 C746 1.400 . S
C747 C748 1.398 . S
C747 C753 1.491 . S
C748 H739 0.950 . S
C748 C747 1.398 . S
C748 C749 1.391 . S
C749 H737 0.950 . S
C749 C745 1.393 . S
C749 C748 1.391 . S
C750 H740 0.950 . S
C750 C751 1.386 . S
C750 C752 1.391 . S
C751 C750 1.386 . S
C751 C755 1.393 . S
C752 H741 0.950 . S
C752 C750 1.391 . S
C752 C753 1.400 . S
C753 C747 1.491 . S
C753 C752 1.400 . S
C753 C754 1.398 . S
C754 H742 0.950 . S
C754 C753 1.398 . S
C754 C755 1.391 . S
C755 H743 0.950 . S
C755 C751 1.393 . S
C755 C754 1.391 . S
H756 C764 0.950 . S
H757 C769 0.950 . S
H758 C766 0.950 . S
H759 C768 0.950 . S
H760 C770 0.950 . S
H761 C772 0.950 . S
H762 C774 0.950 . S
H763 C775 0.950 . S
C764 H756 0.950 . S
C764 C765 1.386 . S
C764 C766 1.391 . S
C765 C764 1.386 . S
C765 C769 1.393 . S
C766 H758 0.950 . S
C766 C764 1.391 . S
C766 C767 1.400 . S
C767 C766 1.400 . S
C767 C768 1.398 . S
C767 C773 1.491 . S
C768 H759 0.950 . S
C768 C767 1.398 . S
C768 C769 1.391 . S
C769 H757 0.950 . S
C769 C765 1.393 . S
C769 C768 1.391 . S
C770 H760 0.950 . S
C770 C771 1.386 . S
C770 C772 1.391 . S
C771 C770 1.386 . S
C771 C775 1.393 . S
C772 H761 0.950 . S
C772 C770 1.391 . S
C772 C773 1.400 . S
C773 C767 1.491 . S
C773 C772 1.400 . S
C773 C774 1.398 . S
C774 H762 0.950 . S
C774 C773 1.398 . S
C774 C775 1.391 . S
C775 H763 0.950 . S
C775 C771 1.393 . S
C775 C774 1.391 . S
H776 C784 0.950 . S
H777 C789 0.950 . S
H778 C786 0.950 . S
H779 C788 0.950 . S
H780 C790 0.950 . S
H781 C792 0.950 . S
H782 C794 0.950 . S
H783 C795 0.950 . S
C784 H776 0.950 . S
C784 C785 1.386 . S
C784 C786 1.391 . S
C785 C784 1.386 . S
C785 C789 1.393 . S
C786 H778 0.950 . S
C786 C784 1.391 . S
C786 C787 1.400 . S
C787 C786 1.400 . S
C787 C788 1.398 . S
C787 C793 1.491 . S
C788 H779 0.950 . S
C788 C787 1.398 . S
C788 C789 1.391 . S
C789 H777 0.950 . S
C789 C785 1.393 . S
C789 C788 1.391 . S
C790 H780 0.950 . S
C790 C791 1.386 . S
C790 C792 1.391 . S
C791 C790 1.386 . S
C791 C795 1.393 . S
C792 H781 0.950 . S
C792 C790 1.391 . S
C792 C793 1.400 . S
C793 C787 1.491 . S
C793 C792 1.400 . S
C793 C794 1.398 . S
C794 H782 0.950 . S
C794 C793 1.398 . S
C794 C795 1.391 . S
C795 H783 0.950 . S
C795 C791 1.393 . S
C795 C794 1.391 . S
H796 C804 0.950 1_554 S
H797 C809 0.950 . S
H798 C806 0.950 . S
H799 C808 0.950 . S
H800 C810 0.950 . S
H801 C812 0.950 . S
H802 C814 0.950 . S
H803 C815 0.950 . S
C804 H796 0.950 1_556 S
C804 C805 1.386 . S
C804 C806 1.391 . S
C805 C804 1.386 . S
C805 C809 1.393 . S
C806 H798 0.950 . S
C806 C804 1.391 . S
C806 C807 1.400 . S
C807 C806 1.400 . S
C807 C808 1.398 . S
C807 C813 1.491 . S
C808 H799 0.950 . S
C808 C807 1.398 . S
C808 C809 1.391 . S
C809 H797 0.950 . S
C809 C805 1.393 . S
C809 C808 1.391 . S
C810 H800 0.950 . S
C810 C811 1.386 . S
C810 C812 1.391 . S
C811 C810 1.386 . S
C811 C815 1.393 . S
C812 H801 0.950 . S
C812 C810 1.391 . S
C812 C813 1.400 . S
C813 C807 1.491 . S
C813 C812 1.400 . S
C813 C814 1.398 . S
C814 H802 0.950 . S
C814 C813 1.398 . S
C814 C815 1.391 . S
C815 H803 0.950 . S
C815 C811 1.393 . S
C815 C814 1.391 . S
H816 C824 0.950 . S
H817 C829 0.950 . S
H818 C826 0.950 . S
H819 C828 0.950 . S
H820 C830 0.950 . S
H821 C832 0.950 . S
H822 C834 0.950 . S
H823 C835 0.950 . S
C824 H816 0.950 . S
C824 C825 1.386 . S
C824 C826 1.391 . S
C825 C824 1.386 . S
C825 C829 1.393 . S
C826 H818 0.950 . S
C826 C824 1.391 . S
C826 C827 1.400 . S
C827 C826 1.400 . S
C827 C828 1.398 . S
C827 C833 1.491 . S
C828 H819 0.950 . S
C828 C827 1.398 . S
C828 C829 1.391 . S
C829 H817 0.950 . S
C829 C825 1.393 . S
C829 C828 1.391 . S
C830 H820 0.950 . S
C830 C831 1.386 . S
C830 C832 1.391 . S
C831 C830 1.386 . S
C831 C835 1.393 . S
C832 H821 0.950 . S
C832 C830 1.391 . S
C832 C833 1.400 . S
C833 C827 1.491 . S
C833 C832 1.400 . S
C833 C834 1.398 . S
C834 H822 0.950 . S
C834 C833 1.398 . S
C834 C835 1.391 . S
C835 H823 0.950 . S
C835 C831 1.393 . S
C835 C834 1.391 . S
H836 C844 0.950 . S
H837 C849 0.950 . S
H838 C846 0.950 . S
H839 C848 0.950 . S
H840 C850 0.950 . S
H841 C852 0.950 . S
H842 C854 0.950 . S
H843 C855 0.950 . S
C844 H836 0.950 . S
C844 C845 1.386 . S
C844 C846 1.391 . S
C845 C844 1.386 . S
C845 C849 1.393 . S
C846 H838 0.950 . S
C846 C844 1.391 . S
C846 C847 1.400 . S
C847 C846 1.400 . S
C847 C848 1.398 . S
C847 C853 1.491 . S
C848 H839 0.950 . S
C848 C847 1.398 . S
C848 C849 1.391 . S
C849 H837 0.950 . S
C849 C845 1.393 . S
C849 C848 1.391 . S
C850 H840 0.950 . S
C850 C851 1.386 . S
C850 C852 1.391 . S
C851 C850 1.386 . S
C851 C855 1.393 . S
C852 H841 0.950 . S
C852 C850 1.391 . S
C852 C853 1.400 . S
C853 C847 1.491 . S
C853 C852 1.400 . S
C853 C854 1.398 . S
C854 H842 0.950 . S
C854 C853 1.398 . S
C854 C855 1.391 . S
C855 H843 0.950 . S
C855 C851 1.393 . S
C855 C854 1.391 . S
H856 C864 0.950 . S
H857 C869 0.950 . S
H858 C866 0.950 . S
H859 C868 0.950 . S
H860 C870 0.950 . S
H861 C872 0.950 . S
H862 C874 0.950 . S
H863 C875 0.950 . S
C864 H856 0.950 . S
C864 C865 1.386 . S
C864 C866 1.391 . S
C865 C864 1.386 . S
C865 C869 1.393 . S
C866 H858 0.950 . S
C866 C864 1.391 . S
C866 C867 1.400 . S
C867 C866 1.400 . S
C867 C868 1.398 . S
C867 C873 1.491 . S
C868 H859 0.950 . S
C868 C867 1.398 . S
C868 C869 1.391 . S
C869 H857 0.950 . S
C869 C865 1.393 . S
C869 C868 1.391 . S
C870 H860 0.950 . S
C870 C871 1.386 . S
C870 C872 1.391 . S
C871 C870 1.386 . S
C871 C875 1.393 . S
C872 H861 0.950 . S
C872 C870 1.391 . S
C872 C873 1.400 . S
C873 C867 1.491 . S
C873 C872 1.400 . S
C873 C874 1.398 . S
C874 H862 0.950 . S
C874 C873 1.398 . S
C874 C875 1.391 . S
C875 H863 0.950 . S
C875 C871 1.393 . S
C875 C874 1.391 . S
H876 C884 0.950 . S
H877 C889 0.950 . S
H878 C886 0.950 . S
H879 C888 0.950 . S
H880 C890 0.950 . S
H881 C892 0.950 . S
H882 C894 0.950 . S
H883 C895 0.950 . S
C884 H876 0.950 . S
C884 C885 1.386 . S
C884 C886 1.391 . S
C885 C884 1.386 . S
C885 C889 1.393 . S
C886 H878 0.950 . S
C886 C884 1.391 . S
C886 C887 1.400 . S
C887 C886 1.400 . S
C887 C888 1.398 . S
C887 C893 1.491 1_655 S
C888 H879 0.950 . S
C888 C887 1.398 . S
C888 C889 1.391 . S
C889 H877 0.950 . S
C889 C885 1.393 . S
C889 C888 1.391 . S
C890 H880 0.950 . S
C890 C891 1.386 . S
C890 C892 1.391 . S
C891 C890 1.386 . S
C891 C895 1.393 . S
C892 H881 0.950 . S
C892 C890 1.391 . S
C892 C893 1.400 . S
C893 C887 1.491 1_455 S
C893 C892 1.400 . S
C893 C894 1.398 . S
C894 H882 0.950 . S
C894 C893 1.398 . S
C894 C895 1.391 . S
C895 H883 0.950 . S
C895 C891 1.393 . S
C895 C894 1.391 . S
H896 C904 0.950 . S
H897 C909 0.950 . S
H898 C906 0.950 . S
H899 C908 0.950 . S
H900 C910 0.950 . S
H901 C912 0.950 . S
H902 C914 0.950 . S
H903 C915 0.950 . S
C904 H896 0.950 . S
C904 C905 1.386 . S
C904 C906 1.391 . S
C905 C904 1.386 . S
C905 C909 1.393 . S
C906 H898 0.950 . S
C906 C904 1.391 . S
C906 C907 1.400 . S
C907 C906 1.400 . S
C907 C908 1.398 . S
C907 C913 1.491 1_565 S
C908 H899 0.950 . S
C908 C907 1.398 . S
C908 C909 1.391 . S
C909 H897 0.950 . S
C909 C905 1.393 . S
C909 C908 1.391 . S
C910 H900 0.950 . S
C910 C911 1.386 . S
C910 C912 1.391 . S
C911 C910 1.386 . S
C911 C915 1.393 . S
C912 H901 0.950 . S
C912 C910 1.391 . S
C912 C913 1.400 . S
C913 C907 1.491 1_545 S
C913 C912 1.400 . S
C913 C914 1.398 . S
C914 H902 0.950 . S
C914 C913 1.398 . S
C914 C915 1.391 . S
C915 H903 0.950 . S
C915 C911 1.393 . S
C915 C914 1.391 . S
H916 C924 0.950 . S
H917 C929 0.950 . S
H918 C926 0.950 . S
H919 C928 0.950 . S
H920 C930 0.950 . S
H921 C932 0.950 . S
H922 C934 0.950 . S
H923 C935 0.950 . S
C924 H916 0.950 . S
C924 C925 1.386 . S
C924 C926 1.391 . S
C925 C924 1.386 . S
C925 C929 1.393 . S
C926 H918 0.950 . S
C926 C924 1.391 . S
C926 C927 1.400 . S
C927 C926 1.400 . S
C927 C928 1.398 . S
C927 C933 1.491 . S
C928 H919 0.950 . S
C928 C927 1.398 . S
C928 C929 1.391 . S
C929 H917 0.950 . S
C929 C925 1.393 . S
C929 C928 1.391 . S
C930 H920 0.950 . S
C930 C931 1.386 . S
C930 C932 1.391 . S
C931 C930 1.386 . S
C931 C935 1.393 . S
C932 H921 0.950 . S
C932 C930 1.391 . S
C932 C933 1.400 . S
C933 C927 1.491 . S
C933 C932 1.400 . S
C933 C934 1.398 . S
C934 H922 0.950 . S
C934 C933 1.398 . S
C934 C935 1.391 . S
C935 H923 0.950 . S
C935 C931 1.393 . S
C935 C934 1.391 . S
H936 C944 0.950 . S
H937 C949 0.950 . S
H938 C946 0.963 . S
H939 C948 0.950 . S
H940 C950 0.950 . S
H941 C952 0.963 . S
H942 C954 0.950 . S
H943 C955 0.950 . S
C944 H936 0.950 . S
C944 C945 1.386 . S
C944 C946 1.391 . S
C945 C944 1.386 . S
C945 C949 1.393 . S
C946 H938 0.963 . S
C946 C944 1.391 . S
C946 C947 1.400 . S
C947 C946 1.400 . S
C947 C948 1.398 . S
C947 C953 1.491 1_455 S
C948 H939 0.950 . S
C948 C947 1.398 . S
C948 C949 1.391 . S
C949 H937 0.950 . S
C949 C945 1.393 . S
C949 C948 1.391 . S
C950 H940 0.950 . S
C950 C951 1.386 . S
C950 C952 1.391 . S
C951 C950 1.386 . S
C951 C955 1.393 . S
C952 H941 0.963 . S
C952 C950 1.391 . S
C952 C953 1.400 . S
C953 C947 1.491 1_655 S
C953 C952 1.400 . S
C953 C954 1.398 . S
C954 H942 0.950 . S
C954 C953 1.398 . S
C954 C955 1.391 . S
C955 H943 0.950 . S
C955 C951 1.393 . S
C955 C954 1.391 . S
H956 C964 0.950 . S
H957 C969 0.950 . S
H958 C966 0.950 . S
H959 C968 0.938 1_554 S
H960 C970 0.950 . S
H961 C972 0.950 . S
H962 C974 0.938 1_556 S
H963 C975 0.950 . S
C964 H956 0.950 . S
C964 C965 1.386 . S
C964 C966 1.391 . S
C965 C964 1.386 . S
C965 C969 1.393 . S
C966 H958 0.950 . S
C966 C964 1.391 . S
C966 C967 1.400 . S
C967 C966 1.400 . S
C967 C968 1.402 . S
C967 C973 1.491 1_546 S
C968 H959 0.938 1_556 S
C968 C967 1.402 . S
C968 C969 1.399 . S
C969 H957 0.950 . S
C969 C965 1.393 . S
C969 C968 1.399 . S
C970 H960 0.950 . S
C970 C971 1.386 . S
C970 C972 1.391 . S
C971 C970 1.386 . S
C971 C975 1.393 . S
C972 H961 0.950 . S
C972 C970 1.391 . S
C972 C973 1.400 . S
C973 C967 1.491 1_564 S
C973 C972 1.400 . S
C973 C974 1.402 . S
C974 H962 0.938 1_554 S
C974 C973 1.402 . S
C974 C975 1.399 . S
C975 H963 0.950 . S
C975 C971 1.393 . S
C975 C974 1.399 . S
H976 C984 0.950 . S
H977 C989 0.950 . S
H978 C986 0.950 . S
H979 C988 0.950 . S
H980 C990 0.950 . S
H981 C992 0.950 . S
H982 C994 0.950 . S
H983 C995 0.950 . S
C984 H976 0.950 . S
C984 C985 1.386 . S
C984 C986 1.391 . S
C985 C984 1.386 . S
C985 C989 1.393 . S
C986 H978 0.950 . S
C986 C984 1.391 . S
C986 C987 1.400 . S
C987 C986 1.400 . S
C987 C988 1.398 . S
C987 C993 1.491 . S
C988 H979 0.950 . S
C988 C987 1.398 . S
C988 C989 1.391 . S
C989 H977 0.950 . S
C989 C985 1.393 . S
C989 C988 1.391 . S
C990 H980 0.950 . S
C990 C991 1.386 . S
C990 C992 1.391 . S
C991 C990 1.386 . S
C991 C995 1.393 . S
C992 H981 0.950 . S
C992 C990 1.391 . S
C992 C993 1.400 . S
C993 C987 1.491 . S
C993 C992 1.400 . S
C993 C994 1.398 . S
C994 H982 0.950 . S
C994 C993 1.398 . S
C994 C995 1.391 . S
C995 H983 0.950 . S
C995 C991 1.393 . S
C995 C994 1.391 . S
H996 C1004 0.950 . S
H997 C1009 0.950 . S
H998 C1006 0.950 . S
H999 C1008 0.950 . S
H1000 C1010 0.950 . S
H1001 C1012 0.950 . S
H1002 C1014 0.950 . S
H1003 C1015 0.950 . S
C1004 H996 0.950 . S
C1004 C1005 1.386 . S
C1004 C1006 1.391 . S
C1005 C1004 1.386 . S
C1005 C1009 1.393 . S
C1006 H998 0.950 . S
C1006 C1004 1.391 . S
C1006 C1007 1.400 . S
C1007 C1006 1.400 . S
C1007 C1008 1.398 . S
C1007 C1013 1.491 . S
C1008 H999 0.950 . S
C1008 C1007 1.398 . S
C1008 C1009 1.391 . S
C1009 H997 0.950 . S
C1009 C1005 1.393 . S
C1009 C1008 1.391 . S
C1010 H1000 0.950 . S
C1010 C1011 1.386 . S
C1010 C1012 1.391 . S
C1011 C1010 1.386 . S
C1011 C1015 1.393 . S
C1012 H1001 0.950 . S
C1012 C1010 1.391 . S
C1012 C1013 1.400 . S
C1013 C1007 1.491 . S
C1013 C1012 1.400 . S
C1013 C1014 1.398 . S
C1014 H1002 0.950 . S
C1014 C1013 1.398 . S
C1014 C1015 1.391 . S
C1015 H1003 0.950 . S
C1015 C1011 1.393 . S
C1015 C1014 1.391 . S
H1016 C1024 0.950 . S
H1017 C1029 0.950 . S
H1018 C1026 0.950 . S
H1019 C1028 0.950 . S
H1020 C1030 0.950 . S
H1021 C1032 0.950 . S
H1022 C1034 0.950 . S
H1023 C1035 0.950 . S
C1024 H1016 0.950 . S
C1024 C1025 1.386 . S
C1024 C1026 1.391 . S
C1025 C1024 1.386 . S
C1025 C1029 1.393 . S
C1026 H1018 0.950 . S
C1026 C1024 1.391 . S
C1026 C1027 1.400 . S
C1027 C1026 1.400 . S
C1027 C1028 1.398 . S
C1027 C1033 1.491 . S
C1028 H1019 0.950 . S
C1028 C1027 1.398 . S
C1028 C1029 1.391 . S
C1029 H1017 0.950 . S
C1029 C1025 1.393 . S
C1029 C1028 1.391 . S
C1030 H1020 0.950 . S
C1030 C1031 1.386 . S
C1030 C1032 1.391 . S
C1031 C1030 1.386 . S
C1031 C1035 1.393 . S
C1032 H1021 0.950 . S
C1032 C1030 1.391 . S
C1032 C1033 1.400 . S
C1033 C1027 1.491 . S
C1033 C1032 1.400 . S
C1033 C1034 1.398 . S
C1034 H1022 0.950 . S
C1034 C1033 1.398 . S
C1034 C1035 1.391 . S
C1035 H1023 0.950 . S
C1035 C1031 1.393 . S
C1035 C1034 1.391 . S
H1036 C1044 0.950 . S
H1037 C1049 0.950 . S
H1038 C1046 0.950 . S
H1039 C1048 0.950 . S
H1040 C1050 0.950 . S
H1041 C1052 0.950 . S
H1042 C1054 0.950 . S
H1043 C1055 0.950 . S
C1044 H1036 0.950 . S
C1044 C1045 1.386 . S
C1044 C1046 1.391 . S
C1045 C1044 1.386 . S
C1045 C1049 1.393 . S
C1046 H1038 0.950 . S
C1046 C1044 1.391 . S
C1046 C1047 1.400 . S
C1047 C1046 1.400 . S
C1047 C1048 1.398 . S
C1047 C1053 1.491 . S
C1048 H1039 0.950 . S
C1048 C1047 1.398 . S
C1048 C1049 1.391 . S
C1049 H1037 0.950 . S
C1049 C1045 1.393 . S
C1049 C1048 1.391 . S
C1050 H1040 0.950 . S
C1050 C1051 1.386 . S
C1050 C1052 1.391 . S
C1051 C1050 1.386 . S
C1051 C1055 1.393 . S
C1052 H1041 0.950 . S
C1052 C1050 1.391 . S
C1052 C1053 1.400 . S
C1053 C1047 1.491 . S
C1053 C1052 1.400 . S
C1053 C1054 1.398 . S
C1054 H1042 0.950 . S
C1054 C1053 1.398 . S
C1054 C1055 1.391 . S
C1055 H1043 0.950 . S
C1055 C1051 1.393 . S
C1055 C1054 1.391 . S
H1056 C1064 0.950 . S
H1057 C1069 0.950 . S
H1058 C1066 0.950 . S
H1059 C1068 0.950 . S
H1060 C1070 0.950 . S
H1061 C1072 0.950 . S
H1062 C1074 0.950 . S
H1063 C1075 0.950 . S
C1064 H1056 0.950 . S
C1064 C1065 1.386 . S
C1064 C1066 1.391 . S
C1065 C1064 1.386 . S
C1065 C1069 1.393 . S
C1066 H1058 0.950 . S
C1066 C1064 1.391 . S
C1066 C1067 1.400 . S
C1067 C1066 1.400 . S
C1067 C1068 1.398 . S
C1067 C1073 1.491 . S
C1068 H1059 0.950 . S
C1068 C1067 1.398 . S
C1068 C1069 1.391 . S
C1069 H1057 0.950 . S
C1069 C1065 1.393 . S
C1069 C1068 1.391 . S
C1070 H1060 0.950 . S
C1070 C1071 1.386 . S
C1070 C1072 1.391 . S
C1071 C1070 1.386 . S
C1071 C1075 1.393 . S
C1072 H1061 0.950 . S
C1072 C1070 1.391 . S
C1072 C1073 1.400 . S
C1073 C1067 1.491 . S
C1073 C1072 1.400 . S
C1073 C1074 1.398 . S
C1074 H1062 0.950 . S
C1074 C1073 1.398 . S
C1074 C1075 1.391 . S
C1075 H1063 0.950 . S
C1075 C1071 1.393 . S
C1075 C1074 1.391 . S
H1076 C1084 0.950 . S
H1077 C1089 0.950 . S
H1078 C1086 0.950 . S
H1079 C1088 0.950 . S
H1080 C1090 0.950 . S
H1081 C1092 0.950 . S
H1082 C1094 0.950 . S
H1083 C1095 0.950 . S
C1084 H1076 0.950 . S
C1084 C1085 1.386 . S
C1084 C1086 1.391 . S
C1085 C1084 1.386 . S
C1085 C1089 1.393 . S
C1086 H1078 0.950 . S
C1086 C1084 1.391 . S
C1086 C1087 1.400 . S
C1087 C1086 1.400 . S
C1087 C1088 1.398 . S
C1087 C1093 1.491 . S
C1088 H1079 0.950 . S
C1088 C1087 1.398 . S
C1088 C1089 1.391 . S
C1089 H1077 0.950 . S
C1089 C1085 1.393 . S
C1089 C1088 1.391 . S
C1090 H1080 0.950 . S
C1090 C1091 1.386 . S
C1090 C1092 1.391 . S
C1091 C1090 1.386 . S
C1091 C1095 1.393 . S
C1092 H1081 0.950 . S
C1092 C1090 1.391 . S
C1092 C1093 1.400 . S
C1093 C1087 1.491 . S
C1093 C1092 1.400 . S
C1093 C1094 1.398 . S
C1094 H1082 0.950 . S
C1094 C1093 1.398 . S
C1094 C1095 1.391 . S
C1095 H1083 0.950 . S
C1095 C1091 1.393 . S
C1095 C1094 1.391 . S
H1096 C1104 0.950 . S
H1097 C1109 0.950 . S
H1098 C1106 0.950 . S
H1099 C1108 0.950 . S
H1100 C1110 0.950 . S
H1101 C1112 0.950 . S
H1102 C1114 0.950 . S
H1103 C1115 0.950 . S
C1104 H1096 0.950 . S
C1104 C1105 1.386 . S
C1104 C1106 1.391 . S
C1105 C1104 1.386 . S
C1105 C1109 1.393 . S
C1106 H1098 0.950 . S
C1106 C1104 1.391 . S
C1106 C1107 1.400 . S
C1107 C1106 1.400 . S
C1107 C1108 1.398 . S
C1107 C1113 1.491 . S
C1108 H1099 0.950 . S
C1108 C1107 1.398 . S
C1108 C1109 1.391 . S
C1109 H1097 0.950 . S
C1109 C1105 1.393 . S
C1109 C1108 1.391 . S
C1110 H1100 0.950 . S
C1110 C1111 1.386 . S
C1110 C1112 1.391 . S
C1111 C1110 1.386 . S
C1111 C1115 1.393 . S
C1112 H1101 0.950 . S
C1112 C1110 1.391 . S
C1112 C1113 1.400 . S
C1113 C1107 1.491 . S
C1113 C1112 1.400 . S
C1113 C1114 1.398 . S
C1114 H1102 0.950 . S
C1114 C1113 1.398 . S
C1114 C1115 1.391 . S
C1115 H1103 0.950 . S
C1115 C1111 1.393 . S
C1115 C1114 1.391 . S
C645 C29 1.533 . S
C651 C347 1.539 . S
C665 C82 1.544 . S
C671 C400 1.528 . S
C685 C453 1.542 . S
C691 C135 1.530 . S
C705 C188 1.539 . S
C711 C506 1.535 . S
C725 C241 1.528 . S
C731 C559 1.544 . S
C745 C612 1.544 . S
C751 C294 1.528 . S
C765 C463 1.411 . S
C771 C39 1.386 . S
C785 C92 1.406 . S
C791 C516 1.395 . S
C805 C569 1.411 1_556 S
C811 C145 1.387 . S
C825 C622 1.397 . S
C831 C198 1.404 1_554 S
C845 C251 1.409 . S
C851 C357 1.391 . S
C865 C304 1.385 . S
C871 C410 1.409 . S
C885 C605 2.092 . S
C891 C22 2.090 . S
C905 C340 2.105 . S
C911 C75 2.108 . S
C925 C128 2.100 . S
C931 C393 2.094 . S
C945 C446 2.091 . S
C951 C181 2.096 . S
C965 C499 2.091 . S
C971 C234 2.094 . S
C985 C552 2.106 . S
C991 C287 2.109 . S
C1005 C38 1.888 . S
C1011 C568 1.890 . S
C1025 C621 1.888 . S
C1031 C91 1.887 . S
C1045 C144 1.888 . S
C1051 C356 1.889 . S
C1065 C197 1.887 . S
C1071 C409 1.888 . S
C1085 C250 1.898 1_556 S
C1091 C462 1.897 . S
C1105 C303 1.887 . S
C1111 C515 1.887 1_554 S
