# Generated by pormake.
# Topology wlt, (5)-cn, num edge types: 1
# Building blocks:
#     Node 0, Type 0, BuildingBlock: XOMCOT_clean_sbu_1, # of connection points: 5
#     Node 1, Type 0, BuildingBlock: XOMCOT_clean_sbu_1, # of connection points: 5
#     Node 2, Type 0, BuildingBlock: XOMCOT_clean_sbu_1, # of connection points: 5
#     Node 3, Type 0, BuildingBlock: XOMCOT_clean_sbu_1, # of connection points: 5
#     Node 4, Type 0, BuildingBlock: XOMCOT_clean_sbu_1, # of connection points: 5
#     Node 5, Type 0, BuildingBlock: XOMCOT_clean_sbu_1, # of connection points: 5
#     Node 6, Type 0, BuildingBlock: XOMCOT_clean_sbu_1, # of connection points: 5
#     Node 7, Type 0, BuildingBlock: XOMCOT_clean_sbu_1, # of connection points: 5
#     Node 8, Type 0, BuildingBlock: XOMCOT_clean_sbu_1, # of connection points: 5
#     Node 9, Type 0, BuildingBlock: XOMCOT_clean_sbu_1, # of connection points: 5
#     Node 10, Type 0, BuildingBlock: XOMCOT_clean_sbu_1, # of connection points: 5
#     Node 11, Type 0, BuildingBlock: XOMCOT_clean_sbu_1, # of connection points: 5
#     Node 12, Type 0, BuildingBlock: XOMCOT_clean_sbu_1, # of connection points: 5
#     Node 13, Type 0, BuildingBlock: XOMCOT_clean_sbu_1, # of connection points: 5
#     Node 14, Type 0, BuildingBlock: XOMCOT_clean_sbu_1, # of connection points: 5
#     Node 15, Type 0, BuildingBlock: XOMCOT_clean_sbu_1, # of connection points: 5
#     Node 16, Type 0, BuildingBlock: XOMCOT_clean_sbu_1, # of connection points: 5
#     Node 17, Type 0, BuildingBlock: XOMCOT_clean_sbu_1, # of connection points: 5
#     Node 18, Type 0, BuildingBlock: XOMCOT_clean_sbu_1, # of connection points: 5
#     Node 19, Type 0, BuildingBlock: XOMCOT_clean_sbu_1, # of connection points: 5
#     Node 20, Type 0, BuildingBlock: XOMCOT_clean_sbu_1, # of connection points: 5
#     Node 21, Type 0, BuildingBlock: XOMCOT_clean_sbu_1, # of connection points: 5
#     Node 22, Type 0, BuildingBlock: XOMCOT_clean_sbu_1, # of connection points: 5
#     Node 23, Type 0, BuildingBlock: XOMCOT_clean_sbu_1, # of connection points: 5
#     Node 24, Type 0, BuildingBlock: XOMCOT_clean_sbu_1, # of connection points: 5
#     Node 25, Type 0, BuildingBlock: XOMCOT_clean_sbu_1, # of connection points: 5
#     Node 26, Type 0, BuildingBlock: XOMCOT_clean_sbu_1, # of connection points: 5
#     Node 27, Type 0, BuildingBlock: XOMCOT_clean_sbu_1, # of connection points: 5
#     Node 28, Type 0, BuildingBlock: XOMCOT_clean_sbu_1, # of connection points: 5
#     Node 29, Type 0, BuildingBlock: XOMCOT_clean_sbu_1, # of connection points: 5
#     Node 30, Type 0, BuildingBlock: XOMCOT_clean_sbu_1, # of connection points: 5
#     Node 31, Type 0, BuildingBlock: XOMCOT_clean_sbu_1, # of connection points: 5
#     Node 32, Type 0, BuildingBlock: XOMCOT_clean_sbu_1, # of connection points: 5
#     Node 33, Type 0, BuildingBlock: XOMCOT_clean_sbu_1, # of connection points: 5
#     Node 34, Type 0, BuildingBlock: XOMCOT_clean_sbu_1, # of connection points: 5
#     Node 35, Type 0, BuildingBlock: XOMCOT_clean_sbu_1, # of connection points: 5
#     Edge 36, Type (0, 0), BuildingBlock: ZUJKAS_clean_linker_0, # of connection points: 2
#     Edge 37, Type (0, 0), BuildingBlock: ZUJKAS_clean_linker_0, # of connection points: 2
#     Edge 38, Type (0, 0), BuildingBlock: ZUJKAS_clean_linker_0, # of connection points: 2
#     Edge 39, Type (0, 0), BuildingBlock: ZUJKAS_clean_linker_0, # of connection points: 2
#     Edge 40, Type (0, 0), BuildingBlock: ZUJKAS_clean_linker_0, # of connection points: 2
#     Edge 41, Type (0, 0), BuildingBlock: ZUJKAS_clean_linker_0, # of connection points: 2
#     Edge 42, Type (0, 0), BuildingBlock: ZUJKAS_clean_linker_0, # of connection points: 2
#     Edge 43, Type (0, 0), BuildingBlock: ZUJKAS_clean_linker_0, # of connection points: 2
#     Edge 44, Type (0, 0), BuildingBlock: ZUJKAS_clean_linker_0, # of connection points: 2
#     Edge 45, Type (0, 0), BuildingBlock: ZUJKAS_clean_linker_0, # of connection points: 2
#     Edge 46, Type (0, 0), BuildingBlock: ZUJKAS_clean_linker_0, # of connection points: 2
#     Edge 47, Type (0, 0), BuildingBlock: ZUJKAS_clean_linker_0, # of connection points: 2
#     Edge 48, Type (0, 0), BuildingBlock: ZUJKAS_clean_linker_0, # of connection points: 2
#     Edge 49, Type (0, 0), BuildingBlock: ZUJKAS_clean_linker_0, # of connection points: 2
#     Edge 50, Type (0, 0), BuildingBlock: ZUJKAS_clean_linker_0, # of connection points: 2
#     Edge 51, Type (0, 0), BuildingBlock: ZUJKAS_clean_linker_0, # of connection points: 2
#     Edge 52, Type (0, 0), BuildingBlock: ZUJKAS_clean_linker_0, # of connection points: 2
#     Edge 53, Type (0, 0), BuildingBlock: ZUJKAS_clean_linker_0, # of connection points: 2
#     Edge 54, Type (0, 0), BuildingBlock: ZUJKAS_clean_linker_0, # of connection points: 2
#     Edge 55, Type (0, 0), BuildingBlock: ZUJKAS_clean_linker_0, # of connection points: 2
#     Edge 56, Type (0, 0), BuildingBlock: ZUJKAS_clean_linker_0, # of connection points: 2
#     Edge 57, Type (0, 0), BuildingBlock: ZUJKAS_clean_linker_0, # of connection points: 2
#     Edge 58, Type (0, 0), BuildingBlock: ZUJKAS_clean_linker_0, # of connection points: 2
#     Edge 59, Type (0, 0), BuildingBlock: ZUJKAS_clean_linker_0, # of connection points: 2
#     Edge 60, Type (0, 0), BuildingBlock: ZUJKAS_clean_linker_0, # of connection points: 2
#     Edge 61, Type (0, 0), BuildingBlock: ZUJKAS_clean_linker_0, # of connection points: 2
#     Edge 62, Type (0, 0), BuildingBlock: ZUJKAS_clean_linker_0, # of connection points: 2
#     Edge 63, Type (0, 0), BuildingBlock: ZUJKAS_clean_linker_0, # of connection points: 2
#     Edge 64, Type (0, 0), BuildingBlock: ZUJKAS_clean_linker_0, # of connection points: 2
#     Edge 65, Type (0, 0), BuildingBlock: ZUJKAS_clean_linker_0, # of connection points: 2
#     Edge 66, Type (0, 0), BuildingBlock: ZUJKAS_clean_linker_0, # of connection points: 2
#     Edge 67, Type (0, 0), BuildingBlock: ZUJKAS_clean_linker_0, # of connection points: 2
#     Edge 68, Type (0, 0), BuildingBlock: ZUJKAS_clean_linker_0, # of connection points: 2
#     Edge 69, Type (0, 0), BuildingBlock: ZUJKAS_clean_linker_0, # of connection points: 2
#     Edge 70, Type (0, 0), BuildingBlock: ZUJKAS_clean_linker_0, # of connection points: 2
#     Edge 71, Type (0, 0), BuildingBlock: ZUJKAS_clean_linker_0, # of connection points: 2
#     Edge 72, Type (0, 0), BuildingBlock: ZUJKAS_clean_linker_0, # of connection points: 2
#     Edge 73, Type (0, 0), BuildingBlock: ZUJKAS_clean_linker_0, # of connection points: 2
#     Edge 74, Type (0, 0), BuildingBlock: ZUJKAS_clean_linker_0, # of connection points: 2
#     Edge 75, Type (0, 0), BuildingBlock: ZUJKAS_clean_linker_0, # of connection points: 2
#     Edge 76, Type (0, 0), BuildingBlock: ZUJKAS_clean_linker_0, # of connection points: 2
#     Edge 77, Type (0, 0), BuildingBlock: ZUJKAS_clean_linker_0, # of connection points: 2
#     Edge 78, Type (0, 0), BuildingBlock: ZUJKAS_clean_linker_0, # of connection points: 2
#     Edge 79, Type (0, 0), BuildingBlock: ZUJKAS_clean_linker_0, # of connection points: 2
#     Edge 80, Type (0, 0), BuildingBlock: ZUJKAS_clean_linker_0, # of connection points: 2
#     Edge 81, Type (0, 0), BuildingBlock: ZUJKAS_clean_linker_0, # of connection points: 2
#     Edge 82, Type (0, 0), BuildingBlock: ZUJKAS_clean_linker_0, # of connection points: 2
#     Edge 83, Type (0, 0), BuildingBlock: ZUJKAS_clean_linker_0, # of connection points: 2
#     Edge 84, Type (0, 0), BuildingBlock: ZUJKAS_clean_linker_0, # of connection points: 2
#     Edge 85, Type (0, 0), BuildingBlock: ZUJKAS_clean_linker_0, # of connection points: 2
#     Edge 86, Type (0, 0), BuildingBlock: ZUJKAS_clean_linker_0, # of connection points: 2
#     Edge 87, Type (0, 0), BuildingBlock: ZUJKAS_clean_linker_0, # of connection points: 2
#     Edge 88, Type (0, 0), BuildingBlock: ZUJKAS_clean_linker_0, # of connection points: 2
#     Edge 89, Type (0, 0), BuildingBlock: ZUJKAS_clean_linker_0, # of connection points: 2
#     Edge 90, Type (0, 0), BuildingBlock: ZUJKAS_clean_linker_0, # of connection points: 2
#     Edge 91, Type (0, 0), BuildingBlock: ZUJKAS_clean_linker_0, # of connection points: 2
#     Edge 92, Type (0, 0), BuildingBlock: ZUJKAS_clean_linker_0, # of connection points: 2
#     Edge 93, Type (0, 0), BuildingBlock: ZUJKAS_clean_linker_0, # of connection points: 2
#     Edge 94, Type (0, 0), BuildingBlock: ZUJKAS_clean_linker_0, # of connection points: 2
#     Edge 95, Type (0, 0), BuildingBlock: ZUJKAS_clean_linker_0, # of connection points: 2
#     Edge 96, Type (0, 0), BuildingBlock: ZUJKAS_clean_linker_0, # of connection points: 2
#     Edge 97, Type (0, 0), BuildingBlock: ZUJKAS_clean_linker_0, # of connection points: 2
#     Edge 98, Type (0, 0), BuildingBlock: ZUJKAS_clean_linker_0, # of connection points: 2
#     Edge 99, Type (0, 0), BuildingBlock: ZUJKAS_clean_linker_0, # of connection points: 2
#     Edge 100, Type (0, 0), BuildingBlock: ZUJKAS_clean_linker_0, # of connection points: 2
#     Edge 101, Type (0, 0), BuildingBlock: ZUJKAS_clean_linker_0, # of connection points: 2
#     Edge 102, Type (0, 0), BuildingBlock: ZUJKAS_clean_linker_0, # of connection points: 2
#     Edge 103, Type (0, 0), BuildingBlock: ZUJKAS_clean_linker_0, # of connection points: 2
#     Edge 104, Type (0, 0), BuildingBlock: ZUJKAS_clean_linker_0, # of connection points: 2
#     Edge 105, Type (0, 0), BuildingBlock: ZUJKAS_clean_linker_0, # of connection points: 2
#     Edge 106, Type (0, 0), BuildingBlock: ZUJKAS_clean_linker_0, # of connection points: 2
#     Edge 107, Type (0, 0), BuildingBlock: ZUJKAS_clean_linker_0, # of connection points: 2
#     Edge 108, Type (0, 0), BuildingBlock: ZUJKAS_clean_linker_0, # of connection points: 2
#     Edge 109, Type (0, 0), BuildingBlock: ZUJKAS_clean_linker_0, # of connection points: 2
#     Edge 110, Type (0, 0), BuildingBlock: ZUJKAS_clean_linker_0, # of connection points: 2
#     Edge 111, Type (0, 0), BuildingBlock: ZUJKAS_clean_linker_0, # of connection points: 2
#     Edge 112, Type (0, 0), BuildingBlock: ZUJKAS_clean_linker_0, # of connection points: 2
#     Edge 113, Type (0, 0), BuildingBlock: ZUJKAS_clean_linker_0, # of connection points: 2
#     Edge 114, Type (0, 0), BuildingBlock: ZUJKAS_clean_linker_0, # of connection points: 2
#     Edge 115, Type (0, 0), BuildingBlock: ZUJKAS_clean_linker_0, # of connection points: 2
#     Edge 116, Type (0, 0), BuildingBlock: ZUJKAS_clean_linker_0, # of connection points: 2
#     Edge 117, Type (0, 0), BuildingBlock: ZUJKAS_clean_linker_0, # of connection points: 2
#     Edge 118, Type (0, 0), BuildingBlock: ZUJKAS_clean_linker_0, # of connection points: 2
#     Edge 119, Type (0, 0), BuildingBlock: ZUJKAS_clean_linker_0, # of connection points: 2
#     Edge 120, Type (0, 0), BuildingBlock: ZUJKAS_clean_linker_0, # of connection points: 2
#     Edge 121, Type (0, 0), BuildingBlock: ZUJKAS_clean_linker_0, # of connection points: 2
#     Edge 122, Type (0, 0), BuildingBlock: ZUJKAS_clean_linker_0, # of connection points: 2
#     Edge 123, Type (0, 0), BuildingBlock: ZUJKAS_clean_linker_0, # of connection points: 2
#     Edge 124, Type (0, 0), BuildingBlock: ZUJKAS_clean_linker_0, # of connection points: 2
#     Edge 125, Type (0, 0), BuildingBlock: ZUJKAS_clean_linker_0, # of connection points: 2
# Relax obj value: 0.179
# Max RMSD: 0.189
# Mean RMSD: 0.189
data_MOF--net-wlt--node1-XOMCOT_clean_sbu_1--edge1-ZUJKAS_clean_linker_0
_symmetry_space_group_name_H-M    P1
_symmetry_Int_Tables_number       1
_symmetry_cell_setting            triclinic
loop_
_symmetry_equiv_pos_as_xyz
'x, y, z'
_cell_length_a     82.805132
_cell_length_b     82.844291
_cell_length_c     62.446063
_cell_angle_alpha  89.963524
_cell_angle_beta   90.081983
_cell_angle_gamma 119.97368
loop_
_atom_site_label
_atom_site_type_symbol
_atom_site_fract_x
_atom_site_fract_y
_atom_site_fract_z
_atom_type_partial_charge
C0 C 0.21745 0.19338 0.04064 0.0
C1 C 0.20376 0.19631 0.03239 0.0
N2 N 0.21085 0.21476 0.02963 0.0
N3 N 0.23325 0.20985 0.04305 0.0
C4 C 0.22881 0.22273 0.03631 0.0
H5 H 0.21592 0.18004 0.04493 0.0
Co6 Co 0.25459 0.21095 0.05459 0.0
C7 C 0.28223 0.25028 0.06198 0.0
O8 O 0.28545 0.24448 0.08023 0.0
N9 N 0.27629 0.21128 0.06581 0.0
C10 C 0.30526 0.21596 0.06559 0.0
C11 C 0.29256 0.21902 0.0549 0.0
C12 C 0.27952 0.2033 0.08307 0.0
N13 N 0.29705 0.20602 0.08333 0.0
O14 O 0.26023 0.20434 0.02706 0.0
H15 H 0.29502 0.22638 0.03987 0.0
H16 H 0.2692 0.19502 0.09488 0.0
O17 O 0.26977 0.23843 0.04911 0.0
C18 C 0.25526 0.18709 0.02886 0.0
O19 O 0.24757 0.17855 0.04691 0.0
N20 N 0.24726 0.21481 0.08153 0.0
C21 C 0.2339 0.21555 0.12207 0.0
C22 C 0.2393 0.23059 0.10804 0.0
C23 C 0.24561 0.22978 0.08757 0.0
C24 C 0.24008 0.19934 0.09412 0.0
C25 C 0.23385 0.19957 0.11472 0.0
H26 H 0.249 0.24114 0.07666 0.0
H27 H 0.23924 0.18672 0.08808 0.0
H28 H 0.23849 0.23757 0.03628 0.0
H29 H 0.18951 0.18564 0.02917 0.0
H30 H 0.31946 0.22072 0.06065 0.0
H31 H 0.23891 0.24293 0.11293 0.0
H32 H 0.22889 0.18733 0.12475 0.0
C33 C 0.83788 0.0311 0.05395 0.0
C34 C 0.83514 0.01395 0.04815 0.0
N35 N 0.8167 1.00162 0.04847 0.0
N36 N 0.8213 0.02985 0.05779 0.0
C37 C 0.80857 0.0117 0.05417 0.0
H38 H 0.85124 0.04363 0.05579 0.0
Co39 Co 0.81961 0.05002 0.06844 0.0
C40 C 0.7799 0.03856 0.07199 0.0
O41 O 0.78446 0.04799 0.09002 0.0
N42 N 0.81871 0.07122 0.07887 0.0
C43 C 0.81421 0.09558 0.07786 0.0
C44 C 0.8122 0.08036 0.06688 0.0
C45 C 0.82494 0.08153 0.09704 0.0
N46 N 0.82222 0.09634 0.09688 0.0
O47 O 0.82757 0.06235 0.04105 0.0
H48 H 0.80638 0.07622 0.05098 0.0
H49 H 0.8314 0.07842 0.11018 0.0
O50 O 0.79253 0.03766 0.06093 0.0
C51 C 0.84472 0.07447 0.04408 0.0
O52 O 0.85202 0.07503 0.06298 0.0
N53 N 0.81449 0.03876 0.09543 0.0
C54 C 0.81362 0.02287 0.13501 0.0
C55 C 0.79808 0.01467 0.1214 0.0
C56 C 0.79893 0.0226 0.10144 0.0
C57 C 0.83002 0.04624 0.10799 0.0
C58 C 0.82981 0.03877 0.12801 0.0
H59 H 0.7873 0.01525 0.09071 0.0
H60 H 0.84277 0.05807 0.10227 0.0
H61 H 0.79375 1.00583 0.0565 0.0
H62 H 0.84601 0.01085 0.04418 0.0
H63 H 0.81048 0.10558 0.07198 0.0
H64 H 0.78557 1.00193 0.12588 0.0
H65 H 0.8422 0.04545 0.13791 0.0
C66 C 0.98828 0.81085 0.0512 0.0
C67 C 1.00511 0.82547 0.0449 0.0
N68 N 0.01819 0.82038 0.04671 0.0
N69 N 0.99046 0.79638 0.05685 0.0
C70 C 1.00885 0.80252 0.05382 0.0
H71 H 0.97529 0.81092 0.05204 0.0
Co72 Co 0.97067 0.77456 0.06806 0.0
C73 C 0.98554 0.75055 0.08114 0.0
O74 O 0.9753 0.74737 0.09839 0.0
N75 N 0.94985 0.75229 0.07881 0.0
C76 C 0.92757 0.72236 0.07889 0.0
C77 C 0.94314 0.73576 0.06858 0.0
C78 C 0.93782 0.74843 0.09534 0.0
N79 N 0.92424 0.73033 0.09576 0.0
O80 O 0.96068 0.76691 0.03968 0.0
H81 H 0.94925 0.73356 0.05437 0.0
H82 H 0.9385 0.75855 0.10667 0.0
O83 O 0.98534 0.76137 0.06648 0.0
C84 C 0.9478 0.77102 0.03778 0.0
O85 O 0.9443 0.77888 0.05401 0.0
N86 N 0.97968 0.78372 0.09565 0.0
C87 C 0.99037 0.79891 0.13652 0.0
C88 C 1.00193 0.79458 0.12434 0.0
C89 C 0.99651 0.78735 0.10376 0.0
C90 C 0.96947 0.78995 0.1062 0.0
C91 C 0.9742 0.79705 0.12692 0.0
H92 H 1.00596 0.78478 0.09446 0.0
H93 H 0.95735 0.78912 0.09855 0.0
H94 H 0.01534 0.7943 0.05744 0.0
H95 H 1.00744 0.83886 0.03946 0.0
H96 H 0.91946 0.70782 0.07443 0.0
H97 H 0.0151 0.79682 0.1306 0.0
H98 H 0.96503 0.80063 0.13541 0.0
C99 C 0.19276 0.20602 0.41388 0.0
C100 C 0.19668 0.192 0.41729 0.0
N101 N 0.21323 0.19921 0.42736 0.0
N102 N 0.20677 0.22215 0.42167 0.0
C103 C 0.21905 0.21755 0.43002 0.0
H104 H 0.18057 0.20463 0.4058 0.0
Co105 Co 0.20692 0.24459 0.41782 0.0
C106 C 0.24625 0.27427 0.41392 0.0
O107 O 0.24048 0.28157 0.3992 0.0
N108 N 0.20625 0.26709 0.41416 0.0
C109 C 0.21014 0.29522 0.42136 0.0
C110 C 0.21241 0.28087 0.42892 0.0
C111 C 0.19997 0.2734 0.39794 0.0
N112 N 0.20239 0.29052 0.40177 0.0
O113 O 0.20082 0.24476 0.44749 0.0
H114 H 0.21866 0.28073 0.44409 0.0
H115 H 0.19364 0.26579 0.38351 0.0
O116 O 0.23434 0.25918 0.42338 0.0
C117 C 0.18311 0.23493 0.44898 0.0
O118 O 0.17353 0.22631 0.43178 0.0
N119 N 0.21063 0.24278 0.38853 0.0
C120 C 0.21066 0.23576 0.34491 0.0
C121 C 0.22643 0.24045 0.35757 0.0
C122 C 0.226 0.24351 0.37948 0.0
C123 C 0.1947 0.2365 0.37688 0.0
C124 C 0.19454 0.2335 0.35495 0.0
H125 H 0.23777 0.24579 0.38911 0.0
H126 H 0.18201 0.23401 0.38472 0.0
H127 H 0.23218 0.22747 0.43731 0.0
H128 H 0.18794 0.17753 0.41276 0.0
H129 H 0.21436 0.30829 0.42944 0.0
H130 H 0.23884 0.24127 0.35074 0.0
H131 H 0.18189 0.22956 0.34601 0.0
C132 C 0.81182 0.98655 0.43572 0.0
C133 C 0.82648 1.00408 0.43953 0.0
N134 N 0.81993 0.01602 0.44036 0.0
N135 N 0.79594 0.98724 0.43419 0.0
C136 C 0.80128 1.00545 0.43726 0.0
H137 H 0.81282 0.97417 0.43326 0.0
Co138 Co 0.77394 0.96617 0.42541 0.0
C139 C 0.74759 0.97844 0.41255 0.0
O140 O 0.74387 0.96715 0.39618 0.0
N141 N 0.75174 0.9441 0.41695 0.0
C142 C 0.72188 0.92158 0.41763 0.0
C143 C 0.73526 0.93767 0.42723 0.0
C144 C 0.74803 0.9311 0.40159 0.0
N145 N 0.72997 0.91748 0.40154 0.0
O146 O 0.7681 0.95796 0.45459 0.0
H147 H 0.73305 0.94445 0.44079 0.0
H148 H 0.75809 0.93147 0.3904 0.0
O149 O 0.75976 0.97995 0.42648 0.0
C150 C 0.77409 0.94656 0.45716 0.0
O151 O 0.78229 0.94342 0.44101 0.0
N152 N 0.78133 0.97347 0.39706 0.0
C153 C 0.79463 0.982 0.35537 0.0
C154 C 0.78956 0.99349 0.36647 0.0
C155 C 0.78346 0.98929 0.38758 0.0
C156 C 0.78824 0.96348 0.38735 0.0
C157 C 0.79452 0.96718 0.36627 0.0
H158 H 0.78063 0.99887 0.39622 0.0
H159 H 0.78869 0.9524 0.39601 0.0
H160 H 0.79193 0.011 0.43607 0.0
H161 H 0.84096 1.00783 0.44115 0.0
H162 H 0.70737 0.91342 0.42223 0.0
H163 H 0.79045 1.0057 0.35895 0.0
H164 H 0.79886 0.95828 0.3585 0.0
C165 C 0.03849 0.83082 0.4429 0.0
C166 C 0.02188 0.8281 0.45093 0.0
N167 N 1.00903 0.80992 0.44894 0.0
N168 N 0.03628 0.81444 0.43597 0.0
C169 C 0.01813 0.8019 0.43987 0.0
H170 H 0.05135 0.844 0.44183 0.0
Co171 Co 0.05559 0.81257 0.42309 0.0
C172 C 0.04127 0.77312 0.41286 0.0
O173 O 0.04962 0.77922 0.3943 0.0
N174 N 0.07589 0.81117 0.41058 0.0
C175 C 0.09765 0.80291 0.40778 0.0
C176 C 0.08309 0.80134 0.4198 0.0
C177 C 0.08698 0.81924 0.3933 0.0
N178 N 0.10009 0.81419 0.39117 0.0
O179 O 0.06792 0.81702 0.45048 0.0
H180 H 0.07794 0.79335 0.4344 0.0
H181 H 0.08567 0.82859 0.38235 0.0
O182 O 0.0419 0.78484 0.42683 0.0
C183 C 0.08137 0.83386 0.45 0.0
O184 O 0.08386 0.84374 0.43257 0.0
N185 N 0.04436 0.81086 0.39642 0.0
C186 C 0.02987 0.81405 0.35732 0.0
C187 C 0.02 0.79809 0.37005 0.0
C188 C 0.02731 0.79692 0.38975 0.0
C189 C 0.05324 0.82708 0.38516 0.0
C190 C 0.04656 0.82882 0.36532 0.0
H191 H 0.01904 0.78489 0.39964 0.0
H192 H 0.06566 0.8388 0.3917 0.0
H193 H 1.01167 0.78722 0.4361 0.0
H194 H 0.0193 0.8388 0.45716 0.0
H195 H 0.10604 0.79654 0.41116 0.0
H196 H 1.00661 0.78671 0.36501 0.0
H197 H 0.05456 0.84156 0.3563 0.0
C198 C 0.81324 0.82819 0.93187 0.0
C199 C 0.82737 0.82464 0.93636 0.0
N200 N 0.81986 0.80638 0.94087 0.0
N201 N 0.79673 0.81234 0.93367 0.0
C202 C 0.80117 0.79921 0.93926 0.0
H203 H 0.81496 0.84146 0.92693 0.0
Co204 Co 0.77453 0.81167 0.92639 0.0
C205 C 0.74537 0.77219 0.92179 0.0
O206 O 0.73882 0.77743 0.90571 0.0
N207 N 0.75227 0.81191 0.9193 0.0
C208 C 0.72382 0.80816 0.9233 0.0
C209 C 0.73744 0.80562 0.93258 0.0
C210 C 0.74729 0.8185 0.90213 0.0
N211 N 0.73003 0.81626 0.90409 0.0
O212 O 0.77179 0.81775 0.9554 0.0
H213 H 0.73649 0.7994 0.94809 0.0
H214 H 0.75588 0.82464 0.88823 0.0
O215 O 0.75987 0.78434 0.932 0.0
C216 C 0.77955 0.83546 0.95656 0.0
O217 O 0.78767 0.84539 0.93941 0.0
N218 N 0.77885 0.8079 0.89794 0.0
C219 C 0.79037 0.80798 0.85602 0.0
C220 C 0.7842 0.79214 0.86899 0.0
C221 C 0.77886 0.79251 0.89008 0.0
C222 C 0.78621 0.82382 0.88612 0.0
C223 C 0.79156 0.82405 0.86495 0.0
H224 H 0.77549 0.78067 0.90014 0.0
H225 H 0.78786 0.83646 0.89324 0.0
H226 H 0.791 0.78462 0.94131 0.0
H227 H 0.8421 0.83483 0.93621 0.0
H228 H 0.71049 0.80453 0.93032 0.0
H229 H 0.78399 0.77974 0.86312 0.0
H230 H 0.79649 0.83672 0.85571 0.0
C231 C 0.19508 0.99059 0.92355 0.0
C232 C 0.19875 1.00852 0.9262 0.0
N233 N 0.21592 0.01866 0.93469 0.0
N234 N 0.20979 0.98919 0.93034 0.0
C235 C 0.22232 1.00656 0.93722 0.0
H236 H 0.18262 0.97934 0.91645 0.0
Co237 Co 0.21024 0.96703 0.9265 0.0
C238 C 0.24984 0.97668 0.92532 0.0
O239 O 0.24499 0.96332 0.91117 0.0
N240 N 0.20974 0.94397 0.92274 0.0
C241 C 0.213 0.91938 0.93011 0.0
C242 C 0.21532 0.93598 0.93773 0.0
C243 C 0.20368 0.93159 0.90633 0.0
N244 N 0.20565 0.91664 0.91033 0.0
O245 O 0.20337 0.96027 0.95593 0.0
H246 H 0.22107 0.94203 0.95318 0.0
H247 H 0.19821 0.93341 0.89146 0.0
O248 O 0.23741 0.97991 0.93325 0.0
C249 C 0.18565 0.9519 0.95748 0.0
O250 O 0.17583 0.95063 0.94038 0.0
N251 N 0.21494 0.97307 0.89741 0.0
C252 C 0.2169 0.9809 0.85387 0.0
C253 C 0.23238 0.99114 0.86715 0.0
C254 C 0.23096 0.98736 0.88902 0.0
C255 C 0.19936 0.9641 0.88502 0.0
C256 C 0.2001 0.96748 0.8631 0.0
H257 H 0.24256 0.99641 0.89909 0.0
H258 H 0.18628 0.95405 0.89226 0.0
H259 H 0.23606 0.01045 0.9432 0.0
H260 H 0.18947 0.01372 0.92209 0.0
H261 H 0.21635 0.91001 0.93856 0.0
H262 H 0.24532 1.00234 0.86078 0.0
H263 H 0.18768 0.95955 0.85348 0.0
C264 C 0.03889 0.20729 0.92703 0.0
C265 C 0.02362 0.19299 0.937 0.0
N266 N 1.01187 0.19914 0.9423 0.0
N267 N 0.03688 0.22246 0.92618 0.0
C268 C 0.02037 0.21711 0.93593 0.0
H269 H 0.05016 0.20628 0.91967 0.0
Co270 Co 0.0526 0.24419 0.91079 0.0
C271 C 0.02299 0.25593 0.90734 0.0
O272 O 0.01832 0.24964 0.88776 0.0
N273 N 0.06877 0.26634 0.89546 0.0
C274 C 0.07949 0.29101 0.87394 0.0
C275 C 0.06419 0.27751 0.8844 0.0
C276 C 0.08722 0.27359 0.89143 0.0
N277 N 0.09397 0.28845 0.87813 0.0
O278 O 0.0669 0.25514 0.93647 0.0
H279 H 0.05054 0.27584 0.88293 0.0
H280 H 0.09529 0.26743 0.897 0.0
O281 O 0.03608 0.25489 0.9172 0.0
C282 C 0.07894 0.2498 0.9376 0.0
O283 O 0.07936 0.23914 0.92232 0.0
N284 N 0.0402 0.23203 0.8851 0.0
C285 C 0.02636 0.21394 0.84602 0.0
C286 C 1.01425 0.21091 0.86316 0.0
C287 C 0.02153 0.21967 0.88279 0.0
C288 C 0.05214 0.23338 0.86925 0.0
C289 C 0.04556 0.2248 0.84954 0.0
H290 H 1.01194 0.21709 0.89573 0.0
H291 H 0.067 0.24089 0.87186 0.0
H292 H 1.01405 0.22577 0.93716 0.0
H293 H 0.02077 0.17881 0.93882 0.0
H294 H 0.07979 0.30164 0.86358 0.0
H295 H 0.9993 0.20225 0.86131 0.0
H296 H 0.0555 0.2266 0.83718 0.0
C297 C 0.83851 0.81475 0.55641 0.0
C298 C 0.83509 0.82895 0.55182 0.0
N299 N 0.81669 0.8216 0.54807 0.0
N300 N 0.82244 0.79835 0.55542 0.0
C301 C 0.80934 0.80294 0.55018 0.0
H302 H 0.85184 0.81634 0.56089 0.0
Co303 Co 0.82113 0.77592 0.56315 0.0
C304 C 0.78194 0.74975 0.57345 0.0
O305 O 0.78848 0.74474 0.58977 0.0
N306 N 0.82036 0.7532 0.57044 0.0
C307 C 0.81345 0.72364 0.56672 0.0
C308 C 0.81114 0.73766 0.55833 0.0
C309 C 0.82848 0.74819 0.58598 0.0
N310 N 0.82437 0.73026 0.58418 0.0
O311 O 0.82495 0.77157 0.53383 0.0
H312 H 0.80303 0.73653 0.54423 0.0
H313 H 0.83758 0.7574 0.59821 0.0
O314 O 0.79335 0.76215 0.56029 0.0
C315 C 0.84257 0.77889 0.53172 0.0
O316 O 0.8533 0.78744 0.54824 0.0
N317 N 0.81977 0.78189 0.59187 0.0
C318 C 0.822 0.79381 0.63395 0.0
C319 C 0.80662 0.79013 0.62119 0.0
C320 C 0.80598 0.7846 0.6 0.0
C321 C 0.83566 0.78739 0.60338 0.0
C322 C 0.83685 0.79277 0.62474 0.0
H323 H 0.79451 0.78285 0.59013 0.0
H324 H 0.84759 0.78777 0.59585 0.0
H325 H 0.79463 0.7929 0.54889 0.0
H326 H 0.84543 0.84362 0.55149 0.0
H327 H 0.80732 0.70958 0.56058 0.0
H328 H 0.79514 0.7914 0.62755 0.0
H329 H 0.84936 0.79641 0.63383 0.0
C330 C 0.2143 0.02987 0.55763 0.0
C331 C 0.19945 0.01248 0.55359 0.0
N332 N 0.20605 1.00114 0.54805 0.0
N333 N 0.2303 0.02967 0.55467 0.0
C334 C 0.22486 0.01195 0.54867 0.0
H335 H 0.21349 0.04183 0.5631 0.0
Co336 Co 0.25316 0.05031 0.56177 0.0
C337 C 0.28166 0.03885 0.56062 0.0
O338 O 0.28932 0.04976 0.57726 0.0
N339 N 0.27615 0.07202 0.56882 0.0
C340 C 0.30453 0.09665 0.56428 0.0
C341 C 0.29065 0.08063 0.55509 0.0
C342 C 0.2815 0.08348 0.58608 0.0
N343 N 0.29873 0.09846 0.58378 0.0
O344 O 0.2545 0.06096 0.53392 0.0
H345 H 0.29102 0.07562 0.53922 0.0
H346 H 0.27301 0.08119 0.60005 0.0
O347 O 0.26678 0.03737 0.55222 0.0
C348 C 0.24973 0.07326 0.537 0.0
O349 O 0.24441 0.07484 0.55634 0.0
N350 N 0.25022 0.04062 0.58947 0.0
C351 C 0.24122 0.0274 0.63121 0.0
C352 C 0.24669 0.01841 0.61635 0.0
C353 C 0.25063 0.02493 0.59535 0.0
C354 C 0.2436 0.04862 0.60332 0.0
C355 C 0.23938 0.04251 0.62441 0.0
H356 H 0.25329 0.01687 0.58384 0.0
H357 H 0.24149 0.05983 0.59787 0.0
H358 H 0.2344 1.00684 0.54576 0.0
H359 H 0.18486 1.00843 0.55481 0.0
H360 H 0.31763 0.1065 0.5569 0.0
H361 H 0.24736 1.0061 0.62076 0.0
H362 H 0.23481 0.04961 0.63528 0.0
C363 C 0.98759 0.18273 0.54513 0.0
C364 C 1.0042 0.18423 0.53907 0.0
N365 N 0.01722 0.20246 0.53803 0.0
N366 N 0.98993 0.19987 0.54793 0.0
C367 C 1.00816 0.21168 0.54354 0.0
H368 H 0.97464 0.1699 0.54784 0.0
Co369 Co 0.97054 0.20322 0.55753 0.0
C370 C 0.98714 0.24227 0.57109 0.0
O371 O 0.97593 0.23563 0.58766 0.0
N372 N 0.9502 0.20614 0.56676 0.0
C373 C 0.92931 0.21563 0.56585 0.0
C374 C 0.94485 0.21698 0.55626 0.0
C375 C 0.93736 0.19811 0.58253 0.0
N376 N 0.92459 0.20373 0.58242 0.0
O377 O 0.96198 0.20158 0.52848 0.0
H378 H 0.95181 0.22534 0.54234 0.0
H379 H 0.9372 0.18833 0.59401 0.0
O380 O 0.98678 0.23102 0.55663 0.0
C381 C 0.94841 0.18485 0.52702 0.0
O382 O 0.94406 0.17393 0.54383 0.0
N383 N 0.97777 0.20193 0.58564 0.0
C384 C 0.98515 0.19476 0.62694 0.0
C385 C 0.99792 0.21111 0.61626 0.0
C386 C 0.99424 0.21417 0.59529 0.0
C387 C 0.96639 0.1851 0.5949 0.0
C388 C 0.96951 0.18137 0.61575 0.0
H389 H 1.00471 0.22628 0.58689 0.0
H390 H 0.95456 0.17456 0.58608 0.0
H391 H 0.01467 0.22668 0.54453 0.0
H392 H 1.00658 0.17269 0.5363 0.0
H393 H 0.92186 0.22259 0.56068 0.0
H394 H 1.01071 0.22135 0.62396 0.0
H395 H 0.95953 0.16832 0.62315 0.0
C396 C 0.88248 0.51475 0.39181 0.0
C397 C 0.86782 0.51671 0.38503 0.0
N398 N 0.87412 0.53487 0.38093 0.0
N399 N 0.89813 0.53153 0.392 0.0
C400 C 0.89263 0.54363 0.38535 0.0
H401 H 0.8817 0.50191 0.39692 0.0
Co402 Co 0.9205 0.53395 0.40183 0.0
C403 C 0.94482 0.57308 0.4135 0.0
O404 O 0.94878 0.56633 0.43049 0.0
N405 N 0.94325 0.53567 0.41123 0.0
C406 C 0.9732 0.54343 0.40977 0.0
C407 C 0.95936 0.54541 0.40021 0.0
C408 C 0.94778 0.52768 0.42739 0.0
N409 N 0.96591 0.53227 0.42691 0.0
O410 O 0.92678 0.53082 0.37312 0.0
H411 H 0.96097 0.55353 0.38599 0.0
H412 H 0.93809 0.51827 0.43906 0.0
O413 O 0.93353 0.56177 0.39934 0.0
C414 C 0.92117 0.51346 0.37128 0.0
O415 O 0.91303 0.50248 0.38772 0.0
N416 N 0.91261 0.53463 0.42982 0.0
C417 C 0.89741 0.53115 0.47051 0.0
C418 C 0.90137 0.54651 0.45753 0.0
C419 C 0.90856 0.54778 0.43706 0.0
C420 C 0.90696 0.51871 0.44128 0.0
C421 C 0.89989 0.5169 0.46194 0.0
H422 H 0.91042 0.55915 0.42693 0.0
H423 H 0.90775 0.50722 0.43422 0.0
H424 H 0.90192 0.55851 0.38402 0.0
H425 H 0.85345 0.50563 0.38396 0.0
H426 H 0.98757 0.54987 0.40459 0.0
H427 H 0.8986 0.55731 0.46296 0.0
H428 H 0.89653 0.5045 0.47106 0.0
C429 C 0.50156 0.36512 0.39436 0.0
C430 C 0.49837 0.3475 0.39048 0.0
N431 N 0.48033 0.33664 0.38505 0.0
N432 N 0.48566 0.36556 0.39139 0.0
C433 C 0.4729 0.34795 0.38554 0.0
H434 H 0.51452 0.37674 0.39997 0.0
Co435 Co 0.48435 0.38666 0.39882 0.0
C436 C 0.44469 0.37509 0.40453 0.0
O437 O 0.45023 0.38647 0.42101 0.0
N438 N 0.48395 0.40875 0.40609 0.0
C439 C 0.4794 0.43297 0.40243 0.0
C440 C 0.47686 0.41681 0.39319 0.0
C441 C 0.49099 0.42057 0.42295 0.0
N442 N 0.48832 0.43533 0.42119 0.0
O443 O 0.49024 0.39575 0.36989 0.0
H444 H 0.4702 0.41126 0.37793 0.0
H445 H 0.49787 0.41855 0.43646 0.0
O446 O 0.45684 0.37342 0.39339 0.0
C447 C 0.50796 0.40602 0.36919 0.0
O448 O 0.51766 0.40768 0.38653 0.0
N449 N 0.48092 0.37839 0.42724 0.0
C450 C 0.48181 0.36653 0.46877 0.0
C451 C 0.46602 0.35652 0.4558 0.0
C452 C 0.466 0.36245 0.43489 0.0
C453 C 0.49685 0.38733 0.43904 0.0
C454 C 0.49746 0.38202 0.46003 0.0
H455 H 0.4543 0.35372 0.42474 0.0
H456 H 0.50928 0.39865 0.43197 0.0
H457 H 0.45831 0.34327 0.3828 0.0
H458 H 0.50851 0.34293 0.39187 0.0
H459 H 0.47528 0.44239 0.39563 0.0
H460 H 0.45399 0.34389 0.4615 0.0
H461 H 0.5101 0.39001 0.46925 0.0
C462 C 0.65217 0.14243 0.37974 0.0
C463 C 0.66879 0.15687 0.37243 0.0
N464 N 0.68146 0.15118 0.37203 0.0
N465 N 0.65421 0.1276 0.38389 0.0
C466 C 0.67222 0.13332 0.37901 0.0
H467 H 0.63948 0.14284 0.38236 0.0
Co468 Co 0.63509 0.10559 0.39554 0.0
C469 C 0.65048 0.08091 0.40295 0.0
O470 O 0.64159 0.07698 0.42133 0.0
N471 N 0.615 0.08304 0.40691 0.0
C472 C 0.59272 0.05315 0.40729 0.0
C473 C 0.60746 0.06676 0.39603 0.0
C474 C 0.60423 0.07887 0.4247 0.0
N475 N 0.59067 0.06075 0.42539 0.0
O476 O 0.62272 0.09919 0.36801 0.0
H477 H 0.61233 0.06492 0.38067 0.0
H478 H 0.60608 0.08875 0.43699 0.0
O479 O 0.64923 0.09225 0.38987 0.0
C480 C 0.60928 0.10255 0.36969 0.0
O481 O 0.60702 0.10898 0.388 0.0
N482 N 0.64628 0.11371 0.42252 0.0
C483 C 0.65981 0.12749 0.46327 0.0
C484 C 0.67024 0.12316 0.44913 0.0
C485 C 0.66344 0.11671 0.42861 0.0
C486 C 0.63713 0.11994 0.43511 0.0
C487 C 0.64331 0.12636 0.45578 0.0
H488 H 0.67208 0.11425 0.41774 0.0
H489 H 0.6247 0.11959 0.42914 0.0
H490 H 0.67851 0.12466 0.38072 0.0
H491 H 0.67147 0.17071 0.36843 0.0
H492 H 0.58393 0.03885 0.40222 0.0
H493 H 0.68359 0.12482 0.45383 0.0
H494 H 0.63497 0.12997 0.4659 0.0
C495 C 0.85602 0.5466 0.76922 0.0
C496 C 0.85749 0.53167 0.77619 0.0
N497 N 0.87571 0.53701 0.77804 0.0
N498 N 0.87319 0.56141 0.76666 0.0
C499 C 0.88497 0.5552 0.7722 0.0
H500 H 0.84321 0.54652 0.76555 0.0
Co501 Co 0.87669 0.58374 0.75531 0.0
C502 C 0.9165 0.60686 0.74571 0.0
O503 O 0.91083 0.6105 0.72761 0.0
N504 N 0.87968 0.60658 0.74433 0.0
C505 C 0.88835 0.63676 0.74457 0.0
C506 C 0.88979 0.62291 0.75485 0.0
C507 C 0.87197 0.61099 0.72775 0.0
N508 N 0.87709 0.62926 0.72751 0.0
O509 O 0.8723 0.59076 0.78321 0.0
H510 H 0.89763 0.6246 0.76937 0.0
H511 H 0.86223 0.60106 0.71646 0.0
O512 O 0.90437 0.5962 0.75961 0.0
C513 C 0.85549 0.58748 0.78258 0.0
O514 O 0.84588 0.58077 0.76484 0.0
N515 N 0.87828 0.57506 0.72806 0.0
C516 C 0.87509 0.55811 0.68851 0.0
C517 C 0.89022 0.56238 0.70207 0.0
C518 C 0.89135 0.57048 0.72198 0.0
C519 C 0.86269 0.56943 0.71594 0.0
C520 C 0.86103 0.56144 0.69584 0.0
H521 H 0.90252 0.57258 0.7326 0.0
H522 H 0.85126 0.57081 0.72211 0.0
H523 H 0.89999 0.56372 0.77158 0.0
H524 H 0.84595 0.51774 0.77884 0.0
H525 H 0.89508 0.65125 0.74934 0.0
H526 H 0.9009 0.55912 0.69758 0.0
H527 H 0.84885 0.55798 0.6862 0.0
C528 C 0.47759 0.3122 0.7709 0.0
C529 C 0.49273 0.32844 0.77781 0.0
N530 N 0.4877 0.34154 0.77979 0.0
N531 N 0.46294 0.31485 0.76848 0.0
C532 C 0.46947 0.33288 0.77405 0.0
H533 H 0.47738 0.29934 0.76721 0.0
Co534 Co 0.44043 0.29616 0.75739 0.0
C535 C 0.41669 0.31253 0.74981 0.0
O536 O 0.41248 0.30346 0.73153 0.0
N537 N 0.41744 0.27638 0.74655 0.0
C538 C 0.38741 0.25443 0.74678 0.0
C539 C 0.40119 0.26959 0.75736 0.0
C540 C 0.41309 0.26475 0.72954 0.0
N541 N 0.3949 0.25134 0.72924 0.0
O542 O 0.43401 0.28445 0.78514 0.0
H543 H 0.39954 0.27514 0.77235 0.0
H544 H 0.42296 0.26573 0.71769 0.0
O545 O 0.42798 0.31116 0.76287 0.0
C546 C 0.43666 0.27055 0.78398 0.0
O547 O 0.44251 0.26733 0.76579 0.0
N548 N 0.44852 0.30685 0.7302 0.0
C549 C 0.46311 0.32048 0.68973 0.0
C550 C 0.45926 0.33121 0.70397 0.0
C551 C 0.45238 0.32432 0.72433 0.0
C552 C 0.45417 0.29725 0.7175 0.0
C553 C 0.46093 0.30347 0.69695 0.0
H554 H 0.45047 0.33324 0.73535 0.0
H555 H 0.45342 0.28463 0.72342 0.0
H556 H 0.46113 0.33959 0.77357 0.0
H557 H 0.50659 0.33056 0.78037 0.0
H558 H 0.37314 0.24596 0.75207 0.0
H559 H 0.46177 0.34491 0.69956 0.0
H560 H 0.46417 0.29488 0.6868 0.0
C561 C 0.70834 0.16722 0.76881 0.0
C562 C 0.69154 0.16511 0.77516 0.0
N563 N 0.67875 0.14682 0.77486 0.0
N564 N 0.70632 0.15036 0.76463 0.0
C565 C 0.68808 0.13814 0.7684 0.0
H566 H 0.7212 0.1803 0.76694 0.0
Co567 Co 0.72599 0.14774 0.7544 0.0
C568 C 0.71249 0.10773 0.74909 0.0
O569 O 0.72212 0.11245 0.73121 0.0
N570 N 0.74672 0.14581 0.74445 0.0
C571 C 0.76986 0.13941 0.74548 0.0
C572 C 0.75464 0.13782 0.75611 0.0
C573 C 0.75779 0.15255 0.72693 0.0
N574 N 0.77185 0.1487 0.72711 0.0
O575 O 0.73755 0.15424 0.78232 0.0
H576 H 0.74967 0.13128 0.77155 0.0
H577 H 0.75583 0.16021 0.71424 0.0
O578 O 0.71221 0.1204 0.76075 0.0
C579 C 0.75082 0.17109 0.78057 0.0
O580 O 0.75317 0.17954 0.76205 0.0
N581 N 0.71553 0.14399 0.72698 0.0
C582 C 0.70239 0.14437 0.68602 0.0
C583 C 0.69251 0.12894 0.6995 0.0
C584 C 0.6991 0.12919 0.72014 0.0
C585 C 0.7243 0.15967 0.71479 0.0
C586 C 0.7183 0.16003 0.69407 0.0
H587 H 0.69071 0.11763 0.73059 0.0
H588 H 0.73621 0.172 0.72121 0.0
H589 H 0.68173 0.12322 0.76638 0.0
H590 H 0.68883 0.17626 0.77911 0.0
H591 H 0.77904 0.13453 0.75114 0.0
H592 H 0.67964 0.11691 0.69429 0.0
H593 H 0.72623 0.17239 0.68441 0.0
C594 C 0.47454 0.16486 0.26216 0.0
C595 C 0.48941 0.16242 0.26661 0.0
N596 N 0.4829 0.14431 0.2712 0.0
N597 N 0.45861 0.14842 0.26391 0.0
C598 C 0.46409 0.13609 0.26964 0.0
H599 H 0.4753 0.17774 0.25728 0.0
Co600 Co 0.43597 0.14647 0.25604 0.0
C601 C 0.40793 0.10675 0.25299 0.0
O602 O 0.40201 0.11139 0.2358 0.0
N603 N 0.4131 0.14544 0.24834 0.0
C604 C 0.38431 0.14085 0.25223 0.0
C605 C 0.39805 0.13842 0.26137 0.0
C606 C 0.40813 0.1524 0.23151 0.0
N607 N 0.39066 0.14966 0.2334 0.0
O608 O 0.43339 0.15411 0.28433 0.0
H609 H 0.39715 0.13194 0.2767 0.0
H610 H 0.4172 0.15997 0.2184 0.0
O611 O 0.42193 0.11937 0.26352 0.0
C612 C 0.43781 0.17119 0.28253 0.0
O613 O 0.44337 0.17927 0.26375 0.0
N614 N 0.44017 0.14126 0.2281 0.0
C615 C 0.44944 0.13813 0.18607 0.0
C616 C 0.44529 0.12388 0.20093 0.0
C617 C 0.44109 0.12589 0.22201 0.0
C618 C 0.44611 0.15598 0.2145 0.0
C619 C 0.45024 0.15455 0.19322 0.0
H620 H 0.43903 0.11524 0.2334 0.0
H621 H 0.44763 0.16898 0.22025 0.0
H622 H 0.45463 0.12131 0.27167 0.0
H623 H 0.50396 0.17315 0.2663 0.0
H624 H 0.37069 0.13639 0.25896 0.0
H625 H 0.44562 0.11142 0.19644 0.0
H626 H 0.45384 0.16614 0.18252 0.0
C627 C 0.86533 0.3233 0.25701 0.0
C628 C 0.86855 0.34068 0.2624 0.0
N629 N 0.88452 0.34943 0.27374 0.0
N630 N 0.87913 0.32087 0.26486 0.0
C631 C 0.89075 0.3371 0.27496 0.0
H632 H 0.85377 0.31311 0.24756 0.0
Co633 Co 0.87941 0.29879 0.25973 0.0
C634 C 0.91874 0.30822 0.25871 0.0
O635 O 0.91384 0.29615 0.24297 0.0
N636 N 0.87879 0.27579 0.25485 0.0
C637 C 0.88165 0.25091 0.26186 0.0
C638 C 0.88427 0.26756 0.26964 0.0
C639 C 0.87254 0.26351 0.23833 0.0
N640 N 0.87425 0.24837 0.24212 0.0
O641 O 0.87104 0.29053 0.28852 0.0
H642 H 0.88997 0.27339 0.28519 0.0
H643 H 0.867 0.26548 0.2236 0.0
O644 O 0.90633 0.3109 0.26779 0.0
C645 C 0.85328 0.28261 0.28828 0.0
O646 O 0.84499 0.28257 0.27031 0.0
N647 N 0.88545 0.30643 0.23117 0.0
C648 C 0.88875 0.31885 0.18912 0.0
C649 C 0.90332 0.32846 0.20373 0.0
C650 C 0.90125 0.32224 0.22483 0.0
C651 C 0.87074 0.29775 0.21746 0.0
C652 C 0.87226 0.30335 0.19618 0.0
H653 H 0.91198 0.33078 0.23617 0.0
H654 H 0.8575 0.28673 0.22332 0.0
H655 H 0.90343 0.33981 0.28303 0.0
H656 H 0.85998 0.34658 0.2578 0.0
H657 H 0.88471 0.2413 0.27023 0.0
H658 H 0.91604 0.34089 0.19901 0.0
H659 H 0.86037 0.29611 0.1856 0.0
C660 C 0.70078 0.54234 0.25738 0.0
C661 C 0.68335 0.5281 0.26241 0.0
N662 N 0.67451 0.53507 0.27398 0.0
N663 N 0.70316 0.5584 0.26565 0.0
C664 C 0.68684 0.55359 0.27566 0.0
H665 H 0.71106 0.54113 0.24795 0.0
Co666 Co 0.72544 0.58072 0.26121 0.0
C667 C 0.71682 0.61129 0.26266 0.0
O668 O 0.72967 0.61967 0.24793 0.0
N669 N 0.74866 0.60297 0.25692 0.0
C670 C 0.77403 0.63023 0.26424 0.0
C671 C 0.75744 0.61616 0.27212 0.0
C672 C 0.76056 0.6093 0.24006 0.0
N673 N 0.77598 0.62592 0.24398 0.0
O674 O 0.73342 0.57975 0.28989 0.0
H675 H 0.75194 0.61577 0.28793 0.0
H676 H 0.75832 0.6019 0.22523 0.0
O677 O 0.71351 0.59545 0.27008 0.0
C678 C 0.74159 0.57015 0.28931 0.0
O679 O 0.74179 0.56232 0.2711 0.0
N680 N 0.71808 0.58012 0.23266 0.0
C681 C 0.70733 0.57456 0.18981 0.0
C682 C 0.69802 0.57967 0.20464 0.0
C683 C 0.70327 0.58187 0.22612 0.0
C684 C 0.72628 0.57376 0.21872 0.0
C685 C 0.72145 0.5713 0.19711 0.0
H686 H 0.69483 0.58417 0.23742 0.0
H687 H 0.73665 0.57051 0.22451 0.0
H688 H 0.6841 0.56339 0.28405 0.0
H689 H 0.6775 0.51373 0.25746 0.0
H690 H 0.7837 0.64279 0.2727 0.0
H691 H 0.68634 0.5813 0.19983 0.0
H692 H 0.72869 0.56688 0.18627 0.0
C693 C 0.5022 0.13923 0.89178 0.0
C694 C 0.49961 0.1541 0.88808 0.0
N695 N 0.48185 0.14755 0.88177 0.0
N696 N 0.48621 0.12327 0.88781 0.0
C697 C 0.47401 0.12876 0.88156 0.0
H698 H 0.51482 0.13999 0.89773 0.0
Co699 Co 0.48396 0.10026 0.89417 0.0
C700 C 0.44398 0.07208 0.89383 0.0
O701 O 0.4477 0.06447 0.91016 0.0
N702 N 0.48262 0.07707 0.90044 0.0
C703 C 0.47843 0.0486 0.89505 0.0
C704 C 0.47658 0.06282 0.88632 0.0
C705 C 0.4885 0.0712 0.91747 0.0
N706 N 0.48599 0.05392 0.91466 0.0
O707 O 0.49307 0.09929 0.86602 0.0
H708 H 0.47119 0.06281 0.87053 0.0
H709 H 0.4946 0.07927 0.93173 0.0
O710 O 0.45719 0.08684 0.88504 0.0
C711 C 0.51024 0.10456 0.86936 0.0
O712 O 0.5168 0.10984 0.88885 0.0
N713 N 0.47753 0.1029 0.92214 0.0
C714 C 0.47349 0.11095 0.96432 0.0
C715 C 0.45936 0.10685 0.94933 0.0
C716 C 0.46181 0.10322 0.92815 0.0
C717 C 0.49201 0.10861 0.9361 0.0
C718 C 0.49012 0.11215 0.95745 0.0
H719 H 0.45131 0.1013 0.91662 0.0
H720 H 0.50521 0.1105 0.93055 0.0
H721 H 0.4595 0.11924 0.87789 0.0
H722 H 0.50999 0.16865 0.89009 0.0
H723 H 0.47494 0.03556 0.88731 0.0
H724 H 0.44657 0.10648 0.95393 0.0
H725 H 0.50169 0.11616 0.96837 0.0
C726 C 0.87854 0.36394 0.89843 0.0
C727 C 0.86436 0.34606 0.89504 0.0
N728 N 0.87159 0.33627 0.8861 0.0
N729 N 0.89474 0.3656 0.89165 0.0
C730 C 0.89008 0.3485 0.88403 0.0
H731 H 0.87721 0.37495 0.90602 0.0
Co732 Co 0.91743 0.38746 0.89626 0.0
C733 C 0.94585 0.37633 0.90109 0.0
O734 O 0.95268 0.38869 0.91658 0.0
N735 N 0.94025 0.41014 0.90055 0.0
C736 C 0.96884 0.43366 0.89356 0.0
C737 C 0.95437 0.41706 0.88622 0.0
C738 C 0.94648 0.42314 0.91631 0.0
N739 N 0.96386 0.43743 0.91258 0.0
O740 O 0.91809 0.39454 0.86681 0.0
H741 H 0.9543 0.41026 0.8714 0.0
H742 H 0.93855 0.42254 0.93019 0.0
O743 O 0.93163 0.37425 0.89044 0.0
C744 C 0.90898 0.40322 0.86598 0.0
O745 O 0.90101 0.40454 0.88355 0.0
N746 N 0.91509 0.38104 0.92542 0.0
C747 C 0.90836 0.37237 0.96878 0.0
C748 C 0.91141 0.36089 0.95486 0.0
C749 C 0.91424 0.36519 0.93313 0.0
C750 C 0.91001 0.39104 0.93824 0.0
C751 C 0.90721 0.38738 0.96011 0.0
H752 H 0.91521 0.35544 0.92253 0.0
H753 H 0.90809 0.40196 0.93138 0.0
H754 H 0.90007 0.34487 0.87792 0.0
H755 H 0.84983 0.34066 0.89898 0.0
H756 H 0.98211 0.44206 0.88569 0.0
H757 H 0.91117 0.34843 0.96059 0.0
H758 H 0.90426 0.39629 0.97007 0.0
C759 C 0.6625 0.52411 0.90029 0.0
C760 C 0.68042 0.52826 0.89616 0.0
N761 N 0.6893 0.54475 0.88588 0.0
N762 N 0.65983 0.5378 0.89262 0.0
C763 C 0.67642 0.55022 0.88379 0.0
H764 H 0.65209 0.51195 0.90873 0.0
Co765 Co 0.63726 0.53737 0.89691 0.0
C766 C 0.64518 0.57642 0.89475 0.0
O767 O 0.63198 0.57189 0.90903 0.0
N768 N 0.6138 0.53599 0.90114 0.0
C769 C 0.58808 0.53726 0.89374 0.0
C770 C 0.60459 0.53965 0.88572 0.0
C771 C 0.60224 0.53098 0.91829 0.0
N772 N 0.58663 0.5318 0.91427 0.0
O773 O 0.62943 0.52819 0.86826 0.0
H774 H 0.60971 0.54415 0.86964 0.0
H775 H 0.60515 0.52715 0.93369 0.0
O776 O 0.64881 0.56396 0.88783 0.0
C777 C 0.62131 0.51045 0.86929 0.0
O778 O 0.62093 0.50276 0.88783 0.0
N779 N 0.64448 0.54426 0.92541 0.0
C780 C 0.65513 0.54921 0.96828 0.0
C781 C 0.66402 0.56392 0.95368 0.0
C782 C 0.65883 0.56101 0.93217 0.0
C783 C 0.63662 0.52952 0.93914 0.0
C784 C 0.64142 0.53175 0.96075 0.0
H785 H 0.66699 0.57203 0.92103 0.0
H786 H 0.62647 0.51589 0.93319 0.0
H787 H 0.67915 0.56318 0.87649 0.0
H788 H 0.68638 0.51966 0.90035 0.0
H789 H 0.57788 0.53926 0.88508 0.0
H790 H 0.67537 0.57735 0.95868 0.0
H791 H 0.63445 0.51992 0.97142 0.0
C792 C 0.54769 0.85442 0.7306 0.0
C793 C 0.53323 0.857 0.72467 0.0
N794 N 0.54032 0.87417 0.71619 0.0
N795 N 0.56399 0.86981 0.72591 0.0
C796 C 0.55909 0.88176 0.71722 0.0
H797 H 0.54642 0.84214 0.73829 0.0
Co798 Co 0.58641 0.87082 0.73275 0.0
C799 C 0.61497 0.91026 0.73812 0.0
O800 O 0.62124 0.90469 0.75418 0.0
N801 N 0.60889 0.87085 0.73937 0.0
C802 C 0.63748 0.87509 0.7349 0.0
C803 C 0.62369 0.87756 0.726 0.0
C804 C 0.61406 0.86407 0.75619 0.0
N805 N 0.63141 0.86659 0.75394 0.0
O806 O 0.58907 0.86512 0.70364 0.0
H807 H 0.62448 0.88402 0.71068 0.0
H808 H 0.60556 0.85759 0.77005 0.0
O809 O 0.60075 0.89822 0.72741 0.0
C810 C 0.58054 0.84742 0.70187 0.0
O811 O 0.57167 0.83725 0.71861 0.0
N812 N 0.58219 0.87435 0.76138 0.0
C813 C 0.57061 0.87431 0.8032 0.0
C814 C 0.57625 0.88992 0.79004 0.0
C815 C 0.58151 0.88948 0.76896 0.0
C816 C 0.57537 0.85859 0.77346 0.0
C817 C 0.56992 0.85837 0.79459 0.0
H818 H 0.58424 0.90101 0.75866 0.0
H819 H 0.57399 0.84601 0.7665 0.0
H820 H 0.56902 0.89565 0.71177 0.0
H821 H 0.51858 0.84712 0.72698 0.0
H822 H 0.65083 0.87902 0.72771 0.0
H823 H 0.576 0.90214 0.79574 0.0
H824 H 0.56521 0.84585 0.80405 0.0
C825 C 0.1742 0.70261 0.71804 0.0
C826 C 0.17178 0.68583 0.71112 0.0
N827 N 0.1535 0.67309 0.71213 0.0
N828 N 0.15756 0.70067 0.7233 0.0
C829 C 0.14512 0.68244 0.71961 0.0
H830 H 0.18741 0.71537 0.71963 0.0
Co831 Co 0.15572 0.72059 0.73456 0.0
C832 C 0.11671 0.70617 0.74702 0.0
O833 O 0.12375 0.71629 0.76436 0.0
N834 N 0.15446 0.74151 0.7454 0.0
C835 C 0.14693 0.76386 0.74574 0.0
C836 C 0.14508 0.74861 0.73497 0.0
C837 C 0.16214 0.75305 0.76246 0.0
N838 N 0.15764 0.76667 0.76312 0.0
O839 O 0.1586 0.73087 0.70622 0.0
H840 H 0.13727 0.74298 0.72033 0.0
H841 H 0.17073 0.75159 0.77437 0.0
O842 O 0.12781 0.70623 0.73255 0.0
C843 C 0.17578 0.74337 0.70483 0.0
O844 O 0.1867 0.74638 0.72142 0.0
N845 N 0.1555 0.71134 0.762 0.0
C846 C 0.16015 0.70009 0.80236 0.0
C847 C 0.14405 0.68884 0.79038 0.0
C848 C 0.14216 0.69454 0.76997 0.0
C849 C 0.17204 0.72129 0.77249 0.0
C850 C 0.17448 0.71626 0.79301 0.0
H851 H 0.13002 0.68534 0.76066 0.0
H852 H 0.18337 0.73339 0.76492 0.0
H853 H 0.1303 0.67611 0.72249 0.0
H854 H 0.18275 0.68309 0.70638 0.0
H855 H 0.14106 0.77239 0.74085 0.0
H856 H 0.13288 0.67594 0.79684 0.0
H857 H 0.18746 0.72489 0.80144 0.0
C858 C 0.32182 0.48053 0.72941 0.0
C859 C 0.33659 0.49522 0.71921 0.0
N860 N 0.34881 0.4898 0.71337 0.0
N861 N 0.32468 0.46587 0.72996 0.0
C862 C 0.34104 0.47183 0.7196 0.0
H863 H 0.31036 0.48091 0.73719 0.0
Co864 Co 0.31033 0.44411 0.74587 0.0
C865 C 0.34215 0.43522 0.74717 0.0
O866 O 0.34922 0.44447 0.76492 0.0
N867 N 0.29574 0.42179 0.76172 0.0
C868 C 0.28809 0.39831 0.78442 0.0
C869 C 0.3024 0.41279 0.77369 0.0
C870 C 0.27714 0.41235 0.76563 0.0
N871 N 0.27218 0.39811 0.77956 0.0
O872 O 0.29563 0.43255 0.72065 0.0
H873 H 0.31685 0.41691 0.77569 0.0
H874 H 0.26755 0.41649 0.75952 0.0
O875 O 0.32755 0.43437 0.73882 0.0
C876 C 0.28237 0.43623 0.7212 0.0
O877 O 0.2815 0.44577 0.73752 0.0
N878 N 0.32296 0.457 0.77128 0.0
C879 C 0.33661 0.47629 0.80981 0.0
C880 C 0.34843 0.48034 0.79215 0.0
C881 C 0.34119 0.47095 0.77283 0.0
C882 C 0.31107 0.45451 0.78773 0.0
C883 C 0.3176 0.46363 0.80717 0.0
H884 H 0.35056 0.47459 0.75943 0.0
H885 H 0.29622 0.4457 0.7858 0.0
H886 H 0.34783 0.46365 0.71794 0.0
H887 H 0.33881 0.5092 0.71767 0.0
H888 H 0.28947 0.389 0.79546 0.0
H889 H 0.36316 0.49041 0.79329 0.0
H890 H 0.30775 0.46092 0.81997 0.0
C891 C 0.5255 0.87879 0.10954 0.0
C892 C 0.52839 0.8645 0.11557 0.0
N893 N 0.54666 0.87026 0.11349 0.0
N894 N 0.54186 0.89364 0.10379 0.0
C895 C 0.55457 0.88803 0.10628 0.0
H896 H 0.51218 0.8782 0.10888 0.0
Co897 Co 0.54313 0.91526 0.09318 0.0
C898 C 0.58269 0.94287 0.08571 0.0
O899 O 0.577 0.94763 0.06843 0.0
N900 N 0.54357 0.93715 0.08286 0.0
C901 C 0.54855 0.96619 0.08318 0.0
C902 C 0.55099 0.95322 0.09415 0.0
C903 C 0.53638 0.94074 0.06516 0.0
N904 N 0.53936 0.95836 0.06489 0.0
O905 O 0.53807 0.92102 0.12136 0.0
H906 H 0.55785 0.95542 0.10949 0.0
H907 H 0.52917 0.93083 0.05256 0.0
O908 O 0.57071 0.92973 0.09775 0.0
C909 C 0.52089 0.91645 0.12168 0.0
O910 O 0.51078 0.90918 0.10438 0.0
N911 N 0.54584 0.90802 0.06564 0.0
C912 C 0.54491 0.89488 0.02444 0.0
C913 C 0.56094 0.90134 0.03712 0.0
C914 C 0.56098 0.90743 0.05791 0.0
C915 C 0.52961 0.90004 0.05432 0.0
C916 C 0.5289 0.89374 0.03347 0.0
H917 H 0.57312 0.91137 0.06768 0.0
H918 H 0.5172 0.89899 0.06141 0.0
H919 H 0.56924 0.89666 0.10273 0.0
H920 H 0.51771 0.85069 0.12042 0.0
H921 H 0.55292 0.98021 0.08851 0.0
H922 H 0.5733 0.90155 0.03107 0.0
H923 H 0.5161 0.88848 0.02438 0.0
C924 C 0.14247 0.6503 0.10906 0.0
C925 C 0.15643 0.66721 0.1163 0.0
N926 N 0.15075 0.67979 0.11422 0.0
N927 N 0.12792 0.65206 0.10255 0.0
C928 C 0.13337 0.67025 0.10582 0.0
H929 H 0.14299 0.63753 0.10828 0.0
Co930 Co 0.10651 0.63219 0.09087 0.0
C931 C 0.07984 0.64509 0.08255 0.0
O932 O 0.07614 0.63576 0.06449 0.0
N933 N 0.08468 0.61129 0.07951 0.0
C934 C 0.05544 0.58757 0.07894 0.0
C935 C 0.06822 0.60299 0.09005 0.0
C936 C 0.08149 0.60035 0.06205 0.0
N937 N 0.0638 0.5859 0.06132 0.0
O938 O 0.10003 0.62052 0.11868 0.0
H939 H 0.06567 0.60785 0.10505 0.0
H940 H 0.09191 0.60237 0.05038 0.0
O941 O 0.09217 0.64539 0.09537 0.0
C942 C 0.10377 0.6073 0.11811 0.0
O943 O 0.11072 0.60469 0.10041 0.0
N944 N 0.11464 0.64281 0.06377 0.0
C945 C 0.12996 0.6559 0.02345 0.0
C946 C 0.12354 0.66564 0.03592 0.0
C947 C 0.11626 0.65906 0.05627 0.0
C948 C 0.12243 0.63427 0.05273 0.0
C949 C 0.1297 0.64023 0.03232 0.0
H950 H 0.11229 0.66728 0.06594 0.0
H951 H 0.12275 0.62251 0.05978 0.0
H952 H 0.12485 0.6764 0.10212 0.0
H953 H 0.16996 0.67013 0.1221 0.0
H954 H 0.04108 0.57835 0.08349 0.0
H955 H 0.12434 0.67834 0.03013 0.0
H956 H 0.13473 0.63238 0.02349 0.0
C957 C 0.37445 0.50437 0.1079 0.0
C958 C 0.35732 0.50085 0.11497 0.0
N959 N 0.34597 0.48226 0.11607 0.0
N960 N 0.37414 0.48814 0.10469 0.0
C961 C 0.35647 0.47481 0.10964 0.0
H962 H 0.38633 0.51799 0.10488 0.0
Co963 Co 0.39504 0.48746 0.09453 0.0
C964 C 0.38172 0.44951 0.0785 0.0
O965 O 0.39308 0.45768 0.06235 0.0
N966 N 0.41681 0.48721 0.08473 0.0
C967 C 0.43932 0.47987 0.08488 0.0
C968 C 0.42399 0.47803 0.09545 0.0
C969 C 0.42832 0.49462 0.0676 0.0
N970 N 0.44203 0.49023 0.06722 0.0
O971 O 0.40347 0.48833 0.12349 0.0
H972 H 0.41821 0.4701 0.10997 0.0
H973 H 0.4265 0.50256 0.05514 0.0
O974 O 0.38084 0.45955 0.09367 0.0
C975 C 0.41436 0.50568 0.12704 0.0
O976 O 0.41672 0.51763 0.11184 0.0
N977 N 0.38773 0.48936 0.06677 0.0
C978 C 0.37974 0.49744 0.02625 0.0
C979 C 0.36776 0.48027 0.03602 0.0
C980 C 0.37173 0.4767 0.05663 0.0
C981 C 0.39825 0.50679 0.05849 0.0
C982 C 0.39482 0.51102 0.03801 0.0
H983 H 0.36187 0.46386 0.06436 0.0
H984 H 0.40979 0.51734 0.06767 0.0
H985 H 0.3514 0.46 0.10858 0.0
H986 H 0.35336 0.51119 0.11852 0.0
H987 H 0.44776 0.47394 0.08991 0.0
H988 H 0.35539 0.46977 0.02788 0.0
H989 H 0.40419 0.52461 0.03129 0.0
C990 C 0.1507 0.49606 0.60232 0.0
C991 C 0.16501 0.49295 0.60759 0.0
N992 N 0.15764 0.4753 0.61462 0.0
N993 N 0.13428 0.48047 0.6059 0.0
C994 C 0.13891 0.46801 0.61361 0.0
H995 H 0.15216 0.50875 0.59559 0.0
Co996 Co 0.11197 0.47913 0.59762 0.0
C997 C 0.08363 0.43953 0.59349 0.0
O998 O 0.07811 0.44454 0.57626 0.0
N999 N 0.08941 0.47857 0.58953 0.0
C1000 C 0.0606 0.47395 0.59302 0.0
C1001 C 0.07426 0.47155 0.60238 0.0
C1002 C 0.08458 0.48551 0.57255 0.0
N1003 N 0.06709 0.48275 0.5742 0.0
O1004 O 0.10906 0.48672 0.62595 0.0
H1005 H 0.07318 0.46498 0.61769 0.0
H1006 H 0.09371 0.49293 0.55942 0.0
O1007 O 0.09744 0.4519 0.60449 0.0
C1008 C 0.11468 0.50408 0.62376 0.0
O1009 O 0.12167 0.51189 0.60517 0.0
N1010 N 0.11656 0.47427 0.56969 0.0
C1011 C 0.12773 0.47269 0.52815 0.0
C1012 C 0.12282 0.45783 0.54231 0.0
C1013 C 0.11763 0.45905 0.56324 0.0
C1014 C 0.12296 0.48942 0.55668 0.0
C1015 C 0.12809 0.48878 0.53565 0.0
H1016 H 0.11501 0.44798 0.57427 0.0
H1017 H 0.12432 0.50224 0.56282 0.0
H1018 H 0.12887 0.4537 0.61752 0.0
H1019 H 0.17975 0.50291 0.60621 0.0
H1020 H 0.04688 0.46937 0.59954 0.0
H1021 H 0.12302 0.44541 0.53729 0.0
H1022 H 0.13271 0.5009 0.52549 0.0
C1023 C 0.52896 0.65839 0.58725 0.0
C1024 C 0.53145 0.67546 0.59288 0.0
N1025 N 0.5482 0.6853 0.60246 0.0
N1026 N 0.54399 0.65727 0.59325 0.0
C1027 C 0.55562 0.67396 0.60242 0.0
H1028 H 0.51702 0.64752 0.57891 0.0
Co1029 Co 0.54537 0.63598 0.58742 0.0
C1030 C 0.58479 0.64604 0.58989 0.0
O1031 O 0.58123 0.63489 0.57342 0.0
N1032 N 0.54575 0.61356 0.58171 0.0
C1033 C 0.54838 0.58841 0.58777 0.0
C1034 C 0.55082 0.6048 0.59625 0.0
C1035 C 0.5398 0.60183 0.56469 0.0
N1036 N 0.54138 0.58655 0.5679 0.0
O1037 O 0.53477 0.62592 0.61506 0.0
H1038 H 0.55592 0.61 0.61218 0.0
H1039 H 0.53428 0.60414 0.55015 0.0
O1040 O 0.57165 0.6481 0.59799 0.0
C1041 C 0.51752 0.61521 0.61069 0.0
O1042 O 0.51215 0.61475 0.59076 0.0
N1043 N 0.5533 0.6452 0.55977 0.0
C1044 C 0.55999 0.65662 0.51736 0.0
C1045 C 0.57342 0.66658 0.53305 0.0
C1046 C 0.56963 0.66084 0.55437 0.0
C1047 C 0.5394 0.63687 0.54502 0.0
C1048 C 0.54263 0.64191 0.52357 0.0
H1049 H 0.57968 0.66923 0.56642 0.0
H1050 H 0.52571 0.62609 0.54998 0.0
H1051 H 0.56915 0.67771 0.60896 0.0
H1052 H 0.52181 0.68042 0.58968 0.0
H1053 H 0.55108 0.57843 0.59582 0.0
H1054 H 0.58671 0.67857 0.52887 0.0
H1055 H 0.53158 0.63454 0.51198 0.0
C1056 C 0.36686 0.8763 0.58916 0.0
C1057 C 0.34946 0.86215 0.59447 0.0
N1058 N 0.34067 0.86931 0.60583 0.0
N1059 N 0.36927 0.8925 0.59698 0.0
C1060 C 0.35304 0.88786 0.60708 0.0
H1061 H 0.37707 0.87494 0.57976 0.0
Co1062 Co 0.39128 0.91492 0.59174 0.0
C1063 C 0.38146 0.94453 0.58968 0.0
O1064 O 0.39405 0.95208 0.57451 0.0
N1065 N 0.41422 0.93737 0.58677 0.0
C1066 C 0.43886 0.96536 0.59342 0.0
C1067 C 0.42232 0.95126 0.60135 0.0
C1068 C 0.42649 0.94335 0.57025 0.0
N1069 N 0.44148 0.96035 0.57383 0.0
O1070 O 0.39923 0.9155 0.62078 0.0
H1071 H 0.41643 0.95126 0.61679 0.0
H1072 H 0.42462 0.93574 0.55564 0.0
O1073 O 0.37871 0.92943 0.59876 0.0
C1074 C 0.40731 0.90583 0.62162 0.0
O1075 O 0.40727 0.89673 0.60438 0.0
N1076 N 0.38396 0.9128 0.56297 0.0
C1077 C 0.37258 0.90405 0.52046 0.0
C1078 C 0.36263 0.90888 0.53473 0.0
C1079 C 0.3683 0.91282 0.55602 0.0
C1080 C 0.39289 0.90676 0.54973 0.0
C1081 C 0.38782 0.90285 0.52827 0.0
H1082 H 0.35949 0.91492 0.56699 0.0
H1083 H 0.4039 0.90467 0.55601 0.0
H1084 H 0.35036 0.89784 0.61513 0.0
H1085 H 0.34359 0.84773 0.58977 0.0
H1086 H 0.44832 0.9782 0.60158 0.0
H1087 H 0.35012 0.90894 0.52973 0.0
H1088 H 0.39572 0.8988 0.518 0.0
C1089 C 0.17246 0.48112 0.23069 0.0
C1090 C 0.16885 0.49526 0.22655 0.0
N1091 N 0.15113 0.48772 0.21966 0.0
N1092 N 0.15714 0.46461 0.22643 0.0
C1093 C 0.14431 0.46906 0.21954 0.0
H1094 H 0.18527 0.48273 0.23726 0.0
Co1095 Co 0.15618 0.44223 0.23341 0.0
C1096 C 0.11684 0.41481 0.24174 0.0
O1097 O 0.12312 0.4093 0.25785 0.0
N1098 N 0.15591 0.41967 0.24018 0.0
C1099 C 0.15021 0.39049 0.23632 0.0
C1100 C 0.1481 0.40448 0.22735 0.0
C1101 C 0.16294 0.4145 0.25675 0.0
N1102 N 0.15949 0.39681 0.25491 0.0
O1103 O 0.16105 0.4389 0.20407 0.0
H1104 H 0.14096 0.40349 0.21247 0.0
H1105 H 0.17066 0.42335 0.26993 0.0
O1106 O 0.12845 0.42796 0.22944 0.0
C1107 C 0.17878 0.44734 0.20219 0.0
O1108 O 0.18902 0.45649 0.21879 0.0
N1109 N 0.15377 0.4472 0.26221 0.0
C1110 C 0.1543 0.45655 0.3051 0.0
C1111 C 0.13903 0.45281 0.29201 0.0
C1112 C 0.13927 0.44866 0.27043 0.0
C1113 C 0.16961 0.45317 0.27397 0.0
C1114 C 0.17 0.4573 0.29564 0.0
H1115 H 0.12789 0.4469 0.26038 0.0
H1116 H 0.18195 0.45438 0.2665 0.0
H1117 H 0.13006 0.45888 0.21554 0.0
H1118 H 0.17849 0.50999 0.22871 0.0
H1119 H 0.14493 0.37661 0.2299 0.0
H1120 H 0.1271 0.4533 0.2983 0.0
H1121 H 0.18236 0.46067 0.3049 0.0
C1122 C 0.55624 0.70114 0.21132 0.0
C1123 C 0.54217 0.68389 0.20515 0.0
N1124 N 0.54896 0.67214 0.2046 0.0
N1125 N 0.57198 0.70046 0.2145 0.0
C1126 C 0.5671 0.68251 0.2104 0.0
H1127 H 0.55498 0.71338 0.21364 0.0
Co1128 Co 0.59402 0.72129 0.2237 0.0
C1129 C 0.62351 0.71108 0.22517 0.0
O1130 O 0.63031 0.72226 0.24173 0.0
N1131 N 0.61627 0.74325 0.23272 0.0
C1132 C 0.64399 0.76916 0.22971 0.0
C1133 C 0.6309 0.75328 0.21951 0.0
C1134 C 0.621 0.75349 0.251 0.0
N1135 N 0.63775 0.76922 0.24953 0.0
O1136 O 0.59686 0.73261 0.19587 0.0
H1137 H 0.63196 0.74935 0.20328 0.0
H1138 H 0.61232 0.75005 0.26501 0.0
O1139 O 0.60884 0.70914 0.21567 0.0
C1140 C 0.59185 0.74479 0.19847 0.0
O1141 O 0.58561 0.74604 0.21739 0.0
N1142 N 0.58955 0.71093 0.25113 0.0
C1143 C 0.58079 0.69828 0.29311 0.0
C1144 C 0.58636 0.6892 0.27843 0.0
C1145 C 0.59037 0.69555 0.25738 0.0
C1146 C 0.58225 0.71858 0.26451 0.0
C1147 C 0.57829 0.71288 0.28575 0.0
H1148 H 0.59374 0.68779 0.24622 0.0
H1149 H 0.58007 0.72967 0.25876 0.0
H1150 H 0.57657 0.67713 0.21158 0.0
H1151 H 0.52789 0.68017 0.20183 0.0
H1152 H 0.65711 0.77983 0.22312 0.0
H1153 H 0.58745 0.67719 0.28309 0.0
H1154 H 0.57375 0.72017 0.29634 0.0
C1155 C 0.3245 0.85294 0.22439 0.0
C1156 C 0.34212 0.85633 0.2199 0.0
N1157 N 0.35274 0.87436 0.21423 0.0
N1158 N 0.32374 0.86864 0.22142 0.0
C1159 C 0.34117 0.88151 0.21514 0.0
H1160 H 0.31306 0.83991 0.23009 0.0
Co1161 Co 0.30236 0.8698 0.22805 0.0
C1162 C 0.31425 0.90911 0.2356 0.0
O1163 O 0.3024 0.90305 0.25162 0.0
N1164 N 0.28004 0.87027 0.23431 0.0
C1165 C 0.25592 0.87473 0.22845 0.0
C1166 C 0.2724 0.87711 0.22038 0.0
C1167 C 0.2678 0.86389 0.25087 0.0
N1168 N 0.25314 0.8665 0.24767 0.0
O1169 O 0.29436 0.86458 0.19869 0.0
H1170 H 0.27847 0.88353 0.20519 0.0
H1171 H 0.26913 0.85716 0.26497 0.0
O1172 O 0.3158 0.89736 0.22359 0.0
C1173 C 0.28469 0.84687 0.1972 0.0
O1174 O 0.28287 0.83681 0.21426 0.0
N1175 N 0.30973 0.87264 0.25688 0.0
C1176 C 0.32015 0.87261 0.29922 0.0
C1177 C 0.33138 0.88751 0.28567 0.0
C1178 C 0.32614 0.88705 0.26439 0.0
C1179 C 0.29976 0.85723 0.26927 0.0
C1180 C 0.30433 0.85715 0.29075 0.0
H1181 H 0.33559 0.8981 0.25392 0.0
H1182 H 0.28819 0.84489 0.26237 0.0
H1183 H 0.34544 0.89595 0.2121 0.0
H1184 H 0.34667 0.84618 0.22084 0.0
H1185 H 0.24681 0.87891 0.22091 0.0
H1186 H 0.34407 0.89944 0.29146 0.0
H1187 H 0.2958 0.84501 0.30052 0.0
H1188 H 0.23944 0.25527 0.31703 0.0
H1189 H 0.2398 0.2507 0.27851 0.0
H1190 H 0.18259 0.20617 0.28097 0.0
H1191 H 0.18248 0.20977 0.31972 0.0
H1192 H 0.20259 0.19663 0.25712 0.0
H1193 H 0.21718 0.26669 0.23227 0.0
H1194 H 0.23457 0.26814 0.25056 0.0
H1195 H 0.21077 0.25831 0.25935 0.0
C1196 C 0.22699 0.24437 0.30944 0.0
C1197 C 0.2109 0.23297 0.32149 0.0
C1198 C 0.22711 0.242 0.28735 0.0
C1199 C 0.21106 0.22844 0.27681 0.0
C1200 C 0.19505 0.21689 0.28877 0.0
H1201 H 0.2099 0.22682 0.13644 0.0
H1202 H 0.20158 0.22847 0.17376 0.0
C1203 C 0.19498 0.21908 0.31091 0.0
C1204 C 0.2113 0.22573 0.25345 0.0
H1205 H 0.22307 0.24906 0.20589 0.0
C1206 C 0.20682 0.20804 0.24587 0.0
C1207 C 0.21637 0.2405 0.23874 0.0
C1208 C 0.21978 0.25941 0.24564 0.0
C1209 C 0.20817 0.20492 0.22408 0.0
C1210 C 0.21475 0.22006 0.20964 0.0
C1211 C 0.21831 0.23753 0.21705 0.0
C1212 C 0.21904 0.21836 0.18709 0.0
C1213 C 0.20258 0.18544 0.21681 0.0
C1214 C 0.23177 0.21238 0.18231 0.0
C1215 C 0.23637 0.21128 0.16114 0.0
C1216 C 0.22861 0.21649 0.14438 0.0
C1217 C 0.21609 0.22277 0.14913 0.0
C1218 C 0.21131 0.22366 0.17037 0.0
H1219 H 0.19201 0.17482 0.22771 0.0
H1220 H 0.19681 0.18273 0.2003 0.0
H1221 H 0.215 0.18365 0.21706 0.0
H1222 H 0.23839 0.20884 0.195 0.0
H1223 H 0.24633 0.20673 0.15788 0.0
H1224 H 0.84054 0.01801 0.15443 0.0
H1225 H 0.84017 1.00703 0.19095 0.0
H1226 H 0.78506 0.9991 0.20029 0.0
H1227 H 0.78535 0.01011 0.16397 0.0
H1228 H 0.83695 0.02377 0.22752 0.0
H1229 H 0.77962 0.95064 0.22326 0.0
H1230 H 0.79092 0.96421 0.19965 0.0
H1231 H 0.77276 0.96646 0.21269 0.0
C1232 C 0.82831 0.01382 0.16426 0.0
C1233 C 0.81297 0.01493 0.1564 0.0
C1234 C 0.82809 1.00745 0.18501 0.0
C1235 C 0.81247 1.00198 0.19812 0.0
C1236 C 0.79703 1.00278 0.19019 0.0
H1237 H 0.77652 0.98969 0.3243 0.0
H1238 H 0.78339 0.99364 0.28601 0.0
C1239 C 0.79724 1.00912 0.16947 0.0
C1240 C 0.81282 0.99708 0.22074 0.0
H1241 H 0.78676 0.96477 0.2585 0.0
C1242 C 0.82627 0.01069 0.23428 0.0
C1243 C 0.79893 0.97997 0.2294 0.0
C1244 C 0.78486 0.96441 0.21543 0.0
C1245 C 0.82534 1.00815 0.25652 0.0
C1246 C 0.81068 0.99158 0.26522 0.0
C1247 C 0.7979 0.97751 0.25163 0.0
C1248 C 0.80711 0.98947 0.28838 0.0
C1249 C 0.83929 0.02359 0.2707 0.0
C1250 C 0.81831 0.98592 0.30221 0.0
C1251 C 0.81447 0.98372 0.32413 0.0
C1252 C 0.79942 0.98512 0.3324 0.0
C1253 C 0.78837 0.98882 0.31842 0.0
C1254 C 0.79216 0.99092 0.29657 0.0
H1255 H 0.84927 0.03605 0.2614 0.0
H1256 H 0.83192 0.02777 0.28233 0.0
H1257 H 0.8473 0.0185 0.28 0.0
H1258 H 0.82989 0.98472 0.29602 0.0
H1259 H 0.82327 0.98098 0.3346 0.0
H1260 H 0.03137 0.84447 0.33764 0.0
H1261 H 0.02281 0.84664 0.30065 0.0
H1262 H 1.00412 0.78837 0.29124 0.0
H1263 H 1.01317 0.78614 0.32781 0.0
H1264 H 0.03837 0.83691 0.26401 0.0
H1265 H 0.96109 0.79608 0.26728 0.0
H1266 H 0.9754 0.8066 0.29072 0.0
H1267 H 0.97254 0.78513 0.28022 0.0
C1268 C 0.02543 0.83211 0.32772 0.0
C1269 C 0.02304 0.81514 0.33568 0.0
C1270 C 0.02042 0.83336 0.30668 0.0
C1271 C 1.01266 0.81762 0.29342 0.0
C1272 C 1.00976 0.80058 0.30144 0.0
H1273 H 1.00542 0.78598 0.16612 0.0
H1274 H 1.01157 0.79433 0.20387 0.0
C1275 C 0.01492 0.79933 0.32237 0.0
C1276 C 1.00911 0.81917 0.27059 0.0
H1277 H 0.97505 0.80038 0.23252 0.0
C1278 C 0.0245 0.82928 0.25712 0.0
C1279 C 0.99099 0.80925 0.26179 0.0
C1280 C 0.97401 0.79877 0.27575 0.0
C1281 C 0.02231 0.82871 0.23484 0.0
C1282 C 1.00434 0.81782 0.226 0.0
C1283 C 0.98882 0.80867 0.23949 0.0
C1284 C 1.00167 0.81402 0.20288 0.0
C1285 C 0.03925 0.83903 0.22077 0.0
C1286 C 0.99417 0.82248 0.18997 0.0
C1287 C 0.99091 0.81798 0.16823 0.0
C1288 C 0.99489 0.80477 0.15922 0.0
C1289 C 1.00254 0.79647 0.17236 0.0
C1290 C 1.00595 0.80111 0.19396 0.0
H1291 H 0.05159 0.84942 0.22996 0.0
H1292 H 0.04267 0.8289 0.21344 0.0
H1293 H 0.03638 0.84625 0.20758 0.0
H1294 H 0.99079 0.83247 0.19673 0.0
H1295 H 0.98525 0.82482 0.15853 0.0
H1296 H 0.81434 0.81943 0.65131 0.0
H1297 H 0.81255 0.82541 0.68939 0.0
H1298 H 0.82801 0.78432 0.70589 0.0
H1299 H 0.8303 0.7787 0.66787 0.0
H1300 H 0.78901 0.80118 0.71728 0.0
H1301 H 0.86084 0.82575 0.74593 0.0
H1302 H 0.8551 0.8242 0.71783 0.0
H1303 H 0.85138 0.80382 0.73234 0.0
C1304 C 0.81759 0.81189 0.66312 0.0
C1305 C 0.82246 0.79863 0.65676 0.0
C1306 C 0.81662 0.81533 0.6848 0.0
C1307 C 0.8204 0.8055 0.70046 0.0
C1308 C 0.82556 0.79245 0.6941 0.0
H1309 H 0.77358 0.7795 0.82712 0.0
H1310 H 0.78174 0.77956 0.78958 0.0
C1311 C 0.82676 0.78918 0.67241 0.0
C1312 C 0.81725 0.8076 0.72333 0.0
H1313 H 0.83702 0.81507 0.77295 0.0
C1314 C 0.79959 0.80444 0.72942 0.0
C1315 C 0.83112 0.81206 0.73912 0.0
C1316 C 0.85073 0.81685 0.73345 0.0
C1317 C 0.79524 0.8051 0.75093 0.0
C1318 C 0.80875 0.80845 0.76682 0.0
C1319 C 0.8266 0.8122 0.76073 0.0
C1320 C 0.80455 0.80807 0.78986 0.0
C1321 C 0.77627 0.80236 0.75637 0.0
C1322 C 0.81521 0.82379 0.80265 0.0
C1323 C 0.81085 0.82367 0.82424 0.0
C1324 C 0.7957 0.80781 0.8334 0.0
C1325 C 0.78538 0.79191 0.82062 0.0
C1326 C 0.78986 0.792 0.79909 0.0
H1327 H 0.76997 0.80563 0.74251 0.0
H1328 H 0.76682 0.78757 0.76077 0.0
H1329 H 0.77705 0.81123 0.7701 0.0
H1330 H 0.82674 0.83625 0.79584 0.0
H1331 H 0.81935 0.836 0.83374 0.0
H1332 H 0.19203 0.98441 0.82833 0.0
H1333 H 0.19441 0.99043 0.78971 0.0
H1334 H 0.24719 0.99188 0.78851 0.0
H1335 H 0.2448 0.98558 0.82702 0.0
H1336 H 0.22508 0.02239 0.76878 0.0
H1337 H 0.2154 0.95456 0.74019 0.0
H1338 H 0.20828 0.95756 0.76653 0.0
H1339 H 0.23242 0.96569 0.76106 0.0
C1340 C 0.20402 0.98579 0.81976 0.0
C1341 C 0.21821 0.98448 0.8306 0.0
C1342 C 0.20538 0.98929 0.7978 0.0
C1343 C 0.22084 0.99133 0.78636 0.0
C1344 C 0.23503 0.99006 0.7971 0.0
H1345 H 0.2616 0.01792 0.65722 0.0
H1346 H 0.25573 1.00864 0.6949 0.0
C1347 C 0.23373 0.98665 0.81907 0.0
C1348 C 0.22255 0.99557 0.76331 0.0
H1349 H 0.22497 0.97868 0.71439 0.0
C1350 C 0.22492 0.01282 0.75682 0.0
C1351 C 0.22239 0.98301 0.74793 0.0
C1352 C 0.21934 0.96409 0.75417 0.0
C1353 C 0.22764 0.01809 0.73523 0.0
C1354 C 0.22756 1.00555 0.71981 0.0
C1355 C 0.225 0.98821 0.72631 0.0
C1356 C 0.23055 0.01037 0.69688 0.0
C1357 C 0.23116 0.03723 0.72921 0.0
C1358 C 0.21809 0.01401 0.68552 0.0
C1359 C 0.22143 0.01934 0.66407 0.0
C1360 C 0.23718 0.02092 0.65363 0.0
C1361 C 0.24931 0.01671 0.66488 0.0
C1362 C 0.24601 0.01147 0.68636 0.0
H1363 H 0.23538 0.04669 0.74328 0.0
H1364 H 0.24221 0.04366 0.71682 0.0
H1365 H 0.21818 0.03603 0.72254 0.0
H1366 H 0.20584 0.01279 0.69328 0.0
H1367 H 0.21167 0.02218 0.65564 0.0
H1368 H 0.99598 0.2202 0.65907 0.0
H1369 H 0.999 0.21536 0.69711 0.0
H1370 H 0.98261 0.15798 0.68475 0.0
H1371 H 0.9799 0.16278 0.64642 0.0
H1372 H 0.96885 0.18634 0.72436 0.0
H1373 H 0.03365 0.18165 0.71897 0.0
H1374 H 0.02727 0.19259 0.69817 0.0
H1375 H 1.01449 0.16776 0.70117 0.0
C1376 C 0.99328 0.20662 0.66437 0.0
C1377 C 0.9878 0.19189 0.64978 0.0
C1378 C 0.99482 0.20384 0.6861 0.0
C1379 C 0.991 0.18633 0.69361 0.0
C1380 C 0.98565 0.17159 0.67915 0.0
H1381 H 0.9971 0.17943 0.83497 0.0
H1382 H 0.98574 0.16781 0.79863 0.0
C1383 C 0.98404 0.17434 0.65735 0.0
C1384 C 0.99286 0.18388 0.71666 0.0
H1385 H 0.02356 0.18416 0.75326 0.0
C1386 C 0.98052 0.18538 0.73079 0.0
C1387 C 1.00811 0.18261 0.72479 0.0
C1388 C 0.02175 0.18111 0.7101 0.0
C1389 C 0.98374 0.18686 0.75293 0.0
C1390 C 0.99966 0.1868 0.76093 0.0
C1391 C 1.01131 0.18407 0.74693 0.0
C1392 C 1.00632 0.19302 0.7829 0.0
C1393 C 0.97097 0.1899 0.76748 0.0
C1394 C 0.02154 0.21095 0.78585 0.0
C1395 C 0.0279 0.21764 0.80635 0.0
C1396 C 0.01925 0.20645 0.82437 0.0
C1397 C 1.00394 0.18841 0.82139 0.0
C1398 C 0.99751 0.18172 0.80073 0.0
H1399 H 0.95944 0.19008 0.75857 0.0
H1400 H 0.96485 0.17863 0.77963 0.0
H1401 H 0.97905 0.20332 0.77616 0.0
H1402 H 0.02835 0.21991 0.77222 0.0
H1403 H 0.03945 0.23173 0.80809 0.0
H1404 H 0.84411 0.53125 0.66739 0.0
H1405 H 0.84245 0.52016 0.63067 0.0
H1406 H 0.9019 0.5557 0.62423 0.0
H1407 H 0.90368 0.56736 0.6605 0.0
H1408 H 0.85583 0.54527 0.59351 0.0
H1409 H 0.89036 0.50296 0.60262 0.0
H1410 H 0.87975 0.50825 0.62479 0.0
H1411 H 0.90244 0.5254 0.61537 0.0
C1412 C 0.85683 0.53675 0.65815 0.0
C1413 C 0.87404 0.55025 0.66687 0.0
C1414 C 0.85586 0.53027 0.63728 0.0
C1415 C 0.87209 0.53695 0.62498 0.0
C1416 C 0.88929 0.55012 0.63372 0.0
H1417 H 0.90873 0.55962 0.49918 0.0
H1418 H 0.89854 0.558 0.53612 0.0
C1419 C 0.89027 0.55673 0.65446 0.0
C1420 C 0.87109 0.53151 0.60237 0.0
H1421 H 0.88916 0.51338 0.56704 0.0
C1422 C 0.86274 0.53793 0.5877 0.0
C1423 C 0.88001 0.52183 0.59498 0.0
C1424 C 0.88852 0.51404 0.61026 0.0
C1425 C 0.86421 0.53603 0.56562 0.0
C1426 C 0.87429 0.52754 0.55821 0.0
C1427 C 0.88153 0.51997 0.57288 0.0
C1428 C 0.87928 0.52831 0.53549 0.0
C1429 C 0.85568 0.54377 0.55031 0.0
C1430 C 0.87182 0.51208 0.52307 0.0
C1431 C 0.87741 0.51297 0.5018 0.0
C1432 C 0.89076 0.53008 0.49279 0.0
C1433 C 0.89816 0.54628 0.50543 0.0
C1434 C 0.89243 0.54539 0.52656 0.0
H1435 H 0.84483 0.54584 0.55821 0.0
H1436 H 0.86675 0.55747 0.54425 0.0
H1437 H 0.84938 0.53436 0.53634 0.0
H1438 H 0.8617 0.49877 0.52985 0.0
H1439 H 0.87124 0.50027 0.49243 0.0
H1440 H 0.51079 0.36678 0.49044 0.0
H1441 H 0.5115 0.35884 0.52806 0.0
H1442 H 0.45413 0.34467 0.53517 0.0
H1443 H 0.4534 0.35321 0.49786 0.0
H1444 H 0.49947 0.37618 0.56502 0.0
H1445 H 0.46103 0.29883 0.55805 0.0
H1446 H 0.47401 0.31396 0.53605 0.0
H1447 H 0.45185 0.31123 0.54341 0.0
C1448 C 0.49835 0.36211 0.50003 0.0
C1449 C 0.48205 0.36072 0.49117 0.0
C1450 C 0.49877 0.35746 0.52142 0.0
C1451 C 0.48284 0.35111 0.53416 0.0
C1452 C 0.46648 0.34938 0.52538 0.0
H1453 H 0.45063 0.3383 0.66349 0.0
H1454 H 0.45878 0.34708 0.62609 0.0
C1455 C 0.46608 0.35418 0.50407 0.0
C1456 C 0.48341 0.34706 0.55697 0.0
H1457 H 0.46577 0.3115 0.59313 0.0
C1458 C 0.49235 0.36206 0.57122 0.0
C1459 C 0.47418 0.32861 0.56477 0.0
C1460 C 0.46479 0.31215 0.54983 0.0
C1461 C 0.49154 0.35905 0.59337 0.0
C1462 C 0.48156 0.34064 0.60123 0.0
C1463 C 0.47338 0.3256 0.58692 0.0
C1464 C 0.47811 0.33676 0.62426 0.0
C1465 C 0.50092 0.37553 0.60828 0.0
C1466 C 0.48641 0.32814 0.63547 0.0
C1467 C 0.482 0.32332 0.65696 0.0
C1468 C 0.469 0.32682 0.66743 0.0
C1469 C 0.46093 0.3357 0.65608 0.0
C1470 C 0.46549 0.34066 0.63469 0.0
H1471 H 0.51111 0.3884 0.59974 0.0
H1472 H 0.49019 0.37807 0.61563 0.0
H1473 H 0.5082 0.37268 0.62141 0.0
H1474 H 0.49616 0.32502 0.62753 0.0
H1475 H 0.48869 0.31677 0.66532 0.0
H1476 H 0.68887 0.11531 0.65783 0.0
H1477 H 0.68108 0.11547 0.62008 0.0
H1478 H 0.6951 0.1729 0.62545 0.0
H1479 H 0.70241 0.17279 0.66344 0.0
H1480 H 0.65462 0.12849 0.60083 0.0
H1481 H 0.72942 0.16751 0.57655 0.0
H1482 H 0.72188 0.15393 0.60089 0.0
H1483 H 0.72209 0.17563 0.5993 0.0
C1484 C 0.68995 0.12788 0.65113 0.0
C1485 C 0.69637 0.14408 0.6636 0.0
C1486 C 0.68559 0.12795 0.62957 0.0
C1487 C 0.6877 0.14423 0.62013 0.0
C1488 C 0.69357 0.16028 0.63255 0.0
H1489 H 0.65766 0.1537 0.48815 0.0
H1490 H 0.66469 0.15952 0.52643 0.0
C1491 C 0.69784 0.1602 0.65417 0.0
C1492 C 0.68439 0.14452 0.59703 0.0
H1493 H 0.70698 0.15788 0.54908 0.0
C1494 C 0.666 0.13508 0.58947 0.0
C1495 C 0.69938 0.15307 0.58246 0.0
C1496 C 0.71936 0.16308 0.59005 0.0
C1497 C 0.6622 0.13373 0.56747 0.0
C1498 C 0.6772 0.14202 0.55288 0.0
C1499 C 0.69558 0.15169 0.56045 0.0
C1500 C 0.67403 0.13949 0.52966 0.0
C1501 C 0.64226 0.12297 0.55983 0.0
C1502 C 0.67731 0.12656 0.51897 0.0
C1503 C 0.67313 0.12303 0.49725 0.0
C1504 C 0.66572 0.13251 0.48585 0.0
C1505 C 0.66305 0.14595 0.49655 0.0
C1506 C 0.66714 0.14938 0.51834 0.0
H1507 H 0.63229 0.11614 0.57321 0.0
H1508 H 0.63861 0.13255 0.55149 0.0
H1509 H 0.64059 0.11213 0.54815 0.0
H1510 H 0.68259 0.1188 0.52759 0.0
H1511 H 0.6751 0.11241 0.48961 0.0
H1512 H 0.43155 0.10664 0.16172 0.0
H1513 H 0.43687 0.10286 0.12413 0.0
H1514 H 0.47943 0.16083 0.12085 0.0
H1515 H 0.47502 0.1645 0.15881 0.0
H1516 H 0.4324 0.11987 0.08987 0.0
H1517 H 0.50582 0.13577 0.09481 0.0
H1518 H 0.49153 0.13155 0.11824 0.0
H1519 H 0.50232 0.15394 0.1053 0.0
C1520 C 0.44233 0.11851 0.15315 0.0
C1521 C 0.45293 0.13585 0.16332 0.0
C1522 C 0.44522 0.11636 0.13162 0.0
C1523 C 0.4587 0.13151 0.11982 0.0
C1524 C 0.46922 0.14887 0.12981 0.0
H1525 H 0.46136 0.13368 0.98026 0.0
H1526 H 0.45787 0.1394 0.01801 0.0
C1527 C 0.46648 0.151 0.15143 0.0
C1528 C 0.46122 0.12917 0.09687 0.0
H1529 H 0.49325 0.13306 0.05993 0.0
C1530 C 0.44568 0.1227 0.0833 0.0
C1531 C 0.47854 0.13272 0.08847 0.0
C1532 C 0.49546 0.1387 0.10249 0.0
C1533 C 0.44697 0.11962 0.06148 0.0
C1534 C 0.4644 0.12365 0.05297 0.0
C1535 C 0.47995 0.13015 0.06653 0.0
C1536 C 0.46669 0.12053 0.03018 0.0
C1537 C 0.42953 0.11159 0.04794 0.0
C1538 C 0.47331 0.10848 0.02462 0.0
C1539 C 0.47556 0.10542 0.00317 0.0
C1540 C 0.47112 0.11431 0.98696 0.0
C1541 C 0.46458 0.12646 0.99252 0.0
C1542 C 0.46255 0.12968 0.01401 0.0
H1543 H 0.41672 0.10464 0.05789 0.0
H1544 H 0.42927 0.12301 0.03893 0.0
H1545 H 0.42916 0.10134 0.03622 0.0
H1546 H 0.4766 0.10132 0.03689 0.0
H1547 H 0.48053 0.09592 -0.00076 0.0
H1548 H 0.90076 0.35441 0.17582 0.0
H1549 H 0.9028 0.36539 0.13897 0.0
H1550 H 0.88259 0.30947 0.11569 0.0
H1551 H 0.88015 0.29838 0.15252 0.0
H1552 H 0.92338 0.36494 0.10642 0.0
H1553 H 0.84874 0.32355 0.08468 0.0
H1554 H 0.85682 0.32581 0.11196 0.0
H1555 H 0.85764 0.30909 0.09423 0.0
C1556 C 0.89678 0.3445 0.1628 0.0
C1557 C 0.89027 0.32556 0.16691 0.0
C1558 C 0.89786 0.35075 0.14182 0.0
C1559 C 0.8925 0.33818 0.12466 0.0
C1560 C 0.88627 0.31931 0.12874 0.0
H1561 H 0.92736 0.3605 0.99394 0.0
H1562 H 0.92324 0.35341 0.0321 0.0
C1563 C 0.885 0.31301 0.14973 0.0
C1564 C 0.89421 0.34492 0.10241 0.0
H1565 H 0.87028 0.33687 0.05548 0.0
C1566 C 0.91173 0.35896 0.09533 0.0
C1567 C 0.8789 0.33736 0.08812 0.0
C1568 C 0.85943 0.32327 0.0952 0.0
C1569 C 0.91453 0.36514 0.07406 0.0
C1570 C 0.89952 0.35665 0.05942 0.0
C1571 C 0.88183 0.34316 0.0667 0.0
C1572 C 0.90201 0.3611 0.03633 0.0
C1573 C 0.93352 0.38073 0.06754 0.0
C1574 C 0.89097 0.36715 0.02592 0.0
C1575 C 0.89297 0.3708 0.00397 0.0
C1576 C 0.90606 0.36845 0.99207 0.0
C1577 C 0.91703 0.3623 0.00259 0.0
C1578 C 0.91491 0.35851 0.02447 0.0
H1579 H 0.94128 0.38957 0.08147 0.0
H1580 H 0.9418 0.37469 0.06097 0.0
H1581 H 0.93244 0.38971 0.05507 0.0
H1582 H 0.88078 0.36902 0.03479 0.0
H1583 H 0.88407 0.3752 -0.00371 0.0
H1584 H 0.66156 0.57849 0.99389 0.0
H1585 H 0.67089 0.58308 0.03165 0.0
H1586 H 0.66998 0.53057 0.03193 0.0
H1587 H 0.66104 0.52605 0.99411 0.0
H1588 H 0.6509 0.55818 0.06668 0.0
H1589 H 0.72228 0.569 0.05566 0.0
H1590 H 0.70905 0.5712 0.03396 0.0
H1591 H 0.70386 0.54854 0.04308 0.0
C1592 C 0.66353 0.56802 0.00197 0.0
C1593 C 0.66062 0.55194 0.9911 0.0
C1594 C 0.66875 0.57062 0.02349 0.0
C1595 C 0.67129 0.55725 0.03437 0.0
C1596 C 0.6683 0.54113 0.02364 0.0
H1597 H 0.70246 0.54627 0.16326 0.0
H1598 H 0.6933 0.54211 0.12551 0.0
C1599 C 0.66302 0.53849 0.00214 0.0
C1600 C 0.67672 0.55998 0.05712 0.0
H1601 H 0.71152 0.56629 0.09132 0.0
C1602 C 0.66417 0.56005 0.07212 0.0
C1603 C 0.69402 0.56233 0.064 0.0
C1604 C 0.70818 0.56293 0.04836 0.0
C1605 C 0.66836 0.56208 0.09404 0.0
C1606 C 0.6857 0.56447 0.10094 0.0
C1607 C 0.69825 0.56444 0.08591 0.0
C1608 C 0.6911 0.56703 0.12372 0.0
C1609 C 0.65406 0.56124 0.10965 0.0
C1610 C 0.69309 0.58253 0.13502 0.0
C1611 C 0.69833 0.58496 0.15653 0.0
C1612 C 0.70185 0.572 0.16699 0.0
C1613 C 0.70003 0.55658 0.15554 0.0
C1614 C 0.69473 0.55414 0.13405 0.0
H1615 H 0.6399 0.55462 0.10242 0.0
H1616 H 0.65353 0.55335 0.12427 0.0
H1617 H 0.65792 0.5756 0.11452 0.0
H1618 H 0.69074 0.59284 0.12715 0.0
H1619 H 0.6999 0.59711 0.16491 0.0
H1620 H 0.51805 0.86481 0.00235 0.0
H1621 H 0.51815 0.85796 0.96411 0.0
H1622 H 0.57226 0.90706 0.95732 0.0
H1623 H 0.57218 0.91416 -0.00474 0.0
H1624 H 0.54159 0.90165 0.92687 0.0
H1625 H 0.55386 0.84147 0.93372 0.0
H1626 H 0.53638 0.84199 0.9504 0.0
H1627 H 0.5605 0.8586 0.95477 0.0
C1628 C 0.52995 0.87411 0.99267 0.0
C1629 C 0.54514 0.88998 0.00174 0.0
C1630 C 0.53003 0.87012 0.97095 0.0
C1631 C 0.54526 0.88198 0.95811 0.0
C1632 C 0.56044 0.89774 0.96712 0.0
H1633 H 0.58808 0.90233 0.8322 0.0
H1634 H 0.5792 0.90287 0.86935 0.0
C1635 C 0.56042 0.90169 0.98878 0.0
C1636 C 0.54533 0.87848 0.93504 0.0
H1637 H 0.55331 0.85233 0.89907 0.0
C1638 C 0.54393 0.89075 0.92072 0.0
C1639 C 0.54822 0.86413 0.92725 0.0
C1640 C 0.54991 0.85076 0.94223 0.0
C1641 C 0.54594 0.8894 0.89865 0.0
C1642 C 0.54985 0.87569 0.8909 0.0
C1643 C 0.55039 0.86287 0.90516 0.0
C1644 C 0.55479 0.87533 0.86831 0.0
C1645 C 0.5441 0.90281 0.88387 0.0
C1646 C 0.54423 0.85948 0.85567 0.0
C1647 C 0.54931 0.85911 0.83445 0.0
C1648 C 0.56508 0.87458 0.82564 0.0
C1649 C 0.57568 0.89036 0.83845 0.0
C1650 C 0.57062 0.89069 0.85963 0.0
H1651 H 0.53557 0.90828 0.89121 0.0
H1652 H 0.55815 0.91485 0.88058 0.0
H1653 H 0.53766 0.89608 0.86837 0.0
H1654 H 0.53204 0.84746 0.86221 0.0
H1655 H 0.54079 0.84683 0.82487 0.0
H1656 H 0.11531 0.66908 0.99358 0.0
H1657 H 0.12428 0.67628 0.95611 0.0
H1658 H 0.16736 0.66207 0.96494 0.0
H1659 H 0.15915 0.65578 0.00282 0.0
H1660 H 0.179 0.69306 0.94014 0.0
H1661 H 0.11099 0.63612 0.91137 0.0
H1662 H 0.10838 0.65192 0.9287 0.0
H1663 H 0.11809 0.63829 0.93904 0.0
C1664 C 0.12693 0.66781 0.98771 0.0
C1665 C 0.13639 0.66166 0.00116 0.0
C1666 C 0.13186 0.67168 0.96621 0.0
C1667 C 0.14613 0.6692 0.95768 0.0
C1668 C 0.15613 0.66381 0.9712 0.0
H1669 H 0.15257 0.66632 0.81841 0.0
H1670 H 0.15223 0.65805 0.85616 0.0
C1671 C 0.15131 0.66009 0.99278 0.0
C1672 C 0.15039 0.67203 0.93458 0.0
H1673 H 0.13005 0.65904 0.88541 0.0
C1674 C 0.16839 0.68549 0.92812 0.0
C1675 C 0.13666 0.66176 0.91896 0.0
C1676 C 0.11751 0.64607 0.92485 0.0
C1677 C 0.17275 0.68964 0.90639 0.0
C1678 C 0.15858 0.68038 0.89088 0.0
C1679 C 0.14086 0.66627 0.89733 0.0
C1680 C 0.1613 0.68585 0.86806 0.0
C1681 C 0.19245 0.70391 0.90033 0.0
C1682 C 0.16667 0.70422 0.86226 0.0
C1683 C 0.16703 0.70897 0.84078 0.0
C1684 C 0.16167 0.69534 0.82477 0.0
C1685 C 0.15666 0.67704 0.83051 0.0
C1686 C 0.15653 0.67234 0.852 0.0
H1687 H 0.20259 0.7045 0.91241 0.0
H1688 H 0.19628 0.70085 0.88442 0.0
H1689 H 0.19372 0.71789 0.8997 0.0
H1690 H 0.16983 0.71474 0.87438 0.0
H1691 H 0.17066 0.72312 0.83677 0.0
H1692 H 0.38274 0.52924 0.00874 0.0
H1693 H 0.37975 0.53512 0.97079 0.0
H1694 H 0.36762 0.47947 0.95515 0.0
H1695 H 0.37091 0.47359 0.99276 0.0
H1696 H 0.39678 0.51111 0.92913 0.0
H1697 H 0.32857 0.50899 0.9363 0.0
H1698 H 0.34727 0.52313 0.95453 0.0
H1699 H 0.336 0.49824 0.95619 0.0
C1700 C 0.37948 0.51829 -0.00283 0.0
C1701 C 0.37696 0.50091 0.00369 0.0
C1702 C 0.37773 0.52167 0.97559 0.0
C1703 C 0.37349 0.50771 0.96033 0.0
C1704 C 0.37094 0.49039 0.96679 0.0
H1705 H 0.32653 0.45904 0.84841 0.0
H1706 H 0.33784 0.47248 0.88366 0.0
C1707 C 0.37262 0.48699 0.98828 0.0
C1708 C 0.37138 0.5107 0.93751 0.0
H1709 H 0.33865 0.50714 0.90175 0.0
C1710 C 0.38438 0.51084 0.92303 0.0
C1711 C 0.35516 0.51034 0.92982 0.0
C1712 C 0.34085 0.51013 0.9449 0.0
C1713 C 0.38084 0.50915 0.90096 0.0
C1714 C 0.36393 0.50731 0.89341 0.0
C1715 C 0.35164 0.50866 0.90774 0.0
C1716 C 0.35704 0.50009 0.87179 0.0
C1717 C 0.39437 0.5077 0.88601 0.0
C1718 C 0.36421 0.51126 0.85351 0.0
C1719 C 0.35766 0.50362 0.8332 0.0
C1720 C 0.34387 0.48475 0.83105 0.0
C1721 C 0.33687 0.4737 0.84952 0.0
C1722 C 0.34334 0.48132 0.86967 0.0
H1723 H 0.40694 0.50945 0.8945 0.0
H1724 H 0.3874 0.4939 0.87796 0.0
H1725 H 0.39884 0.51853 0.87339 0.0
H1726 H 0.37482 0.5258 0.85497 0.0
H1727 H 0.36319 0.5125 0.81925 0.0
H1728 H 0.18264 0.48132 0.33116 0.0
H1729 H 0.1818 0.48446 0.37001 0.0
H1730 H 0.12366 0.44212 0.37049 0.0
H1731 H 0.1246 0.43814 0.33195 0.0
H1732 H 0.16151 0.49461 0.39404 0.0
H1733 H 0.14451 0.42318 0.41613 0.0
H1734 H 0.15204 0.43251 0.38957 0.0
H1735 H 0.12803 0.42297 0.39732 0.0
C1736 C 0.16974 0.47247 0.33957 0.0
C1737 C 0.15372 0.45937 0.32846 0.0
C1738 C 0.16927 0.47437 0.36174 0.0
C1739 C 0.15278 0.46322 0.37315 0.0
C1740 C 0.13666 0.4505 0.36205 0.0
H1741 H 0.1154 0.48192 0.49246 0.0
H1742 H 0.12378 0.48058 0.45529 0.0
C1743 C 0.13715 0.44847 0.33995 0.0
C1744 C 0.15215 0.46529 0.39657 0.0
H1745 H 0.13866 0.44041 0.44305 0.0
C1746 C 0.15676 0.48282 0.40482 0.0
C1747 C 0.14636 0.44999 0.41064 0.0
C1748 C 0.14266 0.43116 0.40299 0.0
C1749 C 0.15482 0.48526 0.42667 0.0
C1750 C 0.1476 0.46963 0.44045 0.0
C1751 C 0.14392 0.45231 0.43239 0.0
C1752 C 0.14288 0.4707 0.463 0.0
C1753 C 0.16046 0.50454 0.43473 0.0
C1754 C 0.15031 0.46494 0.47958 0.0
C1755 C 0.1453 0.46542 0.50082 0.0
C1756 C 0.13283 0.47172 0.50574 0.0
C1757 C 0.12528 0.47731 0.48909 0.0
C1758 C 0.13014 0.47665 0.4679 0.0
H1759 H 0.17126 0.51545 0.42429 0.0
H1760 H 0.14812 0.50646 0.43457 0.0
H1761 H 0.16595 0.50667 0.45135 0.0
H1762 H 0.16004 0.46015 0.47609 0.0
H1763 H 0.15138 0.46115 0.51341 0.0
H1764 H 0.55541 0.63331 0.48466 0.0
H1765 H 0.56011 0.64071 0.44646 0.0
H1766 H 0.57687 0.69799 0.46054 0.0
H1767 H 0.57276 0.69071 0.49891 0.0
H1768 H 0.54216 0.65274 0.42184 0.0
H1769 H 0.6178 0.70432 0.42076 0.0
H1770 H 0.60641 0.68991 0.44376 0.0
H1771 H 0.60492 0.71053 0.43877 0.0
C1772 C 0.56028 0.6475 0.47954 0.0
C1773 C 0.5638 0.66148 0.49455 0.0
C1774 C 0.56295 0.65171 0.4578 0.0
C1775 C 0.56904 0.66993 0.45072 0.0
C1776 C 0.57262 0.68395 0.46573 0.0
H1777 H 0.55429 0.69695 0.32057 0.0
H1778 H 0.55137 0.69016 0.35883 0.0
C1779 C 0.5702 0.67979 0.48756 0.0
C1780 C 0.5707 0.67391 0.42753 0.0
H1781 H 0.60088 0.70142 0.38879 0.0
C1782 C 0.55502 0.66332 0.41457 0.0
C1783 C 0.58756 0.68757 0.41813 0.0
C1784 C 0.60518 0.6986 0.43104 0.0
C1785 C 0.55571 0.66606 0.3924 0.0
C1786 C 0.57237 0.68017 0.38309 0.0
C1787 C 0.58808 0.69071 0.39603 0.0
C1788 C 0.57394 0.6841 0.3599 0.0
C1789 C 0.53873 0.6535 0.37915 0.0
C1790 C 0.58792 0.68342 0.34797 0.0
C1791 C 0.58996 0.68778 0.32623 0.0
C1792 C 0.57798 0.69282 0.31599 0.0
C1793 C 0.56387 0.69331 0.32798 0.0
C1794 C 0.562 0.68918 0.3498 0.0
H1795 H 0.52946 0.64021 0.38759 0.0
H1796 H 0.5306 0.66062 0.37616 0.0
H1797 H 0.54271 0.65022 0.36347 0.0
H1798 H 0.59735 0.67964 0.35554 0.0
H1799 H 0.6012 0.68761 0.31759 0.0
H1800 H 0.2972 0.86498 0.33345 0.0
H1801 H 0.30587 0.86891 0.3714 0.0
H1802 H 0.36248 0.88526 0.35427 0.0
H1803 H 0.35397 0.88176 0.3163 0.0
H1804 H 0.3206 0.85325 0.39752 0.0
H1805 H 0.36928 0.92925 0.38949 0.0
H1806 H 0.35333 0.91553 0.36849 0.0
H1807 H 0.37485 0.91546 0.37216 0.0
C1808 C 0.31145 0.86924 0.33785 0.0
C1809 C 0.325 0.87329 0.32205 0.0
C1810 C 0.31638 0.87151 0.35946 0.0
C1811 C 0.33489 0.87776 0.36555 0.0
C1812 C 0.34824 0.88092 0.34983 0.0
H1813 H 0.37232 0.8768 0.49528 0.0
H1814 H 0.36313 0.87016 0.45775 0.0
C1815 C 0.34337 0.87887 0.32821 0.0
C1816 C 0.3403 0.88143 0.38833 0.0
H1817 H 0.36929 0.91558 0.42286 0.0
C1818 C 0.33121 0.86687 0.40312 0.0
C1819 C 0.35392 0.89932 0.39556 0.0
C1820 C 0.36328 0.91584 0.38064 0.0
C1821 C 0.33552 0.86967 0.425 0.0
C1822 C 0.34963 0.88739 0.4321 0.0
C1823 C 0.3586 0.90197 0.41732 0.0
C1824 C 0.35515 0.89128 0.45484 0.0
C1825 C 0.32463 0.85377 0.44033 0.0
C1826 C 0.35429 0.90576 0.4654 0.0
C1827 C 0.36 0.90993 0.48668 0.0
C1828 C 0.36663 0.89965 0.49781 0.0
C1829 C 0.3675 0.88515 0.48713 0.0
C1830 C 0.36196 0.88112 0.46577 0.0
H1831 H 0.31104 0.84321 0.43337 0.0
H1832 H 0.33276 0.84675 0.44387 0.0
H1833 H 0.32197 0.85884 0.45564 0.0
H1834 H 0.34921 0.91388 0.45716 0.0
H1835 H 0.35943 0.92138 0.49431 0.0
H1836 H 0.26999 0.27127 0.04012 0.0
H1837 H 0.2849 0.30559 0.04026 0.0
H1838 H 0.33056 0.30922 0.07737 0.0
H1839 H 0.31609 0.27546 0.07702 0.0
H1840 H 0.29443 0.32919 0.07725 0.0
H1841 H 0.35714 0.34639 0.02926 0.0
H1842 H 0.33677 0.32342 0.02935 0.0
H1843 H 0.3536 0.33053 0.05069 0.0
C1844 C 0.28344 0.27948 0.04778 0.0
C1845 C 0.29194 0.27069 0.05842 0.0
C1846 C 0.29184 0.29904 0.04807 0.0
C1847 C 0.30894 0.31 0.05872 0.0
C1848 C 0.31756 0.30115 0.06878 0.0
H1849 H 0.36327 0.42356 0.11062 0.0
H1850 H 0.34389 0.38952 0.10617 0.0
C1851 C 0.30921 0.28179 0.06858 0.0
C1852 C 0.31773 0.33063 0.06027 0.0
H1853 H 0.35877 0.37081 0.05116 0.0
C1854 C 0.3084 0.33836 0.0713 0.0
C1855 C 0.33595 0.3426 0.05249 0.0
C1856 C 0.34638 0.33534 0.0396 0.0
C1857 C 0.31702 0.35768 0.07522 0.0
C1858 C 0.33555 0.36953 0.06823 0.0
C1859 C 0.34465 0.36177 0.05678 0.0
C1860 C 0.34568 0.39014 0.07151 0.0
C1861 C 0.30612 0.36523 0.08657 0.0
C1862 C 0.35315 0.40182 0.05367 0.0
C1863 C 0.36438 0.42102 0.05622 0.0
C1864 C 0.36842 0.42919 0.07671 0.0
C1865 C 0.36037 0.41767 0.09465 0.0
C1866 C 0.34922 0.39823 0.09208 0.0
H1867 H 0.29087 0.35532 0.08582 0.0
H1868 H 0.31029 0.36757 0.10368 0.0
H1869 H 0.30902 0.37873 0.07954 0.0
H1870 H 0.3506 0.39602 0.03765 0.0
H1871 H 0.37008 0.42946 0.04198 0.0
H1872 H 0.60182 0.92712 0.10455 0.0
H1873 H 0.63559 0.9388 0.10198 0.0
H1874 H 0.64293 0.98784 0.06922 0.0
H1875 H 0.6096 0.97638 0.07166 0.0
H1876 H 0.65855 0.96802 0.0476 0.0
H1877 H 0.68038 0.98371 0.13307 0.0
H1878 H 0.66094 0.96113 0.1266 0.0
H1879 H 0.65875 0.98147 0.12354 0.0
C1880 C 0.61074 0.94059 0.09731 0.0
C1881 C 0.60306 0.95083 0.0883 0.0
C1882 C 0.63 0.94719 0.09572 0.0
C1883 C 0.64175 0.96414 0.08525 0.0
C1884 C 0.63413 0.97467 0.07717 0.0
H1885 H 0.75344 0.04751 0.07988 0.0
H1886 H 0.71984 0.02655 0.08132 0.0
C1887 C 0.61506 0.96812 0.07869 0.0
C1888 C 0.66192 0.97101 0.08183 0.0
H1889 H 0.70401 0.99266 0.10739 0.0
C1890 C 0.66851 0.97309 0.06069 0.0
C1891 C 0.67484 0.97766 0.09892 0.0
C1892 C 0.66852 0.97603 0.12185 0.0
C1893 C 0.68771 0.98242 0.05613 0.0
C1894 C 0.70063 0.9898 0.07317 0.0
C1895 C 0.69404 0.98693 0.09436 0.0
C1896 C 0.72084 1.00257 0.06942 0.0
C1897 C 0.6941 0.98532 0.03314 0.0
C1898 C 0.73257 0.99622 0.0614 0.0
C1899 C 0.75196 1.00835 0.06033 0.0
C1900 C 0.75976 0.02687 0.06744 0.0
C1901 C 0.74782 0.03332 0.07428 0.0
C1902 C 0.72862 0.02132 0.07525 0.0
H1903 H 0.68226 0.98002 0.02169 0.0
H1904 H 0.70363 1.00038 0.03001 0.0
H1905 H 0.702 0.97798 0.0301 0.0
H1906 H 0.72684 0.98175 0.0569 0.0
H1907 H 0.76086 1.00294 0.05534 0.0
H1908 H 0.99904 0.74127 0.11545 0.0
H1909 H 0.01777 0.72624 0.11627 0.0
H1910 H 0.02029 0.7275 0.04726 0.0
H1911 H 1.00155 0.74311 0.04633 0.0
H1912 H 1.00667 0.69221 0.09962 0.0
H1913 H 0.0744 0.74453 0.06426 0.0
H1914 H 0.05738 0.75046 0.07361 0.0
H1915 H 0.05426 0.73907 0.04822 0.0
C1916 C 1.00367 0.73855 0.10036 0.0
C1917 C 0.99859 0.74319 0.08077 0.0
C1918 C 1.01446 0.72998 0.1009 0.0
C1919 C 0.02048 0.72572 0.08188 0.0
C1920 C 0.01603 0.73089 0.06219 0.0
H1921 H 0.04743 0.63928 0.06539 0.0
H1922 H 0.03398 0.6595 0.06672 0.0
C1923 C 1.00527 0.73972 0.06164 0.0
C1924 C 0.02997 0.71449 0.08308 0.0
H1925 H 0.07021 0.71438 0.07109 0.0
C1926 C 0.0206 0.69713 0.09343 0.0
C1927 C 0.04824 0.72099 0.0753 0.0
C1928 C 0.05928 0.73985 0.06488 0.0
C1929 C 0.02882 0.68599 0.09594 0.0
C1930 C 0.04683 0.69218 0.08757 0.0
C1931 C 0.0564 0.70968 0.07753 0.0
C1932 C 0.05517 0.67993 0.0876 0.0
C1933 C 0.01814 0.66764 0.10759 0.0
C1934 C 0.07165 0.68468 0.09896 0.0
C1935 C 0.07942 0.67299 0.09833 0.0
C1936 C 0.07093 0.65656 0.08606 0.0
C1937 C 0.05433 0.65183 0.07502 0.0
C1938 C 0.04657 0.66336 0.07576 0.0
H1939 H 1.00715 0.66732 0.11806 0.0
H1940 H 1.01125 0.65623 0.0957 0.0
H1941 H 0.02761 0.66485 0.11753 0.0
H1942 H 0.07851 0.69746 0.10818 0.0
H1943 H 0.09234 0.6771 0.10679 0.0
H1944 H 0.41722 0.38051 0.41982 0.0
H1945 H 0.38392 0.3585 0.42104 0.0
H1946 H 0.39203 0.31873 0.38507 0.0
H1947 H 0.42586 0.34094 0.38381 0.0
H1948 H 0.36021 0.32263 0.37206 0.0
H1949 H 0.36059 0.31122 0.45935 0.0
H1950 H 0.37218 0.33546 0.45225 0.0
H1951 H 0.38152 0.32114 0.44327 0.0
C1952 C 0.41201 0.36714 0.412 0.0
C1953 C 0.42429 0.36244 0.40188 0.0
C1954 C 0.39292 0.35451 0.41285 0.0
C1955 C 0.38552 0.33678 0.40367 0.0
C1956 C 0.3975 0.33227 0.39252 0.0
H1957 H 0.26555 0.25735 0.42938 0.0
H1958 H 0.29945 0.26961 0.42703 0.0
C1959 C 0.41679 0.34501 0.39167 0.0
C1960 C 0.36522 0.3233 0.40595 0.0
H1961 H 0.33091 0.30345 0.44381 0.0
C1962 C 0.35383 0.31811 0.3877 0.0
C1963 C 0.35685 0.31713 0.42634 0.0
C1964 C 0.36843 0.32135 0.44641 0.0
C1965 C 0.33427 0.30808 0.38944 0.0
C1966 C 0.32589 0.30329 0.40998 0.0
C1967 C 0.33729 0.3073 0.4281 0.0
C1968 C 0.30555 0.29595 0.41294 0.0
C1969 C 0.3227 0.30314 0.36928 0.0
C1970 C 0.29789 0.30696 0.40674 0.0
C1971 C 0.27875 0.30013 0.40824 0.0
C1972 C 0.2667 0.28208 0.41607 0.0
C1973 C 0.27445 0.27133 0.42337 0.0
C1974 C 0.29378 0.27826 0.42187 0.0
H1975 H 0.33058 0.30254 0.35521 0.0
H1976 H 0.30965 0.28952 0.37093 0.0
H1977 H 0.31888 0.314 0.3661 0.0
H1978 H 0.30673 0.32083 0.40035 0.0
H1979 H 0.27333 0.30888 0.40268 0.0
H1980 H 0.72223 0.97748 0.38431 0.0
H1981 H 0.70885 0.99755 0.38224 0.0
H1982 H 0.73912 0.02672 0.43896 0.0
H1983 H 0.75331 1.00674 0.4408 0.0
H1984 H 0.68661 1.00173 0.4092 0.0
H1985 H 0.75156 0.06981 0.39879 0.0
H1986 H 0.75114 0.04787 0.39674 0.0
H1987 H 0.75095 0.05732 0.42258 0.0
C1988 C 0.72621 0.98816 0.39642 0.0
C1989 C 0.73898 0.99049 0.41272 0.0
C1990 C 0.71845 0.99967 0.39517 0.0
C1991 C 0.72311 0.01387 0.41021 0.0
C1992 C 0.73561 0.01613 0.42684 0.0
H1993 H 0.67561 0.08403 0.43234 0.0
H1994 H 0.69475 0.06921 0.43214 0.0
C1995 C 0.74356 1.00459 0.42803 0.0
C1996 C 0.71425 0.02569 0.4084 0.0
H1997 H 0.72332 0.07048 0.40172 0.0
C1998 C 0.69469 0.01676 0.40747 0.0
C1999 C 0.72473 0.04532 0.40604 0.0
C2000 C 0.74576 0.05568 0.40588 0.0
C2001 C 0.68535 0.02683 0.40442 0.0
C2002 C 0.69581 0.0464 0.40209 0.0
C2003 C 0.71535 0.05543 0.40322 0.0
C2004 C 0.68648 0.05771 0.40033 0.0
C2005 C 0.66431 0.01651 0.40416 0.0
C2006 C 0.67598 0.05677 0.38212 0.0
C2007 C 0.66512 0.0655 0.38208 0.0
C2008 C 0.66452 0.07502 0.40036 0.0
C2009 C 0.67581 0.07672 0.41804 0.0
C2010 C 0.68677 0.06828 0.41796 0.0
H2011 H 0.65828 1.00175 0.40923 0.0
H2012 H 0.65894 0.02344 0.41489 0.0
H2013 H 0.65936 0.01671 0.38769 0.0
H2014 H 0.67564 0.04872 0.3683 0.0
H2015 H 0.65642 0.06386 0.36836 0.0
H2016 H 0.95665 0.59643 0.44743 0.0
H2017 H 0.9701 0.62997 0.44796 0.0
H2018 H 0.96255 0.63005 0.37962 0.0
H2019 H 0.94847 0.59584 0.37901 0.0
H2020 H 1.00189 0.6543 0.42824 0.0
H2021 H 0.94387 0.66466 0.40081 0.0
H2022 H 0.94025 0.64229 0.40949 0.0
H2023 H 0.94934 0.65089 0.38324 0.0
C2024 C 0.95769 0.60344 0.43242 0.0
C2025 C 0.95168 0.59342 0.41308 0.0
C2026 C 0.96536 0.6227 0.43282 0.0
C2027 C 0.96734 0.63261 0.4139 0.0
C2028 C 0.96091 0.62268 0.39451 0.0
H2029 H 0.04663 0.74751 0.39237 0.0
H2030 H 0.02796 0.71376 0.39414 0.0
C2031 C 0.95298 0.60317 0.39413 0.0
C2032 C 0.97748 0.65336 0.41473 0.0
H2033 H 0.97356 0.69194 0.40517 0.0
C2034 C 0.99562 0.66248 0.42326 0.0
C2035 C 0.96925 0.66407 0.40854 0.0
C2036 C 0.94954 0.65503 0.40018 0.0
C2037 C 1.00583 0.68192 0.42546 0.0
C2038 C 0.99787 0.69269 0.41864 0.0
C2039 C 0.97962 0.68364 0.41045 0.0
C2040 C 1.00902 0.71337 0.41819 0.0
C2041 C 0.02513 0.69082 0.43507 0.0
C2042 C 1.00457 0.72449 0.43116 0.0
C2043 C 0.01539 0.74405 0.43027 0.0
C2044 C 0.03061 0.75266 0.41616 0.0
C2045 C 0.035 0.74138 0.40341 0.0
C2046 C 0.02434 0.72202 0.4044 0.0
H2047 H 0.02719 0.6807 0.44468 0.0
H2048 H 0.0356 0.69607 0.422 0.0
H2049 H 0.02782 0.7028 0.44544 0.0
H2050 H 0.99275 0.71804 0.44191 0.0
H2051 H 1.01157 0.75238 0.44011 0.0
H2052 H 0.63647 0.60375 0.89401 0.0
H2053 H 0.65768 0.63706 0.89886 0.0
H2054 H 0.70469 0.62818 0.89529 0.0
H2055 H 0.68336 0.59468 0.88988 0.0
H2056 H 0.68041 0.65017 0.93432 0.0
H2057 H 0.7226 0.67574 0.85983 0.0
H2058 H 0.70087 0.6539 0.86088 0.0
H2059 H 0.72162 0.65569 0.87228 0.0
C2060 C 0.65135 0.60896 0.89353 0.0
C2061 C 0.65823 0.59659 0.89154 0.0
C2062 C 0.66347 0.628 0.89646 0.0
C2063 C 0.6828 0.63518 0.89759 0.0
C2064 C 0.68985 0.62305 0.89423 0.0
H2065 H 0.76388 0.75298 0.93002 0.0
H2066 H 0.75079 0.71901 0.92695 0.0
C2067 C 0.67764 0.60389 0.89104 0.0
C2068 C 0.69504 0.6549 0.90439 0.0
H2069 H 0.72955 0.69762 0.88752 0.0
C2070 C 0.69127 0.66049 0.92413 0.0
C2071 C 0.70938 0.66836 0.89127 0.0
C2072 C 0.71386 0.66325 0.8698 0.0
C2073 C 0.70086 0.6792 0.93069 0.0
C2074 C 0.71457 0.69278 0.91715 0.0
C2075 C 0.71906 0.68714 0.89791 0.0
C2076 C 0.72252 0.71301 0.92137 0.0
C2077 C 0.69594 0.68441 0.95184 0.0
C2078 C 0.71094 0.7208 0.91966 0.0
C2079 C 0.71835 0.74002 0.92129 0.0
C2080 C 0.73749 0.75192 0.9249 0.0
C2081 C 0.74902 0.7441 0.92766 0.0
C2082 C 0.7416 0.72476 0.92567 0.0
H2083 H 0.68894 0.67222 0.96273 0.0
H2084 H 0.70858 0.69553 0.9599 0.0
H2085 H 0.68625 0.6898 0.94897 0.0
H2086 H 0.69623 0.71204 0.91615 0.0
H2087 H 0.70918 0.74569 0.9189 0.0
H2088 H 0.41634 0.03639 0.89257 0.0
H2089 H 0.38316 0.02499 0.89759 0.0
H2090 H 0.39316 0.0812 0.89317 0.0
H2091 H 0.4266 0.0927 0.8877 0.0
H2092 H 0.3722 0.03761 0.9342 0.0
H2093 H 0.34381 0.04975 0.85879 0.0
H2094 H 0.36486 0.04828 0.85916 0.0
H2095 H 0.36517 0.06867 0.86929 0.0
C2096 C 0.41138 0.04626 0.8918 0.0
C2097 C 0.42404 0.06541 0.88965 0.0
C2098 C 0.39242 0.03974 0.89485 0.0
C2099 C 0.38565 0.05222 0.89593 0.0
C2100 C 0.39803 0.07128 0.89219 0.0
H2101 H 0.26786 0.01491 0.92896 0.0
H2102 H 0.30156 0.03646 0.92452 0.0
C2103 C 0.41712 0.07783 0.88893 0.0
C2104 C 0.36621 0.04524 0.90345 0.0
H2105 H 0.3227 0.03505 0.88713 0.0
C2106 C 0.36143 0.03726 0.92398 0.0
C2107 C 0.3522 0.04501 0.89027 0.0
C2108 C 0.35661 0.05328 0.86808 0.0
C2109 C 0.34293 0.02833 0.93128 0.0
C2110 C 0.32873 0.02713 0.91765 0.0
C2111 C 0.33361 0.03601 0.89758 0.0
C2112 C 0.30868 0.01467 0.92278 0.0
C2113 C 0.33863 0.01979 0.95335 0.0
C2114 C 0.30159 0.99536 0.9237 0.0
C2115 C 0.28251 0.98315 0.92614 0.0
C2116 C 0.27003 0.98992 0.92787 0.0
C2117 C 0.27718 1.00931 0.92805 0.0
C2118 C 0.29638 0.0216 0.92528 0.0
H2119 H 0.35108 0.02648 0.96394 0.0
H2120 H 0.32715 0.021 0.96093 0.0
H2121 H 0.33418 1.00478 0.95207 0.0
H2122 H 0.31076 0.98967 0.92157 0.0
H2123 H 0.27738 0.96829 0.92574 0.0
H2124 H 0.95727 0.36316 0.86715 0.0
H2125 H 0.97045 0.34231 0.86943 0.0
H2126 H 0.95938 0.33605 0.93737 0.0
H2127 H 0.94732 0.35744 0.93524 0.0
H2128 H 0.99282 0.34294 0.93121 0.0
H2129 H 0.94736 0.2873 0.8743 0.0
H2130 H 0.95918 0.30993 0.86215 0.0
H2131 H 0.9423 0.30506 0.88293 0.0
C2132 C 0.95742 0.35703 0.88242 0.0
C2133 C 0.95127 0.36183 0.90099 0.0
C2134 C 0.96489 0.34507 0.88376 0.0
C2135 C 0.96582 0.3374 0.90359 0.0
C2136 C 0.95898 0.34179 0.92191 0.0
H2137 H 0.98719 0.24534 0.91644 0.0
H2138 H 0.97366 0.26568 0.9182 0.0
C2139 C 0.95197 0.35395 0.92065 0.0
C2140 C 0.97472 0.32563 0.9059 0.0
H2141 H 0.97376 0.28634 0.88752 0.0
C2142 C 0.98855 0.3305 0.9217 0.0
C2143 C 0.96909 0.30925 0.89373 0.0
C2144 C 0.95354 0.30245 0.87748 0.0
C2145 C 0.99674 0.31947 0.92579 0.0
C2146 C 0.99156 0.30343 0.91314 0.0
C2147 C 0.97782 0.29862 0.89725 0.0
C2148 C 1.00012 0.29139 0.91594 0.0
C2149 C 1.01041 0.32489 0.94409 0.0
C2150 C 0.01958 0.29896 0.91508 0.0
C2151 C 0.02733 0.2873 0.91491 0.0
C2152 C 0.01575 0.26786 0.91511 0.0
C2153 C 0.99641 0.2603 0.91684 0.0
C2154 C 0.98868 0.27194 0.9175 0.0
H2155 H 1.00797 0.33316 0.95634 0.0
H2156 H 1.0095 0.31247 0.952 0.0
H2157 H 0.02477 0.33371 0.93788 0.0
H2158 H 0.02875 0.31382 0.91323 0.0
H2159 H 0.04225 0.29343 0.9128 0.0
H2160 H 0.7554 0.7346 0.54153 0.0
H2161 H 0.72144 0.72046 0.54626 0.0
H2162 H 0.73008 0.73873 0.61209 0.0
H2163 H 0.76359 0.75209 0.6076 0.0
H2164 H 0.70618 0.703 0.61002 0.0
H2165 H 0.68486 0.73903 0.55135 0.0
H2166 H 0.69767 0.72914 0.53942 0.0
H2167 H 0.70892 0.74771 0.55861 0.0
C2168 C 0.74997 0.73595 0.55678 0.0
C2169 C 0.76204 0.74436 0.5742 0.0
C2170 C 0.73059 0.72793 0.5595 0.0
C2171 C 0.72312 0.72857 0.57956 0.0
C2172 C 0.7354 0.73795 0.59652 0.0
H2173 H 0.60257 0.68301 0.60188 0.0
H2174 H 0.63653 0.70453 0.6021 0.0
C2175 C 0.75457 0.74563 0.59391 0.0
C2176 C 0.70265 0.71793 0.58382 0.0
H2177 H 0.66034 0.71102 0.56691 0.0
C2178 C 0.69622 0.70494 0.60068 0.0
C2179 C 0.68957 0.72056 0.57192 0.0
C2180 C 0.69559 0.735 0.55445 0.0
C2181 C 0.67718 0.69421 0.60558 0.0
C2182 C 0.66402 0.69612 0.59299 0.0
C2183 C 0.67041 0.7095 0.57654 0.0
C2184 C 0.64361 0.68318 0.59538 0.0
C2185 C 0.67134 0.68085 0.62422 0.0
C2186 C 0.63636 0.66405 0.59202 0.0
C2187 C 0.61715 0.65185 0.59203 0.0
C2188 C 0.60466 0.65845 0.59534 0.0
C2189 C 0.61186 0.67748 0.59971 0.0
C2190 C 0.63123 0.6898 0.59956 0.0
H2191 H 0.68273 0.68536 0.63619 0.0
H2192 H 0.65881 0.67955 0.63231 0.0
H2193 H 0.66797 0.66688 0.61829 0.0
H2194 H 0.64553 0.65862 0.5884 0.0
H2195 H 0.61201 0.63729 0.5884 0.0
H2196 H 0.38952 0.98023 0.58646 0.0
H2197 H 0.36769 0.99141 0.58034 0.0
H2198 H 0.32152 0.93578 0.58977 0.0
H2199 H 0.34352 0.92453 0.59641 0.0
H2200 H 0.34303 0.97825 0.54588 0.0
H2201 H 0.30504 0.9682 0.62269 0.0
H2202 H 0.32703 0.96861 0.62136 0.0
H2203 H 0.30606 0.94847 0.61234 0.0
C2204 C 0.37472 0.97047 0.58793 0.0
C2205 C 0.36824 0.95152 0.59195 0.0
C2206 C 0.36224 0.97686 0.58427 0.0
C2207 C 0.34295 0.96445 0.58444 0.0
C2208 C 0.33634 0.94567 0.58977 0.0
H2209 H 0.26136 1.00093 0.55484 0.0
H2210 H 0.27372 0.97942 0.55731 0.0
C2211 C 0.34892 0.93926 0.59367 0.0
C2212 C 0.33023 0.97118 0.57707 0.0
H2213 H 0.29718 0.98149 0.59405 0.0
C2214 C 0.33284 0.97875 0.55636 0.0
C2215 C 0.31677 0.97163 0.5906 0.0
C2216 C 0.31354 0.96392 0.61305 0.0
C2217 C 0.32304 0.9875 0.54919 0.0
C2218 C 0.31035 0.98887 0.56311 0.0
C2219 C 0.3069 0.98037 0.58337 0.0
C2220 C 0.30264 1.00126 0.55817 0.0
C2221 C 0.32674 0.99572 0.52697 0.0
C2222 C 0.3148 0.02057 0.55724 0.0
C2223 C 0.3078 0.03276 0.55598 0.0
C2224 C 0.2885 0.02593 0.55539 0.0
C2225 C 0.2763 1.00656 0.55485 0.0
C2226 C 0.28334 0.99429 0.5565 0.0
H2227 H 0.33236 0.98896 0.51631 0.0
H2228 H 0.31384 0.99429 0.5197 0.0
H2229 H 0.33723 0.01078 0.5279 0.0
H2230 H 0.32971 0.02628 0.55877 0.0
H2231 H 0.31748 0.04763 0.55674 0.0
H2232 H 0.99984 0.26901 0.53925 0.0
H2233 H 0.01996 0.30289 0.54444 0.0
H2234 H 0.02761 0.29362 0.61075 0.0
H2235 H 1.00737 0.26021 0.60576 0.0
H2236 H 0.01538 0.31777 0.60707 0.0
H2237 H 0.07551 0.33894 0.5526 0.0
H2238 H 0.05322 0.32604 0.53968 0.0
H2239 H 0.05987 0.31492 0.55978 0.0
C2240 C 1.00628 0.27426 0.55472 0.0
C2241 C 1.002 0.26205 0.57212 0.0
C2242 C 0.01778 0.2936 0.5577 0.0
C2243 C 0.02537 0.30088 0.57803 0.0
C2244 C 0.02191 0.28845 0.59497 0.0
H2245 H 0.10062 0.4201 0.60772 0.0
H2246 H 0.08735 0.38601 0.60621 0.0
C2247 C 1.01034 0.26933 0.59208 0.0
C2248 C 0.03518 0.32129 0.58255 0.0
H2249 H 0.07214 0.36346 0.56811 0.0
C2250 C 0.02788 0.3277 0.59863 0.0
C2251 C 0.05163 0.33431 0.57179 0.0
C2252 C 0.06066 0.32824 0.55513 0.0
C2253 C 0.03626 0.34669 0.60387 0.0
C2254 C 0.05224 0.3598 0.59251 0.0
C2255 C 0.05988 0.35341 0.57682 0.0
C2256 C 0.06011 0.38021 0.59541 0.0
C2257 C 0.02785 0.35255 0.62153 0.0
C2258 C 0.04914 0.3882 0.59024 0.0
C2259 C 0.05662 0.40746 0.59118 0.0
C2260 C 0.07525 0.41927 0.59732 0.0
C2261 C 0.08611 0.41131 0.60335 0.0
C2262 C 0.07862 0.39189 0.60222 0.0
H2263 H 0.01952 0.34089 0.63274 0.0
H2264 H 0.03881 0.36445 0.63077 0.0
H2265 H 0.0184 0.35698 0.61439 0.0
H2266 H 0.03495 0.37956 0.58468 0.0
H2267 H 0.04797 0.4132 0.58625 0.0
H2268 H 0.09266 0.69676 0.78021 0.0
H2269 H 0.05906 0.67716 0.78023 0.0
H2270 H 0.05989 0.66712 0.71259 0.0
H2271 H 0.09415 0.68667 0.71253 0.0
H2272 H 0.03429 0.68282 0.75966 0.0
H2273 H 0.02591 0.61478 0.73462 0.0
H2274 H 0.04812 0.63414 0.74268 0.0
H2275 H 0.03915 0.63352 0.71627 0.0
C2276 C 0.08584 0.69038 0.76524 0.0
C2277 C 0.09618 0.69344 0.74628 0.0
C2278 C 0.06652 0.67909 0.76534 0.0
C2279 C 0.05684 0.67051 0.7465 0.0
C2280 C 0.06705 0.6733 0.72746 0.0
H2281 H 0.94096 0.61435 0.71349 0.0
H2282 H 0.97465 0.62825 0.71547 0.0
C2283 C 0.08661 0.68457 0.72738 0.0
C2284 C 0.03605 0.65955 0.74703 0.0
H2285 H 0.99821 0.61657 0.7375 0.0
C2286 C 0.02644 0.66829 0.75495 0.0
C2287 C 0.02575 0.64056 0.74098 0.0
C2288 C 0.03523 0.63011 0.73335 0.0
C2289 C 1.00691 0.65872 0.75665 0.0
C2290 C 0.99662 0.63981 0.75043 0.0
C2291 C 1.00615 0.63102 0.7425 0.0
C2292 C 0.97589 0.6296 0.75003 0.0
C2293 C 0.99735 0.66905 0.76449 0.0
C2294 C 0.96522 0.62525 0.76891 0.0
C2295 C 0.9457 0.6171 0.76787 0.0
C2296 C 0.9367 0.61347 0.7479 0.0
C2297 C 0.94745 0.61723 0.72916 0.0
C2298 C 0.96675 0.62509 0.73022 0.0
H2299 H 1.0071 0.68431 0.76565 0.0
H2300 H 0.98571 0.66657 0.75361 0.0
H2301 H 0.99139 0.66382 0.7806 0.0
H2302 H 0.97202 0.62848 0.78441 0.0
H2303 H 0.93779 0.61432 0.78254 0.0
H2304 H 0.32159 0.39786 0.73888 0.0
H2305 H 0.33343 0.37592 0.73959 0.0
H2306 H 0.38979 0.42211 0.74235 0.0
H2307 H 0.37798 0.4439 0.74243 0.0
H2308 H 0.35675 0.36865 0.71681 0.0
H2309 H 0.3875 0.39489 0.79673 0.0
H2310 H 0.37205 0.40142 0.78397 0.0
H2311 H 0.39644 0.41313 0.77712 0.0
C2312 C 0.33651 0.40328 0.7389 0.0
C2313 C 0.3489 0.42254 0.74053 0.0
C2314 C 0.34327 0.39076 0.73958 0.0
C2315 C 0.36249 0.39735 0.74181 0.0
C2316 C 0.37489 0.41665 0.7414 0.0
H2317 H 0.42169 0.33851 0.7208 0.0
H2318 H 0.40807 0.35867 0.72056 0.0
C2319 C 0.36815 0.4291 0.74106 0.0
C2320 C 0.36963 0.38424 0.74547 0.0
H2321 H 0.39727 0.37562 0.77888 0.0
C2322 C 0.36548 0.3701 0.73046 0.0
C2323 C 0.3806 0.38571 0.76364 0.0
C2324 C 0.38424 0.39947 0.7814 0.0
C2325 C 0.37271 0.35801 0.73257 0.0
C2326 C 0.38485 0.36042 0.74987 0.0
C2327 C 0.38827 0.37397 0.76542 0.0
C2328 C 0.39472 0.34956 0.75144 0.0
C2329 C 0.36715 0.34269 0.71625 0.0
C2330 C 0.39293 0.33869 0.76961 0.0
C2331 C 0.40118 0.3274 0.77001 0.0
C2332 C 0.41125 0.32689 0.75222 0.0
C2333 C 0.41388 0.33858 0.73468 0.0
C2334 C 0.40591 0.34994 0.7344 0.0
H2335 H 0.35348 0.33879 0.70883 0.0
H2336 H 0.3777 0.34765 0.70328 0.0
H2337 H 0.36627 0.33005 0.72355 0.0
H2338 H 0.38456 0.33837 0.78309 0.0
H2339 H 0.39884 0.31838 0.78361 0.0
H2340 H 0.59792 0.92903 0.72169 0.0
H2341 H 0.60962 0.9628 0.72411 0.0
H2342 H 0.66065 0.97084 0.75241 0.0
H2343 H 0.64919 0.93751 0.7501 0.0
H2344 H 0.64245 0.987 0.77607 0.0
H2345 H 0.65219 1.00681 0.68977 0.0
H2346 H 0.63007 0.9876 0.69803 0.0
H2347 H 0.65051 0.98537 0.69905 0.0
C2348 C 0.6118 0.9381 0.72793 0.0
C2349 C 0.62264 0.93061 0.7357 0.0
C2350 C 0.61842 0.95735 0.72944 0.0
C2351 C 0.63597 0.96932 0.73859 0.0
C2352 C 0.64701 0.96188 0.74549 0.0
H2353 H 0.71985 0.08062 0.73845 0.0
H2354 H 0.69835 0.04715 0.73772 0.0
C2355 C 0.64045 0.9428 0.74404 0.0
C2356 C 0.64304 0.98956 0.74173 0.0
H2357 H 0.66278 0.03102 0.71495 0.0
C2358 C 0.64657 0.99665 0.76273 0.0
C2359 C 0.64845 1.00207 0.7243 0.0
C2360 C 0.64525 0.99522 0.70147 0.0
C2361 C 0.65617 0.01594 0.76673 0.0
C2362 C 0.66232 0.02845 0.74928 0.0
C2363 C 0.65797 0.02136 0.72831 0.0
C2364 C 0.67546 0.04872 0.75214 0.0
C2365 C 0.66068 0.02286 0.78949 0.0
C2366 C 0.66994 0.06076 0.76123 0.0
C2367 C 0.68239 0.0801 0.76184 0.0
C2368 C 0.70041 0.08755 0.75322 0.0
C2369 C 0.70605 0.07531 0.74515 0.0
C2370 C 0.69374 0.05616 0.74461 0.0
H2371 H 0.65616 0.01129 0.80119 0.0
H2372 H 0.67593 0.03241 0.79129 0.0
H2373 H 0.65362 0.03087 0.79343 0.0
H2374 H 0.65585 0.05529 0.76706 0.0
H2375 H 0.6776 0.08924 0.76787 0.0
H2376 H 0.42526 0.088 0.26855 0.0
H2377 H 0.41256 0.05401 0.26761 0.0
H2378 H 0.36011 0.04641 0.24442 0.0
H2379 H 0.37252 0.07994 0.24564 0.0
H2380 H 0.35531 0.02063 0.27445 0.0
H2381 H 0.40476 0.02509 0.21142 0.0
H2382 H 0.41514 0.03789 0.23561 0.0
H2383 H 0.40204 0.04469 0.21864 0.0
C2384 C 0.41089 0.07898 0.26382 0.0
C2385 C 0.39987 0.08659 0.25716 0.0
C2386 C 0.40373 0.05961 0.26294 0.0
C2387 C 0.38549 0.04768 0.25545 0.0
C2388 C 0.37424 0.05529 0.25007 0.0
H2389 H 0.32558 0.93513 0.20312 0.0
H2390 H 0.34494 0.96925 0.20748 0.0
C2391 C 0.38135 0.07448 0.25085 0.0
C2392 C 0.37787 0.02729 0.25262 0.0
H2393 H 0.3823 0.99493 0.22303 0.0
C2394 C 0.36132 0.01502 0.26335 0.0
C2395 C 0.38548 0.01998 0.23776 0.0
C2396 C 0.40275 0.03254 0.22502 0.0
C2397 C 0.35212 0.99575 0.25957 0.0
C2398 C 0.35987 0.98838 0.24499 0.0
C2399 C 0.37645 1.00059 0.23426 0.0
C2400 C 0.35083 0.96798 0.24106 0.0
C2401 C 0.33384 0.9835 0.27081 0.0
C2402 C 0.34847 0.95601 0.25813 0.0
C2403 C 0.33737 0.93678 0.25571 0.0
C2404 C 0.32871 0.92901 0.23604 0.0
C2405 C 0.33221 0.94081 0.21839 0.0
C2406 C 0.3432 0.96025 0.22092 0.0
H2407 H 0.32742 0.99164 0.27677 0.0
H2408 H 0.32375 0.97239 0.25998 0.0
H2409 H 0.33632 0.97675 0.28479 0.0
H2410 H 0.35452 0.96161 0.27366 0.0
H2411 H 0.33497 0.92797 0.26955 0.0
H2412 H 0.94601 0.29993 0.25224 0.0
H2413 H 0.97952 0.32127 0.25102 0.0
H2414 H 0.97126 0.36648 0.27079 0.0
H2415 H 0.9373 0.34498 0.27184 0.0
H2416 H 0.9948 0.37456 0.23401 0.0
H2417 H 0.01702 0.34514 0.29979 0.0
H2418 H 1.00184 0.32782 0.28096 0.0
H2419 H 0.99324 0.34006 0.29681 0.0
C2420 C 0.9513 0.31433 0.25678 0.0
C2421 C 0.93899 0.32072 0.26231 0.0
C2422 C 0.97051 0.32653 0.25607 0.0
C2423 C 0.97797 0.34547 0.26093 0.0
C2424 C 0.9658 0.35189 0.26705 0.0
H2425 H 0.09737 0.41504 0.27593 0.0
H2426 H 0.0637 0.40075 0.27959 0.0
C2427 C 0.94644 0.33958 0.26789 0.0
C2428 C 0.9984 0.3584 0.25862 0.0
H2429 H 0.04054 0.36468 0.27483 0.0
C2430 C 1.00485 0.3726 0.24312 0.0
C2431 C 1.01152 0.35588 0.27052 0.0
C2432 C 1.00559 0.34152 0.2881 0.0
C2433 C 0.02404 0.38398 0.23883 0.0
C2434 C 0.0371 0.3809 0.25012 0.0
C2435 C 0.0306 0.36699 0.26597 0.0
C2436 C 0.05765 0.39213 0.24647 0.0
C2437 C 0.03014 0.39928 0.22241 0.0
C2438 C 0.06569 0.39269 0.22638 0.0
C2439 C 0.08518 0.40122 0.22416 0.0
C2440 C 0.09679 0.40899 0.24209 0.0
C2441 C 0.08873 0.40909 0.26184 0.0
C2442 C 0.06946 0.40088 0.26398 0.0
H2443 H 0.01922 0.40309 0.21956 0.0
H2444 H 0.04318 0.41193 0.22748 0.0
H2445 H 0.03286 0.3944 0.207 0.0
H2446 H 0.05691 0.38575 0.21269 0.0
H2447 H 0.09105 0.40077 0.20884 0.0
H2448 H 0.65935 0.71949 0.22696 0.0
H2449 H 0.67071 0.69784 0.23343 0.0
H2450 H 0.61507 0.65145 0.22478 0.0
H2451 H 0.60368 0.67323 0.21774 0.0
H2452 H 0.65707 0.67409 0.2689 0.0
H2453 H 0.64779 0.63398 0.19393 0.0
H2454 H 0.64843 0.65611 0.19397 0.0
H2455 H 0.62805 0.63552 0.20325 0.0
C2456 C 0.64966 0.70467 0.22557 0.0
C2457 C 0.63064 0.69807 0.22181 0.0
C2458 C 0.65614 0.6923 0.22947 0.0
C2459 C 0.64375 0.67301 0.22979 0.0
C2460 C 0.62494 0.66627 0.22442 0.0
H2461 H 0.6786 0.59147 0.26656 0.0
H2462 H 0.6575 0.6041 0.26153 0.0
C2463 C 0.61844 0.67873 0.22027 0.0
C2464 C 0.65041 0.6605 0.23813 0.0
H2465 H 0.66055 0.62676 0.22368 0.0
C2466 C 0.65764 0.66361 0.25906 0.0
C2467 C 0.65092 0.64663 0.22544 0.0
C2468 C 0.6435 0.64284 0.20284 0.0
C2469 C 0.66609 0.65385 0.26728 0.0
C2470 C 0.66754 0.64071 0.25421 0.0
C2471 C 0.6594 0.63682 0.23371 0.0
C2472 C 0.67961 0.6329 0.26035 0.0
C2473 C 0.67388 0.65803 0.28972 0.0
C2474 C 0.69892 0.6449 0.26194 0.0
C2475 C 0.71089 0.63776 0.26466 0.0
C2476 C 0.70384 0.61845 0.26601 0.0
C2477 C 0.68441 0.60643 0.26587 0.0
C2478 C 0.67237 0.61361 0.26277 0.0
H2479 H 0.66696 0.66394 0.29967 0.0
H2480 H 0.67223 0.64528 0.29765 0.0
H2481 H 0.68897 0.66844 0.28904 0.0
H2482 H 0.70484 0.65979 0.25989 0.0
H2483 H 0.7258 0.64732 0.26451 0.0
H2484 H 0.32461 0.19802 0.0765 0.0
H2485 H 0.33952 0.18802 0.10295 0.0
H2486 H 0.30335 0.18887 0.152 0.0
H2487 H 0.28834 0.19896 0.12552 0.0
H2488 H 0.35854 0.20672 0.13953 0.0
H2489 H 0.2982 0.13754 0.16009 0.0
H2490 H 0.29841 0.15049 0.13674 0.0
H2491 H 0.29398 0.15671 0.16275 0.0
C2492 C 0.31982 0.19614 0.0929 0.0
C2493 C 0.30528 0.19935 0.09887 0.0
C2494 C 0.32832 0.19033 0.108 0.0
C2495 C 0.32244 0.1875 0.12942 0.0
C2496 C 0.30786 0.19058 0.13548 0.0
H2497 H 0.36278 0.15685 0.24257 0.0
H2498 H 0.34632 0.16628 0.21753 0.0
C2499 C 0.2993 0.19637 0.12033 0.0
C2500 C 0.33212 0.18201 0.14541 0.0
H2501 H 0.32565 0.14776 0.18072 0.0
C2502 C 0.35135 0.1938 0.1485 0.0
C2503 C 0.32272 0.16519 0.15716 0.0
C2504 C 0.30222 0.15164 0.15395 0.0
C2505 C 0.36142 0.1893 0.1631 0.0
C2506 C 0.35206 0.1724 0.17469 0.0
C2507 C 0.33279 0.1607 0.17179 0.0
C2508 C 0.36207 0.16657 0.1898 0.0
C2509 C 0.38193 0.20284 0.16625 0.0
C2510 C 0.37624 0.16336 0.18248 0.0
C2511 C 0.38565 0.15788 0.19675 0.0
C2512 C 0.38099 0.15537 0.21864 0.0
C2513 C 0.36663 0.15843 0.22584 0.0
C2514 C 0.35724 0.16391 0.21155 0.0
H2515 H 0.38586 0.21704 0.16054 0.0
H2516 H 0.38589 0.20369 0.18339 0.0
H2517 H 0.39013 0.19798 0.15699 0.0
H2518 H 0.37993 0.16493 0.16567 0.0
H2519 H 0.39635 0.15531 0.19055 0.0
H2520 H 0.88971 0.22621 0.24073 0.0
H2521 H 0.88142 0.19995 0.21659 0.0
H2522 H 0.83914 0.20866 0.18746 0.0
H2523 H 0.84734 0.23491 0.21151 0.0
H2524 H 0.848 0.16717 0.21115 0.0
H2525 H 0.86871 0.20806 0.13582 0.0
H2526 H 0.87536 0.21887 0.16187 0.0
H2527 H 0.85241 0.21135 0.15146 0.0
C2528 C 0.87859 0.22249 0.22926 0.0
C2529 C 0.86928 0.23278 0.22798 0.0
C2530 C 0.87392 0.20752 0.21542 0.0
C2531 C 0.85989 0.20253 0.19997 0.0
C2532 C 0.85035 0.21255 0.19888 0.0
H2533 H 0.80608 0.11735 0.10401 0.0
H2534 H 0.8157 0.14262 0.12982 0.0
C2535 C 0.85505 0.22757 0.21266 0.0
C2536 C 0.85503 0.18669 0.1852 0.0
H2537 H 0.85138 0.17506 0.13224 0.0
C2538 C 0.84887 0.16891 0.1939 0.0
C2539 C 0.85625 0.18899 0.16269 0.0
C2540 C 0.86371 0.20787 0.15238 0.0
C2541 C 0.84335 0.15327 0.18067 0.0
C2542 C 0.84424 0.15554 0.15818 0.0
C2543 C 0.85064 0.17335 0.1495 0.0
C2544 C 0.83811 0.13958 0.14326 0.0
C2545 C 0.83611 0.13437 0.19083 0.0
C2546 C 0.84751 0.12943 0.14225 0.0
C2547 C 0.8421 0.11498 0.12735 0.0
C2548 C 0.82726 0.11051 0.1131 0.0
C2549 C 0.81775 0.12058 0.11445 0.0
C2550 C 0.82316 0.13499 0.12928 0.0
H2551 H 0.8326 0.13437 0.208 0.0
H2552 H 0.82351 0.12368 0.18228 0.0
H2553 H 0.84695 0.13027 0.18976 0.0
H2554 H 0.85929 0.13295 0.15266 0.0
H2555 H 0.8499 0.1077 0.1266 0.0
H2556 H 0.88973 0.70125 0.0882 0.0
H2557 H 0.86477 0.68473 0.11424 0.0
H2558 H 0.89982 0.72184 0.16401 0.0
H2559 H 0.92479 0.73859 0.13787 0.0
H2560 H 0.86494 0.66584 0.14929 0.0
H2561 H 0.85213 0.72288 0.17356 0.0
H2562 H 0.86586 0.72455 0.15038 0.0
H2563 H 0.87592 0.7285 0.17675 0.0
C2564 C 0.89211 0.70593 0.10467 0.0
C2565 C 0.90924 0.72123 0.11098 0.0
C2566 C 0.87781 0.69651 0.11954 0.0
C2567 C 0.8803 0.70215 0.14105 0.0
C2568 C 0.89737 0.71749 0.14741 0.0
H2569 H 0.81134 0.65275 0.25423 0.0
H2570 H 0.83683 0.6714 0.22949 0.0
C2571 C 0.91166 0.72704 0.13247 0.0
C2572 C 0.86529 0.69137 0.15687 0.0
H2573 H 0.83676 0.69489 0.19382 0.0
C2574 C 0.85875 0.6722 0.15896 0.0
C2575 C 0.85722 0.69967 0.16954 0.0
C2576 C 0.863 0.71999 0.16735 0.0
C2577 C 0.84446 0.66113 0.17339 0.0
C2578 C 0.83641 0.66942 0.186 0.0
C2579 C 0.84303 0.68861 0.18413 0.0
C2580 C 0.82084 0.65828 0.20094 0.0
C2581 C 0.8382 0.64067 0.17524 0.0
C2582 C 0.80334 0.64489 0.19305 0.0
C2583 C 0.78866 0.63431 0.20711 0.0
C2584 C 0.79117 0.63687 0.22942 0.0
C2585 C 0.80876 0.65045 0.23722 0.0
C2586 C 0.82341 0.6611 0.2231 0.0
H2587 H 0.84837 0.63728 0.16791 0.0
H2588 H 0.83617 0.63626 0.19229 0.0
H2589 H 0.82465 0.63244 0.16688 0.0
H2590 H 0.801 0.64271 0.17596 0.0
H2591 H 0.77528 0.62432 0.20042 0.0
H2592 H 0.16589 0.36838 0.2464 0.0
H2593 H 0.17321 0.35072 0.27226 0.0
H2594 H 0.17154 0.38468 0.32354 0.0
H2595 H 0.16377 0.40208 0.29791 0.0
H2596 H 0.20399 0.36455 0.30118 0.0
H2597 H 0.13607 0.33087 0.3439 0.0
H2598 H 0.13915 0.34164 0.31794 0.0
H2599 H 0.14726 0.35579 0.34164 0.0
C2600 C 0.1669 0.37198 0.26319 0.0
C2601 C 0.16419 0.38663 0.27006 0.0
C2602 C 0.17119 0.36195 0.27793 0.0
C2603 C 0.17268 0.36624 0.29983 0.0
C2604 C 0.17018 0.38096 0.30674 0.0
H2605 H 0.19508 0.31805 0.41235 0.0
H2606 H 0.18868 0.33723 0.38778 0.0
C2607 C 0.16595 0.39103 0.29202 0.0
C2608 C 0.17715 0.35551 0.3154 0.0
H2609 H 0.15989 0.32629 0.35843 0.0
C2610 C 0.19435 0.35614 0.31367 0.0
C2611 C 0.16457 0.34465 0.33174 0.0
C2612 C 0.14565 0.34301 0.3339 0.0
C2613 C 0.1994 0.34634 0.328 0.0
C2614 C 0.18673 0.33529 0.34419 0.0
C2615 C 0.16958 0.33478 0.34602 0.0
C2616 C 0.19081 0.3238 0.35908 0.0
C2617 C 0.2184 0.34818 0.32588 0.0
C2618 C 0.19391 0.30975 0.35113 0.0
C2619 C 0.19771 0.29888 0.36509 0.0
C2620 C 0.1983 0.30169 0.38738 0.0
C2621 C 0.19497 0.31566 0.39531 0.0
C2622 C 0.1912 0.32656 0.38129 0.0
H2623 H 0.22823 0.36104 0.31706 0.0
H2624 H 0.22446 0.34841 0.34183 0.0
H2625 H 0.2171 0.33608 0.31679 0.0
H2626 H 0.19333 0.30713 0.33408 0.0
H2627 H 0.20041 0.28845 0.35833 0.0
H2628 H 0.69594 0.90381 0.38378 0.0
H2629 H 0.68063 0.8777 0.35879 0.0
H2630 H 0.72816 0.86955 0.36199 0.0
H2631 H 0.74384 0.89636 0.3862 0.0
H2632 H 0.71747 0.8661 0.32301 0.0
H2633 H 0.65406 0.82375 0.3709 0.0
H2634 H 0.65672 0.84617 0.36538 0.0
H2635 H 0.67388 0.84439 0.38149 0.0
C2636 C 0.70302 0.89633 0.37922 0.0
C2637 C 0.72099 0.90198 0.38699 0.0
C2638 C 0.69422 0.88131 0.36507 0.0
C2639 C 0.70296 0.87122 0.35891 0.0
C2640 C 0.72102 0.87698 0.36657 0.0
H2641 H 0.6394 0.76429 0.29209 0.0
H2642 H 0.65615 0.78862 0.31905 0.0
C2643 C 0.73 0.89229 0.38037 0.0
C2644 C 0.69357 0.85517 0.34383 0.0
H2645 H 0.6523 0.81536 0.33383 0.0
C2646 C 0.70328 0.8549 0.32553 0.0
C2647 C 0.67518 0.84026 0.34723 0.0
C2648 C 0.66446 0.83854 0.36745 0.0
C2649 C 0.69502 0.84053 0.31032 0.0
C2650 C 0.67616 0.82637 0.31293 0.0
C2651 C 0.66663 0.82633 0.33154 0.0
C2652 C 0.66604 0.81156 0.29656 0.0
C2653 C 0.7068 0.84055 0.29188 0.0
C2654 C 0.66568 0.81626 0.275 0.0
C2655 C 0.65647 0.80236 0.25961 0.0
C2656 C 0.6469 0.78348 0.26552 0.0
C2657 C 0.64665 0.77876 0.28717 0.0
C2658 C 0.65623 0.79266 0.30253 0.0
H2659 H 0.72183 0.84789 0.2962 0.0
H2660 H 0.70269 0.82617 0.28676 0.0
H2661 H 0.70511 0.84806 0.27812 0.0
H2662 H 0.67246 0.8307 0.27004 0.0
H2663 H 0.65655 0.80635 0.24308 0.0
H2664 H 0.2543 0.87018 0.29065 0.0
H2665 H 0.22793 0.86215 0.31461 0.0
H2666 H 0.19047 0.84268 0.26045 0.0
H2667 H 0.21701 0.85165 0.23646 0.0
H2668 H 0.18092 0.86116 0.28549 0.0
H2669 H 0.19117 0.81225 0.33622 0.0
H2670 H 0.21129 0.83511 0.33658 0.0
H2671 H 0.20423 0.82198 0.31197 0.0
C2672 C 0.24039 0.86409 0.28397 0.0
C2673 C 0.23761 0.86141 0.26178 0.0
C2674 C 0.22531 0.85939 0.29765 0.0
C2675 C 0.20708 0.85135 0.28946 0.0
C2676 C 0.20435 0.84879 0.26722 0.0
H2677 H 0.10948 0.79187 0.37009 0.0
H2678 H 0.13464 0.80119 0.344 0.0
C2679 C 0.21949 0.85389 0.25351 0.0
C2680 C 0.19086 0.84587 0.30393 0.0
H2681 H 0.16969 0.82113 0.34911 0.0
C2682 C 0.1784 0.85229 0.29932 0.0
C2683 C 0.18732 0.83405 0.32182 0.0
C2684 C 0.1991 0.82529 0.32681 0.0
C2685 C 0.16262 0.84731 0.31208 0.0
C2686 C 0.15959 0.83621 0.33055 0.0
C2687 C 0.17203 0.82977 0.3351 0.0
C2688 C 0.1434 0.83059 0.34513 0.0
C2689 C 0.14912 0.85356 0.30519 0.0
C2690 C 0.13969 0.84391 0.35434 0.0
C2691 C 0.12495 0.83845 0.36883 0.0
C2692 C 0.11408 0.8197 0.37485 0.0
C2693 C 0.11776 0.80641 0.36568 0.0
C2694 C 0.13214 0.81177 0.35084 0.0
H2695 H 0.15007 0.85639 0.28771 0.0
H2696 H 0.13452 0.84294 0.30907 0.0
H2697 H 0.15259 0.8667 0.3136 0.0
H2698 H 0.14846 0.85857 0.35079 0.0
H2699 H 0.12251 0.84894 0.376 0.0
H2700 H 0.74508 0.84355 0.87393 0.0
H2701 H 0.72827 0.85215 0.84831 0.0
H2702 H 0.67592 0.80925 0.87384 0.0
H2703 H 0.69257 0.80048 0.89938 0.0
H2704 H 0.70243 0.83041 0.81676 0.0
H2705 H 0.67035 0.85557 0.87632 0.0
H2706 H 0.68939 0.8517 0.88294 0.0
H2707 H 0.66597 0.83236 0.88124 0.0
C2708 C 0.73 0.83586 0.87404 0.0
C2709 C 0.7202 0.82137 0.88885 0.0
C2710 C 0.72041 0.84086 0.85944 0.0
C2711 C 0.70085 0.83156 0.85941 0.0
C2712 C 0.69102 0.81693 0.87393 0.0
H2713 H 0.61671 0.83894 0.78371 0.0
H2714 H 0.63379 0.83041 0.80898 0.0
C2715 C 0.70058 0.81193 0.88854 0.0
C2716 C 0.69071 0.83689 0.84392 0.0
H2717 H 0.65966 0.85257 0.84045 0.0
C2718 C 0.69316 0.83535 0.82192 0.0
C2719 C 0.67859 0.8433 0.85069 0.0
C2720 C 0.676 0.84602 0.87408 0.0
C2721 C 0.68353 0.8397 0.80652 0.0
C2722 C 0.67137 0.84606 0.8133 0.0
C2723 C 0.66895 0.84764 0.83529 0.0
C2724 C 0.66109 0.85125 0.79784 0.0
C2725 C 0.68613 0.83703 0.78313 0.0
C2726 C 0.67077 0.86597 0.78338 0.0
C2727 C 0.66105 0.87095 0.76898 0.0
C2728 C 0.64142 0.86139 0.76882 0.0
C2729 C 0.63179 0.84675 0.7835 0.0
C2730 C 0.64153 0.84178 0.7979 0.0
H2731 H 0.69197 0.82765 0.78085 0.0
H2732 H 0.67271 0.83118 0.77431 0.0
H2733 H 0.696 0.85073 0.77594 0.0
H2734 H 0.68586 0.87376 0.78339 0.0
H2735 H 0.66894 0.88251 0.75822 0.0
H2736 H 0.22254 0.89579 0.90854 0.0
H2737 H 0.21558 0.87023 0.88375 0.0
H2738 H 0.17172 0.87679 0.85528 0.0
H2739 H 0.17869 0.90239 0.87988 0.0
H2740 H 0.18385 0.83681 0.87755 0.0
H2741 H 0.20157 0.87871 0.80317 0.0
H2742 H 0.20769 0.88921 0.8294 0.0
H2743 H 0.18448 0.88046 0.81905 0.0
C2744 C 0.21136 0.89174 0.89707 0.0
C2745 C 0.20127 0.90125 0.89609 0.0
C2746 C 0.20745 0.87717 0.88285 0.0
C2747 C 0.19338 0.87183 0.86735 0.0
C2748 C 0.183 0.88101 0.86667 0.0
H2749 H 0.13987 0.78584 0.77258 0.0
H2750 H 0.1495 0.81116 0.79827 0.0
C2751 C 0.18698 0.89564 0.88079 0.0
C2752 C 0.18933 0.85646 0.85213 0.0
H2753 H 0.18525 0.84566 0.79886 0.0
C2754 C 0.18433 0.83878 0.86035 0.0
C2755 C 0.19006 0.85906 0.82966 0.0
C2756 C 0.19642 0.87793 0.81977 0.0
C2757 C 0.17944 0.82351 0.84671 0.0
C2758 C 0.17969 0.82604 0.8243 0.0
C2759 C 0.18499 0.84376 0.81607 0.0
C2760 C 0.17389 0.81035 0.80907 0.0
C2761 C 0.17349 0.80465 0.85634 0.0
C2762 C 0.18448 0.80153 0.80655 0.0
C2763 C 0.17912 0.78709 0.79163 0.0
C2764 C 0.16306 0.78124 0.77894 0.0
C2765 C 0.15246 0.7901 0.78173 0.0
C2766 C 0.15788 0.80454 0.79653 0.0
H2767 H 0.17087 0.80432 0.87383 0.0
H2768 H 0.16065 0.79372 0.8484 0.0
H2769 H 0.18465 0.80115 0.85381 0.0
H2770 H 0.19706 0.806 0.81586 0.0
H2771 H 0.18778 0.78083 0.78978 0.0
H2772 H 0.12696 0.29507 0.89511 0.0
H2773 H 0.15798 0.31349 0.87877 0.0
H2774 H 0.13289 0.32249 0.82284 0.0
H2775 H 0.10216 0.30422 0.83887 0.0
H2776 H 0.17177 0.30854 0.8389 0.0
H2777 H 0.17179 0.37549 0.84121 0.0
H2778 H 0.15568 0.3554 0.85663 0.0
H2779 H 0.15152 0.3569 0.82862 0.0
C2780 C 0.12812 0.30092 0.8793 0.0
C2781 C 0.11216 0.29848 0.86845 0.0
C2782 C 0.1458 0.31146 0.87003 0.0
C2783 C 0.14772 0.3197 0.84982 0.0
C2784 C 0.13176 0.31671 0.8387 0.0
H2785 H 0.23819 0.38859 0.76292 0.0
H2786 H 0.20776 0.36895 0.77983 0.0
C2787 C 0.11419 0.30628 0.84793 0.0
C2788 C 0.16632 0.33135 0.84006 0.0
H2789 H 0.19539 0.37485 0.82014 0.0
C2790 C 0.17704 0.32308 0.83496 0.0
C2791 C 0.17307 0.35028 0.83485 0.0
C2792 C 0.16251 0.36012 0.84078 0.0
C2793 C 0.19417 0.33315 0.82429 0.0
C2794 C 0.20082 0.35203 0.8189 0.0
C2795 C 0.19016 0.36033 0.82414 0.0
C2796 C 0.21912 0.36363 0.80845 0.0
C2797 C 0.20483 0.3234 0.81845 0.0
C2798 C 0.23551 0.36735 0.8191 0.0
C2799 C 0.25283 0.37859 0.80959 0.0
C2800 C 0.25416 0.38644 0.7892 0.0
C2801 C 0.23768 0.38285 0.77864 0.0
C2802 C 0.2203 0.37157 0.78823 0.0
H2803 H 0.19576 0.308 0.81867 0.0
H2804 H 0.21119 0.32773 0.80232 0.0
H2805 H 0.21621 0.3272 0.83023 0.0
H2806 H 0.23493 0.36176 0.83495 0.0
H2807 H 0.26518 0.3814 0.81849 0.0
H2808 H 0.86681 0.62033 0.68591 0.0
H2809 H 0.85808 0.63733 0.6606 0.0
H2810 H 0.86549 0.67669 0.71013 0.0
H2811 H 0.87412 0.65983 0.73543 0.0
H2812 H 0.82919 0.64562 0.66251 0.0
H2813 H 0.89809 0.7104 0.66178 0.0
H2814 H 0.89477 0.68871 0.67252 0.0
H2815 H 0.8886 0.70306 0.68814 0.0
C2816 C 0.86647 0.63254 0.69143 0.0
C2817 C 0.87137 0.63882 0.71266 0.0
C2818 C 0.86156 0.64228 0.67693 0.0
C2819 C 0.86152 0.65851 0.68336 0.0
C2820 C 0.86593 0.66452 0.70465 0.0
H2821 H 0.83408 0.73711 0.6262 0.0
H2822 H 0.84312 0.71938 0.64982 0.0
C2823 C 0.87086 0.65484 0.71911 0.0
C2824 C 0.8566 0.66905 0.66799 0.0
H2825 H 0.87296 0.71205 0.64547 0.0
C2826 C 0.8388 0.6601 0.65864 0.0
C2827 C 0.86916 0.68795 0.66298 0.0
C2828 C 0.88879 0.69807 0.67171 0.0
C2829 C 0.83303 0.66968 0.64486 0.0
C2830 C 0.84552 0.68864 0.64006 0.0
C2831 C 0.86338 0.69754 0.64925 0.0
C2832 C 0.84031 0.69951 0.62556 0.0
C2833 C 0.81345 0.65959 0.636 0.0
C2834 C 0.83608 0.69444 0.60398 0.0
C2835 C 0.83103 0.7046 0.5904 0.0
C2836 C 0.83017 0.72014 0.59809 0.0
C2837 C 0.83476 0.72537 0.61966 0.0
C2838 C 0.83983 0.71519 0.63323 0.0
H2839 H 0.80429 0.64672 0.64521 0.0
H2840 H 0.80719 0.66872 0.63617 0.0
H2841 H 0.81383 0.65553 0.61916 0.0
H2842 H 0.83679 0.68265 0.5976 0.0
H2843 H 0.82796 0.70038 0.57382 0.0
H2844 H 0.35786 0.23191 0.72035 0.0
H2845 H 0.34184 0.20571 0.69572 0.0
H2846 H 0.39438 0.21037 0.67846 0.0
H2847 H 0.41055 0.23637 0.70341 0.0
H2848 H 0.36999 0.20685 0.64294 0.0
H2849 H 0.33418 0.15255 0.70532 0.0
H2850 H 0.33152 0.17272 0.70772 0.0
H2851 H 0.35414 0.17507 0.71114 0.0
C2852 C 0.36604 0.22729 0.71154 0.0
C2853 C 0.38554 0.23626 0.71406 0.0
C2854 C 0.35684 0.21231 0.69742 0.0
C2855 C 0.3669 0.20595 0.68551 0.0
C2856 C 0.38636 0.21505 0.68759 0.0
H2857 H 0.33614 0.11973 0.58855 0.0
H2858 H 0.35295 0.14593 0.6131 0.0
C2859 C 0.3956 0.23 0.70178 0.0
C2860 C 0.35709 0.18991 0.67074 0.0
H2861 H 0.32544 0.14333 0.66933 0.0
C2862 C 0.36031 0.19293 0.64867 0.0
C2863 C 0.34444 0.17182 0.67831 0.0
C2864 C 0.34091 0.16771 0.70192 0.0
C2865 C 0.3509 0.17837 0.63388 0.0
C2866 C 0.33826 0.16023 0.64144 0.0
C2867 C 0.33511 0.15723 0.66355 0.0
C2868 C 0.32809 0.14417 0.62669 0.0
C2869 C 0.35419 0.18269 0.61027 0.0
C2870 C 0.30852 0.13406 0.62664 0.0
C2871 C 0.29887 0.11897 0.61273 0.0
C2872 C 0.30862 0.11367 0.59859 0.0
C2873 C 0.32823 0.12366 0.59894 0.0
C2874 C 0.33786 0.13867 0.61293 0.0
H2875 H 0.36 0.19779 0.60704 0.0
H2876 H 0.36439 0.17875 0.60439 0.0
H2877 H 0.34108 0.17472 0.60099 0.0
H2878 H 0.30069 0.138 0.63719 0.0
H2879 H 0.28379 0.11171 0.61274 0.0
H2880 H 0.90695 0.22297 0.59219 0.0
H2881 H 0.88053 0.21335 0.61637 0.0
H2882 H 0.88043 0.16226 0.62977 0.0
H2883 H 0.90664 0.17158 0.60535 0.0
H2884 H 0.84459 0.1803 0.61439 0.0
H2885 H 0.88255 0.18475 0.68962 0.0
H2886 H 0.89441 0.19568 0.665 0.0
H2887 H 0.88467 0.17103 0.66871 0.0
C2888 C 0.90126 0.20962 0.60012 0.0
C2889 C 0.90904 0.1981 0.59682 0.0
C2890 C 0.8862 0.20419 0.61402 0.0
C2891 C 0.87869 0.18722 0.62505 0.0
C2892 C 0.88626 0.17559 0.62172 0.0
H2893 H 0.7903 0.13032 0.71773 0.0
H2894 H 0.81577 0.13966 0.69217 0.0
C2895 C 0.9013 0.18098 0.60777 0.0
C2896 C 0.86277 0.18156 0.63982 0.0
H2897 H 0.84986 0.17175 0.69222 0.0
C2898 C 0.84572 0.17849 0.63143 0.0
C2899 C 0.86433 0.17921 0.66201 0.0
C2900 C 0.8825 0.18298 0.67198 0.0
C2901 C 0.83004 0.17273 0.6446 0.0
C2902 C 0.8316 0.17038 0.66681 0.0
C2903 C 0.84868 0.17353 0.67519 0.0
C2904 C 0.81567 0.16452 0.6817 0.0
C2905 C 0.81184 0.16877 0.63453 0.0
C2906 C 0.80719 0.17542 0.68438 0.0
C2907 C 0.7926 0.1701 0.699 0.0
C2908 C 0.78638 0.15388 0.71141 0.0
C2909 C 0.7949 0.143 0.70863 0.0
C2910 C 0.80941 0.14827 0.69396 0.0
H2911 H 0.81168 0.16637 0.617 0.0
H2912 H 0.79989 0.15638 0.64194 0.0
H2913 H 0.80986 0.18093 0.63703 0.0
H2914 H 0.81209 0.18825 0.67546 0.0
H2915 H 0.78656 0.17895 0.70101 0.0
H2916 H 0.99572 0.52815 0.41819 0.0
H2917 H 1.01264 0.51922 0.44317 0.0
H2918 H 0.97524 0.51452 0.49388 0.0
H2919 H 0.95819 0.5234 0.46893 0.0
H2920 H 0.03124 0.53672 0.47983 0.0
H2921 H 0.97435 0.46524 0.49858 0.0
H2922 H 0.97307 0.47854 0.47641 0.0
H2923 H 0.96822 0.48289 0.5032 0.0
C2924 C 0.99109 0.52525 0.43466 0.0
C2925 C 0.97555 0.52645 0.44154 0.0
C2926 C 1.00075 0.52007 0.44891 0.0
C2927 C 0.99507 0.51594 0.47033 0.0
C2928 C 0.97961 0.51719 0.4773 0.0
H2929 H 0.03858 0.48914 0.5827 0.0
H2930 H 0.02154 0.49738 0.55715 0.0
C2931 C 0.96987 0.52229 0.46302 0.0
C2932 C 1.00574 0.51095 0.48549 0.0
H2933 H 1.00168 0.47711 0.52003 0.0
C2934 C 0.0248 0.52364 0.48853 0.0
C2935 C 0.99733 0.49387 0.49682 0.0
C2936 C 0.97717 0.47926 0.49348 0.0
C2937 C 0.03559 0.51987 0.50288 0.0
C2938 C 0.02715 0.50287 0.51432 0.0
C2939 C 1.00811 0.49016 0.51126 0.0
C2940 C 0.03777 0.49806 0.52971 0.0
C2941 C 0.05584 0.5343 0.50606 0.0
C2942 C 0.05248 0.49556 0.52274 0.0
C2943 C 0.06221 0.4907 0.53732 0.0
C2944 C 0.05735 0.48816 0.55916 0.0
C2945 C 0.04258 0.49071 0.56602 0.0
C2946 C 0.03286 0.49552 0.55144 0.0
H2947 H 0.05909 0.54818 0.4999 0.0
H2948 H 0.05969 0.53565 0.52328 0.0
H2949 H 0.06466 0.52991 0.49731 0.0
H2950 H 0.05628 0.49712 0.50597 0.0
H2951 H 0.07326 0.48856 0.53136 0.0
H2952 H 0.55649 0.56417 0.56523 0.0
H2953 H 0.54792 0.53846 0.54007 0.0
H2954 H 0.50592 0.5484 0.51243 0.0
H2955 H 0.51438 0.57404 0.53746 0.0
H2956 H 0.51408 0.50613 0.53425 0.0
H2957 H 0.53509 0.54852 0.45998 0.0
H2958 H 0.54201 0.55877 0.48627 0.0
H2959 H 0.51906 0.55176 0.47622 0.0
C2960 C 0.54539 0.56083 0.55385 0.0
C2961 C 0.53624 0.57128 0.55325 0.0
C2962 C 0.54056 0.5462 0.53943 0.0
C2963 C 0.52653 0.54174 0.52411 0.0
C2964 C 0.51714 0.55191 0.52373 0.0
H2965 H 0.4727 0.4571 0.4265 0.0
H2966 H 0.48223 0.48278 0.45183 0.0
C2967 C 0.522 0.56658 0.53807 0.0
C2968 C 0.5214 0.52619 0.50886 0.0
H2969 H 0.51768 0.51562 0.45556 0.0
C2970 C 0.51498 0.50821 0.51705 0.0
C2971 C 0.52259 0.52895 0.48642 0.0
C2972 C 0.53023 0.54806 0.47666 0.0
C2973 C 0.50931 0.49284 0.50339 0.0
C2974 C 0.51033 0.49558 0.48096 0.0
C2975 C 0.51685 0.51356 0.47277 0.0
C2976 C 0.50464 0.47996 0.46569 0.0
C2977 C 0.50185 0.47372 0.51305 0.0
C2978 C 0.51424 0.47002 0.46491 0.0
C2979 C 0.5089 0.45539 0.45035 0.0
C2980 C 0.49389 0.45047 0.4362 0.0
C2981 C 0.48442 0.46061 0.43695 0.0
C2982 C 0.48979 0.47524 0.4515 0.0
H2983 H 0.49789 0.47335 0.53011 0.0
H2984 H 0.4895 0.46317 0.50402 0.0
H2985 H 0.51277 0.4697 0.51226 0.0
H2986 H 0.526 0.4737 0.47542 0.0
H2987 H 0.51676 0.44817 0.44997 0.0
H2988 H 0.57709 0.07634 0.45327 0.0
H2989 H 0.55287 0.0602 0.48029 0.0
H2990 H 0.54741 1.00775 0.46092 0.0
H2991 H 0.57205 0.02378 0.43456 0.0
H2992 H 0.5164 0.03305 0.4743 0.0
H2993 H 0.55225 1.00579 0.52524 0.0
H2994 H 0.56438 0.02363 0.50531 0.0
H2995 H 0.55128 0.9995 0.49759 0.0
C2996 C 0.57101 0.06143 0.45499 0.0
C2997 C 0.57663 0.05141 0.44169 0.0
C2998 C 0.55704 0.05219 0.47036 0.0
C2999 C 0.54851 0.03279 0.47286 0.0
C3000 C 0.55405 0.02277 0.45961 0.0
H3001 H 0.45555 0.94701 0.54391 0.0
H3002 H 0.48156 0.96522 0.5195 0.0
C3003 C 0.56801 0.03196 0.44431 0.0
C3004 C 0.53327 0.02288 0.48868 0.0
H3005 H 0.51956 0.99275 0.53103 0.0
C3006 C 0.51716 0.02439 0.48684 0.0
C3007 C 0.53427 0.01156 0.50503 0.0
C3008 C 0.55155 0.01014 0.50859 0.0
C3009 C 0.50184 0.01447 0.50052 0.0
C3010 C 0.50273 1.00291 0.51659 0.0
C3011 C 0.51889 1.00156 0.51861 0.0
C3012 C 0.48696 0.99198 0.53139 0.0
C3013 C 0.48461 0.01604 0.49733 0.0
C3014 C 0.48151 1.001 0.5463 0.0
C3015 C 0.46665 0.99064 0.56025 0.0
C3016 C 0.45693 0.97103 0.55956 0.0
C3017 C 0.46254 0.96206 0.54467 0.0
C3018 C 0.47747 0.97244 0.53081 0.0
H3019 H 0.48465 0.02232 0.48159 0.0
H3020 H 0.47184 1.00213 0.49846 0.0
H3021 H 0.48393 0.02499 0.51009 0.0
H3022 H 0.4888 0.01607 0.54719 0.0
H3023 H 0.46261 0.99799 0.57139 0.0
H3024 H 0.51052 0.94141 0.03672 0.0
H3025 H 0.50128 0.95651 0.00948 0.0
H3026 H 0.54601 0.01022 0.02939 0.0
H3027 H 0.55572 0.99527 0.05604 0.0
H3028 H 0.49007 0.98273 0.01537 0.0
H3029 H 0.55347 0.01185 0.96486 0.0
H3030 H 0.54823 0.99411 0.98479 0.0
H3031 H 0.55842 0.01816 0.99257 0.0
C3032 C 0.51858 0.9564 0.03509 0.0
C3033 C 0.53392 0.9671 0.04859 0.0
C3034 C 0.5132 0.96502 0.0196 0.0
C3035 C 0.52312 0.98447 0.01719 0.0
C3036 C 0.53836 0.99517 0.03067 0.0
H3037 H 0.51358 0.06788 0.94446 0.0
H3038 H 0.52173 0.05021 0.96927 0.0
C3039 C 0.54375 0.98659 0.04612 0.0
C3040 C 0.51722 0.99371 0.00113 0.0
H3041 H 0.53277 0.02356 0.95852 0.0
C3042 C 0.49932 0.99151 0.0028 0.0
C3043 C 0.52933 1.00517 0.98474 0.0
C3044 C 0.54837 1.00735 0.98145 0.0
C3045 C 0.49341 1.00092 0.98894 0.0
C3046 C 0.50566 0.01264 0.97283 0.0
C3047 C 0.52345 0.01463 0.97096 0.0
C3048 C 0.50039 0.0232 0.95794 0.0
C3049 C 0.47434 0.9987 0.99204 0.0
C3050 C 0.48578 0.01386 0.94324 0.0
C3051 C 0.48104 0.02392 0.92907 0.0
C3052 C 0.49084 0.04353 0.92933 0.0
C3053 C 0.50554 0.05282 0.94404 0.0
C3054 C 0.51031 0.04274 0.95814 0.0
H3055 H 0.46832 0.99255 0.00789 0.0
H3056 H 0.47492 0.01234 0.99057 0.0
H3057 H 0.4648 0.98932 0.97946 0.0
H3058 H 0.47812 0.99878 0.94262 0.0
H3059 H 0.46958 0.01634 0.91806 0.0
H3060 H 0.96113 0.43891 0.95578 0.0
H3061 H 0.9799 0.46539 0.97917 0.0
H3062 H 1.01129 0.49784 0.92469 0.0
H3063 H 0.99211 0.4716 0.90101 0.0
H3064 H 0.01824 0.48371 0.98561 0.0
H3065 H 0.99598 0.53229 0.95392 0.0
H3066 H 0.98354 0.50767 0.948 0.0
H3067 H 1.00486 0.52294 0.93422 0.0
C3068 C 0.97179 0.45175 0.94866 0.0
C3069 C 0.97496 0.45313 0.92642 0.0
C3070 C 0.98262 0.46684 0.96211 0.0
C3071 C 0.99683 0.48367 0.95365 0.0
C3072 C 1.00018 0.48509 0.93152 0.0
H3073 H 0.07281 0.58837 0.01918 0.0
H3074 H 0.05809 0.5637 0.99214 0.0
C3075 C 0.98932 0.46999 0.91803 0.0
C3076 C 1.00833 0.4995 0.96818 0.0
H3077 H 0.01955 0.54411 0.9804 0.0
C3078 C 0.01856 0.49693 0.98445 0.0
C3079 C 1.0088 0.51677 0.96656 0.0
C3080 C 0.9976 0.52012 0.94987 0.0
C3081 C 0.02913 0.51111 -0.00077 0.0
C3082 C 0.02927 0.52822 -0.0021 0.0
C3083 C 0.01942 0.53097 0.98134 0.0
C3084 C 0.03868 0.543 0.01426 0.0
C3085 C 0.04011 0.50767 0.01614 0.0
C3086 C 0.03256 0.53956 0.03557 0.0
C3087 C 0.04093 0.55356 0.05099 0.0
C3088 C 0.05557 0.57136 0.04541 0.0
C3089 C 0.06173 0.57476 0.02403 0.0
C3090 C 0.05327 0.56073 0.00856 0.0
H3091 H 0.04274 0.49625 0.01145 0.0
H3092 H 0.05369 0.52046 0.01923 0.0
H3093 H 0.03206 0.50356 0.0313 0.0
H3094 H 0.02113 0.52607 0.04025 0.0
H3095 H 0.03596 0.55041 0.06732 0.0
H3096 H 0.45515 0.51876 0.03837 0.0
H3097 H 0.47869 0.52599 0.01069 0.0
H3098 H 0.48513 0.48 0.03194 0.0
H3099 H 0.46115 0.47215 0.05885 0.0
H3100 H 0.51529 0.53573 0.01452 0.0
H3101 H 0.47769 0.47002 0.9685 0.0
H3102 H 0.46638 0.47658 0.98857 0.0
H3103 H 0.47996 0.46602 -0.00371 0.0
C3104 C 0.46134 0.50998 0.03698 0.0
C3105 C 0.45608 0.49479 0.05092 0.0
C3106 C 0.47491 0.51423 0.02121 0.0
C3107 C 0.48346 0.50334 0.01896 0.0
C3108 C 0.47844 0.48836 0.033 0.0
H3109 H 0.57467 0.50745 0.9475 0.0
H3110 H 0.54953 0.50126 0.97265 0.0
C3111 C 0.46486 0.48405 0.04866 0.0
C3112 C 0.49802 0.50789 0.00241 0.0
H3113 H 0.51024 0.48912 0.96107 0.0
C3114 C 0.51409 0.52561 0.00268 0.0
C3115 C 0.49645 0.4947 0.98691 0.0
C3116 C 0.47911 0.47584 0.98487 0.0
C3117 C 0.52886 0.53026 0.98835 0.0
C3118 C 0.52747 0.51688 0.97329 0.0
C3119 C 0.51131 0.49929 0.97276 0.0
C3120 C 0.54275 0.52082 0.95808 0.0
C3121 C 0.54609 0.54925 0.98976 0.0
C3122 C 0.54712 0.53374 0.94144 0.0
C3123 C 0.56144 0.53727 0.92702 0.0
C3124 C 0.57171 0.528 0.92901 0.0
C3125 C 0.56721 0.51501 0.94568 0.0
C3126 C 0.55279 0.51137 0.95999 0.0
H3127 H 0.54635 0.55676 0.00461 0.0
H3128 H 0.55885 0.54803 0.98926 0.0
H3129 H 0.5465 0.55775 0.97581 0.0
H3130 H 0.5394 0.54103 0.93957 0.0
H3131 H 0.56465 0.54746 0.91449 0.0
H3132 H 0.21224 0.04484 0.91295 0.0
H3133 H 0.22432 0.0773 0.92313 0.0
H3134 H 0.25237 0.0699 0.97727 0.0
H3135 H 0.24028 0.0372 0.967 0.0
H3136 H 0.21576 0.08806 0.9604 0.0
H3137 H 0.29242 0.12001 0.95365 0.0
H3138 H 0.27639 0.09788 0.94152 0.0
H3139 H 0.28167 0.0992 0.96962 0.0
C3140 C 0.22111 0.05013 0.92694 0.0
C3141 C 0.22512 0.03837 0.93933 0.0
C3142 C 0.22809 0.06875 0.93267 0.0
C3143 C 0.23935 0.07614 0.95089 0.0
C3144 C 0.24401 0.06465 0.96289 0.0
H3145 H 0.27112 0.16622 0.036 0.0
H3146 H 0.26943 0.14157 0.01315 0.0
C3147 C 0.23706 0.04595 0.95707 0.0
C3148 C 0.24452 0.09521 0.95837 0.0
H3149 H 0.28125 0.1375 0.97282 0.0
C3150 C 0.2301 0.09897 0.96281 0.0
C3151 C 0.26322 0.10944 0.96151 0.0
C3152 C 0.27934 0.10654 0.95614 0.0
C3153 C 0.23377 0.11622 0.97115 0.0
C3154 C 0.25246 0.13035 0.97478 0.0
C3155 C 0.26694 0.12677 0.96983 0.0
C3156 C 0.25695 0.14784 0.9863 0.0
C3157 C 0.21752 0.11879 0.97709 0.0
C3158 C 0.25146 0.16032 0.97841 0.0
C3159 C 0.25252 0.17461 0.99153 0.0
C3160 C 0.25909 0.17651 0.01263 0.0
C3161 C 0.266 0.16502 0.01975 0.0
C3162 C 0.26504 0.15091 0.00671 0.0
H3163 H 0.20408 0.10541 0.97697 0.0
H3164 H 0.21957 0.12511 0.99325 0.0
H3165 H 0.21645 0.12831 0.9654 0.0
H3166 H 0.24545 0.15839 0.96255 0.0
H3167 H 0.24693 0.18318 0.98578 0.0
H3168 H 0.84278 0.07218 -0.00029 0.0
H3169 H 0.86665 0.09418 0.97455 0.0
H3170 H 0.89764 0.12952 0.02763 0.0
H3171 H 0.87401 0.10827 0.05226 0.0
H3172 H 0.89875 0.14996 0.9939 0.0
H3173 H 0.91641 0.09606 0.96897 0.0
H3174 H 0.89306 0.09121 0.96368 0.0
H3175 H 0.90073 0.0923 0.99084 0.0
C3176 C 0.85451 0.08487 0.00581 0.0
C3177 C 0.8567 0.08837 0.02794 0.0
C3178 C 0.86823 0.09732 0.9915 0.0
C3179 C 0.88418 0.11335 -0.00075 0.0
C3180 C 0.88558 0.11728 0.0212 0.0
H3181 H 0.99908 0.17101 0.97085 0.0
H3182 H 0.96665 0.15054 0.98167 0.0
C3183 C 0.87205 0.105 0.03532 0.0
C3184 C 0.90034 0.12563 0.9854 0.0
H3185 H 0.93705 0.12683 0.95905 0.0
C3186 C 0.907 0.14491 0.98591 0.0
C3187 C 0.91117 0.11901 0.97519 0.0
C3188 C 0.90514 0.09855 0.97466 0.0
C3189 C 0.92466 0.1578 0.97784 0.0
C3190 C 0.93577 0.1512 0.96825 0.0
C3191 C 0.92859 0.13188 0.9665 0.0
C3192 C 0.95542 0.16396 0.96163 0.0
C3193 C 0.93171 0.17832 0.98101 0.0
C3194 C 0.96 0.17838 0.94681 0.0
C3195 C 0.9786 0.19032 0.94098 0.0
C3196 C 0.99292 0.1878 0.94949 0.0
C3197 C 0.9883 0.17326 0.9641 0.0
C3198 C 0.96978 0.16153 0.9702 0.0
H3199 H 0.9235 0.18084 0.99327 0.0
H3200 H 0.94658 0.18576 0.986 0.0
H3201 H 0.93052 0.18445 0.96571 0.0
H3202 H 0.94919 0.18026 0.9395 0.0
H3203 H 0.98172 0.20115 0.92929 0.0
H3204 H 0.95286 0.79327 0.00385 0.0
H3205 H 0.92771 0.79143 0.98132 0.0
H3206 H 0.88956 0.73783 0.0086 0.0
H3207 H 0.91475 0.73974 0.03119 0.0
H3208 H 0.89781 0.76355 0.95192 0.0
H3209 H 0.87256 0.77516 0.02992 0.0
H3210 H 0.89579 0.77875 0.0267 0.0
H3211 H 0.8762 0.75554 0.0281 0.0
C3212 C 0.93936 0.78065 0.00411 0.0
C3213 C 0.93578 0.76646 0.01884 0.0
C3214 C 0.92495 0.77968 0.99141 0.0
C3215 C 0.90672 0.7646 0.9935 0.0
C3216 C 0.90352 0.74961 0.0068 0.0
H3217 H 0.80802 0.77448 0.96397 0.0
H3218 H 0.82669 0.76027 0.97455 0.0
C3219 C 0.91794 0.75059 0.01948 0.0
C3220 C 0.8909 0.76606 0.98447 0.0
H3221 H 0.85696 0.77586 -0.00095 0.0
C3222 C 0.8887 0.76599 0.96219 0.0
C3223 C 0.87897 0.76918 -0.00208 0.0
C3224 C 0.88096 0.7698 0.02199 0.0
C3225 C 0.87513 0.76935 0.95298 0.0
C3226 C 0.86383 0.77344 0.96642 0.0
C3227 C 0.86555 0.77272 0.98872 0.0
C3228 C 0.85162 0.78042 0.95789 0.0
C3229 C 0.87313 0.76859 0.92894 0.0
C3230 C 0.8593 0.79638 0.94494 0.0
C3231 C 0.84866 0.80439 0.93879 0.0
C3232 C 0.83009 0.79688 0.94572 0.0
C3233 C 0.82221 0.78059 0.95825 0.0
C3234 C 0.8329 0.77249 0.96437 0.0
H3235 H 0.87706 0.75871 0.92191 0.0
H3236 H 0.85865 0.7643 0.92397 0.0
H3237 H 0.88267 0.78258 0.92219 0.0
H3238 H 0.87379 0.8031 0.94015 0.0
H3239 H 0.85516 0.81671 0.92882 0.0
H3240 H 0.18833 0.26441 0.47397 0.0
H3241 H 0.165 0.2646 0.49827 0.0
H3242 H 0.13003 0.20529 0.48952 0.0
H3243 H 0.1531 0.20512 0.46553 0.0
H3244 H 0.12966 0.25466 0.48435 0.0
H3245 H 0.12368 0.21003 0.55285 0.0
H3246 H 0.14383 0.22026 0.53551 0.0
H3247 H 0.12322 0.1988 0.52815 0.0
C3248 C 0.17604 0.25135 0.47808 0.0
C3249 C 0.17257 0.2347 0.46813 0.0
C3250 C 0.16263 0.25148 0.49177 0.0
C3251 C 0.1458 0.23492 0.49595 0.0
C3252 C 0.14303 0.21817 0.48703 0.0
H3253 H 0.03227 0.18591 0.51432 0.0
H3254 H 0.06514 0.19728 0.50745 0.0
C3255 C 0.15623 0.21808 0.47326 0.0
C3256 C 0.12994 0.23511 0.50692 0.0
H3257 H 0.09518 0.2102 0.54292 0.0
C3258 C 0.12242 0.24539 0.49763 0.0
C3259 C 0.12045 0.22305 0.52425 0.0
C3260 C 0.12835 0.21257 0.53589 0.0
C3261 C 0.10496 0.24273 0.50401 0.0
C3262 C 0.09482 0.22951 0.5201 0.0
C3263 C 0.10292 0.22023 0.53044 0.0
C3264 C 0.07492 0.22327 0.52438 0.0
C3265 C 0.09679 0.25303 0.49253 0.0
C3266 C 0.06945 0.23421 0.53609 0.0
C3267 C 0.05049 0.22762 0.54028 0.0
C3268 C 0.03672 0.20998 0.53283 0.0
C3269 C 0.04239 0.19934 0.52073 0.0
C3270 C 0.06123 0.20587 0.51667 0.0
H3271 H 0.10628 0.26256 0.47999 0.0
H3272 H 0.08335 0.2429 0.48493 0.0
H3273 H 0.09386 0.26132 0.50423 0.0
H3274 H 0.07984 0.24768 0.54223 0.0
H3275 H 0.04669 0.23614 0.54978 0.0
H3276 H 0.79878 0.95252 0.48861 0.0
H3277 H 0.79852 0.92797 0.51075 0.0
H3278 H 0.7428 0.88944 0.48907 0.0
H3279 H 0.74306 0.91409 0.46693 0.0
H3280 H 0.77264 0.89871 0.54261 0.0
H3281 H 0.77869 0.87206 0.46281 0.0
H3282 H 0.78271 0.8954 0.46636 0.0
H3283 H 0.75939 0.87593 0.46697 0.0
C3284 C 0.78609 0.93912 0.48958 0.0
C3285 C 0.77078 0.93526 0.4765 0.0
C3286 C 0.78601 0.92504 0.50205 0.0
C3287 C 0.77073 0.90684 0.50134 0.0
C3288 C 0.75474 0.90339 0.48981 0.0
H3289 H 0.78357 0.80935 0.52736 0.0
H3290 H 0.76868 0.82771 0.51837 0.0
C3291 C 0.75479 0.91753 0.47742 0.0
C3292 C 0.77289 0.89122 0.50969 0.0
H3293 H 0.78226 0.85748 0.49303 0.0
C3294 C 0.77448 0.88949 0.53182 0.0
C3295 C 0.77523 0.87918 0.49557 0.0
C3296 C 0.77404 0.88068 0.47158 0.0
C3297 C 0.77877 0.8763 0.5402 0.0
C3298 C 0.78211 0.86493 0.52601 0.0
C3299 C 0.77972 0.86615 0.50392 0.0
C3300 C 0.78988 0.85307 0.5334 0.0
C3301 C 0.77977 0.87478 0.56418 0.0
C3302 C 0.80673 0.86112 0.54482 0.0
C3303 C 0.81516 0.85066 0.55007 0.0
C3304 C 0.80715 0.83189 0.54375 0.0
C3305 C 0.79008 0.8237 0.53262 0.0
C3306 C 0.78158 0.83421 0.5274 0.0
H3307 H 0.77038 0.87875 0.57241 0.0
H3308 H 0.77596 0.86044 0.56914 0.0
H3309 H 0.7942 0.88451 0.56966 0.0
H3310 H 0.81371 0.87573 0.54917 0.0
H3311 H 0.8281 0.85744 0.55896 0.0
H3312 H 0.11867 0.85044 0.44853 0.0
H3313 H 0.14054 0.87471 0.47265 0.0
H3314 H 0.09522 0.86419 0.51503 0.0
H3315 H 0.07318 0.83972 0.49064 0.0
H3316 H 0.11429 0.90016 0.49973 0.0
H3317 H 0.16521 0.8812 0.53073 0.0
H3318 H 0.16187 0.87793 0.50234 0.0
H3319 H 0.14277 0.86413 0.52012 0.0
C3320 C 0.11352 0.85268 0.46354 0.0
C3321 C 0.09433 0.84305 0.46794 0.0
C3322 C 0.12604 0.86658 0.47734 0.0
C3323 C 0.11961 0.87123 0.4958 0.0
C3324 C 0.10054 0.8607 0.501 0.0
H3325 H 0.17317 0.9766 0.56609 0.0
H3326 H 0.15251 0.9442 0.55568 0.0
C3327 C 0.08797 0.8466 0.48721 0.0
C3328 C 0.13215 0.88897 0.50718 0.0
H3329 H 0.17515 0.91397 0.5305 0.0
C3330 C 0.12743 0.90305 0.50684 0.0
C3331 C 0.14947 0.89288 0.5161 0.0
C3332 C 0.15507 0.87817 0.51754 0.0
C3333 C 0.13977 0.92108 0.51439 0.0
C3334 C 0.15722 0.9251 0.52307 0.0
C3335 C 0.16182 0.91092 0.52382 0.0
C3336 C 0.17082 0.94405 0.53111 0.0
C3337 C 0.13432 0.93588 0.51211 0.0
C3338 C 0.18848 0.95451 0.52158 0.0
C3339 C 0.20046 0.97308 0.52769 0.0
C3340 C 0.19491 0.9815 0.54335 0.0
C3341 C 0.17765 0.97066 0.5536 0.0
C3342 C 0.16581 0.95212 0.54767 0.0
H3343 H 0.123 0.93191 0.50014 0.0
H3344 H 0.12917 0.93785 0.52773 0.0
H3345 H 0.14643 0.94942 0.50724 0.0
H3346 H 0.19271 0.94853 0.50886 0.0
H3347 H 0.21368 0.98109 0.51955 0.0
H3348 H 0.78107 0.97788 0.03529 0.0
H3349 H 0.76733 0.94458 0.02704 0.0
H3350 H 0.81919 0.94737 0.04389 0.0
H3351 H 0.83258 0.98003 0.05298 0.0
H3352 H 0.77783 0.92903 -0.00322 0.0
H3353 H 0.78362 0.90055 0.07427 0.0
H3354 H 0.78632 0.9235 0.07191 0.0
H3355 H 0.80577 0.91991 0.06696 0.0
C3356 C 0.78939 0.97129 0.03765 0.0
C3357 C 0.80801 0.98177 0.04465 0.0
C3358 C 0.78154 0.95225 0.03286 0.0
C3359 C 0.79208 0.9433 0.03521 0.0
C3360 C 0.81054 0.95372 0.04248 0.0
H3361 H 0.80828 0.86256 0.97841 0.0
H3362 H 0.8072 0.88588 0.00145 0.0
C3363 C 0.81833 0.97261 0.0473 0.0
C3364 C 0.78469 0.92362 0.02826 0.0
H3365 H 0.78381 0.88331 0.04256 0.0
C3366 C 0.77861 0.91885 0.00699 0.0
C3367 C 0.78558 0.91021 0.04156 0.0
C3368 C 0.79048 0.91377 0.06501 0.0
C3369 C 0.77484 0.90167 -0.00175 0.0
C3370 C 0.77717 0.88891 0.01111 0.0
C3371 C 0.78212 0.89315 0.03271 0.0
C3372 C 0.77712 0.87254 0.00144 0.0
C3373 C 0.76957 0.89773 0.97492 0.0
C3374 C 0.7605 0.85681 -0.00532 0.0
C3375 C 0.76111 0.84321 0.98184 0.0
C3376 C 0.77834 0.84535 0.9755 0.0
C3377 C 0.79484 0.86044 0.98346 0.0
C3378 C 0.79423 0.87382 -0.0035 0.0
H3379 H 0.76907 0.90943 0.96686 0.0
H3380 H 0.77976 0.89504 0.9664 0.0
H3381 H 0.75567 0.88501 0.97345 0.0
H3382 H 0.74716 0.85564 -0.00172 0.0
H3383 H 0.74824 0.83195 0.9754 0.0
H3384 H 0.03795 0.85823 0.04627 0.0
H3385 H 0.07051 0.87813 0.03718 0.0
H3386 H 0.07705 0.8299 0.03063 0.0
H3387 H 0.04387 0.80958 0.03864 0.0
H3388 H 0.10235 0.88435 0.05535 0.0
H3389 H 0.09674 0.85492 0.97377 0.0
H3390 H 0.0765 0.84921 0.98983 0.0
H3391 H 0.09042 0.8386 -0.00457 0.0
C3392 C 0.0461 0.85168 0.04259 0.0
C3393 C 0.03799 0.83214 0.04274 0.0
C3394 C 0.0649 0.86319 0.03764 0.0
C3395 C 0.07626 0.85559 0.03282 0.0
C3396 C 0.0685 0.83613 0.03378 0.0
H3397 H 0.18836 0.92372 0.97655 0.0
H3398 H 0.16437 0.89927 -0.00065 0.0
C3399 C 0.04953 0.82451 0.0386 0.0
C3400 C 0.09598 0.86831 0.02625 0.0
H3401 H 0.12547 0.88059 0.98338 0.0
C3402 C 0.10748 0.88335 0.03972 0.0
C3403 C 0.10278 0.86705 0.00587 0.0
C3404 C 0.09097 0.85169 0.99027 0.0
C3405 C 0.12512 0.89753 0.033 0.0
C3406 C 0.13149 0.89669 0.0123 0.0
C3407 C 0.12056 0.88113 -0.00068 0.0
C3408 C 0.148 0.91289 0.00255 0.0
C3409 C 0.13659 0.91368 0.04778 0.0
C3410 C 0.14701 0.92885 -0.00268 0.0
C3411 C 0.16052 0.94263 0.9842 0.0
C3412 C 0.17547 0.9409 0.97639 0.0
C3413 C 0.17725 0.92562 0.98288 0.0
C3414 C 0.16347 0.91158 -0.0043 0.0
H3415 H 0.13228 0.91003 0.06475 0.0
H3416 H 0.15165 0.91829 0.04633 0.0
H3417 H 0.13464 0.92557 0.04331 0.0
H3418 H 0.13506 0.93001 0.0021 0.0
H3419 H 0.15864 0.95406 0.979 0.0
H3420 H 0.21588 0.24894 0.04013 0.0
H3421 H 0.19669 0.26236 0.02824 0.0
H3422 H 0.16354 0.21366 0.98951 0.0
H3423 H 0.1827 0.2005 0.00089 0.0
H3424 H 0.17378 0.24726 0.96835 0.0
H3425 H 0.14244 0.24419 0.04813 0.0
H3426 H 0.16749 0.25631 0.0465 0.0
H3427 H 0.1545 0.23158 0.04235 0.0
C3428 C 0.20462 0.24124 0.0289 0.0
C3429 C 0.20071 0.22356 0.02163 0.0
C3430 C 0.19355 0.24882 0.02229 0.0
C3431 C 0.17846 0.23888 0.00823 0.0
C3432 C 0.17499 0.22155 0.00047 0.0
H3433 H 0.07591 0.22789 0.97099 0.0
H3434 H 0.1021 0.22952 0.99105 0.0
C3435 C 0.18592 0.21398 0.00711 0.0
C3436 C 0.16602 0.24615 0.00138 0.0
H3437 H 0.13102 0.25342 0.0189 0.0
C3438 C 0.16465 0.24894 0.97943 0.0
C3439 C 0.15397 0.24814 0.01585 0.0
C3440 C 0.15448 0.24481 0.03953 0.0
C3441 C 0.15115 0.25294 0.97145 0.0
C3442 C 0.13881 0.25457 0.98585 0.0
C3443 C 0.14059 0.25239 0.0079 0.0
C3444 C 0.12264 0.25615 0.97794 0.0
C3445 C 0.14951 0.25427 0.9475 0.0
C3446 C 0.12521 0.27113 0.96494 0.0
C3447 C 0.11015 0.27024 0.95357 0.0
C3448 C 0.09228 0.25453 0.95535 0.0
C3449 C 0.08945 0.2404 0.96984 0.0
C3450 C 0.10447 0.24125 0.98115 0.0
H3451 H 0.15769 0.24919 0.93855 0.0
H3452 H 0.13472 0.24607 0.94232 0.0
H3453 H 0.15483 0.26903 0.94299 0.0
H3454 H 0.13905 0.2829 0.96242 0.0
H3455 H 0.11277 0.28105 0.94202 0.0
H3456 H 0.86787 0.80628 0.5068 0.0
H3457 H 0.89126 0.80449 0.4848 0.0
H3458 H 0.86286 0.74492 0.49376 0.0
H3459 H 0.83926 0.74677 0.51585 0.0
H3460 H 0.89908 0.76262 0.5081 0.0
H3461 H 0.89777 0.78712 0.4262 0.0
H3462 H 0.89697 0.80233 0.44606 0.0
H3463 H 0.87805 0.77867 0.4441 0.0
C3464 C 0.86606 0.79269 0.50306 0.0
C3465 C 0.85157 0.77662 0.51256 0.0
C3466 C 0.87948 0.79167 0.49052 0.0
C3467 C 0.87879 0.77455 0.48741 0.0
C3468 C 0.86357 0.75825 0.49572 0.0
H3469 H 0.97958 0.78168 0.42822 0.0
H3470 H 0.94631 0.76929 0.43617 0.0
C3471 C 0.84997 0.75927 0.50811 0.0
C3472 C 0.89553 0.77442 0.47893 0.0
H3473 H 0.92773 0.79197 0.43865 0.0
C3474 C 0.9051 0.7686 0.49267 0.0
C3475 C 0.90343 0.78215 0.45878 0.0
C3476 C 0.89341 0.78775 0.44285 0.0
C3477 C 0.92286 0.77151 0.48745 0.0
C3478 C 0.93136 0.78057 0.46806 0.0
C3479 C 0.92128 0.78519 0.45362 0.0
C3480 C 0.95132 0.78711 0.46363 0.0
C3481 C 0.93271 0.76548 0.5031 0.0
C3482 C 0.96512 0.80117 0.47641 0.0
C3483 C 0.98399 0.80828 0.47185 0.0
C3484 C 0.98954 0.80144 0.45444 0.0
C3485 C 0.97572 0.78706 0.44187 0.0
C3486 C 0.95675 0.78007 0.44631 0.0
H3487 H 0.92271 0.75444 0.51407 0.0
H3488 H 0.94093 0.76022 0.49458 0.0
H3489 H 0.94247 0.77762 0.51297 0.0
H3490 H 0.96126 0.80694 0.48971 0.0
H3491 H 0.99429 0.81925 0.4819 0.0
H3492 H 0.25665 0.10816 0.54421 0.0
H3493 H 0.25543 0.12984 0.51895 0.0
H3494 H 0.24542 0.09141 0.46728 0.0
H3495 H 0.24659 0.06928 0.4929 0.0
H3496 H 0.27536 0.14718 0.48053 0.0
H3497 H 0.19937 0.09911 0.46735 0.0
H3498 H 0.21182 0.0959 0.48916 0.0
H3499 H 0.21491 0.09024 0.4623 0.0
C3500 C 0.25435 0.10431 0.52744 0.0
C3501 C 0.25143 0.08688 0.52056 0.0
C3502 C 0.25378 0.11681 0.51299 0.0
C3503 C 0.25011 0.11218 0.49129 0.0
C3504 C 0.24808 0.09516 0.48404 0.0
H3505 H 0.21272 0.17066 0.40602 0.0
H3506 H 0.22433 0.15041 0.41865 0.0
C3507 C 0.24884 0.08259 0.49861 0.0
C3508 C 0.24705 0.1248 0.47709 0.0
H3509 H 0.21227 0.12923 0.45347 0.0
C3510 C 0.26165 0.1432 0.47426 0.0
C3511 C 0.22913 0.11961 0.46905 0.0
C3512 C 0.21281 0.1002 0.47214 0.0
C3513 C 0.25869 0.15666 0.46408 0.0
C3514 C 0.24056 0.15169 0.45696 0.0
C3515 C 0.22616 0.13309 0.459 0.0
C3516 C 0.23584 0.16554 0.44816 0.0
C3517 C 0.275 0.17608 0.46118 0.0
C3518 C 0.23873 0.18107 0.46033 0.0
C3519 C 0.23216 0.19277 0.45304 0.0
C3520 C 0.2223 0.18894 0.43365 0.0
C3521 C 0.22004 0.1738 0.42119 0.0
C3522 C 0.22672 0.16225 0.42835 0.0
H3523 H 0.28841 0.17606 0.46087 0.0
H3524 H 0.27371 0.18251 0.44615 0.0
H3525 H 0.27552 0.18488 0.47485 0.0
H3526 H 0.24534 0.18369 0.4759 0.0
H3527 H 0.23394 0.20421 0.46305 0.0
H3528 H 0.9575 0.17389 0.49016 0.0
H3529 H 0.93483 0.14902 0.46683 0.0
H3530 H 0.88999 0.1509 0.4996 0.0
H3531 H 0.9126 0.1758 0.52258 0.0
H3532 H 0.9112 0.11655 0.48652 0.0
H3533 H 0.86916 0.13891 0.43939 0.0
H3534 H 0.89155 0.15531 0.45071 0.0
H3535 H 0.87094 0.14528 0.46711 0.0
C3536 C 0.94289 0.1698 0.49139 0.0
C3537 C 0.93679 0.17701 0.5078 0.0
C3538 C 0.9299 0.15541 0.47826 0.0
C3539 C 0.91064 0.14806 0.48135 0.0
C3540 C 0.9047 0.15652 0.49648 0.0
H3541 H 0.81163 0.03915 0.46259 0.0
H3542 H 0.83324 0.07228 0.47075 0.0
C3543 C 0.91767 0.17084 0.50959 0.0
C3544 C 0.89696 0.12959 0.47212 0.0
H3545 H 0.85559 0.10587 0.445 0.0
C3546 C 0.89922 0.11431 0.47713 0.0
C3547 C 0.88107 0.12654 0.46027 0.0
C3548 C 0.87809 0.14241 0.45388 0.0
C3549 C 0.88595 0.09611 0.47107 0.0
C3550 C 0.87006 0.09301 0.45924 0.0
C3551 C 0.86776 0.10825 0.45409 0.0
C3552 C 0.85599 0.07396 0.45197 0.0
C3553 C 0.88882 0.08024 0.478 0.0
C3554 C 0.86134 0.06418 0.43808 0.0
C3555 C 0.84915 0.0454 0.4336 0.0
C3556 C 0.83123 0.03597 0.4427 0.0
C3557 C 0.82536 0.04608 0.45541 0.0
C3558 C 0.83769 0.06496 0.46007 0.0
H3559 H 0.89892 0.08432 0.49145 0.0
H3560 H 0.87545 0.06798 0.48303 0.0
H3561 H 0.89442 0.07599 0.46434 0.0
H3562 H 0.87522 0.07093 0.43128 0.0
H3563 H 0.85392 0.03808 0.42336 0.0
H3564 H 0.95296 0.51457 0.35817 0.0
H3565 H 0.95423 0.4913 0.33488 0.0
H3566 H 0.89584 0.46813 0.32023 0.0
H3567 H 0.8947 0.49133 0.34324 0.0
H3568 H 0.93411 0.45468 0.34472 0.0
H3569 H 0.91537 0.46396 0.2627 0.0
H3570 H 0.92338 0.4822 0.28259 0.0
H3571 H 0.89925 0.46411 0.2817 0.0
C3572 C 0.94073 0.50515 0.34896 0.0
C3573 C 0.92386 0.50501 0.35193 0.0
C3574 C 0.94138 0.49171 0.33589 0.0
C3575 C 0.92518 0.47803 0.32557 0.0
C3576 C 0.90866 0.47878 0.32748 0.0
H3577 H 0.86646 0.36749 0.28592 0.0
H3578 H 0.88014 0.39987 0.29703 0.0
C3579 C 0.908 0.4921 0.34058 0.0
C3580 C 0.9245 0.46132 0.31574 0.0
H3581 H 0.90708 0.43227 0.27258 0.0
C3582 C 0.9287 0.45001 0.32871 0.0
C3583 C 0.91746 0.45518 0.29485 0.0
C3584 C 0.9138 0.46713 0.2796 0.0
C3585 C 0.92467 0.43216 0.32199 0.0
C3586 C 0.91639 0.42554 0.30171 0.0
C3587 C 0.91331 0.43731 0.28821 0.0
C3588 C 0.90865 0.40575 0.2953 0.0
C3589 C 0.92813 0.42002 0.33715 0.0
C3590 C 0.92014 0.39815 0.29086 0.0
C3591 C 0.91229 0.37947 0.28435 0.0
C3592 C 0.89284 0.36818 0.28209 0.0
C3593 C 0.88148 0.37583 0.28705 0.0
C3594 C 0.88928 0.39437 0.29348 0.0
H3595 H 0.93286 0.42653 0.35317 0.0
H3596 H 0.91522 0.40632 0.33912 0.0
H3597 H 0.939 0.41741 0.33037 0.0
H3598 H 0.93515 0.40674 0.29205 0.0
H3599 H 0.92143 0.37406 0.28049 0.0
H3600 H 0.65649 0.49871 0.28516 0.0
H3601 H 0.62406 0.47967 0.29578 0.0
H3602 H 0.61702 0.52777 0.29293 0.0
H3603 H 0.6498 0.54712 0.28177 0.0
H3604 H 0.60139 0.50398 0.33061 0.0
H3605 H 0.5787 0.46339 0.25536 0.0
H3606 H 0.59933 0.4647 0.26646 0.0
H3607 H 0.59996 0.48562 0.25736 0.0
C3608 C 0.64808 0.5053 0.28654 0.0
C3609 C 0.65572 0.52442 0.2822 0.0
C3610 C 0.62949 0.49435 0.29265 0.0
C3611 C 0.61796 0.50217 0.29461 0.0
C3612 C 0.62563 0.52141 0.29122 0.0
H3613 H 0.50532 0.43475 0.35146 0.0
H3614 H 0.52958 0.4599 0.32952 0.0
C3615 C 0.64437 0.53246 0.28499 0.0
C3616 C 0.59808 0.48994 0.3006 0.0
H3617 H 0.55947 0.44896 0.28638 0.0
C3618 C 0.59199 0.49222 0.32074 0.0
C3619 C 0.58582 0.47463 0.28766 0.0
C3620 C 0.5912 0.47201 0.26541 0.0
C3621 C 0.57454 0.4788 0.32895 0.0
C3622 C 0.56281 0.46283 0.31655 0.0
C3623 C 0.56844 0.46118 0.29587 0.0
C3624 C 0.54618 0.44652 0.32601 0.0
C3625 C 0.56933 0.48112 0.35142 0.0
C3626 C 0.54693 0.43027 0.33023 0.0
C3627 C 0.53314 0.416 0.34258 0.0
C3628 C 0.51812 0.41751 0.35059 0.0
C3629 C 0.51652 0.43307 0.34496 0.0
C3630 C 0.5305 0.44753 0.33274 0.0
H3631 H 0.58091 0.4932 0.35979 0.0
H3632 H 0.55715 0.48328 0.35085 0.0
H3633 H 0.5653 0.46835 0.36097 0.0
H3634 H 0.55887 0.42918 0.32523 0.0
H3635 H 0.53487 0.40432 0.34712 0.0
H3636 H 0.51666 0.15409 0.2546 0.0
H3637 H 0.53738 0.1424 0.26496 0.0
H3638 H 0.49582 0.10408 0.30907 0.0
H3639 H 0.47483 0.11562 0.29837 0.0
H3640 H 0.55195 0.14533 0.30346 0.0
H3641 H 0.51229 0.07057 0.2819 0.0
H3642 H 0.50587 0.08717 0.27231 0.0
H3643 H 0.49932 0.07751 0.29881 0.0
C3644 C 0.51185 0.14305 0.26638 0.0
C3645 C 0.49416 0.13589 0.27582 0.0
C3646 C 0.52369 0.13631 0.27222 0.0
C3647 C 0.5182 0.12224 0.28769 0.0
C3648 C 0.50029 0.11464 0.29674 0.0
H3649 H 0.572 0.08484 0.37313 0.0
H3650 H 0.55028 0.08779 0.34921 0.0
C3651 C 0.48831 0.12129 0.29071 0.0
C3652 C 0.5319 0.1169 0.29565 0.0
H3653 H 0.53836 0.07988 0.30556 0.0
C3654 C 0.54908 0.13104 0.30358 0.0
C3655 C 0.5282 0.09825 0.29585 0.0
C3656 C 0.51049 0.08252 0.28656 0.0
C3657 C 0.56229 0.12704 0.31244 0.0
C3658 C 0.55841 0.10836 0.31316 0.0
C3659 C 0.54141 0.09421 0.30483 0.0
C3660 C 0.57086 0.1032 0.32487 0.0
C3661 C 0.57994 0.14278 0.32193 0.0
C3662 C 0.5895 0.10997 0.31862 0.0
C3663 C 0.60199 0.10811 0.33229 0.0
C3664 C 0.59593 0.0995 0.35234 0.0
C3665 C 0.57698 0.09145 0.35769 0.0
C3666 C 0.56455 0.09316 0.34404 0.0
H3667 H 0.57934 0.15584 0.32334 0.0
H3668 H 0.58259 0.13894 0.33806 0.0
H3669 H 0.59192 0.14563 0.31152 0.0
H3670 H 0.59462 0.11759 0.30376 0.0
H3671 H 0.61658 0.11467 0.32796 0.0
H3672 H 0.84483 0.56977 0.82116 0.0
H3673 H 0.81946 0.56798 0.84339 0.0
H3674 H 0.81842 0.61056 0.80469 0.0
H3675 H 0.84354 0.61222 0.78248 0.0
H3676 H 0.81089 0.59708 0.86541 0.0
H3677 H 0.76773 0.55915 0.7945 0.0
H3678 H 0.79068 0.56231 0.79892 0.0
H3679 H 0.78813 0.5814 0.78957 0.0
C3680 C 0.83983 0.5794 0.81817 0.0
C3681 C 0.84628 0.59134 0.80037 0.0
C3682 C 0.82523 0.57826 0.83072 0.0
C3683 C 0.81694 0.58901 0.82551 0.0
C3684 C 0.82458 0.60212 0.80894 0.0
H3685 H 0.70483 0.56936 0.85293 0.0
H3686 H 0.73684 0.58288 0.83947 0.0
C3687 C 0.83904 0.60319 0.79639 0.0
C3688 C 0.79878 0.58465 0.83506 0.0
H3689 H 0.75231 0.56371 0.82336 0.0
C3690 C 0.79806 0.58982 0.85626 0.0
C3691 C 0.78209 0.57527 0.82302 0.0
C3692 C 0.78203 0.56906 0.80028 0.0
C3693 C 0.78104 0.58589 0.86573 0.0
C3694 C 0.76426 0.57616 0.8538 0.0
C3695 C 0.76511 0.57124 0.83249 0.0
C3696 C 0.74553 0.56981 0.86335 0.0
C3697 C 0.78125 0.59245 0.88831 0.0
C3698 C 0.73975 0.55808 0.88131 0.0
C3699 C 0.72157 0.55047 0.88907 0.0
C3700 C 0.70854 0.55415 0.8789 0.0
C3701 C 0.71447 0.5663 0.86123 0.0
C3702 C 0.73276 0.57397 0.85347 0.0
H3703 H 0.79498 0.60473 0.89234 0.0
H3704 H 0.77024 0.59618 0.89072 0.0
H3705 H 0.77876 0.58112 0.89965 0.0
H3706 H 0.74911 0.55427 0.88897 0.0
H3707 H 0.71766 0.54145 0.90292 0.0
H3708 H 0.45456 0.14029 0.85276 0.0
H3709 H 0.44276 0.16119 0.84248 0.0
H3710 H 0.47777 0.20065 0.89048 0.0
H3711 H 0.48965 0.18003 0.90058 0.0
H3712 H 0.4252 0.17806 0.865 0.0
H3713 H 0.49518 0.23102 0.83535 0.0
H3714 H 0.48942 0.20752 0.8418 0.0
H3715 H 0.4948 0.22433 0.86276 0.0
C3716 C 0.45953 0.15332 0.86125 0.0
C3717 C 0.4733 0.15868 0.87717 0.0
C3718 C 0.45282 0.16526 0.85538 0.0
C3719 C 0.45971 0.18268 0.86539 0.0
C3720 C 0.47262 0.18751 0.88214 0.0
H3721 H 0.45125 0.27942 0.82448 0.0
H3722 H 0.45436 0.25795 0.8492 0.0
C3723 C 0.47942 0.17571 0.88787 0.0
C3724 C 0.45421 0.19625 0.85765 0.0
H3725 H 0.47176 0.23918 0.83458 0.0
C3726 C 0.43538 0.19146 0.85842 0.0
C3727 C 0.46751 0.21378 0.84916 0.0
C3728 C 0.48783 0.21946 0.847 0.0
C3729 C 0.42949 0.20368 0.85078 0.0
C3730 C 0.44275 0.22104 0.84189 0.0
C3731 C 0.46162 0.22599 0.84164 0.0
C3732 C 0.4373 0.23327 0.83024 0.0
C3733 C 0.40912 0.19786 0.85222 0.0
C3734 C 0.42618 0.22646 0.81182 0.0
C3735 C 0.42445 0.23865 0.79783 0.0
C3736 C 0.4337 0.25787 0.80198 0.0
C3737 C 0.44364 0.26459 0.8212 0.0
C3738 C 0.44555 0.25236 0.83519 0.0
H3739 H 0.40219 0.18787 0.86556 0.0
H3740 H 0.40719 0.21008 0.85457 0.0
H3741 H 0.40206 0.1908 0.83712 0.0
H3742 H 0.42003 0.21194 0.80734 0.0
H3743 H 0.41694 0.2332 0.78292 0.0
H3744 H 0.84129 0.30923 0.90639 0.0
H3745 H 0.82177 0.27691 0.89509 0.0
H3746 H 0.85877 0.28646 0.84203 0.0
H3747 H 0.8785 0.31895 0.85343 0.0
H3748 H 0.80325 0.26628 0.85764 0.0
H3749 H 0.84987 0.23656 0.86416 0.0
H3750 H 0.85514 0.25829 0.87674 0.0
H3751 H 0.85982 0.25764 0.84871 0.0
C3752 C 0.84537 0.30444 0.89239 0.0
C3753 C 0.86136 0.31672 0.88065 0.0
C3754 C 0.83424 0.2859 0.88603 0.0
C3755 C 0.83883 0.27915 0.86781 0.0
C3756 C 0.85513 0.2912 0.85642 0.0
H3757 H 0.78756 0.19456 0.7763 0.0
H3758 H 0.80838 0.21804 0.80175 0.0
C3759 C 0.86638 0.30979 0.86288 0.0
C3760 C 0.82558 0.26014 0.85963 0.0
H3761 H 0.82227 0.21936 0.84278 0.0
C3762 C 0.8073 0.25589 0.85475 0.0
C3763 C 0.83085 0.24656 0.85592 0.0
C3764 C 0.84994 0.24989 0.86185 0.0
C3765 C 0.79449 0.23888 0.84518 0.0
C3766 C 0.79996 0.22554 0.84072 0.0
C3767 C 0.81802 0.22951 0.84635 0.0
C3768 C 0.78815 0.20883 0.82738 0.0
C3769 C 0.77557 0.23582 0.83878 0.0
C3770 C 0.77006 0.19516 0.83365 0.0
C3771 C 0.75803 0.18154 0.819 0.0
C3772 C 0.76401 0.18157 0.79797 0.0
C3773 C 0.78256 0.19432 0.7924 0.0
C3774 C 0.7945 0.20774 0.80695 0.0
H3775 H 0.7747 0.24873 0.84017 0.0
H3776 H 0.77224 0.23073 0.82201 0.0
H3777 H 0.76477 0.2251 0.84934 0.0
H3778 H 0.76497 0.19557 0.84949 0.0
H3779 H 0.74377 0.17192 0.82362 0.0
H3780 H 0.42391 0.19417 0.27861 0.0
H3781 H 0.42648 0.21761 0.30408 0.0
H3782 H 0.44985 0.1968 0.35096 0.0
H3783 H 0.44729 0.17305 0.32516 0.0
H3784 H 0.41463 0.21801 0.3472 0.0
H3785 H 0.49169 0.25112 0.3383 0.0
H3786 H 0.47572 0.23284 0.32065 0.0
H3787 H 0.4793 0.22737 0.34743 0.0
C3788 C 0.4292 0.19429 0.29453 0.0
C3789 C 0.43557 0.18195 0.29991 0.0
C3790 C 0.43059 0.20766 0.30909 0.0
C3791 C 0.43861 0.20915 0.32928 0.0
C3792 C 0.44379 0.19598 0.33534 0.0
H3793 H 0.48725 0.31157 0.40432 0.0
H3794 H 0.47495 0.27902 0.39426 0.0
C3795 C 0.4422 0.18236 0.32072 0.0
C3796 C 0.44338 0.22584 0.34251 0.0
H3797 H 0.48036 0.26799 0.35653 0.0
C3798 C 0.429 0.22884 0.3496 0.0
C3799 C 0.46214 0.24002 0.34543 0.0
C3800 C 0.47817 0.23786 0.33748 0.0
C3801 C 0.43287 0.24577 0.35921 0.0
C3802 C 0.45162 0.26023 0.36131 0.0
C3803 C 0.46598 0.25694 0.3549 0.0
C3804 C 0.45688 0.27917 0.36929 0.0
C3805 C 0.41685 0.24801 0.36692 0.0
C3806 C 0.45057 0.29009 0.35891 0.0
C3807 C 0.45755 0.30877 0.36476 0.0
C3808 C 0.47121 0.31691 0.3808 0.0
C3809 C 0.47696 0.30576 0.39166 0.0
C3810 C 0.46987 0.28712 0.38599 0.0
H3811 H 0.40441 0.2343 0.37058 0.0
H3812 H 0.42072 0.2569 0.38145 0.0
H3813 H 0.4129 0.2547 0.35413 0.0
H3814 H 0.44088 0.28444 0.34565 0.0
H3815 H 0.45301 0.3171 0.35605 0.0
H3816 H 0.8556 0.25606 0.31221 0.0
H3817 H 0.83014 0.23172 0.33376 0.0
H3818 H 0.79805 0.2592 0.32482 0.0
H3819 H 0.8232 0.28324 0.30335 0.0
H3820 H 0.79459 0.24278 0.36702 0.0
H3821 H 0.78252 0.19424 0.2992 0.0
H3822 H 0.80536 0.20606 0.31117 0.0
H3823 H 0.79713 0.21915 0.29646 0.0
C3824 C 0.84341 0.25725 0.31564 0.0
C3825 C 0.84136 0.27155 0.30629 0.0
C3826 C 0.82879 0.24324 0.3277 0.0
C3827 C 0.81208 0.24351 0.33064 0.0
C3828 C 0.81077 0.25868 0.32277 0.0
H3829 H 0.69659 0.17999 0.34412 0.0
H3830 H 0.72966 0.20066 0.33654 0.0
C3831 C 0.82519 0.27246 0.31058 0.0
C3832 C 0.79508 0.22729 0.33961 0.0
H3833 H 0.75947 0.18408 0.3257 0.0
C3834 C 0.78713 0.22976 0.35829 0.0
C3835 C 0.78521 0.21038 0.32803 0.0
C3836 C 0.79284 0.20718 0.30753 0.0
C3837 C 0.76932 0.21606 0.36523 0.0
C3838 C 0.75917 0.19958 0.35312 0.0
C3839 C 0.76739 0.19672 0.33499 0.0
C3840 C 0.73919 0.18638 0.35751 0.0
C3841 C 0.76096 0.2196 0.38485 0.0
C3842 C 0.7336 0.17132 0.37163 0.0
C3843 C 0.71461 0.15942 0.37605 0.0
C3844 C 0.70094 0.16247 0.36647 0.0
C3845 C 0.70671 0.17739 0.35201 0.0
C3846 C 0.7256 0.18917 0.34758 0.0
H3847 H 0.77113 0.23242 0.3935 0.0
H3848 H 0.74882 0.22105 0.38008 0.0
H3849 H 0.75579 0.20754 0.39594 0.0
H3850 H 0.74393 0.16895 0.37944 0.0
H3851 H 0.71067 0.14818 0.38739 0.0
H3852 H 0.88012 0.56991 0.38873 0.0
H3853 H 0.85885 0.58171 0.38005 0.0
H3854 H 0.8211 0.52938 0.34988 0.0
H3855 H 0.8422 0.51774 0.35796 0.0
H3856 H 0.84256 0.58313 0.33748 0.0
H3857 H 0.78949 0.53765 0.39669 0.0
H3858 H 0.8136 0.54344 0.39829 0.0
H3859 H 0.79783 0.52559 0.38022 0.0
C3860 C 0.86741 0.56104 0.38001 0.0
C3861 C 0.86275 0.54275 0.37435 0.0
C3862 C 0.85522 0.56775 0.37518 0.0
C3863 C 0.8382 0.55625 0.36477 0.0
C3864 C 0.83394 0.53833 0.35838 0.0
H3865 H 0.74518 0.54071 0.30035 0.0
H3866 H 0.76896 0.54068 0.3234 0.0
C3867 C 0.84605 0.53168 0.36307 0.0
C3868 C 0.82457 0.56254 0.36029 0.0
H3869 H 0.7787 0.54908 0.3678 0.0
C3870 C 0.82874 0.57611 0.3445 0.0
C3871 C 0.80658 0.55339 0.36955 0.0
C3872 C 0.80161 0.53932 0.38729 0.0
C3873 C 0.8149 0.57964 0.33647 0.0
C3874 C 0.79652 0.56948 0.34467 0.0
C3875 C 0.79276 0.55687 0.36152 0.0
C3876 C 0.78053 0.56931 0.33359 0.0
C3877 C 0.81965 0.59317 0.31816 0.0
C3878 C 0.77856 0.58521 0.33238 0.0
C3879 C 0.76468 0.58517 0.31932 0.0
C3880 C 0.75279 0.56928 0.30723 0.0
C3881 C 0.75414 0.55313 0.30955 0.0
C3882 C 0.76776 0.55311 0.32268 0.0
H3883 H 0.83409 0.59853 0.31224 0.0
H3884 H 0.8098 0.58638 0.30465 0.0
H3885 H 0.81828 0.6052 0.32351 0.0
H3886 H 0.78816 0.59781 0.34087 0.0
H3887 H 0.76409 0.59787 0.31758 0.0
H3888 H 0.66355 0.1596 0.80361 0.0
H3889 H 0.63054 0.14738 0.81087 0.0
H3890 H 0.61628 0.10378 0.76439 0.0
H3891 H 0.64959 0.11595 0.75723 0.0
H3892 H 0.60285 0.14359 0.7837 0.0
H3893 H 0.58664 0.07454 0.81639 0.0
H3894 H 0.61026 0.09315 0.81238 0.0
H3895 H 0.59632 0.08012 0.78988 0.0
C3896 C 0.65341 0.14741 0.79491 0.0
C3897 C 0.6592 0.13876 0.77984 0.0
C3898 C 0.63452 0.14043 0.79907 0.0
C3899 C 0.62087 0.12462 0.78824 0.0
C3900 C 0.62654 0.11583 0.7732 0.0
H3901 H 0.50787 0.10428 0.82489 0.0
H3902 H 0.53145 0.10586 0.79941 0.0
C3903 C 0.64556 0.12276 0.76914 0.0
C3904 C 0.60085 0.11767 0.79312 0.0
H3905 H 0.56324 0.08245 0.81855 0.0
C3906 C 0.59401 0.13007 0.79095 0.0
C3907 C 0.58931 0.09998 0.80246 0.0
C3908 C 0.59595 0.08616 0.8056 0.0
C3909 C 0.57657 0.12587 0.7993 0.0
C3910 C 0.56549 0.10861 0.80976 0.0
C3911 C 0.57171 0.09563 0.81043 0.0
C3912 C 0.54978 0.1055 0.82398 0.0
C3913 C 0.57082 0.14051 0.79837 0.0
C3914 C 0.55192 0.10413 0.84602 0.0
C3915 C 0.53866 0.10322 0.86034 0.0
C3916 C 0.52276 0.1036 0.8531 0.0
C3917 C 0.52002 0.10406 0.83092 0.0
C3918 C 0.53352 0.10507 0.81641 0.0
H3919 H 0.58193 0.15389 0.79162 0.0
H3920 H 0.55822 0.13545 0.78819 0.0
H3921 H 0.56729 0.14318 0.81464 0.0
H3922 H 0.56428 0.10442 0.8523 0.0
H3923 H 0.54113 0.10257 0.87728 0.0
H3924 H 0.85898 0.50549 0.80187 0.0
H3925 H 0.87025 0.4839 0.80898 0.0
H3926 H 0.92094 0.51959 0.7747 0.0
H3927 H 0.90953 0.54126 0.76694 0.0
H3928 H 0.88316 0.46687 0.77364 0.0
H3929 H 0.93557 0.5076 0.83678 0.0
H3930 H 0.916 0.51103 0.83174 0.0
H3931 H 0.93452 0.51897 0.8126 0.0
C3932 C 0.87248 0.50879 0.79567 0.0
C3933 C 0.88323 0.5251 0.78363 0.0
C3934 C 0.87894 0.49643 0.79986 0.0
C3935 C 0.89638 0.50011 0.79233 0.0
C3936 C 0.90744 0.51654 0.78072 0.0
H3937 H 0.93823 0.42777 0.84097 0.0
H3938 H 0.93806 0.45143 0.81714 0.0
C3939 C 0.90093 0.52895 0.77641 0.0
C3940 C 0.90253 0.48636 0.79654 0.0
H3941 H 0.92793 0.47647 0.83182 0.0
C3942 C 0.89323 0.46908 0.78605 0.0
C3943 C 0.91582 0.48934 0.81254 0.0
C3944 C 0.92612 0.50769 0.82419 0.0
C3945 C 0.89615 0.45435 0.79196 0.0
C3946 C 0.90833 0.45683 0.80916 0.0
C3947 C 0.91859 0.47453 0.81864 0.0
C3948 C 0.90835 0.44073 0.81978 0.0
C3949 C 0.88568 0.43609 0.78014 0.0
C3950 C 0.8917 0.42661 0.8287 0.0
C3951 C 0.89181 0.41324 0.84218 0.0
C3952 C 0.90854 0.41359 0.847 0.0
C3953 C 0.92508 0.42694 0.83705 0.0
C3954 C 0.92501 0.44055 0.82365 0.0
H3955 H 0.88299 0.43834 0.76327 0.0
H3956 H 0.89346 0.42839 0.78023 0.0
H3957 H 0.87198 0.42731 0.78795 0.0
H3958 H 0.87874 0.42665 0.82646 0.0
H3959 H 0.87893 0.40329 0.84997 0.0
H3960 H 0.48398 0.37156 0.76928 0.0
H3961 H 0.50615 0.40445 0.77725 0.0
H3962 H 0.54132 0.38828 0.81088 0.0
H3963 H 0.51926 0.35565 0.80354 0.0
H3964 H 0.52102 0.42247 0.81932 0.0
H3965 H 0.5759 0.42694 0.76498 0.0
H3966 H 0.5517 0.40907 0.76252 0.0
H3967 H 0.56635 0.40695 0.78227 0.0
C3968 C 0.49631 0.37498 0.77858 0.0
C3969 C 0.4999 0.36087 0.78551 0.0
C3970 C 0.50903 0.39381 0.783 0.0
C3971 C 0.52559 0.39883 0.79424 0.0
C3972 C 0.52887 0.38476 0.80173 0.0
H3973 H 0.61777 0.47713 0.86008 0.0
H3974 H 0.59452 0.45289 0.83707 0.0
C3975 C 0.51621 0.36606 0.79746 0.0
C3976 C 0.53957 0.41864 0.79863 0.0
H3977 H 0.58597 0.44998 0.79285 0.0
C3978 C 0.53512 0.42874 0.81315 0.0
C3979 C 0.55792 0.42681 0.79045 0.0
C3980 C 0.56326 0.41697 0.77402 0.0
C3981 C 0.54892 0.44618 0.82103 0.0
C3982 C 0.56757 0.45378 0.81392 0.0
C3983 C 0.57169 0.44419 0.7983 0.0
C3984 C 0.58334 0.46981 0.82503 0.0
C3985 C 0.54373 0.45569 0.83806 0.0
C3986 C 0.5854 0.48774 0.82521 0.0
C3987 C 0.59896 0.50181 0.83831 0.0
C3988 C 0.61047 0.49801 0.85144 0.0
C3989 C 0.60909 0.48044 0.85012 0.0
C3990 C 0.59577 0.46656 0.83699 0.0
H3991 H 0.52914 0.44687 0.84364 0.0
H3992 H 0.55321 0.45928 0.85206 0.0
H3993 H 0.54526 0.46884 0.83154 0.0
H3994 H 0.57611 0.49064 0.81588 0.0
H3995 H 0.5996 0.51518 0.83923 0.0
H3996 H 0.61179 0.85269 0.68089 0.0
H3997 H 0.61335 0.83014 0.65646 0.0
H3998 H 0.55334 0.79694 0.65706 0.0
H3999 H 0.55182 0.81914 0.68143 0.0
H4000 H 0.59899 0.7926 0.66955 0.0
H4001 H 0.56577 0.79525 0.5939 0.0
H4002 H 0.57558 0.81435 0.61278 0.0
H4003 H 0.55252 0.7948 0.61682 0.0
C4004 C 0.59897 0.841 0.67497 0.0
C4005 C 0.58166 0.83772 0.68269 0.0
C4006 C 0.59986 0.82805 0.66122 0.0
C4007 C 0.58345 0.81194 0.65475 0.0
C4008 C 0.56616 0.80942 0.66143 0.0
H4009 H 0.52941 0.70126 0.61878 0.0
H4010 H 0.54203 0.73364 0.62938 0.0
C4011 C 0.56529 0.82212 0.67535 0.0
C4012 C 0.584 0.79637 0.64365 0.0
H4013 H 0.56313 0.76547 0.60274 0.0
C4014 C 0.59164 0.78691 0.6546 0.0
C4015 C 0.57442 0.78898 0.62417 0.0
C4016 C 0.56677 0.79899 0.61113 0.0
C4017 C 0.58854 0.76946 0.64753 0.0
C4018 C 0.57772 0.76143 0.62891 0.0
C4019 C 0.5713 0.77156 0.61712 0.0
C4020 C 0.57074 0.74166 0.62296 0.0
C4021 C 0.59565 0.75911 0.66086 0.0
C4022 C 0.58273 0.73527 0.61608 0.0
C4023 C 0.57547 0.71658 0.60995 0.0
C4024 C 0.55613 0.7041 0.61045 0.0
C4025 C 0.54432 0.71056 0.61782 0.0
C4026 C 0.55152 0.72908 0.62394 0.0
H4027 H 0.60192 0.76633 0.6762 0.0
H4028 H 0.58414 0.74481 0.66444 0.0
H4029 H 0.60643 0.75782 0.65172 0.0
H4030 H 0.5976 0.74479 0.61502 0.0
H4031 H 0.5849 0.71207 0.60418 0.0
H4032 H 0.3215 0.8325 0.61542 0.0
H4033 H 0.28923 0.81419 0.62679 0.0
H4034 H 0.28444 0.86363 0.62769 0.0
H4035 H 0.31695 0.88226 0.61552 0.0
H4036 H 0.27041 0.83815 0.66597 0.0
H4037 H 0.24219 0.80166 0.58885 0.0
H4038 H 0.26325 0.80233 0.59742 0.0
H4039 H 0.26372 0.82367 0.59076 0.0
C4040 C 0.31364 0.83958 0.61768 0.0
C4041 C 0.32187 0.8589 0.61414 0.0
C4042 C 0.29513 0.82903 0.62426 0.0
C4043 C 0.28431 0.83746 0.62764 0.0
C4044 C 0.29252 0.85682 0.62491 0.0
H4045 H 0.1758 0.77499 0.69333 0.0
H4046 H 0.19969 0.79979 0.67086 0.0
C4047 C 0.31113 0.86746 0.61811 0.0
C4048 C 0.26464 0.82577 0.63465 0.0
H4049 H 0.22372 0.78726 0.62007 0.0
C4050 C 0.26 0.82729 0.65584 0.0
C4051 C 0.25115 0.81159 0.62138 0.0
C4052 C 0.25522 0.80975 0.59826 0.0
C4053 C 0.24266 0.81421 0.66457 0.0
C4054 C 0.22945 0.79944 0.65157 0.0
C4055 C 0.23378 0.79856 0.63003 0.0
C4056 C 0.21226 0.78356 0.66081 0.0
C4057 C 0.23918 0.81556 0.68806 0.0
C4058 C 0.21047 0.76578 0.66126 0.0
C4059 C 0.19665 0.75157 0.6737 0.0
C4060 C 0.18422 0.7548 0.68568 0.0
C4061 C 0.18492 0.77203 0.68375 0.0
C4062 C 0.19877 0.78629 0.67125 0.0
H4063 H 0.25206 0.82572 0.69664 0.0
H4064 H 0.22876 0.82018 0.68977 0.0
H4065 H 0.23352 0.80177 0.69596 0.0
H4066 H 0.22068 0.76331 0.65335 0.0
H4067 H 0.1967 0.73858 0.67545 0.0
H4068 H 0.14953 0.45012 0.64661 0.0
H4069 H 0.16979 0.43847 0.66006 0.0
H4070 H 0.20941 0.46843 0.60997 0.0
H4071 H 0.18952 0.48032 0.59691 0.0
H4072 H 0.18554 0.41832 0.64285 0.0
H4073 H 0.24082 0.49018 0.66322 0.0
H4074 H 0.21754 0.48463 0.65591 0.0
H4075 H 0.23408 0.48734 0.63556 0.0
C4076 C 0.16246 0.454 0.63838 0.0
C4077 C 0.16811 0.46641 0.62098 0.0
C4078 C 0.17404 0.44737 0.64606 0.0
C4079 C 0.19139 0.45297 0.63637 0.0
C4080 C 0.1964 0.46436 0.61813 0.0
H4081 H 0.28814 0.44513 0.67865 0.0
H4082 H 0.26528 0.44617 0.65429 0.0
C4083 C 0.18499 0.47113 0.61065 0.0
C4084 C 0.20471 0.44776 0.64585 0.0
H4085 H 0.2485 0.46649 0.66716 0.0
C4086 C 0.19931 0.42884 0.64814 0.0
C4087 C 0.22273 0.46148 0.65278 0.0
C4088 C 0.22911 0.48203 0.65196 0.0
C4089 C 0.21144 0.42332 0.65708 0.0
C4090 C 0.2294 0.43706 0.66409 0.0
C4091 C 0.23486 0.45594 0.6615 0.0
C4092 C 0.24207 0.43244 0.67624 0.0
C4093 C 0.20496 0.40283 0.65893 0.0
C4094 C 0.23652 0.4238 0.69633 0.0
C4095 C 0.24952 0.42323 0.71014 0.0
C4096 C 0.26831 0.43113 0.70413 0.0
C4097 C 0.27364 0.43849 0.68342 0.0
C4098 C 0.26062 0.43926 0.66962 0.0
H4099 H 0.19381 0.39452 0.64711 0.0
H4100 H 0.21668 0.40012 0.65652 0.0
H4101 H 0.19916 0.39793 0.67518 0.0
H4102 H 0.22247 0.41882 0.70205 0.0
H4103 H 0.24516 0.41783 0.7262 0.0
H4104 H 0.51363 0.94458 0.12418 0.0
H4105 H 0.48907 0.94459 0.14598 0.0
H4106 H 0.4817 0.89582 0.17947 0.0
H4107 H 0.50642 0.89596 0.15773 0.0
H4108 H 0.45391 0.91376 0.14156 0.0
H4109 H 0.47377 0.92529 0.22731 0.0
H4110 H 0.49077 0.93255 0.20602 0.0
H4111 H 0.47836 0.9086 0.21446 0.0
C4112 C 0.50746 0.93452 0.13703 0.0
C4113 C 0.51215 0.92054 0.1397 0.0
C4114 C 0.49332 0.93442 0.14934 0.0
C4115 C 0.48358 0.92027 0.16445 0.0
C4116 C 0.48927 0.90712 0.16826 0.0
H4117 H 0.37787 0.86383 0.22542 0.0
H4118 H 0.41005 0.87763 0.21381 0.0
C4119 C 0.50346 0.90724 0.15593 0.0
C4120 C 0.46558 0.91724 0.17318 0.0
H4121 H 0.44113 0.91089 0.21941 0.0
C4122 C 0.45119 0.91346 0.15858 0.0
C4123 C 0.46202 0.91668 0.19536 0.0
C4124 C 0.47709 0.92116 0.21172 0.0
C4125 C 0.43311 0.90826 0.16553 0.0
C4126 C 0.42939 0.90731 0.18776 0.0
C4127 C 0.44396 0.91168 0.20238 0.0
C4128 C 0.41014 0.90011 0.19608 0.0
C4129 C 0.41797 0.90281 0.14894 0.0
C4130 C 0.39946 0.90837 0.19045 0.0
C4131 C 0.38073 0.90021 0.19672 0.0
C4132 C 0.37239 0.88373 0.20895 0.0
C4133 C 0.38351 0.87614 0.21548 0.0
C4134 C 0.40209 0.88419 0.20907 0.0
H4135 H 0.42217 0.90008 0.13307 0.0
H4136 H 0.40493 0.89015 0.15396 0.0
H4137 H 0.41493 0.91434 0.14696 0.0
H4138 H 0.40549 0.92094 0.18086 0.0
H4139 H 0.37271 0.90653 0.19147 0.0
H4140 H 0.08488 0.56998 0.11633 0.0
H4141 H 0.08768 0.54877 0.1411 0.0
H4142 H 0.11949 0.59448 0.18438 0.0
H4143 H 0.1167 0.6159 0.15928 0.0
H4144 H 0.13828 0.57692 0.17106 0.0
H4145 H 0.06816 0.52348 0.19828 0.0
H4146 H 0.06908 0.52674 0.16982 0.0
H4147 H 0.07284 0.54559 0.18729 0.0
C4148 C 0.09174 0.57534 0.13159 0.0
C4149 C 0.1004 0.59449 0.13606 0.0
C4150 C 0.0933 0.56318 0.14579 0.0
C4151 C 0.10366 0.56994 0.16474 0.0
C4152 C 0.11127 0.58892 0.16995 0.0
H4153 H 0.15598 0.51895 0.23901 0.0
H4154 H 0.14307 0.53849 0.22797 0.0
C4155 C 0.10954 0.60112 0.15574 0.0
C4156 C 0.10915 0.55791 0.17676 0.0
H4157 H 0.09195 0.5147 0.19915 0.0
C4158 C 0.12817 0.56348 0.17761 0.0
C4159 C 0.09594 0.54022 0.18497 0.0
C4160 C 0.07538 0.53372 0.18524 0.0
C4161 C 0.1343 0.55162 0.1856 0.0
C4162 C 0.12108 0.53378 0.19343 0.0
C4163 C 0.10207 0.52833 0.19307 0.0
C4164 C 0.12691 0.52064 0.20175 0.0
C4165 C 0.15486 0.558 0.18468 0.0
C4166 C 0.12137 0.50359 0.19138 0.0
C4167 C 0.12867 0.49227 0.19779 0.0
C4168 C 0.14169 0.49791 0.2146 0.0
C4169 C 0.14635 0.51447 0.22566 0.0
C4170 C 0.13896 0.52564 0.21939 0.0
H4171 H 0.16242 0.56985 0.17344 0.0
H4172 H 0.16105 0.5627 0.20084 0.0
H4173 H 0.15717 0.54646 0.17966 0.0
H4174 H 0.11199 0.49941 0.17779 0.0
H4175 H 0.12483 0.47958 0.18902 0.0
H4176 H 0.44478 0.50299 0.13736 0.0
H4177 H 0.47119 0.52629 0.1585 0.0
H4178 H 0.43811 0.55058 0.17828 0.0
H4179 H 0.4119 0.52736 0.15733 0.0
H4180 H 0.48637 0.56215 0.14625 0.0
H4181 H 0.46843 0.55809 0.23187 0.0
H4182 H 0.4559 0.5387 0.21378 0.0
H4183 H 0.45013 0.55695 0.2154 0.0
C4184 C 0.44283 0.51257 0.14735 0.0
C4185 C 0.42619 0.51313 0.14617 0.0
C4186 C 0.45801 0.52606 0.1592 0.0
C4187 C 0.45668 0.5402 0.17015 0.0
C4188 C 0.43944 0.53963 0.17048 0.0
H4189 H 0.52127 0.65587 0.17559 0.0
H4190 H 0.50157 0.62259 0.1685 0.0
C4191 C 0.42438 0.52627 0.15856 0.0
C4192 C 0.47376 0.55737 0.17751 0.0
H4193 H 0.49075 0.58906 0.2184 0.0
C4194 C 0.48756 0.56777 0.16223 0.0
C4195 C 0.47547 0.5648 0.19834 0.0
C4196 C 0.46177 0.55393 0.21583 0.0
C4197 C 0.50216 0.58584 0.16673 0.0
C4198 C 0.50297 0.59383 0.18697 0.0
C4199 C 0.49002 0.58299 0.20279 0.0
C4200 C 0.51571 0.61402 0.19101 0.0
C4201 C 0.5162 0.59659 0.14946 0.0
C4202 C 0.53026 0.6203 0.20605 0.0
C4203 C 0.54169 0.63946 0.21005 0.0
C4204 C 0.53847 0.65255 0.19935 0.0
C4205 C 0.52399 0.64614 0.1842 0.0
C4206 C 0.51279 0.62712 0.18005 0.0
H4207 H 0.51679 0.58714 0.13725 0.0
H4208 H 0.51215 0.60593 0.14127 0.0
H4209 H 0.53033 0.60534 0.15639 0.0
H4210 H 0.53269 0.61039 0.21475 0.0
H4211 H 0.55262 0.64399 0.22195 0.0
H4212 H 0.1235 0.64379 0.73101 0.0
H4213 H 0.11201 0.61046 0.72447 0.0
H4214 H 0.15357 0.62497 0.67534 0.0
H4215 H 0.16505 0.65794 0.68187 0.0
H4216 H 0.09781 0.58813 0.68912 0.0
H4217 H 0.16329 0.59084 0.71271 0.0
H4218 H 0.1587 0.6095 0.71864 0.0
H4219 H 0.16768 0.60817 0.69283 0.0
C4220 C 0.13004 0.63981 0.71871 0.0
C4221 C 0.14537 0.65351 0.70716 0.0
C4222 C 0.12356 0.62078 0.71508 0.0
C4223 C 0.13231 0.61519 0.69988 0.0
C4224 C 0.14701 0.62889 0.6877 0.0
H4225 H 0.10381 0.52896 0.61552 0.0
H4226 H 0.10456 0.55247 0.63925 0.0
C4227 C 0.15352 0.64777 0.69138 0.0
C4228 C 0.12606 0.59514 0.69607 0.0
H4229 H 0.14331 0.56574 0.68854 0.0
C4230 C 0.10765 0.5831 0.68944 0.0
C4231 C 0.13865 0.58826 0.69711 0.0
C4232 C 0.15812 0.59983 0.70596 0.0
C4233 C 0.10202 0.56502 0.68199 0.0
C4234 C 0.11526 0.55895 0.68069 0.0
C4235 C 0.13316 0.57037 0.68918 0.0
C4236 C 0.11189 0.54248 0.66762 0.0
C4237 C 0.08206 0.55281 0.67499 0.0
C4238 C 0.11576 0.5288 0.67549 0.0
C4239 C 0.11541 0.51518 0.6617 0.0
C4240 C 0.11152 0.51534 0.63982 0.0
C4241 C 0.10687 0.5285 0.63232 0.0
C4242 C 0.1071 0.54189 0.64597 0.0
H4243 H 0.07254 0.55562 0.68478 0.0
H4244 H 0.08058 0.55601 0.65808 0.0
H4245 H 0.07761 0.53778 0.67627 0.0
H4246 H 0.11971 0.52909 0.69209 0.0
H4247 H 0.11924 0.50531 0.66782 0.0
H4248 H 0.3609 0.51938 0.68685 0.0
H4249 H 0.39307 0.54053 0.67556 0.0
H4250 H 0.41167 0.50909 0.713 0.0
H4251 H 0.3795 0.48774 0.72394 0.0
H4252 H 0.42421 0.56323 0.69879 0.0
H4253 H 0.43427 0.51025 0.65554 0.0
H4254 H 0.41167 0.50566 0.66448 0.0
H4255 H 0.4279 0.50509 0.6832 0.0
C4256 C 0.37185 0.51695 0.69254 0.0
C4257 C 0.36763 0.50175 0.706 0.0
C4258 C 0.39023 0.52905 0.68616 0.0
C4259 C 0.4048 0.52629 0.69321 0.0
C4260 C 0.40065 0.51127 0.70692 0.0
H4261 H 0.51989 0.6142 0.6551 0.0
H4262 H 0.49498 0.59268 0.67966 0.0
C4263 C 0.38223 0.49903 0.71311 0.0
C4264 C 0.42422 0.53912 0.68594 0.0
H4265 H 0.45946 0.54088 0.6558 0.0
C4266 C 0.43204 0.55834 0.68962 0.0
C4267 C 0.43446 0.53271 0.67404 0.0
C4268 C 0.42664 0.51233 0.66889 0.0
C4269 C 0.44938 0.57136 0.68083 0.0
C4270 C 0.45926 0.56497 0.6683 0.0
C4271 C 0.45192 0.54572 0.66562 0.0
C4272 C 0.47505 0.57779 0.65441 0.0
C4273 C 0.45644 0.59189 0.68383 0.0
C4274 C 0.47219 0.57635 0.63225 0.0
C4275 C 0.48616 0.58843 0.61844 0.0
C4276 C 0.50352 0.60236 0.62633 0.0
C4277 C 0.50666 0.60366 0.64857 0.0
C4278 C 0.49244 0.59145 0.66257 0.0
H4279 H 0.44631 0.59456 0.69251 0.0
H4280 H 0.46966 0.59822 0.69308 0.0
H4281 H 0.45944 0.59898 0.66804 0.0
H4282 H 0.45893 0.56596 0.62558 0.0
H4283 H 0.4832 0.58681 0.60143 0.0
H4284 H 0.43164 0.93617 0.64557 0.0
H4285 H 0.45675 0.93804 0.66858 0.0
H4286 H 0.43505 0.87906 0.6603 0.0
H4287 H 0.41027 0.87721 0.6374 0.0
H4288 H 0.44831 0.89345 0.70344 0.0
H4289 H 0.49941 0.93271 0.63866 0.0
H4290 H 0.48482 0.94143 0.64865 0.0
H4291 H 0.47463 0.92016 0.6336 0.0
C4292 C 0.43191 0.92355 0.64934 0.0
C4293 C 0.41901 0.90652 0.63983 0.0
C4294 C 0.44636 0.92466 0.66224 0.0
C4295 C 0.4479 0.90872 0.66588 0.0
C4296 C 0.43417 0.89153 0.65767 0.0
H4297 H 0.50628 0.85576 0.69796 0.0
H4298 H 0.48604 0.86814 0.68856 0.0
C4299 C 0.41997 0.89047 0.64466 0.0
C4300 C 0.46443 0.90971 0.67652 0.0
H4301 H 0.50903 0.91981 0.66581 0.0
C4302 C 0.46174 0.89964 0.69552 0.0
C4303 C 0.48198 0.9178 0.66617 0.0
C4304 C 0.48553 0.9286 0.64559 0.0
C4305 C 0.47573 0.8965 0.70374 0.0
C4306 C 0.49272 0.90331 0.69247 0.0
C4307 C 0.49597 0.91456 0.67436 0.0
C4308 C 0.50587 0.89653 0.69745 0.0
C4309 C 0.47189 0.88516 0.72394 0.0
C4310 C 0.52411 0.90854 0.70475 0.0
C4311 C 0.53583 0.90142 0.71025 0.0
C4312 C 0.52944 0.88221 0.70842 0.0
C4313 C 0.51148 0.87051 0.70011 0.0
C4314 C 0.49987 0.87757 0.69471 0.0
H4315 H 0.46121 0.8859 0.73398 0.0
H4316 H 0.46649 0.87034 0.71961 0.0
H4317 H 0.48479 0.88999 0.73355 0.0
H4318 H 0.52908 0.92327 0.70673 0.0
H4319 H 0.54958 0.91077 0.71662 0.0
H4320 H 0.17481 0.41545 0.18426 0.0
H4321 H 0.19866 0.41362 0.16254 0.0
H4322 H 0.22962 0.47357 0.15808 0.0
H4323 H 0.20602 0.47537 0.17972 0.0
H4324 H 0.23109 0.45409 0.11983 0.0
H4325 H 0.24859 0.43055 0.19562 0.0
H4326 H 0.22515 0.41716 0.18556 0.0
H4327 H 0.23344 0.44037 0.19527 0.0
C4328 C 0.18625 0.42813 0.17772 0.0
C4329 C 0.18852 0.44555 0.18339 0.0
C4330 C 0.2 0.4271 0.16558 0.0
C4331 C 0.21607 0.44349 0.15894 0.0
C4332 C 0.21737 0.46075 0.16298 0.0
H4333 H 0.33073 0.49336 0.14661 0.0
H4334 H 0.29768 0.47985 0.15509 0.0
C4335 C 0.20381 0.46178 0.17524 0.0
C4336 C 0.23275 0.44323 0.15054 0.0
H4337 H 0.2701 0.43962 0.16761 0.0
C4338 C 0.2394 0.45045 0.13002 0.0
C4339 C 0.24372 0.43871 0.164 0.0
C4340 C 0.23752 0.43135 0.1864 0.0
C4341 C 0.25704 0.454 0.123 0.0
C4342 C 0.26833 0.45031 0.13688 0.0
C4343 C 0.26133 0.44229 0.15696 0.0
C4344 C 0.28835 0.45735 0.13221 0.0
C4345 C 0.26406 0.46281 0.10136 0.0
C4346 C 0.29415 0.44894 0.11681 0.0
C4347 C 0.31318 0.45662 0.11202 0.0
C4348 C 0.32662 0.47294 0.12239 0.0
C4349 C 0.32071 0.48093 0.13818 0.0
C4350 C 0.30183 0.47318 0.1431 0.0
H4351 H 0.25381 0.46536 0.09272 0.0
H4352 H 0.27726 0.47627 0.10326 0.0
H4353 H 0.26714 0.45358 0.09141 0.0
H4354 H 0.28395 0.43664 0.10831 0.0
H4355 H 0.31734 0.45025 0.0997 0.0
H4356 H 0.58685 0.74055 0.15457 0.0
H4357 H 0.58547 0.76304 0.12971 0.0
H4358 H 0.60017 0.80238 0.18155 0.0
H4359 H 0.60183 0.78045 0.20587 0.0
H4360 H 0.56109 0.77508 0.13307 0.0
H4361 H 0.63086 0.83711 0.13503 0.0
H4362 H 0.62671 0.81461 0.14398 0.0
H4363 H 0.62352 0.82982 0.162 0.0
C4364 C 0.59038 0.75426 0.16034 0.0
C4365 C 0.59437 0.75876 0.18211 0.0
C4366 C 0.58952 0.76706 0.14621 0.0
C4367 C 0.59301 0.78458 0.15364 0.0
C4368 C 0.59794 0.78926 0.17517 0.0
H4369 H 0.53635 0.84296 0.14282 0.0
H4370 H 0.5489 0.82215 0.14761 0.0
C4371 C 0.59866 0.77657 0.18917 0.0
C4372 C 0.58895 0.79706 0.14032 0.0
H4373 H 0.6047 0.84333 0.13175 0.0
C4374 C 0.57083 0.78993 0.13221 0.0
C4375 C 0.60167 0.81645 0.1387 0.0
C4376 C 0.62183 0.82486 0.1452 0.0
C4377 C 0.56458 0.80181 0.12454 0.0
C4378 C 0.57661 0.82137 0.12549 0.0
C4379 C 0.59528 0.82839 0.13154 0.0
C4380 C 0.56953 0.83457 0.12249 0.0
C4381 C 0.54489 0.79328 0.1162 0.0
C4382 C 0.57755 0.84917 0.10751 0.0
C4383 C 0.57046 0.86131 0.10488 0.0
C4384 C 0.55524 0.85903 0.11723 0.0
C4385 C 0.54776 0.84482 0.13271 0.0
C4386 C 0.55488 0.83284 0.13539 0.0
H4387 H 0.54016 0.77928 0.10921 0.0
H4388 H 0.53539 0.79149 0.12966 0.0
H4389 H 0.54361 0.80222 0.10383 0.0
H4390 H 0.58905 0.85096 0.09759 0.0
H4391 H 0.57648 0.87209 0.09279 0.0
H4392 H 0.25846 0.85195 0.17645 0.0
H4393 H 0.23316 0.82836 0.15405 0.0
H4394 H 0.25993 0.79512 0.15457 0.0
H4395 H 0.28496 0.81847 0.17685 0.0
H4396 H 0.24094 0.79343 0.11485 0.0
H4397 H 0.1974 0.78009 0.18793 0.0
H4398 H 0.20858 0.80318 0.17672 0.0
H4399 H 0.22244 0.79447 0.18866 0.0
C4400 C 0.25933 0.84003 0.17087 0.0
C4401 C 0.27368 0.83704 0.17815 0.0
C4402 C 0.24478 0.82646 0.15833 0.0
C4403 C 0.24453 0.80985 0.15292 0.0
C4404 C 0.25982 0.8078 0.15852 0.0
H4405 H 0.17583 0.69541 0.14614 0.0
H4406 H 0.19634 0.7286 0.15306 0.0
C4407 C 0.27417 0.82119 0.17116 0.0
C4408 C 0.22752 0.79338 0.14434 0.0
H4409 H 0.18535 0.75766 0.16083 0.0
C4410 C 0.22854 0.78584 0.12459 0.0
C4411 C 0.21146 0.78336 0.15727 0.0
C4412 C 0.20979 0.79053 0.17889 0.0
C4413 C 0.21432 0.76816 0.1179 0.0
C4414 C 0.19874 0.7578 0.13132 0.0
C4415 C 0.19727 0.76573 0.15053 0.0
C4416 C 0.18536 0.73778 0.12731 0.0
C4417 C 0.21657 0.76011 0.09722 0.0
C4418 C 0.17211 0.73191 0.11075 0.0
C4419 C 0.16024 0.71283 0.10681 0.0
C4420 C 0.16162 0.69938 0.11925 0.0
C4421 C 0.17461 0.70541 0.13611 0.0
C4422 C 0.18627 0.72437 0.14015 0.0
H4423 H 0.22999 0.76956 0.08913 0.0
H4424 H 0.21586 0.74657 0.10035 0.0
H4425 H 0.20498 0.75743 0.08617 0.0
H4426 H 0.17111 0.74207 0.10076 0.0
H4427 H 0.15045 0.7086 0.09364 0.0
loop_
_geom_bond_atom_site_label_1
_geom_bond_atom_site_label_2
_geom_bond_distance
_geom_bond_site_symmetry_2
_ccdc_geom_bond_type
C0 C1 1.351 . S
C0 N3 1.368 . S
C0 H5 0.931 . S
C1 C0 1.351 . S
C1 N2 1.373 . S
C1 H29 0.930 . S
N2 C1 1.373 . S
N2 C4 1.340 . S
N3 C0 1.368 . S
N3 C4 1.321 . S
N3 Co6 2.135 . S
C4 N2 1.340 . S
C4 N3 1.321 . S
C4 H28 0.930 . S
H5 C0 0.931 . S
Co6 N3 2.135 . S
Co6 N9 2.121 . S
Co6 O14 2.055 . S
Co6 O17 2.039 . S
Co6 N20 2.140 . S
C7 O8 1.227 . S
C7 O17 1.265 . S
O8 C7 1.227 . S
N9 Co6 2.121 . S
N9 C11 1.375 . S
N9 C12 1.313 . S
C10 C11 1.338 . S
C10 N13 1.377 . S
C10 H30 0.930 . S
C11 N9 1.375 . S
C11 C10 1.338 . S
C11 H15 0.931 . S
C12 N9 1.313 . S
C12 N13 1.344 . S
C12 H16 0.930 . S
N13 C10 1.377 . S
N13 C12 1.344 . S
O14 Co6 2.055 . S
O14 C18 1.253 . S
H15 C11 0.931 . S
H16 C12 0.930 . S
O17 Co6 2.039 . S
O17 C7 1.265 . S
C18 O14 1.253 . S
C18 O19 1.227 . S
O19 C18 1.227 . S
N20 Co6 2.140 . S
N20 C23 1.346 . S
N20 C24 1.345 . S
C21 C22 1.387 . S
C21 C25 1.391 . S
C22 C21 1.387 . S
C22 C23 1.369 . S
C22 H31 0.929 . S
C23 N20 1.346 . S
C23 C22 1.369 . S
C23 H26 0.928 . S
C24 N20 1.345 . S
C24 C25 1.371 . S
C24 H27 0.931 . S
C25 C21 1.391 . S
C25 C24 1.371 . S
C25 H32 0.930 . S
H26 C23 0.928 . S
H27 C24 0.931 . S
H28 C4 0.930 . S
H29 C1 0.930 . S
H30 C10 0.930 . S
H31 C22 0.929 . S
H32 C25 0.930 . S
C33 C34 1.351 1_545 S
C33 N36 1.368 . S
C33 H38 0.931 . S
C34 C33 1.351 1_565 S
C34 N35 1.373 . S
C34 H62 0.930 . S
N35 C34 1.373 . S
N35 C37 1.407 . S
N36 C33 1.368 . S
N36 C37 1.274 1_545 S
N36 Co39 2.135 . S
C37 N35 1.407 . S
C37 N36 1.274 1_565 S
C37 H61 0.917 . S
H38 C33 0.931 . S
Co39 N36 2.135 . S
Co39 N42 2.121 . S
Co39 O47 2.055 . S
Co39 O50 2.039 . S
Co39 N53 2.140 . S
C40 O41 1.227 . S
C40 O50 1.265 . S
O41 C40 1.227 . S
N42 Co39 2.121 . S
N42 C44 1.375 . S
N42 C45 1.313 . S
C43 C44 1.338 . S
C43 N46 1.377 . S
C43 H63 0.930 . S
C44 N42 1.375 . S
C44 C43 1.338 . S
C44 H48 0.931 . S
C45 N42 1.313 . S
C45 N46 1.344 . S
C45 H49 0.930 . S
N46 C43 1.377 . S
N46 C45 1.344 . S
O47 Co39 2.055 . S
O47 C51 1.253 . S
H48 C44 0.931 . S
H49 C45 0.930 . S
O50 Co39 2.039 . S
O50 C40 1.265 . S
C51 O47 1.253 . S
C51 O52 1.227 . S
O52 C51 1.227 . S
N53 Co39 2.140 . S
N53 C56 1.346 . S
N53 C57 1.345 . S
C54 C55 1.387 . S
C54 C58 1.391 . S
C55 C54 1.387 . S
C55 C56 1.369 . S
C55 H64 0.929 1_545 S
C56 N53 1.346 . S
C56 C55 1.369 . S
C56 H59 0.928 . S
C57 N53 1.345 . S
C57 C58 1.371 . S
C57 H60 0.931 . S
C58 C54 1.391 . S
C58 C57 1.371 . S
C58 H65 0.930 . S
H59 C56 0.928 . S
H60 C57 0.931 . S
H61 C37 0.917 . S
H62 C34 0.930 . S
H63 C43 0.930 . S
H64 C55 0.929 1_565 S
H65 C58 0.930 . S
C66 C67 1.351 1_655 S
C66 N69 1.368 . S
C66 H71 0.931 . S
C67 C66 1.351 1_455 S
C67 N68 1.373 . S
C67 H95 0.930 . S
N68 C67 1.373 . S
N68 C70 1.352 . S
N69 C66 1.368 . S
N69 C70 1.250 1_655 S
N69 Co72 2.135 . S
C70 N68 1.352 . S
C70 N69 1.250 1_455 S
C70 H94 0.987 . S
H71 C66 0.931 . S
Co72 N69 2.135 . S
Co72 N75 2.121 . S
Co72 O80 2.055 . S
Co72 O83 2.039 . S
Co72 N86 2.140 . S
C73 O74 1.227 . S
C73 O83 1.265 . S
O74 C73 1.227 . S
N75 Co72 2.121 . S
N75 C77 1.375 . S
N75 C78 1.313 . S
C76 C77 1.338 . S
C76 N79 1.377 . S
C76 H96 0.930 . S
C77 N75 1.375 . S
C77 C76 1.338 . S
C77 H81 0.931 . S
C78 N75 1.313 . S
C78 N79 1.344 . S
C78 H82 0.930 . S
N79 C76 1.377 . S
N79 C78 1.344 . S
O80 Co72 2.055 . S
O80 C84 1.253 . S
H81 C77 0.931 . S
H82 C78 0.930 . S
O83 Co72 2.039 . S
O83 C73 1.265 . S
C84 O80 1.253 . S
C84 O85 1.227 . S
O85 C84 1.227 . S
N86 Co72 2.140 . S
N86 C89 1.346 . S
N86 C90 1.345 . S
C87 C88 1.387 . S
C87 C91 1.391 . S
C88 C87 1.387 . S
C88 C89 1.369 . S
C88 H97 0.929 1_655 S
C89 N86 1.346 . S
C89 C88 1.369 . S
C89 H92 0.928 . S
C90 N86 1.345 . S
C90 C91 1.371 . S
C90 H93 0.931 . S
C91 C87 1.391 . S
C91 C90 1.371 . S
C91 H98 0.930 . S
H92 C89 0.928 . S
H93 C90 0.931 . S
H94 C70 0.987 . S
H95 C67 0.930 . S
H96 C76 0.930 . S
H97 C88 0.929 1_455 S
H98 C91 0.930 . S
C99 C100 1.351 . S
C99 N102 1.368 . S
C99 H104 0.931 . S
C100 C99 1.351 . S
C100 N101 1.373 . S
C100 H128 0.930 . S
N101 C100 1.373 . S
N101 C103 1.340 . S
N102 C99 1.368 . S
N102 C103 1.321 . S
N102 Co105 2.135 . S
C103 N101 1.340 . S
C103 N102 1.321 . S
C103 H127 0.930 . S
H104 C99 0.931 . S
Co105 N102 2.135 . S
Co105 N108 2.121 . S
Co105 O113 2.055 . S
Co105 O116 2.039 . S
Co105 N119 2.140 . S
C106 O107 1.227 . S
C106 O116 1.265 . S
O107 C106 1.227 . S
N108 Co105 2.121 . S
N108 C110 1.375 . S
N108 C111 1.313 . S
C109 C110 1.338 . S
C109 N112 1.377 . S
C109 H129 0.930 . S
C110 N108 1.375 . S
C110 C109 1.338 . S
C110 H114 0.931 . S
C111 N108 1.313 . S
C111 N112 1.344 . S
C111 H115 0.930 . S
N112 C109 1.377 . S
N112 C111 1.344 . S
O113 Co105 2.055 . S
O113 C117 1.253 . S
H114 C110 0.931 . S
H115 C111 0.930 . S
O116 Co105 2.039 . S
O116 C106 1.265 . S
C117 O113 1.253 . S
C117 O118 1.227 . S
O118 C117 1.227 . S
N119 Co105 2.140 . S
N119 C122 1.346 . S
N119 C123 1.345 . S
C120 C121 1.387 . S
C120 C124 1.391 . S
C121 C120 1.387 . S
C121 C122 1.369 . S
C121 H130 0.929 . S
C122 N119 1.346 . S
C122 C121 1.369 . S
C122 H125 0.928 . S
C123 N119 1.345 . S
C123 C124 1.371 . S
C123 H126 0.931 . S
C124 C120 1.391 . S
C124 C123 1.371 . S
C124 H131 0.930 . S
H125 C122 0.928 . S
H126 C123 0.931 . S
H127 C103 0.930 . S
H128 C100 0.930 . S
H129 C109 0.930 . S
H130 C121 0.929 . S
H131 C124 0.930 . S
C132 C133 1.351 1_565 S
C132 N135 1.368 . S
C132 H137 0.931 . S
C133 C132 1.351 1_545 S
C133 N134 1.373 . S
C133 H161 0.930 . S
N134 C133 1.373 . S
N134 C136 1.351 . S
N135 C132 1.368 . S
N135 C136 1.250 1_565 S
N135 Co138 2.135 . S
C136 N134 1.351 . S
C136 N135 1.250 1_545 S
C136 H160 0.987 . S
H137 C132 0.931 . S
Co138 N135 2.135 . S
Co138 N141 2.121 . S
Co138 O146 2.055 . S
Co138 O149 2.039 . S
Co138 N152 2.140 . S
C139 O140 1.227 . S
C139 O149 1.265 . S
O140 C139 1.227 . S
N141 Co138 2.121 . S
N141 C143 1.375 . S
N141 C144 1.313 . S
C142 C143 1.338 . S
C142 N145 1.377 . S
C142 H162 0.930 . S
C143 N141 1.375 . S
C143 C142 1.338 . S
C143 H147 0.931 . S
C144 N141 1.313 . S
C144 N145 1.344 . S
C144 H148 0.930 . S
N145 C142 1.377 . S
N145 C144 1.344 . S
O146 Co138 2.055 . S
O146 C150 1.253 . S
H147 C143 0.931 . S
H148 C144 0.930 . S
O149 Co138 2.039 . S
O149 C139 1.265 . S
C150 O146 1.253 . S
C150 O151 1.227 . S
O151 C150 1.227 . S
N152 Co138 2.140 . S
N152 C155 1.346 . S
N152 C156 1.345 . S
C153 C154 1.387 . S
C153 C157 1.391 . S
C154 C153 1.387 . S
C154 C155 1.369 . S
C154 H163 0.929 1_565 S
C155 N152 1.346 . S
C155 C154 1.369 . S
C155 H158 0.928 . S
C156 N152 1.345 . S
C156 C157 1.371 . S
C156 H159 0.931 . S
C157 C153 1.391 . S
C157 C156 1.371 . S
C157 H164 0.930 . S
H158 C155 0.928 . S
H159 C156 0.931 . S
H160 C136 0.987 . S
H161 C133 0.930 . S
H162 C142 0.930 . S
H163 C154 0.929 1_545 S
H164 C157 0.930 . S
C165 C166 1.351 1_455 S
C165 N168 1.368 . S
C165 H170 0.931 . S
C166 C165 1.351 1_655 S
C166 N167 1.373 . S
C166 H194 0.930 . S
N167 C166 1.373 . S
N167 C169 1.407 . S
N168 C165 1.368 . S
N168 C169 1.274 1_455 S
N168 Co171 2.135 . S
C169 N167 1.407 . S
C169 N168 1.274 1_655 S
C169 H193 0.917 . S
H170 C165 0.931 . S
Co171 N168 2.135 . S
Co171 N174 2.121 . S
Co171 O179 2.055 . S
Co171 O182 2.039 . S
Co171 N185 2.140 . S
C172 O173 1.227 . S
C172 O182 1.265 . S
O173 C172 1.227 . S
N174 Co171 2.121 . S
N174 C176 1.375 . S
N174 C177 1.313 . S
C175 C176 1.338 . S
C175 N178 1.377 . S
C175 H195 0.930 . S
C176 N174 1.375 . S
C176 C175 1.338 . S
C176 H180 0.931 . S
C177 N174 1.313 . S
C177 N178 1.344 . S
C177 H181 0.930 . S
N178 C175 1.377 . S
N178 C177 1.344 . S
O179 Co171 2.055 . S
O179 C183 1.253 . S
H180 C176 0.931 . S
H181 C177 0.930 . S
O182 Co171 2.039 . S
O182 C172 1.265 . S
C183 O179 1.253 . S
C183 O184 1.227 . S
O184 C183 1.227 . S
N185 Co171 2.140 . S
N185 C188 1.346 . S
N185 C189 1.345 . S
C186 C187 1.387 . S
C186 C190 1.391 . S
C187 C186 1.387 . S
C187 C188 1.369 . S
C187 H196 0.929 1_455 S
C188 N185 1.346 . S
C188 C187 1.369 . S
C188 H191 0.928 . S
C189 N185 1.345 . S
C189 C190 1.371 . S
C189 H192 0.931 . S
C190 C186 1.391 . S
C190 C189 1.371 . S
C190 H197 0.930 . S
H191 C188 0.928 . S
H192 C189 0.931 . S
H193 C169 0.917 . S
H194 C166 0.930 . S
H195 C175 0.930 . S
H196 C187 0.929 1_655 S
H197 C190 0.930 . S
C198 C199 1.351 . S
C198 N201 1.368 . S
C198 H203 0.931 . S
C199 C198 1.351 . S
C199 N200 1.373 . S
C199 H227 0.930 . S
N200 C199 1.373 . S
N200 C202 1.340 . S
N201 C198 1.368 . S
N201 C202 1.321 . S
N201 Co204 2.135 . S
C202 N200 1.340 . S
C202 N201 1.321 . S
C202 H226 0.930 . S
H203 C198 0.931 . S
Co204 N201 2.135 . S
Co204 N207 2.121 . S
Co204 O212 2.055 . S
Co204 O215 2.039 . S
Co204 N218 2.140 . S
C205 O206 1.227 . S
C205 O215 1.265 . S
O206 C205 1.227 . S
N207 Co204 2.121 . S
N207 C209 1.375 . S
N207 C210 1.313 . S
C208 C209 1.338 . S
C208 N211 1.377 . S
C208 H228 0.930 . S
C209 N207 1.375 . S
C209 C208 1.338 . S
C209 H213 0.931 . S
C210 N207 1.313 . S
C210 N211 1.344 . S
C210 H214 0.930 . S
N211 C208 1.377 . S
N211 C210 1.344 . S
O212 Co204 2.055 . S
O212 C216 1.253 . S
H213 C209 0.931 . S
H214 C210 0.930 . S
O215 Co204 2.039 . S
O215 C205 1.265 . S
C216 O212 1.253 . S
C216 O217 1.227 . S
O217 C216 1.227 . S
N218 Co204 2.140 . S
N218 C221 1.346 . S
N218 C222 1.345 . S
C219 C220 1.387 . S
C219 C223 1.391 . S
C220 C219 1.387 . S
C220 C221 1.369 . S
C220 H229 0.929 . S
C221 N218 1.346 . S
C221 C220 1.369 . S
C221 H224 0.928 . S
C222 N218 1.345 . S
C222 C223 1.371 . S
C222 H225 0.931 . S
C223 C219 1.391 . S
C223 C222 1.371 . S
C223 H230 0.930 . S
H224 C221 0.928 . S
H225 C222 0.931 . S
H226 C202 0.930 . S
H227 C199 0.930 . S
H228 C208 0.930 . S
H229 C220 0.929 . S
H230 C223 0.930 . S
C231 C232 1.351 1_565 S
C231 N234 1.368 . S
C231 H236 0.931 . S
C232 C231 1.351 1_545 S
C232 N233 1.373 . S
C232 H260 0.930 . S
N233 C232 1.373 . S
N233 C235 1.407 . S
N234 C231 1.368 . S
N234 C235 1.274 1_565 S
N234 Co237 2.135 . S
C235 N233 1.407 . S
C235 N234 1.274 1_545 S
C235 H259 0.917 . S
H236 C231 0.931 . S
Co237 N234 2.135 . S
Co237 N240 2.121 . S
Co237 O245 2.055 . S
Co237 O248 2.039 . S
Co237 N251 2.140 . S
C238 O239 1.227 . S
C238 O248 1.265 . S
O239 C238 1.227 . S
N240 Co237 2.121 . S
N240 C242 1.375 . S
N240 C243 1.313 . S
C241 C242 1.338 . S
C241 N244 1.377 . S
C241 H261 0.930 . S
C242 N240 1.375 . S
C242 C241 1.338 . S
C242 H246 0.931 . S
C243 N240 1.313 . S
C243 N244 1.344 . S
C243 H247 0.930 . S
N244 C241 1.377 . S
N244 C243 1.344 . S
O245 Co237 2.055 . S
O245 C249 1.253 . S
H246 C242 0.931 . S
H247 C243 0.930 . S
O248 Co237 2.039 . S
O248 C238 1.265 . S
C249 O245 1.253 . S
C249 O250 1.227 . S
O250 C249 1.227 . S
N251 Co237 2.140 . S
N251 C254 1.346 . S
N251 C255 1.345 . S
C252 C253 1.387 . S
C252 C256 1.391 . S
C253 C252 1.387 . S
C253 C254 1.369 . S
C253 H262 0.929 1_565 S
C254 N251 1.346 . S
C254 C253 1.369 . S
C254 H257 0.928 . S
C255 N251 1.345 . S
C255 C256 1.371 . S
C255 H258 0.931 . S
C256 C252 1.391 . S
C256 C255 1.371 . S
C256 H263 0.930 . S
H257 C254 0.928 . S
H258 C255 0.931 . S
H259 C235 0.917 . S
H260 C232 0.930 . S
H261 C241 0.930 . S
H262 C253 0.929 1_545 S
H263 C256 0.930 . S
C264 C265 1.351 1_455 S
C264 N267 1.368 . S
C264 H269 0.931 . S
C265 C264 1.351 1_655 S
C265 N266 1.373 . S
C265 H293 0.930 . S
N266 C265 1.373 . S
N266 C268 1.352 . S
N267 C264 1.368 . S
N267 C268 1.250 1_455 S
N267 Co270 2.135 . S
C268 N266 1.352 . S
C268 N267 1.250 1_655 S
C268 H292 0.987 . S
H269 C264 0.931 . S
Co270 N267 2.135 . S
Co270 N273 2.121 . S
Co270 O278 2.055 . S
Co270 O281 2.039 . S
Co270 N284 2.140 . S
C271 O272 1.227 . S
C271 O281 1.265 . S
O272 C271 1.227 . S
N273 Co270 2.121 . S
N273 C275 1.375 . S
N273 C276 1.313 . S
C274 C275 1.338 . S
C274 N277 1.377 . S
C274 H294 0.930 . S
C275 N273 1.375 . S
C275 C274 1.338 . S
C275 H279 0.931 . S
C276 N273 1.313 . S
C276 N277 1.344 . S
C276 H280 0.930 . S
N277 C274 1.377 . S
N277 C276 1.344 . S
O278 Co270 2.055 . S
O278 C282 1.253 . S
H279 C275 0.931 . S
H280 C276 0.930 . S
O281 Co270 2.039 . S
O281 C271 1.265 . S
C282 O278 1.253 . S
C282 O283 1.227 . S
O283 C282 1.227 . S
N284 Co270 2.140 . S
N284 C287 1.346 . S
N284 C288 1.345 . S
C285 C286 1.387 . S
C285 C289 1.391 . S
C286 C285 1.387 . S
C286 C287 1.369 . S
C286 H295 0.929 1_455 S
C287 N284 1.346 . S
C287 C286 1.369 . S
C287 H290 0.928 . S
C288 N284 1.345 . S
C288 C289 1.371 . S
C288 H291 0.931 . S
C289 C285 1.391 . S
C289 C288 1.371 . S
C289 H296 0.930 . S
H290 C287 0.928 . S
H291 C288 0.931 . S
H292 C268 0.987 . S
H293 C265 0.930 . S
H294 C274 0.930 . S
H295 C286 0.929 1_655 S
H296 C289 0.930 . S
C297 C298 1.351 . S
C297 N300 1.368 . S
C297 H302 0.931 . S
C298 C297 1.351 . S
C298 N299 1.373 . S
C298 H326 0.930 . S
N299 C298 1.373 . S
N299 C301 1.340 . S
N300 C297 1.368 . S
N300 C301 1.321 . S
N300 Co303 2.135 . S
C301 N299 1.340 . S
C301 N300 1.321 . S
C301 H325 0.930 . S
H302 C297 0.931 . S
Co303 N300 2.135 . S
Co303 N306 2.121 . S
Co303 O311 2.055 . S
Co303 O314 2.039 . S
Co303 N317 2.140 . S
C304 O305 1.227 . S
C304 O314 1.265 . S
O305 C304 1.227 . S
N306 Co303 2.121 . S
N306 C308 1.375 . S
N306 C309 1.313 . S
C307 C308 1.338 . S
C307 N310 1.377 . S
C307 H327 0.930 . S
C308 N306 1.375 . S
C308 C307 1.338 . S
C308 H312 0.931 . S
C309 N306 1.313 . S
C309 N310 1.344 . S
C309 H313 0.930 . S
N310 C307 1.377 . S
N310 C309 1.344 . S
O311 Co303 2.055 . S
O311 C315 1.253 . S
H312 C308 0.931 . S
H313 C309 0.930 . S
O314 Co303 2.039 . S
O314 C304 1.265 . S
C315 O311 1.253 . S
C315 O316 1.227 . S
O316 C315 1.227 . S
N317 Co303 2.140 . S
N317 C320 1.346 . S
N317 C321 1.345 . S
C318 C319 1.387 . S
C318 C322 1.391 . S
C319 C318 1.387 . S
C319 C320 1.369 . S
C319 H328 0.929 . S
C320 N317 1.346 . S
C320 C319 1.369 . S
C320 H323 0.928 . S
C321 N317 1.345 . S
C321 C322 1.371 . S
C321 H324 0.931 . S
C322 C318 1.391 . S
C322 C321 1.371 . S
C322 H329 0.930 . S
H323 C320 0.928 . S
H324 C321 0.931 . S
H325 C301 0.930 . S
H326 C298 0.930 . S
H327 C307 0.930 . S
H328 C319 0.929 . S
H329 C322 0.930 . S
C330 C331 1.351 1_545 S
C330 N333 1.368 . S
C330 H335 0.931 . S
C331 C330 1.351 1_565 S
C331 N332 1.373 . S
C331 H359 0.930 . S
N332 C331 1.373 . S
N332 C334 1.351 . S
N333 C330 1.368 . S
N333 C334 1.250 1_545 S
N333 Co336 2.135 . S
C334 N332 1.351 . S
C334 N333 1.250 1_565 S
C334 H358 0.987 . S
H335 C330 0.931 . S
Co336 N333 2.135 . S
Co336 N339 2.121 . S
Co336 O344 2.055 . S
Co336 O347 2.039 . S
Co336 N350 2.140 . S
C337 O338 1.227 . S
C337 O347 1.265 . S
O338 C337 1.227 . S
N339 Co336 2.121 . S
N339 C341 1.375 . S
N339 C342 1.313 . S
C340 C341 1.338 . S
C340 N343 1.377 . S
C340 H360 0.930 . S
C341 N339 1.375 . S
C341 C340 1.338 . S
C341 H345 0.931 . S
C342 N339 1.313 . S
C342 N343 1.344 . S
C342 H346 0.930 . S
N343 C340 1.377 . S
N343 C342 1.344 . S
O344 Co336 2.055 . S
O344 C348 1.253 . S
H345 C341 0.931 . S
H346 C342 0.930 . S
O347 Co336 2.039 . S
O347 C337 1.265 . S
C348 O344 1.253 . S
C348 O349 1.227 . S
O349 C348 1.227 . S
N350 Co336 2.140 . S
N350 C353 1.346 . S
N350 C354 1.345 . S
C351 C352 1.387 . S
C351 C355 1.391 . S
C352 C351 1.387 . S
C352 C353 1.369 . S
C352 H361 0.929 1_545 S
C353 N350 1.346 . S
C353 C352 1.369 . S
C353 H356 0.928 . S
C354 N350 1.345 . S
C354 C355 1.371 . S
C354 H357 0.931 . S
C355 C351 1.391 . S
C355 C354 1.371 . S
C355 H362 0.930 . S
H356 C353 0.928 . S
H357 C354 0.931 . S
H358 C334 0.987 . S
H359 C331 0.930 . S
H360 C340 0.930 . S
H361 C352 0.929 1_565 S
H362 C355 0.930 . S
C363 C364 1.351 1_655 S
C363 N366 1.368 . S
C363 H368 0.931 . S
C364 C363 1.351 1_455 S
C364 N365 1.373 . S
C364 H392 0.930 . S
N365 C364 1.373 . S
N365 C367 1.407 . S
N366 C363 1.368 . S
N366 C367 1.274 1_655 S
N366 Co369 2.135 . S
C367 N365 1.407 . S
C367 N366 1.274 1_455 S
C367 H391 0.917 . S
H368 C363 0.931 . S
Co369 N366 2.135 . S
Co369 N372 2.121 . S
Co369 O377 2.055 . S
Co369 O380 2.039 . S
Co369 N383 2.140 . S
C370 O371 1.227 . S
C370 O380 1.265 . S
O371 C370 1.227 . S
N372 Co369 2.121 . S
N372 C374 1.375 . S
N372 C375 1.313 . S
C373 C374 1.338 . S
C373 N376 1.377 . S
C373 H393 0.930 . S
C374 N372 1.375 . S
C374 C373 1.338 . S
C374 H378 0.931 . S
C375 N372 1.313 . S
C375 N376 1.344 . S
C375 H379 0.930 . S
N376 C373 1.377 . S
N376 C375 1.344 . S
O377 Co369 2.055 . S
O377 C381 1.253 . S
H378 C374 0.931 . S
H379 C375 0.930 . S
O380 Co369 2.039 . S
O380 C370 1.265 . S
C381 O377 1.253 . S
C381 O382 1.227 . S
O382 C381 1.227 . S
N383 Co369 2.140 . S
N383 C386 1.346 . S
N383 C387 1.345 . S
C384 C385 1.387 . S
C384 C388 1.391 . S
C385 C384 1.387 . S
C385 C386 1.369 . S
C385 H394 0.929 1_655 S
C386 N383 1.346 . S
C386 C385 1.369 . S
C386 H389 0.928 . S
C387 N383 1.345 . S
C387 C388 1.371 . S
C387 H390 0.931 . S
C388 C384 1.391 . S
C388 C387 1.371 . S
C388 H395 0.930 . S
H389 C386 0.928 . S
H390 C387 0.931 . S
H391 C367 0.917 . S
H392 C364 0.930 . S
H393 C373 0.930 . S
H394 C385 0.929 1_455 S
H395 C388 0.930 . S
C396 C397 1.351 . S
C396 N399 1.368 . S
C396 H401 0.931 . S
C397 C396 1.351 . S
C397 N398 1.373 . S
C397 H425 0.930 . S
N398 C397 1.373 . S
N398 C400 1.340 . S
N399 C396 1.368 . S
N399 C400 1.321 . S
N399 Co402 2.135 . S
C400 N398 1.340 . S
C400 N399 1.321 . S
C400 H424 0.930 . S
H401 C396 0.931 . S
Co402 N399 2.135 . S
Co402 N405 2.121 . S
Co402 O410 2.055 . S
Co402 O413 2.039 . S
Co402 N416 2.140 . S
C403 O404 1.227 . S
C403 O413 1.265 . S
O404 C403 1.227 . S
N405 Co402 2.121 . S
N405 C407 1.375 . S
N405 C408 1.313 . S
C406 C407 1.338 . S
C406 N409 1.377 . S
C406 H426 0.930 . S
C407 N405 1.375 . S
C407 C406 1.338 . S
C407 H411 0.931 . S
C408 N405 1.313 . S
C408 N409 1.344 . S
C408 H412 0.930 . S
N409 C406 1.377 . S
N409 C408 1.344 . S
O410 Co402 2.055 . S
O410 C414 1.253 . S
H411 C407 0.931 . S
H412 C408 0.930 . S
O413 Co402 2.039 . S
O413 C403 1.265 . S
C414 O410 1.253 . S
C414 O415 1.227 . S
O415 C414 1.227 . S
N416 Co402 2.140 . S
N416 C419 1.346 . S
N416 C420 1.345 . S
C417 C418 1.387 . S
C417 C421 1.391 . S
C418 C417 1.387 . S
C418 C419 1.369 . S
C418 H427 0.929 . S
C419 N416 1.346 . S
C419 C418 1.369 . S
C419 H422 0.928 . S
C420 N416 1.345 . S
C420 C421 1.371 . S
C420 H423 0.931 . S
C421 C417 1.391 . S
C421 C420 1.371 . S
C421 H428 0.930 . S
H422 C419 0.928 . S
H423 C420 0.931 . S
H424 C400 0.930 . S
H425 C397 0.930 . S
H426 C406 0.930 . S
H427 C418 0.929 . S
H428 C421 0.930 . S
C429 C430 1.351 . S
C429 N432 1.368 . S
C429 H434 0.931 . S
C430 C429 1.351 . S
C430 N431 1.373 . S
C430 H458 0.930 . S
N431 C430 1.373 . S
N431 C433 1.340 . S
N432 C429 1.368 . S
N432 C433 1.321 . S
N432 Co435 2.135 . S
C433 N431 1.340 . S
C433 N432 1.321 . S
C433 H457 0.930 . S
H434 C429 0.931 . S
Co435 N432 2.135 . S
Co435 N438 2.121 . S
Co435 O443 2.055 . S
Co435 O446 2.039 . S
Co435 N449 2.140 . S
C436 O437 1.227 . S
C436 O446 1.265 . S
O437 C436 1.227 . S
N438 Co435 2.121 . S
N438 C440 1.375 . S
N438 C441 1.313 . S
C439 C440 1.338 . S
C439 N442 1.377 . S
C439 H459 0.930 . S
C440 N438 1.375 . S
C440 C439 1.338 . S
C440 H444 0.931 . S
C441 N438 1.313 . S
C441 N442 1.344 . S
C441 H445 0.930 . S
N442 C439 1.377 . S
N442 C441 1.344 . S
O443 Co435 2.055 . S
O443 C447 1.253 . S
H444 C440 0.931 . S
H445 C441 0.930 . S
O446 Co435 2.039 . S
O446 C436 1.265 . S
C447 O443 1.253 . S
C447 O448 1.227 . S
O448 C447 1.227 . S
N449 Co435 2.140 . S
N449 C452 1.346 . S
N449 C453 1.345 . S
C450 C451 1.387 . S
C450 C454 1.391 . S
C451 C450 1.387 . S
C451 C452 1.369 . S
C451 H460 0.929 . S
C452 N449 1.346 . S
C452 C451 1.369 . S
C452 H455 0.928 . S
C453 N449 1.345 . S
C453 C454 1.371 . S
C453 H456 0.931 . S
C454 C450 1.391 . S
C454 C453 1.371 . S
C454 H461 0.930 . S
H455 C452 0.928 . S
H456 C453 0.931 . S
H457 C433 0.930 . S
H458 C430 0.930 . S
H459 C439 0.930 . S
H460 C451 0.929 . S
H461 C454 0.930 . S
C462 C463 1.351 . S
C462 N465 1.368 . S
C462 H467 0.931 . S
C463 C462 1.351 . S
C463 N464 1.373 . S
C463 H491 0.930 . S
N464 C463 1.373 . S
N464 C466 1.340 . S
N465 C462 1.368 . S
N465 C466 1.321 . S
N465 Co468 2.135 . S
C466 N464 1.340 . S
C466 N465 1.321 . S
C466 H490 0.930 . S
H467 C462 0.931 . S
Co468 N465 2.135 . S
Co468 N471 2.121 . S
Co468 O476 2.055 . S
Co468 O479 2.039 . S
Co468 N482 2.140 . S
C469 O470 1.227 . S
C469 O479 1.265 . S
O470 C469 1.227 . S
N471 Co468 2.121 . S
N471 C473 1.375 . S
N471 C474 1.313 . S
C472 C473 1.338 . S
C472 N475 1.377 . S
C472 H492 0.930 . S
C473 N471 1.375 . S
C473 C472 1.338 . S
C473 H477 0.931 . S
C474 N471 1.313 . S
C474 N475 1.344 . S
C474 H478 0.930 . S
N475 C472 1.377 . S
N475 C474 1.344 . S
O476 Co468 2.055 . S
O476 C480 1.253 . S
H477 C473 0.931 . S
H478 C474 0.930 . S
O479 Co468 2.039 . S
O479 C469 1.265 . S
C480 O476 1.253 . S
C480 O481 1.227 . S
O481 C480 1.227 . S
N482 Co468 2.140 . S
N482 C485 1.346 . S
N482 C486 1.345 . S
C483 C484 1.387 . S
C483 C487 1.391 . S
C484 C483 1.387 . S
C484 C485 1.369 . S
C484 H493 0.929 . S
C485 N482 1.346 . S
C485 C484 1.369 . S
C485 H488 0.928 . S
C486 N482 1.345 . S
C486 C487 1.371 . S
C486 H489 0.931 . S
C487 C483 1.391 . S
C487 C486 1.371 . S
C487 H494 0.930 . S
H488 C485 0.928 . S
H489 C486 0.931 . S
H490 C466 0.930 . S
H491 C463 0.930 . S
H492 C472 0.930 . S
H493 C484 0.929 . S
H494 C487 0.930 . S
C495 C496 1.351 . S
C495 N498 1.368 . S
C495 H500 0.931 . S
C496 C495 1.351 . S
C496 N497 1.373 . S
C496 H524 0.930 . S
N497 C496 1.373 . S
N497 C499 1.340 . S
N498 C495 1.368 . S
N498 C499 1.321 . S
N498 Co501 2.135 . S
C499 N497 1.340 . S
C499 N498 1.321 . S
C499 H523 0.930 . S
H500 C495 0.931 . S
Co501 N498 2.135 . S
Co501 N504 2.121 . S
Co501 O509 2.055 . S
Co501 O512 2.039 . S
Co501 N515 2.140 . S
C502 O503 1.227 . S
C502 O512 1.265 . S
O503 C502 1.227 . S
N504 Co501 2.121 . S
N504 C506 1.375 . S
N504 C507 1.313 . S
C505 C506 1.338 . S
C505 N508 1.377 . S
C505 H525 0.930 . S
C506 N504 1.375 . S
C506 C505 1.338 . S
C506 H510 0.931 . S
C507 N504 1.313 . S
C507 N508 1.344 . S
C507 H511 0.930 . S
N508 C505 1.377 . S
N508 C507 1.344 . S
O509 Co501 2.055 . S
O509 C513 1.253 . S
H510 C506 0.931 . S
H511 C507 0.930 . S
O512 Co501 2.039 . S
O512 C502 1.265 . S
C513 O509 1.253 . S
C513 O514 1.227 . S
O514 C513 1.227 . S
N515 Co501 2.140 . S
N515 C518 1.346 . S
N515 C519 1.345 . S
C516 C517 1.387 . S
C516 C520 1.391 . S
C517 C516 1.387 . S
C517 C518 1.369 . S
C517 H526 0.929 . S
C518 N515 1.346 . S
C518 C517 1.369 . S
C518 H521 0.928 . S
C519 N515 1.345 . S
C519 C520 1.371 . S
C519 H522 0.931 . S
C520 C516 1.391 . S
C520 C519 1.371 . S
C520 H527 0.930 . S
H521 C518 0.928 . S
H522 C519 0.931 . S
H523 C499 0.930 . S
H524 C496 0.930 . S
H525 C505 0.930 . S
H526 C517 0.929 . S
H527 C520 0.930 . S
C528 C529 1.351 . S
C528 N531 1.368 . S
C528 H533 0.931 . S
C529 C528 1.351 . S
C529 N530 1.373 . S
C529 H557 0.930 . S
N530 C529 1.373 . S
N530 C532 1.340 . S
N531 C528 1.368 . S
N531 C532 1.321 . S
N531 Co534 2.135 . S
C532 N530 1.340 . S
C532 N531 1.321 . S
C532 H556 0.930 . S
H533 C528 0.931 . S
Co534 N531 2.135 . S
Co534 N537 2.121 . S
Co534 O542 2.055 . S
Co534 O545 2.039 . S
Co534 N548 2.140 . S
C535 O536 1.227 . S
C535 O545 1.265 . S
O536 C535 1.227 . S
N537 Co534 2.121 . S
N537 C539 1.375 . S
N537 C540 1.313 . S
C538 C539 1.338 . S
C538 N541 1.377 . S
C538 H558 0.930 . S
C539 N537 1.375 . S
C539 C538 1.338 . S
C539 H543 0.931 . S
C540 N537 1.313 . S
C540 N541 1.344 . S
C540 H544 0.930 . S
N541 C538 1.377 . S
N541 C540 1.344 . S
O542 Co534 2.055 . S
O542 C546 1.253 . S
H543 C539 0.931 . S
H544 C540 0.930 . S
O545 Co534 2.039 . S
O545 C535 1.265 . S
C546 O542 1.253 . S
C546 O547 1.227 . S
O547 C546 1.227 . S
N548 Co534 2.140 . S
N548 C551 1.346 . S
N548 C552 1.345 . S
C549 C550 1.387 . S
C549 C553 1.391 . S
C550 C549 1.387 . S
C550 C551 1.369 . S
C550 H559 0.929 . S
C551 N548 1.346 . S
C551 C550 1.369 . S
C551 H554 0.928 . S
C552 N548 1.345 . S
C552 C553 1.371 . S
C552 H555 0.931 . S
C553 C549 1.391 . S
C553 C552 1.371 . S
C553 H560 0.930 . S
H554 C551 0.928 . S
H555 C552 0.931 . S
H556 C532 0.930 . S
H557 C529 0.930 . S
H558 C538 0.930 . S
H559 C550 0.929 . S
H560 C553 0.930 . S
C561 C562 1.351 . S
C561 N564 1.368 . S
C561 H566 0.931 . S
C562 C561 1.351 . S
C562 N563 1.373 . S
C562 H590 0.930 . S
N563 C562 1.373 . S
N563 C565 1.340 . S
N564 C561 1.368 . S
N564 C565 1.321 . S
N564 Co567 2.135 . S
C565 N563 1.340 . S
C565 N564 1.321 . S
C565 H589 0.930 . S
H566 C561 0.931 . S
Co567 N564 2.135 . S
Co567 N570 2.121 . S
Co567 O575 2.055 . S
Co567 O578 2.039 . S
Co567 N581 2.140 . S
C568 O569 1.227 . S
C568 O578 1.265 . S
O569 C568 1.227 . S
N570 Co567 2.121 . S
N570 C572 1.375 . S
N570 C573 1.313 . S
C571 C572 1.338 . S
C571 N574 1.377 . S
C571 H591 0.930 . S
C572 N570 1.375 . S
C572 C571 1.338 . S
C572 H576 0.931 . S
C573 N570 1.313 . S
C573 N574 1.344 . S
C573 H577 0.930 . S
N574 C571 1.377 . S
N574 C573 1.344 . S
O575 Co567 2.055 . S
O575 C579 1.253 . S
H576 C572 0.931 . S
H577 C573 0.930 . S
O578 Co567 2.039 . S
O578 C568 1.265 . S
C579 O575 1.253 . S
C579 O580 1.227 . S
O580 C579 1.227 . S
N581 Co567 2.140 . S
N581 C584 1.346 . S
N581 C585 1.345 . S
C582 C583 1.387 . S
C582 C586 1.391 . S
C583 C582 1.387 . S
C583 C584 1.369 . S
C583 H592 0.929 . S
C584 N581 1.346 . S
C584 C583 1.369 . S
C584 H587 0.928 . S
C585 N581 1.345 . S
C585 C586 1.371 . S
C585 H588 0.931 . S
C586 C582 1.391 . S
C586 C585 1.371 . S
C586 H593 0.930 . S
H587 C584 0.928 . S
H588 C585 0.931 . S
H589 C565 0.930 . S
H590 C562 0.930 . S
H591 C571 0.930 . S
H592 C583 0.929 . S
H593 C586 0.930 . S
C594 C595 1.351 . S
C594 N597 1.368 . S
C594 H599 0.931 . S
C595 C594 1.351 . S
C595 N596 1.373 . S
C595 H623 0.930 . S
N596 C595 1.373 . S
N596 C598 1.340 . S
N597 C594 1.368 . S
N597 C598 1.321 . S
N597 Co600 2.135 . S
C598 N596 1.340 . S
C598 N597 1.321 . S
C598 H622 0.930 . S
H599 C594 0.931 . S
Co600 N597 2.135 . S
Co600 N603 2.121 . S
Co600 O608 2.055 . S
Co600 O611 2.039 . S
Co600 N614 2.140 . S
C601 O602 1.227 . S
C601 O611 1.265 . S
O602 C601 1.227 . S
N603 Co600 2.121 . S
N603 C605 1.375 . S
N603 C606 1.313 . S
C604 C605 1.338 . S
C604 N607 1.377 . S
C604 H624 0.930 . S
C605 N603 1.375 . S
C605 C604 1.338 . S
C605 H609 0.931 . S
C606 N603 1.313 . S
C606 N607 1.344 . S
C606 H610 0.930 . S
N607 C604 1.377 . S
N607 C606 1.344 . S
O608 Co600 2.055 . S
O608 C612 1.253 . S
H609 C605 0.931 . S
H610 C606 0.930 . S
O611 Co600 2.039 . S
O611 C601 1.265 . S
C612 O608 1.253 . S
C612 O613 1.227 . S
O613 C612 1.227 . S
N614 Co600 2.140 . S
N614 C617 1.346 . S
N614 C618 1.345 . S
C615 C616 1.387 . S
C615 C619 1.391 . S
C616 C615 1.387 . S
C616 C617 1.369 . S
C616 H625 0.929 . S
C617 N614 1.346 . S
C617 C616 1.369 . S
C617 H620 0.928 . S
C618 N614 1.345 . S
C618 C619 1.371 . S
C618 H621 0.931 . S
C619 C615 1.391 . S
C619 C618 1.371 . S
C619 H626 0.930 . S
H620 C617 0.928 . S
H621 C618 0.931 . S
H622 C598 0.930 . S
H623 C595 0.930 . S
H624 C604 0.930 . S
H625 C616 0.929 . S
H626 C619 0.930 . S
C627 C628 1.351 . S
C627 N630 1.368 . S
C627 H632 0.931 . S
C628 C627 1.351 . S
C628 N629 1.373 . S
C628 H656 0.930 . S
N629 C628 1.373 . S
N629 C631 1.340 . S
N630 C627 1.368 . S
N630 C631 1.321 . S
N630 Co633 2.135 . S
C631 N629 1.340 . S
C631 N630 1.321 . S
C631 H655 0.930 . S
H632 C627 0.931 . S
Co633 N630 2.135 . S
Co633 N636 2.121 . S
Co633 O641 2.055 . S
Co633 O644 2.039 . S
Co633 N647 2.140 . S
C634 O635 1.227 . S
C634 O644 1.265 . S
O635 C634 1.227 . S
N636 Co633 2.121 . S
N636 C638 1.375 . S
N636 C639 1.313 . S
C637 C638 1.338 . S
C637 N640 1.377 . S
C637 H657 0.930 . S
C638 N636 1.375 . S
C638 C637 1.338 . S
C638 H642 0.931 . S
C639 N636 1.313 . S
C639 N640 1.344 . S
C639 H643 0.930 . S
N640 C637 1.377 . S
N640 C639 1.344 . S
O641 Co633 2.055 . S
O641 C645 1.253 . S
H642 C638 0.931 . S
H643 C639 0.930 . S
O644 Co633 2.039 . S
O644 C634 1.265 . S
C645 O641 1.253 . S
C645 O646 1.227 . S
O646 C645 1.227 . S
N647 Co633 2.140 . S
N647 C650 1.346 . S
N647 C651 1.345 . S
C648 C649 1.387 . S
C648 C652 1.391 . S
C649 C648 1.387 . S
C649 C650 1.369 . S
C649 H658 0.929 . S
C650 N647 1.346 . S
C650 C649 1.369 . S
C650 H653 0.928 . S
C651 N647 1.345 . S
C651 C652 1.371 . S
C651 H654 0.931 . S
C652 C648 1.391 . S
C652 C651 1.371 . S
C652 H659 0.930 . S
H653 C650 0.928 . S
H654 C651 0.931 . S
H655 C631 0.930 . S
H656 C628 0.930 . S
H657 C637 0.930 . S
H658 C649 0.929 . S
H659 C652 0.930 . S
C660 C661 1.351 . S
C660 N663 1.368 . S
C660 H665 0.931 . S
C661 C660 1.351 . S
C661 N662 1.373 . S
C661 H689 0.930 . S
N662 C661 1.373 . S
N662 C664 1.340 . S
N663 C660 1.368 . S
N663 C664 1.321 . S
N663 Co666 2.135 . S
C664 N662 1.340 . S
C664 N663 1.321 . S
C664 H688 0.930 . S
H665 C660 0.931 . S
Co666 N663 2.135 . S
Co666 N669 2.121 . S
Co666 O674 2.055 . S
Co666 O677 2.039 . S
Co666 N680 2.140 . S
C667 O668 1.227 . S
C667 O677 1.265 . S
O668 C667 1.227 . S
N669 Co666 2.121 . S
N669 C671 1.375 . S
N669 C672 1.313 . S
C670 C671 1.338 . S
C670 N673 1.377 . S
C670 H690 0.930 . S
C671 N669 1.375 . S
C671 C670 1.338 . S
C671 H675 0.931 . S
C672 N669 1.313 . S
C672 N673 1.344 . S
C672 H676 0.930 . S
N673 C670 1.377 . S
N673 C672 1.344 . S
O674 Co666 2.055 . S
O674 C678 1.253 . S
H675 C671 0.931 . S
H676 C672 0.930 . S
O677 Co666 2.039 . S
O677 C667 1.265 . S
C678 O674 1.253 . S
C678 O679 1.227 . S
O679 C678 1.227 . S
N680 Co666 2.140 . S
N680 C683 1.346 . S
N680 C684 1.345 . S
C681 C682 1.387 . S
C681 C685 1.391 . S
C682 C681 1.387 . S
C682 C683 1.369 . S
C682 H691 0.929 . S
C683 N680 1.346 . S
C683 C682 1.369 . S
C683 H686 0.928 . S
C684 N680 1.345 . S
C684 C685 1.371 . S
C684 H687 0.931 . S
C685 C681 1.391 . S
C685 C684 1.371 . S
C685 H692 0.930 . S
H686 C683 0.928 . S
H687 C684 0.931 . S
H688 C664 0.930 . S
H689 C661 0.930 . S
H690 C670 0.930 . S
H691 C682 0.929 . S
H692 C685 0.930 . S
C693 C694 1.351 . S
C693 N696 1.368 . S
C693 H698 0.931 . S
C694 C693 1.351 . S
C694 N695 1.373 . S
C694 H722 0.930 . S
N695 C694 1.373 . S
N695 C697 1.340 . S
N696 C693 1.368 . S
N696 C697 1.321 . S
N696 Co699 2.135 . S
C697 N695 1.340 . S
C697 N696 1.321 . S
C697 H721 0.930 . S
H698 C693 0.931 . S
Co699 N696 2.135 . S
Co699 N702 2.121 . S
Co699 O707 2.055 . S
Co699 O710 2.039 . S
Co699 N713 2.140 . S
C700 O701 1.227 . S
C700 O710 1.265 . S
O701 C700 1.227 . S
N702 Co699 2.121 . S
N702 C704 1.375 . S
N702 C705 1.313 . S
C703 C704 1.338 . S
C703 N706 1.377 . S
C703 H723 0.930 . S
C704 N702 1.375 . S
C704 C703 1.338 . S
C704 H708 0.931 . S
C705 N702 1.313 . S
C705 N706 1.344 . S
C705 H709 0.930 . S
N706 C703 1.377 . S
N706 C705 1.344 . S
O707 Co699 2.055 . S
O707 C711 1.253 . S
H708 C704 0.931 . S
H709 C705 0.930 . S
O710 Co699 2.039 . S
O710 C700 1.265 . S
C711 O707 1.253 . S
C711 O712 1.227 . S
O712 C711 1.227 . S
N713 Co699 2.140 . S
N713 C716 1.346 . S
N713 C717 1.345 . S
C714 C715 1.387 . S
C714 C718 1.391 . S
C715 C714 1.387 . S
C715 C716 1.369 . S
C715 H724 0.929 . S
C716 N713 1.346 . S
C716 C715 1.369 . S
C716 H719 0.928 . S
C717 N713 1.345 . S
C717 C718 1.371 . S
C717 H720 0.931 . S
C718 C714 1.391 . S
C718 C717 1.371 . S
C718 H725 0.930 . S
H719 C716 0.928 . S
H720 C717 0.931 . S
H721 C697 0.930 . S
H722 C694 0.930 . S
H723 C703 0.930 . S
H724 C715 0.929 . S
H725 C718 0.930 . S
C726 C727 1.351 . S
C726 N729 1.368 . S
C726 H731 0.931 . S
C727 C726 1.351 . S
C727 N728 1.373 . S
C727 H755 0.930 . S
N728 C727 1.373 . S
N728 C730 1.340 . S
N729 C726 1.368 . S
N729 C730 1.321 . S
N729 Co732 2.135 . S
C730 N728 1.340 . S
C730 N729 1.321 . S
C730 H754 0.930 . S
H731 C726 0.931 . S
Co732 N729 2.135 . S
Co732 N735 2.121 . S
Co732 O740 2.055 . S
Co732 O743 2.039 . S
Co732 N746 2.140 . S
C733 O734 1.227 . S
C733 O743 1.265 . S
O734 C733 1.227 . S
N735 Co732 2.121 . S
N735 C737 1.375 . S
N735 C738 1.313 . S
C736 C737 1.338 . S
C736 N739 1.377 . S
C736 H756 0.930 . S
C737 N735 1.375 . S
C737 C736 1.338 . S
C737 H741 0.931 . S
C738 N735 1.313 . S
C738 N739 1.344 . S
C738 H742 0.930 . S
N739 C736 1.377 . S
N739 C738 1.344 . S
O740 Co732 2.055 . S
O740 C744 1.253 . S
H741 C737 0.931 . S
H742 C738 0.930 . S
O743 Co732 2.039 . S
O743 C733 1.265 . S
C744 O740 1.253 . S
C744 O745 1.227 . S
O745 C744 1.227 . S
N746 Co732 2.140 . S
N746 C749 1.346 . S
N746 C750 1.345 . S
C747 C748 1.387 . S
C747 C751 1.391 . S
C748 C747 1.387 . S
C748 C749 1.369 . S
C748 H757 0.929 . S
C749 N746 1.346 . S
C749 C748 1.369 . S
C749 H752 0.928 . S
C750 N746 1.345 . S
C750 C751 1.371 . S
C750 H753 0.931 . S
C751 C747 1.391 . S
C751 C750 1.371 . S
C751 H758 0.930 . S
H752 C749 0.928 . S
H753 C750 0.931 . S
H754 C730 0.930 . S
H755 C727 0.930 . S
H756 C736 0.930 . S
H757 C748 0.929 . S
H758 C751 0.930 . S
C759 C760 1.351 . S
C759 N762 1.368 . S
C759 H764 0.931 . S
C760 C759 1.351 . S
C760 N761 1.373 . S
C760 H788 0.930 . S
N761 C760 1.373 . S
N761 C763 1.340 . S
N762 C759 1.368 . S
N762 C763 1.321 . S
N762 Co765 2.135 . S
C763 N761 1.340 . S
C763 N762 1.321 . S
C763 H787 0.930 . S
H764 C759 0.931 . S
Co765 N762 2.135 . S
Co765 N768 2.121 . S
Co765 O773 2.055 . S
Co765 O776 2.039 . S
Co765 N779 2.140 . S
C766 O767 1.227 . S
C766 O776 1.265 . S
O767 C766 1.227 . S
N768 Co765 2.121 . S
N768 C770 1.375 . S
N768 C771 1.313 . S
C769 C770 1.338 . S
C769 N772 1.377 . S
C769 H789 0.930 . S
C770 N768 1.375 . S
C770 C769 1.338 . S
C770 H774 0.931 . S
C771 N768 1.313 . S
C771 N772 1.344 . S
C771 H775 0.930 . S
N772 C769 1.377 . S
N772 C771 1.344 . S
O773 Co765 2.055 . S
O773 C777 1.253 . S
H774 C770 0.931 . S
H775 C771 0.930 . S
O776 Co765 2.039 . S
O776 C766 1.265 . S
C777 O773 1.253 . S
C777 O778 1.227 . S
O778 C777 1.227 . S
N779 Co765 2.140 . S
N779 C782 1.346 . S
N779 C783 1.345 . S
C780 C781 1.387 . S
C780 C784 1.391 . S
C781 C780 1.387 . S
C781 C782 1.369 . S
C781 H790 0.929 . S
C782 N779 1.346 . S
C782 C781 1.369 . S
C782 H785 0.928 . S
C783 N779 1.345 . S
C783 C784 1.371 . S
C783 H786 0.931 . S
C784 C780 1.391 . S
C784 C783 1.371 . S
C784 H791 0.930 . S
H785 C782 0.928 . S
H786 C783 0.931 . S
H787 C763 0.930 . S
H788 C760 0.930 . S
H789 C769 0.930 . S
H790 C781 0.929 . S
H791 C784 0.930 . S
C792 C793 1.351 . S
C792 N795 1.368 . S
C792 H797 0.931 . S
C793 C792 1.351 . S
C793 N794 1.373 . S
C793 H821 0.930 . S
N794 C793 1.373 . S
N794 C796 1.340 . S
N795 C792 1.368 . S
N795 C796 1.321 . S
N795 Co798 2.135 . S
C796 N794 1.340 . S
C796 N795 1.321 . S
C796 H820 0.930 . S
H797 C792 0.931 . S
Co798 N795 2.135 . S
Co798 N801 2.121 . S
Co798 O806 2.055 . S
Co798 O809 2.039 . S
Co798 N812 2.140 . S
C799 O800 1.227 . S
C799 O809 1.265 . S
O800 C799 1.227 . S
N801 Co798 2.121 . S
N801 C803 1.375 . S
N801 C804 1.313 . S
C802 C803 1.338 . S
C802 N805 1.377 . S
C802 H822 0.930 . S
C803 N801 1.375 . S
C803 C802 1.338 . S
C803 H807 0.931 . S
C804 N801 1.313 . S
C804 N805 1.344 . S
C804 H808 0.930 . S
N805 C802 1.377 . S
N805 C804 1.344 . S
O806 Co798 2.055 . S
O806 C810 1.253 . S
H807 C803 0.931 . S
H808 C804 0.930 . S
O809 Co798 2.039 . S
O809 C799 1.265 . S
C810 O806 1.253 . S
C810 O811 1.227 . S
O811 C810 1.227 . S
N812 Co798 2.140 . S
N812 C815 1.346 . S
N812 C816 1.345 . S
C813 C814 1.387 . S
C813 C817 1.391 . S
C814 C813 1.387 . S
C814 C815 1.369 . S
C814 H823 0.929 . S
C815 N812 1.346 . S
C815 C814 1.369 . S
C815 H818 0.928 . S
C816 N812 1.345 . S
C816 C817 1.371 . S
C816 H819 0.931 . S
C817 C813 1.391 . S
C817 C816 1.371 . S
C817 H824 0.930 . S
H818 C815 0.928 . S
H819 C816 0.931 . S
H820 C796 0.930 . S
H821 C793 0.930 . S
H822 C802 0.930 . S
H823 C814 0.929 . S
H824 C817 0.930 . S
C825 C826 1.351 . S
C825 N828 1.368 . S
C825 H830 0.931 . S
C826 C825 1.351 . S
C826 N827 1.373 . S
C826 H854 0.930 . S
N827 C826 1.373 . S
N827 C829 1.340 . S
N828 C825 1.368 . S
N828 C829 1.321 . S
N828 Co831 2.135 . S
C829 N827 1.340 . S
C829 N828 1.321 . S
C829 H853 0.930 . S
H830 C825 0.931 . S
Co831 N828 2.135 . S
Co831 N834 2.121 . S
Co831 O839 2.055 . S
Co831 O842 2.039 . S
Co831 N845 2.140 . S
C832 O833 1.227 . S
C832 O842 1.265 . S
O833 C832 1.227 . S
N834 Co831 2.121 . S
N834 C836 1.375 . S
N834 C837 1.313 . S
C835 C836 1.338 . S
C835 N838 1.377 . S
C835 H855 0.930 . S
C836 N834 1.375 . S
C836 C835 1.338 . S
C836 H840 0.931 . S
C837 N834 1.313 . S
C837 N838 1.344 . S
C837 H841 0.930 . S
N838 C835 1.377 . S
N838 C837 1.344 . S
O839 Co831 2.055 . S
O839 C843 1.253 . S
H840 C836 0.931 . S
H841 C837 0.930 . S
O842 Co831 2.039 . S
O842 C832 1.265 . S
C843 O839 1.253 . S
C843 O844 1.227 . S
O844 C843 1.227 . S
N845 Co831 2.140 . S
N845 C848 1.346 . S
N845 C849 1.345 . S
C846 C847 1.387 . S
C846 C850 1.391 . S
C847 C846 1.387 . S
C847 C848 1.369 . S
C847 H856 0.929 . S
C848 N845 1.346 . S
C848 C847 1.369 . S
C848 H851 0.928 . S
C849 N845 1.345 . S
C849 C850 1.371 . S
C849 H852 0.931 . S
C850 C846 1.391 . S
C850 C849 1.371 . S
C850 H857 0.930 . S
H851 C848 0.928 . S
H852 C849 0.931 . S
H853 C829 0.930 . S
H854 C826 0.930 . S
H855 C835 0.930 . S
H856 C847 0.929 . S
H857 C850 0.930 . S
C858 C859 1.351 . S
C858 N861 1.368 . S
C858 H863 0.931 . S
C859 C858 1.351 . S
C859 N860 1.373 . S
C859 H887 0.930 . S
N860 C859 1.373 . S
N860 C862 1.340 . S
N861 C858 1.368 . S
N861 C862 1.321 . S
N861 Co864 2.135 . S
C862 N860 1.340 . S
C862 N861 1.321 . S
C862 H886 0.930 . S
H863 C858 0.931 . S
Co864 N861 2.135 . S
Co864 N867 2.121 . S
Co864 O872 2.055 . S
Co864 O875 2.039 . S
Co864 N878 2.140 . S
C865 O866 1.227 . S
C865 O875 1.265 . S
O866 C865 1.227 . S
N867 Co864 2.121 . S
N867 C869 1.375 . S
N867 C870 1.313 . S
C868 C869 1.338 . S
C868 N871 1.377 . S
C868 H888 0.930 . S
C869 N867 1.375 . S
C869 C868 1.338 . S
C869 H873 0.931 . S
C870 N867 1.313 . S
C870 N871 1.344 . S
C870 H874 0.930 . S
N871 C868 1.377 . S
N871 C870 1.344 . S
O872 Co864 2.055 . S
O872 C876 1.253 . S
H873 C869 0.931 . S
H874 C870 0.930 . S
O875 Co864 2.039 . S
O875 C865 1.265 . S
C876 O872 1.253 . S
C876 O877 1.227 . S
O877 C876 1.227 . S
N878 Co864 2.140 . S
N878 C881 1.346 . S
N878 C882 1.345 . S
C879 C880 1.387 . S
C879 C883 1.391 . S
C880 C879 1.387 . S
C880 C881 1.369 . S
C880 H889 0.929 . S
C881 N878 1.346 . S
C881 C880 1.369 . S
C881 H884 0.928 . S
C882 N878 1.345 . S
C882 C883 1.371 . S
C882 H885 0.931 . S
C883 C879 1.391 . S
C883 C882 1.371 . S
C883 H890 0.930 . S
H884 C881 0.928 . S
H885 C882 0.931 . S
H886 C862 0.930 . S
H887 C859 0.930 . S
H888 C868 0.930 . S
H889 C880 0.929 . S
H890 C883 0.930 . S
C891 C892 1.351 . S
C891 N894 1.368 . S
C891 H896 0.931 . S
C892 C891 1.351 . S
C892 N893 1.373 . S
C892 H920 0.930 . S
N893 C892 1.373 . S
N893 C895 1.340 . S
N894 C891 1.368 . S
N894 C895 1.321 . S
N894 Co897 2.135 . S
C895 N893 1.340 . S
C895 N894 1.321 . S
C895 H919 0.930 . S
H896 C891 0.931 . S
Co897 N894 2.135 . S
Co897 N900 2.121 . S
Co897 O905 2.055 . S
Co897 O908 2.039 . S
Co897 N911 2.140 . S
C898 O899 1.227 . S
C898 O908 1.265 . S
O899 C898 1.227 . S
N900 Co897 2.121 . S
N900 C902 1.375 . S
N900 C903 1.313 . S
C901 C902 1.338 . S
C901 N904 1.377 . S
C901 H921 0.930 . S
C902 N900 1.375 . S
C902 C901 1.338 . S
C902 H906 0.931 . S
C903 N900 1.313 . S
C903 N904 1.344 . S
C903 H907 0.930 . S
N904 C901 1.377 . S
N904 C903 1.344 . S
O905 Co897 2.055 . S
O905 C909 1.253 . S
H906 C902 0.931 . S
H907 C903 0.930 . S
O908 Co897 2.039 . S
O908 C898 1.265 . S
C909 O905 1.253 . S
C909 O910 1.227 . S
O910 C909 1.227 . S
N911 Co897 2.140 . S
N911 C914 1.346 . S
N911 C915 1.345 . S
C912 C913 1.387 . S
C912 C916 1.391 . S
C913 C912 1.387 . S
C913 C914 1.369 . S
C913 H922 0.929 . S
C914 N911 1.346 . S
C914 C913 1.369 . S
C914 H917 0.928 . S
C915 N911 1.345 . S
C915 C916 1.371 . S
C915 H918 0.931 . S
C916 C912 1.391 . S
C916 C915 1.371 . S
C916 H923 0.930 . S
H917 C914 0.928 . S
H918 C915 0.931 . S
H919 C895 0.930 . S
H920 C892 0.930 . S
H921 C901 0.930 . S
H922 C913 0.929 . S
H923 C916 0.930 . S
C924 C925 1.351 . S
C924 N927 1.368 . S
C924 H929 0.931 . S
C925 C924 1.351 . S
C925 N926 1.373 . S
C925 H953 0.930 . S
N926 C925 1.373 . S
N926 C928 1.340 . S
N927 C924 1.368 . S
N927 C928 1.321 . S
N927 Co930 2.135 . S
C928 N926 1.340 . S
C928 N927 1.321 . S
C928 H952 0.930 . S
H929 C924 0.931 . S
Co930 N927 2.135 . S
Co930 N933 2.121 . S
Co930 O938 2.055 . S
Co930 O941 2.039 . S
Co930 N944 2.140 . S
C931 O932 1.227 . S
C931 O941 1.265 . S
O932 C931 1.227 . S
N933 Co930 2.121 . S
N933 C935 1.375 . S
N933 C936 1.313 . S
C934 C935 1.338 . S
C934 N937 1.377 . S
C934 H954 0.930 . S
C935 N933 1.375 . S
C935 C934 1.338 . S
C935 H939 0.931 . S
C936 N933 1.313 . S
C936 N937 1.344 . S
C936 H940 0.930 . S
N937 C934 1.377 . S
N937 C936 1.344 . S
O938 Co930 2.055 . S
O938 C942 1.253 . S
H939 C935 0.931 . S
H940 C936 0.930 . S
O941 Co930 2.039 . S
O941 C931 1.265 . S
C942 O938 1.253 . S
C942 O943 1.227 . S
O943 C942 1.227 . S
N944 Co930 2.140 . S
N944 C947 1.346 . S
N944 C948 1.345 . S
C945 C946 1.387 . S
C945 C949 1.391 . S
C946 C945 1.387 . S
C946 C947 1.369 . S
C946 H955 0.929 . S
C947 N944 1.346 . S
C947 C946 1.369 . S
C947 H950 0.928 . S
C948 N944 1.345 . S
C948 C949 1.371 . S
C948 H951 0.931 . S
C949 C945 1.391 . S
C949 C948 1.371 . S
C949 H956 0.930 . S
H950 C947 0.928 . S
H951 C948 0.931 . S
H952 C928 0.930 . S
H953 C925 0.930 . S
H954 C934 0.930 . S
H955 C946 0.929 . S
H956 C949 0.930 . S
C957 C958 1.351 . S
C957 N960 1.368 . S
C957 H962 0.931 . S
C958 C957 1.351 . S
C958 N959 1.373 . S
C958 H986 0.930 . S
N959 C958 1.373 . S
N959 C961 1.340 . S
N960 C957 1.368 . S
N960 C961 1.321 . S
N960 Co963 2.135 . S
C961 N959 1.340 . S
C961 N960 1.321 . S
C961 H985 0.930 . S
H962 C957 0.931 . S
Co963 N960 2.135 . S
Co963 N966 2.121 . S
Co963 O971 2.055 . S
Co963 O974 2.039 . S
Co963 N977 2.140 . S
C964 O965 1.227 . S
C964 O974 1.265 . S
O965 C964 1.227 . S
N966 Co963 2.121 . S
N966 C968 1.375 . S
N966 C969 1.313 . S
C967 C968 1.338 . S
C967 N970 1.377 . S
C967 H987 0.930 . S
C968 N966 1.375 . S
C968 C967 1.338 . S
C968 H972 0.931 . S
C969 N966 1.313 . S
C969 N970 1.344 . S
C969 H973 0.930 . S
N970 C967 1.377 . S
N970 C969 1.344 . S
O971 Co963 2.055 . S
O971 C975 1.253 . S
H972 C968 0.931 . S
H973 C969 0.930 . S
O974 Co963 2.039 . S
O974 C964 1.265 . S
C975 O971 1.253 . S
C975 O976 1.227 . S
O976 C975 1.227 . S
N977 Co963 2.140 . S
N977 C980 1.346 . S
N977 C981 1.345 . S
C978 C979 1.387 . S
C978 C982 1.391 . S
C979 C978 1.387 . S
C979 C980 1.369 . S
C979 H988 0.929 . S
C980 N977 1.346 . S
C980 C979 1.369 . S
C980 H983 0.928 . S
C981 N977 1.345 . S
C981 C982 1.371 . S
C981 H984 0.931 . S
C982 C978 1.391 . S
C982 C981 1.371 . S
C982 H989 0.930 . S
H983 C980 0.928 . S
H984 C981 0.931 . S
H985 C961 0.930 . S
H986 C958 0.930 . S
H987 C967 0.930 . S
H988 C979 0.929 . S
H989 C982 0.930 . S
C990 C991 1.351 . S
C990 N993 1.368 . S
C990 H995 0.931 . S
C991 C990 1.351 . S
C991 N992 1.373 . S
C991 H1019 0.930 . S
N992 C991 1.373 . S
N992 C994 1.340 . S
N993 C990 1.368 . S
N993 C994 1.321 . S
N993 Co996 2.135 . S
C994 N992 1.340 . S
C994 N993 1.321 . S
C994 H1018 0.930 . S
H995 C990 0.931 . S
Co996 N993 2.135 . S
Co996 N999 2.121 . S
Co996 O1004 2.055 . S
Co996 O1007 2.039 . S
Co996 N1010 2.140 . S
C997 O998 1.227 . S
C997 O1007 1.265 . S
O998 C997 1.227 . S
N999 Co996 2.121 . S
N999 C1001 1.375 . S
N999 C1002 1.313 . S
C1000 C1001 1.338 . S
C1000 N1003 1.377 . S
C1000 H1020 0.930 . S
C1001 N999 1.375 . S
C1001 C1000 1.338 . S
C1001 H1005 0.931 . S
C1002 N999 1.313 . S
C1002 N1003 1.344 . S
C1002 H1006 0.930 . S
N1003 C1000 1.377 . S
N1003 C1002 1.344 . S
O1004 Co996 2.055 . S
O1004 C1008 1.253 . S
H1005 C1001 0.931 . S
H1006 C1002 0.930 . S
O1007 Co996 2.039 . S
O1007 C997 1.265 . S
C1008 O1004 1.253 . S
C1008 O1009 1.227 . S
O1009 C1008 1.227 . S
N1010 Co996 2.140 . S
N1010 C1013 1.346 . S
N1010 C1014 1.345 . S
C1011 C1012 1.387 . S
C1011 C1015 1.391 . S
C1012 C1011 1.387 . S
C1012 C1013 1.369 . S
C1012 H1021 0.929 . S
C1013 N1010 1.346 . S
C1013 C1012 1.369 . S
C1013 H1016 0.928 . S
C1014 N1010 1.345 . S
C1014 C1015 1.371 . S
C1014 H1017 0.931 . S
C1015 C1011 1.391 . S
C1015 C1014 1.371 . S
C1015 H1022 0.930 . S
H1016 C1013 0.928 . S
H1017 C1014 0.931 . S
H1018 C994 0.930 . S
H1019 C991 0.930 . S
H1020 C1000 0.930 . S
H1021 C1012 0.929 . S
H1022 C1015 0.930 . S
C1023 C1024 1.351 . S
C1023 N1026 1.368 . S
C1023 H1028 0.931 . S
C1024 C1023 1.351 . S
C1024 N1025 1.373 . S
C1024 H1052 0.930 . S
N1025 C1024 1.373 . S
N1025 C1027 1.340 . S
N1026 C1023 1.368 . S
N1026 C1027 1.321 . S
N1026 Co1029 2.135 . S
C1027 N1025 1.340 . S
C1027 N1026 1.321 . S
C1027 H1051 0.930 . S
H1028 C1023 0.931 . S
Co1029 N1026 2.135 . S
Co1029 N1032 2.121 . S
Co1029 O1037 2.055 . S
Co1029 O1040 2.039 . S
Co1029 N1043 2.140 . S
C1030 O1031 1.227 . S
C1030 O1040 1.265 . S
O1031 C1030 1.227 . S
N1032 Co1029 2.121 . S
N1032 C1034 1.375 . S
N1032 C1035 1.313 . S
C1033 C1034 1.338 . S
C1033 N1036 1.377 . S
C1033 H1053 0.930 . S
C1034 N1032 1.375 . S
C1034 C1033 1.338 . S
C1034 H1038 0.931 . S
C1035 N1032 1.313 . S
C1035 N1036 1.344 . S
C1035 H1039 0.930 . S
N1036 C1033 1.377 . S
N1036 C1035 1.344 . S
O1037 Co1029 2.055 . S
O1037 C1041 1.253 . S
H1038 C1034 0.931 . S
H1039 C1035 0.930 . S
O1040 Co1029 2.039 . S
O1040 C1030 1.265 . S
C1041 O1037 1.253 . S
C1041 O1042 1.227 . S
O1042 C1041 1.227 . S
N1043 Co1029 2.140 . S
N1043 C1046 1.346 . S
N1043 C1047 1.345 . S
C1044 C1045 1.387 . S
C1044 C1048 1.391 . S
C1045 C1044 1.387 . S
C1045 C1046 1.369 . S
C1045 H1054 0.929 . S
C1046 N1043 1.346 . S
C1046 C1045 1.369 . S
C1046 H1049 0.928 . S
C1047 N1043 1.345 . S
C1047 C1048 1.371 . S
C1047 H1050 0.931 . S
C1048 C1044 1.391 . S
C1048 C1047 1.371 . S
C1048 H1055 0.930 . S
H1049 C1046 0.928 . S
H1050 C1047 0.931 . S
H1051 C1027 0.930 . S
H1052 C1024 0.930 . S
H1053 C1033 0.930 . S
H1054 C1045 0.929 . S
H1055 C1048 0.930 . S
C1056 C1057 1.351 . S
C1056 N1059 1.368 . S
C1056 H1061 0.931 . S
C1057 C1056 1.351 . S
C1057 N1058 1.373 . S
C1057 H1085 0.930 . S
N1058 C1057 1.373 . S
N1058 C1060 1.340 . S
N1059 C1056 1.368 . S
N1059 C1060 1.321 . S
N1059 Co1062 2.135 . S
C1060 N1058 1.340 . S
C1060 N1059 1.321 . S
C1060 H1084 0.930 . S
H1061 C1056 0.931 . S
Co1062 N1059 2.135 . S
Co1062 N1065 2.121 . S
Co1062 O1070 2.055 . S
Co1062 O1073 2.039 . S
Co1062 N1076 2.140 . S
C1063 O1064 1.227 . S
C1063 O1073 1.265 . S
O1064 C1063 1.227 . S
N1065 Co1062 2.121 . S
N1065 C1067 1.375 . S
N1065 C1068 1.313 . S
C1066 C1067 1.338 . S
C1066 N1069 1.377 . S
C1066 H1086 0.930 . S
C1067 N1065 1.375 . S
C1067 C1066 1.338 . S
C1067 H1071 0.931 . S
C1068 N1065 1.313 . S
C1068 N1069 1.344 . S
C1068 H1072 0.930 . S
N1069 C1066 1.377 . S
N1069 C1068 1.344 . S
O1070 Co1062 2.055 . S
O1070 C1074 1.253 . S
H1071 C1067 0.931 . S
H1072 C1068 0.930 . S
O1073 Co1062 2.039 . S
O1073 C1063 1.265 . S
C1074 O1070 1.253 . S
C1074 O1075 1.227 . S
O1075 C1074 1.227 . S
N1076 Co1062 2.140 . S
N1076 C1079 1.346 . S
N1076 C1080 1.345 . S
C1077 C1078 1.387 . S
C1077 C1081 1.391 . S
C1078 C1077 1.387 . S
C1078 C1079 1.369 . S
C1078 H1087 0.929 . S
C1079 N1076 1.346 . S
C1079 C1078 1.369 . S
C1079 H1082 0.928 . S
C1080 N1076 1.345 . S
C1080 C1081 1.371 . S
C1080 H1083 0.931 . S
C1081 C1077 1.391 . S
C1081 C1080 1.371 . S
C1081 H1088 0.930 . S
H1082 C1079 0.928 . S
H1083 C1080 0.931 . S
H1084 C1060 0.930 . S
H1085 C1057 0.930 . S
H1086 C1066 0.930 . S
H1087 C1078 0.929 . S
H1088 C1081 0.930 . S
C1089 C1090 1.351 . S
C1089 N1092 1.368 . S
C1089 H1094 0.931 . S
C1090 C1089 1.351 . S
C1090 N1091 1.373 . S
C1090 H1118 0.930 . S
N1091 C1090 1.373 . S
N1091 C1093 1.340 . S
N1092 C1089 1.368 . S
N1092 C1093 1.321 . S
N1092 Co1095 2.135 . S
C1093 N1091 1.340 . S
C1093 N1092 1.321 . S
C1093 H1117 0.930 . S
H1094 C1089 0.931 . S
Co1095 N1092 2.135 . S
Co1095 N1098 2.121 . S
Co1095 O1103 2.055 . S
Co1095 O1106 2.039 . S
Co1095 N1109 2.140 . S
C1096 O1097 1.227 . S
C1096 O1106 1.265 . S
O1097 C1096 1.227 . S
N1098 Co1095 2.121 . S
N1098 C1100 1.375 . S
N1098 C1101 1.313 . S
C1099 C1100 1.338 . S
C1099 N1102 1.377 . S
C1099 H1119 0.930 . S
C1100 N1098 1.375 . S
C1100 C1099 1.338 . S
C1100 H1104 0.931 . S
C1101 N1098 1.313 . S
C1101 N1102 1.344 . S
C1101 H1105 0.930 . S
N1102 C1099 1.377 . S
N1102 C1101 1.344 . S
O1103 Co1095 2.055 . S
O1103 C1107 1.253 . S
H1104 C1100 0.931 . S
H1105 C1101 0.930 . S
O1106 Co1095 2.039 . S
O1106 C1096 1.265 . S
C1107 O1103 1.253 . S
C1107 O1108 1.227 . S
O1108 C1107 1.227 . S
N1109 Co1095 2.140 . S
N1109 C1112 1.346 . S
N1109 C1113 1.345 . S
C1110 C1111 1.387 . S
C1110 C1114 1.391 . S
C1111 C1110 1.387 . S
C1111 C1112 1.369 . S
C1111 H1120 0.929 . S
C1112 N1109 1.346 . S
C1112 C1111 1.369 . S
C1112 H1115 0.928 . S
C1113 N1109 1.345 . S
C1113 C1114 1.371 . S
C1113 H1116 0.931 . S
C1114 C1110 1.391 . S
C1114 C1113 1.371 . S
C1114 H1121 0.930 . S
H1115 C1112 0.928 . S
H1116 C1113 0.931 . S
H1117 C1093 0.930 . S
H1118 C1090 0.930 . S
H1119 C1099 0.930 . S
H1120 C1111 0.929 . S
H1121 C1114 0.930 . S
C1122 C1123 1.351 . S
C1122 N1125 1.368 . S
C1122 H1127 0.931 . S
C1123 C1122 1.351 . S
C1123 N1124 1.373 . S
C1123 H1151 0.930 . S
N1124 C1123 1.373 . S
N1124 C1126 1.340 . S
N1125 C1122 1.368 . S
N1125 C1126 1.321 . S
N1125 Co1128 2.135 . S
C1126 N1124 1.340 . S
C1126 N1125 1.321 . S
C1126 H1150 0.930 . S
H1127 C1122 0.931 . S
Co1128 N1125 2.135 . S
Co1128 N1131 2.121 . S
Co1128 O1136 2.055 . S
Co1128 O1139 2.039 . S
Co1128 N1142 2.140 . S
C1129 O1130 1.227 . S
C1129 O1139 1.265 . S
O1130 C1129 1.227 . S
N1131 Co1128 2.121 . S
N1131 C1133 1.375 . S
N1131 C1134 1.313 . S
C1132 C1133 1.338 . S
C1132 N1135 1.377 . S
C1132 H1152 0.930 . S
C1133 N1131 1.375 . S
C1133 C1132 1.338 . S
C1133 H1137 0.931 . S
C1134 N1131 1.313 . S
C1134 N1135 1.344 . S
C1134 H1138 0.930 . S
N1135 C1132 1.377 . S
N1135 C1134 1.344 . S
O1136 Co1128 2.055 . S
O1136 C1140 1.253 . S
H1137 C1133 0.931 . S
H1138 C1134 0.930 . S
O1139 Co1128 2.039 . S
O1139 C1129 1.265 . S
C1140 O1136 1.253 . S
C1140 O1141 1.227 . S
O1141 C1140 1.227 . S
N1142 Co1128 2.140 . S
N1142 C1145 1.346 . S
N1142 C1146 1.345 . S
C1143 C1144 1.387 . S
C1143 C1147 1.391 . S
C1144 C1143 1.387 . S
C1144 C1145 1.369 . S
C1144 H1153 0.929 . S
C1145 N1142 1.346 . S
C1145 C1144 1.369 . S
C1145 H1148 0.928 . S
C1146 N1142 1.345 . S
C1146 C1147 1.371 . S
C1146 H1149 0.931 . S
C1147 C1143 1.391 . S
C1147 C1146 1.371 . S
C1147 H1154 0.930 . S
H1148 C1145 0.928 . S
H1149 C1146 0.931 . S
H1150 C1126 0.930 . S
H1151 C1123 0.930 . S
H1152 C1132 0.930 . S
H1153 C1144 0.929 . S
H1154 C1147 0.930 . S
C1155 C1156 1.351 . S
C1155 N1158 1.368 . S
C1155 H1160 0.931 . S
C1156 C1155 1.351 . S
C1156 N1157 1.373 . S
C1156 H1184 0.930 . S
N1157 C1156 1.373 . S
N1157 C1159 1.340 . S
N1158 C1155 1.368 . S
N1158 C1159 1.321 . S
N1158 Co1161 2.135 . S
C1159 N1157 1.340 . S
C1159 N1158 1.321 . S
C1159 H1183 0.930 . S
H1160 C1155 0.931 . S
Co1161 N1158 2.135 . S
Co1161 N1164 2.121 . S
Co1161 O1169 2.055 . S
Co1161 O1172 2.039 . S
Co1161 N1175 2.140 . S
C1162 O1163 1.227 . S
C1162 O1172 1.265 . S
O1163 C1162 1.227 . S
N1164 Co1161 2.121 . S
N1164 C1166 1.375 . S
N1164 C1167 1.313 . S
C1165 C1166 1.338 . S
C1165 N1168 1.377 . S
C1165 H1185 0.930 . S
C1166 N1164 1.375 . S
C1166 C1165 1.338 . S
C1166 H1170 0.931 . S
C1167 N1164 1.313 . S
C1167 N1168 1.344 . S
C1167 H1171 0.930 . S
N1168 C1165 1.377 . S
N1168 C1167 1.344 . S
O1169 Co1161 2.055 . S
O1169 C1173 1.253 . S
H1170 C1166 0.931 . S
H1171 C1167 0.930 . S
O1172 Co1161 2.039 . S
O1172 C1162 1.265 . S
C1173 O1169 1.253 . S
C1173 O1174 1.227 . S
O1174 C1173 1.227 . S
N1175 Co1161 2.140 . S
N1175 C1178 1.346 . S
N1175 C1179 1.345 . S
C1176 C1177 1.387 . S
C1176 C1180 1.391 . S
C1177 C1176 1.387 . S
C1177 C1178 1.369 . S
C1177 H1186 0.929 . S
C1178 N1175 1.346 . S
C1178 C1177 1.369 . S
C1178 H1181 0.928 . S
C1179 N1175 1.345 . S
C1179 C1180 1.371 . S
C1179 H1182 0.931 . S
C1180 C1176 1.391 . S
C1180 C1179 1.371 . S
C1180 H1187 0.930 . S
H1181 C1178 0.928 . S
H1182 C1179 0.931 . S
H1183 C1159 0.930 . S
H1184 C1156 0.930 . S
H1185 C1165 0.930 . S
H1186 C1177 0.929 . S
H1187 C1180 0.930 . S
H1188 C1196 0.929 . S
H1189 C1198 0.930 . S
H1190 C1200 0.930 . S
H1191 C1203 0.929 . S
H1192 C1206 0.930 . S
H1193 C1208 0.960 . S
H1194 C1208 0.960 . S
H1195 C1208 0.960 . S
C1196 H1188 0.929 . S
C1196 C1197 1.377 . S
C1196 C1198 1.384 . S
C1197 C1196 1.377 . S
C1197 C1203 1.390 . S
C1198 H1189 0.930 . S
C1198 C1196 1.384 . S
C1198 C1199 1.372 . S
C1199 C1198 1.372 . S
C1199 C1200 1.400 . S
C1199 C1204 1.490 . S
C1200 H1190 0.930 . S
C1200 C1199 1.400 . S
C1200 C1203 1.386 . S
H1201 C1217 0.930 . S
H1202 C1218 0.931 . S
C1203 H1191 0.929 . S
C1203 C1197 1.390 . S
C1203 C1200 1.386 . S
C1204 C1199 1.490 . S
C1204 C1206 1.395 . S
C1204 C1207 1.403 . S
H1205 C1211 0.930 . S
C1206 H1192 0.930 . S
C1206 C1204 1.395 . S
C1206 C1209 1.403 . S
C1207 C1204 1.403 . S
C1207 C1208 1.524 . S
C1207 C1211 1.400 . S
C1208 H1193 0.960 . S
C1208 H1194 0.960 . S
C1208 H1195 0.960 . S
C1208 C1207 1.524 . S
C1209 C1206 1.403 . S
C1209 C1210 1.392 . S
C1209 C1213 1.495 . S
C1210 C1209 1.392 . S
C1210 C1211 1.385 . S
C1210 C1212 1.478 . S
C1211 H1205 0.930 . S
C1211 C1207 1.400 . S
C1211 C1210 1.385 . S
C1212 C1210 1.478 . S
C1212 C1214 1.381 . S
C1212 C1218 1.383 . S
C1213 C1209 1.495 . S
C1213 H1219 0.959 . S
C1213 H1220 0.961 . S
C1213 H1221 0.960 . S
C1214 C1212 1.381 . S
C1214 C1215 1.394 . S
C1214 H1222 0.930 . S
C1215 C1214 1.394 . S
C1215 C1216 1.383 . S
C1215 H1223 0.929 . S
C1216 C1215 1.383 . S
C1216 C1217 1.377 . S
C1217 H1201 0.930 . S
C1217 C1216 1.377 . S
C1217 C1218 1.379 . S
C1218 H1202 0.931 . S
C1218 C1212 1.383 . S
C1218 C1217 1.379 . S
H1219 C1213 0.959 . S
H1220 C1213 0.961 . S
H1221 C1213 0.960 . S
H1222 C1214 0.930 . S
H1223 C1215 0.929 . S
H1224 C1232 0.929 . S
H1225 C1234 0.930 . S
H1226 C1236 0.930 1_565 S
H1227 C1239 0.929 . S
H1228 C1242 0.930 . S
H1229 C1244 0.960 . S
H1230 C1244 0.960 . S
H1231 C1244 0.960 . S
C1232 H1224 0.929 . S
C1232 C1233 1.377 . S
C1232 C1234 1.384 . S
C1233 C1232 1.377 . S
C1233 C1239 1.390 . S
C1234 H1225 0.930 . S
C1234 C1232 1.384 . S
C1234 C1235 1.372 . S
C1235 C1234 1.372 . S
C1235 C1236 1.400 . S
C1235 C1240 1.490 . S
C1236 H1226 0.930 1_545 S
C1236 C1235 1.400 . S
C1236 C1239 1.386 . S
H1237 C1253 0.930 . S
H1238 C1254 0.931 . S
C1239 H1227 0.929 . S
C1239 C1233 1.390 . S
C1239 C1236 1.386 . S
C1240 C1235 1.490 . S
C1240 C1242 1.395 . S
C1240 C1243 1.403 1_545 S
H1241 C1247 0.930 . S
C1242 H1228 0.930 . S
C1242 C1240 1.395 . S
C1242 C1245 1.403 . S
C1243 C1240 1.403 1_565 S
C1243 C1244 1.524 . S
C1243 C1247 1.400 . S
C1244 H1229 0.960 . S
C1244 H1230 0.960 . S
C1244 H1231 0.960 . S
C1244 C1243 1.524 . S
C1245 C1242 1.403 . S
C1245 C1246 1.391 1_545 S
C1245 C1249 1.495 . S
C1246 C1245 1.391 1_565 S
C1246 C1247 1.386 . S
C1246 C1248 1.478 . S
C1247 H1241 0.930 . S
C1247 C1243 1.400 . S
C1247 C1246 1.386 . S
C1248 C1246 1.478 . S
C1248 C1250 1.366 . S
C1248 C1254 1.383 . S
C1249 C1245 1.495 . S
C1249 H1255 0.959 . S
C1249 H1256 0.961 . S
C1249 H1257 0.960 . S
C1250 C1248 1.366 . S
C1250 C1251 1.409 . S
C1250 H1258 0.935 1_565 S
C1251 C1250 1.409 . S
C1251 C1252 1.383 . S
C1251 H1259 0.929 . S
C1252 C1251 1.383 . S
C1252 C1253 1.377 . S
C1253 H1237 0.930 . S
C1253 C1252 1.377 . S
C1253 C1254 1.379 . S
C1254 H1238 0.931 . S
C1254 C1248 1.383 . S
C1254 C1253 1.379 . S
H1255 C1249 0.959 . S
H1256 C1249 0.961 . S
H1257 C1249 0.960 . S
H1258 C1250 0.935 1_545 S
H1259 C1251 0.929 . S
H1260 C1268 0.929 . S
H1261 C1270 0.930 . S
H1262 C1272 0.930 . S
H1263 C1275 0.929 . S
H1264 C1278 0.930 . S
H1265 C1280 0.960 . S
H1266 C1280 0.960 . S
H1267 C1280 0.960 . S
C1268 H1260 0.929 . S
C1268 C1269 1.377 . S
C1268 C1270 1.384 . S
C1269 C1268 1.377 . S
C1269 C1275 1.390 1_455 S
C1270 H1261 0.930 . S
C1270 C1268 1.384 . S
C1270 C1271 1.372 . S
C1271 C1270 1.372 . S
C1271 C1272 1.400 1_455 S
C1271 C1276 1.490 . S
C1272 H1262 0.930 . S
C1272 C1271 1.400 1_655 S
C1272 C1275 1.386 . S
H1273 C1289 0.930 . S
H1274 C1290 0.931 . S
C1275 H1263 0.929 . S
C1275 C1269 1.390 1_655 S
C1275 C1272 1.386 . S
C1276 C1271 1.490 . S
C1276 C1278 1.395 . S
C1276 C1279 1.403 1_455 S
H1277 C1283 0.930 . S
C1278 H1264 0.930 . S
C1278 C1276 1.395 . S
C1278 C1281 1.403 . S
C1279 C1276 1.403 1_655 S
C1279 C1280 1.524 . S
C1279 C1283 1.400 . S
C1280 H1265 0.960 . S
C1280 H1266 0.960 . S
C1280 H1267 0.960 . S
C1280 C1279 1.524 . S
C1281 C1278 1.403 . S
C1281 C1282 1.350 1_455 S
C1281 C1285 1.495 . S
C1282 C1281 1.350 1_655 S
C1282 C1283 1.422 . S
C1282 C1284 1.486 . S
C1283 H1277 0.930 . S
C1283 C1279 1.400 . S
C1283 C1282 1.422 . S
C1284 C1282 1.486 . S
C1284 C1286 1.381 1_655 S
C1284 C1290 1.383 . S
C1285 C1281 1.495 . S
C1285 H1291 0.959 . S
C1285 H1292 0.961 . S
C1285 H1293 0.960 . S
C1286 C1284 1.381 1_455 S
C1286 C1287 1.394 . S
C1286 H1294 0.930 . S
C1287 C1286 1.394 . S
C1287 C1288 1.383 1_455 S
C1287 H1295 0.929 . S
C1288 C1287 1.383 1_655 S
C1288 C1289 1.377 . S
C1289 H1273 0.930 . S
C1289 C1288 1.377 . S
C1289 C1290 1.379 . S
C1290 H1274 0.931 . S
C1290 C1284 1.383 . S
C1290 C1289 1.379 . S
H1291 C1285 0.959 . S
H1292 C1285 0.961 . S
H1293 C1285 0.960 . S
H1294 C1286 0.930 . S
H1295 C1287 0.929 . S
H1296 C1304 0.929 . S
H1297 C1306 0.930 . S
H1298 C1308 0.930 . S
H1299 C1311 0.929 . S
H1300 C1314 0.930 . S
H1301 C1316 0.960 . S
H1302 C1316 0.960 . S
H1303 C1316 0.960 . S
C1304 H1296 0.929 . S
C1304 C1305 1.377 . S
C1304 C1306 1.384 . S
C1305 C1304 1.377 . S
C1305 C1311 1.390 . S
C1306 H1297 0.930 . S
C1306 C1304 1.384 . S
C1306 C1307 1.372 . S
C1307 C1306 1.372 . S
C1307 C1308 1.400 . S
C1307 C1312 1.490 . S
C1308 H1298 0.930 . S
C1308 C1307 1.400 . S
C1308 C1311 1.386 . S
H1309 C1325 0.930 . S
H1310 C1326 0.931 . S
C1311 H1299 0.929 . S
C1311 C1305 1.390 . S
C1311 C1308 1.386 . S
C1312 C1307 1.490 . S
C1312 C1314 1.395 . S
C1312 C1315 1.403 . S
H1313 C1319 0.930 . S
C1314 H1300 0.930 . S
C1314 C1312 1.395 . S
C1314 C1317 1.403 . S
C1315 C1312 1.403 . S
C1315 C1316 1.524 . S
C1315 C1319 1.400 . S
C1316 H1301 0.960 . S
C1316 H1302 0.960 . S
C1316 H1303 0.960 . S
C1316 C1315 1.524 . S
C1317 C1314 1.403 . S
C1317 C1318 1.392 . S
C1317 C1321 1.495 . S
C1318 C1317 1.392 . S
C1318 C1319 1.385 . S
C1318 C1320 1.478 . S
C1319 H1313 0.930 . S
C1319 C1315 1.400 . S
C1319 C1318 1.385 . S
C1320 C1318 1.478 . S
C1320 C1322 1.381 . S
C1320 C1326 1.383 . S
C1321 C1317 1.495 . S
C1321 H1327 0.959 . S
C1321 H1328 0.961 . S
C1321 H1329 0.960 . S
C1322 C1320 1.381 . S
C1322 C1323 1.394 . S
C1322 H1330 0.930 . S
C1323 C1322 1.394 . S
C1323 C1324 1.383 . S
C1323 H1331 0.929 . S
C1324 C1323 1.383 . S
C1324 C1325 1.377 . S
C1325 H1309 0.930 . S
C1325 C1324 1.377 . S
C1325 C1326 1.379 . S
C1326 H1310 0.931 . S
C1326 C1320 1.383 . S
C1326 C1325 1.379 . S
H1327 C1321 0.959 . S
H1328 C1321 0.961 . S
H1329 C1321 0.960 . S
H1330 C1322 0.930 . S
H1331 C1323 0.929 . S
H1332 C1340 0.929 . S
H1333 C1342 0.930 . S
H1334 C1344 0.930 . S
H1335 C1347 0.929 . S
H1336 C1350 0.930 . S
H1337 C1352 0.960 . S
H1338 C1352 0.960 . S
H1339 C1352 0.960 . S
C1340 H1332 0.929 . S
C1340 C1341 1.377 . S
C1340 C1342 1.384 . S
C1341 C1340 1.377 . S
C1341 C1347 1.390 . S
C1342 H1333 0.930 . S
C1342 C1340 1.384 . S
C1342 C1343 1.372 . S
C1343 C1342 1.372 . S
C1343 C1344 1.400 . S
C1343 C1348 1.490 . S
C1344 H1334 0.930 . S
C1344 C1343 1.400 . S
C1344 C1347 1.386 . S
H1345 C1361 0.930 . S
H1346 C1362 0.931 . S
C1347 H1335 0.929 . S
C1347 C1341 1.390 . S
C1347 C1344 1.386 . S
C1348 C1343 1.490 . S
C1348 C1350 1.395 1_565 S
C1348 C1351 1.403 . S
H1349 C1355 0.930 . S
C1350 H1336 0.930 . S
C1350 C1348 1.395 1_545 S
C1350 C1353 1.403 . S
C1351 C1348 1.403 . S
C1351 C1352 1.524 . S
C1351 C1355 1.400 . S
C1352 H1337 0.960 . S
C1352 H1338 0.960 . S
C1352 H1339 0.960 . S
C1352 C1351 1.524 . S
C1353 C1350 1.403 . S
C1353 C1354 1.392 . S
C1353 C1357 1.495 . S
C1354 C1353 1.392 . S
C1354 C1355 1.385 1_545 S
C1354 C1356 1.478 . S
C1355 H1349 0.930 . S
C1355 C1351 1.400 . S
C1355 C1354 1.385 1_565 S
C1356 C1354 1.478 . S
C1356 C1358 1.381 . S
C1356 C1362 1.383 . S
C1357 C1353 1.495 . S
C1357 H1363 0.959 . S
C1357 H1364 0.961 . S
C1357 H1365 0.960 . S
C1358 C1356 1.381 . S
C1358 C1359 1.394 . S
C1358 H1366 0.930 . S
C1359 C1358 1.394 . S
C1359 C1360 1.383 . S
C1359 H1367 0.929 . S
C1360 C1359 1.383 . S
C1360 C1361 1.377 . S
C1361 H1345 0.930 . S
C1361 C1360 1.377 . S
C1361 C1362 1.379 . S
C1362 H1346 0.931 . S
C1362 C1356 1.383 . S
C1362 C1361 1.379 . S
H1363 C1357 0.959 . S
H1364 C1357 0.961 . S
H1365 C1357 0.960 . S
H1366 C1358 0.930 . S
H1367 C1359 0.929 . S
H1368 C1376 0.929 . S
H1369 C1378 0.930 . S
H1370 C1380 0.930 . S
H1371 C1383 0.929 . S
H1372 C1386 0.908 . S
H1373 C1388 0.960 . S
H1374 C1388 0.960 1_455 S
H1375 C1388 0.960 . S
C1376 H1368 0.929 . S
C1376 C1377 1.377 1_455 S
C1376 C1378 1.384 . S
C1377 C1376 1.377 1_655 S
C1377 C1383 1.390 . S
C1378 H1369 0.930 . S
C1378 C1376 1.384 . S
C1378 C1379 1.372 1_455 S
C1379 C1378 1.372 1_655 S
C1379 C1380 1.400 . S
C1379 C1384 1.490 . S
C1380 H1370 0.930 . S
C1380 C1379 1.400 . S
C1380 C1383 1.386 . S
H1381 C1397 0.930 . S
H1382 C1398 0.931 . S
C1383 H1371 0.929 . S
C1383 C1377 1.390 . S
C1383 C1380 1.386 . S
C1384 C1379 1.490 . S
C1384 C1386 1.397 . S
C1384 C1387 1.403 . S
H1385 C1391 0.930 . S
C1386 H1372 0.908 . S
C1386 C1384 1.397 . S
C1386 C1389 1.404 1_655 S
C1387 C1384 1.403 . S
C1387 C1388 1.524 . S
C1387 C1391 1.400 1_655 S
C1388 H1373 0.960 . S
C1388 H1374 0.960 1_655 S
C1388 H1375 0.960 . S
C1388 C1387 1.524 . S
C1389 C1386 1.404 1_455 S
C1389 C1390 1.392 . S
C1389 C1393 1.495 . S
C1390 C1389 1.392 . S
C1390 C1391 1.385 . S
C1390 C1392 1.478 . S
C1391 H1385 0.930 . S
C1391 C1387 1.400 1_455 S
C1391 C1390 1.385 . S
C1392 C1390 1.478 . S
C1392 C1394 1.381 . S
C1392 C1398 1.383 1_455 S
C1393 C1389 1.495 . S
C1393 H1399 0.959 . S
C1393 H1400 0.961 1_455 S
C1393 H1401 0.960 . S
C1394 C1392 1.381 . S
C1394 C1395 1.394 . S
C1394 H1402 0.930 . S
C1395 C1394 1.394 . S
C1395 C1396 1.383 . S
C1395 H1403 0.929 . S
C1396 C1395 1.383 . S
C1396 C1397 1.377 1_455 S
C1397 H1381 0.930 . S
C1397 C1396 1.377 1_655 S
C1397 C1398 1.379 . S
C1398 H1382 0.931 . S
C1398 C1392 1.383 1_655 S
C1398 C1397 1.379 . S
H1399 C1393 0.959 . S
H1400 C1393 0.961 1_655 S
H1401 C1393 0.960 . S
H1402 C1394 0.930 . S
H1403 C1395 0.929 . S
H1404 C1412 0.929 . S
H1405 C1414 0.930 . S
H1406 C1416 0.930 . S
H1407 C1419 0.929 . S
H1408 C1422 0.930 . S
H1409 C1424 0.960 . S
H1410 C1424 0.960 . S
H1411 C1424 0.960 . S
C1412 H1404 0.929 . S
C1412 C1413 1.377 . S
C1412 C1414 1.384 . S
C1413 C1412 1.377 . S
C1413 C1419 1.390 . S
C1414 H1405 0.930 . S
C1414 C1412 1.384 . S
C1414 C1415 1.372 . S
C1415 C1414 1.372 . S
C1415 C1416 1.400 . S
C1415 C1420 1.490 . S
C1416 H1406 0.930 . S
C1416 C1415 1.400 . S
C1416 C1419 1.386 . S
H1417 C1433 0.930 . S
H1418 C1434 0.931 . S
C1419 H1407 0.929 . S
C1419 C1413 1.390 . S
C1419 C1416 1.386 . S
C1420 C1415 1.490 . S
C1420 C1422 1.395 . S
C1420 C1423 1.403 . S
H1421 C1427 0.930 . S
C1422 H1408 0.930 . S
C1422 C1420 1.395 . S
C1422 C1425 1.403 . S
C1423 C1420 1.403 . S
C1423 C1424 1.524 . S
C1423 C1427 1.400 . S
C1424 H1409 0.960 . S
C1424 H1410 0.960 . S
C1424 H1411 0.960 . S
C1424 C1423 1.524 . S
C1425 C1422 1.403 . S
C1425 C1426 1.392 . S
C1425 C1429 1.495 . S
C1426 C1425 1.392 . S
C1426 C1427 1.385 . S
C1426 C1428 1.478 . S
C1427 H1421 0.930 . S
C1427 C1423 1.400 . S
C1427 C1426 1.385 . S
C1428 C1426 1.478 . S
C1428 C1430 1.381 . S
C1428 C1434 1.383 . S
C1429 C1425 1.495 . S
C1429 H1435 0.959 . S
C1429 H1436 0.961 . S
C1429 H1437 0.960 . S
C1430 C1428 1.381 . S
C1430 C1431 1.394 . S
C1430 H1438 0.930 . S
C1431 C1430 1.394 . S
C1431 C1432 1.383 . S
C1431 H1439 0.929 . S
C1432 C1431 1.383 . S
C1432 C1433 1.377 . S
C1433 H1417 0.930 . S
C1433 C1432 1.377 . S
C1433 C1434 1.379 . S
C1434 H1418 0.931 . S
C1434 C1428 1.383 . S
C1434 C1433 1.379 . S
H1435 C1429 0.959 . S
H1436 C1429 0.961 . S
H1437 C1429 0.960 . S
H1438 C1430 0.930 . S
H1439 C1431 0.929 . S
H1440 C1448 0.929 . S
H1441 C1450 0.930 . S
H1442 C1452 0.930 . S
H1443 C1455 0.929 . S
H1444 C1458 0.930 . S
H1445 C1460 0.960 . S
H1446 C1460 0.960 . S
H1447 C1460 0.960 . S
C1448 H1440 0.929 . S
C1448 C1449 1.377 . S
C1448 C1450 1.384 . S
C1449 C1448 1.377 . S
C1449 C1455 1.390 . S
C1450 H1441 0.930 . S
C1450 C1448 1.384 . S
C1450 C1451 1.372 . S
C1451 C1450 1.372 . S
C1451 C1452 1.400 . S
C1451 C1456 1.490 . S
C1452 H1442 0.930 . S
C1452 C1451 1.400 . S
C1452 C1455 1.386 . S
H1453 C1469 0.930 . S
H1454 C1470 0.931 . S
C1455 H1443 0.929 . S
C1455 C1449 1.390 . S
C1455 C1452 1.386 . S
C1456 C1451 1.490 . S
C1456 C1458 1.395 . S
C1456 C1459 1.403 . S
H1457 C1463 0.930 . S
C1458 H1444 0.930 . S
C1458 C1456 1.395 . S
C1458 C1461 1.403 . S
C1459 C1456 1.403 . S
C1459 C1460 1.524 . S
C1459 C1463 1.400 . S
C1460 H1445 0.960 . S
C1460 H1446 0.960 . S
C1460 H1447 0.960 . S
C1460 C1459 1.524 . S
C1461 C1458 1.403 . S
C1461 C1462 1.392 . S
C1461 C1465 1.495 . S
C1462 C1461 1.392 . S
C1462 C1463 1.385 . S
C1462 C1464 1.478 . S
C1463 H1457 0.930 . S
C1463 C1459 1.400 . S
C1463 C1462 1.385 . S
C1464 C1462 1.478 . S
C1464 C1466 1.381 . S
C1464 C1470 1.383 . S
C1465 C1461 1.495 . S
C1465 H1471 0.959 . S
C1465 H1472 0.961 . S
C1465 H1473 0.960 . S
C1466 C1464 1.381 . S
C1466 C1467 1.394 . S
C1466 H1474 0.930 . S
C1467 C1466 1.394 . S
C1467 C1468 1.383 . S
C1467 H1475 0.929 . S
C1468 C1467 1.383 . S
C1468 C1469 1.377 . S
C1469 H1453 0.930 . S
C1469 C1468 1.377 . S
C1469 C1470 1.379 . S
C1470 H1454 0.931 . S
C1470 C1464 1.383 . S
C1470 C1469 1.379 . S
H1471 C1465 0.959 . S
H1472 C1465 0.961 . S
H1473 C1465 0.960 . S
H1474 C1466 0.930 . S
H1475 C1467 0.929 . S
H1476 C1484 0.929 . S
H1477 C1486 0.930 . S
H1478 C1488 0.930 . S
H1479 C1491 0.929 . S
H1480 C1494 0.930 . S
H1481 C1496 0.960 . S
H1482 C1496 0.960 . S
H1483 C1496 0.960 . S
C1484 H1476 0.929 . S
C1484 C1485 1.377 . S
C1484 C1486 1.384 . S
C1485 C1484 1.377 . S
C1485 C1491 1.390 . S
C1486 H1477 0.930 . S
C1486 C1484 1.384 . S
C1486 C1487 1.372 . S
C1487 C1486 1.372 . S
C1487 C1488 1.400 . S
C1487 C1492 1.490 . S
C1488 H1478 0.930 . S
C1488 C1487 1.400 . S
C1488 C1491 1.386 . S
H1489 C1505 0.930 . S
H1490 C1506 0.931 . S
C1491 H1479 0.929 . S
C1491 C1485 1.390 . S
C1491 C1488 1.386 . S
C1492 C1487 1.490 . S
C1492 C1494 1.395 . S
C1492 C1495 1.403 . S
H1493 C1499 0.930 . S
C1494 H1480 0.930 . S
C1494 C1492 1.395 . S
C1494 C1497 1.403 . S
C1495 C1492 1.403 . S
C1495 C1496 1.524 . S
C1495 C1499 1.400 . S
C1496 H1481 0.960 . S
C1496 H1482 0.960 . S
C1496 H1483 0.960 . S
C1496 C1495 1.524 . S
C1497 C1494 1.403 . S
C1497 C1498 1.392 . S
C1497 C1501 1.495 . S
C1498 C1497 1.392 . S
C1498 C1499 1.385 . S
C1498 C1500 1.478 . S
C1499 H1493 0.930 . S
C1499 C1495 1.400 . S
C1499 C1498 1.385 . S
C1500 C1498 1.478 . S
C1500 C1502 1.381 . S
C1500 C1506 1.383 . S
C1501 C1497 1.495 . S
C1501 H1507 0.959 . S
C1501 H1508 0.961 . S
C1501 H1509 0.960 . S
C1502 C1500 1.381 . S
C1502 C1503 1.394 . S
C1502 H1510 0.930 . S
C1503 C1502 1.394 . S
C1503 C1504 1.383 . S
C1503 H1511 0.929 . S
C1504 C1503 1.383 . S
C1504 C1505 1.377 . S
C1505 H1489 0.930 . S
C1505 C1504 1.377 . S
C1505 C1506 1.379 . S
C1506 H1490 0.931 . S
C1506 C1500 1.383 . S
C1506 C1505 1.379 . S
H1507 C1501 0.959 . S
H1508 C1501 0.961 . S
H1509 C1501 0.960 . S
H1510 C1502 0.930 . S
H1511 C1503 0.929 . S
H1512 C1520 0.929 . S
H1513 C1522 0.930 . S
H1514 C1524 0.930 . S
H1515 C1527 0.929 . S
H1516 C1530 0.930 . S
H1517 C1532 0.960 . S
H1518 C1532 0.960 . S
H1519 C1532 0.960 . S
C1520 H1512 0.929 . S
C1520 C1521 1.377 . S
C1520 C1522 1.384 . S
C1521 C1520 1.377 . S
C1521 C1527 1.390 . S
C1522 H1513 0.930 . S
C1522 C1520 1.384 . S
C1522 C1523 1.372 . S
C1523 C1522 1.372 . S
C1523 C1524 1.400 . S
C1523 C1528 1.490 . S
C1524 H1514 0.930 . S
C1524 C1523 1.400 . S
C1524 C1527 1.386 . S
H1525 C1541 0.930 1_556 S
H1526 C1542 0.931 . S
C1527 H1515 0.929 . S
C1527 C1521 1.390 . S
C1527 C1524 1.386 . S
C1528 C1523 1.490 . S
C1528 C1530 1.395 . S
C1528 C1531 1.403 . S
H1529 C1535 0.930 . S
C1530 H1516 0.930 . S
C1530 C1528 1.395 . S
C1530 C1533 1.403 . S
C1531 C1528 1.403 . S
C1531 C1532 1.524 . S
C1531 C1535 1.400 . S
C1532 H1517 0.960 . S
C1532 H1518 0.960 . S
C1532 H1519 0.960 . S
C1532 C1531 1.524 . S
C1533 C1530 1.403 . S
C1533 C1534 1.392 . S
C1533 C1537 1.495 . S
C1534 C1533 1.392 . S
C1534 C1535 1.385 . S
C1534 C1536 1.478 . S
C1535 H1529 0.930 . S
C1535 C1531 1.400 . S
C1535 C1534 1.385 . S
C1536 C1534 1.478 . S
C1536 C1538 1.381 . S
C1536 C1542 1.383 . S
C1537 C1533 1.495 . S
C1537 H1543 0.959 . S
C1537 H1544 0.961 . S
C1537 H1545 0.960 . S
C1538 C1536 1.381 . S
C1538 C1539 1.394 . S
C1538 H1546 0.930 . S
C1539 C1538 1.394 . S
C1539 C1540 1.383 1_554 S
C1539 H1547 0.926 1_554 S
C1540 C1539 1.383 1_556 S
C1540 C1541 1.377 1_556 S
C1541 H1525 0.930 1_554 S
C1541 C1540 1.377 1_554 S
C1541 C1542 1.379 . S
C1542 H1526 0.931 . S
C1542 C1536 1.383 . S
C1542 C1541 1.379 . S
H1543 C1537 0.959 . S
H1544 C1537 0.961 . S
H1545 C1537 0.960 . S
H1546 C1538 0.930 . S
H1547 C1539 0.926 1_556 S
H1548 C1556 0.929 . S
H1549 C1558 0.930 . S
H1550 C1560 0.930 . S
H1551 C1563 0.929 . S
H1552 C1566 0.930 . S
H1553 C1568 0.960 . S
H1554 C1568 0.960 . S
H1555 C1568 0.960 . S
C1556 H1548 0.929 . S
C1556 C1557 1.377 . S
C1556 C1558 1.384 . S
C1557 C1556 1.377 . S
C1557 C1563 1.390 . S
C1558 H1549 0.930 . S
C1558 C1556 1.384 . S
C1558 C1559 1.372 . S
C1559 C1558 1.372 . S
C1559 C1560 1.400 . S
C1559 C1564 1.490 . S
C1560 H1550 0.930 . S
C1560 C1559 1.400 . S
C1560 C1563 1.386 . S
H1561 C1577 0.930 1_556 S
H1562 C1578 0.931 . S
C1563 H1551 0.929 . S
C1563 C1557 1.390 . S
C1563 C1560 1.386 . S
C1564 C1559 1.490 . S
C1564 C1566 1.395 . S
C1564 C1567 1.403 . S
H1565 C1571 0.930 . S
C1566 H1552 0.930 . S
C1566 C1564 1.395 . S
C1566 C1569 1.403 . S
C1567 C1564 1.403 . S
C1567 C1568 1.524 . S
C1567 C1571 1.400 . S
C1568 H1553 0.960 . S
C1568 H1554 0.960 . S
C1568 H1555 0.960 . S
C1568 C1567 1.524 . S
C1569 C1566 1.403 . S
C1569 C1570 1.392 . S
C1569 C1573 1.495 . S
C1570 C1569 1.392 . S
C1570 C1571 1.385 . S
C1570 C1572 1.478 . S
C1571 H1565 0.930 . S
C1571 C1567 1.400 . S
C1571 C1570 1.385 . S
C1572 C1570 1.478 . S
C1572 C1574 1.381 . S
C1572 C1578 1.383 . S
C1573 C1569 1.495 . S
C1573 H1579 0.959 . S
C1573 H1580 0.961 . S
C1573 H1581 0.960 . S
C1574 C1572 1.381 . S
C1574 C1575 1.394 . S
C1574 H1582 0.930 . S
C1575 C1574 1.394 . S
C1575 C1576 1.383 1_554 S
C1575 H1583 0.941 . S
C1576 C1575 1.383 1_556 S
C1576 C1577 1.377 1_556 S
C1577 H1561 0.930 1_554 S
C1577 C1576 1.377 1_554 S
C1577 C1578 1.379 . S
C1578 H1562 0.931 . S
C1578 C1572 1.383 . S
C1578 C1577 1.379 . S
H1579 C1573 0.959 . S
H1580 C1573 0.961 . S
H1581 C1573 0.960 . S
H1582 C1574 0.930 . S
H1583 C1575 0.941 . S
H1584 C1592 0.929 1_556 S
H1585 C1594 0.930 . S
H1586 C1596 0.930 . S
H1587 C1599 0.929 . S
H1588 C1602 0.930 . S
H1589 C1604 0.960 . S
H1590 C1604 0.960 . S
H1591 C1604 0.960 . S
C1592 H1584 0.929 1_554 S
C1592 C1593 1.377 1_554 S
C1592 C1594 1.384 . S
C1593 C1592 1.377 1_556 S
C1593 C1599 1.390 1_556 S
C1594 H1585 0.930 . S
C1594 C1592 1.384 . S
C1594 C1595 1.372 . S
C1595 C1594 1.372 . S
C1595 C1596 1.400 . S
C1595 C1600 1.490 . S
C1596 H1586 0.930 . S
C1596 C1595 1.400 . S
C1596 C1599 1.386 . S
H1597 C1613 0.930 . S
H1598 C1614 0.931 . S
C1599 H1587 0.929 . S
C1599 C1593 1.390 1_554 S
C1599 C1596 1.386 . S
C1600 C1595 1.490 . S
C1600 C1602 1.395 . S
C1600 C1603 1.403 . S
H1601 C1607 0.930 . S
C1602 H1588 0.930 . S
C1602 C1600 1.395 . S
C1602 C1605 1.403 . S
C1603 C1600 1.403 . S
C1603 C1604 1.524 . S
C1603 C1607 1.400 . S
C1604 H1589 0.960 . S
C1604 H1590 0.960 . S
C1604 H1591 0.960 . S
C1604 C1603 1.524 . S
C1605 C1602 1.403 . S
C1605 C1606 1.392 . S
C1605 C1609 1.495 . S
C1606 C1605 1.392 . S
C1606 C1607 1.385 . S
C1606 C1608 1.478 . S
C1607 H1601 0.930 . S
C1607 C1603 1.400 . S
C1607 C1606 1.385 . S
C1608 C1606 1.478 . S
C1608 C1610 1.381 . S
C1608 C1614 1.383 . S
C1609 C1605 1.495 . S
C1609 H1615 0.959 . S
C1609 H1616 0.961 . S
C1609 H1617 0.960 . S
C1610 C1608 1.381 . S
C1610 C1611 1.394 . S
C1610 H1618 0.930 . S
C1611 C1610 1.394 . S
C1611 C1612 1.383 . S
C1611 H1619 0.929 . S
C1612 C1611 1.383 . S
C1612 C1613 1.377 . S
C1613 H1597 0.930 . S
C1613 C1612 1.377 . S
C1613 C1614 1.379 . S
C1614 H1598 0.931 . S
C1614 C1608 1.383 . S
C1614 C1613 1.379 . S
H1615 C1609 0.959 . S
H1616 C1609 0.961 . S
H1617 C1609 0.960 . S
H1618 C1610 0.930 . S
H1619 C1611 0.929 . S
H1620 C1628 0.929 . S
H1621 C1630 0.930 . S
H1622 C1632 0.930 . S
H1623 C1635 0.929 1_554 S
H1624 C1638 0.930 . S
H1625 C1640 0.960 . S
H1626 C1640 0.960 . S
H1627 C1640 0.960 . S
C1628 H1620 0.929 . S
C1628 C1629 1.377 1_556 S
C1628 C1630 1.384 . S
C1629 C1628 1.377 1_554 S
C1629 C1635 1.390 1_554 S
C1630 H1621 0.930 . S
C1630 C1628 1.384 . S
C1630 C1631 1.372 . S
C1631 C1630 1.372 . S
C1631 C1632 1.400 . S
C1631 C1636 1.490 . S
C1632 H1622 0.930 . S
C1632 C1631 1.400 . S
C1632 C1635 1.386 . S
H1633 C1649 0.930 . S
H1634 C1650 0.931 . S
C1635 H1623 0.929 1_556 S
C1635 C1629 1.390 1_556 S
C1635 C1632 1.386 . S
C1636 C1631 1.490 . S
C1636 C1638 1.395 . S
C1636 C1639 1.403 . S
H1637 C1643 0.930 . S
C1638 H1624 0.930 . S
C1638 C1636 1.395 . S
C1638 C1641 1.403 . S
C1639 C1636 1.403 . S
C1639 C1640 1.524 . S
C1639 C1643 1.400 . S
C1640 H1625 0.960 . S
C1640 H1626 0.960 . S
C1640 H1627 0.960 . S
C1640 C1639 1.524 . S
C1641 C1638 1.403 . S
C1641 C1642 1.392 . S
C1641 C1645 1.495 . S
C1642 C1641 1.392 . S
C1642 C1643 1.385 . S
C1642 C1644 1.478 . S
C1643 H1637 0.930 . S
C1643 C1639 1.400 . S
C1643 C1642 1.385 . S
C1644 C1642 1.478 . S
C1644 C1646 1.381 . S
C1644 C1650 1.383 . S
C1645 C1641 1.495 . S
C1645 H1651 0.959 . S
C1645 H1652 0.961 . S
C1645 H1653 0.960 . S
C1646 C1644 1.381 . S
C1646 C1647 1.394 . S
C1646 H1654 0.930 . S
C1647 C1646 1.394 . S
C1647 C1648 1.383 . S
C1647 H1655 0.929 . S
C1648 C1647 1.383 . S
C1648 C1649 1.377 . S
C1649 H1633 0.930 . S
C1649 C1648 1.377 . S
C1649 C1650 1.379 . S
C1650 H1634 0.931 . S
C1650 C1644 1.383 . S
C1650 C1649 1.379 . S
H1651 C1645 0.959 . S
H1652 C1645 0.961 . S
H1653 C1645 0.960 . S
H1654 C1646 0.930 . S
H1655 C1647 0.929 . S
H1656 C1664 0.929 1_554 S
H1657 C1666 0.930 . S
H1658 C1668 0.930 . S
H1659 C1671 0.929 . S
H1660 C1674 0.930 . S
H1661 C1676 0.960 . S
H1662 C1676 0.960 . S
H1663 C1676 0.960 . S
C1664 H1656 0.929 1_556 S
C1664 C1665 1.377 1_556 S
C1664 C1666 1.384 . S
C1665 C1664 1.377 1_554 S
C1665 C1671 1.390 1_554 S
C1666 H1657 0.930 . S
C1666 C1664 1.384 . S
C1666 C1667 1.372 . S
C1667 C1666 1.372 . S
C1667 C1668 1.400 . S
C1667 C1672 1.490 . S
C1668 H1658 0.930 . S
C1668 C1667 1.400 . S
C1668 C1671 1.386 . S
H1669 C1685 0.930 . S
H1670 C1686 0.931 . S
C1671 H1659 0.929 . S
C1671 C1665 1.390 1_556 S
C1671 C1668 1.386 . S
C1672 C1667 1.490 . S
C1672 C1674 1.395 . S
C1672 C1675 1.403 . S
H1673 C1679 0.930 . S
C1674 H1660 0.930 . S
C1674 C1672 1.395 . S
C1674 C1677 1.403 . S
C1675 C1672 1.403 . S
C1675 C1676 1.524 . S
C1675 C1679 1.400 . S
C1676 H1661 0.960 . S
C1676 H1662 0.960 . S
C1676 H1663 0.960 . S
C1676 C1675 1.524 . S
C1677 C1674 1.403 . S
C1677 C1678 1.392 . S
C1677 C1681 1.495 . S
C1678 C1677 1.392 . S
C1678 C1679 1.385 . S
C1678 C1680 1.478 . S
C1679 H1673 0.930 . S
C1679 C1675 1.400 . S
C1679 C1678 1.385 . S
C1680 C1678 1.478 . S
C1680 C1682 1.381 . S
C1680 C1686 1.383 . S
C1681 C1677 1.495 . S
C1681 H1687 0.959 . S
C1681 H1688 0.961 . S
C1681 H1689 0.960 . S
C1682 C1680 1.381 . S
C1682 C1683 1.394 . S
C1682 H1690 0.930 . S
C1683 C1682 1.394 . S
C1683 C1684 1.383 . S
C1683 H1691 0.929 . S
C1684 C1683 1.383 . S
C1684 C1685 1.377 . S
C1685 H1669 0.930 . S
C1685 C1684 1.377 . S
C1685 C1686 1.379 . S
C1686 H1670 0.931 . S
C1686 C1680 1.383 . S
C1686 C1685 1.379 . S
H1687 C1681 0.959 . S
H1688 C1681 0.961 . S
H1689 C1681 0.960 . S
H1690 C1682 0.930 . S
H1691 C1683 0.929 . S
H1692 C1700 0.929 . S
H1693 C1702 0.930 . S
H1694 C1704 0.930 . S
H1695 C1707 0.929 1_554 S
H1696 C1710 0.930 . S
H1697 C1712 0.960 . S
H1698 C1712 0.960 . S
H1699 C1712 0.960 . S
C1700 H1692 0.929 . S
C1700 C1701 1.377 1_556 S
C1700 C1702 1.384 . S
C1701 C1700 1.377 1_554 S
C1701 C1707 1.390 1_554 S
C1702 H1693 0.930 . S
C1702 C1700 1.384 . S
C1702 C1703 1.372 . S
C1703 C1702 1.372 . S
C1703 C1704 1.400 . S
C1703 C1708 1.490 . S
C1704 H1694 0.930 . S
C1704 C1703 1.400 . S
C1704 C1707 1.386 . S
H1705 C1721 0.930 . S
H1706 C1722 0.931 . S
C1707 H1695 0.929 1_556 S
C1707 C1701 1.390 1_556 S
C1707 C1704 1.386 . S
C1708 C1703 1.490 . S
C1708 C1710 1.395 . S
C1708 C1711 1.403 . S
H1709 C1715 0.930 . S
C1710 H1696 0.930 . S
C1710 C1708 1.395 . S
C1710 C1713 1.403 . S
C1711 C1708 1.403 . S
C1711 C1712 1.524 . S
C1711 C1715 1.400 . S
C1712 H1697 0.960 . S
C1712 H1698 0.960 . S
C1712 H1699 0.960 . S
C1712 C1711 1.524 . S
C1713 C1710 1.403 . S
C1713 C1714 1.392 . S
C1713 C1717 1.495 . S
C1714 C1713 1.392 . S
C1714 C1715 1.385 . S
C1714 C1716 1.478 . S
C1715 H1709 0.930 . S
C1715 C1711 1.400 . S
C1715 C1714 1.385 . S
C1716 C1714 1.478 . S
C1716 C1718 1.381 . S
C1716 C1722 1.383 . S
C1717 C1713 1.495 . S
C1717 H1723 0.959 . S
C1717 H1724 0.961 . S
C1717 H1725 0.960 . S
C1718 C1716 1.381 . S
C1718 C1719 1.394 . S
C1718 H1726 0.930 . S
C1719 C1718 1.394 . S
C1719 C1720 1.383 . S
C1719 H1727 0.929 . S
C1720 C1719 1.383 . S
C1720 C1721 1.377 . S
C1721 H1705 0.930 . S
C1721 C1720 1.377 . S
C1721 C1722 1.379 . S
C1722 H1706 0.931 . S
C1722 C1716 1.383 . S
C1722 C1721 1.379 . S
H1723 C1717 0.959 . S
H1724 C1717 0.961 . S
H1725 C1717 0.960 . S
H1726 C1718 0.930 . S
H1727 C1719 0.929 . S
H1728 C1736 0.929 . S
H1729 C1738 0.930 . S
H1730 C1740 0.930 . S
H1731 C1743 0.929 . S
H1732 C1746 0.930 . S
H1733 C1748 0.960 . S
H1734 C1748 0.960 . S
H1735 C1748 0.960 . S
C1736 H1728 0.929 . S
C1736 C1737 1.377 . S
C1736 C1738 1.384 . S
C1737 C1736 1.377 . S
C1737 C1743 1.390 . S
C1738 H1729 0.930 . S
C1738 C1736 1.384 . S
C1738 C1739 1.372 . S
C1739 C1738 1.372 . S
C1739 C1740 1.400 . S
C1739 C1744 1.490 . S
C1740 H1730 0.930 . S
C1740 C1739 1.400 . S
C1740 C1743 1.386 . S
H1741 C1757 0.930 . S
H1742 C1758 0.931 . S
C1743 H1731 0.929 . S
C1743 C1737 1.390 . S
C1743 C1740 1.386 . S
C1744 C1739 1.490 . S
C1744 C1746 1.395 . S
C1744 C1747 1.403 . S
H1745 C1751 0.930 . S
C1746 H1732 0.930 . S
C1746 C1744 1.395 . S
C1746 C1749 1.403 . S
C1747 C1744 1.403 . S
C1747 C1748 1.524 . S
C1747 C1751 1.400 . S
C1748 H1733 0.960 . S
C1748 H1734 0.960 . S
C1748 H1735 0.960 . S
C1748 C1747 1.524 . S
C1749 C1746 1.403 . S
C1749 C1750 1.392 . S
C1749 C1753 1.495 . S
C1750 C1749 1.392 . S
C1750 C1751 1.385 . S
C1750 C1752 1.478 . S
C1751 H1745 0.930 . S
C1751 C1747 1.400 . S
C1751 C1750 1.385 . S
C1752 C1750 1.478 . S
C1752 C1754 1.381 . S
C1752 C1758 1.383 . S
C1753 C1749 1.495 . S
C1753 H1759 0.959 . S
C1753 H1760 0.961 . S
C1753 H1761 0.960 . S
C1754 C1752 1.381 . S
C1754 C1755 1.394 . S
C1754 H1762 0.930 . S
C1755 C1754 1.394 . S
C1755 C1756 1.383 . S
C1755 H1763 0.929 . S
C1756 C1755 1.383 . S
C1756 C1757 1.377 . S
C1757 H1741 0.930 . S
C1757 C1756 1.377 . S
C1757 C1758 1.379 . S
C1758 H1742 0.931 . S
C1758 C1752 1.383 . S
C1758 C1757 1.379 . S
H1759 C1753 0.959 . S
H1760 C1753 0.961 . S
H1761 C1753 0.960 . S
H1762 C1754 0.930 . S
H1763 C1755 0.929 . S
H1764 C1772 0.929 . S
H1765 C1774 0.930 . S
H1766 C1776 0.930 . S
H1767 C1779 0.929 . S
H1768 C1782 0.930 . S
H1769 C1784 0.960 . S
H1770 C1784 0.960 . S
H1771 C1784 0.960 . S
C1772 H1764 0.929 . S
C1772 C1773 1.377 . S
C1772 C1774 1.384 . S
C1773 C1772 1.377 . S
C1773 C1779 1.390 . S
C1774 H1765 0.930 . S
C1774 C1772 1.384 . S
C1774 C1775 1.372 . S
C1775 C1774 1.372 . S
C1775 C1776 1.400 . S
C1775 C1780 1.490 . S
C1776 H1766 0.930 . S
C1776 C1775 1.400 . S
C1776 C1779 1.386 . S
H1777 C1793 0.930 . S
H1778 C1794 0.931 . S
C1779 H1767 0.929 . S
C1779 C1773 1.390 . S
C1779 C1776 1.386 . S
C1780 C1775 1.490 . S
C1780 C1782 1.395 . S
C1780 C1783 1.403 . S
H1781 C1787 0.930 . S
C1782 H1768 0.930 . S
C1782 C1780 1.395 . S
C1782 C1785 1.403 . S
C1783 C1780 1.403 . S
C1783 C1784 1.524 . S
C1783 C1787 1.400 . S
C1784 H1769 0.960 . S
C1784 H1770 0.960 . S
C1784 H1771 0.960 . S
C1784 C1783 1.524 . S
C1785 C1782 1.403 . S
C1785 C1786 1.392 . S
C1785 C1789 1.495 . S
C1786 C1785 1.392 . S
C1786 C1787 1.385 . S
C1786 C1788 1.478 . S
C1787 H1781 0.930 . S
C1787 C1783 1.400 . S
C1787 C1786 1.385 . S
C1788 C1786 1.478 . S
C1788 C1790 1.381 . S
C1788 C1794 1.383 . S
C1789 C1785 1.495 . S
C1789 H1795 0.959 . S
C1789 H1796 0.961 . S
C1789 H1797 0.960 . S
C1790 C1788 1.381 . S
C1790 C1791 1.394 . S
C1790 H1798 0.930 . S
C1791 C1790 1.394 . S
C1791 C1792 1.383 . S
C1791 H1799 0.929 . S
C1792 C1791 1.383 . S
C1792 C1793 1.377 . S
C1793 H1777 0.930 . S
C1793 C1792 1.377 . S
C1793 C1794 1.379 . S
C1794 H1778 0.931 . S
C1794 C1788 1.383 . S
C1794 C1793 1.379 . S
H1795 C1789 0.959 . S
H1796 C1789 0.961 . S
H1797 C1789 0.960 . S
H1798 C1790 0.930 . S
H1799 C1791 0.929 . S
H1800 C1808 0.929 . S
H1801 C1810 0.930 . S
H1802 C1812 0.930 . S
H1803 C1815 0.929 . S
H1804 C1818 0.930 . S
H1805 C1820 0.960 . S
H1806 C1820 0.960 . S
H1807 C1820 0.960 . S
C1808 H1800 0.929 . S
C1808 C1809 1.377 . S
C1808 C1810 1.384 . S
C1809 C1808 1.377 . S
C1809 C1815 1.390 . S
C1810 H1801 0.930 . S
C1810 C1808 1.384 . S
C1810 C1811 1.372 . S
C1811 C1810 1.372 . S
C1811 C1812 1.400 . S
C1811 C1816 1.490 . S
C1812 H1802 0.930 . S
C1812 C1811 1.400 . S
C1812 C1815 1.386 . S
H1813 C1829 0.930 . S
H1814 C1830 0.931 . S
C1815 H1803 0.929 . S
C1815 C1809 1.390 . S
C1815 C1812 1.386 . S
C1816 C1811 1.490 . S
C1816 C1818 1.395 . S
C1816 C1819 1.403 . S
H1817 C1823 0.930 . S
C1818 H1804 0.930 . S
C1818 C1816 1.395 . S
C1818 C1821 1.403 . S
C1819 C1816 1.403 . S
C1819 C1820 1.524 . S
C1819 C1823 1.400 . S
C1820 H1805 0.960 . S
C1820 H1806 0.960 . S
C1820 H1807 0.960 . S
C1820 C1819 1.524 . S
C1821 C1818 1.403 . S
C1821 C1822 1.392 . S
C1821 C1825 1.495 . S
C1822 C1821 1.392 . S
C1822 C1823 1.385 . S
C1822 C1824 1.478 . S
C1823 H1817 0.930 . S
C1823 C1819 1.400 . S
C1823 C1822 1.385 . S
C1824 C1822 1.478 . S
C1824 C1826 1.381 . S
C1824 C1830 1.383 . S
C1825 C1821 1.495 . S
C1825 H1831 0.959 . S
C1825 H1832 0.961 . S
C1825 H1833 0.960 . S
C1826 C1824 1.381 . S
C1826 C1827 1.394 . S
C1826 H1834 0.930 . S
C1827 C1826 1.394 . S
C1827 C1828 1.383 . S
C1827 H1835 0.929 . S
C1828 C1827 1.383 . S
C1828 C1829 1.377 . S
C1829 H1813 0.930 . S
C1829 C1828 1.377 . S
C1829 C1830 1.379 . S
C1830 H1814 0.931 . S
C1830 C1824 1.383 . S
C1830 C1829 1.379 . S
H1831 C1825 0.959 . S
H1832 C1825 0.961 . S
H1833 C1825 0.960 . S
H1834 C1826 0.930 . S
H1835 C1827 0.929 . S
H1836 C1844 0.929 . S
H1837 C1846 0.930 . S
H1838 C1848 0.930 . S
H1839 C1851 0.929 . S
H1840 C1854 0.930 . S
H1841 C1856 0.960 . S
H1842 C1856 0.960 . S
H1843 C1856 0.960 . S
C1844 H1836 0.929 . S
C1844 C1845 1.377 . S
C1844 C1846 1.384 . S
C1845 C1844 1.377 . S
C1845 C1851 1.390 . S
C1846 H1837 0.930 . S
C1846 C1844 1.384 . S
C1846 C1847 1.372 . S
C1847 C1846 1.372 . S
C1847 C1848 1.400 . S
C1847 C1852 1.490 . S
C1848 H1838 0.930 . S
C1848 C1847 1.400 . S
C1848 C1851 1.386 . S
H1849 C1865 0.930 . S
H1850 C1866 0.931 . S
C1851 H1839 0.929 . S
C1851 C1845 1.390 . S
C1851 C1848 1.386 . S
C1852 C1847 1.490 . S
C1852 C1854 1.395 . S
C1852 C1855 1.403 . S
H1853 C1859 0.930 . S
C1854 H1840 0.930 . S
C1854 C1852 1.395 . S
C1854 C1857 1.403 . S
C1855 C1852 1.403 . S
C1855 C1856 1.524 . S
C1855 C1859 1.400 . S
C1856 H1841 0.960 . S
C1856 H1842 0.960 . S
C1856 H1843 0.960 . S
C1856 C1855 1.524 . S
C1857 C1854 1.403 . S
C1857 C1858 1.392 . S
C1857 C1861 1.495 . S
C1858 C1857 1.392 . S
C1858 C1859 1.385 . S
C1858 C1860 1.478 . S
C1859 H1853 0.930 . S
C1859 C1855 1.400 . S
C1859 C1858 1.385 . S
C1860 C1858 1.478 . S
C1860 C1862 1.381 . S
C1860 C1866 1.383 . S
C1861 C1857 1.495 . S
C1861 H1867 0.959 . S
C1861 H1868 0.961 . S
C1861 H1869 0.960 . S
C1862 C1860 1.381 . S
C1862 C1863 1.394 . S
C1862 H1870 0.930 . S
C1863 C1862 1.394 . S
C1863 C1864 1.383 . S
C1863 H1871 0.929 . S
C1864 C1863 1.383 . S
C1864 C1865 1.377 . S
C1865 H1849 0.930 . S
C1865 C1864 1.377 . S
C1865 C1866 1.379 . S
C1866 H1850 0.931 . S
C1866 C1860 1.383 . S
C1866 C1865 1.379 . S
H1867 C1861 0.959 . S
H1868 C1861 0.961 . S
H1869 C1861 0.960 . S
H1870 C1862 0.930 . S
H1871 C1863 0.929 . S
H1872 C1880 0.929 . S
H1873 C1882 0.930 . S
H1874 C1884 0.930 . S
H1875 C1887 0.929 . S
H1876 C1890 0.930 . S
H1877 C1892 0.960 . S
H1878 C1892 0.960 . S
H1879 C1892 0.960 . S
C1880 H1872 0.929 . S
C1880 C1881 1.377 . S
C1880 C1882 1.384 . S
C1881 C1880 1.377 . S
C1881 C1887 1.390 . S
C1882 H1873 0.930 . S
C1882 C1880 1.384 . S
C1882 C1883 1.372 . S
C1883 C1882 1.372 . S
C1883 C1884 1.400 . S
C1883 C1888 1.490 . S
C1884 H1874 0.930 . S
C1884 C1883 1.400 . S
C1884 C1887 1.386 . S
H1885 C1901 0.930 . S
H1886 C1902 0.931 . S
C1887 H1875 0.929 . S
C1887 C1881 1.390 . S
C1887 C1884 1.386 . S
C1888 C1883 1.490 . S
C1888 C1890 1.395 . S
C1888 C1891 1.403 . S
H1889 C1895 0.930 . S
C1890 H1876 0.930 . S
C1890 C1888 1.395 . S
C1890 C1893 1.403 . S
C1891 C1888 1.403 . S
C1891 C1892 1.524 . S
C1891 C1895 1.400 . S
C1892 H1877 0.960 . S
C1892 H1878 0.960 . S
C1892 H1879 0.960 . S
C1892 C1891 1.524 . S
C1893 C1890 1.403 . S
C1893 C1894 1.392 . S
C1893 C1897 1.495 . S
C1894 C1893 1.392 . S
C1894 C1895 1.385 . S
C1894 C1896 1.478 . S
C1895 H1889 0.930 . S
C1895 C1891 1.400 . S
C1895 C1894 1.385 . S
C1896 C1894 1.478 . S
C1896 C1898 1.381 . S
C1896 C1902 1.383 1_565 S
C1897 C1893 1.495 . S
C1897 H1903 0.959 . S
C1897 H1904 0.961 . S
C1897 H1905 0.960 . S
C1898 C1896 1.381 . S
C1898 C1899 1.394 . S
C1898 H1906 0.930 . S
C1899 C1898 1.394 . S
C1899 C1900 1.383 1_565 S
C1899 H1907 0.929 . S
C1900 C1899 1.383 1_545 S
C1900 C1901 1.377 . S
C1901 H1885 0.930 . S
C1901 C1900 1.377 . S
C1901 C1902 1.379 . S
C1902 H1886 0.931 . S
C1902 C1896 1.383 1_545 S
C1902 C1901 1.379 . S
H1903 C1897 0.959 . S
H1904 C1897 0.961 . S
H1905 C1897 0.960 . S
H1906 C1898 0.930 . S
H1907 C1899 0.929 . S
H1908 C1916 0.929 . S
H1909 C1918 0.930 . S
H1910 C1920 0.930 . S
H1911 C1923 0.939 . S
H1912 C1926 0.930 1_655 S
H1913 C1928 0.960 . S
H1914 C1928 0.960 . S
H1915 C1928 0.960 . S
C1916 H1908 0.929 . S
C1916 C1917 1.377 . S
C1916 C1918 1.384 1_655 S
C1917 C1916 1.377 . S
C1917 C1923 1.405 . S
C1918 H1909 0.930 . S
C1918 C1916 1.384 1_455 S
C1918 C1919 1.372 . S
C1919 C1918 1.372 . S
C1919 C1920 1.400 . S
C1919 C1924 1.490 . S
C1920 H1910 0.930 . S
C1920 C1919 1.400 . S
C1920 C1923 1.362 1_455 S
H1921 C1937 0.930 . S
H1922 C1938 0.931 . S
C1923 H1911 0.939 . S
C1923 C1917 1.405 . S
C1923 C1920 1.362 1_655 S
C1924 C1919 1.490 . S
C1924 C1926 1.395 . S
C1924 C1927 1.403 . S
H1925 C1931 0.930 . S
C1926 H1912 0.930 1_455 S
C1926 C1924 1.395 . S
C1926 C1929 1.403 . S
C1927 C1924 1.403 . S
C1927 C1928 1.524 . S
C1927 C1931 1.400 . S
C1928 H1913 0.960 . S
C1928 H1914 0.960 . S
C1928 H1915 0.960 . S
C1928 C1927 1.524 . S
C1929 C1926 1.403 . S
C1929 C1930 1.392 . S
C1929 C1933 1.495 . S
C1930 C1929 1.392 . S
C1930 C1931 1.385 . S
C1930 C1932 1.478 . S
C1931 H1925 0.930 . S
C1931 C1927 1.400 . S
C1931 C1930 1.385 . S
C1932 C1930 1.478 . S
C1932 C1934 1.381 . S
C1932 C1938 1.383 . S
C1933 C1929 1.495 . S
C1933 H1939 0.959 1_455 S
C1933 H1940 0.961 . S
C1933 H1941 0.960 . S
C1934 C1932 1.381 . S
C1934 C1935 1.394 . S
C1934 H1942 0.930 . S
C1935 C1934 1.394 . S
C1935 C1936 1.383 . S
C1935 H1943 0.929 . S
C1936 C1935 1.383 . S
C1936 C1937 1.377 . S
C1937 H1921 0.930 . S
C1937 C1936 1.377 . S
C1937 C1938 1.379 . S
C1938 H1922 0.931 . S
C1938 C1932 1.383 . S
C1938 C1937 1.379 . S
H1939 C1933 0.959 1_655 S
H1940 C1933 0.961 . S
H1941 C1933 0.960 . S
H1942 C1934 0.930 . S
H1943 C1935 0.929 . S
H1944 C1952 0.929 . S
H1945 C1954 0.930 . S
H1946 C1956 0.930 . S
H1947 C1959 0.929 . S
H1948 C1962 0.930 . S
H1949 C1964 0.960 . S
H1950 C1964 0.960 . S
H1951 C1964 0.960 . S
C1952 H1944 0.929 . S
C1952 C1953 1.377 . S
C1952 C1954 1.384 . S
C1953 C1952 1.377 . S
C1953 C1959 1.390 . S
C1954 H1945 0.930 . S
C1954 C1952 1.384 . S
C1954 C1955 1.372 . S
C1955 C1954 1.372 . S
C1955 C1956 1.400 . S
C1955 C1960 1.490 . S
C1956 H1946 0.930 . S
C1956 C1955 1.400 . S
C1956 C1959 1.386 . S
H1957 C1973 0.930 . S
H1958 C1974 0.931 . S
C1959 H1947 0.929 . S
C1959 C1953 1.390 . S
C1959 C1956 1.386 . S
C1960 C1955 1.490 . S
C1960 C1962 1.395 . S
C1960 C1963 1.403 . S
H1961 C1967 0.930 . S
C1962 H1948 0.930 . S
C1962 C1960 1.395 . S
C1962 C1965 1.403 . S
C1963 C1960 1.403 . S
C1963 C1964 1.524 . S
C1963 C1967 1.400 . S
C1964 H1949 0.960 . S
C1964 H1950 0.960 . S
C1964 H1951 0.960 . S
C1964 C1963 1.524 . S
C1965 C1962 1.403 . S
C1965 C1966 1.392 . S
C1965 C1969 1.495 . S
C1966 C1965 1.392 . S
C1966 C1967 1.385 . S
C1966 C1968 1.478 . S
C1967 H1961 0.930 . S
C1967 C1963 1.400 . S
C1967 C1966 1.385 . S
C1968 C1966 1.478 . S
C1968 C1970 1.381 . S
C1968 C1974 1.383 . S
C1969 C1965 1.495 . S
C1969 H1975 0.959 . S
C1969 H1976 0.961 . S
C1969 H1977 0.960 . S
C1970 C1968 1.381 . S
C1970 C1971 1.394 . S
C1970 H1978 0.930 . S
C1971 C1970 1.394 . S
C1971 C1972 1.383 . S
C1971 H1979 0.929 . S
C1972 C1971 1.383 . S
C1972 C1973 1.377 . S
C1973 H1957 0.930 . S
C1973 C1972 1.377 . S
C1973 C1974 1.379 . S
C1974 H1958 0.931 . S
C1974 C1968 1.383 . S
C1974 C1973 1.379 . S
H1975 C1969 0.959 . S
H1976 C1969 0.961 . S
H1977 C1969 0.960 . S
H1978 C1970 0.930 . S
H1979 C1971 0.929 . S
H1980 C1988 0.929 . S
H1981 C1990 0.930 . S
H1982 C1992 0.930 . S
H1983 C1995 0.929 . S
H1984 C1998 0.930 1_565 S
H1985 C2000 0.960 . S
H1986 C2000 0.960 . S
H1987 C2000 0.960 . S
C1988 H1980 0.929 . S
C1988 C1989 1.377 . S
C1988 C1990 1.384 . S
C1989 C1988 1.377 . S
C1989 C1995 1.390 1_565 S
C1990 H1981 0.930 . S
C1990 C1988 1.384 . S
C1990 C1991 1.372 1_565 S
C1991 C1990 1.372 1_545 S
C1991 C1992 1.400 . S
C1991 C1996 1.490 . S
C1992 H1982 0.930 . S
C1992 C1991 1.400 . S
C1992 C1995 1.386 . S
H1993 C2009 0.930 . S
H1994 C2010 0.931 . S
C1995 H1983 0.929 . S
C1995 C1989 1.390 1_545 S
C1995 C1992 1.386 . S
C1996 C1991 1.490 . S
C1996 C1998 1.395 . S
C1996 C1999 1.403 . S
H1997 C2003 0.930 . S
C1998 H1984 0.930 1_545 S
C1998 C1996 1.395 . S
C1998 C2001 1.403 . S
C1999 C1996 1.403 . S
C1999 C2000 1.524 . S
C1999 C2003 1.400 . S
C2000 H1985 0.960 . S
C2000 H1986 0.960 . S
C2000 H1987 0.960 . S
C2000 C1999 1.524 . S
C2001 C1998 1.403 . S
C2001 C2002 1.392 . S
C2001 C2005 1.495 . S
C2002 C2001 1.392 . S
C2002 C2003 1.385 . S
C2002 C2004 1.478 . S
C2003 H1997 0.930 . S
C2003 C1999 1.400 . S
C2003 C2002 1.385 . S
C2004 C2002 1.478 . S
C2004 C2006 1.381 . S
C2004 C2010 1.383 . S
C2005 C2001 1.495 . S
C2005 H2011 0.959 1_545 S
C2005 H2012 0.961 . S
C2005 H2013 0.960 . S
C2006 C2004 1.381 . S
C2006 C2007 1.394 . S
C2006 H2014 0.930 . S
C2007 C2006 1.394 . S
C2007 C2008 1.383 . S
C2007 H2015 0.929 . S
C2008 C2007 1.383 . S
C2008 C2009 1.377 . S
C2009 H1993 0.930 . S
C2009 C2008 1.377 . S
C2009 C2010 1.379 . S
C2010 H1994 0.931 . S
C2010 C2004 1.383 . S
C2010 C2009 1.379 . S
H2011 C2005 0.959 1_565 S
H2012 C2005 0.961 . S
H2013 C2005 0.960 . S
H2014 C2006 0.930 . S
H2015 C2007 0.929 . S
H2016 C2024 0.929 . S
H2017 C2026 0.930 . S
H2018 C2028 0.930 . S
H2019 C2031 0.929 . S
H2020 C2034 0.930 . S
H2021 C2036 0.960 . S
H2022 C2036 0.960 . S
H2023 C2036 0.960 . S
C2024 H2016 0.929 . S
C2024 C2025 1.377 . S
C2024 C2026 1.384 . S
C2025 C2024 1.377 . S
C2025 C2031 1.390 . S
C2026 H2017 0.930 . S
C2026 C2024 1.384 . S
C2026 C2027 1.372 . S
C2027 C2026 1.372 . S
C2027 C2028 1.400 . S
C2027 C2032 1.490 . S
C2028 H2018 0.930 . S
C2028 C2027 1.400 . S
C2028 C2031 1.386 . S
H2029 C2045 0.930 . S
H2030 C2046 0.939 . S
C2031 H2019 0.929 . S
C2031 C2025 1.390 . S
C2031 C2028 1.386 . S
C2032 C2027 1.490 . S
C2032 C2034 1.395 . S
C2032 C2035 1.403 . S
H2033 C2039 0.930 . S
C2034 H2020 0.930 . S
C2034 C2032 1.395 . S
C2034 C2037 1.403 . S
C2035 C2032 1.403 . S
C2035 C2036 1.524 . S
C2035 C2039 1.400 . S
C2036 H2021 0.960 . S
C2036 H2022 0.960 . S
C2036 H2023 0.960 . S
C2036 C2035 1.524 . S
C2037 C2034 1.403 . S
C2037 C2038 1.392 . S
C2037 C2041 1.495 1_655 S
C2038 C2037 1.392 . S
C2038 C2039 1.385 . S
C2038 C2040 1.478 . S
C2039 H2033 0.930 . S
C2039 C2035 1.400 . S
C2039 C2038 1.385 . S
C2040 C2038 1.478 . S
C2040 C2042 1.381 . S
C2040 C2046 1.382 . S
C2041 C2037 1.495 1_455 S
C2041 H2047 0.959 . S
C2041 H2048 0.961 . S
C2041 H2049 0.960 . S
C2042 C2040 1.381 . S
C2042 C2043 1.394 1_655 S
C2042 H2050 0.930 . S
C2043 C2042 1.394 1_455 S
C2043 C2044 1.383 . S
C2043 H2051 0.929 . S
C2044 C2043 1.383 . S
C2044 C2045 1.377 . S
C2045 H2029 0.930 . S
C2045 C2044 1.377 . S
C2045 C2046 1.379 1_455 S
C2046 H2030 0.939 . S
C2046 C2040 1.382 . S
C2046 C2045 1.379 1_655 S
H2047 C2041 0.959 . S
H2048 C2041 0.961 . S
H2049 C2041 0.960 . S
H2050 C2042 0.930 . S
H2051 C2043 0.929 . S
H2052 C2060 0.929 . S
H2053 C2062 0.930 . S
H2054 C2064 0.930 . S
H2055 C2067 0.929 . S
H2056 C2070 0.930 . S
H2057 C2072 0.960 . S
H2058 C2072 0.960 . S
H2059 C2072 0.960 . S
C2060 H2052 0.929 . S
C2060 C2061 1.377 . S
C2060 C2062 1.384 . S
C2061 C2060 1.377 . S
C2061 C2067 1.390 . S
C2062 H2053 0.930 . S
C2062 C2060 1.384 . S
C2062 C2063 1.372 . S
C2063 C2062 1.372 . S
C2063 C2064 1.400 . S
C2063 C2068 1.490 . S
C2064 H2054 0.930 . S
C2064 C2063 1.400 . S
C2064 C2067 1.386 . S
H2065 C2081 0.930 . S
H2066 C2082 0.931 . S
C2067 H2055 0.929 . S
C2067 C2061 1.390 . S
C2067 C2064 1.386 . S
C2068 C2063 1.490 . S
C2068 C2070 1.395 . S
C2068 C2071 1.403 . S
H2069 C2075 0.930 . S
C2070 H2056 0.930 . S
C2070 C2068 1.395 . S
C2070 C2073 1.403 . S
C2071 C2068 1.403 . S
C2071 C2072 1.524 . S
C2071 C2075 1.400 . S
C2072 H2057 0.960 . S
C2072 H2058 0.960 . S
C2072 H2059 0.960 . S
C2072 C2071 1.524 . S
C2073 C2070 1.403 . S
C2073 C2074 1.392 . S
C2073 C2077 1.495 . S
C2074 C2073 1.392 . S
C2074 C2075 1.385 . S
C2074 C2076 1.478 . S
C2075 H2069 0.930 . S
C2075 C2071 1.400 . S
C2075 C2074 1.385 . S
C2076 C2074 1.478 . S
C2076 C2078 1.381 . S
C2076 C2082 1.383 . S
C2077 C2073 1.495 . S
C2077 H2083 0.959 . S
C2077 H2084 0.961 . S
C2077 H2085 0.960 . S
C2078 C2076 1.381 . S
C2078 C2079 1.394 . S
C2078 H2086 0.930 . S
C2079 C2078 1.394 . S
C2079 C2080 1.383 . S
C2079 H2087 0.929 . S
C2080 C2079 1.383 . S
C2080 C2081 1.377 . S
C2081 H2065 0.930 . S
C2081 C2080 1.377 . S
C2081 C2082 1.379 . S
C2082 H2066 0.931 . S
C2082 C2076 1.383 . S
C2082 C2081 1.379 . S
H2083 C2077 0.959 . S
H2084 C2077 0.961 . S
H2085 C2077 0.960 . S
H2086 C2078 0.930 . S
H2087 C2079 0.929 . S
H2088 C2096 0.929 . S
H2089 C2098 0.930 . S
H2090 C2100 0.930 . S
H2091 C2103 0.929 . S
H2092 C2106 0.930 . S
H2093 C2108 0.960 . S
H2094 C2108 0.960 . S
H2095 C2108 0.960 . S
C2096 H2088 0.929 . S
C2096 C2097 1.377 . S
C2096 C2098 1.384 . S
C2097 C2096 1.377 . S
C2097 C2103 1.390 . S
C2098 H2089 0.930 . S
C2098 C2096 1.384 . S
C2098 C2099 1.372 . S
C2099 C2098 1.372 . S
C2099 C2100 1.400 . S
C2099 C2104 1.490 . S
C2100 H2090 0.930 . S
C2100 C2099 1.400 . S
C2100 C2103 1.386 . S
H2101 C2117 0.930 . S
H2102 C2118 0.931 . S
C2103 H2091 0.929 . S
C2103 C2097 1.390 . S
C2103 C2100 1.386 . S
C2104 C2099 1.490 . S
C2104 C2106 1.395 . S
C2104 C2107 1.403 . S
H2105 C2111 0.930 . S
C2106 H2092 0.930 . S
C2106 C2104 1.395 . S
C2106 C2109 1.403 . S
C2107 C2104 1.403 . S
C2107 C2108 1.524 . S
C2107 C2111 1.400 . S
C2108 H2093 0.960 . S
C2108 H2094 0.960 . S
C2108 H2095 0.960 . S
C2108 C2107 1.524 . S
C2109 C2106 1.403 . S
C2109 C2110 1.392 . S
C2109 C2113 1.495 . S
C2110 C2109 1.392 . S
C2110 C2111 1.385 . S
C2110 C2112 1.478 . S
C2111 H2105 0.930 . S
C2111 C2107 1.400 . S
C2111 C2110 1.385 . S
C2112 C2110 1.478 . S
C2112 C2114 1.381 1_545 S
C2112 C2118 1.383 . S
C2113 C2109 1.495 . S
C2113 H2119 0.959 . S
C2113 H2120 0.961 . S
C2113 H2121 0.960 . S
C2114 C2112 1.381 1_565 S
C2114 C2115 1.394 . S
C2114 H2122 0.930 . S
C2115 C2114 1.394 . S
C2115 C2116 1.383 . S
C2115 H2123 0.929 . S
C2116 C2115 1.383 . S
C2116 C2117 1.377 1_565 S
C2117 H2101 0.930 . S
C2117 C2116 1.377 1_545 S
C2117 C2118 1.379 . S
C2118 H2102 0.931 . S
C2118 C2112 1.383 . S
C2118 C2117 1.379 . S
H2119 C2113 0.959 . S
H2120 C2113 0.961 . S
H2121 C2113 0.960 . S
H2122 C2114 0.930 . S
H2123 C2115 0.929 . S
H2124 C2132 0.929 . S
H2125 C2134 0.930 . S
H2126 C2136 0.930 . S
H2127 C2139 0.929 . S
H2128 C2142 0.930 . S
H2129 C2144 0.960 . S
H2130 C2144 0.960 . S
H2131 C2144 0.960 . S
C2132 H2124 0.929 . S
C2132 C2133 1.377 . S
C2132 C2134 1.384 . S
C2133 C2132 1.377 . S
C2133 C2139 1.390 . S
C2134 H2125 0.930 . S
C2134 C2132 1.384 . S
C2134 C2135 1.372 . S
C2135 C2134 1.372 . S
C2135 C2136 1.400 . S
C2135 C2140 1.490 . S
C2136 H2126 0.930 . S
C2136 C2135 1.400 . S
C2136 C2139 1.386 . S
H2137 C2153 0.930 . S
H2138 C2154 0.931 . S
C2139 H2127 0.929 . S
C2139 C2133 1.390 . S
C2139 C2136 1.386 . S
C2140 C2135 1.490 . S
C2140 C2142 1.395 . S
C2140 C2143 1.403 . S
H2141 C2147 0.930 . S
C2142 H2128 0.930 . S
C2142 C2140 1.395 . S
C2142 C2145 1.403 . S
C2143 C2140 1.403 . S
C2143 C2144 1.524 . S
C2143 C2147 1.400 . S
C2144 H2129 0.960 . S
C2144 H2130 0.960 . S
C2144 H2131 0.960 . S
C2144 C2143 1.524 . S
C2145 C2142 1.403 . S
C2145 C2146 1.392 . S
C2145 C2149 1.495 1_655 S
C2146 C2145 1.392 . S
C2146 C2147 1.385 . S
C2146 C2148 1.478 . S
C2147 H2141 0.930 . S
C2147 C2143 1.400 . S
C2147 C2146 1.385 . S
C2148 C2146 1.478 . S
C2148 C2150 1.381 . S
C2148 C2154 1.383 . S
C2149 C2145 1.495 1_455 S
C2149 H2155 0.959 . S
C2149 H2156 0.961 . S
C2149 H2157 0.960 . S
C2150 C2148 1.381 . S
C2150 C2151 1.394 1_655 S
C2150 H2158 0.930 . S
C2151 C2150 1.394 1_455 S
C2151 C2152 1.383 . S
C2151 H2159 0.929 . S
C2152 C2151 1.383 . S
C2152 C2153 1.377 . S
C2153 H2137 0.930 . S
C2153 C2152 1.377 . S
C2153 C2154 1.379 1_455 S
C2154 H2138 0.931 . S
C2154 C2148 1.383 . S
C2154 C2153 1.379 1_655 S
H2155 C2149 0.959 . S
H2156 C2149 0.961 . S
H2157 C2149 0.960 . S
H2158 C2150 0.930 . S
H2159 C2151 0.929 . S
H2160 C2168 0.929 . S
H2161 C2170 0.930 . S
H2162 C2172 0.930 . S
H2163 C2175 0.929 . S
H2164 C2178 0.930 . S
H2165 C2180 0.960 . S
H2166 C2180 0.960 . S
H2167 C2180 0.960 . S
C2168 H2160 0.929 . S
C2168 C2169 1.377 . S
C2168 C2170 1.384 . S
C2169 C2168 1.377 . S
C2169 C2175 1.390 . S
C2170 H2161 0.930 . S
C2170 C2168 1.384 . S
C2170 C2171 1.372 . S
C2171 C2170 1.372 . S
C2171 C2172 1.400 . S
C2171 C2176 1.490 . S
C2172 H2162 0.930 . S
C2172 C2171 1.400 . S
C2172 C2175 1.386 . S
H2173 C2189 0.930 . S
H2174 C2190 0.931 . S
C2175 H2163 0.929 . S
C2175 C2169 1.390 . S
C2175 C2172 1.386 . S
C2176 C2171 1.490 . S
C2176 C2178 1.395 . S
C2176 C2179 1.403 . S
H2177 C2183 0.930 . S
C2178 H2164 0.930 . S
C2178 C2176 1.395 . S
C2178 C2181 1.403 . S
C2179 C2176 1.403 . S
C2179 C2180 1.524 . S
C2179 C2183 1.400 . S
C2180 H2165 0.960 . S
C2180 H2166 0.960 . S
C2180 H2167 0.960 . S
C2180 C2179 1.524 . S
C2181 C2178 1.403 . S
C2181 C2182 1.392 . S
C2181 C2185 1.495 . S
C2182 C2181 1.392 . S
C2182 C2183 1.385 . S
C2182 C2184 1.478 . S
C2183 H2177 0.930 . S
C2183 C2179 1.400 . S
C2183 C2182 1.385 . S
C2184 C2182 1.478 . S
C2184 C2186 1.381 . S
C2184 C2190 1.383 . S
C2185 C2181 1.495 . S
C2185 H2191 0.959 . S
C2185 H2192 0.961 . S
C2185 H2193 0.960 . S
C2186 C2184 1.381 . S
C2186 C2187 1.394 . S
C2186 H2194 0.930 . S
C2187 C2186 1.394 . S
C2187 C2188 1.383 . S
C2187 H2195 0.929 . S
C2188 C2187 1.383 . S
C2188 C2189 1.377 . S
C2189 H2173 0.930 . S
C2189 C2188 1.377 . S
C2189 C2190 1.379 . S
C2190 H2174 0.931 . S
C2190 C2184 1.383 . S
C2190 C2189 1.379 . S
H2191 C2185 0.959 . S
H2192 C2185 0.961 . S
H2193 C2185 0.960 . S
H2194 C2186 0.930 . S
H2195 C2187 0.929 . S
H2196 C2204 0.929 . S
H2197 C2206 0.930 . S
H2198 C2208 0.930 . S
H2199 C2211 0.929 . S
H2200 C2214 0.930 . S
H2201 C2216 0.960 . S
H2202 C2216 0.960 . S
H2203 C2216 0.960 . S
C2204 H2196 0.929 . S
C2204 C2205 1.377 . S
C2204 C2206 1.384 . S
C2205 C2204 1.377 . S
C2205 C2211 1.390 . S
C2206 H2197 0.930 . S
C2206 C2204 1.384 . S
C2206 C2207 1.372 . S
C2207 C2206 1.372 . S
C2207 C2208 1.400 . S
C2207 C2212 1.490 . S
C2208 H2198 0.930 . S
C2208 C2207 1.400 . S
C2208 C2211 1.386 . S
H2209 C2225 0.930 . S
H2210 C2226 0.931 . S
C2211 H2199 0.929 . S
C2211 C2205 1.390 . S
C2211 C2208 1.386 . S
C2212 C2207 1.490 . S
C2212 C2214 1.395 . S
C2212 C2215 1.403 . S
H2213 C2219 0.930 . S
C2214 H2200 0.930 . S
C2214 C2212 1.395 . S
C2214 C2217 1.403 . S
C2215 C2212 1.403 . S
C2215 C2216 1.524 . S
C2215 C2219 1.400 . S
C2216 H2201 0.960 . S
C2216 H2202 0.960 . S
C2216 H2203 0.960 . S
C2216 C2215 1.524 . S
C2217 C2214 1.403 . S
C2217 C2218 1.392 . S
C2217 C2221 1.495 . S
C2218 C2217 1.392 . S
C2218 C2219 1.385 . S
C2218 C2220 1.478 . S
C2219 H2213 0.930 . S
C2219 C2215 1.400 . S
C2219 C2218 1.385 . S
C2220 C2218 1.478 . S
C2220 C2222 1.381 1_565 S
C2220 C2226 1.383 . S
C2221 C2217 1.495 . S
C2221 H2227 0.959 . S
C2221 H2228 0.961 . S
C2221 H2229 0.960 1_565 S
C2222 C2220 1.381 1_545 S
C2222 C2223 1.394 . S
C2222 H2230 0.930 . S
C2223 C2222 1.394 . S
C2223 C2224 1.383 . S
C2223 H2231 0.929 . S
C2224 C2223 1.383 . S
C2224 C2225 1.377 1_545 S
C2225 H2209 0.930 . S
C2225 C2224 1.377 1_565 S
C2225 C2226 1.379 . S
C2226 H2210 0.931 . S
C2226 C2220 1.383 . S
C2226 C2225 1.379 . S
H2227 C2221 0.959 . S
H2228 C2221 0.961 . S
H2229 C2221 0.960 1_545 S
H2230 C2222 0.930 . S
H2231 C2223 0.929 . S
H2232 C2240 0.929 . S
H2233 C2242 0.930 . S
H2234 C2244 0.930 . S
H2235 C2247 0.940 . S
H2236 C2250 0.930 1_655 S
H2237 C2252 0.960 . S
H2238 C2252 0.960 . S
H2239 C2252 0.960 . S
C2240 H2232 0.929 . S
C2240 C2241 1.377 . S
C2240 C2242 1.384 1_655 S
C2241 C2240 1.377 . S
C2241 C2247 1.379 1_655 S
C2242 H2233 0.930 . S
C2242 C2240 1.384 1_455 S
C2242 C2243 1.372 . S
C2243 C2242 1.372 . S
C2243 C2244 1.400 . S
C2243 C2248 1.490 . S
C2244 H2234 0.930 . S
C2244 C2243 1.400 . S
C2244 C2247 1.386 . S
H2245 C2261 0.930 . S
H2246 C2262 0.931 . S
C2247 H2235 0.940 . S
C2247 C2241 1.379 1_455 S
C2247 C2244 1.386 . S
C2248 C2243 1.490 . S
C2248 C2250 1.395 . S
C2248 C2251 1.403 . S
H2249 C2255 0.930 . S
C2250 H2236 0.930 1_455 S
C2250 C2248 1.395 . S
C2250 C2253 1.403 . S
C2251 C2248 1.403 . S
C2251 C2252 1.524 . S
C2251 C2255 1.400 . S
C2252 H2237 0.960 . S
C2252 H2238 0.960 . S
C2252 H2239 0.960 . S
C2252 C2251 1.524 . S
C2253 C2250 1.403 . S
C2253 C2254 1.392 . S
C2253 C2257 1.495 . S
C2254 C2253 1.392 . S
C2254 C2255 1.385 . S
C2254 C2256 1.478 . S
C2255 H2249 0.930 . S
C2255 C2251 1.400 . S
C2255 C2254 1.385 . S
C2256 C2254 1.478 . S
C2256 C2258 1.381 . S
C2256 C2262 1.383 . S
C2257 C2253 1.495 . S
C2257 H2263 0.959 1_455 S
C2257 H2264 0.961 . S
C2257 H2265 0.960 . S
C2258 C2256 1.381 . S
C2258 C2259 1.394 . S
C2258 H2266 0.930 . S
C2259 C2258 1.394 . S
C2259 C2260 1.383 . S
C2259 H2267 0.929 . S
C2260 C2259 1.383 . S
C2260 C2261 1.377 . S
C2261 H2245 0.930 . S
C2261 C2260 1.377 . S
C2261 C2262 1.379 . S
C2262 H2246 0.931 . S
C2262 C2256 1.383 . S
C2262 C2261 1.379 . S
H2263 C2257 0.959 1_655 S
H2264 C2257 0.961 . S
H2265 C2257 0.960 . S
H2266 C2258 0.930 . S
H2267 C2259 0.929 . S
H2268 C2276 0.929 . S
H2269 C2278 0.930 . S
H2270 C2280 0.930 . S
H2271 C2283 0.929 . S
H2272 C2286 0.930 . S
H2273 C2288 0.960 . S
H2274 C2288 0.960 . S
H2275 C2288 0.960 . S
C2276 H2268 0.929 . S
C2276 C2277 1.377 . S
C2276 C2278 1.384 . S
C2277 C2276 1.377 . S
C2277 C2283 1.390 . S
C2278 H2269 0.930 . S
C2278 C2276 1.384 . S
C2278 C2279 1.372 . S
C2279 C2278 1.372 . S
C2279 C2280 1.400 . S
C2279 C2284 1.490 . S
C2280 H2270 0.930 . S
C2280 C2279 1.400 . S
C2280 C2283 1.386 . S
H2281 C2297 0.930 . S
H2282 C2298 0.931 . S
C2283 H2271 0.929 . S
C2283 C2277 1.390 . S
C2283 C2280 1.386 . S
C2284 C2279 1.490 . S
C2284 C2286 1.395 . S
C2284 C2287 1.403 . S
H2285 C2291 0.930 . S
C2286 H2272 0.930 . S
C2286 C2284 1.395 . S
C2286 C2289 1.403 1_455 S
C2287 C2284 1.403 . S
C2287 C2288 1.524 . S
C2287 C2291 1.400 1_455 S
C2288 H2273 0.960 . S
C2288 H2274 0.960 . S
C2288 H2275 0.960 . S
C2288 C2287 1.524 . S
C2289 C2286 1.403 1_655 S
C2289 C2290 1.392 . S
C2289 C2293 1.495 . S
C2290 C2289 1.392 . S
C2290 C2291 1.385 . S
C2290 C2292 1.478 . S
C2291 H2285 0.930 . S
C2291 C2287 1.400 1_655 S
C2291 C2290 1.385 . S
C2292 C2290 1.478 . S
C2292 C2294 1.381 . S
C2292 C2298 1.383 . S
C2293 C2289 1.495 . S
C2293 H2299 0.959 . S
C2293 H2300 0.961 . S
C2293 H2301 0.960 . S
C2294 C2292 1.381 . S
C2294 C2295 1.394 . S
C2294 H2302 0.930 . S
C2295 C2294 1.394 . S
C2295 C2296 1.383 . S
C2295 H2303 0.929 . S
C2296 C2295 1.383 . S
C2296 C2297 1.377 . S
C2297 H2281 0.930 . S
C2297 C2296 1.377 . S
C2297 C2298 1.379 . S
C2298 H2282 0.931 . S
C2298 C2292 1.383 . S
C2298 C2297 1.379 . S
H2299 C2293 0.959 . S
H2300 C2293 0.961 . S
H2301 C2293 0.960 . S
H2302 C2294 0.930 . S
H2303 C2295 0.929 . S
H2304 C2312 0.929 . S
H2305 C2314 0.930 . S
H2306 C2316 0.930 . S
H2307 C2319 0.929 . S
H2308 C2322 0.930 . S
H2309 C2324 0.960 . S
H2310 C2324 0.960 . S
H2311 C2324 0.960 . S
C2312 H2304 0.929 . S
C2312 C2313 1.377 . S
C2312 C2314 1.384 . S
C2313 C2312 1.377 . S
C2313 C2319 1.390 . S
C2314 H2305 0.930 . S
C2314 C2312 1.384 . S
C2314 C2315 1.372 . S
C2315 C2314 1.372 . S
C2315 C2316 1.400 . S
C2315 C2320 1.490 . S
C2316 H2306 0.930 . S
C2316 C2315 1.400 . S
C2316 C2319 1.386 . S
H2317 C2333 0.930 . S
H2318 C2334 0.931 . S
C2319 H2307 0.929 . S
C2319 C2313 1.390 . S
C2319 C2316 1.386 . S
C2320 C2315 1.490 . S
C2320 C2322 1.395 . S
C2320 C2323 1.403 . S
H2321 C2327 0.930 . S
C2322 H2308 0.930 . S
C2322 C2320 1.395 . S
C2322 C2325 1.403 . S
C2323 C2320 1.403 . S
C2323 C2324 1.524 . S
C2323 C2327 1.400 . S
C2324 H2309 0.960 . S
C2324 H2310 0.960 . S
C2324 H2311 0.960 . S
C2324 C2323 1.524 . S
C2325 C2322 1.403 . S
C2325 C2326 1.392 . S
C2325 C2329 1.495 . S
C2326 C2325 1.392 . S
C2326 C2327 1.385 . S
C2326 C2328 1.478 . S
C2327 H2321 0.930 . S
C2327 C2323 1.400 . S
C2327 C2326 1.385 . S
C2328 C2326 1.478 . S
C2328 C2330 1.381 . S
C2328 C2334 1.383 . S
C2329 C2325 1.495 . S
C2329 H2335 0.959 . S
C2329 H2336 0.961 . S
C2329 H2337 0.960 . S
C2330 C2328 1.381 . S
C2330 C2331 1.394 . S
C2330 H2338 0.930 . S
C2331 C2330 1.394 . S
C2331 C2332 1.383 . S
C2331 H2339 0.929 . S
C2332 C2331 1.383 . S
C2332 C2333 1.377 . S
C2333 H2317 0.930 . S
C2333 C2332 1.377 . S
C2333 C2334 1.379 . S
C2334 H2318 0.931 . S
C2334 C2328 1.383 . S
C2334 C2333 1.379 . S
H2335 C2329 0.959 . S
H2336 C2329 0.961 . S
H2337 C2329 0.960 . S
H2338 C2330 0.930 . S
H2339 C2331 0.929 . S
H2340 C2348 0.929 . S
H2341 C2350 0.930 . S
H2342 C2352 0.930 . S
H2343 C2355 0.929 . S
H2344 C2358 0.930 . S
H2345 C2360 0.960 . S
H2346 C2360 0.960 . S
H2347 C2360 0.960 . S
C2348 H2340 0.929 . S
C2348 C2349 1.377 . S
C2348 C2350 1.384 . S
C2349 C2348 1.377 . S
C2349 C2355 1.390 . S
C2350 H2341 0.930 . S
C2350 C2348 1.384 . S
C2350 C2351 1.372 . S
C2351 C2350 1.372 . S
C2351 C2352 1.400 . S
C2351 C2356 1.490 . S
C2352 H2342 0.930 . S
C2352 C2351 1.400 . S
C2352 C2355 1.386 . S
H2353 C2369 0.930 . S
H2354 C2370 0.931 . S
C2355 H2343 0.929 . S
C2355 C2349 1.390 . S
C2355 C2352 1.386 . S
C2356 C2351 1.490 . S
C2356 C2358 1.395 . S
C2356 C2359 1.403 . S
H2357 C2363 0.930 . S
C2358 H2344 0.930 . S
C2358 C2356 1.395 . S
C2358 C2361 1.403 1_565 S
C2359 C2356 1.403 . S
C2359 C2360 1.524 . S
C2359 C2363 1.400 1_565 S
C2360 H2345 0.960 . S
C2360 H2346 0.960 . S
C2360 H2347 0.960 . S
C2360 C2359 1.524 . S
C2361 C2358 1.403 1_545 S
C2361 C2362 1.392 . S
C2361 C2365 1.495 . S
C2362 C2361 1.392 . S
C2362 C2363 1.385 . S
C2362 C2364 1.478 . S
C2363 H2357 0.930 . S
C2363 C2359 1.400 1_545 S
C2363 C2362 1.385 . S
C2364 C2362 1.478 . S
C2364 C2366 1.381 . S
C2364 C2370 1.383 . S
C2365 C2361 1.495 . S
C2365 H2371 0.959 . S
C2365 H2372 0.961 . S
C2365 H2373 0.960 . S
C2366 C2364 1.381 . S
C2366 C2367 1.394 . S
C2366 H2374 0.930 . S
C2367 C2366 1.394 . S
C2367 C2368 1.383 . S
C2367 H2375 0.929 . S
C2368 C2367 1.383 . S
C2368 C2369 1.377 . S
C2369 H2353 0.930 . S
C2369 C2368 1.377 . S
C2369 C2370 1.379 . S
C2370 H2354 0.931 . S
C2370 C2364 1.383 . S
C2370 C2369 1.379 . S
H2371 C2365 0.959 . S
H2372 C2365 0.961 . S
H2373 C2365 0.960 . S
H2374 C2366 0.930 . S
H2375 C2367 0.929 . S
H2376 C2384 0.929 . S
H2377 C2386 0.930 . S
H2378 C2388 0.930 . S
H2379 C2391 0.929 . S
H2380 C2394 0.930 . S
H2381 C2396 0.960 . S
H2382 C2396 0.960 . S
H2383 C2396 0.960 . S
C2384 H2376 0.929 . S
C2384 C2385 1.377 . S
C2384 C2386 1.384 . S
C2385 C2384 1.377 . S
C2385 C2391 1.390 . S
C2386 H2377 0.930 . S
C2386 C2384 1.384 . S
C2386 C2387 1.372 . S
C2387 C2386 1.372 . S
C2387 C2388 1.400 . S
C2387 C2392 1.490 . S
C2388 H2378 0.930 . S
C2388 C2387 1.400 . S
C2388 C2391 1.386 . S
H2389 C2405 0.930 . S
H2390 C2406 0.931 . S
C2391 H2379 0.929 . S
C2391 C2385 1.390 . S
C2391 C2388 1.386 . S
C2392 C2387 1.490 . S
C2392 C2394 1.395 . S
C2392 C2395 1.403 . S
H2393 C2399 0.930 . S
C2394 H2380 0.930 . S
C2394 C2392 1.395 . S
C2394 C2397 1.403 1_545 S
C2395 C2392 1.403 . S
C2395 C2396 1.524 . S
C2395 C2399 1.400 1_545 S
C2396 H2381 0.960 . S
C2396 H2382 0.960 . S
C2396 H2383 0.960 . S
C2396 C2395 1.524 . S
C2397 C2394 1.403 1_565 S
C2397 C2398 1.392 . S
C2397 C2401 1.495 . S
C2398 C2397 1.392 . S
C2398 C2399 1.385 . S
C2398 C2400 1.478 . S
C2399 H2393 0.930 . S
C2399 C2395 1.400 1_565 S
C2399 C2398 1.385 . S
C2400 C2398 1.478 . S
C2400 C2402 1.381 . S
C2400 C2406 1.383 . S
C2401 C2397 1.495 . S
C2401 H2407 0.959 . S
C2401 H2408 0.961 . S
C2401 H2409 0.960 . S
C2402 C2400 1.381 . S
C2402 C2403 1.394 . S
C2402 H2410 0.930 . S
C2403 C2402 1.394 . S
C2403 C2404 1.383 . S
C2403 H2411 0.929 . S
C2404 C2403 1.383 . S
C2404 C2405 1.377 . S
C2405 H2389 0.930 . S
C2405 C2404 1.377 . S
C2405 C2406 1.379 . S
C2406 H2390 0.931 . S
C2406 C2400 1.383 . S
C2406 C2405 1.379 . S
H2407 C2401 0.959 . S
H2408 C2401 0.961 . S
H2409 C2401 0.960 . S
H2410 C2402 0.930 . S
H2411 C2403 0.929 . S
H2412 C2420 0.929 . S
H2413 C2422 0.930 . S
H2414 C2424 0.930 . S
H2415 C2427 0.929 . S
H2416 C2430 0.930 . S
H2417 C2432 0.960 . S
H2418 C2432 0.960 . S
H2419 C2432 0.960 . S
C2420 H2412 0.929 . S
C2420 C2421 1.377 . S
C2420 C2422 1.384 . S
C2421 C2420 1.377 . S
C2421 C2427 1.390 . S
C2422 H2413 0.930 . S
C2422 C2420 1.384 . S
C2422 C2423 1.372 . S
C2423 C2422 1.372 . S
C2423 C2424 1.400 . S
C2423 C2428 1.490 . S
C2424 H2414 0.930 . S
C2424 C2423 1.400 . S
C2424 C2427 1.386 . S
H2425 C2441 0.930 . S
H2426 C2442 0.931 . S
C2427 H2415 0.929 . S
C2427 C2421 1.390 . S
C2427 C2424 1.386 . S
C2428 C2423 1.490 . S
C2428 C2430 1.395 . S
C2428 C2431 1.403 . S
H2429 C2435 0.930 . S
C2430 H2416 0.930 . S
C2430 C2428 1.395 . S
C2430 C2433 1.403 1_655 S
C2431 C2428 1.403 . S
C2431 C2432 1.524 . S
C2431 C2435 1.400 1_655 S
C2432 H2417 0.960 . S
C2432 H2418 0.960 . S
C2432 H2419 0.960 . S
C2432 C2431 1.524 . S
C2433 C2430 1.403 1_455 S
C2433 C2434 1.392 . S
C2433 C2437 1.495 . S
C2434 C2433 1.392 . S
C2434 C2435 1.385 . S
C2434 C2436 1.478 . S
C2435 H2429 0.930 . S
C2435 C2431 1.400 1_455 S
C2435 C2434 1.385 . S
C2436 C2434 1.478 . S
C2436 C2438 1.381 . S
C2436 C2442 1.383 . S
C2437 C2433 1.495 . S
C2437 H2443 0.959 . S
C2437 H2444 0.961 . S
C2437 H2445 0.960 . S
C2438 C2436 1.381 . S
C2438 C2439 1.394 . S
C2438 H2446 0.930 . S
C2439 C2438 1.394 . S
C2439 C2440 1.383 . S
C2439 H2447 0.929 . S
C2440 C2439 1.383 . S
C2440 C2441 1.377 . S
C2441 H2425 0.930 . S
C2441 C2440 1.377 . S
C2441 C2442 1.379 . S
C2442 H2426 0.931 . S
C2442 C2436 1.383 . S
C2442 C2441 1.379 . S
H2443 C2437 0.959 . S
H2444 C2437 0.961 . S
H2445 C2437 0.960 . S
H2446 C2438 0.930 . S
H2447 C2439 0.929 . S
H2448 C2456 0.929 . S
H2449 C2458 0.930 . S
H2450 C2460 0.930 . S
H2451 C2463 0.929 . S
H2452 C2466 0.930 . S
H2453 C2468 0.960 . S
H2454 C2468 0.960 . S
H2455 C2468 0.960 . S
C2456 H2448 0.929 . S
C2456 C2457 1.377 . S
C2456 C2458 1.384 . S
C2457 C2456 1.377 . S
C2457 C2463 1.390 . S
C2458 H2449 0.930 . S
C2458 C2456 1.384 . S
C2458 C2459 1.372 . S
C2459 C2458 1.372 . S
C2459 C2460 1.400 . S
C2459 C2464 1.490 . S
C2460 H2450 0.930 . S
C2460 C2459 1.400 . S
C2460 C2463 1.386 . S
H2461 C2477 0.930 . S
H2462 C2478 0.931 . S
C2463 H2451 0.929 . S
C2463 C2457 1.390 . S
C2463 C2460 1.386 . S
C2464 C2459 1.490 . S
C2464 C2466 1.395 . S
C2464 C2467 1.403 . S
H2465 C2471 0.930 . S
C2466 H2452 0.930 . S
C2466 C2464 1.395 . S
C2466 C2469 1.403 . S
C2467 C2464 1.403 . S
C2467 C2468 1.524 . S
C2467 C2471 1.400 . S
C2468 H2453 0.960 . S
C2468 H2454 0.960 . S
C2468 H2455 0.960 . S
C2468 C2467 1.524 . S
C2469 C2466 1.403 . S
C2469 C2470 1.392 . S
C2469 C2473 1.495 . S
C2470 C2469 1.392 . S
C2470 C2471 1.385 . S
C2470 C2472 1.478 . S
C2471 H2465 0.930 . S
C2471 C2467 1.400 . S
C2471 C2470 1.385 . S
C2472 C2470 1.478 . S
C2472 C2474 1.381 . S
C2472 C2478 1.383 . S
C2473 C2469 1.495 . S
C2473 H2479 0.959 . S
C2473 H2480 0.961 . S
C2473 H2481 0.960 . S
C2474 C2472 1.381 . S
C2474 C2475 1.394 . S
C2474 H2482 0.930 . S
C2475 C2474 1.394 . S
C2475 C2476 1.383 . S
C2475 H2483 0.929 . S
C2476 C2475 1.383 . S
C2476 C2477 1.377 . S
C2477 H2461 0.930 . S
C2477 C2476 1.377 . S
C2477 C2478 1.379 . S
C2478 H2462 0.931 . S
C2478 C2472 1.383 . S
C2478 C2477 1.379 . S
H2479 C2473 0.959 . S
H2480 C2473 0.961 . S
H2481 C2473 0.960 . S
H2482 C2474 0.930 . S
H2483 C2475 0.929 . S
H2484 C2492 0.929 . S
H2485 C2494 0.930 . S
H2486 C2496 0.930 . S
H2487 C2499 0.929 . S
H2488 C2502 0.930 . S
H2489 C2504 0.960 . S
H2490 C2504 0.960 . S
H2491 C2504 0.960 . S
C2492 H2484 0.929 . S
C2492 C2493 1.377 . S
C2492 C2494 1.384 . S
C2493 C2492 1.377 . S
C2493 C2499 1.390 . S
C2494 H2485 0.930 . S
C2494 C2492 1.384 . S
C2494 C2495 1.372 . S
C2495 C2494 1.372 . S
C2495 C2496 1.400 . S
C2495 C2500 1.490 . S
C2496 H2486 0.930 . S
C2496 C2495 1.400 . S
C2496 C2499 1.386 . S
H2497 C2513 0.930 . S
H2498 C2514 0.931 . S
C2499 H2487 0.929 . S
C2499 C2493 1.390 . S
C2499 C2496 1.386 . S
C2500 C2495 1.490 . S
C2500 C2502 1.395 . S
C2500 C2503 1.403 . S
H2501 C2507 0.930 . S
C2502 H2488 0.930 . S
C2502 C2500 1.395 . S
C2502 C2505 1.403 . S
C2503 C2500 1.403 . S
C2503 C2504 1.524 . S
C2503 C2507 1.400 . S
C2504 H2489 0.960 . S
C2504 H2490 0.960 . S
C2504 H2491 0.960 . S
C2504 C2503 1.524 . S
C2505 C2502 1.403 . S
C2505 C2506 1.392 . S
C2505 C2509 1.495 . S
C2506 C2505 1.392 . S
C2506 C2507 1.385 . S
C2506 C2508 1.478 . S
C2507 H2501 0.930 . S
C2507 C2503 1.400 . S
C2507 C2506 1.385 . S
C2508 C2506 1.478 . S
C2508 C2510 1.381 . S
C2508 C2514 1.383 . S
C2509 C2505 1.495 . S
C2509 H2515 0.959 . S
C2509 H2516 0.961 . S
C2509 H2517 0.960 . S
C2510 C2508 1.381 . S
C2510 C2511 1.394 . S
C2510 H2518 0.930 . S
C2511 C2510 1.394 . S
C2511 C2512 1.383 . S
C2511 H2519 0.929 . S
C2512 C2511 1.383 . S
C2512 C2513 1.377 . S
C2513 H2497 0.930 . S
C2513 C2512 1.377 . S
C2513 C2514 1.379 . S
C2514 H2498 0.931 . S
C2514 C2508 1.383 . S
C2514 C2513 1.379 . S
H2515 C2509 0.959 . S
H2516 C2509 0.961 . S
H2517 C2509 0.960 . S
H2518 C2510 0.930 . S
H2519 C2511 0.929 . S
H2520 C2528 0.929 . S
H2521 C2530 0.930 . S
H2522 C2532 0.930 . S
H2523 C2535 0.929 . S
H2524 C2538 0.930 . S
H2525 C2540 0.960 . S
H2526 C2540 0.960 . S
H2527 C2540 0.960 . S
C2528 H2520 0.929 . S
C2528 C2529 1.377 . S
C2528 C2530 1.384 . S
C2529 C2528 1.377 . S
C2529 C2535 1.390 . S
C2530 H2521 0.930 . S
C2530 C2528 1.384 . S
C2530 C2531 1.372 . S
C2531 C2530 1.372 . S
C2531 C2532 1.400 . S
C2531 C2536 1.490 . S
C2532 H2522 0.930 . S
C2532 C2531 1.400 . S
C2532 C2535 1.386 . S
H2533 C2549 0.930 . S
H2534 C2550 0.931 . S
C2535 H2523 0.929 . S
C2535 C2529 1.390 . S
C2535 C2532 1.386 . S
C2536 C2531 1.490 . S
C2536 C2538 1.395 . S
C2536 C2539 1.403 . S
H2537 C2543 0.930 . S
C2538 H2524 0.930 . S
C2538 C2536 1.395 . S
C2538 C2541 1.403 . S
C2539 C2536 1.403 . S
C2539 C2540 1.524 . S
C2539 C2543 1.400 . S
C2540 H2525 0.960 . S
C2540 H2526 0.960 . S
C2540 H2527 0.960 . S
C2540 C2539 1.524 . S
C2541 C2538 1.403 . S
C2541 C2542 1.392 . S
C2541 C2545 1.495 . S
C2542 C2541 1.392 . S
C2542 C2543 1.385 . S
C2542 C2544 1.478 . S
C2543 H2537 0.930 . S
C2543 C2539 1.400 . S
C2543 C2542 1.385 . S
C2544 C2542 1.478 . S
C2544 C2546 1.381 . S
C2544 C2550 1.383 . S
C2545 C2541 1.495 . S
C2545 H2551 0.959 . S
C2545 H2552 0.961 . S
C2545 H2553 0.960 . S
C2546 C2544 1.381 . S
C2546 C2547 1.394 . S
C2546 H2554 0.930 . S
C2547 C2546 1.394 . S
C2547 C2548 1.383 . S
C2547 H2555 0.929 . S
C2548 C2547 1.383 . S
C2548 C2549 1.377 . S
C2549 H2533 0.930 . S
C2549 C2548 1.377 . S
C2549 C2550 1.379 . S
C2550 H2534 0.931 . S
C2550 C2544 1.383 . S
C2550 C2549 1.379 . S
H2551 C2545 0.959 . S
H2552 C2545 0.961 . S
H2553 C2545 0.960 . S
H2554 C2546 0.930 . S
H2555 C2547 0.929 . S
H2556 C2564 0.929 . S
H2557 C2566 0.930 . S
H2558 C2568 0.930 . S
H2559 C2571 0.929 . S
H2560 C2574 0.930 . S
H2561 C2576 0.960 . S
H2562 C2576 0.960 . S
H2563 C2576 0.960 . S
C2564 H2556 0.929 . S
C2564 C2565 1.377 . S
C2564 C2566 1.384 . S
C2565 C2564 1.377 . S
C2565 C2571 1.390 . S
C2566 H2557 0.930 . S
C2566 C2564 1.384 . S
C2566 C2567 1.372 . S
C2567 C2566 1.372 . S
C2567 C2568 1.400 . S
C2567 C2572 1.490 . S
C2568 H2558 0.930 . S
C2568 C2567 1.400 . S
C2568 C2571 1.386 . S
H2569 C2585 0.930 . S
H2570 C2586 0.931 . S
C2571 H2559 0.929 . S
C2571 C2565 1.390 . S
C2571 C2568 1.386 . S
C2572 C2567 1.490 . S
C2572 C2574 1.395 . S
C2572 C2575 1.403 . S
H2573 C2579 0.930 . S
C2574 H2560 0.930 . S
C2574 C2572 1.395 . S
C2574 C2577 1.403 . S
C2575 C2572 1.403 . S
C2575 C2576 1.524 . S
C2575 C2579 1.400 . S
C2576 H2561 0.960 . S
C2576 H2562 0.960 . S
C2576 H2563 0.960 . S
C2576 C2575 1.524 . S
C2577 C2574 1.403 . S
C2577 C2578 1.392 . S
C2577 C2581 1.495 . S
C2578 C2577 1.392 . S
C2578 C2579 1.385 . S
C2578 C2580 1.478 . S
C2579 H2573 0.930 . S
C2579 C2575 1.400 . S
C2579 C2578 1.385 . S
C2580 C2578 1.478 . S
C2580 C2582 1.381 . S
C2580 C2586 1.383 . S
C2581 C2577 1.495 . S
C2581 H2587 0.959 . S
C2581 H2588 0.961 . S
C2581 H2589 0.960 . S
C2582 C2580 1.381 . S
C2582 C2583 1.394 . S
C2582 H2590 0.930 . S
C2583 C2582 1.394 . S
C2583 C2584 1.383 . S
C2583 H2591 0.929 . S
C2584 C2583 1.383 . S
C2584 C2585 1.377 . S
C2585 H2569 0.930 . S
C2585 C2584 1.377 . S
C2585 C2586 1.379 . S
C2586 H2570 0.931 . S
C2586 C2580 1.383 . S
C2586 C2585 1.379 . S
H2587 C2581 0.959 . S
H2588 C2581 0.961 . S
H2589 C2581 0.960 . S
H2590 C2582 0.930 . S
H2591 C2583 0.929 . S
H2592 C2600 0.929 . S
H2593 C2602 0.930 . S
H2594 C2604 0.930 . S
H2595 C2607 0.929 . S
H2596 C2610 0.930 . S
H2597 C2612 0.960 . S
H2598 C2612 0.960 . S
H2599 C2612 0.960 . S
C2600 H2592 0.929 . S
C2600 C2601 1.377 . S
C2600 C2602 1.384 . S
C2601 C2600 1.377 . S
C2601 C2607 1.390 . S
C2602 H2593 0.930 . S
C2602 C2600 1.384 . S
C2602 C2603 1.372 . S
C2603 C2602 1.372 . S
C2603 C2604 1.400 . S
C2603 C2608 1.490 . S
C2604 H2594 0.930 . S
C2604 C2603 1.400 . S
C2604 C2607 1.386 . S
H2605 C2621 0.930 . S
H2606 C2622 0.931 . S
C2607 H2595 0.929 . S
C2607 C2601 1.390 . S
C2607 C2604 1.386 . S
C2608 C2603 1.490 . S
C2608 C2610 1.395 . S
C2608 C2611 1.403 . S
H2609 C2615 0.930 . S
C2610 H2596 0.930 . S
C2610 C2608 1.395 . S
C2610 C2613 1.403 . S
C2611 C2608 1.403 . S
C2611 C2612 1.524 . S
C2611 C2615 1.400 . S
C2612 H2597 0.960 . S
C2612 H2598 0.960 . S
C2612 H2599 0.960 . S
C2612 C2611 1.524 . S
C2613 C2610 1.403 . S
C2613 C2614 1.392 . S
C2613 C2617 1.495 . S
C2614 C2613 1.392 . S
C2614 C2615 1.385 . S
C2614 C2616 1.478 . S
C2615 H2609 0.930 . S
C2615 C2611 1.400 . S
C2615 C2614 1.385 . S
C2616 C2614 1.478 . S
C2616 C2618 1.381 . S
C2616 C2622 1.383 . S
C2617 C2613 1.495 . S
C2617 H2623 0.959 . S
C2617 H2624 0.961 . S
C2617 H2625 0.960 . S
C2618 C2616 1.381 . S
C2618 C2619 1.394 . S
C2618 H2626 0.930 . S
C2619 C2618 1.394 . S
C2619 C2620 1.383 . S
C2619 H2627 0.929 . S
C2620 C2619 1.383 . S
C2620 C2621 1.377 . S
C2621 H2605 0.930 . S
C2621 C2620 1.377 . S
C2621 C2622 1.379 . S
C2622 H2606 0.931 . S
C2622 C2616 1.383 . S
C2622 C2621 1.379 . S
H2623 C2617 0.959 . S
H2624 C2617 0.961 . S
H2625 C2617 0.960 . S
H2626 C2618 0.930 . S
H2627 C2619 0.929 . S
H2628 C2636 0.929 . S
H2629 C2638 0.930 . S
H2630 C2640 0.930 . S
H2631 C2643 0.929 . S
H2632 C2646 0.930 . S
H2633 C2648 0.960 . S
H2634 C2648 0.960 . S
H2635 C2648 0.960 . S
C2636 H2628 0.929 . S
C2636 C2637 1.377 . S
C2636 C2638 1.384 . S
C2637 C2636 1.377 . S
C2637 C2643 1.390 . S
C2638 H2629 0.930 . S
C2638 C2636 1.384 . S
C2638 C2639 1.372 . S
C2639 C2638 1.372 . S
C2639 C2640 1.400 . S
C2639 C2644 1.490 . S
C2640 H2630 0.930 . S
C2640 C2639 1.400 . S
C2640 C2643 1.386 . S
H2641 C2657 0.930 . S
H2642 C2658 0.931 . S
C2643 H2631 0.929 . S
C2643 C2637 1.390 . S
C2643 C2640 1.386 . S
C2644 C2639 1.490 . S
C2644 C2646 1.395 . S
C2644 C2647 1.403 . S
H2645 C2651 0.930 . S
C2646 H2632 0.930 . S
C2646 C2644 1.395 . S
C2646 C2649 1.403 . S
C2647 C2644 1.403 . S
C2647 C2648 1.524 . S
C2647 C2651 1.400 . S
C2648 H2633 0.960 . S
C2648 H2634 0.960 . S
C2648 H2635 0.960 . S
C2648 C2647 1.524 . S
C2649 C2646 1.403 . S
C2649 C2650 1.392 . S
C2649 C2653 1.495 . S
C2650 C2649 1.392 . S
C2650 C2651 1.385 . S
C2650 C2652 1.478 . S
C2651 H2645 0.930 . S
C2651 C2647 1.400 . S
C2651 C2650 1.385 . S
C2652 C2650 1.478 . S
C2652 C2654 1.381 . S
C2652 C2658 1.383 . S
C2653 C2649 1.495 . S
C2653 H2659 0.959 . S
C2653 H2660 0.961 . S
C2653 H2661 0.960 . S
C2654 C2652 1.381 . S
C2654 C2655 1.394 . S
C2654 H2662 0.930 . S
C2655 C2654 1.394 . S
C2655 C2656 1.383 . S
C2655 H2663 0.929 . S
C2656 C2655 1.383 . S
C2656 C2657 1.377 . S
C2657 H2641 0.930 . S
C2657 C2656 1.377 . S
C2657 C2658 1.379 . S
C2658 H2642 0.931 . S
C2658 C2652 1.383 . S
C2658 C2657 1.379 . S
H2659 C2653 0.959 . S
H2660 C2653 0.961 . S
H2661 C2653 0.960 . S
H2662 C2654 0.930 . S
H2663 C2655 0.929 . S
H2664 C2672 0.929 . S
H2665 C2674 0.930 . S
H2666 C2676 0.930 . S
H2667 C2679 0.929 . S
H2668 C2682 0.930 . S
H2669 C2684 0.960 . S
H2670 C2684 0.960 . S
H2671 C2684 0.960 . S
C2672 H2664 0.929 . S
C2672 C2673 1.377 . S
C2672 C2674 1.384 . S
C2673 C2672 1.377 . S
C2673 C2679 1.390 . S
C2674 H2665 0.930 . S
C2674 C2672 1.384 . S
C2674 C2675 1.372 . S
C2675 C2674 1.372 . S
C2675 C2676 1.400 . S
C2675 C2680 1.490 . S
C2676 H2666 0.930 . S
C2676 C2675 1.400 . S
C2676 C2679 1.386 . S
H2677 C2693 0.930 . S
H2678 C2694 0.931 . S
C2679 H2667 0.929 . S
C2679 C2673 1.390 . S
C2679 C2676 1.386 . S
C2680 C2675 1.490 . S
C2680 C2682 1.395 . S
C2680 C2683 1.403 . S
H2681 C2687 0.930 . S
C2682 H2668 0.930 . S
C2682 C2680 1.395 . S
C2682 C2685 1.403 . S
C2683 C2680 1.403 . S
C2683 C2684 1.524 . S
C2683 C2687 1.400 . S
C2684 H2669 0.960 . S
C2684 H2670 0.960 . S
C2684 H2671 0.960 . S
C2684 C2683 1.524 . S
C2685 C2682 1.403 . S
C2685 C2686 1.392 . S
C2685 C2689 1.495 . S
C2686 C2685 1.392 . S
C2686 C2687 1.385 . S
C2686 C2688 1.478 . S
C2687 H2681 0.930 . S
C2687 C2683 1.400 . S
C2687 C2686 1.385 . S
C2688 C2686 1.478 . S
C2688 C2690 1.381 . S
C2688 C2694 1.383 . S
C2689 C2685 1.495 . S
C2689 H2695 0.959 . S
C2689 H2696 0.961 . S
C2689 H2697 0.960 . S
C2690 C2688 1.381 . S
C2690 C2691 1.394 . S
C2690 H2698 0.930 . S
C2691 C2690 1.394 . S
C2691 C2692 1.383 . S
C2691 H2699 0.929 . S
C2692 C2691 1.383 . S
C2692 C2693 1.377 . S
C2693 H2677 0.930 . S
C2693 C2692 1.377 . S
C2693 C2694 1.379 . S
C2694 H2678 0.931 . S
C2694 C2688 1.383 . S
C2694 C2693 1.379 . S
H2695 C2689 0.959 . S
H2696 C2689 0.961 . S
H2697 C2689 0.960 . S
H2698 C2690 0.930 . S
H2699 C2691 0.929 . S
H2700 C2708 0.929 . S
H2701 C2710 0.930 . S
H2702 C2712 0.930 . S
H2703 C2715 0.929 . S
H2704 C2718 0.930 . S
H2705 C2720 0.960 . S
H2706 C2720 0.960 . S
H2707 C2720 0.960 . S
C2708 H2700 0.929 . S
C2708 C2709 1.377 . S
C2708 C2710 1.384 . S
C2709 C2708 1.377 . S
C2709 C2715 1.390 . S
C2710 H2701 0.930 . S
C2710 C2708 1.384 . S
C2710 C2711 1.372 . S
C2711 C2710 1.372 . S
C2711 C2712 1.400 . S
C2711 C2716 1.490 . S
C2712 H2702 0.930 . S
C2712 C2711 1.400 . S
C2712 C2715 1.386 . S
H2713 C2729 0.930 . S
H2714 C2730 0.931 . S
C2715 H2703 0.929 . S
C2715 C2709 1.390 . S
C2715 C2712 1.386 . S
C2716 C2711 1.490 . S
C2716 C2718 1.395 . S
C2716 C2719 1.403 . S
H2717 C2723 0.930 . S
C2718 H2704 0.930 . S
C2718 C2716 1.395 . S
C2718 C2721 1.403 . S
C2719 C2716 1.403 . S
C2719 C2720 1.524 . S
C2719 C2723 1.400 . S
C2720 H2705 0.960 . S
C2720 H2706 0.960 . S
C2720 H2707 0.960 . S
C2720 C2719 1.524 . S
C2721 C2718 1.403 . S
C2721 C2722 1.392 . S
C2721 C2725 1.495 . S
C2722 C2721 1.392 . S
C2722 C2723 1.385 . S
C2722 C2724 1.478 . S
C2723 H2717 0.930 . S
C2723 C2719 1.400 . S
C2723 C2722 1.385 . S
C2724 C2722 1.478 . S
C2724 C2726 1.381 . S
C2724 C2730 1.383 . S
C2725 C2721 1.495 . S
C2725 H2731 0.959 . S
C2725 H2732 0.961 . S
C2725 H2733 0.960 . S
C2726 C2724 1.381 . S
C2726 C2727 1.394 . S
C2726 H2734 0.930 . S
C2727 C2726 1.394 . S
C2727 C2728 1.383 . S
C2727 H2735 0.929 . S
C2728 C2727 1.383 . S
C2728 C2729 1.377 . S
C2729 H2713 0.930 . S
C2729 C2728 1.377 . S
C2729 C2730 1.379 . S
C2730 H2714 0.931 . S
C2730 C2724 1.383 . S
C2730 C2729 1.379 . S
H2731 C2725 0.959 . S
H2732 C2725 0.961 . S
H2733 C2725 0.960 . S
H2734 C2726 0.930 . S
H2735 C2727 0.929 . S
H2736 C2744 0.929 . S
H2737 C2746 0.930 . S
H2738 C2748 0.930 . S
H2739 C2751 0.929 . S
H2740 C2754 0.930 . S
H2741 C2756 0.960 . S
H2742 C2756 0.960 . S
H2743 C2756 0.960 . S
C2744 H2736 0.929 . S
C2744 C2745 1.377 . S
C2744 C2746 1.384 . S
C2745 C2744 1.377 . S
C2745 C2751 1.390 . S
C2746 H2737 0.930 . S
C2746 C2744 1.384 . S
C2746 C2747 1.372 . S
C2747 C2746 1.372 . S
C2747 C2748 1.400 . S
C2747 C2752 1.490 . S
C2748 H2738 0.930 . S
C2748 C2747 1.400 . S
C2748 C2751 1.386 . S
H2749 C2765 0.930 . S
H2750 C2766 0.931 . S
C2751 H2739 0.929 . S
C2751 C2745 1.390 . S
C2751 C2748 1.386 . S
C2752 C2747 1.490 . S
C2752 C2754 1.395 . S
C2752 C2755 1.403 . S
H2753 C2759 0.930 . S
C2754 H2740 0.930 . S
C2754 C2752 1.395 . S
C2754 C2757 1.403 . S
C2755 C2752 1.403 . S
C2755 C2756 1.524 . S
C2755 C2759 1.400 . S
C2756 H2741 0.960 . S
C2756 H2742 0.960 . S
C2756 H2743 0.960 . S
C2756 C2755 1.524 . S
C2757 C2754 1.403 . S
C2757 C2758 1.392 . S
C2757 C2761 1.495 . S
C2758 C2757 1.392 . S
C2758 C2759 1.385 . S
C2758 C2760 1.478 . S
C2759 H2753 0.930 . S
C2759 C2755 1.400 . S
C2759 C2758 1.385 . S
C2760 C2758 1.478 . S
C2760 C2762 1.381 . S
C2760 C2766 1.383 . S
C2761 C2757 1.495 . S
C2761 H2767 0.959 . S
C2761 H2768 0.961 . S
C2761 H2769 0.960 . S
C2762 C2760 1.381 . S
C2762 C2763 1.394 . S
C2762 H2770 0.930 . S
C2763 C2762 1.394 . S
C2763 C2764 1.383 . S
C2763 H2771 0.929 . S
C2764 C2763 1.383 . S
C2764 C2765 1.377 . S
C2765 H2749 0.930 . S
C2765 C2764 1.377 . S
C2765 C2766 1.379 . S
C2766 H2750 0.931 . S
C2766 C2760 1.383 . S
C2766 C2765 1.379 . S
H2767 C2761 0.959 . S
H2768 C2761 0.961 . S
H2769 C2761 0.960 . S
H2770 C2762 0.930 . S
H2771 C2763 0.929 . S
H2772 C2780 0.929 . S
H2773 C2782 0.930 . S
H2774 C2784 0.930 . S
H2775 C2787 0.929 . S
H2776 C2790 0.930 . S
H2777 C2792 0.960 . S
H2778 C2792 0.960 . S
H2779 C2792 0.960 . S
C2780 H2772 0.929 . S
C2780 C2781 1.377 . S
C2780 C2782 1.384 . S
C2781 C2780 1.377 . S
C2781 C2787 1.390 . S
C2782 H2773 0.930 . S
C2782 C2780 1.384 . S
C2782 C2783 1.372 . S
C2783 C2782 1.372 . S
C2783 C2784 1.400 . S
C2783 C2788 1.490 . S
C2784 H2774 0.930 . S
C2784 C2783 1.400 . S
C2784 C2787 1.386 . S
H2785 C2801 0.930 . S
H2786 C2802 0.931 . S
C2787 H2775 0.929 . S
C2787 C2781 1.390 . S
C2787 C2784 1.386 . S
C2788 C2783 1.490 . S
C2788 C2790 1.395 . S
C2788 C2791 1.403 . S
H2789 C2795 0.930 . S
C2790 H2776 0.930 . S
C2790 C2788 1.395 . S
C2790 C2793 1.403 . S
C2791 C2788 1.403 . S
C2791 C2792 1.524 . S
C2791 C2795 1.400 . S
C2792 H2777 0.960 . S
C2792 H2778 0.960 . S
C2792 H2779 0.960 . S
C2792 C2791 1.524 . S
C2793 C2790 1.403 . S
C2793 C2794 1.392 . S
C2793 C2797 1.495 . S
C2794 C2793 1.392 . S
C2794 C2795 1.385 . S
C2794 C2796 1.478 . S
C2795 H2789 0.930 . S
C2795 C2791 1.400 . S
C2795 C2794 1.385 . S
C2796 C2794 1.478 . S
C2796 C2798 1.381 . S
C2796 C2802 1.383 . S
C2797 C2793 1.495 . S
C2797 H2803 0.959 . S
C2797 H2804 0.961 . S
C2797 H2805 0.960 . S
C2798 C2796 1.381 . S
C2798 C2799 1.394 . S
C2798 H2806 0.930 . S
C2799 C2798 1.394 . S
C2799 C2800 1.383 . S
C2799 H2807 0.929 . S
C2800 C2799 1.383 . S
C2800 C2801 1.377 . S
C2801 H2785 0.930 . S
C2801 C2800 1.377 . S
C2801 C2802 1.379 . S
C2802 H2786 0.931 . S
C2802 C2796 1.383 . S
C2802 C2801 1.379 . S
H2803 C2797 0.959 . S
H2804 C2797 0.961 . S
H2805 C2797 0.960 . S
H2806 C2798 0.930 . S
H2807 C2799 0.929 . S
H2808 C2816 0.929 . S
H2809 C2818 0.930 . S
H2810 C2820 0.930 . S
H2811 C2823 0.929 . S
H2812 C2826 0.930 . S
H2813 C2828 0.960 . S
H2814 C2828 0.960 . S
H2815 C2828 0.960 . S
C2816 H2808 0.929 . S
C2816 C2817 1.377 . S
C2816 C2818 1.384 . S
C2817 C2816 1.377 . S
C2817 C2823 1.390 . S
C2818 H2809 0.930 . S
C2818 C2816 1.384 . S
C2818 C2819 1.372 . S
C2819 C2818 1.372 . S
C2819 C2820 1.400 . S
C2819 C2824 1.490 . S
C2820 H2810 0.930 . S
C2820 C2819 1.400 . S
C2820 C2823 1.386 . S
H2821 C2837 0.930 . S
H2822 C2838 0.931 . S
C2823 H2811 0.929 . S
C2823 C2817 1.390 . S
C2823 C2820 1.386 . S
C2824 C2819 1.490 . S
C2824 C2826 1.395 . S
C2824 C2827 1.403 . S
H2825 C2831 0.930 . S
C2826 H2812 0.930 . S
C2826 C2824 1.395 . S
C2826 C2829 1.403 . S
C2827 C2824 1.403 . S
C2827 C2828 1.524 . S
C2827 C2831 1.400 . S
C2828 H2813 0.960 . S
C2828 H2814 0.960 . S
C2828 H2815 0.960 . S
C2828 C2827 1.524 . S
C2829 C2826 1.403 . S
C2829 C2830 1.392 . S
C2829 C2833 1.495 . S
C2830 C2829 1.392 . S
C2830 C2831 1.385 . S
C2830 C2832 1.478 . S
C2831 H2825 0.930 . S
C2831 C2827 1.400 . S
C2831 C2830 1.385 . S
C2832 C2830 1.478 . S
C2832 C2834 1.381 . S
C2832 C2838 1.383 . S
C2833 C2829 1.495 . S
C2833 H2839 0.959 . S
C2833 H2840 0.961 . S
C2833 H2841 0.960 . S
C2834 C2832 1.381 . S
C2834 C2835 1.394 . S
C2834 H2842 0.930 . S
C2835 C2834 1.394 . S
C2835 C2836 1.383 . S
C2835 H2843 0.929 . S
C2836 C2835 1.383 . S
C2836 C2837 1.377 . S
C2837 H2821 0.930 . S
C2837 C2836 1.377 . S
C2837 C2838 1.379 . S
C2838 H2822 0.931 . S
C2838 C2832 1.383 . S
C2838 C2837 1.379 . S
H2839 C2833 0.959 . S
H2840 C2833 0.961 . S
H2841 C2833 0.960 . S
H2842 C2834 0.930 . S
H2843 C2835 0.929 . S
H2844 C2852 0.929 . S
H2845 C2854 0.930 . S
H2846 C2856 0.930 . S
H2847 C2859 0.929 . S
H2848 C2862 0.930 . S
H2849 C2864 0.960 . S
H2850 C2864 0.960 . S
H2851 C2864 0.960 . S
C2852 H2844 0.929 . S
C2852 C2853 1.377 . S
C2852 C2854 1.384 . S
C2853 C2852 1.377 . S
C2853 C2859 1.390 . S
C2854 H2845 0.930 . S
C2854 C2852 1.384 . S
C2854 C2855 1.372 . S
C2855 C2854 1.372 . S
C2855 C2856 1.400 . S
C2855 C2860 1.490 . S
C2856 H2846 0.930 . S
C2856 C2855 1.400 . S
C2856 C2859 1.386 . S
H2857 C2873 0.930 . S
H2858 C2874 0.931 . S
C2859 H2847 0.929 . S
C2859 C2853 1.390 . S
C2859 C2856 1.386 . S
C2860 C2855 1.490 . S
C2860 C2862 1.395 . S
C2860 C2863 1.403 . S
H2861 C2867 0.930 . S
C2862 H2848 0.930 . S
C2862 C2860 1.395 . S
C2862 C2865 1.403 . S
C2863 C2860 1.403 . S
C2863 C2864 1.524 . S
C2863 C2867 1.400 . S
C2864 H2849 0.960 . S
C2864 H2850 0.960 . S
C2864 H2851 0.960 . S
C2864 C2863 1.524 . S
C2865 C2862 1.403 . S
C2865 C2866 1.392 . S
C2865 C2869 1.495 . S
C2866 C2865 1.392 . S
C2866 C2867 1.385 . S
C2866 C2868 1.478 . S
C2867 H2861 0.930 . S
C2867 C2863 1.400 . S
C2867 C2866 1.385 . S
C2868 C2866 1.478 . S
C2868 C2870 1.381 . S
C2868 C2874 1.383 . S
C2869 C2865 1.495 . S
C2869 H2875 0.959 . S
C2869 H2876 0.961 . S
C2869 H2877 0.960 . S
C2870 C2868 1.381 . S
C2870 C2871 1.394 . S
C2870 H2878 0.930 . S
C2871 C2870 1.394 . S
C2871 C2872 1.383 . S
C2871 H2879 0.929 . S
C2872 C2871 1.383 . S
C2872 C2873 1.377 . S
C2873 H2857 0.930 . S
C2873 C2872 1.377 . S
C2873 C2874 1.379 . S
C2874 H2858 0.931 . S
C2874 C2868 1.383 . S
C2874 C2873 1.379 . S
H2875 C2869 0.959 . S
H2876 C2869 0.961 . S
H2877 C2869 0.960 . S
H2878 C2870 0.930 . S
H2879 C2871 0.929 . S
H2880 C2888 0.929 . S
H2881 C2890 0.930 . S
H2882 C2892 0.930 . S
H2883 C2895 0.929 . S
H2884 C2898 0.930 . S
H2885 C2900 0.960 . S
H2886 C2900 0.960 . S
H2887 C2900 0.960 . S
C2888 H2880 0.929 . S
C2888 C2889 1.377 . S
C2888 C2890 1.384 . S
C2889 C2888 1.377 . S
C2889 C2895 1.390 . S
C2890 H2881 0.930 . S
C2890 C2888 1.384 . S
C2890 C2891 1.372 . S
C2891 C2890 1.372 . S
C2891 C2892 1.400 . S
C2891 C2896 1.490 . S
C2892 H2882 0.930 . S
C2892 C2891 1.400 . S
C2892 C2895 1.386 . S
H2893 C2909 0.930 . S
H2894 C2910 0.931 . S
C2895 H2883 0.929 . S
C2895 C2889 1.390 . S
C2895 C2892 1.386 . S
C2896 C2891 1.490 . S
C2896 C2898 1.395 . S
C2896 C2899 1.403 . S
H2897 C2903 0.930 . S
C2898 H2884 0.930 . S
C2898 C2896 1.395 . S
C2898 C2901 1.403 . S
C2899 C2896 1.403 . S
C2899 C2900 1.524 . S
C2899 C2903 1.400 . S
C2900 H2885 0.960 . S
C2900 H2886 0.960 . S
C2900 H2887 0.960 . S
C2900 C2899 1.524 . S
C2901 C2898 1.403 . S
C2901 C2902 1.392 . S
C2901 C2905 1.495 . S
C2902 C2901 1.392 . S
C2902 C2903 1.385 . S
C2902 C2904 1.478 . S
C2903 H2897 0.930 . S
C2903 C2899 1.400 . S
C2903 C2902 1.385 . S
C2904 C2902 1.478 . S
C2904 C2906 1.381 . S
C2904 C2910 1.383 . S
C2905 C2901 1.495 . S
C2905 H2911 0.959 . S
C2905 H2912 0.961 . S
C2905 H2913 0.960 . S
C2906 C2904 1.381 . S
C2906 C2907 1.394 . S
C2906 H2914 0.930 . S
C2907 C2906 1.394 . S
C2907 C2908 1.383 . S
C2907 H2915 0.929 . S
C2908 C2907 1.383 . S
C2908 C2909 1.377 . S
C2909 H2893 0.930 . S
C2909 C2908 1.377 . S
C2909 C2910 1.379 . S
C2910 H2894 0.931 . S
C2910 C2904 1.383 . S
C2910 C2909 1.379 . S
H2911 C2905 0.959 . S
H2912 C2905 0.961 . S
H2913 C2905 0.960 . S
H2914 C2906 0.930 . S
H2915 C2907 0.929 . S
H2916 C2924 0.929 . S
H2917 C2926 0.930 . S
H2918 C2928 0.930 . S
H2919 C2931 0.929 . S
H2920 C2934 0.930 . S
H2921 C2936 0.960 . S
H2922 C2936 0.960 . S
H2923 C2936 0.960 . S
C2924 H2916 0.929 . S
C2924 C2925 1.377 . S
C2924 C2926 1.384 . S
C2925 C2924 1.377 . S
C2925 C2931 1.390 . S
C2926 H2917 0.930 . S
C2926 C2924 1.384 . S
C2926 C2927 1.372 . S
C2927 C2926 1.372 . S
C2927 C2928 1.400 . S
C2927 C2932 1.490 . S
C2928 H2918 0.930 . S
C2928 C2927 1.400 . S
C2928 C2931 1.386 . S
H2929 C2945 0.930 . S
H2930 C2946 0.931 . S
C2931 H2919 0.929 . S
C2931 C2925 1.390 . S
C2931 C2928 1.386 . S
C2932 C2927 1.490 . S
C2932 C2934 1.395 1_655 S
C2932 C2935 1.403 . S
H2933 C2939 0.930 . S
C2934 H2920 0.930 . S
C2934 C2932 1.395 1_455 S
C2934 C2937 1.403 . S
C2935 C2932 1.403 . S
C2935 C2936 1.524 . S
C2935 C2939 1.400 . S
C2936 H2921 0.960 . S
C2936 H2922 0.960 . S
C2936 H2923 0.960 . S
C2936 C2935 1.524 . S
C2937 C2934 1.403 . S
C2937 C2938 1.392 . S
C2937 C2941 1.495 . S
C2938 C2937 1.392 . S
C2938 C2939 1.385 1_455 S
C2938 C2940 1.478 . S
C2939 H2933 0.930 . S
C2939 C2935 1.400 . S
C2939 C2938 1.385 1_655 S
C2940 C2938 1.478 . S
C2940 C2942 1.381 . S
C2940 C2946 1.383 . S
C2941 C2937 1.495 . S
C2941 H2947 0.959 . S
C2941 H2948 0.961 . S
C2941 H2949 0.960 . S
C2942 C2940 1.381 . S
C2942 C2943 1.394 . S
C2942 H2950 0.930 . S
C2943 C2942 1.394 . S
C2943 C2944 1.383 . S
C2943 H2951 0.929 . S
C2944 C2943 1.383 . S
C2944 C2945 1.377 . S
C2945 H2929 0.930 . S
C2945 C2944 1.377 . S
C2945 C2946 1.379 . S
C2946 H2930 0.931 . S
C2946 C2940 1.383 . S
C2946 C2945 1.379 . S
H2947 C2941 0.959 . S
H2948 C2941 0.961 . S
H2949 C2941 0.960 . S
H2950 C2942 0.930 . S
H2951 C2943 0.929 . S
H2952 C2960 0.929 . S
H2953 C2962 0.930 . S
H2954 C2964 0.930 . S
H2955 C2967 0.929 . S
H2956 C2970 0.930 . S
H2957 C2972 0.960 . S
H2958 C2972 0.960 . S
H2959 C2972 0.960 . S
C2960 H2952 0.929 . S
C2960 C2961 1.377 . S
C2960 C2962 1.384 . S
C2961 C2960 1.377 . S
C2961 C2967 1.390 . S
C2962 H2953 0.930 . S
C2962 C2960 1.384 . S
C2962 C2963 1.372 . S
C2963 C2962 1.372 . S
C2963 C2964 1.400 . S
C2963 C2968 1.490 . S
C2964 H2954 0.930 . S
C2964 C2963 1.400 . S
C2964 C2967 1.386 . S
H2965 C2981 0.930 . S
H2966 C2982 0.931 . S
C2967 H2955 0.929 . S
C2967 C2961 1.390 . S
C2967 C2964 1.386 . S
C2968 C2963 1.490 . S
C2968 C2970 1.395 . S
C2968 C2971 1.403 . S
H2969 C2975 0.930 . S
C2970 H2956 0.930 . S
C2970 C2968 1.395 . S
C2970 C2973 1.403 . S
C2971 C2968 1.403 . S
C2971 C2972 1.524 . S
C2971 C2975 1.400 . S
C2972 H2957 0.960 . S
C2972 H2958 0.960 . S
C2972 H2959 0.960 . S
C2972 C2971 1.524 . S
C2973 C2970 1.403 . S
C2973 C2974 1.392 . S
C2973 C2977 1.495 . S
C2974 C2973 1.392 . S
C2974 C2975 1.385 . S
C2974 C2976 1.478 . S
C2975 H2969 0.930 . S
C2975 C2971 1.400 . S
C2975 C2974 1.385 . S
C2976 C2974 1.478 . S
C2976 C2978 1.381 . S
C2976 C2982 1.383 . S
C2977 C2973 1.495 . S
C2977 H2983 0.959 . S
C2977 H2984 0.961 . S
C2977 H2985 0.960 . S
C2978 C2976 1.381 . S
C2978 C2979 1.394 . S
C2978 H2986 0.930 . S
C2979 C2978 1.394 . S
C2979 C2980 1.383 . S
C2979 H2987 0.929 . S
C2980 C2979 1.383 . S
C2980 C2981 1.377 . S
C2981 H2965 0.930 . S
C2981 C2980 1.377 . S
C2981 C2982 1.379 . S
C2982 H2966 0.931 . S
C2982 C2976 1.383 . S
C2982 C2981 1.379 . S
H2983 C2977 0.959 . S
H2984 C2977 0.961 . S
H2985 C2977 0.960 . S
H2986 C2978 0.930 . S
H2987 C2979 0.929 . S
H2988 C2996 0.929 . S
H2989 C2998 0.930 . S
H2990 C3000 0.930 . S
H2991 C3003 0.929 . S
H2992 C3006 0.930 . S
H2993 C3008 0.960 . S
H2994 C3008 0.960 1_545 S
H2995 C3008 0.960 . S
C2996 H2988 0.929 . S
C2996 C2997 1.377 . S
C2996 C2998 1.384 . S
C2997 C2996 1.377 . S
C2997 C3003 1.390 . S
C2998 H2989 0.930 . S
C2998 C2996 1.384 . S
C2998 C2999 1.372 . S
C2999 C2998 1.372 . S
C2999 C3000 1.400 . S
C2999 C3004 1.490 . S
C3000 H2990 0.930 . S
C3000 C2999 1.400 . S
C3000 C3003 1.386 . S
H3001 C3017 0.930 . S
H3002 C3018 0.931 . S
C3003 H2991 0.929 . S
C3003 C2997 1.390 . S
C3003 C3000 1.386 . S
C3004 C2999 1.490 . S
C3004 C3006 1.395 . S
C3004 C3007 1.386 1_545 S
H3005 C3011 0.930 . S
C3006 H2992 0.930 . S
C3006 C3004 1.395 . S
C3006 C3009 1.403 . S
C3007 C3004 1.386 1_565 S
C3007 C3008 1.537 . S
C3007 C3011 1.404 . S
C3008 H2993 0.960 . S
C3008 H2994 0.960 1_565 S
C3008 H2995 0.960 . S
C3008 C3007 1.537 . S
C3009 C3006 1.403 . S
C3009 C3010 1.392 1_545 S
C3009 C3013 1.495 . S
C3010 C3009 1.392 1_565 S
C3010 C3011 1.385 . S
C3010 C3012 1.478 . S
C3011 H3005 0.930 . S
C3011 C3007 1.404 . S
C3011 C3010 1.385 . S
C3012 C3010 1.478 . S
C3012 C3014 1.381 . S
C3012 C3018 1.383 . S
C3013 C3009 1.495 . S
C3013 H3019 0.959 . S
C3013 H3020 0.961 1_545 S
C3013 H3021 0.960 . S
C3014 C3012 1.381 . S
C3014 C3015 1.394 . S
C3014 H3022 0.930 . S
C3015 C3014 1.394 . S
C3015 C3016 1.383 . S
C3015 H3023 0.929 . S
C3016 C3015 1.383 . S
C3016 C3017 1.377 . S
C3017 H3001 0.930 . S
C3017 C3016 1.377 . S
C3017 C3018 1.379 . S
C3018 H3002 0.931 . S
C3018 C3012 1.383 . S
C3018 C3017 1.379 . S
H3019 C3013 0.959 . S
H3020 C3013 0.961 1_565 S
H3021 C3013 0.960 . S
H3022 C3014 0.930 . S
H3023 C3015 0.929 . S
H3024 C3032 0.929 . S
H3025 C3034 0.930 . S
H3026 C3036 0.930 . S
H3027 C3039 0.929 . S
H3028 C3042 0.930 . S
H3029 C3044 0.960 . S
H3030 C3044 0.960 . S
H3031 C3044 0.960 . S
C3032 H3024 0.929 . S
C3032 C3033 1.377 . S
C3032 C3034 1.384 . S
C3033 C3032 1.377 . S
C3033 C3039 1.390 . S
C3034 H3025 0.930 . S
C3034 C3032 1.384 . S
C3034 C3035 1.372 . S
C3035 C3034 1.372 . S
C3035 C3036 1.400 . S
C3035 C3040 1.490 . S
C3036 H3026 0.930 . S
C3036 C3035 1.400 . S
C3036 C3039 1.386 . S
H3037 C3053 0.930 . S
H3038 C3054 0.931 . S
C3039 H3027 0.929 . S
C3039 C3033 1.390 . S
C3039 C3036 1.386 . S
C3040 C3035 1.490 . S
C3040 C3042 1.395 . S
C3040 C3043 1.403 1_554 S
H3041 C3047 0.930 . S
C3042 H3028 0.930 . S
C3042 C3040 1.395 . S
C3042 C3045 1.403 1_565 S
C3043 C3040 1.403 1_556 S
C3043 C3044 1.524 . S
C3043 C3047 1.400 1_565 S
C3044 H3029 0.960 . S
C3044 H3030 0.960 . S
C3044 H3031 0.960 . S
C3044 C3043 1.524 . S
C3045 C3042 1.403 1_545 S
C3045 C3046 1.392 1_554 S
C3045 C3049 1.495 . S
C3046 C3045 1.392 1_556 S
C3046 C3047 1.385 . S
C3046 C3048 1.478 . S
C3047 H3041 0.930 . S
C3047 C3043 1.400 1_545 S
C3047 C3046 1.385 . S
C3048 C3046 1.478 . S
C3048 C3050 1.381 . S
C3048 C3054 1.383 . S
C3049 C3045 1.495 . S
C3049 H3055 0.959 . S
C3049 H3056 0.961 . S
C3049 H3057 0.960 . S
C3050 C3048 1.381 . S
C3050 C3051 1.394 . S
C3050 H3058 0.930 . S
C3051 C3050 1.394 . S
C3051 C3052 1.383 . S
C3051 H3059 0.929 . S
C3052 C3051 1.383 . S
C3052 C3053 1.377 . S
C3053 H3037 0.930 . S
C3053 C3052 1.377 . S
C3053 C3054 1.379 . S
C3054 H3038 0.931 . S
C3054 C3048 1.383 . S
C3054 C3053 1.379 . S
H3055 C3049 0.959 . S
H3056 C3049 0.961 . S
H3057 C3049 0.960 . S
H3058 C3050 0.930 . S
H3059 C3051 0.929 . S
H3060 C3068 0.929 . S
H3061 C3070 0.930 1_554 S
H3062 C3072 0.930 . S
H3063 C3075 0.929 . S
H3064 C3078 0.930 . S
H3065 C3080 0.960 . S
H3066 C3080 0.960 . S
H3067 C3080 0.960 . S
C3068 H3060 0.929 . S
C3068 C3069 1.377 . S
C3068 C3070 1.384 . S
C3069 C3068 1.377 . S
C3069 C3075 1.390 . S
C3070 H3061 0.930 1_556 S
C3070 C3068 1.384 . S
C3070 C3071 1.372 . S
C3071 C3070 1.372 . S
C3071 C3072 1.400 . S
C3071 C3076 1.490 . S
C3072 H3062 0.930 . S
C3072 C3071 1.400 . S
C3072 C3075 1.386 . S
H3073 C3089 0.930 . S
H3074 C3090 0.931 . S
C3075 H3063 0.929 . S
C3075 C3069 1.390 . S
C3075 C3072 1.386 . S
C3076 C3071 1.490 . S
C3076 C3078 1.395 1_556 S
C3076 C3079 1.403 . S
H3077 C3083 0.930 . S
C3078 H3064 0.930 . S
C3078 C3076 1.395 1_554 S
C3078 C3081 1.403 1_655 S
C3079 C3076 1.403 . S
C3079 C3080 1.524 . S
C3079 C3083 1.400 1_655 S
C3080 H3065 0.960 . S
C3080 H3066 0.960 . S
C3080 H3067 0.960 . S
C3080 C3079 1.524 . S
C3081 C3078 1.403 1_455 S
C3081 C3082 1.392 . S
C3081 C3085 1.495 . S
C3082 C3081 1.392 . S
C3082 C3083 1.385 1_554 S
C3082 C3084 1.478 . S
C3083 H3077 0.930 . S
C3083 C3079 1.400 1_455 S
C3083 C3082 1.385 1_556 S
C3084 C3082 1.478 . S
C3084 C3086 1.381 . S
C3084 C3090 1.383 . S
C3085 C3081 1.495 . S
C3085 H3091 0.959 . S
C3085 H3092 0.961 . S
C3085 H3093 0.960 . S
C3086 C3084 1.381 . S
C3086 C3087 1.394 . S
C3086 H3094 0.930 . S
C3087 C3086 1.394 . S
C3087 C3088 1.383 . S
C3087 H3095 0.929 . S
C3088 C3087 1.383 . S
C3088 C3089 1.377 . S
C3089 H3073 0.930 . S
C3089 C3088 1.377 . S
C3089 C3090 1.379 . S
C3090 H3074 0.931 . S
C3090 C3084 1.383 . S
C3090 C3089 1.379 . S
H3091 C3085 0.959 . S
H3092 C3085 0.961 . S
H3093 C3085 0.960 . S
H3094 C3086 0.930 . S
H3095 C3087 0.929 . S
H3096 C3104 0.929 . S
H3097 C3106 0.930 . S
H3098 C3108 0.930 . S
H3099 C3111 0.929 . S
H3100 C3114 0.930 . S
H3101 C3116 0.960 . S
H3102 C3116 0.960 . S
H3103 C3116 0.960 1_554 S
C3104 H3096 0.929 . S
C3104 C3105 1.377 . S
C3104 C3106 1.384 . S
C3105 C3104 1.377 . S
C3105 C3111 1.390 . S
C3106 H3097 0.930 . S
C3106 C3104 1.384 . S
C3106 C3107 1.372 . S
C3107 C3106 1.372 . S
C3107 C3108 1.400 . S
C3107 C3112 1.490 . S
C3108 H3098 0.930 . S
C3108 C3107 1.400 . S
C3108 C3111 1.386 . S
H3109 C3125 0.930 . S
H3110 C3126 0.931 . S
C3111 H3099 0.929 . S
C3111 C3105 1.390 . S
C3111 C3108 1.386 . S
C3112 C3107 1.490 . S
C3112 C3114 1.395 . S
C3112 C3115 1.403 1_554 S
H3113 C3119 0.930 . S
C3114 H3100 0.930 . S
C3114 C3112 1.395 . S
C3114 C3117 1.403 . S
C3115 C3112 1.403 1_556 S
C3115 C3116 1.524 . S
C3115 C3119 1.400 . S
C3116 H3101 0.960 . S
C3116 H3102 0.960 . S
C3116 H3103 0.960 1_556 S
C3116 C3115 1.524 . S
C3117 C3114 1.403 . S
C3117 C3118 1.392 1_554 S
C3117 C3121 1.495 . S
C3118 C3117 1.392 1_556 S
C3118 C3119 1.385 . S
C3118 C3120 1.478 . S
C3119 H3113 0.930 . S
C3119 C3115 1.400 . S
C3119 C3118 1.385 . S
C3120 C3118 1.478 . S
C3120 C3122 1.381 . S
C3120 C3126 1.383 . S
C3121 C3117 1.495 . S
C3121 H3127 0.959 . S
C3121 H3128 0.961 . S
C3121 H3129 0.960 1_554 S
C3122 C3120 1.381 . S
C3122 C3123 1.394 . S
C3122 H3130 0.930 . S
C3123 C3122 1.394 . S
C3123 C3124 1.383 . S
C3123 H3131 0.929 . S
C3124 C3123 1.383 . S
C3124 C3125 1.377 . S
C3125 H3109 0.930 . S
C3125 C3124 1.377 . S
C3125 C3126 1.379 . S
C3126 H3110 0.931 . S
C3126 C3120 1.383 . S
C3126 C3125 1.379 . S
H3127 C3121 0.959 . S
H3128 C3121 0.961 . S
H3129 C3121 0.960 1_556 S
H3130 C3122 0.930 . S
H3131 C3123 0.929 . S
H3132 C3140 0.929 . S
H3133 C3142 0.930 . S
H3134 C3144 0.930 . S
H3135 C3147 0.929 . S
H3136 C3150 0.930 . S
H3137 C3152 0.960 . S
H3138 C3152 0.960 1_556 S
H3139 C3152 0.960 . S
C3140 H3132 0.929 . S
C3140 C3141 1.377 . S
C3140 C3142 1.384 . S
C3141 C3140 1.377 . S
C3141 C3147 1.390 . S
C3142 H3133 0.930 . S
C3142 C3140 1.384 . S
C3142 C3143 1.372 . S
C3143 C3142 1.372 . S
C3143 C3144 1.400 . S
C3143 C3148 1.490 . S
C3144 H3134 0.930 . S
C3144 C3143 1.400 . S
C3144 C3147 1.386 . S
H3145 C3161 0.930 . S
H3146 C3162 0.931 . S
C3147 H3135 0.929 . S
C3147 C3141 1.390 . S
C3147 C3144 1.386 . S
C3148 C3143 1.490 . S
C3148 C3150 1.395 . S
C3148 C3151 1.403 1_556 S
H3149 C3155 0.930 . S
C3150 H3136 0.930 . S
C3150 C3148 1.395 . S
C3150 C3153 1.403 . S
C3151 C3148 1.403 1_554 S
C3151 C3152 1.524 . S
C3151 C3155 1.400 . S
C3152 H3137 0.960 . S
C3152 H3138 0.960 1_554 S
C3152 H3139 0.960 . S
C3152 C3151 1.524 . S
C3153 C3150 1.403 . S
C3153 C3154 1.392 1_556 S
C3153 C3157 1.495 . S
C3154 C3153 1.392 1_554 S
C3154 C3155 1.385 . S
C3154 C3156 1.478 . S
C3155 H3149 0.930 . S
C3155 C3151 1.400 . S
C3155 C3154 1.385 . S
C3156 C3154 1.478 . S
C3156 C3158 1.381 . S
C3156 C3162 1.383 . S
C3157 C3153 1.495 . S
C3157 H3163 0.959 . S
C3157 H3164 0.961 1_556 S
C3157 H3165 0.960 . S
C3158 C3156 1.381 . S
C3158 C3159 1.394 . S
C3158 H3166 0.930 . S
C3159 C3158 1.394 . S
C3159 C3160 1.383 . S
C3159 H3167 0.929 . S
C3160 C3159 1.383 . S
C3160 C3161 1.377 . S
C3161 H3145 0.930 . S
C3161 C3160 1.377 . S
C3161 C3162 1.379 . S
C3162 H3146 0.931 . S
C3162 C3156 1.383 . S
C3162 C3161 1.379 . S
H3163 C3157 0.959 . S
H3164 C3157 0.961 1_554 S
H3165 C3157 0.960 . S
H3166 C3158 0.930 . S
H3167 C3159 0.929 . S
H3168 C3176 0.929 . S
H3169 C3178 0.930 . S
H3170 C3180 0.930 . S
H3171 C3183 0.929 . S
H3172 C3186 0.930 . S
H3173 C3188 0.960 . S
H3174 C3188 0.960 . S
H3175 C3188 0.960 . S
C3176 H3168 0.929 . S
C3176 C3177 1.377 . S
C3176 C3178 1.384 . S
C3177 C3176 1.377 . S
C3177 C3183 1.390 . S
C3178 H3169 0.930 . S
C3178 C3176 1.384 . S
C3178 C3179 1.372 . S
C3179 C3178 1.372 . S
C3179 C3180 1.400 . S
C3179 C3184 1.490 . S
C3180 H3170 0.930 . S
C3180 C3179 1.400 . S
C3180 C3183 1.386 . S
H3181 C3197 0.930 . S
H3182 C3198 0.931 . S
C3183 H3171 0.929 . S
C3183 C3177 1.390 . S
C3183 C3180 1.386 . S
C3184 C3179 1.490 . S
C3184 C3186 1.395 . S
C3184 C3187 1.403 . S
H3185 C3191 0.930 . S
C3186 H3172 0.930 . S
C3186 C3184 1.395 . S
C3186 C3189 1.403 1_554 S
C3187 C3184 1.403 . S
C3187 C3188 1.524 . S
C3187 C3191 1.400 1_554 S
C3188 H3173 0.960 . S
C3188 H3174 0.960 . S
C3188 H3175 0.960 . S
C3188 C3187 1.524 . S
C3189 C3186 1.403 1_556 S
C3189 C3190 1.392 . S
C3189 C3193 1.495 . S
C3190 C3189 1.392 . S
C3190 C3191 1.385 . S
C3190 C3192 1.478 . S
C3191 H3185 0.930 . S
C3191 C3187 1.400 1_556 S
C3191 C3190 1.385 . S
C3192 C3190 1.478 . S
C3192 C3194 1.381 . S
C3192 C3198 1.383 . S
C3193 C3189 1.495 . S
C3193 H3199 0.959 . S
C3193 H3200 0.961 . S
C3193 H3201 0.960 . S
C3194 C3192 1.381 . S
C3194 C3195 1.394 . S
C3194 H3202 0.930 . S
C3195 C3194 1.394 . S
C3195 C3196 1.383 . S
C3195 H3203 0.929 . S
C3196 C3195 1.383 . S
C3196 C3197 1.377 . S
C3197 H3181 0.930 . S
C3197 C3196 1.377 . S
C3197 C3198 1.379 . S
C3198 H3182 0.931 . S
C3198 C3192 1.383 . S
C3198 C3197 1.379 . S
H3199 C3193 0.959 . S
H3200 C3193 0.961 . S
H3201 C3193 0.960 . S
H3202 C3194 0.930 . S
H3203 C3195 0.929 . S
H3204 C3212 0.929 . S
H3205 C3214 0.930 . S
H3206 C3216 0.930 . S
H3207 C3219 0.929 . S
H3208 C3222 0.930 . S
H3209 C3224 0.960 . S
H3210 C3224 0.960 . S
H3211 C3224 0.960 . S
C3212 H3204 0.929 . S
C3212 C3213 1.377 . S
C3212 C3214 1.384 . S
C3213 C3212 1.377 . S
C3213 C3219 1.390 . S
C3214 H3205 0.930 . S
C3214 C3212 1.384 . S
C3214 C3215 1.372 . S
C3215 C3214 1.372 . S
C3215 C3216 1.400 . S
C3215 C3220 1.490 . S
C3216 H3206 0.930 . S
C3216 C3215 1.400 . S
C3216 C3219 1.386 . S
H3217 C3233 0.930 . S
H3218 C3234 0.931 . S
C3219 H3207 0.929 . S
C3219 C3213 1.390 . S
C3219 C3216 1.386 . S
C3220 C3215 1.490 . S
C3220 C3222 1.395 1_554 S
C3220 C3223 1.403 . S
H3221 C3227 0.930 . S
C3222 H3208 0.930 . S
C3222 C3220 1.395 1_556 S
C3222 C3225 1.403 . S
C3223 C3220 1.403 . S
C3223 C3224 1.524 . S
C3223 C3227 1.400 . S
C3224 H3209 0.960 . S
C3224 H3210 0.960 . S
C3224 H3211 0.960 . S
C3224 C3223 1.524 . S
C3225 C3222 1.403 . S
C3225 C3226 1.392 . S
C3225 C3229 1.495 . S
C3226 C3225 1.392 . S
C3226 C3227 1.385 1_556 S
C3226 C3228 1.478 . S
C3227 H3221 0.930 . S
C3227 C3223 1.400 . S
C3227 C3226 1.385 1_554 S
C3228 C3226 1.478 . S
C3228 C3230 1.381 . S
C3228 C3234 1.383 . S
C3229 C3225 1.495 . S
C3229 H3235 0.959 . S
C3229 H3236 0.961 . S
C3229 H3237 0.960 . S
C3230 C3228 1.381 . S
C3230 C3231 1.394 . S
C3230 H3238 0.930 . S
C3231 C3230 1.394 . S
C3231 C3232 1.383 . S
C3231 H3239 0.929 . S
C3232 C3231 1.383 . S
C3232 C3233 1.377 . S
C3233 H3217 0.930 . S
C3233 C3232 1.377 . S
C3233 C3234 1.379 . S
C3234 H3218 0.931 . S
C3234 C3228 1.383 . S
C3234 C3233 1.379 . S
H3235 C3229 0.959 . S
H3236 C3229 0.961 . S
H3237 C3229 0.960 . S
H3238 C3230 0.930 . S
H3239 C3231 0.929 . S
H3240 C3248 0.929 . S
H3241 C3250 0.930 . S
H3242 C3252 0.930 . S
H3243 C3255 0.929 . S
H3244 C3258 0.930 . S
H3245 C3260 0.960 . S
H3246 C3260 0.960 . S
H3247 C3260 0.960 . S
C3248 H3240 0.929 . S
C3248 C3249 1.377 . S
C3248 C3250 1.384 . S
C3249 C3248 1.377 . S
C3249 C3255 1.390 . S
C3250 H3241 0.930 . S
C3250 C3248 1.384 . S
C3250 C3251 1.372 . S
C3251 C3250 1.372 . S
C3251 C3252 1.400 . S
C3251 C3256 1.490 . S
C3252 H3242 0.930 . S
C3252 C3251 1.400 . S
C3252 C3255 1.386 . S
H3253 C3269 0.930 . S
H3254 C3270 0.931 . S
C3255 H3243 0.929 . S
C3255 C3249 1.390 . S
C3255 C3252 1.386 . S
C3256 C3251 1.490 . S
C3256 C3258 1.395 . S
C3256 C3259 1.403 . S
H3257 C3263 0.930 . S
C3258 H3244 0.930 . S
C3258 C3256 1.395 . S
C3258 C3261 1.403 . S
C3259 C3256 1.403 . S
C3259 C3260 1.524 . S
C3259 C3263 1.400 . S
C3260 H3245 0.960 . S
C3260 H3246 0.960 . S
C3260 H3247 0.960 . S
C3260 C3259 1.524 . S
C3261 C3258 1.403 . S
C3261 C3262 1.392 . S
C3261 C3265 1.495 . S
C3262 C3261 1.392 . S
C3262 C3263 1.385 . S
C3262 C3264 1.478 . S
C3263 H3257 0.930 . S
C3263 C3259 1.400 . S
C3263 C3262 1.385 . S
C3264 C3262 1.478 . S
C3264 C3266 1.381 . S
C3264 C3270 1.383 . S
C3265 C3261 1.495 . S
C3265 H3271 0.959 . S
C3265 H3272 0.961 . S
C3265 H3273 0.960 . S
C3266 C3264 1.381 . S
C3266 C3267 1.394 . S
C3266 H3274 0.930 . S
C3267 C3266 1.394 . S
C3267 C3268 1.383 . S
C3267 H3275 0.929 . S
C3268 C3267 1.383 . S
C3268 C3269 1.377 . S
C3269 H3253 0.930 . S
C3269 C3268 1.377 . S
C3269 C3270 1.379 . S
C3270 H3254 0.931 . S
C3270 C3264 1.383 . S
C3270 C3269 1.379 . S
H3271 C3265 0.959 . S
H3272 C3265 0.961 . S
H3273 C3265 0.960 . S
H3274 C3266 0.930 . S
H3275 C3267 0.929 . S
H3276 C3284 0.929 . S
H3277 C3286 0.930 . S
H3278 C3288 0.930 . S
H3279 C3291 0.929 . S
H3280 C3294 0.930 . S
H3281 C3296 0.960 . S
H3282 C3296 0.960 . S
H3283 C3296 0.960 . S
C3284 H3276 0.929 . S
C3284 C3285 1.377 . S
C3284 C3286 1.384 . S
C3285 C3284 1.377 . S
C3285 C3291 1.390 . S
C3286 H3277 0.930 . S
C3286 C3284 1.384 . S
C3286 C3287 1.372 . S
C3287 C3286 1.372 . S
C3287 C3288 1.400 . S
C3287 C3292 1.490 . S
C3288 H3278 0.930 . S
C3288 C3287 1.400 . S
C3288 C3291 1.386 . S
H3289 C3305 0.930 . S
H3290 C3306 0.931 . S
C3291 H3279 0.929 . S
C3291 C3285 1.390 . S
C3291 C3288 1.386 . S
C3292 C3287 1.490 . S
C3292 C3294 1.395 . S
C3292 C3295 1.403 . S
H3293 C3299 0.930 . S
C3294 H3280 0.930 . S
C3294 C3292 1.395 . S
C3294 C3297 1.403 . S
C3295 C3292 1.403 . S
C3295 C3296 1.524 . S
C3295 C3299 1.400 . S
C3296 H3281 0.960 . S
C3296 H3282 0.960 . S
C3296 H3283 0.960 . S
C3296 C3295 1.524 . S
C3297 C3294 1.403 . S
C3297 C3298 1.392 . S
C3297 C3301 1.495 . S
C3298 C3297 1.392 . S
C3298 C3299 1.385 . S
C3298 C3300 1.478 . S
C3299 H3293 0.930 . S
C3299 C3295 1.400 . S
C3299 C3298 1.385 . S
C3300 C3298 1.478 . S
C3300 C3302 1.381 . S
C3300 C3306 1.383 . S
C3301 C3297 1.495 . S
C3301 H3307 0.959 . S
C3301 H3308 0.961 . S
C3301 H3309 0.960 . S
C3302 C3300 1.381 . S
C3302 C3303 1.394 . S
C3302 H3310 0.930 . S
C3303 C3302 1.394 . S
C3303 C3304 1.383 . S
C3303 H3311 0.929 . S
C3304 C3303 1.383 . S
C3304 C3305 1.377 . S
C3305 H3289 0.930 . S
C3305 C3304 1.377 . S
C3305 C3306 1.379 . S
C3306 H3290 0.931 . S
C3306 C3300 1.383 . S
C3306 C3305 1.379 . S
H3307 C3301 0.959 . S
H3308 C3301 0.961 . S
H3309 C3301 0.960 . S
H3310 C3302 0.930 . S
H3311 C3303 0.929 . S
H3312 C3320 0.929 . S
H3313 C3322 0.930 . S
H3314 C3324 0.930 . S
H3315 C3327 0.929 . S
H3316 C3330 0.930 . S
H3317 C3332 0.960 . S
H3318 C3332 0.960 . S
H3319 C3332 0.960 . S
C3320 H3312 0.929 . S
C3320 C3321 1.377 . S
C3320 C3322 1.384 . S
C3321 C3320 1.377 . S
C3321 C3327 1.390 . S
C3322 H3313 0.930 . S
C3322 C3320 1.384 . S
C3322 C3323 1.372 . S
C3323 C3322 1.372 . S
C3323 C3324 1.400 . S
C3323 C3328 1.490 . S
C3324 H3314 0.930 . S
C3324 C3323 1.400 . S
C3324 C3327 1.386 . S
H3325 C3341 0.930 . S
H3326 C3342 0.931 . S
C3327 H3315 0.929 . S
C3327 C3321 1.390 . S
C3327 C3324 1.386 . S
C3328 C3323 1.490 . S
C3328 C3330 1.395 . S
C3328 C3331 1.403 . S
H3329 C3335 0.930 . S
C3330 H3316 0.930 . S
C3330 C3328 1.395 . S
C3330 C3333 1.403 . S
C3331 C3328 1.403 . S
C3331 C3332 1.524 . S
C3331 C3335 1.400 . S
C3332 H3317 0.960 . S
C3332 H3318 0.960 . S
C3332 H3319 0.960 . S
C3332 C3331 1.524 . S
C3333 C3330 1.403 . S
C3333 C3334 1.392 . S
C3333 C3337 1.495 . S
C3334 C3333 1.392 . S
C3334 C3335 1.385 . S
C3334 C3336 1.478 . S
C3335 H3329 0.930 . S
C3335 C3331 1.400 . S
C3335 C3334 1.385 . S
C3336 C3334 1.478 . S
C3336 C3338 1.381 . S
C3336 C3342 1.383 . S
C3337 C3333 1.495 . S
C3337 H3343 0.959 . S
C3337 H3344 0.961 . S
C3337 H3345 0.960 . S
C3338 C3336 1.381 . S
C3338 C3339 1.394 . S
C3338 H3346 0.930 . S
C3339 C3338 1.394 . S
C3339 C3340 1.383 . S
C3339 H3347 0.929 . S
C3340 C3339 1.383 . S
C3340 C3341 1.377 . S
C3341 H3325 0.930 . S
C3341 C3340 1.377 . S
C3341 C3342 1.379 . S
C3342 H3326 0.931 . S
C3342 C3336 1.383 . S
C3342 C3341 1.379 . S
H3343 C3337 0.959 . S
H3344 C3337 0.961 . S
H3345 C3337 0.960 . S
H3346 C3338 0.930 . S
H3347 C3339 0.929 . S
H3348 C3356 0.929 . S
H3349 C3358 0.930 . S
H3350 C3360 0.930 . S
H3351 C3363 0.929 . S
H3352 C3366 0.930 . S
H3353 C3368 0.960 . S
H3354 C3368 0.960 . S
H3355 C3368 0.960 . S
C3356 H3348 0.929 . S
C3356 C3357 1.377 . S
C3356 C3358 1.384 . S
C3357 C3356 1.377 . S
C3357 C3363 1.390 . S
C3358 H3349 0.930 . S
C3358 C3356 1.384 . S
C3358 C3359 1.372 . S
C3359 C3358 1.372 . S
C3359 C3360 1.400 . S
C3359 C3364 1.490 . S
C3360 H3350 0.930 . S
C3360 C3359 1.400 . S
C3360 C3363 1.386 . S
H3361 C3377 0.930 . S
H3362 C3378 0.931 . S
C3363 H3351 0.929 . S
C3363 C3357 1.390 . S
C3363 C3360 1.386 . S
C3364 C3359 1.490 . S
C3364 C3366 1.395 1_554 S
C3364 C3367 1.403 . S
H3365 C3371 0.930 . S
C3366 H3352 0.930 . S
C3366 C3364 1.395 1_556 S
C3366 C3369 1.403 . S
C3367 C3364 1.403 . S
C3367 C3368 1.524 . S
C3367 C3371 1.400 1_554 S
C3368 H3353 0.960 . S
C3368 H3354 0.960 . S
C3368 H3355 0.960 . S
C3368 C3367 1.524 . S
C3369 C3366 1.403 . S
C3369 C3370 1.392 . S
C3369 C3373 1.495 . S
C3370 C3369 1.392 . S
C3370 C3371 1.385 . S
C3370 C3372 1.478 . S
C3371 H3365 0.930 . S
C3371 C3367 1.400 1_556 S
C3371 C3370 1.385 . S
C3372 C3370 1.478 . S
C3372 C3374 1.381 . S
C3372 C3378 1.383 . S
C3373 C3369 1.495 . S
C3373 H3379 0.959 . S
C3373 H3380 0.961 . S
C3373 H3381 0.960 . S
C3374 C3372 1.381 . S
C3374 C3375 1.394 . S
C3374 H3382 0.930 . S
C3375 C3374 1.394 . S
C3375 C3376 1.383 . S
C3375 H3383 0.929 . S
C3376 C3375 1.383 . S
C3376 C3377 1.377 . S
C3377 H3361 0.930 . S
C3377 C3376 1.377 . S
C3377 C3378 1.379 . S
C3378 H3362 0.931 . S
C3378 C3372 1.383 . S
C3378 C3377 1.379 . S
H3379 C3373 0.959 . S
H3380 C3373 0.961 . S
H3381 C3373 0.960 . S
H3382 C3374 0.930 . S
H3383 C3375 0.929 . S
H3384 C3392 0.929 . S
H3385 C3394 0.930 . S
H3386 C3396 0.930 . S
H3387 C3399 0.929 . S
H3388 C3402 0.930 . S
H3389 C3404 0.960 . S
H3390 C3404 0.941 1_554 S
H3391 C3404 0.960 . S
C3392 H3384 0.929 . S
C3392 C3393 1.377 . S
C3392 C3394 1.384 . S
C3393 C3392 1.377 . S
C3393 C3399 1.390 . S
C3394 H3385 0.930 . S
C3394 C3392 1.384 . S
C3394 C3395 1.372 . S
C3395 C3394 1.372 . S
C3395 C3396 1.400 . S
C3395 C3400 1.490 . S
C3396 H3386 0.930 . S
C3396 C3395 1.400 . S
C3396 C3399 1.386 . S
H3397 C3413 0.930 . S
H3398 C3414 0.931 . S
C3399 H3387 0.929 . S
C3399 C3393 1.390 . S
C3399 C3396 1.386 . S
C3400 C3395 1.490 . S
C3400 C3402 1.395 . S
C3400 C3403 1.403 1_554 S
H3401 C3407 0.930 . S
C3402 H3388 0.930 . S
C3402 C3400 1.395 . S
C3402 C3405 1.403 . S
C3403 C3400 1.403 1_556 S
C3403 C3404 1.524 . S
C3403 C3407 1.400 . S
C3404 H3389 0.960 . S
C3404 H3390 0.941 1_556 S
C3404 H3391 0.960 . S
C3404 C3403 1.524 . S
C3405 C3402 1.403 . S
C3405 C3406 1.392 1_554 S
C3405 C3409 1.495 . S
C3406 C3405 1.392 1_556 S
C3406 C3407 1.385 . S
C3406 C3408 1.478 . S
C3407 H3401 0.930 . S
C3407 C3403 1.400 . S
C3407 C3406 1.385 . S
C3408 C3406 1.478 . S
C3408 C3410 1.381 . S
C3408 C3414 1.383 . S
C3409 C3405 1.495 . S
C3409 H3415 0.959 . S
C3409 H3416 0.961 1_554 S
C3409 H3417 0.960 . S
C3410 C3408 1.381 . S
C3410 C3411 1.394 . S
C3410 H3418 0.930 . S
C3411 C3410 1.394 . S
C3411 C3412 1.383 . S
C3411 H3419 0.929 . S
C3412 C3411 1.383 . S
C3412 C3413 1.377 . S
C3413 H3397 0.930 . S
C3413 C3412 1.377 . S
C3413 C3414 1.379 . S
C3414 H3398 0.931 . S
C3414 C3408 1.383 . S
C3414 C3413 1.379 . S
H3415 C3409 0.959 . S
H3416 C3409 0.961 1_556 S
H3417 C3409 0.960 . S
H3418 C3410 0.930 . S
H3419 C3411 0.929 . S
H3420 C3428 0.929 . S
H3421 C3430 0.930 . S
H3422 C3432 0.930 . S
H3423 C3435 0.929 . S
H3424 C3438 0.930 . S
H3425 C3440 0.960 . S
H3426 C3440 0.960 . S
H3427 C3440 0.960 . S
C3428 H3420 0.929 . S
C3428 C3429 1.377 . S
C3428 C3430 1.384 . S
C3429 C3428 1.377 . S
C3429 C3435 1.390 . S
C3430 H3421 0.930 . S
C3430 C3428 1.384 . S
C3430 C3431 1.372 . S
C3431 C3430 1.372 . S
C3431 C3432 1.400 . S
C3431 C3436 1.490 . S
C3432 H3422 0.930 . S
C3432 C3431 1.400 . S
C3432 C3435 1.386 . S
H3433 C3449 0.930 . S
H3434 C3450 0.931 . S
C3435 H3423 0.929 . S
C3435 C3429 1.390 . S
C3435 C3432 1.386 . S
C3436 C3431 1.490 . S
C3436 C3438 1.395 1_554 S
C3436 C3439 1.403 . S
H3437 C3443 0.930 . S
C3438 H3424 0.930 . S
C3438 C3436 1.395 1_556 S
C3438 C3441 1.403 . S
C3439 C3436 1.403 . S
C3439 C3440 1.524 . S
C3439 C3443 1.400 . S
C3440 H3425 0.960 . S
C3440 H3426 0.960 . S
C3440 H3427 0.960 . S
C3440 C3439 1.524 . S
C3441 C3438 1.403 . S
C3441 C3442 1.392 . S
C3441 C3445 1.495 . S
C3442 C3441 1.392 . S
C3442 C3443 1.385 1_556 S
C3442 C3444 1.478 . S
C3443 H3437 0.930 . S
C3443 C3439 1.400 . S
C3443 C3442 1.385 1_554 S
C3444 C3442 1.478 . S
C3444 C3446 1.381 . S
C3444 C3450 1.383 . S
C3445 C3441 1.495 . S
C3445 H3451 0.959 . S
C3445 H3452 0.961 . S
C3445 H3453 0.960 . S
C3446 C3444 1.381 . S
C3446 C3447 1.394 . S
C3446 H3454 0.930 . S
C3447 C3446 1.394 . S
C3447 C3448 1.383 . S
C3447 H3455 0.929 . S
C3448 C3447 1.383 . S
C3448 C3449 1.377 . S
C3449 H3433 0.930 . S
C3449 C3448 1.377 . S
C3449 C3450 1.379 . S
C3450 H3434 0.931 . S
C3450 C3444 1.383 . S
C3450 C3449 1.379 . S
H3451 C3445 0.959 . S
H3452 C3445 0.961 . S
H3453 C3445 0.960 . S
H3454 C3446 0.930 . S
H3455 C3447 0.929 . S
H3456 C3464 0.929 . S
H3457 C3466 0.930 . S
H3458 C3468 0.930 . S
H3459 C3471 0.929 . S
H3460 C3474 0.930 . S
H3461 C3476 0.960 . S
H3462 C3476 0.960 . S
H3463 C3476 0.960 . S
C3464 H3456 0.929 . S
C3464 C3465 1.377 . S
C3464 C3466 1.384 . S
C3465 C3464 1.377 . S
C3465 C3471 1.390 . S
C3466 H3457 0.930 . S
C3466 C3464 1.384 . S
C3466 C3467 1.372 . S
C3467 C3466 1.372 . S
C3467 C3468 1.400 . S
C3467 C3472 1.490 . S
C3468 H3458 0.930 . S
C3468 C3467 1.400 . S
C3468 C3471 1.386 . S
H3469 C3485 0.930 . S
H3470 C3486 0.931 . S
C3471 H3459 0.929 . S
C3471 C3465 1.390 . S
C3471 C3468 1.386 . S
C3472 C3467 1.490 . S
C3472 C3474 1.395 . S
C3472 C3475 1.403 . S
H3473 C3479 0.930 . S
C3474 H3460 0.930 . S
C3474 C3472 1.395 . S
C3474 C3477 1.403 . S
C3475 C3472 1.403 . S
C3475 C3476 1.524 . S
C3475 C3479 1.400 . S
C3476 H3461 0.960 . S
C3476 H3462 0.960 . S
C3476 H3463 0.960 . S
C3476 C3475 1.524 . S
C3477 C3474 1.403 . S
C3477 C3478 1.392 . S
C3477 C3481 1.495 . S
C3478 C3477 1.392 . S
C3478 C3479 1.385 . S
C3478 C3480 1.478 . S
C3479 H3473 0.930 . S
C3479 C3475 1.400 . S
C3479 C3478 1.385 . S
C3480 C3478 1.478 . S
C3480 C3482 1.381 . S
C3480 C3486 1.383 . S
C3481 C3477 1.495 . S
C3481 H3487 0.959 . S
C3481 H3488 0.961 . S
C3481 H3489 0.960 . S
C3482 C3480 1.381 . S
C3482 C3483 1.394 . S
C3482 H3490 0.930 . S
C3483 C3482 1.394 . S
C3483 C3484 1.383 . S
C3483 H3491 0.929 . S
C3484 C3483 1.383 . S
C3484 C3485 1.377 . S
C3485 H3469 0.930 . S
C3485 C3484 1.377 . S
C3485 C3486 1.379 . S
C3486 H3470 0.931 . S
C3486 C3480 1.383 . S
C3486 C3485 1.379 . S
H3487 C3481 0.959 . S
H3488 C3481 0.961 . S
H3489 C3481 0.960 . S
H3490 C3482 0.930 . S
H3491 C3483 0.929 . S
H3492 C3500 0.929 . S
H3493 C3502 0.930 . S
H3494 C3504 0.930 . S
H3495 C3507 0.929 . S
H3496 C3510 0.930 . S
H3497 C3512 0.960 . S
H3498 C3512 0.960 . S
H3499 C3512 0.960 . S
C3500 H3492 0.929 . S
C3500 C3501 1.377 . S
C3500 C3502 1.384 . S
C3501 C3500 1.377 . S
C3501 C3507 1.390 . S
C3502 H3493 0.930 . S
C3502 C3500 1.384 . S
C3502 C3503 1.372 . S
C3503 C3502 1.372 . S
C3503 C3504 1.400 . S
C3503 C3508 1.490 . S
C3504 H3494 0.930 . S
C3504 C3503 1.400 . S
C3504 C3507 1.386 . S
H3505 C3521 0.930 . S
H3506 C3522 0.931 . S
C3507 H3495 0.929 . S
C3507 C3501 1.390 . S
C3507 C3504 1.386 . S
C3508 C3503 1.490 . S
C3508 C3510 1.395 . S
C3508 C3511 1.403 . S
H3509 C3515 0.930 . S
C3510 H3496 0.930 . S
C3510 C3508 1.395 . S
C3510 C3513 1.403 . S
C3511 C3508 1.403 . S
C3511 C3512 1.524 . S
C3511 C3515 1.400 . S
C3512 H3497 0.960 . S
C3512 H3498 0.960 . S
C3512 H3499 0.960 . S
C3512 C3511 1.524 . S
C3513 C3510 1.403 . S
C3513 C3514 1.392 . S
C3513 C3517 1.495 . S
C3514 C3513 1.392 . S
C3514 C3515 1.385 . S
C3514 C3516 1.478 . S
C3515 H3509 0.930 . S
C3515 C3511 1.400 . S
C3515 C3514 1.385 . S
C3516 C3514 1.478 . S
C3516 C3518 1.381 . S
C3516 C3522 1.383 . S
C3517 C3513 1.495 . S
C3517 H3523 0.959 . S
C3517 H3524 0.961 . S
C3517 H3525 0.960 . S
C3518 C3516 1.381 . S
C3518 C3519 1.394 . S
C3518 H3526 0.930 . S
C3519 C3518 1.394 . S
C3519 C3520 1.383 . S
C3519 H3527 0.929 . S
C3520 C3519 1.383 . S
C3520 C3521 1.377 . S
C3521 H3505 0.930 . S
C3521 C3520 1.377 . S
C3521 C3522 1.379 . S
C3522 H3506 0.931 . S
C3522 C3516 1.383 . S
C3522 C3521 1.379 . S
H3523 C3517 0.959 . S
H3524 C3517 0.961 . S
H3525 C3517 0.960 . S
H3526 C3518 0.930 . S
H3527 C3519 0.929 . S
H3528 C3536 0.929 . S
H3529 C3538 0.930 . S
H3530 C3540 0.930 . S
H3531 C3543 0.929 . S
H3532 C3546 0.930 . S
H3533 C3548 0.960 . S
H3534 C3548 0.960 . S
H3535 C3548 0.960 . S
C3536 H3528 0.929 . S
C3536 C3537 1.377 . S
C3536 C3538 1.384 . S
C3537 C3536 1.377 . S
C3537 C3543 1.390 . S
C3538 H3529 0.930 . S
C3538 C3536 1.384 . S
C3538 C3539 1.372 . S
C3539 C3538 1.372 . S
C3539 C3540 1.400 . S
C3539 C3544 1.490 . S
C3540 H3530 0.930 . S
C3540 C3539 1.400 . S
C3540 C3543 1.386 . S
H3541 C3557 0.930 . S
H3542 C3558 0.931 . S
C3543 H3531 0.929 . S
C3543 C3537 1.390 . S
C3543 C3540 1.386 . S
C3544 C3539 1.490 . S
C3544 C3546 1.395 . S
C3544 C3547 1.403 . S
H3545 C3551 0.930 . S
C3546 H3532 0.930 . S
C3546 C3544 1.395 . S
C3546 C3549 1.403 . S
C3547 C3544 1.403 . S
C3547 C3548 1.524 . S
C3547 C3551 1.400 . S
C3548 H3533 0.960 . S
C3548 H3534 0.960 . S
C3548 H3535 0.960 . S
C3548 C3547 1.524 . S
C3549 C3546 1.403 . S
C3549 C3550 1.392 . S
C3549 C3553 1.495 . S
C3550 C3549 1.392 . S
C3550 C3551 1.385 . S
C3550 C3552 1.478 . S
C3551 H3545 0.930 . S
C3551 C3547 1.400 . S
C3551 C3550 1.385 . S
C3552 C3550 1.478 . S
C3552 C3554 1.381 . S
C3552 C3558 1.383 . S
C3553 C3549 1.495 . S
C3553 H3559 0.959 . S
C3553 H3560 0.961 . S
C3553 H3561 0.960 . S
C3554 C3552 1.381 . S
C3554 C3555 1.394 . S
C3554 H3562 0.930 . S
C3555 C3554 1.394 . S
C3555 C3556 1.383 . S
C3555 H3563 0.929 . S
C3556 C3555 1.383 . S
C3556 C3557 1.377 . S
C3557 H3541 0.930 . S
C3557 C3556 1.377 . S
C3557 C3558 1.379 . S
C3558 H3542 0.931 . S
C3558 C3552 1.383 . S
C3558 C3557 1.379 . S
H3559 C3553 0.959 . S
H3560 C3553 0.961 . S
H3561 C3553 0.960 . S
H3562 C3554 0.930 . S
H3563 C3555 0.929 . S
H3564 C3572 0.929 . S
H3565 C3574 0.930 . S
H3566 C3576 0.930 . S
H3567 C3579 0.929 . S
H3568 C3582 0.930 . S
H3569 C3584 0.960 . S
H3570 C3584 0.960 . S
H3571 C3584 0.960 . S
C3572 H3564 0.929 . S
C3572 C3573 1.377 . S
C3572 C3574 1.384 . S
C3573 C3572 1.377 . S
C3573 C3579 1.390 . S
C3574 H3565 0.930 . S
C3574 C3572 1.384 . S
C3574 C3575 1.372 . S
C3575 C3574 1.372 . S
C3575 C3576 1.400 . S
C3575 C3580 1.490 . S
C3576 H3566 0.930 . S
C3576 C3575 1.400 . S
C3576 C3579 1.386 . S
H3577 C3593 0.930 . S
H3578 C3594 0.931 . S
C3579 H3567 0.929 . S
C3579 C3573 1.390 . S
C3579 C3576 1.386 . S
C3580 C3575 1.490 . S
C3580 C3582 1.395 . S
C3580 C3583 1.403 . S
H3581 C3587 0.930 . S
C3582 H3568 0.930 . S
C3582 C3580 1.395 . S
C3582 C3585 1.403 . S
C3583 C3580 1.403 . S
C3583 C3584 1.524 . S
C3583 C3587 1.400 . S
C3584 H3569 0.960 . S
C3584 H3570 0.960 . S
C3584 H3571 0.960 . S
C3584 C3583 1.524 . S
C3585 C3582 1.403 . S
C3585 C3586 1.392 . S
C3585 C3589 1.495 . S
C3586 C3585 1.392 . S
C3586 C3587 1.385 . S
C3586 C3588 1.478 . S
C3587 H3581 0.930 . S
C3587 C3583 1.400 . S
C3587 C3586 1.385 . S
C3588 C3586 1.478 . S
C3588 C3590 1.381 . S
C3588 C3594 1.383 . S
C3589 C3585 1.495 . S
C3589 H3595 0.959 . S
C3589 H3596 0.961 . S
C3589 H3597 0.960 . S
C3590 C3588 1.381 . S
C3590 C3591 1.394 . S
C3590 H3598 0.930 . S
C3591 C3590 1.394 . S
C3591 C3592 1.383 . S
C3591 H3599 0.929 . S
C3592 C3591 1.383 . S
C3592 C3593 1.377 . S
C3593 H3577 0.930 . S
C3593 C3592 1.377 . S
C3593 C3594 1.379 . S
C3594 H3578 0.931 . S
C3594 C3588 1.383 . S
C3594 C3593 1.379 . S
H3595 C3589 0.959 . S
H3596 C3589 0.961 . S
H3597 C3589 0.960 . S
H3598 C3590 0.930 . S
H3599 C3591 0.929 . S
H3600 C3608 0.929 . S
H3601 C3610 0.930 . S
H3602 C3612 0.930 . S
H3603 C3615 0.929 . S
H3604 C3618 0.930 . S
H3605 C3620 0.960 . S
H3606 C3620 0.960 . S
H3607 C3620 0.960 . S
C3608 H3600 0.929 . S
C3608 C3609 1.377 . S
C3608 C3610 1.384 . S
C3609 C3608 1.377 . S
C3609 C3615 1.390 . S
C3610 H3601 0.930 . S
C3610 C3608 1.384 . S
C3610 C3611 1.372 . S
C3611 C3610 1.372 . S
C3611 C3612 1.400 . S
C3611 C3616 1.490 . S
C3612 H3602 0.930 . S
C3612 C3611 1.400 . S
C3612 C3615 1.386 . S
H3613 C3629 0.930 . S
H3614 C3630 0.931 . S
C3615 H3603 0.929 . S
C3615 C3609 1.390 . S
C3615 C3612 1.386 . S
C3616 C3611 1.490 . S
C3616 C3618 1.395 . S
C3616 C3619 1.403 . S
H3617 C3623 0.930 . S
C3618 H3604 0.930 . S
C3618 C3616 1.395 . S
C3618 C3621 1.403 . S
C3619 C3616 1.403 . S
C3619 C3620 1.524 . S
C3619 C3623 1.400 . S
C3620 H3605 0.960 . S
C3620 H3606 0.960 . S
C3620 H3607 0.960 . S
C3620 C3619 1.524 . S
C3621 C3618 1.403 . S
C3621 C3622 1.392 . S
C3621 C3625 1.495 . S
C3622 C3621 1.392 . S
C3622 C3623 1.385 . S
C3622 C3624 1.478 . S
C3623 H3617 0.930 . S
C3623 C3619 1.400 . S
C3623 C3622 1.385 . S
C3624 C3622 1.478 . S
C3624 C3626 1.381 . S
C3624 C3630 1.383 . S
C3625 C3621 1.495 . S
C3625 H3631 0.959 . S
C3625 H3632 0.961 . S
C3625 H3633 0.960 . S
C3626 C3624 1.381 . S
C3626 C3627 1.394 . S
C3626 H3634 0.930 . S
C3627 C3626 1.394 . S
C3627 C3628 1.383 . S
C3627 H3635 0.929 . S
C3628 C3627 1.383 . S
C3628 C3629 1.377 . S
C3629 H3613 0.930 . S
C3629 C3628 1.377 . S
C3629 C3630 1.379 . S
C3630 H3614 0.931 . S
C3630 C3624 1.383 . S
C3630 C3629 1.379 . S
H3631 C3625 0.959 . S
H3632 C3625 0.961 . S
H3633 C3625 0.960 . S
H3634 C3626 0.930 . S
H3635 C3627 0.929 . S
H3636 C3644 0.929 . S
H3637 C3646 0.930 . S
H3638 C3648 0.930 . S
H3639 C3651 0.929 . S
H3640 C3654 0.930 . S
H3641 C3656 0.960 . S
H3642 C3656 0.960 . S
H3643 C3656 0.960 . S
C3644 H3636 0.929 . S
C3644 C3645 1.377 . S
C3644 C3646 1.384 . S
C3645 C3644 1.377 . S
C3645 C3651 1.390 . S
C3646 H3637 0.930 . S
C3646 C3644 1.384 . S
C3646 C3647 1.372 . S
C3647 C3646 1.372 . S
C3647 C3648 1.400 . S
C3647 C3652 1.490 . S
C3648 H3638 0.930 . S
C3648 C3647 1.400 . S
C3648 C3651 1.386 . S
H3649 C3665 0.930 . S
H3650 C3666 0.931 . S
C3651 H3639 0.929 . S
C3651 C3645 1.390 . S
C3651 C3648 1.386 . S
C3652 C3647 1.490 . S
C3652 C3654 1.395 . S
C3652 C3655 1.403 . S
H3653 C3659 0.930 . S
C3654 H3640 0.930 . S
C3654 C3652 1.395 . S
C3654 C3657 1.403 . S
C3655 C3652 1.403 . S
C3655 C3656 1.524 . S
C3655 C3659 1.400 . S
C3656 H3641 0.960 . S
C3656 H3642 0.960 . S
C3656 H3643 0.960 . S
C3656 C3655 1.524 . S
C3657 C3654 1.403 . S
C3657 C3658 1.392 . S
C3657 C3661 1.495 . S
C3658 C3657 1.392 . S
C3658 C3659 1.385 . S
C3658 C3660 1.478 . S
C3659 H3653 0.930 . S
C3659 C3655 1.400 . S
C3659 C3658 1.385 . S
C3660 C3658 1.478 . S
C3660 C3662 1.381 . S
C3660 C3666 1.383 . S
C3661 C3657 1.495 . S
C3661 H3667 0.959 . S
C3661 H3668 0.961 . S
C3661 H3669 0.960 . S
C3662 C3660 1.381 . S
C3662 C3663 1.394 . S
C3662 H3670 0.930 . S
C3663 C3662 1.394 . S
C3663 C3664 1.383 . S
C3663 H3671 0.929 . S
C3664 C3663 1.383 . S
C3664 C3665 1.377 . S
C3665 H3649 0.930 . S
C3665 C3664 1.377 . S
C3665 C3666 1.379 . S
C3666 H3650 0.931 . S
C3666 C3660 1.383 . S
C3666 C3665 1.379 . S
H3667 C3661 0.959 . S
H3668 C3661 0.961 . S
H3669 C3661 0.960 . S
H3670 C3662 0.930 . S
H3671 C3663 0.929 . S
H3672 C3680 0.929 . S
H3673 C3682 0.930 . S
H3674 C3684 0.930 . S
H3675 C3687 0.929 . S
H3676 C3690 0.930 . S
H3677 C3692 0.960 . S
H3678 C3692 0.960 . S
H3679 C3692 0.960 . S
C3680 H3672 0.929 . S
C3680 C3681 1.377 . S
C3680 C3682 1.384 . S
C3681 C3680 1.377 . S
C3681 C3687 1.390 . S
C3682 H3673 0.930 . S
C3682 C3680 1.384 . S
C3682 C3683 1.372 . S
C3683 C3682 1.372 . S
C3683 C3684 1.400 . S
C3683 C3688 1.490 . S
C3684 H3674 0.930 . S
C3684 C3683 1.400 . S
C3684 C3687 1.386 . S
H3685 C3701 0.930 . S
H3686 C3702 0.931 . S
C3687 H3675 0.929 . S
C3687 C3681 1.390 . S
C3687 C3684 1.386 . S
C3688 C3683 1.490 . S
C3688 C3690 1.395 . S
C3688 C3691 1.403 . S
H3689 C3695 0.930 . S
C3690 H3676 0.930 . S
C3690 C3688 1.395 . S
C3690 C3693 1.403 . S
C3691 C3688 1.403 . S
C3691 C3692 1.524 . S
C3691 C3695 1.400 . S
C3692 H3677 0.960 . S
C3692 H3678 0.960 . S
C3692 H3679 0.960 . S
C3692 C3691 1.524 . S
C3693 C3690 1.403 . S
C3693 C3694 1.392 . S
C3693 C3697 1.495 . S
C3694 C3693 1.392 . S
C3694 C3695 1.385 . S
C3694 C3696 1.478 . S
C3695 H3689 0.930 . S
C3695 C3691 1.400 . S
C3695 C3694 1.385 . S
C3696 C3694 1.478 . S
C3696 C3698 1.381 . S
C3696 C3702 1.383 . S
C3697 C3693 1.495 . S
C3697 H3703 0.959 . S
C3697 H3704 0.961 . S
C3697 H3705 0.960 . S
C3698 C3696 1.381 . S
C3698 C3699 1.394 . S
C3698 H3706 0.930 . S
C3699 C3698 1.394 . S
C3699 C3700 1.383 . S
C3699 H3707 0.929 . S
C3700 C3699 1.383 . S
C3700 C3701 1.377 . S
C3701 H3685 0.930 . S
C3701 C3700 1.377 . S
C3701 C3702 1.379 . S
C3702 H3686 0.931 . S
C3702 C3696 1.383 . S
C3702 C3701 1.379 . S
H3703 C3697 0.959 . S
H3704 C3697 0.961 . S
H3705 C3697 0.960 . S
H3706 C3698 0.930 . S
H3707 C3699 0.929 . S
H3708 C3716 0.929 . S
H3709 C3718 0.930 . S
H3710 C3720 0.930 . S
H3711 C3723 0.929 . S
H3712 C3726 0.930 . S
H3713 C3728 0.960 . S
H3714 C3728 0.960 . S
H3715 C3728 0.960 . S
C3716 H3708 0.929 . S
C3716 C3717 1.377 . S
C3716 C3718 1.384 . S
C3717 C3716 1.377 . S
C3717 C3723 1.390 . S
C3718 H3709 0.930 . S
C3718 C3716 1.384 . S
C3718 C3719 1.372 . S
C3719 C3718 1.372 . S
C3719 C3720 1.400 . S
C3719 C3724 1.490 . S
C3720 H3710 0.930 . S
C3720 C3719 1.400 . S
C3720 C3723 1.386 . S
H3721 C3737 0.930 . S
H3722 C3738 0.931 . S
C3723 H3711 0.929 . S
C3723 C3717 1.390 . S
C3723 C3720 1.386 . S
C3724 C3719 1.490 . S
C3724 C3726 1.395 . S
C3724 C3727 1.403 . S
H3725 C3731 0.930 . S
C3726 H3712 0.930 . S
C3726 C3724 1.395 . S
C3726 C3729 1.403 . S
C3727 C3724 1.403 . S
C3727 C3728 1.524 . S
C3727 C3731 1.400 . S
C3728 H3713 0.960 . S
C3728 H3714 0.960 . S
C3728 H3715 0.960 . S
C3728 C3727 1.524 . S
C3729 C3726 1.403 . S
C3729 C3730 1.392 . S
C3729 C3733 1.495 . S
C3730 C3729 1.392 . S
C3730 C3731 1.385 . S
C3730 C3732 1.478 . S
C3731 H3725 0.930 . S
C3731 C3727 1.400 . S
C3731 C3730 1.385 . S
C3732 C3730 1.478 . S
C3732 C3734 1.381 . S
C3732 C3738 1.383 . S
C3733 C3729 1.495 . S
C3733 H3739 0.959 . S
C3733 H3740 0.961 . S
C3733 H3741 0.960 . S
C3734 C3732 1.381 . S
C3734 C3735 1.394 . S
C3734 H3742 0.930 . S
C3735 C3734 1.394 . S
C3735 C3736 1.383 . S
C3735 H3743 0.929 . S
C3736 C3735 1.383 . S
C3736 C3737 1.377 . S
C3737 H3721 0.930 . S
C3737 C3736 1.377 . S
C3737 C3738 1.379 . S
C3738 H3722 0.931 . S
C3738 C3732 1.383 . S
C3738 C3737 1.379 . S
H3739 C3733 0.959 . S
H3740 C3733 0.961 . S
H3741 C3733 0.960 . S
H3742 C3734 0.930 . S
H3743 C3735 0.929 . S
H3744 C3752 0.929 . S
H3745 C3754 0.930 . S
H3746 C3756 0.930 . S
H3747 C3759 0.929 . S
H3748 C3762 0.930 . S
H3749 C3764 0.960 . S
H3750 C3764 0.960 . S
H3751 C3764 0.960 . S
C3752 H3744 0.929 . S
C3752 C3753 1.377 . S
C3752 C3754 1.384 . S
C3753 C3752 1.377 . S
C3753 C3759 1.390 . S
C3754 H3745 0.930 . S
C3754 C3752 1.384 . S
C3754 C3755 1.372 . S
C3755 C3754 1.372 . S
C3755 C3756 1.400 . S
C3755 C3760 1.490 . S
C3756 H3746 0.930 . S
C3756 C3755 1.400 . S
C3756 C3759 1.386 . S
H3757 C3773 0.930 . S
H3758 C3774 0.931 . S
C3759 H3747 0.929 . S
C3759 C3753 1.390 . S
C3759 C3756 1.386 . S
C3760 C3755 1.490 . S
C3760 C3762 1.395 . S
C3760 C3763 1.403 . S
H3761 C3767 0.930 . S
C3762 H3748 0.930 . S
C3762 C3760 1.395 . S
C3762 C3765 1.403 . S
C3763 C3760 1.403 . S
C3763 C3764 1.524 . S
C3763 C3767 1.400 . S
C3764 H3749 0.960 . S
C3764 H3750 0.960 . S
C3764 H3751 0.960 . S
C3764 C3763 1.524 . S
C3765 C3762 1.403 . S
C3765 C3766 1.392 . S
C3765 C3769 1.495 . S
C3766 C3765 1.392 . S
C3766 C3767 1.385 . S
C3766 C3768 1.478 . S
C3767 H3761 0.930 . S
C3767 C3763 1.400 . S
C3767 C3766 1.385 . S
C3768 C3766 1.478 . S
C3768 C3770 1.381 . S
C3768 C3774 1.383 . S
C3769 C3765 1.495 . S
C3769 H3775 0.959 . S
C3769 H3776 0.961 . S
C3769 H3777 0.960 . S
C3770 C3768 1.381 . S
C3770 C3771 1.394 . S
C3770 H3778 0.930 . S
C3771 C3770 1.394 . S
C3771 C3772 1.383 . S
C3771 H3779 0.929 . S
C3772 C3771 1.383 . S
C3772 C3773 1.377 . S
C3773 H3757 0.930 . S
C3773 C3772 1.377 . S
C3773 C3774 1.379 . S
C3774 H3758 0.931 . S
C3774 C3768 1.383 . S
C3774 C3773 1.379 . S
H3775 C3769 0.959 . S
H3776 C3769 0.961 . S
H3777 C3769 0.960 . S
H3778 C3770 0.930 . S
H3779 C3771 0.929 . S
H3780 C3788 0.929 . S
H3781 C3790 0.930 . S
H3782 C3792 0.930 . S
H3783 C3795 0.929 . S
H3784 C3798 0.930 . S
H3785 C3800 0.960 . S
H3786 C3800 0.960 . S
H3787 C3800 0.960 . S
C3788 H3780 0.929 . S
C3788 C3789 1.377 . S
C3788 C3790 1.384 . S
C3789 C3788 1.377 . S
C3789 C3795 1.390 . S
C3790 H3781 0.930 . S
C3790 C3788 1.384 . S
C3790 C3791 1.372 . S
C3791 C3790 1.372 . S
C3791 C3792 1.400 . S
C3791 C3796 1.490 . S
C3792 H3782 0.930 . S
C3792 C3791 1.400 . S
C3792 C3795 1.386 . S
H3793 C3809 0.930 . S
H3794 C3810 0.931 . S
C3795 H3783 0.929 . S
C3795 C3789 1.390 . S
C3795 C3792 1.386 . S
C3796 C3791 1.490 . S
C3796 C3798 1.395 . S
C3796 C3799 1.403 . S
H3797 C3803 0.930 . S
C3798 H3784 0.930 . S
C3798 C3796 1.395 . S
C3798 C3801 1.403 . S
C3799 C3796 1.403 . S
C3799 C3800 1.524 . S
C3799 C3803 1.400 . S
C3800 H3785 0.960 . S
C3800 H3786 0.960 . S
C3800 H3787 0.960 . S
C3800 C3799 1.524 . S
C3801 C3798 1.403 . S
C3801 C3802 1.392 . S
C3801 C3805 1.495 . S
C3802 C3801 1.392 . S
C3802 C3803 1.385 . S
C3802 C3804 1.478 . S
C3803 H3797 0.930 . S
C3803 C3799 1.400 . S
C3803 C3802 1.385 . S
C3804 C3802 1.478 . S
C3804 C3806 1.381 . S
C3804 C3810 1.383 . S
C3805 C3801 1.495 . S
C3805 H3811 0.959 . S
C3805 H3812 0.961 . S
C3805 H3813 0.960 . S
C3806 C3804 1.381 . S
C3806 C3807 1.394 . S
C3806 H3814 0.930 . S
C3807 C3806 1.394 . S
C3807 C3808 1.383 . S
C3807 H3815 0.929 . S
C3808 C3807 1.383 . S
C3808 C3809 1.377 . S
C3809 H3793 0.930 . S
C3809 C3808 1.377 . S
C3809 C3810 1.379 . S
C3810 H3794 0.931 . S
C3810 C3804 1.383 . S
C3810 C3809 1.379 . S
H3811 C3805 0.959 . S
H3812 C3805 0.961 . S
H3813 C3805 0.960 . S
H3814 C3806 0.930 . S
H3815 C3807 0.929 . S
H3816 C3824 0.929 . S
H3817 C3826 0.930 . S
H3818 C3828 0.930 . S
H3819 C3831 0.929 . S
H3820 C3834 0.930 . S
H3821 C3836 0.960 . S
H3822 C3836 0.960 . S
H3823 C3836 0.960 . S
C3824 H3816 0.929 . S
C3824 C3825 1.377 . S
C3824 C3826 1.384 . S
C3825 C3824 1.377 . S
C3825 C3831 1.390 . S
C3826 H3817 0.930 . S
C3826 C3824 1.384 . S
C3826 C3827 1.372 . S
C3827 C3826 1.372 . S
C3827 C3828 1.400 . S
C3827 C3832 1.490 . S
C3828 H3818 0.930 . S
C3828 C3827 1.400 . S
C3828 C3831 1.386 . S
H3829 C3845 0.930 . S
H3830 C3846 0.931 . S
C3831 H3819 0.929 . S
C3831 C3825 1.390 . S
C3831 C3828 1.386 . S
C3832 C3827 1.490 . S
C3832 C3834 1.395 . S
C3832 C3835 1.403 . S
H3833 C3839 0.930 . S
C3834 H3820 0.930 . S
C3834 C3832 1.395 . S
C3834 C3837 1.403 . S
C3835 C3832 1.403 . S
C3835 C3836 1.524 . S
C3835 C3839 1.400 . S
C3836 H3821 0.960 . S
C3836 H3822 0.960 . S
C3836 H3823 0.960 . S
C3836 C3835 1.524 . S
C3837 C3834 1.403 . S
C3837 C3838 1.392 . S
C3837 C3841 1.495 . S
C3838 C3837 1.392 . S
C3838 C3839 1.385 . S
C3838 C3840 1.478 . S
C3839 H3833 0.930 . S
C3839 C3835 1.400 . S
C3839 C3838 1.385 . S
C3840 C3838 1.478 . S
C3840 C3842 1.381 . S
C3840 C3846 1.383 . S
C3841 C3837 1.495 . S
C3841 H3847 0.959 . S
C3841 H3848 0.961 . S
C3841 H3849 0.960 . S
C3842 C3840 1.381 . S
C3842 C3843 1.394 . S
C3842 H3850 0.930 . S
C3843 C3842 1.394 . S
C3843 C3844 1.383 . S
C3843 H3851 0.929 . S
C3844 C3843 1.383 . S
C3844 C3845 1.377 . S
C3845 H3829 0.930 . S
C3845 C3844 1.377 . S
C3845 C3846 1.379 . S
C3846 H3830 0.931 . S
C3846 C3840 1.383 . S
C3846 C3845 1.379 . S
H3847 C3841 0.959 . S
H3848 C3841 0.961 . S
H3849 C3841 0.960 . S
H3850 C3842 0.930 . S
H3851 C3843 0.929 . S
H3852 C3860 0.929 . S
H3853 C3862 0.930 . S
H3854 C3864 0.930 . S
H3855 C3867 0.929 . S
H3856 C3870 0.930 . S
H3857 C3872 0.960 . S
H3858 C3872 0.960 . S
H3859 C3872 0.960 . S
C3860 H3852 0.929 . S
C3860 C3861 1.377 . S
C3860 C3862 1.384 . S
C3861 C3860 1.377 . S
C3861 C3867 1.390 . S
C3862 H3853 0.930 . S
C3862 C3860 1.384 . S
C3862 C3863 1.372 . S
C3863 C3862 1.372 . S
C3863 C3864 1.400 . S
C3863 C3868 1.490 . S
C3864 H3854 0.930 . S
C3864 C3863 1.400 . S
C3864 C3867 1.386 . S
H3865 C3881 0.930 . S
H3866 C3882 0.931 . S
C3867 H3855 0.929 . S
C3867 C3861 1.390 . S
C3867 C3864 1.386 . S
C3868 C3863 1.490 . S
C3868 C3870 1.395 . S
C3868 C3871 1.403 . S
H3869 C3875 0.930 . S
C3870 H3856 0.930 . S
C3870 C3868 1.395 . S
C3870 C3873 1.403 . S
C3871 C3868 1.403 . S
C3871 C3872 1.524 . S
C3871 C3875 1.400 . S
C3872 H3857 0.960 . S
C3872 H3858 0.960 . S
C3872 H3859 0.960 . S
C3872 C3871 1.524 . S
C3873 C3870 1.403 . S
C3873 C3874 1.392 . S
C3873 C3877 1.495 . S
C3874 C3873 1.392 . S
C3874 C3875 1.385 . S
C3874 C3876 1.478 . S
C3875 H3869 0.930 . S
C3875 C3871 1.400 . S
C3875 C3874 1.385 . S
C3876 C3874 1.478 . S
C3876 C3878 1.381 . S
C3876 C3882 1.383 . S
C3877 C3873 1.495 . S
C3877 H3883 0.959 . S
C3877 H3884 0.961 . S
C3877 H3885 0.960 . S
C3878 C3876 1.381 . S
C3878 C3879 1.394 . S
C3878 H3886 0.930 . S
C3879 C3878 1.394 . S
C3879 C3880 1.383 . S
C3879 H3887 0.929 . S
C3880 C3879 1.383 . S
C3880 C3881 1.377 . S
C3881 H3865 0.930 . S
C3881 C3880 1.377 . S
C3881 C3882 1.379 . S
C3882 H3866 0.931 . S
C3882 C3876 1.383 . S
C3882 C3881 1.379 . S
H3883 C3877 0.959 . S
H3884 C3877 0.961 . S
H3885 C3877 0.960 . S
H3886 C3878 0.930 . S
H3887 C3879 0.929 . S
H3888 C3896 0.929 . S
H3889 C3898 0.930 . S
H3890 C3900 0.930 . S
H3891 C3903 0.929 . S
H3892 C3906 0.930 . S
H3893 C3908 0.960 . S
H3894 C3908 0.960 . S
H3895 C3908 0.960 . S
C3896 H3888 0.929 . S
C3896 C3897 1.377 . S
C3896 C3898 1.384 . S
C3897 C3896 1.377 . S
C3897 C3903 1.390 . S
C3898 H3889 0.930 . S
C3898 C3896 1.384 . S
C3898 C3899 1.372 . S
C3899 C3898 1.372 . S
C3899 C3900 1.400 . S
C3899 C3904 1.490 . S
C3900 H3890 0.930 . S
C3900 C3899 1.400 . S
C3900 C3903 1.386 . S
H3901 C3917 0.930 . S
H3902 C3918 0.931 . S
C3903 H3891 0.929 . S
C3903 C3897 1.390 . S
C3903 C3900 1.386 . S
C3904 C3899 1.490 . S
C3904 C3906 1.395 . S
C3904 C3907 1.403 . S
H3905 C3911 0.930 . S
C3906 H3892 0.930 . S
C3906 C3904 1.395 . S
C3906 C3909 1.403 . S
C3907 C3904 1.403 . S
C3907 C3908 1.524 . S
C3907 C3911 1.400 . S
C3908 H3893 0.960 . S
C3908 H3894 0.960 . S
C3908 H3895 0.960 . S
C3908 C3907 1.524 . S
C3909 C3906 1.403 . S
C3909 C3910 1.392 . S
C3909 C3913 1.495 . S
C3910 C3909 1.392 . S
C3910 C3911 1.385 . S
C3910 C3912 1.478 . S
C3911 H3905 0.930 . S
C3911 C3907 1.400 . S
C3911 C3910 1.385 . S
C3912 C3910 1.478 . S
C3912 C3914 1.381 . S
C3912 C3918 1.383 . S
C3913 C3909 1.495 . S
C3913 H3919 0.959 . S
C3913 H3920 0.961 . S
C3913 H3921 0.960 . S
C3914 C3912 1.381 . S
C3914 C3915 1.394 . S
C3914 H3922 0.930 . S
C3915 C3914 1.394 . S
C3915 C3916 1.383 . S
C3915 H3923 0.929 . S
C3916 C3915 1.383 . S
C3916 C3917 1.377 . S
C3917 H3901 0.930 . S
C3917 C3916 1.377 . S
C3917 C3918 1.379 . S
C3918 H3902 0.931 . S
C3918 C3912 1.383 . S
C3918 C3917 1.379 . S
H3919 C3913 0.959 . S
H3920 C3913 0.961 . S
H3921 C3913 0.960 . S
H3922 C3914 0.930 . S
H3923 C3915 0.929 . S
H3924 C3932 0.929 . S
H3925 C3934 0.930 . S
H3926 C3936 0.930 . S
H3927 C3939 0.929 . S
H3928 C3942 0.930 . S
H3929 C3944 0.960 . S
H3930 C3944 0.960 . S
H3931 C3944 0.960 . S
C3932 H3924 0.929 . S
C3932 C3933 1.377 . S
C3932 C3934 1.384 . S
C3933 C3932 1.377 . S
C3933 C3939 1.390 . S
C3934 H3925 0.930 . S
C3934 C3932 1.384 . S
C3934 C3935 1.372 . S
C3935 C3934 1.372 . S
C3935 C3936 1.400 . S
C3935 C3940 1.490 . S
C3936 H3926 0.930 . S
C3936 C3935 1.400 . S
C3936 C3939 1.386 . S
H3937 C3953 0.930 . S
H3938 C3954 0.931 . S
C3939 H3927 0.929 . S
C3939 C3933 1.390 . S
C3939 C3936 1.386 . S
C3940 C3935 1.490 . S
C3940 C3942 1.395 . S
C3940 C3943 1.403 . S
H3941 C3947 0.930 . S
C3942 H3928 0.930 . S
C3942 C3940 1.395 . S
C3942 C3945 1.403 . S
C3943 C3940 1.403 . S
C3943 C3944 1.524 . S
C3943 C3947 1.400 . S
C3944 H3929 0.960 . S
C3944 H3930 0.960 . S
C3944 H3931 0.960 . S
C3944 C3943 1.524 . S
C3945 C3942 1.403 . S
C3945 C3946 1.392 . S
C3945 C3949 1.495 . S
C3946 C3945 1.392 . S
C3946 C3947 1.385 . S
C3946 C3948 1.478 . S
C3947 H3941 0.930 . S
C3947 C3943 1.400 . S
C3947 C3946 1.385 . S
C3948 C3946 1.478 . S
C3948 C3950 1.381 . S
C3948 C3954 1.383 . S
C3949 C3945 1.495 . S
C3949 H3955 0.959 . S
C3949 H3956 0.961 . S
C3949 H3957 0.960 . S
C3950 C3948 1.381 . S
C3950 C3951 1.394 . S
C3950 H3958 0.930 . S
C3951 C3950 1.394 . S
C3951 C3952 1.383 . S
C3951 H3959 0.929 . S
C3952 C3951 1.383 . S
C3952 C3953 1.377 . S
C3953 H3937 0.930 . S
C3953 C3952 1.377 . S
C3953 C3954 1.379 . S
C3954 H3938 0.931 . S
C3954 C3948 1.383 . S
C3954 C3953 1.379 . S
H3955 C3949 0.959 . S
H3956 C3949 0.961 . S
H3957 C3949 0.960 . S
H3958 C3950 0.930 . S
H3959 C3951 0.929 . S
H3960 C3968 0.929 . S
H3961 C3970 0.930 . S
H3962 C3972 0.930 . S
H3963 C3975 0.929 . S
H3964 C3978 0.930 . S
H3965 C3980 0.960 . S
H3966 C3980 0.960 . S
H3967 C3980 0.960 . S
C3968 H3960 0.929 . S
C3968 C3969 1.377 . S
C3968 C3970 1.384 . S
C3969 C3968 1.377 . S
C3969 C3975 1.390 . S
C3970 H3961 0.930 . S
C3970 C3968 1.384 . S
C3970 C3971 1.372 . S
C3971 C3970 1.372 . S
C3971 C3972 1.400 . S
C3971 C3976 1.490 . S
C3972 H3962 0.930 . S
C3972 C3971 1.400 . S
C3972 C3975 1.386 . S
H3973 C3989 0.930 . S
H3974 C3990 0.931 . S
C3975 H3963 0.929 . S
C3975 C3969 1.390 . S
C3975 C3972 1.386 . S
C3976 C3971 1.490 . S
C3976 C3978 1.395 . S
C3976 C3979 1.403 . S
H3977 C3983 0.930 . S
C3978 H3964 0.930 . S
C3978 C3976 1.395 . S
C3978 C3981 1.403 . S
C3979 C3976 1.403 . S
C3979 C3980 1.524 . S
C3979 C3983 1.400 . S
C3980 H3965 0.960 . S
C3980 H3966 0.960 . S
C3980 H3967 0.960 . S
C3980 C3979 1.524 . S
C3981 C3978 1.403 . S
C3981 C3982 1.392 . S
C3981 C3985 1.495 . S
C3982 C3981 1.392 . S
C3982 C3983 1.385 . S
C3982 C3984 1.478 . S
C3983 H3977 0.930 . S
C3983 C3979 1.400 . S
C3983 C3982 1.385 . S
C3984 C3982 1.478 . S
C3984 C3986 1.381 . S
C3984 C3990 1.383 . S
C3985 C3981 1.495 . S
C3985 H3991 0.959 . S
C3985 H3992 0.961 . S
C3985 H3993 0.960 . S
C3986 C3984 1.381 . S
C3986 C3987 1.394 . S
C3986 H3994 0.930 . S
C3987 C3986 1.394 . S
C3987 C3988 1.383 . S
C3987 H3995 0.929 . S
C3988 C3987 1.383 . S
C3988 C3989 1.377 . S
C3989 H3973 0.930 . S
C3989 C3988 1.377 . S
C3989 C3990 1.379 . S
C3990 H3974 0.931 . S
C3990 C3984 1.383 . S
C3990 C3989 1.379 . S
H3991 C3985 0.959 . S
H3992 C3985 0.961 . S
H3993 C3985 0.960 . S
H3994 C3986 0.930 . S
H3995 C3987 0.929 . S
H3996 C4004 0.929 . S
H3997 C4006 0.930 . S
H3998 C4008 0.930 . S
H3999 C4011 0.929 . S
H4000 C4014 0.930 . S
H4001 C4016 0.960 . S
H4002 C4016 0.960 . S
H4003 C4016 0.960 . S
C4004 H3996 0.929 . S
C4004 C4005 1.377 . S
C4004 C4006 1.384 . S
C4005 C4004 1.377 . S
C4005 C4011 1.390 . S
C4006 H3997 0.930 . S
C4006 C4004 1.384 . S
C4006 C4007 1.372 . S
C4007 C4006 1.372 . S
C4007 C4008 1.400 . S
C4007 C4012 1.490 . S
C4008 H3998 0.930 . S
C4008 C4007 1.400 . S
C4008 C4011 1.386 . S
H4009 C4025 0.930 . S
H4010 C4026 0.931 . S
C4011 H3999 0.929 . S
C4011 C4005 1.390 . S
C4011 C4008 1.386 . S
C4012 C4007 1.490 . S
C4012 C4014 1.395 . S
C4012 C4015 1.403 . S
H4013 C4019 0.930 . S
C4014 H4000 0.930 . S
C4014 C4012 1.395 . S
C4014 C4017 1.403 . S
C4015 C4012 1.403 . S
C4015 C4016 1.524 . S
C4015 C4019 1.400 . S
C4016 H4001 0.960 . S
C4016 H4002 0.960 . S
C4016 H4003 0.960 . S
C4016 C4015 1.524 . S
C4017 C4014 1.403 . S
C4017 C4018 1.392 . S
C4017 C4021 1.495 . S
C4018 C4017 1.392 . S
C4018 C4019 1.385 . S
C4018 C4020 1.478 . S
C4019 H4013 0.930 . S
C4019 C4015 1.400 . S
C4019 C4018 1.385 . S
C4020 C4018 1.478 . S
C4020 C4022 1.381 . S
C4020 C4026 1.383 . S
C4021 C4017 1.495 . S
C4021 H4027 0.959 . S
C4021 H4028 0.961 . S
C4021 H4029 0.960 . S
C4022 C4020 1.381 . S
C4022 C4023 1.394 . S
C4022 H4030 0.930 . S
C4023 C4022 1.394 . S
C4023 C4024 1.383 . S
C4023 H4031 0.929 . S
C4024 C4023 1.383 . S
C4024 C4025 1.377 . S
C4025 H4009 0.930 . S
C4025 C4024 1.377 . S
C4025 C4026 1.379 . S
C4026 H4010 0.931 . S
C4026 C4020 1.383 . S
C4026 C4025 1.379 . S
H4027 C4021 0.959 . S
H4028 C4021 0.961 . S
H4029 C4021 0.960 . S
H4030 C4022 0.930 . S
H4031 C4023 0.929 . S
H4032 C4040 0.929 . S
H4033 C4042 0.930 . S
H4034 C4044 0.930 . S
H4035 C4047 0.929 . S
H4036 C4050 0.930 . S
H4037 C4052 0.960 . S
H4038 C4052 0.960 . S
H4039 C4052 0.960 . S
C4040 H4032 0.929 . S
C4040 C4041 1.377 . S
C4040 C4042 1.384 . S
C4041 C4040 1.377 . S
C4041 C4047 1.390 . S
C4042 H4033 0.930 . S
C4042 C4040 1.384 . S
C4042 C4043 1.372 . S
C4043 C4042 1.372 . S
C4043 C4044 1.400 . S
C4043 C4048 1.490 . S
C4044 H4034 0.930 . S
C4044 C4043 1.400 . S
C4044 C4047 1.386 . S
H4045 C4061 0.930 . S
H4046 C4062 0.931 . S
C4047 H4035 0.929 . S
C4047 C4041 1.390 . S
C4047 C4044 1.386 . S
C4048 C4043 1.490 . S
C4048 C4050 1.395 . S
C4048 C4051 1.403 . S
H4049 C4055 0.930 . S
C4050 H4036 0.930 . S
C4050 C4048 1.395 . S
C4050 C4053 1.403 . S
C4051 C4048 1.403 . S
C4051 C4052 1.524 . S
C4051 C4055 1.400 . S
C4052 H4037 0.960 . S
C4052 H4038 0.960 . S
C4052 H4039 0.960 . S
C4052 C4051 1.524 . S
C4053 C4050 1.403 . S
C4053 C4054 1.392 . S
C4053 C4057 1.495 . S
C4054 C4053 1.392 . S
C4054 C4055 1.385 . S
C4054 C4056 1.478 . S
C4055 H4049 0.930 . S
C4055 C4051 1.400 . S
C4055 C4054 1.385 . S
C4056 C4054 1.478 . S
C4056 C4058 1.381 . S
C4056 C4062 1.383 . S
C4057 C4053 1.495 . S
C4057 H4063 0.959 . S
C4057 H4064 0.961 . S
C4057 H4065 0.960 . S
C4058 C4056 1.381 . S
C4058 C4059 1.394 . S
C4058 H4066 0.930 . S
C4059 C4058 1.394 . S
C4059 C4060 1.383 . S
C4059 H4067 0.929 . S
C4060 C4059 1.383 . S
C4060 C4061 1.377 . S
C4061 H4045 0.930 . S
C4061 C4060 1.377 . S
C4061 C4062 1.379 . S
C4062 H4046 0.931 . S
C4062 C4056 1.383 . S
C4062 C4061 1.379 . S
H4063 C4057 0.959 . S
H4064 C4057 0.961 . S
H4065 C4057 0.960 . S
H4066 C4058 0.930 . S
H4067 C4059 0.929 . S
H4068 C4076 0.929 . S
H4069 C4078 0.930 . S
H4070 C4080 0.930 . S
H4071 C4083 0.929 . S
H4072 C4086 0.930 . S
H4073 C4088 0.960 . S
H4074 C4088 0.960 . S
H4075 C4088 0.960 . S
C4076 H4068 0.929 . S
C4076 C4077 1.377 . S
C4076 C4078 1.384 . S
C4077 C4076 1.377 . S
C4077 C4083 1.390 . S
C4078 H4069 0.930 . S
C4078 C4076 1.384 . S
C4078 C4079 1.372 . S
C4079 C4078 1.372 . S
C4079 C4080 1.400 . S
C4079 C4084 1.490 . S
C4080 H4070 0.930 . S
C4080 C4079 1.400 . S
C4080 C4083 1.386 . S
H4081 C4097 0.930 . S
H4082 C4098 0.931 . S
C4083 H4071 0.929 . S
C4083 C4077 1.390 . S
C4083 C4080 1.386 . S
C4084 C4079 1.490 . S
C4084 C4086 1.395 . S
C4084 C4087 1.403 . S
H4085 C4091 0.930 . S
C4086 H4072 0.930 . S
C4086 C4084 1.395 . S
C4086 C4089 1.403 . S
C4087 C4084 1.403 . S
C4087 C4088 1.524 . S
C4087 C4091 1.400 . S
C4088 H4073 0.960 . S
C4088 H4074 0.960 . S
C4088 H4075 0.960 . S
C4088 C4087 1.524 . S
C4089 C4086 1.403 . S
C4089 C4090 1.392 . S
C4089 C4093 1.495 . S
C4090 C4089 1.392 . S
C4090 C4091 1.385 . S
C4090 C4092 1.478 . S
C4091 H4085 0.930 . S
C4091 C4087 1.400 . S
C4091 C4090 1.385 . S
C4092 C4090 1.478 . S
C4092 C4094 1.381 . S
C4092 C4098 1.383 . S
C4093 C4089 1.495 . S
C4093 H4099 0.959 . S
C4093 H4100 0.961 . S
C4093 H4101 0.960 . S
C4094 C4092 1.381 . S
C4094 C4095 1.394 . S
C4094 H4102 0.930 . S
C4095 C4094 1.394 . S
C4095 C4096 1.383 . S
C4095 H4103 0.929 . S
C4096 C4095 1.383 . S
C4096 C4097 1.377 . S
C4097 H4081 0.930 . S
C4097 C4096 1.377 . S
C4097 C4098 1.379 . S
C4098 H4082 0.931 . S
C4098 C4092 1.383 . S
C4098 C4097 1.379 . S
H4099 C4093 0.959 . S
H4100 C4093 0.961 . S
H4101 C4093 0.960 . S
H4102 C4094 0.930 . S
H4103 C4095 0.929 . S
H4104 C4112 0.929 . S
H4105 C4114 0.930 . S
H4106 C4116 0.930 . S
H4107 C4119 0.929 . S
H4108 C4122 0.930 . S
H4109 C4124 0.960 . S
H4110 C4124 0.960 . S
H4111 C4124 0.960 . S
C4112 H4104 0.929 . S
C4112 C4113 1.377 . S
C4112 C4114 1.384 . S
C4113 C4112 1.377 . S
C4113 C4119 1.390 . S
C4114 H4105 0.930 . S
C4114 C4112 1.384 . S
C4114 C4115 1.372 . S
C4115 C4114 1.372 . S
C4115 C4116 1.400 . S
C4115 C4120 1.490 . S
C4116 H4106 0.930 . S
C4116 C4115 1.400 . S
C4116 C4119 1.386 . S
H4117 C4133 0.930 . S
H4118 C4134 0.931 . S
C4119 H4107 0.929 . S
C4119 C4113 1.390 . S
C4119 C4116 1.386 . S
C4120 C4115 1.490 . S
C4120 C4122 1.395 . S
C4120 C4123 1.403 . S
H4121 C4127 0.930 . S
C4122 H4108 0.930 . S
C4122 C4120 1.395 . S
C4122 C4125 1.403 . S
C4123 C4120 1.403 . S
C4123 C4124 1.524 . S
C4123 C4127 1.400 . S
C4124 H4109 0.960 . S
C4124 H4110 0.960 . S
C4124 H4111 0.960 . S
C4124 C4123 1.524 . S
C4125 C4122 1.403 . S
C4125 C4126 1.392 . S
C4125 C4129 1.495 . S
C4126 C4125 1.392 . S
C4126 C4127 1.385 . S
C4126 C4128 1.478 . S
C4127 H4121 0.930 . S
C4127 C4123 1.400 . S
C4127 C4126 1.385 . S
C4128 C4126 1.478 . S
C4128 C4130 1.381 . S
C4128 C4134 1.383 . S
C4129 C4125 1.495 . S
C4129 H4135 0.959 . S
C4129 H4136 0.961 . S
C4129 H4137 0.960 . S
C4130 C4128 1.381 . S
C4130 C4131 1.394 . S
C4130 H4138 0.930 . S
C4131 C4130 1.394 . S
C4131 C4132 1.383 . S
C4131 H4139 0.929 . S
C4132 C4131 1.383 . S
C4132 C4133 1.377 . S
C4133 H4117 0.930 . S
C4133 C4132 1.377 . S
C4133 C4134 1.379 . S
C4134 H4118 0.931 . S
C4134 C4128 1.383 . S
C4134 C4133 1.379 . S
H4135 C4129 0.959 . S
H4136 C4129 0.961 . S
H4137 C4129 0.960 . S
H4138 C4130 0.930 . S
H4139 C4131 0.929 . S
H4140 C4148 0.929 . S
H4141 C4150 0.930 . S
H4142 C4152 0.930 . S
H4143 C4155 0.929 . S
H4144 C4158 0.930 . S
H4145 C4160 0.960 . S
H4146 C4160 0.960 . S
H4147 C4160 0.960 . S
C4148 H4140 0.929 . S
C4148 C4149 1.377 . S
C4148 C4150 1.384 . S
C4149 C4148 1.377 . S
C4149 C4155 1.390 . S
C4150 H4141 0.930 . S
C4150 C4148 1.384 . S
C4150 C4151 1.372 . S
C4151 C4150 1.372 . S
C4151 C4152 1.400 . S
C4151 C4156 1.490 . S
C4152 H4142 0.930 . S
C4152 C4151 1.400 . S
C4152 C4155 1.386 . S
H4153 C4169 0.930 . S
H4154 C4170 0.931 . S
C4155 H4143 0.929 . S
C4155 C4149 1.390 . S
C4155 C4152 1.386 . S
C4156 C4151 1.490 . S
C4156 C4158 1.395 . S
C4156 C4159 1.403 . S
H4157 C4163 0.930 . S
C4158 H4144 0.930 . S
C4158 C4156 1.395 . S
C4158 C4161 1.403 . S
C4159 C4156 1.403 . S
C4159 C4160 1.524 . S
C4159 C4163 1.400 . S
C4160 H4145 0.960 . S
C4160 H4146 0.960 . S
C4160 H4147 0.960 . S
C4160 C4159 1.524 . S
C4161 C4158 1.403 . S
C4161 C4162 1.392 . S
C4161 C4165 1.495 . S
C4162 C4161 1.392 . S
C4162 C4163 1.385 . S
C4162 C4164 1.478 . S
C4163 H4157 0.930 . S
C4163 C4159 1.400 . S
C4163 C4162 1.385 . S
C4164 C4162 1.478 . S
C4164 C4166 1.381 . S
C4164 C4170 1.383 . S
C4165 C4161 1.495 . S
C4165 H4171 0.959 . S
C4165 H4172 0.961 . S
C4165 H4173 0.960 . S
C4166 C4164 1.381 . S
C4166 C4167 1.394 . S
C4166 H4174 0.930 . S
C4167 C4166 1.394 . S
C4167 C4168 1.383 . S
C4167 H4175 0.929 . S
C4168 C4167 1.383 . S
C4168 C4169 1.377 . S
C4169 H4153 0.930 . S
C4169 C4168 1.377 . S
C4169 C4170 1.379 . S
C4170 H4154 0.931 . S
C4170 C4164 1.383 . S
C4170 C4169 1.379 . S
H4171 C4165 0.959 . S
H4172 C4165 0.961 . S
H4173 C4165 0.960 . S
H4174 C4166 0.930 . S
H4175 C4167 0.929 . S
H4176 C4184 0.929 . S
H4177 C4186 0.930 . S
H4178 C4188 0.930 . S
H4179 C4191 0.929 . S
H4180 C4194 0.930 . S
H4181 C4196 0.960 . S
H4182 C4196 0.960 . S
H4183 C4196 0.960 . S
C4184 H4176 0.929 . S
C4184 C4185 1.377 . S
C4184 C4186 1.384 . S
C4185 C4184 1.377 . S
C4185 C4191 1.390 . S
C4186 H4177 0.930 . S
C4186 C4184 1.384 . S
C4186 C4187 1.372 . S
C4187 C4186 1.372 . S
C4187 C4188 1.400 . S
C4187 C4192 1.490 . S
C4188 H4178 0.930 . S
C4188 C4187 1.400 . S
C4188 C4191 1.386 . S
H4189 C4205 0.930 . S
H4190 C4206 0.931 . S
C4191 H4179 0.929 . S
C4191 C4185 1.390 . S
C4191 C4188 1.386 . S
C4192 C4187 1.490 . S
C4192 C4194 1.395 . S
C4192 C4195 1.403 . S
H4193 C4199 0.930 . S
C4194 H4180 0.930 . S
C4194 C4192 1.395 . S
C4194 C4197 1.403 . S
C4195 C4192 1.403 . S
C4195 C4196 1.524 . S
C4195 C4199 1.400 . S
C4196 H4181 0.960 . S
C4196 H4182 0.960 . S
C4196 H4183 0.960 . S
C4196 C4195 1.524 . S
C4197 C4194 1.403 . S
C4197 C4198 1.392 . S
C4197 C4201 1.495 . S
C4198 C4197 1.392 . S
C4198 C4199 1.385 . S
C4198 C4200 1.478 . S
C4199 H4193 0.930 . S
C4199 C4195 1.400 . S
C4199 C4198 1.385 . S
C4200 C4198 1.478 . S
C4200 C4202 1.381 . S
C4200 C4206 1.383 . S
C4201 C4197 1.495 . S
C4201 H4207 0.959 . S
C4201 H4208 0.961 . S
C4201 H4209 0.960 . S
C4202 C4200 1.381 . S
C4202 C4203 1.394 . S
C4202 H4210 0.930 . S
C4203 C4202 1.394 . S
C4203 C4204 1.383 . S
C4203 H4211 0.929 . S
C4204 C4203 1.383 . S
C4204 C4205 1.377 . S
C4205 H4189 0.930 . S
C4205 C4204 1.377 . S
C4205 C4206 1.379 . S
C4206 H4190 0.931 . S
C4206 C4200 1.383 . S
C4206 C4205 1.379 . S
H4207 C4201 0.959 . S
H4208 C4201 0.961 . S
H4209 C4201 0.960 . S
H4210 C4202 0.930 . S
H4211 C4203 0.929 . S
H4212 C4220 0.929 . S
H4213 C4222 0.930 . S
H4214 C4224 0.930 . S
H4215 C4227 0.929 . S
H4216 C4230 0.930 . S
H4217 C4232 0.960 . S
H4218 C4232 0.960 . S
H4219 C4232 0.960 . S
C4220 H4212 0.929 . S
C4220 C4221 1.377 . S
C4220 C4222 1.384 . S
C4221 C4220 1.377 . S
C4221 C4227 1.390 . S
C4222 H4213 0.930 . S
C4222 C4220 1.384 . S
C4222 C4223 1.372 . S
C4223 C4222 1.372 . S
C4223 C4224 1.400 . S
C4223 C4228 1.490 . S
C4224 H4214 0.930 . S
C4224 C4223 1.400 . S
C4224 C4227 1.386 . S
H4225 C4241 0.930 . S
H4226 C4242 0.931 . S
C4227 H4215 0.929 . S
C4227 C4221 1.390 . S
C4227 C4224 1.386 . S
C4228 C4223 1.490 . S
C4228 C4230 1.395 . S
C4228 C4231 1.403 . S
H4229 C4235 0.930 . S
C4230 H4216 0.930 . S
C4230 C4228 1.395 . S
C4230 C4233 1.403 . S
C4231 C4228 1.403 . S
C4231 C4232 1.524 . S
C4231 C4235 1.400 . S
C4232 H4217 0.960 . S
C4232 H4218 0.960 . S
C4232 H4219 0.960 . S
C4232 C4231 1.524 . S
C4233 C4230 1.403 . S
C4233 C4234 1.392 . S
C4233 C4237 1.495 . S
C4234 C4233 1.392 . S
C4234 C4235 1.385 . S
C4234 C4236 1.478 . S
C4235 H4229 0.930 . S
C4235 C4231 1.400 . S
C4235 C4234 1.385 . S
C4236 C4234 1.478 . S
C4236 C4238 1.381 . S
C4236 C4242 1.383 . S
C4237 C4233 1.495 . S
C4237 H4243 0.959 . S
C4237 H4244 0.961 . S
C4237 H4245 0.960 . S
C4238 C4236 1.381 . S
C4238 C4239 1.394 . S
C4238 H4246 0.930 . S
C4239 C4238 1.394 . S
C4239 C4240 1.383 . S
C4239 H4247 0.929 . S
C4240 C4239 1.383 . S
C4240 C4241 1.377 . S
C4241 H4225 0.930 . S
C4241 C4240 1.377 . S
C4241 C4242 1.379 . S
C4242 H4226 0.931 . S
C4242 C4236 1.383 . S
C4242 C4241 1.379 . S
H4243 C4237 0.959 . S
H4244 C4237 0.961 . S
H4245 C4237 0.960 . S
H4246 C4238 0.930 . S
H4247 C4239 0.929 . S
H4248 C4256 0.929 . S
H4249 C4258 0.930 . S
H4250 C4260 0.930 . S
H4251 C4263 0.929 . S
H4252 C4266 0.930 . S
H4253 C4268 0.960 . S
H4254 C4268 0.960 . S
H4255 C4268 0.960 . S
C4256 H4248 0.929 . S
C4256 C4257 1.377 . S
C4256 C4258 1.384 . S
C4257 C4256 1.377 . S
C4257 C4263 1.390 . S
C4258 H4249 0.930 . S
C4258 C4256 1.384 . S
C4258 C4259 1.372 . S
C4259 C4258 1.372 . S
C4259 C4260 1.400 . S
C4259 C4264 1.490 . S
C4260 H4250 0.930 . S
C4260 C4259 1.400 . S
C4260 C4263 1.386 . S
H4261 C4277 0.930 . S
H4262 C4278 0.931 . S
C4263 H4251 0.929 . S
C4263 C4257 1.390 . S
C4263 C4260 1.386 . S
C4264 C4259 1.490 . S
C4264 C4266 1.395 . S
C4264 C4267 1.403 . S
H4265 C4271 0.930 . S
C4266 H4252 0.930 . S
C4266 C4264 1.395 . S
C4266 C4269 1.403 . S
C4267 C4264 1.403 . S
C4267 C4268 1.524 . S
C4267 C4271 1.400 . S
C4268 H4253 0.960 . S
C4268 H4254 0.960 . S
C4268 H4255 0.960 . S
C4268 C4267 1.524 . S
C4269 C4266 1.403 . S
C4269 C4270 1.392 . S
C4269 C4273 1.495 . S
C4270 C4269 1.392 . S
C4270 C4271 1.385 . S
C4270 C4272 1.478 . S
C4271 H4265 0.930 . S
C4271 C4267 1.400 . S
C4271 C4270 1.385 . S
C4272 C4270 1.478 . S
C4272 C4274 1.381 . S
C4272 C4278 1.383 . S
C4273 C4269 1.495 . S
C4273 H4279 0.959 . S
C4273 H4280 0.961 . S
C4273 H4281 0.960 . S
C4274 C4272 1.381 . S
C4274 C4275 1.394 . S
C4274 H4282 0.930 . S
C4275 C4274 1.394 . S
C4275 C4276 1.383 . S
C4275 H4283 0.929 . S
C4276 C4275 1.383 . S
C4276 C4277 1.377 . S
C4277 H4261 0.930 . S
C4277 C4276 1.377 . S
C4277 C4278 1.379 . S
C4278 H4262 0.931 . S
C4278 C4272 1.383 . S
C4278 C4277 1.379 . S
H4279 C4273 0.959 . S
H4280 C4273 0.961 . S
H4281 C4273 0.960 . S
H4282 C4274 0.930 . S
H4283 C4275 0.929 . S
H4284 C4292 0.929 . S
H4285 C4294 0.930 . S
H4286 C4296 0.930 . S
H4287 C4299 0.929 . S
H4288 C4302 0.930 . S
H4289 C4304 0.960 . S
H4290 C4304 0.960 . S
H4291 C4304 0.960 . S
C4292 H4284 0.929 . S
C4292 C4293 1.377 . S
C4292 C4294 1.384 . S
C4293 C4292 1.377 . S
C4293 C4299 1.390 . S
C4294 H4285 0.930 . S
C4294 C4292 1.384 . S
C4294 C4295 1.372 . S
C4295 C4294 1.372 . S
C4295 C4296 1.400 . S
C4295 C4300 1.490 . S
C4296 H4286 0.930 . S
C4296 C4295 1.400 . S
C4296 C4299 1.386 . S
H4297 C4313 0.930 . S
H4298 C4314 0.931 . S
C4299 H4287 0.929 . S
C4299 C4293 1.390 . S
C4299 C4296 1.386 . S
C4300 C4295 1.490 . S
C4300 C4302 1.395 . S
C4300 C4303 1.403 . S
H4301 C4307 0.930 . S
C4302 H4288 0.930 . S
C4302 C4300 1.395 . S
C4302 C4305 1.403 . S
C4303 C4300 1.403 . S
C4303 C4304 1.524 . S
C4303 C4307 1.400 . S
C4304 H4289 0.960 . S
C4304 H4290 0.960 . S
C4304 H4291 0.960 . S
C4304 C4303 1.524 . S
C4305 C4302 1.403 . S
C4305 C4306 1.392 . S
C4305 C4309 1.495 . S
C4306 C4305 1.392 . S
C4306 C4307 1.385 . S
C4306 C4308 1.478 . S
C4307 H4301 0.930 . S
C4307 C4303 1.400 . S
C4307 C4306 1.385 . S
C4308 C4306 1.478 . S
C4308 C4310 1.381 . S
C4308 C4314 1.383 . S
C4309 C4305 1.495 . S
C4309 H4315 0.959 . S
C4309 H4316 0.961 . S
C4309 H4317 0.960 . S
C4310 C4308 1.381 . S
C4310 C4311 1.394 . S
C4310 H4318 0.930 . S
C4311 C4310 1.394 . S
C4311 C4312 1.383 . S
C4311 H4319 0.929 . S
C4312 C4311 1.383 . S
C4312 C4313 1.377 . S
C4313 H4297 0.930 . S
C4313 C4312 1.377 . S
C4313 C4314 1.379 . S
C4314 H4298 0.931 . S
C4314 C4308 1.383 . S
C4314 C4313 1.379 . S
H4315 C4309 0.959 . S
H4316 C4309 0.961 . S
H4317 C4309 0.960 . S
H4318 C4310 0.930 . S
H4319 C4311 0.929 . S
H4320 C4328 0.929 . S
H4321 C4330 0.930 . S
H4322 C4332 0.930 . S
H4323 C4335 0.929 . S
H4324 C4338 0.930 . S
H4325 C4340 0.960 . S
H4326 C4340 0.960 . S
H4327 C4340 0.960 . S
C4328 H4320 0.929 . S
C4328 C4329 1.377 . S
C4328 C4330 1.384 . S
C4329 C4328 1.377 . S
C4329 C4335 1.390 . S
C4330 H4321 0.930 . S
C4330 C4328 1.384 . S
C4330 C4331 1.372 . S
C4331 C4330 1.372 . S
C4331 C4332 1.400 . S
C4331 C4336 1.490 . S
C4332 H4322 0.930 . S
C4332 C4331 1.400 . S
C4332 C4335 1.386 . S
H4333 C4349 0.930 . S
H4334 C4350 0.931 . S
C4335 H4323 0.929 . S
C4335 C4329 1.390 . S
C4335 C4332 1.386 . S
C4336 C4331 1.490 . S
C4336 C4338 1.395 . S
C4336 C4339 1.403 . S
H4337 C4343 0.930 . S
C4338 H4324 0.930 . S
C4338 C4336 1.395 . S
C4338 C4341 1.403 . S
C4339 C4336 1.403 . S
C4339 C4340 1.524 . S
C4339 C4343 1.400 . S
C4340 H4325 0.960 . S
C4340 H4326 0.960 . S
C4340 H4327 0.960 . S
C4340 C4339 1.524 . S
C4341 C4338 1.403 . S
C4341 C4342 1.392 . S
C4341 C4345 1.495 . S
C4342 C4341 1.392 . S
C4342 C4343 1.385 . S
C4342 C4344 1.478 . S
C4343 H4337 0.930 . S
C4343 C4339 1.400 . S
C4343 C4342 1.385 . S
C4344 C4342 1.478 . S
C4344 C4346 1.381 . S
C4344 C4350 1.383 . S
C4345 C4341 1.495 . S
C4345 H4351 0.959 . S
C4345 H4352 0.961 . S
C4345 H4353 0.960 . S
C4346 C4344 1.381 . S
C4346 C4347 1.394 . S
C4346 H4354 0.930 . S
C4347 C4346 1.394 . S
C4347 C4348 1.383 . S
C4347 H4355 0.929 . S
C4348 C4347 1.383 . S
C4348 C4349 1.377 . S
C4349 H4333 0.930 . S
C4349 C4348 1.377 . S
C4349 C4350 1.379 . S
C4350 H4334 0.931 . S
C4350 C4344 1.383 . S
C4350 C4349 1.379 . S
H4351 C4345 0.959 . S
H4352 C4345 0.961 . S
H4353 C4345 0.960 . S
H4354 C4346 0.930 . S
H4355 C4347 0.929 . S
H4356 C4364 0.929 . S
H4357 C4366 0.930 . S
H4358 C4368 0.930 . S
H4359 C4371 0.929 . S
H4360 C4374 0.930 . S
H4361 C4376 0.960 . S
H4362 C4376 0.960 . S
H4363 C4376 0.960 . S
C4364 H4356 0.929 . S
C4364 C4365 1.377 . S
C4364 C4366 1.384 . S
C4365 C4364 1.377 . S
C4365 C4371 1.390 . S
C4366 H4357 0.930 . S
C4366 C4364 1.384 . S
C4366 C4367 1.372 . S
C4367 C4366 1.372 . S
C4367 C4368 1.400 . S
C4367 C4372 1.490 . S
C4368 H4358 0.930 . S
C4368 C4367 1.400 . S
C4368 C4371 1.386 . S
H4369 C4385 0.930 . S
H4370 C4386 0.931 . S
C4371 H4359 0.929 . S
C4371 C4365 1.390 . S
C4371 C4368 1.386 . S
C4372 C4367 1.490 . S
C4372 C4374 1.395 . S
C4372 C4375 1.403 . S
H4373 C4379 0.930 . S
C4374 H4360 0.930 . S
C4374 C4372 1.395 . S
C4374 C4377 1.403 . S
C4375 C4372 1.403 . S
C4375 C4376 1.524 . S
C4375 C4379 1.400 . S
C4376 H4361 0.960 . S
C4376 H4362 0.960 . S
C4376 H4363 0.960 . S
C4376 C4375 1.524 . S
C4377 C4374 1.403 . S
C4377 C4378 1.392 . S
C4377 C4381 1.495 . S
C4378 C4377 1.392 . S
C4378 C4379 1.385 . S
C4378 C4380 1.478 . S
C4379 H4373 0.930 . S
C4379 C4375 1.400 . S
C4379 C4378 1.385 . S
C4380 C4378 1.478 . S
C4380 C4382 1.381 . S
C4380 C4386 1.383 . S
C4381 C4377 1.495 . S
C4381 H4387 0.959 . S
C4381 H4388 0.961 . S
C4381 H4389 0.960 . S
C4382 C4380 1.381 . S
C4382 C4383 1.394 . S
C4382 H4390 0.930 . S
C4383 C4382 1.394 . S
C4383 C4384 1.383 . S
C4383 H4391 0.929 . S
C4384 C4383 1.383 . S
C4384 C4385 1.377 . S
C4385 H4369 0.930 . S
C4385 C4384 1.377 . S
C4385 C4386 1.379 . S
C4386 H4370 0.931 . S
C4386 C4380 1.383 . S
C4386 C4385 1.379 . S
H4387 C4381 0.959 . S
H4388 C4381 0.961 . S
H4389 C4381 0.960 . S
H4390 C4382 0.930 . S
H4391 C4383 0.929 . S
H4392 C4400 0.929 . S
H4393 C4402 0.930 . S
H4394 C4404 0.930 . S
H4395 C4407 0.929 . S
H4396 C4410 0.930 . S
H4397 C4412 0.960 . S
H4398 C4412 0.960 . S
H4399 C4412 0.960 . S
C4400 H4392 0.929 . S
C4400 C4401 1.377 . S
C4400 C4402 1.384 . S
C4401 C4400 1.377 . S
C4401 C4407 1.390 . S
C4402 H4393 0.930 . S
C4402 C4400 1.384 . S
C4402 C4403 1.372 . S
C4403 C4402 1.372 . S
C4403 C4404 1.400 . S
C4403 C4408 1.490 . S
C4404 H4394 0.930 . S
C4404 C4403 1.400 . S
C4404 C4407 1.386 . S
H4405 C4421 0.930 . S
H4406 C4422 0.931 . S
C4407 H4395 0.929 . S
C4407 C4401 1.390 . S
C4407 C4404 1.386 . S
C4408 C4403 1.490 . S
C4408 C4410 1.395 . S
C4408 C4411 1.403 . S
H4409 C4415 0.930 . S
C4410 H4396 0.930 . S
C4410 C4408 1.395 . S
C4410 C4413 1.403 . S
C4411 C4408 1.403 . S
C4411 C4412 1.524 . S
C4411 C4415 1.400 . S
C4412 H4397 0.960 . S
C4412 H4398 0.960 . S
C4412 H4399 0.960 . S
C4412 C4411 1.524 . S
C4413 C4410 1.403 . S
C4413 C4414 1.392 . S
C4413 C4417 1.495 . S
C4414 C4413 1.392 . S
C4414 C4415 1.385 . S
C4414 C4416 1.478 . S
C4415 H4409 0.930 . S
C4415 C4411 1.400 . S
C4415 C4414 1.385 . S
C4416 C4414 1.478 . S
C4416 C4418 1.381 . S
C4416 C4422 1.383 . S
C4417 C4413 1.495 . S
C4417 H4423 0.959 . S
C4417 H4424 0.961 . S
C4417 H4425 0.960 . S
C4418 C4416 1.381 . S
C4418 C4419 1.394 . S
C4418 H4426 0.930 . S
C4419 C4418 1.394 . S
C4419 C4420 1.383 . S
C4419 H4427 0.929 . S
C4420 C4419 1.383 . S
C4420 C4421 1.377 . S
C4421 H4405 0.930 . S
C4421 C4420 1.377 . S
C4421 C4422 1.379 . S
C4422 H4406 0.931 . S
C4422 C4416 1.383 . S
C4422 C4421 1.379 . S
H4423 C4417 0.959 . S
H4424 C4417 0.961 . S
H4425 C4417 0.960 . S
H4426 C4418 0.930 . S
H4427 C4419 0.929 . S
C1197 C120 0.239 . S
C1216 C21 0.310 . S
C1233 C54 0.275 . S
C1252 C153 0.304 . S
C1269 C186 0.271 . S
C1288 C87 0.232 . S
C1305 C318 0.275 . S
C1324 C219 0.160 . S
C1341 C252 0.258 . S
C1360 C351 0.294 . S
C1377 C384 0.270 . S
C1396 C285 0.172 . S
C1413 C516 0.275 . S
C1432 C417 0.277 . S
C1449 C450 0.274 . S
C1468 C549 0.325 . S
C1485 C582 0.235 . S
C1504 C483 0.228 . S
C1521 C615 0.262 . S
C1540 C714 0.213 . S
C1557 C648 0.274 . S
C1576 C747 0.194 . S
C1593 C780 0.265 . S
C1612 C681 0.198 . S
C1629 C912 0.275 . S
C1648 C813 0.274 . S
C1665 C945 0.236 . S
C1684 C846 0.291 . S
C1701 C978 0.268 . S
C1720 C879 0.211 . S
C1737 C1110 0.237 . S
C1756 C1011 0.353 . S
C1773 C1044 0.234 . S
C1792 C1143 0.351 . S
C1809 C1176 0.234 . S
C1828 C1077 0.345 . S
C1845 C7 1.635 . S
C1864 C964 1.612 . S
C1881 C898 1.633 . S
C1900 C40 1.627 . S
C1917 C73 1.627 . S
C1936 C931 1.644 . S
C1953 C436 1.627 . S
C1972 C106 1.631 . S
C1989 C139 1.627 . S
C2008 C469 1.637 . S
C2025 C403 1.626 . S
C2044 C172 1.646 . S
C2061 C766 1.635 . S
C2080 C205 1.647 . S
C2097 C700 1.634 . S
C2116 C238 1.643 . S
C2133 C733 1.632 . S
C2152 C271 1.637 . S
C2169 C304 1.632 . S
C2188 C1030 1.639 . S
C2205 C1063 1.635 . S
C2224 C337 1.647 . S
C2241 C370 1.631 . S
C2260 C997 1.638 . S
C2277 C832 1.626 . S
C2296 C502 1.638 . S
C2313 C865 1.627 . S
C2332 C535 1.641 . S
C2349 C799 1.630 . S
C2368 C568 1.642 . S
C2385 C601 1.629 . S
C2404 C1162 1.625 . S
C2421 C634 1.633 . S
C2440 C1096 1.632 . S
C2457 C1129 1.634 . S
C2476 C667 1.647 . S
C2493 N13 1.194 . S
C2512 N607 1.189 . S
C2529 N640 1.185 . S
C2548 N46 1.190 . S
C2565 N79 1.193 . S
C2584 N673 1.205 . S
C2601 N1102 1.189 . S
C2620 N112 1.166 . S
C2637 N145 1.184 . S
C2656 N1135 1.172 . S
C2673 N1168 1.189 . S
C2692 N178 1.207 . S
C2709 N211 1.193 . S
C2728 N805 1.208 . S
C2745 N244 1.187 . S
C2764 N838 1.199 . S
C2781 N277 1.188 . S
C2800 N871 1.164 . S
C2817 N508 1.185 . S
C2836 N310 1.169 . S
C2853 N541 1.186 . S
C2872 N343 1.197 . S
C2889 N376 1.185 . S
C2908 N574 1.166 . S
C2925 N409 1.193 . S
C2944 N1003 1.183 . S
C2961 N1036 1.185 . S
C2980 N442 1.170 . S
C2997 N475 1.186 . S
C3016 N1069 1.163 . S
C3033 N904 1.189 . S
C3052 N706 1.166 . S
C3069 N739 1.192 . S
C3088 N937 1.210 . S
C3105 N970 1.186 . S
C3124 N772 1.164 . S
C3141 N233 1.570 . S
C3160 C18 1.630 . S
C3177 C51 1.631 . S
C3196 N266 1.582 . S
C3213 C84 1.632 . S
C3232 N200 1.586 . S
C3249 C117 1.631 . S
C3268 N365 1.556 . S
C3285 C150 1.632 . S
C3304 N299 1.581 . S
C3321 C183 1.631 . S
C3340 N332 1.540 . S
C3357 N35 1.566 . S
C3376 C216 1.631 . S
C3393 N68 1.562 . S
C3412 C249 1.624 . S
C3429 N2 1.570 . S
C3448 C282 1.628 . S
C3465 C315 1.632 . S
C3484 N167 1.551 . S
C3501 C348 1.631 . S
C3520 N101 1.584 . S
C3537 C381 1.631 . S
C3556 N134 1.535 . S
C3573 C414 1.630 . S
C3592 N629 1.550 . S
C3609 N662 1.565 . S
C3628 C447 1.630 . S
C3645 N596 1.569 . S
C3664 C480 1.631 . S
C3681 C513 1.632 . S
C3700 N761 1.587 . S
C3717 N695 1.562 . S
C3736 C546 1.624 . S
C3753 N728 1.567 . S
C3772 C579 1.631 . S
C3789 C612 1.631 . S
C3808 N431 1.587 . S
C3825 C645 1.630 . S
C3844 N464 1.583 . S
C3861 N398 1.567 . S
C3880 C678 1.625 . S
C3897 N563 1.563 . S
C3916 C711 1.631 . S
C3933 N497 1.560 . S
C3952 C744 1.629 . S
C3969 N530 1.567 . S
C3988 C777 1.625 . S
C4005 C810 1.631 . S
C4024 N1025 1.564 . S
C4041 N1058 1.565 . S
C4060 C843 1.630 . S
C4077 N992 1.559 . S
C4096 C876 1.625 . S
C4113 C909 1.630 . S
C4132 N1157 1.544 . S
C4149 C942 1.631 . S
C4168 N1091 1.537 . S
C4185 C975 1.630 . S
C4204 N1124 1.556 . S
C4221 N827 1.565 . S
C4240 C1008 1.624 . S
C4257 N860 1.562 . S
C4276 C1041 1.630 . S
C4293 C1074 1.630 . S
C4312 N794 1.566 . S
C4329 C1107 1.631 . S
C4348 N959 1.579 . S
C4365 C1140 1.630 . S
C4384 N893 1.558 . S
C4401 C1173 1.631 . S
C4420 N926 1.584 . S
