# Generated by pormake.
# Topology ukg, (4)-cn, num edge types: 1
# Building blocks:
#     Node 0, Type 0, BuildingBlock: GALJAG_clean_sbu_0, # of connection points: 4
#     Node 1, Type 0, BuildingBlock: GALJAG_clean_sbu_0, # of connection points: 4
#     Node 2, Type 0, BuildingBlock: GALJAG_clean_sbu_0, # of connection points: 4
#     Node 3, Type 0, BuildingBlock: GALJAG_clean_sbu_0, # of connection points: 4
#     Node 4, Type 0, BuildingBlock: GALJAG_clean_sbu_0, # of connection points: 4
#     Node 5, Type 0, BuildingBlock: GALJAG_clean_sbu_0, # of connection points: 4
#     Node 6, Type 0, BuildingBlock: GALJAG_clean_sbu_0, # of connection points: 4
#     Node 7, Type 0, BuildingBlock: GALJAG_clean_sbu_0, # of connection points: 4
#     Edge 8, Type (0, 0), BuildingBlock: FUNLAD_clean_linker_1, # of connection points: 2
#     Edge 9, Type (0, 0), BuildingBlock: FUNLAD_clean_linker_1, # of connection points: 2
#     Edge 10, Type (0, 0), BuildingBlock: FUNLAD_clean_linker_1, # of connection points: 2
#     Edge 11, Type (0, 0), BuildingBlock: FUNLAD_clean_linker_1, # of connection points: 2
#     Edge 12, Type (0, 0), BuildingBlock: FUNLAD_clean_linker_1, # of connection points: 2
#     Edge 13, Type (0, 0), BuildingBlock: FUNLAD_clean_linker_1, # of connection points: 2
#     Edge 14, Type (0, 0), BuildingBlock: FUNLAD_clean_linker_1, # of connection points: 2
#     Edge 15, Type (0, 0), BuildingBlock: FUNLAD_clean_linker_1, # of connection points: 2
#     Edge 16, Type (0, 0), BuildingBlock: FUNLAD_clean_linker_1, # of connection points: 2
#     Edge 17, Type (0, 0), BuildingBlock: FUNLAD_clean_linker_1, # of connection points: 2
#     Edge 18, Type (0, 0), BuildingBlock: FUNLAD_clean_linker_1, # of connection points: 2
#     Edge 19, Type (0, 0), BuildingBlock: FUNLAD_clean_linker_1, # of connection points: 2
#     Edge 20, Type (0, 0), BuildingBlock: FUNLAD_clean_linker_1, # of connection points: 2
#     Edge 21, Type (0, 0), BuildingBlock: FUNLAD_clean_linker_1, # of connection points: 2
#     Edge 22, Type (0, 0), BuildingBlock: FUNLAD_clean_linker_1, # of connection points: 2
#     Edge 23, Type (0, 0), BuildingBlock: FUNLAD_clean_linker_1, # of connection points: 2
# Relax obj value: 0.111
# Max RMSD: 0.188
# Mean RMSD: 0.187
data_MOF--net-ukg--node1-GALJAG_clean_sbu_0--edge1-FUNLAD_clean_linker_1
_symmetry_space_group_name_H-M    P1
_symmetry_Int_Tables_number       1
_symmetry_cell_setting            triclinic
loop_
_symmetry_equiv_pos_as_xyz
'x, y, z'
_cell_length_a     31.105454
_cell_length_b     31.089566
_cell_length_c     40.665746
_cell_angle_alpha  90.06187
_cell_angle_beta   89.932374
_cell_angle_gamma 89.997626
loop_
_atom_site_label
_atom_site_type_symbol
_atom_site_fract_x
_atom_site_fract_y
_atom_site_fract_z
_atom_type_partial_charge
In0 In 0.00355 0.6742 0.1364 0.0
O1 O 0.986 0.65815 0.08311 0.0
O2 O 0.00585 0.60695 0.11422 0.0
C3 C 0.96418 0.75092 0.14186 0.0
C4 C 0.08788 0.69078 0.1315 0.0
C5 C 0.96878 0.64479 0.19279 0.0
O6 O 0.94789 0.72052 0.12545 0.0
O7 O 0.00069 0.74305 0.15384 0.0
O8 O 0.00758 0.65622 0.19098 0.0
O9 O 0.94843 0.6462 0.16601 0.0
C10 C 0.99374 0.6185 0.086 0.0
O11 O 0.07354 0.66055 0.14908 0.0
O12 O 0.05988 0.71182 0.11586 0.0
In13 In 0.3412 0.50306 0.639 0.0
O14 O 0.33785 0.57155 0.65929 0.0
O15 O 0.29337 0.55309 0.62192 0.0
C16 C 0.38875 0.45926 0.68258 0.0
C17 C 0.39589 0.51166 0.58813 0.0
C18 C 0.26926 0.45713 0.64909 0.0
O19 O 0.37257 0.49549 0.68947 0.0
O20 O 0.38239 0.44627 0.65362 0.0
O21 O 0.28687 0.45843 0.621 0.0
O22 O 0.288 0.4786 0.67114 0.0
C23 C 0.30652 0.58201 0.64118 0.0
O24 O 0.36419 0.48614 0.58699 0.0
O25 O 0.39955 0.53267 0.61451 0.0
In26 In 0.46637 0.85869 0.1584 0.0
O27 O 0.49408 0.87559 0.10759 0.0
O28 O 0.46122 0.92429 0.13458 0.0
C29 C 0.49175 0.7782 0.17189 0.0
C30 C 0.38263 0.84198 0.1497 0.0
C31 C 0.50838 0.89495 0.20896 0.0
O32 O 0.5061 0.79816 0.14703 0.0
O33 O 0.465 0.79863 0.18918 0.0
O34 O 0.46784 0.89554 0.20711 0.0
O35 O 0.52736 0.87722 0.18507 0.0
C36 C 0.48093 0.91408 0.10868 0.0
O37 O 0.39565 0.86758 0.17168 0.0
O38 O 0.41162 0.82578 0.13185 0.0
In39 In 0.16818 0.97566 0.65527 0.0
O40 O 0.17274 0.90542 0.6714 0.0
O41 O 0.21508 0.92756 0.63373 0.0
C42 C 0.14411 0.99892 0.71642 0.0
C43 C 0.10498 0.97306 0.60958 0.0
C44 C 0.23102 0.03552 0.65199 0.0
O45 O 0.17294 0.9711 0.71147 0.0
O46 O 0.12619 0.01295 0.69077 0.0
O47 O 0.19243 0.04517 0.65779 0.0
O48 O 0.23726 0.99637 0.64551 0.0
C49 C 0.20299 0.8968 0.65165 0.0
O50 O 0.13955 0.99341 0.60495 0.0
O51 O 0.10236 0.95433 0.63689 0.0
In52 In 0.9985 0.32065 0.86017 0.0
O53 O 0.93145 0.34078 0.84314 0.0
O54 O 0.93697 0.29006 0.8782 0.0
C55 C 0.04479 0.35773 0.81179 0.0
C56 C 0.00611 0.36821 0.91525 0.0
C57 C 0.02684 0.23974 0.85077 0.0
O58 O 0.00756 0.34299 0.80687 0.0
O59 O 0.05794 0.35495 0.84097 0.0
O60 O 0.04547 0.265 0.87054 0.0
O61 O 0.99424 0.25499 0.83674 0.0
C62 C 0.91262 0.31303 0.86069 0.0
O63 O 0.01621 0.32885 0.9145 0.0
O64 O 0.99266 0.38333 0.88839 0.0
In65 In 0.65261 0.48014 0.33509 0.0
O66 O 0.65769 0.40796 0.32536 0.0
O67 O 0.69929 0.4364 0.36115 0.0
C68 C 0.60987 0.51617 0.28494 0.0
C69 C 0.59494 0.4821 0.38434 0.0
C70 C 0.72608 0.51981 0.31948 0.0
O71 O 0.62034 0.47685 0.28448 0.0
O72 O 0.61924 0.53609 0.31105 0.0
O73 O 0.70541 0.53026 0.34522 0.0
O74 O 0.7098 0.48997 0.30259 0.0
C75 C 0.68785 0.40297 0.34591 0.0
O76 O 0.62827 0.50552 0.38476 0.0
O77 O 0.59101 0.45833 0.35939 0.0
In78 In 0.52719 0.15213 0.8473 0.0
O79 O 0.50691 0.13077 0.89912 0.0
O80 O 0.53599 0.08458 0.86755 0.0
C81 C 0.49253 0.23066 0.84082 0.0
C82 C 0.61051 0.174 0.85151 0.0
C83 C 0.48497 0.11968 0.7952 0.0
O84 O 0.48093 0.20553 0.86363 0.0
O85 O 0.52175 0.21635 0.82223 0.0
O86 O 0.5255 0.12138 0.79614 0.0
O87 O 0.46612 0.13273 0.82082 0.0
C88 C 0.51992 0.09258 0.8953 0.0
O89 O 0.5971 0.14704 0.83069 0.0
O90 O 0.58224 0.18903 0.87059 0.0
In91 In 0.83675 0.01534 0.36466 0.0
O92 O 0.8328 0.08431 0.34613 0.0
O93 O 0.80632 0.07002 0.39334 0.0
C94 C 0.86654 0.97923 0.30884 0.0
C95 C 0.89842 0.00529 0.41076 0.0
C96 C 0.75763 0.98103 0.36064 0.0
O97 O 0.87308 0.01838 0.31541 0.0
O98 O 0.84634 0.9586 0.33054 0.0
O99 O 0.7879 0.96156 0.37514 0.0
O100 O 0.76731 0.01747 0.34926 0.0
C101 C 0.81288 0.09775 0.37126 0.0
O102 O 0.86028 0.99271 0.41547 0.0
O103 O 0.90521 0.02209 0.38313 0.0
H104 H 0.02014 0.37916 0.96792 0.0
C105 C 0.00926 0.39442 0.94539 0.0
H106 H 0.98639 0.45133 0.9232 0.0
H107 H 0.91815 0.53852 0.0526 0.0
H108 H 0.85122 0.51843 0.02624 0.0
H109 H 0.85111 0.47266 0.97665 0.0
H110 H 0.91791 0.44652 0.95324 0.0
C111 C 0.99859 0.43632 0.94544 0.0
C112 C 0.99917 0.46279 0.97596 0.0
C113 C 0.95984 0.47831 0.98909 0.0
C114 C 0.95992 0.50516 0.01743 0.0
C115 C 0.92007 0.51901 0.03061 0.0
C116 C 0.88136 0.50746 0.01586 0.0
C117 C 0.88129 0.48167 0.98796 0.0
C118 C 0.91993 0.46702 0.9747 0.0
H119 H 0.97951 0.60084 0.03455 0.0
C120 C 0.98993 0.58834 0.05818 0.0
H121 H 0.01198 0.53404 0.08439 0.0
H122 H 0.08059 0.44079 0.95605 0.0
H123 H 0.14733 0.46015 0.98287 0.0
H124 H 0.14732 0.50546 0.03269 0.0
H125 H 0.0805 0.53194 0.05584 0.0
C126 C 6e-05 0.54649 0.06116 0.0
C127 C -0.0006 0.51699 0.03231 0.0
C128 C 0.03868 0.5008 0.01959 0.0
C129 C 0.03864 0.47406 0.99116 0.0
C130 C 0.07853 0.46012 0.97811 0.0
C131 C 0.11718 0.47125 0.99314 0.0
C132 C 0.11718 0.4968 0.02116 0.0
C133 C 0.07854 0.51169 0.03424 0.0
H134 H 0.45313 0.53988 0.56481 0.0
C135 C 0.4275 0.51652 0.5614 0.0
H136 H 0.40244 0.46779 0.53075 0.0
H137 H 0.52973 0.57974 0.42999 0.0
H138 H 0.47696 0.6368 0.43551 0.0
H139 H 0.41622 0.62982 0.47421 0.0
H140 H 0.40795 0.56587 0.50771 0.0
C141 C 0.42672 0.49256 0.53396 0.0
C142 C 0.4618 0.49615 0.50914 0.0
C143 C 0.46594 0.53366 0.48953 0.0
C144 C 0.50062 0.53743 0.46684 0.0
C145 C 0.50398 0.57519 0.44756 0.0
C146 C 0.47389 0.60817 0.45045 0.0
C147 C 0.43973 0.60427 0.47228 0.0
C148 C 0.43553 0.56747 0.49154 0.0
H149 H 0.53593 0.45884 0.40811 0.0
C150 C 0.5626 0.4812 0.41079 0.0
H151 H 0.59027 0.52964 0.44047 0.0
H152 H 0.46319 0.42 0.5429 0.0
H153 H 0.5162 0.36321 0.53758 0.0
H154 H 0.57692 0.37026 0.49888 0.0
H155 H 0.58489 0.43404 0.46517 0.0
C156 C 0.56476 0.50605 0.43771 0.0
C157 C 0.53058 0.50339 0.46334 0.0
C158 C 0.52668 0.46606 0.48318 0.0
C159 C 0.49201 0.46227 0.50584 0.0
C160 C 0.48885 0.42459 0.52526 0.0
C161 C 0.51911 0.39175 0.52251 0.0
C162 C 0.55326 0.39569 0.50069 0.0
C163 C 0.55727 0.43238 0.4813 0.0
H164 H 0.47489 0.97786 0.086 0.0
C165 C 0.48673 0.94537 0.08191 0.0
H166 H 0.51471 0.90258 0.04766 0.0
H167 H 0.4431 0.01571 0.92901 0.0
H168 H 0.39911 0.95166 0.9244 0.0
H169 H 0.40349 0.89412 0.96597 0.0
H170 H 0.45177 0.90042 0.01251 0.0
C171 C 0.50434 0.93529 0.05278 0.0
C172 C 0.50567 0.96778 0.02589 0.0
C173 C 0.4782 0.96305 0.99833 0.0
C174 C 0.47624 0.9959 0.97404 0.0
C175 C 0.44694 0.99122 0.94763 0.0
C176 C 0.42121 0.95473 0.94482 0.0
C177 C 0.42362 0.92237 0.96825 0.0
C178 C 0.45154 0.92638 0.99482 0.0
H179 H 0.52976 0.02747 0.91506 0.0
C180 C 0.51758 0.05933 0.921 0.0
H181 H 0.49105 0.09909 0.95791 0.0
H182 H 0.56514 0.98478 0.07376 0.0
H183 H 0.60968 0.04855 0.07821 0.0
H184 H 0.60579 0.10591 0.03644 0.0
H185 H 0.55746 0.09977 0.98992 0.0
C186 C 0.50185 0.06702 0.95117 0.0
C187 C 0.5026 0.03299 0.97695 0.0
C188 C 0.53052 0.03742 0.00429 0.0
C189 C 0.53235 0.00462 0.02861 0.0
C190 C 0.56159 0.00924 0.05506 0.0
C191 C 0.58759 0.04555 0.05779 0.0
C192 C 0.58544 0.07781 0.03425 0.0
C193 C 0.55745 0.0739 0.0077 0.0
H194 H 0.96411 0.01559 0.42888 0.0
C195 C 0.93278 0.00268 0.43552 0.0
H196 H 0.89611 0.97277 0.47287 0.0
H197 H 0.0725 0.90903 0.53892 0.0
H198 H 0.04762 0.84226 0.5147 0.0
H199 H 0.98337 0.84083 0.47921 0.0
H200 H 0.94378 0.90635 0.46753 0.0
C201 C 0.92677 0.98675 0.4658 0.0
C202 C 0.96267 0.98705 0.48998 0.0
C203 C 0.98465 0.94836 0.49738 0.0
C204 C 0.02116 0.94908 0.51843 0.0
C205 C 0.04376 0.91021 0.52403 0.0
C206 C 0.03001 0.87167 0.51005 0.0
C207 C 0.99389 0.87087 0.49002 0.0
C208 C 0.97145 0.9087 0.48354 0.0
H209 H 0.04069 0.95379 0.59246 0.0
C210 C 0.06972 0.97102 0.5855 0.0
H211 H 0.10044 0.0079 0.54881 0.0
H212 H 0.92558 0.06641 0.483 0.0
H213 H 0.95 0.13323 0.50748 0.0
H214 H 0.01342 0.13462 0.54383 0.0
H215 H 0.05274 0.06921 0.55598 0.0
C216 C 0.07216 0.98946 0.55574 0.0
C217 C 0.0349 0.98842 0.53276 0.0
C218 C 0.01262 0.02707 0.52557 0.0
C219 C 0.97629 0.02634 0.50436 0.0
C220 C 0.95394 0.06525 0.49834 0.0
C221 C 0.96745 0.10381 0.51241 0.0
C222 C 0.00312 0.10458 0.5329 0.0
C223 C 0.02547 0.06677 0.5396 0.0
H224 H 0.1565 0.6804 0.14241 0.0
C225 C 0.13361 0.7025 0.13138 0.0
H226 H 0.12398 0.76344 0.10972 0.0
H227 H 0.31126 0.77366 0.19066 0.0
H228 H 0.26974 0.76002 0.23995 0.0
H229 H 0.19159 0.74717 0.23687 0.0
H230 H 0.15497 0.74634 0.18438 0.0
C231 C 0.14673 0.74125 0.12082 0.0
C232 C 0.19237 0.755 0.1234 0.0
C233 C 0.2125 0.75859 0.15461 0.0
C234 C 0.25678 0.76947 0.15663 0.0
C235 C 0.27711 0.76847 0.1878 0.0
C236 C 0.25373 0.76024 0.21633 0.0
C237 C 0.20981 0.75275 0.21458 0.0
C238 C 0.18925 0.75194 0.18418 0.0
H239 H 0.31324 0.8487 0.15971 0.0
C240 C 0.33717 0.82996 0.14648 0.0
H241 H 0.34929 0.77597 0.11633 0.0
H242 H 0.16357 0.75098 0.05981 0.0
H243 H 0.20403 0.76914 0.01077 0.0
H244 H 0.2793 0.7936 0.01461 0.0
H245 H 0.31469 0.79959 0.06748 0.0
C246 C 0.3254 0.79469 0.12963 0.0
C247 C 0.2798 0.78059 0.1277 0.0
C248 C 0.2594 0.77802 0.0966 0.0
C249 C 0.21574 0.76482 0.09443 0.0
C250 C 0.19645 0.76152 0.06297 0.0
C251 C 0.21933 0.77176 0.03458 0.0
C252 C 0.26172 0.78547 0.03674 0.0
C253 C 0.28168 0.78867 0.06729 0.0
H254 H 0.25483 0.62767 0.62991 0.0
C255 C 0.28546 0.62424 0.6425 0.0
H256 H 0.33318 0.65495 0.67085 0.0
H257 H 0.2025 0.80253 0.60106 0.0
H258 H 0.22604 0.77392 0.54859 0.0
H259 H 0.27751 0.71361 0.54603 0.0
H260 H 0.30418 0.68051 0.59593 0.0
C261 C 0.30287 0.65826 0.65783 0.0
C262 C 0.27976 0.70024 0.65915 0.0
C263 C 0.26756 0.72153 0.62972 0.0
C264 C 0.24103 0.75868 0.6312 0.0
C265 C 0.22522 0.77622 0.60141 0.0
C266 C 0.23811 0.75981 0.57109 0.0
C267 C 0.26685 0.7257 0.56965 0.0
C268 C 0.28154 0.70669 0.59852 0.0
H269 H 0.25389 0.8524 0.63597 0.0
C270 C 0.22404 0.85461 0.64982 0.0
H271 H 0.17803 0.82131 0.67814 0.0
H272 H 0.2975 0.66759 0.72029 0.0
H273 H 0.27853 0.69952 0.77268 0.0
H274 H 0.23848 0.76791 0.77524 0.0
H275 H 0.21654 0.8044 0.72542 0.0
C276 C 0.20753 0.81924 0.66388 0.0
C277 C 0.23063 0.7773 0.66211 0.0
C278 C 0.24403 0.75686 0.69154 0.0
C279 C 0.26814 0.71799 0.69006 0.0
C280 C 0.27988 0.69757 0.71986 0.0
C281 C 0.26913 0.71551 0.75017 0.0
C282 C 0.24654 0.75398 0.75162 0.0
C283 C 0.23407 0.77456 0.72276 0.0
H284 H 0.67946 0.1689 0.83956 0.0
C285 C 0.65557 0.18807 0.85247 0.0
H286 H 0.64314 0.24417 0.88014 0.0
H287 H 0.83095 0.272 0.93298 0.0
H288 H 0.79059 0.26105 0.98331 0.0
H289 H 0.71435 0.23935 0.98159 0.0
H290 H 0.6779 0.22899 0.92959 0.0
C291 C 0.66706 0.22496 0.86729 0.0
C292 C 0.71259 0.23961 0.86805 0.0
C293 C 0.73352 0.24495 0.89874 0.0
C294 C 0.77773 0.25643 0.89973 0.0
C295 C 0.79764 0.26242 0.93074 0.0
C296 C 0.77482 0.25638 0.95985 0.0
C297 C 0.73189 0.24424 0.95889 0.0
C298 C 0.71133 0.23849 0.9288 0.0
H299 H 0.84597 0.33006 0.84711 0.0
C300 C 0.86585 0.30636 0.85951 0.0
H301 H 0.86804 0.24684 0.88431 0.0
H302 H 0.67997 0.24222 0.80539 0.0
H303 H 0.72079 0.25 0.75495 0.0
H304 H 0.79943 0.26014 0.75642 0.0
H305 H 0.83732 0.26407 0.80825 0.0
C306 C 0.84811 0.27033 0.87169 0.0
C307 C 0.80116 0.26165 0.87007 0.0
C308 C 0.78013 0.25662 0.83933 0.0
C309 C 0.73538 0.24742 0.83838 0.0
C310 C 0.71436 0.2464 0.80749 0.0
C311 C 0.73735 0.25124 0.77833 0.0
C312 C 0.78156 0.25719 0.77917 0.0
C313 C 0.80288 0.2598 0.8092 0.0
H314 H 0.74301 0.36383 0.36076 0.0
C315 C 0.71077 0.36222 0.35054 0.0
H316 H 0.66134 0.32235 0.3327 0.0
H317 H 0.77596 0.16481 0.29163 0.0
H318 H 0.73957 0.18303 0.24103 0.0
H319 H 0.69478 0.24826 0.2372 0.0
H320 H 0.68533 0.29506 0.28419 0.0
C321 C 0.69354 0.32394 0.34297 0.0
C322 C 0.71933 0.28366 0.34588 0.0
C323 C 0.72564 0.25737 0.31775 0.0
C324 C 0.7528 0.22063 0.31961 0.0
C325 C 0.75682 0.19383 0.29152 0.0
C326 C 0.73595 0.20381 0.26224 0.0
C327 C 0.71067 0.24047 0.2601 0.0
C328 C 0.70547 0.26705 0.28739 0.0
H329 H 0.76859 0.14576 0.39168 0.0
C330 C 0.79318 0.14059 0.37307 0.0
H331 H 0.82596 0.16599 0.33219 0.0
H332 H 0.7059 0.31983 0.40672 0.0
H333 H 0.74643 0.30517 0.45636 0.0
H334 H 0.80354 0.25006 0.45668 0.0
H335 H 0.81884 0.20798 0.40781 0.0
C336 C 0.80195 0.17161 0.35115 0.0
C337 C 0.77503 0.21121 0.34923 0.0
C338 C 0.76952 0.23817 0.37711 0.0
C339 C 0.73966 0.27273 0.37602 0.0
C340 C 0.73069 0.29551 0.40544 0.0
C341 C 0.75337 0.28708 0.43422 0.0
C342 C 0.7853 0.25587 0.43446 0.0
C343 C 0.79344 0.23163 0.40632 0.0
H344 H 0.78041 0.52704 0.28617 0.0
C345 C 0.76608 0.5402 0.30845 0.0
H346 H 0.77016 0.58947 0.34426 0.0
H347 H 0.94601 0.55624 0.24892 0.0
H348 H 0.95697 0.49289 0.28242 0.0
H349 H 0.90792 0.47609 0.32839 0.0
H350 H 0.84684 0.52254 0.34055 0.0
C351 C 0.78461 0.5743 0.32286 0.0
C352 C 0.82277 0.59383 0.30648 0.0
C353 C 0.86001 0.56847 0.30119 0.0
C354 C 0.88926 0.57928 0.27563 0.0
C355 C 0.92369 0.55081 0.26882 0.0
C356 C 0.93023 0.51407 0.28779 0.0
C357 C 0.90255 0.50452 0.31361 0.0
C358 C 0.86765 0.53121 0.32025 0.0
H359 H 0.96692 0.63449 0.24664 0.0
C360 C 0.94801 0.63357 0.2242 0.0
H361 H 0.88677 0.62547 0.20311 0.0
H362 H 0.76017 0.65423 0.31593 0.0
H363 H 0.75282 0.72196 0.28658 0.0
H364 H 0.80537 0.74283 0.24394 0.0
H365 H 0.8651 0.69583 0.23 0.0
C366 C 0.9059 0.6243 0.22545 0.0
C367 C 0.88223 0.61695 0.25672 0.0
C368 C 0.84835 0.64542 0.2653 0.0
C369 C 0.81847 0.63377 0.29021 0.0
C370 C 0.78382 0.66178 0.29728 0.0
C371 C 0.77934 0.70074 0.28071 0.0
C372 C 0.80887 0.71245 0.25666 0.0
C373 C 0.84292 0.68516 0.24883 0.0
H374 H 0.42508 0.40231 0.69787 0.0
C375 C 0.40958 0.43137 0.70692 0.0
H376 H 0.38953 0.46579 0.74923 0.0
H377 H 0.41435 0.25753 0.78675 0.0
H378 H 0.34795 0.24832 0.75659 0.0
H379 H 0.31246 0.31019 0.73008 0.0
H380 H 0.34383 0.38162 0.7332 0.0
C381 C 0.40522 0.43728 0.73945 0.0
C382 C 0.42002 0.40328 0.7625 0.0
C383 C 0.39988 0.36232 0.76219 0.0
C384 C 0.4194 0.32709 0.77863 0.0
C385 C 0.40034 0.28583 0.77571 0.0
C386 C 0.3622 0.28001 0.75833 0.0
C387 C 0.34229 0.31481 0.74332 0.0
C388 C 0.36077 0.35555 0.74513 0.0
H389 H 0.44283 0.28075 0.84856 0.0
C390 C 0.47088 0.27186 0.83413 0.0
H391 H 0.51148 0.28753 0.79423 0.0
H392 H 0.46238 0.47919 0.77229 0.0
H393 H 0.52623 0.48989 0.80577 0.0
H394 H 0.55904 0.42923 0.83575 0.0
H395 H 0.52829 0.35743 0.83238 0.0
C396 C 0.483 0.29597 0.80834 0.0
C397 C 0.45795 0.33351 0.7966 0.0
C398 C 0.47569 0.37532 0.79944 0.0
C399 C 0.45664 0.41033 0.78237 0.0
C400 C 0.47564 0.45156 0.78486 0.0
C401 C 0.51219 0.45811 0.80401 0.0
C402 C 0.53068 0.42394 0.82087 0.0
C403 C 0.51283 0.38292 0.81867 0.0
H404 H 0.51444 0.93249 0.255 0.0
C405 C 0.53188 0.91328 0.23706 0.0
H406 H 0.59184 0.88794 0.22238 0.0
H407 H 0.7091 0.02539 0.28879 0.0
H408 H 0.71183 0.0489 0.23223 0.0
H409 H 0.66291 0.01809 0.19073 0.0
H410 H 0.61119 0.96319 0.20569 0.0
C411 C 0.57424 0.90652 0.24062 0.0
C412 C 0.59969 0.92794 0.26677 0.0
C413 C 0.62903 0.96073 0.25782 0.0
C414 C 0.65643 0.97917 0.28191 0.0
C415 C 0.68659 0.01083 0.27188 0.0
C416 C 0.68872 0.02458 0.23934 0.0
C417 C 0.66126 0.00719 0.21598 0.0
C418 C 0.63178 0.9756 0.22492 0.0
H419 H 0.71634 0.92522 0.3498 0.0
C420 C 0.71687 0.96008 0.35169 0.0
H421 H 0.6857 0.01851 0.34141 0.0
H422 H 0.54792 0.86467 0.29191 0.0
H423 H 0.54288 0.84296 0.34909 0.0
H424 H 0.58748 0.87796 0.39153 0.0
H425 H 0.6379 0.93449 0.37693 0.0
C426 C 0.68441 0.98364 0.33944 0.0
C427 C 0.65393 0.96517 0.31511 0.0
C428 C 0.6236 0.93334 0.32427 0.0
C429 C 0.59684 0.9142 0.29995 0.0
C430 C 0.5682 0.88108 0.30948 0.0
C431 C 0.56509 0.86821 0.34221 0.0
C432 C 0.59028 0.88785 0.3661 0.0
C433 C 0.61923 0.92008 0.35739 0.0
H434 H 0.02297 0.17817 0.82507 0.0
C435 C 0.04293 0.19695 0.8417 0.0
H436 H 0.10404 0.20245 0.86381 0.0
H437 H 0.06871 0.00786 0.79325 0.0
H438 H 0.02194 0.99389 0.84001 0.0
H439 H 0.01152 0.04874 0.88324 0.0
H440 H 0.04761 0.11816 0.87979 0.0
C441 C 0.08264 0.183 0.84884 0.0
C442 C 0.09991 0.14552 0.83024 0.0
C443 C 0.08022 0.1046 0.83332 0.0
C444 C 0.08686 0.07274 0.80874 0.0
C445 C 0.06506 0.03298 0.81147 0.0
C446 C 0.03819 0.02459 0.83816 0.0
C447 C 0.03227 0.0555 0.86249 0.0
C448 C 0.05292 0.09517 0.86019 0.0
H449 H 0.15468 0.00644 0.76999 0.0
C450 C 0.13673 0.0184 0.74899 0.0
H451 H 0.09682 0.06743 0.73038 0.0
H452 H 0.14913 0.21756 0.82056 0.0
H453 H 0.19964 0.22958 0.77597 0.0
H454 H 0.21217 0.17376 0.73386 0.0
H455 H 0.17401 0.10562 0.736 0.0
C456 C 0.11287 0.05417 0.75183 0.0
C457 C 0.11382 0.08179 0.78158 0.0
C458 C 0.13749 0.12073 0.78062 0.0
C459 C 0.1306 0.15268 0.80506 0.0
C460 C 0.1533 0.19206 0.80274 0.0
C461 C 0.18246 0.19934 0.7773 0.0
C462 C 0.18949 0.16793 0.75357 0.0
C463 C 0.16728 0.12906 0.75503 0.0
H464 H 0.10087 0.39297 0.7932 0.0
C465 C 0.07219 0.37554 0.7857 0.0
H466 H 0.03814 0.34877 0.74551 0.0
H467 H 0.16697 0.50169 0.68511 0.0
H468 H 0.1099 0.55005 0.70257 0.0
H469 H 0.04609 0.52231 0.7318 0.0
H470 H 0.039 0.44597 0.74377 0.0
C471 C 0.06515 0.36822 0.75362 0.0
C472 C 0.09735 0.38319 0.72917 0.0
C473 C 0.10039 0.42749 0.72162 0.0
C474 C 0.13707 0.44338 0.70476 0.0
C475 C 0.13987 0.488 0.69815 0.0
C476 C 0.10729 0.51604 0.7079 0.0
C477 C 0.07136 0.50042 0.72436 0.0
C478 C 0.06777 0.45666 0.7312 0.0
H479 H 0.21195 0.41788 0.63603 0.0
C480 C 0.229 0.43367 0.65597 0.0
H481 H 0.22972 0.45011 0.70632 0.0
H482 H 0.09706 0.29563 0.73463 0.0
H483 H 0.15289 0.24677 0.71563 0.0
H484 H 0.21774 0.27443 0.68776 0.0
H485 H 0.22675 0.35099 0.67801 0.0
C486 C 0.21301 0.43323 0.6867 0.0
C487 C 0.17053 0.41488 0.6955 0.0
C488 C 0.16562 0.37002 0.70038 0.0
C489 C 0.12862 0.3541 0.71699 0.0
C490 C 0.12472 0.3093 0.72231 0.0
C491 C 0.15651 0.28098 0.71157 0.0
C492 C 0.19298 0.29656 0.69579 0.0
C493 C 0.19775 0.34056 0.69031 0.0
H494 H 0.58799 0.52081 0.23318 0.0
C495 C 0.59228 0.53855 0.25598 0.0
H496 H 0.59156 0.59896 0.27948 0.0
H497 H 0.61791 0.72787 0.16821 0.0
H498 H 0.68982 0.7259 0.1913 0.0
H499 H 0.71076 0.66893 0.23034 0.0
H500 H 0.65973 0.61385 0.24678 0.0
C501 C 0.58529 0.58117 0.25695 0.0
C502 C 0.57581 0.60733 0.22729 0.0
C503 C 0.60647 0.63829 0.21696 0.0
C504 C 0.59464 0.67069 0.19407 0.0
C505 C 0.62529 0.70237 0.18535 0.0
C506 C 0.66671 0.70156 0.19838 0.0
C507 C 0.67849 0.66953 0.2204 0.0
C508 C 0.64885 0.63822 0.22971 0.0
H509 H 0.49225 0.72257 0.20463 0.0
C510 C 0.50588 0.7351 0.18193 0.0
H511 H 0.55114 0.72461 0.144 0.0
H512 H 0.51048 0.54993 0.23905 0.0
H513 H 0.44105 0.54825 0.21204 0.0
H514 H 0.42248 0.60182 0.16962 0.0
H515 H 0.47326 0.65801 0.15445 0.0
C516 C 0.53589 0.71205 0.16603 0.0
C517 C 0.55222 0.67181 0.1815 0.0
C518 C 0.52347 0.63762 0.18859 0.0
C519 C 0.53486 0.60579 0.2121 0.0
C520 C 0.50412 0.57415 0.22066 0.0
C521 C 0.46404 0.5729 0.2054 0.0
C522 C 0.45353 0.60312 0.18157 0.0
C523 C 0.48276 0.63526 0.17323 0.0
H524 H 0.47891 0.08807 0.74667 0.0
C525 C 0.46135 0.10448 0.7661 0.0
H526 H 0.40148 0.1293 0.78175 0.0
H527 H 0.31872 0.13149 0.63995 0.0
H528 H 0.33758 0.20703 0.64528 0.0
H529 H 0.38247 0.23226 0.69142 0.0
H530 H 0.40907 0.18212 0.73238 0.0
C531 C 0.41887 0.11113 0.76316 0.0
C532 C 0.3942 0.09543 0.73431 0.0
C533 C 0.37859 0.12519 0.71081 0.0
C534 C 0.35204 0.1108 0.68455 0.0
C535 C 0.33793 0.141 0.66089 0.0
C536 C 0.34878 0.18435 0.66354 0.0
C537 C 0.3741 0.19855 0.6895 0.0
C538 C 0.38906 0.16945 0.71288 0.0
H539 H 0.2585 0.09221 0.67617 0.0
C540 C 0.26649 0.06455 0.66097 0.0
H541 H 0.31525 0.02392 0.64322 0.0
H542 H 0.41851 0.03005 0.77554 0.0
H543 H 0.39905 0.95498 0.77077 0.0
H544 H 0.35222 0.92992 0.72579 0.0
H545 H 0.32473 0.9796 0.68542 0.0
C546 C 0.30764 0.05196 0.6581 0.0
C547 C 0.34023 0.06683 0.68241 0.0
C548 C 0.3568 0.03683 0.70553 0.0
C549 C 0.38379 0.0512 0.73151 0.0
C550 C 0.39853 0.02089 0.75496 0.0
C551 C 0.38742 0.97763 0.75265 0.0
C552 C 0.36107 0.96354 0.72734 0.0
C553 C 0.34565 0.99259 0.70414 0.0
H554 H 0.90517 0.79003 0.14622 0.0
C555 C 0.9393 0.78906 0.15188 0.0
H556 H 0.98989 0.81533 0.17994 0.0
H557 H 0.85929 0.97257 0.21573 0.0
H558 H 0.87665 -0.00029 0.16136 0.0
H559 H 0.91831 0.95565 0.12214 0.0
H560 H 0.94233 0.88379 0.13694 0.0
C561 C 0.95613 0.81735 0.17326 0.0
C562 C 0.92828 0.84308 0.19536 0.0
C563 C 0.91531 0.88512 0.1866 0.0
C564 C 0.89244 0.91097 0.20962 0.0
C565 C 0.87823 0.95222 0.19973 0.0
C566 C 0.88766 0.96803 0.16848 0.0
C567 C 0.91104 0.94318 0.14636 0.0
C568 C 0.92471 0.9021 0.15516 0.0
H569 H 0.91103 0.97121 0.26683 0.0
C570 C 0.88255 0.95831 0.27877 0.0
H571 H 0.83472 0.91048 0.27931 0.0
H572 H 0.94502 0.76195 0.21858 0.0
H573 H 0.92662 0.73399 0.2723 0.0
H574 H 0.88878 0.77922 0.31291 0.0
H575 H 0.86937 0.85262 0.30011 0.0
C576 C 0.86349 0.92255 0.26724 0.0
C577 C 0.88382 0.89496 0.24166 0.0
C578 C 0.89505 0.85198 0.24979 0.0
C579 C 0.91722 0.82602 0.22656 0.0
C580 C 0.92835 0.78328 0.23532 0.0
C581 C 0.91798 0.76674 0.26611 0.0
C582 C 0.89664 0.79218 0.28894 0.0
C583 C 0.88548 0.83434 0.28113 0.0
loop_
_geom_bond_atom_site_label_1
_geom_bond_atom_site_label_2
_geom_bond_distance
_geom_bond_site_symmetry_2
_ccdc_geom_bond_type
In0 O1 2.293 1_455 S
In0 O2 2.327 . S
In0 O6 2.264 1_455 S
In0 O7 2.325 1_455 S
In0 O8 2.266 1_455 S
In0 O9 2.323 1_455 S
In0 O11 2.297 . S
In0 O12 2.329 . S
O1 In0 2.293 1_655 S
O1 C10 1.240 1_655 S
O2 In0 2.327 . S
O2 C10 1.252 . S
C3 O6 1.252 . S
C3 O7 1.260 . S
C4 O11 1.240 . S
C4 O12 1.252 . S
C5 O8 1.252 . S
C5 O9 1.260 . S
O6 In0 2.264 1_655 S
O6 C3 1.252 . S
O7 In0 2.325 1_655 S
O7 C3 1.260 . S
O8 In0 2.266 1_655 S
O8 C5 1.252 . S
O9 In0 2.323 1_655 S
O9 C5 1.260 . S
C10 O1 1.240 1_455 S
C10 O2 1.252 . S
O11 In0 2.297 . S
O11 C4 1.240 . S
O12 In0 2.329 . S
O12 C4 1.252 . S
In13 O14 2.294 . S
In13 O15 2.326 . S
In13 O19 2.266 . S
In13 O20 2.326 . S
In13 O21 2.266 . S
In13 O22 2.326 . S
In13 O24 2.294 . S
In13 O25 2.326 . S
O14 In13 2.294 . S
O14 C23 1.240 . S
O15 In13 2.326 . S
O15 C23 1.252 . S
C16 O19 1.252 . S
C16 O20 1.260 . S
C17 O24 1.240 . S
C17 O25 1.252 . S
C18 O21 1.252 . S
C18 O22 1.260 . S
O19 In13 2.266 . S
O19 C16 1.252 . S
O20 In13 2.326 . S
O20 C16 1.260 . S
O21 In13 2.266 . S
O21 C18 1.252 . S
O22 In13 2.326 . S
O22 C18 1.260 . S
C23 O14 1.240 . S
C23 O15 1.252 . S
O24 In13 2.294 . S
O24 C17 1.240 . S
O25 In13 2.326 . S
O25 C17 1.252 . S
In26 O27 2.294 . S
In26 O28 2.326 . S
In26 O32 2.266 . S
In26 O33 2.326 . S
In26 O34 2.266 . S
In26 O35 2.326 . S
In26 O37 2.294 . S
In26 O38 2.326 . S
O27 In26 2.294 . S
O27 C36 1.240 . S
O28 In26 2.326 . S
O28 C36 1.252 . S
C29 O32 1.252 . S
C29 O33 1.260 . S
C30 O37 1.240 . S
C30 O38 1.252 . S
C31 O34 1.252 . S
C31 O35 1.260 . S
O32 In26 2.266 . S
O32 C29 1.252 . S
O33 In26 2.326 . S
O33 C29 1.260 . S
O34 In26 2.266 . S
O34 C31 1.252 . S
O35 In26 2.326 . S
O35 C31 1.260 . S
C36 O27 1.240 . S
C36 O28 1.252 . S
O37 In26 2.294 . S
O37 C30 1.240 . S
O38 In26 2.326 . S
O38 C30 1.252 . S
In39 O40 2.297 . S
In39 O41 2.329 . S
In39 O45 2.266 1_565 S
In39 O46 2.323 1_565 S
In39 O47 2.264 1_565 S
In39 O48 2.325 1_565 S
In39 O50 2.293 1_565 S
In39 O51 2.327 . S
O40 In39 2.297 . S
O40 C49 1.240 . S
O41 In39 2.329 . S
O41 C49 1.252 . S
C42 O45 1.252 . S
C42 O46 1.260 . S
C43 O50 1.240 1_565 S
C43 O51 1.252 . S
C44 O47 1.252 . S
C44 O48 1.260 . S
O45 In39 2.266 1_545 S
O45 C42 1.252 . S
O46 In39 2.323 1_545 S
O46 C42 1.260 . S
O47 In39 2.264 1_545 S
O47 C44 1.252 . S
O48 In39 2.325 1_545 S
O48 C44 1.260 . S
C49 O40 1.240 . S
C49 O41 1.252 . S
O50 In39 2.293 1_545 S
O50 C43 1.240 1_545 S
O51 In39 2.327 . S
O51 C43 1.252 . S
In52 O53 2.297 . S
In52 O54 2.329 . S
In52 O58 2.266 1_655 S
In52 O59 2.323 1_655 S
In52 O60 2.264 1_655 S
In52 O61 2.325 1_655 S
In52 O63 2.293 1_655 S
In52 O64 2.327 . S
O53 In52 2.297 . S
O53 C62 1.240 . S
O54 In52 2.329 . S
O54 C62 1.252 . S
C55 O58 1.252 . S
C55 O59 1.260 . S
C56 O63 1.240 1_655 S
C56 O64 1.252 . S
C57 O60 1.252 . S
C57 O61 1.260 . S
O58 In52 2.266 1_455 S
O58 C55 1.252 . S
O59 In52 2.323 1_455 S
O59 C55 1.260 . S
O60 In52 2.264 1_455 S
O60 C57 1.252 . S
O61 In52 2.325 1_455 S
O61 C57 1.260 . S
C62 O53 1.240 . S
C62 O54 1.252 . S
O63 In52 2.293 1_455 S
O63 C56 1.240 1_455 S
O64 In52 2.327 . S
O64 C56 1.252 . S
In65 O66 2.294 . S
In65 O67 2.326 . S
In65 O71 2.266 . S
In65 O72 2.326 . S
In65 O73 2.266 . S
In65 O74 2.326 . S
In65 O76 2.294 . S
In65 O77 2.326 . S
O66 In65 2.294 . S
O66 C75 1.240 . S
O67 In65 2.326 . S
O67 C75 1.252 . S
C68 O71 1.252 . S
C68 O72 1.260 . S
C69 O76 1.240 . S
C69 O77 1.252 . S
C70 O73 1.252 . S
C70 O74 1.260 . S
O71 In65 2.266 . S
O71 C68 1.252 . S
O72 In65 2.326 . S
O72 C68 1.260 . S
O73 In65 2.266 . S
O73 C70 1.252 . S
O74 In65 2.326 . S
O74 C70 1.260 . S
C75 O66 1.240 . S
C75 O67 1.252 . S
O76 In65 2.294 . S
O76 C69 1.240 . S
O77 In65 2.326 . S
O77 C69 1.252 . S
In78 O79 2.294 . S
In78 O80 2.326 . S
In78 O84 2.266 . S
In78 O85 2.326 . S
In78 O86 2.266 . S
In78 O87 2.326 . S
In78 O89 2.294 . S
In78 O90 2.326 . S
O79 In78 2.294 . S
O79 C88 1.240 . S
O80 In78 2.326 . S
O80 C88 1.252 . S
C81 O84 1.252 . S
C81 O85 1.260 . S
C82 O89 1.240 . S
C82 O90 1.252 . S
C83 O86 1.252 . S
C83 O87 1.260 . S
O84 In78 2.266 . S
O84 C81 1.252 . S
O85 In78 2.326 . S
O85 C81 1.260 . S
O86 In78 2.266 . S
O86 C83 1.252 . S
O87 In78 2.326 . S
O87 C83 1.260 . S
C88 O79 1.240 . S
C88 O80 1.252 . S
O89 In78 2.294 . S
O89 C82 1.240 . S
O90 In78 2.326 . S
O90 C82 1.252 . S
In91 O92 2.297 . S
In91 O93 2.329 . S
In91 O97 2.266 1_545 S
In91 O98 2.323 1_545 S
In91 O99 2.264 1_545 S
In91 O100 2.325 1_545 S
In91 O102 2.293 1_545 S
In91 O103 2.327 . S
O92 In91 2.297 . S
O92 C101 1.240 . S
O93 In91 2.329 . S
O93 C101 1.252 . S
C94 O97 1.252 . S
C94 O98 1.260 . S
C95 O102 1.240 1_545 S
C95 O103 1.252 . S
C96 O99 1.252 . S
C96 O100 1.260 . S
O97 In91 2.266 1_565 S
O97 C94 1.252 . S
O98 In91 2.323 1_565 S
O98 C94 1.260 . S
O99 In91 2.264 1_565 S
O99 C96 1.252 . S
O100 In91 2.325 1_565 S
O100 C96 1.260 . S
C101 O92 1.240 . S
C101 O93 1.252 . S
O102 In91 2.293 1_565 S
O102 C95 1.240 1_565 S
O103 In91 2.327 . S
O103 C95 1.252 . S
H104 C105 0.951 . S
C105 H104 0.951 . S
C105 C111 1.265 1_655 S
H106 C111 0.950 . S
H107 C115 0.949 1_554 S
H108 C116 0.950 . S
H109 C117 0.951 . S
H110 C118 0.951 . S
C111 C105 1.265 1_455 S
C111 H106 0.950 . S
C111 C112 1.478 . S
C112 C111 1.478 . S
C112 C113 1.397 1_455 S
C112 C129 1.394 1_556 S
C113 C112 1.397 1_655 S
C113 C114 1.438 . S
C113 C118 1.429 . S
C114 C113 1.438 . S
C114 C115 1.428 . S
C114 C127 1.394 1_556 S
C115 H107 0.949 1_556 S
C115 C114 1.428 . S
C115 C116 1.345 . S
C116 H108 0.950 . S
C116 C115 1.345 . S
C116 C117 1.424 . S
C117 H109 0.951 . S
C117 C116 1.424 . S
C117 C118 1.347 . S
C118 H110 0.951 . S
C118 C113 1.429 . S
C118 C117 1.347 . S
H119 C120 0.951 . S
C120 H119 0.951 . S
C120 C126 1.265 1_455 S
H121 C126 0.950 . S
H122 C130 0.949 1_556 S
H123 C131 0.950 . S
H124 C132 0.951 . S
H125 C133 0.951 . S
C126 C120 1.265 1_655 S
C126 H121 0.950 . S
C126 C127 1.478 . S
C127 C114 1.394 1_554 S
C127 C126 1.478 . S
C127 C128 1.397 1_655 S
C128 C127 1.397 1_455 S
C128 C129 1.438 . S
C128 C133 1.429 . S
C129 C112 1.394 1_554 S
C129 C128 1.438 . S
C129 C130 1.428 . S
C130 H122 0.949 1_554 S
C130 C129 1.428 . S
C130 C131 1.345 . S
C131 H123 0.950 . S
C131 C130 1.345 . S
C131 C132 1.424 . S
C132 H124 0.951 . S
C132 C131 1.424 . S
C132 C133 1.347 . S
C133 H125 0.951 . S
C133 C128 1.429 . S
C133 C132 1.347 . S
H134 C135 0.951 . S
C135 H134 0.951 . S
C135 C141 1.265 . S
H136 C141 0.950 . S
H137 C145 0.949 . S
H138 C146 0.950 . S
H139 C147 0.951 . S
H140 C148 0.951 . S
C141 C135 1.265 . S
C141 H136 0.950 . S
C141 C142 1.478 . S
C142 C141 1.478 . S
C142 C143 1.397 . S
C142 C159 1.394 . S
C143 C142 1.397 . S
C143 C144 1.438 . S
C143 C148 1.429 . S
C144 C143 1.438 . S
C144 C145 1.428 . S
C144 C157 1.394 . S
C145 H137 0.949 . S
C145 C144 1.428 . S
C145 C146 1.345 . S
C146 H138 0.950 . S
C146 C145 1.345 . S
C146 C147 1.424 . S
C147 H139 0.951 . S
C147 C146 1.424 . S
C147 C148 1.347 . S
C148 H140 0.951 . S
C148 C143 1.429 . S
C148 C147 1.347 . S
H149 C150 0.951 . S
C150 H149 0.951 . S
C150 C156 1.265 . S
H151 C156 0.950 . S
H152 C160 0.949 . S
H153 C161 0.950 . S
H154 C162 0.951 . S
H155 C163 0.951 . S
C156 C150 1.265 . S
C156 H151 0.950 . S
C156 C157 1.478 . S
C157 C144 1.394 . S
C157 C156 1.478 . S
C157 C158 1.397 . S
C158 C157 1.397 . S
C158 C159 1.438 . S
C158 C163 1.429 . S
C159 C142 1.394 . S
C159 C158 1.438 . S
C159 C160 1.428 . S
C160 H152 0.949 . S
C160 C159 1.428 . S
C160 C161 1.345 . S
C161 H153 0.950 . S
C161 C160 1.345 . S
C161 C162 1.424 . S
C162 H154 0.951 . S
C162 C161 1.424 . S
C162 C163 1.347 . S
C163 H155 0.951 . S
C163 C158 1.429 . S
C163 C162 1.347 . S
H164 C165 0.951 . S
C165 H164 0.951 . S
C165 C171 1.265 . S
H166 C171 0.950 . S
H167 C175 0.949 . S
H168 C176 0.950 . S
H169 C177 0.951 . S
H170 C178 0.951 . S
C171 C165 1.265 . S
C171 H166 0.950 . S
C171 C172 1.478 . S
C172 C171 1.478 . S
C172 C173 1.397 1_554 S
C172 C189 1.394 . S
C173 C172 1.397 1_556 S
C173 C174 1.438 1_565 S
C173 C178 1.429 . S
C174 C173 1.438 1_545 S
C174 C175 1.428 . S
C174 C187 1.394 . S
C175 H167 0.949 . S
C175 C174 1.428 . S
C175 C176 1.345 1_545 S
C176 H168 0.950 . S
C176 C175 1.345 1_565 S
C176 C177 1.424 . S
C177 H169 0.951 . S
C177 C176 1.424 . S
C177 C178 1.347 . S
C178 H170 0.951 . S
C178 C173 1.429 . S
C178 C177 1.347 . S
H179 C180 0.951 . S
C180 H179 0.951 . S
C180 C186 1.265 . S
H181 C186 0.950 . S
H182 C190 0.949 . S
H183 C191 0.950 . S
H184 C192 0.951 . S
H185 C193 0.951 . S
C186 C180 1.265 . S
C186 H181 0.950 . S
C186 C187 1.478 . S
C187 C174 1.394 . S
C187 C186 1.478 . S
C187 C188 1.397 1_556 S
C188 C187 1.397 1_554 S
C188 C189 1.438 1_545 S
C188 C193 1.429 . S
C189 C172 1.394 . S
C189 C188 1.438 1_565 S
C189 C190 1.428 . S
C190 H182 0.949 . S
C190 C189 1.428 . S
C190 C191 1.345 1_565 S
C191 H183 0.950 . S
C191 C190 1.345 1_545 S
C191 C192 1.424 . S
C192 H184 0.951 . S
C192 C191 1.424 . S
C192 C193 1.347 . S
C193 H185 0.951 . S
C193 C188 1.429 . S
C193 C192 1.347 . S
H194 C195 0.951 . S
C195 H194 0.951 . S
C195 C201 1.265 1_545 S
H196 C201 0.950 . S
H197 C205 0.949 . S
H198 C206 0.950 . S
H199 C207 0.951 . S
H200 C208 0.951 . S
C201 C195 1.265 1_565 S
C201 H196 0.950 . S
C201 C202 1.478 . S
C202 C201 1.478 . S
C202 C203 1.400 . S
C202 C219 1.391 1_565 S
C203 C202 1.400 . S
C203 C204 1.438 1_655 S
C203 C208 1.429 . S
C204 C203 1.438 1_455 S
C204 C205 1.428 . S
C204 C217 1.386 1_565 S
C205 H197 0.949 . S
C205 C204 1.428 . S
C205 C206 1.345 . S
C206 H198 0.950 . S
C206 C205 1.345 . S
C206 C207 1.424 1_455 S
C207 H199 0.951 . S
C207 C206 1.424 1_655 S
C207 C208 1.347 . S
C208 H200 0.951 . S
C208 C203 1.429 . S
C208 C207 1.347 . S
H209 C210 0.951 . S
C210 H209 0.951 . S
C210 C216 1.265 1_565 S
H211 C216 0.950 . S
H212 C220 0.949 . S
H213 C221 0.950 . S
H214 C222 0.951 . S
H215 C223 0.951 . S
C216 C210 1.265 1_545 S
C216 H211 0.950 . S
C216 C217 1.478 . S
C217 C204 1.386 1_545 S
C217 C216 1.478 . S
C217 C218 1.405 . S
C218 C217 1.405 . S
C218 C219 1.438 1_455 S
C218 C223 1.429 . S
C219 C202 1.391 1_545 S
C219 C218 1.438 1_655 S
C219 C220 1.428 . S
C220 H212 0.949 . S
C220 C219 1.428 . S
C220 C221 1.345 . S
C221 H213 0.950 . S
C221 C220 1.345 . S
C221 C222 1.424 1_655 S
C222 H214 0.951 . S
C222 C221 1.424 1_455 S
C222 C223 1.347 . S
C223 H215 0.951 . S
C223 C218 1.429 . S
C223 C222 1.347 . S
H224 C225 0.951 . S
C225 H224 0.951 . S
C225 C231 1.265 . S
H226 C231 0.950 . S
H227 C235 0.949 . S
H228 C236 0.950 . S
H229 C237 0.951 . S
H230 C238 0.951 . S
C231 C225 1.265 . S
C231 H226 0.950 . S
C231 C232 1.478 . S
C232 C231 1.478 . S
C232 C233 1.397 . S
C232 C249 1.394 . S
C233 C232 1.397 . S
C233 C234 1.438 . S
C233 C238 1.429 . S
C234 C233 1.438 . S
C234 C235 1.428 . S
C234 C247 1.394 . S
C235 H227 0.949 . S
C235 C234 1.428 . S
C235 C236 1.345 . S
C236 H228 0.950 . S
C236 C235 1.345 . S
C236 C237 1.424 . S
C237 H229 0.951 . S
C237 C236 1.424 . S
C237 C238 1.347 . S
C238 H230 0.951 . S
C238 C233 1.429 . S
C238 C237 1.347 . S
H239 C240 0.951 . S
C240 H239 0.951 . S
C240 C246 1.265 . S
H241 C246 0.950 . S
H242 C250 0.949 . S
H243 C251 0.950 . S
H244 C252 0.951 . S
H245 C253 0.951 . S
C246 C240 1.265 . S
C246 H241 0.950 . S
C246 C247 1.478 . S
C247 C234 1.394 . S
C247 C246 1.478 . S
C247 C248 1.397 . S
C248 C247 1.397 . S
C248 C249 1.438 . S
C248 C253 1.429 . S
C249 C232 1.394 . S
C249 C248 1.438 . S
C249 C250 1.428 . S
C250 H242 0.949 . S
C250 C249 1.428 . S
C250 C251 1.345 . S
C251 H243 0.950 . S
C251 C250 1.345 . S
C251 C252 1.424 . S
C252 H244 0.951 . S
C252 C251 1.424 . S
C252 C253 1.347 . S
C253 H245 0.951 . S
C253 C248 1.429 . S
C253 C252 1.347 . S
H254 C255 0.951 . S
C255 H254 0.951 . S
C255 C261 1.265 . S
H256 C261 0.950 . S
H257 C265 0.949 . S
H258 C266 0.950 . S
H259 C267 0.951 . S
H260 C268 0.951 . S
C261 C255 1.265 . S
C261 H256 0.950 . S
C261 C262 1.478 . S
C262 C261 1.478 . S
C262 C263 1.397 . S
C262 C279 1.394 . S
C263 C262 1.397 . S
C263 C264 1.438 . S
C263 C268 1.429 . S
C264 C263 1.438 . S
C264 C265 1.428 . S
C264 C277 1.394 . S
C265 H257 0.949 . S
C265 C264 1.428 . S
C265 C266 1.345 . S
C266 H258 0.950 . S
C266 C265 1.345 . S
C266 C267 1.424 . S
C267 H259 0.951 . S
C267 C266 1.424 . S
C267 C268 1.347 . S
C268 H260 0.951 . S
C268 C263 1.429 . S
C268 C267 1.347 . S
H269 C270 0.951 . S
C270 H269 0.951 . S
C270 C276 1.265 . S
H271 C276 0.950 . S
H272 C280 0.949 . S
H273 C281 0.950 . S
H274 C282 0.951 . S
H275 C283 0.951 . S
C276 C270 1.265 . S
C276 H271 0.950 . S
C276 C277 1.478 . S
C277 C264 1.394 . S
C277 C276 1.478 . S
C277 C278 1.397 . S
C278 C277 1.397 . S
C278 C279 1.438 . S
C278 C283 1.429 . S
C279 C262 1.394 . S
C279 C278 1.438 . S
C279 C280 1.428 . S
C280 H272 0.949 . S
C280 C279 1.428 . S
C280 C281 1.345 . S
C281 H273 0.950 . S
C281 C280 1.345 . S
C281 C282 1.424 . S
C282 H274 0.951 . S
C282 C281 1.424 . S
C282 C283 1.347 . S
C283 H275 0.951 . S
C283 C278 1.429 . S
C283 C282 1.347 . S
H284 C285 0.951 . S
C285 H284 0.951 . S
C285 C291 1.265 . S
H286 C291 0.950 . S
H287 C295 0.949 . S
H288 C296 0.950 . S
H289 C297 0.951 . S
H290 C298 0.951 . S
C291 C285 1.265 . S
C291 H286 0.950 . S
C291 C292 1.478 . S
C292 C291 1.478 . S
C292 C293 1.397 . S
C292 C309 1.394 . S
C293 C292 1.397 . S
C293 C294 1.438 . S
C293 C298 1.429 . S
C294 C293 1.438 . S
C294 C295 1.428 . S
C294 C307 1.394 . S
C295 H287 0.949 . S
C295 C294 1.428 . S
C295 C296 1.345 . S
C296 H288 0.950 . S
C296 C295 1.345 . S
C296 C297 1.424 . S
C297 H289 0.951 . S
C297 C296 1.424 . S
C297 C298 1.347 . S
C298 H290 0.951 . S
C298 C293 1.429 . S
C298 C297 1.347 . S
H299 C300 0.951 . S
C300 H299 0.951 . S
C300 C306 1.265 . S
H301 C306 0.950 . S
H302 C310 0.949 . S
H303 C311 0.950 . S
H304 C312 0.951 . S
H305 C313 0.951 . S
C306 C300 1.265 . S
C306 H301 0.950 . S
C306 C307 1.478 . S
C307 C294 1.394 . S
C307 C306 1.478 . S
C307 C308 1.397 . S
C308 C307 1.397 . S
C308 C309 1.438 . S
C308 C313 1.429 . S
C309 C292 1.394 . S
C309 C308 1.438 . S
C309 C310 1.428 . S
C310 H302 0.949 . S
C310 C309 1.428 . S
C310 C311 1.345 . S
C311 H303 0.950 . S
C311 C310 1.345 . S
C311 C312 1.424 . S
C312 H304 0.951 . S
C312 C311 1.424 . S
C312 C313 1.347 . S
C313 H305 0.951 . S
C313 C308 1.429 . S
C313 C312 1.347 . S
H314 C315 0.951 . S
C315 H314 0.951 . S
C315 C321 1.265 . S
H316 C321 0.950 . S
H317 C325 0.949 . S
H318 C326 0.950 . S
H319 C327 0.951 . S
H320 C328 0.951 . S
C321 C315 1.265 . S
C321 H316 0.950 . S
C321 C322 1.478 . S
C322 C321 1.478 . S
C322 C323 1.397 . S
C322 C339 1.394 . S
C323 C322 1.397 . S
C323 C324 1.438 . S
C323 C328 1.429 . S
C324 C323 1.438 . S
C324 C325 1.428 . S
C324 C337 1.394 . S
C325 H317 0.949 . S
C325 C324 1.428 . S
C325 C326 1.345 . S
C326 H318 0.950 . S
C326 C325 1.345 . S
C326 C327 1.424 . S
C327 H319 0.951 . S
C327 C326 1.424 . S
C327 C328 1.347 . S
C328 H320 0.951 . S
C328 C323 1.429 . S
C328 C327 1.347 . S
H329 C330 0.951 . S
C330 H329 0.951 . S
C330 C336 1.265 . S
H331 C336 0.950 . S
H332 C340 0.949 . S
H333 C341 0.950 . S
H334 C342 0.951 . S
H335 C343 0.951 . S
C336 C330 1.265 . S
C336 H331 0.950 . S
C336 C337 1.478 . S
C337 C324 1.394 . S
C337 C336 1.478 . S
C337 C338 1.397 . S
C338 C337 1.397 . S
C338 C339 1.438 . S
C338 C343 1.429 . S
C339 C322 1.394 . S
C339 C338 1.438 . S
C339 C340 1.428 . S
C340 H332 0.949 . S
C340 C339 1.428 . S
C340 C341 1.345 . S
C341 H333 0.950 . S
C341 C340 1.345 . S
C341 C342 1.424 . S
C342 H334 0.951 . S
C342 C341 1.424 . S
C342 C343 1.347 . S
C343 H335 0.951 . S
C343 C338 1.429 . S
C343 C342 1.347 . S
H344 C345 0.951 . S
C345 H344 0.951 . S
C345 C351 1.265 . S
H346 C351 0.950 . S
H347 C355 0.949 . S
H348 C356 0.950 . S
H349 C357 0.951 . S
H350 C358 0.951 . S
C351 C345 1.265 . S
C351 H346 0.950 . S
C351 C352 1.478 . S
C352 C351 1.478 . S
C352 C353 1.397 . S
C352 C369 1.394 . S
C353 C352 1.397 . S
C353 C354 1.438 . S
C353 C358 1.429 . S
C354 C353 1.438 . S
C354 C355 1.428 . S
C354 C367 1.394 . S
C355 H347 0.949 . S
C355 C354 1.428 . S
C355 C356 1.345 . S
C356 H348 0.950 . S
C356 C355 1.345 . S
C356 C357 1.424 . S
C357 H349 0.951 . S
C357 C356 1.424 . S
C357 C358 1.347 . S
C358 H350 0.951 . S
C358 C353 1.429 . S
C358 C357 1.347 . S
H359 C360 0.951 . S
C360 H359 0.951 . S
C360 C366 1.265 . S
H361 C366 0.950 . S
H362 C370 0.949 . S
H363 C371 0.950 . S
H364 C372 0.951 . S
H365 C373 0.951 . S
C366 C360 1.265 . S
C366 H361 0.950 . S
C366 C367 1.478 . S
C367 C354 1.394 . S
C367 C366 1.478 . S
C367 C368 1.397 . S
C368 C367 1.397 . S
C368 C369 1.438 . S
C368 C373 1.429 . S
C369 C352 1.394 . S
C369 C368 1.438 . S
C369 C370 1.428 . S
C370 H362 0.949 . S
C370 C369 1.428 . S
C370 C371 1.345 . S
C371 H363 0.950 . S
C371 C370 1.345 . S
C371 C372 1.424 . S
C372 H364 0.951 . S
C372 C371 1.424 . S
C372 C373 1.347 . S
C373 H365 0.951 . S
C373 C368 1.429 . S
C373 C372 1.347 . S
H374 C375 0.951 . S
C375 H374 0.951 . S
C375 C381 1.265 . S
H376 C381 0.950 . S
H377 C385 0.949 . S
H378 C386 0.950 . S
H379 C387 0.951 . S
H380 C388 0.951 . S
C381 C375 1.265 . S
C381 H376 0.950 . S
C381 C382 1.478 . S
C382 C381 1.478 . S
C382 C383 1.397 . S
C382 C399 1.394 . S
C383 C382 1.397 . S
C383 C384 1.438 . S
C383 C388 1.429 . S
C384 C383 1.438 . S
C384 C385 1.428 . S
C384 C397 1.394 . S
C385 H377 0.949 . S
C385 C384 1.428 . S
C385 C386 1.345 . S
C386 H378 0.950 . S
C386 C385 1.345 . S
C386 C387 1.424 . S
C387 H379 0.951 . S
C387 C386 1.424 . S
C387 C388 1.347 . S
C388 H380 0.951 . S
C388 C383 1.429 . S
C388 C387 1.347 . S
H389 C390 0.951 . S
C390 H389 0.951 . S
C390 C396 1.265 . S
H391 C396 0.950 . S
H392 C400 0.949 . S
H393 C401 0.950 . S
H394 C402 0.951 . S
H395 C403 0.951 . S
C396 C390 1.265 . S
C396 H391 0.950 . S
C396 C397 1.478 . S
C397 C384 1.394 . S
C397 C396 1.478 . S
C397 C398 1.397 . S
C398 C397 1.397 . S
C398 C399 1.438 . S
C398 C403 1.429 . S
C399 C382 1.394 . S
C399 C398 1.438 . S
C399 C400 1.428 . S
C400 H392 0.949 . S
C400 C399 1.428 . S
C400 C401 1.345 . S
C401 H393 0.950 . S
C401 C400 1.345 . S
C401 C402 1.424 . S
C402 H394 0.951 . S
C402 C401 1.424 . S
C402 C403 1.347 . S
C403 H395 0.951 . S
C403 C398 1.429 . S
C403 C402 1.347 . S
H404 C405 0.951 . S
C405 H404 0.951 . S
C405 C411 1.265 . S
H406 C411 0.950 . S
H407 C415 0.949 1_545 S
H408 C416 0.950 . S
H409 C417 0.951 . S
H410 C418 0.951 . S
C411 C405 1.265 . S
C411 H406 0.950 . S
C411 C412 1.478 . S
C412 C411 1.478 . S
C412 C413 1.397 . S
C412 C429 1.394 . S
C413 C412 1.397 . S
C413 C414 1.438 . S
C413 C418 1.429 . S
C414 C413 1.438 . S
C414 C415 1.428 . S
C414 C427 1.394 . S
C415 H407 0.949 1_565 S
C415 C414 1.428 . S
C415 C416 1.345 1_565 S
C416 H408 0.950 . S
C416 C415 1.345 1_545 S
C416 C417 1.424 . S
C417 H409 0.951 . S
C417 C416 1.424 . S
C417 C418 1.347 1_545 S
C418 H410 0.951 . S
C418 C413 1.429 . S
C418 C417 1.347 1_565 S
H419 C420 0.951 . S
C420 H419 0.951 . S
C420 C426 1.265 . S
H421 C426 0.950 . S
H422 C430 0.949 . S
H423 C431 0.950 . S
H424 C432 0.951 . S
H425 C433 0.951 . S
C426 C420 1.265 . S
C426 H421 0.950 . S
C426 C427 1.478 . S
C427 C414 1.394 . S
C427 C426 1.478 . S
C427 C428 1.397 . S
C428 C427 1.397 . S
C428 C429 1.438 . S
C428 C433 1.429 . S
C429 C412 1.394 . S
C429 C428 1.438 . S
C429 C430 1.428 . S
C430 H422 0.949 . S
C430 C429 1.428 . S
C430 C431 1.345 . S
C431 H423 0.950 . S
C431 C430 1.345 . S
C431 C432 1.424 . S
C432 H424 0.951 . S
C432 C431 1.424 . S
C432 C433 1.347 . S
C433 H425 0.951 . S
C433 C428 1.429 . S
C433 C432 1.347 . S
H434 C435 0.951 . S
C435 H434 0.951 . S
C435 C441 1.265 . S
H436 C441 0.950 . S
H437 C445 0.949 . S
H438 C446 0.950 . S
H439 C447 0.951 . S
H440 C448 0.951 . S
C441 C435 1.265 . S
C441 H436 0.950 . S
C441 C442 1.478 . S
C442 C441 1.478 . S
C442 C443 1.397 . S
C442 C459 1.394 . S
C443 C442 1.397 . S
C443 C444 1.438 . S
C443 C448 1.429 . S
C444 C443 1.438 . S
C444 C445 1.428 . S
C444 C457 1.394 . S
C445 H437 0.949 . S
C445 C444 1.428 . S
C445 C446 1.345 . S
C446 H438 0.950 . S
C446 C445 1.345 . S
C446 C447 1.424 . S
C447 H439 0.951 . S
C447 C446 1.424 . S
C447 C448 1.347 . S
C448 H440 0.951 . S
C448 C443 1.429 . S
C448 C447 1.347 . S
H449 C450 0.951 . S
C450 H449 0.951 . S
C450 C456 1.265 . S
H451 C456 0.950 . S
H452 C460 0.949 . S
H453 C461 0.950 . S
H454 C462 0.951 . S
H455 C463 0.951 . S
C456 C450 1.265 . S
C456 H451 0.950 . S
C456 C457 1.478 . S
C457 C444 1.394 . S
C457 C456 1.478 . S
C457 C458 1.397 . S
C458 C457 1.397 . S
C458 C459 1.438 . S
C458 C463 1.429 . S
C459 C442 1.394 . S
C459 C458 1.438 . S
C459 C460 1.428 . S
C460 H452 0.949 . S
C460 C459 1.428 . S
C460 C461 1.345 . S
C461 H453 0.950 . S
C461 C460 1.345 . S
C461 C462 1.424 . S
C462 H454 0.951 . S
C462 C461 1.424 . S
C462 C463 1.347 . S
C463 H455 0.951 . S
C463 C458 1.429 . S
C463 C462 1.347 . S
H464 C465 0.951 . S
C465 H464 0.951 . S
C465 C471 1.265 . S
H466 C471 0.950 . S
H467 C475 0.949 . S
H468 C476 0.950 . S
H469 C477 0.951 . S
H470 C478 0.951 . S
C471 C465 1.265 . S
C471 H466 0.950 . S
C471 C472 1.478 . S
C472 C471 1.478 . S
C472 C473 1.397 . S
C472 C489 1.394 . S
C473 C472 1.397 . S
C473 C474 1.438 . S
C473 C478 1.429 . S
C474 C473 1.438 . S
C474 C475 1.428 . S
C474 C487 1.394 . S
C475 H467 0.949 . S
C475 C474 1.428 . S
C475 C476 1.345 . S
C476 H468 0.950 . S
C476 C475 1.345 . S
C476 C477 1.424 . S
C477 H469 0.951 . S
C477 C476 1.424 . S
C477 C478 1.347 . S
C478 H470 0.951 . S
C478 C473 1.429 . S
C478 C477 1.347 . S
H479 C480 0.951 . S
C480 H479 0.951 . S
C480 C486 1.265 . S
H481 C486 0.950 . S
H482 C490 0.949 . S
H483 C491 0.950 . S
H484 C492 0.951 . S
H485 C493 0.951 . S
C486 C480 1.265 . S
C486 H481 0.950 . S
C486 C487 1.478 . S
C487 C474 1.394 . S
C487 C486 1.478 . S
C487 C488 1.397 . S
C488 C487 1.397 . S
C488 C489 1.438 . S
C488 C493 1.429 . S
C489 C472 1.394 . S
C489 C488 1.438 . S
C489 C490 1.428 . S
C490 H482 0.949 . S
C490 C489 1.428 . S
C490 C491 1.345 . S
C491 H483 0.950 . S
C491 C490 1.345 . S
C491 C492 1.424 . S
C492 H484 0.951 . S
C492 C491 1.424 . S
C492 C493 1.347 . S
C493 H485 0.951 . S
C493 C488 1.429 . S
C493 C492 1.347 . S
H494 C495 0.951 . S
C495 H494 0.951 . S
C495 C501 1.265 . S
H496 C501 0.950 . S
H497 C505 0.949 . S
H498 C506 0.950 . S
H499 C507 0.951 . S
H500 C508 0.951 . S
C501 C495 1.265 . S
C501 H496 0.950 . S
C501 C502 1.478 . S
C502 C501 1.478 . S
C502 C503 1.397 . S
C502 C519 1.394 . S
C503 C502 1.397 . S
C503 C504 1.438 . S
C503 C508 1.429 . S
C504 C503 1.438 . S
C504 C505 1.428 . S
C504 C517 1.394 . S
C505 H497 0.949 . S
C505 C504 1.428 . S
C505 C506 1.345 . S
C506 H498 0.950 . S
C506 C505 1.345 . S
C506 C507 1.424 . S
C507 H499 0.951 . S
C507 C506 1.424 . S
C507 C508 1.347 . S
C508 H500 0.951 . S
C508 C503 1.429 . S
C508 C507 1.347 . S
H509 C510 0.951 . S
C510 H509 0.951 . S
C510 C516 1.265 . S
H511 C516 0.950 . S
H512 C520 0.949 . S
H513 C521 0.950 . S
H514 C522 0.951 . S
H515 C523 0.951 . S
C516 C510 1.265 . S
C516 H511 0.950 . S
C516 C517 1.478 . S
C517 C504 1.394 . S
C517 C516 1.478 . S
C517 C518 1.397 . S
C518 C517 1.397 . S
C518 C519 1.438 . S
C518 C523 1.429 . S
C519 C502 1.394 . S
C519 C518 1.438 . S
C519 C520 1.428 . S
C520 H512 0.949 . S
C520 C519 1.428 . S
C520 C521 1.345 . S
C521 H513 0.950 . S
C521 C520 1.345 . S
C521 C522 1.424 . S
C522 H514 0.951 . S
C522 C521 1.424 . S
C522 C523 1.347 . S
C523 H515 0.951 . S
C523 C518 1.429 . S
C523 C522 1.347 . S
H524 C525 0.951 . S
C525 H524 0.951 . S
C525 C531 1.265 . S
H526 C531 0.950 . S
H527 C535 0.949 . S
H528 C536 0.950 . S
H529 C537 0.951 . S
H530 C538 0.951 . S
C531 C525 1.265 . S
C531 H526 0.950 . S
C531 C532 1.478 . S
C532 C531 1.478 . S
C532 C533 1.397 . S
C532 C549 1.394 . S
C533 C532 1.397 . S
C533 C534 1.438 . S
C533 C538 1.429 . S
C534 C533 1.438 . S
C534 C535 1.428 . S
C534 C547 1.394 . S
C535 H527 0.949 . S
C535 C534 1.428 . S
C535 C536 1.345 . S
C536 H528 0.950 . S
C536 C535 1.345 . S
C536 C537 1.424 . S
C537 H529 0.951 . S
C537 C536 1.424 . S
C537 C538 1.347 . S
C538 H530 0.951 . S
C538 C533 1.429 . S
C538 C537 1.347 . S
H539 C540 0.951 . S
C540 H539 0.951 . S
C540 C546 1.265 . S
H541 C546 0.950 . S
H542 C550 0.949 . S
H543 C551 0.950 . S
H544 C552 0.951 . S
H545 C553 0.951 . S
C546 C540 1.265 . S
C546 H541 0.950 . S
C546 C547 1.478 . S
C547 C534 1.394 . S
C547 C546 1.478 . S
C547 C548 1.397 . S
C548 C547 1.397 . S
C548 C549 1.438 . S
C548 C553 1.429 1_545 S
C549 C532 1.394 . S
C549 C548 1.438 . S
C549 C550 1.428 . S
C550 H542 0.949 . S
C550 C549 1.428 . S
C550 C551 1.345 1_545 S
C551 H543 0.950 . S
C551 C550 1.345 1_565 S
C551 C552 1.424 . S
C552 H544 0.951 . S
C552 C551 1.424 . S
C552 C553 1.347 . S
C553 H545 0.951 . S
C553 C548 1.429 1_565 S
C553 C552 1.347 . S
H554 C555 0.951 . S
C555 H554 0.951 . S
C555 C561 1.265 . S
H556 C561 0.950 . S
H557 C565 0.949 . S
H558 C566 0.950 . S
H559 C567 0.951 1_455 S
H560 C568 0.951 . S
C561 C555 1.265 . S
C561 H556 0.950 . S
C561 C562 1.478 . S
C562 C561 1.478 . S
C562 C563 1.397 . S
C562 C579 1.394 . S
C563 C562 1.397 . S
C563 C564 1.438 . S
C563 C568 1.429 . S
C564 C563 1.438 . S
C564 C565 1.428 . S
C564 C577 1.394 . S
C565 H557 0.949 . S
C565 C564 1.428 . S
C565 C566 1.345 . S
C566 H558 0.950 . S
C566 C565 1.345 . S
C566 C567 1.424 . S
C567 H559 0.951 1_655 S
C567 C566 1.424 . S
C567 C568 1.347 . S
C568 H560 0.951 . S
C568 C563 1.429 . S
C568 C567 1.347 . S
H569 C570 0.951 . S
C570 H569 0.951 . S
C570 C576 1.265 . S
H571 C576 0.950 . S
H572 C580 0.949 . S
H573 C581 0.950 . S
H574 C582 0.951 . S
H575 C583 0.951 . S
C576 C570 1.265 . S
C576 H571 0.950 . S
C576 C577 1.478 . S
C577 C564 1.394 . S
C577 C576 1.478 . S
C577 C578 1.397 . S
C578 C577 1.397 . S
C578 C579 1.438 . S
C578 C583 1.429 . S
C579 C562 1.394 . S
C579 C578 1.438 . S
C579 C580 1.428 . S
C580 H572 0.949 . S
C580 C579 1.428 . S
C580 C581 1.345 . S
C581 H573 0.950 . S
C581 C580 1.345 . S
C581 C582 1.424 . S
C582 H574 0.951 . S
C582 C581 1.424 . S
C582 C583 1.347 . S
C583 H575 0.951 . S
C583 C578 1.429 . S
C583 C582 1.347 . S
C105 C56 1.746 . S
C120 C10 1.746 . S
C135 C17 1.686 . S
C150 C69 1.686 . S
C165 C36 1.691 . S
C180 C88 1.691 . S
C195 C95 1.670 . S
C210 C43 1.670 . S
C225 C4 1.682 . S
C240 C30 1.678 . S
C255 C23 1.661 . S
C270 C49 1.659 . S
C285 C82 1.681 . S
C300 C62 1.678 . S
C315 C75 1.662 . S
C330 C101 1.659 . S
C345 C70 0.971 . S
C360 C5 1.060 . S
C375 C16 1.098 . S
C390 C81 1.076 . S
C405 C31 1.051 . S
C420 C96 0.968 . S
C435 C57 0.994 . S
C450 C42 1.025 . S
C465 C55 1.035 . S
C480 C18 1.026 . S
C495 C68 1.054 . S
C510 C29 0.973 . S
C525 C83 1.070 . S
C540 C44 0.993 . S
C555 C3 1.058 . S
C570 C94 1.083 . S
