# Generated by pormake.
# Topology oof, (8)-cn, num edge types: 1
# Building blocks:
#     Node 0, Type 0, BuildingBlock: TAGTUT_clean_sbu_1, # of connection points: 8
#     Node 1, Type 0, BuildingBlock: TAGTUT_clean_sbu_1, # of connection points: 8
#     Node 2, Type 0, BuildingBlock: TAGTUT_clean_sbu_1, # of connection points: 8
#     Node 3, Type 0, BuildingBlock: TAGTUT_clean_sbu_1, # of connection points: 8
#     Edge 4, Type (0, 0), BuildingBlock: UVAHIK_clean_linker_0, # of connection points: 2
#     Edge 5, Type (0, 0), BuildingBlock: UVAHIK_clean_linker_0, # of connection points: 2
#     Edge 6, Type (0, 0), BuildingBlock: UVAHIK_clean_linker_0, # of connection points: 2
#     Edge 7, Type (0, 0), BuildingBlock: UVAHIK_clean_linker_0, # of connection points: 2
#     Edge 8, Type (0, 0), BuildingBlock: UVAHIK_clean_linker_0, # of connection points: 2
#     Edge 9, Type (0, 0), BuildingBlock: UVAHIK_clean_linker_0, # of connection points: 2
#     Edge 10, Type (0, 0), BuildingBlock: UVAHIK_clean_linker_0, # of connection points: 2
#     Edge 11, Type (0, 0), BuildingBlock: UVAHIK_clean_linker_0, # of connection points: 2
#     Edge 12, Type (0, 0), BuildingBlock: UVAHIK_clean_linker_0, # of connection points: 2
#     Edge 13, Type (0, 0), BuildingBlock: UVAHIK_clean_linker_0, # of connection points: 2
#     Edge 14, Type (0, 0), BuildingBlock: UVAHIK_clean_linker_0, # of connection points: 2
#     Edge 15, Type (0, 0), BuildingBlock: UVAHIK_clean_linker_0, # of connection points: 2
#     Edge 16, Type (0, 0), BuildingBlock: UVAHIK_clean_linker_0, # of connection points: 2
#     Edge 17, Type (0, 0), BuildingBlock: UVAHIK_clean_linker_0, # of connection points: 2
#     Edge 18, Type (0, 0), BuildingBlock: UVAHIK_clean_linker_0, # of connection points: 2
#     Edge 19, Type (0, 0), BuildingBlock: UVAHIK_clean_linker_0, # of connection points: 2
# Relax obj value: 0.054
# Max RMSD: 0.156
# Mean RMSD: 0.156
data_MOF--net-oof--node1-TAGTUT_clean_sbu_1--edge1-UVAHIK_clean_linker_0
_symmetry_space_group_name_H-M    P1
_symmetry_Int_Tables_number       1
_symmetry_cell_setting            triclinic
loop_
_symmetry_equiv_pos_as_xyz
'x, y, z'
_cell_length_a     19.533524
_cell_length_b     69.484042
_cell_length_c     23.87334
_cell_angle_alpha  91.439534
_cell_angle_beta   102.75064
_cell_angle_gamma 102.87035
loop_
_atom_site_label
_atom_site_type_symbol
_atom_site_fract_x
_atom_site_fract_y
_atom_site_fract_z
_atom_type_partial_charge
C0 C 0.01274 0.11127 0.43436 0.0
C1 C 0.04734 0.07995 0.29748 0.0
C2 C 0.15509 0.15428 0.23145 0.0
Mg3 Mg 0.93095 0.10094 0.30645 0.0
O4 O -0.01201 0.12594 0.30158 0.0
Mg5 Mg 0.09452 0.1298 0.33129 0.0
Mg6 Mg -0.01248 0.13508 0.22336 0.0
O7 O -0.01442 0.1441 0.14495 0.0
Mg8 Mg 0.03839 0.16929 0.13598 0.0
Mg9 Mg 0.879 0.13714 0.11106 0.0
C10 C 0.81577 0.11671 0.21588 0.0
C11 C 0.9333 0.09615 0.13083 0.0
O12 O 0.06754 0.12124 0.4178 0.0
O13 O 0.95382 0.10247 0.3989 0.0
O14 O 0.09318 0.09642 0.31546 0.0
O15 O 0.98054 0.07936 0.27876 0.0
O16 O 0.82935 0.10443 0.25376 0.0
O17 O 0.86587 0.12995 0.20305 0.0
C18 C 0.05353 0.17264 0.31883 0.0
O19 O 0.01036 0.16681 0.26921 0.0
O20 O 0.08922 0.16139 0.34798 0.0
O21 O 0.90933 0.14444 0.02467 0.0
O22 O 0.02193 0.164 0.04451 0.0
O23 O 0.86901 0.16946 0.12296 0.0
C24 C 0.96538 0.15395 0.00876 0.0
O25 O 0.97675 0.19061 0.14879 0.0
O26 O 0.13933 0.16695 0.19509 0.0
C27 C 0.90782 0.18709 0.13619 0.0
O28 O 0.10721 0.13963 0.24116 0.0
O29 O 0.97193 0.10384 0.18022 0.0
O30 O 0.89299 0.1056 0.09839 0.0
C31 C 0.03332 0.86852 0.98112 0.0
C32 C 0.08766 0.83383 0.855 0.0
C33 C 0.18451 0.90242 0.77061 0.0
Mg34 Mg 0.95953 0.85278 0.85441 0.0
O35 O 0.01382 0.87762 0.84456 0.0
Mg36 Mg 0.12063 0.88392 0.87811 0.0
Mg37 Mg 0.01162 0.88656 0.76596 0.0
O38 O 0.01179 0.89571 0.68785 0.0
Mg39 Mg 0.07233 0.92029 0.68369 0.0
Mg40 Mg 0.90589 0.89313 0.65918 0.0
C41 C 0.84482 0.86795 0.75712 0.0
C42 C 0.94006 0.84943 0.66969 0.0
O43 O 0.09016 0.87741 0.96507 0.0
O44 O 0.97613 0.8587 0.94556 0.0
O45 O 0.1278 0.85134 0.86729 0.0
O46 O 0.01886 0.83076 0.84286 0.0
O47 O 0.86039 0.85527 0.79345 0.0
O48 O 0.89209 0.88308 0.74897 0.0
C49 C 0.07099 0.92555 0.85841 0.0
O50 O 0.03123 0.91793 0.80934 0.0
O51 O 0.11049 0.91584 0.89054 0.0
O52 O 0.93291 0.90164 0.57258 0.0
O53 O 0.04806 0.91941 0.59131 0.0
O54 O 0.91322 0.92685 0.67667 0.0
C55 C -0.01175 0.91123 0.55595 0.0
O56 O 0.02754 0.94258 0.71365 0.0
O57 O 0.17291 0.91506 0.73341 0.0
C58 C 0.96146 0.94288 0.69513 0.0
O59 O 0.13279 0.89032 0.7852 0.0
O60 O -0.01606 0.85479 0.71929 0.0
O61 O 0.90629 0.8612 0.64115 0.0
C62 C 0.52072 0.61111 0.43855 0.0
C63 C 0.54816 0.57937 0.29972 0.0
C64 C 0.66392 0.65418 0.23724 0.0
Mg65 Mg 0.43688 0.60184 0.31076 0.0
O66 O 0.49702 0.62646 0.30655 0.0
Mg67 Mg 0.60303 0.62915 0.33531 0.0
Mg68 Mg 0.49697 0.63559 0.22839 0.0
O69 O 0.49484 0.64455 0.14984 0.0
Mg70 Mg 0.54924 0.66942 0.14021 0.0
Mg71 Mg 0.38806 0.63832 0.11643 0.0
C72 C 0.32432 0.61957 0.22365 0.0
C73 C 0.43733 0.59663 0.13589 0.0
O74 O 0.57605 0.62072 0.42195 0.0
O75 O 0.46106 0.60283 0.40316 0.0
O76 O 0.59622 0.59542 0.31828 0.0
O77 O 0.48211 0.57963 0.28087 0.0
O78 O 0.33624 0.60694 0.26079 0.0
O79 O 0.37578 0.63184 0.20924 0.0
C80 C 0.56839 0.67279 0.32447 0.0
O81 O 0.52449 0.66737 0.27492 0.0
O82 O 0.60233 0.66107 0.35308 0.0
O83 O 0.41849 0.6449 0.0295 0.0
O84 O 0.53251 0.66361 0.049 0.0
O85 O 0.38107 0.6709 0.12747 0.0
C86 C 0.47527 0.65383 0.01343 0.0
O87 O 0.49005 0.69146 0.152 0.0
O88 O 0.64853 0.6669 0.20099 0.0
C89 C 0.42125 0.6884 0.13986 0.0
O90 O 0.61643 0.63911 0.24536 0.0
O91 O 0.47727 0.60419 0.18496 0.0
O92 O 0.39797 0.6064 0.10388 0.0
C93 C 0.51838 0.36725 0.98195 0.0
C94 C 0.56922 0.33218 0.85466 0.0
C95 C 0.66652 0.39954 0.76903 0.0
Mg96 Mg 0.44258 0.35159 0.85565 0.0
O97 O 0.49651 0.3763 0.84508 0.0
Mg98 Mg 0.60361 0.38223 0.87755 0.0
Mg99 Mg 0.49361 0.38516 0.76612 0.0
O100 O 0.49446 0.39431 0.68823 0.0
Mg101 Mg 0.55695 0.41873 0.68483 0.0
Mg102 Mg 0.3891 0.39218 0.65948 0.0
C103 C 0.32742 0.36688 0.75822 0.0
C104 C 0.42005 0.34815 0.66967 0.0
O105 O 0.57493 0.376 0.96528 0.0
O106 O 0.46059 0.35755 0.94683 0.0
O107 O 0.60992 0.34962 0.86652 0.0
O108 O 0.50051 0.32929 0.84328 0.0
O109 O 0.3442 0.35444 0.795 0.0
O110 O 0.37395 0.38209 0.74929 0.0
C111 C 0.55594 0.42414 0.85844 0.0
O112 O 0.51527 0.4166 0.80962 0.0
O113 O 0.59519 0.41429 0.89017 0.0
O114 O 0.41713 0.40056 0.57312 0.0
O115 O 0.53273 0.41802 0.59249 0.0
O116 O 0.39895 0.42606 0.6772 0.0
C117 C 0.47297 0.41001 0.55686 0.0
O118 O 0.51363 0.44129 0.71517 0.0
O119 O 0.65711 0.41261 0.73287 0.0
C120 C 0.44795 0.44192 0.69607 0.0
O121 O 0.61383 0.38815 0.78423 0.0
O122 O 0.46401 0.35335 0.7193 0.0
O123 O 0.38727 0.36011 0.64116 0.0
C124 C 0.9092 0.13927 0.90804 0.0
C125 C 0.96774 0.15148 0.94776 0.0
C126 C 0.91537 0.1346 0.85254 0.0
C127 C 0.02299 0.14963 0.7459 0.0
H128 H 0.95433 0.09433 0.6885 0.0
C129 C 0.07723 0.12235 0.53637 0.0
C130 C 0.01542 0.11159 0.49656 0.0
C131 C 0.07578 0.12543 0.59391 0.0
C132 C 0.9735 0.10982 0.704 0.0
H133 H 0.0773 0.16923 0.95939 0.0
H134 H 0.08795 0.16097 0.86268 0.0
H135 H 0.93931 0.10478 0.7826 0.0
H136 H 0.9056 0.09426 0.48682 0.0
H137 H 0.90308 0.09983 0.58724 0.0
H138 H 0.05678 0.15471 0.66729 0.0
C139 C 0.03731 0.15506 0.87445 0.0
C140 C 0.96458 0.11581 0.75756 0.0
C141 C 0.03119 0.15974 0.92992 0.0
C142 C 0.95394 0.10277 0.51628 0.0
C143 C 0.95255 0.10586 0.57387 0.0
C144 C 0.032 0.14363 0.69246 0.0
C145 C 0.98007 0.14209 0.83574 0.0
C146 C -0.01108 0.13579 0.77881 0.0
C147 C 0.01262 0.11779 0.61267 0.0
C148 C 0.00711 0.12369 0.67096 0.0
H149 H 0.85936 0.13276 0.92025 0.0
H150 H 0.8699 0.12488 0.82306 0.0
H151 H 0.04153 0.16515 0.76101 0.0
H152 H 0.12584 0.12912 0.52277 0.0
H153 H 0.12329 0.13436 0.62336 0.0
C154 C 0.92278 0.90069 0.45384 0.0
C155 C -0.01502 0.91123 0.49367 0.0
C156 C 0.92373 0.89784 0.39609 0.0
C157 C 0.02547 0.91358 0.28566 0.0
H158 H 0.95731 0.85826 0.2285 0.0
C159 C 0.08927 0.88388 0.08129 0.0
C160 C 0.03091 0.87143 0.04198 0.0
C161 C 0.08306 0.88879 0.13662 0.0
C162 C 0.97585 0.87378 0.24361 0.0
H163 H 0.09486 0.92849 0.50328 0.0
H164 H 0.09649 0.92333 0.4025 0.0
H165 H 0.94226 0.86866 0.32227 0.0
H166 H 0.92151 0.85363 0.03089 0.0
H167 H 0.91077 0.86231 0.1272 0.0
H168 H 0.05947 0.91865 0.20697 0.0
C169 C 0.04714 0.91727 0.416 0.0
C170 C 0.96695 0.87975 0.2971 0.0
C171 C 0.04627 0.92012 0.47381 0.0
C172 C 0.9675 0.86328 0.06003 0.0
C173 C 0.96134 0.86821 0.11529 0.0
C174 C 0.03423 0.90761 0.232 0.0
C175 C -0.01326 0.90551 0.37715 0.0
C176 C -0.00809 0.89968 0.31869 0.0
C177 C 0.0185 0.88132 0.15367 0.0
C178 C 0.00981 0.88763 0.21066 0.0
H179 H 0.87431 0.89387 0.46756 0.0
H180 H 0.87598 0.88903 0.36661 0.0
H181 H 0.04476 0.92905 0.30127 0.0
H182 H 0.13902 0.89033 0.06887 0.0
H183 H 0.12845 0.89864 0.16583 0.0
C184 C 0.41907 0.63861 0.91316 0.0
C185 C 0.47752 0.65102 0.9525 0.0
C186 C 0.42512 0.63378 0.85773 0.0
C187 C 0.53205 0.64887 0.75061 0.0
H188 H 0.46351 0.5936 0.693 0.0
C189 C 0.58576 0.62188 0.54064 0.0
C190 C 0.52375 0.61124 0.5008 0.0
C191 C 0.58457 0.62482 0.5983 0.0
C192 C 0.48267 0.60907 0.70858 0.0
H193 H 0.58688 0.66884 0.96355 0.0
H194 H 0.59733 0.66029 0.86705 0.0
H195 H 0.44875 0.60397 0.78728 0.0
H196 H 0.4139 0.59394 0.49111 0.0
H197 H 0.41185 0.59926 0.59173 0.0
H198 H 0.5656 0.65402 0.67193 0.0
C199 C 0.54683 0.65437 0.87902 0.0
C200 C 0.47388 0.61503 0.76224 0.0
C201 C 0.54083 0.65922 0.93439 0.0
C202 C 0.46237 0.60237 0.52059 0.0
C203 C 0.46125 0.60531 0.5783 0.0
C204 C 0.54097 0.64292 0.69711 0.0
C205 C 0.4896 0.64129 0.84061 0.0
C206 C 0.4982 0.63501 0.78357 0.0
C207 C 0.52149 0.61714 0.61715 0.0
C208 C 0.51615 0.62299 0.67554 0.0
H209 H 0.36938 0.63212 0.92562 0.0
H210 H 0.37968 0.62396 0.8285 0.0
H211 H 0.55051 0.6644 0.76573 0.0
H212 H 0.63428 0.62869 0.52698 0.0
H213 H 0.63219 0.63368 0.62777 0.0
C214 C 0.57575 0.38264 0.08192 0.0
C215 C 0.51711 0.37011 0.04307 0.0
C216 C 0.57049 0.38745 0.13761 0.0
C217 C 0.4654 0.37216 0.24592 0.0
H218 H 0.53208 0.42752 0.30284 0.0
C219 C 0.40891 0.3992 0.4546 0.0
C220 C 0.47049 0.40992 0.4947 0.0
C221 C 0.41082 0.39622 0.39711 0.0
C222 C 0.51346 0.41202 0.28744 0.0
H223 H 0.4083 0.35205 0.03315 0.0
H224 H 0.39917 0.36058 0.13 0.0
H225 H 0.54712 0.41714 0.20864 0.0
H226 H 0.58023 0.42738 0.50499 0.0
H227 H 0.58348 0.42203 0.40463 0.0
H228 H 0.43192 0.36701 0.32462 0.0
C229 C 0.44924 0.3666 0.1175 0.0
C230 C 0.52243 0.40606 0.23385 0.0
C231 C 0.45446 0.36178 0.0619 0.0
C232 C 0.5321 0.41887 0.4753 0.0
C233 C 0.53391 0.41591 0.41775 0.0
C234 C 0.45626 0.37812 0.29933 0.0
C235 C 0.50662 0.37979 0.15545 0.0
C236 C 0.49862 0.38606 0.21271 0.0
C237 C 0.47416 0.40397 0.3787 0.0
C238 C 0.48027 0.39809 0.32058 0.0
H239 H 0.62493 0.38924 0.06887 0.0
H240 H 0.61602 0.39737 0.16645 0.0
H241 H 0.44738 0.35661 0.23098 0.0
H242 H 0.36024 0.39231 0.46795 0.0
H243 H 0.36356 0.38728 0.36744 0.0
C244 C 0.68494 0.10324 0.20822 0.0
C245 C 0.74025 0.1178 0.19495 0.0
C246 C 0.61798 0.10721 0.20702 0.0
C247 C 0.5551 0.15065 0.2364 0.0
H248 H 0.36784 0.11389 0.20699 0.0
C249 C 0.28512 0.16968 0.24048 0.0
C250 C 0.2317 0.15472 0.25468 0.0
C251 C 0.3539 0.16668 0.24357 0.0
C252 C 0.42029 0.12416 0.21641 0.0
H253 H 0.76554 0.14661 0.16133 0.0
H254 H 0.64796 0.15339 0.15826 0.0
H255 H 0.46612 0.10447 0.1741 0.0
H256 H 0.21176 0.1266 0.29313 0.0
H257 H 0.33216 0.12151 0.29887 0.0
H258 H 0.50878 0.1704 0.27829 0.0
C259 C 0.6573 0.1392 0.17141 0.0
C260 C 0.47607 0.11886 0.19693 0.0
C261 C 0.72436 0.13523 0.17264 0.0
C262 C 0.25126 0.13819 0.28055 0.0
C263 C 0.32004 0.1352 0.28361 0.0
C264 C 0.49914 0.15599 0.2557 0.0
C265 C 0.60543 0.12574 0.19216 0.0
C266 C 0.54399 0.13203 0.20688 0.0
C267 C 0.36988 0.14876 0.26121 0.0
C268 C 0.43146 0.14273 0.24612 0.0
H269 H 0.69525 0.08949 0.2245 0.0
H270 H 0.57871 0.09649 0.22285 0.0
H271 H 0.60755 0.16091 0.24588 0.0
H272 H 0.27208 0.18282 0.22171 0.0
H273 H 0.3918 0.17746 0.22662 0.0
C274 C 0.71758 0.84845 0.73153 0.0
C275 C 0.76859 0.86597 0.7287 0.0
C276 C 0.64465 0.84845 0.72152 0.0
C277 C 0.5126 0.87978 0.68416 0.0
H278 H 0.46387 0.86325 0.82753 0.0
C279 C 0.31521 0.91269 0.77334 0.0
C280 C 0.25732 0.89878 0.78551 0.0
C281 C 0.37694 0.9069 0.76692 0.0
C282 C 0.47634 0.86773 0.78709 0.0
H283 H 0.78289 0.89621 0.70413 0.0
H284 H 0.65604 0.89634 0.68784 0.0
H285 H 0.56388 0.85348 0.79857 0.0
H286 H 0.22226 0.86866 0.80796 0.0
H287 H 0.33051 0.85865 0.79733 0.0
H288 H 0.42639 0.89462 0.6739 0.0
C289 C 0.6719 0.88262 0.6979 0.0
C290 C 0.53296 0.86197 0.77006 0.0
C291 C 0.7448 0.88259 0.7076 0.0
C292 C 0.26594 0.87972 0.7985 0.0
C293 C 0.32773 0.87392 0.79197 0.0
C294 C 0.45606 0.88558 0.70127 0.0
C295 C 0.62215 0.86598 0.70883 0.0
C296 C 0.55283 0.86839 0.71922 0.0
C297 C 0.38162 0.88717 0.7728 0.0
C298 C 0.43894 0.88007 0.75369 0.0
H299 H 0.73441 0.83522 0.74605 0.0
H300 H 0.60685 0.83527 0.72864 0.0
H301 H 0.5265 0.88478 0.64461 0.0
H302 H 0.31044 0.92759 0.76407 0.0
H303 H 0.41913 0.91755 0.75398 0.0
C304 C 0.7914 0.6735 0.2626 0.0
C305 C 0.7401 0.65605 0.26557 0.0
C306 C 0.86418 0.67336 0.27238 0.0
C307 C -0.00453 0.64182 0.30939 0.0
H308 H 0.04335 0.65805 0.1655 0.0
C309 C 0.19367 0.60902 0.22095 0.0
C310 C 0.25121 0.623 0.20852 0.0
C311 C 0.13158 0.61468 0.22706 0.0
C312 C 0.03111 0.65365 0.20607 0.0
H313 H 0.72522 0.62582 0.29024 0.0
H314 H 0.85185 0.62545 0.30618 0.0
H315 H 0.94369 0.66794 0.19468 0.0
H316 H 0.28522 0.65305 0.18515 0.0
H317 H 0.17645 0.66283 0.19535 0.0
H318 H 0.08166 0.62698 0.31966 0.0
C319 C 0.8363 0.63922 0.29615 0.0
C320 C 0.9747 0.65948 0.22322 0.0
C321 C 0.76353 0.63938 0.28666 0.0
C322 C 0.24187 0.64195 0.1949 0.0
C323 C 0.17974 0.64762 0.20114 0.0
C324 C 0.05184 0.63597 0.29218 0.0
C325 C 0.88624 0.65576 0.28502 0.0
C326 C 0.95521 0.6532 0.2743 0.0
C327 C 0.12622 0.63434 0.22063 0.0
C328 C 0.06871 0.64138 0.23961 0.0
H329 H 0.77485 0.68677 0.24808 0.0
H330 H 0.90217 0.68647 0.2651 0.0
H331 H 0.9818 0.63691 0.34911 0.0
H332 H 0.19896 0.5942 0.23067 0.0
H333 H 0.08969 0.604 0.24024 0.0
C334 C 0.79965 0.40642 0.7842 0.0
C335 C 0.73307 0.3928 0.77508 0.0
C336 C 0.85886 0.40059 0.77179 0.0
C337 C 0.91687 0.35633 0.72053 0.0
H338 H 0.06229 0.39857 0.68379 0.0
C339 C 0.22738 0.37678 0.68833 0.0
C340 C 0.25094 0.36385 0.72846 0.0
C341 C 0.15385 0.37616 0.67024 0.0
C342 C 0.02138 0.38635 0.69179 0.0
H343 H 0.67566 0.36236 0.74854 0.0
H344 H 0.77561 0.35259 0.7224 0.0
H345 H 0.95646 0.40599 0.70531 0.0
H346 H 0.21566 0.33842 0.77498 0.0
H347 H 0.0907 0.33839 0.74811 0.0
H348 H 0.97816 0.33639 0.70106 0.0
C349 C 0.78504 0.36746 0.74168 0.0
C350 C 0.96125 0.39079 0.70641 0.0
C351 C 0.72719 0.37305 0.75685 0.0
C352 C 0.1996 0.34898 0.74512 0.0
C353 C 0.12681 0.34876 0.72865 0.0
C354 C 0.97502 0.35174 0.70286 0.0
C355 C 0.85114 0.38134 0.74695 0.0
C356 C 0.91038 0.37606 0.72447 0.0
C357 C 0.10321 0.36313 0.69377 0.0
C358 C 0.03081 0.36686 0.69238 0.0
H359 H 0.80492 0.42175 0.79818 0.0
H360 H 0.90964 0.4115 0.77952 0.0
H361 H 0.87918 0.34435 0.73337 0.0
H362 H 0.26547 0.3881 0.67347 0.0
H363 H 0.13759 0.38684 0.64101 0.0
C364 C 0.41047 0.32546 0.58587 0.0
C365 C 0.40331 0.32789 0.64266 0.0
C366 C 0.37353 0.30818 0.55129 0.0
C367 C 0.26522 0.25691 0.54978 0.0
H368 H 0.17113 0.26741 0.39642 0.0
C369 C 0.05684 0.19508 0.40138 0.0
C370 C 0.06601 0.19284 0.34511 0.0
C371 C 0.09127 0.21251 0.43611 0.0
C372 C 0.19734 0.26419 0.43888 0.0
H373 H 0.35489 0.31395 0.70901 0.0
H374 H 0.29007 0.28345 0.6486 0.0
H375 H 0.25179 0.29456 0.46221 0.0
H376 H 0.11496 0.20727 0.27968 0.0
H377 H 0.17538 0.23798 0.3403 0.0
H378 H 0.21094 0.22654 0.52641 0.0
C379 C 0.32503 0.29482 0.63091 0.0
C380 C 0.24392 0.27974 0.47661 0.0
C381 C 0.36263 0.31217 0.66577 0.0
C382 C 0.1057 0.20888 0.32249 0.0
C383 C 0.14078 0.22637 0.35749 0.0
C384 C 0.21864 0.24136 0.51204 0.0
C385 C 0.32765 0.29302 0.57248 0.0
C386 C 0.27876 0.27629 0.53247 0.0
C387 C 0.1366 0.22799 0.41559 0.0
C388 C 0.18406 0.2448 0.45609 0.0
H389 H 0.44088 0.33753 0.56697 0.0
H390 H 0.37828 0.30709 0.50703 0.0
H391 H 0.29158 0.25369 0.59219 0.0
H392 H 0.02719 0.18277 0.41993 0.0
H393 H 0.08536 0.21344 0.48009 0.0
C394 C 0.67874 0.31827 0.88281 0.0
C395 C 0.60304 0.31512 0.86746 0.0
C396 C 0.71145 0.30395 0.91019 0.0
C397 C 0.67935 0.25166 0.94815 0.0
H398 H 0.83395 0.27309 0.08207 0.0
C399 C 0.79607 0.20004 0.10764 0.0
C400 C 0.8719 0.20377 0.12373 0.0
C401 C 0.76193 0.21419 0.08078 0.0
C402 C 0.79129 0.26684 0.04462 0.0
H403 H 0.50267 0.29361 0.86438 0.0
H404 H 0.55975 0.26865 0.91176 0.0
H405 H 0.77911 0.29549 0.01974 0.0
H406 H 0.97084 0.22607 0.12851 0.0
H407 H 0.91144 0.25066 0.0818 0.0
H408 H 0.69175 0.22301 0.97283 0.0
C409 C 0.59387 0.28224 0.90292 0.0
C410 C 0.75999 0.27969 0.00865 0.0
C411 C 0.56107 0.29658 0.8755 0.0
C412 C 0.91239 0.22265 0.11683 0.0
C413 C 0.8782 0.23679 0.08981 0.0
C414 C 0.71077 0.2388 0.98405 0.0
C415 C 0.66938 0.2861 0.92275 0.0
C416 C 0.70376 0.27228 0.95984 0.0
C417 C 0.80268 0.23243 0.06935 0.0
C418 C 0.76722 0.24621 0.03278 0.0
H419 H 0.71292 0.33227 0.87679 0.0
H420 H 0.76981 0.30718 0.92343 0.0
H421 H 0.63663 0.24544 0.9107 0.0
H422 H 0.763 0.18575 0.11275 0.0
H423 H 0.70357 0.21054 0.0671 0.0
C424 C 0.57781 0.69543 0.40834 0.0
C425 C 0.58381 0.69304 0.35122 0.0
C426 C 0.61388 0.71289 0.44238 0.0
C427 C 0.71774 0.76456 0.44201 0.0
H428 H 0.81799 0.75465 0.59409 0.0
C429 C 0.93019 0.82681 0.58567 0.0
C430 C 0.92438 0.82918 0.64285 0.0
C431 C 0.89394 0.80937 0.55159 0.0
C432 C 0.78999 0.75771 0.55201 0.0
H433 H 0.62902 0.70724 0.28369 0.0
H434 H 0.69237 0.73803 0.34317 0.0
H435 H 0.73686 0.7272 0.52972 0.0
H436 H 0.87927 0.81498 0.71042 0.0
H437 H 0.81561 0.78423 0.65089 0.0
H438 H 0.77087 0.79506 0.46431 0.0
C439 C 0.65898 0.72649 0.36156 0.0
C440 C 0.74315 0.74198 0.51509 0.0
C441 C 0.62223 0.70896 0.32723 0.0
C442 C 0.88592 0.81327 0.66683 0.0
C443 C 0.849 0.79576 0.63248 0.0
C444 C 0.76457 0.78028 0.47893 0.0
C445 C 0.65772 0.72827 0.42029 0.0
C446 C 0.70627 0.74521 0.45966 0.0
C447 C 0.8501 0.79399 0.57372 0.0
C448 C 0.80147 0.77705 0.53436 0.0
H449 H 0.54909 0.68322 0.42788 0.0
H450 H 0.61019 0.71394 0.48692 0.0
H451 H 0.68975 0.76761 0.39993 0.0
H452 H 0.95892 0.83901 0.56612 0.0
H453 H 0.89751 0.80832 0.50703 0.0
C454 C 0.31122 0.70208 0.11119 0.0
C455 C 0.38696 0.70535 0.12687 0.0
C456 C 0.27829 0.71635 0.08376 0.0
C457 C 0.31067 0.76871 0.04557 0.0
H458 H 0.15544 0.7473 0.91205 0.0
C459 C 0.19772 0.82017 0.88377 0.0
C460 C 0.12199 0.81689 0.86807 0.0
C461 C 0.23067 0.8059 0.91121 0.0
C462 C 0.19831 0.75354 0.94938 0.0
H463 H 0.48709 0.72702 0.13037 0.0
H464 H 0.42971 0.75185 0.08277 0.0
H465 H 0.20959 0.72488 0.97479 0.0
H466 H 0.02187 0.79521 0.86454 0.0
H467 H 0.07927 0.77038 0.91216 0.0
H468 H 0.29938 0.79737 0.02016 0.0
C469 C 0.39567 0.73822 0.09147 0.0
C470 C 0.22919 0.74067 0.98562 0.0
C471 C 0.42868 0.72395 0.11902 0.0
C472 C 0.08028 0.79828 0.87591 0.0
C473 C 0.1133 0.78402 0.90346 0.0
C474 C 0.27978 0.78157 0.00934 0.0
C475 C 0.32017 0.73427 0.07139 0.0
C476 C 0.28573 0.74808 0.03425 0.0
C477 C 0.1888 0.78798 0.92356 0.0
C478 C 0.22324 0.77416 0.9607 0.0
H479 H 0.27724 0.68802 0.11706 0.0
H480 H 0.21993 0.71303 0.07035 0.0
H481 H 0.35353 0.77495 0.0829 0.0
H482 H 0.2317 0.83423 0.8779 0.0
H483 H 0.28902 0.80922 0.92463 0.0
C484 C 0.89699 0.06784 0.05466 0.0
C485 C 0.94152 0.07695 0.10752 0.0
C486 C 0.91081 0.05133 0.02843 0.0
C487 C 0.01151 0.01166 0.05453 0.0
H488 H -0.00442 0.01108 0.8896 0.0
C489 C 0.11052 0.95402 0.93431 0.0
C490 C 0.06474 0.94496 0.88185 0.0
C491 C 0.0983 0.97074 0.9608 0.0
C492 C -0.00028 0.0109 0.93557 0.0
H493 H 0.0346 0.07536 0.17477 0.0
H494 H 0.05837 0.04655 0.12929 0.0
H495 H 0.96548 0.038 0.93932 0.0
H496 H 0.97095 0.9468 0.8157 0.0
H497 H 0.95015 0.97598 0.86141 0.0
H498 H 0.04569 0.98454 0.05075 0.0
C499 C 0.01232 0.05208 0.10828 0.0
C500 C 0.98224 0.02633 0.96412 0.0
C501 C -0.00148 0.06861 0.13453 0.0
C502 C 0.00813 0.95354 0.85548 0.0
C503 C -0.004 0.97028 0.88191 0.0
C504 C 0.02901 0.99623 0.02597 0.0
C505 C 0.96957 0.04348 0.05426 0.0
C506 C -0.01232 0.02689 0.02397 0.0
C507 C 0.03998 0.97885 0.93554 0.0
C508 C 0.02326 0.99562 0.96608 0.0
H509 H 0.85242 0.07377 0.03264 0.0
H510 H 0.87583 0.04485 0.98743 0.0
H511 H 0.01552 0.01146 0.10048 0.0
H512 H 0.15479 0.94789 0.95588 0.0
H513 H 0.13411 0.97717 0.00153 0.0
C514 C 0.11929 0.06319 0.37155 0.0
C515 C 0.06423 0.06156 0.32119 0.0
C516 C 0.11292 0.0492 0.41235 0.0
C517 C 0.00091 1.00153 0.44397 0.0
H518 H 0.02591 0.02996 0.5919 0.0
C519 C 0.8938 0.96075 0.62156 0.0
C520 C 0.94816 0.96168 0.67199 0.0
C521 C 0.90277 0.9748 0.58126 0.0
C522 C 0.01882 0.0218 0.55097 0.0
H523 H 0.96829 0.04179 0.26864 0.0
H524 H 0.95762 0.0174 0.33919 0.0
H525 H 0.06504 0.04769 0.51336 0.0
H526 H 0.04612 0.98041 0.72521 0.0
H527 H 0.06106 1.00502 0.65553 0.0
H528 H 0.9543 0.97567 0.48154 0.0
C529 C 0.00439 0.02976 0.3484 0.0
C530 C 0.04199 0.03189 0.50604 0.0
C531 C 0.01079 0.04374 0.30758 0.0
C532 C 0.00401 0.979 0.68621 0.0
C533 C 0.0129 0.99308 0.64594 0.0
C534 C 0.9776 0.99145 0.48885 0.0
C535 C 0.05225 0.03317 0.40302 0.0
C536 C 0.03332 0.02189 0.45193 0.0
C537 C 0.96532 0.99025 0.59126 0.0
C538 C -0.01405 1.00148 0.54284 0.0
H539 H 0.16226 0.07648 0.38314 0.0
H540 H 0.15239 0.05182 0.45315 0.0
H541 H -0.0062 0.99334 0.40309 0.0
H542 H 0.84914 0.94787 0.60946 0.0
H543 H 0.86365 0.97266 0.54033 0.0
C544 C 0.39653 0.56816 0.06004 0.0
C545 C 0.443 0.57718 0.11229 0.0
C546 C 0.40803 0.5514 0.03327 0.0
C547 C 0.50554 0.511 0.05707 0.0
H548 H 0.48546 0.51024 0.89165 0.0
C549 C 0.59808 0.45265 0.93425 0.0
C550 C 0.5511 0.44367 0.88216 0.0
C551 C 0.58726 0.46949 0.96116 0.0
C552 C 0.49071 0.51011 0.93775 0.0
H553 H 0.53713 0.57519 0.17786 0.0
H554 H 0.5568 0.54593 0.13152 0.0
H555 H 0.4585 0.53749 0.94243 0.0
H556 H 0.45673 0.4458 0.81706 0.0
H557 H 0.43832 0.4752 0.86355 0.0
H558 H 0.53772 0.48361 0.05237 0.0
C559 C 0.511 0.55172 0.11142 0.0
C560 C 0.47504 0.52572 0.96692 0.0
C561 C 0.49955 0.56851 0.13819 0.0
C562 C 0.49475 0.45246 0.85655 0.0
C563 C 0.484 0.46933 0.88342 0.0
C564 C 0.52122 0.49538 0.0279 0.0
C565 C 0.46633 0.5432 0.05795 0.0
C566 C 0.48211 0.52637 0.02696 0.0
C567 C 0.52917 0.47781 0.93673 0.0
C568 C 0.51401 0.49472 0.96783 0.0
H569 H 0.35225 0.57436 0.03887 0.0
H570 H 0.37164 0.54501 0.99274 0.0
H571 H 0.51074 0.51086 0.10316 0.0
H572 H 0.6422 0.44636 0.95521 0.0
H573 H 0.62397 0.47585 0.00159 0.0
C574 C 0.38344 0.46016 0.62155 0.0
C575 C 0.43638 0.46085 0.67276 0.0
C576 C 0.39406 0.47437 0.58189 0.0
C577 C 0.5511 0.50488 0.54025 0.0
H578 H 0.40766 0.52151 0.42459 0.0
C579 C 0.61427 0.56154 0.37446 0.0
C580 C 0.5613 0.56059 0.3231 0.0
C581 C 0.60438 0.54733 0.41426 0.0
C582 C 0.44824 0.51665 0.45597 0.0
H583 H 0.5336 0.47927 0.7278 0.0
H584 H 0.55071 0.50438 0.65952 0.0
H585 H 0.37207 0.50476 0.50575 0.0
H586 H 0.46517 0.54174 0.26794 0.0
H587 H 0.44926 0.51668 0.33655 0.0
H588 H 0.6273 0.51683 0.4905 0.0
C589 C 0.50321 0.49225 0.64852 0.0
C590 C 0.42786 0.50722 0.50284 0.0
C591 C 0.49267 0.47802 0.68813 0.0
C592 C 0.50605 0.54319 0.30772 0.0
C593 C 0.4962 0.52898 0.34749 0.0
C594 C 0.5715 0.51433 0.4934 0.0
C595 C 0.45699 0.48974 0.59327 0.0
C596 C 0.47903 0.50123 0.54566 0.0
C597 C 0.54218 0.53174 0.40286 0.0
C598 C 0.52029 0.52029 0.45056 0.0
H599 H 0.33876 0.44733 0.60838 0.0
H600 H 0.35664 0.47211 0.54013 0.0
H601 H 0.59169 0.50002 0.5716 0.0
H602 H 0.65819 0.57455 0.38762 0.0
H603 H 0.64161 0.54977 0.45614 0.0
loop_
_geom_bond_atom_site_label_1
_geom_bond_atom_site_label_2
_geom_bond_distance
_geom_bond_site_symmetry_2
_ccdc_geom_bond_type
C0 O12 1.241 . S
C0 O13 1.280 1_455 S
C1 O14 1.277 . S
C1 O15 1.245 1_455 S
C2 O26 1.247 . S
C2 O28 1.289 . S
Mg3 O4 1.926 1_655 S
Mg3 O13 1.984 . S
Mg3 O15 1.988 . S
Mg3 O16 2.061 . S
O4 Mg3 1.926 1_455 S
O4 Mg5 1.986 . S
O4 Mg6 1.917 . S
Mg5 O4 1.986 . S
Mg5 O12 2.042 . S
Mg5 O14 2.041 . S
Mg5 O20 2.038 . S
Mg5 O28 2.238 . S
Mg6 O4 1.917 . S
Mg6 O7 1.917 . S
Mg6 O17 2.106 1_455 S
Mg6 O19 2.079 . S
Mg6 O28 2.106 . S
Mg6 O29 2.079 1_455 S
O7 Mg6 1.917 . S
O7 Mg8 1.926 . S
O7 Mg9 1.986 1_455 S
Mg8 O7 1.926 . S
Mg8 O22 1.984 . S
Mg8 O25 1.988 . S
Mg8 O26 2.061 . S
Mg9 O7 1.986 1_655 S
Mg9 O17 2.238 . S
Mg9 O21 2.042 . S
Mg9 O23 2.041 . S
Mg9 O30 2.038 . S
C10 O16 1.247 . S
C10 O17 1.289 . S
C11 O29 1.245 . S
C11 O30 1.274 . S
O12 C0 1.241 . S
O12 Mg5 2.042 . S
O13 C0 1.280 1_655 S
O13 Mg3 1.984 . S
O14 C1 1.277 . S
O14 Mg5 2.041 . S
O15 C1 1.245 1_655 S
O15 Mg3 1.988 . S
O16 Mg3 2.061 . S
O16 C10 1.247 . S
O17 Mg6 2.106 1_655 S
O17 Mg9 2.238 . S
O17 C10 1.289 . S
C18 O19 1.245 . S
C18 O20 1.274 . S
O19 Mg6 2.079 . S
O19 C18 1.245 . S
O20 Mg5 2.038 . S
O20 C18 1.274 . S
O21 Mg9 2.042 . S
O21 C24 1.241 1_655 S
O22 Mg8 1.984 . S
O22 C24 1.280 . S
O23 Mg9 2.041 . S
O23 C27 1.277 . S
C24 O21 1.241 1_455 S
C24 O22 1.280 . S
O25 Mg8 1.988 . S
O25 C27 1.245 1_455 S
O26 C2 1.247 . S
O26 Mg8 2.061 . S
C27 O23 1.277 . S
C27 O25 1.245 1_655 S
O28 C2 1.289 . S
O28 Mg5 2.238 . S
O28 Mg6 2.106 . S
O29 Mg6 2.079 1_655 S
O29 C11 1.245 . S
O30 Mg9 2.038 . S
O30 C11 1.274 . S
C31 O43 1.241 . S
C31 O44 1.280 1_455 S
C32 O45 1.277 . S
C32 O46 1.245 1_455 S
C33 O57 1.247 . S
C33 O59 1.289 . S
Mg34 O35 1.926 1_655 S
Mg34 O44 1.984 . S
Mg34 O46 1.988 . S
Mg34 O47 2.061 . S
O35 Mg34 1.926 1_455 S
O35 Mg36 1.986 . S
O35 Mg37 1.917 . S
Mg36 O35 1.986 . S
Mg36 O43 2.042 . S
Mg36 O45 2.041 . S
Mg36 O51 2.038 . S
Mg36 O59 2.238 . S
Mg37 O35 1.917 . S
Mg37 O38 1.917 . S
Mg37 O48 2.106 1_455 S
Mg37 O50 2.079 . S
Mg37 O59 2.106 . S
Mg37 O60 2.079 1_455 S
O38 Mg37 1.917 . S
O38 Mg39 1.926 . S
O38 Mg40 1.986 1_455 S
Mg39 O38 1.926 . S
Mg39 O53 1.984 . S
Mg39 O56 1.988 . S
Mg39 O57 2.061 . S
Mg40 O38 1.986 1_655 S
Mg40 O48 2.238 . S
Mg40 O52 2.042 . S
Mg40 O54 2.041 . S
Mg40 O61 2.038 . S
C41 O47 1.247 . S
C41 O48 1.289 . S
C42 O60 1.245 . S
C42 O61 1.274 . S
O43 C31 1.241 . S
O43 Mg36 2.042 . S
O44 C31 1.280 1_655 S
O44 Mg34 1.984 . S
O45 C32 1.277 . S
O45 Mg36 2.041 . S
O46 C32 1.245 1_655 S
O46 Mg34 1.988 . S
O47 Mg34 2.061 . S
O47 C41 1.247 . S
O48 Mg37 2.106 1_655 S
O48 Mg40 2.238 . S
O48 C41 1.289 . S
C49 O50 1.245 . S
C49 O51 1.274 . S
O50 Mg37 2.079 . S
O50 C49 1.245 . S
O51 Mg36 2.038 . S
O51 C49 1.274 . S
O52 Mg40 2.042 . S
O52 C55 1.241 1_655 S
O53 Mg39 1.984 . S
O53 C55 1.280 . S
O54 Mg40 2.041 . S
O54 C58 1.277 . S
C55 O52 1.241 1_455 S
C55 O53 1.280 . S
O56 Mg39 1.988 . S
O56 C58 1.245 1_455 S
O57 C33 1.247 . S
O57 Mg39 2.061 . S
C58 O54 1.277 . S
C58 O56 1.245 1_655 S
O59 C33 1.289 . S
O59 Mg36 2.238 . S
O59 Mg37 2.106 . S
O60 Mg37 2.079 1_655 S
O60 C42 1.245 . S
O61 Mg40 2.038 . S
O61 C42 1.274 . S
C62 O74 1.241 . S
C62 O75 1.280 . S
C63 O76 1.277 . S
C63 O77 1.245 . S
C64 O88 1.247 . S
C64 O90 1.289 . S
Mg65 O66 1.926 . S
Mg65 O75 1.984 . S
Mg65 O77 1.988 . S
Mg65 O78 2.061 . S
O66 Mg65 1.926 . S
O66 Mg67 1.986 . S
O66 Mg68 1.917 . S
Mg67 O66 1.986 . S
Mg67 O74 2.042 . S
Mg67 O76 2.041 . S
Mg67 O82 2.038 . S
Mg67 O90 2.238 . S
Mg68 O66 1.917 . S
Mg68 O69 1.917 . S
Mg68 O79 2.106 . S
Mg68 O81 2.079 . S
Mg68 O90 2.106 . S
Mg68 O91 2.079 . S
O69 Mg68 1.917 . S
O69 Mg70 1.926 . S
O69 Mg71 1.986 . S
Mg70 O69 1.926 . S
Mg70 O84 1.984 . S
Mg70 O87 1.988 . S
Mg70 O88 2.061 . S
Mg71 O69 1.986 . S
Mg71 O79 2.238 . S
Mg71 O83 2.042 . S
Mg71 O85 2.041 . S
Mg71 O92 2.038 . S
C72 O78 1.247 . S
C72 O79 1.289 . S
C73 O91 1.245 . S
C73 O92 1.274 . S
O74 C62 1.241 . S
O74 Mg67 2.042 . S
O75 C62 1.280 . S
O75 Mg65 1.984 . S
O76 C63 1.277 . S
O76 Mg67 2.041 . S
O77 C63 1.245 . S
O77 Mg65 1.988 . S
O78 Mg65 2.061 . S
O78 C72 1.247 . S
O79 Mg68 2.106 . S
O79 Mg71 2.238 . S
O79 C72 1.289 . S
C80 O81 1.245 . S
C80 O82 1.274 . S
O81 Mg68 2.079 . S
O81 C80 1.245 . S
O82 Mg67 2.038 . S
O82 C80 1.274 . S
O83 Mg71 2.042 . S
O83 C86 1.241 . S
O84 Mg70 1.984 . S
O84 C86 1.280 . S
O85 Mg71 2.041 . S
O85 C89 1.277 . S
C86 O83 1.241 . S
C86 O84 1.280 . S
O87 Mg70 1.988 . S
O87 C89 1.245 . S
O88 C64 1.247 . S
O88 Mg70 2.061 . S
C89 O85 1.277 . S
C89 O87 1.245 . S
O90 C64 1.289 . S
O90 Mg67 2.238 . S
O90 Mg68 2.106 . S
O91 Mg68 2.079 . S
O91 C73 1.245 . S
O92 Mg71 2.038 . S
O92 C73 1.274 . S
C93 O105 1.241 . S
C93 O106 1.280 . S
C94 O107 1.277 . S
C94 O108 1.245 . S
C95 O119 1.247 . S
C95 O121 1.289 . S
Mg96 O97 1.926 . S
Mg96 O106 1.984 . S
Mg96 O108 1.988 . S
Mg96 O109 2.061 . S
O97 Mg96 1.926 . S
O97 Mg98 1.986 . S
O97 Mg99 1.917 . S
Mg98 O97 1.986 . S
Mg98 O105 2.042 . S
Mg98 O107 2.041 . S
Mg98 O113 2.038 . S
Mg98 O121 2.238 . S
Mg99 O97 1.917 . S
Mg99 O100 1.917 . S
Mg99 O110 2.106 . S
Mg99 O112 2.079 . S
Mg99 O121 2.106 . S
Mg99 O122 2.079 . S
O100 Mg99 1.917 . S
O100 Mg101 1.926 . S
O100 Mg102 1.986 . S
Mg101 O100 1.926 . S
Mg101 O115 1.984 . S
Mg101 O118 1.988 . S
Mg101 O119 2.061 . S
Mg102 O100 1.986 . S
Mg102 O110 2.238 . S
Mg102 O114 2.042 . S
Mg102 O116 2.041 . S
Mg102 O123 2.038 . S
C103 O109 1.247 . S
C103 O110 1.289 . S
C104 O122 1.245 . S
C104 O123 1.274 . S
O105 C93 1.241 . S
O105 Mg98 2.042 . S
O106 C93 1.280 . S
O106 Mg96 1.984 . S
O107 C94 1.277 . S
O107 Mg98 2.041 . S
O108 C94 1.245 . S
O108 Mg96 1.988 . S
O109 Mg96 2.061 . S
O109 C103 1.247 . S
O110 Mg99 2.106 . S
O110 Mg102 2.238 . S
O110 C103 1.289 . S
C111 O112 1.245 . S
C111 O113 1.274 . S
O112 Mg99 2.079 . S
O112 C111 1.245 . S
O113 Mg98 2.038 . S
O113 C111 1.274 . S
O114 Mg102 2.042 . S
O114 C117 1.241 . S
O115 Mg101 1.984 . S
O115 C117 1.280 . S
O116 Mg102 2.041 . S
O116 C120 1.277 . S
C117 O114 1.241 . S
C117 O115 1.280 . S
O118 Mg101 1.988 . S
O118 C120 1.245 . S
O119 C95 1.247 . S
O119 Mg101 2.061 . S
C120 O116 1.277 . S
C120 O118 1.245 . S
O121 C95 1.289 . S
O121 Mg98 2.238 . S
O121 Mg99 2.106 . S
O122 Mg99 2.079 . S
O122 C104 1.245 . S
O123 Mg102 2.038 . S
O123 C104 1.274 . S
C124 C125 1.349 1_655 S
C124 C126 1.327 . S
C124 H149 0.950 . S
C125 C124 1.349 1_455 S
C125 C141 1.349 . S
C126 C124 1.327 . S
C126 C145 1.429 1_655 S
C126 H150 0.950 . S
C127 C144 1.574 . S
C127 C146 1.368 . S
C127 H151 0.949 . S
H128 C132 0.949 . S
C129 C130 1.349 . S
C129 C131 1.327 . S
C129 H152 0.950 . S
C130 C129 1.349 . S
C130 C142 1.349 1_455 S
C131 C129 1.327 . S
C131 C147 1.429 . S
C131 H153 0.950 . S
C132 H128 0.949 . S
C132 C140 1.574 . S
C132 C148 1.368 1_655 S
H133 C141 0.950 . S
H134 C139 0.950 . S
H135 C140 0.949 . S
H136 C142 0.950 . S
H137 C143 0.950 . S
H138 C144 0.949 . S
C139 H134 0.950 . S
C139 C141 1.327 . S
C139 C145 1.429 . S
C140 C132 1.574 . S
C140 H135 0.949 . S
C140 C146 1.368 1_655 S
C141 C125 1.349 . S
C141 H133 0.950 . S
C141 C139 1.327 . S
C142 C130 1.349 1_655 S
C142 H136 0.950 . S
C142 C143 1.327 . S
C143 H137 0.950 . S
C143 C142 1.327 . S
C143 C147 1.429 1_655 S
C144 C127 1.574 . S
C144 H138 0.949 . S
C144 C148 1.368 . S
C145 C126 1.429 1_455 S
C145 C139 1.429 . S
C145 C146 1.523 . S
C146 C127 1.368 . S
C146 C140 1.368 1_455 S
C146 C145 1.523 . S
C147 C131 1.429 . S
C147 C143 1.429 1_455 S
C147 C148 1.523 . S
C148 C132 1.368 1_455 S
C148 C144 1.368 . S
C148 C147 1.523 . S
H149 C124 0.950 . S
H150 C126 0.950 . S
H151 C127 0.949 . S
H152 C129 0.950 . S
H153 C131 0.950 . S
C154 C155 1.349 1_655 S
C154 C156 1.327 . S
C154 H179 0.950 . S
C155 C154 1.349 1_455 S
C155 C171 1.349 . S
C156 C154 1.327 . S
C156 C175 1.429 1_655 S
C156 H180 0.950 . S
C157 C174 1.574 . S
C157 C176 1.368 . S
C157 H181 0.949 . S
H158 C162 0.949 . S
C159 C160 1.349 . S
C159 C161 1.327 . S
C159 H182 0.950 . S
C160 C159 1.349 . S
C160 C172 1.349 1_455 S
C161 C159 1.327 . S
C161 C177 1.429 . S
C161 H183 0.950 . S
C162 H158 0.949 . S
C162 C170 1.574 . S
C162 C178 1.368 1_655 S
H163 C171 0.950 . S
H164 C169 0.950 . S
H165 C170 0.949 . S
H166 C172 0.950 . S
H167 C173 0.950 . S
H168 C174 0.949 . S
C169 H164 0.950 . S
C169 C171 1.327 . S
C169 C175 1.429 . S
C170 C162 1.574 . S
C170 H165 0.949 . S
C170 C176 1.368 1_655 S
C171 C155 1.349 . S
C171 H163 0.950 . S
C171 C169 1.327 . S
C172 C160 1.349 1_655 S
C172 H166 0.950 . S
C172 C173 1.327 . S
C173 H167 0.950 . S
C173 C172 1.327 . S
C173 C177 1.429 1_655 S
C174 C157 1.574 . S
C174 H168 0.949 . S
C174 C178 1.368 . S
C175 C156 1.429 1_455 S
C175 C169 1.429 . S
C175 C176 1.523 . S
C176 C157 1.368 . S
C176 C170 1.368 1_455 S
C176 C175 1.523 . S
C177 C161 1.429 . S
C177 C173 1.429 1_455 S
C177 C178 1.523 . S
C178 C162 1.368 1_455 S
C178 C174 1.368 . S
C178 C177 1.523 . S
H179 C154 0.950 . S
H180 C156 0.950 . S
H181 C157 0.949 . S
H182 C159 0.950 . S
H183 C161 0.950 . S
C184 C185 1.349 . S
C184 C186 1.327 . S
C184 H209 0.950 . S
C185 C184 1.349 . S
C185 C201 1.349 . S
C186 C184 1.327 . S
C186 C205 1.429 . S
C186 H210 0.950 . S
C187 C204 1.574 . S
C187 C206 1.368 . S
C187 H211 0.949 . S
H188 C192 0.949 . S
C189 C190 1.349 . S
C189 C191 1.327 . S
C189 H212 0.950 . S
C190 C189 1.349 . S
C190 C202 1.349 . S
C191 C189 1.327 . S
C191 C207 1.429 . S
C191 H213 0.950 . S
C192 H188 0.949 . S
C192 C200 1.574 . S
C192 C208 1.368 . S
H193 C201 0.950 . S
H194 C199 0.950 . S
H195 C200 0.949 . S
H196 C202 0.950 . S
H197 C203 0.950 . S
H198 C204 0.949 . S
C199 H194 0.950 . S
C199 C201 1.327 . S
C199 C205 1.429 . S
C200 C192 1.574 . S
C200 H195 0.949 . S
C200 C206 1.368 . S
C201 C185 1.349 . S
C201 H193 0.950 . S
C201 C199 1.327 . S
C202 C190 1.349 . S
C202 H196 0.950 . S
C202 C203 1.327 . S
C203 H197 0.950 . S
C203 C202 1.327 . S
C203 C207 1.429 . S
C204 C187 1.574 . S
C204 H198 0.949 . S
C204 C208 1.368 . S
C205 C186 1.429 . S
C205 C199 1.429 . S
C205 C206 1.523 . S
C206 C187 1.368 . S
C206 C200 1.368 . S
C206 C205 1.523 . S
C207 C191 1.429 . S
C207 C203 1.429 . S
C207 C208 1.523 . S
C208 C192 1.368 . S
C208 C204 1.368 . S
C208 C207 1.523 . S
H209 C184 0.950 . S
H210 C186 0.950 . S
H211 C187 0.949 . S
H212 C189 0.950 . S
H213 C191 0.950 . S
C214 C215 1.349 . S
C214 C216 1.327 . S
C214 H239 0.950 . S
C215 C214 1.349 . S
C215 C231 1.349 . S
C216 C214 1.327 . S
C216 C235 1.429 . S
C216 H240 0.950 . S
C217 C234 1.574 . S
C217 C236 1.368 . S
C217 H241 0.949 . S
H218 C222 0.949 . S
C219 C220 1.349 . S
C219 C221 1.327 . S
C219 H242 0.950 . S
C220 C219 1.349 . S
C220 C232 1.349 . S
C221 C219 1.327 . S
C221 C237 1.429 . S
C221 H243 0.950 . S
C222 H218 0.949 . S
C222 C230 1.574 . S
C222 C238 1.368 . S
H223 C231 0.950 . S
H224 C229 0.950 . S
H225 C230 0.949 . S
H226 C232 0.950 . S
H227 C233 0.950 . S
H228 C234 0.949 . S
C229 H224 0.950 . S
C229 C231 1.327 . S
C229 C235 1.429 . S
C230 C222 1.574 . S
C230 H225 0.949 . S
C230 C236 1.368 . S
C231 C215 1.349 . S
C231 H223 0.950 . S
C231 C229 1.327 . S
C232 C220 1.349 . S
C232 H226 0.950 . S
C232 C233 1.327 . S
C233 H227 0.950 . S
C233 C232 1.327 . S
C233 C237 1.429 . S
C234 C217 1.574 . S
C234 H228 0.949 . S
C234 C238 1.368 . S
C235 C216 1.429 . S
C235 C229 1.429 . S
C235 C236 1.523 . S
C236 C217 1.368 . S
C236 C230 1.368 . S
C236 C235 1.523 . S
C237 C221 1.429 . S
C237 C233 1.429 . S
C237 C238 1.523 . S
C238 C222 1.368 . S
C238 C234 1.368 . S
C238 C237 1.523 . S
H239 C214 0.950 . S
H240 C216 0.950 . S
H241 C217 0.949 . S
H242 C219 0.950 . S
H243 C221 0.950 . S
C244 C245 1.349 . S
C244 C246 1.327 . S
C244 H269 0.950 . S
C245 C244 1.349 . S
C245 C261 1.349 . S
C246 C244 1.327 . S
C246 C265 1.429 . S
C246 H270 0.950 . S
C247 C264 1.574 . S
C247 C266 1.368 . S
C247 H271 0.949 . S
H248 C252 0.949 . S
C249 C250 1.349 . S
C249 C251 1.327 . S
C249 H272 0.950 . S
C250 C249 1.349 . S
C250 C262 1.349 . S
C251 C249 1.327 . S
C251 C267 1.429 . S
C251 H273 0.950 . S
C252 H248 0.949 . S
C252 C260 1.574 . S
C252 C268 1.368 . S
H253 C261 0.950 . S
H254 C259 0.950 . S
H255 C260 0.949 . S
H256 C262 0.950 . S
H257 C263 0.950 . S
H258 C264 0.949 . S
C259 H254 0.950 . S
C259 C261 1.327 . S
C259 C265 1.429 . S
C260 C252 1.574 . S
C260 H255 0.949 . S
C260 C266 1.368 . S
C261 C245 1.349 . S
C261 H253 0.950 . S
C261 C259 1.327 . S
C262 C250 1.349 . S
C262 H256 0.950 . S
C262 C263 1.327 . S
C263 H257 0.950 . S
C263 C262 1.327 . S
C263 C267 1.429 . S
C264 C247 1.574 . S
C264 H258 0.949 . S
C264 C268 1.368 . S
C265 C246 1.429 . S
C265 C259 1.429 . S
C265 C266 1.523 . S
C266 C247 1.368 . S
C266 C260 1.368 . S
C266 C265 1.523 . S
C267 C251 1.429 . S
C267 C263 1.429 . S
C267 C268 1.523 . S
C268 C252 1.368 . S
C268 C264 1.368 . S
C268 C267 1.523 . S
H269 C244 0.950 . S
H270 C246 0.950 . S
H271 C247 0.949 . S
H272 C249 0.950 . S
H273 C251 0.950 . S
C274 C275 1.349 . S
C274 C276 1.327 . S
C274 H299 0.950 . S
C275 C274 1.349 . S
C275 C291 1.349 . S
C276 C274 1.327 . S
C276 C295 1.429 . S
C276 H300 0.950 . S
C277 C294 1.574 . S
C277 C296 1.368 . S
C277 H301 0.949 . S
H278 C282 0.949 . S
C279 C280 1.349 . S
C279 C281 1.327 . S
C279 H302 0.950 . S
C280 C279 1.349 . S
C280 C292 1.349 . S
C281 C279 1.327 . S
C281 C297 1.429 . S
C281 H303 0.950 . S
C282 H278 0.949 . S
C282 C290 1.574 . S
C282 C298 1.368 . S
H283 C291 0.950 . S
H284 C289 0.950 . S
H285 C290 0.949 . S
H286 C292 0.950 . S
H287 C293 0.950 . S
H288 C294 0.949 . S
C289 H284 0.950 . S
C289 C291 1.327 . S
C289 C295 1.429 . S
C290 C282 1.574 . S
C290 H285 0.949 . S
C290 C296 1.368 . S
C291 C275 1.349 . S
C291 H283 0.950 . S
C291 C289 1.327 . S
C292 C280 1.349 . S
C292 H286 0.950 . S
C292 C293 1.327 . S
C293 H287 0.950 . S
C293 C292 1.327 . S
C293 C297 1.429 . S
C294 C277 1.574 . S
C294 H288 0.949 . S
C294 C298 1.368 . S
C295 C276 1.429 . S
C295 C289 1.429 . S
C295 C296 1.523 . S
C296 C277 1.368 . S
C296 C290 1.368 . S
C296 C295 1.523 . S
C297 C281 1.429 . S
C297 C293 1.429 . S
C297 C298 1.523 . S
C298 C282 1.368 . S
C298 C294 1.368 . S
C298 C297 1.523 . S
H299 C274 0.950 . S
H300 C276 0.950 . S
H301 C277 0.949 . S
H302 C279 0.950 . S
H303 C281 0.950 . S
C304 C305 1.349 . S
C304 C306 1.327 . S
C304 H329 0.950 . S
C305 C304 1.349 . S
C305 C321 1.349 . S
C306 C304 1.327 . S
C306 C325 1.429 . S
C306 H330 0.950 . S
C307 C324 1.574 1_655 S
C307 C326 1.368 . S
C307 H331 0.949 . S
H308 C312 0.949 . S
C309 C310 1.349 . S
C309 C311 1.327 . S
C309 H332 0.950 . S
C310 C309 1.349 . S
C310 C322 1.349 . S
C311 C309 1.327 . S
C311 C327 1.429 . S
C311 H333 0.950 . S
C312 H308 0.949 . S
C312 C320 1.574 1_455 S
C312 C328 1.368 . S
H313 C321 0.950 . S
H314 C319 0.950 . S
H315 C320 0.949 . S
H316 C322 0.950 . S
H317 C323 0.950 . S
H318 C324 0.949 . S
C319 H314 0.950 . S
C319 C321 1.327 . S
C319 C325 1.429 . S
C320 C312 1.574 1_655 S
C320 H315 0.949 . S
C320 C326 1.368 . S
C321 C305 1.349 . S
C321 H313 0.950 . S
C321 C319 1.327 . S
C322 C310 1.349 . S
C322 H316 0.950 . S
C322 C323 1.327 . S
C323 H317 0.950 . S
C323 C322 1.327 . S
C323 C327 1.429 . S
C324 C307 1.574 1_455 S
C324 H318 0.949 . S
C324 C328 1.368 . S
C325 C306 1.429 . S
C325 C319 1.429 . S
C325 C326 1.523 . S
C326 C307 1.368 . S
C326 C320 1.368 . S
C326 C325 1.523 . S
C327 C311 1.429 . S
C327 C323 1.429 . S
C327 C328 1.523 . S
C328 C312 1.368 . S
C328 C324 1.368 . S
C328 C327 1.523 . S
H329 C304 0.950 . S
H330 C306 0.950 . S
H331 C307 0.949 . S
H332 C309 0.950 . S
H333 C311 0.950 . S
C334 C335 1.349 . S
C334 C336 1.327 . S
C334 H359 0.950 . S
C335 C334 1.349 . S
C335 C351 1.349 . S
C336 C334 1.327 . S
C336 C355 1.429 . S
C336 H360 0.950 . S
C337 C354 1.574 1_655 S
C337 C356 1.368 . S
C337 H361 0.949 . S
H338 C342 0.949 . S
C339 C340 1.349 . S
C339 C341 1.327 . S
C339 H362 0.950 . S
C340 C339 1.349 . S
C340 C352 1.349 . S
C341 C339 1.327 . S
C341 C357 1.429 . S
C341 H363 0.950 . S
C342 H338 0.949 . S
C342 C350 1.574 1_455 S
C342 C358 1.368 . S
H343 C351 0.950 . S
H344 C349 0.950 . S
H345 C350 0.949 . S
H346 C352 0.950 . S
H347 C353 0.950 . S
H348 C354 0.949 . S
C349 H344 0.950 . S
C349 C351 1.327 . S
C349 C355 1.429 . S
C350 C342 1.574 1_655 S
C350 H345 0.949 . S
C350 C356 1.368 . S
C351 C335 1.349 . S
C351 H343 0.950 . S
C351 C349 1.327 . S
C352 C340 1.349 . S
C352 H346 0.950 . S
C352 C353 1.327 . S
C353 H347 0.950 . S
C353 C352 1.327 . S
C353 C357 1.429 . S
C354 C337 1.574 1_455 S
C354 H348 0.949 . S
C354 C358 1.368 . S
C355 C336 1.429 . S
C355 C349 1.429 . S
C355 C356 1.523 . S
C356 C337 1.368 . S
C356 C350 1.368 . S
C356 C355 1.523 . S
C357 C341 1.429 . S
C357 C353 1.429 . S
C357 C358 1.523 . S
C358 C342 1.368 . S
C358 C354 1.368 . S
C358 C357 1.523 . S
H359 C334 0.950 . S
H360 C336 0.950 . S
H361 C337 0.949 . S
H362 C339 0.950 . S
H363 C341 0.950 . S
C364 C365 1.349 . S
C364 C366 1.327 . S
C364 H389 0.950 . S
C365 C364 1.349 . S
C365 C381 1.349 . S
C366 C364 1.327 . S
C366 C385 1.429 . S
C366 H390 0.950 . S
C367 C384 1.574 . S
C367 C386 1.368 . S
C367 H391 0.949 . S
H368 C372 0.949 . S
C369 C370 1.349 . S
C369 C371 1.327 . S
C369 H392 0.950 . S
C370 C369 1.349 . S
C370 C382 1.349 . S
C371 C369 1.327 . S
C371 C387 1.429 . S
C371 H393 0.950 . S
C372 H368 0.949 . S
C372 C380 1.574 . S
C372 C388 1.368 . S
H373 C381 0.950 . S
H374 C379 0.950 . S
H375 C380 0.949 . S
H376 C382 0.950 . S
H377 C383 0.950 . S
H378 C384 0.949 . S
C379 H374 0.950 . S
C379 C381 1.327 . S
C379 C385 1.429 . S
C380 C372 1.574 . S
C380 H375 0.949 . S
C380 C386 1.368 . S
C381 C365 1.349 . S
C381 H373 0.950 . S
C381 C379 1.327 . S
C382 C370 1.349 . S
C382 H376 0.950 . S
C382 C383 1.327 . S
C383 H377 0.950 . S
C383 C382 1.327 . S
C383 C387 1.429 . S
C384 C367 1.574 . S
C384 H378 0.949 . S
C384 C388 1.368 . S
C385 C366 1.429 . S
C385 C379 1.429 . S
C385 C386 1.523 . S
C386 C367 1.368 . S
C386 C380 1.368 . S
C386 C385 1.523 . S
C387 C371 1.429 . S
C387 C383 1.429 . S
C387 C388 1.523 . S
C388 C372 1.368 . S
C388 C384 1.368 . S
C388 C387 1.523 . S
H389 C364 0.950 . S
H390 C366 0.950 . S
H391 C367 0.949 . S
H392 C369 0.950 . S
H393 C371 0.950 . S
C394 C395 1.349 . S
C394 C396 1.327 . S
C394 H419 0.950 . S
C395 C394 1.349 . S
C395 C411 1.349 . S
C396 C394 1.327 . S
C396 C415 1.429 . S
C396 H420 0.950 . S
C397 C414 1.574 . S
C397 C416 1.368 . S
C397 H421 0.949 . S
H398 C402 0.949 . S
C399 C400 1.349 . S
C399 C401 1.327 . S
C399 H422 0.950 . S
C400 C399 1.349 . S
C400 C412 1.349 . S
C401 C399 1.327 . S
C401 C417 1.429 . S
C401 H423 0.950 . S
C402 H398 0.949 . S
C402 C410 1.574 . S
C402 C418 1.368 . S
H403 C411 0.950 . S
H404 C409 0.950 . S
H405 C410 0.949 . S
H406 C412 0.950 . S
H407 C413 0.950 . S
H408 C414 0.949 . S
C409 H404 0.950 . S
C409 C411 1.327 . S
C409 C415 1.429 . S
C410 C402 1.574 . S
C410 H405 0.949 . S
C410 C416 1.368 1_554 S
C411 C395 1.349 . S
C411 H403 0.950 . S
C411 C409 1.327 . S
C412 C400 1.349 . S
C412 H406 0.950 . S
C412 C413 1.327 . S
C413 H407 0.950 . S
C413 C412 1.327 . S
C413 C417 1.429 . S
C414 C397 1.574 . S
C414 H408 0.949 . S
C414 C418 1.368 1_556 S
C415 C396 1.429 . S
C415 C409 1.429 . S
C415 C416 1.523 . S
C416 C397 1.368 . S
C416 C410 1.368 1_556 S
C416 C415 1.523 . S
C417 C401 1.429 . S
C417 C413 1.429 . S
C417 C418 1.523 . S
C418 C402 1.368 . S
C418 C414 1.368 1_554 S
C418 C417 1.523 . S
H419 C394 0.950 . S
H420 C396 0.950 . S
H421 C397 0.949 . S
H422 C399 0.950 . S
H423 C401 0.950 . S
C424 C425 1.349 . S
C424 C426 1.327 . S
C424 H449 0.950 . S
C425 C424 1.349 . S
C425 C441 1.349 . S
C426 C424 1.327 . S
C426 C445 1.429 . S
C426 H450 0.950 . S
C427 C444 1.574 . S
C427 C446 1.368 . S
C427 H451 0.949 . S
H428 C432 0.949 . S
C429 C430 1.349 . S
C429 C431 1.327 . S
C429 H452 0.950 . S
C430 C429 1.349 . S
C430 C442 1.349 . S
C431 C429 1.327 . S
C431 C447 1.429 . S
C431 H453 0.950 . S
C432 H428 0.949 . S
C432 C440 1.574 . S
C432 C448 1.368 . S
H433 C441 0.950 . S
H434 C439 0.950 . S
H435 C440 0.949 . S
H436 C442 0.950 . S
H437 C443 0.950 . S
H438 C444 0.949 . S
C439 H434 0.950 . S
C439 C441 1.327 . S
C439 C445 1.429 . S
C440 C432 1.574 . S
C440 H435 0.949 . S
C440 C446 1.368 . S
C441 C425 1.349 . S
C441 H433 0.950 . S
C441 C439 1.327 . S
C442 C430 1.349 . S
C442 H436 0.950 . S
C442 C443 1.327 . S
C443 H437 0.950 . S
C443 C442 1.327 . S
C443 C447 1.429 . S
C444 C427 1.574 . S
C444 H438 0.949 . S
C444 C448 1.368 . S
C445 C426 1.429 . S
C445 C439 1.429 . S
C445 C446 1.523 . S
C446 C427 1.368 . S
C446 C440 1.368 . S
C446 C445 1.523 . S
C447 C431 1.429 . S
C447 C443 1.429 . S
C447 C448 1.523 . S
C448 C432 1.368 . S
C448 C444 1.368 . S
C448 C447 1.523 . S
H449 C424 0.950 . S
H450 C426 0.950 . S
H451 C427 0.949 . S
H452 C429 0.950 . S
H453 C431 0.950 . S
C454 C455 1.349 . S
C454 C456 1.327 . S
C454 H479 0.950 . S
C455 C454 1.349 . S
C455 C471 1.349 . S
C456 C454 1.327 . S
C456 C475 1.429 . S
C456 H480 0.950 . S
C457 C474 1.574 1_554 S
C457 C476 1.368 . S
C457 H481 0.949 . S
H458 C462 0.949 . S
C459 C460 1.349 . S
C459 C461 1.327 . S
C459 H482 0.950 . S
C460 C459 1.349 . S
C460 C472 1.349 . S
C461 C459 1.327 . S
C461 C477 1.429 . S
C461 H483 0.950 . S
C462 H458 0.949 . S
C462 C470 1.574 1_556 S
C462 C478 1.368 . S
H463 C471 0.950 . S
H464 C469 0.950 . S
H465 C470 0.949 . S
H466 C472 0.950 . S
H467 C473 0.950 . S
H468 C474 0.949 . S
C469 H464 0.950 . S
C469 C471 1.327 . S
C469 C475 1.429 . S
C470 C462 1.574 1_554 S
C470 H465 0.949 . S
C470 C476 1.368 . S
C471 C455 1.349 . S
C471 H463 0.950 . S
C471 C469 1.327 . S
C472 C460 1.349 . S
C472 H466 0.950 . S
C472 C473 1.327 . S
C473 H467 0.950 . S
C473 C472 1.327 . S
C473 C477 1.429 . S
C474 C457 1.574 1_556 S
C474 H468 0.949 . S
C474 C478 1.368 . S
C475 C456 1.429 . S
C475 C469 1.429 . S
C475 C476 1.523 . S
C476 C457 1.368 . S
C476 C470 1.368 . S
C476 C475 1.523 . S
C477 C461 1.429 . S
C477 C473 1.429 . S
C477 C478 1.523 . S
C478 C462 1.368 . S
C478 C474 1.368 . S
C478 C477 1.523 . S
H479 C454 0.950 . S
H480 C456 0.950 . S
H481 C457 0.949 . S
H482 C459 0.950 . S
H483 C461 0.950 . S
C484 C485 1.349 . S
C484 C486 1.327 . S
C484 H509 0.950 . S
C485 C484 1.349 . S
C485 C501 1.349 . S
C486 C484 1.327 . S
C486 C505 1.429 . S
C486 H510 0.950 1_554 S
C487 C504 1.574 1_545 S
C487 C506 1.368 . S
C487 H511 0.949 . S
H488 C492 0.949 . S
C489 C490 1.349 . S
C489 C491 1.327 . S
C489 H512 0.950 . S
C490 C489 1.349 . S
C490 C502 1.349 . S
C491 C489 1.327 . S
C491 C507 1.429 . S
C491 H513 0.950 1_556 S
C492 H488 0.949 . S
C492 C500 1.575 1_565 S
C492 C508 1.367 1_655 S
H493 C501 0.950 1_455 S
H494 C499 0.950 . S
H495 C500 0.949 . S
H496 C502 0.950 . S
H497 C503 0.950 . S
H498 C504 0.949 . S
C499 H494 0.950 . S
C499 C501 1.327 1_455 S
C499 C505 1.429 1_455 S
C500 C492 1.575 1_545 S
C500 H495 0.949 . S
C500 C506 1.368 1_656 S
C501 C485 1.349 . S
C501 H493 0.950 1_655 S
C501 C499 1.327 1_655 S
C502 C490 1.349 . S
C502 H496 0.950 . S
C502 C503 1.327 . S
C503 H497 0.950 . S
C503 C502 1.327 . S
C503 C507 1.429 . S
C504 C487 1.574 1_565 S
C504 H498 0.949 . S
C504 C508 1.368 1_554 S
C505 C486 1.429 . S
C505 C499 1.429 1_655 S
C505 C506 1.523 1_655 S
C506 C487 1.368 . S
C506 C500 1.368 1_454 S
C506 C505 1.523 1_455 S
C507 C491 1.429 . S
C507 C503 1.429 . S
C507 C508 1.523 . S
C508 C492 1.367 1_455 S
C508 C504 1.368 1_556 S
C508 C507 1.523 . S
H509 C484 0.950 . S
H510 C486 0.950 1_556 S
H511 C487 0.949 . S
H512 C489 0.950 . S
H513 C491 0.950 1_554 S
C514 C515 1.349 . S
C514 C516 1.327 . S
C514 H539 0.950 . S
C515 C514 1.349 . S
C515 C531 1.349 . S
C516 C514 1.327 . S
C516 C535 1.429 . S
C516 H540 0.950 1_455 S
C517 C534 1.575 1_545 S
C517 C536 1.366 . S
C517 H541 0.951 . S
H518 C522 0.951 . S
C519 C520 1.349 . S
C519 C521 1.327 1_655 S
C519 H542 0.950 1_655 S
C520 C519 1.349 . S
C520 C532 1.349 . S
C521 C519 1.327 1_455 S
C521 C537 1.429 1_455 S
C521 H543 0.950 . S
C522 H518 0.951 . S
C522 C530 1.575 1_565 S
C522 C538 1.362 1_655 S
H523 C531 0.950 . S
H524 C529 0.950 . S
H525 C530 0.949 . S
H526 C532 0.950 . S
H527 C533 0.950 . S
H528 C534 0.949 . S
C529 H524 0.950 . S
C529 C531 1.327 . S
C529 C535 1.429 . S
C530 C522 1.575 1_545 S
C530 H525 0.949 . S
C530 C536 1.368 1_655 S
C531 C515 1.349 . S
C531 H523 0.950 . S
C531 C529 1.327 . S
C532 C520 1.349 . S
C532 H526 0.950 . S
C532 C533 1.327 . S
C533 H527 0.950 . S
C533 C532 1.327 . S
C533 C537 1.429 . S
C534 C517 1.575 1_565 S
C534 H528 0.949 . S
C534 C538 1.374 . S
C535 C516 1.429 . S
C535 C529 1.429 . S
C535 C536 1.523 . S
C536 C517 1.366 . S
C536 C530 1.368 1_455 S
C536 C535 1.523 . S
C537 C521 1.429 1_655 S
C537 C533 1.429 . S
C537 C538 1.522 1_655 S
C538 C522 1.362 1_455 S
C538 C534 1.374 . S
C538 C537 1.522 1_455 S
H539 C514 0.950 . S
H540 C516 0.950 1_655 S
H541 C517 0.951 . S
H542 C519 0.950 1_455 S
H543 C521 0.950 . S
C544 C545 1.349 . S
C544 C546 1.327 . S
C544 H569 0.950 . S
C545 C544 1.349 . S
C545 C561 1.349 . S
C546 C544 1.327 . S
C546 C565 1.429 . S
C546 H570 0.950 . S
C547 C564 1.574 . S
C547 C566 1.368 . S
C547 H571 0.949 . S
H548 C552 0.949 . S
C549 C550 1.349 . S
C549 C551 1.327 . S
C549 H572 0.950 . S
C550 C549 1.349 . S
C550 C562 1.349 . S
C551 C549 1.327 . S
C551 C567 1.429 . S
C551 H573 0.950 . S
C552 H548 0.949 . S
C552 C560 1.574 . S
C552 C568 1.368 . S
H553 C561 0.950 . S
H554 C559 0.950 . S
H555 C560 0.949 . S
H556 C562 0.950 . S
H557 C563 0.950 . S
H558 C564 0.949 . S
C559 H554 0.950 . S
C559 C561 1.327 . S
C559 C565 1.429 . S
C560 C552 1.574 . S
C560 H555 0.949 . S
C560 C566 1.368 1_556 S
C561 C545 1.349 . S
C561 H553 0.950 . S
C561 C559 1.327 . S
C562 C550 1.349 . S
C562 H556 0.950 . S
C562 C563 1.327 . S
C563 H557 0.950 . S
C563 C562 1.327 . S
C563 C567 1.429 . S
C564 C547 1.574 . S
C564 H558 0.949 . S
C564 C568 1.368 1_554 S
C565 C546 1.429 . S
C565 C559 1.429 . S
C565 C566 1.523 . S
C566 C547 1.368 . S
C566 C560 1.368 1_554 S
C566 C565 1.523 . S
C567 C551 1.429 . S
C567 C563 1.429 . S
C567 C568 1.523 . S
C568 C552 1.368 . S
C568 C564 1.368 1_556 S
C568 C567 1.523 . S
H569 C544 0.950 . S
H570 C546 0.950 . S
H571 C547 0.949 . S
H572 C549 0.950 . S
H573 C551 0.950 . S
C574 C575 1.349 . S
C574 C576 1.327 . S
C574 H599 0.950 . S
C575 C574 1.349 . S
C575 C591 1.349 . S
C576 C574 1.327 . S
C576 C595 1.429 . S
C576 H600 0.950 . S
C577 C594 1.574 . S
C577 C596 1.368 . S
C577 H601 0.949 . S
H578 C582 0.949 . S
C579 C580 1.349 . S
C579 C581 1.327 . S
C579 H602 0.950 . S
C580 C579 1.349 . S
C580 C592 1.349 . S
C581 C579 1.327 . S
C581 C597 1.429 . S
C581 H603 0.950 . S
C582 H578 0.949 . S
C582 C590 1.574 . S
C582 C598 1.368 . S
H583 C591 0.950 . S
H584 C589 0.950 . S
H585 C590 0.949 . S
H586 C592 0.950 . S
H587 C593 0.950 . S
H588 C594 0.949 . S
C589 H584 0.950 . S
C589 C591 1.327 . S
C589 C595 1.429 . S
C590 C582 1.574 . S
C590 H585 0.949 . S
C590 C596 1.368 . S
C591 C575 1.349 . S
C591 H583 0.950 . S
C591 C589 1.327 . S
C592 C580 1.349 . S
C592 H586 0.950 . S
C592 C593 1.327 . S
C593 H587 0.950 . S
C593 C592 1.327 . S
C593 C597 1.429 . S
C594 C577 1.574 . S
C594 H588 0.949 . S
C594 C598 1.368 . S
C595 C576 1.429 . S
C595 C589 1.429 . S
C595 C596 1.523 . S
C596 C577 1.368 . S
C596 C590 1.368 . S
C596 C595 1.523 . S
C597 C581 1.429 . S
C597 C593 1.429 . S
C597 C598 1.523 . S
C598 C582 1.368 . S
C598 C594 1.368 . S
C598 C597 1.523 . S
H599 C574 0.950 . S
H600 C576 0.950 . S
H601 C577 0.949 . S
H602 C579 0.950 . S
H603 C581 0.950 . S
C125 C24 1.302 1_556 S
C130 C0 1.302 . S
C155 C55 1.302 . S
C160 C31 1.302 1_554 S
C185 C86 1.302 1_556 S
C190 C62 1.302 . S
C215 C93 1.302 1_554 S
C220 C117 1.302 . S
C245 C10 0.814 . S
C250 C2 0.814 . S
C275 C41 0.814 . S
C280 C33 0.814 . S
C305 C64 0.814 . S
C310 C72 0.814 . S
C335 C95 0.814 . S
C340 C103 0.814 . S
C365 C104 1.614 . S
C370 C18 1.614 . S
C395 C94 2.132 . S
C400 C27 2.132 . S
C425 C80 1.614 . S
C430 C42 1.614 . S
C455 C89 2.132 . S
C460 C32 2.132 . S
C485 C11 2.100 . S
C490 C49 2.100 . S
C515 C1 1.262 . S
C520 C58 1.262 . S
C545 C73 2.100 . S
C550 C111 2.100 . S
C575 C120 1.262 . S
C580 C63 1.262 . S
