# Generated by pormake.
# Topology whk, (6)-cn, num edge types: 1
# Building blocks:
#     Node 0, Type 0, BuildingBlock: UKALOJ_clean_sbu_0, # of connection points: 6
#     Node 1, Type 0, BuildingBlock: UKALOJ_clean_sbu_0, # of connection points: 6
#     Node 2, Type 0, BuildingBlock: UKALOJ_clean_sbu_0, # of connection points: 6
#     Node 3, Type 0, BuildingBlock: UKALOJ_clean_sbu_0, # of connection points: 6
#     Node 4, Type 0, BuildingBlock: UKALOJ_clean_sbu_0, # of connection points: 6
#     Node 5, Type 0, BuildingBlock: UKALOJ_clean_sbu_0, # of connection points: 6
#     Node 6, Type 0, BuildingBlock: UKALOJ_clean_sbu_0, # of connection points: 6
#     Node 7, Type 0, BuildingBlock: UKALOJ_clean_sbu_0, # of connection points: 6
#     Node 8, Type 0, BuildingBlock: UKALOJ_clean_sbu_0, # of connection points: 6
#     Node 9, Type 0, BuildingBlock: UKALOJ_clean_sbu_0, # of connection points: 6
#     Node 10, Type 0, BuildingBlock: UKALOJ_clean_sbu_0, # of connection points: 6
#     Node 11, Type 0, BuildingBlock: UKALOJ_clean_sbu_0, # of connection points: 6
#     Node 12, Type 0, BuildingBlock: UKALOJ_clean_sbu_0, # of connection points: 6
#     Node 13, Type 0, BuildingBlock: UKALOJ_clean_sbu_0, # of connection points: 6
#     Node 14, Type 0, BuildingBlock: UKALOJ_clean_sbu_0, # of connection points: 6
#     Node 15, Type 0, BuildingBlock: UKALOJ_clean_sbu_0, # of connection points: 6
#     Edge 16, Type (0, 0), BuildingBlock: UVAHIK_clean_linker_0, # of connection points: 2
#     Edge 17, Type (0, 0), BuildingBlock: UVAHIK_clean_linker_0, # of connection points: 2
#     Edge 18, Type (0, 0), BuildingBlock: UVAHIK_clean_linker_0, # of connection points: 2
#     Edge 19, Type (0, 0), BuildingBlock: UVAHIK_clean_linker_0, # of connection points: 2
#     Edge 20, Type (0, 0), BuildingBlock: UVAHIK_clean_linker_0, # of connection points: 2
#     Edge 21, Type (0, 0), BuildingBlock: UVAHIK_clean_linker_0, # of connection points: 2
#     Edge 22, Type (0, 0), BuildingBlock: UVAHIK_clean_linker_0, # of connection points: 2
#     Edge 23, Type (0, 0), BuildingBlock: UVAHIK_clean_linker_0, # of connection points: 2
#     Edge 24, Type (0, 0), BuildingBlock: UVAHIK_clean_linker_0, # of connection points: 2
#     Edge 25, Type (0, 0), BuildingBlock: UVAHIK_clean_linker_0, # of connection points: 2
#     Edge 26, Type (0, 0), BuildingBlock: UVAHIK_clean_linker_0, # of connection points: 2
#     Edge 27, Type (0, 0), BuildingBlock: UVAHIK_clean_linker_0, # of connection points: 2
#     Edge 28, Type (0, 0), BuildingBlock: UVAHIK_clean_linker_0, # of connection points: 2
#     Edge 29, Type (0, 0), BuildingBlock: UVAHIK_clean_linker_0, # of connection points: 2
#     Edge 30, Type (0, 0), BuildingBlock: UVAHIK_clean_linker_0, # of connection points: 2
#     Edge 31, Type (0, 0), BuildingBlock: UVAHIK_clean_linker_0, # of connection points: 2
#     Edge 32, Type (0, 0), BuildingBlock: UVAHIK_clean_linker_0, # of connection points: 2
#     Edge 33, Type (0, 0), BuildingBlock: UVAHIK_clean_linker_0, # of connection points: 2
#     Edge 34, Type (0, 0), BuildingBlock: UVAHIK_clean_linker_0, # of connection points: 2
#     Edge 35, Type (0, 0), BuildingBlock: UVAHIK_clean_linker_0, # of connection points: 2
#     Edge 36, Type (0, 0), BuildingBlock: UVAHIK_clean_linker_0, # of connection points: 2
#     Edge 37, Type (0, 0), BuildingBlock: UVAHIK_clean_linker_0, # of connection points: 2
#     Edge 38, Type (0, 0), BuildingBlock: UVAHIK_clean_linker_0, # of connection points: 2
#     Edge 39, Type (0, 0), BuildingBlock: UVAHIK_clean_linker_0, # of connection points: 2
#     Edge 40, Type (0, 0), BuildingBlock: UVAHIK_clean_linker_0, # of connection points: 2
#     Edge 41, Type (0, 0), BuildingBlock: UVAHIK_clean_linker_0, # of connection points: 2
#     Edge 42, Type (0, 0), BuildingBlock: UVAHIK_clean_linker_0, # of connection points: 2
#     Edge 43, Type (0, 0), BuildingBlock: UVAHIK_clean_linker_0, # of connection points: 2
#     Edge 44, Type (0, 0), BuildingBlock: UVAHIK_clean_linker_0, # of connection points: 2
#     Edge 45, Type (0, 0), BuildingBlock: UVAHIK_clean_linker_0, # of connection points: 2
#     Edge 46, Type (0, 0), BuildingBlock: UVAHIK_clean_linker_0, # of connection points: 2
#     Edge 47, Type (0, 0), BuildingBlock: UVAHIK_clean_linker_0, # of connection points: 2
#     Edge 48, Type (0, 0), BuildingBlock: UVAHIK_clean_linker_0, # of connection points: 2
#     Edge 49, Type (0, 0), BuildingBlock: UVAHIK_clean_linker_0, # of connection points: 2
#     Edge 50, Type (0, 0), BuildingBlock: UVAHIK_clean_linker_0, # of connection points: 2
#     Edge 51, Type (0, 0), BuildingBlock: UVAHIK_clean_linker_0, # of connection points: 2
#     Edge 52, Type (0, 0), BuildingBlock: UVAHIK_clean_linker_0, # of connection points: 2
#     Edge 53, Type (0, 0), BuildingBlock: UVAHIK_clean_linker_0, # of connection points: 2
#     Edge 54, Type (0, 0), BuildingBlock: UVAHIK_clean_linker_0, # of connection points: 2
#     Edge 55, Type (0, 0), BuildingBlock: UVAHIK_clean_linker_0, # of connection points: 2
#     Edge 56, Type (0, 0), BuildingBlock: UVAHIK_clean_linker_0, # of connection points: 2
#     Edge 57, Type (0, 0), BuildingBlock: UVAHIK_clean_linker_0, # of connection points: 2
#     Edge 58, Type (0, 0), BuildingBlock: UVAHIK_clean_linker_0, # of connection points: 2
#     Edge 59, Type (0, 0), BuildingBlock: UVAHIK_clean_linker_0, # of connection points: 2
#     Edge 60, Type (0, 0), BuildingBlock: UVAHIK_clean_linker_0, # of connection points: 2
#     Edge 61, Type (0, 0), BuildingBlock: UVAHIK_clean_linker_0, # of connection points: 2
#     Edge 62, Type (0, 0), BuildingBlock: UVAHIK_clean_linker_0, # of connection points: 2
#     Edge 63, Type (0, 0), BuildingBlock: UVAHIK_clean_linker_0, # of connection points: 2
# Relax obj value: 0.432
# Max RMSD: 0.273
# Mean RMSD: 0.273
data_MOF--net-whk--node1-UKALOJ_clean_sbu_0--edge1-UVAHIK_clean_linker_0
_symmetry_space_group_name_H-M    P1
_symmetry_Int_Tables_number       1
_symmetry_cell_setting            triclinic
loop_
_symmetry_equiv_pos_as_xyz
'x, y, z'
_cell_length_a     47.957338
_cell_length_b     47.99132
_cell_length_c     67.457902
_cell_angle_alpha  89.970662
_cell_angle_beta   90.025713
_cell_angle_gamma 90.011353
loop_
_atom_site_label
_atom_site_type_symbol
_atom_site_fract_x
_atom_site_fract_y
_atom_site_fract_z
_atom_type_partial_charge
Zn0 Zn 0.54063 0.1792 0.37278 0.0
O1 O 0.54343 0.15813 0.34598 0.0
C2 C 0.49745 0.13823 0.38469 0.0
Zn3 Zn 0.55876 0.14279 0.38858 0.0
C4 C 0.55469 0.13423 0.34497 0.0
O5 O 0.56402 0.12273 0.36063 0.0
C6 C 0.54373 0.18878 0.41614 0.0
O7 O 0.59876 0.16097 0.38538 0.0
O8 O 0.58107 0.19567 0.36845 0.0
N9 N 0.57616 0.10915 0.40269 0.0
C10 C 0.59782 0.10765 0.4154 0.0
C11 C 0.58364 0.06612 0.4105 0.0
N12 N 0.56735 0.08332 0.39969 0.0
N13 N 0.6031 0.08093 0.4203 0.0
C14 C 0.50255 0.22922 0.36349 0.0
C15 C 0.52552 0.25088 0.34125 0.0
N16 N 0.52471 0.21332 0.35881 0.0
N17 N 0.53884 0.22667 0.34486 0.0
N18 N 0.50275 0.25299 0.35282 0.0
H19 H 0.46854 0.20244 0.37049 0.0
H20 H 0.46384 0.23688 0.37961 0.0
H21 H 0.48816 0.21359 0.3917 0.0
C22 C 0.47958 0.22035 0.37724 0.0
C23 C 0.61288 0.13226 0.42401 0.0
H24 H 0.63315 0.13475 0.41638 0.0
H25 H 0.61721 0.12868 0.43997 0.0
H26 H 0.60097 0.15178 0.42233 0.0
O27 O 0.55271 0.16385 0.41631 0.0
O28 O 0.53779 0.20017 0.39972 0.0
C29 C 0.60219 0.1834 0.37571 0.0
O30 O 0.5008 0.16212 0.37698 0.0
O31 O 0.51851 0.1247 0.39091 0.0
Zn32 Zn 0.34377 0.56591 0.39252 0.0
O33 O 0.3244 0.60508 0.39051 0.0
C34 C 0.30107 0.54761 0.42179 0.0
Zn35 Zn 0.30665 0.54689 0.37792 0.0
C36 C 0.30045 0.60793 0.38279 0.0
O37 O 0.28769 0.58662 0.37632 0.0
C38 C 0.35089 0.50533 0.38673 0.0
O39 O 0.32425 0.55348 0.35015 0.0
O40 O 0.36146 0.57224 0.36372 0.0
N41 N 0.27186 0.53031 0.36506 0.0
C42 C 0.25681 0.5075 0.36966 0.0
C43 C 0.23371 0.53039 0.34812 0.0
N44 N 0.25756 0.54441 0.35158 0.0
N45 N 0.23268 0.50722 0.35936 0.0
C46 C 0.38028 0.60506 0.41851 0.0
C47 C 0.42159 0.59173 0.41176 0.0
N48 N 0.3781 0.5839 0.40544 0.0
N49 N 0.40381 0.57564 0.40128 0.0
N50 N 0.40728 0.61053 0.42251 0.0
H51 H 0.35311 0.64007 0.42156 0.0
H52 H 0.36073 0.62256 0.44434 0.0
H53 H 0.33658 0.60739 0.42692 0.0
C54 C 0.35615 0.61931 0.42838 0.0
C55 C 0.26706 0.48432 0.38272 0.0
H56 H 0.28571 0.47496 0.37577 0.0
H57 H 0.25153 0.46744 0.3845 0.0
H58 H 0.27317 0.49239 0.39745 0.0
O59 O 0.32659 0.50765 0.37935 0.0
O60 O 0.36299 0.52669 0.39377 0.0
C61 C 0.34804 0.5648 0.34831 0.0
O62 O 0.3251 0.55879 0.42099 0.0
O63 O 0.28897 0.54069 0.40583 0.0
Zn64 Zn 0.93809 0.30827 0.36972 0.0
O65 O 0.93498 0.32685 0.34188 0.0
C66 C 0.9793 0.35202 0.38092 0.0
Zn67 Zn 0.91814 0.34511 0.38391 0.0
C68 C 0.92353 0.35054 0.33984 0.0
O69 O 0.91391 0.3631 0.35501 0.0
C70 C 0.93351 0.30183 0.4135 0.0
O71 O 0.87906 0.32578 0.38041 0.0
O72 O 0.89818 0.28976 0.36582 0.0
N73 N 0.89939 0.37922 0.39645 0.0
C74 C 0.87781 0.3812 0.40919 0.0
C75 C 0.89223 0.42249 0.40363 0.0
N76 N 0.90828 0.40491 0.39299 0.0
N77 N 0.87276 0.4081 0.41374 0.0
C78 C 0.97798 0.25853 0.36373 0.0
C79 C 0.95729 0.23477 0.34146 0.0
N80 N 0.95582 0.27351 0.35763 0.0
N81 N 0.94309 0.25881 0.34369 0.0
N82 N 0.9792 0.23406 0.35394 0.0
H83 H 0.01043 0.28694 0.37104 0.0
H84 H 0.01594 0.25322 0.38118 0.0
H85 H 0.99011 0.27609 0.39193 0.0
C86 C -0.00027 0.26898 0.37792 0.0
C87 C 0.86281 0.35691 0.4183 0.0
H88 H 0.8422 0.35455 0.41108 0.0
H89 H 0.85916 0.36077 0.43431 0.0
H90 H 0.87436 0.3372 0.41657 0.0
O91 O 0.9233 0.32624 0.41252 0.0
O92 O 0.94096 0.28975 0.39767 0.0
C93 C 0.87653 0.30224 0.37203 0.0
O94 O 0.97742 0.32773 0.37351 0.0
O95 O 0.95736 0.36435 0.38678 0.0
Zn96 Zn 0.14014 0.92376 0.39754 0.0
O97 O 0.15882 0.8844 0.39535 0.0
C98 C 0.18104 0.9405 0.42851 0.0
Zn99 Zn 0.17782 0.94394 0.38456 0.0
C100 C 0.18276 0.88191 0.38763 0.0
O101 O 0.19553 0.90354 0.38179 0.0
C102 C 0.13426 0.98538 0.39359 0.0
O103 O 0.16149 0.94029 0.35611 0.0
O104 O 0.12445 0.91892 0.36789 0.0
N105 N 0.21434 0.9596 0.3738 0.0
C106 C 0.22278 0.98423 0.36626 0.0
C107 C 0.25877 0.95853 0.36915 0.0
N108 N 0.23676 0.94369 0.37541 0.0
N109 N 0.25068 0.98413 0.36335 0.0
C110 C 0.10225 0.88373 0.42163 0.0
C111 C 0.06119 0.89718 0.41423 0.0
N112 N 0.10491 0.90549 0.40909 0.0
N113 N 0.07934 0.91382 0.40452 0.0
N114 N 0.07513 0.87793 0.42486 0.0
H115 H 0.1293 0.84861 0.42461 0.0
H116 H 0.12063 0.86513 0.44755 0.0
H117 H 0.14558 0.88098 0.43109 0.0
C118 C 0.12595 0.86907 0.43178 0.0
C119 C 0.20351 0.0075 0.36075 0.0
H120 H 0.18351 -0.001 0.3551 0.0
H121 H 0.21301 0.02103 0.34924 0.0
H122 H 0.19919 0.02023 0.3741 0.0
O123 O 0.1592 0.98358 0.38731 0.0
O124 O 0.12143 0.96346 0.39901 0.0
C125 C 0.13818 0.92842 0.35317 0.0
O126 O 0.15706 0.92944 0.42678 0.0
O127 O 0.19414 0.94802 0.4131 0.0
Zn128 Zn 0.0528 0.80772 0.12558 0.0
O129 O 0.06008 0.82737 0.1527 0.0
C130 C 0.01199 0.85287 0.1165 0.0
Zn131 Zn 0.07193 0.84386 0.11006 0.0
C132 C 0.07249 0.85068 0.15391 0.0
O133 O 0.08067 0.86278 0.13814 0.0
C134 C 0.05196 0.80001 0.08199 0.0
O135 O 0.10991 0.82254 0.11077 0.0
O136 O 0.09216 0.78764 0.12751 0.0
N137 N 0.09036 0.87576 0.09475 0.0
C138 C 0.117 0.88478 0.0944 0.0
C139 C 0.09614 0.90331 0.06986 0.0
N140 N 0.07738 0.88755 0.0796 0.0
N141 N 0.12132 0.9018 0.0787 0.0
C142 C 0.01188 0.75984 0.1359 0.0
C143 C 0.03317 0.73943 0.15954 0.0
N144 N 0.03493 0.7749 0.13993 0.0
N145 N 0.04797 0.76233 0.15476 0.0
N146 N 0.01029 0.73757 0.14804 0.0
H147 H 0.97101 0.76929 0.12502 0.0
H148 H 0.99089 0.74659 0.10943 0.0
H149 H -0.00164 0.78346 0.11003 0.0
C150 C 0.99217 0.76531 0.11904 0.0
C151 C 0.13819 0.87822 0.11009 0.0
H152 H 0.12799 0.87508 0.12463 0.0
H153 H 0.15369 0.89531 0.11131 0.0
H154 H 0.14936 0.85878 0.10625 0.0
O155 O 0.06271 0.82423 0.08234 0.0
O156 O 0.04603 0.7881 0.09822 0.0
C157 C 0.11298 0.79916 0.11926 0.0
O158 O 0.01397 0.82853 0.1238 0.0
O159 O 0.03353 0.86469 0.10947 0.0
Zn160 Zn 0.68862 0.05156 0.12278 0.0
O161 O 0.66907 0.0561 0.15019 0.0
C162 C 0.64572 0.00989 0.11134 0.0
Zn163 Zn 0.65255 0.07081 0.10722 0.0
C164 C 0.64497 0.06694 0.15114 0.0
O165 O 0.63314 0.07533 0.13534 0.0
C166 C 0.69689 0.05448 0.07899 0.0
O167 O 0.67114 0.11012 0.11074 0.0
O168 O 0.70698 0.09158 0.12595 0.0
N169 N 0.61864 0.08886 0.09414 0.0
C170 C 0.61651 0.11082 0.08178 0.0
C171 C 0.57522 0.09657 0.08767 0.0
N172 N 0.59297 0.08004 0.0978 0.0
N173 N 0.58951 0.11625 0.07771 0.0
C174 C 0.73777 0.01194 0.13161 0.0
C175 C 0.7604 0.03422 0.15372 0.0
N176 N 0.72278 0.03476 0.13619 0.0
N177 N 0.73676 0.04849 0.15003 0.0
N178 N 0.76155 0.01125 0.14229 0.0
H179 H 0.70997 0.97856 0.12557 0.0
H180 H 0.74369 0.97296 0.11545 0.0
H181 H 0.7202 -0.00234 0.10395 0.0
C182 C 0.72769 0.98909 0.11822 0.0
C183 C 0.64075 0.12593 0.07269 0.0
H184 H 0.64386 0.14596 0.08051 0.0
H185 H 0.63638 0.13065 0.05688 0.0
H186 H 0.66026 0.11383 0.07372 0.0
O187 O 0.67276 0.06546 0.07923 0.0
O188 O 0.70809 0.04702 0.09518 0.0
C189 C 0.69446 0.11299 0.11939 0.0
O190 O 0.66937 0.01215 0.11971 0.0
O191 O 0.63394 0.03145 0.10433 0.0
Zn192 Zn 0.43558 0.647 0.10922 0.0
O193 O 0.39562 0.66517 0.11053 0.0
C194 C 0.45345 0.6906 0.08006 0.0
Zn195 Zn 0.45181 0.68533 0.12379 0.0
C196 C 0.39124 0.68916 0.11774 0.0
O197 O 0.41162 0.70311 0.12446 0.0
C198 C 0.49581 0.64255 0.11624 0.0
O199 O 0.44455 0.66757 0.15145 0.0
O200 O 0.42847 0.62918 0.13786 0.0
N201 N 0.46686 0.72045 0.13688 0.0
C202 C 0.48989 0.73542 0.13282 0.0
C203 C 0.46493 0.7596 0.15249 0.0
N204 N 0.45146 0.73538 0.14924 0.0
N205 N 0.48904 0.76015 0.14228 0.0
C206 C 0.40109 0.61098 0.08004 0.0
C207 C 0.40489 0.57006 0.09204 0.0
N208 N 0.41838 0.61268 0.09579 0.0
N209 N 0.42077 0.58721 0.10318 0.0
N210 N 0.39253 0.58446 0.07731 0.0
H211 H 0.36841 0.63295 0.06455 0.0
H212 H 0.40264 0.63642 0.05404 0.0
H213 H 0.39369 0.65544 0.07588 0.0
C214 C 0.39085 0.63544 0.06815 0.0
C215 C 0.51422 0.72475 0.12106 0.0
H216 H 0.52396 0.70743 0.12942 0.0
H217 H 0.53056 0.74073 0.11881 0.0
H218 H 0.50728 0.7166 0.10653 0.0
O219 O 0.49158 0.66679 0.12317 0.0
O220 O 0.47562 0.62874 0.10894 0.0
C221 C 0.43434 0.64331 0.15329 0.0
O222 O 0.4435 0.66604 0.08076 0.0
O223 O 0.45874 0.70325 0.09611 0.0
Zn224 Zn 0.81112 0.45062 0.11599 0.0
O225 O 0.83177 0.44754 0.14304 0.0
C226 C 0.85118 0.49424 0.10405 0.0
Zn227 Zn 0.84719 0.43252 0.09978 0.0
C228 C 0.85579 0.43644 0.14383 0.0
O229 O 0.86727 0.4278 0.12795 0.0
C230 C 0.80129 0.4474 0.07233 0.0
O231 O 0.83042 0.39214 0.1029 0.0
O232 O 0.79573 0.40955 0.1199 0.0
N233 N 0.88151 0.41637 0.08576 0.0
C234 C 0.88382 0.39453 0.07331 0.0
C235 C 0.92486 0.41027 0.07808 0.0
N236 N 0.90704 0.42619 0.08866 0.0
N237 N 0.91071 0.39014 0.06849 0.0
C238 C 0.76824 0.48885 0.13807 0.0
C239 C 0.73195 0.46341 0.13606 0.0
N240 N 0.77584 0.46472 0.12941 0.0
N241 N 0.75329 0.4489 0.12838 0.0
N242 N 0.74064 0.48866 0.14222 0.0
H243 H 0.80872 0.50272 0.14751 0.0
H244 H 0.77999 0.52406 0.15607 0.0
H245 H 0.79095 0.52556 0.13053 0.0
C246 C 0.78814 0.51163 0.14347 0.0
C247 C 0.85989 0.3781 0.06505 0.0
H248 H 0.83991 0.38939 0.06628 0.0
H249 H 0.85824 0.35815 0.07321 0.0
H250 H 0.86378 0.37305 0.04923 0.0
O251 O 0.82603 0.43787 0.072 0.0
O252 O 0.79039 0.45387 0.08882 0.0
C253 C 0.80814 0.38855 0.11268 0.0
O254 O 0.82741 0.49121 0.11211 0.0
O255 O 0.86397 0.47299 0.09742 0.0
Zn256 Zn 0.44727 0.80892 0.62382 0.0
O257 O 0.44103 0.82941 0.65073 0.0
C258 C 0.49001 0.85182 0.61431 0.0
Zn259 Zn 0.42966 0.84519 0.60755 0.0
C260 C 0.42896 0.85296 0.65142 0.0
O261 O 0.42111 0.86462 0.63539 0.0
C262 C 0.44818 0.80013 0.58024 0.0
O263 O 0.39069 0.82509 0.60813 0.0
O264 O 0.40723 0.79089 0.62615 0.0
N265 N 0.41249 0.87768 0.59208 0.0
C266 C 0.38609 0.88733 0.59143 0.0
C267 C 0.40828 0.90655 0.56777 0.0
N268 N 0.42631 0.88988 0.57748 0.0
N269 N 0.3828 0.90521 0.57614 0.0
C270 C 0.48654 0.76021 0.63414 0.0
C271 C 0.4627 0.73696 0.65505 0.0
N272 N 0.4634 0.77507 0.6381 0.0
N273 N 0.4487 0.76072 0.65123 0.0
N274 N 0.48645 0.7361 0.64443 0.0
H275 H 0.51986 0.78862 0.62886 0.0
H276 H 0.52686 0.75462 0.61967 0.0
H277 H 0.50258 0.77705 0.60674 0.0
C278 C 0.51022 0.77039 0.62149 0.0
C279 C 0.36396 0.88039 0.60635 0.0
H280 H 0.37334 0.8757 0.62097 0.0
H281 H 0.34908 0.89798 0.60788 0.0
H282 H 0.35216 0.86183 0.60139 0.0
O283 O 0.43851 0.8248 0.58 0.0
O284 O 0.45327 0.78857 0.59675 0.0
C285 C 0.3868 0.80252 0.61751 0.0
O286 O 0.48671 0.82764 0.62156 0.0
O287 O 0.46918 0.86492 0.60732 0.0
Zn288 Zn 0.64607 0.42482 0.60487 0.0
O289 O 0.66498 0.38529 0.60731 0.0
C290 C 0.69129 0.44228 0.57746 0.0
Zn291 Zn 0.68197 0.44337 0.62107 0.0
C292 C 0.68776 0.3821 0.61661 0.0
O293 O 0.69974 0.40321 0.62408 0.0
C294 C 0.63945 0.48565 0.6103 0.0
O295 O 0.66128 0.43813 0.64801 0.0
O296 O 0.62617 0.4182 0.63263 0.0
N297 N 0.71577 0.45935 0.63547 0.0
C298 C 0.73146 0.48193 0.6315 0.0
C299 C 0.75254 0.45868 0.65389 0.0
N300 N 0.72877 0.44502 0.64949 0.0
N301 N 0.75475 0.48185 0.64274 0.0
C302 C 0.61107 0.38621 0.57763 0.0
C303 C 0.56947 0.3998 0.58316 0.0
N304 N 0.61259 0.40745 0.59066 0.0
N305 N 0.58672 0.41588 0.59406 0.0
N306 N 0.58428 0.38084 0.5729 0.0
H307 H 0.63855 0.35128 0.57591 0.0
H308 H 0.63185 0.36782 0.5526 0.0
H309 H 0.6551 0.38385 0.57025 0.0
C310 C 0.63568 0.37172 0.56858 0.0
C311 C 0.72259 0.50523 0.61805 0.0
H312 H 0.70388 0.51521 0.6245 0.0
H313 H 0.73863 0.52168 0.61661 0.0
H314 H 0.71701 0.49715 0.60321 0.0
O315 O 0.66334 0.483 0.61823 0.0
O316 O 0.62723 0.46439 0.6032 0.0
C317 C 0.63751 0.42652 0.64863 0.0
O318 O 0.66677 0.43218 0.57733 0.0
O319 O 0.70257 0.44845 0.5939 0.0
Zn320 Zn 0.06769 0.64661 0.61228 0.0
O321 O 0.10629 0.66686 0.61351 0.0
C322 C 0.04735 0.68927 0.58386 0.0
Zn323 Zn 0.04869 0.68286 0.62788 0.0
C324 C 0.1094 0.6905 0.6216 0.0
O325 O 0.08833 0.70272 0.62898 0.0
C326 C 0.00762 0.63779 0.61931 0.0
O327 O 0.05629 0.66471 0.65551 0.0
O328 O 0.07589 0.62887 0.64078 0.0
N329 N 0.03157 0.71729 0.64092 0.0
C330 C 0.00816 0.73136 0.63628 0.0
C331 C 0.03144 0.75674 0.65622 0.0
N332 N 0.04593 0.733 0.65342 0.0
N333 N 0.00772 0.75628 0.64553 0.0
C334 C 0.10716 0.61182 0.58552 0.0
C335 C 0.09569 0.57 0.59239 0.0
N336 N 0.0862 0.61306 0.59882 0.0
N337 N 0.07909 0.58704 0.60306 0.0
N338 N 0.11367 0.58509 0.58145 0.0
H339 H 0.14053 0.64111 0.58263 0.0
H340 H 0.12418 0.63192 0.55968 0.0
H341 H 0.10705 0.65535 0.57663 0.0
C342 C 0.12021 0.63656 0.57555 0.0
C343 C 0.98464 0.71954 0.62423 0.0
H344 H 0.97574 0.70168 0.63243 0.0
H345 H 0.96749 0.73463 0.62192 0.0
H346 H 0.99222 0.71189 0.60974 0.0
O347 O 0.00973 0.662 0.62684 0.0
O348 O 0.02897 0.62629 0.61176 0.0
C349 C 0.06844 0.64124 0.65663 0.0
O350 O 0.05872 0.66533 0.58406 0.0
O351 O 0.04133 0.70092 0.60016 0.0
Zn352 Zn 0.84365 0.06416 0.60376 0.0
O353 O 0.82549 0.10374 0.60726 0.0
C354 C 0.79749 0.04771 0.57673 0.0
Zn355 Zn 0.80801 0.0451 0.62013 0.0
C356 C 0.80304 0.10689 0.6169 0.0
O357 O 0.79099 0.08562 0.62405 0.0
C358 C 0.84995 0.00297 0.60781 0.0
O359 O 0.82918 0.04904 0.64693 0.0
O360 O 0.86423 0.06936 0.63162 0.0
N361 N 0.77341 0.02955 0.63411 0.0
C362 C 0.76487 0.00398 0.63978 0.0
C363 C 0.73015 0.03131 0.64269 0.0
N364 N 0.75183 0.04648 0.6362 0.0
N365 N 0.73761 0.00444 0.64496 0.0
C366 C 0.87713 0.10416 0.57665 0.0
C367 C 0.91924 0.09127 0.58092 0.0
N368 N 0.87662 0.08226 0.58919 0.0
N369 N 0.90282 0.07423 0.59179 0.0
N370 N 0.90354 0.11036 0.57147 0.0
H371 H 0.83271 0.10635 0.57027 0.0
H372 H 0.84913 0.13883 0.57632 0.0
H373 H 0.85499 0.12347 0.55255 0.0
C374 C 0.85191 0.11875 0.56851 0.0
C375 C 0.78362 0.97918 0.64143 0.0
H376 H 0.80442 0.98565 0.64697 0.0
H377 H 0.77481 0.96344 0.65174 0.0
H378 H 0.78608 0.96965 0.62658 0.0
O379 O 0.82618 0.00533 0.61601 0.0
O380 O 0.86208 0.02453 0.60106 0.0
C381 C 0.85306 0.06048 0.64757 0.0
O382 O 0.82195 0.05796 0.57631 0.0
O383 O 0.78687 0.04095 0.59325 0.0
Zn384 Zn 0.94788 0.18704 0.86957 0.0
O385 O 0.94372 0.1662 0.84275 0.0
C386 C 0.99068 0.14511 0.88161 0.0
Zn387 Zn 0.92978 0.15072 0.88555 0.0
C388 C 0.93321 0.14198 0.84179 0.0
O389 O 0.92485 0.13007 0.85759 0.0
C390 C 0.94523 0.19677 0.91304 0.0
O391 O 0.89029 0.16893 0.88187 0.0
O392 O 0.90761 0.20476 0.86595 0.0
N393 N 0.9117 0.11763 0.89985 0.0
C394 C 0.89452 0.11696 0.91567 0.0
C395 C 0.89954 0.07508 0.90575 0.0
N396 N 0.91478 0.09159 0.8937 0.0
N397 N 0.88683 0.09053 0.91974 0.0
C398 C 0.98726 0.23619 0.85939 0.0
C399 C 0.96593 0.25545 0.83527 0.0
N400 N 0.96482 0.22031 0.85521 0.0
N401 N 0.95174 0.23218 0.84011 0.0
N402 N 0.98844 0.25826 0.84704 0.0
H403 H 0.02759 0.22555 0.87062 0.0
H404 H 0.00937 0.25111 0.88501 0.0
H405 H -0.00031 0.21485 0.8865 0.0
C406 C 0.00682 0.23152 0.87646 0.0
C407 C 0.88384 0.14216 0.92645 0.0
H408 H 0.86207 0.13878 0.93146 0.0
H409 H 0.89696 0.14579 0.93973 0.0
H410 H 0.88452 0.16106 0.91715 0.0
O411 O 0.93551 0.17212 0.91307 0.0
O412 O 0.95175 0.20799 0.89668 0.0
C413 C 0.88667 0.19196 0.87301 0.0
O414 O 0.98758 0.16843 0.87294 0.0
O415 O 0.96953 0.13269 0.88875 0.0
Zn416 Zn 0.35242 0.92406 0.89278 0.0
O417 O 0.3325 0.88499 0.89052 0.0
C418 C 0.31166 0.93979 0.9246 0.0
Zn419 Zn 0.3136 0.94332 0.88082 0.0
C420 C 0.30811 0.88225 0.88345 0.0
O421 O 0.29475 0.90376 0.87796 0.0
C422 C 0.35797 0.98509 0.88895 0.0
O423 O 0.33057 0.93931 0.85223 0.0
O424 O 0.36817 0.91871 0.86361 0.0
N425 N 0.279 0.96129 0.8687 0.0
C426 C 0.26156 0.98103 0.87559 0.0
C427 C 0.24623 0.9684 0.84731 0.0
N428 N 0.26952 0.95357 0.85108 0.0
N429 N 0.24084 0.98568 0.86253 0.0
C430 C 0.38962 0.88334 0.91693 0.0
C431 C 0.43085 0.89629 0.90958 0.0
N432 N 0.38726 0.90511 0.90436 0.0
N433 N 0.41293 0.91311 0.89981 0.0
N434 N 0.41668 0.87724 0.92023 0.0
H435 H 0.36212 0.84854 0.92009 0.0
H436 H 0.37086 0.86536 0.94293 0.0
H437 H 0.3462 0.88118 0.92621 0.0
C438 C 0.3657 0.86909 0.9271 0.0
C439 C 0.26521 -0.00342 0.89465 0.0
H440 H 0.25763 0.01832 0.89306 0.0
H441 H 0.25249 0.98631 0.90625 0.0
H442 H 0.28729 -0.00312 0.89941 0.0
O443 O 0.33281 0.98242 0.8834 0.0
O444 O 0.37191 0.96367 0.89402 0.0
C445 C 0.35401 0.92786 0.84904 0.0
O446 O 0.33599 0.93 0.9219 0.0
O447 O 0.29713 0.94693 0.9097 0.0
Zn448 Zn 0.56426 0.3436 0.88763 0.0
O449 O 0.60489 0.32675 0.88541 0.0
C450 C 0.54979 0.30016 0.91721 0.0
Zn451 Zn 0.54687 0.30545 0.87346 0.0
C452 C 0.60891 0.30367 0.87673 0.0
O453 O 0.58812 0.29032 0.87006 0.0
C454 C 0.50257 0.34598 0.88339 0.0
O455 O 0.54917 0.3239 0.84562 0.0
O456 O 0.56885 0.36102 0.85873 0.0
N457 N 0.533 0.26882 0.86165 0.0
C458 C 0.50812 0.2593 0.85526 0.0
C459 C 0.53581 0.22465 0.85633 0.0
N460 N 0.55019 0.24726 0.86207 0.0
N461 N 0.50925 0.23149 0.85205 0.0
C462 C 0.60226 0.38192 0.91289 0.0
C463 C 0.58738 0.42271 0.90625 0.0
N464 N 0.58065 0.37897 0.90025 0.0
N465 N 0.5714 0.40437 0.89616 0.0
N466 N 0.60708 0.40907 0.91665 0.0
H467 H 0.63815 0.35568 0.91503 0.0
H468 H 0.62207 0.3634 0.93831 0.0
H469 H 0.60635 0.3385 0.92177 0.0
C470 C 0.61782 0.35838 0.92254 0.0
C471 C 0.48351 0.27752 0.85094 0.0
H472 H 0.49058 0.29776 0.84478 0.0
H473 H 0.46925 0.26738 0.84018 0.0
H474 H 0.47196 0.28151 0.86489 0.0
O475 O 0.50628 0.32137 0.87698 0.0
O476 O 0.52344 0.36038 0.88894 0.0
C477 C 0.55982 0.34797 0.84358 0.0
O478 O 0.55861 0.32511 0.91626 0.0
O479 O 0.54413 0.28719 0.90135 0.0
Zn480 Zn 0.18607 0.54574 0.88422 0.0
O481 O 0.16915 0.54921 0.8558 0.0
C482 C 0.14324 0.50353 0.89362 0.0
Zn483 Zn 0.14838 0.56517 0.89776 0.0
C484 C 0.14559 0.56084 0.85337 0.0
O485 O 0.13225 0.56992 0.86838 0.0
C486 C 0.18988 0.54939 0.9283 0.0
O487 O 0.16668 0.60487 0.89551 0.0
O488 O 0.20323 0.58636 0.88128 0.0
N489 N 0.11291 0.58266 0.9095 0.0
C490 C 0.10987 0.60461 0.92178 0.0
C491 C 0.06904 0.59 0.91484 0.0
N492 N 0.08749 0.57355 0.90525 0.0
N493 N 0.08268 0.60977 0.92514 0.0
C494 C 0.23096 0.50582 0.86559 0.0
C495 C 0.26725 0.53089 0.86933 0.0
N496 N 0.22268 0.53034 0.87337 0.0
N497 N 0.24528 0.54589 0.8755 0.0
N498 N 0.25895 0.50557 0.86309 0.0
H499 H 0.19154 0.49193 0.85412 0.0
H500 H 0.22091 0.47008 0.8476 0.0
H501 H 0.20718 0.46955 0.87246 0.0
C502 C 0.21151 0.48301 0.85948 0.0
C503 C 0.13325 0.62047 0.93132 0.0
H504 H 0.1531 0.60886 0.93103 0.0
H505 H 0.136 0.6405 0.92339 0.0
H506 H 0.1279 0.62541 0.94693 0.0
O507 O 0.16562 0.55984 0.92676 0.0
O508 O 0.20286 0.54208 0.91277 0.0
C509 C 0.19039 0.60774 0.88749 0.0
O510 O 0.16804 0.50582 0.88713 0.0
O511 O 0.1302 0.52518 0.89927 0.0
C512 C 0.57815 0.10051 0.32213 0.0
C513 C 0.5576 0.12079 0.32548 0.0
C514 C 0.58298 0.0906 0.30295 0.0
C515 C 0.57456 0.11401 0.25149 0.0
H516 H 0.59954 0.03934 0.23869 0.0
C517 C 0.60515 0.08332 0.17209 0.0
C518 C 0.63092 0.06959 0.17049 0.0
C519 C 0.59244 0.08648 0.19057 0.0
C520 C 0.59259 0.06027 0.24209 0.0
H521 H 0.52448 0.14493 0.31185 0.0
H522 H 0.53238 0.12712 0.2786 0.0
H523 H 0.58338 0.04976 0.27226 0.0
H524 H 0.66316 0.04767 0.18688 0.0
H525 H 0.64107 0.05344 0.21907 0.0
H526 H 0.58421 0.1247 0.22153 0.0
C527 C 0.5454 0.11953 0.29057 0.0
C528 C 0.58341 0.06624 0.26128 0.0
C529 C 0.54082 0.12965 0.30962 0.0
C530 C 0.64336 0.05848 0.18763 0.0
C531 C 0.63059 0.06153 0.20606 0.0
C532 C 0.5836 0.10802 0.23235 0.0
C533 C 0.56712 0.1006 0.28689 0.0
C534 C 0.57465 0.09329 0.26624 0.0
C535 C 0.60519 0.07584 0.20774 0.0
C536 C 0.59309 0.08122 0.22753 0.0
H537 H 0.59135 0.09333 0.33412 0.0
H538 H 0.6 0.07615 0.30059 0.0
H539 H 0.56851 0.13522 0.25489 0.0
H540 H 0.59498 0.09196 0.15914 0.0
H541 H 0.57272 0.09742 0.19146 0.0
C542 C 0.42255 0.60421 0.17665 0.0
C543 C 0.42834 0.63255 0.17334 0.0
C544 C 0.416 0.59476 0.19574 0.0
C545 C 0.38298 0.61813 0.24055 0.0
H546 H 0.42222 0.55932 0.26853 0.0
C547 C 0.34111 0.56876 0.31185 0.0
C548 C 0.35917 0.56994 0.32825 0.0
C549 C 0.35088 0.57459 0.29287 0.0
C550 C 0.41119 0.57578 0.26082 0.0
H551 H 0.43212 0.6731 0.1874 0.0
H552 H 0.42006 0.65665 0.22042 0.0
H553 H 0.43699 0.5726 0.23487 0.0
H554 H 0.40183 0.57732 0.33755 0.0
H555 H 0.41909 0.58713 0.30398 0.0
H556 H 0.35694 0.62117 0.2662 0.0
C557 C 0.42083 0.64179 0.20834 0.0
C558 C 0.41946 0.58318 0.24163 0.0
C559 C 0.42779 0.65113 0.18944 0.0
C560 C 0.38744 0.57639 0.32519 0.0
C561 C 0.39733 0.58181 0.30604 0.0
C562 C 0.37442 0.61041 0.25949 0.0
C563 C 0.41468 0.61363 0.21162 0.0
C564 C 0.40551 0.60458 0.23146 0.0
C565 C 0.37898 0.58134 0.28982 0.0
C566 C 0.38851 0.58929 0.26981 0.0
H567 H 0.42293 0.58943 0.16452 0.0
H568 H 0.41119 0.57293 0.198 0.0
H569 H 0.37189 0.63464 0.23292 0.0
H570 H 0.31921 0.56387 0.3137 0.0
H571 H 0.3364 0.574 0.28053 0.0
C572 C 0.9042 0.38606 0.31622 0.0
C573 C 0.92149 0.36301 0.31987 0.0
C574 C 0.90139 0.39663 0.29699 0.0
C575 C 0.90947 0.37474 0.24488 0.0
H576 H 0.89983 0.45346 0.23388 0.0
C577 C 0.89241 0.41472 0.16542 0.0
C578 C 0.8693 0.43246 0.16331 0.0
C579 C 0.90309 0.40876 0.18424 0.0
C580 C 0.90251 0.43141 0.23676 0.0
H581 H 0.95039 0.33377 0.30642 0.0
H582 H 0.94592 0.35251 0.27313 0.0
H583 H 0.91014 0.43818 0.26767 0.0
H584 H 0.84027 0.45909 0.17913 0.0
H585 H 0.85883 0.44863 0.21184 0.0
H586 H 0.90145 0.3679 0.21409 0.0
C587 C 0.93395 0.36201 0.28494 0.0
C588 C 0.90829 0.42266 0.2561 0.0
C589 C 0.93658 0.35133 0.30407 0.0
C590 C 0.85798 0.44517 0.18026 0.0
C591 C 0.86875 0.43937 0.19901 0.0
C592 C 0.90384 0.3835 0.22557 0.0
C593 C 0.91597 0.38446 0.28109 0.0
C594 C 0.91148 0.39417 0.26042 0.0
C595 C 0.89101 0.42063 0.20125 0.0
C596 C 0.89991 0.41187 0.22135 0.0
H597 H 0.89232 0.39549 0.3281 0.0
H598 H 0.88713 0.41378 0.2945 0.0
H599 H 0.91131 0.3526 0.24771 0.0
H600 H 0.90164 0.40469 0.15262 0.0
H601 H 0.92046 0.39445 0.18553 0.0
C602 C 0.14101 0.93978 0.31713 0.0
C603 C 0.12794 0.92517 0.33263 0.0
C604 C 0.13302 0.93548 0.2975 0.0
C605 C 0.07739 0.90549 0.2658 0.0
H606 H 0.13742 0.89842 0.22759 0.0
C607 C 0.064 0.85158 0.19037 0.0
C608 C 0.07711 0.86321 0.17366 0.0
C609 C 0.06868 0.8625 0.20922 0.0
C610 C 0.12039 0.90079 0.23799 0.0
H611 H 0.09567 0.89516 0.33972 0.0
H612 H 0.082 0.88718 0.30529 0.0
H613 H 0.14809 0.91092 0.26173 0.0
H614 H 0.10515 0.89573 0.16361 0.0
H615 H 0.11352 0.91479 0.19678 0.0
H616 H 0.04981 0.89454 0.24207 0.0
C617 C 0.0982 0.90229 0.30837 0.0
C618 C 0.12647 0.90796 0.25758 0.0
C619 C 0.10609 0.90675 0.3281 0.0
C620 C 0.09477 0.88631 0.1762 0.0
C621 C 0.09964 0.89713 0.19517 0.0
C622 C 0.07132 0.8982 0.24621 0.0
C623 C 0.11189 0.91631 0.29282 0.0
C624 C 0.10508 0.91011 0.27178 0.0
C625 C 0.0867 0.88523 0.21187 0.0
C626 C 0.0928 0.89545 0.23216 0.0
H627 H 0.1577 0.9544 0.32013 0.0
H628 H 0.14359 0.94707 0.28594 0.0
H629 H 0.06038 0.90744 0.27626 0.0
H630 H 0.0502 0.83382 0.18896 0.0
H631 H 0.05872 0.85262 0.2218 0.0
C632 C 0.35023 0.93844 0.81289 0.0
C633 C 0.36421 0.92494 0.82849 0.0
C634 C 0.35892 0.93487 0.79332 0.0
C635 C 0.41788 0.90982 0.7625 0.0
H636 H 0.36003 0.89819 0.72314 0.0
C637 C 0.43713 0.8556 0.68786 0.0
C638 C 0.42384 0.86612 0.67086 0.0
C639 C 0.43141 0.86675 0.70649 0.0
C640 C 0.37643 0.90187 0.73388 0.0
H641 H 0.39861 0.8975 0.83584 0.0
H642 H 0.41344 0.89071 0.8016 0.0
H643 H 0.34714 0.90982 0.75705 0.0
H644 H 0.39457 0.89699 0.65998 0.0
H645 H 0.38434 0.9164 0.69276 0.0
H646 H 0.4471 0.90089 0.73935 0.0
C647 C 0.39604 0.90448 0.80452 0.0
C648 C 0.36907 0.90854 0.75333 0.0
C649 C 0.38744 0.90822 0.82414 0.0
C650 C 0.40511 0.88846 0.67283 0.0
C651 C 0.39918 0.89947 0.69156 0.0
C652 C 0.42523 0.90299 0.74306 0.0
C653 C 0.38169 0.91755 0.78886 0.0
C654 C 0.38969 0.91224 0.76793 0.0
C655 C 0.41213 0.88854 0.70858 0.0
C656 C 0.40455 0.89857 0.72863 0.0
H657 H 0.33241 0.95171 0.81575 0.0
H658 H 0.34772 0.94564 0.78167 0.0
H659 H 0.4343 0.91304 0.77329 0.0
H660 H 0.45176 0.83846 0.68685 0.0
H661 H 0.44146 0.85768 0.71935 0.0
C662 C 0.5797 0.38283 0.81984 0.0
C663 C 0.56188 0.36024 0.8236 0.0
C664 C 0.58299 0.39287 0.80053 0.0
C665 C 0.57593 0.36914 0.74893 0.0
H666 H 0.58947 0.44691 0.73665 0.0
C667 C 0.59963 0.40573 0.66948 0.0
C668 C 0.62359 0.42242 0.6679 0.0
C669 C 0.58767 0.40061 0.68801 0.0
C670 C 0.58568 0.42513 0.7399 0.0
H671 H 0.53228 0.33149 0.8104 0.0
H672 H 0.53754 0.34937 0.7769 0.0
H673 H 0.57639 0.43354 0.77035 0.0
H674 H 0.65314 0.44777 0.68434 0.0
H675 H 0.63232 0.43874 0.71657 0.0
H676 H 0.58564 0.36066 0.71861 0.0
C677 C 0.54959 0.35885 0.78868 0.0
C678 C 0.5783 0.41747 0.75917 0.0
C679 C 0.54652 0.34866 0.8079 0.0
C680 C 0.63476 0.43467 0.68508 0.0
C681 C 0.6227 0.42972 0.70353 0.0
C682 C 0.58313 0.37682 0.72968 0.0
C683 C 0.56831 0.38065 0.7847 0.0
C684 C 0.5738 0.38932 0.76397 0.0
C685 C 0.59932 0.4123 0.70522 0.0
C686 C 0.58855 0.40481 0.72506 0.0
H687 H 0.59178 0.39216 0.83168 0.0
H688 H 0.5978 0.40951 0.79793 0.0
H689 H 0.57309 0.34722 0.75217 0.0
H690 H 0.5905 0.3961 0.65649 0.0
H691 H 0.5695 0.38725 0.68891 0.0
C692 C 0.09137 0.60539 0.67828 0.0
C693 C 0.07394 0.62876 0.67628 0.0
C694 C 0.09732 0.59452 0.69706 0.0
C695 C 0.07255 0.59327 0.74886 0.0
H696 H 0.15024 0.58014 0.7617 0.0
C697 C 0.11215 0.58271 0.82938 0.0
C698 C 0.13445 0.56447 0.8331 0.0
C699 C 0.10313 0.58754 0.80997 0.0
C700 C 0.12838 0.58319 0.7583 0.0
H701 H 0.0485 0.65858 0.69235 0.0
H702 H 0.05885 0.6396 0.72497 0.0
H703 H 0.13737 0.59336 0.72808 0.0
H704 H 0.16391 0.53598 0.8195 0.0
H705 H 0.14778 0.54389 0.78578 0.0
H706 H 0.06354 0.58324 0.7791 0.0
C707 C 0.06783 0.62962 0.71207 0.0
C708 C 0.12104 0.5908 0.73902 0.0
C709 C 0.06209 0.64061 0.69337 0.0
C710 C 0.14688 0.55043 0.81711 0.0
C711 C 0.13773 0.55507 0.79775 0.0
C712 C 0.07987 0.58546 0.76813 0.0
C713 C 0.08571 0.60664 0.71414 0.0
C714 C 0.09311 0.59629 0.73417 0.0
C715 C 0.11608 0.57405 0.79389 0.0
C716 C 0.10792 0.58067 0.77315 0.0
H717 H 0.10078 0.59577 0.6654 0.0
H718 H 0.11103 0.57666 0.69823 0.0
H719 H 0.05081 0.59705 0.74545 0.0
H720 H 0.1022 0.59388 0.8414 0.0
H721 H 0.08662 0.60254 0.80753 0.0
C722 C 0.85561 0.05179 0.684 0.0
C723 C 0.86706 0.06406 0.66691 0.0
C724 C 0.86736 0.05669 0.70258 0.0
C725 C 0.90718 0.10967 0.72881 0.0
H726 H 0.91192 0.05379 0.77026 0.0
C727 C 0.94603 0.13864 0.80615 0.0
C728 C 0.93053 0.12843 0.82226 0.0
C729 C 0.94212 0.12781 0.78721 0.0
C730 C 0.91055 0.06963 0.75886 0.0
H731 H 0.9005 0.09016 0.65579 0.0
H732 H 0.92107 0.0988 0.68838 0.0
H733 H 0.89879 0.03997 0.73664 0.0
H734 H 0.8996 0.09809 0.83136 0.0
H735 H 0.89216 0.07953 0.798 0.0
H736 H 0.91799 0.13948 0.75096 0.0
C737 C 0.90283 0.08556 0.68735 0.0
C738 C 0.90313 0.06172 0.73963 0.0
C739 C 0.89113 0.08054 0.6687 0.0
C740 C 0.9118 0.10636 0.81919 0.0
C741 C 0.90767 0.09566 0.80011 0.0
C742 C 0.91447 0.11758 0.748 0.0
C743 C 0.89077 0.07404 0.7045 0.0
C744 C 0.90111 0.08173 0.72446 0.0
C745 C 0.92239 0.10672 0.78385 0.0
C746 C 0.91602 0.09771 0.7633 0.0
H747 H 0.83715 0.03884 0.68313 0.0
H748 H 0.85743 0.04777 0.71553 0.0
H749 H 0.90527 0.12565 0.71754 0.0
H750 H 0.96098 0.15535 0.80811 0.0
H751 H 0.95429 0.13632 0.77511 0.0
C752 C 0.46705 0.09669 0.38029 0.0
C753 C 0.46967 0.12529 0.38419 0.0
C754 C 0.44085 0.08517 0.37652 0.0
C755 C 0.3676 0.09041 0.38549 0.0
H756 H 0.35819 0.05467 0.33435 0.0
C757 C 0.26611 0.03286 0.36781 0.0
C758 C 0.26973 0.00649 0.35917 0.0
C759 C 0.28788 0.05224 0.36773 0.0
C760 C 0.36046 0.06437 0.34875 0.0
H761 H 0.44712 0.16395 0.38848 0.0
H762 H 0.40103 0.14343 0.38257 0.0
H763 H 0.40233 0.07726 0.34245 0.0
H764 H 0.29821 0.98028 0.34279 0.0
H765 H 0.33645 0.01335 0.34322 0.0
H766 H 0.32664 0.07614 0.3925 0.0
C767 C 0.41932 0.13021 0.38201 0.0
C768 C 0.38569 0.07735 0.35331 0.0
C769 C 0.44559 0.14188 0.38534 0.0
C770 C 0.29488 0.00055 0.34944 0.0
C771 C 0.31674 0.01967 0.3496 0.0
C772 C 0.34253 0.07692 0.38112 0.0
C773 C 0.4169 0.10195 0.37705 0.0
C774 C 0.38957 0.09002 0.37183 0.0
C775 C 0.31389 0.0454 0.35939 0.0
C776 C 0.33883 0.06323 0.36282 0.0
H777 H 0.48534 0.08353 0.37916 0.0
H778 H 0.43931 0.06323 0.37288 0.0
H779 H 0.37026 0.1001 0.39987 0.0
H780 H 0.24731 0.03786 0.37589 0.0
H781 H 0.28472 0.07205 0.37507 0.0
C782 C 0.35182 0.45386 0.38093 0.0
C783 C 0.36599 0.47863 0.38552 0.0
C784 C 0.36656 0.42913 0.37803 0.0
C785 C 0.43558 0.39624 0.3863 0.0
H786 H 0.41099 0.34691 0.34425 0.0
C787 C 0.47648 0.29334 0.34023 0.0
C788 C 0.48713 0.27799 0.3562 0.0
C789 C 0.46187 0.31809 0.34365 0.0
C790 C 0.41833 0.36062 0.35589 0.0
H791 H 0.40667 0.4969 0.39096 0.0
H792 H 0.43242 0.45404 0.38539 0.0
H793 H 0.38522 0.38956 0.35087 0.0
H794 H 0.49279 0.27711 0.38803 0.0
H795 H 0.46618 0.31933 0.39419 0.0
H796 H 0.46935 0.36799 0.39077 0.0
C797 C 0.40989 0.45346 0.38445 0.0
C798 C 0.40328 0.38485 0.35991 0.0
C799 C 0.39512 0.47808 0.38759 0.0
C800 C 0.48381 0.28813 0.37555 0.0
C801 C 0.46903 0.31258 0.37901 0.0
C802 C 0.45079 0.3722 0.38213 0.0
C803 C 0.39581 0.42875 0.37942 0.0
C804 C 0.41166 0.40288 0.37523 0.0
C805 C 0.45788 0.3279 0.36311 0.0
C806 C 0.44224 0.354 0.36698 0.0
H807 H 0.32939 0.45357 0.3794 0.0
H808 H 0.35502 0.41035 0.3746 0.0
H809 H 0.44248 0.40949 0.39833 0.0
H810 H 0.47941 0.28608 0.32518 0.0
H811 H 0.45403 0.32968 0.33105 0.0
C812 C 0.00745 0.39546 0.3851 0.0
C813 C 0.00639 0.36668 0.38135 0.0
C814 C 0.03262 0.40991 0.38369 0.0
C815 C 0.10243 0.40455 0.36078 0.0
H816 H 0.11906 0.46663 0.39556 0.0
C817 C 0.19878 0.48408 0.38123 0.0
C818 C 0.20859 0.48991 0.36207 0.0
C819 C 0.17472 0.46824 0.38394 0.0
C820 C 0.11493 0.44915 0.38585 0.0
H821 H 0.03117 0.33037 0.37396 0.0
H822 H 0.07519 0.35536 0.37211 0.0
H823 H 0.0768 0.43966 0.40077 0.0
H824 H 0.2004 0.48522 0.33076 0.0
H825 H 0.15767 0.45801 0.33536 0.0
H826 H 0.14101 0.41352 0.34623 0.0
C827 C 0.05643 0.36692 0.3756 0.0
C828 C 0.09047 0.43391 0.38868 0.0
C829 C 0.0312 0.35252 0.37682 0.0
C830 C 0.19344 0.4804 0.34565 0.0
C831 C 0.16916 0.46473 0.34833 0.0
C832 C 0.12702 0.41965 0.35805 0.0
C833 C 0.05737 0.39587 0.37869 0.0
C834 C 0.08385 0.41151 0.37612 0.0
C835 C 0.15953 0.45846 0.36753 0.0
C836 C 0.13351 0.4422 0.3705 0.0
H837 H 0.98867 0.40704 0.38852 0.0
H838 H 0.03248 0.43225 0.38593 0.0
H839 H 0.09782 0.38768 0.35064 0.0
H840 H 0.20957 0.49212 0.39412 0.0
H841 H 0.16806 0.46367 0.39893 0.0
C842 C 0.09012 0.01286 0.3942 0.0
C843 C 0.11933 0.01225 0.39282 0.0
C844 C 0.07557 0.03766 0.39115 0.0
C845 C 0.04967 0.09486 0.39269 0.0
H846 H 0.07554 0.1438 0.35079 0.0
C847 C -0.00167 0.20097 0.37819 0.0
C848 C 0.99566 0.20994 0.35849 0.0
C849 C 0.014 0.1774 0.38276 0.0
C850 C 0.06788 0.13022 0.36241 0.0
H851 H 0.1563 0.03745 0.38825 0.0
H852 H 0.13095 0.08094 0.38342 0.0
H853 H 0.10183 0.10185 0.35869 0.0
H854 H 0.00563 0.20066 0.32798 0.0
H855 H 0.03261 0.15864 0.3358 0.0
H856 H 0.0151 0.1225 0.39586 0.0
C857 C 0.11923 0.06207 0.38628 0.0
C858 C 0.08321 0.10639 0.36716 0.0
C859 C 0.13378 0.03719 0.38916 0.0
C860 C 0.00798 0.19431 0.3433 0.0
C861 C 0.02351 0.17048 0.34783 0.0
C862 C 0.03424 0.11852 0.38783 0.0
C863 C 0.08992 0.06249 0.38687 0.0
C864 C 0.07425 0.0884 0.38234 0.0
C865 C 0.02678 0.16182 0.36765 0.0
C866 C 0.04315 0.13651 0.37264 0.0
H867 H 0.07834 0.99397 0.39688 0.0
H868 H 0.053 0.0371 0.39147 0.0
H869 H 0.04231 0.08163 0.40461 0.0
H870 H 0.98816 0.21221 0.39008 0.0
H871 H 0.01622 0.17152 0.39818 0.0
C872 C 0.96047 0.85402 0.12214 0.0
C873 C 0.9853 0.86801 0.11736 0.0
C874 C 0.93556 0.8688 0.12418 0.0
C875 C 0.90282 0.93697 0.11257 0.0
H876 H 0.85171 0.91583 0.15449 0.0
C877 C 0.80009 0.98337 0.15594 0.0
C878 C 0.78561 0.99398 0.13954 0.0
C879 C 0.82418 0.96743 0.15319 0.0
C880 C 0.8659 0.92219 0.14285 0.0
H881 H 0.00355 0.90837 0.11088 0.0
H882 H 0.96043 0.93419 0.11498 0.0
H883 H 0.89439 0.88927 0.1496 0.0
H884 H 0.78565 -0.00201 0.10759 0.0
H885 H 0.82661 0.96897 0.1026 0.0
H886 H 0.87513 0.97064 0.1064 0.0
C887 C 0.95991 0.91176 0.11668 0.0
C888 C 0.89016 0.90668 0.13983 0.0
C889 C 0.9847 0.89696 0.1144 0.0
C890 C 0.79592 0.98907 0.12041 0.0
C891 C 0.81968 0.97291 0.11761 0.0
C892 C 0.87878 0.95264 0.11573 0.0
C893 C 0.93506 0.8979 0.12169 0.0
C894 C 0.90891 0.9139 0.12465 0.0
C895 C 0.83421 0.96198 0.13396 0.0
C896 C 0.85997 0.9454 0.13086 0.0
H897 H 0.9603 0.83167 0.1244 0.0
H898 H 0.91671 0.85741 0.1277 0.0
H899 H 0.91659 0.94293 0.10058 0.0
H900 H 0.79274 0.9875 0.17082 0.0
H901 H 0.83518 0.95982 0.16613 0.0
C902 C 0.51477 0.80092 0.15466 0.0
C903 C 0.50572 0.78442 0.13879 0.0
C904 C 0.53028 0.82507 0.15109 0.0
C905 C 0.57586 0.86589 0.13976 0.0
H906 H 0.55671 0.91239 0.09472 0.0
C907 C 0.64468 0.95834 0.11675 0.0
C908 C 0.63085 0.983 0.1114 0.0
C909 C 0.62989 0.93349 0.11887 0.0
C910 C 0.56222 0.89976 0.10744 0.0
H911 H 0.50394 0.78083 0.10683 0.0
H912 H 0.53206 0.8221 0.10051 0.0
H913 H 0.52895 0.87125 0.1019 0.0
H914 H 0.59075 0.00084 0.10355 0.0
H915 H 0.56486 0.95771 0.10769 0.0
H916 H 0.60842 0.89507 0.14578 0.0
C917 C 0.52729 0.81666 0.11572 0.0
C918 C 0.54652 0.87596 0.11142 0.0
C919 C 0.51163 0.79277 0.11931 0.0
C920 C 0.60207 0.98214 0.10759 0.0
C921 C 0.58722 0.95737 0.1099 0.0
C922 C 0.59142 0.88984 0.13588 0.0
C923 C 0.53678 0.83314 0.13155 0.0
C924 C 0.5532 0.8587 0.12759 0.0
C925 C 0.60089 0.93286 0.11587 0.0
C926 C 0.5848 0.90703 0.11966 0.0
H927 H 0.50985 0.79505 0.16976 0.0
H928 H 0.53681 0.83761 0.1636 0.0
H929 H 0.58177 0.85288 0.15219 0.0
H930 H 0.66686 0.95825 0.1196 0.0
H931 H 0.64115 0.91483 0.12306 0.0
C932 C 0.52567 0.60141 0.12346 0.0
C933 C 0.52344 0.62974 0.11856 0.0
C934 C 0.55154 0.59005 0.12842 0.0
C935 C 0.62519 0.59544 0.12065 0.0
H936 H 0.63275 0.55888 0.17168 0.0
C937 C 0.72579 0.53777 0.13893 0.0
C938 C 0.72199 0.5111 0.1471 0.0
C939 C 0.70419 0.55726 0.13932 0.0
C940 C 0.63099 0.56883 0.15733 0.0
H941 H 0.54638 0.66808 0.11391 0.0
H942 H 0.59194 0.64786 0.12192 0.0
H943 H 0.58884 0.58151 0.1629 0.0
H944 H 0.69336 0.48461 0.16314 0.0
H945 H 0.65528 0.51787 0.16311 0.0
H946 H 0.66637 0.58139 0.1143 0.0
C947 C 0.57356 0.63473 0.12235 0.0
C948 C 0.6059 0.58183 0.15237 0.0
C949 C 0.5476 0.64624 0.11782 0.0
C950 C 0.69685 0.50506 0.15682 0.0
C951 C 0.67506 0.5243 0.15688 0.0
C952 C 0.65009 0.58196 0.12541 0.0
C953 C 0.57559 0.60672 0.1281 0.0
C954 C 0.60271 0.5948 0.13388 0.0
C955 C 0.67806 0.55023 0.14738 0.0
C956 C 0.65317 0.56801 0.14367 0.0
H957 H 0.50727 0.58834 0.12427 0.0
H958 H 0.55278 0.56829 0.13261 0.0
H959 H 0.62307 0.6053 0.10628 0.0
H960 H 0.74451 0.54297 0.13084 0.0
H961 H 0.70749 0.57727 0.13228 0.0
C962 C 0.00511 0.68747 0.14224 0.0
C963 C 0.9929 0.7135 0.14579 0.0
C964 C 0.9885 0.66442 0.1379 0.0
C965 C 0.91842 0.64591 0.11924 0.0
H966 H 0.93993 0.57207 0.13691 0.0
C967 C 0.85111 0.54567 0.11052 0.0
C968 C 0.86549 0.52148 0.10475 0.0
C969 C 0.86566 0.57034 0.11436 0.0
C970 C 0.93383 0.59256 0.13173 0.0
H971 H 0.95404 0.73588 0.14876 0.0
H972 H 0.92463 0.69538 0.14153 0.0
H973 H 0.96665 0.61236 0.14782 0.0
H974 H 0.90617 0.50466 0.09726 0.0
H975 H 0.93143 0.54764 0.10399 0.0
H976 H 0.8852 0.62581 0.10343 0.0
C977 C 0.94707 0.69288 0.14151 0.0
C978 C 0.94912 0.61565 0.13796 0.0
C979 C 0.96378 0.716 0.14571 0.0
C980 C 0.89446 0.52288 0.10176 0.0
C981 C 0.90898 0.54741 0.10576 0.0
C982 C 0.90291 0.62276 0.11316 0.0
C983 C 0.95928 0.66689 0.13726 0.0
C984 C 0.94184 0.64258 0.13161 0.0
C985 C 0.89482 0.57112 0.11262 0.0
C986 C 0.91072 0.59586 0.11916 0.0
H987 H 0.02758 0.68528 0.14206 0.0
H988 H -0.00133 0.64488 0.1344 0.0
H989 H 0.91244 0.66631 0.11385 0.0
H990 H 0.82878 0.54534 0.1127 0.0
H991 H 0.85425 0.58837 0.11959 0.0
C992 C 0.72018 0.95771 0.63567 0.0
C993 C 0.71791 0.98202 0.64717 0.0
C994 C 0.69797 0.93899 0.63442 0.0
C995 C 0.62614 0.92432 0.65394 0.0
H996 H 0.61455 0.89659 0.60054 0.0
C997 C 0.51925 0.89367 0.62078 0.0
C998 C 0.51742 0.86531 0.61587 0.0
C999 C 0.5451 0.90557 0.62514 0.0
C1000 C 0.61771 0.90409 0.61552 0.0
H1001 H 0.69103 0.00513 0.66694 0.0
H1002 H 0.65177 0.97345 0.66404 0.0
H1003 H 0.65801 0.92015 0.60876 0.0
H1004 H 0.54095 0.8275 0.61058 0.0
H1005 H 0.58644 0.84876 0.61749 0.0
H1006 H 0.58478 0.90962 0.66008 0.0
C1007 C 0.67096 0.9681 0.6565 0.0
C1008 C 0.6427 0.91732 0.62037 0.0
C1009 C 0.69342 0.98644 0.65811 0.0
C1010 C 0.54189 0.84936 0.61447 0.0
C1011 C 0.5678 0.86145 0.61838 0.0
C1012 C 0.6009 0.91163 0.64892 0.0
C1013 C 0.6726 0.9446 0.64409 0.0
C1014 C 0.64718 0.9279 0.63961 0.0
C1015 C 0.56945 0.88944 0.62418 0.0
C1016 C 0.59648 0.90172 0.62964 0.0
H1017 H 0.73823 0.95396 0.62649 0.0
H1018 H 0.7003 0.92081 0.62508 0.0
H1019 H 0.62896 0.93162 0.66899 0.0
H1020 H 0.50061 0.90628 0.62211 0.0
H1021 H 0.54609 0.92729 0.62948 0.0
C1022 C 0.59555 0.51349 0.61021 0.0
C1023 C 0.6248 0.51262 0.61123 0.0
C1024 C 0.58135 0.53838 0.61364 0.0
C1025 C 0.58836 0.61401 0.6134 0.0
H1026 H 0.52781 0.61223 0.65157 0.0
C1027 C 0.51318 0.69635 0.65756 0.0
C1028 C 0.50337 0.71186 0.64137 0.0
C1029 C 0.52901 0.67228 0.65441 0.0
C1030 C 0.54481 0.61302 0.641 0.0
H1031 H 0.66213 0.53736 0.61557 0.0
H1032 H 0.63727 0.581 0.62127 0.0
H1033 H 0.55349 0.56945 0.64405 0.0
H1034 H 0.50036 0.7135 0.60936 0.0
H1035 H 0.52872 0.67203 0.60381 0.0
H1036 H 0.57943 0.65749 0.61015 0.0
C1037 C 0.62541 0.56233 0.61803 0.0
C1038 C 0.55926 0.58857 0.63656 0.0
C1039 C 0.63961 0.53735 0.61486 0.0
C1040 C 0.50881 0.70252 0.62204 0.0
C1041 C 0.52485 0.67878 0.61888 0.0
C1042 C 0.57367 0.63837 0.61765 0.0
C1043 C 0.59615 0.56291 0.61787 0.0
C1044 C 0.58105 0.58885 0.62265 0.0
C1045 C 0.53517 0.66348 0.63502 0.0
C1046 C 0.55169 0.63804 0.63141 0.0
H1047 H 0.58357 0.49473 0.6075 0.0
H1048 H 0.55876 0.53842 0.6132 0.0
H1049 H 0.60506 0.61471 0.6026 0.0
H1050 H 0.50869 0.70299 0.67256 0.0
H1051 H 0.53666 0.6607 0.66708 0.0
C1052 C 0.95624 0.63588 0.62575 0.0
C1053 C 0.9811 0.62229 0.62054 0.0
C1054 C 0.93157 0.62079 0.62808 0.0
C1055 C 0.89899 0.55284 0.61606 0.0
H1056 H 0.8478 0.5736 0.65801 0.0
C1057 C 0.79385 0.50786 0.65746 0.0
C1058 C 0.77943 0.49848 0.64066 0.0
C1059 C 0.8186 0.52299 0.65536 0.0
C1060 C 0.86201 0.56732 0.64637 0.0
H1061 H -0.00038 0.5822 0.61364 0.0
H1062 H 0.95686 0.55582 0.61818 0.0
H1063 H 0.89095 0.5996 0.65369 0.0
H1064 H 0.78023 0.4958 0.60864 0.0
H1065 H 0.82234 0.52347 0.60481 0.0
H1066 H 0.87074 0.51988 0.60923 0.0
C1067 C 0.95617 0.57822 0.62003 0.0
C1068 C 0.88657 0.58251 0.64369 0.0
C1069 C 0.98074 0.59335 0.61749 0.0
C1070 C 0.79043 0.50381 0.62178 0.0
C1071 C 0.81487 0.51916 0.61964 0.0
C1072 C 0.87465 0.53749 0.61887 0.0
C1073 C 0.9313 0.59174 0.62545 0.0
C1074 C 0.90527 0.57554 0.62842 0.0
C1075 C 0.82936 0.52884 0.63639 0.0
C1076 C 0.85573 0.54468 0.63395 0.0
H1077 H 0.95577 0.65814 0.62808 0.0
H1078 H 0.91269 0.63196 0.63187 0.0
H1079 H 0.91274 0.54706 0.60401 0.0
H1080 H 0.78596 0.50339 0.67216 0.0
H1081 H 0.82951 0.52967 0.66859 0.0
C1082 C 0.894 0.97542 0.60643 0.0
C1083 C 0.86482 0.97605 0.60827 0.0
C1084 C 0.90867 0.95075 0.60975 0.0
C1085 C 0.9029 0.87489 0.61142 0.0
H1086 H 0.96477 0.87965 0.6484 0.0
C1087 C 0.98058 0.79655 0.65735 0.0
C1088 C 0.99008 0.77984 0.6417 0.0
C1089 C 0.96429 0.82011 0.65346 0.0
C1090 C 0.94743 0.87801 0.63816 0.0
H1091 H 0.82804 0.95096 0.61377 0.0
H1092 H 0.85371 0.90769 0.61932 0.0
H1093 H 0.93828 0.92159 0.64009 0.0
H1094 H 0.99192 0.77558 0.60976 0.0
H1095 H 0.96273 0.81614 0.60296 0.0
H1096 H 0.91228 0.83134 0.60935 0.0
C1097 C 0.86517 0.92641 0.61553 0.0
C1098 C 0.93249 0.902 0.63326 0.0
C1099 C 0.8505 0.95119 0.61245 0.0
C1100 C 0.98373 0.78745 0.62211 0.0
C1101 C 0.96721 0.8107 0.61823 0.0
C1102 C 0.91809 0.85096 0.61613 0.0
C1103 C 0.89442 0.92616 0.6147 0.0
C1104 C 0.91016 0.90066 0.6198 0.0
C1105 C 0.95733 0.82725 0.63385 0.0
C1106 C 0.94052 0.85233 0.62951 0.0
H1107 H 0.90566 0.99424 0.60325 0.0
H1108 H 0.93122 0.95098 0.60876 0.0
H1109 H 0.88578 0.87336 0.60099 0.0
H1110 H 0.98572 0.79128 0.67252 0.0
H1111 H 0.95697 0.83263 0.66576 0.0
C1112 C 0.0395 0.14047 0.86919 0.0
C1113 C 0.01828 0.13159 0.88207 0.0
C1114 C 0.06461 0.12585 0.86806 0.0
C1115 C 0.0939 0.05617 0.8792 0.0
H1116 H 0.16434 0.09245 0.86767 0.0
C1117 C 0.19947 -0.00079 0.88159 0.0
C1118 C 0.21658 0.00272 0.86494 0.0
C1119 C 0.1757 0.01558 0.88399 0.0
C1120 C 0.14473 0.08212 0.87077 0.0
H1121 H 0.00724 0.10144 0.90469 0.0
H1122 H 0.05145 0.07658 0.90334 0.0
H1123 H 0.12251 0.12065 0.8726 0.0
H1124 H 0.22261 0.02549 0.83765 0.0
H1125 H 0.18095 0.05481 0.84195 0.0
H1126 H 0.1164 0.01771 0.87781 0.0
C1127 C 0.04839 0.09421 0.89355 0.0
C1128 C 0.12077 0.0982 0.87355 0.0
C1129 C 0.02312 0.10858 0.89446 0.0
C1130 C 0.20961 0.0227 0.85062 0.0
C1131 C 0.18602 0.03943 0.85315 0.0
C1132 C 0.11791 0.04018 0.8767 0.0
C1133 C 0.0692 0.10226 0.88001 0.0
C1134 C 0.09501 0.0854 0.87773 0.0
C1135 C 0.16883 0.0359 0.86983 0.0
C1136 C 0.14349 0.053 0.8724 0.0
H1137 H 0.03633 0.15809 0.8594 0.0
H1138 H 0.07997 0.13249 0.85729 0.0
H1139 H 0.07437 0.04552 0.88192 0.0
H1140 H 0.20434 0.98352 0.8926 0.0
H1141 H 0.16279 0.01251 0.89699 0.0
C1142 C 0.35536 0.03694 0.88764 0.0
C1143 C 0.3715 0.0125 0.88721 0.0
C1144 C 0.3674 0.06266 0.88313 0.0
C1145 C 0.41906 0.09326 0.85209 0.0
H1146 H 0.42296 0.15508 0.88891 0.0
C1147 C 0.49302 0.18574 0.84071 0.0
C1148 C 0.48723 0.21136 0.84984 0.0
C1149 C 0.47484 0.16326 0.84281 0.0
C1150 C 0.42143 0.13838 0.87819 0.0
H1151 H 0.41287 0.99574 0.88216 0.0
H1152 H 0.43376 0.04081 0.87377 0.0
H1153 H 0.39974 0.11212 0.8988 0.0
H1154 H 0.45693 0.23369 0.86766 0.0
H1155 H 0.4242 0.19537 0.86995 0.0
H1156 H 0.44005 0.11937 0.83124 0.0
C1157 C 0.41191 0.03994 0.87781 0.0
C1158 C 0.40839 0.11369 0.884 0.0
C1159 C 0.40004 0.0143 0.88277 0.0
C1160 C 0.46178 0.21463 0.8599 0.0
C1161 C 0.44328 0.19229 0.86166 0.0
C1162 C 0.43156 0.11813 0.84608 0.0
C1163 C 0.39556 0.06417 0.87768 0.0
C1164 C 0.4077 0.09081 0.87115 0.0
C1165 C 0.45017 0.16596 0.85393 0.0
C1166 C 0.43352 0.14084 0.85921 0.0
H1167 H 0.33328 0.03606 0.891 0.0
H1168 H 0.3545 0.0812 0.88313 0.0
H1169 H 0.41831 0.07587 0.84187 0.0
H1170 H 0.51258 0.18262 0.83301 0.0
H1171 H 0.48117 0.14334 0.83678 0.0
C1172 C 0.45057 0.34207 0.88224 0.0
C1173 C 0.47468 0.35873 0.88214 0.0
C1174 C 0.42441 0.35394 0.87869 0.0
C1175 C 0.39154 0.40886 0.85135 0.0
H1176 H 0.33247 0.40958 0.89052 0.0
C1177 C 0.30327 0.48878 0.84954 0.0
C1178 C 0.27775 0.48301 0.85883 0.0
C1179 C 0.3246 0.46905 0.84938 0.0
C1180 C 0.34835 0.40898 0.87914 0.0
H1181 H 0.49039 0.40082 0.87857 0.0
H1182 H 0.44469 0.42138 0.87192 0.0
H1183 H 0.3753 0.38383 0.89719 0.0
H1184 H 0.25427 0.45143 0.87463 0.0
H1185 H 0.29073 0.4163 0.87324 0.0
H1186 H 0.36486 0.43363 0.83312 0.0
C1187 C 0.44611 0.39924 0.87491 0.0
C1188 C 0.37295 0.39441 0.8831 0.0
C1189 C 0.47214 0.38752 0.87889 0.0
C1190 C 0.27333 0.45634 0.86685 0.0
C1191 C 0.29456 0.43638 0.86645 0.0
C1192 C 0.36676 0.42294 0.8472 0.0
C1193 C 0.42214 0.38249 0.87455 0.0
C1194 C 0.39498 0.39496 0.86948 0.0
C1195 C 0.32086 0.44287 0.85841 0.0
C1196 C 0.34516 0.42397 0.8613 0.0
H1197 H 0.45198 0.31984 0.88481 0.0
H1198 H 0.40609 0.34072 0.87855 0.0
H1199 H 0.40824 0.40918 0.84054 0.0
H1200 H 0.30726 0.50925 0.8434 0.0
H1201 H 0.34457 0.47513 0.84328 0.0
C1202 C 0.14313 0.45198 0.88784 0.0
C1203 C 0.12852 0.47658 0.89229 0.0
C1204 C 0.12871 0.42741 0.88357 0.0
C1205 C 0.06213 0.40487 0.86314 0.0
H1206 H 0.08198 0.33188 0.88335 0.0
C1207 C 0.99252 0.30877 0.85146 0.0
C1208 C 0.00531 0.28275 0.84906 0.0
C1209 C 0.00849 0.33225 0.85586 0.0
C1210 C 0.07647 0.35206 0.87731 0.0
H1211 H 0.08737 0.49431 0.89686 0.0
H1212 H 0.06229 0.45141 0.88943 0.0
H1213 H 0.10802 0.37281 0.89432 0.0
H1214 H 0.04465 0.26084 0.84799 0.0
H1215 H 0.07293 0.30206 0.85536 0.0
H1216 H 0.03091 0.38432 0.84591 0.0
C1217 C 0.08487 0.45126 0.88901 0.0
C1218 C 0.09128 0.37547 0.8837 0.0
C1219 C 0.09927 0.47574 0.89343 0.0
C1220 C 0.03442 0.28071 0.85018 0.0
C1221 C 0.05049 0.30424 0.85446 0.0
C1222 C 0.0475 0.38149 0.85662 0.0
C1223 C 0.09944 0.42707 0.88356 0.0
C1224 C 0.08404 0.4021 0.87682 0.0
C1225 C 0.03764 0.33019 0.85773 0.0
C1226 C 0.05431 0.35483 0.86377 0.0
H1227 H 0.16565 0.45189 0.88708 0.0
H1228 H 0.14044 0.40902 0.87944 0.0
H1229 H 0.0565 0.42513 0.85729 0.0
H1230 H 0.97004 0.31064 0.8508 0.0
H1231 H -0.00215 0.35179 0.85853 0.0
C1232 C 0.63498 0.21709 0.35952 0.0
C1233 C 0.63046 0.19495 0.37277 0.0
C1234 C 0.66176 0.22792 0.35678 0.0
C1235 C 0.73677 0.2123 0.36605 0.0
H1236 H 0.74475 0.29239 0.36139 0.0
C1237 C 0.82526 0.30245 0.37837 0.0
C1238 C 0.84858 0.28967 0.36968 0.0
C1239 C 0.79884 0.29064 0.37654 0.0
C1240 C 0.74292 0.26999 0.3628 0.0
H1241 H 0.65054 0.16677 0.39343 0.0
H1242 H 0.69687 0.18619 0.38927 0.0
H1243 H 0.69844 0.27202 0.36286 0.0
H1244 H 0.86238 0.25467 0.35188 0.0
H1245 H 0.81599 0.23431 0.34826 0.0
H1246 H 0.78128 0.21045 0.36711 0.0
C1247 C 0.67996 0.19479 0.38057 0.0
C1248 C 0.71631 0.25825 0.36334 0.0
C1249 C 0.65327 0.1838 0.38313 0.0
C1250 C 0.84484 0.26494 0.35886 0.0
C1251 C 0.81827 0.25321 0.35686 0.0
C1252 C 0.7634 0.22408 0.36571 0.0
C1253 C 0.68456 0.21701 0.36738 0.0
C1254 C 0.71288 0.22928 0.36527 0.0
C1255 C 0.79497 0.26589 0.36576 0.0
C1256 C 0.76679 0.25312 0.36441 0.0
H1257 H 0.61786 0.22599 0.35117 0.0
H1258 H 0.66458 0.24475 0.34627 0.0
H1259 H 0.73493 0.18987 0.36716 0.0
H1260 H 0.82737 0.32149 0.3868 0.0
H1261 H 0.78153 0.30071 0.38394 0.0
C1262 C 0.26409 0.64032 0.36937 0.0
C1263 C 0.28798 0.6359 0.38102 0.0
C1264 C 0.25286 0.66705 0.36744 0.0
C1265 C 0.27024 0.74176 0.37538 0.0
H1266 H 0.18996 0.75064 0.37681 0.0
C1267 C 0.18352 0.83093 0.39468 0.0
C1268 C 0.19518 0.85407 0.38503 0.0
C1269 C 0.19475 0.80445 0.39202 0.0
C1270 C 0.21244 0.74853 0.37652 0.0
H1271 H 0.31866 0.65596 0.39981 0.0
H1272 H 0.2986 0.7021 0.39712 0.0
H1273 H 0.2099 0.7041 0.37661 0.0
H1274 H 0.22759 0.86762 0.36479 0.0
H1275 H 0.24688 0.82113 0.35971 0.0
H1276 H 0.27283 0.78615 0.37648 0.0
C1277 C 0.28894 0.68522 0.38899 0.0
C1278 C 0.22387 0.72182 0.3761 0.0
C1279 C 0.3003 0.65864 0.39072 0.0
C1280 C 0.2183 0.85018 0.37256 0.0
C1281 C 0.22938 0.82357 0.36969 0.0
C1282 C 0.25882 0.76846 0.37604 0.0
C1283 C 0.26516 0.6898 0.37726 0.0
C1284 C 0.25292 0.71812 0.37588 0.0
C1285 C 0.21772 0.80039 0.37942 0.0
C1286 C 0.2298 0.77215 0.37697 0.0
H1287 H 0.25426 0.62321 0.36157 0.0
H1288 H 0.2347 0.66991 0.3581 0.0
H1289 H 0.29271 0.73966 0.37481 0.0
H1290 H 0.16582 0.83325 0.40444 0.0
H1291 H 0.18564 0.78721 0.40011 0.0
C1292 C 0.35688 0.72499 0.12902 0.0
C1293 C 0.36261 0.70027 0.11867 0.0
C1294 C 0.32963 0.73506 0.13024 0.0
C1295 C 0.25597 0.71354 0.12451 0.0
H1296 H 0.24342 0.79283 0.11812 0.0
C1297 C 0.16132 0.79512 0.10624 0.0
C1298 C 0.14072 0.78598 0.11952 0.0
C1299 C 0.18808 0.78395 0.10692 0.0
C1300 C 0.24657 0.77061 0.11982 0.0
H1301 H 0.34435 0.6668 0.10133 0.0
H1302 H 0.29695 0.68469 0.10313 0.0
H1303 H 0.2908 0.77479 0.11759 0.0
H1304 H 0.13169 0.75745 0.1436 0.0
H1305 H 0.17882 0.738 0.14495 0.0
H1306 H 0.21158 0.70932 0.12606 0.0
C1307 C 0.31339 0.69599 0.11065 0.0
C1308 C 0.27374 0.76032 0.11977 0.0
C1309 C 0.34059 0.68587 0.1095 0.0
C1310 C 0.1472 0.76488 0.13319 0.0
C1311 C 0.17412 0.75372 0.13393 0.0
C1312 C 0.22873 0.72384 0.1245 0.0
C1313 C 0.3076 0.72067 0.12106 0.0
C1314 C 0.27874 0.73165 0.12195 0.0
C1315 C 0.19491 0.76342 0.12094 0.0
C1316 C 0.22375 0.75245 0.12194 0.0
H1317 H 0.3734 0.73645 0.13635 0.0
H1318 H 0.32579 0.75396 0.13857 0.0
H1319 H 0.25918 0.69137 0.12649 0.0
H1320 H 0.15679 0.81092 0.09523 0.0
H1321 H 0.20342 0.79135 0.09637 0.0
C1322 C 0.77642 0.35537 0.13029 0.0
C1323 C 0.7971 0.36022 0.11596 0.0
C1324 C 0.7663 0.32846 0.13355 0.0
C1325 C 0.78222 0.25386 0.12351 0.0
H1326 H 0.7028 0.2445 0.13175 0.0
C1327 C 0.69283 0.16437 0.11389 0.0
C1328 C 0.70664 0.14106 0.12176 0.0
C1329 C 0.70427 0.19091 0.1157 0.0
C1330 C 0.72502 0.24673 0.12936 0.0
H1331 H 0.82321 0.34071 0.09374 0.0
H1332 H 0.80501 0.29409 0.09888 0.0
H1333 H 0.72225 0.29113 0.12958 0.0
H1334 H 0.74306 0.12742 0.13821 0.0
H1335 H 0.76284 0.17405 0.14178 0.0
H1336 H 0.78471 0.20944 0.12215 0.0
C1337 C 0.79712 0.31084 0.10804 0.0
C1338 C 0.73625 0.27351 0.1284 0.0
C1339 C 0.80742 0.33766 0.10495 0.0
C1340 C 0.732 0.14496 0.13184 0.0
C1341 C 0.74338 0.17165 0.13381 0.0
C1342 C 0.77094 0.22706 0.12426 0.0
C1343 C 0.77645 0.30588 0.12239 0.0
C1344 C 0.76491 0.27741 0.12511 0.0
C1345 C 0.72969 0.19492 0.12566 0.0
C1346 C 0.74212 0.2232 0.12683 0.0
H1347 H 0.76822 0.37232 0.13914 0.0
H1348 H 0.75065 0.32534 0.14491 0.0
H1349 H 0.80448 0.2561 0.12135 0.0
H1350 H 0.6732 0.16217 0.10615 0.0
H1351 H 0.69339 0.20823 0.10891 0.0
C1352 C 0.16059 0.68814 0.61556 0.0
C1353 C 0.13747 0.70304 0.62267 0.0
C1354 C 0.18725 0.69949 0.61654 0.0
C1355 C 0.24304 0.72064 0.63003 0.0
H1356 H 0.25481 0.7984 0.61694 0.0
C1357 C 0.35182 0.77167 0.63399 0.0
C1358 C 0.35856 0.7906 0.61887 0.0
C1359 C 0.32463 0.76157 0.63584 0.0
C1360 C 0.25188 0.77659 0.62051 0.0
H1361 H 0.12425 0.7415 0.63668 0.0
H1362 H 0.17116 0.76126 0.63874 0.0
H1363 H 0.20758 0.77973 0.61755 0.0
H1364 H 0.34254 0.81303 0.59338 0.0
H1365 H 0.29532 0.79497 0.59631 0.0
H1366 H 0.28734 0.71713 0.63212 0.0
C1367 C 0.16847 0.74092 0.63207 0.0
C1368 C 0.22478 0.766 0.62114 0.0
C1369 C 0.14164 0.72957 0.63098 0.0
C1370 C 0.33782 0.79882 0.60539 0.0
C1371 C 0.31072 0.78857 0.60714 0.0
C1372 C 0.27012 0.73117 0.62927 0.0
C1373 C 0.19157 0.72595 0.62487 0.0
C1374 C 0.2201 0.73781 0.62564 0.0
C1375 C 0.30375 0.77 0.62248 0.0
C1376 C 0.27488 0.75919 0.62427 0.0
H1377 H 0.15821 0.66756 0.60926 0.0
H1378 H 0.20447 0.68759 0.61053 0.0
H1379 H 0.24011 0.69892 0.63388 0.0
H1380 H 0.36738 0.76512 0.64466 0.0
H1381 H 0.31989 0.74752 0.64795 0.0
C1382 C 0.80478 0.15836 0.61167 0.0
C1383 C 0.79133 0.13505 0.61985 0.0
C1384 C 0.79368 0.18497 0.61407 0.0
C1385 C 0.72777 0.22114 0.62531 0.0
H1386 H 0.77669 0.2853 0.62886 0.0
C1387 C 0.68897 0.33145 0.60825 0.0
C1388 C 0.69981 0.35399 0.61904 0.0
C1389 C 0.69997 0.30478 0.61061 0.0
C1390 C 0.76266 0.26764 0.62818 0.0
H1391 H 0.75607 0.12146 0.63752 0.0
H1392 H 0.73699 0.16813 0.64215 0.0
H1393 H 0.79639 0.23866 0.63 0.0
H1394 H 0.7305 0.3662 0.64101 0.0
H1395 H 0.74934 0.3194 0.64551 0.0
H1396 H 0.69399 0.25009 0.62397 0.0
C1397 C 0.75581 0.16572 0.63345 0.0
C1398 C 0.77401 0.24087 0.62855 0.0
C1399 C 0.76681 0.13899 0.63088 0.0
C1400 C 0.72184 0.34927 0.63236 0.0
C1401 C 0.73269 0.32247 0.63489 0.0
C1402 C 0.7164 0.2479 0.62516 0.0
C1403 C 0.76903 0.18901 0.62495 0.0
C1404 C 0.75675 0.21731 0.62666 0.0
C1405 C 0.72188 0.29991 0.62402 0.0
C1406 C 0.73376 0.27149 0.62613 0.0
H1407 H 0.82384 0.15613 0.60328 0.0
H1408 H 0.80419 0.20231 0.60701 0.0
H1409 H 0.71385 0.20352 0.6237 0.0
H1410 H 0.67211 0.33438 0.59783 0.0
H1411 H 0.69153 0.28807 0.60165 0.0
C1412 C 0.83633 0.19191 0.88226 0.0
C1413 C 0.85829 0.20365 0.8713 0.0
C1414 C 0.80948 0.20284 0.88093 0.0
C1415 C 0.7518 0.21964 0.86812 0.0
H1416 H 0.74142 0.29967 0.866 0.0
C1417 C 0.64224 0.26854 0.8629 0.0
C1418 C 0.63746 0.29259 0.87427 0.0
C1419 C 0.66924 0.25809 0.86061 0.0
C1420 C 0.74395 0.27728 0.86672 0.0
H1421 H 0.86929 0.23591 0.85018 0.0
H1422 H 0.82209 0.25467 0.84749 0.0
H1423 H 0.7884 0.28053 0.86604 0.0
H1424 H 0.65733 0.32464 0.89196 0.0
H1425 H 0.70411 0.30594 0.88862 0.0
H1426 H 0.70746 0.21639 0.86982 0.0
C1427 C 0.82579 0.23732 0.85741 0.0
C1428 C 0.77091 0.26627 0.86646 0.0
C1429 C 0.85279 0.2265 0.85888 0.0
C1430 C 0.66025 0.30604 0.88318 0.0
C1431 C 0.68717 0.29546 0.88106 0.0
C1432 C 0.72488 0.23064 0.86857 0.0
C1433 C 0.80381 0.22562 0.86846 0.0
C1434 C 0.77517 0.23733 0.8674 0.0
C1435 C 0.69202 0.27132 0.86978 0.0
C1436 C 0.72062 0.25961 0.86811 0.0
H1437 H 0.83991 0.17442 0.8921 0.0
H1438 H 0.79324 0.19367 0.88999 0.0
H1439 H 0.75429 0.19722 0.86852 0.0
H1440 H 0.62516 0.25781 0.85568 0.0
H1441 H 0.67224 0.23971 0.85155 0.0
C1442 C 0.27001 0.85043 0.87183 0.0
C1443 C 0.2957 0.85423 0.88148 0.0
C1444 C 0.25853 0.82378 0.86998 0.0
C1445 C 0.23104 0.76848 0.87935 0.0
H1446 H 0.27924 0.70417 0.8733 0.0
C1447 C 0.1928 0.658 0.89663 0.0
C1448 C 0.20261 0.63573 0.88513 0.0
C1449 C 0.20387 0.68464 0.89427 0.0
C1450 C 0.26539 0.72188 0.8747 0.0
H1451 H 0.32956 0.83304 0.89655 0.0
H1452 H 0.30916 0.78701 0.89408 0.0
H1453 H 0.29903 0.75072 0.87158 0.0
H1454 H 0.23161 0.62381 0.862 0.0
H1455 H 0.25055 0.67059 0.85745 0.0
H1456 H 0.19728 0.73967 0.88193 0.0
C1457 C 0.29812 0.80437 0.88748 0.0
C1458 C 0.27681 0.7486 0.87401 0.0
C1459 C 0.3097 0.83089 0.88912 0.0
C1460 C 0.22377 0.64059 0.87117 0.0
C1461 C 0.23466 0.66737 0.86862 0.0
C1462 C 0.21957 0.74177 0.87982 0.0
C1463 C 0.2724 0.80045 0.87788 0.0
C1464 C 0.25987 0.7722 0.87675 0.0
C1465 C 0.22481 0.68972 0.88015 0.0
C1466 C 0.23669 0.71813 0.87792 0.0
H1467 H 0.25882 0.86799 0.86562 0.0
H1468 H 0.23886 0.82147 0.86226 0.0
H1469 H 0.21738 0.78614 0.88166 0.0
H1470 H 0.17681 0.65483 0.90769 0.0
H1471 H 0.19627 0.70116 0.90377 0.0
C1472 C 0.61727 0.05218 0.4488 0.0
C1473 C 0.6243 0.07035 0.43332 0.0
C1474 C 0.63733 0.04445 0.46282 0.0
C1475 C 0.7136 0.04486 0.47352 0.0
H1476 H 0.68872 0.05064 0.52802 0.0
C1477 C 0.78822 0.05796 0.54076 0.0
C1478 C 0.78066 0.04458 0.5585 0.0
C1479 C 0.77042 0.05709 0.5243 0.0
C1480 C 0.69598 0.04848 0.51289 0.0
H1481 H 0.65808 0.09249 0.41906 0.0
H1482 H 0.69298 0.07984 0.44379 0.0
H1483 H 0.6551 0.05528 0.50131 0.0
H1484 H 0.74939 0.01842 0.5725 0.0
H1485 H 0.71878 0.01664 0.54385 0.0
H1486 H 0.75471 0.03876 0.48528 0.0
C1487 C 0.67208 0.07155 0.44527 0.0
C1488 C 0.67665 0.05108 0.49755 0.0
C1489 C 0.65204 0.07919 0.43128 0.0
C1490 C 0.75567 0.02929 0.55914 0.0
C1491 C 0.73804 0.02834 0.54274 0.0
C1492 C 0.733 0.04231 0.48892 0.0
C1493 C 0.66481 0.05466 0.4615 0.0
C1494 C 0.68523 0.04954 0.47767 0.0
C1495 C 0.74484 0.04278 0.52529 0.0
C1496 C 0.7244 0.04427 0.50878 0.0
H1497 H 0.59603 0.04491 0.45046 0.0
H1498 H 0.63118 0.03097 0.47493 0.0
H1499 H 0.72084 0.04328 0.45835 0.0
H1500 H 0.80733 0.06992 0.53983 0.0
H1501 H 0.77617 0.06857 0.51109 0.0
C1502 C 0.43903 0.79221 0.54401 0.0
C1503 C 0.45192 0.78396 0.56177 0.0
C1504 C 0.43969 0.77477 0.52738 0.0
C1505 C 0.44683 0.70025 0.51542 0.0
H1506 H 0.44909 0.72627 0.46104 0.0
C1507 C 0.43794 0.6235 0.4503 0.0
C1508 C 0.41862 0.63114 0.43567 0.0
C1509 C 0.44681 0.64298 0.46437 0.0
C1510 C 0.44837 0.71871 0.47616 0.0
H1511 H 0.47727 0.75192 0.57562 0.0
H1512 H 0.47892 0.72197 0.5466 0.0
H1513 H 0.45597 0.75938 0.48813 0.0
H1514 H 0.39536 0.66542 0.42302 0.0
H1515 H 0.41019 0.69937 0.44782 0.0
H1516 H 0.43865 0.65979 0.50359 0.0
C1517 C 0.46762 0.74146 0.54562 0.0
C1518 C 0.45227 0.73768 0.49167 0.0
C1519 C 0.46679 0.75873 0.56223 0.0
C1520 C 0.40961 0.65891 0.43457 0.0
C1521 C 0.41847 0.6784 0.44858 0.0
C1522 C 0.44299 0.68134 0.49996 0.0
C1523 C 0.45341 0.74886 0.52818 0.0
C1524 C 0.45124 0.7287 0.5115 0.0
C1525 C 0.43667 0.67051 0.46393 0.0
C1526 C 0.44337 0.69037 0.48015 0.0
H1527 H 0.42738 0.81152 0.54322 0.0
H1528 H 0.42837 0.78104 0.51422 0.0
H1529 H 0.44535 0.69266 0.53051 0.0
H1530 H 0.44531 0.60222 0.45124 0.0
H1531 H 0.46121 0.63636 0.47582 0.0
C1532 C 0.82491 0.41059 0.42689 0.0
C1533 C 0.85287 0.41911 0.42758 0.0
C1534 C 0.8063 0.41866 0.44173 0.0
C1535 C 0.80673 0.43909 0.49402 0.0
H1536 H 0.72816 0.45367 0.48514 0.0
C1537 C 0.73295 0.45998 0.55918 0.0
C1538 C 0.70735 0.4457 0.55891 0.0
C1539 C 0.74955 0.46122 0.54223 0.0
C1540 C 0.75003 0.44949 0.48785 0.0
H1541 H 0.88302 0.44422 0.44332 0.0
H1542 H 0.85041 0.45878 0.4693 0.0
H1543 H 0.75953 0.44863 0.45681 0.0
H1544 H 0.67864 0.42236 0.54045 0.0
H1545 H 0.70793 0.42412 0.51086 0.0
H1546 H 0.79728 0.43922 0.52495 0.0
C1547 C 0.84297 0.44535 0.45753 0.0
C1548 C 0.76799 0.44665 0.47164 0.0
C1549 C 0.86156 0.43726 0.44264 0.0
C1550 C 0.69824 0.43355 0.5411 0.0
C1551 C 0.71497 0.43468 0.52413 0.0
C1552 C 0.78881 0.4419 0.51018 0.0
C1553 C 0.8153 0.43555 0.4575 0.0
C1554 C 0.79651 0.44111 0.47455 0.0
C1555 C 0.74108 0.44806 0.52463 0.0
C1556 C 0.7602 0.44685 0.50731 0.0
H1557 H 0.81761 0.39722 0.41506 0.0
H1558 H 0.78518 0.41068 0.44126 0.0
H1559 H 0.82845 0.43429 0.49681 0.0
H1560 H 0.74046 0.46983 0.5726 0.0
H1561 H 0.76928 0.47217 0.54301 0.0
C1562 C 0.02581 0.72876 0.56535 0.0
C1563 C 0.0424 0.70461 0.56515 0.0
C1564 C 0.02354 0.74548 0.54853 0.0
C1565 C 0.03698 0.74907 0.49445 0.0
H1566 H 0.04663 0.82782 0.5054 0.0
C1567 C 0.07285 0.82909 0.43589 0.0
C1568 C 0.06358 0.85673 0.43745 0.0
C1569 C 0.06496 0.80924 0.44994 0.0
C1570 C 0.04331 0.80601 0.50202 0.0
H1571 H 0.06857 0.67833 0.54683 0.0
H1572 H 0.06494 0.7079 0.51735 0.0
H1573 H 0.04304 0.79512 0.53271 0.0
H1574 H 0.03706 0.88495 0.45374 0.0
H1575 H 0.02261 0.85012 0.47829 0.0
H1576 H 0.0379 0.76009 0.46366 0.0
C1577 C 0.05345 0.7137 0.53053 0.0
C1578 C 0.04132 0.78719 0.51773 0.0
C1579 C 0.05561 0.6968 0.54742 0.0
C1580 C 0.0446 0.86377 0.45242 0.0
C1581 C 0.03661 0.8439 0.46651 0.0
C1582 C 0.03893 0.76797 0.47869 0.0
C1583 C 0.03795 0.73861 0.53108 0.0
C1584 C 0.0384 0.75847 0.51416 0.0
C1585 C 0.0474 0.81661 0.46578 0.0
C1586 C 0.04245 0.79665 0.4823 0.0
H1587 H 0.01506 0.73522 0.5787 0.0
H1588 H 0.01095 0.76418 0.54933 0.0
H1589 H 0.03443 0.72712 0.49122 0.0
H1590 H 0.0869 0.82308 0.4241 0.0
H1591 H 0.07373 0.7885 0.4489 0.0
C1592 C 0.27661 0.95864 0.94848 0.0
C1593 C 0.29958 0.94128 0.94473 0.0
C1594 C 0.26308 0.95788 0.96679 0.0
C1595 C 0.24768 0.90892 0.00609 0.0
H1596 H 0.21671 0.97335 0.03289 0.0
C1597 C 0.17082 0.89379 0.06994 0.0
C1598 C 0.14707 0.91096 0.06977 0.0
C1599 C 0.19411 0.9004 0.05846 0.0
C1600 C 0.22508 0.95513 0.02554 0.0
H1601 H 0.32729 0.91046 0.95756 0.0
H1602 H 0.30332 0.90882 0.98957 0.0
H1603 H 0.24952 0.9799 0.00556 0.0
H1604 H 0.12939 0.94872 0.05761 0.0
H1605 H 0.16954 0.9598 0.03688 0.0
H1606 H 0.22228 0.88407 0.02505 0.0
C1607 C 0.29581 0.92301 0.97827 0.0
C1608 C 0.24397 0.95891 0.00996 0.0
C1609 C 0.30958 0.92403 0.96 0.0
C1610 C 0.14752 0.9353 0.05821 0.0
C1611 C 0.17066 0.94171 0.04644 0.0
C1612 C 0.22861 0.90514 0.02148 0.0
C1613 C 0.27209 0.93954 0.9817 0.0
C1614 C 0.25507 0.93583 -0.00014 0.0
C1615 C 0.19398 0.9239 0.04601 0.0
C1616 C 0.21666 0.92818 0.0312 0.0
H1617 H 0.26867 0.97241 0.93714 0.0
H1618 H 0.24474 0.97071 0.96892 0.0
H1619 H 0.25552 0.89074 0.99839 0.0
H1620 H 0.17098 0.87428 0.07789 0.0
H1621 H 0.2118 0.88639 0.05876 0.0
C1622 C 0.58752 0.16484 0.06598 0.0
C1623 C 0.57812 0.1372 0.06486 0.0
C1624 C 0.57891 0.18446 0.05199 0.0
C1625 C 0.55463 0.18662 0.00061 0.0
H1626 H 0.54443 0.2655 0.01086 0.0
C1627 C 0.53054 0.26116 0.93721 0.0
C1628 C 0.54672 0.28553 0.93632 0.0
C1629 C 0.52981 0.24516 0.95441 0.0
C1630 C 0.54734 0.24354 0.0078 0.0
H1631 H 0.55058 0.1088 0.04955 0.0
H1632 H 0.53494 0.1432 0.02515 0.0
H1633 H 0.55033 0.23319 0.03865 0.0
H1634 H 0.57366 0.31312 0.95306 0.0
H1635 H 0.57286 0.28467 0.98323 0.0
H1636 H 0.55231 0.19679 0.96988 0.0
C1637 C 0.54963 0.14957 0.03648 0.0
C1638 C 0.55068 0.22505 0.02368 0.0
C1639 C 0.55835 0.12995 0.05047 0.0
C1640 C 0.56105 0.29439 0.95335 0.0
C1641 C 0.56049 0.27817 0.97062 0.0
C1642 C 0.55127 0.205 0.98481 0.0
C1643 C 0.56048 0.17682 0.03673 0.0
C1644 C 0.55457 0.1964 0.02022 0.0
C1645 C 0.54546 0.25298 0.9711 0.0
C1646 C 0.54774 0.23368 0.9882 0.0
H1647 H 0.60199 0.17112 0.07745 0.0
H1648 H 0.58767 0.20525 0.05263 0.0
H1649 H 0.55826 0.16481 0.99737 0.0
H1650 H 0.51887 0.25403 0.92442 0.0
H1651 H 0.51751 0.22623 0.95448 0.0
C1652 C 0.22622 0.5283 0.94999 0.0
C1653 C 0.20408 0.5472 0.94764 0.0
C1654 C 0.24259 0.52872 0.96708 0.0
C1655 C 0.26887 0.57846 0.00223 0.0
H1656 H 0.29896 0.51386 0.0295 0.0
C1657 C 0.3727 0.58241 0.04366 0.0
C1658 C 0.37184 0.57438 0.06365 0.0
C1659 C 0.35036 0.57657 0.0311 0.0
C1660 C 0.29055 0.53205 0.02209 0.0
H1661 H 0.18079 0.58043 0.96172 0.0
H1662 H 0.20995 0.58158 0.99158 0.0
H1663 H 0.26052 0.50806 0.00578 0.0
H1664 H 0.34831 0.55184 0.08581 0.0
H1665 H 0.30926 0.54073 0.06353 0.0
H1666 H 0.29953 0.6023 0.01786 0.0
C1667 C 0.21443 0.56635 0.98018 0.0
C1668 C 0.26867 0.52875 0.00855 0.0
C1669 C 0.19771 0.56561 0.96317 0.0
C1670 C 0.34929 0.55835 0.07046 0.0
C1671 C 0.327 0.55212 0.05778 0.0
C1672 C 0.29098 0.58167 0.01548 0.0
C1673 C 0.23741 0.54832 0.98206 0.0
C1674 C 0.25788 0.55191 0.99831 0.0
C1675 C 0.327 0.56201 0.03818 0.0
C1676 C 0.30232 0.55846 0.02527 0.0
H1677 H 0.23151 0.51377 0.93829 0.0
H1678 H 0.26028 0.51475 0.96805 0.0
H1679 H 0.2612 0.59661 0.99438 0.0
H1680 H 0.39034 0.59391 0.03791 0.0
H1681 H 0.35111 0.58383 0.01589 0.0
C1682 C 0.91559 0.34042 0.06078 0.0
C1683 C 0.92194 0.36827 0.05644 0.0
C1684 C 0.92322 0.31923 0.04773 0.0
C1685 C 0.96649 0.30277 0.00357 0.0
H1686 H 0.90661 0.25078 0.99228 0.0
C1687 C 0.95906 0.24008 0.93106 0.0
C1688 C 0.94805 0.21293 0.93161 0.0
C1689 C 0.95992 0.25639 0.94816 0.0
C1690 C 0.92378 0.26473 0.99549 0.0
H1691 H 0.94251 0.396 0.03592 0.0
H1692 H 0.95569 0.35898 0.01268 0.0
H1693 H 0.90126 0.28437 0.01893 0.0
H1694 H 0.93055 0.18116 0.95078 0.0
H1695 H 0.93203 0.20973 0.98072 0.0
H1696 H 0.98862 0.28351 0.97964 0.0
C1697 C 0.94502 0.35337 0.02625 0.0
C1698 C 0.92072 0.28404 0.01079 0.0
C1699 C 0.93748 0.37456 0.03944 0.0
C1700 C 0.93886 0.20208 0.94981 0.0
C1701 C 0.93966 0.21847 0.96695 0.0
C1702 C 0.96954 0.28343 0.98822 0.0
C1703 C 0.93729 0.32554 0.03 0.0
C1704 C 0.94185 0.30356 0.01484 0.0
C1705 C 0.94978 0.24597 0.96623 0.0
C1706 C 0.94801 0.26449 0.98381 0.0
H1707 H 0.90413 0.33519 0.0741 0.0
H1708 H 0.91753 0.29797 0.05129 0.0
H1709 H 0.9833 0.31726 0.00649 0.0
H1710 H 0.96646 0.24907 0.9173 0.0
H1711 H 0.96754 0.27758 0.94702 0.0
C1712 C 0.33424 0.89776 0.5651 0.0
C1713 C 0.35752 0.91534 0.56715 0.0
C1714 C 0.31138 0.9059 0.55366 0.0
C1715 C 0.29685 0.94793 0.51012 0.0
H1716 H 0.2195 0.9305 0.52144 0.0
C1717 C 0.21415 0.9653 0.45066 0.0
C1718 C 0.19463 0.94383 0.44798 0.0
C1719 C 0.23038 0.96649 0.46778 0.0
C1720 C 0.24101 0.93536 0.51802 0.0
H1721 H 0.37494 0.95531 0.5591 0.0
H1722 H 0.3349 0.96967 0.53893 0.0
H1723 H 0.25482 0.92452 0.54729 0.0
H1724 H 0.1757 0.90753 0.46147 0.0
H1725 H 0.20489 0.90886 0.49122 0.0
H1726 H 0.2837 0.95744 0.48072 0.0
C1727 C 0.33431 0.94965 0.54634 0.0
C1728 C 0.2612 0.93206 0.53285 0.0
C1729 C 0.35713 0.94154 0.5579 0.0
C1730 C 0.19057 0.92435 0.46323 0.0
C1731 C 0.20725 0.92521 0.48029 0.0
C1732 C 0.27681 0.95101 0.4953 0.0
C1733 C 0.31147 0.93161 0.54372 0.0
C1734 C 0.28939 0.93801 0.52896 0.0
C1735 C 0.22797 0.94583 0.48247 0.0
C1736 C 0.24864 0.9445 0.49895 0.0
H1737 H 0.33436 0.87696 0.57123 0.0
H1738 H 0.29441 0.89128 0.5516 0.0
H1739 H 0.31845 0.95213 0.5065 0.0
H1740 H 0.21739 0.98085 0.43923 0.0
H1741 H 0.24547 0.98316 0.46919 0.0
C1742 C 0.58262 0.33222 0.56135 0.0
C1743 C 0.57356 0.35992 0.55976 0.0
C1744 C 0.57437 0.3124 0.5474 0.0
C1745 C 0.55162 0.30841 0.49567 0.0
H1746 H 0.53832 0.23056 0.50797 0.0
C1747 C 0.52643 0.23058 0.43418 0.0
C1748 C 0.54118 0.20528 0.43452 0.0
C1749 C 0.52623 0.248 0.45069 0.0
C1750 C 0.54214 0.2522 0.50432 0.0
H1751 H 0.54731 0.3884 0.54341 0.0
H1752 H 0.53242 0.35365 0.51896 0.0
H1753 H 0.54461 0.26411 0.53489 0.0
H1754 H 0.56628 0.17778 0.45274 0.0
H1755 H 0.56634 0.20859 0.48165 0.0
H1756 H 0.5498 0.29662 0.4652 0.0
C1757 C 0.54645 0.34736 0.53072 0.0
C1758 C 0.54569 0.27141 0.51972 0.0
C1759 C 0.55474 0.36717 0.54472 0.0
C1760 C 0.55472 0.19716 0.45206 0.0
C1761 C 0.55467 0.21475 0.46862 0.0
C1762 C 0.54808 0.28928 0.48034 0.0
C1763 C 0.55671 0.3199 0.53165 0.0
C1764 C 0.5507 0.2997 0.51554 0.0
C1765 C 0.54096 0.24068 0.46792 0.0
C1766 C 0.54347 0.26093 0.48446 0.0
H1767 H 0.59643 0.32601 0.57325 0.0
H1768 H 0.58271 0.29149 0.54855 0.0
H1769 H 0.55604 0.32991 0.49191 0.0
H1770 H 0.51547 0.23731 0.42097 0.0
H1771 H 0.51496 0.26751 0.44981 0.0
C1772 C 0.29405 0.55903 0.4578 0.0
C1773 C 0.28606 0.54419 0.44077 0.0
C1774 C 0.27728 0.5585 0.4748 0.0
C1775 C 0.2038 0.54764 0.48831 0.0
H1776 H 0.23122 0.54963 0.54235 0.0
C1777 C 0.12796 0.55447 0.55401 0.0
C1778 C 0.1347 0.57463 0.56825 0.0
C1779 C 0.1477 0.54634 0.5399 0.0
C1780 C 0.22327 0.54918 0.52732 0.0
H1781 H 0.25532 0.51565 0.42867 0.0
H1782 H 0.22664 0.51429 0.45829 0.0
H1783 H 0.2641 0.54361 0.51497 0.0
H1784 H 0.16783 0.60013 0.58026 0.0
H1785 H 0.20215 0.58668 0.55535 0.0
H1786 H 0.16317 0.55385 0.50046 0.0
C1787 C 0.24535 0.52693 0.45841 0.0
C1788 C 0.2421 0.54576 0.51166 0.0
C1789 C 0.26192 0.5276 0.44146 0.0
C1790 C 0.16194 0.58524 0.56897 0.0
C1791 C 0.18169 0.57716 0.55491 0.0
C1792 C 0.18505 0.55105 0.50391 0.0
C1793 C 0.25235 0.54301 0.47507 0.0
C1794 C 0.23257 0.54516 0.49196 0.0
C1795 C 0.17461 0.5581 0.53991 0.0
C1796 C 0.19454 0.55212 0.5236 0.0
H1797 H 0.31251 0.57204 0.45769 0.0
H1798 H 0.28318 0.57124 0.48737 0.0
H1799 H 0.19578 0.54784 0.4733 0.0
H1800 H 0.10712 0.54583 0.55337 0.0
H1801 H 0.14175 0.53122 0.52876 0.0
C1802 C 0.92973 0.12734 0.54249 0.0
C1803 C 0.91301 0.13276 0.55907 0.0
C1804 C 0.93606 0.14873 0.52911 0.0
C1805 C 0.90742 0.21548 0.5118 0.0
H1806 H 0.97754 0.22133 0.48355 0.0
C1807 C 0.9237 0.29718 0.44999 0.0
C1808 C 0.93584 0.28673 0.43256 0.0
C1809 C 0.92414 0.28141 0.46746 0.0
C1810 C 0.9578 0.21992 0.49129 0.0
H1811 H 0.89193 0.16482 0.57583 0.0
H1812 H 0.90291 0.2023 0.55256 0.0
H1813 H 0.97282 0.18769 0.51052 0.0
H1814 H 0.95887 0.25197 0.42002 0.0
H1815 H 0.95934 0.2246 0.45022 0.0
H1816 H 0.89209 0.24707 0.49226 0.0
C1817 C 0.91048 0.18148 0.54949 0.0
C1818 C 0.95511 0.20063 0.50671 0.0
C1819 C 0.90416 0.16011 0.56278 0.0
C1820 C 0.94924 0.26067 0.43316 0.0
C1821 C 0.94974 0.24501 0.45056 0.0
C1822 C 0.91009 0.23472 0.49637 0.0
C1823 C 0.9259 0.17591 0.53222 0.0
C1824 C 0.92974 0.1979 0.51694 0.0
C1825 C 0.93684 0.25496 0.46786 0.0
C1826 C 0.93515 0.23683 0.4857 0.0
H1827 H 0.93677 0.10633 0.53945 0.0
H1828 H 0.94786 0.1437 0.5159 0.0
H1829 H 0.88744 0.21364 0.51917 0.0
H1830 H 0.91326 0.3172 0.45 0.0
H1831 H 0.91426 0.28978 0.48061 0.0
C1832 C 0.84623 0.06293 0.93052 0.0
C1833 C 0.8685 0.08077 0.93507 0.0
C1834 C 0.82699 0.05541 0.94519 0.0
C1835 C 0.78015 0.05976 0.97575 0.0
H1836 H 0.80481 0.04741 0.02977 0.0
C1837 C 0.70696 0.06821 0.04382 0.0
C1838 C 0.71279 0.05145 0.06038 0.0
C1839 C 0.72453 0.06763 0.02725 0.0
C1840 C 0.79746 0.05035 0.01473 0.0
H1841 H 0.88946 0.10316 0.95855 0.0
H1842 H 0.85574 0.09076 0.98406 0.0
H1843 H 0.83909 0.0527 0.00362 0.0
H1844 H 0.7403 0.01952 0.07205 0.0
H1845 H 0.77021 0.01781 0.04304 0.0
H1846 H 0.73842 0.05712 0.98695 0.0
C1847 C 0.85291 0.08247 0.96926 0.0
C1848 C 0.81719 0.05377 -0.00025 0.0
C1849 C 0.87204 0.08992 0.95464 0.0
C1850 C 0.73548 0.03298 0.05962 0.0
C1851 C 0.75275 0.03213 0.04301 0.0
C1852 C 0.76033 0.05618 0.99077 0.0
C1853 C 0.82993 0.06542 0.96468 0.0
C1854 C 0.80882 0.05903 0.98015 0.0
C1855 C 0.74805 0.05005 0.02687 0.0
C1856 C 0.76876 0.05181 0.0105 0.0
H1857 H 0.84329 0.05554 0.9155 0.0
H1858 H 0.80976 0.04192 0.94124 0.0
H1859 H 0.77298 0.06399 0.96083 0.0
H1860 H 0.68964 0.08269 0.04403 0.0
H1861 H 0.72038 0.08188 0.01515 0.0
C1862 C 0.44775 0.86329 0.94754 0.0
C1863 C 0.42808 0.85618 0.93303 0.0
C1864 C 0.45617 0.84359 0.96162 0.0
C1865 C 0.45462 0.7679 0.97419 0.0
H1866 H 0.45341 0.7955 0.02817 0.0
C1867 C 0.44367 0.69705 0.0437 0.0
C1868 C 0.45745 0.7055 0.06107 0.0
C1869 C 0.44458 0.71373 0.02665 0.0
C1870 C 0.45435 0.78744 0.01319 0.0
H1871 H 0.40388 0.82251 0.92048 0.0
H1872 H 0.41783 0.78823 0.94531 0.0
H1873 H 0.44778 0.82789 0.00085 0.0
H1874 H 0.48467 0.73696 0.07374 0.0
H1875 H 0.48674 0.76551 0.04406 0.0
H1876 H 0.46051 0.72724 0.98674 0.0
C1877 C 0.42677 0.80893 0.94599 0.0
C1878 C 0.45115 0.80609 0.99748 0.0
C1879 C 0.41842 0.82863 0.93195 0.0
C1880 C 0.47348 0.73003 0.06069 0.0
C1881 C 0.47455 0.74651 0.04369 0.0
C1882 C 0.45782 0.74918 0.98997 0.0
C1883 C 0.44516 0.81638 0.96134 0.0
C1884 C 0.45099 0.79657 0.97779 0.0
C1885 C 0.45942 0.73906 0.02666 0.0
C1886 C 0.45752 0.75874 0.00966 0.0
H1887 H 0.45564 0.88439 0.94848 0.0
H1888 H 0.47079 0.84986 0.97302 0.0
H1889 H 0.45485 0.75992 0.95918 0.0
H1890 H 0.43115 0.67828 0.04356 0.0
H1891 H 0.43258 0.70744 0.01381 0.0
C1892 C 0.79223 0.43678 0.03636 0.0
C1893 C 0.78445 0.45013 0.05405 0.0
C1894 C 0.77443 0.43726 0.01987 0.0
C1895 C 0.6998 0.4449 0.00838 0.0
H1896 H 0.72462 0.44993 0.95382 0.0
C1897 C 0.62098 0.4393 0.94443 0.0
C1898 C 0.62823 0.42091 0.92915 0.0
C1899 C 0.64101 0.44771 0.95829 0.0
C1900 C 0.71738 0.4484 0.96899 0.0
H1901 H 0.75275 0.47586 0.06792 0.0
H1902 H 0.72216 0.47702 0.03925 0.0
H1903 H 0.75845 0.45494 0.98074 0.0
H1904 H 0.66227 0.39905 0.91505 0.0
H1905 H 0.69716 0.41298 0.93943 0.0
H1906 H 0.65898 0.43766 0.99682 0.0
C1907 C 0.74159 0.4656 0.03819 0.0
C1908 C 0.73677 0.45123 0.98438 0.0
C1909 C 0.75922 0.46502 0.05461 0.0
C1910 C 0.65613 0.41263 0.92708 0.0
C1911 C 0.67614 0.42095 0.94089 0.0
C1912 C 0.68049 0.44203 0.99304 0.0
C1913 C 0.74861 0.45118 0.02079 0.0
C1914 C 0.72819 0.44933 0.00426 0.0
C1915 C 0.66866 0.43796 0.95699 0.0
C1916 C 0.68904 0.44352 0.97315 0.0
H1917 H 0.81153 0.42512 0.03549 0.0
H1918 H 0.78037 0.42581 0.0067 0.0
H1919 H 0.69254 0.44278 0.02351 0.0
H1920 H 0.59958 0.44609 0.94614 0.0
H1921 H 0.63468 0.46127 0.9703 0.0
C1922 C 0.03529 0.75842 0.0631 0.0
C1923 C 0.0478 0.78493 0.06308 0.0
C1924 C 0.03376 0.74275 0.04571 0.0
C1925 C 0.07049 0.73425 0.99855 0.0
H1926 H 0.00951 0.68393 0.98643 0.0
C1927 C 0.07807 0.65954 0.93273 0.0
C1928 C 0.07095 0.6318 0.93681 0.0
C1929 C 0.07048 0.68078 0.94577 0.0
C1930 C 0.02672 0.69782 0.98965 0.0
H1931 H 0.06727 0.81634 0.04456 0.0
H1932 H 0.0644 0.78898 0.01409 0.0
H1933 H 0.0048 0.71726 0.01362 0.0
H1934 H 0.04906 0.60436 0.95683 0.0
H1935 H 0.0359 0.64146 0.98002 0.0
H1936 H 0.09277 0.71442 0.97508 0.0
C1937 C 0.05614 0.78019 0.02766 0.0
C1938 C 0.02403 0.71692 0.00521 0.0
C1939 C 0.05766 0.79592 0.04509 0.0
C1940 C 0.05462 0.62572 0.95347 0.0
C1941 C 0.04712 0.64696 0.96665 0.0
C1942 C 0.07318 0.71521 0.98304 0.0
C1943 C 0.04468 0.75319 0.02786 0.0
C1944 C 0.04608 0.73505 0.01003 0.0
C1945 C 0.05571 0.67463 0.96324 0.0
C1946 C 0.05151 0.69647 0.97858 0.0
H1947 H 0.02738 0.74935 0.07668 0.0
H1948 H 0.02508 0.72194 0.04646 0.0
H1949 H 0.08807 0.74752 0.00207 0.0
H1950 H 0.09028 0.6646 0.91971 0.0
H1951 H 0.07687 0.70192 0.94245 0.0
loop_
_geom_bond_atom_site_label_1
_geom_bond_atom_site_label_2
_geom_bond_distance
_geom_bond_site_symmetry_2
_ccdc_geom_bond_type
Zn0 O1 2.055 . S
Zn0 O8 2.046 . S
Zn0 N16 2.036 . S
Zn0 O28 2.053 . S
Zn0 O30 2.066 . S
O1 Zn0 2.055 . S
O1 C4 1.259 . S
C2 O30 1.256 . S
C2 O31 1.244 . S
Zn3 O5 2.046 . S
Zn3 O7 2.055 . S
Zn3 N9 2.036 . S
Zn3 O27 2.066 . S
Zn3 O31 2.053 . S
C4 O1 1.259 . S
C4 O5 1.254 . S
O5 Zn3 2.046 . S
O5 C4 1.254 . S
C6 O27 1.256 . S
C6 O28 1.244 . S
O7 Zn3 2.055 . S
O7 C29 1.259 . S
O8 Zn0 2.046 . S
O8 C29 1.254 . S
N9 Zn3 2.036 . S
N9 C10 1.298 . S
N9 N12 1.398 . S
C10 N9 1.298 . S
C10 N13 1.367 . S
C10 C23 1.481 . S
C11 N12 1.299 . S
C11 N13 1.379 . S
N12 N9 1.398 . S
N12 C11 1.299 . S
N13 C10 1.367 . S
N13 C11 1.379 . S
C14 N16 1.298 . S
C14 N18 1.367 . S
C14 C22 1.481 . S
C15 N17 1.299 . S
C15 N18 1.379 . S
N16 Zn0 2.036 . S
N16 C14 1.298 . S
N16 N17 1.398 . S
N17 C15 1.299 . S
N17 N16 1.398 . S
N18 C14 1.367 . S
N18 C15 1.379 . S
H19 C22 0.980 . S
H20 C22 0.981 . S
H21 C22 0.981 . S
C22 C14 1.481 . S
C22 H19 0.980 . S
C22 H20 0.981 . S
C22 H21 0.981 . S
C23 C10 1.481 . S
C23 H24 0.980 . S
C23 H25 0.981 . S
C23 H26 0.981 . S
H24 C23 0.980 . S
H25 C23 0.981 . S
H26 C23 0.981 . S
O27 Zn3 2.066 . S
O27 C6 1.256 . S
O28 Zn0 2.053 . S
O28 C6 1.244 . S
C29 O7 1.259 . S
C29 O8 1.254 . S
O30 Zn0 2.066 . S
O30 C2 1.256 . S
O31 C2 1.244 . S
O31 Zn3 2.053 . S
Zn32 O33 2.055 . S
Zn32 O40 2.046 . S
Zn32 N48 2.036 . S
Zn32 O60 2.053 . S
Zn32 O62 2.066 . S
O33 Zn32 2.055 . S
O33 C36 1.259 . S
C34 O62 1.256 . S
C34 O63 1.244 . S
Zn35 O37 2.046 . S
Zn35 O39 2.055 . S
Zn35 N41 2.036 . S
Zn35 O59 2.066 . S
Zn35 O63 2.053 . S
C36 O33 1.259 . S
C36 O37 1.254 . S
O37 Zn35 2.046 . S
O37 C36 1.254 . S
C38 O59 1.256 . S
C38 O60 1.244 . S
O39 Zn35 2.055 . S
O39 C61 1.259 . S
O40 Zn32 2.046 . S
O40 C61 1.254 . S
N41 Zn35 2.036 . S
N41 C42 1.298 . S
N41 N44 1.398 . S
C42 N41 1.298 . S
C42 N45 1.367 . S
C42 C55 1.481 . S
C43 N44 1.299 . S
C43 N45 1.379 . S
N44 N41 1.398 . S
N44 C43 1.299 . S
N45 C42 1.367 . S
N45 C43 1.379 . S
C46 N48 1.298 . S
C46 N50 1.367 . S
C46 C54 1.481 . S
C47 N49 1.299 . S
C47 N50 1.379 . S
N48 Zn32 2.036 . S
N48 C46 1.298 . S
N48 N49 1.398 . S
N49 C47 1.299 . S
N49 N48 1.398 . S
N50 C46 1.367 . S
N50 C47 1.379 . S
H51 C54 0.980 . S
H52 C54 0.981 . S
H53 C54 0.981 . S
C54 C46 1.481 . S
C54 H51 0.980 . S
C54 H52 0.981 . S
C54 H53 0.981 . S
C55 C42 1.481 . S
C55 H56 0.980 . S
C55 H57 0.981 . S
C55 H58 0.981 . S
H56 C55 0.980 . S
H57 C55 0.981 . S
H58 C55 0.981 . S
O59 Zn35 2.066 . S
O59 C38 1.256 . S
O60 Zn32 2.053 . S
O60 C38 1.244 . S
C61 O39 1.259 . S
C61 O40 1.254 . S
O62 Zn32 2.066 . S
O62 C34 1.256 . S
O63 C34 1.244 . S
O63 Zn35 2.053 . S
Zn64 O65 2.055 . S
Zn64 O72 2.046 . S
Zn64 N80 2.036 . S
Zn64 O92 2.053 . S
Zn64 O94 2.066 . S
O65 Zn64 2.055 . S
O65 C68 1.259 . S
C66 O94 1.256 . S
C66 O95 1.244 . S
Zn67 O69 2.046 . S
Zn67 O71 2.055 . S
Zn67 N73 2.036 . S
Zn67 O91 2.066 . S
Zn67 O95 2.053 . S
C68 O65 1.259 . S
C68 O69 1.254 . S
O69 Zn67 2.046 . S
O69 C68 1.254 . S
C70 O91 1.256 . S
C70 O92 1.244 . S
O71 Zn67 2.055 . S
O71 C93 1.259 . S
O72 Zn64 2.046 . S
O72 C93 1.254 . S
N73 Zn67 2.036 . S
N73 C74 1.298 . S
N73 N76 1.398 . S
C74 N73 1.298 . S
C74 N77 1.367 . S
C74 C87 1.481 . S
C75 N76 1.299 . S
C75 N77 1.379 . S
N76 N73 1.398 . S
N76 C75 1.299 . S
N77 C74 1.367 . S
N77 C75 1.379 . S
C78 N80 1.298 . S
C78 N82 1.367 . S
C78 C86 1.481 . S
C79 N81 1.299 . S
C79 N82 1.379 . S
N80 Zn64 2.036 . S
N80 C78 1.298 . S
N80 N81 1.398 . S
N81 C79 1.299 . S
N81 N80 1.398 . S
N82 C78 1.367 . S
N82 C79 1.379 . S
H83 C86 0.980 . S
H84 C86 0.981 . S
H85 C86 0.981 1_455 S
C86 C78 1.481 . S
C86 H83 0.980 . S
C86 H84 0.981 . S
C86 H85 0.981 1_655 S
C87 C74 1.481 . S
C87 H88 0.980 . S
C87 H89 0.981 . S
C87 H90 0.981 . S
H88 C87 0.980 . S
H89 C87 0.981 . S
H90 C87 0.981 . S
O91 Zn67 2.066 . S
O91 C70 1.256 . S
O92 Zn64 2.053 . S
O92 C70 1.244 . S
C93 O71 1.259 . S
C93 O72 1.254 . S
O94 Zn64 2.066 . S
O94 C66 1.256 . S
O95 C66 1.244 . S
O95 Zn67 2.053 . S
Zn96 O97 2.055 . S
Zn96 O104 2.046 . S
Zn96 N112 2.036 . S
Zn96 O124 2.053 . S
Zn96 O126 2.066 . S
O97 Zn96 2.055 . S
O97 C100 1.259 . S
C98 O126 1.256 . S
C98 O127 1.244 . S
Zn99 O101 2.046 . S
Zn99 O103 2.055 . S
Zn99 N105 2.036 . S
Zn99 O123 2.066 . S
Zn99 O127 2.053 . S
C100 O97 1.259 . S
C100 O101 1.254 . S
O101 Zn99 2.046 . S
O101 C100 1.254 . S
C102 O123 1.256 . S
C102 O124 1.244 . S
O103 Zn99 2.055 . S
O103 C125 1.259 . S
O104 Zn96 2.046 . S
O104 C125 1.254 . S
N105 Zn99 2.036 . S
N105 C106 1.298 . S
N105 N108 1.398 . S
C106 N105 1.298 . S
C106 N109 1.367 . S
C106 C119 1.481 . S
C107 N108 1.299 . S
C107 N109 1.379 . S
N108 N105 1.398 . S
N108 C107 1.299 . S
N109 C106 1.367 . S
N109 C107 1.379 . S
C110 N112 1.298 . S
C110 N114 1.367 . S
C110 C118 1.481 . S
C111 N113 1.299 . S
C111 N114 1.379 . S
N112 Zn96 2.036 . S
N112 C110 1.298 . S
N112 N113 1.398 . S
N113 C111 1.299 . S
N113 N112 1.398 . S
N114 C110 1.367 . S
N114 C111 1.379 . S
H115 C118 0.980 . S
H116 C118 0.981 . S
H117 C118 0.981 . S
C118 C110 1.481 . S
C118 H115 0.980 . S
C118 H116 0.981 . S
C118 H117 0.981 . S
C119 C106 1.481 . S
C119 H120 0.980 . S
C119 H121 0.981 . S
C119 H122 0.981 1_565 S
H120 C119 0.980 . S
H121 C119 0.981 . S
H122 C119 0.981 1_545 S
O123 Zn99 2.066 . S
O123 C102 1.256 . S
O124 Zn96 2.053 . S
O124 C102 1.244 . S
C125 O103 1.259 . S
C125 O104 1.254 . S
O126 Zn96 2.066 . S
O126 C98 1.256 . S
O127 C98 1.244 . S
O127 Zn99 2.053 . S
Zn128 O129 2.055 . S
Zn128 O136 2.046 . S
Zn128 N144 2.036 . S
Zn128 O156 2.053 . S
Zn128 O158 2.066 . S
O129 Zn128 2.055 . S
O129 C132 1.259 . S
C130 O158 1.256 . S
C130 O159 1.244 . S
Zn131 O133 2.046 . S
Zn131 O135 2.055 . S
Zn131 N137 2.036 . S
Zn131 O155 2.066 . S
Zn131 O159 2.053 . S
C132 O129 1.259 . S
C132 O133 1.254 . S
O133 Zn131 2.046 . S
O133 C132 1.254 . S
C134 O155 1.256 . S
C134 O156 1.244 . S
O135 Zn131 2.055 . S
O135 C157 1.259 . S
O136 Zn128 2.046 . S
O136 C157 1.254 . S
N137 Zn131 2.036 . S
N137 C138 1.298 . S
N137 N140 1.398 . S
C138 N137 1.298 . S
C138 N141 1.367 . S
C138 C151 1.481 . S
C139 N140 1.299 . S
C139 N141 1.379 . S
N140 N137 1.398 . S
N140 C139 1.299 . S
N141 C138 1.367 . S
N141 C139 1.379 . S
C142 N144 1.298 . S
C142 N146 1.367 . S
C142 C150 1.481 . S
C143 N145 1.299 . S
C143 N146 1.379 . S
N144 Zn128 2.036 . S
N144 C142 1.298 . S
N144 N145 1.398 . S
N145 C143 1.299 . S
N145 N144 1.398 . S
N146 C142 1.367 . S
N146 C143 1.379 . S
H147 C150 0.980 . S
H148 C150 0.981 . S
H149 C150 0.981 1_655 S
C150 C142 1.481 . S
C150 H147 0.980 . S
C150 H148 0.981 . S
C150 H149 0.981 1_455 S
C151 C138 1.481 . S
C151 H152 0.980 . S
C151 H153 0.981 . S
C151 H154 0.981 . S
H152 C151 0.980 . S
H153 C151 0.981 . S
H154 C151 0.981 . S
O155 Zn131 2.066 . S
O155 C134 1.256 . S
O156 Zn128 2.053 . S
O156 C134 1.244 . S
C157 O135 1.259 . S
C157 O136 1.254 . S
O158 Zn128 2.066 . S
O158 C130 1.256 . S
O159 C130 1.244 . S
O159 Zn131 2.053 . S
Zn160 O161 2.055 . S
Zn160 O168 2.046 . S
Zn160 N176 2.036 . S
Zn160 O188 2.053 . S
Zn160 O190 2.066 . S
O161 Zn160 2.055 . S
O161 C164 1.259 . S
C162 O190 1.256 . S
C162 O191 1.244 . S
Zn163 O165 2.046 . S
Zn163 O167 2.055 . S
Zn163 N169 2.036 . S
Zn163 O187 2.066 . S
Zn163 O191 2.053 . S
C164 O161 1.259 . S
C164 O165 1.254 . S
O165 Zn163 2.046 . S
O165 C164 1.254 . S
C166 O187 1.256 . S
C166 O188 1.244 . S
O167 Zn163 2.055 . S
O167 C189 1.259 . S
O168 Zn160 2.046 . S
O168 C189 1.254 . S
N169 Zn163 2.036 . S
N169 C170 1.298 . S
N169 N172 1.398 . S
C170 N169 1.298 . S
C170 N173 1.367 . S
C170 C183 1.481 . S
C171 N172 1.299 . S
C171 N173 1.379 . S
N172 N169 1.398 . S
N172 C171 1.299 . S
N173 C170 1.367 . S
N173 C171 1.379 . S
C174 N176 1.298 . S
C174 N178 1.367 . S
C174 C182 1.481 . S
C175 N177 1.299 . S
C175 N178 1.379 . S
N176 Zn160 2.036 . S
N176 C174 1.298 . S
N176 N177 1.398 . S
N177 C175 1.299 . S
N177 N176 1.398 . S
N178 C174 1.367 . S
N178 C175 1.379 . S
H179 C182 0.980 . S
H180 C182 0.981 . S
H181 C182 0.981 1_565 S
C182 C174 1.481 . S
C182 H179 0.980 . S
C182 H180 0.981 . S
C182 H181 0.981 1_545 S
C183 C170 1.481 . S
C183 H184 0.980 . S
C183 H185 0.981 . S
C183 H186 0.981 . S
H184 C183 0.980 . S
H185 C183 0.981 . S
H186 C183 0.981 . S
O187 Zn163 2.066 . S
O187 C166 1.256 . S
O188 Zn160 2.053 . S
O188 C166 1.244 . S
C189 O167 1.259 . S
C189 O168 1.254 . S
O190 Zn160 2.066 . S
O190 C162 1.256 . S
O191 C162 1.244 . S
O191 Zn163 2.053 . S
Zn192 O193 2.055 . S
Zn192 O200 2.046 . S
Zn192 N208 2.036 . S
Zn192 O220 2.053 . S
Zn192 O222 2.066 . S
O193 Zn192 2.055 . S
O193 C196 1.259 . S
C194 O222 1.256 . S
C194 O223 1.244 . S
Zn195 O197 2.046 . S
Zn195 O199 2.055 . S
Zn195 N201 2.036 . S
Zn195 O219 2.066 . S
Zn195 O223 2.053 . S
C196 O193 1.259 . S
C196 O197 1.254 . S
O197 Zn195 2.046 . S
O197 C196 1.254 . S
C198 O219 1.256 . S
C198 O220 1.244 . S
O199 Zn195 2.055 . S
O199 C221 1.259 . S
O200 Zn192 2.046 . S
O200 C221 1.254 . S
N201 Zn195 2.036 . S
N201 C202 1.298 . S
N201 N204 1.398 . S
C202 N201 1.298 . S
C202 N205 1.367 . S
C202 C215 1.481 . S
C203 N204 1.299 . S
C203 N205 1.379 . S
N204 N201 1.398 . S
N204 C203 1.299 . S
N205 C202 1.367 . S
N205 C203 1.379 . S
C206 N208 1.298 . S
C206 N210 1.367 . S
C206 C214 1.481 . S
C207 N209 1.299 . S
C207 N210 1.379 . S
N208 Zn192 2.036 . S
N208 C206 1.298 . S
N208 N209 1.398 . S
N209 C207 1.299 . S
N209 N208 1.398 . S
N210 C206 1.367 . S
N210 C207 1.379 . S
H211 C214 0.980 . S
H212 C214 0.981 . S
H213 C214 0.981 . S
C214 C206 1.481 . S
C214 H211 0.980 . S
C214 H212 0.981 . S
C214 H213 0.981 . S
C215 C202 1.481 . S
C215 H216 0.980 . S
C215 H217 0.981 . S
C215 H218 0.981 . S
H216 C215 0.980 . S
H217 C215 0.981 . S
H218 C215 0.981 . S
O219 Zn195 2.066 . S
O219 C198 1.256 . S
O220 Zn192 2.053 . S
O220 C198 1.244 . S
C221 O199 1.259 . S
C221 O200 1.254 . S
O222 Zn192 2.066 . S
O222 C194 1.256 . S
O223 C194 1.244 . S
O223 Zn195 2.053 . S
Zn224 O225 2.055 . S
Zn224 O232 2.046 . S
Zn224 N240 2.036 . S
Zn224 O252 2.053 . S
Zn224 O254 2.066 . S
O225 Zn224 2.055 . S
O225 C228 1.259 . S
C226 O254 1.256 . S
C226 O255 1.244 . S
Zn227 O229 2.046 . S
Zn227 O231 2.055 . S
Zn227 N233 2.036 . S
Zn227 O251 2.066 . S
Zn227 O255 2.053 . S
C228 O225 1.259 . S
C228 O229 1.254 . S
O229 Zn227 2.046 . S
O229 C228 1.254 . S
C230 O251 1.256 . S
C230 O252 1.244 . S
O231 Zn227 2.055 . S
O231 C253 1.259 . S
O232 Zn224 2.046 . S
O232 C253 1.254 . S
N233 Zn227 2.036 . S
N233 C234 1.298 . S
N233 N236 1.398 . S
C234 N233 1.298 . S
C234 N237 1.367 . S
C234 C247 1.481 . S
C235 N236 1.299 . S
C235 N237 1.379 . S
N236 N233 1.398 . S
N236 C235 1.299 . S
N237 C234 1.367 . S
N237 C235 1.379 . S
C238 N240 1.298 . S
C238 N242 1.367 . S
C238 C246 1.481 . S
C239 N241 1.299 . S
C239 N242 1.379 . S
N240 Zn224 2.036 . S
N240 C238 1.298 . S
N240 N241 1.398 . S
N241 C239 1.299 . S
N241 N240 1.398 . S
N242 C238 1.367 . S
N242 C239 1.379 . S
H243 C246 0.980 . S
H244 C246 0.981 . S
H245 C246 0.981 . S
C246 C238 1.481 . S
C246 H243 0.980 . S
C246 H244 0.981 . S
C246 H245 0.981 . S
C247 C234 1.481 . S
C247 H248 0.980 . S
C247 H249 0.981 . S
C247 H250 0.981 . S
H248 C247 0.980 . S
H249 C247 0.981 . S
H250 C247 0.981 . S
O251 Zn227 2.066 . S
O251 C230 1.256 . S
O252 Zn224 2.053 . S
O252 C230 1.244 . S
C253 O231 1.259 . S
C253 O232 1.254 . S
O254 Zn224 2.066 . S
O254 C226 1.256 . S
O255 C226 1.244 . S
O255 Zn227 2.053 . S
Zn256 O257 2.055 . S
Zn256 O264 2.046 . S
Zn256 N272 2.036 . S
Zn256 O284 2.053 . S
Zn256 O286 2.066 . S
O257 Zn256 2.055 . S
O257 C260 1.259 . S
C258 O286 1.256 . S
C258 O287 1.244 . S
Zn259 O261 2.046 . S
Zn259 O263 2.055 . S
Zn259 N265 2.036 . S
Zn259 O283 2.066 . S
Zn259 O287 2.053 . S
C260 O257 1.259 . S
C260 O261 1.254 . S
O261 Zn259 2.046 . S
O261 C260 1.254 . S
C262 O283 1.256 . S
C262 O284 1.244 . S
O263 Zn259 2.055 . S
O263 C285 1.259 . S
O264 Zn256 2.046 . S
O264 C285 1.254 . S
N265 Zn259 2.036 . S
N265 C266 1.298 . S
N265 N268 1.398 . S
C266 N265 1.298 . S
C266 N269 1.367 . S
C266 C279 1.481 . S
C267 N268 1.299 . S
C267 N269 1.379 . S
N268 N265 1.398 . S
N268 C267 1.299 . S
N269 C266 1.367 . S
N269 C267 1.379 . S
C270 N272 1.298 . S
C270 N274 1.367 . S
C270 C278 1.481 . S
C271 N273 1.299 . S
C271 N274 1.379 . S
N272 Zn256 2.036 . S
N272 C270 1.298 . S
N272 N273 1.398 . S
N273 C271 1.299 . S
N273 N272 1.398 . S
N274 C270 1.367 . S
N274 C271 1.379 . S
H275 C278 0.980 . S
H276 C278 0.981 . S
H277 C278 0.981 . S
C278 C270 1.481 . S
C278 H275 0.980 . S
C278 H276 0.981 . S
C278 H277 0.981 . S
C279 C266 1.481 . S
C279 H280 0.980 . S
C279 H281 0.981 . S
C279 H282 0.981 . S
H280 C279 0.980 . S
H281 C279 0.981 . S
H282 C279 0.981 . S
O283 Zn259 2.066 . S
O283 C262 1.256 . S
O284 Zn256 2.053 . S
O284 C262 1.244 . S
C285 O263 1.259 . S
C285 O264 1.254 . S
O286 Zn256 2.066 . S
O286 C258 1.256 . S
O287 C258 1.244 . S
O287 Zn259 2.053 . S
Zn288 O289 2.055 . S
Zn288 O296 2.046 . S
Zn288 N304 2.036 . S
Zn288 O316 2.053 . S
Zn288 O318 2.066 . S
O289 Zn288 2.055 . S
O289 C292 1.259 . S
C290 O318 1.256 . S
C290 O319 1.244 . S
Zn291 O293 2.046 . S
Zn291 O295 2.055 . S
Zn291 N297 2.036 . S
Zn291 O315 2.066 . S
Zn291 O319 2.053 . S
C292 O289 1.259 . S
C292 O293 1.254 . S
O293 Zn291 2.046 . S
O293 C292 1.254 . S
C294 O315 1.256 . S
C294 O316 1.244 . S
O295 Zn291 2.055 . S
O295 C317 1.259 . S
O296 Zn288 2.046 . S
O296 C317 1.254 . S
N297 Zn291 2.036 . S
N297 C298 1.298 . S
N297 N300 1.398 . S
C298 N297 1.298 . S
C298 N301 1.367 . S
C298 C311 1.481 . S
C299 N300 1.299 . S
C299 N301 1.379 . S
N300 N297 1.398 . S
N300 C299 1.299 . S
N301 C298 1.367 . S
N301 C299 1.379 . S
C302 N304 1.298 . S
C302 N306 1.367 . S
C302 C310 1.481 . S
C303 N305 1.299 . S
C303 N306 1.379 . S
N304 Zn288 2.036 . S
N304 C302 1.298 . S
N304 N305 1.398 . S
N305 C303 1.299 . S
N305 N304 1.398 . S
N306 C302 1.367 . S
N306 C303 1.379 . S
H307 C310 0.980 . S
H308 C310 0.981 . S
H309 C310 0.981 . S
C310 C302 1.481 . S
C310 H307 0.980 . S
C310 H308 0.981 . S
C310 H309 0.981 . S
C311 C298 1.481 . S
C311 H312 0.980 . S
C311 H313 0.981 . S
C311 H314 0.981 . S
H312 C311 0.980 . S
H313 C311 0.981 . S
H314 C311 0.981 . S
O315 Zn291 2.066 . S
O315 C294 1.256 . S
O316 Zn288 2.053 . S
O316 C294 1.244 . S
C317 O295 1.259 . S
C317 O296 1.254 . S
O318 Zn288 2.066 . S
O318 C290 1.256 . S
O319 C290 1.244 . S
O319 Zn291 2.053 . S
Zn320 O321 2.055 . S
Zn320 O328 2.046 . S
Zn320 N336 2.036 . S
Zn320 O348 2.053 . S
Zn320 O350 2.066 . S
O321 Zn320 2.055 . S
O321 C324 1.259 . S
C322 O350 1.256 . S
C322 O351 1.244 . S
Zn323 O325 2.046 . S
Zn323 O327 2.055 . S
Zn323 N329 2.036 . S
Zn323 O347 2.066 . S
Zn323 O351 2.053 . S
C324 O321 1.259 . S
C324 O325 1.254 . S
O325 Zn323 2.046 . S
O325 C324 1.254 . S
C326 O347 1.256 . S
C326 O348 1.244 . S
O327 Zn323 2.055 . S
O327 C349 1.259 . S
O328 Zn320 2.046 . S
O328 C349 1.254 . S
N329 Zn323 2.036 . S
N329 C330 1.298 . S
N329 N332 1.398 . S
C330 N329 1.298 . S
C330 N333 1.367 . S
C330 C343 1.481 . S
C331 N332 1.299 . S
C331 N333 1.379 . S
N332 N329 1.398 . S
N332 C331 1.299 . S
N333 C330 1.367 . S
N333 C331 1.379 . S
C334 N336 1.298 . S
C334 N338 1.367 . S
C334 C342 1.481 . S
C335 N337 1.299 . S
C335 N338 1.379 . S
N336 Zn320 2.036 . S
N336 C334 1.298 . S
N336 N337 1.398 . S
N337 C335 1.299 . S
N337 N336 1.398 . S
N338 C334 1.367 . S
N338 C335 1.379 . S
H339 C342 0.980 . S
H340 C342 0.981 . S
H341 C342 0.981 . S
C342 C334 1.481 . S
C342 H339 0.980 . S
C342 H340 0.981 . S
C342 H341 0.981 . S
C343 C330 1.481 . S
C343 H344 0.980 . S
C343 H345 0.981 . S
C343 H346 0.981 1_455 S
H344 C343 0.980 . S
H345 C343 0.981 . S
H346 C343 0.981 1_655 S
O347 Zn323 2.066 . S
O347 C326 1.256 . S
O348 Zn320 2.053 . S
O348 C326 1.244 . S
C349 O327 1.259 . S
C349 O328 1.254 . S
O350 Zn320 2.066 . S
O350 C322 1.256 . S
O351 C322 1.244 . S
O351 Zn323 2.053 . S
Zn352 O353 2.055 . S
Zn352 O360 2.046 . S
Zn352 N368 2.036 . S
Zn352 O380 2.053 . S
Zn352 O382 2.066 . S
O353 Zn352 2.055 . S
O353 C356 1.259 . S
C354 O382 1.256 . S
C354 O383 1.244 . S
Zn355 O357 2.046 . S
Zn355 O359 2.055 . S
Zn355 N361 2.036 . S
Zn355 O379 2.066 . S
Zn355 O383 2.053 . S
C356 O353 1.259 . S
C356 O357 1.254 . S
O357 Zn355 2.046 . S
O357 C356 1.254 . S
C358 O379 1.256 . S
C358 O380 1.244 . S
O359 Zn355 2.055 . S
O359 C381 1.259 . S
O360 Zn352 2.046 . S
O360 C381 1.254 . S
N361 Zn355 2.036 . S
N361 C362 1.298 . S
N361 N364 1.398 . S
C362 N361 1.298 . S
C362 N365 1.367 . S
C362 C375 1.481 . S
C363 N364 1.299 . S
C363 N365 1.379 . S
N364 N361 1.398 . S
N364 C363 1.299 . S
N365 C362 1.367 . S
N365 C363 1.379 . S
C366 N368 1.298 . S
C366 N370 1.367 . S
C366 C374 1.481 . S
C367 N369 1.299 . S
C367 N370 1.379 . S
N368 Zn352 2.036 . S
N368 C366 1.298 . S
N368 N369 1.398 . S
N369 C367 1.299 . S
N369 N368 1.398 . S
N370 C366 1.367 . S
N370 C367 1.379 . S
H371 C374 0.980 . S
H372 C374 0.981 . S
H373 C374 0.981 . S
C374 C366 1.481 . S
C374 H371 0.980 . S
C374 H372 0.981 . S
C374 H373 0.981 . S
C375 C362 1.481 . S
C375 H376 0.980 . S
C375 H377 0.981 . S
C375 H378 0.981 1_545 S
H376 C375 0.980 . S
H377 C375 0.981 . S
H378 C375 0.981 1_565 S
O379 Zn355 2.066 . S
O379 C358 1.256 . S
O380 Zn352 2.053 . S
O380 C358 1.244 . S
C381 O359 1.259 . S
C381 O360 1.254 . S
O382 Zn352 2.066 . S
O382 C354 1.256 . S
O383 C354 1.244 . S
O383 Zn355 2.053 . S
Zn384 O385 2.055 . S
Zn384 O392 2.046 . S
Zn384 N400 2.036 . S
Zn384 O412 2.053 . S
Zn384 O414 2.066 . S
O385 Zn384 2.055 . S
O385 C388 1.259 . S
C386 O414 1.256 . S
C386 O415 1.244 . S
Zn387 O389 2.046 . S
Zn387 O391 2.055 . S
Zn387 N393 2.036 . S
Zn387 O411 2.066 . S
Zn387 O415 2.053 . S
C388 O385 1.259 . S
C388 O389 1.254 . S
O389 Zn387 2.046 . S
O389 C388 1.254 . S
C390 O411 1.256 . S
C390 O412 1.244 . S
O391 Zn387 2.055 . S
O391 C413 1.259 . S
O392 Zn384 2.046 . S
O392 C413 1.254 . S
N393 Zn387 2.036 . S
N393 C394 1.298 . S
N393 N396 1.398 . S
C394 N393 1.298 . S
C394 N397 1.367 . S
C394 C407 1.481 . S
C395 N396 1.299 . S
C395 N397 1.379 . S
N396 N393 1.398 . S
N396 C395 1.299 . S
N397 C394 1.367 . S
N397 C395 1.379 . S
C398 N400 1.298 . S
C398 N402 1.367 . S
C398 C406 1.481 . S
C399 N401 1.299 . S
C399 N402 1.379 . S
N400 Zn384 2.036 . S
N400 C398 1.298 . S
N400 N401 1.398 . S
N401 C399 1.299 . S
N401 N400 1.398 . S
N402 C398 1.367 . S
N402 C399 1.379 . S
H403 C406 0.980 . S
H404 C406 0.981 . S
H405 C406 0.981 1_455 S
C406 C398 1.481 . S
C406 H403 0.980 . S
C406 H404 0.981 . S
C406 H405 0.981 1_655 S
C407 C394 1.481 . S
C407 H408 0.980 . S
C407 H409 0.981 . S
C407 H410 0.981 . S
H408 C407 0.980 . S
H409 C407 0.981 . S
H410 C407 0.981 . S
O411 Zn387 2.066 . S
O411 C390 1.256 . S
O412 Zn384 2.053 . S
O412 C390 1.244 . S
C413 O391 1.259 . S
C413 O392 1.254 . S
O414 Zn384 2.066 . S
O414 C386 1.256 . S
O415 C386 1.244 . S
O415 Zn387 2.053 . S
Zn416 O417 2.055 . S
Zn416 O424 2.046 . S
Zn416 N432 2.036 . S
Zn416 O444 2.053 . S
Zn416 O446 2.066 . S
O417 Zn416 2.055 . S
O417 C420 1.259 . S
C418 O446 1.256 . S
C418 O447 1.244 . S
Zn419 O421 2.046 . S
Zn419 O423 2.055 . S
Zn419 N425 2.036 . S
Zn419 O443 2.066 . S
Zn419 O447 2.053 . S
C420 O417 1.259 . S
C420 O421 1.254 . S
O421 Zn419 2.046 . S
O421 C420 1.254 . S
C422 O443 1.256 . S
C422 O444 1.244 . S
O423 Zn419 2.055 . S
O423 C445 1.259 . S
O424 Zn416 2.046 . S
O424 C445 1.254 . S
N425 Zn419 2.036 . S
N425 C426 1.298 . S
N425 N428 1.398 . S
C426 N425 1.298 . S
C426 N429 1.367 . S
C426 C439 1.481 . S
C427 N428 1.299 . S
C427 N429 1.379 . S
N428 N425 1.398 . S
N428 C427 1.299 . S
N429 C426 1.367 . S
N429 C427 1.379 . S
C430 N432 1.298 . S
C430 N434 1.367 . S
C430 C438 1.481 . S
C431 N433 1.299 . S
C431 N434 1.379 . S
N432 Zn416 2.036 . S
N432 C430 1.298 . S
N432 N433 1.398 . S
N433 C431 1.299 . S
N433 N432 1.398 . S
N434 C430 1.367 . S
N434 C431 1.379 . S
H435 C438 0.980 . S
H436 C438 0.981 . S
H437 C438 0.981 . S
C438 C430 1.481 . S
C438 H435 0.980 . S
C438 H436 0.981 . S
C438 H437 0.981 . S
C439 C426 1.481 . S
C439 H440 0.980 . S
C439 H441 0.981 . S
C439 H442 0.981 1_565 S
H440 C439 0.980 . S
H441 C439 0.981 . S
H442 C439 0.981 1_545 S
O443 Zn419 2.066 . S
O443 C422 1.256 . S
O444 Zn416 2.053 . S
O444 C422 1.244 . S
C445 O423 1.259 . S
C445 O424 1.254 . S
O446 Zn416 2.066 . S
O446 C418 1.256 . S
O447 C418 1.244 . S
O447 Zn419 2.053 . S
Zn448 O449 2.055 . S
Zn448 O456 2.046 . S
Zn448 N464 2.036 . S
Zn448 O476 2.053 . S
Zn448 O478 2.066 . S
O449 Zn448 2.055 . S
O449 C452 1.259 . S
C450 O478 1.256 . S
C450 O479 1.244 . S
Zn451 O453 2.046 . S
Zn451 O455 2.055 . S
Zn451 N457 2.036 . S
Zn451 O475 2.066 . S
Zn451 O479 2.053 . S
C452 O449 1.259 . S
C452 O453 1.254 . S
O453 Zn451 2.046 . S
O453 C452 1.254 . S
C454 O475 1.256 . S
C454 O476 1.244 . S
O455 Zn451 2.055 . S
O455 C477 1.259 . S
O456 Zn448 2.046 . S
O456 C477 1.254 . S
N457 Zn451 2.036 . S
N457 C458 1.298 . S
N457 N460 1.398 . S
C458 N457 1.298 . S
C458 N461 1.367 . S
C458 C471 1.481 . S
C459 N460 1.299 . S
C459 N461 1.379 . S
N460 N457 1.398 . S
N460 C459 1.299 . S
N461 C458 1.367 . S
N461 C459 1.379 . S
C462 N464 1.298 . S
C462 N466 1.367 . S
C462 C470 1.481 . S
C463 N465 1.299 . S
C463 N466 1.379 . S
N464 Zn448 2.036 . S
N464 C462 1.298 . S
N464 N465 1.398 . S
N465 C463 1.299 . S
N465 N464 1.398 . S
N466 C462 1.367 . S
N466 C463 1.379 . S
H467 C470 0.980 . S
H468 C470 0.981 . S
H469 C470 0.981 . S
C470 C462 1.481 . S
C470 H467 0.980 . S
C470 H468 0.981 . S
C470 H469 0.981 . S
C471 C458 1.481 . S
C471 H472 0.980 . S
C471 H473 0.981 . S
C471 H474 0.981 . S
H472 C471 0.980 . S
H473 C471 0.981 . S
H474 C471 0.981 . S
O475 Zn451 2.066 . S
O475 C454 1.256 . S
O476 Zn448 2.053 . S
O476 C454 1.244 . S
C477 O455 1.259 . S
C477 O456 1.254 . S
O478 Zn448 2.066 . S
O478 C450 1.256 . S
O479 C450 1.244 . S
O479 Zn451 2.053 . S
Zn480 O481 2.055 . S
Zn480 O488 2.046 . S
Zn480 N496 2.036 . S
Zn480 O508 2.053 . S
Zn480 O510 2.066 . S
O481 Zn480 2.055 . S
O481 C484 1.259 . S
C482 O510 1.256 . S
C482 O511 1.244 . S
Zn483 O485 2.046 . S
Zn483 O487 2.055 . S
Zn483 N489 2.036 . S
Zn483 O507 2.066 . S
Zn483 O511 2.053 . S
C484 O481 1.259 . S
C484 O485 1.254 . S
O485 Zn483 2.046 . S
O485 C484 1.254 . S
C486 O507 1.256 . S
C486 O508 1.244 . S
O487 Zn483 2.055 . S
O487 C509 1.259 . S
O488 Zn480 2.046 . S
O488 C509 1.254 . S
N489 Zn483 2.036 . S
N489 C490 1.298 . S
N489 N492 1.398 . S
C490 N489 1.298 . S
C490 N493 1.367 . S
C490 C503 1.481 . S
C491 N492 1.299 . S
C491 N493 1.379 . S
N492 N489 1.398 . S
N492 C491 1.299 . S
N493 C490 1.367 . S
N493 C491 1.379 . S
C494 N496 1.298 . S
C494 N498 1.367 . S
C494 C502 1.481 . S
C495 N497 1.299 . S
C495 N498 1.379 . S
N496 Zn480 2.036 . S
N496 C494 1.298 . S
N496 N497 1.398 . S
N497 C495 1.299 . S
N497 N496 1.398 . S
N498 C494 1.367 . S
N498 C495 1.379 . S
H499 C502 0.980 . S
H500 C502 0.981 . S
H501 C502 0.981 . S
C502 C494 1.481 . S
C502 H499 0.980 . S
C502 H500 0.981 . S
C502 H501 0.981 . S
C503 C490 1.481 . S
C503 H504 0.980 . S
C503 H505 0.981 . S
C503 H506 0.981 . S
H504 C503 0.980 . S
H505 C503 0.981 . S
H506 C503 0.981 . S
O507 Zn483 2.066 . S
O507 C486 1.256 . S
O508 Zn480 2.053 . S
O508 C486 1.244 . S
C509 O487 1.259 . S
C509 O488 1.254 . S
O510 Zn480 2.066 . S
O510 C482 1.256 . S
O511 C482 1.244 . S
O511 Zn483 2.053 . S
C512 C513 1.349 . S
C512 C514 1.327 . S
C512 H537 0.950 . S
C513 C512 1.349 . S
C513 C529 1.349 . S
C514 C512 1.327 . S
C514 C533 1.429 . S
C514 H538 0.950 . S
C515 C532 1.574 . S
C515 C534 1.368 . S
C515 H539 0.949 . S
H516 C520 0.949 . S
C517 C518 1.349 . S
C517 C519 1.327 . S
C517 H540 0.950 . S
C518 C517 1.349 . S
C518 C530 1.349 . S
C519 C517 1.327 . S
C519 C535 1.429 . S
C519 H541 0.950 . S
C520 H516 0.949 . S
C520 C528 1.574 . S
C520 C536 1.368 . S
H521 C529 0.950 . S
H522 C527 0.950 . S
H523 C528 0.949 . S
H524 C530 0.950 . S
H525 C531 0.950 . S
H526 C532 0.949 . S
C527 H522 0.950 . S
C527 C529 1.327 . S
C527 C533 1.429 . S
C528 C520 1.574 . S
C528 H523 0.949 . S
C528 C534 1.368 . S
C529 C513 1.349 . S
C529 H521 0.950 . S
C529 C527 1.327 . S
C530 C518 1.349 . S
C530 H524 0.950 . S
C530 C531 1.327 . S
C531 H525 0.950 . S
C531 C530 1.327 . S
C531 C535 1.429 . S
C532 C515 1.574 . S
C532 H526 0.949 . S
C532 C536 1.368 . S
C533 C514 1.429 . S
C533 C527 1.429 . S
C533 C534 1.523 . S
C534 C515 1.368 . S
C534 C528 1.368 . S
C534 C533 1.523 . S
C535 C519 1.429 . S
C535 C531 1.429 . S
C535 C536 1.523 . S
C536 C520 1.368 . S
C536 C532 1.368 . S
C536 C535 1.523 . S
H537 C512 0.950 . S
H538 C514 0.950 . S
H539 C515 0.949 . S
H540 C517 0.950 . S
H541 C519 0.950 . S
C542 C543 1.349 . S
C542 C544 1.327 . S
C542 H567 0.950 . S
C543 C542 1.349 . S
C543 C559 1.349 . S
C544 C542 1.327 . S
C544 C563 1.429 . S
C544 H568 0.950 . S
C545 C562 1.574 . S
C545 C564 1.368 . S
C545 H569 0.949 . S
H546 C550 0.949 . S
C547 C548 1.349 . S
C547 C549 1.327 . S
C547 H570 0.950 . S
C548 C547 1.349 . S
C548 C560 1.349 . S
C549 C547 1.327 . S
C549 C565 1.429 . S
C549 H571 0.950 . S
C550 H546 0.949 . S
C550 C558 1.574 . S
C550 C566 1.368 . S
H551 C559 0.950 . S
H552 C557 0.950 . S
H553 C558 0.949 . S
H554 C560 0.950 . S
H555 C561 0.950 . S
H556 C562 0.949 . S
C557 H552 0.950 . S
C557 C559 1.327 . S
C557 C563 1.429 . S
C558 C550 1.574 . S
C558 H553 0.949 . S
C558 C564 1.368 . S
C559 C543 1.349 . S
C559 H551 0.950 . S
C559 C557 1.327 . S
C560 C548 1.349 . S
C560 H554 0.950 . S
C560 C561 1.327 . S
C561 H555 0.950 . S
C561 C560 1.327 . S
C561 C565 1.429 . S
C562 C545 1.574 . S
C562 H556 0.949 . S
C562 C566 1.368 . S
C563 C544 1.429 . S
C563 C557 1.429 . S
C563 C564 1.523 . S
C564 C545 1.368 . S
C564 C558 1.368 . S
C564 C563 1.523 . S
C565 C549 1.429 . S
C565 C561 1.429 . S
C565 C566 1.523 . S
C566 C550 1.368 . S
C566 C562 1.368 . S
C566 C565 1.523 . S
H567 C542 0.950 . S
H568 C544 0.950 . S
H569 C545 0.949 . S
H570 C547 0.950 . S
H571 C549 0.950 . S
C572 C573 1.349 . S
C572 C574 1.327 . S
C572 H597 0.950 . S
C573 C572 1.349 . S
C573 C589 1.349 . S
C574 C572 1.327 . S
C574 C593 1.429 . S
C574 H598 0.950 . S
C575 C592 1.574 . S
C575 C594 1.368 . S
C575 H599 0.949 . S
H576 C580 0.949 . S
C577 C578 1.349 . S
C577 C579 1.327 . S
C577 H600 0.950 . S
C578 C577 1.349 . S
C578 C590 1.349 . S
C579 C577 1.327 . S
C579 C595 1.429 . S
C579 H601 0.950 . S
C580 H576 0.949 . S
C580 C588 1.574 . S
C580 C596 1.368 . S
H581 C589 0.950 . S
H582 C587 0.950 . S
H583 C588 0.949 . S
H584 C590 0.950 . S
H585 C591 0.950 . S
H586 C592 0.949 . S
C587 H582 0.950 . S
C587 C589 1.327 . S
C587 C593 1.429 . S
C588 C580 1.574 . S
C588 H583 0.949 . S
C588 C594 1.368 . S
C589 C573 1.349 . S
C589 H581 0.950 . S
C589 C587 1.327 . S
C590 C578 1.349 . S
C590 H584 0.950 . S
C590 C591 1.327 . S
C591 H585 0.950 . S
C591 C590 1.327 . S
C591 C595 1.429 . S
C592 C575 1.574 . S
C592 H586 0.949 . S
C592 C596 1.368 . S
C593 C574 1.429 . S
C593 C587 1.429 . S
C593 C594 1.523 . S
C594 C575 1.368 . S
C594 C588 1.368 . S
C594 C593 1.523 . S
C595 C579 1.429 . S
C595 C591 1.429 . S
C595 C596 1.523 . S
C596 C580 1.368 . S
C596 C592 1.368 . S
C596 C595 1.523 . S
H597 C572 0.950 . S
H598 C574 0.950 . S
H599 C575 0.949 . S
H600 C577 0.950 . S
H601 C579 0.950 . S
C602 C603 1.349 . S
C602 C604 1.327 . S
C602 H627 0.950 . S
C603 C602 1.349 . S
C603 C619 1.349 . S
C604 C602 1.327 . S
C604 C623 1.429 . S
C604 H628 0.950 . S
C605 C622 1.574 . S
C605 C624 1.368 . S
C605 H629 0.949 . S
H606 C610 0.949 . S
C607 C608 1.349 . S
C607 C609 1.327 . S
C607 H630 0.950 . S
C608 C607 1.349 . S
C608 C620 1.349 . S
C609 C607 1.327 . S
C609 C625 1.429 . S
C609 H631 0.950 . S
C610 H606 0.949 . S
C610 C618 1.574 . S
C610 C626 1.368 . S
H611 C619 0.950 . S
H612 C617 0.950 . S
H613 C618 0.949 . S
H614 C620 0.950 . S
H615 C621 0.950 . S
H616 C622 0.949 . S
C617 H612 0.950 . S
C617 C619 1.327 . S
C617 C623 1.429 . S
C618 C610 1.574 . S
C618 H613 0.949 . S
C618 C624 1.368 . S
C619 C603 1.349 . S
C619 H611 0.950 . S
C619 C617 1.327 . S
C620 C608 1.349 . S
C620 H614 0.950 . S
C620 C621 1.327 . S
C621 H615 0.950 . S
C621 C620 1.327 . S
C621 C625 1.429 . S
C622 C605 1.574 . S
C622 H616 0.949 . S
C622 C626 1.368 . S
C623 C604 1.429 . S
C623 C617 1.429 . S
C623 C624 1.523 . S
C624 C605 1.368 . S
C624 C618 1.368 . S
C624 C623 1.523 . S
C625 C609 1.429 . S
C625 C621 1.429 . S
C625 C626 1.523 . S
C626 C610 1.368 . S
C626 C622 1.368 . S
C626 C625 1.523 . S
H627 C602 0.950 . S
H628 C604 0.950 . S
H629 C605 0.949 . S
H630 C607 0.950 . S
H631 C609 0.950 . S
C632 C633 1.349 . S
C632 C634 1.327 . S
C632 H657 0.950 . S
C633 C632 1.349 . S
C633 C649 1.349 . S
C634 C632 1.327 . S
C634 C653 1.429 . S
C634 H658 0.950 . S
C635 C652 1.574 . S
C635 C654 1.368 . S
C635 H659 0.949 . S
H636 C640 0.949 . S
C637 C638 1.349 . S
C637 C639 1.327 . S
C637 H660 0.950 . S
C638 C637 1.349 . S
C638 C650 1.349 . S
C639 C637 1.327 . S
C639 C655 1.429 . S
C639 H661 0.950 . S
C640 H636 0.949 . S
C640 C648 1.574 . S
C640 C656 1.368 . S
H641 C649 0.950 . S
H642 C647 0.950 . S
H643 C648 0.949 . S
H644 C650 0.950 . S
H645 C651 0.950 . S
H646 C652 0.949 . S
C647 H642 0.950 . S
C647 C649 1.327 . S
C647 C653 1.429 . S
C648 C640 1.574 . S
C648 H643 0.949 . S
C648 C654 1.368 . S
C649 C633 1.349 . S
C649 H641 0.950 . S
C649 C647 1.327 . S
C650 C638 1.349 . S
C650 H644 0.950 . S
C650 C651 1.327 . S
C651 H645 0.950 . S
C651 C650 1.327 . S
C651 C655 1.429 . S
C652 C635 1.574 . S
C652 H646 0.949 . S
C652 C656 1.368 . S
C653 C634 1.429 . S
C653 C647 1.429 . S
C653 C654 1.523 . S
C654 C635 1.368 . S
C654 C648 1.368 . S
C654 C653 1.523 . S
C655 C639 1.429 . S
C655 C651 1.429 . S
C655 C656 1.523 . S
C656 C640 1.368 . S
C656 C652 1.368 . S
C656 C655 1.523 . S
H657 C632 0.950 . S
H658 C634 0.950 . S
H659 C635 0.949 . S
H660 C637 0.950 . S
H661 C639 0.950 . S
C662 C663 1.349 . S
C662 C664 1.327 . S
C662 H687 0.950 . S
C663 C662 1.349 . S
C663 C679 1.349 . S
C664 C662 1.327 . S
C664 C683 1.429 . S
C664 H688 0.950 . S
C665 C682 1.574 . S
C665 C684 1.368 . S
C665 H689 0.949 . S
H666 C670 0.949 . S
C667 C668 1.349 . S
C667 C669 1.327 . S
C667 H690 0.950 . S
C668 C667 1.349 . S
C668 C680 1.349 . S
C669 C667 1.327 . S
C669 C685 1.429 . S
C669 H691 0.950 . S
C670 H666 0.949 . S
C670 C678 1.574 . S
C670 C686 1.368 . S
H671 C679 0.950 . S
H672 C677 0.950 . S
H673 C678 0.949 . S
H674 C680 0.950 . S
H675 C681 0.950 . S
H676 C682 0.949 . S
C677 H672 0.950 . S
C677 C679 1.327 . S
C677 C683 1.429 . S
C678 C670 1.574 . S
C678 H673 0.949 . S
C678 C684 1.368 . S
C679 C663 1.349 . S
C679 H671 0.950 . S
C679 C677 1.327 . S
C680 C668 1.349 . S
C680 H674 0.950 . S
C680 C681 1.327 . S
C681 H675 0.950 . S
C681 C680 1.327 . S
C681 C685 1.429 . S
C682 C665 1.574 . S
C682 H676 0.949 . S
C682 C686 1.368 . S
C683 C664 1.429 . S
C683 C677 1.429 . S
C683 C684 1.523 . S
C684 C665 1.368 . S
C684 C678 1.368 . S
C684 C683 1.523 . S
C685 C669 1.429 . S
C685 C681 1.429 . S
C685 C686 1.523 . S
C686 C670 1.368 . S
C686 C682 1.368 . S
C686 C685 1.523 . S
H687 C662 0.950 . S
H688 C664 0.950 . S
H689 C665 0.949 . S
H690 C667 0.950 . S
H691 C669 0.950 . S
C692 C693 1.349 . S
C692 C694 1.327 . S
C692 H717 0.950 . S
C693 C692 1.349 . S
C693 C709 1.349 . S
C694 C692 1.327 . S
C694 C713 1.429 . S
C694 H718 0.950 . S
C695 C712 1.574 . S
C695 C714 1.368 . S
C695 H719 0.949 . S
H696 C700 0.949 . S
C697 C698 1.349 . S
C697 C699 1.327 . S
C697 H720 0.950 . S
C698 C697 1.349 . S
C698 C710 1.349 . S
C699 C697 1.327 . S
C699 C715 1.429 . S
C699 H721 0.950 . S
C700 H696 0.949 . S
C700 C708 1.574 . S
C700 C716 1.368 . S
H701 C709 0.950 . S
H702 C707 0.950 . S
H703 C708 0.949 . S
H704 C710 0.950 . S
H705 C711 0.950 . S
H706 C712 0.949 . S
C707 H702 0.950 . S
C707 C709 1.327 . S
C707 C713 1.429 . S
C708 C700 1.574 . S
C708 H703 0.949 . S
C708 C714 1.368 . S
C709 C693 1.349 . S
C709 H701 0.950 . S
C709 C707 1.327 . S
C710 C698 1.349 . S
C710 H704 0.950 . S
C710 C711 1.327 . S
C711 H705 0.950 . S
C711 C710 1.327 . S
C711 C715 1.429 . S
C712 C695 1.574 . S
C712 H706 0.949 . S
C712 C716 1.368 . S
C713 C694 1.429 . S
C713 C707 1.429 . S
C713 C714 1.523 . S
C714 C695 1.368 . S
C714 C708 1.368 . S
C714 C713 1.523 . S
C715 C699 1.429 . S
C715 C711 1.429 . S
C715 C716 1.523 . S
C716 C700 1.368 . S
C716 C712 1.368 . S
C716 C715 1.523 . S
H717 C692 0.950 . S
H718 C694 0.950 . S
H719 C695 0.949 . S
H720 C697 0.950 . S
H721 C699 0.950 . S
C722 C723 1.349 . S
C722 C724 1.327 . S
C722 H747 0.950 . S
C723 C722 1.349 . S
C723 C739 1.349 . S
C724 C722 1.327 . S
C724 C743 1.429 . S
C724 H748 0.950 . S
C725 C742 1.574 . S
C725 C744 1.368 . S
C725 H749 0.949 . S
H726 C730 0.949 . S
C727 C728 1.349 . S
C727 C729 1.327 . S
C727 H750 0.950 . S
C728 C727 1.349 . S
C728 C740 1.349 . S
C729 C727 1.327 . S
C729 C745 1.429 . S
C729 H751 0.950 . S
C730 H726 0.949 . S
C730 C738 1.574 . S
C730 C746 1.368 . S
H731 C739 0.950 . S
H732 C737 0.950 . S
H733 C738 0.949 . S
H734 C740 0.950 . S
H735 C741 0.950 . S
H736 C742 0.949 . S
C737 H732 0.950 . S
C737 C739 1.327 . S
C737 C743 1.429 . S
C738 C730 1.574 . S
C738 H733 0.949 . S
C738 C744 1.368 . S
C739 C723 1.349 . S
C739 H731 0.950 . S
C739 C737 1.327 . S
C740 C728 1.349 . S
C740 H734 0.950 . S
C740 C741 1.327 . S
C741 H735 0.950 . S
C741 C740 1.327 . S
C741 C745 1.429 . S
C742 C725 1.574 . S
C742 H736 0.949 . S
C742 C746 1.368 . S
C743 C724 1.429 . S
C743 C737 1.429 . S
C743 C744 1.523 . S
C744 C725 1.368 . S
C744 C738 1.368 . S
C744 C743 1.523 . S
C745 C729 1.429 . S
C745 C741 1.429 . S
C745 C746 1.523 . S
C746 C730 1.368 . S
C746 C742 1.368 . S
C746 C745 1.523 . S
H747 C722 0.950 . S
H748 C724 0.950 . S
H749 C725 0.949 . S
H750 C727 0.950 . S
H751 C729 0.950 . S
C752 C753 1.349 . S
C752 C754 1.327 . S
C752 H777 0.950 . S
C753 C752 1.349 . S
C753 C769 1.349 . S
C754 C752 1.327 . S
C754 C773 1.429 . S
C754 H778 0.950 . S
C755 C772 1.574 . S
C755 C774 1.368 . S
C755 H779 0.949 . S
H756 C760 0.949 . S
C757 C758 1.349 . S
C757 C759 1.327 . S
C757 H780 0.950 . S
C758 C757 1.349 . S
C758 C770 1.349 . S
C759 C757 1.327 . S
C759 C775 1.429 . S
C759 H781 0.950 . S
C760 H756 0.949 . S
C760 C768 1.574 . S
C760 C776 1.368 . S
H761 C769 0.950 . S
H762 C767 0.950 . S
H763 C768 0.949 . S
H764 C770 0.950 . S
H765 C771 0.950 . S
H766 C772 0.949 . S
C767 H762 0.950 . S
C767 C769 1.327 . S
C767 C773 1.429 . S
C768 C760 1.574 . S
C768 H763 0.949 . S
C768 C774 1.368 . S
C769 C753 1.349 . S
C769 H761 0.950 . S
C769 C767 1.327 . S
C770 C758 1.349 . S
C770 H764 0.950 . S
C770 C771 1.327 . S
C771 H765 0.950 . S
C771 C770 1.327 . S
C771 C775 1.429 . S
C772 C755 1.574 . S
C772 H766 0.949 . S
C772 C776 1.368 . S
C773 C754 1.429 . S
C773 C767 1.429 . S
C773 C774 1.523 . S
C774 C755 1.368 . S
C774 C768 1.368 . S
C774 C773 1.523 . S
C775 C759 1.429 . S
C775 C771 1.429 . S
C775 C776 1.523 . S
C776 C760 1.368 . S
C776 C772 1.368 . S
C776 C775 1.523 . S
H777 C752 0.950 . S
H778 C754 0.950 . S
H779 C755 0.949 . S
H780 C757 0.950 . S
H781 C759 0.950 . S
C782 C783 1.349 . S
C782 C784 1.327 . S
C782 H807 0.950 . S
C783 C782 1.349 . S
C783 C799 1.349 . S
C784 C782 1.327 . S
C784 C803 1.429 . S
C784 H808 0.950 . S
C785 C802 1.574 . S
C785 C804 1.368 . S
C785 H809 0.949 . S
H786 C790 0.949 . S
C787 C788 1.349 . S
C787 C789 1.327 . S
C787 H810 0.950 . S
C788 C787 1.349 . S
C788 C800 1.349 . S
C789 C787 1.327 . S
C789 C805 1.429 . S
C789 H811 0.950 . S
C790 H786 0.949 . S
C790 C798 1.574 . S
C790 C806 1.368 . S
H791 C799 0.950 . S
H792 C797 0.950 . S
H793 C798 0.949 . S
H794 C800 0.950 . S
H795 C801 0.950 . S
H796 C802 0.949 . S
C797 H792 0.950 . S
C797 C799 1.327 . S
C797 C803 1.429 . S
C798 C790 1.574 . S
C798 H793 0.949 . S
C798 C804 1.368 . S
C799 C783 1.349 . S
C799 H791 0.950 . S
C799 C797 1.327 . S
C800 C788 1.349 . S
C800 H794 0.950 . S
C800 C801 1.327 . S
C801 H795 0.950 . S
C801 C800 1.327 . S
C801 C805 1.429 . S
C802 C785 1.574 . S
C802 H796 0.949 . S
C802 C806 1.368 . S
C803 C784 1.429 . S
C803 C797 1.429 . S
C803 C804 1.523 . S
C804 C785 1.368 . S
C804 C798 1.368 . S
C804 C803 1.523 . S
C805 C789 1.429 . S
C805 C801 1.429 . S
C805 C806 1.523 . S
C806 C790 1.368 . S
C806 C802 1.368 . S
C806 C805 1.523 . S
H807 C782 0.950 . S
H808 C784 0.950 . S
H809 C785 0.949 . S
H810 C787 0.950 . S
H811 C789 0.950 . S
C812 C813 1.349 . S
C812 C814 1.327 . S
C812 H837 0.950 1_455 S
C813 C812 1.349 . S
C813 C829 1.349 . S
C814 C812 1.327 . S
C814 C833 1.429 . S
C814 H838 0.950 . S
C815 C832 1.574 . S
C815 C834 1.368 . S
C815 H839 0.949 . S
H816 C820 0.949 . S
C817 C818 1.349 . S
C817 C819 1.327 . S
C817 H840 0.950 . S
C818 C817 1.349 . S
C818 C830 1.349 . S
C819 C817 1.327 . S
C819 C835 1.429 . S
C819 H841 0.950 . S
C820 H816 0.949 . S
C820 C828 1.574 . S
C820 C836 1.368 . S
H821 C829 0.950 . S
H822 C827 0.950 . S
H823 C828 0.949 . S
H824 C830 0.950 . S
H825 C831 0.950 . S
H826 C832 0.949 . S
C827 H822 0.950 . S
C827 C829 1.327 . S
C827 C833 1.429 . S
C828 C820 1.574 . S
C828 H823 0.949 . S
C828 C834 1.368 . S
C829 C813 1.349 . S
C829 H821 0.950 . S
C829 C827 1.327 . S
C830 C818 1.349 . S
C830 H824 0.950 . S
C830 C831 1.327 . S
C831 H825 0.950 . S
C831 C830 1.327 . S
C831 C835 1.429 . S
C832 C815 1.574 . S
C832 H826 0.949 . S
C832 C836 1.368 . S
C833 C814 1.429 . S
C833 C827 1.429 . S
C833 C834 1.523 . S
C834 C815 1.368 . S
C834 C828 1.368 . S
C834 C833 1.523 . S
C835 C819 1.429 . S
C835 C831 1.429 . S
C835 C836 1.523 . S
C836 C820 1.368 . S
C836 C832 1.368 . S
C836 C835 1.523 . S
H837 C812 0.950 1_655 S
H838 C814 0.950 . S
H839 C815 0.949 . S
H840 C817 0.950 . S
H841 C819 0.950 . S
C842 C843 1.349 . S
C842 C844 1.327 . S
C842 H867 0.950 1_545 S
C843 C842 1.349 . S
C843 C859 1.349 . S
C844 C842 1.327 . S
C844 C863 1.429 . S
C844 H868 0.950 . S
C845 C862 1.574 . S
C845 C864 1.368 . S
C845 H869 0.949 . S
H846 C850 0.949 . S
C847 C848 1.349 . S
C847 C849 1.327 . S
C847 H870 0.950 . S
C848 C847 1.349 . S
C848 C860 1.349 . S
C849 C847 1.327 . S
C849 C865 1.429 . S
C849 H871 0.950 . S
C850 H846 0.949 . S
C850 C858 1.574 . S
C850 C866 1.368 . S
H851 C859 0.950 . S
H852 C857 0.950 . S
H853 C858 0.949 . S
H854 C860 0.950 . S
H855 C861 0.950 . S
H856 C862 0.949 . S
C857 H852 0.950 . S
C857 C859 1.327 . S
C857 C863 1.429 . S
C858 C850 1.574 . S
C858 H853 0.949 . S
C858 C864 1.368 . S
C859 C843 1.349 . S
C859 H851 0.950 . S
C859 C857 1.327 . S
C860 C848 1.349 . S
C860 H854 0.950 . S
C860 C861 1.327 . S
C861 H855 0.950 . S
C861 C860 1.327 . S
C861 C865 1.429 . S
C862 C845 1.574 . S
C862 H856 0.949 . S
C862 C866 1.368 . S
C863 C844 1.429 . S
C863 C857 1.429 . S
C863 C864 1.523 . S
C864 C845 1.368 . S
C864 C858 1.368 . S
C864 C863 1.523 . S
C865 C849 1.429 . S
C865 C861 1.429 . S
C865 C866 1.523 . S
C866 C850 1.368 . S
C866 C862 1.368 . S
C866 C865 1.523 . S
H867 C842 0.950 1_565 S
H868 C844 0.950 . S
H869 C845 0.949 . S
H870 C847 0.950 . S
H871 C849 0.950 . S
C872 C873 1.349 . S
C872 C874 1.327 . S
C872 H897 0.950 . S
C873 C872 1.349 . S
C873 C889 1.349 . S
C874 C872 1.327 . S
C874 C893 1.429 . S
C874 H898 0.950 . S
C875 C892 1.574 . S
C875 C894 1.368 . S
C875 H899 0.949 . S
H876 C880 0.949 . S
C877 C878 1.349 . S
C877 C879 1.327 . S
C877 H900 0.950 1_565 S
C878 C877 1.349 . S
C878 C890 1.349 . S
C879 C877 1.327 . S
C879 C895 1.429 . S
C879 H901 0.950 . S
C880 H876 0.949 . S
C880 C888 1.574 . S
C880 C896 1.368 . S
H881 C889 0.950 1_455 S
H882 C887 0.950 . S
H883 C888 0.949 . S
H884 C890 0.950 . S
H885 C891 0.950 . S
H886 C892 0.949 . S
C887 H882 0.950 . S
C887 C889 1.327 . S
C887 C893 1.429 . S
C888 C880 1.574 . S
C888 H883 0.949 . S
C888 C894 1.368 . S
C889 C873 1.349 . S
C889 H881 0.950 1_655 S
C889 C887 1.327 . S
C890 C878 1.349 . S
C890 H884 0.950 . S
C890 C891 1.327 . S
C891 H885 0.950 . S
C891 C890 1.327 . S
C891 C895 1.429 . S
C892 C875 1.574 . S
C892 H886 0.949 . S
C892 C896 1.368 . S
C893 C874 1.429 . S
C893 C887 1.429 . S
C893 C894 1.523 . S
C894 C875 1.368 . S
C894 C888 1.368 . S
C894 C893 1.523 . S
C895 C879 1.429 . S
C895 C891 1.429 . S
C895 C896 1.523 . S
C896 C880 1.368 . S
C896 C892 1.368 . S
C896 C895 1.523 . S
H897 C872 0.950 . S
H898 C874 0.950 . S
H899 C875 0.949 . S
H900 C877 0.950 1_545 S
H901 C879 0.950 . S
C902 C903 1.349 . S
C902 C904 1.327 . S
C902 H927 0.950 . S
C903 C902 1.349 . S
C903 C919 1.349 . S
C904 C902 1.327 . S
C904 C923 1.429 . S
C904 H928 0.950 . S
C905 C922 1.574 . S
C905 C924 1.368 . S
C905 H929 0.949 . S
H906 C910 0.949 . S
C907 C908 1.349 . S
C907 C909 1.327 . S
C907 H930 0.950 . S
C908 C907 1.349 . S
C908 C920 1.349 . S
C909 C907 1.327 . S
C909 C925 1.429 . S
C909 H931 0.950 . S
C910 H906 0.949 . S
C910 C918 1.574 . S
C910 C926 1.368 . S
H911 C919 0.950 . S
H912 C917 0.950 . S
H913 C918 0.949 . S
H914 C920 0.950 1_545 S
H915 C921 0.950 . S
H916 C922 0.949 . S
C917 H912 0.950 . S
C917 C919 1.327 . S
C917 C923 1.429 . S
C918 C910 1.574 . S
C918 H913 0.949 . S
C918 C924 1.368 . S
C919 C903 1.349 . S
C919 H911 0.950 . S
C919 C917 1.327 . S
C920 C908 1.349 . S
C920 H914 0.950 1_565 S
C920 C921 1.327 . S
C921 H915 0.950 . S
C921 C920 1.327 . S
C921 C925 1.429 . S
C922 C905 1.574 . S
C922 H916 0.949 . S
C922 C926 1.368 . S
C923 C904 1.429 . S
C923 C917 1.429 . S
C923 C924 1.523 . S
C924 C905 1.368 . S
C924 C918 1.368 . S
C924 C923 1.523 . S
C925 C909 1.429 . S
C925 C921 1.429 . S
C925 C926 1.523 . S
C926 C910 1.368 . S
C926 C922 1.368 . S
C926 C925 1.523 . S
H927 C902 0.950 . S
H928 C904 0.950 . S
H929 C905 0.949 . S
H930 C907 0.950 . S
H931 C909 0.950 . S
C932 C933 1.349 . S
C932 C934 1.327 . S
C932 H957 0.950 . S
C933 C932 1.349 . S
C933 C949 1.349 . S
C934 C932 1.327 . S
C934 C953 1.429 . S
C934 H958 0.950 . S
C935 C952 1.574 . S
C935 C954 1.368 . S
C935 H959 0.949 . S
H936 C940 0.949 . S
C937 C938 1.349 . S
C937 C939 1.327 . S
C937 H960 0.950 . S
C938 C937 1.349 . S
C938 C950 1.349 . S
C939 C937 1.327 . S
C939 C955 1.429 . S
C939 H961 0.950 . S
C940 H936 0.949 . S
C940 C948 1.574 . S
C940 C956 1.368 . S
H941 C949 0.950 . S
H942 C947 0.950 . S
H943 C948 0.949 . S
H944 C950 0.950 . S
H945 C951 0.950 . S
H946 C952 0.949 . S
C947 H942 0.950 . S
C947 C949 1.327 . S
C947 C953 1.429 . S
C948 C940 1.574 . S
C948 H943 0.949 . S
C948 C954 1.368 . S
C949 C933 1.349 . S
C949 H941 0.950 . S
C949 C947 1.327 . S
C950 C938 1.349 . S
C950 H944 0.950 . S
C950 C951 1.327 . S
C951 H945 0.950 . S
C951 C950 1.327 . S
C951 C955 1.429 . S
C952 C935 1.574 . S
C952 H946 0.949 . S
C952 C956 1.368 . S
C953 C934 1.429 . S
C953 C947 1.429 . S
C953 C954 1.523 . S
C954 C935 1.368 . S
C954 C948 1.368 . S
C954 C953 1.523 . S
C955 C939 1.429 . S
C955 C951 1.429 . S
C955 C956 1.523 . S
C956 C940 1.368 . S
C956 C952 1.368 . S
C956 C955 1.523 . S
H957 C932 0.950 . S
H958 C934 0.950 . S
H959 C935 0.949 . S
H960 C937 0.950 . S
H961 C939 0.950 . S
C962 C963 1.349 . S
C962 C964 1.327 . S
C962 H987 0.979 . S
C963 C962 1.349 . S
C963 C979 1.349 . S
C964 C962 1.327 . S
C964 C983 1.429 . S
C964 H988 0.950 . S
C965 C982 1.574 . S
C965 C984 1.368 . S
C965 H989 0.949 . S
H966 C970 0.949 . S
C967 C968 1.349 . S
C967 C969 1.327 . S
C967 H990 0.950 . S
C968 C967 1.349 . S
C968 C980 1.349 . S
C969 C967 1.327 . S
C969 C985 1.429 . S
C969 H991 0.950 . S
C970 H966 0.949 . S
C970 C978 1.574 . S
C970 C986 1.368 . S
H971 C979 0.950 . S
H972 C977 0.950 . S
H973 C978 0.949 . S
H974 C980 0.950 . S
H975 C981 0.950 . S
H976 C982 0.949 . S
C977 H972 0.950 . S
C977 C979 1.327 . S
C977 C983 1.429 . S
C978 C970 1.574 . S
C978 H973 0.949 . S
C978 C984 1.368 . S
C979 C963 1.349 . S
C979 H971 0.950 . S
C979 C977 1.327 . S
C980 C968 1.349 . S
C980 H974 0.950 . S
C980 C981 1.327 . S
C981 H975 0.950 . S
C981 C980 1.327 . S
C981 C985 1.429 . S
C982 C965 1.574 . S
C982 H976 0.949 . S
C982 C986 1.368 . S
C983 C964 1.429 . S
C983 C977 1.429 . S
C983 C984 1.523 . S
C984 C965 1.368 . S
C984 C978 1.368 . S
C984 C983 1.523 . S
C985 C969 1.429 . S
C985 C981 1.429 . S
C985 C986 1.523 . S
C986 C970 1.368 . S
C986 C982 1.368 . S
C986 C985 1.523 . S
H987 C962 0.979 . S
H988 C964 0.950 . S
H989 C965 0.949 . S
H990 C967 0.950 . S
H991 C969 0.950 . S
C992 C993 1.349 . S
C992 C994 1.327 . S
C992 H1017 0.950 . S
C993 C992 1.349 . S
C993 C1009 1.349 . S
C994 C992 1.327 . S
C994 C1013 1.429 . S
C994 H1018 0.950 . S
C995 C1012 1.574 . S
C995 C1014 1.368 . S
C995 H1019 0.949 . S
H996 C1000 0.949 . S
C997 C998 1.349 . S
C997 C999 1.327 . S
C997 H1020 0.950 . S
C998 C997 1.349 . S
C998 C1010 1.349 . S
C999 C997 1.327 . S
C999 C1015 1.429 . S
C999 H1021 0.950 . S
C1000 H996 0.949 . S
C1000 C1008 1.574 . S
C1000 C1016 1.368 . S
H1001 C1009 0.950 . S
H1002 C1007 0.950 . S
H1003 C1008 0.949 . S
H1004 C1010 0.950 . S
H1005 C1011 0.950 . S
H1006 C1012 0.949 . S
C1007 H1002 0.950 . S
C1007 C1009 1.327 . S
C1007 C1013 1.429 . S
C1008 C1000 1.574 . S
C1008 H1003 0.949 . S
C1008 C1014 1.368 . S
C1009 C993 1.349 . S
C1009 H1001 0.950 . S
C1009 C1007 1.327 . S
C1010 C998 1.349 . S
C1010 H1004 0.950 . S
C1010 C1011 1.327 . S
C1011 H1005 0.950 . S
C1011 C1010 1.327 . S
C1011 C1015 1.429 . S
C1012 C995 1.574 . S
C1012 H1006 0.949 . S
C1012 C1016 1.368 . S
C1013 C994 1.429 . S
C1013 C1007 1.429 . S
C1013 C1014 1.523 . S
C1014 C995 1.368 . S
C1014 C1008 1.368 . S
C1014 C1013 1.523 . S
C1015 C999 1.429 . S
C1015 C1011 1.429 . S
C1015 C1016 1.523 . S
C1016 C1000 1.368 . S
C1016 C1012 1.368 . S
C1016 C1015 1.523 . S
H1017 C992 0.950 . S
H1018 C994 0.950 . S
H1019 C995 0.949 . S
H1020 C997 0.950 . S
H1021 C999 0.950 . S
C1022 C1023 1.349 . S
C1022 C1024 1.327 . S
C1022 H1047 0.950 . S
C1023 C1022 1.349 . S
C1023 C1039 1.349 . S
C1024 C1022 1.327 . S
C1024 C1043 1.429 . S
C1024 H1048 0.950 . S
C1025 C1042 1.574 . S
C1025 C1044 1.368 . S
C1025 H1049 0.949 . S
H1026 C1030 0.949 . S
C1027 C1028 1.349 . S
C1027 C1029 1.327 . S
C1027 H1050 0.950 . S
C1028 C1027 1.349 . S
C1028 C1040 1.349 . S
C1029 C1027 1.327 . S
C1029 C1045 1.429 . S
C1029 H1051 0.950 . S
C1030 H1026 0.949 . S
C1030 C1038 1.574 . S
C1030 C1046 1.368 . S
H1031 C1039 0.950 . S
H1032 C1037 0.950 . S
H1033 C1038 0.949 . S
H1034 C1040 0.950 . S
H1035 C1041 0.950 . S
H1036 C1042 0.949 . S
C1037 H1032 0.950 . S
C1037 C1039 1.327 . S
C1037 C1043 1.429 . S
C1038 C1030 1.574 . S
C1038 H1033 0.949 . S
C1038 C1044 1.368 . S
C1039 C1023 1.349 . S
C1039 H1031 0.950 . S
C1039 C1037 1.327 . S
C1040 C1028 1.349 . S
C1040 H1034 0.950 . S
C1040 C1041 1.327 . S
C1041 H1035 0.950 . S
C1041 C1040 1.327 . S
C1041 C1045 1.429 . S
C1042 C1025 1.574 . S
C1042 H1036 0.949 . S
C1042 C1046 1.368 . S
C1043 C1024 1.429 . S
C1043 C1037 1.429 . S
C1043 C1044 1.523 . S
C1044 C1025 1.368 . S
C1044 C1038 1.368 . S
C1044 C1043 1.523 . S
C1045 C1029 1.429 . S
C1045 C1041 1.429 . S
C1045 C1046 1.523 . S
C1046 C1030 1.368 . S
C1046 C1042 1.368 . S
C1046 C1045 1.523 . S
H1047 C1022 0.950 . S
H1048 C1024 0.950 . S
H1049 C1025 0.949 . S
H1050 C1027 0.950 . S
H1051 C1029 0.950 . S
C1052 C1053 1.349 . S
C1052 C1054 1.327 . S
C1052 H1077 0.950 . S
C1053 C1052 1.349 . S
C1053 C1069 1.349 . S
C1054 C1052 1.327 . S
C1054 C1073 1.429 . S
C1054 H1078 0.950 . S
C1055 C1072 1.574 . S
C1055 C1074 1.368 . S
C1055 H1079 0.949 . S
H1056 C1060 0.949 . S
C1057 C1058 1.349 . S
C1057 C1059 1.327 . S
C1057 H1080 0.950 . S
C1058 C1057 1.349 . S
C1058 C1070 1.349 . S
C1059 C1057 1.327 . S
C1059 C1075 1.429 . S
C1059 H1081 0.950 . S
C1060 H1056 0.949 . S
C1060 C1068 1.574 . S
C1060 C1076 1.368 . S
H1061 C1069 0.950 1_455 S
H1062 C1067 0.950 . S
H1063 C1068 0.949 . S
H1064 C1070 0.950 . S
H1065 C1071 0.950 . S
H1066 C1072 0.949 . S
C1067 H1062 0.950 . S
C1067 C1069 1.327 . S
C1067 C1073 1.429 . S
C1068 C1060 1.574 . S
C1068 H1063 0.949 . S
C1068 C1074 1.368 . S
C1069 C1053 1.349 . S
C1069 H1061 0.950 1_655 S
C1069 C1067 1.327 . S
C1070 C1058 1.349 . S
C1070 H1064 0.950 . S
C1070 C1071 1.327 . S
C1071 H1065 0.950 . S
C1071 C1070 1.327 . S
C1071 C1075 1.429 . S
C1072 C1055 1.574 . S
C1072 H1066 0.949 . S
C1072 C1076 1.368 . S
C1073 C1054 1.429 . S
C1073 C1067 1.429 . S
C1073 C1074 1.523 . S
C1074 C1055 1.368 . S
C1074 C1068 1.368 . S
C1074 C1073 1.523 . S
C1075 C1059 1.429 . S
C1075 C1071 1.429 . S
C1075 C1076 1.523 . S
C1076 C1060 1.368 . S
C1076 C1072 1.368 . S
C1076 C1075 1.523 . S
H1077 C1052 0.950 . S
H1078 C1054 0.950 . S
H1079 C1055 0.949 . S
H1080 C1057 0.950 . S
H1081 C1059 0.950 . S
C1082 C1083 1.349 . S
C1082 C1084 1.327 . S
C1082 H1107 0.950 . S
C1083 C1082 1.349 . S
C1083 C1099 1.349 . S
C1084 C1082 1.327 . S
C1084 C1103 1.429 . S
C1084 H1108 0.950 . S
C1085 C1102 1.574 . S
C1085 C1104 1.368 . S
C1085 H1109 0.949 . S
H1086 C1090 0.949 . S
C1087 C1088 1.349 . S
C1087 C1089 1.327 . S
C1087 H1110 0.950 . S
C1088 C1087 1.349 . S
C1088 C1100 1.349 . S
C1089 C1087 1.327 . S
C1089 C1105 1.429 . S
C1089 H1111 0.950 . S
C1090 H1086 0.949 . S
C1090 C1098 1.574 . S
C1090 C1106 1.368 . S
H1091 C1099 0.950 . S
H1092 C1097 0.950 . S
H1093 C1098 0.949 . S
H1094 C1100 0.950 . S
H1095 C1101 0.950 . S
H1096 C1102 0.949 . S
C1097 H1092 0.950 . S
C1097 C1099 1.327 . S
C1097 C1103 1.429 . S
C1098 C1090 1.574 . S
C1098 H1093 0.949 . S
C1098 C1104 1.368 . S
C1099 C1083 1.349 . S
C1099 H1091 0.950 . S
C1099 C1097 1.327 . S
C1100 C1088 1.349 . S
C1100 H1094 0.950 . S
C1100 C1101 1.327 . S
C1101 H1095 0.950 . S
C1101 C1100 1.327 . S
C1101 C1105 1.429 . S
C1102 C1085 1.574 . S
C1102 H1096 0.949 . S
C1102 C1106 1.368 . S
C1103 C1084 1.429 . S
C1103 C1097 1.429 . S
C1103 C1104 1.523 . S
C1104 C1085 1.368 . S
C1104 C1098 1.368 . S
C1104 C1103 1.523 . S
C1105 C1089 1.429 . S
C1105 C1101 1.429 . S
C1105 C1106 1.523 . S
C1106 C1090 1.368 . S
C1106 C1102 1.368 . S
C1106 C1105 1.523 . S
H1107 C1082 0.950 . S
H1108 C1084 0.950 . S
H1109 C1085 0.949 . S
H1110 C1087 0.950 . S
H1111 C1089 0.950 . S
C1112 C1113 1.349 . S
C1112 C1114 1.327 . S
C1112 H1137 0.950 . S
C1113 C1112 1.349 . S
C1113 C1129 1.349 . S
C1114 C1112 1.327 . S
C1114 C1133 1.429 . S
C1114 H1138 0.950 . S
C1115 C1132 1.574 . S
C1115 C1134 1.368 . S
C1115 H1139 0.949 . S
H1116 C1120 0.949 . S
C1117 C1118 1.349 . S
C1117 C1119 1.327 . S
C1117 H1140 0.950 1_545 S
C1118 C1117 1.349 . S
C1118 C1130 1.349 . S
C1119 C1117 1.327 . S
C1119 C1135 1.429 . S
C1119 H1141 0.950 . S
C1120 H1116 0.949 . S
C1120 C1128 1.574 . S
C1120 C1136 1.368 . S
H1121 C1129 0.942 1_655 S
H1122 C1127 0.950 . S
H1123 C1128 0.949 . S
H1124 C1130 0.950 . S
H1125 C1131 0.950 . S
H1126 C1132 0.949 . S
C1127 H1122 0.950 . S
C1127 C1129 1.327 . S
C1127 C1133 1.429 . S
C1128 C1120 1.574 . S
C1128 H1123 0.949 . S
C1128 C1134 1.368 . S
C1129 C1113 1.349 . S
C1129 H1121 0.942 1_455 S
C1129 C1127 1.327 . S
C1130 C1118 1.349 . S
C1130 H1124 0.950 . S
C1130 C1131 1.327 . S
C1131 H1125 0.950 . S
C1131 C1130 1.327 . S
C1131 C1135 1.429 . S
C1132 C1115 1.574 . S
C1132 H1126 0.949 . S
C1132 C1136 1.368 . S
C1133 C1114 1.429 . S
C1133 C1127 1.429 . S
C1133 C1134 1.523 . S
C1134 C1115 1.368 . S
C1134 C1128 1.368 . S
C1134 C1133 1.523 . S
C1135 C1119 1.429 . S
C1135 C1131 1.429 . S
C1135 C1136 1.523 . S
C1136 C1120 1.368 . S
C1136 C1132 1.368 . S
C1136 C1135 1.523 . S
H1137 C1112 0.950 . S
H1138 C1114 0.950 . S
H1139 C1115 0.949 . S
H1140 C1117 0.950 1_565 S
H1141 C1119 0.950 . S
C1142 C1143 1.349 . S
C1142 C1144 1.327 . S
C1142 H1167 0.950 . S
C1143 C1142 1.349 . S
C1143 C1159 1.349 . S
C1144 C1142 1.327 . S
C1144 C1163 1.429 . S
C1144 H1168 0.950 . S
C1145 C1162 1.574 . S
C1145 C1164 1.368 . S
C1145 H1169 0.949 . S
H1146 C1150 0.949 . S
C1147 C1148 1.349 . S
C1147 C1149 1.327 . S
C1147 H1170 0.950 . S
C1148 C1147 1.349 . S
C1148 C1160 1.349 . S
C1149 C1147 1.327 . S
C1149 C1165 1.429 . S
C1149 H1171 0.950 . S
C1150 H1146 0.949 . S
C1150 C1158 1.574 . S
C1150 C1166 1.368 . S
H1151 C1159 0.950 1_565 S
H1152 C1157 0.950 . S
H1153 C1158 0.949 . S
H1154 C1160 0.950 . S
H1155 C1161 0.950 . S
H1156 C1162 0.949 . S
C1157 H1152 0.950 . S
C1157 C1159 1.327 . S
C1157 C1163 1.429 . S
C1158 C1150 1.574 . S
C1158 H1153 0.949 . S
C1158 C1164 1.368 . S
C1159 C1143 1.349 . S
C1159 H1151 0.950 1_545 S
C1159 C1157 1.327 . S
C1160 C1148 1.349 . S
C1160 H1154 0.950 . S
C1160 C1161 1.327 . S
C1161 H1155 0.950 . S
C1161 C1160 1.327 . S
C1161 C1165 1.429 . S
C1162 C1145 1.574 . S
C1162 H1156 0.949 . S
C1162 C1166 1.368 . S
C1163 C1144 1.429 . S
C1163 C1157 1.429 . S
C1163 C1164 1.523 . S
C1164 C1145 1.368 . S
C1164 C1158 1.368 . S
C1164 C1163 1.523 . S
C1165 C1149 1.429 . S
C1165 C1161 1.429 . S
C1165 C1166 1.523 . S
C1166 C1150 1.368 . S
C1166 C1162 1.368 . S
C1166 C1165 1.523 . S
H1167 C1142 0.950 . S
H1168 C1144 0.950 . S
H1169 C1145 0.949 . S
H1170 C1147 0.950 . S
H1171 C1149 0.950 . S
C1172 C1173 1.349 . S
C1172 C1174 1.327 . S
C1172 H1197 0.950 . S
C1173 C1172 1.349 . S
C1173 C1189 1.349 . S
C1174 C1172 1.327 . S
C1174 C1193 1.429 . S
C1174 H1198 0.950 . S
C1175 C1192 1.574 . S
C1175 C1194 1.368 . S
C1175 H1199 0.949 . S
H1176 C1180 0.949 . S
C1177 C1178 1.349 . S
C1177 C1179 1.327 . S
C1177 H1200 0.950 . S
C1178 C1177 1.349 . S
C1178 C1190 1.349 . S
C1179 C1177 1.327 . S
C1179 C1195 1.429 . S
C1179 H1201 0.950 . S
C1180 H1176 0.949 . S
C1180 C1188 1.574 . S
C1180 C1196 1.368 . S
H1181 C1189 0.950 . S
H1182 C1187 0.950 . S
H1183 C1188 0.949 . S
H1184 C1190 0.950 . S
H1185 C1191 0.950 . S
H1186 C1192 0.949 . S
C1187 H1182 0.950 . S
C1187 C1189 1.327 . S
C1187 C1193 1.429 . S
C1188 C1180 1.574 . S
C1188 H1183 0.949 . S
C1188 C1194 1.368 . S
C1189 C1173 1.349 . S
C1189 H1181 0.950 . S
C1189 C1187 1.327 . S
C1190 C1178 1.349 . S
C1190 H1184 0.950 . S
C1190 C1191 1.327 . S
C1191 H1185 0.950 . S
C1191 C1190 1.327 . S
C1191 C1195 1.429 . S
C1192 C1175 1.574 . S
C1192 H1186 0.949 . S
C1192 C1196 1.368 . S
C1193 C1174 1.429 . S
C1193 C1187 1.429 . S
C1193 C1194 1.523 . S
C1194 C1175 1.368 . S
C1194 C1188 1.368 . S
C1194 C1193 1.523 . S
C1195 C1179 1.429 . S
C1195 C1191 1.429 . S
C1195 C1196 1.523 . S
C1196 C1180 1.368 . S
C1196 C1192 1.368 . S
C1196 C1195 1.523 . S
H1197 C1172 0.950 . S
H1198 C1174 0.950 . S
H1199 C1175 0.949 . S
H1200 C1177 0.950 . S
H1201 C1179 0.950 . S
C1202 C1203 1.349 . S
C1202 C1204 1.327 . S
C1202 H1227 0.950 . S
C1203 C1202 1.349 . S
C1203 C1219 1.349 . S
C1204 C1202 1.327 . S
C1204 C1223 1.429 . S
C1204 H1228 0.950 . S
C1205 C1222 1.574 . S
C1205 C1224 1.368 . S
C1205 H1229 0.949 . S
H1206 C1210 0.949 . S
C1207 C1208 1.349 . S
C1207 C1209 1.327 . S
C1207 H1230 0.950 1_455 S
C1208 C1207 1.349 . S
C1208 C1220 1.349 . S
C1209 C1207 1.327 . S
C1209 C1225 1.429 . S
C1209 H1231 0.950 . S
C1210 H1206 0.949 . S
C1210 C1218 1.574 . S
C1210 C1226 1.368 . S
H1211 C1219 0.950 . S
H1212 C1217 0.950 . S
H1213 C1218 0.949 . S
H1214 C1220 0.950 . S
H1215 C1221 0.950 . S
H1216 C1222 0.949 . S
C1217 H1212 0.950 . S
C1217 C1219 1.327 . S
C1217 C1223 1.429 . S
C1218 C1210 1.574 . S
C1218 H1213 0.949 . S
C1218 C1224 1.368 . S
C1219 C1203 1.349 . S
C1219 H1211 0.950 . S
C1219 C1217 1.327 . S
C1220 C1208 1.349 . S
C1220 H1214 0.950 . S
C1220 C1221 1.327 . S
C1221 H1215 0.950 . S
C1221 C1220 1.327 . S
C1221 C1225 1.429 . S
C1222 C1205 1.574 . S
C1222 H1216 0.949 . S
C1222 C1226 1.368 . S
C1223 C1204 1.429 . S
C1223 C1217 1.429 . S
C1223 C1224 1.523 . S
C1224 C1205 1.368 . S
C1224 C1218 1.368 . S
C1224 C1223 1.523 . S
C1225 C1209 1.429 . S
C1225 C1221 1.429 . S
C1225 C1226 1.523 . S
C1226 C1210 1.368 . S
C1226 C1222 1.368 . S
C1226 C1225 1.523 . S
H1227 C1202 0.950 . S
H1228 C1204 0.950 . S
H1229 C1205 0.949 . S
H1230 C1207 0.950 1_655 S
H1231 C1209 0.950 . S
C1232 C1233 1.349 . S
C1232 C1234 1.327 . S
C1232 H1257 0.950 . S
C1233 C1232 1.349 . S
C1233 C1249 1.349 . S
C1234 C1232 1.327 . S
C1234 C1253 1.429 . S
C1234 H1258 0.950 . S
C1235 C1252 1.574 . S
C1235 C1254 1.368 . S
C1235 H1259 0.949 . S
H1236 C1240 0.949 . S
C1237 C1238 1.349 . S
C1237 C1239 1.327 . S
C1237 H1260 0.950 . S
C1238 C1237 1.349 . S
C1238 C1250 1.349 . S
C1239 C1237 1.327 . S
C1239 C1255 1.429 . S
C1239 H1261 0.950 . S
C1240 H1236 0.949 . S
C1240 C1248 1.574 . S
C1240 C1256 1.368 . S
H1241 C1249 0.950 . S
H1242 C1247 0.950 . S
H1243 C1248 0.949 . S
H1244 C1250 0.950 . S
H1245 C1251 0.950 . S
H1246 C1252 0.949 . S
C1247 H1242 0.950 . S
C1247 C1249 1.327 . S
C1247 C1253 1.429 . S
C1248 C1240 1.574 . S
C1248 H1243 0.949 . S
C1248 C1254 1.368 . S
C1249 C1233 1.349 . S
C1249 H1241 0.950 . S
C1249 C1247 1.327 . S
C1250 C1238 1.349 . S
C1250 H1244 0.950 . S
C1250 C1251 1.327 . S
C1251 H1245 0.950 . S
C1251 C1250 1.327 . S
C1251 C1255 1.429 . S
C1252 C1235 1.574 . S
C1252 H1246 0.949 . S
C1252 C1256 1.368 . S
C1253 C1234 1.429 . S
C1253 C1247 1.429 . S
C1253 C1254 1.523 . S
C1254 C1235 1.368 . S
C1254 C1248 1.368 . S
C1254 C1253 1.523 . S
C1255 C1239 1.429 . S
C1255 C1251 1.429 . S
C1255 C1256 1.523 . S
C1256 C1240 1.368 . S
C1256 C1252 1.368 . S
C1256 C1255 1.523 . S
H1257 C1232 0.950 . S
H1258 C1234 0.950 . S
H1259 C1235 0.949 . S
H1260 C1237 0.950 . S
H1261 C1239 0.950 . S
C1262 C1263 1.349 . S
C1262 C1264 1.327 . S
C1262 H1287 0.950 . S
C1263 C1262 1.349 . S
C1263 C1279 1.349 . S
C1264 C1262 1.327 . S
C1264 C1283 1.429 . S
C1264 H1288 0.950 . S
C1265 C1282 1.574 . S
C1265 C1284 1.368 . S
C1265 H1289 0.949 . S
H1266 C1270 0.949 . S
C1267 C1268 1.349 . S
C1267 C1269 1.327 . S
C1267 H1290 0.950 . S
C1268 C1267 1.349 . S
C1268 C1280 1.349 . S
C1269 C1267 1.327 . S
C1269 C1285 1.429 . S
C1269 H1291 0.950 . S
C1270 H1266 0.949 . S
C1270 C1278 1.574 . S
C1270 C1286 1.368 . S
H1271 C1279 0.950 . S
H1272 C1277 0.950 . S
H1273 C1278 0.949 . S
H1274 C1280 0.950 . S
H1275 C1281 0.950 . S
H1276 C1282 0.949 . S
C1277 H1272 0.950 . S
C1277 C1279 1.327 . S
C1277 C1283 1.429 . S
C1278 C1270 1.574 . S
C1278 H1273 0.949 . S
C1278 C1284 1.368 . S
C1279 C1263 1.349 . S
C1279 H1271 0.950 . S
C1279 C1277 1.327 . S
C1280 C1268 1.349 . S
C1280 H1274 0.950 . S
C1280 C1281 1.327 . S
C1281 H1275 0.950 . S
C1281 C1280 1.327 . S
C1281 C1285 1.429 . S
C1282 C1265 1.574 . S
C1282 H1276 0.949 . S
C1282 C1286 1.368 . S
C1283 C1264 1.429 . S
C1283 C1277 1.429 . S
C1283 C1284 1.523 . S
C1284 C1265 1.368 . S
C1284 C1278 1.368 . S
C1284 C1283 1.523 . S
C1285 C1269 1.429 . S
C1285 C1281 1.429 . S
C1285 C1286 1.523 . S
C1286 C1270 1.368 . S
C1286 C1282 1.368 . S
C1286 C1285 1.523 . S
H1287 C1262 0.950 . S
H1288 C1264 0.950 . S
H1289 C1265 0.949 . S
H1290 C1267 0.950 . S
H1291 C1269 0.950 . S
C1292 C1293 1.349 . S
C1292 C1294 1.327 . S
C1292 H1317 0.950 . S
C1293 C1292 1.349 . S
C1293 C1309 1.349 . S
C1294 C1292 1.327 . S
C1294 C1313 1.429 . S
C1294 H1318 0.950 . S
C1295 C1312 1.574 . S
C1295 C1314 1.368 . S
C1295 H1319 0.949 . S
H1296 C1300 0.949 . S
C1297 C1298 1.349 . S
C1297 C1299 1.327 . S
C1297 H1320 0.950 . S
C1298 C1297 1.349 . S
C1298 C1310 1.349 . S
C1299 C1297 1.327 . S
C1299 C1315 1.429 . S
C1299 H1321 0.950 . S
C1300 H1296 0.949 . S
C1300 C1308 1.574 . S
C1300 C1316 1.368 . S
H1301 C1309 0.950 . S
H1302 C1307 0.950 . S
H1303 C1308 0.949 . S
H1304 C1310 0.950 . S
H1305 C1311 0.950 . S
H1306 C1312 0.949 . S
C1307 H1302 0.950 . S
C1307 C1309 1.327 . S
C1307 C1313 1.429 . S
C1308 C1300 1.574 . S
C1308 H1303 0.949 . S
C1308 C1314 1.368 . S
C1309 C1293 1.349 . S
C1309 H1301 0.950 . S
C1309 C1307 1.327 . S
C1310 C1298 1.349 . S
C1310 H1304 0.950 . S
C1310 C1311 1.327 . S
C1311 H1305 0.950 . S
C1311 C1310 1.327 . S
C1311 C1315 1.429 . S
C1312 C1295 1.574 . S
C1312 H1306 0.949 . S
C1312 C1316 1.368 . S
C1313 C1294 1.429 . S
C1313 C1307 1.429 . S
C1313 C1314 1.523 . S
C1314 C1295 1.368 . S
C1314 C1308 1.368 . S
C1314 C1313 1.523 . S
C1315 C1299 1.429 . S
C1315 C1311 1.429 . S
C1315 C1316 1.523 . S
C1316 C1300 1.368 . S
C1316 C1312 1.368 . S
C1316 C1315 1.523 . S
H1317 C1292 0.950 . S
H1318 C1294 0.950 . S
H1319 C1295 0.949 . S
H1320 C1297 0.950 . S
H1321 C1299 0.950 . S
C1322 C1323 1.349 . S
C1322 C1324 1.327 . S
C1322 H1347 0.950 . S
C1323 C1322 1.349 . S
C1323 C1339 1.349 . S
C1324 C1322 1.327 . S
C1324 C1343 1.429 . S
C1324 H1348 0.950 . S
C1325 C1342 1.574 . S
C1325 C1344 1.368 . S
C1325 H1349 0.949 . S
H1326 C1330 0.949 . S
C1327 C1328 1.349 . S
C1327 C1329 1.327 . S
C1327 H1350 0.950 . S
C1328 C1327 1.349 . S
C1328 C1340 1.349 . S
C1329 C1327 1.327 . S
C1329 C1345 1.429 . S
C1329 H1351 0.950 . S
C1330 H1326 0.949 . S
C1330 C1338 1.574 . S
C1330 C1346 1.368 . S
H1331 C1339 0.950 . S
H1332 C1337 0.950 . S
H1333 C1338 0.949 . S
H1334 C1340 0.950 . S
H1335 C1341 0.950 . S
H1336 C1342 0.949 . S
C1337 H1332 0.950 . S
C1337 C1339 1.327 . S
C1337 C1343 1.429 . S
C1338 C1330 1.574 . S
C1338 H1333 0.949 . S
C1338 C1344 1.368 . S
C1339 C1323 1.349 . S
C1339 H1331 0.950 . S
C1339 C1337 1.327 . S
C1340 C1328 1.349 . S
C1340 H1334 0.950 . S
C1340 C1341 1.327 . S
C1341 H1335 0.950 . S
C1341 C1340 1.327 . S
C1341 C1345 1.429 . S
C1342 C1325 1.574 . S
C1342 H1336 0.949 . S
C1342 C1346 1.368 . S
C1343 C1324 1.429 . S
C1343 C1337 1.429 . S
C1343 C1344 1.523 . S
C1344 C1325 1.368 . S
C1344 C1338 1.368 . S
C1344 C1343 1.523 . S
C1345 C1329 1.429 . S
C1345 C1341 1.429 . S
C1345 C1346 1.523 . S
C1346 C1330 1.368 . S
C1346 C1342 1.368 . S
C1346 C1345 1.523 . S
H1347 C1322 0.950 . S
H1348 C1324 0.950 . S
H1349 C1325 0.949 . S
H1350 C1327 0.950 . S
H1351 C1329 0.950 . S
C1352 C1353 1.349 . S
C1352 C1354 1.327 . S
C1352 H1377 0.950 . S
C1353 C1352 1.349 . S
C1353 C1369 1.349 . S
C1354 C1352 1.327 . S
C1354 C1373 1.429 . S
C1354 H1378 0.950 . S
C1355 C1372 1.574 . S
C1355 C1374 1.368 . S
C1355 H1379 0.949 . S
H1356 C1360 0.949 . S
C1357 C1358 1.349 . S
C1357 C1359 1.327 . S
C1357 H1380 0.950 . S
C1358 C1357 1.349 . S
C1358 C1370 1.349 . S
C1359 C1357 1.327 . S
C1359 C1375 1.429 . S
C1359 H1381 0.950 . S
C1360 H1356 0.949 . S
C1360 C1368 1.574 . S
C1360 C1376 1.368 . S
H1361 C1369 0.950 . S
H1362 C1367 0.950 . S
H1363 C1368 0.949 . S
H1364 C1370 0.950 . S
H1365 C1371 0.950 . S
H1366 C1372 0.949 . S
C1367 H1362 0.950 . S
C1367 C1369 1.327 . S
C1367 C1373 1.429 . S
C1368 C1360 1.574 . S
C1368 H1363 0.949 . S
C1368 C1374 1.368 . S
C1369 C1353 1.349 . S
C1369 H1361 0.950 . S
C1369 C1367 1.327 . S
C1370 C1358 1.349 . S
C1370 H1364 0.950 . S
C1370 C1371 1.327 . S
C1371 H1365 0.950 . S
C1371 C1370 1.327 . S
C1371 C1375 1.429 . S
C1372 C1355 1.574 . S
C1372 H1366 0.949 . S
C1372 C1376 1.368 . S
C1373 C1354 1.429 . S
C1373 C1367 1.429 . S
C1373 C1374 1.523 . S
C1374 C1355 1.368 . S
C1374 C1368 1.368 . S
C1374 C1373 1.523 . S
C1375 C1359 1.429 . S
C1375 C1371 1.429 . S
C1375 C1376 1.523 . S
C1376 C1360 1.368 . S
C1376 C1372 1.368 . S
C1376 C1375 1.523 . S
H1377 C1352 0.950 . S
H1378 C1354 0.950 . S
H1379 C1355 0.949 . S
H1380 C1357 0.950 . S
H1381 C1359 0.950 . S
C1382 C1383 1.349 . S
C1382 C1384 1.327 . S
C1382 H1407 0.950 . S
C1383 C1382 1.349 . S
C1383 C1399 1.349 . S
C1384 C1382 1.327 . S
C1384 C1403 1.429 . S
C1384 H1408 0.950 . S
C1385 C1402 1.574 . S
C1385 C1404 1.368 . S
C1385 H1409 0.949 . S
H1386 C1390 0.949 . S
C1387 C1388 1.349 . S
C1387 C1389 1.327 . S
C1387 H1410 0.950 . S
C1388 C1387 1.349 . S
C1388 C1400 1.349 . S
C1389 C1387 1.327 . S
C1389 C1405 1.429 . S
C1389 H1411 0.950 . S
C1390 H1386 0.949 . S
C1390 C1398 1.574 . S
C1390 C1406 1.368 . S
H1391 C1399 0.950 . S
H1392 C1397 0.950 . S
H1393 C1398 0.949 . S
H1394 C1400 0.950 . S
H1395 C1401 0.950 . S
H1396 C1402 0.949 . S
C1397 H1392 0.950 . S
C1397 C1399 1.327 . S
C1397 C1403 1.429 . S
C1398 C1390 1.574 . S
C1398 H1393 0.949 . S
C1398 C1404 1.368 . S
C1399 C1383 1.349 . S
C1399 H1391 0.950 . S
C1399 C1397 1.327 . S
C1400 C1388 1.349 . S
C1400 H1394 0.950 . S
C1400 C1401 1.327 . S
C1401 H1395 0.950 . S
C1401 C1400 1.327 . S
C1401 C1405 1.429 . S
C1402 C1385 1.574 . S
C1402 H1396 0.949 . S
C1402 C1406 1.368 . S
C1403 C1384 1.429 . S
C1403 C1397 1.429 . S
C1403 C1404 1.523 . S
C1404 C1385 1.368 . S
C1404 C1398 1.368 . S
C1404 C1403 1.523 . S
C1405 C1389 1.429 . S
C1405 C1401 1.429 . S
C1405 C1406 1.523 . S
C1406 C1390 1.368 . S
C1406 C1402 1.368 . S
C1406 C1405 1.523 . S
H1407 C1382 0.950 . S
H1408 C1384 0.950 . S
H1409 C1385 0.949 . S
H1410 C1387 0.950 . S
H1411 C1389 0.950 . S
C1412 C1413 1.349 . S
C1412 C1414 1.327 . S
C1412 H1437 0.950 . S
C1413 C1412 1.349 . S
C1413 C1429 1.349 . S
C1414 C1412 1.327 . S
C1414 C1433 1.429 . S
C1414 H1438 0.950 . S
C1415 C1432 1.574 . S
C1415 C1434 1.368 . S
C1415 H1439 0.949 . S
H1416 C1420 0.949 . S
C1417 C1418 1.349 . S
C1417 C1419 1.327 . S
C1417 H1440 0.950 . S
C1418 C1417 1.349 . S
C1418 C1430 1.349 . S
C1419 C1417 1.327 . S
C1419 C1435 1.429 . S
C1419 H1441 0.950 . S
C1420 H1416 0.949 . S
C1420 C1428 1.574 . S
C1420 C1436 1.368 . S
H1421 C1429 0.950 . S
H1422 C1427 0.950 . S
H1423 C1428 0.949 . S
H1424 C1430 0.950 . S
H1425 C1431 0.950 . S
H1426 C1432 0.949 . S
C1427 H1422 0.950 . S
C1427 C1429 1.327 . S
C1427 C1433 1.429 . S
C1428 C1420 1.574 . S
C1428 H1423 0.949 . S
C1428 C1434 1.368 . S
C1429 C1413 1.349 . S
C1429 H1421 0.950 . S
C1429 C1427 1.327 . S
C1430 C1418 1.349 . S
C1430 H1424 0.950 . S
C1430 C1431 1.327 . S
C1431 H1425 0.950 . S
C1431 C1430 1.327 . S
C1431 C1435 1.429 . S
C1432 C1415 1.574 . S
C1432 H1426 0.949 . S
C1432 C1436 1.368 . S
C1433 C1414 1.429 . S
C1433 C1427 1.429 . S
C1433 C1434 1.523 . S
C1434 C1415 1.368 . S
C1434 C1428 1.368 . S
C1434 C1433 1.523 . S
C1435 C1419 1.429 . S
C1435 C1431 1.429 . S
C1435 C1436 1.523 . S
C1436 C1420 1.368 . S
C1436 C1432 1.368 . S
C1436 C1435 1.523 . S
H1437 C1412 0.950 . S
H1438 C1414 0.950 . S
H1439 C1415 0.949 . S
H1440 C1417 0.950 . S
H1441 C1419 0.950 . S
C1442 C1443 1.349 . S
C1442 C1444 1.327 . S
C1442 H1467 0.950 . S
C1443 C1442 1.349 . S
C1443 C1459 1.349 . S
C1444 C1442 1.327 . S
C1444 C1463 1.429 . S
C1444 H1468 0.950 . S
C1445 C1462 1.574 . S
C1445 C1464 1.368 . S
C1445 H1469 0.949 . S
H1446 C1450 0.949 . S
C1447 C1448 1.349 . S
C1447 C1449 1.327 . S
C1447 H1470 0.950 . S
C1448 C1447 1.349 . S
C1448 C1460 1.349 . S
C1449 C1447 1.327 . S
C1449 C1465 1.429 . S
C1449 H1471 0.950 . S
C1450 H1446 0.949 . S
C1450 C1458 1.574 . S
C1450 C1466 1.368 . S
H1451 C1459 0.950 . S
H1452 C1457 0.950 . S
H1453 C1458 0.949 . S
H1454 C1460 0.950 . S
H1455 C1461 0.950 . S
H1456 C1462 0.949 . S
C1457 H1452 0.950 . S
C1457 C1459 1.327 . S
C1457 C1463 1.429 . S
C1458 C1450 1.574 . S
C1458 H1453 0.949 . S
C1458 C1464 1.368 . S
C1459 C1443 1.349 . S
C1459 H1451 0.950 . S
C1459 C1457 1.327 . S
C1460 C1448 1.349 . S
C1460 H1454 0.950 . S
C1460 C1461 1.327 . S
C1461 H1455 0.950 . S
C1461 C1460 1.327 . S
C1461 C1465 1.429 . S
C1462 C1445 1.574 . S
C1462 H1456 0.949 . S
C1462 C1466 1.368 . S
C1463 C1444 1.429 . S
C1463 C1457 1.429 . S
C1463 C1464 1.523 . S
C1464 C1445 1.368 . S
C1464 C1458 1.368 . S
C1464 C1463 1.523 . S
C1465 C1449 1.429 . S
C1465 C1461 1.429 . S
C1465 C1466 1.523 . S
C1466 C1450 1.368 . S
C1466 C1462 1.368 . S
C1466 C1465 1.523 . S
H1467 C1442 0.950 . S
H1468 C1444 0.950 . S
H1469 C1445 0.949 . S
H1470 C1447 0.950 . S
H1471 C1449 0.950 . S
C1472 C1473 1.349 . S
C1472 C1474 1.327 . S
C1472 H1497 0.950 . S
C1473 C1472 1.349 . S
C1473 C1489 1.349 . S
C1474 C1472 1.327 . S
C1474 C1493 1.429 . S
C1474 H1498 0.950 . S
C1475 C1492 1.574 . S
C1475 C1494 1.368 . S
C1475 H1499 0.949 . S
H1476 C1480 0.949 . S
C1477 C1478 1.349 . S
C1477 C1479 1.327 . S
C1477 H1500 0.950 . S
C1478 C1477 1.349 . S
C1478 C1490 1.349 . S
C1479 C1477 1.327 . S
C1479 C1495 1.429 . S
C1479 H1501 0.950 . S
C1480 H1476 0.949 . S
C1480 C1488 1.574 . S
C1480 C1496 1.368 . S
H1481 C1489 0.950 . S
H1482 C1487 0.950 . S
H1483 C1488 0.949 . S
H1484 C1490 0.950 . S
H1485 C1491 0.950 . S
H1486 C1492 0.949 . S
C1487 H1482 0.950 . S
C1487 C1489 1.327 . S
C1487 C1493 1.429 . S
C1488 C1480 1.574 . S
C1488 H1483 0.949 . S
C1488 C1494 1.368 . S
C1489 C1473 1.349 . S
C1489 H1481 0.950 . S
C1489 C1487 1.327 . S
C1490 C1478 1.349 . S
C1490 H1484 0.950 . S
C1490 C1491 1.327 . S
C1491 H1485 0.950 . S
C1491 C1490 1.327 . S
C1491 C1495 1.429 . S
C1492 C1475 1.574 . S
C1492 H1486 0.949 . S
C1492 C1496 1.368 . S
C1493 C1474 1.429 . S
C1493 C1487 1.429 . S
C1493 C1494 1.523 . S
C1494 C1475 1.368 . S
C1494 C1488 1.368 . S
C1494 C1493 1.523 . S
C1495 C1479 1.429 . S
C1495 C1491 1.429 . S
C1495 C1496 1.523 . S
C1496 C1480 1.368 . S
C1496 C1492 1.368 . S
C1496 C1495 1.523 . S
H1497 C1472 0.950 . S
H1498 C1474 0.950 . S
H1499 C1475 0.949 . S
H1500 C1477 0.950 . S
H1501 C1479 0.950 . S
C1502 C1503 1.349 . S
C1502 C1504 1.327 . S
C1502 H1527 0.950 . S
C1503 C1502 1.349 . S
C1503 C1519 1.349 . S
C1504 C1502 1.327 . S
C1504 C1523 1.429 . S
C1504 H1528 0.950 . S
C1505 C1522 1.574 . S
C1505 C1524 1.368 . S
C1505 H1529 0.949 . S
H1506 C1510 0.949 . S
C1507 C1508 1.349 . S
C1507 C1509 1.327 . S
C1507 H1530 0.950 . S
C1508 C1507 1.349 . S
C1508 C1520 1.349 . S
C1509 C1507 1.327 . S
C1509 C1525 1.429 . S
C1509 H1531 0.950 . S
C1510 H1506 0.949 . S
C1510 C1518 1.574 . S
C1510 C1526 1.368 . S
H1511 C1519 0.950 . S
H1512 C1517 0.950 . S
H1513 C1518 0.949 . S
H1514 C1520 0.950 . S
H1515 C1521 0.950 . S
H1516 C1522 0.949 . S
C1517 H1512 0.950 . S
C1517 C1519 1.327 . S
C1517 C1523 1.429 . S
C1518 C1510 1.574 . S
C1518 H1513 0.949 . S
C1518 C1524 1.368 . S
C1519 C1503 1.349 . S
C1519 H1511 0.950 . S
C1519 C1517 1.327 . S
C1520 C1508 1.349 . S
C1520 H1514 0.950 . S
C1520 C1521 1.327 . S
C1521 H1515 0.950 . S
C1521 C1520 1.327 . S
C1521 C1525 1.429 . S
C1522 C1505 1.574 . S
C1522 H1516 0.949 . S
C1522 C1526 1.368 . S
C1523 C1504 1.429 . S
C1523 C1517 1.429 . S
C1523 C1524 1.523 . S
C1524 C1505 1.368 . S
C1524 C1518 1.368 . S
C1524 C1523 1.523 . S
C1525 C1509 1.429 . S
C1525 C1521 1.429 . S
C1525 C1526 1.523 . S
C1526 C1510 1.368 . S
C1526 C1522 1.368 . S
C1526 C1525 1.523 . S
H1527 C1502 0.950 . S
H1528 C1504 0.950 . S
H1529 C1505 0.949 . S
H1530 C1507 0.950 . S
H1531 C1509 0.950 . S
C1532 C1533 1.349 . S
C1532 C1534 1.327 . S
C1532 H1557 0.950 . S
C1533 C1532 1.349 . S
C1533 C1549 1.349 . S
C1534 C1532 1.327 . S
C1534 C1553 1.429 . S
C1534 H1558 0.950 . S
C1535 C1552 1.574 . S
C1535 C1554 1.368 . S
C1535 H1559 0.949 . S
H1536 C1540 0.949 . S
C1537 C1538 1.349 . S
C1537 C1539 1.327 . S
C1537 H1560 0.950 . S
C1538 C1537 1.349 . S
C1538 C1550 1.349 . S
C1539 C1537 1.327 . S
C1539 C1555 1.429 . S
C1539 H1561 0.950 . S
C1540 H1536 0.949 . S
C1540 C1548 1.574 . S
C1540 C1556 1.368 . S
H1541 C1549 0.950 . S
H1542 C1547 0.950 . S
H1543 C1548 0.949 . S
H1544 C1550 0.950 . S
H1545 C1551 0.950 . S
H1546 C1552 0.949 . S
C1547 H1542 0.950 . S
C1547 C1549 1.327 . S
C1547 C1553 1.429 . S
C1548 C1540 1.574 . S
C1548 H1543 0.949 . S
C1548 C1554 1.368 . S
C1549 C1533 1.349 . S
C1549 H1541 0.950 . S
C1549 C1547 1.327 . S
C1550 C1538 1.349 . S
C1550 H1544 0.950 . S
C1550 C1551 1.327 . S
C1551 H1545 0.950 . S
C1551 C1550 1.327 . S
C1551 C1555 1.429 . S
C1552 C1535 1.574 . S
C1552 H1546 0.949 . S
C1552 C1556 1.368 . S
C1553 C1534 1.429 . S
C1553 C1547 1.429 . S
C1553 C1554 1.523 . S
C1554 C1535 1.368 . S
C1554 C1548 1.368 . S
C1554 C1553 1.523 . S
C1555 C1539 1.429 . S
C1555 C1551 1.429 . S
C1555 C1556 1.523 . S
C1556 C1540 1.368 . S
C1556 C1552 1.368 . S
C1556 C1555 1.523 . S
H1557 C1532 0.950 . S
H1558 C1534 0.950 . S
H1559 C1535 0.949 . S
H1560 C1537 0.950 . S
H1561 C1539 0.950 . S
C1562 C1563 1.349 . S
C1562 C1564 1.327 . S
C1562 H1587 0.950 . S
C1563 C1562 1.349 . S
C1563 C1579 1.349 . S
C1564 C1562 1.327 . S
C1564 C1583 1.429 . S
C1564 H1588 0.950 . S
C1565 C1582 1.574 . S
C1565 C1584 1.368 . S
C1565 H1589 0.949 . S
H1566 C1570 0.949 . S
C1567 C1568 1.349 . S
C1567 C1569 1.327 . S
C1567 H1590 0.950 . S
C1568 C1567 1.349 . S
C1568 C1580 1.349 . S
C1569 C1567 1.327 . S
C1569 C1585 1.429 . S
C1569 H1591 0.950 . S
C1570 H1566 0.949 . S
C1570 C1578 1.574 . S
C1570 C1586 1.368 . S
H1571 C1579 0.950 . S
H1572 C1577 0.950 . S
H1573 C1578 0.949 . S
H1574 C1580 0.950 . S
H1575 C1581 0.950 . S
H1576 C1582 0.949 . S
C1577 H1572 0.950 . S
C1577 C1579 1.327 . S
C1577 C1583 1.429 . S
C1578 C1570 1.574 . S
C1578 H1573 0.949 . S
C1578 C1584 1.368 . S
C1579 C1563 1.349 . S
C1579 H1571 0.950 . S
C1579 C1577 1.327 . S
C1580 C1568 1.349 . S
C1580 H1574 0.950 . S
C1580 C1581 1.327 . S
C1581 H1575 0.950 . S
C1581 C1580 1.327 . S
C1581 C1585 1.429 . S
C1582 C1565 1.574 . S
C1582 H1576 0.949 . S
C1582 C1586 1.368 . S
C1583 C1564 1.429 . S
C1583 C1577 1.429 . S
C1583 C1584 1.523 . S
C1584 C1565 1.368 . S
C1584 C1578 1.368 . S
C1584 C1583 1.523 . S
C1585 C1569 1.429 . S
C1585 C1581 1.429 . S
C1585 C1586 1.523 . S
C1586 C1570 1.368 . S
C1586 C1582 1.368 . S
C1586 C1585 1.523 . S
H1587 C1562 0.950 . S
H1588 C1564 0.950 . S
H1589 C1565 0.949 . S
H1590 C1567 0.950 . S
H1591 C1569 0.950 . S
C1592 C1593 1.349 . S
C1592 C1594 1.327 . S
C1592 H1617 0.950 . S
C1593 C1592 1.349 . S
C1593 C1609 1.349 . S
C1594 C1592 1.327 . S
C1594 C1613 1.429 . S
C1594 H1618 0.950 . S
C1595 C1612 1.574 1_556 S
C1595 C1614 1.368 . S
C1595 H1619 0.949 . S
H1596 C1600 0.949 . S
C1597 C1598 1.349 . S
C1597 C1599 1.327 . S
C1597 H1620 0.950 . S
C1598 C1597 1.349 . S
C1598 C1610 1.349 . S
C1599 C1597 1.327 . S
C1599 C1615 1.429 . S
C1599 H1621 0.950 . S
C1600 H1596 0.949 . S
C1600 C1608 1.574 1_554 S
C1600 C1616 1.368 . S
H1601 C1609 0.950 . S
H1602 C1607 0.950 . S
H1603 C1608 0.949 . S
H1604 C1610 0.950 . S
H1605 C1611 0.950 . S
H1606 C1612 0.949 . S
C1607 H1602 0.950 . S
C1607 C1609 1.327 . S
C1607 C1613 1.429 . S
C1608 C1600 1.574 1_556 S
C1608 H1603 0.949 . S
C1608 C1614 1.368 . S
C1609 C1593 1.349 . S
C1609 H1601 0.950 . S
C1609 C1607 1.327 . S
C1610 C1598 1.349 . S
C1610 H1604 0.950 . S
C1610 C1611 1.327 . S
C1611 H1605 0.950 . S
C1611 C1610 1.327 . S
C1611 C1615 1.429 . S
C1612 C1595 1.574 1_554 S
C1612 H1606 0.949 . S
C1612 C1616 1.368 . S
C1613 C1594 1.429 . S
C1613 C1607 1.429 . S
C1613 C1614 1.523 . S
C1614 C1595 1.368 . S
C1614 C1608 1.368 . S
C1614 C1613 1.523 . S
C1615 C1599 1.429 . S
C1615 C1611 1.429 . S
C1615 C1616 1.523 . S
C1616 C1600 1.368 . S
C1616 C1612 1.368 . S
C1616 C1615 1.523 . S
H1617 C1592 0.950 . S
H1618 C1594 0.950 . S
H1619 C1595 0.949 . S
H1620 C1597 0.950 . S
H1621 C1599 0.950 . S
C1622 C1623 1.349 . S
C1622 C1624 1.327 . S
C1622 H1647 0.950 . S
C1623 C1622 1.349 . S
C1623 C1639 1.349 . S
C1624 C1622 1.327 . S
C1624 C1643 1.429 . S
C1624 H1648 0.950 . S
C1625 C1642 1.574 . S
C1625 C1644 1.368 1_556 S
C1625 H1649 0.949 . S
H1626 C1630 0.949 . S
C1627 C1628 1.349 . S
C1627 C1629 1.327 . S
C1627 H1650 0.950 . S
C1628 C1627 1.349 . S
C1628 C1640 1.349 . S
C1629 C1627 1.327 . S
C1629 C1645 1.429 . S
C1629 H1651 0.950 . S
C1630 H1626 0.949 . S
C1630 C1638 1.574 1_556 S
C1630 C1646 1.368 . S
H1631 C1639 0.950 . S
H1632 C1637 0.950 . S
H1633 C1638 0.949 . S
H1634 C1640 0.950 . S
H1635 C1641 0.950 . S
H1636 C1642 0.949 . S
C1637 H1632 0.950 . S
C1637 C1639 1.327 . S
C1637 C1643 1.429 . S
C1638 C1630 1.574 1_554 S
C1638 H1633 0.949 . S
C1638 C1644 1.368 . S
C1639 C1623 1.349 . S
C1639 H1631 0.950 . S
C1639 C1637 1.327 . S
C1640 C1628 1.349 . S
C1640 H1634 0.950 . S
C1640 C1641 1.327 . S
C1641 H1635 0.950 . S
C1641 C1640 1.327 . S
C1641 C1645 1.429 . S
C1642 C1625 1.574 . S
C1642 H1636 0.949 . S
C1642 C1646 1.368 . S
C1643 C1624 1.429 . S
C1643 C1637 1.429 . S
C1643 C1644 1.523 . S
C1644 C1625 1.368 1_554 S
C1644 C1638 1.368 . S
C1644 C1643 1.523 . S
C1645 C1629 1.429 . S
C1645 C1641 1.429 . S
C1645 C1646 1.523 . S
C1646 C1630 1.368 . S
C1646 C1642 1.368 . S
C1646 C1645 1.523 . S
H1647 C1622 0.950 . S
H1648 C1624 0.950 . S
H1649 C1625 0.949 . S
H1650 C1627 0.950 . S
H1651 C1629 0.950 . S
C1652 C1653 1.349 . S
C1652 C1654 1.327 . S
C1652 H1677 0.950 . S
C1653 C1652 1.349 . S
C1653 C1669 1.349 . S
C1654 C1652 1.327 . S
C1654 C1673 1.429 . S
C1654 H1678 0.950 . S
C1655 C1672 1.574 1_556 S
C1655 C1674 1.368 . S
C1655 H1679 0.949 . S
H1656 C1660 0.949 . S
C1657 C1658 1.349 . S
C1657 C1659 1.327 . S
C1657 H1680 0.950 . S
C1658 C1657 1.349 . S
C1658 C1670 1.349 . S
C1659 C1657 1.327 . S
C1659 C1675 1.429 . S
C1659 H1681 0.950 . S
C1660 H1656 0.949 . S
C1660 C1668 1.574 1_554 S
C1660 C1676 1.368 . S
H1661 C1669 0.950 . S
H1662 C1667 0.950 . S
H1663 C1668 0.949 . S
H1664 C1670 0.950 . S
H1665 C1671 0.950 . S
H1666 C1672 0.949 . S
C1667 H1662 0.950 . S
C1667 C1669 1.327 . S
C1667 C1673 1.429 . S
C1668 C1660 1.574 1_556 S
C1668 H1663 0.949 . S
C1668 C1674 1.368 . S
C1669 C1653 1.349 . S
C1669 H1661 0.950 . S
C1669 C1667 1.327 . S
C1670 C1658 1.349 . S
C1670 H1664 0.950 . S
C1670 C1671 1.327 . S
C1671 H1665 0.950 . S
C1671 C1670 1.327 . S
C1671 C1675 1.429 . S
C1672 C1655 1.574 1_554 S
C1672 H1666 0.949 . S
C1672 C1676 1.368 . S
C1673 C1654 1.429 . S
C1673 C1667 1.429 . S
C1673 C1674 1.523 . S
C1674 C1655 1.368 . S
C1674 C1668 1.368 . S
C1674 C1673 1.523 . S
C1675 C1659 1.429 . S
C1675 C1671 1.429 . S
C1675 C1676 1.523 . S
C1676 C1660 1.368 . S
C1676 C1672 1.368 . S
C1676 C1675 1.523 . S
H1677 C1652 0.950 . S
H1678 C1654 0.950 . S
H1679 C1655 0.949 . S
H1680 C1657 0.950 . S
H1681 C1659 0.950 . S
C1682 C1683 1.349 . S
C1682 C1684 1.327 . S
C1682 H1707 0.950 . S
C1683 C1682 1.349 . S
C1683 C1699 1.349 . S
C1684 C1682 1.327 . S
C1684 C1703 1.429 . S
C1684 H1708 0.950 . S
C1685 C1702 1.574 . S
C1685 C1704 1.368 1_556 S
C1685 H1709 0.949 1_556 S
H1686 C1690 0.949 . S
C1687 C1688 1.349 . S
C1687 C1689 1.327 . S
C1687 H1710 0.950 . S
C1688 C1687 1.349 . S
C1688 C1700 1.349 . S
C1689 C1687 1.327 . S
C1689 C1705 1.429 . S
C1689 H1711 0.950 . S
C1690 H1686 0.949 . S
C1690 C1698 1.574 1_556 S
C1690 C1706 1.368 . S
H1691 C1699 0.950 . S
H1692 C1697 0.950 . S
H1693 C1698 0.949 . S
H1694 C1700 0.950 . S
H1695 C1701 0.950 . S
H1696 C1702 0.949 . S
C1697 H1692 0.950 . S
C1697 C1699 1.327 . S
C1697 C1703 1.429 . S
C1698 C1690 1.574 1_554 S
C1698 H1693 0.949 . S
C1698 C1704 1.368 . S
C1699 C1683 1.349 . S
C1699 H1691 0.950 . S
C1699 C1697 1.327 . S
C1700 C1688 1.349 . S
C1700 H1694 0.950 . S
C1700 C1701 1.327 . S
C1701 H1695 0.950 . S
C1701 C1700 1.327 . S
C1701 C1705 1.429 . S
C1702 C1685 1.574 . S
C1702 H1696 0.949 . S
C1702 C1706 1.368 . S
C1703 C1684 1.429 . S
C1703 C1697 1.429 . S
C1703 C1704 1.523 . S
C1704 C1685 1.368 1_554 S
C1704 C1698 1.368 . S
C1704 C1703 1.523 . S
C1705 C1689 1.429 . S
C1705 C1701 1.429 . S
C1705 C1706 1.523 . S
C1706 C1690 1.368 . S
C1706 C1702 1.368 . S
C1706 C1705 1.523 . S
H1707 C1682 0.950 . S
H1708 C1684 0.950 . S
H1709 C1685 0.949 1_554 S
H1710 C1687 0.950 . S
H1711 C1689 0.950 . S
C1712 C1713 1.349 . S
C1712 C1714 1.327 . S
C1712 H1737 0.950 . S
C1713 C1712 1.349 . S
C1713 C1729 1.349 . S
C1714 C1712 1.327 . S
C1714 C1733 1.429 . S
C1714 H1738 0.950 . S
C1715 C1732 1.574 . S
C1715 C1734 1.368 . S
C1715 H1739 0.949 . S
H1716 C1720 0.949 . S
C1717 C1718 1.349 . S
C1717 C1719 1.327 . S
C1717 H1740 0.950 . S
C1718 C1717 1.349 . S
C1718 C1730 1.349 . S
C1719 C1717 1.327 . S
C1719 C1735 1.429 . S
C1719 H1741 0.950 . S
C1720 H1716 0.949 . S
C1720 C1728 1.574 . S
C1720 C1736 1.368 . S
H1721 C1729 0.950 . S
H1722 C1727 0.950 . S
H1723 C1728 0.949 . S
H1724 C1730 0.950 . S
H1725 C1731 0.950 . S
H1726 C1732 0.949 . S
C1727 H1722 0.950 . S
C1727 C1729 1.327 . S
C1727 C1733 1.429 . S
C1728 C1720 1.574 . S
C1728 H1723 0.949 . S
C1728 C1734 1.368 . S
C1729 C1713 1.349 . S
C1729 H1721 0.950 . S
C1729 C1727 1.327 . S
C1730 C1718 1.349 . S
C1730 H1724 0.950 . S
C1730 C1731 1.327 . S
C1731 H1725 0.950 . S
C1731 C1730 1.327 . S
C1731 C1735 1.429 . S
C1732 C1715 1.574 . S
C1732 H1726 0.949 . S
C1732 C1736 1.368 . S
C1733 C1714 1.429 . S
C1733 C1727 1.429 . S
C1733 C1734 1.523 . S
C1734 C1715 1.368 . S
C1734 C1728 1.368 . S
C1734 C1733 1.523 . S
C1735 C1719 1.429 . S
C1735 C1731 1.429 . S
C1735 C1736 1.523 . S
C1736 C1720 1.368 . S
C1736 C1732 1.368 . S
C1736 C1735 1.523 . S
H1737 C1712 0.950 . S
H1738 C1714 0.950 . S
H1739 C1715 0.949 . S
H1740 C1717 0.950 . S
H1741 C1719 0.950 . S
C1742 C1743 1.349 . S
C1742 C1744 1.327 . S
C1742 H1767 0.950 . S
C1743 C1742 1.349 . S
C1743 C1759 1.349 . S
C1744 C1742 1.327 . S
C1744 C1763 1.429 . S
C1744 H1768 0.950 . S
C1745 C1762 1.574 . S
C1745 C1764 1.368 . S
C1745 H1769 0.949 . S
H1746 C1750 0.949 . S
C1747 C1748 1.349 . S
C1747 C1749 1.327 . S
C1747 H1770 0.950 . S
C1748 C1747 1.349 . S
C1748 C1760 1.349 . S
C1749 C1747 1.327 . S
C1749 C1765 1.429 . S
C1749 H1771 0.950 . S
C1750 H1746 0.949 . S
C1750 C1758 1.574 . S
C1750 C1766 1.368 . S
H1751 C1759 0.950 . S
H1752 C1757 0.950 . S
H1753 C1758 0.949 . S
H1754 C1760 0.950 . S
H1755 C1761 0.950 . S
H1756 C1762 0.949 . S
C1757 H1752 0.950 . S
C1757 C1759 1.327 . S
C1757 C1763 1.429 . S
C1758 C1750 1.574 . S
C1758 H1753 0.949 . S
C1758 C1764 1.368 . S
C1759 C1743 1.349 . S
C1759 H1751 0.950 . S
C1759 C1757 1.327 . S
C1760 C1748 1.349 . S
C1760 H1754 0.950 . S
C1760 C1761 1.327 . S
C1761 H1755 0.950 . S
C1761 C1760 1.327 . S
C1761 C1765 1.429 . S
C1762 C1745 1.574 . S
C1762 H1756 0.949 . S
C1762 C1766 1.368 . S
C1763 C1744 1.429 . S
C1763 C1757 1.429 . S
C1763 C1764 1.523 . S
C1764 C1745 1.368 . S
C1764 C1758 1.368 . S
C1764 C1763 1.523 . S
C1765 C1749 1.429 . S
C1765 C1761 1.429 . S
C1765 C1766 1.523 . S
C1766 C1750 1.368 . S
C1766 C1762 1.368 . S
C1766 C1765 1.523 . S
H1767 C1742 0.950 . S
H1768 C1744 0.950 . S
H1769 C1745 0.949 . S
H1770 C1747 0.950 . S
H1771 C1749 0.950 . S
C1772 C1773 1.349 . S
C1772 C1774 1.327 . S
C1772 H1797 0.950 . S
C1773 C1772 1.349 . S
C1773 C1789 1.349 . S
C1774 C1772 1.327 . S
C1774 C1793 1.429 . S
C1774 H1798 0.950 . S
C1775 C1792 1.574 . S
C1775 C1794 1.368 . S
C1775 H1799 0.949 . S
H1776 C1780 0.949 . S
C1777 C1778 1.349 . S
C1777 C1779 1.327 . S
C1777 H1800 0.950 . S
C1778 C1777 1.349 . S
C1778 C1790 1.349 . S
C1779 C1777 1.327 . S
C1779 C1795 1.429 . S
C1779 H1801 0.950 . S
C1780 H1776 0.949 . S
C1780 C1788 1.574 . S
C1780 C1796 1.368 . S
H1781 C1789 0.950 . S
H1782 C1787 0.950 . S
H1783 C1788 0.949 . S
H1784 C1790 0.950 . S
H1785 C1791 0.950 . S
H1786 C1792 0.949 . S
C1787 H1782 0.950 . S
C1787 C1789 1.327 . S
C1787 C1793 1.429 . S
C1788 C1780 1.574 . S
C1788 H1783 0.949 . S
C1788 C1794 1.368 . S
C1789 C1773 1.349 . S
C1789 H1781 0.950 . S
C1789 C1787 1.327 . S
C1790 C1778 1.349 . S
C1790 H1784 0.950 . S
C1790 C1791 1.327 . S
C1791 H1785 0.950 . S
C1791 C1790 1.327 . S
C1791 C1795 1.429 . S
C1792 C1775 1.574 . S
C1792 H1786 0.949 . S
C1792 C1796 1.368 . S
C1793 C1774 1.429 . S
C1793 C1787 1.429 . S
C1793 C1794 1.523 . S
C1794 C1775 1.368 . S
C1794 C1788 1.368 . S
C1794 C1793 1.523 . S
C1795 C1779 1.429 . S
C1795 C1791 1.429 . S
C1795 C1796 1.523 . S
C1796 C1780 1.368 . S
C1796 C1792 1.368 . S
C1796 C1795 1.523 . S
H1797 C1772 0.950 . S
H1798 C1774 0.950 . S
H1799 C1775 0.949 . S
H1800 C1777 0.950 . S
H1801 C1779 0.950 . S
C1802 C1803 1.349 . S
C1802 C1804 1.327 . S
C1802 H1827 0.950 . S
C1803 C1802 1.349 . S
C1803 C1819 1.349 . S
C1804 C1802 1.327 . S
C1804 C1823 1.429 . S
C1804 H1828 0.950 . S
C1805 C1822 1.574 . S
C1805 C1824 1.368 . S
C1805 H1829 0.949 . S
H1806 C1810 0.949 . S
C1807 C1808 1.349 . S
C1807 C1809 1.327 . S
C1807 H1830 0.950 . S
C1808 C1807 1.349 . S
C1808 C1820 1.349 . S
C1809 C1807 1.327 . S
C1809 C1825 1.429 . S
C1809 H1831 0.950 . S
C1810 H1806 0.949 . S
C1810 C1818 1.574 . S
C1810 C1826 1.368 . S
H1811 C1819 0.950 . S
H1812 C1817 0.950 . S
H1813 C1818 0.949 . S
H1814 C1820 0.950 . S
H1815 C1821 0.950 . S
H1816 C1822 0.949 . S
C1817 H1812 0.950 . S
C1817 C1819 1.327 . S
C1817 C1823 1.429 . S
C1818 C1810 1.574 . S
C1818 H1813 0.949 . S
C1818 C1824 1.368 . S
C1819 C1803 1.349 . S
C1819 H1811 0.950 . S
C1819 C1817 1.327 . S
C1820 C1808 1.349 . S
C1820 H1814 0.950 . S
C1820 C1821 1.327 . S
C1821 H1815 0.950 . S
C1821 C1820 1.327 . S
C1821 C1825 1.429 . S
C1822 C1805 1.574 . S
C1822 H1816 0.949 . S
C1822 C1826 1.368 . S
C1823 C1804 1.429 . S
C1823 C1817 1.429 . S
C1823 C1824 1.523 . S
C1824 C1805 1.368 . S
C1824 C1818 1.368 . S
C1824 C1823 1.523 . S
C1825 C1809 1.429 . S
C1825 C1821 1.429 . S
C1825 C1826 1.523 . S
C1826 C1810 1.368 . S
C1826 C1822 1.368 . S
C1826 C1825 1.523 . S
H1827 C1802 0.950 . S
H1828 C1804 0.950 . S
H1829 C1805 0.949 . S
H1830 C1807 0.950 . S
H1831 C1809 0.950 . S
C1832 C1833 1.349 . S
C1832 C1834 1.327 . S
C1832 H1857 0.950 . S
C1833 C1832 1.349 . S
C1833 C1849 1.349 . S
C1834 C1832 1.327 . S
C1834 C1853 1.429 . S
C1834 H1858 0.950 . S
C1835 C1852 1.574 1_556 S
C1835 C1854 1.368 . S
C1835 H1859 0.949 . S
H1836 C1840 0.949 . S
C1837 C1838 1.349 . S
C1837 C1839 1.327 . S
C1837 H1860 0.950 . S
C1838 C1837 1.349 . S
C1838 C1850 1.349 . S
C1839 C1837 1.327 . S
C1839 C1855 1.429 . S
C1839 H1861 0.950 . S
C1840 H1836 0.949 . S
C1840 C1848 1.574 1_554 S
C1840 C1856 1.368 . S
H1841 C1849 0.950 . S
H1842 C1847 0.950 . S
H1843 C1848 0.949 . S
H1844 C1850 0.950 . S
H1845 C1851 0.950 . S
H1846 C1852 0.949 . S
C1847 H1842 0.950 . S
C1847 C1849 1.327 . S
C1847 C1853 1.429 . S
C1848 C1840 1.574 1_556 S
C1848 H1843 0.949 . S
C1848 C1854 1.368 . S
C1849 C1833 1.349 . S
C1849 H1841 0.950 . S
C1849 C1847 1.327 . S
C1850 C1838 1.349 . S
C1850 H1844 0.950 . S
C1850 C1851 1.327 . S
C1851 H1845 0.950 . S
C1851 C1850 1.327 . S
C1851 C1855 1.429 . S
C1852 C1835 1.574 1_554 S
C1852 H1846 0.949 . S
C1852 C1856 1.368 . S
C1853 C1834 1.429 . S
C1853 C1847 1.429 . S
C1853 C1854 1.523 . S
C1854 C1835 1.368 . S
C1854 C1848 1.368 . S
C1854 C1853 1.523 . S
C1855 C1839 1.429 . S
C1855 C1851 1.429 . S
C1855 C1856 1.523 . S
C1856 C1840 1.368 . S
C1856 C1852 1.368 . S
C1856 C1855 1.523 . S
H1857 C1832 0.950 . S
H1858 C1834 0.950 . S
H1859 C1835 0.949 . S
H1860 C1837 0.950 . S
H1861 C1839 0.950 . S
C1862 C1863 1.349 . S
C1862 C1864 1.327 . S
C1862 H1887 0.950 . S
C1863 C1862 1.349 . S
C1863 C1879 1.349 . S
C1864 C1862 1.327 . S
C1864 C1883 1.429 . S
C1864 H1888 0.950 . S
C1865 C1882 1.574 1_556 S
C1865 C1884 1.368 . S
C1865 H1889 0.949 . S
H1866 C1870 0.949 . S
C1867 C1868 1.349 . S
C1867 C1869 1.327 . S
C1867 H1890 0.950 . S
C1868 C1867 1.349 . S
C1868 C1880 1.349 . S
C1869 C1867 1.327 . S
C1869 C1885 1.429 . S
C1869 H1891 0.950 . S
C1870 H1866 0.949 . S
C1870 C1878 1.574 . S
C1870 C1886 1.368 . S
H1871 C1879 0.950 . S
H1872 C1877 0.950 . S
H1873 C1878 0.949 . S
H1874 C1880 0.950 . S
H1875 C1881 0.950 . S
H1876 C1882 0.949 . S
C1877 H1872 0.950 . S
C1877 C1879 1.327 . S
C1877 C1883 1.429 . S
C1878 C1870 1.574 . S
C1878 H1873 0.949 . S
C1878 C1884 1.368 1_554 S
C1879 C1863 1.349 . S
C1879 H1871 0.950 . S
C1879 C1877 1.327 . S
C1880 C1868 1.349 . S
C1880 H1874 0.950 . S
C1880 C1881 1.327 . S
C1881 H1875 0.950 . S
C1881 C1880 1.327 . S
C1881 C1885 1.429 . S
C1882 C1865 1.574 1_554 S
C1882 H1876 0.949 . S
C1882 C1886 1.368 . S
C1883 C1864 1.429 . S
C1883 C1877 1.429 . S
C1883 C1884 1.523 . S
C1884 C1865 1.368 . S
C1884 C1878 1.368 1_556 S
C1884 C1883 1.523 . S
C1885 C1869 1.429 . S
C1885 C1881 1.429 . S
C1885 C1886 1.523 . S
C1886 C1870 1.368 . S
C1886 C1882 1.368 . S
C1886 C1885 1.523 . S
H1887 C1862 0.950 . S
H1888 C1864 0.950 . S
H1889 C1865 0.949 . S
H1890 C1867 0.950 . S
H1891 C1869 0.950 . S
C1892 C1893 1.349 . S
C1892 C1894 1.327 . S
C1892 H1917 0.950 . S
C1893 C1892 1.349 . S
C1893 C1909 1.349 . S
C1894 C1892 1.327 . S
C1894 C1913 1.429 . S
C1894 H1918 0.950 . S
C1895 C1912 1.574 . S
C1895 C1914 1.368 . S
C1895 H1919 0.949 . S
H1896 C1900 0.949 . S
C1897 C1898 1.349 . S
C1897 C1899 1.327 . S
C1897 H1920 0.950 . S
C1898 C1897 1.349 . S
C1898 C1910 1.349 . S
C1899 C1897 1.327 . S
C1899 C1915 1.429 . S
C1899 H1921 0.950 . S
C1900 H1896 0.949 . S
C1900 C1908 1.574 1_556 S
C1900 C1916 1.368 . S
H1901 C1909 0.950 . S
H1902 C1907 0.950 . S
H1903 C1908 0.949 . S
H1904 C1910 0.950 . S
H1905 C1911 0.950 . S
H1906 C1912 0.949 . S
C1907 H1902 0.950 . S
C1907 C1909 1.327 . S
C1907 C1913 1.429 . S
C1908 C1900 1.574 1_554 S
C1908 H1903 0.949 . S
C1908 C1914 1.368 . S
C1909 C1893 1.349 . S
C1909 H1901 0.950 . S
C1909 C1907 1.327 . S
C1910 C1898 1.349 . S
C1910 H1904 0.950 . S
C1910 C1911 1.327 . S
C1911 H1905 0.950 . S
C1911 C1910 1.327 . S
C1911 C1915 1.429 . S
C1912 C1895 1.574 . S
C1912 H1906 0.949 . S
C1912 C1916 1.368 1_554 S
C1913 C1894 1.429 . S
C1913 C1907 1.429 . S
C1913 C1914 1.523 . S
C1914 C1895 1.368 . S
C1914 C1908 1.368 . S
C1914 C1913 1.523 . S
C1915 C1899 1.429 . S
C1915 C1911 1.429 . S
C1915 C1916 1.523 . S
C1916 C1900 1.368 . S
C1916 C1912 1.368 1_556 S
C1916 C1915 1.523 . S
H1917 C1892 0.950 . S
H1918 C1894 0.950 . S
H1919 C1895 0.949 . S
H1920 C1897 0.950 . S
H1921 C1899 0.950 . S
C1922 C1923 1.349 . S
C1922 C1924 1.327 . S
C1922 H1947 0.950 . S
C1923 C1922 1.349 . S
C1923 C1939 1.349 . S
C1924 C1922 1.327 . S
C1924 C1943 1.429 . S
C1924 H1948 0.950 . S
C1925 C1942 1.574 1_554 S
C1925 C1944 1.368 . S
C1925 H1949 0.949 . S
H1926 C1930 0.943 1_556 S
C1927 C1928 1.349 . S
C1927 C1929 1.327 . S
C1927 H1950 0.950 . S
C1928 C1927 1.349 . S
C1928 C1940 1.349 . S
C1929 C1927 1.327 . S
C1929 C1945 1.429 . S
C1929 H1951 0.950 . S
C1930 H1926 0.943 1_554 S
C1930 C1938 1.606 . S
C1930 C1946 1.344 1_554 S
H1931 C1939 0.950 . S
H1932 C1937 0.950 . S
H1933 C1938 0.949 . S
H1934 C1940 0.950 . S
H1935 C1941 0.950 . S
H1936 C1942 0.949 . S
C1937 H1932 0.950 . S
C1937 C1939 1.327 . S
C1937 C1943 1.429 . S
C1938 C1930 1.606 . S
C1938 H1933 0.949 . S
C1938 C1944 1.368 . S
C1939 C1923 1.349 . S
C1939 H1931 0.950 . S
C1939 C1937 1.327 . S
C1940 C1928 1.349 . S
C1940 H1934 0.950 . S
C1940 C1941 1.327 . S
C1941 H1935 0.950 . S
C1941 C1940 1.327 . S
C1941 C1945 1.429 . S
C1942 C1925 1.574 1_556 S
C1942 H1936 0.949 . S
C1942 C1946 1.368 . S
C1943 C1924 1.429 . S
C1943 C1937 1.429 . S
C1943 C1944 1.523 . S
C1944 C1925 1.368 . S
C1944 C1938 1.368 . S
C1944 C1943 1.523 . S
C1945 C1929 1.429 . S
C1945 C1941 1.429 . S
C1945 C1946 1.523 . S
C1946 C1930 1.344 1_556 S
C1946 C1942 1.368 . S
C1946 C1945 1.523 . S
H1947 C1922 0.950 . S
H1948 C1924 0.950 . S
H1949 C1925 0.949 . S
H1950 C1927 0.950 . S
H1951 C1929 0.950 . S
C513 C4 1.605 . S
C518 C164 1.605 . S
C543 C221 1.605 . S
C548 C61 1.605 . S
C573 C68 1.605 . S
C578 C228 1.605 . S
C603 C125 1.605 . S
C608 C132 1.605 . S
C633 C445 1.605 . S
C638 C260 1.605 . S
C663 C477 1.605 . S
C668 C317 1.605 . S
C693 C349 1.605 . S
C698 C484 1.605 . S
C723 C381 1.605 . S
C728 C388 1.605 . S
C753 C2 1.869 . S
C758 N109 1.665 1_545 S
C783 C38 1.869 . S
C788 N18 1.665 . S
C813 C66 1.869 1_455 S
C818 N45 1.665 . S
C843 C102 1.869 1_545 S
C848 N82 1.665 1_455 S
C873 C130 1.869 1_655 S
C878 N178 1.665 1_565 S
C903 N205 1.665 . S
C908 C162 1.869 1_565 S
C933 C198 1.869 . S
C938 N242 1.665 . S
C963 N146 1.665 1_655 S
C968 C226 1.869 . S
C993 N365 1.665 1_565 S
C998 C258 1.869 . S
C1023 C294 1.869 . S
C1028 N274 1.665 . S
C1053 C326 1.869 1_655 S
C1058 N301 1.665 . S
C1083 C358 1.869 1_565 S
C1088 N333 1.665 1_655 S
C1113 C386 1.869 1_455 S
C1118 N429 1.665 1_545 S
C1143 C422 1.869 1_545 S
C1148 N461 1.665 . S
C1173 C454 1.869 . S
C1178 N498 1.665 . S
C1203 C482 1.869 . S
C1208 N402 1.665 1_455 S
C1233 C29 0.755 . S
C1238 C93 0.755 . S
C1263 C36 0.755 . S
C1268 C100 0.755 . S
C1293 C196 0.755 . S
C1298 C157 0.755 . S
C1323 C253 0.755 . S
C1328 C189 0.755 . S
C1353 C324 0.755 . S
C1358 C285 0.755 . S
C1383 C356 0.755 . S
C1388 C292 0.755 . S
C1413 C413 0.755 . S
C1418 C452 0.755 . S
C1443 C420 0.755 . S
C1448 C509 0.755 . S
C1473 N13 1.046 . S
C1478 C354 1.051 . S
C1503 C262 1.051 . S
C1508 N50 1.046 . S
C1533 N77 1.046 . S
C1538 C290 1.051 . S
C1563 C322 1.051 . S
C1568 N114 1.046 . S
C1593 C418 1.051 . S
C1598 N141 1.046 . S
C1623 N173 1.046 . S
C1628 C450 1.051 . S
C1653 C486 1.051 . S
C1658 N210 1.046 . S
C1683 N237 1.046 . S
C1688 C390 1.051 . S
C1713 N269 1.046 . S
C1718 C98 1.051 . S
C1743 N306 1.046 . S
C1748 C6 1.051 . S
C1773 C34 1.051 . S
C1778 N338 1.046 . S
C1803 N370 1.046 . S
C1808 C70 1.051 . S
C1833 N397 1.046 . S
C1838 C166 1.051 . S
C1863 N434 1.046 . S
C1868 C194 1.051 . S
C1893 C230 1.051 . S
C1898 N466 1.046 . S
C1923 C134 1.051 . S
C1928 N493 1.046 . S
