# Generated by pormake.
# Topology ilc, (8)-cn, num edge types: 1
# Building blocks:
#     Node 0, Type 0, BuildingBlock: LIZSOE_clean_sbu_0, # of connection points: 8
#     Node 1, Type 0, BuildingBlock: LIZSOE_clean_sbu_0, # of connection points: 8
#     Node 2, Type 0, BuildingBlock: LIZSOE_clean_sbu_0, # of connection points: 8
#     Edge 3, Type (0, 0), BuildingBlock: AJUNOK_clean_linker_0, # of connection points: 2
#     Edge 4, Type (0, 0), BuildingBlock: AJUNOK_clean_linker_0, # of connection points: 2
#     Edge 5, Type (0, 0), BuildingBlock: AJUNOK_clean_linker_0, # of connection points: 2
#     Edge 6, Type (0, 0), BuildingBlock: AJUNOK_clean_linker_0, # of connection points: 2
#     Edge 7, Type (0, 0), BuildingBlock: AJUNOK_clean_linker_0, # of connection points: 2
#     Edge 8, Type (0, 0), BuildingBlock: AJUNOK_clean_linker_0, # of connection points: 2
#     Edge 9, Type (0, 0), BuildingBlock: AJUNOK_clean_linker_0, # of connection points: 2
#     Edge 10, Type (0, 0), BuildingBlock: AJUNOK_clean_linker_0, # of connection points: 2
#     Edge 11, Type (0, 0), BuildingBlock: AJUNOK_clean_linker_0, # of connection points: 2
#     Edge 12, Type (0, 0), BuildingBlock: AJUNOK_clean_linker_0, # of connection points: 2
#     Edge 13, Type (0, 0), BuildingBlock: AJUNOK_clean_linker_0, # of connection points: 2
#     Edge 14, Type (0, 0), BuildingBlock: AJUNOK_clean_linker_0, # of connection points: 2
# Relax obj value: 0.600
# Max RMSD: 0.227
# Mean RMSD: 0.227
data_MOF--net-ilc--node1-LIZSOE_clean_sbu_0--edge1-AJUNOK_clean_linker_0
_symmetry_space_group_name_H-M    P1
_symmetry_Int_Tables_number       1
_symmetry_cell_setting            triclinic
loop_
_symmetry_equiv_pos_as_xyz
'x, y, z'
_cell_length_a     15.930039
_cell_length_b     15.430635
_cell_length_c     13.298355
_cell_angle_alpha  88.214939
_cell_angle_beta   93.538351
_cell_angle_gamma 122.04277
loop_
_atom_site_label
_atom_site_type_symbol
_atom_site_fract_x
_atom_site_fract_y
_atom_site_fract_z
_atom_type_partial_charge
Co0 Co 0.0654 0.1449 0.86122 0.0
N1 N 0.05432 0.14112 0.73242 0.0
C2 C 0.97807 0.12623 0.67631 0.0
N3 N 0.02027 1.00802 0.59571 0.0
C4 C 0.06914 0.06928 0.70283 0.0
C5 C 0.94349 0.04196 0.62015 0.0
Co6 Co 0.90533 0.9942 0.31828 0.0
N7 N 0.95692 0.98978 0.43858 0.0
N8 N 0.11857 0.9323 0.53283 0.0
C9 C 0.17813 0.08623 0.57316 0.0
C10 C 0.06564 0.1278 0.49331 0.0
C11 C 0.97977 0.87434 0.44233 0.0
Co12 Co 0.96046 0.05293 0.08714 0.0
C13 C 0.82336 0.03253 0.29532 0.0
H14 H 0.06283 0.19508 0.49946 0.0
O15 O 0.08615 0.13646 0.98351 0.0
O16 O 0.03781 0.97848 0.16824 0.0
O17 O 0.88553 0.91188 0.99262 0.0
O18 O 0.87536 0.10559 0.99492 0.0
O19 O 0.96221 0.14452 0.86427 0.0
O20 O 0.91992 0.88007 0.26668 0.0
O21 O 0.84261 0.99711 0.20699 0.0
O22 O 0.04176 0.10443 0.28992 0.0
O23 O 0.96507 0.99069 0.85973 0.0
O24 O 0.18896 0.17646 0.86686 0.0
O25 O 0.03275 0.19135 0.16852 0.0
O26 O 0.89513 0.09721 0.35337 0.0
C27 C 0.90187 0.90557 0.89715 0.0
C28 C 0.88562 0.7725 0.45902 0.0
H29 H 0.8399 0.74286 0.38848 0.0
H30 H 0.90187 0.71847 0.49717 0.0
H31 H 0.83795 0.78467 0.50627 0.0
C32 C 0.9992 0.89664 0.2291 0.0
C33 C 0.88886 0.13381 0.89959 0.0
H34 H 0.94736 0.17293 0.67569 0.0
H35 H 0.15832 1.00494 0.73657 0.0
H36 H 0.04389 0.92847 0.7651 0.0
H37 H 0.11315 1.01056 0.85344 0.0
C38 C 0.10156 1.0076 0.77105 0.0
C39 C 0.18265 0.17252 0.95668 0.0
C40 C 0.06607 0.19255 0.25852 0.0
H41 H 0.88465 0.02975 0.56974 0.0
H42 H 0.25239 0.14157 0.57232 0.0
Co43 Co 0.73143 0.42355 0.20083 0.0
N44 N 0.6911 0.38552 0.07897 0.0
C45 C 0.62382 0.446 1.02874 0.0
N46 N 0.5965 0.28922 0.8363 0.0
C47 C 0.69448 0.28709 1.00212 0.0
C48 C 0.54663 0.38968 0.8923 0.0
Co49 Co 0.60697 0.29755 0.60631 0.0
N50 N 0.64951 0.23653 0.71513 0.0
N51 N 0.68795 0.39724 0.91453 0.0
C52 C 0.64642 0.43915 0.76678 0.0
C53 C 0.61798 0.32674 0.67066 0.0
C54 C 0.69583 0.24077 0.84576 0.0
Co55 Co 0.65415 0.38595 0.40708 0.0
C56 C 0.46124 0.24943 0.56043 0.0
H57 H 0.62036 0.39105 0.70294 0.0
O58 O 0.77642 0.45952 0.31607 0.0
O59 O 0.75622 0.35212 0.49211 0.0
O60 O 0.58461 0.24033 0.32994 0.0
O61 O 0.56009 0.41822 0.30546 0.0
O62 O 0.67527 0.51036 0.19988 0.0
O63 O 0.63596 0.21475 0.52544 0.0
O64 O 0.53471 0.3322 0.51064 0.0
O65 O 0.76152 0.46308 0.61002 0.0
O66 O 0.59954 0.30858 0.1876 0.0
O67 O 0.77357 0.33715 0.22039 0.0
O68 O 0.71779 0.52623 0.49031 0.0
O69 O 0.48038 0.17866 0.57931 0.0
C70 C 0.56205 0.22695 0.23351 0.0
C71 C 0.6462 0.12961 0.88248 0.0
H72 H 0.61593 0.07536 0.81868 0.0
H73 H 0.69003 0.111 0.93648 0.0
H74 H 0.57936 0.11216 0.91449 0.0
C75 C 0.72762 0.26378 0.52965 0.0
C76 C 0.58423 0.47075 0.22124 0.0
H77 H 0.57885 0.43681 0.96353 0.0
H78 H 0.82129 0.26246 0.96714 0.0
H79 H 0.78639 0.24364 0.09262 0.0
H80 H 0.84822 0.36753 1.03151 0.0
C81 C 0.79092 0.28727 1.0235 0.0
C82 C 0.81443 0.43246 0.24301 0.0
C83 C 0.76143 0.54152 0.57916 0.0
H84 H 0.49168 0.40276 0.84853 0.0
H85 H 0.63956 0.5088 0.76107 0.0
Co86 Co 0.35436 0.67416 0.51912 0.0
N87 N 0.32177 0.57804 0.40508 0.0
C88 C 0.26301 0.59933 0.34628 0.0
N89 N 0.41432 0.71999 0.33018 0.0
C90 C 0.40639 0.63365 0.3596 0.0
C91 C 0.32116 0.69609 0.3107 0.0
Co92 Co 0.28756 0.67221 0.91362 0.0
N93 N 0.42232 0.73391 0.96467 0.0
N94 N 0.5572 0.76349 1.05785 0.0
C95 C 0.58711 0.82064 0.97383 0.0
C96 C 0.50538 0.80067 0.91613 0.0
C97 C 0.45665 0.71121 1.04772 0.0
Co98 Co 0.28725 0.69148 0.7392 0.0
C99 C 0.15466 0.60478 0.96255 0.0
H100 H 0.50824 0.83195 0.84185 0.0
O101 O 0.40061 0.77308 0.62422 0.0
O102 O 0.37883 0.63113 0.81023 0.0
O103 O 0.20207 0.54809 0.65643 0.0
O104 O 0.20189 0.7326 0.632 0.0
O105 O 0.21909 0.6561 0.50115 0.0
O106 O 0.26743 0.53424 0.90319 0.0
O107 O 0.1662 0.62251 0.86066 0.0
O108 O 0.29099 0.78851 0.95925 0.0
O109 O 0.32927 0.56392 0.60204 0.0
O110 O 0.47221 0.70469 0.54513 0.0
O111 O 0.36903 0.84388 0.82611 0.0
O112 O 0.23032 0.62783 1.02101 0.0
C113 C 0.23866 0.50673 0.6058 0.0
C114 C 0.38817 0.63382 0.11697 0.0
H115 H 0.32557 0.56561 0.08079 0.0
H116 H 0.42532 0.60737 0.1657 0.0
H117 H 0.35457 0.66918 0.15074 0.0
C118 C 0.34727 0.55378 0.87342 0.0
C119 C 0.17971 0.70244 0.5348 0.0
H120 H 0.18355 0.55038 0.33394 0.0
H121 H 0.46585 0.55301 0.40533 0.0
H122 H 0.68697 0.76245 0.34672 0.0
H123 H 0.46083 0.54882 0.28607 0.0
C124 C 0.49065 0.61104 0.34227 0.0
C125 C 0.48407 0.78462 0.58663 0.0
C126 C 0.35286 0.86477 0.91743 0.0
H127 H 0.2979 0.7324 0.25566 0.0
H128 H 0.66306 0.87934 0.95959 0.0
C129 C 0.01227 0.94918 0.58414 0.0
C130 C 0.10045 1.02694 0.43532 0.0
C131 C 0.08788 0.89613 0.59135 0.0
C132 C 0.18743 0.91949 0.5329 0.0
H133 H 0.96491 0.85973 0.61773 0.0
H134 H 0.07241 0.83627 0.65719 0.0
S135 S 0.35699 0.12379 0.36037 0.0
N136 N 0.25075 0.11657 0.33428 0.0
N137 N 0.33746 0.0347 0.4449 0.0
C138 C 0.24016 0.99412 0.45747 0.0
C139 C 0.19375 0.04058 0.39801 0.0
C140 C 0.48657 0.19665 0.93753 0.0
C141 C 0.56444 0.28667 0.98509 0.0
C142 C 0.56213 0.25276 0.83295 0.0
C143 C 0.74163 0.38273 0.78582 0.0
H144 H 0.52002 0.24529 1.00236 0.0
H145 H 0.49776 0.15616 0.79106 0.0
S146 S 0.90389 0.53358 0.86272 0.0
N147 N 0.83213 0.52044 0.95503 0.0
N148 N 0.83881 0.44118 0.76603 0.0
C149 C 0.82978 0.4757 0.84948 0.0
C150 C 0.72838 0.43102 0.91955 0.0
C151 C 0.60235 0.89013 0.17515 0.0
C152 C 0.60769 0.80507 0.15163 0.0
C153 C 0.52483 0.86973 0.23613 0.0
C154 C 0.50802 0.80684 0.31973 0.0
H155 H 0.6311 0.95283 0.1235 0.0
H156 H 0.4762 0.89664 0.21617 0.0
S157 S 0.64016 0.62599 0.40641 0.0
N158 N 0.62602 0.65711 0.25372 0.0
N159 N 0.6001 0.73058 0.44623 0.0
C160 C 0.58115 0.78653 0.34434 0.0
C161 C 0.5963 0.74213 0.23443 0.0
C162 C 0.02544 0.68937 0.41395 0.0
C163 C 0.12784 0.73599 0.44522 0.0
C164 C 0.98829 0.72868 0.33083 0.0
C165 C 0.04584 0.82604 0.27836 0.0
H166 H 0.97218 0.62104 0.45296 0.0
H167 H 0.90969 0.68324 0.31307 0.0
S168 S 0.31124 0.90876 0.26527 0.0
N169 N 0.28198 0.84027 0.36823 0.0
N170 N 0.21188 0.90818 0.22314 0.0
C171 C 0.1456 0.84848 0.2892 0.0
C172 C 0.18443 0.80534 0.36858 0.0
C173 C 0.23893 0.38016 0.47884 0.0
C174 C 0.18616 0.42108 0.52101 0.0
C175 C 0.20641 0.31877 0.38838 0.0
C176 C 0.1139 0.28548 0.33483 0.0
H177 H 0.31012 0.40032 0.51357 0.0
H178 H 0.25211 0.29174 0.36393 0.0
S179 S 0.94432 0.36703 0.40926 0.0
N180 N 0.0406 0.43003 0.48921 0.0
N181 N 0.96862 0.29753 0.33911 0.0
C182 C 0.05999 0.32458 0.37676 0.0
C183 C 0.09715 0.39364 0.4646 0.0
C184 C 0.67808 0.89898 0.54778 0.0
C185 C 0.5822 0.88649 0.54504 0.0
C186 C 0.74133 0.93171 0.46276 0.0
C187 C 0.73416 0.98276 0.37443 0.0
H188 H 0.70143 0.86995 0.60874 0.0
H189 H 0.79102 0.90525 0.46448 0.0
S190 S 0.54069 0.04862 0.37071 0.0
N191 N 0.50526 0.9675 0.46364 0.0
N192 N 0.64702 0.0709 0.33152 0.0
C193 C 0.66012 1.00783 0.39304 0.0
C194 C 0.58143 0.95301 0.46983 0.0
C195 C 0.73404 0.12908 0.65288 0.0
C196 C 0.78286 0.2314 0.6143 0.0
C197 C 0.76458 0.09733 0.74441 0.0
C198 C 0.83774 0.16754 0.81628 0.0
H199 H 0.66536 0.07333 0.61619 0.0
H200 H 0.72521 1.01657 0.76229 0.0
S201 S 0.01744 0.43466 0.74161 0.0
N202 N 0.93389 0.39461 0.64654 0.0
N203 N 0.97847 0.34075 0.82326 0.0
C204 C 0.89279 0.2684 0.77536 0.0
C205 C 0.86842 0.29827 0.676 0.0
C206 C 0.88603 0.68311 0.71918 0.0
C207 C 0.79756 0.63837 0.6552 0.0
C208 C 0.91162 0.75654 0.80074 0.0
C209 C 0.85766 0.80446 0.82245 0.0
H210 H 0.9387 0.66158 0.70515 0.0
H211 H 0.98043 0.78115 0.84362 0.0
S212 S 0.60685 0.69978 0.69616 0.0
N213 N 0.64583 0.63636 0.63838 0.0
N214 N 0.70118 0.78669 0.76822 0.0
C215 C 0.77009 0.76276 0.75511 0.0
C216 C 0.73958 0.68007 0.67869 0.0
C217 C 0.37591 0.32195 0.68964 0.0
C218 C 0.40002 0.25002 0.65611 0.0
C219 C 0.31248 0.30467 0.77534 0.0
C220 C 0.25926 0.20726 0.84388 0.0
H221 H 0.40635 0.39374 0.64981 0.0
H222 H 0.29878 0.36459 0.78937 0.0
S223 S 0.31007 1.0003 0.78734 0.0
N224 N 0.35136 0.07474 0.69023 0.0
N225 N 0.28732 0.06522 0.86465 0.0
C226 C 0.30984 0.15132 0.81473 0.0
C227 C 0.35523 0.161 0.71902 0.0
C228 C 0.41034 0.41984 0.11056 0.0
C229 C 0.51347 0.48825 0.13856 0.0
C230 C 0.35975 0.4355 1.02186 0.0
C231 C 0.40753 0.51715 0.94855 0.0
H232 H 0.36743 0.35371 0.1575 0.0
H233 H 0.28009 0.38479 1.01326 0.0
S234 S 0.68141 0.68783 0.96311 0.0
N235 N 0.65983 0.63385 0.07277 0.0
N236 N 0.57256 0.63988 0.90208 0.0
C237 C 0.51101 0.57402 0.9697 0.0
C238 C 0.55976 0.56855 1.06536 0.0
C239 C 0.50156 0.99747 1.04344 0.0
C240 C 0.40724 0.96134 0.99403 0.0
C241 C 0.54909 0.07773 0.12063 0.0
C242 C 0.50282 0.12467 0.16479 0.0
H243 H 0.54355 0.96962 1.01305 0.0
H244 H 0.62553 0.10571 0.14321 0.0
S245 S 0.24702 0.05133 0.07784 0.0
N246 N 0.25922 0.96387 1.02313 0.0
N247 N 0.35359 0.12913 0.13873 0.0
C248 C 0.40613 0.08641 0.11843 0.0
C249 C 0.3565 0.99996 1.04512 0.0
C250 C 0.03801 0.48265 0.09167 0.0
C251 C 0.06416 0.5673 1.0282 0.0
C252 C 0.96959 0.45193 0.169 0.0
C253 C 0.9171 0.49998 0.19105 0.0
H254 H 0.06924 0.43642 0.07972 0.0
H255 H 0.94492 0.37767 0.19848 0.0
S256 S 0.96722 0.73693 1.05444 0.0
N257 N 0.04911 0.71538 1.01002 0.0
N258 N 0.90274 0.64356 0.13462 0.0
C259 C 0.94836 0.59047 0.13253 0.0
C260 C 0.02613 0.62741 1.05853 0.0
loop_
_geom_bond_atom_site_label_1
_geom_bond_atom_site_label_2
_geom_bond_distance
_geom_bond_site_symmetry_2
_ccdc_geom_bond_type
Co0 N1 2.034 1_455 S
Co0 O15 2.262 . S
Co0 O19 1.958 1_455 S
Co0 O23 1.950 1_445 S
Co0 O24 2.057 . S
N1 Co0 2.034 1_655 S
N1 C2 1.366 . S
N1 C4 1.332 1_645 S
C2 N1 1.366 . S
C2 C5 1.377 . S
C2 H34 0.931 . S
N3 C4 1.346 1_655 S
N3 C5 1.337 1_565 S
C4 N1 1.332 1_465 S
C4 N3 1.346 1_455 S
C4 C38 1.361 . S
C5 C2 1.377 . S
C5 N3 1.337 1_545 S
C5 H41 0.930 . S
Co6 N7 2.034 1_655 S
Co6 O20 1.950 1_645 S
Co6 O21 2.262 1_545 S
Co6 O22 1.958 1_655 S
Co6 O26 2.057 1_545 S
N7 Co6 2.034 1_455 S
N7 C10 1.366 . S
N7 C11 1.332 1_445 S
N8 C9 1.337 1_565 S
N8 C11 1.346 1_455 S
C9 N8 1.337 1_545 S
C9 C10 1.377 . S
C9 H42 0.930 . S
C10 N7 1.366 . S
C10 C9 1.377 . S
C10 H14 0.931 . S
C11 N7 1.332 1_665 S
C11 N8 1.346 1_655 S
C11 C28 1.361 . S
Co12 O15 2.097 1_554 S
Co12 O16 2.065 1_545 S
Co12 O17 2.065 1_444 S
Co12 O18 2.042 1_454 S
Co12 O21 2.097 1_445 S
Co12 O25 2.042 . S
C13 O21 1.253 . S
C13 O26 1.263 . S
H14 C10 0.931 . S
O15 Co0 2.262 . S
O15 Co12 2.097 1_556 S
O15 C39 1.253 . S
O16 Co12 2.065 1_565 S
O16 C32 1.221 . S
O17 Co12 2.065 1_666 S
O17 C27 1.221 . S
O18 Co12 2.042 1_656 S
O18 C33 1.237 . S
O19 Co0 1.958 1_655 S
O19 C33 1.278 . S
O20 Co6 1.950 1_465 S
O20 C32 1.277 . S
O21 Co6 2.262 1_565 S
O21 Co12 2.097 1_665 S
O21 C13 1.253 . S
O22 Co6 1.958 1_455 S
O22 C40 1.278 . S
O23 Co0 1.950 1_665 S
O23 C27 1.277 . S
O24 Co0 2.057 . S
O24 C39 1.263 . S
O25 Co12 2.042 . S
O25 C40 1.237 . S
O26 Co6 2.057 1_565 S
O26 C13 1.263 . S
C27 O17 1.221 . S
C27 O23 1.277 . S
C28 C11 1.361 . S
C28 H29 0.960 . S
C28 H30 0.961 . S
C28 H31 0.961 . S
H29 C28 0.960 . S
H30 C28 0.961 . S
H31 C28 0.961 . S
C32 O16 1.221 . S
C32 O20 1.277 . S
C33 O18 1.237 . S
C33 O19 1.278 . S
H34 C2 0.931 . S
H35 C38 0.961 . S
H36 C38 0.961 . S
H37 C38 0.960 . S
C38 C4 1.361 . S
C38 H35 0.961 . S
C38 H36 0.961 . S
C38 H37 0.960 . S
C39 O15 1.253 . S
C39 O24 1.263 . S
C40 O22 1.278 . S
C40 O25 1.237 . S
H41 C5 0.930 . S
H42 C9 0.930 . S
Co43 N44 2.034 1_554 S
Co43 O58 2.262 . S
Co43 O62 1.958 . S
Co43 O66 1.950 . S
Co43 O67 2.057 . S
N44 Co43 2.034 1_556 S
N44 C45 1.366 . S
N44 C47 1.332 . S
C45 N44 1.366 . S
C45 C48 1.377 . S
C45 H77 0.931 . S
N46 C47 1.346 . S
N46 C48 1.337 . S
C47 N44 1.332 . S
C47 N46 1.346 . S
C47 C81 1.361 . S
C48 C45 1.377 . S
C48 N46 1.337 . S
C48 H84 0.930 . S
Co49 N50 2.034 . S
Co49 O63 1.950 . S
Co49 O64 2.262 . S
Co49 O65 1.958 . S
Co49 O69 2.057 . S
N50 Co49 2.034 . S
N50 C53 1.366 . S
N50 C54 1.332 . S
N51 C52 1.337 . S
N51 C54 1.346 . S
C52 N51 1.337 . S
C52 C53 1.377 . S
C52 H85 0.930 . S
C53 N50 1.366 . S
C53 C52 1.377 . S
C53 H57 0.931 . S
C54 N50 1.332 . S
C54 N51 1.346 . S
C54 C71 1.361 . S
Co55 O58 2.097 . S
Co55 O59 2.065 . S
Co55 O60 2.065 . S
Co55 O61 2.042 . S
Co55 O64 2.097 . S
Co55 O68 2.042 . S
C56 O64 1.253 . S
C56 O69 1.263 . S
H57 C53 0.931 . S
O58 Co43 2.262 . S
O58 Co55 2.097 . S
O58 C82 1.253 . S
O59 Co55 2.065 . S
O59 C75 1.221 . S
O60 Co55 2.065 . S
O60 C70 1.221 . S
O61 Co55 2.042 . S
O61 C76 1.237 . S
O62 Co43 1.958 . S
O62 C76 1.278 . S
O63 Co49 1.950 . S
O63 C75 1.277 . S
O64 Co49 2.262 . S
O64 Co55 2.097 . S
O64 C56 1.253 . S
O65 Co49 1.958 . S
O65 C83 1.278 . S
O66 Co43 1.950 . S
O66 C70 1.277 . S
O67 Co43 2.057 . S
O67 C82 1.263 . S
O68 Co55 2.042 . S
O68 C83 1.237 . S
O69 Co49 2.057 . S
O69 C56 1.263 . S
C70 O60 1.221 . S
C70 O66 1.277 . S
C71 C54 1.361 . S
C71 H72 0.960 . S
C71 H73 0.961 . S
C71 H74 0.961 . S
H72 C71 0.960 . S
H73 C71 0.961 . S
H74 C71 0.961 . S
C75 O59 1.221 . S
C75 O63 1.277 . S
C76 O61 1.237 . S
C76 O62 1.278 . S
H77 C45 0.931 . S
H78 C81 0.961 . S
H79 C81 0.961 . S
H80 C81 0.960 . S
C81 C47 1.361 . S
C81 H78 0.961 . S
C81 H79 0.961 . S
C81 H80 0.960 . S
C82 O58 1.253 . S
C82 O67 1.263 . S
C83 O65 1.278 . S
C83 O68 1.237 . S
H84 C48 0.930 . S
H85 C52 0.930 . S
Co86 N87 2.034 . S
Co86 O101 2.262 . S
Co86 O105 1.958 . S
Co86 O109 1.950 . S
Co86 O110 2.057 . S
N87 Co86 2.034 . S
N87 C88 1.366 . S
N87 C90 1.332 . S
C88 N87 1.366 . S
C88 C91 1.377 . S
C88 H120 0.931 . S
N89 C90 1.346 . S
N89 C91 1.337 . S
C90 N87 1.332 . S
C90 N89 1.346 . S
C90 C124 1.361 . S
C91 C88 1.377 . S
C91 N89 1.337 . S
C91 H127 0.930 . S
Co92 N93 2.034 1_556 S
Co92 O106 1.950 . S
Co92 O107 2.262 . S
Co92 O108 1.958 . S
Co92 O112 2.057 . S
N93 Co92 2.034 1_554 S
N93 C96 1.366 . S
N93 C97 1.332 . S
N94 C95 1.337 . S
N94 C97 1.346 . S
C95 N94 1.337 . S
C95 C96 1.377 . S
C95 H128 0.930 . S
C96 N93 1.366 . S
C96 C95 1.377 . S
C96 H100 0.931 . S
C97 N93 1.332 . S
C97 N94 1.346 . S
C97 C114 1.361 . S
Co98 O101 2.097 . S
Co98 O102 2.065 . S
Co98 O103 2.065 . S
Co98 O104 2.042 . S
Co98 O107 2.097 . S
Co98 O111 2.042 . S
C99 O107 1.253 . S
C99 O112 1.263 . S
H100 C96 0.931 . S
O101 Co86 2.262 . S
O101 Co98 2.097 . S
O101 C125 1.253 . S
O102 Co98 2.065 . S
O102 C118 1.221 . S
O103 Co98 2.065 . S
O103 C113 1.221 . S
O104 Co98 2.042 . S
O104 C119 1.237 . S
O105 Co86 1.958 . S
O105 C119 1.278 . S
O106 Co92 1.950 . S
O106 C118 1.277 . S
O107 Co92 2.262 . S
O107 Co98 2.097 . S
O107 C99 1.253 . S
O108 Co92 1.958 . S
O108 C126 1.278 . S
O109 Co86 1.950 . S
O109 C113 1.277 . S
O110 Co86 2.057 . S
O110 C125 1.263 . S
O111 Co98 2.042 . S
O111 C126 1.237 . S
O112 Co92 2.057 . S
O112 C99 1.263 . S
C113 O103 1.221 . S
C113 O109 1.277 . S
C114 C97 1.361 . S
C114 H115 0.960 . S
C114 H116 0.961 . S
C114 H117 0.961 . S
H115 C114 0.960 . S
H116 C114 0.961 . S
H117 C114 0.961 . S
C118 O102 1.221 . S
C118 O106 1.277 . S
C119 O104 1.237 . S
C119 O105 1.278 . S
H120 C88 0.931 . S
H121 C124 0.961 . S
H122 C124 0.961 . S
H123 C124 0.960 . S
C124 C90 1.361 . S
C124 H121 0.961 . S
C124 H122 0.961 . S
C124 H123 0.960 . S
C125 O101 1.253 . S
C125 O110 1.263 . S
C126 O108 1.278 . S
C126 O111 1.237 . S
H127 C91 0.930 . S
H128 C95 0.930 . S
C129 C130 1.369 1_645 S
C129 C131 1.419 . S
C129 H133 0.930 . S
C130 C129 1.369 1_465 S
C130 C139 1.429 . S
C131 C129 1.419 . S
C131 C132 1.363 1_545 S
C131 H134 0.929 . S
C132 C131 1.363 1_565 S
C132 C138 1.428 1_655 S
H133 C129 0.930 . S
H134 C131 0.929 . S
S135 N136 1.613 . S
S135 N137 1.610 . S
N136 S135 1.613 . S
N136 C139 1.350 . S
N137 S135 1.610 . S
N137 C138 1.351 . S
C138 C132 1.428 1_455 S
C138 N137 1.351 . S
C138 C139 1.434 . S
C139 C130 1.429 . S
C139 N136 1.350 . S
C139 C138 1.434 . S
C140 C141 1.369 . S
C140 C142 1.419 . S
C140 H144 0.930 . S
C141 C140 1.369 . S
C141 C150 1.429 . S
C142 C140 1.419 . S
C142 C143 1.363 . S
C142 H145 0.929 . S
C143 C142 1.363 . S
C143 C149 1.428 . S
H144 C140 0.930 . S
H145 C142 0.929 . S
S146 N147 1.613 . S
S146 N148 1.610 . S
N147 S146 1.613 . S
N147 C150 1.350 . S
N148 S146 1.610 . S
N148 C149 1.351 . S
C149 C143 1.428 . S
C149 N148 1.351 . S
C149 C150 1.434 . S
C150 C141 1.429 . S
C150 N147 1.350 . S
C150 C149 1.434 . S
C151 C152 1.369 . S
C151 C153 1.419 . S
C151 H155 0.930 . S
C152 C151 1.369 . S
C152 C161 1.429 . S
C153 C151 1.419 . S
C153 C154 1.363 . S
C153 H156 0.929 . S
C154 C153 1.363 . S
C154 C160 1.428 . S
H155 C151 0.930 . S
H156 C153 0.929 . S
S157 N158 1.613 . S
S157 N159 1.610 . S
N158 S157 1.613 . S
N158 C161 1.350 . S
N159 S157 1.610 . S
N159 C160 1.351 . S
C160 C154 1.428 . S
C160 N159 1.351 . S
C160 C161 1.434 . S
C161 C152 1.429 . S
C161 N158 1.350 . S
C161 C160 1.434 . S
C162 C163 1.369 . S
C162 C164 1.419 . S
C162 H166 0.930 . S
C163 C162 1.369 . S
C163 C172 1.429 . S
C164 C162 1.419 . S
C164 C165 1.363 . S
C164 H167 0.929 . S
C165 C164 1.363 . S
C165 C171 1.428 . S
H166 C162 0.930 . S
H167 C164 0.929 . S
S168 N169 1.613 1_545 S
S168 N170 1.610 1_545 S
N169 S168 1.613 1_565 S
N169 C172 1.350 . S
N170 S168 1.610 1_565 S
N170 C171 1.351 . S
C171 C165 1.428 . S
C171 N170 1.351 . S
C171 C172 1.434 . S
C172 C163 1.429 . S
C172 N169 1.350 . S
C172 C171 1.434 . S
C173 C174 1.369 . S
C173 C175 1.419 . S
C173 H177 0.930 . S
C174 C173 1.369 . S
C174 C183 1.429 . S
C175 C173 1.419 . S
C175 C176 1.363 . S
C175 H178 0.929 . S
C176 C175 1.363 . S
C176 C182 1.428 . S
H177 C173 0.930 . S
H178 C175 0.929 . S
S179 N180 1.613 . S
S179 N181 1.610 . S
N180 S179 1.613 . S
N180 C183 1.350 . S
N181 S179 1.610 . S
N181 C182 1.351 . S
C182 C176 1.428 . S
C182 N181 1.351 . S
C182 C183 1.434 . S
C183 C174 1.429 . S
C183 N180 1.350 . S
C183 C182 1.434 . S
C184 C185 1.369 . S
C184 C186 1.419 . S
C184 H188 0.930 . S
C185 C184 1.369 . S
C185 C194 1.429 . S
C186 C184 1.419 . S
C186 C187 1.363 . S
C186 H189 0.929 . S
C187 C186 1.363 . S
C187 C193 1.428 . S
H188 C184 0.930 . S
H189 C186 0.929 . S
S190 N191 1.613 . S
S190 N192 1.610 . S
N191 S190 1.613 . S
N191 C194 1.350 . S
N192 S190 1.610 . S
N192 C193 1.351 . S
C193 C187 1.428 . S
C193 N192 1.351 . S
C193 C194 1.434 . S
C194 C185 1.429 . S
C194 N191 1.350 . S
C194 C193 1.434 . S
C195 C196 1.369 . S
C195 C197 1.419 . S
C195 H199 0.930 . S
C196 C195 1.369 . S
C196 C205 1.429 . S
C197 C195 1.419 . S
C197 C198 1.363 . S
C197 H200 0.929 . S
C198 C197 1.363 . S
C198 C204 1.428 . S
H199 C195 0.930 . S
H200 C197 0.929 . S
S201 N202 1.613 . S
S201 N203 1.610 . S
N202 S201 1.613 . S
N202 C205 1.350 . S
N203 S201 1.610 . S
N203 C204 1.351 . S
C204 C198 1.428 . S
C204 N203 1.351 . S
C204 C205 1.434 . S
C205 C196 1.429 . S
C205 N202 1.350 . S
C205 C204 1.434 . S
C206 C207 1.369 . S
C206 C208 1.419 . S
C206 H210 0.930 . S
C207 C206 1.369 . S
C207 C216 1.429 . S
C208 C206 1.419 . S
C208 C209 1.363 . S
C208 H211 0.929 . S
C209 C208 1.363 . S
C209 C215 1.428 . S
H210 C206 0.930 . S
H211 C208 0.929 . S
S212 N213 1.613 . S
S212 N214 1.610 . S
N213 S212 1.613 . S
N213 C216 1.350 . S
N214 S212 1.610 . S
N214 C215 1.351 . S
C215 C209 1.428 . S
C215 N214 1.351 . S
C215 C216 1.434 . S
C216 C207 1.429 . S
C216 N213 1.350 . S
C216 C215 1.434 . S
C217 C218 1.369 . S
C217 C219 1.419 . S
C217 H221 0.930 . S
C218 C217 1.369 . S
C218 C227 1.429 . S
C219 C217 1.419 . S
C219 C220 1.363 . S
C219 H222 0.929 . S
C220 C219 1.363 . S
C220 C226 1.428 . S
H221 C217 0.930 . S
H222 C219 0.929 . S
S223 N224 1.613 1_565 S
S223 N225 1.610 1_565 S
N224 S223 1.613 1_545 S
N224 C227 1.350 . S
N225 S223 1.610 1_545 S
N225 C226 1.351 . S
C226 C220 1.428 . S
C226 N225 1.351 . S
C226 C227 1.434 . S
C227 C218 1.429 . S
C227 N224 1.350 . S
C227 C226 1.434 . S
C228 C229 1.369 . S
C228 C230 1.419 1_554 S
C228 H232 0.930 . S
C229 C228 1.369 . S
C229 C238 1.429 . S
C230 C228 1.419 1_556 S
C230 C231 1.363 . S
C230 H233 0.929 . S
C231 C230 1.363 . S
C231 C237 1.428 . S
H232 C228 0.930 . S
H233 C230 0.929 . S
S234 N235 1.613 1_556 S
S234 N236 1.610 . S
N235 S234 1.613 1_554 S
N235 C238 1.350 . S
N236 S234 1.610 . S
N236 C237 1.351 . S
C237 C231 1.428 . S
C237 N236 1.351 . S
C237 C238 1.434 1_556 S
C238 C229 1.429 . S
C238 N235 1.350 . S
C238 C237 1.434 1_554 S
C239 C240 1.369 1_545 S
C239 C241 1.419 1_556 S
C239 H243 0.930 . S
C240 C239 1.369 1_565 S
C240 C249 1.429 . S
C241 C239 1.419 1_554 S
C241 C242 1.363 . S
C241 H244 0.929 . S
C242 C241 1.363 . S
C242 C248 1.428 . S
H243 C239 0.930 . S
H244 C241 0.929 . S
S245 N246 1.613 1_554 S
S245 N247 1.610 . S
N246 S245 1.613 1_556 S
N246 C249 1.350 . S
N247 S245 1.610 . S
N247 C248 1.351 1_565 S
C248 C242 1.428 . S
C248 N247 1.351 1_545 S
C248 C249 1.434 1_544 S
C249 C240 1.429 . S
C249 N246 1.350 . S
C249 C248 1.434 1_566 S
C250 C251 1.369 . S
C250 C252 1.419 1_556 S
C250 H254 0.930 . S
C251 C250 1.369 . S
C251 C260 1.429 1_455 S
C252 C250 1.419 1_554 S
C252 C253 1.363 1_455 S
C252 H255 0.929 . S
C253 C252 1.363 1_655 S
C253 C259 1.428 . S
H254 C250 0.930 . S
H255 C252 0.929 . S
S256 N257 1.613 . S
S256 N258 1.610 . S
N257 S256 1.613 . S
N257 C260 1.350 . S
N258 S256 1.610 . S
N258 C259 1.351 1_556 S
C259 C253 1.428 . S
C259 N258 1.351 1_554 S
C259 C260 1.434 1_554 S
C260 C251 1.429 1_655 S
C260 N257 1.350 . S
C260 C259 1.434 1_556 S
C130 N3 1.317 1_455 S
C132 N8 1.316 1_655 S
C141 N51 1.312 . S
C143 N46 1.315 . S
C152 N94 1.316 . S
C154 N89 1.317 . S
C163 C119 2.285 . S
C165 C32 2.288 . S
C174 C113 2.286 . S
C176 C40 2.285 . S
C185 C125 2.119 . S
C187 C13 2.130 . S
C196 C75 2.287 . S
C198 C33 2.287 . S
C207 C83 2.281 . S
C209 C27 2.294 . S
C218 C56 2.126 . S
C220 C39 2.125 . S
C229 C76 2.281 . S
C231 C118 2.292 . S
C240 C126 2.284 . S
C242 C70 2.290 . S
C251 C99 2.131 . S
C253 C82 2.121 . S
