# Generated by pormake.
# Topology unw, (4)-cn, num edge types: 1
# Building blocks:
#     Node 0, Type 0, BuildingBlock: QUQFOY_clean_sbu_3, # of connection points: 4
#     Node 1, Type 0, BuildingBlock: QUQFOY_clean_sbu_3, # of connection points: 4
#     Node 2, Type 0, BuildingBlock: QUQFOY_clean_sbu_3, # of connection points: 4
#     Node 3, Type 0, BuildingBlock: QUQFOY_clean_sbu_3, # of connection points: 4
#     Node 4, Type 0, BuildingBlock: QUQFOY_clean_sbu_3, # of connection points: 4
#     Node 5, Type 0, BuildingBlock: QUQFOY_clean_sbu_3, # of connection points: 4
#     Node 6, Type 0, BuildingBlock: QUQFOY_clean_sbu_3, # of connection points: 4
#     Node 7, Type 0, BuildingBlock: QUQFOY_clean_sbu_3, # of connection points: 4
#     Node 8, Type 0, BuildingBlock: QUQFOY_clean_sbu_3, # of connection points: 4
#     Node 9, Type 0, BuildingBlock: QUQFOY_clean_sbu_3, # of connection points: 4
#     Node 10, Type 0, BuildingBlock: QUQFOY_clean_sbu_3, # of connection points: 4
#     Node 11, Type 0, BuildingBlock: QUQFOY_clean_sbu_3, # of connection points: 4
#     Node 12, Type 0, BuildingBlock: QUQFOY_clean_sbu_3, # of connection points: 4
#     Node 13, Type 0, BuildingBlock: QUQFOY_clean_sbu_3, # of connection points: 4
#     Node 14, Type 0, BuildingBlock: QUQFOY_clean_sbu_3, # of connection points: 4
#     Node 15, Type 0, BuildingBlock: QUQFOY_clean_sbu_3, # of connection points: 4
#     Node 16, Type 0, BuildingBlock: QUQFOY_clean_sbu_3, # of connection points: 4
#     Node 17, Type 0, BuildingBlock: QUQFOY_clean_sbu_3, # of connection points: 4
#     Node 18, Type 0, BuildingBlock: QUQFOY_clean_sbu_3, # of connection points: 4
#     Node 19, Type 0, BuildingBlock: QUQFOY_clean_sbu_3, # of connection points: 4
#     Node 20, Type 0, BuildingBlock: QUQFOY_clean_sbu_3, # of connection points: 4
#     Node 21, Type 0, BuildingBlock: QUQFOY_clean_sbu_3, # of connection points: 4
#     Node 22, Type 0, BuildingBlock: QUQFOY_clean_sbu_3, # of connection points: 4
#     Node 23, Type 0, BuildingBlock: QUQFOY_clean_sbu_3, # of connection points: 4
#     Edge 24, Type (0, 0), BuildingBlock: XIVTED_clean_linker_0, # of connection points: 2
#     Edge 25, Type (0, 0), BuildingBlock: XIVTED_clean_linker_0, # of connection points: 2
#     Edge 26, Type (0, 0), BuildingBlock: XIVTED_clean_linker_0, # of connection points: 2
#     Edge 27, Type (0, 0), BuildingBlock: XIVTED_clean_linker_0, # of connection points: 2
#     Edge 28, Type (0, 0), BuildingBlock: XIVTED_clean_linker_0, # of connection points: 2
#     Edge 29, Type (0, 0), BuildingBlock: XIVTED_clean_linker_0, # of connection points: 2
#     Edge 30, Type (0, 0), BuildingBlock: XIVTED_clean_linker_0, # of connection points: 2
#     Edge 31, Type (0, 0), BuildingBlock: XIVTED_clean_linker_0, # of connection points: 2
#     Edge 32, Type (0, 0), BuildingBlock: XIVTED_clean_linker_0, # of connection points: 2
#     Edge 33, Type (0, 0), BuildingBlock: XIVTED_clean_linker_0, # of connection points: 2
#     Edge 34, Type (0, 0), BuildingBlock: XIVTED_clean_linker_0, # of connection points: 2
#     Edge 35, Type (0, 0), BuildingBlock: XIVTED_clean_linker_0, # of connection points: 2
#     Edge 36, Type (0, 0), BuildingBlock: XIVTED_clean_linker_0, # of connection points: 2
#     Edge 37, Type (0, 0), BuildingBlock: XIVTED_clean_linker_0, # of connection points: 2
#     Edge 38, Type (0, 0), BuildingBlock: XIVTED_clean_linker_0, # of connection points: 2
#     Edge 39, Type (0, 0), BuildingBlock: XIVTED_clean_linker_0, # of connection points: 2
#     Edge 40, Type (0, 0), BuildingBlock: XIVTED_clean_linker_0, # of connection points: 2
#     Edge 41, Type (0, 0), BuildingBlock: XIVTED_clean_linker_0, # of connection points: 2
#     Edge 42, Type (0, 0), BuildingBlock: XIVTED_clean_linker_0, # of connection points: 2
#     Edge 43, Type (0, 0), BuildingBlock: XIVTED_clean_linker_0, # of connection points: 2
#     Edge 44, Type (0, 0), BuildingBlock: XIVTED_clean_linker_0, # of connection points: 2
#     Edge 45, Type (0, 0), BuildingBlock: XIVTED_clean_linker_0, # of connection points: 2
#     Edge 46, Type (0, 0), BuildingBlock: XIVTED_clean_linker_0, # of connection points: 2
#     Edge 47, Type (0, 0), BuildingBlock: XIVTED_clean_linker_0, # of connection points: 2
#     Edge 48, Type (0, 0), BuildingBlock: XIVTED_clean_linker_0, # of connection points: 2
#     Edge 49, Type (0, 0), BuildingBlock: XIVTED_clean_linker_0, # of connection points: 2
#     Edge 50, Type (0, 0), BuildingBlock: XIVTED_clean_linker_0, # of connection points: 2
#     Edge 51, Type (0, 0), BuildingBlock: XIVTED_clean_linker_0, # of connection points: 2
#     Edge 52, Type (0, 0), BuildingBlock: XIVTED_clean_linker_0, # of connection points: 2
#     Edge 53, Type (0, 0), BuildingBlock: XIVTED_clean_linker_0, # of connection points: 2
#     Edge 54, Type (0, 0), BuildingBlock: XIVTED_clean_linker_0, # of connection points: 2
#     Edge 55, Type (0, 0), BuildingBlock: XIVTED_clean_linker_0, # of connection points: 2
#     Edge 56, Type (0, 0), BuildingBlock: XIVTED_clean_linker_0, # of connection points: 2
#     Edge 57, Type (0, 0), BuildingBlock: XIVTED_clean_linker_0, # of connection points: 2
#     Edge 58, Type (0, 0), BuildingBlock: XIVTED_clean_linker_0, # of connection points: 2
#     Edge 59, Type (0, 0), BuildingBlock: XIVTED_clean_linker_0, # of connection points: 2
#     Edge 60, Type (0, 0), BuildingBlock: XIVTED_clean_linker_0, # of connection points: 2
#     Edge 61, Type (0, 0), BuildingBlock: XIVTED_clean_linker_0, # of connection points: 2
#     Edge 62, Type (0, 0), BuildingBlock: XIVTED_clean_linker_0, # of connection points: 2
#     Edge 63, Type (0, 0), BuildingBlock: XIVTED_clean_linker_0, # of connection points: 2
#     Edge 64, Type (0, 0), BuildingBlock: XIVTED_clean_linker_0, # of connection points: 2
#     Edge 65, Type (0, 0), BuildingBlock: XIVTED_clean_linker_0, # of connection points: 2
#     Edge 66, Type (0, 0), BuildingBlock: XIVTED_clean_linker_0, # of connection points: 2
#     Edge 67, Type (0, 0), BuildingBlock: XIVTED_clean_linker_0, # of connection points: 2
#     Edge 68, Type (0, 0), BuildingBlock: XIVTED_clean_linker_0, # of connection points: 2
#     Edge 69, Type (0, 0), BuildingBlock: XIVTED_clean_linker_0, # of connection points: 2
#     Edge 70, Type (0, 0), BuildingBlock: XIVTED_clean_linker_0, # of connection points: 2
#     Edge 71, Type (0, 0), BuildingBlock: XIVTED_clean_linker_0, # of connection points: 2
# Relax obj value: 0.365
# Max RMSD: 0.293
# Mean RMSD: 0.276
data_MOF--net-unw--node1-QUQFOY_clean_sbu_3--edge1-XIVTED_clean_linker_0
_symmetry_space_group_name_H-M    P1
_symmetry_Int_Tables_number       1
_symmetry_cell_setting            triclinic
loop_
_symmetry_equiv_pos_as_xyz
'x, y, z'
_cell_length_a     49.667904
_cell_length_b     49.584806
_cell_length_c     49.709897
_cell_angle_alpha  89.718776
_cell_angle_beta   90.032205
_cell_angle_gamma 89.547817
loop_
_atom_site_label
_atom_site_type_symbol
_atom_site_fract_x
_atom_site_fract_y
_atom_site_fract_z
_atom_type_partial_charge
C0 C 0.03915 0.31839 0.20191 0.0
O1 O 0.04494 0.30694 0.17985 0.0
Cd2 Cd 0.09134 0.30112 0.16837 0.0
O3 O 0.05588 0.33449 0.21258 0.0
Cd4 Cd 0.10071 0.35296 0.20011 0.0
C5 C 0.1158 0.29707 0.23345 0.0
O6 O 0.11613 0.33947 0.15479 0.0
O7 O 0.14524 0.3422 0.18727 0.0
O8 O 0.09283 0.39932 0.18601 0.0
C9 C 0.14067 0.33956 0.16236 0.0
O10 O 0.10946 0.28606 0.21125 0.0
C11 C 0.10953 0.40902 0.20273 0.0
O12 O 0.11441 0.32258 0.23637 0.0
O13 O 0.11805 0.39321 0.22116 0.0
C14 C 0.53653 0.13491 0.25083 0.0
O15 O 0.53935 0.14531 0.27391 0.0
Cd16 Cd 0.58595 0.15379 0.28353 0.0
O17 O 0.55622 0.12228 0.2403 0.0
Cd18 Cd 0.60247 0.10857 0.25268 0.0
C19 C 0.60595 0.16397 0.21789 0.0
O20 O 0.61823 0.12049 0.29839 0.0
O21 O 0.64519 0.12493 0.26404 0.0
O22 O 0.59458 0.06285 0.26702 0.0
C23 C 0.64217 0.1225 0.28927 0.0
O24 O 0.59892 0.17321 0.2407 0.0
C25 C 0.61379 0.05272 0.25339 0.0
O26 O 0.60952 0.13872 0.21452 0.0
O27 O 0.62453 0.06786 0.23569 0.0
C28 C 0.82512 0.53544 0.25459 0.0
O29 O 0.81514 0.54013 0.27761 0.0
Cd30 Cd 0.8072 0.58659 0.28849 0.0
O31 O 0.83849 0.55369 0.24266 0.0
Cd32 Cd 0.85339 0.59978 0.25357 0.0
C33 C 0.7945 0.60876 0.22408 0.0
O34 O 0.84302 0.61643 0.29942 0.0
O35 O 0.83994 0.64377 0.26512 0.0
O36 O 0.90037 0.59326 0.26474 0.0
C37 C 0.84088 0.64052 0.29041 0.0
O38 O 0.78597 0.60244 0.24741 0.0
C39 C 0.90866 0.61077 0.24795 0.0
O40 O 0.81967 0.60922 0.21903 0.0
O41 O 0.89171 0.6194 0.23065 0.0
C42 C 0.32039 0.92099 0.20706 0.0
O43 O 0.31052 0.91745 0.18382 0.0
Cd44 Cd 0.30173 0.87022 0.17667 0.0
O45 O 0.33203 0.90137 0.21892 0.0
Cd46 Cd 0.34459 0.85433 0.20975 0.0
C47 C 0.28859 0.85579 0.24313 0.0
O48 O 0.33381 0.83519 0.16524 0.0
O49 O 0.32733 0.81117 0.20154 0.0
O50 O 0.38997 0.86248 0.1954 0.0
C51 C 0.33121 0.81202 0.17632 0.0
O52 O 0.28033 0.86108 0.21942 0.0
C53 C 0.40042 0.84377 0.20965 0.0
O54 O 0.31355 0.85164 0.24772 0.0
O55 O 0.38551 0.83313 0.2276 0.0
C56 C 0.04059 0.64043 0.75565 0.0
O57 O 0.04498 0.65172 0.77805 0.0
Cd58 Cd 0.09253 0.65948 0.78345 0.0
O59 O 0.05947 0.62728 0.74438 0.0
Cd60 Cd 0.10615 0.61338 0.75384 0.0
C61 C 0.10607 0.66656 0.71586 0.0
O62 O 0.12705 0.62749 0.79674 0.0
O63 O 0.15019 0.62929 0.75948 0.0
O64 O 0.09683 0.56956 0.77236 0.0
C65 C 0.14993 0.62854 0.785 0.0
O66 O 0.1012 0.67678 0.7388 0.0
C67 C 0.11414 0.55716 0.75808 0.0
O68 O 0.1096 0.6412 0.7133 0.0
O69 O 0.12459 0.57026 0.73865 0.0
C70 C 0.42321 0.13104 0.70885 0.0
O71 O 0.42021 0.14138 0.68564 0.0
Cd72 Cd 0.37456 0.15188 0.67327 0.0
O73 O 0.40365 0.11874 0.71972 0.0
Cd74 Cd 0.3576 0.10684 0.70593 0.0
C75 C 0.35074 0.16524 0.73645 0.0
O76 O 0.34264 0.11867 0.6596 0.0
O77 O 0.31508 0.12343 0.69338 0.0
O78 O 0.36227 0.05974 0.69435 0.0
C79 C 0.31859 0.1219 0.66818 0.0
O80 O 0.35833 0.174 0.71358 0.0
C81 C 0.34355 0.05203 0.70998 0.0
O82 O 0.34884 0.13998 0.74092 0.0
O83 O 0.33482 0.06911 0.72698 0.0
C84 C 0.82934 0.43113 0.70925 0.0
O85 O 0.82028 0.43225 0.68541 0.0
Cd86 Cd 0.80974 0.38897 0.667 0.0
O87 O 0.83982 0.40925 0.71787 0.0
Cd88 Cd 0.84996 0.36406 0.69927 0.0
C89 C 0.79057 0.35892 0.72634 0.0
O90 O 0.84331 0.35809 0.65037 0.0
O91 O 0.82984 0.32676 0.67799 0.0
O92 O 0.89801 0.36717 0.693 0.0
C93 C 0.83683 0.33358 0.65442 0.0
O94 O 0.78394 0.36975 0.70399 0.0
C95 C 0.90344 0.34468 0.70425 0.0
O96 O 0.8152 0.35408 0.73182 0.0
O97 O 0.88449 0.33349 0.7173 0.0
C98 C 0.64961 0.92848 0.75927 0.0
O99 O 0.66021 0.92226 0.78169 0.0
Cd100 Cd 0.66782 0.8751 0.78813 0.0
O101 O 0.63465 0.91152 0.74738 0.0
Cd102 Cd 0.61687 0.86577 0.7581 0.0
C103 C 0.67074 0.85558 0.72145 0.0
O104 O 0.63157 0.84746 0.80219 0.0
O105 O 0.63012 0.82077 0.7677 0.0
O106 O 0.57098 0.87249 0.77381 0.0
C107 C 0.63228 0.82353 0.79294 0.0
O108 O 0.68232 0.86113 0.7436 0.0
C109 C 0.56088 0.8563 0.75685 0.0
O110 O 0.64516 0.85559 0.71959 0.0
O111 O 0.57613 0.84853 0.73779 0.0
C112 C 0.24601 0.13692 0.41588 0.0
O113 O 0.26885 0.14761 0.41227 0.0
Cd114 Cd 0.28471 0.15294 0.36712 0.0
O115 O 0.23589 0.12242 0.39745 0.0
Cd116 Cd 0.25134 0.10784 0.35219 0.0
C117 C 0.22367 0.16698 0.33841 0.0
O118 O 0.29959 0.11507 0.34121 0.0
O119 O 0.26898 0.12164 0.31044 0.0
O120 O 0.25899 0.05962 0.35669 0.0
C121 C 0.29342 0.11707 0.31637 0.0
O122 O 0.24652 0.1756 0.34597 0.0
C123 C 0.24417 0.05369 0.33671 0.0
O124 O 0.21848 0.14187 0.3391 0.0
O125 O 0.22886 0.07229 0.32764 0.0
C126 C 0.92194 0.20521 0.31796 0.0
O127 O 0.91694 0.18173 0.30938 0.0
Cd128 Cd 0.86971 0.17279 0.30557 0.0
O129 O 0.9044 0.21746 0.33207 0.0
Cd130 Cd 0.85997 0.20584 0.35129 0.0
C131 C 0.84762 0.23781 0.29502 0.0
O132 O 0.842 0.15995 0.34277 0.0
O133 O 0.81512 0.19494 0.34162 0.0
O134 O 0.87308 0.19308 0.39624 0.0
C135 C 0.81807 0.16956 0.34334 0.0
O136 O 0.85336 0.21455 0.28582 0.0
C137 C 0.85542 0.20779 0.40767 0.0
O138 O 0.84834 0.24231 0.32024 0.0
O139 O 0.84347 0.22535 0.39307 0.0
C140 C 0.71285 0.82598 0.42573 0.0
O141 O 0.68875 0.81856 0.42202 0.0
Cd142 Cd 0.68177 0.80896 0.3754 0.0
O143 O 0.72543 0.83736 0.40656 0.0
Cd144 Cd 0.71472 0.85327 0.36036 0.0
C145 C 0.74822 0.79693 0.35831 0.0
O146 O 0.66916 0.84266 0.3431 0.0
O147 O 0.70391 0.83862 0.31661 0.0
O148 O 0.70107 0.89874 0.3706 0.0
C149 C 0.67858 0.84057 0.3193 0.0
O150 O 0.72495 0.78861 0.3649 0.0
C151 C 0.71485 0.90955 0.35193 0.0
O152 O 0.75241 0.82195 0.35413 0.0
O153 O 0.73233 0.89465 0.34038 0.0
C154 C 0.04018 0.74171 0.32099 0.0
O155 O 0.0431 0.76378 0.30833 0.0
Cd156 Cd 0.08746 0.78213 0.30336 0.0
O157 O 0.05866 0.73323 0.33672 0.0
Cd158 Cd 0.10275 0.74948 0.35254 0.0
C159 C 0.11917 0.7208 0.295 0.0
O160 O 0.11263 0.79719 0.34128 0.0
O161 O 0.14488 0.76719 0.34165 0.0
O162 O 0.09218 0.7602 0.39854 0.0
C163 C 0.13782 0.79179 0.34112 0.0
O164 O 0.11048 0.74306 0.28538 0.0
C165 C 0.1119 0.74692 0.40838 0.0
O166 O 0.11844 0.71603 0.32024 0.0
O167 O 0.12427 0.73091 0.39262 0.0
C168 C 0.21388 0.92051 0.63406 0.0
O169 O 0.19176 0.91659 0.64617 0.0
Cd170 Cd 0.17974 0.87032 0.65321 0.0
O171 O 0.22384 0.902 0.61939 0.0
Cd172 Cd 0.21087 0.85656 0.60418 0.0
C173 C 0.24452 0.84553 0.65989 0.0
O174 O 0.16507 0.84213 0.61731 0.0
O175 O 0.19811 0.81302 0.61758 0.0
O176 O 0.19654 0.8663 0.55891 0.0
C177 C 0.17298 0.81758 0.61829 0.0
O178 O 0.22209 0.85265 0.67013 0.0
C179 C 0.21068 0.84769 0.54829 0.0
O180 O 0.2478 0.84513 0.63445 0.0
O181 O 0.22855 0.83655 0.56309 0.0
C182 C 0.12616 0.24395 0.53519 0.0
O183 O 0.13255 0.26835 0.539 0.0
Cd184 Cd 0.14386 0.27423 0.58544 0.0
O185 O 0.1161 0.23054 0.55453 0.0
Cd186 Cd 0.10108 0.24018 0.60107 0.0
C187 C 0.15801 0.20772 0.60135 0.0
O188 O 0.11153 0.28548 0.61923 0.0
O189 O 0.11642 0.24994 0.64483 0.0
O190 O 0.05575 0.25407 0.59109 0.0
C191 C 0.11436 0.27538 0.64275 0.0
O192 O 0.16556 0.23135 0.5949 0.0
C193 C 0.04495 0.23993 0.60951 0.0
O194 O 0.13325 0.20285 0.60598 0.0
O195 O 0.05979 0.2221 0.62083 0.0
C196 C 0.76212 0.04991 0.64661 0.0
O197 O 0.78507 0.05608 0.65584 0.0
Cd198 Cd 0.7912 0.10405 0.65791 0.0
O199 O 0.74957 0.06674 0.63177 0.0
Cd200 Cd 0.75923 0.11151 0.6122 0.0
C201 C 0.72488 0.12172 0.66686 0.0
O202 O 0.80368 0.13256 0.6208 0.0
O203 O 0.76709 0.15716 0.6217 0.0
O204 O 0.77398 0.09784 0.56824 0.0
C205 C 0.7925 0.15582 0.6194 0.0
O206 O 0.74827 0.11773 0.67666 0.0
C207 C 0.75903 0.11462 0.55569 0.0
O208 O 0.72101 0.12069 0.64153 0.0
O209 O 0.74049 0.12618 0.56919 0.0
C210 C 0.82334 0.71059 0.54789 0.0
O211 O 0.81357 0.68761 0.55314 0.0
Cd212 Cd 0.80704 0.67908 0.60012 0.0
O213 O 0.83702 0.72261 0.56579 0.0
Cd214 Cd 0.85236 0.71124 0.61211 0.0
C215 C 0.7957 0.74409 0.62049 0.0
O216 O 0.84296 0.66517 0.62943 0.0
O217 O 0.8378 0.69975 0.65583 0.0
O218 O 0.89961 0.69976 0.60702 0.0
C219 C 0.84135 0.67455 0.65324 0.0
O220 O 0.78617 0.72103 0.61483 0.0
C221 C 0.9074 0.71598 0.62514 0.0
O222 O 0.82103 0.74783 0.62089 0.0
O223 O 0.89032 0.73344 0.63313 0.0
C224 C 0.33186 0.2029 0.03502 0.0
O225 O 0.32494 0.17858 0.03863 0.0
Cd226 Cd 0.31398 0.16985 0.08483 0.0
O227 O 0.34165 0.21596 0.05462 0.0
Cd228 Cd 0.35383 0.2058 0.10185 0.0
C229 C 0.29446 0.23416 0.10182 0.0
O230 O 0.34696 0.15918 0.11867 0.0
O231 O 0.33631 0.19333 0.1441 0.0
O232 O 0.40172 0.19756 0.09829 0.0
C233 C 0.34239 0.16852 0.14213 0.0
O234 O 0.2881 0.21023 0.09531 0.0
C235 C 0.40775 0.21316 0.11759 0.0
O236 O 0.31896 0.24024 0.10612 0.0
O237 O 0.38933 0.22912 0.12579 0.0
C238 C 0.42741 0.72429 0.82624 0.0
O239 O 0.42564 0.70189 0.81419 0.0
Cd240 Cd 0.38103 0.68486 0.80681 0.0
O241 O 0.4076 0.73294 0.83998 0.0
Cd242 Cd 0.36262 0.71589 0.85206 0.0
C243 C 0.35108 0.74593 0.79419 0.0
O244 O 0.35181 0.66816 0.84152 0.0
O245 O 0.32122 0.6997 0.83694 0.0
O246 O 0.37042 0.70457 0.89859 0.0
C247 C 0.327 0.67487 0.83939 0.0
O248 O 0.36001 0.72354 0.78535 0.0
C249 C 0.35009 0.71753 0.9074 0.0
O250 O 0.35006 0.75047 0.8194 0.0
O251 O 0.33838 0.73358 0.89101 0.0
C252 C 0.21507 0.31467 0.91563 0.0
O253 O 0.19218 0.30468 0.91065 0.0
Cd254 Cd 0.18242 0.301 0.8637 0.0
O255 O 0.22596 0.33024 0.89842 0.0
Cd256 Cd 0.21264 0.35053 0.85447 0.0
C257 C 0.24793 0.29658 0.84075 0.0
O258 O 0.16704 0.33875 0.83794 0.0
O259 O 0.20039 0.34126 0.80966 0.0
O260 O 0.19746 0.39476 0.86805 0.0
C261 C 0.17522 0.34018 0.81365 0.0
O262 O 0.22567 0.28566 0.84702 0.0
C263 C 0.21158 0.40729 0.85077 0.0
O264 O 0.2506 0.32212 0.84127 0.0
O265 O 0.22971 0.39371 0.83866 0.0
C266 C 0.53788 0.24412 0.82386 0.0
O267 O 0.54044 0.26725 0.81318 0.0
Cd268 Cd 0.58574 0.27751 0.80094 0.0
O269 O 0.55745 0.23391 0.83705 0.0
Cd270 Cd 0.60262 0.24952 0.85129 0.0
C271 C 0.61146 0.21249 0.79763 0.0
O272 O 0.61584 0.29433 0.83373 0.0
O273 O 0.6454 0.26173 0.8352 0.0
O274 O 0.59439 0.26718 0.89567 0.0
C275 C 0.64032 0.28659 0.83175 0.0
O276 O 0.60277 0.234 0.7864 0.0
C277 C 0.61329 0.25373 0.90683 0.0
O278 O 0.61386 0.21092 0.82315 0.0
O279 O 0.62405 0.23493 0.89306 0.0
C280 C 0.75287 0.62551 0.93341 0.0
O281 O 0.77736 0.63245 0.93199 0.0
Cd282 Cd 0.78985 0.64511 0.88713 0.0
O283 O 0.74135 0.61645 0.91252 0.0
Cd284 Cd 0.75571 0.60595 0.86599 0.0
C285 C 0.72777 0.66559 0.86416 0.0
O286 O 0.80339 0.61356 0.85318 0.0
O287 O 0.7712 0.62522 0.82552 0.0
O288 O 0.76412 0.5578 0.86771 0.0
C289 C 0.7958 0.61931 0.82929 0.0
O290 O 0.75089 0.67168 0.87328 0.0
C291 C 0.74951 0.55279 0.84733 0.0
O292 O 0.72206 0.64118 0.85888 0.0
O293 O 0.73392 0.57164 0.8392 0.0
C294 C 0.6357 0.74 0.04822 0.0
O295 O 0.64491 0.76339 0.05245 0.0
Cd296 Cd 0.64962 0.77431 0.09902 0.0
O297 O 0.62104 0.72884 0.066 0.0
Cd298 Cd 0.60171 0.74256 0.11009 0.0
C299 C 0.65726 0.70945 0.1235 0.0
O300 O 0.61227 0.78895 0.12537 0.0
O301 O 0.61199 0.75583 0.15431 0.0
O302 O 0.55674 0.75609 0.09736 0.0
C303 C 0.61182 0.78102 0.14983 0.0
O304 O 0.66714 0.73208 0.11664 0.0
C305 C 0.54523 0.74222 0.11557 0.0
O306 O 0.63187 0.70579 0.12333 0.0
O307 O 0.55965 0.72467 0.12776 0.0
C308 C 0.2425 0.5395 0.13027 0.0
O309 O 0.26488 0.54086 0.14248 0.0
Cd310 Cd 0.28437 0.58457 0.14894 0.0
O311 O 0.23451 0.55925 0.11585 0.0
Cd312 Cd 0.25306 0.60359 0.10296 0.0
C313 C 0.22505 0.61767 0.16127 0.0
O314 O 0.30141 0.6119 0.11292 0.0
O315 O 0.27172 0.64422 0.11742 0.0
O316 O 0.263 0.59635 0.0561 0.0
C317 C 0.29612 0.63705 0.11495 0.0
O318 O 0.24716 0.60802 0.17018 0.0
C319 C 0.25025 0.61713 0.04782 0.0
O320 O 0.2201 0.61816 0.1361 0.0
O321 O 0.23483 0.6288 0.06466 0.0
C322 C 0.71366 0.4169 0.13975 0.0
O323 O 0.69057 0.41173 0.14927 0.0
Cd324 Cd 0.68135 0.36486 0.15523 0.0
O325 O 0.72554 0.39956 0.12502 0.0
Cd326 Cd 0.71405 0.35511 0.10535 0.0
C327 C 0.74753 0.34249 0.16081 0.0
O328 O 0.66873 0.3389 0.11741 0.0
O329 O 0.70198 0.31022 0.11567 0.0
O330 O 0.6996 0.36858 0.06099 0.0
C331 C 0.67684 0.31443 0.11743 0.0
O332 O 0.72479 0.34864 0.17102 0.0
C333 C 0.71376 0.35093 0.04889 0.0
O334 O 0.75107 0.34291 0.13539 0.0
O335 O 0.73168 0.33867 0.06273 0.0
H336 H 0.19208 0.53054 0.10955 0.0
H337 H 0.15236 0.43045 0.22957 0.0
H338 H 0.24788 0.50108 0.16973 0.0
H339 H 0.10161 0.44359 0.16013 0.0
H340 H 0.18473 0.46223 0.211 0.0
H341 H 0.15706 0.50217 0.12925 0.0
C342 C 0.19715 0.51775 0.12657 0.0
C343 C 0.22306 0.51825 0.13796 0.0
C344 C 0.16635 0.45842 0.19997 0.0
C345 C 0.18277 0.48638 0.16109 0.0
C346 C 0.14762 0.44056 0.21077 0.0
C347 C 0.12431 0.43406 0.19627 0.0
C348 C 0.16174 0.47001 0.17453 0.0
C349 C 0.11936 0.44786 0.17197 0.0
C350 C 0.17704 0.50177 0.13797 0.0
C351 C 0.2283 0.50135 0.16015 0.0
N352 N 0.13809 0.46493 0.16169 0.0
N353 N 0.20829 0.48635 0.17112 0.0
H354 H 0.49745 0.17318 0.26086 0.0
H355 H 0.44933 0.17826 0.10705 0.0
H356 H 0.52538 0.1181 0.19973 0.0
H357 H 0.41914 0.23245 0.16786 0.0
H358 H 0.47963 0.15814 0.14031 0.0
H359 H 0.46844 0.19514 0.2274 0.0
C360 C 0.49705 0.16526 0.2406 0.0
C361 C 0.51401 0.14375 0.23316 0.0
C362 C 0.46663 0.17466 0.14633 0.0
C363 C 0.48141 0.16938 0.19453 0.0
C364 C 0.44956 0.18644 0.12721 0.0
C365 C 0.4315 0.20701 0.13465 0.0
C366 C 0.46561 0.18341 0.17316 0.0
C367 C 0.43269 0.21667 0.16116 0.0
C368 C 0.48075 0.17809 0.22139 0.0
C369 C 0.51275 0.13462 0.20646 0.0
N370 N 0.44916 0.20454 0.17954 0.0
N371 N 0.49697 0.14761 0.18812 0.0
H372 H 0.69854 0.45075 0.1804 0.0
H373 H 0.8403 0.519 0.20398 0.0
H374 H 0.76579 0.43182 0.12857 0.0
H375 H 0.78388 0.50164 0.26771 0.0
H376 H 0.8133 0.49148 0.17338 0.0
H377 H 0.72842 0.47716 0.20862 0.0
C378 C 0.71944 0.45261 0.17453 0.0
C379 C 0.72966 0.43872 0.15216 0.0
C380 C 0.80716 0.49343 0.19419 0.0
C381 C 0.76411 0.46868 0.18481 0.0
C382 C 0.82267 0.50889 0.21176 0.0
C383 C 0.81427 0.51289 0.23848 0.0
C384 C 0.7829 0.48236 0.20332 0.0
C385 C 0.79117 0.49931 0.24733 0.0
C386 C 0.73658 0.46739 0.19093 0.0
C387 C 0.75703 0.44204 0.14569 0.0
N388 N 0.77605 0.48511 0.22968 0.0
N389 N 0.77338 0.45657 0.16205 0.0
H390 H 0.51984 0.72443 0.16141 0.0
H391 H 0.43563 0.86162 0.17159 0.0
H392 H 0.51285 0.78311 0.09731 0.0
H393 H 0.42151 0.79479 0.2256 0.0
H394 H 0.46879 0.83436 0.1477 0.0
H395 H 0.48581 0.7496 0.18694 0.0
C396 C 0.51064 0.74214 0.15235 0.0
C397 C 0.51941 0.75175 0.1272 0.0
C398 C 0.45863 0.82569 0.16493 0.0
C399 C 0.48126 0.7811 0.15675 0.0
C400 C 0.43996 0.84141 0.17886 0.0
C401 C 0.42561 0.83047 0.20058 0.0
C402 C 0.46318 0.7988 0.17276 0.0
C403 C 0.43213 0.80409 0.20901 0.0
C404 C 0.49147 0.75668 0.16711 0.0
C405 C 0.50688 0.77497 0.11663 0.0
N406 N 0.45029 0.78904 0.19493 0.0
N407 N 0.4888 0.78903 0.13161 0.0
H408 H 0.23005 0.43474 0.80644 0.0
H409 H 0.09618 0.52513 0.79899 0.0
H410 H 0.17032 0.43881 0.86938 0.0
H411 H 0.16053 0.53203 0.74111 0.0
H412 H 0.12214 0.49073 0.82296 0.0
H413 H 0.20557 0.47011 0.78187 0.0
C414 C 0.21222 0.44356 0.81548 0.0
C415 C 0.20215 0.43362 0.83998 0.0
C416 C 0.13053 0.49957 0.80488 0.0
C417 C 0.17359 0.47345 0.8115 0.0
C418 C 0.11553 0.51898 0.79095 0.0
C419 C 0.1262 0.53159 0.76802 0.0
C420 C 0.15646 0.49262 0.79589 0.0
C421 C 0.15145 0.5228 0.75864 0.0
C422 C 0.19805 0.46351 0.80123 0.0
C423 C 0.17882 0.44572 0.85054 0.0
N424 N 0.16585 0.50401 0.77275 0.0
N425 N 0.16517 0.4647 0.83609 0.0
H426 H 0.52828 0.19122 0.83764 0.0
H427 H 0.43602 0.11463 0.76025 0.0
H428 H 0.50024 0.25517 0.78512 0.0
H429 H 0.45957 0.17074 0.698 0.0
H430 H 0.46249 0.1403 0.79273 0.0
H431 H 0.50271 0.15887 0.81091 0.0
C432 C 0.51614 0.19862 0.82103 0.0
C433 C 0.51661 0.22603 0.81357 0.0
C434 C 0.46238 0.14654 0.77183 0.0
C435 C 0.4879 0.18903 0.78262 0.0
C436 C 0.44741 0.13181 0.7532 0.0
C437 C 0.44537 0.14059 0.7263 0.0
C438 C 0.4751 0.17033 0.76349 0.0
C439 C 0.46043 0.16315 0.71845 0.0
C440 C 0.50169 0.18007 0.80569 0.0
C441 C 0.50064 0.23432 0.79167 0.0
N442 N 0.47413 0.17754 0.73707 0.0
N443 N 0.48744 0.21583 0.77668 0.0
H444 H 0.78435 0.51076 0.85729 0.0
H445 H 0.79685 0.47543 0.70089 0.0
H446 H 0.73207 0.54395 0.79592 0.0
H447 H 0.84187 0.43369 0.76292 0.0
H448 H 0.77496 0.50265 0.73545 0.0
H449 H 0.80546 0.48198 0.82341 0.0
C450 C 0.77679 0.5115 0.83685 0.0
C451 C 0.75644 0.52993 0.82948 0.0
C452 C 0.78978 0.48767 0.74149 0.0
C453 C 0.78118 0.49766 0.79038 0.0
C454 C 0.80261 0.47235 0.7217 0.0
C455 C 0.82122 0.45209 0.72893 0.0
C456 C 0.79561 0.48282 0.76876 0.0
C457 C 0.82765 0.44901 0.75633 0.0
C458 C 0.78911 0.49529 0.81743 0.0
C459 C 0.74764 0.53007 0.8026 0.0
N460 N 0.81473 0.46404 0.77523 0.0
N461 N 0.76032 0.5145 0.78398 0.0
H462 H 0.53906 0.814 0.7295 0.0
H463 H 0.43818 0.77372 0.84821 0.0
H464 H 0.52693 0.86338 0.79981 0.0
H465 H 0.46562 0.71862 0.78688 0.0
H466 H 0.46769 0.80833 0.82951 0.0
H467 H 0.50688 0.78163 0.74742 0.0
C468 C 0.52911 0.81844 0.74837 0.0
C469 C 0.53594 0.84139 0.76326 0.0
C470 C 0.46742 0.78858 0.82032 0.0
C471 C 0.49952 0.80395 0.78423 0.0
C472 C 0.45077 0.7687 0.83114 0.0
C473 C 0.44937 0.74314 0.81914 0.0
C474 C 0.48258 0.783 0.79714 0.0
C475 C 0.46606 0.73793 0.79692 0.0
C476 C 0.51101 0.7997 0.75879 0.0
C477 C 0.52238 0.84594 0.78766 0.0
N478 N 0.48173 0.75775 0.7865 0.0
N479 N 0.50504 0.82723 0.79753 0.0
H480 H 0.16465 0.26136 0.49993 0.0
H481 H 0.19475 0.121 0.42977 0.0
H482 H 0.11672 0.19173 0.51968 0.0
H483 H 0.25621 0.17861 0.45004 0.0
H484 H 0.16237 0.14709 0.45671 0.0
H485 H 0.19359 0.23279 0.47229 0.0
C486 C 0.1597 0.24023 0.4979 0.0
C487 C 0.1383 0.22893 0.51242 0.0
C488 C 0.18306 0.1537 0.45544 0.0
C489 C 0.17175 0.19603 0.48109 0.0
C490 C 0.20163 0.13872 0.44032 0.0
C491 C 0.2283 0.14764 0.43745 0.0
C492 C 0.19113 0.178 0.46721 0.0
C493 C 0.23594 0.17088 0.45152 0.0
C494 C 0.17652 0.22386 0.48243 0.0
C495 C 0.13307 0.20129 0.50897 0.0
N496 N 0.21736 0.18547 0.46535 0.0
N497 N 0.14981 0.1857 0.49378 0.0
H498 H 0.74024 0.15979 0.52927 0.0
H499 H 0.87505 0.16946 0.44225 0.0
H500 H 0.80012 0.09647 0.52396 0.0
H501 H 0.8085 0.22499 0.43148 0.0
H502 H 0.84933 0.14576 0.47661 0.0
H503 H 0.76474 0.18531 0.49495 0.0
C504 C 0.75807 0.15086 0.52036 0.0
C505 C 0.7682 0.12596 0.52967 0.0
C506 C 0.84042 0.1633 0.46694 0.0
C507 C 0.79681 0.15552 0.49117 0.0
C508 C 0.85529 0.17713 0.44759 0.0
C509 C 0.84388 0.19916 0.43376 0.0
C510 C 0.81392 0.17154 0.47263 0.0
C511 C 0.81813 0.2081 0.44159 0.0
C512 C 0.77227 0.16565 0.50105 0.0
C513 C 0.79158 0.1156 0.51754 0.0
N514 N 0.80387 0.19407 0.46031 0.0
N515 N 0.80526 0.13058 0.49923 0.0
H516 H 0.76403 0.83873 0.44213 0.0
H517 H 0.78338 0.69601 0.51304 0.0
H518 H 0.69873 0.78416 0.45874 0.0
H519 H 0.83631 0.76206 0.53167 0.0
H520 H 0.75649 0.7264 0.48501 0.0
H521 H 0.79382 0.81033 0.46992 0.0
C522 C 0.75577 0.82118 0.45212 0.0
C523 C 0.72877 0.81385 0.44803 0.0
C524 C 0.77416 0.73416 0.49504 0.0
C525 C 0.76302 0.78082 0.47881 0.0
C526 C 0.78981 0.71672 0.51075 0.0
C527 C 0.81207 0.72649 0.52507 0.0
C528 C 0.78092 0.76153 0.49323 0.0
C529 C 0.81926 0.75364 0.52117 0.0
C530 C 0.77286 0.80488 0.46773 0.0
C531 C 0.71929 0.79074 0.46133 0.0
N532 N 0.80361 0.77029 0.50575 0.0
N533 N 0.73649 0.77484 0.47571 0.0
H534 H 0.09216 0.78351 0.44429 0.0
H535 H 0.22958 0.80105 0.525 0.0
H536 H 0.16116 0.73229 0.42924 0.0
H537 H 0.16903 0.86339 0.51588 0.0
H538 H 0.20484 0.77322 0.49286 0.0
H539 H 0.11862 0.80868 0.47677 0.0
C540 C 0.11267 0.77707 0.44832 0.0
C541 C 0.12451 0.75592 0.43375 0.0
C542 C 0.19724 0.79316 0.49766 0.0
C543 C 0.15519 0.78519 0.47048 0.0
C544 C 0.21153 0.80922 0.51572 0.0
C545 C 0.20128 0.83457 0.52334 0.0
C546 C 0.17245 0.80242 0.48748 0.0
C547 C 0.17766 0.84397 0.51077 0.0
C548 C 0.12791 0.79175 0.46657 0.0
C549 C 0.15121 0.74851 0.43994 0.0
N550 N 0.16386 0.82774 0.49383 0.0
N551 N 0.16579 0.76334 0.45764 0.0
H552 H 0.68847 0.96385 0.77524 0.0
H553 H 0.7135 0.02921 0.63086 0.0
H554 H 0.63884 0.94368 0.70697 0.0
H555 H 0.77483 0.02108 0.69201 0.0
H556 H 0.68344 0.00156 0.65848 0.0
H557 H 0.71633 -0.00849 0.74592 0.0
C558 C 0.68299 0.96569 0.75422 0.0
C559 C 0.66136 0.95107 0.74358 0.0
C560 C 0.70361 0.00556 0.66561 0.0
C561 C 0.69367 -0.01753 0.70973 0.0
C562 C 0.7209 0.02111 0.64977 0.0
C563 C 0.74678 0.02758 0.65912 0.0
C564 C 0.71211 -0.00317 0.69116 0.0
C565 C 0.75515 0.01663 0.68388 0.0
C566 C 0.6992 -0.01878 0.7374 0.0
C567 C 0.65535 0.95444 0.71609 0.0
N568 N 0.73774 0.00217 0.69919 0.0
N569 N 0.67157 0.96962 0.70005 0.0
H570 H 0.92404 0.74018 0.6717 0.0
H571 H 0.02342 0.61767 0.70884 0.0
H572 H 0.94453 0.67571 0.61719 0.0
H573 H 0.0055 0.68288 0.76334 0.0
H574 H -0.00668 0.63815 0.67569 0.0
H575 H 0.95496 0.72074 0.70492 0.0
C576 C 0.93557 0.72236 0.66638 0.0
C577 C 0.93152 0.70951 0.64159 0.0
C578 C -0.00428 0.64788 0.69499 0.0
C579 C 0.96636 0.68667 0.67994 0.0
C580 C 0.01268 0.636 0.7141 0.0
C581 C 0.01709 0.64856 0.73897 0.0
C582 C -0.01696 0.67262 0.70064 0.0
C583 C 0.00264 0.67236 0.74454 0.0
C584 C 0.95295 0.71104 0.68556 0.0
C585 C 0.94691 0.68633 0.63601 0.0
N586 N -0.01352 0.68376 0.72541 0.0
N587 N 0.96338 0.6755 0.65514 0.0
H588 H 0.35494 0.01337 0.67245 0.0
H589 H 0.20367 0.95892 0.67241 0.0
H590 H 0.29521 0.03648 0.73119 0.0
H591 H 0.26457 0.9326 0.61617 0.0
H592 H 0.23664 -0.01159 0.69339 0.0
H593 H 0.32274 -0.01782 0.65277 0.0
C594 C 0.3353 0.01139 0.68167 0.0
C595 C 0.32775 0.02774 0.70342 0.0
C596 C 0.24274 0.97633 0.67633 0.0
C597 C 0.29045 -0.00735 0.68042 0.0
C598 C 0.2238 0.95973 0.66407 0.0
C599 C 0.23132 0.94309 0.64251 0.0
C600 C 0.26942 0.97637 0.66698 0.0
C601 C 0.2578 0.94497 0.63275 0.0
C602 C 0.31678 -0.00619 0.67018 0.0
C603 C 0.30195 0.02433 0.71443 0.0
N604 N 0.27592 0.96111 0.64519 0.0
N605 N 0.28411 0.00745 0.70258 0.0
H606 H 0.02084 0.22187 0.65613 0.0
H607 H 0.94444 0.36172 0.67213 0.0
H608 H 0.01194 0.28062 0.59229 0.0
H609 H 0.91719 0.29211 0.71664 0.0
H610 H 0.97678 0.33314 0.64865 0.0
H611 H -0.01279 0.24695 0.68254 0.0
C612 C 0.01132 0.23955 0.64733 0.0
C613 C 0.01943 0.24925 0.62198 0.0
C614 C 0.9639 0.32416 0.66376 0.0
C615 C -0.01802 0.27843 0.6525 0.0
C616 C 0.94568 0.34054 0.67749 0.0
C617 C 0.92784 0.3293 0.69625 0.0
C618 C 0.96462 0.29633 0.66896 0.0
C619 C 0.93051 0.30164 0.7023 0.0
C620 C -0.00761 0.25398 0.66256 0.0
C621 C 0.00653 0.27242 0.61175 0.0
N622 N 0.94844 0.28599 0.68853 0.0
N623 N -0.01112 0.28645 0.62722 0.0
H624 H 0.67693 0.94454 0.37118 0.0
H625 H 0.66159 0.03052 0.23588 0.0
H626 H 0.72994 0.93192 0.30354 0.0
H627 H 0.59817 0.01929 0.29413 0.0
H628 H 0.68934 -0.00243 0.26061 0.0
H629 H 0.65203 0.97806 0.34496 0.0
C630 C 0.68379 0.94929 0.35104 0.0
C631 C 0.70546 0.93517 0.33951 0.0
C632 C 0.6692 0.0021 0.2677 0.0
C633 C 0.67649 0.97316 0.30905 0.0
C634 C 0.6532 0.02064 0.25342 0.0
C635 C 0.62749 0.02781 0.26298 0.0
C636 C 0.65952 -0.00903 0.29182 0.0
C637 C 0.61785 0.01452 0.28599 0.0
C638 C 0.66928 0.96817 0.33591 0.0
C639 C 0.71336 0.94229 0.31326 0.0
N640 N 0.63398 -0.00291 0.2998 0.0
N641 N 0.6987 0.9606 0.29878 0.0
H642 H 0.92693 0.65606 0.22232 0.0
H643 H 0.02929 0.6914 0.34125 0.0
H644 H 0.94613 0.60121 0.28737 0.0
H645 H 0.00305 0.74851 0.28063 0.0
H646 H 0.00066 0.6573 0.32083 0.0
H647 H 0.95893 0.68824 0.24066 0.0
C648 C 0.93842 0.65042 0.24003 0.0
C649 C 0.93358 0.62596 0.25347 0.0
C650 C 0.00102 0.67735 0.31212 0.0
C651 C 0.96971 0.66311 0.27504 0.0
C652 C 0.01715 0.69696 0.32395 0.0
C653 C 0.01866 0.72294 0.31267 0.0
C654 C -0.01365 0.68368 0.28873 0.0
C655 C 0.00254 0.72883 0.29012 0.0
C656 C 0.95641 0.66901 0.25074 0.0
C657 C 0.94905 0.61987 0.27641 0.0
N658 N -0.01275 0.7093 0.27879 0.0
N659 N 0.96615 0.63847 0.28667 0.0
H660 H 0.2813 0.95909 0.19597 0.0
H661 H 0.27998 0.01285 0.34776 0.0
H662 H 0.33916 0.93527 0.25659 0.0
H663 H 0.22433 0.04104 0.28691 0.0
H664 H 0.29976 -0.01803 0.31508 0.0
H665 H 0.26011 -0.01056 0.22854 0.0
C666 C 0.29 0.96073 0.21587 0.0
C667 C 0.31204 0.94449 0.22352 0.0
C668 C 0.28301 -0.00532 0.30893 0.0
C669 C 0.28732 0.97855 0.26116 0.0
C670 C 0.27142 0.01208 0.32773 0.0
C671 C 0.25051 0.02973 0.3201 0.0
C672 C 0.2737 -0.00507 0.28222 0.0
C673 C 0.24041 0.02784 0.29375 0.0
C674 C 0.27762 0.97777 0.2346 0.0
C675 C 0.32217 0.94729 0.24976 0.0
N676 N 0.25231 0.01102 0.27567 0.0
N677 N 0.30959 0.96372 0.26765 0.0
H678 H 0.02358 0.33258 0.2532 0.0
H679 H 0.95477 0.19022 0.27637 0.0
H680 H 0.00594 0.27653 0.18943 0.0
H681 H 0.93797 0.25685 0.32959 0.0
H682 H -0.01864 0.22023 0.24813 0.0
H683 H -0.00323 0.3049 0.28409 0.0
C684 C 0.0136 0.31487 0.24549 0.0
C685 C 0.01729 0.30681 0.21863 0.0
C686 C 0.97204 0.22821 0.26613 0.0
C687 C -0.01244 0.27467 0.25412 0.0
C688 C 0.95717 0.21099 0.28254 0.0
C689 C 0.94384 0.22102 0.30533 0.0
C690 C 0.97394 0.25565 0.27266 0.0
C691 C 0.94776 0.24824 0.31214 0.0
C692 C -0.00145 0.29897 0.26322 0.0
C693 C 0.0039 0.28357 0.20991 0.0
N694 N 0.96233 0.26468 0.29577 0.0
N695 N -0.00993 0.26811 0.22769 0.0
H696 H 0.76708 0.66117 0.97266 0.0
H697 H 0.62132 0.68915 0.03161 0.0
H698 H 0.69942 0.61545 0.94366 0.0
H699 H 0.68034 0.75129 0.01828 0.0
H700 H 0.64967 0.65766 0.00586 0.0
H701 H 0.73622 0.68867 -0.00073 0.0
C702 C 0.74585 0.65634 0.97244 0.0
C703 C 0.73586 0.63609 0.95558 0.0
C704 C 0.65611 0.67831 0.00837 0.0
C705 C 0.70039 0.66791 -0.0142 0.0
C706 C 0.63988 0.69637 0.02281 0.0
C707 C 0.64843 0.72297 0.02722 0.0
C708 C 0.68128 0.68678 -0.0011 0.0
C709 C 0.6728 0.73108 0.01546 0.0
C710 C 0.7282 0.67236 -0.01266 0.0
C711 C 0.70802 0.63096 0.95621 0.0
N712 N 0.68854 0.71296 0.00229 0.0
N713 N 0.69117 0.64692 0.97091 0.0
H714 H 0.23345 0.66641 0.02797 0.0
H715 H 0.36856 0.68069 0.94401 0.0
H716 H 0.28852 0.60058 0.01212 0.0
H717 H 0.30031 0.73245 0.92687 0.0
H718 H 0.34136 0.65612 0.97654 0.0
H719 H 0.258 0.69419 -0.00473 0.0
C720 C 0.2502 0.65753 0.01713 0.0
C721 C 0.25903 0.63113 0.02297 0.0
C722 C 0.33241 0.67304 0.96586 0.0
C723 C 0.28768 0.66312 -0.01345 0.0
C724 C 0.34805 0.68737 0.94755 0.0
C725 C 0.33666 0.70853 0.93243 0.0
C726 C 0.30521 0.68002 0.96935 0.0
C727 C 0.30992 0.71623 0.93803 0.0
C728 C 0.26436 0.67352 -0.00127 0.0
C729 C 0.28101 0.62082 0.00844 0.0
N730 N 0.29496 0.7018 0.95591 0.0
N731 N 0.29483 0.63697 -0.0087 0.0
H732 H 0.26513 0.33033 0.93318 0.0
H733 H 0.2948 0.1861 -0.00195 0.0
H734 H 0.20463 0.26939 0.94529 0.0
H735 H 0.3417 0.25545 0.02044 0.0
H736 H 0.26651 0.21524 0.97003 0.0
H737 H 0.2969 0.30284 0.95968 0.0
C738 C 0.25831 0.3115 0.94186 0.0
C739 C 0.2321 0.30219 0.93691 0.0
C740 C 0.28322 0.224 -0.01917 0.0
C741 C 0.26866 0.2703 0.96622 0.0
C742 C 0.2997 0.2073 -0.00348 0.0
C743 C 0.32056 0.21833 0.01193 0.0
C744 C 0.28779 0.25189 -0.01981 0.0
C745 C 0.32574 0.24607 0.00907 0.0
C746 C 0.27655 0.29574 0.95673 0.0
C747 C 0.22453 0.27751 0.94854 0.0
N748 N 0.30931 0.26197 -0.00629 0.0
N749 N 0.24281 0.26227 0.96226 0.0
H750 H 0.67454 0.3713 0.01586 0.0
H751 H 0.6598 0.23553 0.93102 0.0
H752 H 0.72999 0.30428 0.02397 0.0
H753 H 0.59815 0.29705 0.93713 0.0
H754 H 0.68727 0.26057 0.96316 0.0
H755 H 0.64957 0.34604 -0.01775 0.0
C756 C 0.68191 0.35154 0.01007 0.0
C757 C 0.70427 0.33982 0.023 0.0
C758 C 0.66759 0.26839 0.95767 0.0
C759 C 0.67523 0.31041 -0.015 0.0
C760 C 0.65172 0.25393 0.93959 0.0
C761 C 0.62661 0.26422 0.93126 0.0
C762 C 0.65836 0.2934 0.96729 0.0
C763 C 0.61736 0.28831 0.94289 0.0
C764 C 0.66738 0.33694 -0.00886 0.0
C765 C 0.71283 0.31411 0.01459 0.0
N766 N 0.63334 0.3022 0.96003 0.0
N767 N 0.6981 0.30011 -0.00363 0.0
H768 H 0.14774 0.31085 0.27626 0.0
H769 H 0.17488 0.1564 0.31507 0.0
H770 H 0.10706 0.24346 0.24013 0.0
H771 H 0.22605 0.222 0.33933 0.0
H772 H 0.14347 0.18916 0.29544 0.0
H773 H 0.16994 0.27954 0.30769 0.0
C774 C 0.14314 0.28956 0.27526 0.0
C775 C 0.12602 0.27962 0.25527 0.0
C776 C 0.16148 0.19637 0.30528 0.0
C777 C 0.1512 0.24387 0.29088 0.0
C778 C 0.17942 0.17767 0.31645 0.0
C779 C 0.20337 0.18644 0.32839 0.0
C780 C 0.16754 0.22398 0.30608 0.0
C781 C 0.20806 0.2143 0.32989 0.0
C782 C 0.15587 0.27171 0.29308 0.0
C783 C 0.1206 0.25189 0.25489 0.0
N784 N 0.19042 0.23207 0.31863 0.0
N785 N 0.13336 0.23495 0.27224 0.0
H786 H 0.80876 0.11983 0.32123 0.0
H787 H 0.65097 0.1425 0.34004 0.0
H788 H 0.77264 0.18154 0.37057 0.0
H789 H 0.68796 0.09603 0.27677 0.0
H790 H 0.69495 0.14474 0.36276 0.0
H791 H 0.76437 0.09873 0.31668 0.0
C792 C 0.79163 0.12843 0.33171 0.0
C793 C 0.79399 0.15273 0.34565 0.0
C794 C 0.69323 0.13354 0.34419 0.0
C795 C 0.74358 0.12911 0.34054 0.0
C796 C 0.6682 0.13226 0.33134 0.0
C797 C 0.66623 0.11976 0.30626 0.0
C798 C 0.71609 0.12204 0.33182 0.0
C799 C 0.68897 0.10655 0.29578 0.0
C800 C 0.76634 0.11653 0.32906 0.0
C801 C 0.77134 0.16312 0.35902 0.0
N802 N 0.71304 0.10834 0.30842 0.0
N803 N 0.74696 0.15151 0.35579 0.0
H804 H 0.85579 0.69168 0.27946 0.0
H805 H 0.7524 0.74933 0.38499 0.0
H806 H 0.81756 0.64315 0.34045 0.0
H807 H 0.7933 0.79849 0.32624 0.0
H808 H 0.78346 0.71236 0.37561 0.0
H809 H 0.84121 0.73231 0.30281 0.0
C810 C 0.84469 0.68964 0.29811 0.0
C811 C 0.83731 0.66413 0.30782 0.0
C812 C 0.78599 0.73131 0.36502 0.0
C813 C 0.82015 0.71053 0.33438 0.0
C814 C 0.76818 0.75241 0.37027 0.0
C815 C 0.76992 0.77672 0.35581 0.0
C816 C 0.80543 0.73436 0.34483 0.0
C817 C 0.7911 0.77991 0.33753 0.0
C818 C 0.83639 0.71284 0.31144 0.0
C819 C 0.8234 0.66249 0.33223 0.0
N820 N 0.80774 0.75871 0.33214 0.0
N821 N 0.81472 0.68547 0.34442 0.0
H822 H 0.29307 0.83282 0.29353 0.0
H823 H 0.13477 0.83899 0.3121 0.0
H824 H 0.23842 0.87788 0.24248 0.0
H825 H 0.18851 0.79029 0.36055 0.0
H826 H 0.17365 0.8641 0.29523 0.0
H827 H 0.25658 0.8271 0.32622 0.0
C828 C 0.27354 0.84179 0.28939 0.0
C829 C 0.26849 0.85504 0.26493 0.0
C830 C 0.17687 0.84835 0.31008 0.0
C831 C 0.22683 0.84874 0.30202 0.0
C832 C 0.15465 0.83421 0.31982 0.0
C833 C 0.15869 0.81221 0.3371 0.0
C834 C 0.20304 0.84015 0.31767 0.0
C835 C 0.18477 0.80678 0.34664 0.0
C836 C 0.25273 0.83861 0.30802 0.0
C837 C 0.24296 0.86672 0.26073 0.0
N838 N 0.20605 0.82027 0.33638 0.0
N839 N 0.22299 0.86295 0.27887 0.0
H840 H 0.1347 0.66058 0.66886 0.0
H841 H 0.12242 0.8179 0.64082 0.0
H842 H 0.08039 0.71459 0.7102 0.0
H843 H 0.18205 0.76545 0.60515 0.0
H844 H 0.09774 0.77803 0.65611 0.0
H845 H 0.14312 0.69615 0.63549 0.0
C846 C 0.12416 0.6797 0.67057 0.0
C847 C 0.10754 0.68504 0.69267 0.0
C848 C 0.11595 0.77527 0.64445 0.0
C849 C 0.117 0.72563 0.65495 0.0
C850 C 0.12994 0.79802 0.63569 0.0
C851 C 0.15462 0.79483 0.62247 0.0
C852 C 0.12689 0.74938 0.63993 0.0
C853 C 0.16343 0.76869 0.61602 0.0
C854 C 0.12896 0.70001 0.6516 0.0
C855 C 0.09406 0.71 0.69385 0.0
N856 N 0.14983 0.74695 0.62522 0.0
N857 N 0.09942 0.72952 0.67553 0.0
H858 H 0.31599 0.14378 0.61725 0.0
H859 H 0.157 0.16078 0.6311 0.0
H860 H 0.26775 0.10662 0.67907 0.0
H861 H 0.20651 0.20649 0.57635 0.0
H862 H 0.19556 0.13088 0.64018 0.0
H863 H 0.27448 0.15678 0.59341 0.0
C864 C 0.2967 0.13781 0.62541 0.0
C865 C 0.2951 0.12477 0.65037 0.0
C866 C 0.19782 0.14721 0.62583 0.0
C867 C 0.24788 0.13954 0.62363 0.0
C868 C 0.1758 0.16419 0.62064 0.0
C869 C 0.17887 0.18652 0.6036 0.0
C870 C 0.22288 0.1527 0.61382 0.0
C871 C 0.20356 0.18992 0.59028 0.0
C872 C 0.27304 0.14528 0.61193 0.0
C873 C 0.26971 0.11731 0.66012 0.0
N874 N 0.22473 0.17346 0.59598 0.0
N875 N 0.24708 0.12514 0.64694 0.0
H876 H 0.77584 0.19631 0.58702 0.0
H877 H 0.87707 0.29704 0.65418 0.0
H878 H 0.84251 0.17162 0.63719 0.0
H879 H 0.8046 0.32037 0.61229 0.0
H880 H 0.87394 0.25191 0.63484 0.0
H881 H 0.79509 0.24117 0.58315 0.0
C882 C 0.79481 0.20033 0.59695 0.0
C883 C 0.80731 0.18061 0.61307 0.0
C884 C 0.85923 0.26711 0.62906 0.0
C885 C 0.82924 0.23204 0.60909 0.0
C886 C 0.86119 0.29293 0.63983 0.0
C887 C 0.84104 0.31223 0.63467 0.0
C888 C 0.83668 0.26059 0.61345 0.0
C889 C 0.82058 0.30598 0.61651 0.0
C890 C 0.80583 0.22592 0.59465 0.0
C891 C 0.83213 0.1865 0.62491 0.0
N892 N 0.8186 0.28045 0.60694 0.0
N893 N 0.84202 0.212 0.62322 0.0
H894 H 0.74131 0.74575 0.61288 0.0
H895 H 0.72325 0.86788 0.71269 0.0
H896 H 0.80725 0.79271 0.64369 0.0
H897 H 0.65685 0.82405 0.67857 0.0
H898 H 0.75351 0.84664 0.68047 0.0
H899 H 0.70978 0.77951 0.6297 0.0
C900 C 0.74919 0.76331 0.623 0.0
C901 C 0.77692 0.76612 0.6275 0.0
C902 C 0.73228 0.84195 0.67968 0.0
C903 C 0.74088 0.80482 0.64686 0.0
C904 C 0.71498 0.85404 0.6981 0.0
C905 C 0.68766 0.84717 0.69865 0.0
C906 C 0.72222 0.8225 0.66199 0.0
C907 C 0.67787 0.82962 0.679 0.0
C908 C 0.73114 0.78265 0.63249 0.0
C909 C 0.78602 0.78954 0.64017 0.0
N910 N 0.69529 0.81742 0.66176 0.0
N911 N 0.76797 0.8078 0.64982 0.0
H912 H 0.3413 0.14316 0.30912 0.0
H913 H 0.32876 0.11573 0.15223 0.0
H914 H 0.28858 0.08471 0.27346 0.0
H915 H 0.36525 0.18552 0.18806 0.0
H916 H 0.32786 0.09401 0.19686 0.0
H917 H 0.36447 0.14785 0.26569 0.0
C918 C 0.33535 0.1306 0.2924 0.0
C919 C 0.31287 0.11393 0.29446 0.0
C920 C 0.33664 0.11383 0.19478 0.0
C921 C 0.33858 0.11943 0.24503 0.0
C922 C 0.33714 0.12614 0.16938 0.0
C923 C 0.34634 0.15262 0.16684 0.0
C924 C 0.34561 0.12818 0.21744 0.0
C925 C 0.35725 0.1653 0.18948 0.0
C926 C 0.34836 0.13338 0.26761 0.0
C927 C 0.30567 0.09813 0.27232 0.0
N928 N 0.35625 0.15312 0.21391 0.0
N929 N 0.31816 0.10161 0.24834 0.0
H930 H 0.82209 0.28606 0.30533 0.0
H931 H 0.79273 0.31234 0.1494 0.0
H932 H 0.85504 0.23807 0.24081 0.0
H933 H 0.75154 0.35297 0.21424 0.0
H934 H 0.82381 0.29226 0.18231 0.0
H935 H 0.80406 0.31784 0.27187 0.0
C936 C 0.82582 0.2824 0.28418 0.0
C937 C 0.83951 0.25911 0.27579 0.0
C938 C 0.80818 0.30589 0.18925 0.0
C939 C 0.81906 0.29519 0.23754 0.0
C940 C 0.79053 0.3174 0.17047 0.0
C941 C 0.7692 0.33379 0.17921 0.0
C942 C 0.80439 0.31095 0.21682 0.0
C943 C 0.76735 0.33988 0.20671 0.0
C944 C 0.81553 0.3005 0.2651 0.0
C945 C 0.84404 0.25547 0.24815 0.0
N946 N 0.78449 0.3282 0.22458 0.0
N947 N 0.83358 0.27314 0.23001 0.0
H948 H 0.63779 0.82949 0.15388 0.0
H949 H 0.62629 0.82357 0.31395 0.0
H950 H 0.58761 0.77414 0.19793 0.0
H951 H 0.69205 0.85902 0.26991 0.0
H952 H 0.60179 0.81815 0.27133 0.0
H953 H 0.64703 0.8534 0.19605 0.0
C954 C 0.62814 0.8229 0.17229 0.0
C955 C 0.6125 0.79956 0.17275 0.0
C956 C 0.62137 0.8276 0.27115 0.0
C957 C 0.62289 0.82644 0.22064 0.0
C958 C 0.63528 0.83067 0.2954 0.0
C959 C 0.66142 0.84103 0.29519 0.0
C960 C 0.6337 0.83525 0.24682 0.0
C961 C 0.67217 0.85022 0.27074 0.0
C962 C 0.63347 0.8364 0.19631 0.0
C963 C 0.60033 0.79177 0.197 0.0
N964 N 0.65841 0.84683 0.24749 0.0
N965 N 0.60608 0.80494 0.22009 0.0
H966 H 0.17895 0.64678 0.15083 0.0
H967 H 0.15112 0.67669 0.30644 0.0
H968 H 0.22638 0.61331 0.21595 0.0
H969 H 0.11293 0.71954 0.2407 0.0
H970 H 0.17326 0.64708 0.27375 0.0
H971 H 0.14895 0.66756 0.18389 0.0
C972 C 0.18294 0.64363 0.17204 0.0
C973 C 0.20542 0.62867 0.18065 0.0
C974 C 0.15984 0.66284 0.26656 0.0
C975 C 0.17128 0.65228 0.21849 0.0
C976 C 0.14717 0.67967 0.28519 0.0
C977 C 0.13057 0.70085 0.27623 0.0
C978 C 0.15568 0.66725 0.2389 0.0
C979 C 0.12598 0.70376 0.24848 0.0
C980 C 0.16583 0.65549 0.1909 0.0
C981 C 0.20952 0.62505 0.2084 0.0
N982 N 0.13864 0.68728 0.2308 0.0
N983 N 0.19272 0.63695 0.22634 0.0
H984 H 0.32271 0.79261 0.80404 0.0
H985 H 0.28987 0.81568 0.64832 0.0
H986 H 0.35719 0.74537 0.73972 0.0
H987 H 0.2486 0.85596 0.71334 0.0
H988 H 0.32176 0.79656 0.68098 0.0
H989 H 0.30238 0.8227 0.77046 0.0
C990 C 0.32624 0.78874 0.7829 0.0
C991 C 0.34116 0.76615 0.77465 0.0
C992 C 0.3059 0.80986 0.68801 0.0
C993 C 0.31803 0.80035 0.73623 0.0
C994 C 0.28777 0.8208 0.66937 0.0
C995 C 0.26626 0.83689 0.67824 0.0
C996 C 0.30241 0.81518 0.71556 0.0
C997 C 0.26455 0.84312 0.70571 0.0
C998 C 0.31464 0.8059 0.76374 0.0
C999 C 0.34536 0.76224 0.74699 0.0
N1000 N 0.2822 0.832 0.72343 0.0
N1001 N 0.33359 0.77899 0.72877 0.0
H1002 H 0.12723 0.3135 0.80901 0.0
H1003 H 0.1314 0.3276 0.64887 0.0
H1004 H 0.18231 0.36431 0.76536 0.0
H1005 H 0.09733 0.26048 0.69222 0.0
H1006 H 0.1377 0.3511 0.69186 0.0
H1007 H 0.10351 0.30434 0.76665 0.0
C1008 C 0.13384 0.32326 0.79064 0.0
C1009 C 0.15702 0.33911 0.79038 0.0
C1010 C 0.12837 0.33143 0.69182 0.0
C1011 C 0.1303 0.32886 0.74228 0.0
C1012 C 0.12479 0.3181 0.66736 0.0
C1013 C 0.11452 0.29189 0.66723 0.0
C1014 C 0.12128 0.31847 0.71602 0.0
C1015 C 0.10601 0.28044 0.69162 0.0
C1016 C 0.12044 0.31798 0.76652 0.0
C1017 C 0.16482 0.35143 0.76617 0.0
N1018 N 0.10984 0.29368 0.71508 0.0
N1019 N 0.1517 0.34576 0.74299 0.0
H1020 H 0.67464 0.14258 0.65542 0.0
H1021 H 0.64536 0.17028 0.81033 0.0
H1022 H 0.72431 0.11373 0.72098 0.0
H1023 H 0.59901 0.20464 0.74495 0.0
H1024 H 0.66773 0.1403 0.77826 0.0
H1025 H 0.64055 0.15678 0.68815 0.0
C1026 C 0.67822 0.13896 0.67663 0.0
C1027 C 0.70259 0.12763 0.68555 0.0
C1028 C 0.65233 0.15411 0.77101 0.0
C1029 C 0.66387 0.14365 0.72298 0.0
C1030 C 0.63949 0.17112 0.78935 0.0
C1031 C 0.62087 0.19043 0.78015 0.0
C1032 C 0.64649 0.15658 0.7434 0.0
C1033 C 0.61381 0.19051 0.75279 0.0
C1034 C 0.65879 0.14702 0.6953 0.0
C1035 C 0.70609 0.12304 0.71324 0.0
N1036 N 0.62695 0.17418 0.7353 0.0
N1037 N 0.6871 0.13137 0.73097 0.0
H1038 H 0.86994 0.68763 0.6972 0.0
H1039 H 0.78725 0.58784 0.78632 0.0
H1040 H 0.82119 0.62421 0.66444 0.0
H1041 H 0.84283 0.64565 0.81844 0.0
H1042 H 0.80786 0.59293 0.74205 0.0
H1043 H 0.86895 0.66543 0.741 0.0
C1044 C 0.85935 0.6687 0.69925 0.0
C1045 C 0.84509 0.65794 0.6775 0.0
C1046 C 0.81612 0.60401 0.75882 0.0
C1047 C 0.84339 0.63268 0.72767 0.0
C1048 C 0.80441 0.60105 0.78408 0.0
C1049 C 0.8133 0.61661 0.80575 0.0
C1050 C 0.83636 0.62326 0.75513 0.0
C1051 C 0.83548 0.63337 0.80209 0.0
C1052 C 0.85886 0.65598 0.72423 0.0
C1053 C 0.83217 0.6332 0.68089 0.0
N1054 N 0.84591 0.63675 0.777 0.0
N1055 N 0.83106 0.62167 0.70578 0.0
H1056 H 0.19236 0.35545 0.16693 0.0
H1057 H 0.24346 0.23113 0.08203 0.0
H1058 H 0.14019 0.30671 0.11812 0.0
H1059 H 0.29634 0.28399 0.12571 0.0
H1060 H 0.2066 0.26299 0.08872 0.0
H1061 H 0.23141 0.33502 0.14521 0.0
C1062 C 0.18918 0.34081 0.15115 0.0
C1063 C 0.16315 0.33234 0.14455 0.0
C1064 C 0.2263 0.26782 0.09661 0.0
C1065 C 0.20767 0.30842 0.12008 0.0
C1066 C 0.24736 0.24954 0.09297 0.0
C1067 C 0.27288 0.25465 0.1039 0.0
C1068 C 0.23065 0.29128 0.11157 0.0
C1069 C 0.27689 0.27909 0.11729 0.0
C1070 C 0.21147 0.32911 0.1388 0.0
C1071 C 0.16 0.31362 0.12384 0.0
N1072 N 0.25585 0.29634 0.12112 0.0
N1073 N 0.1821 0.3018 0.11269 0.0
H1074 H 0.31885 0.63021 0.80834 0.0
H1075 H 0.16146 0.64247 0.83741 0.0
H1076 H 0.28419 0.67736 0.87232 0.0
H1077 H 0.19703 0.60916 0.76559 0.0
H1078 H 0.20646 0.64328 0.85815 0.0
H1079 H 0.27483 0.60921 0.80106 0.0
C1080 C 0.30221 0.63529 0.82151 0.0
C1081 C 0.3048 0.65564 0.84067 0.0
C1082 C 0.20425 0.6354 0.83799 0.0
C1083 C 0.2546 0.63259 0.83213 0.0
C1084 C 0.17865 0.63502 0.8262 0.0
C1085 C 0.17574 0.62651 0.79955 0.0
C1086 C 0.22684 0.62697 0.823 0.0
C1087 C 0.19853 0.61666 0.78595 0.0
C1088 C 0.27705 0.62359 0.81722 0.0
C1089 C 0.28269 0.66187 0.8571 0.0
N1090 N 0.22312 0.61744 0.7977 0.0
N1091 N 0.25835 0.65077 0.85216 0.0
H1092 H 0.25588 0.24422 0.85475 0.0
H1093 H 0.35918 0.21956 0.73595 0.0
H1094 H 0.29035 0.30838 0.80736 0.0
H1095 H 0.32473 0.15599 0.78427 0.0
H1096 H 0.34093 0.25274 0.7671 0.0
H1097 H 0.2877 0.21255 0.83489 0.0
C1098 C 0.2704 0.25169 0.84032 0.0
C1099 C 0.27015 0.27881 0.83218 0.0
C1100 C 0.33764 0.23154 0.7711 0.0
C1101 C 0.30646 0.24258 0.80914 0.0
C1102 C 0.34798 0.21254 0.75327 0.0
C1103 C 0.34293 0.18497 0.7572 0.0
C1104 C 0.32196 0.22294 0.79291 0.0
C1105 C 0.32878 0.17704 0.78026 0.0
C1106 C 0.28861 0.23358 0.82904 0.0
C1107 C 0.28974 0.28755 0.81393 0.0
N1108 N 0.31842 0.196 0.79704 0.0
N1109 N 0.30685 0.26933 0.80259 0.0
H1110 H 0.63658 0.33251 0.80083 0.0
H1111 H 0.7954 0.33191 0.77446 0.0
H1112 H 0.69343 0.28071 0.84214 0.0
H1113 H 0.73728 0.37247 0.72342 0.0
H1114 H 0.75913 0.32057 0.80566 0.0
H1115 H 0.67436 0.35564 0.77907 0.0
C1116 C 0.65701 0.32646 0.80576 0.0
C1117 C 0.66203 0.30445 0.82282 0.0
C1118 C 0.75439 0.33212 0.7877 0.0
C1119 C 0.705 0.33038 0.79808 0.0
C1120 C 0.77506 0.33851 0.76986 0.0
C1121 C 0.76929 0.35271 0.74607 0.0
C1122 C 0.72781 0.34004 0.7817 0.0
C1123 C 0.74261 0.36107 0.7413 0.0
C1124 C 0.67852 0.33949 0.79325 0.0
C1125 C 0.68879 0.29732 0.82864 0.0
N1126 N 0.72282 0.35443 0.75886 0.0
N1127 N 0.70929 0.31005 0.81606 0.0
H1128 H 0.72826 0.71608 0.88538 0.0
H1129 H 0.62015 0.77156 0.78219 0.0
H1130 H 0.6821 0.66487 0.833 0.0
H1131 H 0.65877 0.82144 0.84142 0.0
H1132 H 0.63744 0.73151 0.8051 0.0
H1133 H 0.69856 0.75375 0.87412 0.0
C1134 C 0.71173 0.71271 0.8716 0.0
C1135 C 0.70796 0.68744 0.85962 0.0
C1136 C 0.64183 0.75114 0.8134 0.0
C1137 C 0.67389 0.73058 0.84661 0.0
C1138 C 0.632 0.77403 0.80031 0.0
C1139 C 0.63852 0.79978 0.80971 0.0
C1140 C 0.6587 0.75405 0.83581 0.0
C1141 C 0.65352 0.80191 0.83344 0.0
C1142 C 0.69468 0.73424 0.86531 0.0
C1143 C 0.6859 0.6841 0.84242 0.0
N1144 N 0.66357 0.77927 0.84544 0.0
N1145 N 0.66992 0.70559 0.83607 0.0
H1146 H 0.64665 0.66457 0.15431 0.0
H1147 H 0.80333 0.63414 0.17568 0.0
H1148 H 0.7106 0.70542 0.11222 0.0
H1149 H 0.74025 0.60119 0.22543 0.0
H1150 H 0.76897 0.6524 0.14521 0.0
H1151 H 0.68008 0.63328 0.17347 0.0
C1152 C 0.66763 0.66668 0.14879 0.0
C1153 C 0.67599 0.68794 0.1322 0.0
C1154 C 0.7627 0.64088 0.16264 0.0
C1155 C 0.71416 0.65248 0.15391 0.0
C1156 C 0.7823 0.63044 0.18 0.0
C1157 C 0.77461 0.61669 0.20342 0.0
C1158 C 0.73529 0.63751 0.16883 0.0
C1159 C 0.74707 0.61222 0.2079 0.0
C1160 C 0.68669 0.6489 0.15975 0.0
C1161 C 0.70337 0.68968 0.12548 0.0
N1162 N 0.7284 0.62289 0.19095 0.0
N1163 N 0.72151 0.67239 0.13659 0.0
H1164 H 0.35363 0.76676 0.19705 0.0
H1165 H 0.30084 0.67732 0.07892 0.0
H1166 H 0.32143 0.79957 0.12312 0.0
H1167 H 0.33537 0.64574 0.15213 0.0
H1168 H 0.32002 0.72138 0.08875 0.0
H1169 H 0.35791 0.72286 0.17595 0.0
C1170 C 0.34751 0.76468 0.17623 0.0
C1171 C 0.33637 0.78658 0.16198 0.0
C1172 C 0.32426 0.70468 0.10226 0.0
C1173 C 0.34112 0.73614 0.13766 0.0
C1174 C 0.31358 0.67946 0.09649 0.0
C1175 C 0.31658 0.6581 0.11485 0.0
C1176 C 0.33743 0.70857 0.12689 0.0
C1177 C 0.33281 0.66178 0.13747 0.0
C1178 C 0.35019 0.73961 0.16412 0.0
C1179 C 0.32965 0.78302 0.13489 0.0
N1180 N 0.34212 0.68681 0.14322 0.0
N1181 N 0.33157 0.75803 0.12372 0.0
H1182 H 0.62657 0.31532 0.14036 0.0
H1183 H 0.63561 0.15774 0.17156 0.0
H1184 H 0.68655 0.26162 0.10711 0.0
H1185 H 0.58423 0.21414 0.21351 0.0
H1186 H 0.64602 0.19319 0.13865 0.0
H1187 H 0.60222 0.27609 0.1576 0.0
C1188 C 0.63427 0.29527 0.1362 0.0
C1189 C 0.6589 0.29163 0.12297 0.0
C1190 C 0.63215 0.19763 0.15486 0.0
C1191 C 0.63149 0.2469 0.14268 0.0
C1192 C 0.62624 0.17742 0.17359 0.0
C1193 C 0.60968 0.18329 0.19563 0.0
C1194 C 0.62129 0.22369 0.15828 0.0
C1195 C 0.59774 0.209 0.1972 0.0
C1196 C 0.62047 0.2729 0.1461 0.0
C1197 C 0.66793 0.26526 0.11786 0.0
N1198 N 0.60405 0.22834 0.17899 0.0
N1199 N 0.65445 0.24389 0.12809 0.0
loop_
_geom_bond_atom_site_label_1
_geom_bond_atom_site_label_2
_geom_bond_distance
_geom_bond_site_symmetry_2
_ccdc_geom_bond_type
C0 O1 1.306 . S
C0 O3 1.160 . S
O1 C0 1.306 . S
O1 Cd2 2.228 . S
Cd2 O1 2.228 . S
Cd2 O6 2.273 . S
Cd2 O10 2.277 . S
O3 C0 1.160 . S
O3 Cd4 2.203 . S
Cd4 O3 2.203 . S
Cd4 O6 2.411 . S
Cd4 O7 2.333 . S
Cd4 O8 2.352 . S
Cd4 O12 2.277 . S
Cd4 O13 2.356 . S
C5 O10 1.209 . S
C5 O12 1.226 . S
O6 Cd2 2.273 . S
O6 Cd4 2.411 . S
O6 C9 1.320 . S
O7 Cd4 2.333 . S
O7 C9 1.214 . S
O8 Cd4 2.352 . S
O8 C11 1.258 . S
C9 O6 1.320 . S
C9 O7 1.214 . S
O10 Cd2 2.277 . S
O10 C5 1.209 . S
C11 O8 1.258 . S
C11 O13 1.282 . S
O12 Cd4 2.277 . S
O12 C5 1.226 . S
O13 Cd4 2.356 . S
O13 C11 1.282 . S
C14 O15 1.306 . S
C14 O17 1.160 . S
O15 C14 1.306 . S
O15 Cd16 2.228 . S
Cd16 O15 2.228 . S
Cd16 O20 2.273 . S
Cd16 O24 2.277 . S
O17 C14 1.160 . S
O17 Cd18 2.203 . S
Cd18 O17 2.203 . S
Cd18 O20 2.411 . S
Cd18 O21 2.333 . S
Cd18 O22 2.352 . S
Cd18 O26 2.277 . S
Cd18 O27 2.356 . S
C19 O24 1.209 . S
C19 O26 1.226 . S
O20 Cd16 2.273 . S
O20 Cd18 2.411 . S
O20 C23 1.320 . S
O21 Cd18 2.333 . S
O21 C23 1.214 . S
O22 Cd18 2.352 . S
O22 C25 1.258 . S
C23 O20 1.320 . S
C23 O21 1.214 . S
O24 Cd16 2.277 . S
O24 C19 1.209 . S
C25 O22 1.258 . S
C25 O27 1.282 . S
O26 Cd18 2.277 . S
O26 C19 1.226 . S
O27 Cd18 2.356 . S
O27 C25 1.282 . S
C28 O29 1.306 . S
C28 O31 1.160 . S
O29 C28 1.306 . S
O29 Cd30 2.228 . S
Cd30 O29 2.228 . S
Cd30 O34 2.273 . S
Cd30 O38 2.277 . S
O31 C28 1.160 . S
O31 Cd32 2.203 . S
Cd32 O31 2.203 . S
Cd32 O34 2.411 . S
Cd32 O35 2.333 . S
Cd32 O36 2.352 . S
Cd32 O40 2.277 . S
Cd32 O41 2.356 . S
C33 O38 1.209 . S
C33 O40 1.226 . S
O34 Cd30 2.273 . S
O34 Cd32 2.411 . S
O34 C37 1.320 . S
O35 Cd32 2.333 . S
O35 C37 1.214 . S
O36 Cd32 2.352 . S
O36 C39 1.258 . S
C37 O34 1.320 . S
C37 O35 1.214 . S
O38 Cd30 2.277 . S
O38 C33 1.209 . S
C39 O36 1.258 . S
C39 O41 1.282 . S
O40 Cd32 2.277 . S
O40 C33 1.226 . S
O41 Cd32 2.356 . S
O41 C39 1.282 . S
C42 O43 1.306 . S
C42 O45 1.160 . S
O43 C42 1.306 . S
O43 Cd44 2.228 . S
Cd44 O43 2.228 . S
Cd44 O48 2.273 . S
Cd44 O52 2.277 . S
O45 C42 1.160 . S
O45 Cd46 2.203 . S
Cd46 O45 2.203 . S
Cd46 O48 2.411 . S
Cd46 O49 2.333 . S
Cd46 O50 2.352 . S
Cd46 O54 2.277 . S
Cd46 O55 2.356 . S
C47 O52 1.209 . S
C47 O54 1.226 . S
O48 Cd44 2.273 . S
O48 Cd46 2.411 . S
O48 C51 1.320 . S
O49 Cd46 2.333 . S
O49 C51 1.214 . S
O50 Cd46 2.352 . S
O50 C53 1.258 . S
C51 O48 1.320 . S
C51 O49 1.214 . S
O52 Cd44 2.277 . S
O52 C47 1.209 . S
C53 O50 1.258 . S
C53 O55 1.282 . S
O54 Cd46 2.277 . S
O54 C47 1.226 . S
O55 Cd46 2.356 . S
O55 C53 1.282 . S
C56 O57 1.306 . S
C56 O59 1.160 . S
O57 C56 1.306 . S
O57 Cd58 2.228 . S
Cd58 O57 2.228 . S
Cd58 O62 2.273 . S
Cd58 O66 2.277 . S
O59 C56 1.160 . S
O59 Cd60 2.203 . S
Cd60 O59 2.203 . S
Cd60 O62 2.411 . S
Cd60 O63 2.333 . S
Cd60 O64 2.352 . S
Cd60 O68 2.277 . S
Cd60 O69 2.356 . S
C61 O66 1.209 . S
C61 O68 1.226 . S
O62 Cd58 2.273 . S
O62 Cd60 2.411 . S
O62 C65 1.320 . S
O63 Cd60 2.333 . S
O63 C65 1.214 . S
O64 Cd60 2.352 . S
O64 C67 1.258 . S
C65 O62 1.320 . S
C65 O63 1.214 . S
O66 Cd58 2.277 . S
O66 C61 1.209 . S
C67 O64 1.258 . S
C67 O69 1.282 . S
O68 Cd60 2.277 . S
O68 C61 1.226 . S
O69 Cd60 2.356 . S
O69 C67 1.282 . S
C70 O71 1.306 . S
C70 O73 1.160 . S
O71 C70 1.306 . S
O71 Cd72 2.228 . S
Cd72 O71 2.228 . S
Cd72 O76 2.273 . S
Cd72 O80 2.277 . S
O73 C70 1.160 . S
O73 Cd74 2.203 . S
Cd74 O73 2.203 . S
Cd74 O76 2.411 . S
Cd74 O77 2.333 . S
Cd74 O78 2.352 . S
Cd74 O82 2.277 . S
Cd74 O83 2.356 . S
C75 O80 1.209 . S
C75 O82 1.226 . S
O76 Cd72 2.273 . S
O76 Cd74 2.411 . S
O76 C79 1.320 . S
O77 Cd74 2.333 . S
O77 C79 1.214 . S
O78 Cd74 2.352 . S
O78 C81 1.258 . S
C79 O76 1.320 . S
C79 O77 1.214 . S
O80 Cd72 2.277 . S
O80 C75 1.209 . S
C81 O78 1.258 . S
C81 O83 1.282 . S
O82 Cd74 2.277 . S
O82 C75 1.226 . S
O83 Cd74 2.356 . S
O83 C81 1.282 . S
C84 O85 1.306 . S
C84 O87 1.160 . S
O85 C84 1.306 . S
O85 Cd86 2.228 . S
Cd86 O85 2.228 . S
Cd86 O90 2.273 . S
Cd86 O94 2.277 . S
O87 C84 1.160 . S
O87 Cd88 2.203 . S
Cd88 O87 2.203 . S
Cd88 O90 2.411 . S
Cd88 O91 2.333 . S
Cd88 O92 2.352 . S
Cd88 O96 2.277 . S
Cd88 O97 2.356 . S
C89 O94 1.209 . S
C89 O96 1.226 . S
O90 Cd86 2.273 . S
O90 Cd88 2.411 . S
O90 C93 1.320 . S
O91 Cd88 2.333 . S
O91 C93 1.214 . S
O92 Cd88 2.352 . S
O92 C95 1.258 . S
C93 O90 1.320 . S
C93 O91 1.214 . S
O94 Cd86 2.277 . S
O94 C89 1.209 . S
C95 O92 1.258 . S
C95 O97 1.282 . S
O96 Cd88 2.277 . S
O96 C89 1.226 . S
O97 Cd88 2.356 . S
O97 C95 1.282 . S
C98 O99 1.306 . S
C98 O101 1.160 . S
O99 C98 1.306 . S
O99 Cd100 2.228 . S
Cd100 O99 2.228 . S
Cd100 O104 2.273 . S
Cd100 O108 2.277 . S
O101 C98 1.160 . S
O101 Cd102 2.203 . S
Cd102 O101 2.203 . S
Cd102 O104 2.411 . S
Cd102 O105 2.333 . S
Cd102 O106 2.352 . S
Cd102 O110 2.277 . S
Cd102 O111 2.356 . S
C103 O108 1.209 . S
C103 O110 1.226 . S
O104 Cd100 2.273 . S
O104 Cd102 2.411 . S
O104 C107 1.320 . S
O105 Cd102 2.333 . S
O105 C107 1.214 . S
O106 Cd102 2.352 . S
O106 C109 1.258 . S
C107 O104 1.320 . S
C107 O105 1.214 . S
O108 Cd100 2.277 . S
O108 C103 1.209 . S
C109 O106 1.258 . S
C109 O111 1.282 . S
O110 Cd102 2.277 . S
O110 C103 1.226 . S
O111 Cd102 2.356 . S
O111 C109 1.282 . S
C112 O113 1.306 . S
C112 O115 1.160 . S
O113 C112 1.306 . S
O113 Cd114 2.228 . S
Cd114 O113 2.228 . S
Cd114 O118 2.273 . S
Cd114 O122 2.277 . S
O115 C112 1.160 . S
O115 Cd116 2.203 . S
Cd116 O115 2.203 . S
Cd116 O118 2.411 . S
Cd116 O119 2.333 . S
Cd116 O120 2.352 . S
Cd116 O124 2.277 . S
Cd116 O125 2.356 . S
C117 O122 1.209 . S
C117 O124 1.226 . S
O118 Cd114 2.273 . S
O118 Cd116 2.411 . S
O118 C121 1.320 . S
O119 Cd116 2.333 . S
O119 C121 1.214 . S
O120 Cd116 2.352 . S
O120 C123 1.258 . S
C121 O118 1.320 . S
C121 O119 1.214 . S
O122 Cd114 2.277 . S
O122 C117 1.209 . S
C123 O120 1.258 . S
C123 O125 1.282 . S
O124 Cd116 2.277 . S
O124 C117 1.226 . S
O125 Cd116 2.356 . S
O125 C123 1.282 . S
C126 O127 1.306 . S
C126 O129 1.160 . S
O127 C126 1.306 . S
O127 Cd128 2.228 . S
Cd128 O127 2.228 . S
Cd128 O132 2.273 . S
Cd128 O136 2.277 . S
O129 C126 1.160 . S
O129 Cd130 2.203 . S
Cd130 O129 2.203 . S
Cd130 O132 2.411 . S
Cd130 O133 2.333 . S
Cd130 O134 2.352 . S
Cd130 O138 2.277 . S
Cd130 O139 2.356 . S
C131 O136 1.209 . S
C131 O138 1.226 . S
O132 Cd128 2.273 . S
O132 Cd130 2.411 . S
O132 C135 1.320 . S
O133 Cd130 2.333 . S
O133 C135 1.214 . S
O134 Cd130 2.352 . S
O134 C137 1.258 . S
C135 O132 1.320 . S
C135 O133 1.214 . S
O136 Cd128 2.277 . S
O136 C131 1.209 . S
C137 O134 1.258 . S
C137 O139 1.282 . S
O138 Cd130 2.277 . S
O138 C131 1.226 . S
O139 Cd130 2.356 . S
O139 C137 1.282 . S
C140 O141 1.306 . S
C140 O143 1.160 . S
O141 C140 1.306 . S
O141 Cd142 2.228 . S
Cd142 O141 2.228 . S
Cd142 O146 2.273 . S
Cd142 O150 2.277 . S
O143 C140 1.160 . S
O143 Cd144 2.203 . S
Cd144 O143 2.203 . S
Cd144 O146 2.411 . S
Cd144 O147 2.333 . S
Cd144 O148 2.352 . S
Cd144 O152 2.277 . S
Cd144 O153 2.356 . S
C145 O150 1.209 . S
C145 O152 1.226 . S
O146 Cd142 2.273 . S
O146 Cd144 2.411 . S
O146 C149 1.320 . S
O147 Cd144 2.333 . S
O147 C149 1.214 . S
O148 Cd144 2.352 . S
O148 C151 1.258 . S
C149 O146 1.320 . S
C149 O147 1.214 . S
O150 Cd142 2.277 . S
O150 C145 1.209 . S
C151 O148 1.258 . S
C151 O153 1.282 . S
O152 Cd144 2.277 . S
O152 C145 1.226 . S
O153 Cd144 2.356 . S
O153 C151 1.282 . S
C154 O155 1.306 . S
C154 O157 1.160 . S
O155 C154 1.306 . S
O155 Cd156 2.228 . S
Cd156 O155 2.228 . S
Cd156 O160 2.273 . S
Cd156 O164 2.277 . S
O157 C154 1.160 . S
O157 Cd158 2.203 . S
Cd158 O157 2.203 . S
Cd158 O160 2.411 . S
Cd158 O161 2.333 . S
Cd158 O162 2.352 . S
Cd158 O166 2.277 . S
Cd158 O167 2.356 . S
C159 O164 1.209 . S
C159 O166 1.226 . S
O160 Cd156 2.273 . S
O160 Cd158 2.411 . S
O160 C163 1.320 . S
O161 Cd158 2.333 . S
O161 C163 1.214 . S
O162 Cd158 2.352 . S
O162 C165 1.258 . S
C163 O160 1.320 . S
C163 O161 1.214 . S
O164 Cd156 2.277 . S
O164 C159 1.209 . S
C165 O162 1.258 . S
C165 O167 1.282 . S
O166 Cd158 2.277 . S
O166 C159 1.226 . S
O167 Cd158 2.356 . S
O167 C165 1.282 . S
C168 O169 1.306 . S
C168 O171 1.160 . S
O169 C168 1.306 . S
O169 Cd170 2.228 . S
Cd170 O169 2.228 . S
Cd170 O174 2.273 . S
Cd170 O178 2.277 . S
O171 C168 1.160 . S
O171 Cd172 2.203 . S
Cd172 O171 2.203 . S
Cd172 O174 2.411 . S
Cd172 O175 2.333 . S
Cd172 O176 2.352 . S
Cd172 O180 2.277 . S
Cd172 O181 2.356 . S
C173 O178 1.209 . S
C173 O180 1.226 . S
O174 Cd170 2.273 . S
O174 Cd172 2.411 . S
O174 C177 1.320 . S
O175 Cd172 2.333 . S
O175 C177 1.214 . S
O176 Cd172 2.352 . S
O176 C179 1.258 . S
C177 O174 1.320 . S
C177 O175 1.214 . S
O178 Cd170 2.277 . S
O178 C173 1.209 . S
C179 O176 1.258 . S
C179 O181 1.282 . S
O180 Cd172 2.277 . S
O180 C173 1.226 . S
O181 Cd172 2.356 . S
O181 C179 1.282 . S
C182 O183 1.306 . S
C182 O185 1.160 . S
O183 C182 1.306 . S
O183 Cd184 2.228 . S
Cd184 O183 2.228 . S
Cd184 O188 2.273 . S
Cd184 O192 2.277 . S
O185 C182 1.160 . S
O185 Cd186 2.203 . S
Cd186 O185 2.203 . S
Cd186 O188 2.411 . S
Cd186 O189 2.333 . S
Cd186 O190 2.352 . S
Cd186 O194 2.277 . S
Cd186 O195 2.356 . S
C187 O192 1.209 . S
C187 O194 1.226 . S
O188 Cd184 2.273 . S
O188 Cd186 2.411 . S
O188 C191 1.320 . S
O189 Cd186 2.333 . S
O189 C191 1.214 . S
O190 Cd186 2.352 . S
O190 C193 1.258 . S
C191 O188 1.320 . S
C191 O189 1.214 . S
O192 Cd184 2.277 . S
O192 C187 1.209 . S
C193 O190 1.258 . S
C193 O195 1.282 . S
O194 Cd186 2.277 . S
O194 C187 1.226 . S
O195 Cd186 2.356 . S
O195 C193 1.282 . S
C196 O197 1.306 . S
C196 O199 1.160 . S
O197 C196 1.306 . S
O197 Cd198 2.228 . S
Cd198 O197 2.228 . S
Cd198 O202 2.273 . S
Cd198 O206 2.277 . S
O199 C196 1.160 . S
O199 Cd200 2.203 . S
Cd200 O199 2.203 . S
Cd200 O202 2.411 . S
Cd200 O203 2.333 . S
Cd200 O204 2.352 . S
Cd200 O208 2.277 . S
Cd200 O209 2.356 . S
C201 O206 1.209 . S
C201 O208 1.226 . S
O202 Cd198 2.273 . S
O202 Cd200 2.411 . S
O202 C205 1.320 . S
O203 Cd200 2.333 . S
O203 C205 1.214 . S
O204 Cd200 2.352 . S
O204 C207 1.258 . S
C205 O202 1.320 . S
C205 O203 1.214 . S
O206 Cd198 2.277 . S
O206 C201 1.209 . S
C207 O204 1.258 . S
C207 O209 1.282 . S
O208 Cd200 2.277 . S
O208 C201 1.226 . S
O209 Cd200 2.356 . S
O209 C207 1.282 . S
C210 O211 1.306 . S
C210 O213 1.160 . S
O211 C210 1.306 . S
O211 Cd212 2.228 . S
Cd212 O211 2.228 . S
Cd212 O216 2.273 . S
Cd212 O220 2.277 . S
O213 C210 1.160 . S
O213 Cd214 2.203 . S
Cd214 O213 2.203 . S
Cd214 O216 2.411 . S
Cd214 O217 2.333 . S
Cd214 O218 2.352 . S
Cd214 O222 2.277 . S
Cd214 O223 2.356 . S
C215 O220 1.209 . S
C215 O222 1.226 . S
O216 Cd212 2.273 . S
O216 Cd214 2.411 . S
O216 C219 1.320 . S
O217 Cd214 2.333 . S
O217 C219 1.214 . S
O218 Cd214 2.352 . S
O218 C221 1.258 . S
C219 O216 1.320 . S
C219 O217 1.214 . S
O220 Cd212 2.277 . S
O220 C215 1.209 . S
C221 O218 1.258 . S
C221 O223 1.282 . S
O222 Cd214 2.277 . S
O222 C215 1.226 . S
O223 Cd214 2.356 . S
O223 C221 1.282 . S
C224 O225 1.306 . S
C224 O227 1.160 . S
O225 C224 1.306 . S
O225 Cd226 2.228 . S
Cd226 O225 2.228 . S
Cd226 O230 2.273 . S
Cd226 O234 2.277 . S
O227 C224 1.160 . S
O227 Cd228 2.203 . S
Cd228 O227 2.203 . S
Cd228 O230 2.411 . S
Cd228 O231 2.333 . S
Cd228 O232 2.352 . S
Cd228 O236 2.277 . S
Cd228 O237 2.356 . S
C229 O234 1.209 . S
C229 O236 1.226 . S
O230 Cd226 2.273 . S
O230 Cd228 2.411 . S
O230 C233 1.320 . S
O231 Cd228 2.333 . S
O231 C233 1.214 . S
O232 Cd228 2.352 . S
O232 C235 1.258 . S
C233 O230 1.320 . S
C233 O231 1.214 . S
O234 Cd226 2.277 . S
O234 C229 1.209 . S
C235 O232 1.258 . S
C235 O237 1.282 . S
O236 Cd228 2.277 . S
O236 C229 1.226 . S
O237 Cd228 2.356 . S
O237 C235 1.282 . S
C238 O239 1.306 . S
C238 O241 1.160 . S
O239 C238 1.306 . S
O239 Cd240 2.228 . S
Cd240 O239 2.228 . S
Cd240 O244 2.273 . S
Cd240 O248 2.277 . S
O241 C238 1.160 . S
O241 Cd242 2.203 . S
Cd242 O241 2.203 . S
Cd242 O244 2.411 . S
Cd242 O245 2.333 . S
Cd242 O246 2.352 . S
Cd242 O250 2.277 . S
Cd242 O251 2.356 . S
C243 O248 1.209 . S
C243 O250 1.226 . S
O244 Cd240 2.273 . S
O244 Cd242 2.411 . S
O244 C247 1.320 . S
O245 Cd242 2.333 . S
O245 C247 1.214 . S
O246 Cd242 2.352 . S
O246 C249 1.258 . S
C247 O244 1.320 . S
C247 O245 1.214 . S
O248 Cd240 2.277 . S
O248 C243 1.209 . S
C249 O246 1.258 . S
C249 O251 1.282 . S
O250 Cd242 2.277 . S
O250 C243 1.226 . S
O251 Cd242 2.356 . S
O251 C249 1.282 . S
C252 O253 1.306 . S
C252 O255 1.160 . S
O253 C252 1.306 . S
O253 Cd254 2.228 . S
Cd254 O253 2.228 . S
Cd254 O258 2.273 . S
Cd254 O262 2.277 . S
O255 C252 1.160 . S
O255 Cd256 2.203 . S
Cd256 O255 2.203 . S
Cd256 O258 2.411 . S
Cd256 O259 2.333 . S
Cd256 O260 2.352 . S
Cd256 O264 2.277 . S
Cd256 O265 2.356 . S
C257 O262 1.209 . S
C257 O264 1.226 . S
O258 Cd254 2.273 . S
O258 Cd256 2.411 . S
O258 C261 1.320 . S
O259 Cd256 2.333 . S
O259 C261 1.214 . S
O260 Cd256 2.352 . S
O260 C263 1.258 . S
C261 O258 1.320 . S
C261 O259 1.214 . S
O262 Cd254 2.277 . S
O262 C257 1.209 . S
C263 O260 1.258 . S
C263 O265 1.282 . S
O264 Cd256 2.277 . S
O264 C257 1.226 . S
O265 Cd256 2.356 . S
O265 C263 1.282 . S
C266 O267 1.306 . S
C266 O269 1.160 . S
O267 C266 1.306 . S
O267 Cd268 2.228 . S
Cd268 O267 2.228 . S
Cd268 O272 2.273 . S
Cd268 O276 2.277 . S
O269 C266 1.160 . S
O269 Cd270 2.203 . S
Cd270 O269 2.203 . S
Cd270 O272 2.411 . S
Cd270 O273 2.333 . S
Cd270 O274 2.352 . S
Cd270 O278 2.277 . S
Cd270 O279 2.356 . S
C271 O276 1.209 . S
C271 O278 1.226 . S
O272 Cd268 2.273 . S
O272 Cd270 2.411 . S
O272 C275 1.320 . S
O273 Cd270 2.333 . S
O273 C275 1.214 . S
O274 Cd270 2.352 . S
O274 C277 1.258 . S
C275 O272 1.320 . S
C275 O273 1.214 . S
O276 Cd268 2.277 . S
O276 C271 1.209 . S
C277 O274 1.258 . S
C277 O279 1.282 . S
O278 Cd270 2.277 . S
O278 C271 1.226 . S
O279 Cd270 2.356 . S
O279 C277 1.282 . S
C280 O281 1.306 . S
C280 O283 1.160 . S
O281 C280 1.306 . S
O281 Cd282 2.228 . S
Cd282 O281 2.228 . S
Cd282 O286 2.273 . S
Cd282 O290 2.277 . S
O283 C280 1.160 . S
O283 Cd284 2.203 . S
Cd284 O283 2.203 . S
Cd284 O286 2.411 . S
Cd284 O287 2.333 . S
Cd284 O288 2.352 . S
Cd284 O292 2.277 . S
Cd284 O293 2.356 . S
C285 O290 1.209 . S
C285 O292 1.226 . S
O286 Cd282 2.273 . S
O286 Cd284 2.411 . S
O286 C289 1.320 . S
O287 Cd284 2.333 . S
O287 C289 1.214 . S
O288 Cd284 2.352 . S
O288 C291 1.258 . S
C289 O286 1.320 . S
C289 O287 1.214 . S
O290 Cd282 2.277 . S
O290 C285 1.209 . S
C291 O288 1.258 . S
C291 O293 1.282 . S
O292 Cd284 2.277 . S
O292 C285 1.226 . S
O293 Cd284 2.356 . S
O293 C291 1.282 . S
C294 O295 1.306 . S
C294 O297 1.160 . S
O295 C294 1.306 . S
O295 Cd296 2.228 . S
Cd296 O295 2.228 . S
Cd296 O300 2.273 . S
Cd296 O304 2.277 . S
O297 C294 1.160 . S
O297 Cd298 2.203 . S
Cd298 O297 2.203 . S
Cd298 O300 2.411 . S
Cd298 O301 2.333 . S
Cd298 O302 2.352 . S
Cd298 O306 2.277 . S
Cd298 O307 2.356 . S
C299 O304 1.209 . S
C299 O306 1.226 . S
O300 Cd296 2.273 . S
O300 Cd298 2.411 . S
O300 C303 1.320 . S
O301 Cd298 2.333 . S
O301 C303 1.214 . S
O302 Cd298 2.352 . S
O302 C305 1.258 . S
C303 O300 1.320 . S
C303 O301 1.214 . S
O304 Cd296 2.277 . S
O304 C299 1.209 . S
C305 O302 1.258 . S
C305 O307 1.282 . S
O306 Cd298 2.277 . S
O306 C299 1.226 . S
O307 Cd298 2.356 . S
O307 C305 1.282 . S
C308 O309 1.306 . S
C308 O311 1.160 . S
O309 C308 1.306 . S
O309 Cd310 2.228 . S
Cd310 O309 2.228 . S
Cd310 O314 2.273 . S
Cd310 O318 2.277 . S
O311 C308 1.160 . S
O311 Cd312 2.203 . S
Cd312 O311 2.203 . S
Cd312 O314 2.411 . S
Cd312 O315 2.333 . S
Cd312 O316 2.352 . S
Cd312 O320 2.277 . S
Cd312 O321 2.356 . S
C313 O318 1.209 . S
C313 O320 1.226 . S
O314 Cd310 2.273 . S
O314 Cd312 2.411 . S
O314 C317 1.320 . S
O315 Cd312 2.333 . S
O315 C317 1.214 . S
O316 Cd312 2.352 . S
O316 C319 1.258 . S
C317 O314 1.320 . S
C317 O315 1.214 . S
O318 Cd310 2.277 . S
O318 C313 1.209 . S
C319 O316 1.258 . S
C319 O321 1.282 . S
O320 Cd312 2.277 . S
O320 C313 1.226 . S
O321 Cd312 2.356 . S
O321 C319 1.282 . S
C322 O323 1.306 . S
C322 O325 1.160 . S
O323 C322 1.306 . S
O323 Cd324 2.228 . S
Cd324 O323 2.228 . S
Cd324 O328 2.273 . S
Cd324 O332 2.277 . S
O325 C322 1.160 . S
O325 Cd326 2.203 . S
Cd326 O325 2.203 . S
Cd326 O328 2.411 . S
Cd326 O329 2.333 . S
Cd326 O330 2.352 . S
Cd326 O334 2.277 . S
Cd326 O335 2.356 . S
C327 O332 1.209 . S
C327 O334 1.226 . S
O328 Cd324 2.273 . S
O328 Cd326 2.411 . S
O328 C331 1.320 . S
O329 Cd326 2.333 . S
O329 C331 1.214 . S
O330 Cd326 2.352 . S
O330 C333 1.258 . S
C331 O328 1.320 . S
C331 O329 1.214 . S
O332 Cd324 2.277 . S
O332 C327 1.209 . S
C333 O330 1.258 . S
C333 O335 1.282 . S
O334 Cd326 2.277 . S
O334 C327 1.226 . S
O335 Cd326 2.356 . S
O335 C333 1.282 . S
H336 C342 0.930 . S
H337 C346 0.930 . S
H338 C351 0.929 . S
H339 C349 0.929 . S
H340 C344 0.929 . S
H341 C350 0.929 . S
C342 H336 0.930 . S
C342 C343 1.367 . S
C342 C350 1.378 . S
C343 C342 1.367 . S
C343 C351 1.433 . S
C344 H340 0.929 . S
C344 C346 1.378 . S
C344 C348 1.350 . S
C345 C348 1.463 . S
C345 C350 1.350 . S
C345 N353 1.427 . S
C346 H337 0.930 . S
C346 C344 1.378 . S
C346 C347 1.367 . S
C347 C346 1.367 . S
C347 C349 1.433 . S
C348 C344 1.350 . S
C348 C345 1.463 . S
C348 N352 1.427 . S
C349 H339 0.929 . S
C349 C347 1.433 . S
C349 N352 1.384 . S
C350 H341 0.929 . S
C350 C342 1.378 . S
C350 C345 1.350 . S
C351 H338 0.929 . S
C351 C343 1.433 . S
C351 N353 1.384 . S
N352 C348 1.427 . S
N352 C349 1.384 . S
N353 C345 1.427 . S
N353 C351 1.384 . S
H354 C360 0.930 . S
H355 C364 0.930 . S
H356 C369 0.929 . S
H357 C367 0.929 . S
H358 C362 0.929 . S
H359 C368 0.929 . S
C360 H354 0.930 . S
C360 C361 1.367 . S
C360 C368 1.378 . S
C361 C360 1.367 . S
C361 C369 1.433 . S
C362 H358 0.929 . S
C362 C364 1.378 . S
C362 C366 1.350 . S
C363 C366 1.463 . S
C363 C368 1.350 . S
C363 N371 1.427 . S
C364 H355 0.930 . S
C364 C362 1.378 . S
C364 C365 1.367 . S
C365 C364 1.367 . S
C365 C367 1.433 . S
C366 C362 1.350 . S
C366 C363 1.463 . S
C366 N370 1.427 . S
C367 H357 0.929 . S
C367 C365 1.433 . S
C367 N370 1.384 . S
C368 H359 0.929 . S
C368 C360 1.378 . S
C368 C363 1.350 . S
C369 H356 0.929 . S
C369 C361 1.433 . S
C369 N371 1.384 . S
N370 C366 1.427 . S
N370 C367 1.384 . S
N371 C363 1.427 . S
N371 C369 1.384 . S
H372 C378 0.930 . S
H373 C382 0.930 . S
H374 C387 0.929 . S
H375 C385 0.929 . S
H376 C380 0.929 . S
H377 C386 0.929 . S
C378 H372 0.930 . S
C378 C379 1.367 . S
C378 C386 1.378 . S
C379 C378 1.367 . S
C379 C387 1.433 . S
C380 H376 0.929 . S
C380 C382 1.378 . S
C380 C384 1.350 . S
C381 C384 1.463 . S
C381 C386 1.350 . S
C381 N389 1.427 . S
C382 H373 0.930 . S
C382 C380 1.378 . S
C382 C383 1.367 . S
C383 C382 1.367 . S
C383 C385 1.433 . S
C384 C380 1.350 . S
C384 C381 1.463 . S
C384 N388 1.427 . S
C385 H375 0.929 . S
C385 C383 1.433 . S
C385 N388 1.384 . S
C386 H377 0.929 . S
C386 C378 1.378 . S
C386 C381 1.350 . S
C387 H374 0.929 . S
C387 C379 1.433 . S
C387 N389 1.384 . S
N388 C384 1.427 . S
N388 C385 1.384 . S
N389 C381 1.427 . S
N389 C387 1.384 . S
H390 C396 0.930 . S
H391 C400 0.930 . S
H392 C405 0.929 . S
H393 C403 0.929 . S
H394 C398 0.929 . S
H395 C404 0.929 . S
C396 H390 0.930 . S
C396 C397 1.367 . S
C396 C404 1.378 . S
C397 C396 1.367 . S
C397 C405 1.433 . S
C398 H394 0.929 . S
C398 C400 1.378 . S
C398 C402 1.350 . S
C399 C402 1.463 . S
C399 C404 1.350 . S
C399 N407 1.427 . S
C400 H391 0.930 . S
C400 C398 1.378 . S
C400 C401 1.367 . S
C401 C400 1.367 . S
C401 C403 1.433 . S
C402 C398 1.350 . S
C402 C399 1.463 . S
C402 N406 1.427 . S
C403 H393 0.929 . S
C403 C401 1.433 . S
C403 N406 1.384 . S
C404 H395 0.929 . S
C404 C396 1.378 . S
C404 C399 1.350 . S
C405 H392 0.929 . S
C405 C397 1.433 . S
C405 N407 1.384 . S
N406 C402 1.427 . S
N406 C403 1.384 . S
N407 C399 1.427 . S
N407 C405 1.384 . S
H408 C414 0.930 . S
H409 C418 0.930 . S
H410 C423 0.929 . S
H411 C421 0.929 . S
H412 C416 0.929 . S
H413 C422 0.929 . S
C414 H408 0.930 . S
C414 C415 1.367 . S
C414 C422 1.378 . S
C415 C414 1.367 . S
C415 C423 1.433 . S
C416 H412 0.929 . S
C416 C418 1.378 . S
C416 C420 1.350 . S
C417 C420 1.463 . S
C417 C422 1.350 . S
C417 N425 1.427 . S
C418 H409 0.930 . S
C418 C416 1.378 . S
C418 C419 1.367 . S
C419 C418 1.367 . S
C419 C421 1.433 . S
C420 C416 1.350 . S
C420 C417 1.463 . S
C420 N424 1.427 . S
C421 H411 0.929 . S
C421 C419 1.433 . S
C421 N424 1.384 . S
C422 H413 0.929 . S
C422 C414 1.378 . S
C422 C417 1.350 . S
C423 H410 0.929 . S
C423 C415 1.433 . S
C423 N425 1.384 . S
N424 C420 1.427 . S
N424 C421 1.384 . S
N425 C417 1.427 . S
N425 C423 1.384 . S
H426 C432 0.930 . S
H427 C436 0.930 . S
H428 C441 0.929 . S
H429 C439 0.929 . S
H430 C434 0.929 . S
H431 C440 0.929 . S
C432 H426 0.930 . S
C432 C433 1.367 . S
C432 C440 1.378 . S
C433 C432 1.367 . S
C433 C441 1.433 . S
C434 H430 0.929 . S
C434 C436 1.378 . S
C434 C438 1.350 . S
C435 C438 1.463 . S
C435 C440 1.350 . S
C435 N443 1.427 . S
C436 H427 0.930 . S
C436 C434 1.378 . S
C436 C437 1.367 . S
C437 C436 1.367 . S
C437 C439 1.433 . S
C438 C434 1.350 . S
C438 C435 1.463 . S
C438 N442 1.427 . S
C439 H429 0.929 . S
C439 C437 1.433 . S
C439 N442 1.384 . S
C440 H431 0.929 . S
C440 C432 1.378 . S
C440 C435 1.350 . S
C441 H428 0.929 . S
C441 C433 1.433 . S
C441 N443 1.384 . S
N442 C438 1.427 . S
N442 C439 1.384 . S
N443 C435 1.427 . S
N443 C441 1.384 . S
H444 C450 0.930 . S
H445 C454 0.930 . S
H446 C459 0.929 . S
H447 C457 0.929 . S
H448 C452 0.929 . S
H449 C458 0.929 . S
C450 H444 0.930 . S
C450 C451 1.367 . S
C450 C458 1.378 . S
C451 C450 1.367 . S
C451 C459 1.433 . S
C452 H448 0.929 . S
C452 C454 1.378 . S
C452 C456 1.350 . S
C453 C456 1.463 . S
C453 C458 1.350 . S
C453 N461 1.427 . S
C454 H445 0.930 . S
C454 C452 1.378 . S
C454 C455 1.367 . S
C455 C454 1.367 . S
C455 C457 1.433 . S
C456 C452 1.350 . S
C456 C453 1.463 . S
C456 N460 1.427 . S
C457 H447 0.929 . S
C457 C455 1.433 . S
C457 N460 1.384 . S
C458 H449 0.929 . S
C458 C450 1.378 . S
C458 C453 1.350 . S
C459 H446 0.929 . S
C459 C451 1.433 . S
C459 N461 1.384 . S
N460 C456 1.427 . S
N460 C457 1.384 . S
N461 C453 1.427 . S
N461 C459 1.384 . S
H462 C468 0.930 . S
H463 C472 0.930 . S
H464 C477 0.929 . S
H465 C475 0.929 . S
H466 C470 0.929 . S
H467 C476 0.929 . S
C468 H462 0.930 . S
C468 C469 1.367 . S
C468 C476 1.378 . S
C469 C468 1.367 . S
C469 C477 1.433 . S
C470 H466 0.929 . S
C470 C472 1.378 . S
C470 C474 1.350 . S
C471 C474 1.463 . S
C471 C476 1.350 . S
C471 N479 1.427 . S
C472 H463 0.930 . S
C472 C470 1.378 . S
C472 C473 1.367 . S
C473 C472 1.367 . S
C473 C475 1.433 . S
C474 C470 1.350 . S
C474 C471 1.463 . S
C474 N478 1.427 . S
C475 H465 0.929 . S
C475 C473 1.433 . S
C475 N478 1.384 . S
C476 H467 0.929 . S
C476 C468 1.378 . S
C476 C471 1.350 . S
C477 H464 0.929 . S
C477 C469 1.433 . S
C477 N479 1.384 . S
N478 C474 1.427 . S
N478 C475 1.384 . S
N479 C471 1.427 . S
N479 C477 1.384 . S
H480 C486 0.930 . S
H481 C490 0.930 . S
H482 C495 0.929 . S
H483 C493 0.929 . S
H484 C488 0.929 . S
H485 C494 0.929 . S
C486 H480 0.930 . S
C486 C487 1.367 . S
C486 C494 1.378 . S
C487 C486 1.367 . S
C487 C495 1.433 . S
C488 H484 0.929 . S
C488 C490 1.378 . S
C488 C492 1.350 . S
C489 C492 1.463 . S
C489 C494 1.350 . S
C489 N497 1.427 . S
C490 H481 0.930 . S
C490 C488 1.378 . S
C490 C491 1.367 . S
C491 C490 1.367 . S
C491 C493 1.433 . S
C492 C488 1.350 . S
C492 C489 1.463 . S
C492 N496 1.427 . S
C493 H483 0.929 . S
C493 C491 1.433 . S
C493 N496 1.384 . S
C494 H485 0.929 . S
C494 C486 1.378 . S
C494 C489 1.350 . S
C495 H482 0.929 . S
C495 C487 1.433 . S
C495 N497 1.384 . S
N496 C492 1.427 . S
N496 C493 1.384 . S
N497 C489 1.427 . S
N497 C495 1.384 . S
H498 C504 0.930 . S
H499 C508 0.930 . S
H500 C513 0.929 . S
H501 C511 0.929 . S
H502 C506 0.929 . S
H503 C512 0.929 . S
C504 H498 0.930 . S
C504 C505 1.367 . S
C504 C512 1.378 . S
C505 C504 1.367 . S
C505 C513 1.433 . S
C506 H502 0.929 . S
C506 C508 1.378 . S
C506 C510 1.350 . S
C507 C510 1.463 . S
C507 C512 1.350 . S
C507 N515 1.427 . S
C508 H499 0.930 . S
C508 C506 1.378 . S
C508 C509 1.367 . S
C509 C508 1.367 . S
C509 C511 1.433 . S
C510 C506 1.350 . S
C510 C507 1.463 . S
C510 N514 1.427 . S
C511 H501 0.929 . S
C511 C509 1.433 . S
C511 N514 1.384 . S
C512 H503 0.929 . S
C512 C504 1.378 . S
C512 C507 1.350 . S
C513 H500 0.929 . S
C513 C505 1.433 . S
C513 N515 1.384 . S
N514 C510 1.427 . S
N514 C511 1.384 . S
N515 C507 1.427 . S
N515 C513 1.384 . S
H516 C522 0.930 . S
H517 C526 0.930 . S
H518 C531 0.929 . S
H519 C529 0.929 . S
H520 C524 0.929 . S
H521 C530 0.929 . S
C522 H516 0.930 . S
C522 C523 1.367 . S
C522 C530 1.378 . S
C523 C522 1.367 . S
C523 C531 1.433 . S
C524 H520 0.929 . S
C524 C526 1.378 . S
C524 C528 1.350 . S
C525 C528 1.463 . S
C525 C530 1.350 . S
C525 N533 1.427 . S
C526 H517 0.930 . S
C526 C524 1.378 . S
C526 C527 1.367 . S
C527 C526 1.367 . S
C527 C529 1.433 . S
C528 C524 1.350 . S
C528 C525 1.463 . S
C528 N532 1.427 . S
C529 H519 0.929 . S
C529 C527 1.433 . S
C529 N532 1.384 . S
C530 H521 0.929 . S
C530 C522 1.378 . S
C530 C525 1.350 . S
C531 H518 0.929 . S
C531 C523 1.433 . S
C531 N533 1.384 . S
N532 C528 1.427 . S
N532 C529 1.384 . S
N533 C525 1.427 . S
N533 C531 1.384 . S
H534 C540 0.930 . S
H535 C544 0.930 . S
H536 C549 0.929 . S
H537 C547 0.929 . S
H538 C542 0.929 . S
H539 C548 0.929 . S
C540 H534 0.930 . S
C540 C541 1.367 . S
C540 C548 1.378 . S
C541 C540 1.367 . S
C541 C549 1.433 . S
C542 H538 0.929 . S
C542 C544 1.378 . S
C542 C546 1.350 . S
C543 C546 1.463 . S
C543 C548 1.350 . S
C543 N551 1.427 . S
C544 H535 0.930 . S
C544 C542 1.378 . S
C544 C545 1.367 . S
C545 C544 1.367 . S
C545 C547 1.433 . S
C546 C542 1.350 . S
C546 C543 1.463 . S
C546 N550 1.427 . S
C547 H537 0.929 . S
C547 C545 1.433 . S
C547 N550 1.384 . S
C548 H539 0.929 . S
C548 C540 1.378 . S
C548 C543 1.350 . S
C549 H536 0.929 . S
C549 C541 1.433 . S
C549 N551 1.384 . S
N550 C546 1.427 . S
N550 C547 1.384 . S
N551 C543 1.427 . S
N551 C549 1.384 . S
H552 C558 0.930 . S
H553 C562 0.930 . S
H554 C567 0.929 . S
H555 C565 0.929 . S
H556 C560 0.929 . S
H557 C566 0.929 . S
C558 H552 0.930 . S
C558 C559 1.367 . S
C558 C566 1.378 . S
C559 C558 1.367 . S
C559 C567 1.433 . S
C560 H556 0.929 . S
C560 C562 1.378 . S
C560 C564 1.350 . S
C561 C564 1.463 1_565 S
C561 C566 1.350 . S
C561 N569 1.427 . S
C562 H553 0.930 . S
C562 C560 1.378 . S
C562 C563 1.367 . S
C563 C562 1.367 . S
C563 C565 1.433 . S
C564 C560 1.350 . S
C564 C561 1.463 1_545 S
C564 N568 1.427 . S
C565 H555 0.929 . S
C565 C563 1.433 . S
C565 N568 1.384 . S
C566 H557 0.929 . S
C566 C558 1.378 . S
C566 C561 1.350 . S
C567 H554 0.929 . S
C567 C559 1.433 . S
C567 N569 1.384 . S
N568 C564 1.427 . S
N568 C565 1.384 . S
N569 C561 1.427 . S
N569 C567 1.384 . S
H570 C576 0.930 . S
H571 C580 0.930 . S
H572 C585 0.929 . S
H573 C583 0.929 . S
H574 C578 0.929 . S
H575 C584 0.929 . S
C576 H570 0.930 . S
C576 C577 1.367 . S
C576 C584 1.378 . S
C577 C576 1.367 . S
C577 C585 1.433 . S
C578 H574 0.929 . S
C578 C580 1.378 . S
C578 C582 1.350 . S
C579 C582 1.463 1_655 S
C579 C584 1.350 . S
C579 N587 1.427 . S
C580 H571 0.930 . S
C580 C578 1.378 . S
C580 C581 1.367 . S
C581 C580 1.367 . S
C581 C583 1.433 . S
C582 C578 1.350 . S
C582 C579 1.463 1_455 S
C582 N586 1.427 . S
C583 H573 0.929 . S
C583 C581 1.433 . S
C583 N586 1.384 . S
C584 H575 0.929 . S
C584 C576 1.378 . S
C584 C579 1.350 . S
C585 H572 0.929 . S
C585 C577 1.433 . S
C585 N587 1.384 . S
N586 C582 1.427 . S
N586 C583 1.384 . S
N587 C579 1.427 . S
N587 C585 1.384 . S
H588 C594 0.930 . S
H589 C598 0.930 . S
H590 C603 0.929 . S
H591 C601 0.929 . S
H592 C596 0.929 . S
H593 C602 0.929 . S
C594 H588 0.930 . S
C594 C595 1.367 . S
C594 C602 1.378 . S
C595 C594 1.367 . S
C595 C603 1.433 . S
C596 H592 0.929 . S
C596 C598 1.378 . S
C596 C600 1.350 . S
C597 C600 1.463 1_545 S
C597 C602 1.350 . S
C597 N605 1.419 1_545 S
C598 H589 0.930 . S
C598 C596 1.378 . S
C598 C599 1.367 . S
C599 C598 1.367 . S
C599 C601 1.433 . S
C600 C596 1.350 . S
C600 C597 1.463 1_565 S
C600 N604 1.427 . S
C601 H591 0.929 . S
C601 C599 1.433 . S
C601 N604 1.384 . S
C602 H593 0.929 . S
C602 C594 1.378 . S
C602 C597 1.350 . S
C603 H590 0.929 . S
C603 C595 1.433 . S
C603 N605 1.364 1_545 S
N604 C600 1.427 . S
N604 C601 1.384 . S
N605 C597 1.419 1_565 S
N605 C603 1.364 1_565 S
H606 C612 0.930 . S
H607 C616 0.930 . S
H608 C621 0.929 . S
H609 C619 0.929 . S
H610 C614 0.951 . S
H611 C620 0.929 . S
C612 H606 0.930 . S
C612 C613 1.367 . S
C612 C620 1.378 . S
C613 C612 1.367 . S
C613 C621 1.433 . S
C614 H610 0.951 . S
C614 C616 1.378 . S
C614 C618 1.350 . S
C615 C618 1.463 1_455 S
C615 C620 1.350 . S
C615 N623 1.427 . S
C616 H607 0.930 . S
C616 C614 1.378 . S
C616 C617 1.367 . S
C617 C616 1.367 . S
C617 C619 1.433 . S
C618 C614 1.350 . S
C618 C615 1.463 1_655 S
C618 N622 1.427 . S
C619 H609 0.929 . S
C619 C617 1.433 . S
C619 N622 1.384 . S
C620 H611 0.929 . S
C620 C612 1.378 . S
C620 C615 1.350 . S
C621 H608 0.929 . S
C621 C613 1.433 . S
C621 N623 1.384 . S
N622 C618 1.427 . S
N622 C619 1.384 . S
N623 C615 1.427 . S
N623 C621 1.384 . S
H624 C630 0.930 . S
H625 C634 0.930 . S
H626 C639 0.929 . S
H627 C637 0.929 . S
H628 C632 0.929 1_565 S
H629 C638 0.929 1_545 S
C630 H624 0.930 . S
C630 C631 1.367 . S
C630 C638 1.378 . S
C631 C630 1.367 . S
C631 C639 1.433 . S
C632 H628 0.929 1_545 S
C632 C634 1.378 . S
C632 C636 1.350 . S
C633 C636 1.463 1_565 S
C633 C638 1.350 . S
C633 N641 1.427 . S
C634 H625 0.930 . S
C634 C632 1.378 . S
C634 C635 1.367 . S
C635 C634 1.367 . S
C635 C637 1.433 . S
C636 C632 1.350 . S
C636 C633 1.463 1_545 S
C636 N640 1.427 . S
C637 H627 0.929 . S
C637 C635 1.433 . S
C637 N640 1.384 . S
C638 H629 0.929 1_565 S
C638 C630 1.378 . S
C638 C633 1.350 . S
C639 H626 0.929 . S
C639 C631 1.433 . S
C639 N641 1.384 . S
N640 C636 1.427 . S
N640 C637 1.384 . S
N641 C633 1.427 . S
N641 C639 1.384 . S
H642 C648 0.930 . S
H643 C652 0.930 . S
H644 C657 0.929 . S
H645 C655 0.929 . S
H646 C650 0.929 . S
H647 C656 0.929 . S
C648 H642 0.930 . S
C648 C649 1.367 . S
C648 C656 1.378 . S
C649 C648 1.367 . S
C649 C657 1.433 . S
C650 H646 0.929 . S
C650 C652 1.378 . S
C650 C654 1.350 . S
C651 C654 1.463 1_655 S
C651 C656 1.350 . S
C651 N659 1.427 . S
C652 H643 0.930 . S
C652 C650 1.378 . S
C652 C653 1.367 . S
C653 C652 1.367 . S
C653 C655 1.433 . S
C654 C650 1.350 . S
C654 C651 1.463 1_455 S
C654 N658 1.427 . S
C655 H645 0.929 . S
C655 C653 1.433 . S
C655 N658 1.384 . S
C656 H647 0.929 . S
C656 C648 1.378 . S
C656 C651 1.350 . S
C657 H644 0.929 . S
C657 C649 1.433 . S
C657 N659 1.384 . S
N658 C654 1.427 . S
N658 C655 1.384 . S
N659 C651 1.427 . S
N659 C657 1.384 . S
H660 C666 0.930 . S
H661 C670 0.930 . S
H662 C675 0.929 . S
H663 C673 0.929 . S
H664 C668 0.929 . S
H665 C674 0.929 1_545 S
C666 H660 0.930 . S
C666 C667 1.367 . S
C666 C674 1.378 . S
C667 C666 1.367 . S
C667 C675 1.433 . S
C668 H664 0.929 . S
C668 C670 1.378 1_565 S
C668 C672 1.350 1_565 S
C669 C672 1.463 1_565 S
C669 C674 1.350 . S
C669 N677 1.427 . S
C670 H661 0.930 . S
C670 C668 1.378 1_545 S
C670 C671 1.367 . S
C671 C670 1.367 . S
C671 C673 1.433 . S
C672 C668 1.350 1_545 S
C672 C669 1.463 1_545 S
C672 N676 1.427 . S
C673 H663 0.929 . S
C673 C671 1.433 . S
C673 N676 1.384 . S
C674 H665 0.929 1_565 S
C674 C666 1.378 . S
C674 C669 1.350 . S
C675 H662 0.929 . S
C675 C667 1.433 . S
C675 N677 1.384 . S
N676 C672 1.427 . S
N676 C673 1.384 . S
N677 C669 1.427 . S
N677 C675 1.384 . S
H678 C684 0.930 . S
H679 C688 0.930 . S
H680 C693 0.929 . S
H681 C691 0.929 . S
H682 C686 0.929 . S
H683 C692 0.929 . S
C684 H678 0.930 . S
C684 C685 1.367 . S
C684 C692 1.378 . S
C685 C684 1.367 . S
C685 C693 1.433 . S
C686 H682 0.929 . S
C686 C688 1.378 . S
C686 C690 1.350 . S
C687 C690 1.463 1_455 S
C687 C692 1.350 . S
C687 N695 1.436 . S
C688 H679 0.930 . S
C688 C686 1.378 . S
C688 C689 1.367 . S
C689 C688 1.367 . S
C689 C691 1.433 . S
C690 C686 1.350 . S
C690 C687 1.463 1_655 S
C690 N694 1.427 . S
C691 H681 0.929 . S
C691 C689 1.433 . S
C691 N694 1.384 . S
C692 H683 0.929 . S
C692 C684 1.378 . S
C692 C687 1.350 . S
C693 H680 0.929 . S
C693 C685 1.433 . S
C693 N695 1.404 . S
N694 C690 1.427 . S
N694 C691 1.384 . S
N695 C687 1.436 . S
N695 C693 1.404 . S
H696 C702 0.930 . S
H697 C706 0.930 . S
H698 C711 0.929 . S
H699 C709 0.929 . S
H700 C704 0.929 . S
H701 C710 0.929 . S
C702 H696 0.930 . S
C702 C703 1.367 . S
C702 C710 1.378 . S
C703 C702 1.367 . S
C703 C711 1.433 . S
C704 H700 0.929 . S
C704 C706 1.378 . S
C704 C708 1.350 . S
C705 C708 1.463 1_556 S
C705 C710 1.350 . S
C705 N713 1.427 . S
C706 H697 0.930 . S
C706 C704 1.378 . S
C706 C707 1.367 . S
C707 C706 1.367 . S
C707 C709 1.433 . S
C708 C704 1.350 . S
C708 C705 1.463 1_554 S
C708 N712 1.427 . S
C709 H699 0.929 . S
C709 C707 1.433 . S
C709 N712 1.384 . S
C710 H701 0.929 . S
C710 C702 1.378 . S
C710 C705 1.350 . S
C711 H698 0.929 . S
C711 C703 1.433 . S
C711 N713 1.384 . S
N712 C708 1.427 . S
N712 C709 1.384 . S
N713 C705 1.427 . S
N713 C711 1.384 . S
H714 C720 0.930 . S
H715 C724 0.930 . S
H716 C729 0.929 . S
H717 C727 0.929 . S
H718 C722 0.929 1_554 S
H719 C728 0.929 1_556 S
C720 H714 0.930 . S
C720 C721 1.367 . S
C720 C728 1.378 . S
C721 C720 1.367 . S
C721 C729 1.433 . S
C722 H718 0.929 1_556 S
C722 C724 1.378 . S
C722 C726 1.350 . S
C723 C726 1.463 1_554 S
C723 C728 1.350 . S
C723 N731 1.427 . S
C724 H715 0.930 . S
C724 C722 1.378 . S
C724 C725 1.367 . S
C725 C724 1.367 . S
C725 C727 1.433 . S
C726 C722 1.350 . S
C726 C723 1.463 1_556 S
C726 N730 1.427 . S
C727 H717 0.929 . S
C727 C725 1.433 . S
C727 N730 1.384 . S
C728 H719 0.929 1_554 S
C728 C720 1.378 . S
C728 C723 1.350 . S
C729 H716 0.929 . S
C729 C721 1.433 . S
C729 N731 1.384 . S
N730 C726 1.427 . S
N730 C727 1.384 . S
N731 C723 1.427 . S
N731 C729 1.384 . S
H732 C738 0.930 . S
H733 C742 0.930 . S
H734 C747 0.929 . S
H735 C745 0.929 . S
H736 C740 0.929 1_556 S
H737 C746 0.929 1_554 S
C738 H732 0.930 . S
C738 C739 1.367 . S
C738 C746 1.378 . S
C739 C738 1.367 . S
C739 C747 1.433 . S
C740 H736 0.929 1_554 S
C740 C742 1.378 . S
C740 C744 1.350 . S
C741 C744 1.463 1_556 S
C741 C746 1.350 . S
C741 N749 1.427 . S
C742 H733 0.930 . S
C742 C740 1.378 . S
C742 C743 1.367 . S
C743 C742 1.367 . S
C743 C745 1.433 . S
C744 C740 1.350 . S
C744 C741 1.463 1_554 S
C744 N748 1.427 . S
C745 H735 0.929 . S
C745 C743 1.433 . S
C745 N748 1.384 . S
C746 H737 0.929 1_556 S
C746 C738 1.378 . S
C746 C741 1.350 . S
C747 H734 0.929 . S
C747 C739 1.433 . S
C747 N749 1.384 . S
N748 C744 1.427 . S
N748 C745 1.384 . S
N749 C741 1.427 . S
N749 C747 1.384 . S
H750 C756 0.930 . S
H751 C760 0.930 . S
H752 C765 0.929 . S
H753 C763 0.929 . S
H754 C758 0.929 . S
H755 C764 0.929 . S
C756 H750 0.930 . S
C756 C757 1.367 . S
C756 C764 1.378 . S
C757 C756 1.367 . S
C757 C765 1.433 . S
C758 H754 0.929 . S
C758 C760 1.378 . S
C758 C762 1.350 . S
C759 C762 1.463 1_554 S
C759 C764 1.350 . S
C759 N767 1.427 . S
C760 H751 0.930 . S
C760 C758 1.378 . S
C760 C761 1.367 . S
C761 C760 1.367 . S
C761 C763 1.433 . S
C762 C758 1.350 . S
C762 C759 1.463 1_556 S
C762 N766 1.427 . S
C763 H753 0.929 . S
C763 C761 1.433 . S
C763 N766 1.384 . S
C764 H755 0.929 . S
C764 C756 1.378 . S
C764 C759 1.350 . S
C765 H752 0.929 . S
C765 C757 1.433 . S
C765 N767 1.384 . S
N766 C762 1.427 . S
N766 C763 1.384 . S
N767 C759 1.427 . S
N767 C765 1.384 . S
H768 C774 0.930 . S
H769 C778 0.930 . S
H770 C783 0.929 . S
H771 C781 0.929 . S
H772 C776 0.929 . S
H773 C782 0.929 . S
C774 H768 0.930 . S
C774 C775 1.367 . S
C774 C782 1.378 . S
C775 C774 1.367 . S
C775 C783 1.433 . S
C776 H772 0.929 . S
C776 C778 1.378 . S
C776 C780 1.350 . S
C777 C780 1.463 . S
C777 C782 1.350 . S
C777 N785 1.427 . S
C778 H769 0.930 . S
C778 C776 1.378 . S
C778 C779 1.367 . S
C779 C778 1.367 . S
C779 C781 1.433 . S
C780 C776 1.350 . S
C780 C777 1.463 . S
C780 N784 1.427 . S
C781 H771 0.929 . S
C781 C779 1.433 . S
C781 N784 1.384 . S
C782 H773 0.929 . S
C782 C774 1.378 . S
C782 C777 1.350 . S
C783 H770 0.929 . S
C783 C775 1.433 . S
C783 N785 1.384 . S
N784 C780 1.427 . S
N784 C781 1.384 . S
N785 C777 1.427 . S
N785 C783 1.384 . S
H786 C792 0.930 . S
H787 C796 0.930 . S
H788 C801 0.929 . S
H789 C799 0.929 . S
H790 C794 0.929 . S
H791 C800 0.929 . S
C792 H786 0.930 . S
C792 C793 1.367 . S
C792 C800 1.378 . S
C793 C792 1.367 . S
C793 C801 1.433 . S
C794 H790 0.929 . S
C794 C796 1.378 . S
C794 C798 1.350 . S
C795 C798 1.463 . S
C795 C800 1.350 . S
C795 N803 1.427 . S
C796 H787 0.930 . S
C796 C794 1.378 . S
C796 C797 1.367 . S
C797 C796 1.367 . S
C797 C799 1.433 . S
C798 C794 1.350 . S
C798 C795 1.463 . S
C798 N802 1.427 . S
C799 H789 0.929 . S
C799 C797 1.433 . S
C799 N802 1.384 . S
C800 H791 0.929 . S
C800 C792 1.378 . S
C800 C795 1.350 . S
C801 H788 0.929 . S
C801 C793 1.433 . S
C801 N803 1.384 . S
N802 C798 1.427 . S
N802 C799 1.384 . S
N803 C795 1.427 . S
N803 C801 1.384 . S
H804 C810 0.930 . S
H805 C814 0.930 . S
H806 C819 0.929 . S
H807 C817 0.929 . S
H808 C812 0.929 . S
H809 C818 0.929 . S
C810 H804 0.930 . S
C810 C811 1.367 . S
C810 C818 1.378 . S
C811 C810 1.367 . S
C811 C819 1.433 . S
C812 H808 0.929 . S
C812 C814 1.378 . S
C812 C816 1.350 . S
C813 C816 1.463 . S
C813 C818 1.350 . S
C813 N821 1.427 . S
C814 H805 0.930 . S
C814 C812 1.378 . S
C814 C815 1.367 . S
C815 C814 1.367 . S
C815 C817 1.433 . S
C816 C812 1.350 . S
C816 C813 1.463 . S
C816 N820 1.427 . S
C817 H807 0.929 . S
C817 C815 1.433 . S
C817 N820 1.384 . S
C818 H809 0.929 . S
C818 C810 1.378 . S
C818 C813 1.350 . S
C819 H806 0.929 . S
C819 C811 1.433 . S
C819 N821 1.384 . S
N820 C816 1.427 . S
N820 C817 1.384 . S
N821 C813 1.427 . S
N821 C819 1.384 . S
H822 C828 0.930 . S
H823 C832 0.930 . S
H824 C837 0.929 . S
H825 C835 0.929 . S
H826 C830 0.929 . S
H827 C836 0.929 . S
C828 H822 0.930 . S
C828 C829 1.367 . S
C828 C836 1.378 . S
C829 C828 1.367 . S
C829 C837 1.433 . S
C830 H826 0.929 . S
C830 C832 1.378 . S
C830 C834 1.350 . S
C831 C834 1.463 . S
C831 C836 1.350 . S
C831 N839 1.427 . S
C832 H823 0.930 . S
C832 C830 1.378 . S
C832 C833 1.367 . S
C833 C832 1.367 . S
C833 C835 1.433 . S
C834 C830 1.350 . S
C834 C831 1.463 . S
C834 N838 1.427 . S
C835 H825 0.929 . S
C835 C833 1.433 . S
C835 N838 1.384 . S
C836 H827 0.929 . S
C836 C828 1.378 . S
C836 C831 1.350 . S
C837 H824 0.929 . S
C837 C829 1.433 . S
C837 N839 1.384 . S
N838 C834 1.427 . S
N838 C835 1.384 . S
N839 C831 1.427 . S
N839 C837 1.384 . S
H840 C846 0.930 . S
H841 C850 0.930 . S
H842 C855 0.929 . S
H843 C853 0.929 . S
H844 C848 0.929 . S
H845 C854 0.929 . S
C846 H840 0.930 . S
C846 C847 1.367 . S
C846 C854 1.378 . S
C847 C846 1.367 . S
C847 C855 1.433 . S
C848 H844 0.929 . S
C848 C850 1.378 . S
C848 C852 1.350 . S
C849 C852 1.463 . S
C849 C854 1.350 . S
C849 N857 1.427 . S
C850 H841 0.930 . S
C850 C848 1.378 . S
C850 C851 1.367 . S
C851 C850 1.367 . S
C851 C853 1.433 . S
C852 C848 1.350 . S
C852 C849 1.463 . S
C852 N856 1.427 . S
C853 H843 0.929 . S
C853 C851 1.433 . S
C853 N856 1.384 . S
C854 H845 0.929 . S
C854 C846 1.378 . S
C854 C849 1.350 . S
C855 H842 0.929 . S
C855 C847 1.433 . S
C855 N857 1.384 . S
N856 C852 1.427 . S
N856 C853 1.384 . S
N857 C849 1.427 . S
N857 C855 1.384 . S
H858 C864 0.930 . S
H859 C868 0.930 . S
H860 C873 0.929 . S
H861 C871 0.929 . S
H862 C866 0.929 . S
H863 C872 0.929 . S
C864 H858 0.930 . S
C864 C865 1.367 . S
C864 C872 1.378 . S
C865 C864 1.367 . S
C865 C873 1.433 . S
C866 H862 0.929 . S
C866 C868 1.378 . S
C866 C870 1.350 . S
C867 C870 1.463 . S
C867 C872 1.350 . S
C867 N875 1.427 . S
C868 H859 0.930 . S
C868 C866 1.378 . S
C868 C869 1.367 . S
C869 C868 1.367 . S
C869 C871 1.433 . S
C870 C866 1.350 . S
C870 C867 1.463 . S
C870 N874 1.427 . S
C871 H861 0.929 . S
C871 C869 1.433 . S
C871 N874 1.384 . S
C872 H863 0.929 . S
C872 C864 1.378 . S
C872 C867 1.350 . S
C873 H860 0.929 . S
C873 C865 1.433 . S
C873 N875 1.384 . S
N874 C870 1.427 . S
N874 C871 1.384 . S
N875 C867 1.427 . S
N875 C873 1.384 . S
H876 C882 0.930 . S
H877 C886 0.930 . S
H878 C891 0.929 . S
H879 C889 0.929 . S
H880 C884 0.929 . S
H881 C890 0.929 . S
C882 H876 0.930 . S
C882 C883 1.367 . S
C882 C890 1.378 . S
C883 C882 1.367 . S
C883 C891 1.433 . S
C884 H880 0.929 . S
C884 C886 1.378 . S
C884 C888 1.350 . S
C885 C888 1.463 . S
C885 C890 1.350 . S
C885 N893 1.427 . S
C886 H877 0.930 . S
C886 C884 1.378 . S
C886 C887 1.367 . S
C887 C886 1.367 . S
C887 C889 1.433 . S
C888 C884 1.350 . S
C888 C885 1.463 . S
C888 N892 1.427 . S
C889 H879 0.929 . S
C889 C887 1.433 . S
C889 N892 1.384 . S
C890 H881 0.929 . S
C890 C882 1.378 . S
C890 C885 1.350 . S
C891 H878 0.929 . S
C891 C883 1.433 . S
C891 N893 1.384 . S
N892 C888 1.427 . S
N892 C889 1.384 . S
N893 C885 1.427 . S
N893 C891 1.384 . S
H894 C900 0.930 . S
H895 C904 0.930 . S
H896 C909 0.929 . S
H897 C907 0.929 . S
H898 C902 0.929 . S
H899 C908 0.929 . S
C900 H894 0.930 . S
C900 C901 1.367 . S
C900 C908 1.378 . S
C901 C900 1.367 . S
C901 C909 1.433 . S
C902 H898 0.929 . S
C902 C904 1.378 . S
C902 C906 1.350 . S
C903 C906 1.463 . S
C903 C908 1.350 . S
C903 N911 1.427 . S
C904 H895 0.930 . S
C904 C902 1.378 . S
C904 C905 1.367 . S
C905 C904 1.367 . S
C905 C907 1.433 . S
C906 C902 1.350 . S
C906 C903 1.463 . S
C906 N910 1.427 . S
C907 H897 0.929 . S
C907 C905 1.433 . S
C907 N910 1.384 . S
C908 H899 0.929 . S
C908 C900 1.378 . S
C908 C903 1.350 . S
C909 H896 0.929 . S
C909 C901 1.433 . S
C909 N911 1.384 . S
N910 C906 1.427 . S
N910 C907 1.384 . S
N911 C903 1.427 . S
N911 C909 1.384 . S
H912 C918 0.930 . S
H913 C922 0.930 . S
H914 C927 0.929 . S
H915 C925 0.929 . S
H916 C920 0.929 . S
H917 C926 0.929 . S
C918 H912 0.930 . S
C918 C919 1.367 . S
C918 C926 1.378 . S
C919 C918 1.367 . S
C919 C927 1.433 . S
C920 H916 0.929 . S
C920 C922 1.378 . S
C920 C924 1.350 . S
C921 C924 1.463 . S
C921 C926 1.350 . S
C921 N929 1.427 . S
C922 H913 0.930 . S
C922 C920 1.378 . S
C922 C923 1.367 . S
C923 C922 1.367 . S
C923 C925 1.433 . S
C924 C920 1.350 . S
C924 C921 1.463 . S
C924 N928 1.427 . S
C925 H915 0.929 . S
C925 C923 1.433 . S
C925 N928 1.384 . S
C926 H917 0.929 . S
C926 C918 1.378 . S
C926 C921 1.350 . S
C927 H914 0.929 . S
C927 C919 1.433 . S
C927 N929 1.384 . S
N928 C924 1.427 . S
N928 C925 1.384 . S
N929 C921 1.427 . S
N929 C927 1.384 . S
H930 C936 0.930 . S
H931 C940 0.930 . S
H932 C945 0.929 . S
H933 C943 0.929 . S
H934 C938 0.929 . S
H935 C944 0.929 . S
C936 H930 0.930 . S
C936 C937 1.367 . S
C936 C944 1.378 . S
C937 C936 1.367 . S
C937 C945 1.433 . S
C938 H934 0.929 . S
C938 C940 1.378 . S
C938 C942 1.350 . S
C939 C942 1.463 . S
C939 C944 1.350 . S
C939 N947 1.427 . S
C940 H931 0.930 . S
C940 C938 1.378 . S
C940 C941 1.367 . S
C941 C940 1.367 . S
C941 C943 1.433 . S
C942 C938 1.350 . S
C942 C939 1.463 . S
C942 N946 1.427 . S
C943 H933 0.929 . S
C943 C941 1.433 . S
C943 N946 1.384 . S
C944 H935 0.929 . S
C944 C936 1.378 . S
C944 C939 1.350 . S
C945 H932 0.929 . S
C945 C937 1.433 . S
C945 N947 1.384 . S
N946 C942 1.427 . S
N946 C943 1.384 . S
N947 C939 1.427 . S
N947 C945 1.384 . S
H948 C954 0.930 . S
H949 C958 0.930 . S
H950 C963 0.929 . S
H951 C961 0.929 . S
H952 C956 0.929 . S
H953 C962 0.929 . S
C954 H948 0.930 . S
C954 C955 1.367 . S
C954 C962 1.378 . S
C955 C954 1.367 . S
C955 C963 1.433 . S
C956 H952 0.929 . S
C956 C958 1.378 . S
C956 C960 1.350 . S
C957 C960 1.463 . S
C957 C962 1.350 . S
C957 N965 1.427 . S
C958 H949 0.930 . S
C958 C956 1.378 . S
C958 C959 1.367 . S
C959 C958 1.367 . S
C959 C961 1.433 . S
C960 C956 1.350 . S
C960 C957 1.463 . S
C960 N964 1.427 . S
C961 H951 0.929 . S
C961 C959 1.433 . S
C961 N964 1.384 . S
C962 H953 0.929 . S
C962 C954 1.378 . S
C962 C957 1.350 . S
C963 H950 0.929 . S
C963 C955 1.433 . S
C963 N965 1.384 . S
N964 C960 1.427 . S
N964 C961 1.384 . S
N965 C957 1.427 . S
N965 C963 1.384 . S
H966 C972 0.930 . S
H967 C976 0.930 . S
H968 C981 0.929 . S
H969 C979 0.929 . S
H970 C974 0.929 . S
H971 C980 0.929 . S
C972 H966 0.930 . S
C972 C973 1.367 . S
C972 C980 1.378 . S
C973 C972 1.367 . S
C973 C981 1.433 . S
C974 H970 0.929 . S
C974 C976 1.378 . S
C974 C978 1.350 . S
C975 C978 1.463 . S
C975 C980 1.350 . S
C975 N983 1.427 . S
C976 H967 0.930 . S
C976 C974 1.378 . S
C976 C977 1.367 . S
C977 C976 1.367 . S
C977 C979 1.433 . S
C978 C974 1.350 . S
C978 C975 1.463 . S
C978 N982 1.427 . S
C979 H969 0.929 . S
C979 C977 1.433 . S
C979 N982 1.384 . S
C980 H971 0.929 . S
C980 C972 1.378 . S
C980 C975 1.350 . S
C981 H968 0.929 . S
C981 C973 1.433 . S
C981 N983 1.384 . S
N982 C978 1.427 . S
N982 C979 1.384 . S
N983 C975 1.427 . S
N983 C981 1.384 . S
H984 C990 0.930 . S
H985 C994 0.930 . S
H986 C999 0.929 . S
H987 C997 0.929 . S
H988 C992 0.929 . S
H989 C998 0.929 . S
C990 H984 0.930 . S
C990 C991 1.367 . S
C990 C998 1.378 . S
C991 C990 1.367 . S
C991 C999 1.433 . S
C992 H988 0.929 . S
C992 C994 1.378 . S
C992 C996 1.350 . S
C993 C996 1.463 . S
C993 C998 1.350 . S
C993 N1001 1.427 . S
C994 H985 0.930 . S
C994 C992 1.378 . S
C994 C995 1.367 . S
C995 C994 1.367 . S
C995 C997 1.433 . S
C996 C992 1.350 . S
C996 C993 1.463 . S
C996 N1000 1.427 . S
C997 H987 0.929 . S
C997 C995 1.433 . S
C997 N1000 1.384 . S
C998 H989 0.929 . S
C998 C990 1.378 . S
C998 C993 1.350 . S
C999 H986 0.929 . S
C999 C991 1.433 . S
C999 N1001 1.384 . S
N1000 C996 1.427 . S
N1000 C997 1.384 . S
N1001 C993 1.427 . S
N1001 C999 1.384 . S
H1002 C1008 0.930 . S
H1003 C1012 0.930 . S
H1004 C1017 0.929 . S
H1005 C1015 0.929 . S
H1006 C1010 0.929 . S
H1007 C1016 0.929 . S
C1008 H1002 0.930 . S
C1008 C1009 1.367 . S
C1008 C1016 1.378 . S
C1009 C1008 1.367 . S
C1009 C1017 1.433 . S
C1010 H1006 0.929 . S
C1010 C1012 1.378 . S
C1010 C1014 1.350 . S
C1011 C1014 1.463 . S
C1011 C1016 1.350 . S
C1011 N1019 1.427 . S
C1012 H1003 0.930 . S
C1012 C1010 1.378 . S
C1012 C1013 1.367 . S
C1013 C1012 1.367 . S
C1013 C1015 1.433 . S
C1014 C1010 1.350 . S
C1014 C1011 1.463 . S
C1014 N1018 1.427 . S
C1015 H1005 0.929 . S
C1015 C1013 1.433 . S
C1015 N1018 1.384 . S
C1016 H1007 0.929 . S
C1016 C1008 1.378 . S
C1016 C1011 1.350 . S
C1017 H1004 0.929 . S
C1017 C1009 1.433 . S
C1017 N1019 1.384 . S
N1018 C1014 1.427 . S
N1018 C1015 1.384 . S
N1019 C1011 1.427 . S
N1019 C1017 1.384 . S
H1020 C1026 0.930 . S
H1021 C1030 0.930 . S
H1022 C1035 0.929 . S
H1023 C1033 0.929 . S
H1024 C1028 0.929 . S
H1025 C1034 0.929 . S
C1026 H1020 0.930 . S
C1026 C1027 1.367 . S
C1026 C1034 1.378 . S
C1027 C1026 1.367 . S
C1027 C1035 1.433 . S
C1028 H1024 0.929 . S
C1028 C1030 1.378 . S
C1028 C1032 1.350 . S
C1029 C1032 1.463 . S
C1029 C1034 1.350 . S
C1029 N1037 1.427 . S
C1030 H1021 0.930 . S
C1030 C1028 1.378 . S
C1030 C1031 1.367 . S
C1031 C1030 1.367 . S
C1031 C1033 1.433 . S
C1032 C1028 1.350 . S
C1032 C1029 1.463 . S
C1032 N1036 1.427 . S
C1033 H1023 0.929 . S
C1033 C1031 1.433 . S
C1033 N1036 1.384 . S
C1034 H1025 0.929 . S
C1034 C1026 1.378 . S
C1034 C1029 1.350 . S
C1035 H1022 0.929 . S
C1035 C1027 1.433 . S
C1035 N1037 1.384 . S
N1036 C1032 1.427 . S
N1036 C1033 1.384 . S
N1037 C1029 1.427 . S
N1037 C1035 1.384 . S
H1038 C1044 0.930 . S
H1039 C1048 0.930 . S
H1040 C1053 0.929 . S
H1041 C1051 0.929 . S
H1042 C1046 0.929 . S
H1043 C1052 0.929 . S
C1044 H1038 0.930 . S
C1044 C1045 1.367 . S
C1044 C1052 1.378 . S
C1045 C1044 1.367 . S
C1045 C1053 1.433 . S
C1046 H1042 0.929 . S
C1046 C1048 1.378 . S
C1046 C1050 1.350 . S
C1047 C1050 1.463 . S
C1047 C1052 1.350 . S
C1047 N1055 1.427 . S
C1048 H1039 0.930 . S
C1048 C1046 1.378 . S
C1048 C1049 1.367 . S
C1049 C1048 1.367 . S
C1049 C1051 1.433 . S
C1050 C1046 1.350 . S
C1050 C1047 1.463 . S
C1050 N1054 1.427 . S
C1051 H1041 0.929 . S
C1051 C1049 1.433 . S
C1051 N1054 1.384 . S
C1052 H1043 0.929 . S
C1052 C1044 1.378 . S
C1052 C1047 1.350 . S
C1053 H1040 0.929 . S
C1053 C1045 1.433 . S
C1053 N1055 1.384 . S
N1054 C1050 1.427 . S
N1054 C1051 1.384 . S
N1055 C1047 1.427 . S
N1055 C1053 1.384 . S
H1056 C1062 0.930 . S
H1057 C1066 0.930 . S
H1058 C1071 0.929 . S
H1059 C1069 0.929 . S
H1060 C1064 0.929 . S
H1061 C1070 0.929 . S
C1062 H1056 0.930 . S
C1062 C1063 1.367 . S
C1062 C1070 1.378 . S
C1063 C1062 1.367 . S
C1063 C1071 1.433 . S
C1064 H1060 0.929 . S
C1064 C1066 1.378 . S
C1064 C1068 1.350 . S
C1065 C1068 1.463 . S
C1065 C1070 1.350 . S
C1065 N1073 1.427 . S
C1066 H1057 0.930 . S
C1066 C1064 1.378 . S
C1066 C1067 1.367 . S
C1067 C1066 1.367 . S
C1067 C1069 1.433 . S
C1068 C1064 1.350 . S
C1068 C1065 1.463 . S
C1068 N1072 1.427 . S
C1069 H1059 0.929 . S
C1069 C1067 1.433 . S
C1069 N1072 1.384 . S
C1070 H1061 0.929 . S
C1070 C1062 1.378 . S
C1070 C1065 1.350 . S
C1071 H1058 0.929 . S
C1071 C1063 1.433 . S
C1071 N1073 1.384 . S
N1072 C1068 1.427 . S
N1072 C1069 1.384 . S
N1073 C1065 1.427 . S
N1073 C1071 1.384 . S
H1074 C1080 0.930 . S
H1075 C1084 0.930 . S
H1076 C1089 0.929 . S
H1077 C1087 0.929 . S
H1078 C1082 0.929 . S
H1079 C1088 0.929 . S
C1080 H1074 0.930 . S
C1080 C1081 1.367 . S
C1080 C1088 1.378 . S
C1081 C1080 1.367 . S
C1081 C1089 1.433 . S
C1082 H1078 0.929 . S
C1082 C1084 1.378 . S
C1082 C1086 1.350 . S
C1083 C1086 1.463 . S
C1083 C1088 1.350 . S
C1083 N1091 1.427 . S
C1084 H1075 0.930 . S
C1084 C1082 1.378 . S
C1084 C1085 1.367 . S
C1085 C1084 1.367 . S
C1085 C1087 1.433 . S
C1086 C1082 1.350 . S
C1086 C1083 1.463 . S
C1086 N1090 1.427 . S
C1087 H1077 0.929 . S
C1087 C1085 1.433 . S
C1087 N1090 1.384 . S
C1088 H1079 0.929 . S
C1088 C1080 1.378 . S
C1088 C1083 1.350 . S
C1089 H1076 0.929 . S
C1089 C1081 1.433 . S
C1089 N1091 1.384 . S
N1090 C1086 1.427 . S
N1090 C1087 1.384 . S
N1091 C1083 1.427 . S
N1091 C1089 1.384 . S
H1092 C1098 0.930 . S
H1093 C1102 0.930 . S
H1094 C1107 0.929 . S
H1095 C1105 0.929 . S
H1096 C1100 0.929 . S
H1097 C1106 0.929 . S
C1098 H1092 0.930 . S
C1098 C1099 1.367 . S
C1098 C1106 1.378 . S
C1099 C1098 1.367 . S
C1099 C1107 1.433 . S
C1100 H1096 0.929 . S
C1100 C1102 1.378 . S
C1100 C1104 1.350 . S
C1101 C1104 1.463 . S
C1101 C1106 1.350 . S
C1101 N1109 1.427 . S
C1102 H1093 0.930 . S
C1102 C1100 1.378 . S
C1102 C1103 1.367 . S
C1103 C1102 1.367 . S
C1103 C1105 1.433 . S
C1104 C1100 1.350 . S
C1104 C1101 1.463 . S
C1104 N1108 1.427 . S
C1105 H1095 0.929 . S
C1105 C1103 1.433 . S
C1105 N1108 1.384 . S
C1106 H1097 0.929 . S
C1106 C1098 1.378 . S
C1106 C1101 1.350 . S
C1107 H1094 0.929 . S
C1107 C1099 1.433 . S
C1107 N1109 1.384 . S
N1108 C1104 1.427 . S
N1108 C1105 1.384 . S
N1109 C1101 1.427 . S
N1109 C1107 1.384 . S
H1110 C1116 0.930 . S
H1111 C1120 0.930 . S
H1112 C1125 0.929 . S
H1113 C1123 0.929 . S
H1114 C1118 0.929 . S
H1115 C1124 0.929 . S
C1116 H1110 0.930 . S
C1116 C1117 1.367 . S
C1116 C1124 1.378 . S
C1117 C1116 1.367 . S
C1117 C1125 1.433 . S
C1118 H1114 0.929 . S
C1118 C1120 1.378 . S
C1118 C1122 1.350 . S
C1119 C1122 1.463 . S
C1119 C1124 1.350 . S
C1119 N1127 1.427 . S
C1120 H1111 0.930 . S
C1120 C1118 1.378 . S
C1120 C1121 1.367 . S
C1121 C1120 1.367 . S
C1121 C1123 1.433 . S
C1122 C1118 1.350 . S
C1122 C1119 1.463 . S
C1122 N1126 1.427 . S
C1123 H1113 0.929 . S
C1123 C1121 1.433 . S
C1123 N1126 1.384 . S
C1124 H1115 0.929 . S
C1124 C1116 1.378 . S
C1124 C1119 1.350 . S
C1125 H1112 0.929 . S
C1125 C1117 1.433 . S
C1125 N1127 1.384 . S
N1126 C1122 1.427 . S
N1126 C1123 1.384 . S
N1127 C1119 1.427 . S
N1127 C1125 1.384 . S
H1128 C1134 0.930 . S
H1129 C1138 0.930 . S
H1130 C1143 0.929 . S
H1131 C1141 0.929 . S
H1132 C1136 0.929 . S
H1133 C1142 0.929 . S
C1134 H1128 0.930 . S
C1134 C1135 1.367 . S
C1134 C1142 1.378 . S
C1135 C1134 1.367 . S
C1135 C1143 1.433 . S
C1136 H1132 0.929 . S
C1136 C1138 1.378 . S
C1136 C1140 1.350 . S
C1137 C1140 1.463 . S
C1137 C1142 1.350 . S
C1137 N1145 1.427 . S
C1138 H1129 0.930 . S
C1138 C1136 1.378 . S
C1138 C1139 1.367 . S
C1139 C1138 1.367 . S
C1139 C1141 1.433 . S
C1140 C1136 1.350 . S
C1140 C1137 1.463 . S
C1140 N1144 1.427 . S
C1141 H1131 0.929 . S
C1141 C1139 1.433 . S
C1141 N1144 1.384 . S
C1142 H1133 0.929 . S
C1142 C1134 1.378 . S
C1142 C1137 1.350 . S
C1143 H1130 0.929 . S
C1143 C1135 1.433 . S
C1143 N1145 1.384 . S
N1144 C1140 1.427 . S
N1144 C1141 1.384 . S
N1145 C1137 1.427 . S
N1145 C1143 1.384 . S
H1146 C1152 0.930 . S
H1147 C1156 0.930 . S
H1148 C1161 0.929 . S
H1149 C1159 0.929 . S
H1150 C1154 0.929 . S
H1151 C1160 0.929 . S
C1152 H1146 0.930 . S
C1152 C1153 1.367 . S
C1152 C1160 1.378 . S
C1153 C1152 1.367 . S
C1153 C1161 1.433 . S
C1154 H1150 0.929 . S
C1154 C1156 1.378 . S
C1154 C1158 1.350 . S
C1155 C1158 1.463 . S
C1155 C1160 1.350 . S
C1155 N1163 1.427 . S
C1156 H1147 0.930 . S
C1156 C1154 1.378 . S
C1156 C1157 1.367 . S
C1157 C1156 1.367 . S
C1157 C1159 1.433 . S
C1158 C1154 1.350 . S
C1158 C1155 1.463 . S
C1158 N1162 1.427 . S
C1159 H1149 0.929 . S
C1159 C1157 1.433 . S
C1159 N1162 1.384 . S
C1160 H1151 0.929 . S
C1160 C1152 1.378 . S
C1160 C1155 1.350 . S
C1161 H1148 0.929 . S
C1161 C1153 1.433 . S
C1161 N1163 1.384 . S
N1162 C1158 1.427 . S
N1162 C1159 1.384 . S
N1163 C1155 1.427 . S
N1163 C1161 1.384 . S
H1164 C1170 0.930 . S
H1165 C1174 0.930 . S
H1166 C1179 0.929 . S
H1167 C1177 0.929 . S
H1168 C1172 0.929 . S
H1169 C1178 0.929 . S
C1170 H1164 0.930 . S
C1170 C1171 1.367 . S
C1170 C1178 1.378 . S
C1171 C1170 1.367 . S
C1171 C1179 1.433 . S
C1172 H1168 0.929 . S
C1172 C1174 1.378 . S
C1172 C1176 1.350 . S
C1173 C1176 1.463 . S
C1173 C1178 1.350 . S
C1173 N1181 1.427 . S
C1174 H1165 0.930 . S
C1174 C1172 1.378 . S
C1174 C1175 1.367 . S
C1175 C1174 1.367 . S
C1175 C1177 1.433 . S
C1176 C1172 1.350 . S
C1176 C1173 1.463 . S
C1176 N1180 1.427 . S
C1177 H1167 0.929 . S
C1177 C1175 1.433 . S
C1177 N1180 1.384 . S
C1178 H1169 0.929 . S
C1178 C1170 1.378 . S
C1178 C1173 1.350 . S
C1179 H1166 0.929 . S
C1179 C1171 1.433 . S
C1179 N1181 1.384 . S
N1180 C1176 1.427 . S
N1180 C1177 1.384 . S
N1181 C1173 1.427 . S
N1181 C1179 1.384 . S
H1182 C1188 0.930 . S
H1183 C1192 0.930 . S
H1184 C1197 0.929 . S
H1185 C1195 0.929 . S
H1186 C1190 0.929 . S
H1187 C1196 0.929 . S
C1188 H1182 0.930 . S
C1188 C1189 1.367 . S
C1188 C1196 1.378 . S
C1189 C1188 1.367 . S
C1189 C1197 1.433 . S
C1190 H1186 0.929 . S
C1190 C1192 1.378 . S
C1190 C1194 1.350 . S
C1191 C1194 1.463 . S
C1191 C1196 1.350 . S
C1191 N1199 1.427 . S
C1192 H1183 0.930 . S
C1192 C1190 1.378 . S
C1192 C1193 1.367 . S
C1193 C1192 1.367 . S
C1193 C1195 1.433 . S
C1194 C1190 1.350 . S
C1194 C1191 1.463 . S
C1194 N1198 1.427 . S
C1195 H1185 0.929 . S
C1195 C1193 1.433 . S
C1195 N1198 1.384 . S
C1196 H1187 0.929 . S
C1196 C1188 1.378 . S
C1196 C1191 1.350 . S
C1197 H1184 0.929 . S
C1197 C1189 1.433 . S
C1197 N1199 1.384 . S
N1198 C1194 1.427 . S
N1198 C1195 1.384 . S
N1199 C1191 1.427 . S
N1199 C1197 1.384 . S
C343 C308 1.627 . S
C347 C11 1.648 . S
C361 C14 1.677 . S
C365 C235 1.703 . S
C379 C322 1.601 . S
C383 C28 1.599 . S
C397 C305 1.665 . S
C401 C53 1.671 . S
C415 C263 1.668 . S
C419 C67 1.675 . S
C433 C266 1.600 . S
C437 C70 1.596 . S
C451 C291 1.715 . S
C455 C84 1.692 . S
C469 C109 1.639 . S
C473 C238 1.616 . S
C487 C182 1.715 . S
C491 C112 1.714 . S
C505 C207 1.641 . S
C509 C137 1.644 . S
C523 C140 1.721 . S
C527 C210 1.716 . S
C541 C165 1.578 . S
C545 C179 1.576 . S
C559 C98 1.649 . S
C563 C196 1.653 . S
C577 C221 1.691 . S
C581 C56 1.673 . S
C595 C81 1.601 . S
C599 C168 1.575 . S
C613 C193 1.687 . S
C617 C95 1.689 . S
C631 C151 1.693 . S
C635 C25 1.692 . S
C649 C39 1.604 . S
C653 C154 1.583 . S
C667 C42 1.678 . S
C671 C123 1.699 . S
C685 C0 1.640 . S
C689 C126 1.641 . S
C703 C280 1.698 . S
C707 C294 1.700 . S
C721 C319 1.610 . S
C725 C249 1.611 . S
C739 C252 1.715 . S
C743 C224 1.712 . S
C757 C333 1.618 . S
C761 C277 1.616 . S
C775 C5 0.730 . S
C779 C117 0.712 . S
C793 C135 0.678 . S
C797 C23 0.690 . S
C811 C37 0.695 . S
C815 C145 0.673 . S
C829 C47 0.659 . S
C833 C163 0.657 . S
C847 C61 0.630 . S
C851 C177 0.656 . S
C865 C79 0.704 . S
C869 C187 0.682 . S
C883 C205 0.665 . S
C887 C93 0.674 . S
C901 C215 0.701 . S
C905 C103 0.706 . S
C919 C121 0.739 . S
C923 C233 0.745 . S
C937 C131 0.645 . S
C941 C327 0.624 . S
C955 C303 0.743 . S
C959 C149 0.732 . S
C973 C313 0.650 . S
C977 C159 0.664 . S
C991 C243 0.658 . S
C995 C173 0.638 . S
C1009 C261 0.755 . S
C1013 C191 0.758 . S
C1027 C201 0.650 . S
C1031 C271 0.651 . S
C1045 C219 0.714 . S
C1049 C289 0.725 . S
C1063 C9 0.724 . S
C1067 C229 0.735 . S
C1081 C247 0.637 . S
C1085 C65 0.650 . S
C1099 C257 0.658 . S
C1103 C75 0.651 . S
C1117 C275 0.694 . S
C1121 C89 0.702 . S
C1135 C285 0.739 . S
C1139 C107 0.726 . S
C1153 C299 0.664 . S
C1157 C33 0.682 . S
C1171 C51 0.622 . S
C1175 C317 0.635 . S
C1189 C331 0.702 . S
C1193 C19 0.705 . S
