# Generated by pormake.
# Topology vme, (6)-cn, num edge types: 1
# Building blocks:
#     Node 0, Type 0, BuildingBlock: OJICUG_clean_sbu_0, # of connection points: 6
#     Node 1, Type 0, BuildingBlock: OJICUG_clean_sbu_0, # of connection points: 6
#     Node 2, Type 0, BuildingBlock: OJICUG_clean_sbu_0, # of connection points: 6
#     Node 3, Type 0, BuildingBlock: OJICUG_clean_sbu_0, # of connection points: 6
#     Edge 4, Type (0, 0), BuildingBlock: TEMPAE_clean_linker_10, # of connection points: 2
#     Edge 5, Type (0, 0), BuildingBlock: TEMPAE_clean_linker_10, # of connection points: 2
#     Edge 6, Type (0, 0), BuildingBlock: TEMPAE_clean_linker_10, # of connection points: 2
#     Edge 7, Type (0, 0), BuildingBlock: TEMPAE_clean_linker_10, # of connection points: 2
#     Edge 8, Type (0, 0), BuildingBlock: TEMPAE_clean_linker_10, # of connection points: 2
#     Edge 9, Type (0, 0), BuildingBlock: TEMPAE_clean_linker_10, # of connection points: 2
#     Edge 10, Type (0, 0), BuildingBlock: TEMPAE_clean_linker_10, # of connection points: 2
#     Edge 11, Type (0, 0), BuildingBlock: TEMPAE_clean_linker_10, # of connection points: 2
#     Edge 12, Type (0, 0), BuildingBlock: TEMPAE_clean_linker_10, # of connection points: 2
#     Edge 13, Type (0, 0), BuildingBlock: TEMPAE_clean_linker_10, # of connection points: 2
#     Edge 14, Type (0, 0), BuildingBlock: TEMPAE_clean_linker_10, # of connection points: 2
#     Edge 15, Type (0, 0), BuildingBlock: TEMPAE_clean_linker_10, # of connection points: 2
# Relax obj value: 0.276
# Max RMSD: 0.267
# Mean RMSD: 0.267
data_MOF--net-vme--node1-OJICUG_clean_sbu_0--edge1-TEMPAE_clean_linker_10
_symmetry_space_group_name_H-M    P1
_symmetry_Int_Tables_number       1
_symmetry_cell_setting            triclinic
loop_
_symmetry_equiv_pos_as_xyz
'x, y, z'
_cell_length_a     27.412174
_cell_length_b     26.351383
_cell_length_c     29.625929
_cell_angle_alpha  90.130493
_cell_angle_beta   121.33865
_cell_angle_gamma 90.009078
loop_
_atom_site_label
_atom_site_type_symbol
_atom_site_fract_x
_atom_site_fract_y
_atom_site_fract_z
_atom_type_partial_charge
Sc0 Sc 0.22568 0.29681 0.40694 0.0
Sc1 Sc 0.12519 0.37983 0.3131 0.0
Sc2 Sc 0.20381 0.41538 0.4447 0.0
O3 O 0.18569 0.36384 0.38812 0.0
C4 C 0.21213 0.31348 0.50499 0.0
C5 C 0.09353 0.26867 0.32552 0.0
C6 C 0.07526 0.42876 0.37979 0.0
C7 C 0.21417 0.31357 0.29754 0.0
C8 C 0.32505 0.37951 0.47363 0.0
C9 C 0.17682 0.48452 0.34411 0.0
O10 O 0.20873 0.28493 0.469 0.0
O11 O 0.07802 0.31397 0.30984 0.0
O12 O 0.1171 0.41466 0.42379 0.0
O13 O 0.24461 0.30154 0.34584 0.0
O14 O 0.29138 0.41556 0.46774 0.0
O15 O 0.17017 0.44675 0.31471 0.0
O16 O 0.30845 0.33386 0.4583 0.0
O17 O 0.16708 0.33749 0.27896 0.0
O18 O 0.18575 0.47863 0.39062 0.0
O19 O 0.14586 0.2558 0.35579 0.0
O20 O 0.22026 0.36102 0.50576 0.0
O21 O 0.07526 0.42555 0.33682 0.0
Sc22 Sc 0.79436 0.91191 0.05564 0.0
Sc23 Sc 0.8738 0.8794 0.18765 0.0
Sc24 Sc 0.77154 0.79556 0.0961 0.0
O25 O 0.81239 0.86219 0.11324 0.0
C26 C 0.67303 0.87788 0.02759 0.0
C27 C 0.82246 0.98389 0.15498 0.0
C28 C 0.78453 0.81627 0.20518 0.0
C29 C 0.92288 0.92516 0.11926 0.0
C30 C 0.78415 0.80787 0.99741 0.0
C31 C 0.90363 0.76729 0.17678 0.0
O32 O 0.70711 0.91339 0.03309 0.0
O33 O 0.82978 0.94715 0.1856 0.0
O34 O 0.75296 0.80407 0.15701 0.0
O35 O 0.88074 0.90993 0.07588 0.0
O36 O 0.78784 0.78057 0.03418 0.0
O37 O 0.91995 0.81283 0.19088 0.0
O38 O 0.77678 0.85557 0.99583 0.0
O39 O 0.92345 0.92353 0.16255 0.0
O40 O 0.85098 0.75447 0.14817 0.0
O41 O 0.81321 0.97646 0.10854 0.0
O42 O 0.6891 0.83243 0.04377 0.0
O43 O 0.83246 0.83869 0.22318 0.0
Sc44 Sc 0.7856 0.56309 0.5442 0.0
Sc45 Sc 0.88683 0.64236 0.64132 0.0
Sc46 Sc 0.74422 0.66935 0.58449 0.0
O47 O 0.80587 0.62369 0.59078 0.0
C48 C 0.71333 0.65535 0.46905 0.0
C49 C 0.89201 0.60274 0.54194 0.0
C50 C 0.84466 0.74877 0.61549 0.0
C51 C 0.89122 0.52477 0.65621 0.0
C52 C 0.68309 0.56126 0.55943 0.0
C53 C 0.81988 0.66143 0.70346 0.0
O54 O 0.72154 0.6073 0.47608 0.0
O55 O 0.91707 0.62031 0.58891 0.0
O56 O 0.79908 0.73684 0.61446 0.0
O57 O 0.85127 0.51602 0.60839 0.0
O58 O 0.67968 0.60947 0.55611 0.0
O59 O 0.86429 0.66619 0.69969 0.0
O60 O 0.72627 0.53753 0.56554 0.0
O61 O 0.90488 0.56921 0.67542 0.0
O62 O 0.77043 0.65204 0.66377 0.0
O63 O 0.84225 0.58405 0.51904 0.0
O64 O 0.72245 0.68574 0.50612 0.0
O65 O 0.87247 0.71575 0.60731 0.0
Sc66 Sc 0.25735 0.17187 0.91874 0.0
Sc67 Sc 0.1149 0.1461 0.86574 0.0
Sc68 Sc 0.21695 0.06335 0.95603 0.0
O69 O 0.19586 0.12561 0.91229 0.0
C70 C 0.31744 0.06418 0.93858 0.0
C71 C 0.17843 0.16655 0.80007 0.0
C72 C 0.107 0.02869 0.84477 0.0
C73 C 0.15864 0.25105 0.89159 0.0
C74 C 0.28963 0.15433 0.0339 0.0
C75 C 0.11477 0.10236 0.96625 0.0
O76 O 0.32174 0.11215 0.94484 0.0
O77 O 0.13499 0.17076 0.80561 0.0
O78 O 0.14983 0.01823 0.89066 0.0
O79 O 0.20306 0.23953 0.89055 0.0
O80 O 0.28221 0.1063 0.02517 0.0
O81 O 0.08844 0.12366 0.92103 0.0
O82 O 0.28034 0.18613 0.99796 0.0
O83 O 0.13433 0.21796 0.90366 0.0
O84 O 0.16274 0.08115 0.98449 0.0
O85 O 0.22849 0.15633 0.83846 0.0
O86 O 0.27379 0.04027 0.93099 0.0
O87 O 0.09198 0.07386 0.82859 0.0
C88 C 0.85007 0.0732 0.1503 0.0
C89 C 0.84225 0.035 0.17892 0.0
C90 C 0.88537 0.11512 0.17605 0.0
C91 C 0.91229 0.11961 0.23166 0.0
C92 C 0.89881 0.08464 0.25975 0.0
C93 C 0.86418 0.04254 0.23312 0.0
C94 C 0.89554 0.15308 0.14361 0.0
C95 C 0.92395 0.08979 0.31853 0.0
C96 C 0.06054 0.17843 0.30328 0.0
C97 C 0.0482 0.22949 0.30608 0.0
C98 C 0.01676 0.14202 0.2802 0.0
C99 C 0.9594 0.15687 0.26078 0.0
C100 C 0.94718 0.20784 0.26627 0.0
C101 C 0.99157 0.24364 0.28816 0.0
C102 C 0.03248 0.0878 0.27662 0.0
C103 C 0.88718 0.22496 0.24804 0.0
H104 H 0.83217 0.06857 0.10818 0.0
H105 H 0.85751 0.01389 0.25559 0.0
H106 H 0.86756 0.18642 0.13565 0.0
H107 H 0.94035 0.16677 0.16462 0.0
H108 H 0.88512 0.13694 0.1049 0.0
H109 H 0.90047 0.0664 0.33229 0.0
H110 H 0.96908 0.07711 0.3397 0.0
H111 H 0.92339 0.13 0.32953 0.0
H112 H 0.10421 0.16715 0.31745 0.0
H113 H 0.98177 0.28295 0.29101 0.0
H114 H -0.00082 0.06872 0.24006 0.0
H115 H 0.0372 0.06621 0.31076 0.0
H116 H 0.07369 0.08564 0.27796 0.0
H117 H 0.86296 0.22949 0.2045 0.0
H118 H 0.8868 0.26195 0.26594 0.0
H119 H 0.86451 0.19641 0.25804 0.0
C120 C 0.15425 0.57597 0.34774 0.0
C121 C 0.15631 0.53484 0.31855 0.0
C122 C 0.11903 0.61795 0.32228 0.0
C123 C 0.08528 0.61883 0.26641 0.0
C124 C 0.0925 0.58056 0.23685 0.0
C125 C 0.12803 0.53902 0.26325 0.0
C126 C 0.11519 0.65982 0.35514 0.0
C127 C 0.0596 0.58166 0.17722 0.0
C128 C 0.93849 0.67889 0.20707 0.0
C129 C 0.94848 0.72794 0.19568 0.0
C130 C 0.98267 0.64291 0.22956 0.0
C131 C 0.03766 0.65593 0.23943 0.0
C132 C 0.04712 0.70468 0.22557 0.0
C133 C 0.00268 0.74036 0.2047 0.0
C134 C 0.97084 0.59133 0.24397 0.0
C135 C 0.10429 0.71997 0.23382 0.0
H136 H 0.17689 0.57379 0.39049 0.0
H137 H 0.13006 0.50807 0.24012 0.0
H138 H 0.1288 0.69622 0.34638 0.0
H139 H 0.07033 0.66463 0.3448 0.0
H140 H 0.14249 0.65247 0.39821 0.0
H141 H 0.07661 0.55397 0.16048 0.0
H142 H 0.01415 0.57228 0.16195 0.0
H143 H 0.06097 0.62018 0.16284 0.0
H144 H 0.89674 0.66923 0.20027 0.0
H145 H 0.01045 0.77817 0.19541 0.0
H146 H 0.00219 0.58304 0.28608 0.0
H147 H 0.97581 0.56165 0.22006 0.0
H148 H 0.92714 0.58845 0.23734 0.0
H149 H 0.13245 0.73319 0.27511 0.0
H150 H 0.09989 0.75159 0.2072 0.0
H151 H 0.12569 0.68767 0.22703 0.0
C152 C 0.07804 0.93663 0.82463 0.0
C153 C 0.06959 0.98764 0.80897 0.0
C154 C 0.03947 0.89889 0.79166 0.0
C155 C 0.99132 0.91263 0.74219 0.0
C156 C 0.98291 0.96383 0.72603 0.0
C157 C 0.02217 0.00051 0.75931 0.0
C158 C 0.05 0.84437 0.80981 0.0
C159 C 0.93202 0.98006 0.67371 0.0
C160 C 0.92093 0.81186 0.63567 0.0
C161 C 0.87484 0.79668 0.64059 0.0
C162 C 0.95885 0.84978 0.66822 0.0
C163 C 0.95026 0.87345 0.70643 0.0
C164 C 0.9022 0.86018 0.70988 0.0
C165 C 0.86493 0.82191 0.67681 0.0
C166 C 0.00938 0.86307 0.66311 0.0
C167 C 0.89137 0.88499 0.74985 0.0
H168 H 0.11428 0.92626 0.86284 0.0
H169 H 0.0149 0.03969 0.74642 0.0
H170 H 0.01342 0.82982 0.8122 0.0
H171 H 0.05331 0.82043 0.78065 0.0
H172 H 0.08966 0.83983 0.84906 0.0
H173 H 0.93128 0.02165 0.66731 0.0
H174 H 0.93244 0.96037 0.64078 0.0
H175 H 0.89188 0.96909 0.67176 0.0
H176 H 0.92882 0.79248 0.60774 0.0
H177 H 0.8299 0.80992 0.68138 0.0
H178 H 0.04965 0.85445 0.70066 0.0
H179 H 0.00956 0.90429 0.6557 0.0
H180 H 0.00924 0.84183 0.6306 0.0
H181 H 0.92675 0.87587 0.79039 0.0
H182 H 0.85057 0.87225 0.74566 0.0
H183 H 0.8903 0.92687 0.74561 0.0
C184 C 0.92324 0.4333 0.67224 0.0
C185 C 0.92753 0.48298 0.69106 0.0
C186 C 0.96181 0.39552 0.70484 0.0
C187 C 0.00575 0.40803 0.75706 0.0
C188 C 0.00987 0.45785 0.77629 0.0
C189 C 0.97055 0.49439 0.74341 0.0
C190 C 0.95578 0.34236 0.68347 0.0
C191 C 0.05632 0.47284 0.83157 0.0
C192 C 0.07387 0.30655 0.86211 0.0
C193 C 0.12461 0.29628 0.86293 0.0
C194 C 0.03444 0.34206 0.8271 0.0
C195 C 0.04649 0.36894 0.79278 0.0
C196 C 0.09862 0.36043 0.79477 0.0
C197 C 0.13706 0.324 0.82975 0.0
C198 C 0.97922 0.34991 0.826 0.0
C199 C 0.11328 0.38908 0.75929 0.0
H200 H 0.89043 0.42411 0.63194 0.0
H201 H 0.97448 0.53249 0.7588 0.0
H202 H 0.99527 0.33136 0.68423 0.0
H203 H 0.95015 0.3151 0.70892 0.0
H204 H 0.91896 0.3386 0.64233 0.0
H205 H 0.05466 0.51373 0.83988 0.0
H206 H 0.05244 0.45024 0.86109 0.0
H207 H 0.09889 0.46457 0.83732 0.0
H208 H 0.06379 0.28534 0.88755 0.0
H209 H 0.17577 0.31597 0.82965 0.0
H210 H 0.94234 0.34255 0.78563 0.0
H211 H 0.97598 0.38986 0.83601 0.0
H212 H 0.97559 0.32471 0.85414 0.0
H213 H 0.08128 0.38057 0.71731 0.0
H214 H 0.15632 0.37919 0.7669 0.0
H215 H 0.11175 0.43056 0.76503 0.0
C216 C 0.89089 0.59954 0.45791 0.0
C217 C 0.92245 0.59775 0.51336 0.0
C218 C 0.91336 0.58015 0.42847 0.0
C219 C 0.9682 0.55811 0.45522 0.0
C220 C 0.00272 0.56172 0.51103 0.0
C221 C 0.97931 0.58158 0.53968 0.0
C222 C 0.87667 0.57938 0.369 0.0
C223 C 0.06286 0.54126 0.54052 0.0
C224 C 0.00126 0.44098 0.40224 0.0
C225 C 0.03399 0.46123 0.38299 0.0
C226 C 0.97641 0.47278 0.4227 0.0
C227 C 0.98667 0.52579 0.42577 0.0
C228 C 0.01724 0.54658 0.40368 0.0
C229 C 0.03986 0.51389 0.38172 0.0
C230 C 0.9423 0.4493 0.44416 0.0
C231 C 0.02914 0.60267 0.40526 0.0
H232 H 0.84714 0.61307 0.43749 0.0
H233 H 0.00384 0.58053 0.58251 0.0
H234 H 0.84004 0.60572 0.35439 0.0
H235 H 0.90202 0.59009 0.35103 0.0
H236 H 0.85999 0.5404 0.35548 0.0
H237 H 0.08643 0.55281 0.58278 0.0
H238 H 0.06164 0.49919 0.53841 0.0
H239 H 0.0867 0.5548 0.52193 0.0
H240 H -0.00213 0.40011 0.40402 0.0
H241 H 0.06645 0.5293 0.36786 0.0
H242 H 0.90099 0.46939 0.42839 0.0
H243 H 0.96617 0.45318 0.48784 0.0
H244 H 0.93355 0.40838 0.43397 0.0
H245 H 0.00283 0.61833 0.36478 0.0
H246 H 0.07466 0.6088 0.41826 0.0
H247 H 0.01972 0.62453 0.43184 0.0
C248 C 0.97504 0.00575 0.13152 0.0
C249 C 0.9656 0.95488 0.11525 0.0
C250 C 0.00132 0.0391 0.11359 0.0
C251 C 0.01828 0.02072 0.0789 0.0
C252 C 0.01263 0.96845 0.0658 0.0
C253 C 0.9858 0.93626 0.08377 0.0
C254 C 0.00704 0.09444 0.12862 0.0
C255 C 0.03269 0.94685 0.0309 0.0
C256 C 0.02878 0.09378 0.97482 0.0
C257 C 0.08812 0.09633 0.99831 0.0
C258 C 0.0048 0.07388 0.00299 0.0
C259 C 0.04123 0.0554 0.05503 0.0
C260 C 0.1008 0.0627 0.08046 0.0
C261 C 0.12337 0.08427 0.05214 0.0
C262 C 0.9408 0.06835 0.97549 0.0
C263 C 0.14114 0.04405 0.13605 0.0
H264 H 0.95792 0.02031 0.15475 0.0
H265 H 0.97789 0.89693 0.07098 0.0
H266 H 0.04834 0.11026 0.13678 0.0
H267 H 0.9725 0.11613 0.09519 0.0
H268 H 0.00361 0.10048 0.16393 0.0
H269 H 0.02859 0.90487 0.02751 0.0
H270 H 0.00723 0.96327 0.99069 0.0
H271 H 0.07806 0.95713 0.04684 0.0
H272 H 0.00133 0.10369 0.93352 0.0
H273 H 0.16933 0.08791 0.07111 0.0
H274 H 0.92575 0.07928 0.00243 0.0
H275 H 0.92884 0.02805 0.96413 0.0
H276 H 0.91836 0.09192 0.93922 0.0
H277 H 0.13756 0.06879 0.16453 0.0
H278 H 0.18625 0.04421 0.14628 0.0
H279 H 0.13023 0.00482 0.1413 0.0
C280 C 0.28675 0.14637 0.11682 0.0
C281 C 0.29923 0.17544 0.08444 0.0
C282 C 0.27979 0.16952 0.15592 0.0
C283 C 0.2852 0.22289 0.16257 0.0
C284 C 0.30272 0.25173 0.13327 0.0
C285 C 0.30979 0.22765 0.09478 0.0
C286 C 0.26238 0.1372 0.1872 0.0
C287 C 0.30989 0.3086 0.13971 0.0
C288 C 0.19372 0.28782 0.20769 0.0
C289 C 0.23309 0.29521 0.26169 0.0
C290 C 0.21031 0.26459 0.17498 0.0
C291 C 0.26778 0.24903 0.19665 0.0
C292 C 0.30809 0.25794 0.25071 0.0
C293 C 0.29024 0.28071 0.28257 0.0
C294 C 0.16596 0.25539 0.1175 0.0
C295 C 0.36972 0.24212 0.27523 0.0
H296 H 0.2785 0.10607 0.10932 0.0
H297 H 0.32011 0.25048 0.07046 0.0
H298 H 0.2844 0.1495 0.22911 0.0
H299 H 0.21576 0.14132 0.17041 0.0
H300 H 0.272 0.09648 0.18587 0.0
H301 H 0.33028 0.32458 0.11881 0.0
H302 H 0.2674 0.32659 0.12355 0.0
H303 H 0.33607 0.31908 0.18212 0.0
H304 H 0.14946 0.29847 0.19136 0.0
H305 H 0.32108 0.2865 0.32425 0.0
H306 H 0.16141 0.21401 0.10914 0.0
H307 H 0.17978 0.27298 0.09194 0.0
H308 H 0.1235 0.27096 0.10641 0.0
H309 H 0.37231 0.20023 0.27325 0.0
H310 H 0.39637 0.2542 0.3172 0.0
H311 H 0.38809 0.25853 0.2528 0.0
C312 C 0.80637 0.78784 0.29436 0.0
C313 C 0.76607 0.79918 0.24157 0.0
C314 C 0.78968 0.76456 0.32684 0.0
C315 C 0.73119 0.75327 0.30625 0.0
C316 C 0.6901 0.76644 0.25361 0.0
C317 C 0.70807 0.78894 0.22182 0.0
C318 C 0.8349 0.75014 0.38258 0.0
C319 C 0.62741 0.75533 0.23028 0.0
C320 C 0.7087 0.64958 0.38231 0.0
C321 C 0.70257 0.67835 0.41897 0.0
C322 C 0.71424 0.6734 0.34279 0.0
C323 C 0.71377 0.72711 0.34012 0.0
C324 C 0.70224 0.75597 0.37376 0.0
C325 C 0.69638 0.73126 0.4125 0.0
C326 C 0.72249 0.6411 0.30513 0.0
C327 C 0.70021 0.81324 0.37145 0.0
H328 H 0.85126 0.79504 0.30961 0.0
H329 H 0.67664 0.79773 0.181 0.0
H330 H 0.8249 0.76711 0.41115 0.0
H331 H 0.83537 0.70829 0.38708 0.0
H332 H 0.87826 0.76272 0.39307 0.0
H333 H 0.60034 0.77385 0.19128 0.0
H334 H 0.62019 0.71378 0.225 0.0
H335 H 0.61324 0.76824 0.25733 0.0
H336 H 0.71263 0.60868 0.38635 0.0
H337 H 0.69063 0.75395 0.43995 0.0
H338 H 0.75721 0.65636 0.30028 0.0
H339 H 0.68271 0.64165 0.26568 0.0
H340 H 0.73231 0.60102 0.31837 0.0
H341 H 0.74382 0.82831 0.38636 0.0
H342 H 0.6839 0.82969 0.39566 0.0
H343 H 0.67272 0.82635 0.33008 0.0
C344 C 0.77557 0.80851 0.90907 0.0
C345 C 0.79221 0.78358 0.95669 0.0
C346 C 0.7848 0.78636 0.87105 0.0
C347 C 0.81205 0.73851 0.88129 0.0
C348 C 0.8299 0.71358 0.92964 0.0
C349 C 0.81934 0.73622 0.96659 0.0
C350 C 0.76451 0.81377 0.81954 0.0
C351 C 0.85991 0.66293 0.94222 0.0
C352 C 0.77727 0.66227 0.75993 0.0
C353 C 0.82328 0.67428 0.75364 0.0
C354 C 0.77417 0.68157 0.80238 0.0
C355 C 0.81847 0.71328 0.83986 0.0
C356 C 0.86676 0.72312 0.83565 0.0
C357 C 0.86858 0.70352 0.79241 0.0
C358 C 0.72193 0.67023 0.80546 0.0
C359 C 0.91512 0.75636 0.87529 0.0
H360 H 0.75477 0.84516 0.90125 0.0
H361 H 0.83321 0.71707 0.0037 0.0
H362 H 0.80068 0.81973 0.81335 0.0
H363 H 0.73226 0.79026 0.78613 0.0
H364 H 0.74519 0.85121 0.81822 0.0
H365 H 0.87397 0.64992 0.98285 0.0
H366 H 0.83096 0.63383 0.91372 0.0
H367 H 0.89781 0.66535 0.93808 0.0
H368 H 0.74234 0.63925 0.73043 0.0
H369 H 0.90417 0.71312 0.78775 0.0
H370 H 0.69797 0.70585 0.80025 0.0
H371 H 0.73463 0.65479 0.84487 0.0
H372 H 0.6928 0.64263 0.77479 0.0
H373 H 0.90024 0.79621 0.87069 0.0
H374 H 0.95246 0.7552 0.87013 0.0
H375 H 0.92909 0.7445 0.91618 0.0
C376 C 0.12938 0.21293 0.71349 0.0
C377 C 0.17351 0.18112 0.7496 0.0
C378 C 0.13043 0.23379 0.67033 0.0
C379 C 0.17681 0.22269 0.66351 0.0
C380 C 0.21995 0.18878 0.69846 0.0
C381 C 0.21757 0.16823 0.74078 0.0
C382 C 0.0833 0.26939 0.63352 0.0
C383 C 0.27021 0.17603 0.69271 0.0
C384 C 0.17268 0.24493 0.53514 0.0
C385 C 0.20284 0.29081 0.54564 0.0
C386 C 0.16162 0.22349 0.57222 0.0
C387 C 0.1822 0.24792 0.62145 0.0
C388 C 0.21214 0.29451 0.63213 0.0
C389 C 0.22165 0.31565 0.59387 0.0
C390 C 0.12851 0.17435 0.55896 0.0
C391 C 0.23547 0.32133 0.68453 0.0
H392 H 0.09543 0.22341 0.72023 0.0
H393 H 0.25162 0.14336 0.76824 0.0
H394 H 0.10015 0.30871 0.64001 0.0
H395 H 0.06745 0.25935 0.59172 0.0
H396 H 0.04682 0.26881 0.63996 0.0
H397 H 0.2992 0.14771 0.72227 0.0
H398 H 0.25512 0.1608 0.65261 0.0
H399 H 0.2951 0.21097 0.69753 0.0
H400 H 0.15699 0.22598 0.49752 0.0
H401 H 0.24469 0.35121 0.60211 0.0
H402 H 0.09227 0.17839 0.56541 0.0
H403 H 0.15647 0.14381 0.58555 0.0
H404 H 0.11154 0.16231 0.51742 0.0
H405 H 0.20075 0.32836 0.69251 0.0
H406 H 0.25594 0.35815 0.6859 0.0
H407 H 0.26756 0.29687 0.71681 0.0
C408 C 0.41245 0.42531 0.53999 0.0
C409 C 0.38534 0.39334 0.49575 0.0
C410 C 0.46503 0.44816 0.55523 0.0
C411 C 0.49 0.44015 0.52432 0.0
C412 C 0.46411 0.40584 0.48106 0.0
C413 C 0.41225 0.38226 0.46767 0.0
C414 C 0.49206 0.48318 0.60256 0.0
C415 C 0.48881 0.39698 0.44654 0.0
C416 C 0.57819 0.54969 0.52089 0.0
C417 C 0.63396 0.53129 0.55245 0.0
C418 C 0.53102 0.52003 0.51089 0.0
C419 C 0.53993 0.47136 0.5342 0.0
C420 C 0.59624 0.45312 0.5672 0.0
C421 C 0.64257 0.48304 0.57536 0.0
C422 C 0.47157 0.54051 0.47472 0.0
C423 C 0.60751 0.40215 0.59398 0.0
H424 H 0.39137 0.43388 0.56157 0.0
H425 H 0.39068 0.35816 0.43292 0.0
H426 H 0.53833 0.47498 0.62821 0.0
H427 H 0.48789 0.52306 0.58912 0.0
H428 H 0.47168 0.47975 0.62648 0.0
H429 H 0.46655 0.36586 0.41753 0.0
H430 H 0.48503 0.43226 0.42455 0.0
H431 H 0.53488 0.38766 0.47099 0.0
H432 H 0.57133 0.58672 0.50269 0.0
H433 H 0.68571 0.46881 0.60008 0.0
H434 H 0.44891 0.54409 0.49654 0.0
H435 H 0.44666 0.51371 0.44148 0.0
H436 H 0.47194 0.57822 0.45822 0.0
H437 H 0.58782 0.40071 0.61855 0.0
H438 H 0.65388 0.39406 0.61954 0.0
H439 H 0.58753 0.37161 0.56391 0.0
C440 C 0.42223 0.052 0.97715 0.0
C441 C 0.36621 0.0343 0.94479 0.0
C442 C 0.469 0.02172 0.98731 0.0
C443 C 0.45939 0.97311 0.96352 0.0
C444 C 0.40287 0.95571 0.92949 0.0
C445 C 0.35694 0.98629 0.92101 0.0
C446 C 0.52873 0.04136 0.02438 0.0
C447 C 0.39094 0.90477 0.90227 0.0
C448 C 0.58713 0.92402 0.96016 0.0
C449 C 0.61281 0.89225 0.00444 0.0
C450 C 0.53494 0.94788 0.94414 0.0
C451 C 0.50882 0.94093 0.97418 0.0
C452 C 0.53309 0.90665 0.01729 0.0
C453 C 0.5847 0.88216 0.03159 0.0
C454 C 0.50968 0.98294 0.89704 0.0
C455 C 0.50693 0.89876 0.05073 0.0
H456 H 0.42959 0.08885 0.99598 0.0
H457 H 0.31362 0.97258 0.89568 0.0
H458 H 0.55233 0.01461 0.05777 0.0
H459 H 0.55239 0.04383 0.00341 0.0
H460 H 0.52886 0.07943 0.04064 0.0
H461 H 0.3445 0.89762 0.8755 0.0
H462 H 0.412 0.90249 0.8789 0.0
H463 H 0.4091 0.87406 0.93212 0.0
H464 H 0.60913 0.93177 0.93928 0.0
H465 H 0.60516 0.85818 0.06634 0.0
H466 H 0.5146 0.02287 0.9107 0.0
H467 H 0.4633 0.97552 0.87065 0.0
H468 H 0.5308 0.97874 0.87382 0.0
H469 H 0.51091 0.93424 0.07266 0.0
H470 H 0.52799 0.86756 0.07973 0.0
H471 H 0.46073 0.89006 0.02546 0.0
loop_
_geom_bond_atom_site_label_1
_geom_bond_atom_site_label_2
_geom_bond_distance
_geom_bond_site_symmetry_2
_ccdc_geom_bond_type
Sc0 O3 2.025 . S
Sc0 O10 2.105 . S
Sc0 O13 2.105 . S
Sc0 O16 2.105 . S
Sc0 O19 2.105 . S
Sc1 O3 2.025 . S
Sc1 O11 2.105 . S
Sc1 O15 2.105 . S
Sc1 O17 2.105 . S
Sc1 O21 2.105 . S
Sc2 O3 2.025 . S
Sc2 O12 2.105 . S
Sc2 O14 2.105 . S
Sc2 O18 2.105 . S
Sc2 O20 2.105 . S
O3 Sc0 2.025 . S
O3 Sc1 2.025 . S
O3 Sc2 2.025 . S
C4 O10 1.268 . S
C4 O20 1.268 . S
C5 O11 1.268 . S
C5 O19 1.268 . S
C6 O12 1.268 . S
C6 O21 1.268 . S
C7 O13 1.268 . S
C7 O17 1.268 . S
C8 O14 1.268 . S
C8 O16 1.268 . S
C9 O15 1.268 . S
C9 O18 1.268 . S
O10 Sc0 2.105 . S
O10 C4 1.268 . S
O11 Sc1 2.105 . S
O11 C5 1.268 . S
O12 Sc2 2.105 . S
O12 C6 1.268 . S
O13 Sc0 2.105 . S
O13 C7 1.268 . S
O14 Sc2 2.105 . S
O14 C8 1.268 . S
O15 Sc1 2.105 . S
O15 C9 1.268 . S
O16 Sc0 2.105 . S
O16 C8 1.268 . S
O17 Sc1 2.105 . S
O17 C7 1.268 . S
O18 Sc2 2.105 . S
O18 C9 1.268 . S
O19 Sc0 2.105 . S
O19 C5 1.268 . S
O20 Sc2 2.105 . S
O20 C4 1.268 . S
O21 Sc1 2.105 . S
O21 C6 1.268 . S
Sc22 O25 2.025 . S
Sc22 O32 2.105 . S
Sc22 O35 2.105 . S
Sc22 O38 2.105 1_554 S
Sc22 O41 2.105 . S
Sc23 O25 2.025 . S
Sc23 O33 2.105 . S
Sc23 O37 2.105 . S
Sc23 O39 2.105 . S
Sc23 O43 2.105 . S
Sc24 O25 2.025 . S
Sc24 O34 2.105 . S
Sc24 O36 2.105 . S
Sc24 O40 2.105 . S
Sc24 O42 2.105 . S
O25 Sc22 2.025 . S
O25 Sc23 2.025 . S
O25 Sc24 2.025 . S
C26 O32 1.268 . S
C26 O42 1.268 . S
C27 O33 1.268 . S
C27 O41 1.268 . S
C28 O34 1.268 . S
C28 O43 1.268 . S
C29 O35 1.268 . S
C29 O39 1.268 . S
C30 O36 1.268 1_556 S
C30 O38 1.268 . S
C31 O37 1.268 . S
C31 O40 1.268 . S
O32 Sc22 2.105 . S
O32 C26 1.268 . S
O33 Sc23 2.105 . S
O33 C27 1.268 . S
O34 Sc24 2.105 . S
O34 C28 1.268 . S
O35 Sc22 2.105 . S
O35 C29 1.268 . S
O36 Sc24 2.105 . S
O36 C30 1.268 1_554 S
O37 Sc23 2.105 . S
O37 C31 1.268 . S
O38 Sc22 2.105 1_556 S
O38 C30 1.268 . S
O39 Sc23 2.105 . S
O39 C29 1.268 . S
O40 Sc24 2.105 . S
O40 C31 1.268 . S
O41 Sc22 2.105 . S
O41 C27 1.268 . S
O42 Sc24 2.105 . S
O42 C26 1.268 . S
O43 Sc23 2.105 . S
O43 C28 1.268 . S
Sc44 O47 2.025 . S
Sc44 O54 2.105 . S
Sc44 O57 2.105 . S
Sc44 O60 2.105 . S
Sc44 O63 2.105 . S
Sc45 O47 2.025 . S
Sc45 O55 2.105 . S
Sc45 O59 2.105 . S
Sc45 O61 2.105 . S
Sc45 O65 2.105 . S
Sc46 O47 2.025 . S
Sc46 O56 2.105 . S
Sc46 O58 2.105 . S
Sc46 O62 2.105 . S
Sc46 O64 2.105 . S
O47 Sc44 2.025 . S
O47 Sc45 2.025 . S
O47 Sc46 2.025 . S
C48 O54 1.268 . S
C48 O64 1.268 . S
C49 O55 1.268 . S
C49 O63 1.268 . S
C50 O56 1.268 . S
C50 O65 1.268 . S
C51 O57 1.268 . S
C51 O61 1.268 . S
C52 O58 1.268 . S
C52 O60 1.268 . S
C53 O59 1.268 . S
C53 O62 1.268 . S
O54 Sc44 2.105 . S
O54 C48 1.268 . S
O55 Sc45 2.105 . S
O55 C49 1.268 . S
O56 Sc46 2.105 . S
O56 C50 1.268 . S
O57 Sc44 2.105 . S
O57 C51 1.268 . S
O58 Sc46 2.105 . S
O58 C52 1.268 . S
O59 Sc45 2.105 . S
O59 C53 1.268 . S
O60 Sc44 2.105 . S
O60 C52 1.268 . S
O61 Sc45 2.105 . S
O61 C51 1.268 . S
O62 Sc46 2.105 . S
O62 C53 1.268 . S
O63 Sc44 2.105 . S
O63 C49 1.268 . S
O64 Sc46 2.105 . S
O64 C48 1.268 . S
O65 Sc45 2.105 . S
O65 C50 1.268 . S
Sc66 O69 2.025 . S
Sc66 O76 2.105 . S
Sc66 O79 2.105 . S
Sc66 O82 2.105 . S
Sc66 O85 2.105 . S
Sc67 O69 2.025 . S
Sc67 O77 2.105 . S
Sc67 O81 2.105 . S
Sc67 O83 2.105 . S
Sc67 O87 2.105 . S
Sc68 O69 2.025 . S
Sc68 O78 2.105 . S
Sc68 O80 2.105 1_556 S
Sc68 O84 2.105 . S
Sc68 O86 2.105 . S
O69 Sc66 2.025 . S
O69 Sc67 2.025 . S
O69 Sc68 2.025 . S
C70 O76 1.268 . S
C70 O86 1.268 . S
C71 O77 1.268 . S
C71 O85 1.268 . S
C72 O78 1.268 . S
C72 O87 1.268 . S
C73 O79 1.268 . S
C73 O83 1.268 . S
C74 O80 1.268 . S
C74 O82 1.268 1_554 S
C75 O81 1.268 . S
C75 O84 1.268 . S
O76 Sc66 2.105 . S
O76 C70 1.268 . S
O77 Sc67 2.105 . S
O77 C71 1.268 . S
O78 Sc68 2.105 . S
O78 C72 1.268 . S
O79 Sc66 2.105 . S
O79 C73 1.268 . S
O80 Sc68 2.105 1_554 S
O80 C74 1.268 . S
O81 Sc67 2.105 . S
O81 C75 1.268 . S
O82 Sc66 2.105 . S
O82 C74 1.268 1_556 S
O83 Sc67 2.105 . S
O83 C73 1.268 . S
O84 Sc68 2.105 . S
O84 C75 1.268 . S
O85 Sc66 2.105 . S
O85 C71 1.268 . S
O86 Sc68 2.105 . S
O86 C70 1.268 . S
O87 Sc67 2.105 . S
O87 C72 1.268 . S
C88 C89 1.391 . S
C88 C90 1.394 . S
C88 H104 0.931 . S
C89 C88 1.391 . S
C89 C93 1.376 . S
C90 C88 1.394 . S
C90 C91 1.369 . S
C90 C94 1.531 1_655 S
C91 C90 1.369 . S
C91 C92 1.410 . S
C91 C99 1.503 . S
C92 C91 1.410 . S
C92 C93 1.392 . S
C92 C95 1.511 . S
C93 C89 1.376 . S
C93 C92 1.392 . S
C93 H105 0.929 . S
C94 C90 1.531 1_455 S
C94 H106 0.960 . S
C94 H107 0.962 . S
C94 H108 0.960 . S
C95 C92 1.511 . S
C95 H109 0.961 . S
C95 H110 0.961 . S
C95 H111 0.961 . S
C96 C97 1.370 . S
C96 C98 1.363 . S
C96 H112 0.931 . S
C97 C96 1.370 . S
C97 C101 1.408 . S
C98 C96 1.363 . S
C98 C99 1.370 1_455 S
C98 C102 1.524 . S
C99 C91 1.503 . S
C99 C98 1.370 1_655 S
C99 C100 1.403 1_655 S
C100 C99 1.403 1_455 S
C100 C101 1.404 . S
C100 C103 1.539 1_455 S
C101 C97 1.408 . S
C101 C100 1.404 . S
C101 H113 0.930 . S
C102 C98 1.524 . S
C102 H114 0.956 . S
C102 H115 0.961 1_455 S
C102 H116 0.961 . S
C103 C100 1.539 1_655 S
C103 H117 0.958 . S
C103 H118 0.961 . S
C103 H119 0.960 . S
H104 C88 0.931 . S
H105 C93 0.929 . S
H106 C94 0.960 . S
H107 C94 0.962 . S
H108 C94 0.960 . S
H109 C95 0.961 . S
H110 C95 0.961 . S
H111 C95 0.961 . S
H112 C96 0.931 . S
H113 C101 0.930 . S
H114 C102 0.956 . S
H115 C102 0.961 1_655 S
H116 C102 0.961 . S
H117 C103 0.958 . S
H118 C103 0.961 . S
H119 C103 0.960 . S
C120 C121 1.391 . S
C120 C122 1.394 . S
C120 H136 0.931 . S
C121 C120 1.391 . S
C121 C125 1.376 . S
C122 C120 1.394 . S
C122 C123 1.369 . S
C122 C126 1.531 . S
C123 C122 1.369 . S
C123 C124 1.410 . S
C123 C131 1.503 . S
C124 C123 1.410 . S
C124 C125 1.392 . S
C124 C127 1.511 1_455 S
C125 C121 1.376 . S
C125 C124 1.392 . S
C125 H137 0.929 . S
C126 C122 1.531 . S
C126 H138 0.960 . S
C126 H139 0.962 . S
C126 H140 0.960 . S
C127 C124 1.511 1_655 S
C127 H141 0.961 . S
C127 H142 0.961 . S
C127 H143 0.961 . S
C128 C129 1.370 . S
C128 C130 1.363 . S
C128 H144 0.931 . S
C129 C128 1.370 . S
C129 C133 1.408 . S
C130 C128 1.363 . S
C130 C131 1.370 1_655 S
C130 C134 1.524 1_655 S
C131 C123 1.503 . S
C131 C130 1.370 1_455 S
C131 C132 1.403 1_455 S
C132 C131 1.403 1_655 S
C132 C133 1.404 . S
C132 C135 1.539 1_655 S
C133 C129 1.408 . S
C133 C132 1.404 . S
C133 H145 0.930 . S
C134 C130 1.524 1_455 S
C134 H146 0.956 . S
C134 H147 0.961 1_455 S
C134 H148 0.961 1_455 S
C135 C132 1.539 1_455 S
C135 H149 0.958 . S
C135 H150 0.961 1_455 S
C135 H151 0.960 . S
H136 C120 0.931 . S
H137 C125 0.929 . S
H138 C126 0.960 . S
H139 C126 0.962 . S
H140 C126 0.960 . S
H141 C127 0.961 . S
H142 C127 0.961 . S
H143 C127 0.961 . S
H144 C128 0.931 . S
H145 C133 0.930 . S
H146 C134 0.956 . S
H147 C134 0.961 1_655 S
H148 C134 0.961 1_655 S
H149 C135 0.958 . S
H150 C135 0.961 1_655 S
H151 C135 0.960 . S
C152 C153 1.391 . S
C152 C154 1.394 . S
C152 H168 0.931 . S
C153 C152 1.391 . S
C153 C157 1.376 . S
C154 C152 1.394 . S
C154 C155 1.369 . S
C154 C158 1.531 . S
C155 C154 1.369 . S
C155 C156 1.410 . S
C155 C163 1.503 . S
C156 C155 1.410 . S
C156 C157 1.392 . S
C156 C159 1.511 1_455 S
C157 C153 1.376 . S
C157 C156 1.392 . S
C157 H169 0.929 . S
C158 C154 1.531 . S
C158 H170 0.960 . S
C158 H171 0.962 . S
C158 H172 0.960 . S
C159 C156 1.511 1_655 S
C159 H173 0.961 . S
C159 H174 0.961 . S
C159 H175 0.961 . S
C160 C161 1.370 . S
C160 C162 1.363 . S
C160 H176 0.931 . S
C161 C160 1.370 . S
C161 C165 1.408 . S
C162 C160 1.363 . S
C162 C163 1.370 1_655 S
C162 C166 1.524 . S
C163 C155 1.503 . S
C163 C162 1.370 1_455 S
C163 C164 1.403 1_455 S
C164 C163 1.403 1_655 S
C164 C165 1.404 . S
C164 C167 1.539 1_655 S
C165 C161 1.408 . S
C165 C164 1.404 . S
C165 H177 0.930 . S
C166 C162 1.524 . S
C166 H178 0.956 1_655 S
C166 H179 0.961 . S
C166 H180 0.961 . S
C167 C164 1.539 1_455 S
C167 H181 0.958 . S
C167 H182 0.961 1_455 S
C167 H183 0.960 . S
H168 C152 0.931 . S
H169 C157 0.929 . S
H170 C158 0.960 . S
H171 C158 0.962 . S
H172 C158 0.960 . S
H173 C159 0.961 . S
H174 C159 0.961 . S
H175 C159 0.961 . S
H176 C160 0.931 . S
H177 C165 0.930 . S
H178 C166 0.956 1_455 S
H179 C166 0.961 . S
H180 C166 0.961 . S
H181 C167 0.958 . S
H182 C167 0.961 1_655 S
H183 C167 0.960 . S
C184 C185 1.391 . S
C184 C186 1.394 . S
C184 H200 0.931 . S
C185 C184 1.391 . S
C185 C189 1.376 . S
C186 C184 1.394 . S
C186 C187 1.369 . S
C186 C190 1.531 1_655 S
C187 C186 1.369 . S
C187 C188 1.410 . S
C187 C195 1.503 . S
C188 C187 1.410 . S
C188 C189 1.392 . S
C188 C191 1.511 . S
C189 C185 1.376 . S
C189 C188 1.392 . S
C189 H201 0.929 . S
C190 C186 1.531 1_455 S
C190 H202 0.960 . S
C190 H203 0.962 . S
C190 H204 0.960 . S
C191 C188 1.511 . S
C191 H205 0.961 . S
C191 H206 0.961 . S
C191 H207 0.961 . S
C192 C193 1.370 . S
C192 C194 1.363 1_455 S
C192 H208 0.931 . S
C193 C192 1.370 . S
C193 C197 1.408 . S
C194 C192 1.363 1_655 S
C194 C195 1.370 . S
C194 C198 1.524 . S
C195 C187 1.503 . S
C195 C194 1.370 . S
C195 C196 1.403 1_655 S
C196 C195 1.403 1_455 S
C196 C197 1.404 . S
C196 C199 1.539 . S
C197 C193 1.408 . S
C197 C196 1.404 . S
C197 H209 0.930 . S
C198 C194 1.524 . S
C198 H210 0.956 . S
C198 H211 0.961 . S
C198 H212 0.961 . S
C199 C196 1.539 . S
C199 H213 0.958 . S
C199 H214 0.961 . S
C199 H215 0.960 . S
H200 C184 0.931 . S
H201 C189 0.929 . S
H202 C190 0.960 . S
H203 C190 0.962 . S
H204 C190 0.960 . S
H205 C191 0.961 . S
H206 C191 0.961 . S
H207 C191 0.961 . S
H208 C192 0.931 . S
H209 C197 0.930 . S
H210 C198 0.956 . S
H211 C198 0.961 . S
H212 C198 0.961 . S
H213 C199 0.958 . S
H214 C199 0.961 . S
H215 C199 0.960 . S
C216 C217 1.391 . S
C216 C218 1.394 . S
C216 H232 0.931 . S
C217 C216 1.391 . S
C217 C221 1.376 1_655 S
C218 C216 1.394 . S
C218 C219 1.369 . S
C218 C222 1.531 . S
C219 C218 1.369 . S
C219 C220 1.410 1_655 S
C219 C227 1.503 1_655 S
C220 C219 1.410 1_455 S
C220 C221 1.392 . S
C220 C223 1.511 . S
C221 C217 1.376 1_455 S
C221 C220 1.392 . S
C221 H233 0.929 . S
C222 C218 1.531 . S
C222 H234 0.960 . S
C222 H235 0.962 . S
C222 H236 0.960 . S
C223 C220 1.511 . S
C223 H237 0.961 . S
C223 H238 0.961 . S
C223 H239 0.961 . S
C224 C225 1.370 . S
C224 C226 1.363 1_455 S
C224 H240 0.931 1_455 S
C225 C224 1.370 . S
C225 C229 1.408 . S
C226 C224 1.363 1_655 S
C226 C227 1.370 1_655 S
C226 C230 1.524 . S
C227 C219 1.503 1_455 S
C227 C226 1.370 1_455 S
C227 C228 1.403 . S
C228 C227 1.403 . S
C228 C229 1.404 . S
C228 C231 1.539 . S
C229 C225 1.408 . S
C229 C228 1.404 . S
C229 H241 0.930 . S
C230 C226 1.524 . S
C230 H242 0.956 . S
C230 H243 0.961 . S
C230 H244 0.961 . S
C231 C228 1.539 . S
C231 H245 0.958 . S
C231 H246 0.961 . S
C231 H247 0.960 . S
H232 C216 0.931 . S
H233 C221 0.929 . S
H234 C222 0.960 . S
H235 C222 0.962 . S
H236 C222 0.960 . S
H237 C223 0.961 . S
H238 C223 0.961 . S
H239 C223 0.961 . S
H240 C224 0.931 1_655 S
H241 C229 0.930 . S
H242 C230 0.956 . S
H243 C230 0.961 . S
H244 C230 0.961 . S
H245 C231 0.958 . S
H246 C231 0.961 . S
H247 C231 0.960 . S
C248 C249 1.391 1_455 S
C248 C250 1.394 . S
C248 H264 0.931 . S
C249 C248 1.391 1_655 S
C249 C253 1.376 . S
C250 C248 1.394 . S
C250 C251 1.369 1_455 S
C250 C254 1.531 . S
C251 C250 1.369 1_655 S
C251 C252 1.410 1_554 S
C251 C259 1.503 1_664 S
C252 C251 1.410 1_556 S
C252 C253 1.392 1_556 S
C252 C255 1.511 . S
C253 C249 1.376 . S
C253 C252 1.392 1_554 S
C253 H265 0.929 . S
C254 C250 1.531 . S
C254 H266 0.960 . S
C254 H267 0.962 1_565 S
C254 H268 0.960 . S
C255 C252 1.511 . S
C255 H269 0.961 . S
C255 H270 0.961 . S
C255 H271 0.961 . S
C256 C257 1.370 . S
C256 C258 1.363 . S
C256 H272 0.931 . S
C257 C256 1.370 . S
C257 C261 1.408 . S
C258 C256 1.363 . S
C258 C259 1.370 . S
C258 C262 1.524 1_456 S
C259 C251 1.503 1_446 S
C259 C258 1.370 . S
C259 C260 1.403 1_545 S
C260 C259 1.403 1_565 S
C260 C261 1.404 1_565 S
C260 C263 1.539 . S
C261 C257 1.408 . S
C261 C260 1.404 1_545 S
C261 H273 0.930 . S
C262 C258 1.524 1_654 S
C262 H274 0.956 1_655 S
C262 H275 0.961 1_554 S
C262 H276 0.961 . S
C263 C260 1.539 . S
C263 H277 0.958 . S
C263 H278 0.961 . S
C263 H279 0.960 . S
H264 C248 0.931 . S
H265 C253 0.929 . S
H266 C254 0.960 . S
H267 C254 0.962 1_545 S
H268 C254 0.960 . S
H269 C255 0.961 . S
H270 C255 0.961 . S
H271 C255 0.961 . S
H272 C256 0.931 . S
H273 C261 0.930 . S
H274 C262 0.956 1_455 S
H275 C262 0.961 1_556 S
H276 C262 0.961 . S
H277 C263 0.958 . S
H278 C263 0.961 . S
H279 C263 0.960 . S
C280 C281 1.391 . S
C280 C282 1.394 . S
C280 H296 0.931 . S
C281 C280 1.391 . S
C281 C285 1.376 . S
C282 C280 1.394 . S
C282 C283 1.369 . S
C282 C286 1.531 . S
C283 C282 1.369 . S
C283 C284 1.410 . S
C283 C291 1.503 . S
C284 C283 1.410 . S
C284 C285 1.392 . S
C284 C287 1.511 . S
C285 C281 1.376 . S
C285 C284 1.392 . S
C285 H297 0.929 . S
C286 C282 1.531 . S
C286 H298 0.960 . S
C286 H299 0.962 . S
C286 H300 0.960 . S
C287 C284 1.511 . S
C287 H301 0.961 . S
C287 H302 0.961 . S
C287 H303 0.961 . S
C288 C289 1.370 . S
C288 C290 1.363 . S
C288 H304 0.931 . S
C289 C288 1.370 . S
C289 C293 1.408 . S
C290 C288 1.363 . S
C290 C291 1.370 . S
C290 C294 1.524 . S
C291 C283 1.503 . S
C291 C290 1.370 . S
C291 C292 1.403 . S
C292 C291 1.403 . S
C292 C293 1.404 . S
C292 C295 1.539 . S
C293 C289 1.408 . S
C293 C292 1.404 . S
C293 H305 0.930 . S
C294 C290 1.524 . S
C294 H306 0.956 . S
C294 H307 0.961 . S
C294 H308 0.961 . S
C295 C292 1.539 . S
C295 H309 0.958 . S
C295 H310 0.961 . S
C295 H311 0.960 . S
H296 C280 0.931 . S
H297 C285 0.929 . S
H298 C286 0.960 . S
H299 C286 0.962 . S
H300 C286 0.960 . S
H301 C287 0.961 . S
H302 C287 0.961 . S
H303 C287 0.961 . S
H304 C288 0.931 . S
H305 C293 0.930 . S
H306 C294 0.956 . S
H307 C294 0.961 . S
H308 C294 0.961 . S
H309 C295 0.958 . S
H310 C295 0.961 . S
H311 C295 0.960 . S
C312 C313 1.391 . S
C312 C314 1.394 . S
C312 H328 0.931 . S
C313 C312 1.391 . S
C313 C317 1.376 . S
C314 C312 1.394 . S
C314 C315 1.369 . S
C314 C318 1.531 . S
C315 C314 1.369 . S
C315 C316 1.410 . S
C315 C323 1.503 . S
C316 C315 1.410 . S
C316 C317 1.392 . S
C316 C319 1.511 . S
C317 C313 1.376 . S
C317 C316 1.392 . S
C317 H329 0.929 . S
C318 C314 1.531 . S
C318 H330 0.960 . S
C318 H331 0.962 . S
C318 H332 0.960 . S
C319 C316 1.511 . S
C319 H333 0.961 . S
C319 H334 0.961 . S
C319 H335 0.961 . S
C320 C321 1.370 . S
C320 C322 1.363 . S
C320 H336 0.931 . S
C321 C320 1.370 . S
C321 C325 1.408 . S
C322 C320 1.363 . S
C322 C323 1.370 . S
C322 C326 1.524 . S
C323 C315 1.503 . S
C323 C322 1.370 . S
C323 C324 1.403 . S
C324 C323 1.403 . S
C324 C325 1.404 . S
C324 C327 1.539 . S
C325 C321 1.408 . S
C325 C324 1.404 . S
C325 H337 0.930 . S
C326 C322 1.524 . S
C326 H338 0.956 . S
C326 H339 0.961 . S
C326 H340 0.961 . S
C327 C324 1.539 . S
C327 H341 0.958 . S
C327 H342 0.961 . S
C327 H343 0.960 . S
H328 C312 0.931 . S
H329 C317 0.929 . S
H330 C318 0.960 . S
H331 C318 0.962 . S
H332 C318 0.960 . S
H333 C319 0.961 . S
H334 C319 0.961 . S
H335 C319 0.961 . S
H336 C320 0.931 . S
H337 C325 0.930 . S
H338 C326 0.956 . S
H339 C326 0.961 . S
H340 C326 0.961 . S
H341 C327 0.958 . S
H342 C327 0.961 . S
H343 C327 0.960 . S
C344 C345 1.391 . S
C344 C346 1.394 . S
C344 H360 0.931 . S
C345 C344 1.391 . S
C345 C349 1.376 . S
C346 C344 1.394 . S
C346 C347 1.369 . S
C346 C350 1.531 . S
C347 C346 1.369 . S
C347 C348 1.410 . S
C347 C355 1.503 . S
C348 C347 1.410 . S
C348 C349 1.392 . S
C348 C351 1.511 . S
C349 C345 1.376 . S
C349 C348 1.392 . S
C349 H361 0.929 . S
C350 C346 1.531 . S
C350 H362 0.960 . S
C350 H363 0.962 . S
C350 H364 0.960 . S
C351 C348 1.511 . S
C351 H365 0.961 . S
C351 H366 0.961 . S
C351 H367 0.961 . S
C352 C353 1.370 . S
C352 C354 1.363 . S
C352 H368 0.931 . S
C353 C352 1.370 . S
C353 C357 1.408 . S
C354 C352 1.363 . S
C354 C355 1.370 . S
C354 C358 1.524 . S
C355 C347 1.503 . S
C355 C354 1.370 . S
C355 C356 1.403 . S
C356 C355 1.403 . S
C356 C357 1.404 . S
C356 C359 1.539 . S
C357 C353 1.408 . S
C357 C356 1.404 . S
C357 H369 0.930 . S
C358 C354 1.524 . S
C358 H370 0.956 . S
C358 H371 0.961 . S
C358 H372 0.961 . S
C359 C356 1.539 . S
C359 H373 0.958 . S
C359 H374 0.961 . S
C359 H375 0.960 . S
H360 C344 0.931 . S
H361 C349 0.929 . S
H362 C350 0.960 . S
H363 C350 0.962 . S
H364 C350 0.960 . S
H365 C351 0.961 . S
H366 C351 0.961 . S
H367 C351 0.961 . S
H368 C352 0.931 . S
H369 C357 0.930 . S
H370 C358 0.956 . S
H371 C358 0.961 . S
H372 C358 0.961 . S
H373 C359 0.958 . S
H374 C359 0.961 . S
H375 C359 0.960 . S
C376 C377 1.391 . S
C376 C378 1.394 . S
C376 H392 0.931 . S
C377 C376 1.391 . S
C377 C381 1.376 . S
C378 C376 1.394 . S
C378 C379 1.369 . S
C378 C382 1.531 . S
C379 C378 1.369 . S
C379 C380 1.410 . S
C379 C387 1.503 . S
C380 C379 1.410 . S
C380 C381 1.392 . S
C380 C383 1.511 . S
C381 C377 1.376 . S
C381 C380 1.392 . S
C381 H393 0.929 . S
C382 C378 1.531 . S
C382 H394 0.960 . S
C382 H395 0.962 . S
C382 H396 0.960 . S
C383 C380 1.511 . S
C383 H397 0.961 . S
C383 H398 0.961 . S
C383 H399 0.961 . S
C384 C385 1.370 . S
C384 C386 1.363 . S
C384 H400 0.931 . S
C385 C384 1.370 . S
C385 C389 1.408 . S
C386 C384 1.363 . S
C386 C387 1.370 . S
C386 C390 1.524 . S
C387 C379 1.503 . S
C387 C386 1.370 . S
C387 C388 1.403 . S
C388 C387 1.403 . S
C388 C389 1.404 . S
C388 C391 1.539 . S
C389 C385 1.408 . S
C389 C388 1.404 . S
C389 H401 0.930 . S
C390 C386 1.524 . S
C390 H402 0.956 . S
C390 H403 0.961 . S
C390 H404 0.961 . S
C391 C388 1.539 . S
C391 H405 0.958 . S
C391 H406 0.961 . S
C391 H407 0.960 . S
H392 C376 0.931 . S
H393 C381 0.929 . S
H394 C382 0.960 . S
H395 C382 0.962 . S
H396 C382 0.960 . S
H397 C383 0.961 . S
H398 C383 0.961 . S
H399 C383 0.961 . S
H400 C384 0.931 . S
H401 C389 0.930 . S
H402 C390 0.956 . S
H403 C390 0.961 . S
H404 C390 0.961 . S
H405 C391 0.958 . S
H406 C391 0.961 . S
H407 C391 0.960 . S
C408 C409 1.391 . S
C408 C410 1.394 . S
C408 H424 0.931 . S
C409 C408 1.391 . S
C409 C413 1.376 . S
C410 C408 1.394 . S
C410 C411 1.369 . S
C410 C414 1.531 . S
C411 C410 1.369 . S
C411 C412 1.410 . S
C411 C419 1.503 . S
C412 C411 1.410 . S
C412 C413 1.392 . S
C412 C415 1.511 . S
C413 C409 1.376 . S
C413 C412 1.392 . S
C413 H425 0.929 . S
C414 C410 1.531 . S
C414 H426 0.960 . S
C414 H427 0.962 . S
C414 H428 0.960 . S
C415 C412 1.511 . S
C415 H429 0.961 . S
C415 H430 0.961 . S
C415 H431 0.961 . S
C416 C417 1.370 . S
C416 C418 1.363 . S
C416 H432 0.931 . S
C417 C416 1.370 . S
C417 C421 1.408 . S
C418 C416 1.363 . S
C418 C419 1.370 . S
C418 C422 1.524 . S
C419 C411 1.503 . S
C419 C418 1.370 . S
C419 C420 1.403 . S
C420 C419 1.403 . S
C420 C421 1.404 . S
C420 C423 1.539 . S
C421 C417 1.408 . S
C421 C420 1.404 . S
C421 H433 0.930 . S
C422 C418 1.524 . S
C422 H434 0.956 . S
C422 H435 0.961 . S
C422 H436 0.961 . S
C423 C420 1.539 . S
C423 H437 0.958 . S
C423 H438 0.961 . S
C423 H439 0.960 . S
H424 C408 0.931 . S
H425 C413 0.929 . S
H426 C414 0.960 . S
H427 C414 0.962 . S
H428 C414 0.960 . S
H429 C415 0.961 . S
H430 C415 0.961 . S
H431 C415 0.961 . S
H432 C416 0.931 . S
H433 C421 0.930 . S
H434 C422 0.956 . S
H435 C422 0.961 . S
H436 C422 0.961 . S
H437 C423 0.958 . S
H438 C423 0.961 . S
H439 C423 0.960 . S
C440 C441 1.391 1_554 S
C440 C442 1.394 . S
C440 H456 0.931 . S
C441 C440 1.391 1_556 S
C441 C445 1.376 . S
C442 C440 1.394 . S
C442 C443 1.369 1_554 S
C442 C446 1.531 . S
C443 C442 1.369 1_556 S
C443 C444 1.410 1_545 S
C443 C451 1.503 1_546 S
C444 C443 1.410 1_565 S
C444 C445 1.392 1_565 S
C444 C447 1.511 . S
C445 C441 1.376 . S
C445 C444 1.392 1_545 S
C445 H457 0.929 . S
C446 C442 1.531 . S
C446 H458 0.960 . S
C446 H459 0.962 . S
C446 H460 0.960 . S
C447 C444 1.511 . S
C447 H461 0.961 . S
C447 H462 0.961 . S
C447 H463 0.961 . S
C448 C449 1.370 . S
C448 C450 1.363 1_564 S
C448 H464 0.921 1_565 S
C449 C448 1.370 . S
C449 C453 1.408 . S
C450 C448 1.363 1_546 S
C450 C451 1.370 1_546 S
C450 C454 1.524 . S
C451 C443 1.503 1_564 S
C451 C450 1.370 1_564 S
C451 C452 1.403 . S
C452 C451 1.403 . S
C452 C453 1.404 . S
C452 C455 1.539 . S
C453 C449 1.408 . S
C453 C452 1.404 . S
C453 H465 0.930 . S
C454 C450 1.524 . S
C454 H466 0.956 . S
C454 H467 0.961 . S
C454 H468 0.961 . S
C455 C452 1.539 . S
C455 H469 0.958 . S
C455 H470 0.961 . S
C455 H471 0.960 . S
H456 C440 0.931 . S
H457 C445 0.929 . S
H458 C446 0.960 . S
H459 C446 0.962 . S
H460 C446 0.960 . S
H461 C447 0.961 . S
H462 C447 0.961 . S
H463 C447 0.961 . S
H464 C448 0.921 1_545 S
H465 C453 0.930 . S
H466 C454 0.956 . S
H467 C454 0.961 . S
H468 C454 0.961 . S
H469 C455 0.958 . S
H470 C455 0.961 . S
H471 C455 0.960 . S
C89 C27 1.342 1_545 S
C97 C5 1.383 . S
C121 C9 1.364 . S
C129 C31 1.413 . S
C153 C72 1.338 1_565 S
C161 C50 1.382 . S
C185 C51 1.329 . S
C193 C73 1.412 . S
C217 C49 1.133 . S
C225 C6 1.058 . S
C249 C29 1.128 . S
C257 C75 1.063 . S
C281 C74 1.634 . S
C289 C7 1.556 . S
C313 C28 1.577 . S
C321 C48 1.630 . S
C345 C30 1.614 . S
C353 C53 1.549 . S
C377 C71 1.548 . S
C385 C4 1.632 . S
C409 C8 1.527 . S
C417 C52 1.545 . S
C441 C70 1.529 . S
C449 C26 1.544 . S
