# Generated by pormake.
# Topology uog, (4)-cn, num edge types: 1
# Building blocks:
#     Node 0, Type 0, BuildingBlock: CEKHIL_clean_sbu_0, # of connection points: 4
#     Node 1, Type 0, BuildingBlock: CEKHIL_clean_sbu_0, # of connection points: 4
#     Node 2, Type 0, BuildingBlock: CEKHIL_clean_sbu_0, # of connection points: 4
#     Node 3, Type 0, BuildingBlock: CEKHIL_clean_sbu_0, # of connection points: 4
#     Node 4, Type 0, BuildingBlock: CEKHIL_clean_sbu_0, # of connection points: 4
#     Node 5, Type 0, BuildingBlock: CEKHIL_clean_sbu_0, # of connection points: 4
#     Edge 6, Type (0, 0), BuildingBlock: TEMPAE_clean_linker_10, # of connection points: 2
#     Edge 7, Type (0, 0), BuildingBlock: TEMPAE_clean_linker_10, # of connection points: 2
#     Edge 8, Type (0, 0), BuildingBlock: TEMPAE_clean_linker_10, # of connection points: 2
#     Edge 9, Type (0, 0), BuildingBlock: TEMPAE_clean_linker_10, # of connection points: 2
#     Edge 10, Type (0, 0), BuildingBlock: TEMPAE_clean_linker_10, # of connection points: 2
#     Edge 11, Type (0, 0), BuildingBlock: TEMPAE_clean_linker_10, # of connection points: 2
#     Edge 12, Type (0, 0), BuildingBlock: TEMPAE_clean_linker_10, # of connection points: 2
#     Edge 13, Type (0, 0), BuildingBlock: TEMPAE_clean_linker_10, # of connection points: 2
#     Edge 14, Type (0, 0), BuildingBlock: TEMPAE_clean_linker_10, # of connection points: 2
#     Edge 15, Type (0, 0), BuildingBlock: TEMPAE_clean_linker_10, # of connection points: 2
#     Edge 16, Type (0, 0), BuildingBlock: TEMPAE_clean_linker_10, # of connection points: 2
#     Edge 17, Type (0, 0), BuildingBlock: TEMPAE_clean_linker_10, # of connection points: 2
# Relax obj value: 0.071
# Max RMSD: 0.168
# Mean RMSD: 0.168
data_MOF--net-uog--node1-CEKHIL_clean_sbu_0--edge1-TEMPAE_clean_linker_10
_symmetry_space_group_name_H-M    P1
_symmetry_Int_Tables_number       1
_symmetry_cell_setting            triclinic
loop_
_symmetry_equiv_pos_as_xyz
'x, y, z'
_cell_length_a     28.792169
_cell_length_b     28.827809
_cell_length_c     42.953418
_cell_angle_alpha  90.076251
_cell_angle_beta   90.002699
_cell_angle_gamma 120.09577
loop_
_atom_site_label
_atom_site_type_symbol
_atom_site_fract_x
_atom_site_fract_y
_atom_site_fract_z
_atom_type_partial_charge
Co0 Co 0.60108 0.28192 0.15219 0.0
O1 O 0.62143 0.22824 0.15211 0.0
O2 O 0.5469 0.21737 0.13074 0.0
C3 C 0.61828 0.30171 0.20304 0.0
O4 O 0.56836 0.33086 0.14918 0.0
Co5 Co 0.68989 0.39768 0.16462 0.0
O6 O 0.62922 0.41068 0.16967 0.0
C7 C 0.67911 0.354 0.10183 0.0
C8 C 0.57767 0.1974 0.13711 0.0
C9 C 0.58273 0.37864 0.15891 0.0
O10 O 0.63927 0.31035 0.11186 0.0
O11 O 0.70707 0.39459 0.11937 0.0
O12 O 0.57275 0.26211 0.19369 0.0
O13 O 0.65443 0.3253 0.18158 0.0
Co14 Co 0.30575 0.58875 0.49618 0.0
O15 O 0.37519 0.59563 0.49807 0.0
O16 O 0.30372 0.52544 0.47796 0.0
C17 C 0.30688 0.61436 0.54568 0.0
O18 O 0.22674 0.56973 0.49244 0.0
Co19 Co 0.30232 0.69253 0.50163 0.0
O20 O 0.2253 0.64279 0.50958 0.0
C21 C 0.3302 0.6663 0.44153 0.0
C22 C 0.3547 0.54923 0.48493 0.0
C23 C 0.20115 0.59372 0.50132 0.0
O24 O 0.3225 0.62272 0.45403 0.0
O25 O 0.3267 0.70247 0.4569 0.0
O26 O 0.29216 0.56507 0.53878 0.0
O27 O 0.32606 0.64826 0.52279 0.0
Co28 Co 0.73287 0.31741 0.82153 0.0
O29 O 0.78942 0.3891 0.81385 0.0
O30 O 0.79291 0.31654 0.80089 0.0
C31 C 0.72083 0.33228 0.87145 0.0
O32 O 0.67945 0.23687 0.8266 0.0
Co33 Co 0.62139 0.30215 0.83445 0.0
O34 O 0.60449 0.22965 0.84781 0.0
C35 C 0.65798 0.31386 0.76989 0.0
C36 C 0.81605 0.36872 0.80149 0.0
C37 C 0.63242 0.20911 0.83897 0.0
O38 O 0.70071 0.31611 0.78027 0.0
O39 O 0.62133 0.3117 0.78776 0.0
O40 O 0.75722 0.32066 0.86352 0.0
O41 O 0.69569 0.3397 0.84858 0.0
Co42 Co 0.42074 0.72022 0.15979 0.0
O43 O 0.41501 0.78323 0.16253 0.0
O44 O 0.48204 0.78039 0.13928 0.0
C45 C 0.40095 0.69819 0.21031 0.0
O46 O 0.43843 0.65986 0.15426 0.0
Co47 Co 0.31651 0.61378 0.16913 0.0
O48 O 0.36395 0.5828 0.16753 0.0
C49 C 0.33605 0.6653 0.10844 0.0
C50 C 0.45971 0.8083 0.14748 0.0
C51 C 0.41287 0.60866 0.159 0.0
O52 O 0.3815 0.70135 0.11916 0.0
O53 O 0.30133 0.62685 0.12519 0.0
O54 O 0.44949 0.73186 0.20141 0.0
O55 O 0.36452 0.68251 0.18874 0.0
Co56 Co 0.68528 0.40277 0.49119 0.0
O57 O 0.61248 0.38656 0.48999 0.0
O58 O 0.68045 0.46336 0.47405 0.0
C59 C 0.68141 0.37433 0.5402 0.0
O60 O 0.76672 0.43075 0.49062 0.0
Co61 Co 0.70132 0.30584 0.49604 0.0
O62 O 0.77513 0.36134 0.50749 0.0
C63 C 0.67603 0.33236 0.43521 0.0
C64 C 0.62872 0.43331 0.4782 0.0
C65 C 0.79547 0.41062 0.5003 0.0
O66 O 0.6775 0.37303 0.44824 0.0
O67 O 0.68195 0.29756 0.45046 0.0
O68 O 0.69119 0.42254 0.53447 0.0
O69 O 0.66827 0.3425 0.51633 0.0
Co70 Co 0.27203 0.70829 0.82847 0.0
O71 O 0.20771 0.64049 0.82447 0.0
O72 O 0.21673 0.71712 0.80745 0.0
C73 C 0.28633 0.69819 0.87883 0.0
O74 O 0.33523 0.78593 0.82991 0.0
Co75 Co 0.37428 0.70225 0.83904 0.0
O76 O 0.4071 0.7804 0.84537 0.0
C77 C 0.33119 0.68629 0.77612 0.0
C78 C 0.18688 0.66524 0.81043 0.0
C79 C 0.38521 0.80784 0.83795 0.0
O80 O 0.29634 0.69712 0.78704 0.0
O81 O 0.36525 0.68247 0.79344 0.0
O82 O 0.25441 0.71569 0.87082 0.0
O83 O 0.30386 0.68142 0.85609 0.0
C84 C 0.51495 0.10468 0.11601 0.0
C85 C 0.56395 0.14165 0.12971 0.0
C86 C 0.50033 0.05031 0.11295 0.0
C87 C 0.53519 0.03269 0.12432 0.0
C88 C 0.58606 0.07063 0.13628 0.0
C89 C 0.59988 0.12448 0.13859 0.0
C90 C 0.44622 0.01122 0.09937 0.0
C91 C 0.62423 0.05381 0.14917 0.0
C92 C 0.47226 0.89644 0.1627 0.0
C93 C 0.48269 0.8661 0.14127 0.0
C94 C 0.4886 0.95025 0.15713 0.0
C95 C 0.51541 0.9745 0.12904 0.0
C96 C 0.52605 0.94411 0.10711 0.0
C97 C 0.51001 0.89014 0.11365 0.0
C98 C 0.47753 0.98124 0.18159 0.0
C99 C 0.55367 0.96843 0.07668 0.0
H100 H 0.48727 0.11772 0.10874 0.0
H101 H 0.63825 0.15278 0.14885 0.0
H102 H 0.44944 0.98259 0.08347 0.0
H103 H 0.41834 0.98759 0.11841 0.0
H104 H 0.42852 0.03198 0.08641 0.0
H105 H 0.66458 0.0887 0.15413 0.0
H106 H 0.60766 0.03132 0.17117 0.0
H107 H 0.62881 0.02673 0.13271 0.0
H108 H 0.45118 0.87792 0.18413 0.0
H109 H 0.51723 0.86641 0.09683 0.0
H110 H 0.45277 0.9971 0.17157 0.0
H111 H 0.51585 0.01609 0.18959 0.0
H112 H 0.45622 0.95629 0.20217 0.0
H113 H 0.531 0.98416 0.06388 0.0
H114 H 0.55726 0.93902 0.06163 0.0
H115 H 0.59443 0.00285 0.08113 0.0
C116 C 0.42462 0.5309 0.50385 0.0
C117 C 0.38931 0.52579 0.47993 0.0
C118 C 0.46387 0.5165 0.49935 0.0
C119 C 0.46896 0.49758 0.46985 0.0
C120 C 0.43332 0.49227 0.44545 0.0
C121 C 0.39333 0.50599 0.45088 0.0
C122 C 0.49982 0.52145 0.52632 0.0
C123 C 0.43819 0.47317 0.41355 0.0
C124 C 0.60301 0.50195 0.4621 0.0
C125 C 0.5885 0.44977 0.47124 0.0
C126 C 0.56375 0.51734 0.45913 0.0
C127 C 0.50917 0.47984 0.46585 0.0
C128 C 0.49426 0.42647 0.47336 0.0
C129 C 0.53388 0.41212 0.47572 0.0
C130 C 0.58102 0.57439 0.4504 0.0
C131 C 0.43691 0.38528 0.48124 0.0
H132 H 0.4217 0.54671 0.52624 0.0
H133 H 0.36687 0.50341 0.43217 0.0
H134 H 0.49547 0.48176 0.53153 0.0
H135 H 0.54244 0.54897 0.52014 0.0
H136 H 0.49046 0.53675 0.54777 0.0
H137 H 0.40835 0.47252 0.39689 0.0
H138 H 0.4791 0.49976 0.40421 0.0
H139 H 0.43254 0.43225 0.41505 0.0
H140 H 0.64496 0.53109 0.45828 0.0
H141 H 0.52189 0.37137 0.48236 0.0
H142 H 0.57956 0.59631 0.47128 0.0
H143 H 0.55324 0.57539 0.43285 0.0
H144 H 0.62252 0.59586 0.44095 0.0
H145 H 0.42554 0.39627 0.50358 0.0
H146 H 0.43105 0.3443 0.48358 0.0
H147 H 0.40905 0.38442 0.46313 0.0
C148 C 0.88091 0.44873 0.77193 0.0
C149 C 0.87122 0.4052 0.79084 0.0
C150 C 0.93285 0.49295 0.7686 0.0
C151 C 0.97572 0.49435 0.78549 0.0
C152 C 0.9666 0.44883 0.80305 0.0
C153 C 0.91434 0.40442 0.80527 0.0
C154 C 0.94098 0.53969 0.74885 0.0
C155 C 0.0111 0.44878 0.8216 0.0
C156 C 0.1228 0.59815 0.77345 0.0
C157 C 0.13204 0.63338 0.79825 0.0
C158 C 0.07129 0.55444 0.76765 0.0
C159 C 0.02843 0.54518 0.78767 0.0
C160 C 0.0371 0.58268 0.81161 0.0
C161 C 0.08894 0.62646 0.81659 0.0
C162 C 0.06369 0.51622 0.74151 0.0
C163 C 0.99257 0.57435 0.83353 0.0
H164 H 0.84727 0.44939 0.76101 0.0
H165 H 0.90653 0.37121 0.82041 0.0
H166 H 0.94654 0.57314 0.76415 0.0
H167 H 0.97763 0.55458 0.73437 0.0
H168 H 0.90611 0.52886 0.73333 0.0
H169 H 0.9986 0.40889 0.83191 0.0
H170 H 0.04677 0.46071 0.80669 0.0
H171 H 0.02349 0.4786 0.84073 0.0
H172 H 0.1566 0.6029 0.75978 0.0
H173 H 0.09657 0.65284 0.83633 0.0
H174 H 0.02655 0.50539 0.72824 0.0
H175 H 0.05934 0.47867 0.75133 0.0
H176 H 0.09829 0.53346 0.7252 0.0
H177 H 0.95686 0.56804 0.82021 0.0
H178 H 0.00492 0.60888 0.84955 0.0
H179 H 0.98028 0.5378 0.84767 0.0
C180 C 0.11025 0.51962 0.4833 0.0
C181 C 0.1414 0.56548 0.50143 0.0
C182 C 0.05388 0.49604 0.48205 0.0
C183 C 0.02813 0.51852 0.49958 0.0
C184 C 0.05941 0.5643 0.5182 0.0
C185 C 0.11535 0.58712 0.51884 0.0
C186 C 0.02183 0.44716 0.46194 0.0
C187 C 0.03377 0.58906 0.5377 0.0
C188 C 0.88457 0.48421 0.48034 0.0
C189 C 0.85494 0.4433 0.50183 0.0
C190 C 0.94104 0.50891 0.47911 0.0
C191 C 0.96832 0.49265 0.50006 0.0
C192 C 0.93855 0.45268 0.52244 0.0
C193 C 0.88248 0.42853 0.52298 0.0
C194 C 0.97145 0.55151 0.45495 0.0
C195 C 0.96585 0.4348 0.54564 0.0
H196 H 0.12994 0.50284 0.46963 0.0
H197 H 0.13881 0.62227 0.53319 0.0
H198 H 0.99365 0.41283 0.4766 0.0
H199 H 0.99733 0.45482 0.44502 0.0
H200 H 0.04783 0.43558 0.44892 0.0
H201 H 0.06389 0.6254 0.5504 0.0
H202 H 0.00949 0.60019 0.52273 0.0
H203 H 0.00611 0.55948 0.55495 0.0
H204 H 0.86355 0.49535 0.46372 0.0
H205 H 0.85989 0.39714 0.53981 0.0
H206 H 0.99382 0.53868 0.43949 0.0
H207 H 1.00145 0.58929 0.46643 0.0
H208 H 0.94451 0.55983 0.44045 0.0
H209 H 0.9884 0.41857 0.53319 0.0
H210 H 0.93688 0.40353 0.56174 0.0
H211 H 0.99531 0.46953 0.55965 0.0
C212 C 0.47709 0.88856 0.83773 0.0
C213 C 0.4211 0.86719 0.8374 0.0
C214 C 0.51288 0.94395 0.83756 0.0
C215 C 0.49265 0.97957 0.83717 0.0
C216 C 0.43626 0.95864 0.83658 0.0
C217 C 0.40108 0.90261 0.83656 0.0
C218 C 0.57255 0.96433 0.83803 0.0
C219 C 0.41318 0.99546 0.83615 0.0
C220 C 0.58389 0.12186 0.86673 0.0
C221 C 0.60473 0.15008 0.83893 0.0
C222 C 0.54799 0.06625 0.86652 0.0
C223 C 0.53094 0.03863 0.83773 0.0
C224 C 0.55218 0.06712 0.80957 0.0
C225 C 0.58936 0.12245 0.81055 0.0
C226 C 0.5276 0.03723 0.89709 0.0
C227 C 0.53434 0.03948 0.77839 0.0
H228 H 0.49338 0.86186 0.83796 0.0
H229 H 0.35806 0.88663 0.83627 0.0
H230 H 0.59189 0.98973 0.81733 0.0
H231 H 0.59096 0.98975 0.85892 0.0
H232 H 0.58182 0.93128 0.83825 0.0
H233 H 0.36862 0.97305 0.83512 0.0
H234 H 0.42596 0.02099 0.85732 0.0
H235 H 0.42886 0.02264 0.81576 0.0
H236 H 0.59492 0.14362 0.88861 0.0
H237 H 0.60416 0.14472 0.78902 0.0
H238 H 0.53652 0.00408 0.89878 0.0
H239 H 0.48336 0.01906 0.89834 0.0
H240 H 0.54585 0.06426 0.91743 0.0
H241 H 0.54336 0.00638 0.7768 0.0
H242 H 0.55419 0.06741 0.75865 0.0
H243 H 0.49024 0.02138 0.77592 0.0
C244 C 0.40802 0.52321 0.14352 0.0
C245 C 0.43927 0.57642 0.15385 0.0
C246 C 0.42919 0.48887 0.14169 0.0
C247 C 0.48294 0.50783 0.15078 0.0
C248 C 0.51544 0.56212 0.16018 0.0
C249 C 0.49329 0.59602 0.16137 0.0
C250 C 0.39339 0.43169 0.13104 0.0
C251 C 0.57297 0.58379 0.17008 0.0
C252 C 0.52103 0.40698 0.18059 0.0
C253 C 0.54743 0.40132 0.1548 0.0
C254 C 0.49871 0.44056 0.17932 0.0
C255 C 0.50408 0.46999 0.15181 0.0
C256 C 0.52955 0.46314 0.12541 0.0
C257 C 0.55094 0.4288 0.12725 0.0
C258 C 0.47122 0.44612 0.20784 0.0
C259 C 0.5363 0.49382 0.0957 0.0
H260 H 0.36634 0.508 0.13728 0.0
H261 H 0.51746 0.63699 0.16948 0.0
H262 H 0.41282 0.42188 0.11186 0.0
H263 H 0.38704 0.40385 0.15051 0.0
H264 H 0.3536 0.42422 0.12288 0.0
H265 H 0.59372 0.62747 0.17513 0.0
H266 H 0.57422 0.56253 0.1913 0.0
H267 H 0.59545 0.57639 0.15163 0.0
H268 H 0.51983 0.38686 0.20214 0.0
H269 H 0.57299 0.42563 0.10768 0.0
H270 H 0.43008 0.43724 0.20186 0.0
H271 H 0.49359 0.48804 0.21649 0.0
H272 H 0.46854 0.41892 0.22693 0.0
H273 H 0.4969 0.48738 0.08761 0.0
H274 H 0.5545 0.48185 0.07679 0.0
H275 H 0.56235 0.53739 0.1001 0.0
C276 C 0.75647 0.35121 0.92526 0.0
C277 C 0.71578 0.3438 0.90439 0.0
C278 C 0.75277 0.35941 0.957 0.0
C279 C 0.70693 0.35977 0.96837 0.0
C280 C 0.6665 0.35439 0.94733 0.0
C281 C 0.67151 0.34665 0.91539 0.0
C282 C 0.79684 0.36507 0.97856 0.0
C283 C 0.61702 0.35452 0.95874 0.0
C284 C 0.66984 0.30919 0.05088 0.0
C285 C 0.68983 0.35695 0.068 0.0
C286 C 0.6741 0.30975 0.01845 0.0
C287 C 0.69897 0.35935 0.00255 0.0
C288 C 0.71965 0.40787 0.01959 0.0
C289 C 0.71504 0.40613 0.05223 0.0
C290 C 0.65236 0.25711 0.00124 0.0
C291 C 0.74645 0.46145 0.00331 0.0
H292 H 0.79131 0.3499 0.91687 0.0
H293 H 0.64018 0.3412 0.89928 0.0
H294 H 0.81052 0.40069 -0.00621 0.0
H295 H 0.78119 0.32939 -0.00612 0.0
H296 H 0.83205 0.36892 0.96566 0.0
H297 H 0.59235 0.35587 0.93926 0.0
H298 H 0.592 0.31776 0.97258 0.0
H299 H 0.62836 0.38937 0.97429 0.0
H300 H 0.65045 0.27098 0.06289 0.0
H301 H 0.72991 0.4431 0.0653 0.0
H302 H 0.68553 0.25556 -0.01095 0.0
H303 H 0.62309 0.25361 0.98326 0.0
H304 H 0.63228 0.22197 0.01701 0.0
H305 H 0.78251 0.46715 -0.00937 0.0
H306 H 0.75878 0.49538 0.01979 0.0
H307 H 0.71878 0.46266 -0.01423 0.0
C308 C 0.42994 0.71565 0.26563 0.0
C309 C 0.38825 0.68952 0.2439 0.0
C310 C 0.4195 0.71271 0.29759 0.0
C311 C 0.36602 0.68224 0.30827 0.0
C312 C 0.32369 0.65479 0.28657 0.0
C313 C 0.3353 0.65893 0.25453 0.0
C314 C 0.46579 0.74257 0.31993 0.0
C315 C 0.26625 0.62129 0.29724 0.0
C316 C 0.35059 0.63517 0.39183 0.0
C317 C 0.34094 0.67233 0.40754 0.0
C318 C 0.35761 0.63732 0.35952 0.0
C319 C 0.35518 0.67778 0.34229 0.0
C320 C 0.34572 0.71565 0.35786 0.0
C321 C 0.33875 0.71253 0.39036 0.0
C322 C 0.36805 0.59644 0.34386 0.0
C323 C 0.34327 0.75959 0.34018 0.0
H324 H 0.47105 0.73944 0.25766 0.0
H325 H 0.30296 0.63877 0.23783 0.0
H326 H 0.45926 0.77093 0.33417 0.0
H327 H 0.46813 0.71395 0.33619 0.0
H328 H 0.50493 0.76546 0.30775 0.0
H329 H 0.23797 0.60254 0.27746 0.0
H330 H 0.26238 0.58914 0.31306 0.0
H331 H 0.25423 0.64651 0.31063 0.0
H332 H 0.35257 0.60396 0.40478 0.0
H333 H 0.33098 0.74116 0.40222 0.0
H334 H 0.40814 0.61689 0.33264 0.0
H335 H 0.33794 0.57522 0.32526 0.0
H336 H 0.36662 0.56625 0.36049 0.0
H337 H 0.38231 0.78567 0.32856 0.0
H338 H 0.33391 0.78485 0.35555 0.0
H339 H 0.31228 0.74197 0.32167 0.0
C340 C 0.68192 0.29589 0.71747 0.0
C341 C 0.65191 0.31209 0.73561 0.0
C342 C 0.68205 0.2985 0.68499 0.0
C343 C 0.65142 0.31785 0.67009 0.0
C344 C 0.61847 0.33131 0.68805 0.0
C345 C 0.61896 0.32812 0.72074 0.0
C346 C 0.71769 0.28369 0.66679 0.0
C347 C 0.58502 0.3518 0.67283 0.0
C348 C 0.70874 0.39441 0.59524 0.0
C349 C 0.67728 0.35654 0.57265 0.0
C350 C 0.70079 0.38201 0.62695 0.0
C351 C 0.65969 0.3306 0.63634 0.0
C352 C 0.62847 0.29161 0.6136 0.0
C353 C 0.63798 0.30496 0.58183 0.0
C354 C 0.73596 0.42429 0.65041 0.0
C355 C 0.5842 0.23651 0.62284 0.0
H356 H 0.70663 0.28224 0.72872 0.0
H357 H 0.59539 0.34024 0.7346 0.0
H358 H 0.69524 0.25665 0.64715 0.0
H359 H 0.75177 0.32045 0.65671 0.0
H360 H 0.73419 0.26372 0.68154 0.0
H361 H 0.55669 0.35409 0.68947 0.0
H362 H 0.61178 0.39248 0.6633 0.0
H363 H 0.56183 0.32557 0.65305 0.0
H364 H 0.7392 0.4343 0.58805 0.0
H365 H 0.61314 0.27598 0.56431 0.0
H366 H 0.75699 0.40911 0.66525 0.0
H367 H 0.71089 0.43355 0.66595 0.0
H368 H 0.76652 0.46206 0.63915 0.0
H369 H 0.60026 0.21689 0.63817 0.0
H370 H 0.56468 0.2103 0.60235 0.0
H371 H 0.55324 0.24002 0.63635 0.0
C372 C 0.32505 0.66827 0.92156 0.0
C373 C 0.29469 0.69144 0.91208 0.0
C374 C 0.33083 0.66058 0.95337 0.0
C375 C 0.30553 0.67636 0.97598 0.0
C376 C 0.27467 0.69947 0.96641 0.0
C377 C 0.26982 0.70687 0.93466 0.0
C378 C 0.36436 0.63613 0.96284 0.0
C379 C 0.24723 0.71705 -0.01026 0.0
C380 C 0.28372 0.62448 0.05922 0.0
C381 C 0.32614 0.66786 0.07476 0.0
C382 C 0.27713 0.62603 0.02685 0.0
C383 C 0.31372 0.67205 0.00977 0.0
C384 C 0.35641 0.71591 0.02536 0.0
C385 C 0.36201 0.71334 0.05756 0.0
C386 C 0.23093 0.57864 0.01093 0.0
C387 C 0.39601 0.76594 0.00807 0.0
H388 H 0.34417 0.65613 0.90419 0.0
H389 H 0.24617 0.72475 0.92756 0.0
H390 H 0.39911 0.66531 0.97696 0.0
H391 H 0.34036 0.60038 0.97763 0.0
H392 H 0.37962 0.62408 0.94244 0.0
H393 H 0.22284 0.73228 0.97837 0.0
H394 H 0.22065 0.68308 0.00511 0.0
H395 H 0.27769 0.74924 0.0048 0.0
H396 H 0.2561 0.58905 0.07222 0.0
H397 H 0.39492 0.74725 0.06925 0.0
H398 H 0.24615 0.56384 -0.00812 0.0
H399 H 0.20381 0.59108 0.00022 0.0
H400 H 0.20722 0.54511 0.02729 0.0
H401 H 0.41478 0.75542 -0.01117 0.0
H402 H 0.42829 0.79562 0.02347 0.0
H403 H 0.37479 0.78523 -0.00253 0.0
C404 C 0.65829 0.3641 0.38498 0.0
C405 C 0.66918 0.328 0.4009 0.0
C406 C 0.65353 0.36279 0.35254 0.0
C407 C 0.65958 0.32432 0.33539 0.0
C408 C 0.67087 0.28788 0.35111 0.0
C409 C 0.67549 0.2901 0.38375 0.0
C410 C 0.64103 0.40205 0.33668 0.0
C411 C 0.67734 0.24615 0.33347 0.0
C412 C 0.58763 0.283 0.25791 0.0
C413 C 0.62957 0.31135 0.2367 0.0
C414 C 0.59711 0.28661 0.28999 0.0
C415 C 0.64985 0.31974 0.30127 0.0
C416 C 0.69235 0.34949 0.28009 0.0
C417 C 0.68168 0.34493 0.24791 0.0
C418 C 0.55061 0.25458 0.3118 0.0
C419 C 0.749 0.38564 0.29142 0.0
H420 H 0.65325 0.39363 0.39788 0.0
H421 H 0.68428 0.26235 0.39577 0.0
H422 H 0.67122 0.42443 0.31835 0.0
H423 H 0.60129 0.38003 0.32509 0.0
H424 H 0.64042 0.43136 0.35325 0.0
H425 H 0.68871 0.22259 0.34894 0.0
H426 H 0.63915 0.21814 0.32156 0.0
H427 H 0.70847 0.26559 0.31521 0.0
H428 H 0.54716 0.2571 0.24942 0.0
H429 H 0.71421 0.36676 0.23159 0.0
H430 H 0.54594 0.28191 0.32805 0.0
H431 H 0.55863 0.22732 0.32609 0.0
H432 H 0.51211 0.23021 0.29918 0.0
H433 H 0.75022 0.41647 0.30742 0.0
H434 H 0.77747 0.40615 0.27198 0.0
H435 H 0.76284 0.36193 0.3048 0.0
C436 C 0.3678 0.6678 0.72722 0.0
C437 C 0.33147 0.67977 0.74183 0.0
C438 C 0.36709 0.66152 0.69469 0.0
C439 C 0.32932 0.66746 0.67649 0.0
C440 C 0.29347 0.68067 0.69103 0.0
C441 C 0.29491 0.68651 0.72339 0.0
C442 C 0.40578 0.64719 0.67987 0.0
C443 C 0.25238 0.68706 0.67251 0.0
C444 C 0.34443 0.68303 0.58842 0.0
C445 C 0.30996 0.63024 0.57861 0.0
C446 C 0.35174 0.69591 0.62033 0.0
C447 C 0.32356 0.65503 0.64265 0.0
C448 C 0.28772 0.60204 0.6327 0.0
C449 C 0.28143 0.59035 0.60085 0.0
C450 C 0.39007 0.75291 0.63019 0.0
C451 C 0.25623 0.55746 0.65571 0.0
H452 H 0.39633 0.66282 0.74116 0.0
H453 H 0.26667 0.69603 0.73423 0.0
H454 H 0.38317 0.60648 0.66952 0.0
H455 H 0.42801 0.67548 0.6607 0.0
H456 H 0.43517 0.64786 0.69688 0.0
H457 H 0.22995 0.70108 0.6871 0.0
H458 H 0.27216 0.71605 0.65327 0.0
H459 H 0.22312 0.6481 0.66183 0.0
H460 H 0.36682 0.71384 0.57126 0.0
H461 H 0.2545 0.54948 0.59335 0.0
H462 H 0.42226 0.75419 0.645 0.0
H463 H 0.36862 0.76843 0.64441 0.0
H464 H 0.40886 0.77999 0.60997 0.0
H465 H 0.2841 0.55318 0.67171 0.0
H466 H 0.23038 0.51828 0.64408 0.0
H467 H 0.23038 0.5673 0.67015 0.0
loop_
_geom_bond_atom_site_label_1
_geom_bond_atom_site_label_2
_geom_bond_distance
_geom_bond_site_symmetry_2
_ccdc_geom_bond_type
Co0 O1 2.216 . S
Co0 O2 2.091 . S
Co0 O4 2.004 . S
Co0 O10 2.021 . S
Co0 O12 2.137 . S
Co0 O13 2.244 . S
O1 Co0 2.216 . S
O1 C8 1.247 . S
O2 Co0 2.091 . S
O2 C8 1.261 . S
C3 O12 1.247 . S
C3 O13 1.272 . S
O4 Co0 2.004 . S
O4 C9 1.259 . S
Co5 O6 2.061 . S
Co5 O11 2.052 . S
Co5 O13 2.135 . S
O6 Co5 2.061 . S
O6 C9 1.235 . S
C7 O10 1.238 . S
C7 O11 1.241 . S
C8 O1 1.247 . S
C8 O2 1.261 . S
C9 O4 1.259 . S
C9 O6 1.235 . S
O10 Co0 2.021 . S
O10 C7 1.238 . S
O11 Co5 2.052 . S
O11 C7 1.241 . S
O12 Co0 2.137 . S
O12 C3 1.247 . S
O13 Co0 2.244 . S
O13 C3 1.272 . S
O13 Co5 2.135 . S
Co14 O15 2.216 . S
Co14 O16 2.091 . S
Co14 O18 2.004 . S
Co14 O24 2.021 . S
Co14 O26 2.137 . S
Co14 O27 2.244 . S
O15 Co14 2.216 . S
O15 C22 1.247 . S
O16 Co14 2.091 . S
O16 C22 1.261 . S
C17 O26 1.247 . S
C17 O27 1.272 . S
O18 Co14 2.004 . S
O18 C23 1.259 . S
Co19 O20 2.061 . S
Co19 O25 2.052 . S
Co19 O27 2.135 . S
O20 Co19 2.061 . S
O20 C23 1.235 . S
C21 O24 1.238 . S
C21 O25 1.241 . S
C22 O15 1.247 . S
C22 O16 1.261 . S
C23 O18 1.259 . S
C23 O20 1.235 . S
O24 Co14 2.021 . S
O24 C21 1.238 . S
O25 Co19 2.052 . S
O25 C21 1.241 . S
O26 Co14 2.137 . S
O26 C17 1.247 . S
O27 Co14 2.244 . S
O27 C17 1.272 . S
O27 Co19 2.135 . S
Co28 O29 2.216 . S
Co28 O30 2.091 . S
Co28 O32 2.004 . S
Co28 O38 2.021 . S
Co28 O40 2.137 . S
Co28 O41 2.244 . S
O29 Co28 2.216 . S
O29 C36 1.247 . S
O30 Co28 2.091 . S
O30 C36 1.261 . S
C31 O40 1.247 . S
C31 O41 1.272 . S
O32 Co28 2.004 . S
O32 C37 1.259 . S
Co33 O34 2.061 . S
Co33 O39 2.052 . S
Co33 O41 2.135 . S
O34 Co33 2.061 . S
O34 C37 1.235 . S
C35 O38 1.238 . S
C35 O39 1.241 . S
C36 O29 1.247 . S
C36 O30 1.261 . S
C37 O32 1.259 . S
C37 O34 1.235 . S
O38 Co28 2.021 . S
O38 C35 1.238 . S
O39 Co33 2.052 . S
O39 C35 1.241 . S
O40 Co28 2.137 . S
O40 C31 1.247 . S
O41 Co28 2.244 . S
O41 C31 1.272 . S
O41 Co33 2.135 . S
Co42 O43 2.216 . S
Co42 O44 2.091 . S
Co42 O46 2.004 . S
Co42 O52 2.021 . S
Co42 O54 2.137 . S
Co42 O55 2.244 . S
O43 Co42 2.216 . S
O43 C50 1.247 . S
O44 Co42 2.091 . S
O44 C50 1.261 . S
C45 O54 1.247 . S
C45 O55 1.272 . S
O46 Co42 2.004 . S
O46 C51 1.259 . S
Co47 O48 2.061 . S
Co47 O53 2.052 . S
Co47 O55 2.135 . S
O48 Co47 2.061 . S
O48 C51 1.235 . S
C49 O52 1.238 . S
C49 O53 1.241 . S
C50 O43 1.247 . S
C50 O44 1.261 . S
C51 O46 1.259 . S
C51 O48 1.235 . S
O52 Co42 2.021 . S
O52 C49 1.238 . S
O53 Co47 2.052 . S
O53 C49 1.241 . S
O54 Co42 2.137 . S
O54 C45 1.247 . S
O55 Co42 2.244 . S
O55 C45 1.272 . S
O55 Co47 2.135 . S
Co56 O57 2.216 . S
Co56 O58 2.091 . S
Co56 O60 2.004 . S
Co56 O66 2.021 . S
Co56 O68 2.137 . S
Co56 O69 2.244 . S
O57 Co56 2.216 . S
O57 C64 1.247 . S
O58 Co56 2.091 . S
O58 C64 1.261 . S
C59 O68 1.247 . S
C59 O69 1.272 . S
O60 Co56 2.004 . S
O60 C65 1.259 . S
Co61 O62 2.061 . S
Co61 O67 2.052 . S
Co61 O69 2.135 . S
O62 Co61 2.061 . S
O62 C65 1.235 . S
C63 O66 1.238 . S
C63 O67 1.241 . S
C64 O57 1.247 . S
C64 O58 1.261 . S
C65 O60 1.259 . S
C65 O62 1.235 . S
O66 Co56 2.021 . S
O66 C63 1.238 . S
O67 Co61 2.052 . S
O67 C63 1.241 . S
O68 Co56 2.137 . S
O68 C59 1.247 . S
O69 Co56 2.244 . S
O69 C59 1.272 . S
O69 Co61 2.135 . S
Co70 O71 2.216 . S
Co70 O72 2.091 . S
Co70 O74 2.004 . S
Co70 O80 2.021 . S
Co70 O82 2.137 . S
Co70 O83 2.244 . S
O71 Co70 2.216 . S
O71 C78 1.247 . S
O72 Co70 2.091 . S
O72 C78 1.261 . S
C73 O82 1.247 . S
C73 O83 1.272 . S
O74 Co70 2.004 . S
O74 C79 1.259 . S
Co75 O76 2.061 . S
Co75 O81 2.052 . S
Co75 O83 2.135 . S
O76 Co75 2.061 . S
O76 C79 1.235 . S
C77 O80 1.238 . S
C77 O81 1.241 . S
C78 O71 1.247 . S
C78 O72 1.261 . S
C79 O74 1.259 . S
C79 O76 1.235 . S
O80 Co70 2.021 . S
O80 C77 1.238 . S
O81 Co75 2.052 . S
O81 C77 1.241 . S
O82 Co70 2.137 . S
O82 C73 1.247 . S
O83 Co70 2.244 . S
O83 C73 1.272 . S
O83 Co75 2.135 . S
C84 C85 1.391 . S
C84 C86 1.394 . S
C84 H100 0.931 . S
C85 C84 1.391 . S
C85 C89 1.376 . S
C86 C84 1.394 . S
C86 C87 1.369 . S
C86 C90 1.531 . S
C87 C86 1.369 . S
C87 C88 1.410 . S
C87 C95 1.503 1_545 S
C88 C87 1.410 . S
C88 C89 1.392 . S
C88 C91 1.511 . S
C89 C85 1.376 . S
C89 C88 1.392 . S
C89 H101 0.929 . S
C90 C86 1.531 . S
C90 H102 0.960 1_545 S
C90 H103 0.962 1_545 S
C90 H104 0.960 . S
C91 C88 1.511 . S
C91 H105 0.961 . S
C91 H106 0.961 . S
C91 H107 0.961 . S
C92 C93 1.370 . S
C92 C94 1.363 . S
C92 H108 0.931 . S
C93 C92 1.370 . S
C93 C97 1.408 . S
C94 C92 1.363 . S
C94 C95 1.370 . S
C94 C98 1.524 . S
C95 C87 1.503 1_565 S
C95 C94 1.370 . S
C95 C96 1.403 . S
C96 C95 1.403 . S
C96 C97 1.404 . S
C96 C99 1.539 . S
C97 C93 1.408 . S
C97 C96 1.404 . S
C97 H109 0.930 . S
C98 C94 1.524 . S
C98 H110 0.956 . S
C98 H111 0.961 . S
C98 H112 0.961 . S
C99 C96 1.539 . S
C99 H113 0.958 . S
C99 H114 0.961 . S
C99 H115 0.960 1_565 S
H100 C84 0.931 . S
H101 C89 0.929 . S
H102 C90 0.960 1_565 S
H103 C90 0.962 1_565 S
H104 C90 0.960 . S
H105 C91 0.961 . S
H106 C91 0.961 . S
H107 C91 0.961 . S
H108 C92 0.931 . S
H109 C97 0.930 . S
H110 C98 0.956 . S
H111 C98 0.961 . S
H112 C98 0.961 . S
H113 C99 0.958 . S
H114 C99 0.961 . S
H115 C99 0.960 1_545 S
C116 C117 1.391 . S
C116 C118 1.394 . S
C116 H132 0.931 . S
C117 C116 1.391 . S
C117 C121 1.376 . S
C118 C116 1.394 . S
C118 C119 1.369 . S
C118 C122 1.531 . S
C119 C118 1.369 . S
C119 C120 1.410 . S
C119 C127 1.503 . S
C120 C119 1.410 . S
C120 C121 1.392 . S
C120 C123 1.511 . S
C121 C117 1.376 . S
C121 C120 1.392 . S
C121 H133 0.929 . S
C122 C118 1.531 . S
C122 H134 0.960 . S
C122 H135 0.962 . S
C122 H136 0.960 . S
C123 C120 1.511 . S
C123 H137 0.961 . S
C123 H138 0.961 . S
C123 H139 0.961 . S
C124 C125 1.370 . S
C124 C126 1.363 . S
C124 H140 0.931 . S
C125 C124 1.370 . S
C125 C129 1.408 . S
C126 C124 1.363 . S
C126 C127 1.370 . S
C126 C130 1.524 . S
C127 C119 1.503 . S
C127 C126 1.370 . S
C127 C128 1.403 . S
C128 C127 1.403 . S
C128 C129 1.404 . S
C128 C131 1.539 . S
C129 C125 1.408 . S
C129 C128 1.404 . S
C129 H141 0.930 . S
C130 C126 1.524 . S
C130 H142 0.956 . S
C130 H143 0.961 . S
C130 H144 0.961 . S
C131 C128 1.539 . S
C131 H145 0.958 . S
C131 H146 0.961 . S
C131 H147 0.960 . S
H132 C116 0.931 . S
H133 C121 0.929 . S
H134 C122 0.960 . S
H135 C122 0.962 . S
H136 C122 0.960 . S
H137 C123 0.961 . S
H138 C123 0.961 . S
H139 C123 0.961 . S
H140 C124 0.931 . S
H141 C129 0.930 . S
H142 C130 0.956 . S
H143 C130 0.961 . S
H144 C130 0.961 . S
H145 C131 0.958 . S
H146 C131 0.961 . S
H147 C131 0.960 . S
C148 C149 1.391 . S
C148 C150 1.394 . S
C148 H164 0.931 . S
C149 C148 1.391 . S
C149 C153 1.376 . S
C150 C148 1.394 . S
C150 C151 1.369 . S
C150 C154 1.531 . S
C151 C150 1.369 . S
C151 C152 1.410 . S
C151 C159 1.503 1_655 S
C152 C151 1.410 . S
C152 C153 1.392 . S
C152 C155 1.511 . S
C153 C149 1.376 . S
C153 C152 1.392 . S
C153 H165 0.929 . S
C154 C150 1.531 . S
C154 H166 0.960 . S
C154 H167 0.962 . S
C154 H168 0.960 . S
C155 C152 1.511 . S
C155 H169 0.961 . S
C155 H170 0.961 1_655 S
C155 H171 0.961 . S
C156 C157 1.370 . S
C156 C158 1.363 . S
C156 H172 0.931 . S
C157 C156 1.370 . S
C157 C161 1.408 . S
C158 C156 1.363 . S
C158 C159 1.370 . S
C158 C162 1.524 . S
C159 C151 1.503 1_455 S
C159 C158 1.370 . S
C159 C160 1.403 . S
C160 C159 1.403 . S
C160 C161 1.404 . S
C160 C163 1.539 . S
C161 C157 1.408 . S
C161 C160 1.404 . S
C161 H173 0.930 . S
C162 C158 1.524 . S
C162 H174 0.956 . S
C162 H175 0.961 . S
C162 H176 0.961 . S
C163 C160 1.539 . S
C163 H177 0.958 . S
C163 H178 0.961 . S
C163 H179 0.960 1_455 S
H164 C148 0.931 . S
H165 C153 0.929 . S
H166 C154 0.960 . S
H167 C154 0.962 . S
H168 C154 0.960 . S
H169 C155 0.961 . S
H170 C155 0.961 1_455 S
H171 C155 0.961 . S
H172 C156 0.931 . S
H173 C161 0.930 . S
H174 C162 0.956 . S
H175 C162 0.961 . S
H176 C162 0.961 . S
H177 C163 0.958 . S
H178 C163 0.961 . S
H179 C163 0.960 1_655 S
C180 C181 1.391 . S
C180 C182 1.394 . S
C180 H196 0.931 . S
C181 C180 1.391 . S
C181 C185 1.376 . S
C182 C180 1.394 . S
C182 C183 1.369 . S
C182 C186 1.531 . S
C183 C182 1.369 . S
C183 C184 1.410 . S
C183 C191 1.503 1_455 S
C184 C183 1.410 . S
C184 C185 1.392 . S
C184 C187 1.511 . S
C185 C181 1.376 . S
C185 C184 1.392 . S
C185 H197 0.929 . S
C186 C182 1.531 . S
C186 H198 0.960 1_455 S
C186 H199 0.962 . S
C186 H200 0.960 . S
C187 C184 1.511 . S
C187 H201 0.961 . S
C187 H202 0.961 . S
C187 H203 0.961 . S
C188 C189 1.370 . S
C188 C190 1.363 . S
C188 H204 0.931 . S
C189 C188 1.370 . S
C189 C193 1.408 . S
C190 C188 1.363 . S
C190 C191 1.370 . S
C190 C194 1.524 . S
C191 C183 1.503 1_655 S
C191 C190 1.370 . S
C191 C192 1.403 . S
C192 C191 1.403 . S
C192 C193 1.404 . S
C192 C195 1.539 . S
C193 C189 1.408 . S
C193 C192 1.404 . S
C193 H205 0.930 . S
C194 C190 1.524 . S
C194 H206 0.956 1_655 S
C194 H207 0.961 1_655 S
C194 H208 0.961 . S
C195 C192 1.539 . S
C195 H209 0.958 . S
C195 H210 0.961 . S
C195 H211 0.960 . S
H196 C180 0.931 . S
H197 C185 0.929 . S
H198 C186 0.960 1_655 S
H199 C186 0.962 . S
H200 C186 0.960 . S
H201 C187 0.961 . S
H202 C187 0.961 . S
H203 C187 0.961 . S
H204 C188 0.931 . S
H205 C193 0.930 . S
H206 C194 0.956 1_455 S
H207 C194 0.961 1_455 S
H208 C194 0.961 . S
H209 C195 0.958 . S
H210 C195 0.961 . S
H211 C195 0.960 . S
C212 C213 1.391 . S
C212 C214 1.394 . S
C212 H228 0.931 . S
C213 C212 1.391 . S
C213 C217 1.376 . S
C214 C212 1.394 . S
C214 C215 1.369 . S
C214 C218 1.531 . S
C215 C214 1.369 . S
C215 C216 1.410 . S
C215 C223 1.503 1_565 S
C216 C215 1.410 . S
C216 C217 1.392 . S
C216 C219 1.511 . S
C217 C213 1.376 . S
C217 C216 1.392 . S
C217 H229 0.929 . S
C218 C214 1.531 . S
C218 H230 0.960 . S
C218 H231 0.962 . S
C218 H232 0.960 . S
C219 C216 1.511 . S
C219 H233 0.961 . S
C219 H234 0.961 1_565 S
C219 H235 0.961 1_565 S
C220 C221 1.370 . S
C220 C222 1.363 . S
C220 H236 0.931 . S
C221 C220 1.370 . S
C221 C225 1.408 . S
C222 C220 1.363 . S
C222 C223 1.370 . S
C222 C226 1.524 . S
C223 C215 1.503 1_545 S
C223 C222 1.370 . S
C223 C224 1.403 . S
C224 C223 1.403 . S
C224 C225 1.404 . S
C224 C227 1.539 . S
C225 C221 1.408 . S
C225 C224 1.404 . S
C225 H237 0.930 . S
C226 C222 1.524 . S
C226 H238 0.956 1_545 S
C226 H239 0.961 1_545 S
C226 H240 0.961 . S
C227 C224 1.539 . S
C227 H241 0.958 . S
C227 H242 0.961 . S
C227 H243 0.960 . S
H228 C212 0.931 . S
H229 C217 0.929 . S
H230 C218 0.960 . S
H231 C218 0.962 . S
H232 C218 0.960 . S
H233 C219 0.961 . S
H234 C219 0.961 1_545 S
H235 C219 0.961 1_545 S
H236 C220 0.931 . S
H237 C225 0.930 . S
H238 C226 0.956 1_565 S
H239 C226 0.961 1_565 S
H240 C226 0.961 . S
H241 C227 0.958 . S
H242 C227 0.961 . S
H243 C227 0.960 . S
C244 C245 1.391 . S
C244 C246 1.394 . S
C244 H260 0.931 . S
C245 C244 1.391 . S
C245 C249 1.376 . S
C246 C244 1.394 . S
C246 C247 1.369 . S
C246 C250 1.531 . S
C247 C246 1.369 . S
C247 C248 1.410 . S
C247 C255 1.503 . S
C248 C247 1.410 . S
C248 C249 1.392 . S
C248 C251 1.511 . S
C249 C245 1.376 . S
C249 C248 1.392 . S
C249 H261 0.929 . S
C250 C246 1.531 . S
C250 H262 0.960 . S
C250 H263 0.962 . S
C250 H264 0.960 . S
C251 C248 1.511 . S
C251 H265 0.961 . S
C251 H266 0.961 . S
C251 H267 0.961 . S
C252 C253 1.370 . S
C252 C254 1.363 . S
C252 H268 0.931 . S
C253 C252 1.370 . S
C253 C257 1.408 . S
C254 C252 1.363 . S
C254 C255 1.370 . S
C254 C258 1.524 . S
C255 C247 1.503 . S
C255 C254 1.370 . S
C255 C256 1.403 . S
C256 C255 1.403 . S
C256 C257 1.404 . S
C256 C259 1.539 . S
C257 C253 1.408 . S
C257 C256 1.404 . S
C257 H269 0.930 . S
C258 C254 1.524 . S
C258 H270 0.956 . S
C258 H271 0.961 . S
C258 H272 0.961 . S
C259 C256 1.539 . S
C259 H273 0.958 . S
C259 H274 0.961 . S
C259 H275 0.960 . S
H260 C244 0.931 . S
H261 C249 0.929 . S
H262 C250 0.960 . S
H263 C250 0.962 . S
H264 C250 0.960 . S
H265 C251 0.961 . S
H266 C251 0.961 . S
H267 C251 0.961 . S
H268 C252 0.931 . S
H269 C257 0.930 . S
H270 C258 0.956 . S
H271 C258 0.961 . S
H272 C258 0.961 . S
H273 C259 0.958 . S
H274 C259 0.961 . S
H275 C259 0.960 . S
C276 C277 1.391 . S
C276 C278 1.394 . S
C276 H292 0.931 . S
C277 C276 1.391 . S
C277 C281 1.376 . S
C278 C276 1.394 . S
C278 C279 1.369 . S
C278 C282 1.531 . S
C279 C278 1.369 . S
C279 C280 1.410 . S
C279 C287 1.503 1_556 S
C280 C279 1.410 . S
C280 C281 1.392 . S
C280 C283 1.511 . S
C281 C277 1.376 . S
C281 C280 1.392 . S
C281 H293 0.929 . S
C282 C278 1.531 . S
C282 H294 0.960 1_556 S
C282 H295 0.962 . S
C282 H296 0.960 . S
C283 C280 1.511 . S
C283 H297 0.961 . S
C283 H298 0.961 1_556 S
C283 H299 0.961 . S
C284 C285 1.370 . S
C284 C286 1.363 . S
C284 H300 0.931 . S
C285 C284 1.370 . S
C285 C289 1.408 . S
C286 C284 1.363 . S
C286 C287 1.370 . S
C286 C290 1.524 . S
C287 C279 1.503 1_554 S
C287 C286 1.370 . S
C287 C288 1.403 . S
C288 C287 1.403 . S
C288 C289 1.404 . S
C288 C291 1.539 . S
C289 C285 1.408 . S
C289 C288 1.404 . S
C289 H301 0.930 . S
C290 C286 1.524 . S
C290 H302 0.956 . S
C290 H303 0.961 1_554 S
C290 H304 0.961 . S
C291 C288 1.539 . S
C291 H305 0.958 . S
C291 H306 0.961 . S
C291 H307 0.965 . S
H292 C276 0.931 . S
H293 C281 0.929 . S
H294 C282 0.960 1_554 S
H295 C282 0.962 . S
H296 C282 0.960 . S
H297 C283 0.961 . S
H298 C283 0.961 1_554 S
H299 C283 0.961 . S
H300 C284 0.931 . S
H301 C289 0.930 . S
H302 C290 0.956 . S
H303 C290 0.961 1_556 S
H304 C290 0.961 . S
H305 C291 0.958 . S
H306 C291 0.961 . S
H307 C291 0.965 . S
C308 C309 1.391 . S
C308 C310 1.394 . S
C308 H324 0.931 . S
C309 C308 1.391 . S
C309 C313 1.376 . S
C310 C308 1.394 . S
C310 C311 1.369 . S
C310 C314 1.531 . S
C311 C310 1.369 . S
C311 C312 1.410 . S
C311 C319 1.503 . S
C312 C311 1.410 . S
C312 C313 1.392 . S
C312 C315 1.511 . S
C313 C309 1.376 . S
C313 C312 1.392 . S
C313 H325 0.929 . S
C314 C310 1.531 . S
C314 H326 0.960 . S
C314 H327 0.962 . S
C314 H328 0.960 . S
C315 C312 1.511 . S
C315 H329 0.961 . S
C315 H330 0.961 . S
C315 H331 0.961 . S
C316 C317 1.370 . S
C316 C318 1.363 . S
C316 H332 0.931 . S
C317 C316 1.370 . S
C317 C321 1.408 . S
C318 C316 1.363 . S
C318 C319 1.370 . S
C318 C322 1.524 . S
C319 C311 1.503 . S
C319 C318 1.370 . S
C319 C320 1.403 . S
C320 C319 1.403 . S
C320 C321 1.404 . S
C320 C323 1.539 . S
C321 C317 1.408 . S
C321 C320 1.404 . S
C321 H333 0.930 . S
C322 C318 1.524 . S
C322 H334 0.956 . S
C322 H335 0.961 . S
C322 H336 0.961 . S
C323 C320 1.539 . S
C323 H337 0.958 . S
C323 H338 0.961 . S
C323 H339 0.960 . S
H324 C308 0.931 . S
H325 C313 0.929 . S
H326 C314 0.960 . S
H327 C314 0.962 . S
H328 C314 0.960 . S
H329 C315 0.961 . S
H330 C315 0.961 . S
H331 C315 0.961 . S
H332 C316 0.931 . S
H333 C321 0.930 . S
H334 C322 0.956 . S
H335 C322 0.961 . S
H336 C322 0.961 . S
H337 C323 0.958 . S
H338 C323 0.961 . S
H339 C323 0.960 . S
C340 C341 1.391 . S
C340 C342 1.394 . S
C340 H356 0.931 . S
C341 C340 1.391 . S
C341 C345 1.376 . S
C342 C340 1.394 . S
C342 C343 1.369 . S
C342 C346 1.531 . S
C343 C342 1.369 . S
C343 C344 1.410 . S
C343 C351 1.503 . S
C344 C343 1.410 . S
C344 C345 1.392 . S
C344 C347 1.511 . S
C345 C341 1.376 . S
C345 C344 1.392 . S
C345 H357 0.929 . S
C346 C342 1.531 . S
C346 H358 0.960 . S
C346 H359 0.962 . S
C346 H360 0.960 . S
C347 C344 1.511 . S
C347 H361 0.961 . S
C347 H362 0.961 . S
C347 H363 0.961 . S
C348 C349 1.370 . S
C348 C350 1.363 . S
C348 H364 0.931 . S
C349 C348 1.370 . S
C349 C353 1.408 . S
C350 C348 1.363 . S
C350 C351 1.370 . S
C350 C354 1.524 . S
C351 C343 1.503 . S
C351 C350 1.370 . S
C351 C352 1.403 . S
C352 C351 1.403 . S
C352 C353 1.404 . S
C352 C355 1.539 . S
C353 C349 1.408 . S
C353 C352 1.404 . S
C353 H365 0.930 . S
C354 C350 1.524 . S
C354 H366 0.956 . S
C354 H367 0.961 . S
C354 H368 0.961 . S
C355 C352 1.539 . S
C355 H369 0.958 . S
C355 H370 0.961 . S
C355 H371 0.960 . S
H356 C340 0.931 . S
H357 C345 0.929 . S
H358 C346 0.960 . S
H359 C346 0.962 . S
H360 C346 0.960 . S
H361 C347 0.961 . S
H362 C347 0.961 . S
H363 C347 0.961 . S
H364 C348 0.931 . S
H365 C353 0.930 . S
H366 C354 0.956 . S
H367 C354 0.961 . S
H368 C354 0.961 . S
H369 C355 0.958 . S
H370 C355 0.961 . S
H371 C355 0.960 . S
C372 C373 1.391 . S
C372 C374 1.394 . S
C372 H388 0.931 . S
C373 C372 1.391 . S
C373 C377 1.376 . S
C374 C372 1.394 . S
C374 C375 1.369 . S
C374 C378 1.531 . S
C375 C374 1.369 . S
C375 C376 1.410 . S
C375 C383 1.503 1_556 S
C376 C375 1.410 . S
C376 C377 1.392 . S
C376 C379 1.511 . S
C377 C373 1.376 . S
C377 C376 1.392 . S
C377 H389 0.929 . S
C378 C374 1.531 . S
C378 H390 0.960 1_556 S
C378 H391 0.962 . S
C378 H392 0.960 . S
C379 C376 1.511 . S
C379 H393 0.961 . S
C379 H394 0.961 1_556 S
C379 H395 0.961 . S
C380 C381 1.370 . S
C380 C382 1.363 . S
C380 H396 0.931 . S
C381 C380 1.370 . S
C381 C385 1.408 . S
C382 C380 1.363 . S
C382 C383 1.370 . S
C382 C386 1.524 . S
C383 C375 1.503 1_554 S
C383 C382 1.370 . S
C383 C384 1.403 . S
C384 C383 1.403 . S
C384 C385 1.404 . S
C384 C387 1.539 . S
C385 C381 1.408 . S
C385 C384 1.404 . S
C385 H397 0.930 . S
C386 C382 1.524 . S
C386 H398 0.975 . S
C386 H399 0.961 1_554 S
C386 H400 0.961 . S
C387 C384 1.539 . S
C387 H401 0.958 . S
C387 H402 0.961 . S
C387 H403 0.960 . S
H388 C372 0.931 . S
H389 C377 0.929 . S
H390 C378 0.960 1_554 S
H391 C378 0.962 . S
H392 C378 0.960 . S
H393 C379 0.961 . S
H394 C379 0.961 1_554 S
H395 C379 0.961 . S
H396 C380 0.931 . S
H397 C385 0.930 . S
H398 C386 0.975 . S
H399 C386 0.961 1_556 S
H400 C386 0.961 . S
H401 C387 0.958 . S
H402 C387 0.961 . S
H403 C387 0.960 . S
C404 C405 1.391 . S
C404 C406 1.394 . S
C404 H420 0.931 . S
C405 C404 1.391 . S
C405 C409 1.376 . S
C406 C404 1.394 . S
C406 C407 1.369 . S
C406 C410 1.531 . S
C407 C406 1.369 . S
C407 C408 1.410 . S
C407 C415 1.503 . S
C408 C407 1.410 . S
C408 C409 1.392 . S
C408 C411 1.511 . S
C409 C405 1.376 . S
C409 C408 1.392 . S
C409 H421 0.929 . S
C410 C406 1.531 . S
C410 H422 0.960 . S
C410 H423 0.962 . S
C410 H424 0.960 . S
C411 C408 1.511 . S
C411 H425 0.961 . S
C411 H426 0.961 . S
C411 H427 0.961 . S
C412 C413 1.370 . S
C412 C414 1.363 . S
C412 H428 0.931 . S
C413 C412 1.370 . S
C413 C417 1.408 . S
C414 C412 1.363 . S
C414 C415 1.370 . S
C414 C418 1.524 . S
C415 C407 1.503 . S
C415 C414 1.370 . S
C415 C416 1.403 . S
C416 C415 1.403 . S
C416 C417 1.404 . S
C416 C419 1.539 . S
C417 C413 1.408 . S
C417 C416 1.404 . S
C417 H429 0.930 . S
C418 C414 1.524 . S
C418 H430 0.956 . S
C418 H431 0.961 . S
C418 H432 0.961 . S
C419 C416 1.539 . S
C419 H433 0.958 . S
C419 H434 0.961 . S
C419 H435 0.960 . S
H420 C404 0.931 . S
H421 C409 0.929 . S
H422 C410 0.960 . S
H423 C410 0.962 . S
H424 C410 0.960 . S
H425 C411 0.961 . S
H426 C411 0.961 . S
H427 C411 0.961 . S
H428 C412 0.931 . S
H429 C417 0.930 . S
H430 C418 0.956 . S
H431 C418 0.961 . S
H432 C418 0.961 . S
H433 C419 0.958 . S
H434 C419 0.961 . S
H435 C419 0.960 . S
C436 C437 1.391 . S
C436 C438 1.394 . S
C436 H452 0.931 . S
C437 C436 1.391 . S
C437 C441 1.376 . S
C438 C436 1.394 . S
C438 C439 1.369 . S
C438 C442 1.531 . S
C439 C438 1.369 . S
C439 C440 1.410 . S
C439 C447 1.503 . S
C440 C439 1.410 . S
C440 C441 1.392 . S
C440 C443 1.511 . S
C441 C437 1.376 . S
C441 C440 1.392 . S
C441 H453 0.929 . S
C442 C438 1.531 . S
C442 H454 0.960 . S
C442 H455 0.962 . S
C442 H456 0.960 . S
C443 C440 1.511 . S
C443 H457 0.961 . S
C443 H458 0.961 . S
C443 H459 0.961 . S
C444 C445 1.370 . S
C444 C446 1.363 . S
C444 H460 0.931 . S
C445 C444 1.370 . S
C445 C449 1.408 . S
C446 C444 1.363 . S
C446 C447 1.370 . S
C446 C450 1.524 . S
C447 C439 1.503 . S
C447 C446 1.370 . S
C447 C448 1.403 . S
C448 C447 1.403 . S
C448 C449 1.404 . S
C448 C451 1.539 . S
C449 C445 1.408 . S
C449 C448 1.404 . S
C449 H461 0.930 . S
C450 C446 1.524 . S
C450 H462 0.956 . S
C450 H463 0.961 . S
C450 H464 0.961 . S
C451 C448 1.539 . S
C451 H465 0.958 . S
C451 H466 0.961 . S
C451 H467 0.960 . S
H452 C436 0.931 . S
H453 C441 0.929 . S
H454 C442 0.960 . S
H455 C442 0.962 . S
H456 C442 0.960 . S
H457 C443 0.961 . S
H458 C443 0.961 . S
H459 C443 0.961 . S
H460 C444 0.931 . S
H461 C449 0.930 . S
H462 C450 0.956 . S
H463 C450 0.961 . S
H464 C450 0.961 . S
H465 C451 0.958 . S
H466 C451 0.961 . S
H467 C451 0.960 . S
C85 C8 1.409 . S
C93 C50 1.414 . S
C117 C22 1.411 . S
C125 C64 1.411 . S
C149 C36 1.405 . S
C157 C78 1.412 . S
C181 C23 1.478 . S
C189 C65 1.468 . S
C213 C79 1.482 . S
C221 C37 1.470 . S
C245 C51 1.486 . S
C253 C9 1.468 . S
C277 C31 1.255 . S
C285 C7 1.249 . S
C309 C45 1.247 . S
C317 C21 1.251 . S
C341 C35 1.242 . S
C349 C59 1.237 . S
C373 C73 1.226 . S
C381 C49 1.264 . S
C405 C63 1.233 . S
C413 C3 1.249 . S
C437 C77 1.279 . S
C445 C17 1.224 . S
