# Generated by pormake.
# Topology gsi, (4)-cn, num edge types: 1
# Building blocks:
#     Node 0, Type 0, BuildingBlock: UXUYUI_clean_sbu_0, # of connection points: 4
#     Node 1, Type 0, BuildingBlock: UXUYUI_clean_sbu_0, # of connection points: 4
#     Node 2, Type 0, BuildingBlock: UXUYUI_clean_sbu_0, # of connection points: 4
#     Node 3, Type 0, BuildingBlock: UXUYUI_clean_sbu_0, # of connection points: 4
#     Node 4, Type 0, BuildingBlock: UXUYUI_clean_sbu_0, # of connection points: 4
#     Node 5, Type 0, BuildingBlock: UXUYUI_clean_sbu_0, # of connection points: 4
#     Node 6, Type 0, BuildingBlock: UXUYUI_clean_sbu_0, # of connection points: 4
#     Node 7, Type 0, BuildingBlock: UXUYUI_clean_sbu_0, # of connection points: 4
#     Node 8, Type 0, BuildingBlock: UXUYUI_clean_sbu_0, # of connection points: 4
#     Node 9, Type 0, BuildingBlock: UXUYUI_clean_sbu_0, # of connection points: 4
#     Node 10, Type 0, BuildingBlock: UXUYUI_clean_sbu_0, # of connection points: 4
#     Node 11, Type 0, BuildingBlock: UXUYUI_clean_sbu_0, # of connection points: 4
#     Node 12, Type 0, BuildingBlock: UXUYUI_clean_sbu_0, # of connection points: 4
#     Node 13, Type 0, BuildingBlock: UXUYUI_clean_sbu_0, # of connection points: 4
#     Node 14, Type 0, BuildingBlock: UXUYUI_clean_sbu_0, # of connection points: 4
#     Node 15, Type 0, BuildingBlock: UXUYUI_clean_sbu_0, # of connection points: 4
#     Edge 16, Type (0, 0), BuildingBlock: OJICUG_clean_linker_0, # of connection points: 2
#     Edge 17, Type (0, 0), BuildingBlock: OJICUG_clean_linker_0, # of connection points: 2
#     Edge 18, Type (0, 0), BuildingBlock: OJICUG_clean_linker_0, # of connection points: 2
#     Edge 19, Type (0, 0), BuildingBlock: OJICUG_clean_linker_0, # of connection points: 2
#     Edge 20, Type (0, 0), BuildingBlock: OJICUG_clean_linker_0, # of connection points: 2
#     Edge 21, Type (0, 0), BuildingBlock: OJICUG_clean_linker_0, # of connection points: 2
#     Edge 22, Type (0, 0), BuildingBlock: OJICUG_clean_linker_0, # of connection points: 2
#     Edge 23, Type (0, 0), BuildingBlock: OJICUG_clean_linker_0, # of connection points: 2
#     Edge 24, Type (0, 0), BuildingBlock: OJICUG_clean_linker_0, # of connection points: 2
#     Edge 25, Type (0, 0), BuildingBlock: OJICUG_clean_linker_0, # of connection points: 2
#     Edge 26, Type (0, 0), BuildingBlock: OJICUG_clean_linker_0, # of connection points: 2
#     Edge 27, Type (0, 0), BuildingBlock: OJICUG_clean_linker_0, # of connection points: 2
#     Edge 28, Type (0, 0), BuildingBlock: OJICUG_clean_linker_0, # of connection points: 2
#     Edge 29, Type (0, 0), BuildingBlock: OJICUG_clean_linker_0, # of connection points: 2
#     Edge 30, Type (0, 0), BuildingBlock: OJICUG_clean_linker_0, # of connection points: 2
#     Edge 31, Type (0, 0), BuildingBlock: OJICUG_clean_linker_0, # of connection points: 2
#     Edge 32, Type (0, 0), BuildingBlock: OJICUG_clean_linker_0, # of connection points: 2
#     Edge 33, Type (0, 0), BuildingBlock: OJICUG_clean_linker_0, # of connection points: 2
#     Edge 34, Type (0, 0), BuildingBlock: OJICUG_clean_linker_0, # of connection points: 2
#     Edge 35, Type (0, 0), BuildingBlock: OJICUG_clean_linker_0, # of connection points: 2
#     Edge 36, Type (0, 0), BuildingBlock: OJICUG_clean_linker_0, # of connection points: 2
#     Edge 37, Type (0, 0), BuildingBlock: OJICUG_clean_linker_0, # of connection points: 2
#     Edge 38, Type (0, 0), BuildingBlock: OJICUG_clean_linker_0, # of connection points: 2
#     Edge 39, Type (0, 0), BuildingBlock: OJICUG_clean_linker_0, # of connection points: 2
#     Edge 40, Type (0, 0), BuildingBlock: OJICUG_clean_linker_0, # of connection points: 2
#     Edge 41, Type (0, 0), BuildingBlock: OJICUG_clean_linker_0, # of connection points: 2
#     Edge 42, Type (0, 0), BuildingBlock: OJICUG_clean_linker_0, # of connection points: 2
#     Edge 43, Type (0, 0), BuildingBlock: OJICUG_clean_linker_0, # of connection points: 2
#     Edge 44, Type (0, 0), BuildingBlock: OJICUG_clean_linker_0, # of connection points: 2
#     Edge 45, Type (0, 0), BuildingBlock: OJICUG_clean_linker_0, # of connection points: 2
#     Edge 46, Type (0, 0), BuildingBlock: OJICUG_clean_linker_0, # of connection points: 2
#     Edge 47, Type (0, 0), BuildingBlock: OJICUG_clean_linker_0, # of connection points: 2
# Relax obj value: 0.073
# Max RMSD: 0.058
# Mean RMSD: 0.058
data_MOF--net-gsi--node1-UXUYUI_clean_sbu_0--edge1-OJICUG_clean_linker_0
_symmetry_space_group_name_H-M    P1
_symmetry_Int_Tables_number       1
_symmetry_cell_setting            triclinic
loop_
_symmetry_equiv_pos_as_xyz
'x, y, z'
_cell_length_a     50.613597
_cell_length_b     50.551028
_cell_length_c     50.533123
_cell_angle_alpha  90.021525
_cell_angle_beta   89.968537
_cell_angle_gamma 90.01879
loop_
_atom_site_label
_atom_site_type_symbol
_atom_site_fract_x
_atom_site_fract_y
_atom_site_fract_z
_atom_type_partial_charge
Li0 Li 0.13359 0.17585 0.15627 0.0
Li1 Li 0.17552 0.17384 0.1777 0.0
Li2 Li 0.17255 0.15513 0.13503 0.0
Li3 Li 0.15268 0.13235 0.1752 0.0
C4 C 0.1616 0.20682 0.12201 0.0
N5 N 0.15044 0.23498 0.07646 0.0
C6 C 0.17083 0.23273 0.11902 0.0
C7 C 0.14667 0.1953 0.10179 0.0
C8 C 0.16498 0.24663 0.09586 0.0
C9 C 0.14126 0.20982 0.07893 0.0
C10 C 0.13958 0.17853 0.21674 0.0
C11 C 0.13914 0.17929 0.26447 0.0
N12 N 0.13813 0.20617 0.2639 0.0
C13 C 0.13843 0.20615 0.21664 0.0
C14 C 0.13987 0.16495 0.24084 0.0
C15 C 0.13777 0.21977 0.24068 0.0
C16 C 0.07803 0.18575 0.14881 0.0
N17 N 0.10233 0.19686 0.15168 0.0
C18 C 0.08353 0.24029 0.15071 0.0
C19 C 0.10538 0.22358 0.15255 0.0
C20 C 0.05807 0.22953 0.14818 0.0
C21 C 0.05551 0.2018 0.14698 0.0
H22 H 0.07609 0.16444 0.14838 0.0
H23 H 0.12482 0.23203 0.15504 0.0
C24 C 0.21032 0.21541 0.18884 0.0
N25 N 0.19862 0.19392 0.19991 0.0
C26 C 0.22674 0.23164 0.20391 0.0
C27 C 0.21942 0.20286 0.2414 0.0
C28 C 0.20311 0.18722 0.22558 0.0
C29 C 0.23126 0.22556 0.23063 0.0
H30 H 0.20688 0.21997 0.16826 0.0
H31 H 0.19394 0.16981 0.23387 0.0
C32 C 0.12834 0.12102 0.12171 0.0
N33 N 0.11304 0.08264 0.08592 0.0
C34 C 0.1401 0.09602 0.12225 0.0
C35 C 0.10867 0.12645 0.10308 0.0
C36 C 0.13212 0.07689 0.10397 0.0
C37 C 0.10126 0.1068 0.08511 0.0
C38 C 0.21318 0.13838 0.17998 0.0
C39 C 0.23592 0.15011 0.16955 0.0
C40 C 0.21419 0.12633 0.20485 0.0
C41 C 0.25927 0.14979 0.18429 0.0
C42 C 0.23794 0.12635 0.21895 0.0
N43 N 0.25978 0.13801 0.20847 0.0
C44 C 0.21198 0.16946 0.10015 0.0
C45 C 0.18845 0.13246 0.08377 0.0
C46 C 0.22874 0.16918 0.07825 0.0
N47 N 0.19237 0.15125 0.10266 0.0
C48 C 0.20484 0.13143 0.06142 0.0
C49 C 0.22536 0.14998 0.05845 0.0
H50 H 0.21472 0.18425 0.11537 0.0
H51 H 0.17272 0.11825 0.08589 0.0
C52 C 0.12564 0.09788 0.21088 0.0
N53 N 0.14589 0.09968 0.19327 0.0
C54 C 0.12338 0.07575 0.2274 0.0
C55 C 0.16193 0.05712 0.20628 0.0
C56 C 0.16359 0.07966 0.19039 0.0
C57 C 0.14207 0.0552 0.22568 0.0
H58 H 0.11194 0.11416 0.21293 0.0
H59 H 0.17972 0.08167 0.17648 0.0
O60 O 0.16715 0.19307 0.14472 0.0
O61 O 0.14047 0.16486 0.19339 0.0
O62 O 0.13557 0.13993 0.13966 0.0
O63 O 0.19001 0.13888 0.16603 0.0
H64 H 0.18226 0.24211 0.13447 0.0
H65 H 0.13941 0.17535 0.1036 0.0
H66 H 0.17197 0.2667 0.09333 0.0
H67 H 0.12977 0.20108 0.06314 0.0
H68 H 0.13948 0.16905 0.28326 0.0
H69 H 0.13857 0.21696 0.19821 0.0
H70 H 0.141 0.1436 0.24132 0.0
H71 H 0.13708 0.24116 0.24089 0.0
H72 H 0.08662 0.26148 0.1513 0.0
H73 H 0.03628 0.19256 0.14533 0.0
H74 H 0.23591 0.24867 0.1947 0.0
H75 H 0.22226 0.19753 0.26195 0.0
H76 H 0.15553 0.09161 0.13631 0.0
H77 H 0.0992 0.14565 0.10255 0.0
H78 H 0.14118 0.05751 0.10406 0.0
H79 H 0.08611 0.11075 0.07054 0.0
H80 H 0.23555 0.15954 0.15039 0.0
H81 H 0.19673 0.11754 0.21348 0.0
H82 H 0.27697 0.15893 0.1765 0.0
H83 H 0.23894 0.11726 0.2383 0.0
H84 H 0.24446 0.18367 0.07709 0.0
H85 H 0.20126 0.11648 0.04649 0.0
H86 H 0.10786 0.07536 0.24215 0.0
H87 H 0.17649 0.04164 0.20375 0.0
Li88 Li 0.84748 0.34946 0.17785 0.0
Li89 Li 0.88871 0.34971 0.15543 0.0
Li90 Li 0.87045 0.39092 0.1743 0.0
Li91 Li 0.84982 0.36944 0.1349 0.0
C92 C 0.89241 0.33936 0.20902 0.0
N93 N 0.91348 0.30022 0.24081 0.0
C94 C 0.88618 0.31281 0.2044 0.0
C95 C 0.90929 0.34599 0.22987 0.0
C96 C 0.89705 0.29332 0.22066 0.0
C97 C 0.91975 0.32592 0.2457 0.0
C98 C 0.85984 0.31816 0.12115 0.0
C99 C 0.8802 0.31432 0.07815 0.0
N100 N 0.86822 0.29048 0.07474 0.0
C101 C 0.84769 0.29365 0.11719 0.0
C102 C 0.87621 0.32863 0.10146 0.0
C103 C 0.8522 0.27994 0.09361 0.0
C104 C 0.8076 0.31252 0.18881 0.0
N105 N 0.82504 0.32944 0.20022 0.0
C106 C 0.81084 0.31672 0.2434 0.0
C107 C 0.82687 0.33193 0.22693 0.0
C108 C 0.79284 0.29873 0.23224 0.0
C109 C 0.79121 0.29686 0.20453 0.0
H110 H 0.80661 0.31107 0.16747 0.0
H111 H 0.84084 0.34573 0.23542 0.0
C112 C 0.94443 0.34093 0.15004 0.0
N113 N 0.9203 0.32909 0.15022 0.0
C114 C 0.96746 0.32562 0.14837 0.0
C115 C 0.94036 0.28633 0.14671 0.0
C116 C 0.91797 0.30232 0.14852 0.0
C117 C 0.96558 0.29787 0.14683 0.0
H118 H 0.9458 0.36223 0.15165 0.0
H119 H 0.89871 0.29318 0.1493 0.0
C120 C 0.81115 0.38603 0.18295 0.0
N121 N 0.76778 0.3882 0.21613 0.0
C122 C 0.78598 0.3801 0.17326 0.0
C123 C 0.81424 0.39323 0.20948 0.0
C124 C 0.76431 0.38125 0.19037 0.0
C125 C 0.79208 0.39419 0.22594 0.0
C126 C 0.88875 0.409 0.12528 0.0
C127 C 0.86773 0.42692 0.12557 0.0
C128 C 0.91212 0.41558 0.1121 0.0
C129 C 0.87044 0.45118 0.11262 0.0
C130 C 0.91405 0.44003 0.09935 0.0
N131 N 0.89335 0.45718 0.09989 0.0
C132 C 0.898 0.42557 0.20926 0.0
C133 C 0.85811 0.44265 0.19175 0.0
C134 C 0.90043 0.44739 0.22618 0.0
N135 N 0.87683 0.4234 0.19284 0.0
C136 C 0.85976 0.46476 0.20824 0.0
C137 C 0.88079 0.46709 0.22625 0.0
H138 H 0.91246 0.40985 0.20996 0.0
H139 H 0.84123 0.44034 0.17885 0.0
C140 C 0.80701 0.35828 0.10325 0.0
N141 N 0.82949 0.37297 0.10298 0.0
C142 C 0.78995 0.35832 0.08158 0.0
C143 C 0.81967 0.3883 0.05923 0.0
C144 C 0.83631 0.38754 0.08137 0.0
C145 C 0.7961 0.37353 0.05917 0.0
H146 H 0.80243 0.34628 0.12036 0.0
H147 H 0.85472 0.39832 0.08105 0.0
O148 O 0.88208 0.35887 0.19335 0.0
O149 O 0.8554 0.33177 0.14415 0.0
O150 O 0.83273 0.38438 0.16669 0.0
O151 O 0.88679 0.38524 0.13805 0.0
H152 H 0.87309 0.30727 0.18844 0.0
H153 H 0.91425 0.36644 0.23378 0.0
H154 H 0.89242 0.2727 0.21727 0.0
H155 H 0.93286 0.33078 0.26189 0.0
H156 H 0.89283 0.32218 0.06276 0.0
H157 H 0.83494 0.28529 0.13223 0.0
H158 H 0.88577 0.34756 0.10406 0.0
H159 H 0.84294 0.26094 0.0903 0.0
H160 H 0.81244 0.3191 0.26464 0.0
H161 H 0.77784 0.28305 0.1951 0.0
H162 H 0.9865 0.33539 0.14836 0.0
H163 H 0.93791 0.26506 0.14608 0.0
H164 H 0.78314 0.37466 0.15279 0.0
H165 H 0.83361 0.39752 0.21744 0.0
H166 H 0.74473 0.37662 0.18315 0.0
H167 H 0.79422 0.39954 0.24656 0.0
H168 H 0.84937 0.42203 0.13533 0.0
H169 H 0.92859 0.40192 0.11174 0.0
H170 H 0.8543 0.4652 0.11262 0.0
H171 H 0.93202 0.44538 0.08905 0.0
H172 H 0.91688 0.44821 0.23984 0.0
H173 H 0.84438 0.47961 0.20726 0.0
H174 H 0.772 0.34669 0.08249 0.0
H175 H 0.82545 0.39987 0.04215 0.0
Li176 Li 0.15326 0.89124 0.35229 0.0
Li177 Li 0.17364 0.86987 0.39183 0.0
Li178 Li 0.17634 0.84986 0.34893 0.0
Li179 Li 0.13484 0.85009 0.37082 0.0
C180 C 0.21217 0.88693 0.34346 0.0
N181 N 0.25481 0.88991 0.3094 0.0
C182 C 0.2376 0.88116 0.35254 0.0
C183 C 0.20845 0.89437 0.31708 0.0
C184 C 0.25889 0.88273 0.33501 0.0
C185 C 0.23026 0.89574 0.30017 0.0
C186 C 0.13457 0.90937 0.40103 0.0
C187 C 0.10851 0.94122 0.42514 0.0
N188 N 0.12971 0.95774 0.42603 0.0
C189 C 0.1561 0.92666 0.40217 0.0
C190 C 0.11057 0.91669 0.41256 0.0
C191 C 0.15325 0.95102 0.41491 0.0
C192 C 0.12674 0.92509 0.31597 0.0
N193 N 0.14672 0.92376 0.33389 0.0
C194 C 0.16237 0.96642 0.3207 0.0
C195 C 0.16418 0.944 0.33673 0.0
C196 C 0.14263 0.96797 0.30115 0.0
C197 C 0.12431 0.94709 0.29932 0.0
H198 H 0.11329 0.9086 0.3139 0.0
H199 H 0.18022 0.94231 0.35075 0.0
C200 C 0.21674 0.85908 0.42307 0.0
N201 N 0.1939 0.87318 0.42385 0.0
C202 C 0.23378 0.85876 0.44475 0.0
C203 C 0.20334 0.88716 0.46815 0.0
C204 C 0.18673 0.8868 0.44596 0.0
C205 C 0.22726 0.87297 0.46772 0.0
H206 H 0.22158 0.84777 0.40556 0.0
H207 H 0.16804 0.89708 0.44663 0.0
C208 C 0.13249 0.83929 0.31717 0.0
N209 N 0.11359 0.7994 0.28488 0.0
C210 C 0.13792 0.81282 0.32308 0.0
C211 C 0.11754 0.84545 0.29476 0.0
C212 C 0.12816 0.79295 0.30655 0.0
C213 C 0.10815 0.82501 0.2787 0.0
C214 C 0.1635 0.81865 0.40555 0.0
C215 C 0.17576 0.79424 0.40967 0.0
C216 C 0.14692 0.82908 0.4251 0.0
C217 C 0.17114 0.78057 0.43324 0.0
C218 C 0.14282 0.81482 0.44841 0.0
N219 N 0.15491 0.79106 0.45196 0.0
C220 C 0.21619 0.8128 0.33899 0.0
C221 C 0.19789 0.83197 0.30028 0.0
C222 C 0.23286 0.79694 0.32378 0.0
N223 N 0.19908 0.82969 0.32705 0.0
C224 C 0.21428 0.81658 0.2843 0.0
C225 C 0.23191 0.79864 0.29606 0.0
H226 H 0.21679 0.81164 0.36035 0.0
H227 H 0.18409 0.84564 0.29135 0.0
C228 C 0.079 0.84174 0.37268 0.0
N229 N 0.1029 0.82975 0.3754 0.0
C230 C 0.05569 0.82679 0.37366 0.0
C231 C 0.08199 0.78758 0.38072 0.0
C232 C 0.1047 0.80316 0.37925 0.0
C233 C 0.05706 0.7993 0.37769 0.0
H234 H 0.07807 0.86284 0.36922 0.0
H235 H 0.1238 0.79375 0.38042 0.0
O236 O 0.19095 0.88484 0.36012 0.0
O237 O 0.13667 0.88554 0.38838 0.0
O238 O 0.14194 0.85918 0.33294 0.0
O239 O 0.16808 0.83225 0.38258 0.0
H240 H 0.24091 0.87551 0.37289 0.0
H241 H 0.18889 0.89853 0.30957 0.0
H242 H 0.27866 0.87822 0.34176 0.0
H243 H 0.22763 0.90129 0.27966 0.0
H244 H 0.09005 0.94714 0.43416 0.0
H245 H 0.17491 0.92122 0.39362 0.0
H246 H 0.0937 0.90353 0.41176 0.0
H247 H 0.16977 0.96455 0.416 0.0
H248 H 0.17668 0.98214 0.32326 0.0
H249 H 0.10894 0.94717 0.28443 0.0
H250 H 0.25201 0.84762 0.44342 0.0
H251 H 0.19727 0.89795 0.48564 0.0
H252 H 0.14965 0.80763 0.34017 0.0
H253 H 0.11329 0.86582 0.28978 0.0
H254 H 0.13221 0.7724 0.31091 0.0
H255 H 0.09655 0.82951 0.2613 0.0
H256 H 0.18868 0.78591 0.39475 0.0
H257 H 0.13728 0.84795 0.42238 0.0
H258 H 0.18048 0.76163 0.43667 0.0
H259 H 0.13003 0.82264 0.46368 0.0
H260 H 0.24643 0.78361 0.3336 0.0
H261 H 0.21279 0.81831 0.26299 0.0
H262 H 0.03683 0.8366 0.37124 0.0
H263 H 0.08399 0.7664 0.38331 0.0
Li264 Li 0.85266 0.65482 0.39229 0.0
Li265 Li 0.87132 0.63115 0.3522 0.0
Li266 Li 0.89032 0.67542 0.36901 0.0
Li267 Li 0.84722 0.67314 0.34792 0.0
C268 C 0.89677 0.62508 0.40834 0.0
N269 N 0.9116 0.59492 0.45145 0.0
C270 C 0.89064 0.59814 0.40924 0.0
C271 C 0.9109 0.63658 0.42915 0.0
C272 C 0.89819 0.58325 0.43126 0.0
C273 C 0.91808 0.62103 0.45084 0.0
C274 C 0.80979 0.63002 0.3553 0.0
C275 C 0.78044 0.60524 0.32699 0.0
N276 N 0.75967 0.61255 0.34243 0.0
C277 C 0.78815 0.63729 0.37087 0.0
C278 C 0.80593 0.61386 0.33316 0.0
C279 C 0.76297 0.62826 0.36404 0.0
C280 C 0.81782 0.67209 0.43153 0.0
N281 N 0.83336 0.65111 0.42504 0.0
C282 C 0.81691 0.62686 0.46234 0.0
C283 C 0.83301 0.6286 0.43982 0.0
C284 C 0.80093 0.64844 0.46962 0.0
C285 C 0.80159 0.67125 0.45381 0.0
H286 H 0.81736 0.68931 0.41892 0.0
H287 H 0.84471 0.61178 0.43392 0.0
C288 C 0.89522 0.59862 0.31355 0.0
N289 N 0.87802 0.59847 0.33423 0.0
C290 C 0.89755 0.57648 0.2971 0.0
C291 C 0.8652 0.55404 0.32417 0.0
C292 C 0.86348 0.57662 0.34006 0.0
C293 C 0.88198 0.55395 0.30194 0.0
H294 H 0.90633 0.61636 0.30914 0.0
H295 H 0.84968 0.57712 0.35641 0.0
C296 C 0.86213 0.71163 0.39833 0.0
N297 N 0.87352 0.75127 0.4342 0.0
C298 C 0.85522 0.73781 0.39276 0.0
C299 C 0.87463 0.70559 0.4222 0.0
C300 C 0.86122 0.75759 0.41113 0.0
C301 C 0.88027 0.7259 0.44007 0.0
C302 C 0.87921 0.67143 0.30671 0.0
C303 C 0.89198 0.6942 0.29764 0.0
C304 C 0.86287 0.65714 0.28961 0.0
C305 C 0.88794 0.70248 0.27158 0.0
C306 C 0.85932 0.66609 0.2637 0.0
N307 N 0.8718 0.68839 0.25531 0.0
C308 C 0.94458 0.68743 0.38065 0.0
C309 C 0.91853 0.72293 0.36476 0.0
C310 C 0.96676 0.70394 0.38222 0.0
N311 N 0.92109 0.69718 0.37204 0.0
C312 C 0.94004 0.74017 0.3663 0.0
C313 C 0.96471 0.73079 0.37498 0.0
H314 H 0.94616 0.66679 0.38604 0.0
H315 H 0.89972 0.7301 0.35763 0.0
C316 C 0.80161 0.68478 0.31537 0.0
N317 N 0.82481 0.69373 0.32552 0.0
C318 C 0.78632 0.70101 0.29917 0.0
C319 C 0.81929 0.73529 0.30363 0.0
C320 C 0.83375 0.71849 0.32004 0.0
C321 C 0.79512 0.72665 0.29301 0.0
H322 H 0.79474 0.66515 0.31971 0.0
H323 H 0.85236 0.72508 0.32825 0.0
O324 O 0.88972 0.63989 0.38683 0.0
O325 O 0.83463 0.63844 0.36181 0.0
O326 O 0.85678 0.69207 0.38037 0.0
O327 O 0.88234 0.66339 0.33234 0.0
H328 H 0.87993 0.58889 0.39323 0.0
H329 H 0.91646 0.65722 0.42849 0.0
H330 H 0.89337 0.56243 0.4323 0.0
H331 H 0.9289 0.6297 0.46713 0.0
H332 H 0.77716 0.59281 0.30988 0.0
H333 H 0.79071 0.64987 0.38797 0.0
H334 H 0.82235 0.6083 0.32066 0.0
H335 H 0.74605 0.63376 0.37591 0.0
H336 H 0.817 0.60884 0.47393 0.0
H337 H 0.78911 0.6881 0.45818 0.0
H338 H 0.91051 0.5775 0.28008 0.0
H339 H 0.85309 0.53704 0.32892 0.0
H340 H 0.84543 0.74283 0.37442 0.0
H341 H 0.87975 0.68541 0.42692 0.0
H342 H 0.85608 0.77795 0.40705 0.0
H343 H 0.88996 0.72149 0.45862 0.0
H344 H 0.90471 0.70546 0.31064 0.0
H345 H 0.85278 0.63953 0.29639 0.0
H346 H 0.89758 0.72015 0.26431 0.0
H347 H 0.84657 0.65534 0.2503 0.0
H348 H 0.98539 0.69558 0.38858 0.0
H349 H 0.93721 0.76068 0.36086 0.0
H350 H 0.76764 0.69359 0.29186 0.0
H351 H 0.82713 0.75469 0.29912 0.0
Li352 Li 0.34706 0.84848 0.67864 0.0
Li353 Li 0.39074 0.84798 0.65698 0.0
Li354 Li 0.37036 0.88954 0.67441 0.0
Li355 Li 0.35118 0.86685 0.63487 0.0
C356 C 0.39648 0.86521 0.7152 0.0
N357 N 0.42675 0.88186 0.75759 0.0
C358 C 0.42381 0.86115 0.71519 0.0
C359 C 0.38456 0.87765 0.73686 0.0
C360 C 0.43876 0.86972 0.73679 0.0
C361 C 0.40021 0.88596 0.75806 0.0
C362 C 0.36301 0.81372 0.62484 0.0
C363 C 0.38316 0.80649 0.5822 0.0
N364 N 0.37451 0.78101 0.58258 0.0
C365 C 0.35434 0.78748 0.62484 0.0
C366 C 0.37756 0.82333 0.60338 0.0
C367 C 0.36035 0.77125 0.60328 0.0
C368 C 0.30707 0.81116 0.68785 0.0
N369 N 0.32438 0.82769 0.70008 0.0
C370 C 0.30918 0.81386 0.74259 0.0
C371 C 0.32581 0.82924 0.72688 0.0
C372 C 0.29121 0.79648 0.73055 0.0
C373 C 0.29024 0.7952 0.70281 0.0
H374 H 0.3064 0.81042 0.66647 0.0
H375 H 0.33989 0.84232 0.73607 0.0
C376 C 0.44488 0.83627 0.64305 0.0
N377 N 0.42165 0.8267 0.6526 0.0
C378 C 0.46694 0.81964 0.64094 0.0
C379 C 0.44055 0.7837 0.65812 0.0
C380 C 0.41917 0.80101 0.66009 0.0
C381 C 0.465 0.79291 0.64863 0.0
H382 H 0.44637 0.85685 0.63741 0.0
H383 H 0.40045 0.79396 0.66766 0.0
C384 C 0.30885 0.88177 0.67794 0.0
N385 N 0.26077 0.8776 0.70356 0.0
C386 C 0.28665 0.87256 0.66433 0.0
C387 C 0.30654 0.88908 0.70452 0.0
C388 C 0.26253 0.87054 0.67764 0.0
C389 C 0.28208 0.88677 0.71714 0.0
C390 C 0.39298 0.90234 0.62114 0.0
C391 C 0.38116 0.92719 0.62372 0.0
C392 C 0.4104 0.89758 0.6002 0.0
C393 C 0.38689 0.94688 0.60518 0.0
C394 C 0.41556 0.91776 0.58204 0.0
N395 N 0.40381 0.94179 0.58489 0.0
C396 C 0.39977 0.92935 0.70346 0.0
C397 C 0.35521 0.93952 0.69378 0.0
C398 C 0.40175 0.95162 0.71986 0.0
N399 N 0.37636 0.92309 0.6918 0.0
C400 C 0.35651 0.96231 0.70932 0.0
C401 C 0.37967 0.96819 0.72358 0.0
H402 H 0.41657 0.91638 0.70114 0.0
H403 H 0.33701 0.93461 0.68373 0.0
C404 C 0.31393 0.84962 0.59805 0.0
N405 N 0.33145 0.86961 0.60222 0.0
C406 C 0.29728 0.84982 0.57604 0.0
C407 C 0.31672 0.89134 0.56273 0.0
C408 C 0.33313 0.89027 0.58503 0.0
C409 C 0.29841 0.87094 0.55804 0.0
H410 H 0.31241 0.8337 0.61225 0.0
H411 H 0.34686 0.90613 0.58863 0.0
O412 O 0.38152 0.85676 0.69427 0.0
O413 O 0.35745 0.82973 0.64595 0.0
O414 O 0.33284 0.88307 0.66549 0.0
O415 O 0.38799 0.88287 0.63924 0.0
H416 H 0.43342 0.85151 0.69871 0.0
H417 H 0.36356 0.88142 0.73709 0.0
H418 H 0.45992 0.86674 0.737 0.0
H419 H 0.39125 0.89582 0.77482 0.0
H420 H 0.39438 0.81367 0.56545 0.0
H421 H 0.34313 0.77973 0.64136 0.0
H422 H 0.38442 0.84356 0.60307 0.0
H423 H 0.35378 0.75089 0.60301 0.0
H424 H 0.31073 0.81515 0.76393 0.0
H425 H 0.2765 0.78215 0.69282 0.0
H426 H 0.48541 0.8278 0.63385 0.0
H427 H 0.43783 0.76324 0.66384 0.0
H428 H 0.28802 0.86686 0.64377 0.0
H429 H 0.32353 0.89611 0.71541 0.0
H430 H 0.24522 0.86331 0.66738 0.0
H431 H 0.28008 0.89216 0.73776 0.0
H432 H 0.36735 0.93111 0.63953 0.0
H433 H 0.41984 0.87849 0.59801 0.0
H434 H 0.37778 0.96616 0.60686 0.0
H435 H 0.42895 0.91434 0.5657 0.0
H436 H 0.4201 0.95506 0.73028 0.0
H437 H 0.33924 0.97488 0.71044 0.0
H438 H 0.2832 0.83389 0.57354 0.0
H439 H 0.31843 0.90791 0.54927 0.0
Li440 Li 0.8497 0.87101 0.89043 0.0
Li441 Li 0.86924 0.88985 0.85033 0.0
Li442 Li 0.84582 0.84744 0.849 0.0
Li443 Li 0.88978 0.84956 0.86859 0.0
C444 C 0.81048 0.89798 0.86451 0.0
N445 N 0.76798 0.92922 0.87878 0.0
C446 C 0.8122 0.92552 0.86265 0.0
C447 C 0.78704 0.88634 0.87342 0.0
C448 C 0.79052 0.94097 0.87 0.0
C449 C 0.76582 0.90247 0.88062 0.0
C450 C 0.89671 0.90878 0.89453 0.0
C451 C 0.93383 0.93622 0.90648 0.0
N452 N 0.91699 0.9565 0.91183 0.0
C453 C 0.8798 0.92988 0.90012 0.0
C454 C 0.92396 0.91194 0.8977 0.0
C455 C 0.89041 0.95385 0.90885 0.0
C456 C 0.83056 0.85505 0.94003 0.0
N457 N 0.83163 0.87643 0.92373 0.0
C458 C 0.8026 0.90045 0.95251 0.0
C459 C 0.81859 0.89916 0.92996 0.0
C460 C 0.80005 0.87816 0.96892 0.0
C461 C 0.81481 0.85546 0.96273 0.0
H462 H 0.84137 0.83732 0.93502 0.0
H463 H 0.81965 0.91606 0.91701 0.0
C464 C 0.85864 0.92046 0.80702 0.0
N465 N 0.87462 0.92048 0.82861 0.0
C466 C 0.85933 0.94134 0.78902 0.0
C467 C 0.89338 0.96192 0.81542 0.0
C468 C 0.89219 0.94041 0.83286 0.0
C469 C 0.87657 0.96274 0.79323 0.0
H470 H 0.84519 0.90412 0.80389 0.0
H471 H 0.90523 0.93981 0.84973 0.0
C472 C 0.84425 0.8094 0.88437 0.0
N473 N 0.81712 0.76196 0.88459 0.0
C474 C 0.85776 0.78563 0.88037 0.0
C475 C 0.817 0.80901 0.88886 0.0
C476 C 0.84368 0.76185 0.88047 0.0
C477 C 0.80362 0.78484 0.88878 0.0
C478 C 0.90119 0.86108 0.81604 0.0
C479 C 0.90204 0.85115 0.79026 0.0
C480 C 0.92258 0.87554 0.82587 0.0
C481 C 0.92436 0.85587 0.77468 0.0
C482 C 0.94452 0.87986 0.80968 0.0
N483 N 0.94496 0.87001 0.78462 0.0
C484 C 0.7993 0.83268 0.82156 0.0
C485 C 0.83491 0.80238 0.81863 0.0
C486 C 0.78353 0.8163 0.80592 0.0
N487 N 0.82435 0.82535 0.82775 0.0
C488 C 0.81982 0.78531 0.80309 0.0
C489 C 0.79372 0.79218 0.79655 0.0
H490 H 0.79163 0.85135 0.82854 0.0
H491 H 0.85507 0.79729 0.82359 0.0
C492 C 0.93941 0.83259 0.89149 0.0
N493 N 0.92106 0.82888 0.8722 0.0
C494 C 0.96169 0.81619 0.89278 0.0
C495 C 0.94542 0.79239 0.85464 0.0
C496 C 0.92368 0.80929 0.85399 0.0
C497 C 0.96496 0.79573 0.87412 0.0
H498 H 0.93674 0.84822 0.90587 0.0
H499 H 0.9086 0.8066 0.83906 0.0
O500 O 0.83147 0.8825 0.8573 0.0
O501 O 0.88672 0.88518 0.88587 0.0
O502 O 0.85757 0.83296 0.88377 0.0
O503 O 0.87943 0.85662 0.83148 0.0
H504 H 0.83012 0.93494 0.85582 0.0
H505 H 0.78527 0.86509 0.87492 0.0
H506 H 0.79163 0.96231 0.86877 0.0
H507 H 0.74763 0.89372 0.88768 0.0
H508 H 0.95488 0.93896 0.90899 0.0
H509 H 0.85878 0.9279 0.89731 0.0
H510 H 0.93737 0.89585 0.89332 0.0
H511 H 0.87753 0.97038 0.91314 0.0
H512 H 0.79152 0.91835 0.95642 0.0
H513 H 0.81394 0.83799 0.97511 0.0
H514 H 0.84647 0.94063 0.77193 0.0
H515 H 0.90695 0.97795 0.81959 0.0
H516 H 0.87887 0.78552 0.87713 0.0
H517 H 0.80629 0.8272 0.89221 0.0
H518 H 0.85387 0.74332 0.87724 0.0
H519 H 0.7825 0.78427 0.89204 0.0
H520 H 0.88561 0.83989 0.7824 0.0
H521 H 0.92225 0.88335 0.84577 0.0
H522 H 0.92531 0.84829 0.75467 0.0
H523 H 0.96121 0.89103 0.81702 0.0
H524 H 0.76374 0.82267 0.80091 0.0
H525 H 0.82842 0.76683 0.79651 0.0
H526 H 0.97632 0.81971 0.908 0.0
H527 H 0.94666 0.77663 0.84018 0.0
Li528 Li 0.13183 0.67232 0.87067 0.0
Li529 Li 0.17579 0.67477 0.85083 0.0
Li530 Li 0.15284 0.63214 0.85277 0.0
Li531 Li 0.1723 0.65159 0.89257 0.0
C532 C 0.12085 0.66007 0.81793 0.0
N533 N 0.07785 0.64998 0.78585 0.0
C534 C 0.12069 0.66893 0.79176 0.0
C535 C 0.09917 0.64607 0.82781 0.0
C536 C 0.09875 0.66364 0.77584 0.0
C537 C 0.07762 0.64116 0.81128 0.0
C538 C 0.17692 0.71324 0.88603 0.0
C539 C 0.21724 0.7384 0.88983 0.0
N540 N 0.2033 0.76111 0.88622 0.0
C541 C 0.16295 0.73684 0.88265 0.0
C542 C 0.20425 0.71402 0.88992 0.0
C543 C 0.17666 0.76084 0.88271 0.0
C544 C 0.08181 0.68922 0.89302 0.0
N545 N 0.10041 0.69284 0.87395 0.0
C546 C 0.07617 0.72909 0.85578 0.0
C547 C 0.09797 0.71227 0.85555 0.0
C548 C 0.05637 0.72584 0.87502 0.0
C549 C 0.05944 0.70556 0.89389 0.0
H550 H 0.08433 0.67372 0.90754 0.0
H551 H 0.11325 0.71487 0.84079 0.0
C552 C 0.22136 0.68866 0.82153 0.0
N553 N 0.19687 0.69667 0.82906 0.0
C554 C 0.23674 0.70466 0.80514 0.0
C555 C 0.20129 0.73675 0.80448 0.0
C556 C 0.1865 0.71999 0.82064 0.0
C557 C 0.22674 0.7291 0.79653 0.0
H558 H 0.22887 0.66978 0.8281 0.0
H559 H 0.16668 0.7255 0.82645 0.0
C560 C 0.12531 0.61326 0.89664 0.0
N561 N 0.10488 0.56535 0.91322 0.0
C562 C 0.14219 0.5922 0.90244 0.0
C563 C 0.09801 0.60998 0.89928 0.0
C564 C 0.1315 0.56813 0.91079 0.0
C565 C 0.08807 0.5856 0.90769 0.0
C566 C 0.21176 0.62488 0.86667 0.0
C567 C 0.21029 0.59728 0.86543 0.0
C568 C 0.23522 0.63695 0.87491 0.0
C569 C 0.23223 0.58222 0.87277 0.0
C570 C 0.2567 0.62119 0.88213 0.0
N571 N 0.25477 0.59438 0.88093 0.0
C572 C 0.16407 0.60148 0.80976 0.0
C573 C 0.13023 0.5814 0.83513 0.0
C574 C 0.1636 0.58069 0.79163 0.0
N575 N 0.14783 0.60136 0.83117 0.0
C576 C 0.12925 0.55997 0.81755 0.0
C577 C 0.14629 0.55929 0.79551 0.0
H578 H 0.17752 0.61786 0.80683 0.0
H579 H 0.11697 0.58194 0.85184 0.0
C580 C 0.19195 0.66831 0.94179 0.0
N581 N 0.19065 0.64671 0.92578 0.0
C582 C 0.20778 0.66812 0.96441 0.0
C583 C 0.21968 0.62292 0.95471 0.0
C584 C 0.20362 0.624 0.93221 0.0
C585 C 0.22241 0.6454 0.97085 0.0
H586 H 0.1812 0.68603 0.93663 0.0
H587 H 0.20239 0.60694 0.91949 0.0
O588 O 0.14226 0.66498 0.83367 0.0
O589 O 0.16395 0.68949 0.88551 0.0
O590 O 0.13539 0.63696 0.8884 0.0
O591 O 0.19051 0.63998 0.85948 0.0
H592 H 0.13737 0.67978 0.78384 0.0
H593 H 0.099 0.63905 0.848 0.0
H594 H 0.09834 0.67038 0.75553 0.0
H595 H 0.06071 0.63034 0.81866 0.0
H596 H 0.23841 0.73927 0.89262 0.0
H597 H 0.14178 0.73665 0.87991 0.0
H598 H 0.2153 0.69597 0.89282 0.0
H599 H 0.16611 0.77924 0.87995 0.0
H600 H 0.07508 0.74472 0.84119 0.0
H601 H 0.04461 0.70212 0.90895 0.0
H602 H 0.25632 0.69814 0.79947 0.0
H603 H 0.19277 0.75528 0.79793 0.0
H604 H 0.16327 0.5943 0.90011 0.0
H605 H 0.08463 0.62604 0.89479 0.0
H606 H 0.14436 0.55163 0.91522 0.0
H607 H 0.06698 0.58276 0.90978 0.0
H608 H 0.19236 0.58755 0.85908 0.0
H609 H 0.23681 0.65825 0.87584 0.0
H610 H 0.23131 0.56085 0.87203 0.0
H611 H 0.27491 0.63028 0.88869 0.0
H612 H 0.17662 0.58152 0.77465 0.0
H613 H 0.11562 0.54394 0.82147 0.0
H614 H 0.20881 0.68574 0.97657 0.0
H615 H 0.23065 0.605 0.95881 0.0
Li616 Li 0.84883 0.17675 0.67593 0.0
Li617 Li 0.86881 0.13095 0.67172 0.0
Li618 Li 0.89086 0.17262 0.65205 0.0
Li619 Li 0.85082 0.15429 0.6337 0.0
C620 C 0.88808 0.17286 0.71451 0.0
N621 N 0.8971 0.19218 0.76488 0.0
C622 C 0.88468 0.15647 0.73653 0.0
C623 C 0.89653 0.19894 0.71811 0.0
C624 C 0.88921 0.16664 0.76184 0.0
C625 C 0.90086 0.20838 0.74373 0.0
C626 C 0.80927 0.13288 0.65665 0.0
C627 C 0.78423 0.09683 0.63804 0.0
N628 N 0.76339 0.11343 0.63442 0.0
C629 C 0.78758 0.14955 0.65294 0.0
C630 C 0.80761 0.10628 0.64929 0.0
C631 C 0.76456 0.13934 0.64159 0.0
C632 C 0.81572 0.21982 0.68769 0.0
N633 N 0.82779 0.19827 0.69826 0.0
C634 C 0.80865 0.20713 0.74055 0.0
C635 C 0.82412 0.19138 0.72399 0.0
C636 C 0.79656 0.22996 0.73036 0.0
C637 C 0.80012 0.23615 0.70351 0.0
H638 H 0.818 0.22422 0.6669 0.0
H639 H 0.83304 0.17355 0.73163 0.0
C640 C 0.89334 0.08213 0.68867 0.0
N641 N 0.87239 0.0988 0.69099 0.0
C642 C 0.89483 0.05939 0.70447 0.0
C643 C 0.85328 0.07164 0.72462 0.0
C644 C 0.85253 0.09392 0.7084 0.0
C645 C 0.87459 0.0539 0.72283 0.0
H646 H 0.90892 0.08656 0.67469 0.0
H647 H 0.83627 0.10771 0.71002 0.0
C648 C 0.86407 0.21679 0.6334 0.0
N649 N 0.87638 0.26758 0.61727 0.0
C650 C 0.86348 0.2234 0.60653 0.0
C651 C 0.87073 0.2361 0.65204 0.0
C652 C 0.86981 0.24916 0.59878 0.0
C653 C 0.87694 0.26163 0.64351 0.0
C654 C 0.8901 0.12623 0.61175 0.0
C655 C 0.8935 0.1433 0.59028 0.0
C656 C 0.89063 0.09888 0.60778 0.0
C657 C 0.8971 0.13268 0.56501 0.0
C658 C 0.89434 0.08903 0.5822 0.0
N659 N 0.89744 0.10599 0.56153 0.0
C660 C 0.94211 0.18992 0.66643 0.0
C661 C 0.92768 0.20609 0.62499 0.0
C662 C 0.96449 0.20612 0.66543 0.0
N663 N 0.92384 0.19077 0.64675 0.0
C664 C 0.94936 0.22312 0.62348 0.0
C665 C 0.96799 0.2238 0.64416 0.0
H666 H 0.93896 0.17717 0.68331 0.0
H667 H 0.91345 0.20587 0.60914 0.0
C668 C 0.81494 0.17154 0.59562 0.0
N669 N 0.82956 0.15001 0.60229 0.0
C670 C 0.79772 0.17068 0.57411 0.0
C671 C 0.81018 0.12514 0.56691 0.0
C672 C 0.82721 0.12689 0.58866 0.0
C673 C 0.79521 0.1473 0.55929 0.0
H674 H 0.81617 0.1893 0.60746 0.0
H675 H 0.83811 0.10965 0.59492 0.0
O676 O 0.88358 0.16324 0.68959 0.0
O677 O 0.83223 0.14268 0.66691 0.0
O678 O 0.85809 0.19158 0.64132 0.0
O679 O 0.88645 0.13623 0.63659 0.0
H680 H 0.87845 0.13617 0.73415 0.0
H681 H 0.89993 0.21171 0.70132 0.0
H682 H 0.88646 0.15423 0.77905 0.0
H683 H 0.9073 0.22856 0.74678 0.0
H684 H 0.7827 0.07634 0.63208 0.0
H685 H 0.78865 0.17022 0.65846 0.0
H686 H 0.82433 0.09319 0.65194 0.0
H687 H 0.74767 0.15205 0.63839 0.0
H688 H 0.80635 0.2016 0.76113 0.0
H689 H 0.79058 0.25319 0.6947 0.0
H690 H 0.91151 0.04618 0.70218 0.0
H691 H 0.83749 0.06867 0.73878 0.0
H692 H 0.85865 0.20868 0.59175 0.0
H693 H 0.87089 0.23149 0.67289 0.0
H694 H 0.86961 0.25448 0.57805 0.0
H695 H 0.88216 0.27673 0.65775 0.0
H696 H 0.89302 0.16451 0.59308 0.0
H697 H 0.88805 0.08543 0.62425 0.0
H698 H 0.89958 0.14564 0.54817 0.0
H699 H 0.8947 0.06791 0.57878 0.0
H700 H 0.97862 0.20499 0.68145 0.0
H701 H 0.95079 0.23626 0.60665 0.0
H702 H 0.78605 0.18803 0.56952 0.0
H703 H 0.80885 0.10667 0.55613 0.0
Li704 Li 0.1542 0.39256 0.67182 0.0
Li705 Li 0.17369 0.34646 0.67555 0.0
Li706 Li 0.17187 0.36931 0.63372 0.0
Li707 Li 0.13157 0.35134 0.65178 0.0
C708 C 0.21382 0.38983 0.65673 0.0
N709 N 0.26014 0.40856 0.63475 0.0
C710 C 0.23485 0.37256 0.652 0.0
C711 C 0.21637 0.41665 0.65053 0.0
C712 C 0.25809 0.38241 0.64078 0.0
C713 C 0.23996 0.42573 0.63939 0.0
C714 C 0.13367 0.35096 0.71423 0.0
C715 C 0.11839 0.31633 0.74332 0.0
N716 N 0.12265 0.33238 0.7645 0.0
C717 C 0.13753 0.36723 0.73628 0.0
C718 C 0.1237 0.32541 0.71776 0.0
C719 C 0.13199 0.35743 0.76152 0.0
C720 C 0.12989 0.44125 0.68933 0.0
N721 N 0.15084 0.42456 0.6914 0.0
C722 C 0.16997 0.45132 0.72534 0.0
C723 C 0.17073 0.42926 0.70881 0.0
C724 C 0.14862 0.46905 0.72385 0.0
C725 C 0.1284 0.4638 0.70543 0.0
H726 H 0.11429 0.43698 0.67533 0.0
H727 H 0.18699 0.41545 0.71024 0.0
C728 C 0.20726 0.30355 0.68685 0.0
N729 N 0.19456 0.3246 0.69772 0.0
C730 C 0.22265 0.28697 0.7026 0.0
C731 C 0.21269 0.31481 0.74022 0.0
C732 C 0.19744 0.3308 0.72373 0.0
C733 C 0.22536 0.29244 0.7297 0.0
H734 H 0.20558 0.29971 0.66588 0.0
H735 H 0.1881 0.34828 0.73164 0.0
C736 C 0.13359 0.39806 0.61186 0.0
N737 N 0.12798 0.41879 0.56165 0.0
C738 C 0.12994 0.38122 0.59024 0.0
C739 C 0.13416 0.42543 0.60805 0.0
C740 C 0.12724 0.39209 0.56497 0.0
C741 C 0.13132 0.43553 0.58247 0.0
C742 C 0.15806 0.30624 0.63463 0.0
C743 C 0.1584 0.29781 0.60826 0.0
C744 C 0.15153 0.28825 0.65459 0.0
C745 C 0.15198 0.27159 0.60232 0.0
C746 C 0.14525 0.2622 0.64786 0.0
N747 N 0.14557 0.25448 0.62208 0.0
C748 C 0.20604 0.35159 0.59415 0.0
C749 C 0.19686 0.39731 0.58982 0.0
C750 C 0.22298 0.35241 0.57241 0.0
N751 N 0.19305 0.3737 0.60222 0.0
C752 C 0.2138 0.39907 0.56797 0.0
C753 C 0.22701 0.37634 0.55891 0.0
H754 H 0.20379 0.33338 0.60507 0.0
H755 H 0.18722 0.41489 0.59717 0.0
C756 C 0.07974 0.33524 0.66567 0.0
N757 N 0.09837 0.33371 0.64635 0.0
C758 C 0.05724 0.31921 0.66469 0.0
C759 C 0.07295 0.30106 0.6234 0.0
C760 C 0.09475 0.31794 0.62488 0.0
C761 C 0.05398 0.30102 0.6438 0.0
H762 H 0.08274 0.34835 0.68232 0.0
H763 H 0.10927 0.31767 0.60927 0.0
O764 O 0.19065 0.38044 0.66692 0.0
O765 O 0.1391 0.36025 0.68936 0.0
O766 O 0.13642 0.38781 0.63669 0.0
O767 O 0.16404 0.33196 0.64076 0.0
H768 H 0.23308 0.35173 0.65662 0.0
H769 H 0.20018 0.43021 0.65398 0.0
H770 H 0.27447 0.36926 0.6368 0.0
H771 H 0.24218 0.4464 0.63431 0.0
H772 H 0.11077 0.29656 0.74631 0.0
H773 H 0.14492 0.38715 0.73398 0.0
H774 H 0.11983 0.31278 0.70097 0.0
H775 H 0.1351 0.36975 0.77875 0.0
H776 H 0.18575 0.45411 0.73952 0.0
H777 H 0.11171 0.47701 0.70334 0.0
H778 H 0.23265 0.27031 0.69357 0.0
H779 H 0.21435 0.31978 0.761 0.0
H780 H 0.12954 0.35999 0.59292 0.0
H781 H 0.13693 0.43869 0.62464 0.0
H782 H 0.12459 0.37931 0.54801 0.0
H783 H 0.13183 0.45666 0.57916 0.0
H784 H 0.16306 0.31149 0.59247 0.0
H785 H 0.15158 0.29426 0.67508 0.0
H786 H 0.15198 0.26487 0.582 0.0
H787 H 0.14016 0.24811 0.66314 0.0
H788 H 0.2333 0.33456 0.5666 0.0
H789 H 0.21645 0.41796 0.55823 0.0
H790 H 0.04286 0.32083 0.68045 0.0
H791 H 0.07169 0.28753 0.60686 0.0
Li792 Li 0.63296 0.17286 0.3697 0.0
Li793 Li 0.67708 0.17485 0.35053 0.0
Li794 Li 0.65365 0.13252 0.35177 0.0
Li795 Li 0.67283 0.1515 0.39197 0.0
C796 C 0.62216 0.16134 0.31702 0.0
N797 N 0.57883 0.15272 0.28496 0.0
C798 C 0.6217 0.17146 0.29131 0.0
C799 C 0.6006 0.14687 0.32646 0.0
C800 C 0.5996 0.16689 0.27539 0.0
C801 C 0.57888 0.14271 0.30994 0.0
C802 C 0.67876 0.21291 0.3854 0.0
C803 C 0.71979 0.23686 0.38958 0.0
N804 N 0.70674 0.25987 0.38474 0.0
C805 C 0.66572 0.23683 0.38075 0.0
C806 C 0.70597 0.21294 0.39012 0.0
C807 C 0.68023 0.26034 0.3804 0.0
C808 C 0.58258 0.18961 0.39128 0.0
N809 N 0.6017 0.19363 0.3728 0.0
C810 C 0.57837 0.23079 0.35531 0.0
C811 C 0.59991 0.21364 0.35498 0.0
C812 C 0.55803 0.22716 0.37393 0.0
C813 C 0.56037 0.20615 0.39211 0.0
H814 H 0.58457 0.17363 0.40535 0.0
H815 H 0.61554 0.21649 0.34064 0.0
C816 C 0.72414 0.19059 0.32441 0.0
N817 N 0.69853 0.19693 0.32932 0.0
C818 C 0.73977 0.20717 0.30885 0.0
C819 C 0.7022 0.23623 0.30341 0.0
C820 C 0.6873 0.21904 0.31901 0.0
C821 C 0.72883 0.23039 0.29818 0.0
H822 H 0.73238 0.1726 0.3324 0.0
H823 H 0.66676 0.22336 0.32308 0.0
C824 C 0.62563 0.11368 0.39549 0.0
N825 N 0.60497 0.06589 0.41213 0.0
C826 C 0.64242 0.09259 0.40145 0.0
C827 C 0.59831 0.11048 0.39797 0.0
C828 C 0.63161 0.06859 0.40983 0.0
C829 C 0.58825 0.08616 0.40642 0.0
C830 C 0.71208 0.12409 0.36659 0.0
C831 C 0.71003 0.09656 0.36476 0.0
C832 C 0.73554 0.13543 0.37581 0.0
C833 C 0.73139 0.08084 0.37243 0.0
C834 C 0.75644 0.11904 0.38333 0.0
N835 N 0.75395 0.09231 0.38151 0.0
C836 C 0.66467 0.10184 0.30859 0.0
C837 C 0.63057 0.08212 0.33392 0.0
C838 C 0.66403 0.08102 0.2905 0.0
N839 N 0.64838 0.10191 0.32997 0.0
C840 C 0.62941 0.06069 0.31637 0.0
C841 C 0.64651 0.0598 0.29439 0.0
H842 H 0.67831 0.11806 0.30569 0.0
H843 H 0.6173 0.0828 0.35061 0.0
C844 C 0.69172 0.16783 0.44152 0.0
N845 N 0.6906 0.14628 0.42544 0.0
C846 C 0.70741 0.16762 0.46424 0.0
C847 C 0.71942 0.12245 0.45454 0.0
C848 C 0.70349 0.12354 0.43195 0.0
C849 C 0.72206 0.14493 0.47068 0.0
H850 H 0.68101 0.18556 0.4363 0.0
H851 H 0.7024 0.10651 0.41918 0.0
O852 O 0.64368 0.16566 0.33278 0.0
O853 O 0.66505 0.18957 0.38513 0.0
O854 O 0.63583 0.13732 0.38717 0.0
O855 O 0.69141 0.13983 0.35904 0.0
H856 H 0.63826 0.18273 0.28375 0.0
H857 H 0.60063 0.13893 0.3463 0.0
H858 H 0.59895 0.1746 0.25544 0.0
H859 H 0.56206 0.13152 0.31698 0.0
H860 H 0.74088 0.23712 0.39299 0.0
H861 H 0.64465 0.23725 0.37734 0.0
H862 H 0.71632 0.19465 0.39395 0.0
H863 H 0.67041 0.27897 0.37665 0.0
H864 H 0.57793 0.24696 0.34128 0.0
H865 H 0.54513 0.20232 0.40665 0.0
H866 H 0.76006 0.20165 0.30489 0.0
H867 H 0.69303 0.25401 0.29579 0.0
H868 H 0.6635 0.09461 0.3992 0.0
H869 H 0.58499 0.12654 0.39329 0.0
H870 H 0.64439 0.05206 0.41439 0.0
H871 H 0.56714 0.08339 0.40839 0.0
H872 H 0.69209 0.08735 0.35771 0.0
H873 H 0.73756 0.15665 0.37737 0.0
H874 H 0.73001 0.05952 0.37123 0.0
H875 H 0.77463 0.12756 0.39065 0.0
H876 H 0.67713 0.08165 0.27357 0.0
H877 H 0.61562 0.04479 0.32028 0.0
H878 H 0.70837 0.18523 0.47641 0.0
H879 H 0.73041 0.10454 0.45867 0.0
Li880 Li 0.63355 0.67189 0.65231 0.0
Li881 Li 0.67496 0.6728 0.67621 0.0
Li882 Li 0.67345 0.65136 0.63366 0.0
Li883 Li 0.65211 0.63065 0.67284 0.0
C884 C 0.66711 0.70219 0.61805 0.0
N885 N 0.66846 0.7268 0.56925 0.0
C886 C 0.68528 0.72244 0.6132 0.0
C887 C 0.64969 0.69438 0.59804 0.0
C888 C 0.68563 0.73465 0.5884 0.0
C889 C 0.65065 0.70711 0.57353 0.0
C890 C 0.62914 0.68356 0.70558 0.0
C891 C 0.60196 0.69845 0.74185 0.0
N892 N 0.60736 0.72397 0.73527 0.0
C893 C 0.63448 0.70994 0.69922 0.0
C894 C 0.61279 0.67774 0.72709 0.0
C895 C 0.62326 0.73008 0.71445 0.0
C896 C 0.57791 0.68082 0.65115 0.0
N897 N 0.60185 0.69213 0.6465 0.0
C898 C 0.58143 0.73421 0.63912 0.0
C899 C 0.60393 0.71831 0.64056 0.0
C900 C 0.55647 0.72326 0.64431 0.0
C901 C 0.55484 0.69611 0.65021 0.0
H902 H 0.57681 0.66008 0.65632 0.0
H903 H 0.62315 0.72718 0.63789 0.0
C904 C 0.71633 0.70806 0.6874 0.0
N905 N 0.69697 0.69326 0.69867 0.0
C906 C 0.73267 0.7238 0.7031 0.0
C907 C 0.70927 0.70812 0.74178 0.0
C908 C 0.69333 0.69278 0.72531 0.0
C909 C 0.72913 0.7241 0.7307 0.0
H910 H 0.719 0.70766 0.66618 0.0
H911 H 0.67809 0.68042 0.73379 0.0
C912 C 0.63202 0.6164 0.61864 0.0
N913 N 0.62311 0.57692 0.58193 0.0
C914 C 0.64765 0.59363 0.61868 0.0
C915 C 0.6119 0.61916 0.59993 0.0
C916 C 0.64282 0.57387 0.59996 0.0
C917 C 0.6077 0.59896 0.58152 0.0
C918 C 0.70963 0.63424 0.68447 0.0
C919 C 0.7361 0.63626 0.67684 0.0
C920 C 0.70337 0.62932 0.71097 0.0
C921 C 0.75589 0.63343 0.6959 0.0
C922 C 0.72372 0.62661 0.72942 0.0
N923 N 0.74934 0.62872 0.72158 0.0
C924 C 0.7189 0.65828 0.60481 0.0
C925 C 0.68696 0.63529 0.57944 0.0
C926 C 0.73667 0.65792 0.58372 0.0
N927 N 0.69468 0.64691 0.60248 0.0
C928 C 0.70421 0.63442 0.55775 0.0
C929 C 0.72945 0.64594 0.55971 0.0
H930 H 0.72421 0.66811 0.62305 0.0
H931 H 0.66734 0.62718 0.57757 0.0
C932 C 0.62559 0.59692 0.70956 0.0
N933 N 0.64556 0.59836 0.69162 0.0
C934 C 0.62351 0.57508 0.72649 0.0
C935 C 0.66193 0.55617 0.70537 0.0
C936 C 0.66341 0.57843 0.68909 0.0
C937 C 0.64218 0.55449 0.72491 0.0
H938 H 0.6119 0.61322 0.71147 0.0
H939 H 0.6795 0.58028 0.67514 0.0
O940 O 0.66736 0.68909 0.64173 0.0
O941 O 0.63968 0.66345 0.69081 0.0
O942 O 0.63654 0.63614 0.63654 0.0
O943 O 0.68992 0.63761 0.66625 0.0
H944 H 0.69906 0.72858 0.62834 0.0
H945 H 0.63575 0.67849 0.60132 0.0
H946 H 0.69963 0.75031 0.58435 0.0
H947 H 0.63732 0.70123 0.55787 0.0
H948 H 0.58925 0.69423 0.75854 0.0
H949 H 0.64715 0.71487 0.68271 0.0
H950 H 0.60848 0.65744 0.73233 0.0
H951 H 0.62719 0.75058 0.7097 0.0
H952 H 0.58367 0.75512 0.63503 0.0
H953 H 0.53598 0.68685 0.65428 0.0
H954 H 0.74759 0.73592 0.69367 0.0
H955 H 0.70619 0.70731 0.76297 0.0
H956 H 0.66366 0.5915 0.63264 0.0
H957 H 0.59972 0.63676 0.59961 0.0
H958 H 0.65483 0.55618 0.59967 0.0
H959 H 0.59221 0.60082 0.5669 0.0
H960 H 0.74137 0.63991 0.65644 0.0
H961 H 0.68299 0.62811 0.71733 0.0
H962 H 0.77645 0.63499 0.69028 0.0
H963 H 0.71914 0.62297 0.75001 0.0
H964 H 0.75591 0.66696 0.58625 0.0
H965 H 0.6976 0.62545 0.53946 0.0
H966 H 0.60812 0.57492 0.74138 0.0
H967 H 0.67651 0.54069 0.70298 0.0
Li968 Li 0.65339 0.39048 0.85142 0.0
Li969 Li 0.67304 0.36762 0.89171 0.0
Li970 Li 0.67551 0.34866 0.84919 0.0
Li971 Li 0.63363 0.34749 0.87073 0.0
C972 C 0.71401 0.3832 0.84702 0.0
N973 N 0.76103 0.38189 0.81921 0.0
C974 C 0.73607 0.37047 0.85768 0.0
C975 C 0.71591 0.39542 0.82227 0.0
C976 C 0.75964 0.36995 0.84328 0.0
C977 C 0.73985 0.39453 0.80852 0.0
C978 C 0.62925 0.40261 0.90482 0.0
C979 C 0.60222 0.41751 0.9412 0.0
N980 N 0.61417 0.4416 0.94005 0.0
C981 C 0.64116 0.42753 0.90391 0.0
C982 C 0.60952 0.39756 0.92351 0.0
C983 C 0.6333 0.44697 0.92192 0.0
C984 C 0.62647 0.42481 0.81574 0.0
N985 N 0.64689 0.42304 0.83312 0.0
C986 C 0.66292 0.4655 0.81974 0.0
C987 C 0.66472 0.44299 0.83566 0.0
C988 C 0.64281 0.46743 0.80062 0.0
C989 C 0.62408 0.44689 0.79917 0.0
H990 H 0.61267 0.40857 0.81395 0.0
H991 H 0.68098 0.441 0.8494 0.0
C992 C 0.71145 0.35224 0.92748 0.0
N993 N 0.69298 0.37146 0.924 0.0
C994 C 0.728 0.35247 0.94953 0.0
C995 C 0.70652 0.39247 0.9643 0.0
C996 C 0.69021 0.39139 0.94191 0.0
C997 C 0.72573 0.37279 0.96833 0.0
H998 H 0.7135 0.33671 0.91291 0.0
H999 H 0.67551 0.4065 0.93894 0.0
C1000 C 0.63924 0.34391 0.8105 0.0
N1001 N 0.63685 0.31527 0.76397 0.0
C1002 C 0.63784 0.31631 0.81122 0.0
C1003 C 0.63931 0.35696 0.78611 0.0
C1004 C 0.6367 0.30218 0.78748 0.0
C1005 C 0.63811 0.34212 0.76281 0.0
C1006 C 0.6611 0.31615 0.90503 0.0
C1007 C 0.66989 0.29011 0.90814 0.0
C1008 C 0.64639 0.32802 0.92521 0.0
C1009 C 0.66382 0.27643 0.93138 0.0
C1010 C 0.64074 0.3137 0.94816 0.0
N1011 N 0.6495 0.28841 0.95074 0.0
C1012 C 0.70987 0.30668 0.83796 0.0
C1013 C 0.70271 0.33502 0.80133 0.0
C1014 C 0.72639 0.29057 0.82285 0.0
N1015 N 0.69823 0.32824 0.82697 0.0
C1016 C 0.71907 0.31948 0.78547 0.0
C1017 C 0.73104 0.29682 0.79618 0.0
H1018 H 0.70641 0.30205 0.85853 0.0
H1019 H 0.69359 0.35249 0.79313 0.0
C1020 C 0.57797 0.33933 0.87786 0.0
N1021 N 0.6019 0.32733 0.87556 0.0
C1022 C 0.5549 0.32411 0.87976 0.0
C1023 C 0.58161 0.28459 0.87733 0.0
C1024 C 0.60404 0.30051 0.87533 0.0
C1025 C 0.55655 0.29631 0.87937 0.0
H1026 H 0.57677 0.36069 0.87783 0.0
H1027 H 0.62319 0.29136 0.87304 0.0
O1028 O 0.69061 0.38349 0.8606 0.0
O1029 O 0.63633 0.38343 0.88709 0.0
O1030 O 0.64062 0.35806 0.83353 0.0
O1031 O 0.66687 0.32969 0.88224 0.0
H1032 H 0.73497 0.36086 0.87673 0.0
H1033 H 0.69897 0.40503 0.8135 0.0
H1034 H 0.77682 0.36002 0.85124 0.0
H1035 H 0.74154 0.40374 0.78928 0.0
H1036 H 0.58703 0.41387 0.95581 0.0
H1037 H 0.65663 0.43165 0.88979 0.0
H1038 H 0.5999 0.37845 0.9243 0.0
H1039 H 0.64249 0.46629 0.92155 0.0
H1040 H 0.67752 0.48098 0.82208 0.0
H1041 H 0.60839 0.44724 0.78463 0.0
H1042 H 0.74275 0.33709 0.95157 0.0
H1043 H 0.70393 0.40838 0.97842 0.0
H1044 H 0.63814 0.30589 0.82988 0.0
H1045 H 0.64062 0.3783 0.78516 0.0
H1046 H 0.6358 0.2808 0.78775 0.0
H1047 H 0.63827 0.35195 0.7438 0.0
H1048 H 0.68117 0.28049 0.89271 0.0
H1049 H 0.63947 0.34809 0.92332 0.0
H1050 H 0.67048 0.25627 0.934 0.0
H1051 H 0.6294 0.32271 0.96392 0.0
H1052 H 0.73561 0.27357 0.83203 0.0
H1053 H 0.72198 0.32494 0.76495 0.0
H1054 H 0.53599 0.33399 0.88149 0.0
H1055 H 0.58384 0.2633 0.87648 0.0
Li1056 Li 0.34875 0.15437 0.89102 0.0
Li1057 Li 0.36903 0.13218 0.85071 0.0
Li1058 Li 0.38756 0.17566 0.87007 0.0
Li1059 Li 0.3457 0.17338 0.84853 0.0
C1060 C 0.39368 0.12101 0.90432 0.0
N1061 N 0.4101 0.08317 0.94015 0.0
C1062 C 0.38169 0.09612 0.90473 0.0
C1063 C 0.41411 0.12664 0.92205 0.0
C1064 C 0.39025 0.07726 0.92301 0.0
C1065 C 0.42209 0.10726 0.94005 0.0
C1066 C 0.30892 0.13698 0.84509 0.0
C1067 C 0.28581 0.12426 0.80532 0.0
N1068 N 0.26334 0.13539 0.81502 0.0
C1069 C 0.28555 0.14814 0.85472 0.0
C1070 C 0.30905 0.12485 0.82022 0.0
C1071 C 0.26274 0.14721 0.83919 0.0
C1072 C 0.3084 0.16761 0.92491 0.0
N1073 N 0.32887 0.15029 0.92327 0.0
C1074 C 0.31717 0.13175 0.96531 0.0
C1075 C 0.33363 0.13259 0.943 0.0
C1076 C 0.29576 0.1494 0.96739 0.0
C1077 C 0.29155 0.16748 0.94673 0.0
H1078 H 0.30516 0.18167 0.90912 0.0
H1079 H 0.35015 0.11922 0.94164 0.0
C1080 C 0.39513 0.09932 0.8131 0.0
N1081 N 0.37635 0.09978 0.83234 0.0
C1082 C 0.39743 0.07742 0.79627 0.0
C1083 C 0.3624 0.05609 0.8207 0.0
C1084 C 0.36035 0.07861 0.83659 0.0
C1085 C 0.38053 0.0555 0.79954 0.0
H1086 H 0.40756 0.11645 0.81005 0.0
H1087 H 0.34518 0.0796 0.85162 0.0
C1088 C 0.35901 0.20603 0.90458 0.0
N1089 N 0.36949 0.23386 0.95052 0.0
C1090 C 0.34898 0.23157 0.90802 0.0
C1091 C 0.37438 0.19469 0.92456 0.0
C1092 C 0.3545 0.24532 0.93136 0.0
C1093 C 0.37944 0.20905 0.94762 0.0
C1094 C 0.38207 0.18017 0.81035 0.0
C1095 C 0.38269 0.20774 0.81225 0.0
C1096 C 0.3825 0.16817 0.78542 0.0
C1097 C 0.38366 0.22289 0.78916 0.0
C1098 C 0.38351 0.18401 0.76279 0.0
N1099 N 0.38405 0.21082 0.76511 0.0
C1100 C 0.44314 0.18529 0.8762 0.0
C1101 C 0.41594 0.22339 0.87577 0.0
C1102 C 0.46583 0.20109 0.87806 0.0
N1103 N 0.41882 0.19665 0.87495 0.0
C1104 C 0.43797 0.23986 0.87773 0.0
C1105 C 0.46342 0.22884 0.87858 0.0
H1106 H 0.44494 0.16398 0.87523 0.0
H1107 H 0.39651 0.23208 0.87444 0.0
C1108 C 0.31012 0.21435 0.83766 0.0
N1109 N 0.32244 0.19328 0.82645 0.0
C1110 C 0.29358 0.23042 0.82256 0.0
C1111 C 0.30216 0.20237 0.78477 0.0
C1112 C 0.3185 0.18684 0.80063 0.0
C1113 C 0.28964 0.22464 0.79567 0.0
H1114 H 0.31315 0.21869 0.85835 0.0
H1115 H 0.32818 0.16976 0.79224 0.0
O1116 O 0.38586 0.13966 0.88637 0.0
O1117 O 0.3316 0.1381 0.8598 0.0
O1118 O 0.35373 0.1924 0.88171 0.0
O1119 O 0.38083 0.16504 0.83277 0.0
H1120 H 0.36562 0.09162 0.89145 0.0
H1121 H 0.42371 0.14578 0.92189 0.0
H1122 H 0.38103 0.05796 0.92364 0.0
H1123 H 0.43785 0.11136 0.95392 0.0
H1124 H 0.28569 0.11511 0.78597 0.0
H1125 H 0.28503 0.15759 0.87388 0.0
H1126 H 0.327 0.11645 0.81223 0.0
H1127 H 0.24457 0.15591 0.84635 0.0
H1128 H 0.32141 0.11773 0.98093 0.0
H1129 H 0.27517 0.18125 0.94722 0.0
H1130 H 0.41154 0.07829 0.78021 0.0
H1131 H 0.34937 0.03959 0.82469 0.0
H1132 H 0.33717 0.24078 0.89276 0.0
H1133 H 0.38227 0.17501 0.92242 0.0
H1134 H 0.34689 0.2651 0.93423 0.0
H1135 H 0.39128 0.20046 0.96322 0.0
H1136 H 0.38187 0.21735 0.83133 0.0
H1137 H 0.38165 0.14689 0.7835 0.0
H1138 H 0.38396 0.24426 0.79036 0.0
H1139 H 0.38373 0.175 0.74337 0.0
H1140 H 0.48503 0.19167 0.87834 0.0
H1141 H 0.43502 0.26106 0.87849 0.0
H1142 H 0.2839 0.2471 0.83189 0.0
H1143 H 0.29979 0.19727 0.76409 0.0
Li1144 Li 0.36875 0.39075 0.35305 0.0
Li1145 Li 0.35049 0.37071 0.3923 0.0
Li1146 Li 0.39166 0.3513 0.36978 0.0
Li1147 Li 0.34636 0.34878 0.35004 0.0
C1148 C 0.40087 0.40889 0.39225 0.0
N1149 N 0.42912 0.45484 0.40083 0.0
C1150 C 0.38775 0.43212 0.39945 0.0
C1151 C 0.42835 0.40896 0.38951 0.0
C1152 C 0.40239 0.45518 0.40364 0.0
C1153 C 0.44228 0.43242 0.39394 0.0
C1154 C 0.31086 0.39757 0.37018 0.0
C1155 C 0.26744 0.4003 0.38975 0.0
N1156 N 0.26969 0.4271 0.39068 0.0
C1157 C 0.31272 0.42515 0.37133 0.0
C1158 C 0.28801 0.38504 0.3794 0.0
C1159 C 0.29169 0.43972 0.38174 0.0
C1160 C 0.35273 0.42562 0.3142 0.0
N1161 N 0.37287 0.42223 0.33166 0.0
C1162 C 0.39503 0.46029 0.31414 0.0
C1163 C 0.39408 0.43879 0.33159 0.0
C1164 C 0.37423 0.4645 0.29612 0.0
C1165 C 0.35304 0.44652 0.29621 0.0
H1166 H 0.3365 0.4117 0.31398 0.0
H1167 H 0.41047 0.43526 0.3447 0.0
C1168 C 0.32766 0.35236 0.43959 0.0
N1169 N 0.33274 0.3749 0.42584 0.0
C1170 C 0.31157 0.35293 0.46202 0.0
C1171 C 0.3073 0.4002 0.45683 0.0
C1172 C 0.32365 0.39872 0.43452 0.0
C1173 C 0.3005 0.37697 0.47053 0.0
H1174 H 0.33559 0.33374 0.43282 0.0
H1175 H 0.32819 0.41649 0.42362 0.0
C1176 C 0.39295 0.36845 0.31214 0.0
N1177 N 0.41814 0.39093 0.26922 0.0
C1178 C 0.37965 0.37108 0.28807 0.0
C1179 C 0.41909 0.37703 0.31439 0.0
C1180 C 0.39273 0.38256 0.2666 0.0
C1181 C 0.43148 0.38839 0.29245 0.0
C1182 C 0.3478 0.30865 0.38266 0.0
C1183 C 0.36317 0.28626 0.37756 0.0
C1184 C 0.32049 0.30598 0.38584 0.0
C1185 C 0.35089 0.2616 0.37532 0.0
C1186 C 0.30894 0.281 0.38342 0.0
N1187 N 0.32426 0.25951 0.37823 0.0
C1188 C 0.44046 0.333 0.39328 0.0
C1189 C 0.42748 0.31405 0.35243 0.0
C1190 C 0.46281 0.31667 0.39417 0.0
N1191 N 0.42342 0.33138 0.37256 0.0
C1192 C 0.44925 0.29717 0.35268 0.0
C1193 C 0.46743 0.2983 0.37369 0.0
H1194 H 0.43664 0.34685 0.40915 0.0
H1195 H 0.41337 0.31294 0.33639 0.0
C1196 C 0.29951 0.33298 0.32394 0.0
N1197 N 0.32535 0.32706 0.32806 0.0
C1198 C 0.28395 0.31667 0.30805 0.0
C1199 C 0.32205 0.28875 0.30064 0.0
C1200 C 0.33688 0.30565 0.31661 0.0
C1201 C 0.29519 0.29417 0.29623 0.0
H1202 H 0.29099 0.35034 0.33301 0.0
H1203 H 0.35761 0.30169 0.32003 0.0
O1204 O 0.38697 0.38604 0.3884 0.0
O1205 O 0.33123 0.38292 0.36003 0.0
O1206 O 0.38022 0.35809 0.33361 0.0
O1207 O 0.35936 0.33309 0.38422 0.0
H1208 H 0.36651 0.43239 0.40157 0.0
H1209 H 0.43879 0.39116 0.38388 0.0
H1210 H 0.39249 0.47334 0.4091 0.0
H1211 H 0.46355 0.4328 0.39183 0.0
H1212 H 0.24972 0.39084 0.39708 0.0
H1213 H 0.33031 0.43523 0.3646 0.0
H1214 H 0.28624 0.36374 0.37885 0.0
H1215 H 0.29291 0.46105 0.38284 0.0
H1216 H 0.41181 0.47354 0.31495 0.0
H1217 H 0.33691 0.44827 0.28226 0.0
H1218 H 0.30757 0.33461 0.47237 0.0
H1219 H 0.29927 0.41919 0.4626 0.0
H1220 H 0.35935 0.36458 0.28611 0.0
H1221 H 0.42956 0.37524 0.33297 0.0
H1222 H 0.38265 0.38491 0.24787 0.0
H1223 H 0.45166 0.3953 0.29392 0.0
H1224 H 0.38434 0.28787 0.37527 0.0
H1225 H 0.3083 0.32309 0.38982 0.0
H1226 H 0.36254 0.24413 0.37125 0.0
H1227 H 0.28781 0.2787 0.38561 0.0
H1228 H 0.47636 0.31855 0.41063 0.0
H1229 H 0.45143 0.28302 0.33674 0.0
H1230 H 0.26328 0.32146 0.30531 0.0
H1231 H 0.33157 0.27183 0.29158 0.0
Li1232 Li 0.34899 0.67718 0.17643 0.0
Li1233 Li 0.36903 0.63127 0.17221 0.0
Li1234 Li 0.39107 0.67277 0.15208 0.0
Li1235 Li 0.3506 0.65446 0.13442 0.0
C1236 C 0.39235 0.67378 0.21332 0.0
N1237 N 0.40964 0.69391 0.26116 0.0
C1238 C 0.3912 0.65828 0.2362 0.0
C1239 C 0.40274 0.69937 0.21474 0.0
C1240 C 0.3999 0.66885 0.26021 0.0
C1241 C 0.41127 0.70922 0.23911 0.0
C1242 C 0.3099 0.632 0.15752 0.0
C1243 C 0.28662 0.59448 0.13955 0.0
N1244 N 0.26516 0.6101 0.13525 0.0
C1245 C 0.28759 0.64765 0.15312 0.0
C1246 C 0.30944 0.60519 0.15083 0.0
C1247 C 0.26517 0.63621 0.14175 0.0
C1248 C 0.31201 0.71695 0.18728 0.0
N1249 N 0.32816 0.69886 0.19882 0.0
C1250 C 0.31356 0.71185 0.24183 0.0
C1251 C 0.32888 0.69573 0.22551 0.0
C1252 C 0.29708 0.73113 0.23052 0.0
C1253 C 0.29632 0.73348 0.20283 0.0
H1254 H 0.31128 0.7185 0.16595 0.0
H1255 H 0.3412 0.68063 0.23416 0.0
C1256 C 0.39055 0.58009 0.18705 0.0
N1257 N 0.3725 0.5994 0.19197 0.0
C1258 C 0.39147 0.5575 0.20315 0.0
C1259 C 0.35551 0.57543 0.22899 0.0
C1260 C 0.35508 0.59736 0.2123 0.0
C1261 C 0.37376 0.55493 0.22454 0.0
H1262 H 0.40417 0.5822 0.17069 0.0
H1263 H 0.34104 0.61312 0.2158 0.0
C1264 C 0.36195 0.71814 0.13646 0.0
N1265 N 0.36948 0.77127 0.1259 0.0
C1266 C 0.36007 0.72759 0.11052 0.0
C1267 C 0.36741 0.7358 0.15703 0.0
C1268 C 0.36402 0.75449 0.10558 0.0
C1269 C 0.37121 0.76256 0.1513 0.0
C1270 C 0.39029 0.62775 0.1115 0.0
C1271 C 0.39374 0.64608 0.0911 0.0
C1272 C 0.39105 0.60068 0.10594 0.0
C1273 C 0.39765 0.63697 0.06529 0.0
C1274 C 0.39506 0.59237 0.07987 0.0
N1275 N 0.39822 0.61054 0.06026 0.0
C1276 C 0.44421 0.68661 0.16365 0.0
C1277 C 0.42639 0.70873 0.1265 0.0
C1278 C 0.46696 0.70231 0.16261 0.0
N1279 N 0.42414 0.69061 0.14624 0.0
C1280 C 0.44849 0.72521 0.12503 0.0
C1281 C 0.46904 0.72259 0.1436 0.0
H1282 H 0.44218 0.67178 0.17895 0.0
H1283 H 0.41069 0.71104 0.11231 0.0
C1284 C 0.31477 0.67174 0.09628 0.0
N1285 N 0.32924 0.65015 0.10308 0.0
C1286 C 0.29765 0.67091 0.07468 0.0
C1287 C 0.30997 0.62532 0.0676 0.0
C1288 C 0.3269 0.62703 0.08946 0.0
C1289 C 0.29513 0.64753 0.05986 0.0
H1290 H 0.31603 0.68952 0.10808 0.0
H1291 H 0.33775 0.60977 0.09577 0.0
O1292 O 0.38381 0.6637 0.18965 0.0
O1293 O 0.33231 0.64301 0.16779 0.0
O1294 O 0.3582 0.69179 0.14156 0.0
O1295 O 0.38623 0.63628 0.13683 0.0
H1296 H 0.38355 0.63834 0.2355 0.0
H1297 H 0.40454 0.71142 0.1972 0.0
H1298 H 0.39894 0.65712 0.27809 0.0
H1299 H 0.41929 0.72902 0.24046 0.0
H1300 H 0.28601 0.5738 0.1341 0.0
H1301 H 0.28773 0.66848 0.15811 0.0
H1302 H 0.32665 0.59287 0.15401 0.0
H1303 H 0.24781 0.64811 0.13803 0.0
H1304 H 0.3148 0.70939 0.26308 0.0
H1305 H 0.28346 0.74766 0.19325 0.0
H1306 H 0.40569 0.54215 0.19868 0.0
H1307 H 0.34185 0.57482 0.24547 0.0
H1308 H 0.35604 0.71421 0.09429 0.0
H1309 H 0.36838 0.72902 0.17724 0.0
H1310 H 0.36282 0.76202 0.08558 0.0
H1311 H 0.37545 0.77641 0.16705 0.0
H1312 H 0.39309 0.66709 0.09514 0.0
H1313 H 0.38837 0.58627 0.12155 0.0
H1314 H 0.40019 0.65092 0.04926 0.0
H1315 H 0.39558 0.57149 0.07521 0.0
H1316 H 0.4825 0.69878 0.17687 0.0
H1317 H 0.44883 0.74048 0.11003 0.0
H1318 H 0.28609 0.68831 0.06999 0.0
H1319 H 0.30865 0.60685 0.05683 0.0
Li1320 Li 0.65436 0.89271 0.17129 0.0
Li1321 Li 0.67538 0.84732 0.17506 0.0
Li1322 Li 0.67214 0.86972 0.13282 0.0
Li1323 Li 0.63282 0.85063 0.15194 0.0
C1324 C 0.7133 0.89273 0.15499 0.0
N1325 N 0.75767 0.91456 0.13189 0.0
C1326 C 0.73574 0.8772 0.15077 0.0
C1327 C 0.71344 0.91938 0.1477 0.0
C1328 C 0.75797 0.8886 0.13898 0.0
C1329 C 0.73608 0.93005 0.13601 0.0
C1330 C 0.63652 0.84974 0.21402 0.0
C1331 C 0.62695 0.81263 0.24245 0.0
N1332 N 0.62863 0.82879 0.26391 0.0
C1333 C 0.63787 0.86604 0.23633 0.0
C1334 C 0.63076 0.82287 0.21707 0.0
C1335 C 0.63392 0.85505 0.26139 0.0
C1336 C 0.62984 0.94154 0.1885 0.0
N1337 N 0.65054 0.92457 0.19096 0.0
C1338 C 0.66933 0.95101 0.22533 0.0
C1339 C 0.67009 0.92893 0.20883 0.0
C1340 C 0.64833 0.96909 0.22335 0.0
C1341 C 0.62837 0.96411 0.20458 0.0
H1342 H 0.61448 0.93751 0.17418 0.0
H1343 H 0.68613 0.91489 0.21056 0.0
C1344 C 0.71112 0.80628 0.18498 0.0
N1345 N 0.69736 0.82616 0.1967 0.0
C1346 C 0.72776 0.79021 0.19997 0.0
C1347 C 0.71621 0.81578 0.23873 0.0
C1348 C 0.70004 0.83153 0.22291 0.0
C1349 C 0.73029 0.79468 0.22732 0.0
H1350 H 0.70932 0.80305 0.16391 0.0
H1351 H 0.6897 0.84808 0.23155 0.0
C1352 C 0.63261 0.89823 0.11208 0.0
N1353 N 0.62516 0.92067 0.06285 0.0
C1354 C 0.62847 0.88213 0.08999 0.0
C1355 C 0.63276 0.92572 0.10923 0.0
C1356 C 0.62483 0.89386 0.06523 0.0
C1357 C 0.62898 0.93669 0.08414 0.0
C1358 C 0.65992 0.80769 0.13119 0.0
C1359 C 0.65878 0.80325 0.10389 0.0
C1360 C 0.65535 0.78673 0.14862 0.0
C1361 C 0.65268 0.77798 0.09452 0.0
C1362 C 0.64929 0.76175 0.13847 0.0
N1363 N 0.64807 0.75793 0.11186 0.0
C1364 C 0.70799 0.85264 0.09469 0.0
C1365 C 0.69501 0.89697 0.08709 0.0
C1366 C 0.72508 0.85338 0.07306 0.0
N1367 N 0.69304 0.87405 0.1011 0.0
C1368 C 0.71192 0.8986 0.0652 0.0
C1369 C 0.72716 0.87653 0.05784 0.0
H1370 H 0.7071 0.83506 0.10681 0.0
H1371 H 0.68395 0.91418 0.09315 0.0
C1372 C 0.58278 0.83118 0.1679 0.0
N1373 N 0.60005 0.83182 0.1473 0.0
C1374 C 0.56056 0.81476 0.16705 0.0
C1375 C 0.57368 0.80062 0.12336 0.0
C1376 C 0.5953 0.81775 0.12487 0.0
C1377 C 0.5561 0.79848 0.14486 0.0
H1378 H 0.58654 0.84302 0.18531 0.0
H1379 H 0.60869 0.81917 0.10834 0.0
O1380 O 0.69107 0.88174 0.16569 0.0
O1381 O 0.64063 0.86011 0.18935 0.0
O1382 O 0.63619 0.88715 0.13645 0.0
O1383 O 0.66581 0.83236 0.14072 0.0
H1384 H 0.73584 0.85649 0.15623 0.0
H1385 H 0.69612 0.93159 0.15073 0.0
H1386 H 0.77543 0.87679 0.13539 0.0
H1387 H 0.73644 0.95061 0.13009 0.0
H1388 H 0.62259 0.79185 0.24509 0.0
H1389 H 0.64205 0.88692 0.23436 0.0
H1390 H 0.62914 0.81009 0.20001 0.0
H1391 H 0.63508 0.86741 0.27884 0.0
H1392 H 0.68488 0.9536 0.23981 0.0
H1393 H 0.61193 0.97758 0.20215 0.0
H1394 H 0.73874 0.77467 0.19015 0.0
H1395 H 0.71741 0.81995 0.25971 0.0
H1396 H 0.62836 0.86082 0.09191 0.0
H1397 H 0.63594 0.93842 0.12619 0.0
H1398 H 0.62178 0.88166 0.04791 0.0
H1399 H 0.62915 0.95794 0.08159 0.0
H1400 H 0.66209 0.81926 0.09008 0.0
H1401 H 0.65661 0.78965 0.16976 0.0
H1402 H 0.65151 0.77433 0.07346 0.0
H1403 H 0.64562 0.74538 0.15176 0.0
H1404 H 0.73698 0.83613 0.06868 0.0
H1405 H 0.71296 0.91691 0.05413 0.0
H1406 H 0.54723 0.81469 0.1838 0.0
H1407 H 0.5714 0.78859 0.1058 0.0
C1408 C 0.24555 0.27069 0.24529 0.0
C1409 C 0.24789 0.24306 0.24727 0.0
H1410 H 0.2588 0.30846 0.259 0.0
C1411 C 0.26601 0.23234 0.26539 0.0
H1412 H 0.23156 0.27955 0.23172 0.0
C1413 C 0.28144 0.24891 0.28121 0.0
C1414 C 0.27901 0.27654 0.27929 0.0
H1415 H 0.26842 0.21112 0.2672 0.0
H1416 H 0.29503 0.24008 0.2952 0.0
C1417 C 0.26093 0.28724 0.26113 0.0
C1418 C 0.74975 0.27651 0.24281 0.0
C1419 C 0.77624 0.28166 0.24938 0.0
H1420 H 0.71412 0.25608 0.25286 0.0
C1421 C 0.78691 0.27006 0.27228 0.0
H1422 H 0.74087 0.28536 0.22545 0.0
C1423 C 0.77149 0.25358 0.28818 0.0
C1424 C 0.74506 0.24826 0.28151 0.0
H1425 H 0.80733 0.27338 0.27774 0.0
H1426 H 0.78025 0.24511 0.30579 0.0
C1427 C 0.73434 0.25998 0.25869 0.0
C1428 C 0.27756 0.77546 0.24131 0.0
C1429 C 0.28059 0.74851 0.24746 0.0
H1430 H 0.26007 0.81251 0.25204 0.0
C1431 C 0.26768 0.73827 0.26985 0.0
H1432 H 0.28758 0.78405 0.22443 0.0
C1433 C 0.25204 0.75459 0.28571 0.0
C1434 C 0.24891 0.78148 0.27947 0.0
H1435 H 0.26926 0.7175 0.27489 0.0
H1436 H 0.24197 0.74602 0.30258 0.0
C1437 C 0.26185 0.79177 0.25712 0.0
C1438 C 0.77759 0.77155 0.28084 0.0
C1439 C 0.77906 0.74424 0.27579 0.0
H1440 H 0.76165 0.80893 0.26926 0.0
C1441 C 0.76473 0.73377 0.25438 0.0
H1442 H 0.7881 0.78029 0.29733 0.0
C1443 C 0.74898 0.75011 0.2387 0.0
C1444 C 0.7474 0.7774 0.24381 0.0
H1445 H 0.7657 0.71291 0.24961 0.0
H1446 H 0.73774 0.74121 0.22279 0.0
C1447 C 0.76206 0.78795 0.26497 0.0
C1448 C 0.27155 0.75232 0.7412 0.0
C1449 C 0.27401 0.7794 0.74694 0.0
H1450 H 0.25466 0.71515 0.7525 0.0
C1451 C 0.26049 0.78992 0.76883 0.0
H1452 H 0.28193 0.74368 0.72455 0.0
C1453 C 0.24489 0.77363 0.78476 0.0
C1454 C 0.24275 0.74647 0.77926 0.0
H1455 H 0.26193 0.81077 0.77357 0.0
H1456 H 0.23486 0.78218 0.80167 0.0
C1457 C 0.25617 0.73598 0.7573 0.0
C1458 C 0.7347 0.75469 0.76942 0.0
C1459 C 0.74582 0.7412 0.74778 0.0
H1460 H 0.7411 0.78094 0.80197 0.0
C1461 C 0.77289 0.74441 0.74246 0.0
H1462 H 0.71385 0.75292 0.77391 0.0
C1463 C 0.78843 0.76087 0.75829 0.0
C1464 C 0.77729 0.77443 0.77987 0.0
H1465 H 0.78216 0.73407 0.72613 0.0
H1466 H 0.80912 0.76324 0.75335 0.0
C1467 C 0.75025 0.77106 0.78531 0.0
C1468 C 0.76603 0.2909 0.76154 0.0
C1469 C 0.74811 0.27971 0.77958 0.0
H1470 H 0.79566 0.28396 0.73212 0.0
C1471 C 0.74642 0.25202 0.78151 0.0
H1472 H 0.76809 0.31217 0.75989 0.0
C1473 C 0.76224 0.23587 0.76565 0.0
C1474 C 0.78005 0.24707 0.7475 0.0
H1475 H 0.73251 0.2428 0.79494 0.0
H1476 H 0.76014 0.21461 0.76725 0.0
C1477 C 0.78183 0.27476 0.74565 0.0
C1478 C 0.25877 0.28599 0.76571 0.0
C1479 C 0.24159 0.27506 0.74681 0.0
H1480 H 0.28769 0.27865 0.79564 0.0
C1481 C 0.24013 0.24742 0.74424 0.0
H1482 H 0.26061 0.30723 0.76787 0.0
C1483 C 0.25559 0.23104 0.76019 0.0
C1484 C 0.27286 0.24196 0.77902 0.0
H1485 H 0.22679 0.23843 0.7301 0.0
H1486 H 0.25379 0.2098 0.75798 0.0
C1487 C 0.27426 0.26961 0.78163 0.0
C1488 C 0.16594 1.00138 0.27254 0.0
C1489 C 0.14216 0.99047 0.28198 0.0
H1490 H 0.18459 0.03032 0.24811 0.0
C1491 C 0.11818 1.00095 0.27253 0.0
H1492 H 0.18483 0.99362 0.2789 0.0
C1493 C 0.11804 0.02178 0.2542 0.0
C1494 C 0.14188 0.03269 0.24485 0.0
H1495 H 0.09945 0.99324 0.27946 0.0
H1496 H 0.09922 0.02915 0.24719 0.0
C1497 C 0.1658 0.02222 0.25439 0.0
C1498 C 0.90527 0.5018 0.2526 0.0
C1499 C 0.88142 0.48922 0.2458 0.0
H1500 H 0.92428 0.53181 0.27576 0.0
C1501 C 0.85797 0.49774 0.25809 0.0
H1502 H 0.92368 0.49585 0.24344 0.0
C1503 C 0.85827 0.51844 0.27643 0.0
C1504 C 0.88205 0.5312 0.2831 0.0
H1505 H 0.83928 0.48826 0.25371 0.0
H1506 H 0.83971 0.52474 0.28504 0.0
C1507 C 0.90557 0.52258 0.27097 0.0
C1508 C 0.26862 0.17326 1.00154 0.0
C1509 C 0.27796 0.1493 0.99091 0.0
H1510 H 0.24445 0.19225 0.03057 0.0
C1511 C 0.26973 0.12544 1.00264 0.0
H1512 H 0.27475 0.19205 0.99325 0.0
C1513 C 0.25249 0.12557 0.02436 0.0
C1514 C 0.24317 0.14957 0.03493 0.0
H1515 H 0.27633 0.10661 0.99482 0.0
H1516 H 0.24676 0.10686 0.03308 0.0
C1517 C 0.25144 0.17339 0.02318 0.0
C1518 C 0.77227 0.39712 0.02229 0.0
C1519 C 0.77816 0.37353 0.03582 0.0
H1520 H 0.75103 0.41544 0.99048 0.0
C1521 C 0.76647 0.34985 0.0271 0.0
H1522 H 0.78076 0.41573 0.02865 0.0
C1523 C 0.74937 0.34971 1.00541 0.0
C1524 C 0.74343 0.37326 0.99187 0.0
H1525 H 0.77077 0.33128 0.03689 0.0
H1526 H 0.74063 0.33111 0.99935 0.0
C1527 C 0.755 0.397 1.00063 0.0
C1528 C 0.27499 0.84849 0.52034 0.0
C1529 C 0.28034 0.87167 0.53476 0.0
H1530 H 0.25393 0.83064 0.48827 0.0
C1531 C 0.2679 0.89534 0.52707 0.0
H1532 H 0.28437 0.82996 0.52557 0.0
C1533 C 0.25046 0.89576 0.50553 0.0
C1534 C 0.24523 0.87257 0.49107 0.0
H1535 H 0.27134 0.9135 0.53792 0.0
H1536 H 0.24136 0.91433 0.49999 0.0
C1537 C 0.2577 0.84894 0.49878 0.0
C1538 C 0.75083 0.62396 0.5203 0.0
C1539 C 0.74795 0.64623 0.53674 0.0
H1540 H 0.76983 0.60709 0.4863 0.0
C1541 C 0.763 0.66895 0.53117 0.0
H1542 H 0.73971 0.60606 0.52416 0.0
C1543 C 0.78039 0.66945 0.5097 0.0
C1544 C 0.78321 0.64726 0.49315 0.0
H1545 H 0.76108 0.68659 0.5432 0.0
H1546 H 0.79169 0.68728 0.50609 0.0
C1547 C 0.76833 0.62443 0.4988 0.0
C1548 C 1.01125 0.28663 0.16286 0.0
C1549 C 0.98964 0.28087 0.14639 0.0
H1550 H 0.04931 0.27477 0.17684 0.0
C1551 C 0.99078 0.25816 0.1303 0.0
H1552 H 1.01085 0.30365 0.17587 0.0
C1553 C 0.01292 0.24154 0.1308 0.0
C1554 C 0.03447 0.2472 0.14742 0.0
H1555 H 0.97461 0.25329 0.11715 0.0
H1556 H 0.01324 0.22442 0.11793 0.0
C1557 C 0.03333 0.27 0.16341 0.0
C1558 C 1.00732 0.74603 0.39607 0.0
C1559 C 0.98811 0.74882 0.37613 0.0
H1560 H 0.04391 0.75987 0.41234 0.0
C1561 C 0.99154 0.76897 0.35715 0.0
H1562 H 1.0052 0.73116 0.41134 0.0
C1563 C 0.01354 0.78573 0.35806 0.0
C1564 C 0.03286 0.7826 0.37774 0.0
H1565 H 0.97754 0.7715 0.34117 0.0
H1566 H 0.01581 0.80067 0.34286 0.0
C1567 C 0.02946 0.76261 0.39677 0.0
C1568 C 0.5286 0.75985 0.62525 0.0
C1569 C 0.53257 0.74044 0.64478 0.0
H1570 H 0.50408 0.79116 0.61075 0.0
C1571 C 0.51408 0.73827 0.66541 0.0
H1572 H 0.54237 0.76187 0.60896 0.0
C1573 C 0.49231 0.75527 0.66666 0.0
C1574 C 0.48828 0.77477 0.64716 0.0
H1575 H 0.51681 0.72385 0.68103 0.0
H1576 H 0.47892 0.75343 0.68328 0.0
C1577 C 0.50669 0.77674 0.62637 0.0
C1578 C 0.85215 0.01635 0.74651 0.0
C1579 C 0.87552 0.03004 0.7402 0.0
H1580 H 0.83402 0.9852 0.76847 0.0
C1581 C 0.89945 0.02114 0.75122 0.0
H1582 H 0.83338 0.0223 0.73814 0.0
C1583 C 0.89991 0.99931 0.76832 0.0
C1584 C 0.87644 0.98586 0.77485 0.0
H1585 H 0.91781 0.03132 0.74704 0.0
H1586 H 0.91871 0.9929 0.77627 0.0
C1587 C 0.85258 0.99472 0.76368 0.0
C1588 C 0.12309 0.523 0.77006 0.0
C1589 C 0.14653 0.53635 0.77689 0.0
H1590 H 0.10529 0.4913 0.74825 0.0
C1591 C 0.17046 0.5276 0.76573 0.0
H1592 H 0.10425 0.52932 0.778 0.0
C1593 C 0.17097 0.50622 0.74824 0.0
C1594 C 0.14763 0.49265 0.7416 0.0
H1595 H 0.189 0.53704 0.77075 0.0
H1596 H 0.18979 0.50038 0.73987 0.0
C1597 C 0.12364 0.5014 0.75266 0.0
C1598 C 0.74789 0.8554 0.01792 0.0
C1599 C 0.74539 0.87746 0.0347 0.0
H1600 H 0.76671 0.83846 0.98404 0.0
C1601 C 0.76084 0.90001 0.02948 0.0
H1602 H 0.73595 0.83789 0.02102 0.0
C1603 C 0.77857 0.90034 1.00817 0.0
C1604 C 0.78128 0.8781 0.99164 0.0
H1605 H 0.75966 0.91722 0.04219 0.0
H1606 H 0.79049 0.91783 1.00493 0.0
C1607 C 0.7656 0.85571 0.99671 0.0
C1608 C 0.25703 0.6679 0.99839 0.0
C1609 C 0.24113 0.6456 0.99358 0.0
H1610 H 0.28681 0.68575 0.02249 0.0
C1611 C 0.24357 0.62358 1.01042 0.0
H1612 H 0.25612 0.68497 0.98548 0.0
C1613 C 0.26123 0.62403 0.03177 0.0
C1614 C 0.27691 0.64649 0.03672 0.0
H1615 H 0.23148 0.60616 1.0074 0.0
H1616 H 0.26217 0.607 0.04472 0.0
C1617 C 0.27468 0.66833 0.01963 0.0
C1618 C 0.7434 0.12321 0.51022 0.0
C1619 C 0.74084 0.14521 0.49336 0.0
H1620 H 0.76222 0.1067 0.54442 0.0
C1621 C 0.75673 0.16754 0.49804 0.0
H1622 H 0.73132 0.10577 0.50728 0.0
C1623 C 0.77449 0.16803 0.51918 0.0
C1624 C 0.77684 0.14621 0.53628 0.0
H1625 H 0.75573 0.18459 0.48511 0.0
H1626 H 0.78661 0.18547 0.52195 0.0
C1627 C 0.76117 0.12372 0.53146 0.0
C1628 C 0.24492 0.35691 0.51692 0.0
C1629 C 0.24518 0.37735 0.53577 0.0
H1630 H 0.26162 0.34106 0.48148 0.0
C1631 C 0.26339 0.39815 0.53271 0.0
H1632 H 0.23082 0.34085 0.51842 0.0
C1633 C 0.28129 0.39819 0.51153 0.0
C1634 C 0.28131 0.37746 0.49293 0.0
H1635 H 0.26426 0.41405 0.54706 0.0
H1636 H 0.29547 0.41416 0.51008 0.0
C1637 C 0.26268 0.357 0.49577 0.0
C1638 C 0.02162 0.75207 0.85108 0.0
C1639 C 0.03275 0.7435 0.87509 0.0
H1640 H 0.99234 0.77563 0.83192 0.0
C1641 C 0.02139 0.75235 0.89894 0.0
H1642 H 0.02951 0.74543 0.8323 0.0
C1643 C 0.99954 0.76937 0.89872 0.0
C1644 C 0.98852 0.778 0.87465 0.0
H1645 H 0.02958 0.74641 0.91782 0.0
H1646 H 0.99109 0.7755 0.91743 0.0
C1647 C 0.99997 0.76917 0.85086 0.0
C1648 C 0.02104 0.27201 0.66772 0.0
C1649 C 0.03163 0.28156 0.64378 0.0
H1650 H 0.99253 0.24747 0.68673 0.0
C1651 C 0.02116 0.27167 0.61992 0.0
H1652 H 0.02874 0.27852 0.6866 0.0
C1653 C 1.00108 0.25264 0.62002 0.0
C1654 C 0.99027 0.24334 0.64396 0.0
H1655 H 0.02829 0.27866 0.60099 0.0
H1656 H 0.99423 0.24518 0.60117 0.0
C1657 C 1.0005 0.25351 0.6678 0.0
C1658 C 0.52228 0.25258 0.39798 0.0
C1659 C 0.53466 0.24521 0.37413 0.0
H1660 H 0.49132 0.27463 0.41663 0.0
C1661 C 0.52476 0.25561 0.35029 0.0
H1662 H 0.52948 0.24528 0.41677 0.0
C1663 C 0.50339 0.27306 0.35028 0.0
C1664 C 0.49085 0.28032 0.37405 0.0
H1665 H 0.53337 0.25016 0.33145 0.0
H1666 H 0.49684 0.28098 0.33149 0.0
C1667 C 0.5006 0.26982 0.39793 0.0
C1668 C 0.61819 0.52145 0.7539 0.0
C1669 C 0.64202 0.53213 0.74427 0.0
H1670 H 0.59962 0.49315 0.77943 0.0
C1671 C 0.66595 0.52151 0.75362 0.0
H1672 H 0.59935 0.52894 0.74706 0.0
C1673 C 0.6661 0.50068 0.77178 0.0
C1674 C 0.64233 0.48998 0.78148 0.0
H1675 H 0.68474 0.52944 0.74713 0.0
H1676 H 0.685 0.49277 0.77792 0.0
C1677 C 0.61834 0.50067 0.77229 0.0
C1678 C 0.40399 0.02525 0.76701 0.0
C1679 C 0.38073 0.03289 0.78032 0.0
H1680 H 0.42191 0.99983 0.73831 0.0
C1681 C 0.35728 0.01905 0.7746 0.0
H1682 H 0.42258 0.03507 0.77097 0.0
C1683 C 0.35711 0.99813 0.75654 0.0
C1684 C 0.38023 0.99068 0.74293 0.0
H1685 H 0.33874 0.02447 0.78378 0.0
H1686 H 0.33869 0.98768 0.75354 0.0
C1687 C 0.4037 1.00462 0.74845 0.0
C1688 C 0.48778 0.26999 0.86462 0.0
C1689 C 0.48718 0.24632 0.87929 0.0
H1690 H 0.50999 0.30415 0.85307 0.0
C1691 C 0.50946 0.23955 0.89448 0.0
H1692 H 0.47123 0.27565 0.85229 0.0
C1693 C 0.53177 0.25592 0.89483 0.0
C1694 C 0.53236 0.27951 0.88005 0.0
H1695 H 0.50958 0.2217 0.90633 0.0
H1696 H 0.54853 0.25018 0.90683 0.0
C1697 C 0.51003 0.2864 0.86506 0.0
C1698 C 0.39794 0.51862 0.24902 0.0
C1699 C 0.3741 0.53124 0.24223 0.0
H1700 H 0.41676 0.48757 0.27082 0.0
C1701 C 0.35043 0.52142 0.25305 0.0
H1702 H 0.41661 0.52571 0.24134 0.0
C1703 C 0.35059 0.50006 0.27055 0.0
C1704 C 0.37438 0.48744 0.27746 0.0
H1705 H 0.33159 0.53019 0.24799 0.0
H1706 H 0.33194 0.4937 0.27891 0.0
C1707 C 0.39806 0.49695 0.26633 0.0
C1708 C 0.67052 0.02764 0.26501 0.0
C1709 C 0.64661 0.03677 0.27588 0.0
H1710 H 0.68974 0.99995 0.23956 0.0
C1711 C 0.62306 0.0237 0.2689 0.0
H1712 H 0.68913 0.03688 0.27014 0.0
C1713 C 0.62348 1.00198 0.25165 0.0
C1714 C 0.64746 0.99282 0.24092 0.0
H1715 H 0.60423 0.03033 0.27662 0.0
H1716 H 0.60505 0.9921 0.24711 0.0
C1717 C 0.67092 1.00612 0.24769 0.0
C1718 C 0.525 0.76691 0.16795 0.0
C1719 C 0.53378 0.77902 0.14444 0.0
H1720 H 0.49764 0.74059 0.18634 0.0
C1721 C 0.52135 0.77192 0.12055 0.0
H1722 H 0.53427 0.77127 0.18674 0.0
C1723 C 0.50092 0.75326 0.12017 0.0
C1724 C 0.49184 0.7415 0.14374 0.0
H1725 H 0.52713 0.78093 0.10201 0.0
H1726 H 0.49236 0.74808 0.10125 0.0
C1727 C 0.5042 0.74869 0.16764 0.0
loop_
_geom_bond_atom_site_label_1
_geom_bond_atom_site_label_2
_geom_bond_distance
_geom_bond_site_symmetry_2
_ccdc_geom_bond_type
Li0 N17 1.990 . S
Li0 O60 1.956 . S
Li0 O61 1.970 . S
Li0 O62 1.961 . S
Li1 N25 1.990 . S
Li1 O60 1.970 . S
Li1 O61 1.956 . S
Li1 O63 1.961 . S
Li2 N47 1.990 . S
Li2 O60 1.961 . S
Li2 O62 1.956 . S
Li2 O63 1.970 . S
Li3 N53 1.990 . S
Li3 O61 1.961 . S
Li3 O62 1.970 . S
Li3 O63 1.956 . S
C4 C6 1.348 . S
C4 C7 1.356 . S
C4 O60 1.325 . S
N5 C8 1.314 . S
N5 C9 1.279 . S
C6 C4 1.348 . S
C6 C8 1.353 . S
C6 H64 0.929 . S
C7 C4 1.356 . S
C7 C9 1.358 . S
C7 H65 0.930 . S
C8 N5 1.314 . S
C8 C6 1.353 . S
C8 H66 0.930 . S
C9 N5 1.279 . S
C9 C7 1.358 . S
C9 H67 0.930 . S
C10 C13 1.348 . S
C10 C14 1.356 . S
C10 O61 1.325 . S
C11 N12 1.279 . S
C11 C14 1.358 . S
C11 H68 0.930 . S
N12 C11 1.279 . S
N12 C15 1.314 . S
C13 C10 1.348 . S
C13 C15 1.353 . S
C13 H69 0.929 . S
C14 C10 1.356 . S
C14 C11 1.358 . S
C14 H70 0.930 . S
C15 N12 1.314 . S
C15 C13 1.353 . S
C15 H71 0.930 . S
C16 N17 1.314 . S
C16 C21 1.353 . S
C16 H22 0.930 . S
N17 Li0 1.990 . S
N17 C16 1.314 . S
N17 C19 1.279 . S
C18 C19 1.358 . S
C18 C20 1.356 . S
C18 H72 0.930 . S
C19 N17 1.279 . S
C19 C18 1.358 . S
C19 H23 0.930 . S
C20 C18 1.356 . S
C20 C21 1.348 . S
C21 C16 1.353 . S
C21 C20 1.348 . S
C21 H73 0.929 . S
H22 C16 0.930 . S
H23 C19 0.930 . S
C24 N25 1.314 . S
C24 C26 1.353 . S
C24 H30 0.930 . S
N25 Li1 1.990 . S
N25 C24 1.314 . S
N25 C28 1.279 . S
C26 C24 1.353 . S
C26 C29 1.348 . S
C26 H74 0.929 . S
C27 C28 1.358 . S
C27 C29 1.356 . S
C27 H75 0.930 . S
C28 N25 1.279 . S
C28 C27 1.358 . S
C28 H31 0.930 . S
C29 C26 1.348 . S
C29 C27 1.356 . S
H30 C24 0.930 . S
H31 C28 0.930 . S
C32 C34 1.348 . S
C32 C35 1.356 . S
C32 O62 1.325 . S
N33 C36 1.314 . S
N33 C37 1.279 . S
C34 C32 1.348 . S
C34 C36 1.353 . S
C34 H76 0.929 . S
C35 C32 1.356 . S
C35 C37 1.358 . S
C35 H77 0.930 . S
C36 N33 1.314 . S
C36 C34 1.353 . S
C36 H78 0.930 . S
C37 N33 1.279 . S
C37 C35 1.358 . S
C37 H79 0.930 . S
C38 C39 1.348 . S
C38 C40 1.356 . S
C38 O63 1.325 . S
C39 C38 1.348 . S
C39 C41 1.353 . S
C39 H80 0.929 . S
C40 C38 1.356 . S
C40 C42 1.358 . S
C40 H81 0.930 . S
C41 C39 1.353 . S
C41 N43 1.314 . S
C41 H82 0.930 . S
C42 C40 1.358 . S
C42 N43 1.279 . S
C42 H83 0.930 . S
N43 C41 1.314 . S
N43 C42 1.279 . S
C44 C46 1.353 . S
C44 N47 1.314 . S
C44 H50 0.930 . S
C45 N47 1.279 . S
C45 C48 1.358 . S
C45 H51 0.930 . S
C46 C44 1.353 . S
C46 C49 1.348 . S
C46 H84 0.929 . S
N47 Li2 1.990 . S
N47 C44 1.314 . S
N47 C45 1.279 . S
C48 C45 1.358 . S
C48 C49 1.356 . S
C48 H85 0.930 . S
C49 C46 1.348 . S
C49 C48 1.356 . S
H50 C44 0.930 . S
H51 C45 0.930 . S
C52 N53 1.314 . S
C52 C54 1.353 . S
C52 H58 0.930 . S
N53 Li3 1.990 . S
N53 C52 1.314 . S
N53 C56 1.279 . S
C54 C52 1.353 . S
C54 C57 1.348 . S
C54 H86 0.929 . S
C55 C56 1.358 . S
C55 C57 1.356 . S
C55 H87 0.930 . S
C56 N53 1.279 . S
C56 C55 1.358 . S
C56 H59 0.930 . S
C57 C54 1.348 . S
C57 C55 1.356 . S
H58 C52 0.930 . S
H59 C56 0.930 . S
O60 Li0 1.956 . S
O60 Li1 1.970 . S
O60 Li2 1.961 . S
O60 C4 1.325 . S
O61 Li0 1.970 . S
O61 Li1 1.956 . S
O61 Li3 1.961 . S
O61 C10 1.325 . S
O62 Li0 1.961 . S
O62 Li2 1.956 . S
O62 Li3 1.970 . S
O62 C32 1.325 . S
O63 Li1 1.961 . S
O63 Li2 1.970 . S
O63 Li3 1.956 . S
O63 C38 1.325 . S
H64 C6 0.929 . S
H65 C7 0.930 . S
H66 C8 0.930 . S
H67 C9 0.930 . S
H68 C11 0.930 . S
H69 C13 0.929 . S
H70 C14 0.930 . S
H71 C15 0.930 . S
H72 C18 0.930 . S
H73 C21 0.929 . S
H74 C26 0.929 . S
H75 C27 0.930 . S
H76 C34 0.929 . S
H77 C35 0.930 . S
H78 C36 0.930 . S
H79 C37 0.930 . S
H80 C39 0.929 . S
H81 C40 0.930 . S
H82 C41 0.930 . S
H83 C42 0.930 . S
H84 C46 0.929 . S
H85 C48 0.930 . S
H86 C54 0.929 . S
H87 C55 0.930 . S
Li88 N105 1.990 . S
Li88 O148 1.956 . S
Li88 O149 1.970 . S
Li88 O150 1.961 . S
Li89 N113 1.990 . S
Li89 O148 1.970 . S
Li89 O149 1.956 . S
Li89 O151 1.961 . S
Li90 N135 1.990 . S
Li90 O148 1.961 . S
Li90 O150 1.956 . S
Li90 O151 1.970 . S
Li91 N141 1.990 . S
Li91 O149 1.961 . S
Li91 O150 1.970 . S
Li91 O151 1.956 . S
C92 C94 1.348 . S
C92 C95 1.356 . S
C92 O148 1.325 . S
N93 C96 1.314 . S
N93 C97 1.279 . S
C94 C92 1.348 . S
C94 C96 1.353 . S
C94 H152 0.929 . S
C95 C92 1.356 . S
C95 C97 1.358 . S
C95 H153 0.930 . S
C96 N93 1.314 . S
C96 C94 1.353 . S
C96 H154 0.930 . S
C97 N93 1.279 . S
C97 C95 1.358 . S
C97 H155 0.930 . S
C98 C101 1.348 . S
C98 C102 1.356 . S
C98 O149 1.325 . S
C99 N100 1.279 . S
C99 C102 1.358 . S
C99 H156 0.930 . S
N100 C99 1.279 . S
N100 C103 1.314 . S
C101 C98 1.348 . S
C101 C103 1.353 . S
C101 H157 0.929 . S
C102 C98 1.356 . S
C102 C99 1.358 . S
C102 H158 0.930 . S
C103 N100 1.314 . S
C103 C101 1.353 . S
C103 H159 0.930 . S
C104 N105 1.314 . S
C104 C109 1.353 . S
C104 H110 0.930 . S
N105 Li88 1.990 . S
N105 C104 1.314 . S
N105 C107 1.279 . S
C106 C107 1.358 . S
C106 C108 1.356 . S
C106 H160 0.930 . S
C107 N105 1.279 . S
C107 C106 1.358 . S
C107 H111 0.930 . S
C108 C106 1.356 . S
C108 C109 1.348 . S
C109 C104 1.353 . S
C109 C108 1.348 . S
C109 H161 0.929 . S
H110 C104 0.930 . S
H111 C107 0.930 . S
C112 N113 1.314 . S
C112 C114 1.353 . S
C112 H118 0.930 . S
N113 Li89 1.990 . S
N113 C112 1.314 . S
N113 C116 1.279 . S
C114 C112 1.353 . S
C114 C117 1.348 . S
C114 H162 0.929 . S
C115 C116 1.358 . S
C115 C117 1.356 . S
C115 H163 0.930 . S
C116 N113 1.279 . S
C116 C115 1.358 . S
C116 H119 0.930 . S
C117 C114 1.348 . S
C117 C115 1.356 . S
H118 C112 0.930 . S
H119 C116 0.930 . S
C120 C122 1.348 . S
C120 C123 1.356 . S
C120 O150 1.325 . S
N121 C124 1.314 . S
N121 C125 1.279 . S
C122 C120 1.348 . S
C122 C124 1.353 . S
C122 H164 0.929 . S
C123 C120 1.356 . S
C123 C125 1.358 . S
C123 H165 0.930 . S
C124 N121 1.314 . S
C124 C122 1.353 . S
C124 H166 0.930 . S
C125 N121 1.279 . S
C125 C123 1.358 . S
C125 H167 0.930 . S
C126 C127 1.348 . S
C126 C128 1.356 . S
C126 O151 1.325 . S
C127 C126 1.348 . S
C127 C129 1.353 . S
C127 H168 0.929 . S
C128 C126 1.356 . S
C128 C130 1.358 . S
C128 H169 0.930 . S
C129 C127 1.353 . S
C129 N131 1.314 . S
C129 H170 0.930 . S
C130 C128 1.358 . S
C130 N131 1.279 . S
C130 H171 0.930 . S
N131 C129 1.314 . S
N131 C130 1.279 . S
C132 C134 1.353 . S
C132 N135 1.314 . S
C132 H138 0.930 . S
C133 N135 1.279 . S
C133 C136 1.358 . S
C133 H139 0.930 . S
C134 C132 1.353 . S
C134 C137 1.348 . S
C134 H172 0.929 . S
N135 Li90 1.990 . S
N135 C132 1.314 . S
N135 C133 1.279 . S
C136 C133 1.358 . S
C136 C137 1.356 . S
C136 H173 0.930 . S
C137 C134 1.348 . S
C137 C136 1.356 . S
H138 C132 0.930 . S
H139 C133 0.930 . S
C140 N141 1.314 . S
C140 C142 1.353 . S
C140 H146 0.930 . S
N141 Li91 1.990 . S
N141 C140 1.314 . S
N141 C144 1.279 . S
C142 C140 1.353 . S
C142 C145 1.348 . S
C142 H174 0.929 . S
C143 C144 1.358 . S
C143 C145 1.356 . S
C143 H175 0.930 . S
C144 N141 1.279 . S
C144 C143 1.358 . S
C144 H147 0.930 . S
C145 C142 1.348 . S
C145 C143 1.356 . S
H146 C140 0.930 . S
H147 C144 0.930 . S
O148 Li88 1.956 . S
O148 Li89 1.970 . S
O148 Li90 1.961 . S
O148 C92 1.325 . S
O149 Li88 1.970 . S
O149 Li89 1.956 . S
O149 Li91 1.961 . S
O149 C98 1.325 . S
O150 Li88 1.961 . S
O150 Li90 1.956 . S
O150 Li91 1.970 . S
O150 C120 1.325 . S
O151 Li89 1.961 . S
O151 Li90 1.970 . S
O151 Li91 1.956 . S
O151 C126 1.325 . S
H152 C94 0.929 . S
H153 C95 0.930 . S
H154 C96 0.930 . S
H155 C97 0.930 . S
H156 C99 0.930 . S
H157 C101 0.929 . S
H158 C102 0.930 . S
H159 C103 0.930 . S
H160 C106 0.930 . S
H161 C109 0.929 . S
H162 C114 0.929 . S
H163 C115 0.930 . S
H164 C122 0.929 . S
H165 C123 0.930 . S
H166 C124 0.930 . S
H167 C125 0.930 . S
H168 C127 0.929 . S
H169 C128 0.930 . S
H170 C129 0.930 . S
H171 C130 0.930 . S
H172 C134 0.929 . S
H173 C136 0.930 . S
H174 C142 0.929 . S
H175 C143 0.930 . S
Li176 N193 1.990 . S
Li176 O236 1.956 . S
Li176 O237 1.970 . S
Li176 O238 1.961 . S
Li177 N201 1.990 . S
Li177 O236 1.970 . S
Li177 O237 1.956 . S
Li177 O239 1.961 . S
Li178 N223 1.990 . S
Li178 O236 1.961 . S
Li178 O238 1.956 . S
Li178 O239 1.970 . S
Li179 N229 1.990 . S
Li179 O237 1.961 . S
Li179 O238 1.970 . S
Li179 O239 1.956 . S
C180 C182 1.348 . S
C180 C183 1.356 . S
C180 O236 1.325 . S
N181 C184 1.314 . S
N181 C185 1.279 . S
C182 C180 1.348 . S
C182 C184 1.353 . S
C182 H240 0.929 . S
C183 C180 1.356 . S
C183 C185 1.358 . S
C183 H241 0.930 . S
C184 N181 1.314 . S
C184 C182 1.353 . S
C184 H242 0.930 . S
C185 N181 1.279 . S
C185 C183 1.358 . S
C185 H243 0.930 . S
C186 C189 1.348 . S
C186 C190 1.356 . S
C186 O237 1.325 . S
C187 N188 1.279 . S
C187 C190 1.358 . S
C187 H244 0.930 . S
N188 C187 1.279 . S
N188 C191 1.314 . S
C189 C186 1.348 . S
C189 C191 1.353 . S
C189 H245 0.929 . S
C190 C186 1.356 . S
C190 C187 1.358 . S
C190 H246 0.930 . S
C191 N188 1.314 . S
C191 C189 1.353 . S
C191 H247 0.930 . S
C192 N193 1.314 . S
C192 C197 1.353 . S
C192 H198 0.930 . S
N193 Li176 1.990 . S
N193 C192 1.314 . S
N193 C195 1.279 . S
C194 C195 1.358 . S
C194 C196 1.356 . S
C194 H248 0.930 . S
C195 N193 1.279 . S
C195 C194 1.358 . S
C195 H199 0.930 . S
C196 C194 1.356 . S
C196 C197 1.348 . S
C197 C192 1.353 . S
C197 C196 1.348 . S
C197 H249 0.929 . S
H198 C192 0.930 . S
H199 C195 0.930 . S
C200 N201 1.314 . S
C200 C202 1.353 . S
C200 H206 0.930 . S
N201 Li177 1.990 . S
N201 C200 1.314 . S
N201 C204 1.279 . S
C202 C200 1.353 . S
C202 C205 1.348 . S
C202 H250 0.929 . S
C203 C204 1.358 . S
C203 C205 1.356 . S
C203 H251 0.930 . S
C204 N201 1.279 . S
C204 C203 1.358 . S
C204 H207 0.930 . S
C205 C202 1.348 . S
C205 C203 1.356 . S
H206 C200 0.930 . S
H207 C204 0.930 . S
C208 C210 1.348 . S
C208 C211 1.356 . S
C208 O238 1.325 . S
N209 C212 1.314 . S
N209 C213 1.279 . S
C210 C208 1.348 . S
C210 C212 1.353 . S
C210 H252 0.929 . S
C211 C208 1.356 . S
C211 C213 1.358 . S
C211 H253 0.930 . S
C212 N209 1.314 . S
C212 C210 1.353 . S
C212 H254 0.930 . S
C213 N209 1.279 . S
C213 C211 1.358 . S
C213 H255 0.930 . S
C214 C215 1.348 . S
C214 C216 1.356 . S
C214 O239 1.325 . S
C215 C214 1.348 . S
C215 C217 1.353 . S
C215 H256 0.929 . S
C216 C214 1.356 . S
C216 C218 1.358 . S
C216 H257 0.930 . S
C217 C215 1.353 . S
C217 N219 1.314 . S
C217 H258 0.930 . S
C218 C216 1.358 . S
C218 N219 1.279 . S
C218 H259 0.930 . S
N219 C217 1.314 . S
N219 C218 1.279 . S
C220 C222 1.353 . S
C220 N223 1.314 . S
C220 H226 0.930 . S
C221 N223 1.279 . S
C221 C224 1.358 . S
C221 H227 0.930 . S
C222 C220 1.353 . S
C222 C225 1.348 . S
C222 H260 0.929 . S
N223 Li178 1.990 . S
N223 C220 1.314 . S
N223 C221 1.279 . S
C224 C221 1.358 . S
C224 C225 1.356 . S
C224 H261 0.930 . S
C225 C222 1.348 . S
C225 C224 1.356 . S
H226 C220 0.930 . S
H227 C221 0.930 . S
C228 N229 1.314 . S
C228 C230 1.353 . S
C228 H234 0.930 . S
N229 Li179 1.990 . S
N229 C228 1.314 . S
N229 C232 1.279 . S
C230 C228 1.353 . S
C230 C233 1.348 . S
C230 H262 0.929 . S
C231 C232 1.358 . S
C231 C233 1.356 . S
C231 H263 0.930 . S
C232 N229 1.279 . S
C232 C231 1.358 . S
C232 H235 0.930 . S
C233 C230 1.348 . S
C233 C231 1.356 . S
H234 C228 0.930 . S
H235 C232 0.930 . S
O236 Li176 1.956 . S
O236 Li177 1.970 . S
O236 Li178 1.961 . S
O236 C180 1.325 . S
O237 Li176 1.970 . S
O237 Li177 1.956 . S
O237 Li179 1.961 . S
O237 C186 1.325 . S
O238 Li176 1.961 . S
O238 Li178 1.956 . S
O238 Li179 1.970 . S
O238 C208 1.325 . S
O239 Li177 1.961 . S
O239 Li178 1.970 . S
O239 Li179 1.956 . S
O239 C214 1.325 . S
H240 C182 0.929 . S
H241 C183 0.930 . S
H242 C184 0.930 . S
H243 C185 0.930 . S
H244 C187 0.930 . S
H245 C189 0.929 . S
H246 C190 0.930 . S
H247 C191 0.930 . S
H248 C194 0.930 . S
H249 C197 0.929 . S
H250 C202 0.929 . S
H251 C203 0.930 . S
H252 C210 0.929 . S
H253 C211 0.930 . S
H254 C212 0.930 . S
H255 C213 0.930 . S
H256 C215 0.929 . S
H257 C216 0.930 . S
H258 C217 0.930 . S
H259 C218 0.930 . S
H260 C222 0.929 . S
H261 C224 0.930 . S
H262 C230 0.929 . S
H263 C231 0.930 . S
Li264 N281 1.990 . S
Li264 O324 1.956 . S
Li264 O325 1.970 . S
Li264 O326 1.961 . S
Li265 N289 1.990 . S
Li265 O324 1.970 . S
Li265 O325 1.956 . S
Li265 O327 1.961 . S
Li266 N311 1.990 . S
Li266 O324 1.961 . S
Li266 O326 1.956 . S
Li266 O327 1.970 . S
Li267 N317 1.990 . S
Li267 O325 1.961 . S
Li267 O326 1.970 . S
Li267 O327 1.956 . S
C268 C270 1.348 . S
C268 C271 1.356 . S
C268 O324 1.325 . S
N269 C272 1.314 . S
N269 C273 1.279 . S
C270 C268 1.348 . S
C270 C272 1.353 . S
C270 H328 0.929 . S
C271 C268 1.356 . S
C271 C273 1.358 . S
C271 H329 0.930 . S
C272 N269 1.314 . S
C272 C270 1.353 . S
C272 H330 0.930 . S
C273 N269 1.279 . S
C273 C271 1.358 . S
C273 H331 0.930 . S
C274 C277 1.348 . S
C274 C278 1.356 . S
C274 O325 1.325 . S
C275 N276 1.279 . S
C275 C278 1.358 . S
C275 H332 0.930 . S
N276 C275 1.279 . S
N276 C279 1.314 . S
C277 C274 1.348 . S
C277 C279 1.353 . S
C277 H333 0.929 . S
C278 C274 1.356 . S
C278 C275 1.358 . S
C278 H334 0.930 . S
C279 N276 1.314 . S
C279 C277 1.353 . S
C279 H335 0.930 . S
C280 N281 1.314 . S
C280 C285 1.353 . S
C280 H286 0.930 . S
N281 Li264 1.990 . S
N281 C280 1.314 . S
N281 C283 1.279 . S
C282 C283 1.358 . S
C282 C284 1.356 . S
C282 H336 0.930 . S
C283 N281 1.279 . S
C283 C282 1.358 . S
C283 H287 0.930 . S
C284 C282 1.356 . S
C284 C285 1.348 . S
C285 C280 1.353 . S
C285 C284 1.348 . S
C285 H337 0.929 . S
H286 C280 0.930 . S
H287 C283 0.930 . S
C288 N289 1.314 . S
C288 C290 1.353 . S
C288 H294 0.930 . S
N289 Li265 1.990 . S
N289 C288 1.314 . S
N289 C292 1.279 . S
C290 C288 1.353 . S
C290 C293 1.348 . S
C290 H338 0.929 . S
C291 C292 1.358 . S
C291 C293 1.356 . S
C291 H339 0.930 . S
C292 N289 1.279 . S
C292 C291 1.358 . S
C292 H295 0.930 . S
C293 C290 1.348 . S
C293 C291 1.356 . S
H294 C288 0.930 . S
H295 C292 0.930 . S
C296 C298 1.348 . S
C296 C299 1.356 . S
C296 O326 1.325 . S
N297 C300 1.314 . S
N297 C301 1.279 . S
C298 C296 1.348 . S
C298 C300 1.353 . S
C298 H340 0.929 . S
C299 C296 1.356 . S
C299 C301 1.358 . S
C299 H341 0.930 . S
C300 N297 1.314 . S
C300 C298 1.353 . S
C300 H342 0.930 . S
C301 N297 1.279 . S
C301 C299 1.358 . S
C301 H343 0.930 . S
C302 C303 1.348 . S
C302 C304 1.356 . S
C302 O327 1.325 . S
C303 C302 1.348 . S
C303 C305 1.353 . S
C303 H344 0.929 . S
C304 C302 1.356 . S
C304 C306 1.358 . S
C304 H345 0.930 . S
C305 C303 1.353 . S
C305 N307 1.314 . S
C305 H346 0.930 . S
C306 C304 1.358 . S
C306 N307 1.279 . S
C306 H347 0.930 . S
N307 C305 1.314 . S
N307 C306 1.279 . S
C308 C310 1.353 . S
C308 N311 1.314 . S
C308 H314 0.930 . S
C309 N311 1.279 . S
C309 C312 1.358 . S
C309 H315 0.930 . S
C310 C308 1.353 . S
C310 C313 1.348 . S
C310 H348 0.929 . S
N311 Li266 1.990 . S
N311 C308 1.314 . S
N311 C309 1.279 . S
C312 C309 1.358 . S
C312 C313 1.356 . S
C312 H349 0.930 . S
C313 C310 1.348 . S
C313 C312 1.356 . S
H314 C308 0.930 . S
H315 C309 0.930 . S
C316 N317 1.314 . S
C316 C318 1.353 . S
C316 H322 0.930 . S
N317 Li267 1.990 . S
N317 C316 1.314 . S
N317 C320 1.279 . S
C318 C316 1.353 . S
C318 C321 1.348 . S
C318 H350 0.929 . S
C319 C320 1.358 . S
C319 C321 1.356 . S
C319 H351 0.930 . S
C320 N317 1.279 . S
C320 C319 1.358 . S
C320 H323 0.930 . S
C321 C318 1.348 . S
C321 C319 1.356 . S
H322 C316 0.930 . S
H323 C320 0.930 . S
O324 Li264 1.956 . S
O324 Li265 1.970 . S
O324 Li266 1.961 . S
O324 C268 1.325 . S
O325 Li264 1.970 . S
O325 Li265 1.956 . S
O325 Li267 1.961 . S
O325 C274 1.325 . S
O326 Li264 1.961 . S
O326 Li266 1.956 . S
O326 Li267 1.970 . S
O326 C296 1.325 . S
O327 Li265 1.961 . S
O327 Li266 1.970 . S
O327 Li267 1.956 . S
O327 C302 1.325 . S
H328 C270 0.929 . S
H329 C271 0.930 . S
H330 C272 0.930 . S
H331 C273 0.930 . S
H332 C275 0.930 . S
H333 C277 0.929 . S
H334 C278 0.930 . S
H335 C279 0.930 . S
H336 C282 0.930 . S
H337 C285 0.929 . S
H338 C290 0.929 . S
H339 C291 0.930 . S
H340 C298 0.929 . S
H341 C299 0.930 . S
H342 C300 0.930 . S
H343 C301 0.930 . S
H344 C303 0.929 . S
H345 C304 0.930 . S
H346 C305 0.930 . S
H347 C306 0.930 . S
H348 C310 0.929 . S
H349 C312 0.930 . S
H350 C318 0.929 . S
H351 C319 0.930 . S
Li352 N369 1.990 . S
Li352 O412 1.956 . S
Li352 O413 1.970 . S
Li352 O414 1.961 . S
Li353 N377 1.990 . S
Li353 O412 1.970 . S
Li353 O413 1.956 . S
Li353 O415 1.961 . S
Li354 N399 1.990 . S
Li354 O412 1.961 . S
Li354 O414 1.956 . S
Li354 O415 1.970 . S
Li355 N405 1.990 . S
Li355 O413 1.961 . S
Li355 O414 1.970 . S
Li355 O415 1.956 . S
C356 C358 1.348 . S
C356 C359 1.356 . S
C356 O412 1.325 . S
N357 C360 1.314 . S
N357 C361 1.279 . S
C358 C356 1.348 . S
C358 C360 1.353 . S
C358 H416 0.929 . S
C359 C356 1.356 . S
C359 C361 1.358 . S
C359 H417 0.930 . S
C360 N357 1.314 . S
C360 C358 1.353 . S
C360 H418 0.930 . S
C361 N357 1.279 . S
C361 C359 1.358 . S
C361 H419 0.930 . S
C362 C365 1.348 . S
C362 C366 1.356 . S
C362 O413 1.325 . S
C363 N364 1.279 . S
C363 C366 1.358 . S
C363 H420 0.930 . S
N364 C363 1.279 . S
N364 C367 1.314 . S
C365 C362 1.348 . S
C365 C367 1.353 . S
C365 H421 0.929 . S
C366 C362 1.356 . S
C366 C363 1.358 . S
C366 H422 0.930 . S
C367 N364 1.314 . S
C367 C365 1.353 . S
C367 H423 0.930 . S
C368 N369 1.314 . S
C368 C373 1.353 . S
C368 H374 0.930 . S
N369 Li352 1.990 . S
N369 C368 1.314 . S
N369 C371 1.279 . S
C370 C371 1.358 . S
C370 C372 1.356 . S
C370 H424 0.930 . S
C371 N369 1.279 . S
C371 C370 1.358 . S
C371 H375 0.930 . S
C372 C370 1.356 . S
C372 C373 1.348 . S
C373 C368 1.353 . S
C373 C372 1.348 . S
C373 H425 0.929 . S
H374 C368 0.930 . S
H375 C371 0.930 . S
C376 N377 1.314 . S
C376 C378 1.353 . S
C376 H382 0.930 . S
N377 Li353 1.990 . S
N377 C376 1.314 . S
N377 C380 1.279 . S
C378 C376 1.353 . S
C378 C381 1.348 . S
C378 H426 0.929 . S
C379 C380 1.358 . S
C379 C381 1.356 . S
C379 H427 0.930 . S
C380 N377 1.279 . S
C380 C379 1.358 . S
C380 H383 0.930 . S
C381 C378 1.348 . S
C381 C379 1.356 . S
H382 C376 0.930 . S
H383 C380 0.930 . S
C384 C386 1.348 . S
C384 C387 1.356 . S
C384 O414 1.325 . S
N385 C388 1.314 . S
N385 C389 1.279 . S
C386 C384 1.348 . S
C386 C388 1.353 . S
C386 H428 0.929 . S
C387 C384 1.356 . S
C387 C389 1.358 . S
C387 H429 0.930 . S
C388 N385 1.314 . S
C388 C386 1.353 . S
C388 H430 0.930 . S
C389 N385 1.279 . S
C389 C387 1.358 . S
C389 H431 0.930 . S
C390 C391 1.348 . S
C390 C392 1.356 . S
C390 O415 1.325 . S
C391 C390 1.348 . S
C391 C393 1.353 . S
C391 H432 0.929 . S
C392 C390 1.356 . S
C392 C394 1.358 . S
C392 H433 0.930 . S
C393 C391 1.353 . S
C393 N395 1.314 . S
C393 H434 0.930 . S
C394 C392 1.358 . S
C394 N395 1.279 . S
C394 H435 0.930 . S
N395 C393 1.314 . S
N395 C394 1.279 . S
C396 C398 1.353 . S
C396 N399 1.314 . S
C396 H402 0.930 . S
C397 N399 1.279 . S
C397 C400 1.358 . S
C397 H403 0.930 . S
C398 C396 1.353 . S
C398 C401 1.348 . S
C398 H436 0.929 . S
N399 Li354 1.990 . S
N399 C396 1.314 . S
N399 C397 1.279 . S
C400 C397 1.358 . S
C400 C401 1.356 . S
C400 H437 0.930 . S
C401 C398 1.348 . S
C401 C400 1.356 . S
H402 C396 0.930 . S
H403 C397 0.930 . S
C404 N405 1.314 . S
C404 C406 1.353 . S
C404 H410 0.930 . S
N405 Li355 1.990 . S
N405 C404 1.314 . S
N405 C408 1.279 . S
C406 C404 1.353 . S
C406 C409 1.348 . S
C406 H438 0.929 . S
C407 C408 1.358 . S
C407 C409 1.356 . S
C407 H439 0.930 . S
C408 N405 1.279 . S
C408 C407 1.358 . S
C408 H411 0.930 . S
C409 C406 1.348 . S
C409 C407 1.356 . S
H410 C404 0.930 . S
H411 C408 0.930 . S
O412 Li352 1.956 . S
O412 Li353 1.970 . S
O412 Li354 1.961 . S
O412 C356 1.325 . S
O413 Li352 1.970 . S
O413 Li353 1.956 . S
O413 Li355 1.961 . S
O413 C362 1.325 . S
O414 Li352 1.961 . S
O414 Li354 1.956 . S
O414 Li355 1.970 . S
O414 C384 1.325 . S
O415 Li353 1.961 . S
O415 Li354 1.970 . S
O415 Li355 1.956 . S
O415 C390 1.325 . S
H416 C358 0.929 . S
H417 C359 0.930 . S
H418 C360 0.930 . S
H419 C361 0.930 . S
H420 C363 0.930 . S
H421 C365 0.929 . S
H422 C366 0.930 . S
H423 C367 0.930 . S
H424 C370 0.930 . S
H425 C373 0.929 . S
H426 C378 0.929 . S
H427 C379 0.930 . S
H428 C386 0.929 . S
H429 C387 0.930 . S
H430 C388 0.930 . S
H431 C389 0.930 . S
H432 C391 0.929 . S
H433 C392 0.930 . S
H434 C393 0.930 . S
H435 C394 0.930 . S
H436 C398 0.929 . S
H437 C400 0.930 . S
H438 C406 0.929 . S
H439 C407 0.930 . S
Li440 N457 1.990 . S
Li440 O500 1.956 . S
Li440 O501 1.970 . S
Li440 O502 1.961 . S
Li441 N465 1.990 . S
Li441 O500 1.970 . S
Li441 O501 1.956 . S
Li441 O503 1.961 . S
Li442 N487 1.990 . S
Li442 O500 1.961 . S
Li442 O502 1.956 . S
Li442 O503 1.970 . S
Li443 N493 1.990 . S
Li443 O501 1.961 . S
Li443 O502 1.970 . S
Li443 O503 1.956 . S
C444 C446 1.348 . S
C444 C447 1.356 . S
C444 O500 1.325 . S
N445 C448 1.314 . S
N445 C449 1.279 . S
C446 C444 1.348 . S
C446 C448 1.353 . S
C446 H504 0.929 . S
C447 C444 1.356 . S
C447 C449 1.358 . S
C447 H505 0.930 . S
C448 N445 1.314 . S
C448 C446 1.353 . S
C448 H506 0.930 . S
C449 N445 1.279 . S
C449 C447 1.358 . S
C449 H507 0.930 . S
C450 C453 1.348 . S
C450 C454 1.356 . S
C450 O501 1.325 . S
C451 N452 1.279 . S
C451 C454 1.358 . S
C451 H508 0.930 . S
N452 C451 1.279 . S
N452 C455 1.314 . S
C453 C450 1.348 . S
C453 C455 1.353 . S
C453 H509 0.929 . S
C454 C450 1.356 . S
C454 C451 1.358 . S
C454 H510 0.930 . S
C455 N452 1.314 . S
C455 C453 1.353 . S
C455 H511 0.930 . S
C456 N457 1.314 . S
C456 C461 1.353 . S
C456 H462 0.930 . S
N457 Li440 1.990 . S
N457 C456 1.314 . S
N457 C459 1.279 . S
C458 C459 1.358 . S
C458 C460 1.356 . S
C458 H512 0.930 . S
C459 N457 1.279 . S
C459 C458 1.358 . S
C459 H463 0.930 . S
C460 C458 1.356 . S
C460 C461 1.348 . S
C461 C456 1.353 . S
C461 C460 1.348 . S
C461 H513 0.929 . S
H462 C456 0.930 . S
H463 C459 0.930 . S
C464 N465 1.314 . S
C464 C466 1.353 . S
C464 H470 0.930 . S
N465 Li441 1.990 . S
N465 C464 1.314 . S
N465 C468 1.279 . S
C466 C464 1.353 . S
C466 C469 1.348 . S
C466 H514 0.929 . S
C467 C468 1.358 . S
C467 C469 1.356 . S
C467 H515 0.930 . S
C468 N465 1.279 . S
C468 C467 1.358 . S
C468 H471 0.930 . S
C469 C466 1.348 . S
C469 C467 1.356 . S
H470 C464 0.930 . S
H471 C468 0.930 . S
C472 C474 1.348 . S
C472 C475 1.356 . S
C472 O502 1.325 . S
N473 C476 1.314 . S
N473 C477 1.279 . S
C474 C472 1.348 . S
C474 C476 1.353 . S
C474 H516 0.929 . S
C475 C472 1.356 . S
C475 C477 1.358 . S
C475 H517 0.930 . S
C476 N473 1.314 . S
C476 C474 1.353 . S
C476 H518 0.930 . S
C477 N473 1.279 . S
C477 C475 1.358 . S
C477 H519 0.930 . S
C478 C479 1.348 . S
C478 C480 1.356 . S
C478 O503 1.325 . S
C479 C478 1.348 . S
C479 C481 1.353 . S
C479 H520 0.929 . S
C480 C478 1.356 . S
C480 C482 1.358 . S
C480 H521 0.930 . S
C481 C479 1.353 . S
C481 N483 1.314 . S
C481 H522 0.930 . S
C482 C480 1.358 . S
C482 N483 1.279 . S
C482 H523 0.930 . S
N483 C481 1.314 . S
N483 C482 1.279 . S
C484 C486 1.353 . S
C484 N487 1.314 . S
C484 H490 0.930 . S
C485 N487 1.279 . S
C485 C488 1.358 . S
C485 H491 0.930 . S
C486 C484 1.353 . S
C486 C489 1.348 . S
C486 H524 0.929 . S
N487 Li442 1.990 . S
N487 C484 1.314 . S
N487 C485 1.279 . S
C488 C485 1.358 . S
C488 C489 1.356 . S
C488 H525 0.930 . S
C489 C486 1.348 . S
C489 C488 1.356 . S
H490 C484 0.930 . S
H491 C485 0.930 . S
C492 N493 1.314 . S
C492 C494 1.353 . S
C492 H498 0.930 . S
N493 Li443 1.990 . S
N493 C492 1.314 . S
N493 C496 1.279 . S
C494 C492 1.353 . S
C494 C497 1.348 . S
C494 H526 0.929 . S
C495 C496 1.358 . S
C495 C497 1.356 . S
C495 H527 0.930 . S
C496 N493 1.279 . S
C496 C495 1.358 . S
C496 H499 0.930 . S
C497 C494 1.348 . S
C497 C495 1.356 . S
H498 C492 0.930 . S
H499 C496 0.930 . S
O500 Li440 1.956 . S
O500 Li441 1.970 . S
O500 Li442 1.961 . S
O500 C444 1.325 . S
O501 Li440 1.970 . S
O501 Li441 1.956 . S
O501 Li443 1.961 . S
O501 C450 1.325 . S
O502 Li440 1.961 . S
O502 Li442 1.956 . S
O502 Li443 1.970 . S
O502 C472 1.325 . S
O503 Li441 1.961 . S
O503 Li442 1.970 . S
O503 Li443 1.956 . S
O503 C478 1.325 . S
H504 C446 0.929 . S
H505 C447 0.930 . S
H506 C448 0.930 . S
H507 C449 0.930 . S
H508 C451 0.930 . S
H509 C453 0.929 . S
H510 C454 0.930 . S
H511 C455 0.930 . S
H512 C458 0.930 . S
H513 C461 0.929 . S
H514 C466 0.929 . S
H515 C467 0.930 . S
H516 C474 0.929 . S
H517 C475 0.930 . S
H518 C476 0.930 . S
H519 C477 0.930 . S
H520 C479 0.929 . S
H521 C480 0.930 . S
H522 C481 0.930 . S
H523 C482 0.930 . S
H524 C486 0.929 . S
H525 C488 0.930 . S
H526 C494 0.929 . S
H527 C495 0.930 . S
Li528 N545 1.990 . S
Li528 O588 1.956 . S
Li528 O589 1.970 . S
Li528 O590 1.961 . S
Li529 N553 1.990 . S
Li529 O588 1.970 . S
Li529 O589 1.956 . S
Li529 O591 1.961 . S
Li530 N575 1.990 . S
Li530 O588 1.961 . S
Li530 O590 1.956 . S
Li530 O591 1.970 . S
Li531 N581 1.990 . S
Li531 O589 1.961 . S
Li531 O590 1.970 . S
Li531 O591 1.956 . S
C532 C534 1.348 . S
C532 C535 1.356 . S
C532 O588 1.325 . S
N533 C536 1.314 . S
N533 C537 1.279 . S
C534 C532 1.348 . S
C534 C536 1.353 . S
C534 H592 0.929 . S
C535 C532 1.356 . S
C535 C537 1.358 . S
C535 H593 0.930 . S
C536 N533 1.314 . S
C536 C534 1.353 . S
C536 H594 0.930 . S
C537 N533 1.279 . S
C537 C535 1.358 . S
C537 H595 0.930 . S
C538 C541 1.348 . S
C538 C542 1.356 . S
C538 O589 1.325 . S
C539 N540 1.279 . S
C539 C542 1.358 . S
C539 H596 0.930 . S
N540 C539 1.279 . S
N540 C543 1.314 . S
C541 C538 1.348 . S
C541 C543 1.353 . S
C541 H597 0.929 . S
C542 C538 1.356 . S
C542 C539 1.358 . S
C542 H598 0.930 . S
C543 N540 1.314 . S
C543 C541 1.353 . S
C543 H599 0.930 . S
C544 N545 1.314 . S
C544 C549 1.353 . S
C544 H550 0.930 . S
N545 Li528 1.990 . S
N545 C544 1.314 . S
N545 C547 1.279 . S
C546 C547 1.358 . S
C546 C548 1.356 . S
C546 H600 0.930 . S
C547 N545 1.279 . S
C547 C546 1.358 . S
C547 H551 0.930 . S
C548 C546 1.356 . S
C548 C549 1.348 . S
C549 C544 1.353 . S
C549 C548 1.348 . S
C549 H601 0.929 . S
H550 C544 0.930 . S
H551 C547 0.930 . S
C552 N553 1.314 . S
C552 C554 1.353 . S
C552 H558 0.930 . S
N553 Li529 1.990 . S
N553 C552 1.314 . S
N553 C556 1.279 . S
C554 C552 1.353 . S
C554 C557 1.348 . S
C554 H602 0.929 . S
C555 C556 1.358 . S
C555 C557 1.356 . S
C555 H603 0.930 . S
C556 N553 1.279 . S
C556 C555 1.358 . S
C556 H559 0.930 . S
C557 C554 1.348 . S
C557 C555 1.356 . S
H558 C552 0.930 . S
H559 C556 0.930 . S
C560 C562 1.348 . S
C560 C563 1.356 . S
C560 O590 1.325 . S
N561 C564 1.314 . S
N561 C565 1.279 . S
C562 C560 1.348 . S
C562 C564 1.353 . S
C562 H604 0.929 . S
C563 C560 1.356 . S
C563 C565 1.358 . S
C563 H605 0.930 . S
C564 N561 1.314 . S
C564 C562 1.353 . S
C564 H606 0.930 . S
C565 N561 1.279 . S
C565 C563 1.358 . S
C565 H607 0.930 . S
C566 C567 1.348 . S
C566 C568 1.356 . S
C566 O591 1.325 . S
C567 C566 1.348 . S
C567 C569 1.353 . S
C567 H608 0.929 . S
C568 C566 1.356 . S
C568 C570 1.358 . S
C568 H609 0.930 . S
C569 C567 1.353 . S
C569 N571 1.314 . S
C569 H610 0.930 . S
C570 C568 1.358 . S
C570 N571 1.279 . S
C570 H611 0.930 . S
N571 C569 1.314 . S
N571 C570 1.279 . S
C572 C574 1.353 . S
C572 N575 1.314 . S
C572 H578 0.930 . S
C573 N575 1.279 . S
C573 C576 1.358 . S
C573 H579 0.930 . S
C574 C572 1.353 . S
C574 C577 1.348 . S
C574 H612 0.929 . S
N575 Li530 1.990 . S
N575 C572 1.314 . S
N575 C573 1.279 . S
C576 C573 1.358 . S
C576 C577 1.356 . S
C576 H613 0.930 . S
C577 C574 1.348 . S
C577 C576 1.356 . S
H578 C572 0.930 . S
H579 C573 0.930 . S
C580 N581 1.314 . S
C580 C582 1.353 . S
C580 H586 0.930 . S
N581 Li531 1.990 . S
N581 C580 1.314 . S
N581 C584 1.279 . S
C582 C580 1.353 . S
C582 C585 1.348 . S
C582 H614 0.929 . S
C583 C584 1.358 . S
C583 C585 1.356 . S
C583 H615 0.930 . S
C584 N581 1.279 . S
C584 C583 1.358 . S
C584 H587 0.930 . S
C585 C582 1.348 . S
C585 C583 1.356 . S
H586 C580 0.930 . S
H587 C584 0.930 . S
O588 Li528 1.956 . S
O588 Li529 1.970 . S
O588 Li530 1.961 . S
O588 C532 1.325 . S
O589 Li528 1.970 . S
O589 Li529 1.956 . S
O589 Li531 1.961 . S
O589 C538 1.325 . S
O590 Li528 1.961 . S
O590 Li530 1.956 . S
O590 Li531 1.970 . S
O590 C560 1.325 . S
O591 Li529 1.961 . S
O591 Li530 1.970 . S
O591 Li531 1.956 . S
O591 C566 1.325 . S
H592 C534 0.929 . S
H593 C535 0.930 . S
H594 C536 0.930 . S
H595 C537 0.930 . S
H596 C539 0.930 . S
H597 C541 0.929 . S
H598 C542 0.930 . S
H599 C543 0.930 . S
H600 C546 0.930 . S
H601 C549 0.929 . S
H602 C554 0.929 . S
H603 C555 0.930 . S
H604 C562 0.929 . S
H605 C563 0.930 . S
H606 C564 0.930 . S
H607 C565 0.930 . S
H608 C567 0.929 . S
H609 C568 0.930 . S
H610 C569 0.930 . S
H611 C570 0.930 . S
H612 C574 0.929 . S
H613 C576 0.930 . S
H614 C582 0.929 . S
H615 C583 0.930 . S
Li616 N633 1.990 . S
Li616 O676 1.956 . S
Li616 O677 1.970 . S
Li616 O678 1.961 . S
Li617 N641 1.990 . S
Li617 O676 1.970 . S
Li617 O677 1.956 . S
Li617 O679 1.961 . S
Li618 N663 1.990 . S
Li618 O676 1.961 . S
Li618 O678 1.956 . S
Li618 O679 1.970 . S
Li619 N669 1.990 . S
Li619 O677 1.961 . S
Li619 O678 1.970 . S
Li619 O679 1.956 . S
C620 C622 1.348 . S
C620 C623 1.356 . S
C620 O676 1.325 . S
N621 C624 1.314 . S
N621 C625 1.279 . S
C622 C620 1.348 . S
C622 C624 1.353 . S
C622 H680 0.929 . S
C623 C620 1.356 . S
C623 C625 1.358 . S
C623 H681 0.930 . S
C624 N621 1.314 . S
C624 C622 1.353 . S
C624 H682 0.930 . S
C625 N621 1.279 . S
C625 C623 1.358 . S
C625 H683 0.930 . S
C626 C629 1.348 . S
C626 C630 1.356 . S
C626 O677 1.325 . S
C627 N628 1.279 . S
C627 C630 1.358 . S
C627 H684 0.930 . S
N628 C627 1.279 . S
N628 C631 1.314 . S
C629 C626 1.348 . S
C629 C631 1.353 . S
C629 H685 0.929 . S
C630 C626 1.356 . S
C630 C627 1.358 . S
C630 H686 0.930 . S
C631 N628 1.314 . S
C631 C629 1.353 . S
C631 H687 0.930 . S
C632 N633 1.314 . S
C632 C637 1.353 . S
C632 H638 0.930 . S
N633 Li616 1.990 . S
N633 C632 1.314 . S
N633 C635 1.279 . S
C634 C635 1.358 . S
C634 C636 1.356 . S
C634 H688 0.930 . S
C635 N633 1.279 . S
C635 C634 1.358 . S
C635 H639 0.930 . S
C636 C634 1.356 . S
C636 C637 1.348 . S
C637 C632 1.353 . S
C637 C636 1.348 . S
C637 H689 0.929 . S
H638 C632 0.930 . S
H639 C635 0.930 . S
C640 N641 1.314 . S
C640 C642 1.353 . S
C640 H646 0.930 . S
N641 Li617 1.990 . S
N641 C640 1.314 . S
N641 C644 1.279 . S
C642 C640 1.353 . S
C642 C645 1.348 . S
C642 H690 0.929 . S
C643 C644 1.358 . S
C643 C645 1.356 . S
C643 H691 0.930 . S
C644 N641 1.279 . S
C644 C643 1.358 . S
C644 H647 0.930 . S
C645 C642 1.348 . S
C645 C643 1.356 . S
H646 C640 0.930 . S
H647 C644 0.930 . S
C648 C650 1.348 . S
C648 C651 1.356 . S
C648 O678 1.325 . S
N649 C652 1.314 . S
N649 C653 1.279 . S
C650 C648 1.348 . S
C650 C652 1.353 . S
C650 H692 0.929 . S
C651 C648 1.356 . S
C651 C653 1.358 . S
C651 H693 0.930 . S
C652 N649 1.314 . S
C652 C650 1.353 . S
C652 H694 0.930 . S
C653 N649 1.279 . S
C653 C651 1.358 . S
C653 H695 0.930 . S
C654 C655 1.348 . S
C654 C656 1.356 . S
C654 O679 1.325 . S
C655 C654 1.348 . S
C655 C657 1.353 . S
C655 H696 0.929 . S
C656 C654 1.356 . S
C656 C658 1.358 . S
C656 H697 0.930 . S
C657 C655 1.353 . S
C657 N659 1.314 . S
C657 H698 0.930 . S
C658 C656 1.358 . S
C658 N659 1.279 . S
C658 H699 0.930 . S
N659 C657 1.314 . S
N659 C658 1.279 . S
C660 C662 1.353 . S
C660 N663 1.314 . S
C660 H666 0.930 . S
C661 N663 1.279 . S
C661 C664 1.358 . S
C661 H667 0.930 . S
C662 C660 1.353 . S
C662 C665 1.348 . S
C662 H700 0.929 . S
N663 Li618 1.990 . S
N663 C660 1.314 . S
N663 C661 1.279 . S
C664 C661 1.358 . S
C664 C665 1.356 . S
C664 H701 0.930 . S
C665 C662 1.348 . S
C665 C664 1.356 . S
H666 C660 0.930 . S
H667 C661 0.930 . S
C668 N669 1.314 . S
C668 C670 1.353 . S
C668 H674 0.930 . S
N669 Li619 1.990 . S
N669 C668 1.314 . S
N669 C672 1.279 . S
C670 C668 1.353 . S
C670 C673 1.348 . S
C670 H702 0.929 . S
C671 C672 1.358 . S
C671 C673 1.356 . S
C671 H703 0.930 . S
C672 N669 1.279 . S
C672 C671 1.358 . S
C672 H675 0.930 . S
C673 C670 1.348 . S
C673 C671 1.356 . S
H674 C668 0.930 . S
H675 C672 0.930 . S
O676 Li616 1.956 . S
O676 Li617 1.970 . S
O676 Li618 1.961 . S
O676 C620 1.325 . S
O677 Li616 1.970 . S
O677 Li617 1.956 . S
O677 Li619 1.961 . S
O677 C626 1.325 . S
O678 Li616 1.961 . S
O678 Li618 1.956 . S
O678 Li619 1.970 . S
O678 C648 1.325 . S
O679 Li617 1.961 . S
O679 Li618 1.970 . S
O679 Li619 1.956 . S
O679 C654 1.325 . S
H680 C622 0.929 . S
H681 C623 0.930 . S
H682 C624 0.930 . S
H683 C625 0.930 . S
H684 C627 0.930 . S
H685 C629 0.929 . S
H686 C630 0.930 . S
H687 C631 0.930 . S
H688 C634 0.930 . S
H689 C637 0.929 . S
H690 C642 0.929 . S
H691 C643 0.930 . S
H692 C650 0.929 . S
H693 C651 0.930 . S
H694 C652 0.930 . S
H695 C653 0.930 . S
H696 C655 0.929 . S
H697 C656 0.930 . S
H698 C657 0.930 . S
H699 C658 0.930 . S
H700 C662 0.929 . S
H701 C664 0.930 . S
H702 C670 0.929 . S
H703 C671 0.930 . S
Li704 N721 1.990 . S
Li704 O764 1.956 . S
Li704 O765 1.970 . S
Li704 O766 1.961 . S
Li705 N729 1.990 . S
Li705 O764 1.970 . S
Li705 O765 1.956 . S
Li705 O767 1.961 . S
Li706 N751 1.990 . S
Li706 O764 1.961 . S
Li706 O766 1.956 . S
Li706 O767 1.970 . S
Li707 N757 1.990 . S
Li707 O765 1.961 . S
Li707 O766 1.970 . S
Li707 O767 1.956 . S
C708 C710 1.348 . S
C708 C711 1.356 . S
C708 O764 1.325 . S
N709 C712 1.314 . S
N709 C713 1.279 . S
C710 C708 1.348 . S
C710 C712 1.353 . S
C710 H768 0.929 . S
C711 C708 1.356 . S
C711 C713 1.358 . S
C711 H769 0.930 . S
C712 N709 1.314 . S
C712 C710 1.353 . S
C712 H770 0.930 . S
C713 N709 1.279 . S
C713 C711 1.358 . S
C713 H771 0.930 . S
C714 C717 1.348 . S
C714 C718 1.356 . S
C714 O765 1.325 . S
C715 N716 1.279 . S
C715 C718 1.358 . S
C715 H772 0.930 . S
N716 C715 1.279 . S
N716 C719 1.314 . S
C717 C714 1.348 . S
C717 C719 1.353 . S
C717 H773 0.929 . S
C718 C714 1.356 . S
C718 C715 1.358 . S
C718 H774 0.930 . S
C719 N716 1.314 . S
C719 C717 1.353 . S
C719 H775 0.930 . S
C720 N721 1.314 . S
C720 C725 1.353 . S
C720 H726 0.930 . S
N721 Li704 1.990 . S
N721 C720 1.314 . S
N721 C723 1.279 . S
C722 C723 1.358 . S
C722 C724 1.356 . S
C722 H776 0.930 . S
C723 N721 1.279 . S
C723 C722 1.358 . S
C723 H727 0.930 . S
C724 C722 1.356 . S
C724 C725 1.348 . S
C725 C720 1.353 . S
C725 C724 1.348 . S
C725 H777 0.929 . S
H726 C720 0.930 . S
H727 C723 0.930 . S
C728 N729 1.314 . S
C728 C730 1.353 . S
C728 H734 0.930 . S
N729 Li705 1.990 . S
N729 C728 1.314 . S
N729 C732 1.279 . S
C730 C728 1.353 . S
C730 C733 1.348 . S
C730 H778 0.929 . S
C731 C732 1.358 . S
C731 C733 1.356 . S
C731 H779 0.930 . S
C732 N729 1.279 . S
C732 C731 1.358 . S
C732 H735 0.930 . S
C733 C730 1.348 . S
C733 C731 1.356 . S
H734 C728 0.930 . S
H735 C732 0.930 . S
C736 C738 1.348 . S
C736 C739 1.356 . S
C736 O766 1.325 . S
N737 C740 1.314 . S
N737 C741 1.279 . S
C738 C736 1.348 . S
C738 C740 1.353 . S
C738 H780 0.929 . S
C739 C736 1.356 . S
C739 C741 1.358 . S
C739 H781 0.930 . S
C740 N737 1.314 . S
C740 C738 1.353 . S
C740 H782 0.930 . S
C741 N737 1.279 . S
C741 C739 1.358 . S
C741 H783 0.930 . S
C742 C743 1.348 . S
C742 C744 1.356 . S
C742 O767 1.325 . S
C743 C742 1.348 . S
C743 C745 1.353 . S
C743 H784 0.929 . S
C744 C742 1.356 . S
C744 C746 1.358 . S
C744 H785 0.930 . S
C745 C743 1.353 . S
C745 N747 1.314 . S
C745 H786 0.930 . S
C746 C744 1.358 . S
C746 N747 1.279 . S
C746 H787 0.930 . S
N747 C745 1.314 . S
N747 C746 1.279 . S
C748 C750 1.353 . S
C748 N751 1.314 . S
C748 H754 0.930 . S
C749 N751 1.279 . S
C749 C752 1.358 . S
C749 H755 0.930 . S
C750 C748 1.353 . S
C750 C753 1.348 . S
C750 H788 0.929 . S
N751 Li706 1.990 . S
N751 C748 1.314 . S
N751 C749 1.279 . S
C752 C749 1.358 . S
C752 C753 1.356 . S
C752 H789 0.930 . S
C753 C750 1.348 . S
C753 C752 1.356 . S
H754 C748 0.930 . S
H755 C749 0.930 . S
C756 N757 1.314 . S
C756 C758 1.353 . S
C756 H762 0.930 . S
N757 Li707 1.990 . S
N757 C756 1.314 . S
N757 C760 1.279 . S
C758 C756 1.353 . S
C758 C761 1.348 . S
C758 H790 0.929 . S
C759 C760 1.358 . S
C759 C761 1.356 . S
C759 H791 0.930 . S
C760 N757 1.279 . S
C760 C759 1.358 . S
C760 H763 0.930 . S
C761 C758 1.348 . S
C761 C759 1.356 . S
H762 C756 0.930 . S
H763 C760 0.930 . S
O764 Li704 1.956 . S
O764 Li705 1.970 . S
O764 Li706 1.961 . S
O764 C708 1.325 . S
O765 Li704 1.970 . S
O765 Li705 1.956 . S
O765 Li707 1.961 . S
O765 C714 1.325 . S
O766 Li704 1.961 . S
O766 Li706 1.956 . S
O766 Li707 1.970 . S
O766 C736 1.325 . S
O767 Li705 1.961 . S
O767 Li706 1.970 . S
O767 Li707 1.956 . S
O767 C742 1.325 . S
H768 C710 0.929 . S
H769 C711 0.930 . S
H770 C712 0.930 . S
H771 C713 0.930 . S
H772 C715 0.930 . S
H773 C717 0.929 . S
H774 C718 0.930 . S
H775 C719 0.930 . S
H776 C722 0.930 . S
H777 C725 0.929 . S
H778 C730 0.929 . S
H779 C731 0.930 . S
H780 C738 0.929 . S
H781 C739 0.930 . S
H782 C740 0.930 . S
H783 C741 0.930 . S
H784 C743 0.929 . S
H785 C744 0.930 . S
H786 C745 0.930 . S
H787 C746 0.930 . S
H788 C750 0.929 . S
H789 C752 0.930 . S
H790 C758 0.929 . S
H791 C759 0.930 . S
Li792 N809 1.990 . S
Li792 O852 1.956 . S
Li792 O853 1.970 . S
Li792 O854 1.961 . S
Li793 N817 1.990 . S
Li793 O852 1.970 . S
Li793 O853 1.956 . S
Li793 O855 1.961 . S
Li794 N839 1.990 . S
Li794 O852 1.961 . S
Li794 O854 1.956 . S
Li794 O855 1.970 . S
Li795 N845 1.990 . S
Li795 O853 1.961 . S
Li795 O854 1.970 . S
Li795 O855 1.956 . S
C796 C798 1.348 . S
C796 C799 1.356 . S
C796 O852 1.325 . S
N797 C800 1.314 . S
N797 C801 1.279 . S
C798 C796 1.348 . S
C798 C800 1.353 . S
C798 H856 0.929 . S
C799 C796 1.356 . S
C799 C801 1.358 . S
C799 H857 0.930 . S
C800 N797 1.314 . S
C800 C798 1.353 . S
C800 H858 0.930 . S
C801 N797 1.279 . S
C801 C799 1.358 . S
C801 H859 0.930 . S
C802 C805 1.348 . S
C802 C806 1.356 . S
C802 O853 1.325 . S
C803 N804 1.279 . S
C803 C806 1.358 . S
C803 H860 0.930 . S
N804 C803 1.279 . S
N804 C807 1.314 . S
C805 C802 1.348 . S
C805 C807 1.353 . S
C805 H861 0.929 . S
C806 C802 1.356 . S
C806 C803 1.358 . S
C806 H862 0.930 . S
C807 N804 1.314 . S
C807 C805 1.353 . S
C807 H863 0.930 . S
C808 N809 1.314 . S
C808 C813 1.353 . S
C808 H814 0.930 . S
N809 Li792 1.990 . S
N809 C808 1.314 . S
N809 C811 1.279 . S
C810 C811 1.358 . S
C810 C812 1.356 . S
C810 H864 0.930 . S
C811 N809 1.279 . S
C811 C810 1.358 . S
C811 H815 0.930 . S
C812 C810 1.356 . S
C812 C813 1.348 . S
C813 C808 1.353 . S
C813 C812 1.348 . S
C813 H865 0.929 . S
H814 C808 0.930 . S
H815 C811 0.930 . S
C816 N817 1.314 . S
C816 C818 1.353 . S
C816 H822 0.930 . S
N817 Li793 1.990 . S
N817 C816 1.314 . S
N817 C820 1.279 . S
C818 C816 1.353 . S
C818 C821 1.348 . S
C818 H866 0.929 . S
C819 C820 1.358 . S
C819 C821 1.356 . S
C819 H867 0.930 . S
C820 N817 1.279 . S
C820 C819 1.358 . S
C820 H823 0.930 . S
C821 C818 1.348 . S
C821 C819 1.356 . S
H822 C816 0.930 . S
H823 C820 0.930 . S
C824 C826 1.348 . S
C824 C827 1.356 . S
C824 O854 1.325 . S
N825 C828 1.314 . S
N825 C829 1.279 . S
C826 C824 1.348 . S
C826 C828 1.353 . S
C826 H868 0.929 . S
C827 C824 1.356 . S
C827 C829 1.358 . S
C827 H869 0.930 . S
C828 N825 1.314 . S
C828 C826 1.353 . S
C828 H870 0.930 . S
C829 N825 1.279 . S
C829 C827 1.358 . S
C829 H871 0.930 . S
C830 C831 1.348 . S
C830 C832 1.356 . S
C830 O855 1.325 . S
C831 C830 1.348 . S
C831 C833 1.353 . S
C831 H872 0.929 . S
C832 C830 1.356 . S
C832 C834 1.358 . S
C832 H873 0.930 . S
C833 C831 1.353 . S
C833 N835 1.314 . S
C833 H874 0.930 . S
C834 C832 1.358 . S
C834 N835 1.279 . S
C834 H875 0.930 . S
N835 C833 1.314 . S
N835 C834 1.279 . S
C836 C838 1.353 . S
C836 N839 1.314 . S
C836 H842 0.930 . S
C837 N839 1.279 . S
C837 C840 1.358 . S
C837 H843 0.930 . S
C838 C836 1.353 . S
C838 C841 1.348 . S
C838 H876 0.929 . S
N839 Li794 1.990 . S
N839 C836 1.314 . S
N839 C837 1.279 . S
C840 C837 1.358 . S
C840 C841 1.356 . S
C840 H877 0.930 . S
C841 C838 1.348 . S
C841 C840 1.356 . S
H842 C836 0.930 . S
H843 C837 0.930 . S
C844 N845 1.314 . S
C844 C846 1.353 . S
C844 H850 0.930 . S
N845 Li795 1.990 . S
N845 C844 1.314 . S
N845 C848 1.279 . S
C846 C844 1.353 . S
C846 C849 1.348 . S
C846 H878 0.929 . S
C847 C848 1.358 . S
C847 C849 1.356 . S
C847 H879 0.930 . S
C848 N845 1.279 . S
C848 C847 1.358 . S
C848 H851 0.930 . S
C849 C846 1.348 . S
C849 C847 1.356 . S
H850 C844 0.930 . S
H851 C848 0.930 . S
O852 Li792 1.956 . S
O852 Li793 1.970 . S
O852 Li794 1.961 . S
O852 C796 1.325 . S
O853 Li792 1.970 . S
O853 Li793 1.956 . S
O853 Li795 1.961 . S
O853 C802 1.325 . S
O854 Li792 1.961 . S
O854 Li794 1.956 . S
O854 Li795 1.970 . S
O854 C824 1.325 . S
O855 Li793 1.961 . S
O855 Li794 1.970 . S
O855 Li795 1.956 . S
O855 C830 1.325 . S
H856 C798 0.929 . S
H857 C799 0.930 . S
H858 C800 0.930 . S
H859 C801 0.930 . S
H860 C803 0.930 . S
H861 C805 0.929 . S
H862 C806 0.930 . S
H863 C807 0.930 . S
H864 C810 0.930 . S
H865 C813 0.929 . S
H866 C818 0.929 . S
H867 C819 0.930 . S
H868 C826 0.929 . S
H869 C827 0.930 . S
H870 C828 0.930 . S
H871 C829 0.930 . S
H872 C831 0.929 . S
H873 C832 0.930 . S
H874 C833 0.930 . S
H875 C834 0.930 . S
H876 C838 0.929 . S
H877 C840 0.930 . S
H878 C846 0.929 . S
H879 C847 0.930 . S
Li880 N897 1.990 . S
Li880 O940 1.956 . S
Li880 O941 1.970 . S
Li880 O942 1.961 . S
Li881 N905 1.990 . S
Li881 O940 1.970 . S
Li881 O941 1.956 . S
Li881 O943 1.961 . S
Li882 N927 1.990 . S
Li882 O940 1.961 . S
Li882 O942 1.956 . S
Li882 O943 1.970 . S
Li883 N933 1.990 . S
Li883 O941 1.961 . S
Li883 O942 1.970 . S
Li883 O943 1.956 . S
C884 C886 1.348 . S
C884 C887 1.356 . S
C884 O940 1.325 . S
N885 C888 1.314 . S
N885 C889 1.279 . S
C886 C884 1.348 . S
C886 C888 1.353 . S
C886 H944 0.929 . S
C887 C884 1.356 . S
C887 C889 1.358 . S
C887 H945 0.930 . S
C888 N885 1.314 . S
C888 C886 1.353 . S
C888 H946 0.930 . S
C889 N885 1.279 . S
C889 C887 1.358 . S
C889 H947 0.930 . S
C890 C893 1.348 . S
C890 C894 1.356 . S
C890 O941 1.325 . S
C891 N892 1.279 . S
C891 C894 1.358 . S
C891 H948 0.930 . S
N892 C891 1.279 . S
N892 C895 1.314 . S
C893 C890 1.348 . S
C893 C895 1.353 . S
C893 H949 0.929 . S
C894 C890 1.356 . S
C894 C891 1.358 . S
C894 H950 0.930 . S
C895 N892 1.314 . S
C895 C893 1.353 . S
C895 H951 0.930 . S
C896 N897 1.314 . S
C896 C901 1.353 . S
C896 H902 0.930 . S
N897 Li880 1.990 . S
N897 C896 1.314 . S
N897 C899 1.279 . S
C898 C899 1.358 . S
C898 C900 1.356 . S
C898 H952 0.930 . S
C899 N897 1.279 . S
C899 C898 1.358 . S
C899 H903 0.930 . S
C900 C898 1.356 . S
C900 C901 1.348 . S
C901 C896 1.353 . S
C901 C900 1.348 . S
C901 H953 0.929 . S
H902 C896 0.930 . S
H903 C899 0.930 . S
C904 N905 1.314 . S
C904 C906 1.353 . S
C904 H910 0.930 . S
N905 Li881 1.990 . S
N905 C904 1.314 . S
N905 C908 1.279 . S
C906 C904 1.353 . S
C906 C909 1.348 . S
C906 H954 0.929 . S
C907 C908 1.358 . S
C907 C909 1.356 . S
C907 H955 0.930 . S
C908 N905 1.279 . S
C908 C907 1.358 . S
C908 H911 0.930 . S
C909 C906 1.348 . S
C909 C907 1.356 . S
H910 C904 0.930 . S
H911 C908 0.930 . S
C912 C914 1.348 . S
C912 C915 1.356 . S
C912 O942 1.325 . S
N913 C916 1.314 . S
N913 C917 1.279 . S
C914 C912 1.348 . S
C914 C916 1.353 . S
C914 H956 0.929 . S
C915 C912 1.356 . S
C915 C917 1.358 . S
C915 H957 0.930 . S
C916 N913 1.314 . S
C916 C914 1.353 . S
C916 H958 0.930 . S
C917 N913 1.279 . S
C917 C915 1.358 . S
C917 H959 0.930 . S
C918 C919 1.348 . S
C918 C920 1.356 . S
C918 O943 1.325 . S
C919 C918 1.348 . S
C919 C921 1.353 . S
C919 H960 0.929 . S
C920 C918 1.356 . S
C920 C922 1.358 . S
C920 H961 0.930 . S
C921 C919 1.353 . S
C921 N923 1.314 . S
C921 H962 0.930 . S
C922 C920 1.358 . S
C922 N923 1.279 . S
C922 H963 0.930 . S
N923 C921 1.314 . S
N923 C922 1.279 . S
C924 C926 1.353 . S
C924 N927 1.314 . S
C924 H930 0.930 . S
C925 N927 1.279 . S
C925 C928 1.358 . S
C925 H931 0.930 . S
C926 C924 1.353 . S
C926 C929 1.348 . S
C926 H964 0.929 . S
N927 Li882 1.990 . S
N927 C924 1.314 . S
N927 C925 1.279 . S
C928 C925 1.358 . S
C928 C929 1.356 . S
C928 H965 0.930 . S
C929 C926 1.348 . S
C929 C928 1.356 . S
H930 C924 0.930 . S
H931 C925 0.930 . S
C932 N933 1.314 . S
C932 C934 1.353 . S
C932 H938 0.930 . S
N933 Li883 1.990 . S
N933 C932 1.314 . S
N933 C936 1.279 . S
C934 C932 1.353 . S
C934 C937 1.348 . S
C934 H966 0.929 . S
C935 C936 1.358 . S
C935 C937 1.356 . S
C935 H967 0.930 . S
C936 N933 1.279 . S
C936 C935 1.358 . S
C936 H939 0.930 . S
C937 C934 1.348 . S
C937 C935 1.356 . S
H938 C932 0.930 . S
H939 C936 0.930 . S
O940 Li880 1.956 . S
O940 Li881 1.970 . S
O940 Li882 1.961 . S
O940 C884 1.325 . S
O941 Li880 1.970 . S
O941 Li881 1.956 . S
O941 Li883 1.961 . S
O941 C890 1.325 . S
O942 Li880 1.961 . S
O942 Li882 1.956 . S
O942 Li883 1.970 . S
O942 C912 1.325 . S
O943 Li881 1.961 . S
O943 Li882 1.970 . S
O943 Li883 1.956 . S
O943 C918 1.325 . S
H944 C886 0.929 . S
H945 C887 0.930 . S
H946 C888 0.930 . S
H947 C889 0.930 . S
H948 C891 0.930 . S
H949 C893 0.929 . S
H950 C894 0.930 . S
H951 C895 0.930 . S
H952 C898 0.930 . S
H953 C901 0.929 . S
H954 C906 0.929 . S
H955 C907 0.930 . S
H956 C914 0.929 . S
H957 C915 0.930 . S
H958 C916 0.930 . S
H959 C917 0.930 . S
H960 C919 0.929 . S
H961 C920 0.930 . S
H962 C921 0.930 . S
H963 C922 0.930 . S
H964 C926 0.929 . S
H965 C928 0.930 . S
H966 C934 0.929 . S
H967 C935 0.930 . S
Li968 N985 1.990 . S
Li968 O1028 1.956 . S
Li968 O1029 1.970 . S
Li968 O1030 1.961 . S
Li969 N993 1.990 . S
Li969 O1028 1.970 . S
Li969 O1029 1.956 . S
Li969 O1031 1.961 . S
Li970 N1015 1.990 . S
Li970 O1028 1.961 . S
Li970 O1030 1.956 . S
Li970 O1031 1.970 . S
Li971 N1021 1.990 . S
Li971 O1029 1.961 . S
Li971 O1030 1.970 . S
Li971 O1031 1.956 . S
C972 C974 1.348 . S
C972 C975 1.356 . S
C972 O1028 1.325 . S
N973 C976 1.314 . S
N973 C977 1.279 . S
C974 C972 1.348 . S
C974 C976 1.353 . S
C974 H1032 0.929 . S
C975 C972 1.356 . S
C975 C977 1.358 . S
C975 H1033 0.930 . S
C976 N973 1.314 . S
C976 C974 1.353 . S
C976 H1034 0.930 . S
C977 N973 1.279 . S
C977 C975 1.358 . S
C977 H1035 0.930 . S
C978 C981 1.348 . S
C978 C982 1.356 . S
C978 O1029 1.325 . S
C979 N980 1.279 . S
C979 C982 1.358 . S
C979 H1036 0.930 . S
N980 C979 1.279 . S
N980 C983 1.314 . S
C981 C978 1.348 . S
C981 C983 1.353 . S
C981 H1037 0.929 . S
C982 C978 1.356 . S
C982 C979 1.358 . S
C982 H1038 0.930 . S
C983 N980 1.314 . S
C983 C981 1.353 . S
C983 H1039 0.930 . S
C984 N985 1.314 . S
C984 C989 1.353 . S
C984 H990 0.930 . S
N985 Li968 1.990 . S
N985 C984 1.314 . S
N985 C987 1.279 . S
C986 C987 1.358 . S
C986 C988 1.356 . S
C986 H1040 0.930 . S
C987 N985 1.279 . S
C987 C986 1.358 . S
C987 H991 0.930 . S
C988 C986 1.356 . S
C988 C989 1.348 . S
C989 C984 1.353 . S
C989 C988 1.348 . S
C989 H1041 0.929 . S
H990 C984 0.930 . S
H991 C987 0.930 . S
C992 N993 1.314 . S
C992 C994 1.353 . S
C992 H998 0.930 . S
N993 Li969 1.990 . S
N993 C992 1.314 . S
N993 C996 1.279 . S
C994 C992 1.353 . S
C994 C997 1.348 . S
C994 H1042 0.929 . S
C995 C996 1.358 . S
C995 C997 1.356 . S
C995 H1043 0.930 . S
C996 N993 1.279 . S
C996 C995 1.358 . S
C996 H999 0.930 . S
C997 C994 1.348 . S
C997 C995 1.356 . S
H998 C992 0.930 . S
H999 C996 0.930 . S
C1000 C1002 1.348 . S
C1000 C1003 1.356 . S
C1000 O1030 1.325 . S
N1001 C1004 1.314 . S
N1001 C1005 1.279 . S
C1002 C1000 1.348 . S
C1002 C1004 1.353 . S
C1002 H1044 0.929 . S
C1003 C1000 1.356 . S
C1003 C1005 1.358 . S
C1003 H1045 0.930 . S
C1004 N1001 1.314 . S
C1004 C1002 1.353 . S
C1004 H1046 0.930 . S
C1005 N1001 1.279 . S
C1005 C1003 1.358 . S
C1005 H1047 0.930 . S
C1006 C1007 1.348 . S
C1006 C1008 1.356 . S
C1006 O1031 1.325 . S
C1007 C1006 1.348 . S
C1007 C1009 1.353 . S
C1007 H1048 0.929 . S
C1008 C1006 1.356 . S
C1008 C1010 1.358 . S
C1008 H1049 0.930 . S
C1009 C1007 1.353 . S
C1009 N1011 1.314 . S
C1009 H1050 0.930 . S
C1010 C1008 1.358 . S
C1010 N1011 1.279 . S
C1010 H1051 0.930 . S
N1011 C1009 1.314 . S
N1011 C1010 1.279 . S
C1012 C1014 1.353 . S
C1012 N1015 1.314 . S
C1012 H1018 0.930 . S
C1013 N1015 1.279 . S
C1013 C1016 1.358 . S
C1013 H1019 0.930 . S
C1014 C1012 1.353 . S
C1014 C1017 1.348 . S
C1014 H1052 0.929 . S
N1015 Li970 1.990 . S
N1015 C1012 1.314 . S
N1015 C1013 1.279 . S
C1016 C1013 1.358 . S
C1016 C1017 1.356 . S
C1016 H1053 0.930 . S
C1017 C1014 1.348 . S
C1017 C1016 1.356 . S
H1018 C1012 0.930 . S
H1019 C1013 0.930 . S
C1020 N1021 1.314 . S
C1020 C1022 1.353 . S
C1020 H1026 0.930 . S
N1021 Li971 1.990 . S
N1021 C1020 1.314 . S
N1021 C1024 1.279 . S
C1022 C1020 1.353 . S
C1022 C1025 1.348 . S
C1022 H1054 0.929 . S
C1023 C1024 1.358 . S
C1023 C1025 1.356 . S
C1023 H1055 0.930 . S
C1024 N1021 1.279 . S
C1024 C1023 1.358 . S
C1024 H1027 0.930 . S
C1025 C1022 1.348 . S
C1025 C1023 1.356 . S
H1026 C1020 0.930 . S
H1027 C1024 0.930 . S
O1028 Li968 1.956 . S
O1028 Li969 1.970 . S
O1028 Li970 1.961 . S
O1028 C972 1.325 . S
O1029 Li968 1.970 . S
O1029 Li969 1.956 . S
O1029 Li971 1.961 . S
O1029 C978 1.325 . S
O1030 Li968 1.961 . S
O1030 Li970 1.956 . S
O1030 Li971 1.970 . S
O1030 C1000 1.325 . S
O1031 Li969 1.961 . S
O1031 Li970 1.970 . S
O1031 Li971 1.956 . S
O1031 C1006 1.325 . S
H1032 C974 0.929 . S
H1033 C975 0.930 . S
H1034 C976 0.930 . S
H1035 C977 0.930 . S
H1036 C979 0.930 . S
H1037 C981 0.929 . S
H1038 C982 0.930 . S
H1039 C983 0.930 . S
H1040 C986 0.930 . S
H1041 C989 0.929 . S
H1042 C994 0.929 . S
H1043 C995 0.930 . S
H1044 C1002 0.929 . S
H1045 C1003 0.930 . S
H1046 C1004 0.930 . S
H1047 C1005 0.930 . S
H1048 C1007 0.929 . S
H1049 C1008 0.930 . S
H1050 C1009 0.930 . S
H1051 C1010 0.930 . S
H1052 C1014 0.929 . S
H1053 C1016 0.930 . S
H1054 C1022 0.929 . S
H1055 C1023 0.930 . S
Li1056 N1073 1.990 . S
Li1056 O1116 1.956 . S
Li1056 O1117 1.970 . S
Li1056 O1118 1.961 . S
Li1057 N1081 1.990 . S
Li1057 O1116 1.970 . S
Li1057 O1117 1.956 . S
Li1057 O1119 1.961 . S
Li1058 N1103 1.990 . S
Li1058 O1116 1.961 . S
Li1058 O1118 1.956 . S
Li1058 O1119 1.970 . S
Li1059 N1109 1.990 . S
Li1059 O1117 1.961 . S
Li1059 O1118 1.970 . S
Li1059 O1119 1.956 . S
C1060 C1062 1.348 . S
C1060 C1063 1.356 . S
C1060 O1116 1.325 . S
N1061 C1064 1.314 . S
N1061 C1065 1.279 . S
C1062 C1060 1.348 . S
C1062 C1064 1.353 . S
C1062 H1120 0.929 . S
C1063 C1060 1.356 . S
C1063 C1065 1.358 . S
C1063 H1121 0.930 . S
C1064 N1061 1.314 . S
C1064 C1062 1.353 . S
C1064 H1122 0.930 . S
C1065 N1061 1.279 . S
C1065 C1063 1.358 . S
C1065 H1123 0.930 . S
C1066 C1069 1.348 . S
C1066 C1070 1.356 . S
C1066 O1117 1.325 . S
C1067 N1068 1.279 . S
C1067 C1070 1.358 . S
C1067 H1124 0.930 . S
N1068 C1067 1.279 . S
N1068 C1071 1.314 . S
C1069 C1066 1.348 . S
C1069 C1071 1.353 . S
C1069 H1125 0.929 . S
C1070 C1066 1.356 . S
C1070 C1067 1.358 . S
C1070 H1126 0.930 . S
C1071 N1068 1.314 . S
C1071 C1069 1.353 . S
C1071 H1127 0.930 . S
C1072 N1073 1.314 . S
C1072 C1077 1.353 . S
C1072 H1078 0.930 . S
N1073 Li1056 1.990 . S
N1073 C1072 1.314 . S
N1073 C1075 1.279 . S
C1074 C1075 1.358 . S
C1074 C1076 1.356 . S
C1074 H1128 0.930 . S
C1075 N1073 1.279 . S
C1075 C1074 1.358 . S
C1075 H1079 0.930 . S
C1076 C1074 1.356 . S
C1076 C1077 1.348 . S
C1077 C1072 1.353 . S
C1077 C1076 1.348 . S
C1077 H1129 0.929 . S
H1078 C1072 0.930 . S
H1079 C1075 0.930 . S
C1080 N1081 1.314 . S
C1080 C1082 1.353 . S
C1080 H1086 0.930 . S
N1081 Li1057 1.990 . S
N1081 C1080 1.314 . S
N1081 C1084 1.279 . S
C1082 C1080 1.353 . S
C1082 C1085 1.348 . S
C1082 H1130 0.929 . S
C1083 C1084 1.358 . S
C1083 C1085 1.356 . S
C1083 H1131 0.930 . S
C1084 N1081 1.279 . S
C1084 C1083 1.358 . S
C1084 H1087 0.930 . S
C1085 C1082 1.348 . S
C1085 C1083 1.356 . S
H1086 C1080 0.930 . S
H1087 C1084 0.930 . S
C1088 C1090 1.348 . S
C1088 C1091 1.356 . S
C1088 O1118 1.325 . S
N1089 C1092 1.314 . S
N1089 C1093 1.279 . S
C1090 C1088 1.348 . S
C1090 C1092 1.353 . S
C1090 H1132 0.929 . S
C1091 C1088 1.356 . S
C1091 C1093 1.358 . S
C1091 H1133 0.930 . S
C1092 N1089 1.314 . S
C1092 C1090 1.353 . S
C1092 H1134 0.930 . S
C1093 N1089 1.279 . S
C1093 C1091 1.358 . S
C1093 H1135 0.930 . S
C1094 C1095 1.348 . S
C1094 C1096 1.356 . S
C1094 O1119 1.325 . S
C1095 C1094 1.348 . S
C1095 C1097 1.353 . S
C1095 H1136 0.929 . S
C1096 C1094 1.356 . S
C1096 C1098 1.358 . S
C1096 H1137 0.930 . S
C1097 C1095 1.353 . S
C1097 N1099 1.314 . S
C1097 H1138 0.930 . S
C1098 C1096 1.358 . S
C1098 N1099 1.279 . S
C1098 H1139 0.930 . S
N1099 C1097 1.314 . S
N1099 C1098 1.279 . S
C1100 C1102 1.353 . S
C1100 N1103 1.314 . S
C1100 H1106 0.930 . S
C1101 N1103 1.279 . S
C1101 C1104 1.358 . S
C1101 H1107 0.930 . S
C1102 C1100 1.353 . S
C1102 C1105 1.348 . S
C1102 H1140 0.929 . S
N1103 Li1058 1.990 . S
N1103 C1100 1.314 . S
N1103 C1101 1.279 . S
C1104 C1101 1.358 . S
C1104 C1105 1.356 . S
C1104 H1141 0.930 . S
C1105 C1102 1.348 . S
C1105 C1104 1.356 . S
H1106 C1100 0.930 . S
H1107 C1101 0.930 . S
C1108 N1109 1.314 . S
C1108 C1110 1.353 . S
C1108 H1114 0.930 . S
N1109 Li1059 1.990 . S
N1109 C1108 1.314 . S
N1109 C1112 1.279 . S
C1110 C1108 1.353 . S
C1110 C1113 1.348 . S
C1110 H1142 0.929 . S
C1111 C1112 1.358 . S
C1111 C1113 1.356 . S
C1111 H1143 0.930 . S
C1112 N1109 1.279 . S
C1112 C1111 1.358 . S
C1112 H1115 0.930 . S
C1113 C1110 1.348 . S
C1113 C1111 1.356 . S
H1114 C1108 0.930 . S
H1115 C1112 0.930 . S
O1116 Li1056 1.956 . S
O1116 Li1057 1.970 . S
O1116 Li1058 1.961 . S
O1116 C1060 1.325 . S
O1117 Li1056 1.970 . S
O1117 Li1057 1.956 . S
O1117 Li1059 1.961 . S
O1117 C1066 1.325 . S
O1118 Li1056 1.961 . S
O1118 Li1058 1.956 . S
O1118 Li1059 1.970 . S
O1118 C1088 1.325 . S
O1119 Li1057 1.961 . S
O1119 Li1058 1.970 . S
O1119 Li1059 1.956 . S
O1119 C1094 1.325 . S
H1120 C1062 0.929 . S
H1121 C1063 0.930 . S
H1122 C1064 0.930 . S
H1123 C1065 0.930 . S
H1124 C1067 0.930 . S
H1125 C1069 0.929 . S
H1126 C1070 0.930 . S
H1127 C1071 0.930 . S
H1128 C1074 0.930 . S
H1129 C1077 0.929 . S
H1130 C1082 0.929 . S
H1131 C1083 0.930 . S
H1132 C1090 0.929 . S
H1133 C1091 0.930 . S
H1134 C1092 0.930 . S
H1135 C1093 0.930 . S
H1136 C1095 0.929 . S
H1137 C1096 0.930 . S
H1138 C1097 0.930 . S
H1139 C1098 0.930 . S
H1140 C1102 0.929 . S
H1141 C1104 0.930 . S
H1142 C1110 0.929 . S
H1143 C1111 0.930 . S
Li1144 N1161 1.990 . S
Li1144 O1204 1.956 . S
Li1144 O1205 1.970 . S
Li1144 O1206 1.961 . S
Li1145 N1169 1.990 . S
Li1145 O1204 1.970 . S
Li1145 O1205 1.956 . S
Li1145 O1207 1.961 . S
Li1146 N1191 1.990 . S
Li1146 O1204 1.961 . S
Li1146 O1206 1.956 . S
Li1146 O1207 1.970 . S
Li1147 N1197 1.990 . S
Li1147 O1205 1.961 . S
Li1147 O1206 1.970 . S
Li1147 O1207 1.956 . S
C1148 C1150 1.348 . S
C1148 C1151 1.356 . S
C1148 O1204 1.325 . S
N1149 C1152 1.314 . S
N1149 C1153 1.279 . S
C1150 C1148 1.348 . S
C1150 C1152 1.353 . S
C1150 H1208 0.929 . S
C1151 C1148 1.356 . S
C1151 C1153 1.358 . S
C1151 H1209 0.930 . S
C1152 N1149 1.314 . S
C1152 C1150 1.353 . S
C1152 H1210 0.930 . S
C1153 N1149 1.279 . S
C1153 C1151 1.358 . S
C1153 H1211 0.930 . S
C1154 C1157 1.348 . S
C1154 C1158 1.356 . S
C1154 O1205 1.325 . S
C1155 N1156 1.279 . S
C1155 C1158 1.358 . S
C1155 H1212 0.930 . S
N1156 C1155 1.279 . S
N1156 C1159 1.314 . S
C1157 C1154 1.348 . S
C1157 C1159 1.353 . S
C1157 H1213 0.929 . S
C1158 C1154 1.356 . S
C1158 C1155 1.358 . S
C1158 H1214 0.930 . S
C1159 N1156 1.314 . S
C1159 C1157 1.353 . S
C1159 H1215 0.930 . S
C1160 N1161 1.314 . S
C1160 C1165 1.353 . S
C1160 H1166 0.930 . S
N1161 Li1144 1.990 . S
N1161 C1160 1.314 . S
N1161 C1163 1.279 . S
C1162 C1163 1.358 . S
C1162 C1164 1.356 . S
C1162 H1216 0.930 . S
C1163 N1161 1.279 . S
C1163 C1162 1.358 . S
C1163 H1167 0.930 . S
C1164 C1162 1.356 . S
C1164 C1165 1.348 . S
C1165 C1160 1.353 . S
C1165 C1164 1.348 . S
C1165 H1217 0.929 . S
H1166 C1160 0.930 . S
H1167 C1163 0.930 . S
C1168 N1169 1.314 . S
C1168 C1170 1.353 . S
C1168 H1174 0.930 . S
N1169 Li1145 1.990 . S
N1169 C1168 1.314 . S
N1169 C1172 1.279 . S
C1170 C1168 1.353 . S
C1170 C1173 1.348 . S
C1170 H1218 0.929 . S
C1171 C1172 1.358 . S
C1171 C1173 1.356 . S
C1171 H1219 0.930 . S
C1172 N1169 1.279 . S
C1172 C1171 1.358 . S
C1172 H1175 0.930 . S
C1173 C1170 1.348 . S
C1173 C1171 1.356 . S
H1174 C1168 0.930 . S
H1175 C1172 0.930 . S
C1176 C1178 1.348 . S
C1176 C1179 1.356 . S
C1176 O1206 1.325 . S
N1177 C1180 1.314 . S
N1177 C1181 1.279 . S
C1178 C1176 1.348 . S
C1178 C1180 1.353 . S
C1178 H1220 0.929 . S
C1179 C1176 1.356 . S
C1179 C1181 1.358 . S
C1179 H1221 0.930 . S
C1180 N1177 1.314 . S
C1180 C1178 1.353 . S
C1180 H1222 0.930 . S
C1181 N1177 1.279 . S
C1181 C1179 1.358 . S
C1181 H1223 0.930 . S
C1182 C1183 1.348 . S
C1182 C1184 1.356 . S
C1182 O1207 1.325 . S
C1183 C1182 1.348 . S
C1183 C1185 1.353 . S
C1183 H1224 0.929 . S
C1184 C1182 1.356 . S
C1184 C1186 1.358 . S
C1184 H1225 0.930 . S
C1185 C1183 1.353 . S
C1185 N1187 1.314 . S
C1185 H1226 0.930 . S
C1186 C1184 1.358 . S
C1186 N1187 1.279 . S
C1186 H1227 0.930 . S
N1187 C1185 1.314 . S
N1187 C1186 1.279 . S
C1188 C1190 1.353 . S
C1188 N1191 1.314 . S
C1188 H1194 0.930 . S
C1189 N1191 1.279 . S
C1189 C1192 1.358 . S
C1189 H1195 0.930 . S
C1190 C1188 1.353 . S
C1190 C1193 1.348 . S
C1190 H1228 0.929 . S
N1191 Li1146 1.990 . S
N1191 C1188 1.314 . S
N1191 C1189 1.279 . S
C1192 C1189 1.358 . S
C1192 C1193 1.356 . S
C1192 H1229 0.930 . S
C1193 C1190 1.348 . S
C1193 C1192 1.356 . S
H1194 C1188 0.930 . S
H1195 C1189 0.930 . S
C1196 N1197 1.314 . S
C1196 C1198 1.353 . S
C1196 H1202 0.930 . S
N1197 Li1147 1.990 . S
N1197 C1196 1.314 . S
N1197 C1200 1.279 . S
C1198 C1196 1.353 . S
C1198 C1201 1.348 . S
C1198 H1230 0.929 . S
C1199 C1200 1.358 . S
C1199 C1201 1.356 . S
C1199 H1231 0.930 . S
C1200 N1197 1.279 . S
C1200 C1199 1.358 . S
C1200 H1203 0.930 . S
C1201 C1198 1.348 . S
C1201 C1199 1.356 . S
H1202 C1196 0.930 . S
H1203 C1200 0.930 . S
O1204 Li1144 1.956 . S
O1204 Li1145 1.970 . S
O1204 Li1146 1.961 . S
O1204 C1148 1.325 . S
O1205 Li1144 1.970 . S
O1205 Li1145 1.956 . S
O1205 Li1147 1.961 . S
O1205 C1154 1.325 . S
O1206 Li1144 1.961 . S
O1206 Li1146 1.956 . S
O1206 Li1147 1.970 . S
O1206 C1176 1.325 . S
O1207 Li1145 1.961 . S
O1207 Li1146 1.970 . S
O1207 Li1147 1.956 . S
O1207 C1182 1.325 . S
H1208 C1150 0.929 . S
H1209 C1151 0.930 . S
H1210 C1152 0.930 . S
H1211 C1153 0.930 . S
H1212 C1155 0.930 . S
H1213 C1157 0.929 . S
H1214 C1158 0.930 . S
H1215 C1159 0.930 . S
H1216 C1162 0.930 . S
H1217 C1165 0.929 . S
H1218 C1170 0.929 . S
H1219 C1171 0.930 . S
H1220 C1178 0.929 . S
H1221 C1179 0.930 . S
H1222 C1180 0.930 . S
H1223 C1181 0.930 . S
H1224 C1183 0.929 . S
H1225 C1184 0.930 . S
H1226 C1185 0.930 . S
H1227 C1186 0.930 . S
H1228 C1190 0.929 . S
H1229 C1192 0.930 . S
H1230 C1198 0.929 . S
H1231 C1199 0.930 . S
Li1232 N1249 1.990 . S
Li1232 O1292 1.956 . S
Li1232 O1293 1.970 . S
Li1232 O1294 1.961 . S
Li1233 N1257 1.990 . S
Li1233 O1292 1.970 . S
Li1233 O1293 1.956 . S
Li1233 O1295 1.961 . S
Li1234 N1279 1.990 . S
Li1234 O1292 1.961 . S
Li1234 O1294 1.956 . S
Li1234 O1295 1.970 . S
Li1235 N1285 1.990 . S
Li1235 O1293 1.961 . S
Li1235 O1294 1.970 . S
Li1235 O1295 1.956 . S
C1236 C1238 1.348 . S
C1236 C1239 1.356 . S
C1236 O1292 1.325 . S
N1237 C1240 1.314 . S
N1237 C1241 1.279 . S
C1238 C1236 1.348 . S
C1238 C1240 1.353 . S
C1238 H1296 0.929 . S
C1239 C1236 1.356 . S
C1239 C1241 1.358 . S
C1239 H1297 0.930 . S
C1240 N1237 1.314 . S
C1240 C1238 1.353 . S
C1240 H1298 0.930 . S
C1241 N1237 1.279 . S
C1241 C1239 1.358 . S
C1241 H1299 0.930 . S
C1242 C1245 1.348 . S
C1242 C1246 1.356 . S
C1242 O1293 1.325 . S
C1243 N1244 1.279 . S
C1243 C1246 1.358 . S
C1243 H1300 0.930 . S
N1244 C1243 1.279 . S
N1244 C1247 1.314 . S
C1245 C1242 1.348 . S
C1245 C1247 1.353 . S
C1245 H1301 0.929 . S
C1246 C1242 1.356 . S
C1246 C1243 1.358 . S
C1246 H1302 0.930 . S
C1247 N1244 1.314 . S
C1247 C1245 1.353 . S
C1247 H1303 0.930 . S
C1248 N1249 1.314 . S
C1248 C1253 1.353 . S
C1248 H1254 0.930 . S
N1249 Li1232 1.990 . S
N1249 C1248 1.314 . S
N1249 C1251 1.279 . S
C1250 C1251 1.358 . S
C1250 C1252 1.356 . S
C1250 H1304 0.930 . S
C1251 N1249 1.279 . S
C1251 C1250 1.358 . S
C1251 H1255 0.930 . S
C1252 C1250 1.356 . S
C1252 C1253 1.348 . S
C1253 C1248 1.353 . S
C1253 C1252 1.348 . S
C1253 H1305 0.929 . S
H1254 C1248 0.930 . S
H1255 C1251 0.930 . S
C1256 N1257 1.314 . S
C1256 C1258 1.353 . S
C1256 H1262 0.930 . S
N1257 Li1233 1.990 . S
N1257 C1256 1.314 . S
N1257 C1260 1.279 . S
C1258 C1256 1.353 . S
C1258 C1261 1.348 . S
C1258 H1306 0.929 . S
C1259 C1260 1.358 . S
C1259 C1261 1.356 . S
C1259 H1307 0.930 . S
C1260 N1257 1.279 . S
C1260 C1259 1.358 . S
C1260 H1263 0.930 . S
C1261 C1258 1.348 . S
C1261 C1259 1.356 . S
H1262 C1256 0.930 . S
H1263 C1260 0.930 . S
C1264 C1266 1.348 . S
C1264 C1267 1.356 . S
C1264 O1294 1.325 . S
N1265 C1268 1.314 . S
N1265 C1269 1.279 . S
C1266 C1264 1.348 . S
C1266 C1268 1.353 . S
C1266 H1308 0.929 . S
C1267 C1264 1.356 . S
C1267 C1269 1.358 . S
C1267 H1309 0.930 . S
C1268 N1265 1.314 . S
C1268 C1266 1.353 . S
C1268 H1310 0.930 . S
C1269 N1265 1.279 . S
C1269 C1267 1.358 . S
C1269 H1311 0.930 . S
C1270 C1271 1.348 . S
C1270 C1272 1.356 . S
C1270 O1295 1.325 . S
C1271 C1270 1.348 . S
C1271 C1273 1.353 . S
C1271 H1312 0.929 . S
C1272 C1270 1.356 . S
C1272 C1274 1.358 . S
C1272 H1313 0.930 . S
C1273 C1271 1.353 . S
C1273 N1275 1.314 . S
C1273 H1314 0.930 . S
C1274 C1272 1.358 . S
C1274 N1275 1.279 . S
C1274 H1315 0.930 . S
N1275 C1273 1.314 . S
N1275 C1274 1.279 . S
C1276 C1278 1.353 . S
C1276 N1279 1.314 . S
C1276 H1282 0.930 . S
C1277 N1279 1.279 . S
C1277 C1280 1.358 . S
C1277 H1283 0.930 . S
C1278 C1276 1.353 . S
C1278 C1281 1.348 . S
C1278 H1316 0.929 . S
N1279 Li1234 1.990 . S
N1279 C1276 1.314 . S
N1279 C1277 1.279 . S
C1280 C1277 1.358 . S
C1280 C1281 1.356 . S
C1280 H1317 0.930 . S
C1281 C1278 1.348 . S
C1281 C1280 1.356 . S
H1282 C1276 0.930 . S
H1283 C1277 0.930 . S
C1284 N1285 1.314 . S
C1284 C1286 1.353 . S
C1284 H1290 0.930 . S
N1285 Li1235 1.990 . S
N1285 C1284 1.314 . S
N1285 C1288 1.279 . S
C1286 C1284 1.353 . S
C1286 C1289 1.348 . S
C1286 H1318 0.929 . S
C1287 C1288 1.358 . S
C1287 C1289 1.356 . S
C1287 H1319 0.930 . S
C1288 N1285 1.279 . S
C1288 C1287 1.358 . S
C1288 H1291 0.930 . S
C1289 C1286 1.348 . S
C1289 C1287 1.356 . S
H1290 C1284 0.930 . S
H1291 C1288 0.930 . S
O1292 Li1232 1.956 . S
O1292 Li1233 1.970 . S
O1292 Li1234 1.961 . S
O1292 C1236 1.325 . S
O1293 Li1232 1.970 . S
O1293 Li1233 1.956 . S
O1293 Li1235 1.961 . S
O1293 C1242 1.325 . S
O1294 Li1232 1.961 . S
O1294 Li1234 1.956 . S
O1294 Li1235 1.970 . S
O1294 C1264 1.325 . S
O1295 Li1233 1.961 . S
O1295 Li1234 1.970 . S
O1295 Li1235 1.956 . S
O1295 C1270 1.325 . S
H1296 C1238 0.929 . S
H1297 C1239 0.930 . S
H1298 C1240 0.930 . S
H1299 C1241 0.930 . S
H1300 C1243 0.930 . S
H1301 C1245 0.929 . S
H1302 C1246 0.930 . S
H1303 C1247 0.930 . S
H1304 C1250 0.930 . S
H1305 C1253 0.929 . S
H1306 C1258 0.929 . S
H1307 C1259 0.930 . S
H1308 C1266 0.929 . S
H1309 C1267 0.930 . S
H1310 C1268 0.930 . S
H1311 C1269 0.930 . S
H1312 C1271 0.929 . S
H1313 C1272 0.930 . S
H1314 C1273 0.930 . S
H1315 C1274 0.930 . S
H1316 C1278 0.929 . S
H1317 C1280 0.930 . S
H1318 C1286 0.929 . S
H1319 C1287 0.930 . S
Li1320 N1337 1.990 . S
Li1320 O1380 1.956 . S
Li1320 O1381 1.970 . S
Li1320 O1382 1.961 . S
Li1321 N1345 1.990 . S
Li1321 O1380 1.970 . S
Li1321 O1381 1.956 . S
Li1321 O1383 1.961 . S
Li1322 N1367 1.990 . S
Li1322 O1380 1.961 . S
Li1322 O1382 1.956 . S
Li1322 O1383 1.970 . S
Li1323 N1373 1.990 . S
Li1323 O1381 1.961 . S
Li1323 O1382 1.970 . S
Li1323 O1383 1.956 . S
C1324 C1326 1.348 . S
C1324 C1327 1.356 . S
C1324 O1380 1.325 . S
N1325 C1328 1.314 . S
N1325 C1329 1.279 . S
C1326 C1324 1.348 . S
C1326 C1328 1.353 . S
C1326 H1384 0.929 . S
C1327 C1324 1.356 . S
C1327 C1329 1.358 . S
C1327 H1385 0.930 . S
C1328 N1325 1.314 . S
C1328 C1326 1.353 . S
C1328 H1386 0.930 . S
C1329 N1325 1.279 . S
C1329 C1327 1.358 . S
C1329 H1387 0.930 . S
C1330 C1333 1.348 . S
C1330 C1334 1.356 . S
C1330 O1381 1.325 . S
C1331 N1332 1.279 . S
C1331 C1334 1.358 . S
C1331 H1388 0.930 . S
N1332 C1331 1.279 . S
N1332 C1335 1.314 . S
C1333 C1330 1.348 . S
C1333 C1335 1.353 . S
C1333 H1389 0.929 . S
C1334 C1330 1.356 . S
C1334 C1331 1.358 . S
C1334 H1390 0.930 . S
C1335 N1332 1.314 . S
C1335 C1333 1.353 . S
C1335 H1391 0.930 . S
C1336 N1337 1.314 . S
C1336 C1341 1.353 . S
C1336 H1342 0.930 . S
N1337 Li1320 1.990 . S
N1337 C1336 1.314 . S
N1337 C1339 1.279 . S
C1338 C1339 1.358 . S
C1338 C1340 1.356 . S
C1338 H1392 0.930 . S
C1339 N1337 1.279 . S
C1339 C1338 1.358 . S
C1339 H1343 0.930 . S
C1340 C1338 1.356 . S
C1340 C1341 1.348 . S
C1341 C1336 1.353 . S
C1341 C1340 1.348 . S
C1341 H1393 0.929 . S
H1342 C1336 0.930 . S
H1343 C1339 0.930 . S
C1344 N1345 1.314 . S
C1344 C1346 1.353 . S
C1344 H1350 0.930 . S
N1345 Li1321 1.990 . S
N1345 C1344 1.314 . S
N1345 C1348 1.279 . S
C1346 C1344 1.353 . S
C1346 C1349 1.348 . S
C1346 H1394 0.929 . S
C1347 C1348 1.358 . S
C1347 C1349 1.356 . S
C1347 H1395 0.930 . S
C1348 N1345 1.279 . S
C1348 C1347 1.358 . S
C1348 H1351 0.930 . S
C1349 C1346 1.348 . S
C1349 C1347 1.356 . S
H1350 C1344 0.930 . S
H1351 C1348 0.930 . S
C1352 C1354 1.348 . S
C1352 C1355 1.356 . S
C1352 O1382 1.325 . S
N1353 C1356 1.314 . S
N1353 C1357 1.279 . S
C1354 C1352 1.348 . S
C1354 C1356 1.353 . S
C1354 H1396 0.929 . S
C1355 C1352 1.356 . S
C1355 C1357 1.358 . S
C1355 H1397 0.930 . S
C1356 N1353 1.314 . S
C1356 C1354 1.353 . S
C1356 H1398 0.930 . S
C1357 N1353 1.279 . S
C1357 C1355 1.358 . S
C1357 H1399 0.930 . S
C1358 C1359 1.348 . S
C1358 C1360 1.356 . S
C1358 O1383 1.325 . S
C1359 C1358 1.348 . S
C1359 C1361 1.353 . S
C1359 H1400 0.929 . S
C1360 C1358 1.356 . S
C1360 C1362 1.358 . S
C1360 H1401 0.930 . S
C1361 C1359 1.353 . S
C1361 N1363 1.314 . S
C1361 H1402 0.930 . S
C1362 C1360 1.358 . S
C1362 N1363 1.279 . S
C1362 H1403 0.930 . S
N1363 C1361 1.314 . S
N1363 C1362 1.279 . S
C1364 C1366 1.353 . S
C1364 N1367 1.314 . S
C1364 H1370 0.930 . S
C1365 N1367 1.279 . S
C1365 C1368 1.358 . S
C1365 H1371 0.930 . S
C1366 C1364 1.353 . S
C1366 C1369 1.348 . S
C1366 H1404 0.929 . S
N1367 Li1322 1.990 . S
N1367 C1364 1.314 . S
N1367 C1365 1.279 . S
C1368 C1365 1.358 . S
C1368 C1369 1.356 . S
C1368 H1405 0.930 . S
C1369 C1366 1.348 . S
C1369 C1368 1.356 . S
H1370 C1364 0.930 . S
H1371 C1365 0.930 . S
C1372 N1373 1.314 . S
C1372 C1374 1.353 . S
C1372 H1378 0.930 . S
N1373 Li1323 1.990 . S
N1373 C1372 1.314 . S
N1373 C1376 1.279 . S
C1374 C1372 1.353 . S
C1374 C1377 1.348 . S
C1374 H1406 0.929 . S
C1375 C1376 1.358 . S
C1375 C1377 1.356 . S
C1375 H1407 0.930 . S
C1376 N1373 1.279 . S
C1376 C1375 1.358 . S
C1376 H1379 0.930 . S
C1377 C1374 1.348 . S
C1377 C1375 1.356 . S
H1378 C1372 0.930 . S
H1379 C1376 0.930 . S
O1380 Li1320 1.956 . S
O1380 Li1321 1.970 . S
O1380 Li1322 1.961 . S
O1380 C1324 1.325 . S
O1381 Li1320 1.970 . S
O1381 Li1321 1.956 . S
O1381 Li1323 1.961 . S
O1381 C1330 1.325 . S
O1382 Li1320 1.961 . S
O1382 Li1322 1.956 . S
O1382 Li1323 1.970 . S
O1382 C1352 1.325 . S
O1383 Li1321 1.961 . S
O1383 Li1322 1.970 . S
O1383 Li1323 1.956 . S
O1383 C1358 1.325 . S
H1384 C1326 0.929 . S
H1385 C1327 0.930 . S
H1386 C1328 0.930 . S
H1387 C1329 0.930 . S
H1388 C1331 0.930 . S
H1389 C1333 0.929 . S
H1390 C1334 0.930 . S
H1391 C1335 0.930 . S
H1392 C1338 0.930 . S
H1393 C1341 0.929 . S
H1394 C1346 0.929 . S
H1395 C1347 0.930 . S
H1396 C1354 0.929 . S
H1397 C1355 0.930 . S
H1398 C1356 0.930 . S
H1399 C1357 0.930 . S
H1400 C1359 0.929 . S
H1401 C1360 0.930 . S
H1402 C1361 0.930 . S
H1403 C1362 0.930 . S
H1404 C1366 0.929 . S
H1405 C1368 0.930 . S
H1406 C1374 0.929 . S
H1407 C1375 0.930 . S
C1408 C1409 1.387 . S
C1408 H1412 0.950 . S
C1408 C1417 1.390 . S
C1409 C1408 1.387 . S
C1409 C1411 1.387 . S
H1410 C1417 0.950 . S
C1411 C1409 1.387 . S
C1411 C1413 1.390 . S
C1411 H1415 0.950 . S
H1412 C1408 0.950 . S
C1413 C1411 1.390 . S
C1413 C1414 1.387 . S
C1413 H1416 0.950 . S
C1414 C1413 1.387 . S
C1414 C1417 1.387 . S
H1415 C1411 0.950 . S
H1416 C1413 0.950 . S
C1417 C1408 1.390 . S
C1417 H1410 0.950 . S
C1417 C1414 1.387 . S
C1418 C1419 1.387 . S
C1418 H1422 0.950 . S
C1418 C1427 1.390 . S
C1419 C1418 1.387 . S
C1419 C1421 1.387 . S
H1420 C1427 0.950 . S
C1421 C1419 1.387 . S
C1421 C1423 1.390 . S
C1421 H1425 0.950 . S
H1422 C1418 0.950 . S
C1423 C1421 1.390 . S
C1423 C1424 1.387 . S
C1423 H1426 0.950 . S
C1424 C1423 1.387 . S
C1424 C1427 1.387 . S
H1425 C1421 0.950 . S
H1426 C1423 0.950 . S
C1427 C1418 1.390 . S
C1427 H1420 0.950 . S
C1427 C1424 1.387 . S
C1428 C1429 1.387 . S
C1428 H1432 0.950 . S
C1428 C1437 1.390 . S
C1429 C1428 1.387 . S
C1429 C1431 1.387 . S
H1430 C1437 0.950 . S
C1431 C1429 1.387 . S
C1431 C1433 1.390 . S
C1431 H1435 0.950 . S
H1432 C1428 0.950 . S
C1433 C1431 1.390 . S
C1433 C1434 1.387 . S
C1433 H1436 0.950 . S
C1434 C1433 1.387 . S
C1434 C1437 1.387 . S
H1435 C1431 0.950 . S
H1436 C1433 0.950 . S
C1437 C1428 1.390 . S
C1437 H1430 0.950 . S
C1437 C1434 1.387 . S
C1438 C1439 1.387 . S
C1438 H1442 0.950 . S
C1438 C1447 1.390 . S
C1439 C1438 1.387 . S
C1439 C1441 1.387 . S
H1440 C1447 0.950 . S
C1441 C1439 1.387 . S
C1441 C1443 1.390 . S
C1441 H1445 0.950 . S
H1442 C1438 0.950 . S
C1443 C1441 1.390 . S
C1443 C1444 1.387 . S
C1443 H1446 0.950 . S
C1444 C1443 1.387 . S
C1444 C1447 1.387 . S
H1445 C1441 0.950 . S
H1446 C1443 0.950 . S
C1447 C1438 1.390 . S
C1447 H1440 0.950 . S
C1447 C1444 1.387 . S
C1448 C1449 1.387 . S
C1448 H1452 0.950 . S
C1448 C1457 1.390 . S
C1449 C1448 1.387 . S
C1449 C1451 1.387 . S
H1450 C1457 0.950 . S
C1451 C1449 1.387 . S
C1451 C1453 1.390 . S
C1451 H1455 0.950 . S
H1452 C1448 0.950 . S
C1453 C1451 1.390 . S
C1453 C1454 1.387 . S
C1453 H1456 0.950 . S
C1454 C1453 1.387 . S
C1454 C1457 1.387 . S
H1455 C1451 0.950 . S
H1456 C1453 0.950 . S
C1457 C1448 1.390 . S
C1457 H1450 0.950 . S
C1457 C1454 1.387 . S
C1458 C1459 1.387 . S
C1458 H1462 0.950 . S
C1458 C1467 1.390 . S
C1459 C1458 1.387 . S
C1459 C1461 1.387 . S
H1460 C1467 0.950 . S
C1461 C1459 1.387 . S
C1461 C1463 1.390 . S
C1461 H1465 0.950 . S
H1462 C1458 0.950 . S
C1463 C1461 1.390 . S
C1463 C1464 1.387 . S
C1463 H1466 0.950 . S
C1464 C1463 1.387 . S
C1464 C1467 1.387 . S
H1465 C1461 0.950 . S
H1466 C1463 0.950 . S
C1467 C1458 1.390 . S
C1467 H1460 0.950 . S
C1467 C1464 1.387 . S
C1468 C1469 1.387 . S
C1468 H1472 0.950 . S
C1468 C1477 1.390 . S
C1469 C1468 1.387 . S
C1469 C1471 1.387 . S
H1470 C1477 0.950 . S
C1471 C1469 1.387 . S
C1471 C1473 1.390 . S
C1471 H1475 0.950 . S
H1472 C1468 0.950 . S
C1473 C1471 1.390 . S
C1473 C1474 1.387 . S
C1473 H1476 0.950 . S
C1474 C1473 1.387 . S
C1474 C1477 1.387 . S
H1475 C1471 0.950 . S
H1476 C1473 0.950 . S
C1477 C1468 1.390 . S
C1477 H1470 0.950 . S
C1477 C1474 1.387 . S
C1478 C1479 1.387 . S
C1478 H1482 0.950 . S
C1478 C1487 1.390 . S
C1479 C1478 1.387 . S
C1479 C1481 1.387 . S
H1480 C1487 0.950 . S
C1481 C1479 1.387 . S
C1481 C1483 1.390 . S
C1481 H1485 0.950 . S
H1482 C1478 0.950 . S
C1483 C1481 1.390 . S
C1483 C1484 1.387 . S
C1483 H1486 0.950 . S
C1484 C1483 1.387 . S
C1484 C1487 1.387 . S
H1485 C1481 0.950 . S
H1486 C1483 0.950 . S
C1487 C1478 1.390 . S
C1487 H1480 0.950 . S
C1487 C1484 1.387 . S
C1488 C1489 1.387 . S
C1488 H1492 0.950 . S
C1488 C1497 1.390 1_565 S
C1489 C1488 1.387 . S
C1489 C1491 1.387 . S
H1490 C1497 0.950 . S
C1491 C1489 1.387 . S
C1491 C1493 1.390 1_565 S
C1491 H1495 0.950 . S
H1492 C1488 0.950 . S
C1493 C1491 1.390 1_545 S
C1493 C1494 1.387 . S
C1493 H1496 0.950 . S
C1494 C1493 1.387 . S
C1494 C1497 1.387 . S
H1495 C1491 0.950 . S
H1496 C1493 0.950 . S
C1497 C1488 1.390 1_545 S
C1497 H1490 0.950 . S
C1497 C1494 1.387 . S
C1498 C1499 1.387 . S
C1498 H1502 0.950 . S
C1498 C1507 1.390 . S
C1499 C1498 1.387 . S
C1499 C1501 1.387 . S
H1500 C1507 0.950 . S
C1501 C1499 1.387 . S
C1501 C1503 1.390 . S
C1501 H1505 0.950 . S
H1502 C1498 0.950 . S
C1503 C1501 1.390 . S
C1503 C1504 1.387 . S
C1503 H1506 0.950 . S
C1504 C1503 1.387 . S
C1504 C1507 1.387 . S
H1505 C1501 0.950 . S
H1506 C1503 0.950 . S
C1507 C1498 1.390 . S
C1507 H1500 0.950 . S
C1507 C1504 1.387 . S
C1508 C1509 1.387 . S
C1508 H1512 0.950 . S
C1508 C1517 1.390 1_556 S
C1509 C1508 1.387 . S
C1509 C1511 1.387 . S
H1510 C1517 0.950 . S
C1511 C1509 1.387 . S
C1511 C1513 1.390 1_556 S
C1511 H1515 0.950 . S
H1512 C1508 0.950 . S
C1513 C1511 1.390 1_554 S
C1513 C1514 1.387 . S
C1513 H1516 0.950 . S
C1514 C1513 1.387 . S
C1514 C1517 1.387 . S
H1515 C1511 0.950 . S
H1516 C1513 0.950 . S
C1517 C1508 1.390 1_554 S
C1517 H1510 0.950 . S
C1517 C1514 1.387 . S
C1518 C1519 1.387 . S
C1518 H1522 0.950 . S
C1518 C1527 1.390 1_554 S
C1519 C1518 1.387 . S
C1519 C1521 1.387 . S
H1520 C1527 0.950 . S
C1521 C1519 1.387 . S
C1521 C1523 1.390 1_554 S
C1521 H1525 0.950 . S
H1522 C1518 0.950 . S
C1523 C1521 1.390 1_556 S
C1523 C1524 1.387 . S
C1523 H1526 0.950 . S
C1524 C1523 1.387 . S
C1524 C1527 1.387 . S
H1525 C1521 0.950 . S
H1526 C1523 0.950 . S
C1527 C1518 1.390 1_556 S
C1527 H1520 0.950 . S
C1527 C1524 1.387 . S
C1528 C1529 1.387 . S
C1528 H1532 0.950 . S
C1528 C1537 1.390 . S
C1529 C1528 1.387 . S
C1529 C1531 1.387 . S
H1530 C1537 0.950 . S
C1531 C1529 1.387 . S
C1531 C1533 1.390 . S
C1531 H1535 0.950 . S
H1532 C1528 0.950 . S
C1533 C1531 1.390 . S
C1533 C1534 1.387 . S
C1533 H1536 0.950 . S
C1534 C1533 1.387 . S
C1534 C1537 1.387 . S
H1535 C1531 0.950 . S
H1536 C1533 0.950 . S
C1537 C1528 1.390 . S
C1537 H1530 0.950 . S
C1537 C1534 1.387 . S
C1538 C1539 1.387 . S
C1538 H1542 0.950 . S
C1538 C1547 1.390 . S
C1539 C1538 1.387 . S
C1539 C1541 1.387 . S
H1540 C1547 0.950 . S
C1541 C1539 1.387 . S
C1541 C1543 1.390 . S
C1541 H1545 0.950 . S
H1542 C1538 0.950 . S
C1543 C1541 1.390 . S
C1543 C1544 1.387 . S
C1543 H1546 0.950 . S
C1544 C1543 1.387 . S
C1544 C1547 1.387 . S
H1545 C1541 0.950 . S
H1546 C1543 0.950 . S
C1547 C1538 1.390 . S
C1547 H1540 0.950 . S
C1547 C1544 1.387 . S
C1548 C1549 1.387 . S
C1548 H1552 0.950 . S
C1548 C1557 1.390 1_655 S
C1549 C1548 1.387 . S
C1549 C1551 1.387 . S
H1550 C1557 0.950 . S
C1551 C1549 1.387 . S
C1551 C1553 1.390 1_655 S
C1551 H1555 0.950 . S
H1552 C1548 0.950 . S
C1553 C1551 1.390 1_455 S
C1553 C1554 1.387 . S
C1553 H1556 0.950 . S
C1554 C1553 1.387 . S
C1554 C1557 1.387 . S
H1555 C1551 0.950 . S
H1556 C1553 0.950 . S
C1557 C1548 1.390 1_455 S
C1557 H1550 0.950 . S
C1557 C1554 1.387 . S
C1558 C1559 1.387 . S
C1558 H1562 0.950 . S
C1558 C1567 1.390 1_655 S
C1559 C1558 1.387 . S
C1559 C1561 1.387 . S
H1560 C1567 0.950 . S
C1561 C1559 1.387 . S
C1561 C1563 1.390 1_655 S
C1561 H1565 0.950 . S
H1562 C1558 0.950 . S
C1563 C1561 1.390 1_455 S
C1563 C1564 1.387 . S
C1563 H1566 0.950 . S
C1564 C1563 1.387 . S
C1564 C1567 1.387 . S
H1565 C1561 0.950 . S
H1566 C1563 0.950 . S
C1567 C1558 1.390 1_455 S
C1567 H1560 0.950 . S
C1567 C1564 1.387 . S
C1568 C1569 1.387 . S
C1568 H1572 0.950 . S
C1568 C1577 1.390 . S
C1569 C1568 1.387 . S
C1569 C1571 1.387 . S
H1570 C1577 0.950 . S
C1571 C1569 1.387 . S
C1571 C1573 1.390 . S
C1571 H1575 0.950 . S
H1572 C1568 0.950 . S
C1573 C1571 1.390 . S
C1573 C1574 1.387 . S
C1573 H1576 0.950 . S
C1574 C1573 1.387 . S
C1574 C1577 1.387 . S
H1575 C1571 0.950 . S
H1576 C1573 0.950 . S
C1577 C1568 1.390 . S
C1577 H1570 0.950 . S
C1577 C1574 1.387 . S
C1578 C1579 1.387 . S
C1578 H1582 0.950 . S
C1578 C1587 1.390 1_545 S
C1579 C1578 1.387 . S
C1579 C1581 1.387 . S
H1580 C1587 0.950 . S
C1581 C1579 1.387 . S
C1581 C1583 1.390 1_545 S
C1581 H1585 0.950 . S
H1582 C1578 0.950 . S
C1583 C1581 1.390 1_565 S
C1583 C1584 1.387 . S
C1583 H1586 0.950 . S
C1584 C1583 1.387 . S
C1584 C1587 1.387 . S
H1585 C1581 0.950 . S
H1586 C1583 0.950 . S
C1587 C1578 1.390 1_565 S
C1587 H1580 0.950 . S
C1587 C1584 1.387 . S
C1588 C1589 1.387 . S
C1588 H1592 0.950 . S
C1588 C1597 1.390 . S
C1589 C1588 1.387 . S
C1589 C1591 1.387 . S
H1590 C1597 0.950 . S
C1591 C1589 1.387 . S
C1591 C1593 1.390 . S
C1591 H1595 0.950 . S
H1592 C1588 0.950 . S
C1593 C1591 1.390 . S
C1593 C1594 1.387 . S
C1593 H1596 0.950 . S
C1594 C1593 1.387 . S
C1594 C1597 1.387 . S
H1595 C1591 0.950 . S
H1596 C1593 0.950 . S
C1597 C1588 1.390 . S
C1597 H1590 0.950 . S
C1597 C1594 1.387 . S
C1598 C1599 1.387 . S
C1598 H1602 0.950 . S
C1598 C1607 1.390 1_554 S
C1599 C1598 1.387 . S
C1599 C1601 1.387 . S
H1600 C1607 0.950 . S
C1601 C1599 1.387 . S
C1601 C1603 1.390 1_554 S
C1601 H1605 0.950 . S
H1602 C1598 0.950 . S
C1603 C1601 1.390 1_556 S
C1603 C1604 1.387 . S
C1603 H1606 0.950 . S
C1604 C1603 1.387 . S
C1604 C1607 1.387 . S
H1605 C1601 0.950 . S
H1606 C1603 0.950 . S
C1607 C1598 1.390 1_556 S
C1607 H1600 0.950 . S
C1607 C1604 1.387 . S
C1608 C1609 1.387 . S
C1608 H1612 0.950 . S
C1608 C1617 1.390 1_556 S
C1609 C1608 1.387 . S
C1609 C1611 1.387 . S
H1610 C1617 0.950 . S
C1611 C1609 1.387 . S
C1611 C1613 1.390 1_556 S
C1611 H1615 0.950 . S
H1612 C1608 0.950 . S
C1613 C1611 1.390 1_554 S
C1613 C1614 1.387 . S
C1613 H1616 0.950 . S
C1614 C1613 1.387 . S
C1614 C1617 1.387 . S
H1615 C1611 0.950 . S
H1616 C1613 0.950 . S
C1617 C1608 1.390 1_554 S
C1617 H1610 0.950 . S
C1617 C1614 1.387 . S
C1618 C1619 1.387 . S
C1618 H1622 0.950 . S
C1618 C1627 1.390 . S
C1619 C1618 1.387 . S
C1619 C1621 1.387 . S
H1620 C1627 0.950 . S
C1621 C1619 1.387 . S
C1621 C1623 1.390 . S
C1621 H1625 0.950 . S
H1622 C1618 0.950 . S
C1623 C1621 1.390 . S
C1623 C1624 1.387 . S
C1623 H1626 0.950 . S
C1624 C1623 1.387 . S
C1624 C1627 1.387 . S
H1625 C1621 0.950 . S
H1626 C1623 0.950 . S
C1627 C1618 1.390 . S
C1627 H1620 0.950 . S
C1627 C1624 1.387 . S
C1628 C1629 1.387 . S
C1628 H1632 0.950 . S
C1628 C1637 1.390 . S
C1629 C1628 1.387 . S
C1629 C1631 1.387 . S
H1630 C1637 0.950 . S
C1631 C1629 1.387 . S
C1631 C1633 1.390 . S
C1631 H1635 0.950 . S
H1632 C1628 0.950 . S
C1633 C1631 1.390 . S
C1633 C1634 1.387 . S
C1633 H1636 0.950 . S
C1634 C1633 1.387 . S
C1634 C1637 1.387 . S
H1635 C1631 0.950 . S
H1636 C1633 0.950 . S
C1637 C1628 1.390 . S
C1637 H1630 0.950 . S
C1637 C1634 1.387 . S
C1638 C1639 1.387 . S
C1638 H1642 0.950 . S
C1638 C1647 1.390 1_455 S
C1639 C1638 1.387 . S
C1639 C1641 1.387 . S
H1640 C1647 0.950 . S
C1641 C1639 1.387 . S
C1641 C1643 1.390 1_455 S
C1641 H1645 0.950 . S
H1642 C1638 0.950 . S
C1643 C1641 1.390 1_655 S
C1643 C1644 1.387 . S
C1643 H1646 0.950 . S
C1644 C1643 1.387 . S
C1644 C1647 1.387 . S
H1645 C1641 0.950 . S
H1646 C1643 0.950 . S
C1647 C1638 1.390 1_655 S
C1647 H1640 0.950 . S
C1647 C1644 1.387 . S
C1648 C1649 1.387 . S
C1648 H1652 0.950 . S
C1648 C1657 1.390 1_455 S
C1649 C1648 1.387 . S
C1649 C1651 1.387 . S
H1650 C1657 0.950 . S
C1651 C1649 1.387 . S
C1651 C1653 1.390 1_455 S
C1651 H1655 0.950 . S
H1652 C1648 0.950 . S
C1653 C1651 1.390 1_655 S
C1653 C1654 1.387 . S
C1653 H1656 0.950 . S
C1654 C1653 1.387 . S
C1654 C1657 1.387 . S
H1655 C1651 0.950 . S
H1656 C1653 0.950 . S
C1657 C1648 1.390 1_655 S
C1657 H1650 0.950 . S
C1657 C1654 1.387 . S
C1658 C1659 1.387 . S
C1658 H1662 0.950 . S
C1658 C1667 1.390 . S
C1659 C1658 1.387 . S
C1659 C1661 1.387 . S
H1660 C1667 0.950 . S
C1661 C1659 1.387 . S
C1661 C1663 1.390 . S
C1661 H1665 0.950 . S
H1662 C1658 0.950 . S
C1663 C1661 1.390 . S
C1663 C1664 1.387 . S
C1663 H1666 0.950 . S
C1664 C1663 1.387 . S
C1664 C1667 1.387 . S
H1665 C1661 0.950 . S
H1666 C1663 0.950 . S
C1667 C1658 1.390 . S
C1667 H1660 0.950 . S
C1667 C1664 1.387 . S
C1668 C1669 1.387 . S
C1668 H1672 0.950 . S
C1668 C1677 1.390 . S
C1669 C1668 1.387 . S
C1669 C1671 1.387 . S
H1670 C1677 0.950 . S
C1671 C1669 1.387 . S
C1671 C1673 1.390 . S
C1671 H1675 0.950 . S
H1672 C1668 0.950 . S
C1673 C1671 1.390 . S
C1673 C1674 1.387 . S
C1673 H1676 0.950 . S
C1674 C1673 1.387 . S
C1674 C1677 1.387 . S
H1675 C1671 0.950 . S
H1676 C1673 0.950 . S
C1677 C1668 1.390 . S
C1677 H1670 0.950 . S
C1677 C1674 1.387 . S
C1678 C1679 1.387 . S
C1678 H1682 0.950 . S
C1678 C1687 1.390 1_545 S
C1679 C1678 1.387 . S
C1679 C1681 1.387 . S
H1680 C1687 0.950 . S
C1681 C1679 1.387 . S
C1681 C1683 1.390 1_545 S
C1681 H1685 0.950 . S
H1682 C1678 0.950 . S
C1683 C1681 1.390 1_565 S
C1683 C1684 1.387 . S
C1683 H1686 0.950 . S
C1684 C1683 1.387 . S
C1684 C1687 1.387 . S
H1685 C1681 0.950 . S
H1686 C1683 0.950 . S
C1687 C1678 1.390 1_565 S
C1687 H1680 0.950 . S
C1687 C1684 1.387 . S
C1688 C1689 1.387 . S
C1688 H1692 0.950 . S
C1688 C1697 1.390 . S
C1689 C1688 1.387 . S
C1689 C1691 1.387 . S
H1690 C1697 0.950 . S
C1691 C1689 1.387 . S
C1691 C1693 1.390 . S
C1691 H1695 0.950 . S
H1692 C1688 0.950 . S
C1693 C1691 1.390 . S
C1693 C1694 1.387 . S
C1693 H1696 0.950 . S
C1694 C1693 1.387 . S
C1694 C1697 1.387 . S
H1695 C1691 0.950 . S
H1696 C1693 0.950 . S
C1697 C1688 1.390 . S
C1697 H1690 0.950 . S
C1697 C1694 1.387 . S
C1698 C1699 1.387 . S
C1698 H1702 0.950 . S
C1698 C1707 1.390 . S
C1699 C1698 1.387 . S
C1699 C1701 1.387 . S
H1700 C1707 0.950 . S
C1701 C1699 1.387 . S
C1701 C1703 1.390 . S
C1701 H1705 0.950 . S
H1702 C1698 0.950 . S
C1703 C1701 1.390 . S
C1703 C1704 1.387 . S
C1703 H1706 0.950 . S
C1704 C1703 1.387 . S
C1704 C1707 1.387 . S
H1705 C1701 0.950 . S
H1706 C1703 0.950 . S
C1707 C1698 1.390 . S
C1707 H1700 0.950 . S
C1707 C1704 1.387 . S
C1708 C1709 1.387 . S
C1708 H1712 0.950 . S
C1708 C1717 1.390 1_545 S
C1709 C1708 1.387 . S
C1709 C1711 1.387 . S
H1710 C1717 0.950 . S
C1711 C1709 1.387 . S
C1711 C1713 1.390 1_545 S
C1711 H1715 0.950 . S
H1712 C1708 0.950 . S
C1713 C1711 1.390 1_565 S
C1713 C1714 1.387 . S
C1713 H1716 0.950 . S
C1714 C1713 1.387 . S
C1714 C1717 1.387 . S
H1715 C1711 0.950 . S
H1716 C1713 0.950 . S
C1717 C1708 1.390 1_565 S
C1717 H1710 0.950 . S
C1717 C1714 1.387 . S
C1718 C1719 1.387 . S
C1718 H1722 0.950 . S
C1718 C1727 1.390 . S
C1719 C1718 1.387 . S
C1719 C1721 1.387 . S
H1720 C1727 0.950 . S
C1721 C1719 1.387 . S
C1721 C1723 1.390 . S
C1721 H1725 0.950 . S
H1722 C1718 0.950 . S
C1723 C1721 1.390 . S
C1723 C1724 1.387 . S
C1723 H1726 0.950 . S
C1724 C1723 1.387 . S
C1724 C1727 1.387 . S
H1725 C1721 0.950 . S
H1726 C1723 0.950 . S
C1727 C1718 1.390 . S
C1727 H1720 0.950 . S
C1727 C1724 1.387 . S
C1409 C29 0.811 . S
C1414 C1201 0.811 . S
C1419 C108 0.811 . S
C1424 C821 0.812 . S
C1429 C1252 0.800 . S
C1434 C225 0.800 . S
C1439 C321 0.800 . S
C1444 C1349 0.800 . S
C1449 C372 0.811 . S
C1454 C557 0.811 . S
C1459 C909 0.812 . S
C1464 C489 0.811 . S
C1469 C1017 0.800 . S
C1474 C636 0.800 . S
C1479 C733 0.800 . S
C1484 C1113 0.800 . S
C1489 C196 1.765 . S
C1494 C57 1.764 . S
C1499 C137 1.762 . S
C1504 C293 1.762 . S
C1509 C1076 1.771 . S
C1514 C49 1.772 . S
C1519 C145 1.769 . S
C1524 C997 1.769 . S
C1529 C409 1.772 . S
C1534 C205 1.771 . S
C1539 C929 1.769 . S
C1544 C284 1.769 . S
C1549 C117 1.767 . S
C1554 C20 1.767 . S
C1559 C313 1.736 . S
C1564 C233 1.736 . S
C1569 C900 1.765 . S
C1574 C381 1.765 . S
C1579 C645 1.756 . S
C1584 C469 1.753 . S
C1589 C577 1.756 . S
C1594 C724 1.758 . S
C1599 C1369 1.766 . S
C1604 C460 1.752 . S
C1609 C585 1.752 . S
C1614 C1289 1.766 . S
C1619 C849 1.755 . S
C1624 C673 1.768 . S
C1629 C753 1.766 . S
C1634 C1173 1.752 . S
C1639 C548 1.770 . S
C1644 C497 1.770 . S
C1649 C761 1.767 . S
C1654 C665 1.767 . S
C1659 C812 1.772 . S
C1664 C1193 1.772 . S
C1669 C937 1.762 . S
C1674 C988 1.762 . S
C1679 C1085 1.762 . S
C1684 C401 1.762 . S
C1689 C1105 1.739 . S
C1694 C1025 1.739 . S
C1699 C1261 1.758 . S
C1704 C1164 1.756 . S
C1709 C841 1.753 . S
C1714 C1340 1.756 . S
C1719 C1377 1.767 . S
C1724 C1281 1.767 . S
