# Generated by pormake.
# Topology wgb, (5)-cn, num edge types: 1
# Building blocks:
#     Node 0, Type 0, BuildingBlock: XOMCOT_clean_sbu_0, # of connection points: 5
#     Node 1, Type 0, BuildingBlock: XOMCOT_clean_sbu_0, # of connection points: 5
#     Node 2, Type 0, BuildingBlock: XOMCOT_clean_sbu_0, # of connection points: 5
#     Node 3, Type 0, BuildingBlock: XOMCOT_clean_sbu_0, # of connection points: 5
#     Node 4, Type 0, BuildingBlock: XOMCOT_clean_sbu_0, # of connection points: 5
#     Node 5, Type 0, BuildingBlock: XOMCOT_clean_sbu_0, # of connection points: 5
#     Node 6, Type 0, BuildingBlock: XOMCOT_clean_sbu_0, # of connection points: 5
#     Node 7, Type 0, BuildingBlock: XOMCOT_clean_sbu_0, # of connection points: 5
#     Node 8, Type 0, BuildingBlock: XOMCOT_clean_sbu_0, # of connection points: 5
#     Node 9, Type 0, BuildingBlock: XOMCOT_clean_sbu_0, # of connection points: 5
#     Node 10, Type 0, BuildingBlock: XOMCOT_clean_sbu_0, # of connection points: 5
#     Node 11, Type 0, BuildingBlock: XOMCOT_clean_sbu_0, # of connection points: 5
#     Node 12, Type 0, BuildingBlock: XOMCOT_clean_sbu_0, # of connection points: 5
#     Node 13, Type 0, BuildingBlock: XOMCOT_clean_sbu_0, # of connection points: 5
#     Node 14, Type 0, BuildingBlock: XOMCOT_clean_sbu_0, # of connection points: 5
#     Node 15, Type 0, BuildingBlock: XOMCOT_clean_sbu_0, # of connection points: 5
#     Edge 16, Type (0, 0), BuildingBlock: OJICUG_clean_linker_0, # of connection points: 2
#     Edge 17, Type (0, 0), BuildingBlock: OJICUG_clean_linker_0, # of connection points: 2
#     Edge 18, Type (0, 0), BuildingBlock: OJICUG_clean_linker_0, # of connection points: 2
#     Edge 19, Type (0, 0), BuildingBlock: OJICUG_clean_linker_0, # of connection points: 2
#     Edge 20, Type (0, 0), BuildingBlock: OJICUG_clean_linker_0, # of connection points: 2
#     Edge 21, Type (0, 0), BuildingBlock: OJICUG_clean_linker_0, # of connection points: 2
#     Edge 22, Type (0, 0), BuildingBlock: OJICUG_clean_linker_0, # of connection points: 2
#     Edge 23, Type (0, 0), BuildingBlock: OJICUG_clean_linker_0, # of connection points: 2
#     Edge 24, Type (0, 0), BuildingBlock: OJICUG_clean_linker_0, # of connection points: 2
#     Edge 25, Type (0, 0), BuildingBlock: OJICUG_clean_linker_0, # of connection points: 2
#     Edge 26, Type (0, 0), BuildingBlock: OJICUG_clean_linker_0, # of connection points: 2
#     Edge 27, Type (0, 0), BuildingBlock: OJICUG_clean_linker_0, # of connection points: 2
#     Edge 28, Type (0, 0), BuildingBlock: OJICUG_clean_linker_0, # of connection points: 2
#     Edge 29, Type (0, 0), BuildingBlock: OJICUG_clean_linker_0, # of connection points: 2
#     Edge 30, Type (0, 0), BuildingBlock: OJICUG_clean_linker_0, # of connection points: 2
#     Edge 31, Type (0, 0), BuildingBlock: OJICUG_clean_linker_0, # of connection points: 2
#     Edge 32, Type (0, 0), BuildingBlock: OJICUG_clean_linker_0, # of connection points: 2
#     Edge 33, Type (0, 0), BuildingBlock: OJICUG_clean_linker_0, # of connection points: 2
#     Edge 34, Type (0, 0), BuildingBlock: OJICUG_clean_linker_0, # of connection points: 2
#     Edge 35, Type (0, 0), BuildingBlock: OJICUG_clean_linker_0, # of connection points: 2
#     Edge 36, Type (0, 0), BuildingBlock: OJICUG_clean_linker_0, # of connection points: 2
#     Edge 37, Type (0, 0), BuildingBlock: OJICUG_clean_linker_0, # of connection points: 2
#     Edge 38, Type (0, 0), BuildingBlock: OJICUG_clean_linker_0, # of connection points: 2
#     Edge 39, Type (0, 0), BuildingBlock: OJICUG_clean_linker_0, # of connection points: 2
#     Edge 40, Type (0, 0), BuildingBlock: OJICUG_clean_linker_0, # of connection points: 2
#     Edge 41, Type (0, 0), BuildingBlock: OJICUG_clean_linker_0, # of connection points: 2
#     Edge 42, Type (0, 0), BuildingBlock: OJICUG_clean_linker_0, # of connection points: 2
#     Edge 43, Type (0, 0), BuildingBlock: OJICUG_clean_linker_0, # of connection points: 2
#     Edge 44, Type (0, 0), BuildingBlock: OJICUG_clean_linker_0, # of connection points: 2
#     Edge 45, Type (0, 0), BuildingBlock: OJICUG_clean_linker_0, # of connection points: 2
#     Edge 46, Type (0, 0), BuildingBlock: OJICUG_clean_linker_0, # of connection points: 2
#     Edge 47, Type (0, 0), BuildingBlock: OJICUG_clean_linker_0, # of connection points: 2
#     Edge 48, Type (0, 0), BuildingBlock: OJICUG_clean_linker_0, # of connection points: 2
#     Edge 49, Type (0, 0), BuildingBlock: OJICUG_clean_linker_0, # of connection points: 2
#     Edge 50, Type (0, 0), BuildingBlock: OJICUG_clean_linker_0, # of connection points: 2
#     Edge 51, Type (0, 0), BuildingBlock: OJICUG_clean_linker_0, # of connection points: 2
#     Edge 52, Type (0, 0), BuildingBlock: OJICUG_clean_linker_0, # of connection points: 2
#     Edge 53, Type (0, 0), BuildingBlock: OJICUG_clean_linker_0, # of connection points: 2
#     Edge 54, Type (0, 0), BuildingBlock: OJICUG_clean_linker_0, # of connection points: 2
#     Edge 55, Type (0, 0), BuildingBlock: OJICUG_clean_linker_0, # of connection points: 2
# Relax obj value: 0.082
# Max RMSD: 0.115
# Mean RMSD: 0.115
data_MOF--net-wgb--node1-XOMCOT_clean_sbu_0--edge1-OJICUG_clean_linker_0
_symmetry_space_group_name_H-M    P1
_symmetry_Int_Tables_number       1
_symmetry_cell_setting            triclinic
loop_
_symmetry_equiv_pos_as_xyz
'x, y, z'
_cell_length_a     43.771618
_cell_length_b     43.762599
_cell_length_c     20.813509
_cell_angle_alpha  90.029037
_cell_angle_beta   89.991176
_cell_angle_gamma 89.940311
loop_
_atom_site_label
_atom_site_type_symbol
_atom_site_fract_x
_atom_site_fract_y
_atom_site_fract_z
_atom_type_partial_charge
Co0 Co 0.35424 0.11319 0.20114 0.0
C1 C 0.3505 0.17917 0.1735 0.0
C2 C 0.33701 0.16921 0.27036 0.0
C3 C 0.33375 0.20013 0.25993 0.0
N4 N 0.34729 0.15615 0.21596 0.0
N5 N 0.34215 0.20639 0.19885 0.0
H6 H 0.35885 0.17599 0.12509 0.0
H7 H 0.33184 0.15706 0.31425 0.0
C8 C 0.30059 0.08037 0.26105 0.0
O9 O 0.30233 0.05827 0.21849 0.0
N10 N 0.36171 0.06985 0.18653 0.0
C11 C 0.36261 0.05496 0.12978 0.0
C12 C 0.37019 0.025 0.14041 0.0
C13 C 0.36906 0.04846 0.23104 0.0
N14 N 0.37438 0.02086 0.20394 0.0
C15 C 0.34599 0.12061 0.0647 0.0
C16 C 0.28302 0.11719 0.06287 0.0
C17 C 0.29858 0.11931 1.00402 0.0
C18 C 0.33055 0.12179 1.00587 0.0
C19 C 0.29935 0.11638 0.1207 0.0
N20 N 0.33059 0.11647 0.12118 0.0
H21 H 0.3706 0.12206 0.06451 0.0
H22 H 0.28643 0.11586 0.1646 0.0
H23 H 0.35831 0.06466 0.0832 0.0
H24 H 0.37083 0.0531 0.28198 0.0
O25 O 0.39537 0.12231 0.16999 0.0
O26 O 0.38279 0.11238 0.27084 0.0
O27 O 0.31751 0.10397 0.2561 0.0
C28 C 0.40397 0.11891 0.22955 0.0
H29 H 0.32506 0.21651 0.29434 0.0
H30 H 0.37222 1.00751 0.10388 0.0
H31 H 0.25836 0.11561 0.06458 0.0
H32 H 0.34369 0.12458 0.96221 0.0
Co33 Co 0.11433 0.66644 0.83576 0.0
C34 C 0.18028 0.66918 0.8633 0.0
C35 C 0.17043 0.68398 0.76723 0.0
C36 C 0.2014 0.68665 0.77776 0.0
N37 N 0.15729 0.67324 0.82108 0.0
N38 N 0.20758 0.67742 0.83835 0.0
H39 H 0.17701 0.66027 0.91121 0.0
H40 H 0.15835 0.6898 0.72362 0.0
C41 C 0.08148 0.72026 0.7767 0.0
O42 O 0.0597 0.71869 0.81998 0.0
N43 N 0.07101 0.65911 0.85031 0.0
C44 C 0.05613 0.65813 0.90704 0.0
C45 C 0.02612 0.65088 0.89626 0.0
C46 C 0.04958 0.65212 0.80566 0.0
N47 N 0.02194 0.64698 0.83264 0.0
C48 C 0.1217 0.67459 0.97222 0.0
C49 C 0.11846 0.73759 0.97418 0.0
C50 C 0.12035 0.722 0.033 0.0
C51 C 0.12279 0.69001 0.0311 0.0
C52 C 0.11775 0.72128 0.91631 0.0
N53 N 0.11767 0.69003 0.91577 0.0
H54 H 0.12308 0.64997 0.97235 0.0
H55 H 0.11744 0.73421 0.87242 0.0
H56 H 0.06586 0.66216 0.95369 0.0
H57 H 0.05421 0.65051 0.75469 0.0
O58 O 0.12339 0.62525 0.86673 0.0
O59 O 0.1135 0.63794 0.76593 0.0
O60 O 0.10506 0.70323 0.78097 0.0
C61 C 0.12 0.6167 0.80712 0.0
H62 H 0.21788 0.69546 0.74377 0.0
H63 H 1.00862 0.64889 0.93275 0.0
H64 H 0.11697 0.76227 0.97251 0.0
H65 H 0.12544 0.67684 0.07476 0.0
Co66 Co 0.66494 0.90231 0.19711 0.0
C67 C 0.66912 0.83643 0.16862 0.0
C68 C 0.68387 0.84641 0.26468 0.0
C69 C 0.68708 0.8155 0.25397 0.0
N70 N 0.67281 0.85945 0.21098 0.0
N71 N 0.67785 0.80922 0.19342 0.0
H72 H 0.66007 0.8396 0.12078 0.0
H73 H 0.6895 0.85855 0.30836 0.0
C74 C 0.71844 0.93599 0.25525 0.0
O75 O 0.71653 0.95754 0.21152 0.0
N76 N 0.65652 0.94552 0.18359 0.0
C77 C 0.65339 0.9603 0.12713 0.0
C78 C 0.6457 0.99015 0.13889 0.0
C79 C 0.65025 0.9668 0.22911 0.0
N80 N 0.6436 0.99429 0.20291 0.0
C81 C 0.67293 0.89591 0.06027 0.0
C82 C 0.73588 0.89961 0.05804 0.0
C83 C 0.72023 0.89792 0.99923 0.0
C84 C 0.68828 0.89526 1.00126 0.0
C85 C 0.71964 0.89989 0.11602 0.0
N86 N 0.6884 0.89979 0.11674 0.0
H87 H 0.64833 0.89424 0.06028 0.0
H88 H 0.73262 0.89995 0.15985 0.0
H89 H 0.65601 0.95055 0.08004 0.0
H90 H 0.65019 0.96211 0.28016 0.0
O91 O 0.62387 0.89249 0.16649 0.0
O92 O 0.63665 0.90232 0.26728 0.0
O93 O 0.70166 0.91223 0.2516 0.0
C94 C 0.61542 0.89557 0.22625 0.0
H95 H 0.69618 0.79913 0.28787 0.0
H96 H 0.64208 1.00755 0.10274 0.0
H97 H 0.76054 0.90123 0.05966 0.0
H98 H 0.67507 0.89271 0.95762 0.0
Co99 Co 0.90176 0.35452 0.83748 0.0
C100 C 0.83621 0.34834 0.86686 0.0
C101 C 0.84645 0.33316 0.77118 0.0
C102 C 0.81567 0.32924 0.78217 0.0
N103 N 0.85924 0.34493 0.82448 0.0
N104 N 0.80924 0.33875 0.84246 0.0
H105 H 0.83916 0.35796 0.91429 0.0
H106 H 0.85863 0.32768 0.72748 0.0
C107 C 0.93702 0.30196 0.77859 0.0
O108 O 0.95904 0.30461 0.82108 0.0
N109 N 0.94458 0.3647 0.85032 0.0
C110 C 0.95888 0.3696 0.90677 0.0
C111 C 0.98847 0.37806 0.89507 0.0
C112 C 0.96585 0.37081 0.80477 0.0
N113 N 0.99294 0.37895 0.83103 0.0
C114 C 0.89579 0.34678 0.97455 0.0
C115 C 0.90167 0.28398 0.97743 0.0
C116 C 0.89891 0.29966 0.03602 0.0
C117 C 0.89531 0.33153 0.03369 0.0
C118 C 0.90181 0.3001 0.91936 0.0
N119 N 0.90048 0.33132 0.91829 0.0
H120 H 0.89311 0.3713 0.97424 0.0
H121 H 0.9026 0.287 0.87572 0.0
H122 H 0.9489 0.36774 0.95379 0.0
H123 H 0.96146 0.36963 0.75366 0.0
O124 O 0.89044 0.39542 0.86735 0.0
O125 O 0.90005 0.38229 0.76665 0.0
O126 O 0.91278 0.318 0.78339 0.0
C127 C 0.89219 0.40341 0.80707 0.0
H128 H 0.79947 0.31957 0.74859 0.0
H129 H 1.0055 0.38296 0.93133 0.0
H130 H 0.90411 0.25937 0.9761 0.0
H131 H 0.89199 0.34471 0.07717 0.0
Co132 Co 0.34161 0.4158 0.06697 0.0
C133 C 0.34144 0.35011 0.09584 0.0
C134 C 0.32508 0.35875 1.0003 0.0
C135 C 0.32423 0.32771 1.01148 0.0
N136 N 0.33577 0.37264 0.05337 0.0
N137 N 0.33452 0.32228 0.07167 0.0
H138 H 0.35065 0.35419 0.14329 0.0
H139 H 0.31823 0.37035 0.95674 0.0
C140 C 0.3059 0.44161 0.96312 0.0
O141 O 0.33138 0.45611 0.95 0.0
N142 N 0.34701 0.45943 0.08141 0.0
C143 C 0.32737 0.47769 0.11356 0.0
C144 C 0.33753 0.50732 0.11034 0.0
C145 C 0.36859 0.47853 0.05774 0.0
N146 N 0.36325 0.50779 0.07499 0.0
C147 C 0.33211 0.41767 0.20306 0.0
C148 C 0.27107 0.40129 0.20163 0.0
C149 C 0.28529 0.40666 0.26105 0.0
C150 C 0.3163 0.4148 0.26118 0.0
C151 C 0.2878 0.40411 0.14455 0.0
N152 N 0.3178 0.41264 0.14576 0.0
H153 H 0.35589 0.42426 0.20389 0.0
H154 H 0.27666 0.39901 0.09952 0.0
H155 H 0.30638 0.47033 0.13602 0.0
H156 H 0.3873 0.47154 0.02711 0.0
O157 O 0.38227 0.40742 0.10069 0.0
O158 O 0.37116 0.4159 0.99851 0.0
O159 O 0.30444 0.42464 1.01303 0.0
C160 C 0.3916 0.40904 0.04132 0.0
H161 H 0.31611 0.31061 0.97807 0.0
H162 H 0.32614 0.52724 0.12988 0.0
H163 H 0.24733 0.39444 0.19928 0.0
H164 H 0.32816 0.41939 0.3058 0.0
Co165 Co 0.4171 0.67317 0.96898 0.0
C166 C 0.35134 0.67399 0.94085 0.0
C167 C 0.36033 0.68942 0.03695 0.0
C168 C 0.32929 0.69077 0.02605 0.0
N169 N 0.374 0.67901 0.98336 0.0
N170 N 0.32365 0.6811 0.96549 0.0
H171 H 0.35523 0.66522 0.89295 0.0
H172 H 0.37209 0.69583 0.08061 0.0
C173 C 0.44305 0.70903 0.07243 0.0
O174 O 0.45783 0.68366 0.08535 0.0
N175 N 0.46068 0.6678 0.9538 0.0
C176 C 0.4787 0.68744 0.92118 0.0
C177 C 0.50839 0.67741 0.92397 0.0
C178 C 0.48001 0.64635 0.97735 0.0
N179 N 0.50916 0.65177 0.95954 0.0
C180 C 0.41836 0.68259 0.8328 0.0
C181 C 0.402 0.74368 0.83455 0.0
C182 C 0.40717 0.72945 0.77504 0.0
C183 C 0.41528 0.69841 0.77474 0.0
C184 C 0.40501 0.72694 0.89155 0.0
N185 N 0.41355 0.69692 0.89019 0.0
H186 H 0.42494 0.65879 0.83185 0.0
H187 H 0.40007 0.7381 0.93666 0.0
H188 H 0.47113 0.70838 0.89871 0.0
H189 H 0.47326 0.6277 1.0083 0.0
O190 O 0.40866 0.63243 0.93564 0.0
O191 O 0.41758 0.64371 0.03758 0.0
O192 O 0.42599 0.71038 0.02264 0.0
C193 C 0.41052 0.62321 0.99505 0.0
H194 H 0.31235 0.69891 0.05984 0.0
H195 H 0.52815 0.68886 0.90402 0.0
H196 H 0.39515 0.76744 0.83703 0.0
H197 H 0.41972 0.68654 0.73004 0.0
Co198 Co 0.67553 0.59938 0.06329 0.0
C199 C 0.67599 0.66521 0.09156 0.0
C200 C 0.69121 0.65627 0.99529 0.0
C201 C 0.69228 0.68733 1.0061 0.0
N202 N 0.68111 0.64255 0.04903 0.0
N203 N 0.68272 0.69296 0.06675 0.0
H204 H 0.66736 0.6613 0.13955 0.0
H205 H 0.69757 0.64453 0.95154 0.0
C206 C 0.7111 0.57379 0.95882 0.0
O207 O 0.68581 0.55882 0.94639 0.0
N208 N 0.67041 0.55576 0.07834 0.0
C209 C 0.69023 0.53774 0.11053 0.0
C210 C 0.68009 0.50808 0.10838 0.0
C211 C 0.64874 0.53647 0.05567 0.0
N212 N 0.65419 0.50733 0.07365 0.0
C213 C 0.68523 0.59828 0.19937 0.0
C214 C 0.74633 0.61441 0.19731 0.0
C215 C 0.73211 0.60953 0.25693 0.0
C216 C 0.70108 0.60151 0.25736 0.0
C217 C 0.72954 0.61131 0.14035 0.0
N218 N 0.69949 0.60293 0.14187 0.0
H219 H 0.66143 0.59178 0.20048 0.0
H220 H 0.74067 0.61607 0.09516 0.0
H221 H 0.71128 0.5453 0.13245 0.0
H222 H 0.62984 0.54324 0.02539 0.0
O223 O 0.63485 0.60767 0.09719 0.0
O224 O 0.64585 0.59887 0.99508 0.0
O225 O 0.71259 0.59066 1.00894 0.0
C226 C 0.62544 0.6058 0.03792 0.0
H227 H 0.7001 0.70431 0.97213 0.0
H228 H 0.69159 0.48832 0.1283 0.0
H229 H 0.7701 0.62113 0.19474 0.0
H230 H 0.68922 0.5973 0.30216 0.0
Co231 Co 0.5998 0.3413 0.9727 0.0
C232 C 0.66554 0.34056 0.94445 0.0
C233 C 0.65659 0.32545 0.04077 0.0
C234 C 0.68764 0.32424 0.02997 0.0
N235 N 0.6429 0.33557 0.98698 0.0
N236 N 0.69324 0.33372 0.96929 0.0
H237 H 0.66164 0.34918 0.89645 0.0
H238 H 0.64484 0.31919 0.08453 0.0
C239 C 0.5742 0.3055 0.0766 0.0
O240 O 0.5594 0.33084 0.08969 0.0
N241 N 0.55621 0.34652 0.95778 0.0
C242 C 0.53819 0.32669 0.92562 0.0
C243 C 0.50849 0.33669 0.92837 0.0
C244 C 0.53688 0.36804 0.98107 0.0
N245 N 0.50772 0.3625 0.96348 0.0
C246 C 0.59827 0.33184 0.83675 0.0
C247 C 0.61485 0.27083 0.83762 0.0
C248 C 0.60934 0.28506 0.77812 0.0
C249 C 0.60118 0.31614 0.77854 0.0
C250 C 0.61193 0.28748 0.89488 0.0
N251 N 0.60328 0.31747 0.89392 0.0
H252 H 0.59177 0.35567 0.83604 0.0
H253 H 0.61685 0.27623 0.93988 0.0
H254 H 0.54577 0.30568 0.90346 0.0
H255 H 0.54364 0.38684 1.01162 0.0
O256 O 0.60811 0.38193 0.93889 0.0
O257 O 0.59939 0.37102 0.04106 0.0
O258 O 0.5911 0.30414 0.02654 0.0
C259 C 0.60636 0.39138 0.99814 0.0
H260 H 0.70463 0.31639 0.06393 0.0
H261 H 0.48873 0.32514 0.9087 0.0
H262 H 0.62104 0.24692 0.84025 0.0
H263 H 0.59736 0.32849 0.73421 0.0
Co264 Co 0.85403 0.61559 0.69729 0.0
C265 C 0.8489 0.68123 0.66885 0.0
C266 C 0.83399 0.6712 0.76479 0.0
C267 C 0.8305 0.70207 0.75394 0.0
N268 N 0.84534 0.65824 0.71124 0.0
N269 N 0.83983 0.70837 0.69347 0.0
H270 H 0.85813 0.67806 0.62113 0.0
H271 H 0.82843 0.65905 0.80847 0.0
C272 C 0.79929 0.58217 0.75237 0.0
O273 O 0.79996 0.5618 0.706 0.0
N274 N 0.86343 0.57268 0.68342 0.0
C275 C 0.87436 0.56013 0.62893 0.0
C276 C 0.88032 0.52982 0.63946 0.0
C277 C 0.86406 0.54981 0.72729 0.0
N278 N 0.87359 0.52314 0.70109 0.0
C279 C 0.84623 0.62033 0.55995 0.0
C280 C 0.78321 0.6186 0.55799 0.0
C281 C 0.79885 0.61888 0.49902 0.0
C282 C 0.83088 0.6206 0.50093 0.0
C283 C 0.79949 0.61872 0.61595 0.0
N284 N 0.83072 0.61764 0.61664 0.0
H285 H 0.87082 0.62215 0.55985 0.0
H286 H 0.78661 0.62006 0.65986 0.0
H287 H 0.87902 0.57205 0.58482 0.0
H288 H 0.85741 0.55262 0.77703 0.0
O289 O 0.89497 0.62626 0.66718 0.0
O290 O 0.88213 0.61589 0.76771 0.0
O291 O 0.81735 0.60503 0.75141 0.0
C292 C 0.90333 0.62312 0.72698 0.0
H293 H 0.8212 0.71841 0.78772 0.0
H294 H 0.88977 0.5141 0.60455 0.0
H295 H 0.75852 0.6179 0.55981 0.0
H296 H 0.84414 0.62238 0.45719 0.0
Co297 Co 0.61467 0.16251 0.33908 0.0
C298 C 0.68053 0.16705 0.36676 0.0
C299 C 0.67033 0.18095 0.27024 0.0
C300 C 0.70121 0.18447 0.28067 0.0
N301 N 0.65745 0.17024 0.32441 0.0
N302 N 0.70762 0.17581 0.34152 0.0
H303 H 0.67748 0.15841 0.41496 0.0
H304 H 0.65809 0.18619 0.22649 0.0
C305 C 0.58091 0.21598 0.28046 0.0
O306 O 0.55928 0.21415 0.32405 0.0
N307 N 0.57153 0.15425 0.35344 0.0
C308 C 0.55691 0.15145 0.41019 0.0
C309 C 0.52706 0.1437 0.39904 0.0
C310 C 0.55015 0.14773 0.30839 0.0
N311 N 0.52275 0.14123 0.33513 0.0
C312 C 0.62146 0.17093 0.47588 0.0
C313 C 0.61714 0.23388 0.47709 0.0
C314 C 0.61884 0.2184 0.53595 0.0
C315 C 0.62191 0.18651 0.5347 0.0
C316 C 0.61713 0.21745 0.41938 0.0
N317 N 0.61744 0.18619 0.41915 0.0
H318 H 0.62314 0.14632 0.47624 0.0
H319 H 0.61717 0.23028 0.37536 0.0
H320 H 0.56677 0.15435 0.45708 0.0
H321 H 0.55468 0.14737 0.25728 0.0
O322 O 0.62457 0.12145 0.36992 0.0
O323 O 0.61439 0.13405 0.26919 0.0
O324 O 0.60465 0.19914 0.2843 0.0
C325 C 0.62124 0.11288 0.31027 0.0
H326 H 0.71746 0.19348 0.24641 0.0
H327 H 0.50976 0.14031 0.43551 0.0
H328 H 0.61607 0.2586 0.47557 0.0
H329 H 0.62367 0.17356 0.57887 0.0
Co330 Co 0.16214 0.40532 0.69952 0.0
C331 C 0.16594 0.33932 0.67225 0.0
C332 C 0.17895 0.34944 0.76935 0.0
C333 C 0.18226 0.31851 0.75917 0.0
N334 N 0.16895 0.3624 0.71466 0.0
N335 N 0.17417 0.31215 0.69794 0.0
H336 H 0.15785 0.34242 0.62365 0.0
H337 H 0.1839 0.36167 0.81328 0.0
C338 C 0.21586 0.43797 0.75988 0.0
O339 O 0.21438 0.45995 0.71704 0.0
N340 N 0.15483 0.44862 0.68472 0.0
C341 C 0.15344 0.46336 0.62788 0.0
C342 C 0.14608 0.49338 0.63858 0.0
C343 C 0.14794 0.47012 0.72934 0.0
N344 N 0.1425 0.49768 0.70226 0.0
C345 C 0.17079 0.39776 0.56325 0.0
C346 C 0.23376 0.40134 0.56192 0.0
C347 C 0.21831 0.39927 0.50293 0.0
C348 C 0.18635 0.39666 0.50455 0.0
C349 C 0.21731 0.40205 0.61966 0.0
N350 N 0.18606 0.40192 0.61988 0.0
H351 H 0.14619 0.39625 0.56281 0.0
H352 H 0.23013 0.40253 0.66367 0.0
H353 H 0.15717 0.45349 0.58122 0.0
H354 H 0.14658 0.46557 0.78036 0.0
O355 O 0.12114 0.39625 0.66759 0.0
O356 O 0.13322 0.4063 0.76868 0.0
O357 O 0.19873 0.41451 0.75506 0.0
C358 C 0.11223 0.39981 0.72691 0.0
H359 H 0.19078 0.30219 0.79386 0.0
H360 H 0.14376 0.51079 0.602 0.0
H361 H 0.25841 0.40296 0.56382 0.0
H362 H 0.17328 0.39386 0.46079 0.0
Co363 Co 0.40456 0.8522 0.33619 0.0
C364 C 0.33865 0.84908 0.36419 0.0
C365 C 0.34848 0.83436 0.26801 0.0
C366 C 0.31753 0.8316 0.27861 0.0
N367 N 0.36163 0.84511 0.32187 0.0
N368 N 0.31136 0.84079 0.33925 0.0
H369 H 0.34191 0.858 0.41211 0.0
H370 H 0.36056 0.82863 0.22432 0.0
C371 C 0.43759 0.7985 0.27665 0.0
O372 O 0.45944 0.80018 0.31975 0.0
N373 N 0.44785 0.85984 0.35032 0.0
C374 C 0.46274 0.8614 0.40698 0.0
C375 C 0.49267 0.86884 0.39589 0.0
C376 C 0.46919 0.86671 0.3054 0.0
N377 N 0.49679 0.87231 0.33214 0.0
C378 C 0.39752 0.8439 0.47274 0.0
C379 C 0.40107 0.78092 0.47439 0.0
C380 C 0.39914 0.79646 0.53332 0.0
C381 C 0.39657 0.82844 0.53156 0.0
C382 C 0.40164 0.79727 0.41658 0.0
N383 N 0.40155 0.82852 0.41617 0.0
H384 H 0.39599 0.86852 0.47299 0.0
H385 H 0.40195 0.78437 0.37264 0.0
H386 H 0.45303 0.85771 0.45378 0.0
H387 H 0.46451 0.86793 0.25441 0.0
O388 O 0.39527 0.89332 0.36746 0.0
O389 O 0.40505 0.88079 0.26651 0.0
O390 O 0.41397 0.81549 0.28111 0.0
C391 C 0.39845 0.90195 0.30787 0.0
H392 H 0.30106 0.82279 0.24459 0.0
H393 H 0.51017 0.87129 0.43227 0.0
H394 H 0.40266 0.75625 0.47259 0.0
H395 H 0.39388 0.84157 0.57529 0.0
Co396 Co 0.8433 0.91797 0.56365 0.0
C397 C 0.84274 0.85217 0.59149 0.0
C398 C 0.82773 0.86119 0.49513 0.0
C399 C 0.82646 0.83014 0.50587 0.0
N400 N 0.83782 0.87485 0.54898 0.0
N401 N 0.83586 0.82447 0.56659 0.0
H402 H 0.85125 0.85603 0.63959 0.0
H403 H 0.82147 0.87298 0.45141 0.0
C404 C 0.80733 0.94367 0.46008 0.0
O405 O 0.83251 0.95875 0.44732 0.0
N406 N 0.8483 0.96157 0.57905 0.0
C407 C 0.82848 0.97949 0.61157 0.0
C408 C 0.8384 0.00922 0.60913 0.0
C409 C 0.86973 0.98099 0.55591 0.0
N410 N 0.86415 0.0101 0.57388 0.0
C411 C 0.83371 0.91903 0.69978 0.0
C412 C 0.7728 0.90218 0.69776 0.0
C413 C 0.78695 0.9073 0.75735 0.0
C414 C 0.81789 0.91568 0.75777 0.0
C415 C 0.78954 0.90546 0.64082 0.0
N416 N 0.81948 0.91421 0.64232 0.0
H417 H 0.85744 0.92579 0.70083 0.0
H418 H 0.77846 0.90052 0.59565 0.0
H419 H 0.80754 0.97183 0.6338 0.0
H420 H 0.88852 0.97432 0.5252 0.0
O421 O 0.88404 0.90976 0.59716 0.0
O422 O 0.87284 0.9187 0.49519 0.0
O423 O 0.8061 0.92664 0.50992 0.0
C424 C 0.89333 0.91176 0.53781 0.0
H425 H 0.81856 0.8132 0.47186 0.0
H426 H 0.82683 0.02893 0.62914 0.0
H427 H 0.74912 0.89515 0.69519 0.0
H428 H 0.8297 0.92008 0.80255 0.0
Co429 Co 0.91721 0.1763 0.47149 0.0
C430 C 0.85147 0.17635 0.44337 0.0
C431 C 0.86027 0.19234 0.53914 0.0
C432 C 0.8292 0.19315 0.52831 0.0
N433 N 0.87406 0.18191 0.48572 0.0
N434 N 0.82368 0.1831 0.46797 0.0
H435 H 0.85547 0.16735 0.3957 0.0
H436 H 0.87194 0.19906 0.5827 0.0
C437 C 0.94299 0.21208 0.57535 0.0
O438 O 0.95776 0.18671 0.58838 0.0
N439 N 0.96081 0.17117 0.4565 0.0
C440 C 0.97882 0.191 0.42436 0.0
C441 C 1.00854 0.18109 0.42738 0.0
C442 C 0.98017 0.14974 0.47999 0.0
N443 N 0.00933 0.15535 0.46261 0.0
C444 C 0.91876 0.18611 0.33551 0.0
C445 C 0.90175 0.24702 0.33767 0.0
C446 C 0.9072 0.23297 0.27806 0.0
C447 C 0.91568 0.20202 0.27759 0.0
C448 C 0.90482 0.23018 0.39455 0.0
N449 N 0.91365 0.20024 0.39297 0.0
H450 H 0.92559 0.16237 0.33439 0.0
H451 H 0.89967 0.24118 0.43974 0.0
H452 H 0.97121 0.21197 0.40213 0.0
H453 H 0.97343 0.13097 0.51064 0.0
O454 O 0.909 0.13565 0.43754 0.0
O455 O 0.91771 0.14663 0.53972 0.0
O456 O 0.92593 0.21341 0.52554 0.0
C457 C 0.9108 0.12624 0.49681 0.0
H458 H 0.81214 0.20109 0.56204 0.0
H459 H 0.02831 0.19269 0.40786 0.0
H460 H 0.89463 0.27069 0.34031 0.0
H461 H 0.92036 0.19028 0.23284 0.0
Co462 Co 0.17526 0.10257 0.5683 0.0
C463 C 0.17529 0.1683 0.59612 0.0
C464 C 0.19194 0.15936 0.5009 0.0
C465 C 0.19275 0.19044 0.51172 0.0
N466 N 0.18109 0.14565 0.554 0.0
N467 N 0.18229 0.19604 0.57173 0.0
H468 H 0.16595 0.16436 0.6435 0.0
H469 H 0.19892 0.14763 0.45757 0.0
C470 C 0.21101 0.07636 0.46496 0.0
O471 O 0.18557 0.06176 0.45204 0.0
N472 N 0.16986 0.05903 0.58348 0.0
C473 C 0.18943 0.04091 0.61613 0.0
C474 C 0.17939 0.01125 0.61295 0.0
C475 C 0.14844 0.03981 0.55961 0.0
N476 N 0.15382 0.01062 0.57714 0.0
C477 C 0.18469 0.10128 0.70445 0.0
C478 C 0.24579 0.11741 0.70274 0.0
C479 C 0.23158 0.11222 0.76223 0.0
C480 C 0.20053 0.10423 0.7625 0.0
C481 C 0.22904 0.11452 0.64574 0.0
N482 N 0.19901 0.10607 0.64708 0.0
H483 H 0.16088 0.09478 0.70538 0.0
H484 H 0.24018 0.11944 0.60064 0.0
H485 H 0.21034 0.04838 0.63878 0.0
H486 H 0.12989 0.04665 0.52846 0.0
O487 O 0.13454 0.11108 0.60168 0.0
O488 O 0.14581 0.10217 0.49971 0.0
O489 O 0.21244 0.09352 0.51464 0.0
C490 C 0.12531 0.10921 0.54228 0.0
H491 H 0.20097 0.20744 0.47823 0.0
H492 H 0.19081 0.9914 0.6327 0.0
H493 H 0.26956 0.12416 0.70029 0.0
H494 H 0.18866 0.09979 0.80719 0.0
Co495 Co 0.10171 0.84504 0.46878 0.0
C496 C 0.16752 0.84436 0.44127 0.0
C497 C 0.15839 0.82888 0.53724 0.0
C498 C 0.18945 0.82754 0.52653 0.0
N499 N 0.1448 0.8393 0.4836 0.0
N500 N 0.19518 0.83725 0.46605 0.0
H501 H 0.16371 0.85314 0.39337 0.0
H502 H 0.14655 0.82241 0.58077 0.0
C503 C 0.07554 0.8091 0.57168 0.0
O504 O 0.06059 0.8344 0.58436 0.0
N505 N 0.05817 0.85032 0.45309 0.0
C506 C 0.04027 0.83068 0.42016 0.0
C507 C 0.01055 0.84064 0.42276 0.0
C508 C 0.03875 0.87171 0.47659 0.0
N509 N 0.00965 0.86624 0.45851 0.0
C510 C 0.10085 0.83573 0.33258 0.0
C511 C 0.11728 0.77466 0.33426 0.0
C512 C 0.11221 0.78891 0.27478 0.0
C513 C 0.10407 0.81994 0.2745 0.0
C514 C 0.11413 0.79137 0.39128 0.0
N515 N 0.10554 0.82138 0.38994 0.0
H516 H 0.09424 0.85952 0.33167 0.0
H517 H 0.11898 0.7802 0.43639 0.0
H518 H 0.04793 0.80978 0.39763 0.0
H519 H 0.04539 0.89032 0.50778 0.0
O520 O 0.11012 0.88583 0.43581 0.0
O521 O 0.10095 0.87437 0.53757 0.0
O522 O 0.09277 0.80779 0.52213 0.0
C523 C 0.10803 0.89495 0.49528 0.0
H524 H 0.20634 0.81939 0.56039 0.0
H525 H 0.99085 0.82916 0.40263 0.0
H526 H 0.12414 0.7509 0.3367 0.0
H527 H 0.09972 0.83182 0.22979 0.0
C528 C 0.2567 0.05506 0.31722 0.0
C529 C 0.27854 0.07849 0.31495 0.0
H530 H 0.21852 0.03585 0.36687 0.0
C531 C 0.27941 0.10001 0.36531 0.0
H532 H 0.25555 0.03798 0.27963 0.0
C533 C 0.25838 0.09859 0.41586 0.0
C534 C 0.23589 0.07577 0.41684 0.0
H535 H 0.29619 0.11816 0.36553 0.0
H536 H 0.25914 0.11594 0.45298 0.0
C537 C 0.23554 0.0538 0.36743 0.0
C538 C 0.05372 0.78472 0.66999 0.0
C539 C 0.07544 0.78439 0.62014 0.0
H540 H 0.03855 0.76489 0.75841 0.0
C541 C 0.09854 0.76213 0.62102 0.0
H542 H 0.03557 0.80157 0.67066 0.0
C543 C 0.10044 0.7413 0.67186 0.0
C544 C 0.07916 0.74216 0.72263 0.0
H545 H 0.11572 0.76139 0.58358 0.0
H546 H 0.11878 0.72468 0.67151 0.0
C547 C 0.05548 0.76377 0.72051 0.0
C548 C 0.7605 0.92018 0.41131 0.0
C549 C 0.78265 0.94335 0.41149 0.0
H550 H 0.72314 0.89947 0.36151 0.0
C551 C 0.78286 0.96471 0.36097 0.0
H552 H 0.75986 0.90326 0.44927 0.0
C553 C 0.76188 0.96254 0.31054 0.0
C554 C 0.74038 0.93878 0.30918 0.0
H555 H 0.79962 0.9829 0.35973 0.0
H556 H 0.76289 0.97919 0.27212 0.0
C557 C 0.73967 0.91785 0.36058 0.0
C558 C 0.96311 0.25804 0.72358 0.0
C559 C 0.93961 0.27987 0.72487 0.0
H560 H 0.98276 0.21971 0.67489 0.0
C561 C 0.91852 0.28063 0.67374 0.0
H562 H 0.97986 0.25698 0.76182 0.0
C563 C 0.92038 0.25951 0.62344 0.0
C564 C 0.94321 0.23699 0.62344 0.0
H565 H 0.90036 0.29743 0.67269 0.0
H566 H 0.90333 0.26022 0.58574 0.0
C567 C 0.9648 0.23675 0.67359 0.0
C568 C 0.28132 0.46417 0.86567 0.0
C569 C 0.28094 0.44226 0.91514 0.0
H570 H 0.26122 0.48006 0.77806 0.0
C571 C 0.25829 0.41959 0.91442 0.0
H572 H 0.29845 0.48201 0.8649 0.0
C573 C 0.23712 0.41828 0.86407 0.0
C574 C 0.23801 0.43975 0.81366 0.0
H575 H 0.2575 0.40228 0.95158 0.0
H576 H 0.22022 0.40024 0.86447 0.0
C577 C 0.26004 0.46302 0.81568 0.0
C578 C 0.46335 0.75468 0.22085 0.0
C579 C 0.43981 0.77646 0.22274 0.0
H580 H 0.48302 0.7166 0.17143 0.0
C581 C 0.41852 0.77727 0.17197 0.0
H582 H 0.48027 0.75357 0.25876 0.0
C583 C 0.4203 0.75627 0.12136 0.0
C584 C 0.44326 0.73386 0.12073 0.0
H585 H 0.40029 0.794 0.17145 0.0
H586 H 0.40313 0.757 0.08392 0.0
C587 C 0.46498 0.73356 0.17058 0.0
C588 C 0.7584 0.59665 0.91056 0.0
C589 C 0.73556 0.57418 0.9096 0.0
H590 H 0.79618 0.61697 0.86152 0.0
C591 C 0.73449 0.55365 0.85752 0.0
H592 H 0.75975 0.61292 0.94971 0.0
C593 C 0.75528 0.55601 0.80674 0.0
C594 C 0.77752 0.57908 0.80663 0.0
H595 H 0.71718 0.53601 0.85532 0.0
H596 H 0.75358 0.54004 0.76714 0.0
C597 C 0.7791 0.59912 0.85957 0.0
C598 C 0.55478 0.25984 0.22553 0.0
C599 C 0.57832 0.23804 0.22669 0.0
H600 H 0.53485 0.29797 0.17679 0.0
C601 C 0.59929 0.23724 0.17533 0.0
H602 H 0.53811 0.26094 0.26392 0.0
C603 C 0.59722 0.25825 0.12486 0.0
C604 C 0.57428 0.28068 0.12492 0.0
H605 H 0.61751 0.2205 0.17425 0.0
H606 H 0.61416 0.25752 0.08694 0.0
C607 C 0.55286 0.28099 0.17538 0.0
C608 C 0.33796 0.26572 0.06821 0.0
C609 C 0.33704 0.29306 0.10373 0.0
H610 H 0.33987 0.21698 0.07005 0.0
C611 C 0.33835 0.2913 0.17118 0.0
H612 H 0.33736 0.26603 1.01628 0.0
C613 C 0.34037 0.26302 0.20218 0.0
C614 C 0.34098 0.23566 0.16669 0.0
H615 H 0.33737 0.3117 0.20043 0.0
H616 H 0.34154 0.26272 0.25408 0.0
C617 C 0.33983 0.23743 0.09922 0.0
C618 C 0.23873 0.67782 0.93794 0.0
C619 C 0.23689 0.6776 0.87044 0.0
H620 H 0.26743 0.67861 0.02089 0.0
C621 C 0.26422 0.6781 0.83489 0.0
H622 H 0.21831 0.67782 0.96718 0.0
C623 C 0.29255 0.67913 0.86589 0.0
C624 C 0.29438 0.67952 0.9334 0.0
H625 H 0.26386 0.67763 0.78295 0.0
H626 H 0.31294 0.68008 0.83665 0.0
C627 C 0.26706 0.67869 0.96894 0.0
C628 C 0.67842 0.77793 0.09392 0.0
C629 C 0.67834 0.77986 0.16141 0.0
H630 H 0.67939 0.7491 1.01109 0.0
C631 C 0.67927 0.75257 0.19707 0.0
H632 H 0.67807 0.79832 0.06461 0.0
C633 C 0.68058 0.7242 0.16619 0.0
C634 C 0.68085 0.72227 0.09871 0.0
H635 H 0.67889 0.75299 0.24901 0.0
H636 H 0.68185 0.70386 0.19553 0.0
C637 C 0.67959 0.74955 0.06304 0.0
C638 C 0.75268 0.33669 0.83888 0.0
C639 C 0.77995 0.33803 0.8745 0.0
H640 H 0.70401 0.33378 0.84058 0.0
C641 C 0.77808 0.33826 0.94198 0.0
H642 H 0.75308 0.3368 0.78693 0.0
C643 C 0.74976 0.33706 0.97293 0.0
C644 C 0.7225 0.33547 0.9373 0.0
H645 H 0.7985 0.33891 0.97121 0.0
H646 H 0.74931 0.33753 0.02488 0.0
C647 C 0.72437 0.33535 0.86982 0.0
C648 C 0.83866 0.76789 0.563 0.0
C649 C 0.83738 0.79519 0.59861 0.0
H650 H 0.83999 0.71913 0.56468 0.0
C651 C 0.83729 0.79333 0.66611 0.0
H652 H 0.8391 0.7683 0.51106 0.0
C653 C 0.83836 0.76499 0.69705 0.0
C654 C 0.83938 0.73768 0.66144 0.0
H655 H 0.83596 0.81371 0.69537 0.0
H656 H 0.8385 0.76461 0.749 0.0
C657 C 0.83957 0.73955 0.59395 0.0
C658 C 0.76715 0.17948 0.47182 0.0
C659 C 0.79441 0.1807 0.4361 0.0
H660 H 0.71842 0.17741 0.47029 0.0
C661 C 0.79252 0.17979 0.36864 0.0
H662 H 0.76758 0.17977 0.52376 0.0
C663 C 0.76421 0.17785 0.33781 0.0
C664 C 0.73693 0.17694 0.3735 0.0
H665 H 0.81286 0.18101 0.33926 0.0
H666 H 0.76382 0.17698 0.28589 0.0
C667 C 0.73882 0.1777 0.44098 0.0
C668 C 0.17595 0.25555 0.70168 0.0
C669 C 0.17549 0.28283 0.66599 0.0
H670 H 0.17898 0.20689 0.70034 0.0
C671 C 0.17694 0.28094 0.59856 0.0
H672 H 0.17455 0.25595 0.75355 0.0
C673 C 0.17893 0.2526 0.56777 0.0
C674 C 0.17969 0.22533 0.6035 0.0
H675 H 0.17702 0.30133 0.56925 0.0
H676 H 0.17974 0.25217 0.51585 0.0
C677 C 0.17812 0.22723 0.67092 0.0
C678 C 0.25472 0.84016 0.33567 0.0
C679 C 0.28203 0.84063 0.37129 0.0
H680 H 0.20601 0.83825 0.33726 0.0
C681 C 0.28014 0.84041 0.43878 0.0
H682 H 0.25512 0.84065 0.28373 0.0
C683 C 0.25178 0.83957 0.46971 0.0
C684 C 0.22449 0.83879 0.43408 0.0
H685 H 0.30054 0.84039 0.46806 0.0
H686 H 0.25136 0.83965 0.52166 0.0
C687 C 0.22638 0.83917 0.36658 0.0
C688 C 0.29451 0.10391 0.88727 0.0
C689 C 0.28171 0.11846 0.94139 0.0
H690 H 0.28884 0.09047 0.78893 0.0
C691 C 0.25239 0.13146 0.93532 0.0
H692 H 0.31672 0.09309 0.89005 0.0
C693 C 0.23622 0.12955 0.87734 0.0
C694 C 0.24903 0.11486 0.82357 0.0
H695 H 0.2419 0.14338 0.97523 0.0
H696 H 0.21376 0.13987 0.87441 0.0
C697 C 0.27847 0.10229 0.82914 0.0
C698 C 0.13004 0.7843 0.16003 0.0
C699 C 0.11512 0.7715 0.21345 0.0
H700 H 0.14431 0.77863 0.06242 0.0
C701 C 0.10259 0.74207 0.20755 0.0
H702 H 0.14032 0.80675 0.16325 0.0
C703 C 0.10448 0.72604 0.14943 0.0
C704 C 0.11926 0.73884 0.09566 0.0
H705 H 0.09061 0.7317 0.24751 0.0
H706 H 0.09367 0.70385 0.14637 0.0
C707 C 0.13222 0.76815 0.10206 0.0
C708 C 0.76645 0.88664 0.92985 0.0
C709 C 0.73702 0.89934 0.9365 0.0
H710 H 0.80511 0.87905 0.86851 0.0
C711 C 0.72403 0.91413 0.8829 0.0
H712 H 0.77709 0.87453 0.96928 0.0
C713 C 0.74001 0.91631 0.82476 0.0
C714 C 0.76957 0.90407 0.81866 0.0
H715 H 0.70172 0.92472 0.88613 0.0
H716 H 0.72948 0.92828 0.78495 0.0
C717 C 0.78255 0.88913 0.87188 0.0
C718 C 0.88991 0.23727 0.16292 0.0
C719 C 0.90418 0.25042 0.21677 0.0
H720 H 0.87616 0.24255 0.06492 0.0
C721 C 0.91598 0.28017 0.21125 0.0
H722 H 0.88014 0.21458 0.16578 0.0
C723 C 0.91405 0.29616 0.15305 0.0
C724 C 0.90002 0.28294 0.09883 0.0
H725 H 0.92743 0.29085 0.25154 0.0
H726 H 0.92426 0.31864 0.15028 0.0
C727 C 0.88773 0.25334 0.10489 0.0
C728 C 0.26464 0.38745 0.43426 0.0
C729 C 0.23524 0.40029 0.44035 0.0
H730 H 0.3033 0.37923 0.37328 0.0
C731 C 0.22238 0.41477 0.38626 0.0
H732 H 0.27519 0.3756 0.47415 0.0
C733 C 0.2384 0.41646 0.32811 0.0
C734 C 0.2679 0.40401 0.32248 0.0
H735 H 0.20012 0.42549 0.38905 0.0
H736 H 0.22796 0.42819 0.2879 0.0
C737 C 0.28079 0.38943 0.37625 0.0
C738 C 0.4149 0.7924 0.64987 0.0
C739 C 0.40027 0.77956 0.59593 0.0
H740 H 0.42861 0.78677 0.74804 0.0
C741 C 0.38742 0.7502 0.60215 0.0
H742 H 0.42561 0.81464 0.64697 0.0
C743 C 0.38957 0.73403 0.6601 0.0
C744 C 0.40433 0.74688 0.71369 0.0
H745 H 0.37544 0.73968 0.5624 0.0
H746 H 0.37937 0.71154 0.66315 0.0
C747 C 0.41675 0.77635 0.70797 0.0
C748 C 0.77877 0.59983 0.32481 0.0
C749 C 0.74949 0.61267 0.31829 0.0
H750 H 0.81678 0.59089 0.38656 0.0
C751 C 0.73676 0.62813 0.37116 0.0
H752 H 0.78909 0.58746 0.28528 0.0
C753 C 0.75285 0.6306 0.42916 0.0
C754 C 0.78201 0.61732 0.43628 0.0
H755 H 0.71443 0.63866 0.36745 0.0
H756 H 0.74242 0.6432 0.4682 0.0
C757 C 0.79472 0.60195 0.38304 0.0
C758 C 0.59237 0.27444 0.66423 0.0
C759 C 0.61194 0.26778 0.71612 0.0
H760 H 0.5792 0.26423 0.56746 0.0
C761 C 0.63393 0.24454 0.70793 0.0
H762 H 0.57468 0.29162 0.66874 0.0
C763 C 0.63619 0.22847 0.64976 0.0
C764 C 0.61677 0.23543 0.59796 0.0
H765 H 0.64978 0.23899 0.74611 0.0
H766 H 0.65351 0.21092 0.64498 0.0
C767 C 0.59488 0.25864 0.60598 0.0
C768 C 0.40025 0.97097 0.20001 0.0
C769 C 0.38298 0.99251 0.23442 0.0
H770 H 0.41874 0.92594 0.19648 0.0
C771 C 0.37294 0.985 0.29674 0.0
H772 H 0.40905 0.97625 0.15272 0.0
C773 C 0.3788 0.95586 0.32249 0.0
C774 C 0.3947 0.93391 0.2861 0.0
H775 H 0.35955 1.00114 0.32438 0.0
H776 H 0.36994 0.95015 0.36956 0.0
C777 C 0.40592 0.9421 0.22533 0.0
C778 C 0.95717 0.64303 0.71345 0.0
C779 C 0.93511 0.6272 0.74954 0.0
H780 H 1.0025 0.66206 0.7121 0.0
C781 C 0.94308 0.61604 0.8105 0.0
H782 H 0.95164 0.65181 0.66622 0.0
C783 C 0.97187 0.6216 0.83617 0.0
C784 C 0.99357 0.6387 0.80197 0.0
H785 H 0.92685 0.60326 0.83913 0.0
H786 H 0.977 0.61275 0.8835 0.0
C787 C 0.98624 0.64879 0.73958 0.0
C788 C 0.64725 0.03009 0.29569 0.0
C789 C 0.63556 0.02252 0.23466 0.0
H790 H 0.6519 0.06494 0.36826 0.0
C791 C 0.61708 0.04388 0.20269 0.0
H792 H 0.66159 0.01409 0.32148 0.0
C793 C 0.61184 0.07267 0.22885 0.0
C794 C 0.62468 0.08094 0.28814 0.0
H795 H 0.60696 0.03855 0.15659 0.0
H796 H 0.59804 0.08871 0.20179 0.0
C797 C 0.64179 0.05915 0.32237 0.0
C798 C 0.05872 0.37912 0.71399 0.0
C799 C 0.08008 0.39693 0.74776 0.0
H800 H 0.01385 0.35905 0.71464 0.0
C801 C 0.07117 0.41093 0.80545 0.0
H802 H 0.06504 0.36811 0.6693 0.0
C803 C 0.04214 0.40613 0.83068 0.0
C804 C 0.02123 0.38685 0.79947 0.0
H805 H 0.08691 0.42528 0.83198 0.0
H806 H 0.0363 0.41712 0.87562 0.0
C807 C 0.02946 0.37402 0.73982 0.0
C808 C 0.39724 0.56848 0.97011 0.0
C809 C 0.40226 0.59189 1.01518 0.0
H810 H 0.38126 0.52256 0.95459 0.0
C811 C 0.397 0.5859 0.08062 0.0
H812 H 0.40111 0.57245 0.9194 0.0
C813 C 0.38532 0.5578 0.10025 0.0
C814 C 0.37926 0.53481 0.0552 0.0
H815 H 0.40061 0.60341 0.11663 0.0
H816 H 0.38023 0.55419 0.1506 0.0
C817 C 0.38608 0.53998 0.99014 0.0
C818 C 0.57067 0.61867 0.06372 0.0
C819 C 0.59394 0.61372 0.01828 0.0
H820 H 0.52465 0.63426 0.0799 0.0
C821 C 0.58759 0.61867 0.95289 0.0
H822 H 0.57491 0.61502 0.11441 0.0
C823 C 0.55926 0.62998 0.93363 0.0
C824 C 0.5364 0.63599 0.97903 0.0
H825 H 0.60497 0.61509 0.91659 0.0
H826 H 0.55537 0.63485 0.88328 0.0
C827 C 0.54195 0.62946 0.04409 0.0
C828 C 0.63047 0.47465 0.99066 0.0
C829 C 0.63804 0.48014 0.05523 0.0
H830 H 0.61472 0.44183 0.92133 0.0
C831 C 0.63255 0.45733 0.101 0.0
H832 H 0.63482 0.4919 0.95454 0.0
C833 C 0.6207 0.42909 0.0825 0.0
C834 C 0.61471 0.42281 1.01747 0.0
H835 H 0.6382 0.46117 0.15101 0.0
H836 H 0.61756 0.41172 0.11896 0.0
C837 C 0.61916 0.44603 0.97175 0.0
C838 C 0.42929 0.39554 0.95639 0.0
C839 C 0.42304 0.40093 0.02168 0.0
H840 H 0.46142 0.37889 0.88703 0.0
C841 C 0.44636 0.39627 0.06711 0.0
H842 H 0.41186 0.39889 0.92012 0.0
C843 C 0.47504 0.38533 0.0476 0.0
C844 C 0.4805 0.37838 0.9827 0.0
H845 H 0.44218 0.40026 0.11772 0.0
H846 H 0.49239 0.38077 0.08343 0.0
C847 C 0.45759 0.38409 0.93727 0.0
C848 C 0.88554 0.46038 0.82318 0.0
C849 C 0.8851 0.43446 0.78326 0.0
H850 H 0.88255 0.50942 0.82806 0.0
C851 C 0.87883 0.4382 0.71762 0.0
H852 H 0.89025 0.45811 0.87404 0.0
C853 C 0.87415 0.4671 0.69176 0.0
C854 C 0.87596 0.49332 0.73046 0.0
H855 H 0.87771 0.41867 0.68566 0.0
H856 H 0.86929 0.46882 0.64093 0.0
C857 C 0.88107 0.48968 0.79689 0.0
C858 C 0.4731 0.11493 0.33663 0.0
C859 C 0.49446 0.1331 0.30393 0.0
H860 H 0.42821 0.09616 0.33847 0.0
C861 C 0.48682 0.14444 0.24266 0.0
H862 H 0.47849 0.10509 0.38296 0.0
C863 C 0.45772 0.13896 0.21644 0.0
C864 C 0.43594 0.12219 0.25134 0.0
H865 H 0.5028 0.15853 0.21633 0.0
H866 H 0.45188 0.14883 0.17033 0.0
C867 C 0.44426 0.10968 0.3109 0.0
C868 C 0.11702 0.54777 0.6991 0.0
C869 C 0.13434 0.5261 0.73297 0.0
H870 H 0.09883 0.59293 0.69625 0.0
C871 C 0.14483 0.53352 0.79502 0.0
H872 H 0.10786 0.54257 0.65207 0.0
C873 C 0.13934 0.56268 0.82103 0.0
C874 C 0.12338 0.58474 0.78515 0.0
H875 H 0.15827 0.51728 0.82224 0.0
H876 H 0.14853 0.56831 0.86786 0.0
C877 C 0.11172 0.57666 0.72467 0.0
C878 C 0.56157 0.87569 0.21287 0.0
C879 C 0.58355 0.89186 0.24851 0.0
H880 H 0.51633 0.85645 0.21207 0.0
C881 C 0.57547 0.90354 0.30899 0.0
H882 H 0.56721 0.86648 0.16602 0.0
C883 C 0.54667 0.8981 0.33477 0.0
C884 C 0.52509 0.88058 0.30115 0.0
H885 H 0.59165 0.9166 0.33723 0.0
H886 H 0.54147 0.90731 0.38177 0.0
C887 C 0.5325 0.87003 0.23911 0.0
C888 C 0.89807 0.07151 0.47076 0.0
C889 C 0.90268 0.09479 0.51631 0.0
H890 H 0.88258 0.02552 0.45413 0.0
C891 C 0.89714 0.08853 0.58153 0.0
H892 H 0.90217 0.07569 0.4202 0.0
C893 C 0.88561 0.06025 0.60044 0.0
C894 C 0.87997 0.03737 0.55489 0.0
H895 H 0.90044 0.10593 0.61789 0.0
H896 H 0.88031 0.05641 0.65062 0.0
C897 C 0.88707 0.04284 0.49007 0.0
C898 C 0.08785 0.12247 0.45682 0.0
C899 C 0.09392 0.11726 0.52223 0.0
H900 H 0.0559 0.13889 0.3869 0.0
C901 C 0.07048 0.12204 0.56735 0.0
H902 H 0.10538 0.11904 0.42077 0.0
C903 C 0.04184 0.13288 0.54738 0.0
C904 C 0.03655 0.13963 0.48233 0.0
H905 H 0.07452 0.11819 0.61805 0.0
H906 H 0.02438 0.13751 0.58296 0.0
C907 C 0.0596 0.13384 0.43724 0.0
C908 C 0.12102 0.94979 0.471 0.0
C909 C 0.11593 0.9263 0.51579 0.0
H910 H 0.13669 0.99584 0.45621 0.0
C911 C 0.12073 0.93225 0.58141 0.0
H912 H 0.11748 0.94584 0.42017 0.0
C913 C 0.13203 0.96043 0.60153 0.0
C914 C 0.13816 0.9835 0.55679 0.0
H915 H 0.11704 0.91468 0.61722 0.0
H916 H 0.13678 0.96403 0.65204 0.0
C917 C 0.13179 0.97835 0.49151 0.0
C918 C 0.9594 0.88775 0.43296 0.0
C919 C 0.98236 0.88188 0.47818 0.0
H920 H 0.9136 0.90245 0.4163 0.0
C921 C 0.9769 0.88843 0.54328 0.0
H922 H 0.96322 0.88286 0.38258 0.0
C923 C 0.94818 0.89913 0.56314 0.0
C924 C 0.92482 0.90395 0.51789 0.0
H925 H 0.99428 0.88375 0.57895 0.0
H926 H 0.94401 0.90281 0.61385 0.0
C927 C 0.93106 0.89897 0.45245 0.0
loop_
_geom_bond_atom_site_label_1
_geom_bond_atom_site_label_2
_geom_bond_distance
_geom_bond_site_symmetry_2
_ccdc_geom_bond_type
Co0 N4 2.148 . S
Co0 N10 2.128 . S
Co0 N20 2.194 . S
Co0 O25 2.351 . S
Co0 O26 2.155 . S
Co0 O27 2.096 . S
C1 N4 1.301 . S
C1 N5 1.328 . S
C1 H6 0.930 . S
C2 C3 1.333 . S
C2 N4 1.317 . S
C2 H7 0.930 . S
C3 C2 1.333 . S
C3 N5 1.350 . S
C3 H29 0.931 . S
N4 Co0 2.148 . S
N4 C1 1.301 . S
N4 C2 1.317 . S
N5 C1 1.328 . S
N5 C3 1.350 . S
H6 C1 0.930 . S
H7 C2 0.930 . S
C8 O9 1.224 . S
C8 O27 1.247 . S
O9 C8 1.224 . S
N10 Co0 2.128 . S
N10 C11 1.355 . S
N10 C13 1.311 . S
C11 N10 1.355 . S
C11 C12 1.363 . S
C11 H23 0.929 . S
C12 C11 1.363 . S
C12 N14 1.375 . S
C12 H30 0.931 1_545 S
C13 N10 1.311 . S
C13 N14 1.347 . S
C13 H24 0.929 . S
N14 C12 1.375 . S
N14 C13 1.347 . S
C15 C18 1.365 1_554 S
C15 N20 1.328 . S
C15 H21 0.929 . S
C16 C17 1.362 1_554 S
C16 C19 1.378 . S
C16 H31 0.929 . S
C17 C16 1.362 1_556 S
C17 C18 1.366 . S
C18 C15 1.365 1_556 S
C18 C17 1.366 . S
C18 H32 0.930 . S
C19 C16 1.378 . S
C19 N20 1.315 . S
C19 H22 0.930 . S
N20 Co0 2.194 . S
N20 C15 1.328 . S
N20 C19 1.315 . S
H21 C15 0.929 . S
H22 C19 0.930 . S
H23 C11 0.929 . S
H24 C13 0.929 . S
O25 Co0 2.351 . S
O25 C28 1.244 . S
O26 Co0 2.155 . S
O26 C28 1.240 . S
O27 Co0 2.096 . S
O27 C8 1.247 . S
C28 O25 1.244 . S
C28 O26 1.240 . S
H29 C3 0.931 . S
H30 C12 0.931 1_565 S
H31 C16 0.929 . S
H32 C18 0.930 . S
Co33 N37 2.148 . S
Co33 N43 2.128 . S
Co33 N53 2.194 . S
Co33 O58 2.351 . S
Co33 O59 2.155 . S
Co33 O60 2.096 . S
C34 N37 1.301 . S
C34 N38 1.328 . S
C34 H39 0.930 . S
C35 C36 1.333 . S
C35 N37 1.317 . S
C35 H40 0.930 . S
C36 C35 1.333 . S
C36 N38 1.350 . S
C36 H62 0.931 . S
N37 Co33 2.148 . S
N37 C34 1.301 . S
N37 C35 1.317 . S
N38 C34 1.328 . S
N38 C36 1.350 . S
H39 C34 0.930 . S
H40 C35 0.930 . S
C41 O42 1.224 . S
C41 O60 1.247 . S
O42 C41 1.224 . S
N43 Co33 2.128 . S
N43 C44 1.355 . S
N43 C46 1.311 . S
C44 N43 1.355 . S
C44 C45 1.363 . S
C44 H56 0.929 . S
C45 C44 1.363 . S
C45 N47 1.375 . S
C45 H63 0.931 1_455 S
C46 N43 1.311 . S
C46 N47 1.347 . S
C46 H57 0.929 . S
N47 C45 1.375 . S
N47 C46 1.347 . S
C48 C51 1.365 1_556 S
C48 N53 1.328 . S
C48 H54 0.929 . S
C49 C50 1.362 1_556 S
C49 C52 1.378 . S
C49 H64 0.929 . S
C50 C49 1.362 1_554 S
C50 C51 1.366 . S
C51 C48 1.365 1_554 S
C51 C50 1.366 . S
C51 H65 0.930 . S
C52 C49 1.378 . S
C52 N53 1.315 . S
C52 H55 0.930 . S
N53 Co33 2.194 . S
N53 C48 1.328 . S
N53 C52 1.315 . S
H54 C48 0.929 . S
H55 C52 0.930 . S
H56 C44 0.929 . S
H57 C46 0.929 . S
O58 Co33 2.351 . S
O58 C61 1.244 . S
O59 Co33 2.155 . S
O59 C61 1.240 . S
O60 Co33 2.096 . S
O60 C41 1.247 . S
C61 O58 1.244 . S
C61 O59 1.240 . S
H62 C36 0.931 . S
H63 C45 0.931 1_655 S
H64 C49 0.929 . S
H65 C51 0.930 . S
Co66 N70 2.148 . S
Co66 N76 2.128 . S
Co66 N86 2.194 . S
Co66 O91 2.351 . S
Co66 O92 2.155 . S
Co66 O93 2.096 . S
C67 N70 1.301 . S
C67 N71 1.328 . S
C67 H72 0.930 . S
C68 C69 1.333 . S
C68 N70 1.317 . S
C68 H73 0.930 . S
C69 C68 1.333 . S
C69 N71 1.350 . S
C69 H95 0.931 . S
N70 Co66 2.148 . S
N70 C67 1.301 . S
N70 C68 1.317 . S
N71 C67 1.328 . S
N71 C69 1.350 . S
H72 C67 0.930 . S
H73 C68 0.930 . S
C74 O75 1.224 . S
C74 O93 1.247 . S
O75 C74 1.224 . S
N76 Co66 2.128 . S
N76 C77 1.355 . S
N76 C79 1.311 . S
C77 N76 1.355 . S
C77 C78 1.363 . S
C77 H89 0.929 . S
C78 C77 1.363 . S
C78 N80 1.375 . S
C78 H96 0.931 1_565 S
C79 N76 1.311 . S
C79 N80 1.347 . S
C79 H90 0.929 . S
N80 C78 1.375 . S
N80 C79 1.347 . S
C81 C84 1.365 1_554 S
C81 N86 1.328 . S
C81 H87 0.929 . S
C82 C83 1.362 1_554 S
C82 C85 1.378 . S
C82 H97 0.929 . S
C83 C82 1.362 1_556 S
C83 C84 1.366 . S
C84 C81 1.365 1_556 S
C84 C83 1.366 . S
C84 H98 0.930 . S
C85 C82 1.378 . S
C85 N86 1.315 . S
C85 H88 0.930 . S
N86 Co66 2.194 . S
N86 C81 1.328 . S
N86 C85 1.315 . S
H87 C81 0.929 . S
H88 C85 0.930 . S
H89 C77 0.929 . S
H90 C79 0.929 . S
O91 Co66 2.351 . S
O91 C94 1.244 . S
O92 Co66 2.155 . S
O92 C94 1.240 . S
O93 Co66 2.096 . S
O93 C74 1.247 . S
C94 O91 1.244 . S
C94 O92 1.240 . S
H95 C69 0.931 . S
H96 C78 0.931 1_545 S
H97 C82 0.929 . S
H98 C84 0.930 . S
Co99 N103 2.148 . S
Co99 N109 2.128 . S
Co99 N119 2.194 . S
Co99 O124 2.351 . S
Co99 O125 2.155 . S
Co99 O126 2.096 . S
C100 N103 1.301 . S
C100 N104 1.328 . S
C100 H105 0.930 . S
C101 C102 1.333 . S
C101 N103 1.317 . S
C101 H106 0.930 . S
C102 C101 1.333 . S
C102 N104 1.350 . S
C102 H128 0.931 . S
N103 Co99 2.148 . S
N103 C100 1.301 . S
N103 C101 1.317 . S
N104 C100 1.328 . S
N104 C102 1.350 . S
H105 C100 0.930 . S
H106 C101 0.930 . S
C107 O108 1.224 . S
C107 O126 1.247 . S
O108 C107 1.224 . S
N109 Co99 2.128 . S
N109 C110 1.355 . S
N109 C112 1.311 . S
C110 N109 1.355 . S
C110 C111 1.363 . S
C110 H122 0.929 . S
C111 C110 1.363 . S
C111 N113 1.375 . S
C111 H129 0.931 1_655 S
C112 N109 1.311 . S
C112 N113 1.347 . S
C112 H123 0.929 . S
N113 C111 1.375 . S
N113 C112 1.347 . S
C114 C117 1.365 1_556 S
C114 N119 1.328 . S
C114 H120 0.929 . S
C115 C116 1.362 1_556 S
C115 C118 1.378 . S
C115 H130 0.929 . S
C116 C115 1.362 1_554 S
C116 C117 1.366 . S
C117 C114 1.365 1_554 S
C117 C116 1.366 . S
C117 H131 0.930 . S
C118 C115 1.378 . S
C118 N119 1.315 . S
C118 H121 0.930 . S
N119 Co99 2.194 . S
N119 C114 1.328 . S
N119 C118 1.315 . S
H120 C114 0.929 . S
H121 C118 0.930 . S
H122 C110 0.929 . S
H123 C112 0.929 . S
O124 Co99 2.351 . S
O124 C127 1.244 . S
O125 Co99 2.155 . S
O125 C127 1.240 . S
O126 Co99 2.096 . S
O126 C107 1.247 . S
C127 O124 1.244 . S
C127 O125 1.240 . S
H128 C102 0.931 . S
H129 C111 0.931 1_455 S
H130 C115 0.929 . S
H131 C117 0.930 . S
Co132 N136 2.148 . S
Co132 N142 2.128 . S
Co132 N152 2.194 . S
Co132 O157 2.351 . S
Co132 O158 2.155 . S
Co132 O159 2.096 1_554 S
C133 N136 1.301 . S
C133 N137 1.328 . S
C133 H138 0.930 . S
C134 C135 1.333 . S
C134 N136 1.317 . S
C134 H139 0.930 1_554 S
C135 C134 1.333 . S
C135 N137 1.350 . S
C135 H161 0.931 . S
N136 Co132 2.148 . S
N136 C133 1.301 . S
N136 C134 1.317 . S
N137 C133 1.328 . S
N137 C135 1.350 . S
H138 C133 0.930 . S
H139 C134 0.930 1_556 S
C140 O141 1.224 1_556 S
C140 O159 1.247 . S
O141 C140 1.224 1_554 S
N142 Co132 2.128 . S
N142 C143 1.355 . S
N142 C145 1.311 . S
C143 N142 1.355 . S
C143 C144 1.363 . S
C143 H155 0.929 . S
C144 C143 1.363 . S
C144 N146 1.375 . S
C144 H162 0.931 . S
C145 N142 1.311 . S
C145 N146 1.347 . S
C145 H156 0.929 1_554 S
N146 C144 1.375 . S
N146 C145 1.347 . S
C147 C150 1.365 . S
C147 N152 1.328 . S
C147 H153 0.929 . S
C148 C149 1.362 . S
C148 C151 1.378 . S
C148 H163 0.929 . S
C149 C148 1.362 . S
C149 C150 1.366 . S
C150 C147 1.365 . S
C150 C149 1.366 . S
C150 H164 0.930 . S
C151 C148 1.378 . S
C151 N152 1.315 . S
C151 H154 0.930 . S
N152 Co132 2.194 . S
N152 C147 1.328 . S
N152 C151 1.315 . S
H153 C147 0.929 . S
H154 C151 0.930 . S
H155 C143 0.929 . S
H156 C145 0.929 1_556 S
O157 Co132 2.351 . S
O157 C160 1.244 . S
O158 Co132 2.155 . S
O158 C160 1.240 . S
O159 Co132 2.096 1_556 S
O159 C140 1.247 . S
C160 O157 1.244 . S
C160 O158 1.240 . S
H161 C135 0.931 . S
H162 C144 0.931 . S
H163 C148 0.929 . S
H164 C150 0.930 . S
Co165 N169 2.148 . S
Co165 N175 2.128 . S
Co165 N185 2.194 . S
Co165 O190 2.351 . S
Co165 O191 2.155 . S
Co165 O192 2.096 1_556 S
C166 N169 1.301 . S
C166 N170 1.328 . S
C166 H171 0.930 . S
C167 C168 1.333 . S
C167 N169 1.317 . S
C167 H172 0.930 1_556 S
C168 C167 1.333 . S
C168 N170 1.350 . S
C168 H194 0.931 . S
N169 Co165 2.148 . S
N169 C166 1.301 . S
N169 C167 1.317 . S
N170 C166 1.328 . S
N170 C168 1.350 . S
H171 C166 0.930 . S
H172 C167 0.930 1_554 S
C173 O174 1.224 1_554 S
C173 O192 1.247 . S
O174 C173 1.224 1_556 S
N175 Co165 2.128 . S
N175 C176 1.355 . S
N175 C178 1.311 . S
C176 N175 1.355 . S
C176 C177 1.363 . S
C176 H188 0.929 . S
C177 C176 1.363 . S
C177 N179 1.375 . S
C177 H195 0.931 . S
C178 N175 1.311 . S
C178 N179 1.347 . S
C178 H189 0.929 1_556 S
N179 C177 1.375 . S
N179 C178 1.347 . S
C180 C183 1.365 . S
C180 N185 1.328 . S
C180 H186 0.929 . S
C181 C182 1.362 . S
C181 C184 1.378 . S
C181 H196 0.929 . S
C182 C181 1.362 . S
C182 C183 1.366 . S
C183 C180 1.365 . S
C183 C182 1.366 . S
C183 H197 0.930 . S
C184 C181 1.378 . S
C184 N185 1.315 . S
C184 H187 0.930 . S
N185 Co165 2.194 . S
N185 C180 1.328 . S
N185 C184 1.315 . S
H186 C180 0.929 . S
H187 C184 0.930 . S
H188 C176 0.929 . S
H189 C178 0.929 1_554 S
O190 Co165 2.351 . S
O190 C193 1.244 . S
O191 Co165 2.155 . S
O191 C193 1.240 . S
O192 Co165 2.096 1_554 S
O192 C173 1.247 . S
C193 O190 1.244 . S
C193 O191 1.240 . S
H194 C168 0.931 . S
H195 C177 0.931 . S
H196 C181 0.929 . S
H197 C183 0.930 . S
Co198 N202 2.148 . S
Co198 N208 2.128 . S
Co198 N218 2.194 . S
Co198 O223 2.351 . S
Co198 O224 2.155 . S
Co198 O225 2.096 1_554 S
C199 N202 1.301 . S
C199 N203 1.328 . S
C199 H204 0.930 . S
C200 C201 1.333 . S
C200 N202 1.317 . S
C200 H205 0.930 1_554 S
C201 C200 1.333 . S
C201 N203 1.350 . S
C201 H227 0.931 . S
N202 Co198 2.148 . S
N202 C199 1.301 . S
N202 C200 1.317 . S
N203 C199 1.328 . S
N203 C201 1.350 . S
H204 C199 0.930 . S
H205 C200 0.930 1_556 S
C206 O207 1.224 1_556 S
C206 O225 1.247 . S
O207 C206 1.224 1_554 S
N208 Co198 2.128 . S
N208 C209 1.355 . S
N208 C211 1.311 . S
C209 N208 1.355 . S
C209 C210 1.363 . S
C209 H221 0.929 . S
C210 C209 1.363 . S
C210 N212 1.375 . S
C210 H228 0.931 . S
C211 N208 1.311 . S
C211 N212 1.347 . S
C211 H222 0.929 1_554 S
N212 C210 1.375 . S
N212 C211 1.347 . S
C213 C216 1.365 . S
C213 N218 1.328 . S
C213 H219 0.929 . S
C214 C215 1.362 . S
C214 C217 1.378 . S
C214 H229 0.929 . S
C215 C214 1.362 . S
C215 C216 1.366 . S
C216 C213 1.365 . S
C216 C215 1.366 . S
C216 H230 0.930 . S
C217 C214 1.378 . S
C217 N218 1.315 . S
C217 H220 0.930 . S
N218 Co198 2.194 . S
N218 C213 1.328 . S
N218 C217 1.315 . S
H219 C213 0.929 . S
H220 C217 0.930 . S
H221 C209 0.929 . S
H222 C211 0.929 1_556 S
O223 Co198 2.351 . S
O223 C226 1.244 . S
O224 Co198 2.155 . S
O224 C226 1.240 . S
O225 Co198 2.096 1_556 S
O225 C206 1.247 . S
C226 O223 1.244 . S
C226 O224 1.240 . S
H227 C201 0.931 . S
H228 C210 0.931 . S
H229 C214 0.929 . S
H230 C216 0.930 . S
Co231 N235 2.148 . S
Co231 N241 2.128 . S
Co231 N251 2.194 . S
Co231 O256 2.351 . S
Co231 O257 2.155 . S
Co231 O258 2.096 1_556 S
C232 N235 1.301 . S
C232 N236 1.328 . S
C232 H237 0.930 . S
C233 C234 1.333 . S
C233 N235 1.317 . S
C233 H238 0.930 1_556 S
C234 C233 1.333 . S
C234 N236 1.350 . S
C234 H260 0.931 . S
N235 Co231 2.148 . S
N235 C232 1.301 . S
N235 C233 1.317 . S
N236 C232 1.328 . S
N236 C234 1.350 . S
H237 C232 0.930 . S
H238 C233 0.930 1_554 S
C239 O240 1.224 1_554 S
C239 O258 1.247 . S
O240 C239 1.224 1_556 S
N241 Co231 2.128 . S
N241 C242 1.355 . S
N241 C244 1.311 . S
C242 N241 1.355 . S
C242 C243 1.363 . S
C242 H254 0.929 . S
C243 C242 1.363 . S
C243 N245 1.375 . S
C243 H261 0.931 . S
C244 N241 1.311 . S
C244 N245 1.347 . S
C244 H255 0.929 1_556 S
N245 C243 1.375 . S
N245 C244 1.347 . S
C246 C249 1.365 . S
C246 N251 1.328 . S
C246 H252 0.929 . S
C247 C248 1.362 . S
C247 C250 1.378 . S
C247 H262 0.929 . S
C248 C247 1.362 . S
C248 C249 1.366 . S
C249 C246 1.365 . S
C249 C248 1.366 . S
C249 H263 0.930 . S
C250 C247 1.378 . S
C250 N251 1.315 . S
C250 H253 0.930 . S
N251 Co231 2.194 . S
N251 C246 1.328 . S
N251 C250 1.315 . S
H252 C246 0.929 . S
H253 C250 0.930 . S
H254 C242 0.929 . S
H255 C244 0.929 1_554 S
O256 Co231 2.351 . S
O256 C259 1.244 . S
O257 Co231 2.155 . S
O257 C259 1.240 . S
O258 Co231 2.096 1_554 S
O258 C239 1.247 . S
C259 O256 1.244 . S
C259 O257 1.240 . S
H260 C234 0.931 . S
H261 C243 0.931 . S
H262 C247 0.929 . S
H263 C249 0.930 . S
Co264 N268 2.148 . S
Co264 N274 2.128 . S
Co264 N284 2.194 . S
Co264 O289 2.351 . S
Co264 O290 2.155 . S
Co264 O291 2.096 . S
C265 N268 1.301 . S
C265 N269 1.328 . S
C265 H270 0.930 . S
C266 C267 1.333 . S
C266 N268 1.317 . S
C266 H271 0.930 . S
C267 C266 1.333 . S
C267 N269 1.350 . S
C267 H293 0.931 . S
N268 Co264 2.148 . S
N268 C265 1.301 . S
N268 C266 1.317 . S
N269 C265 1.328 . S
N269 C267 1.350 . S
H270 C265 0.930 . S
H271 C266 0.930 . S
C272 O273 1.224 . S
C272 O291 1.247 . S
O273 C272 1.224 . S
N274 Co264 2.128 . S
N274 C275 1.355 . S
N274 C277 1.311 . S
C275 N274 1.355 . S
C275 C276 1.363 . S
C275 H287 0.929 . S
C276 C275 1.363 . S
C276 N278 1.375 . S
C276 H294 0.931 . S
C277 N274 1.311 . S
C277 N278 1.347 . S
C277 H288 0.929 . S
N278 C276 1.375 . S
N278 C277 1.347 . S
C279 C282 1.365 . S
C279 N284 1.328 . S
C279 H285 0.929 . S
C280 C281 1.362 . S
C280 C283 1.378 . S
C280 H295 0.929 . S
C281 C280 1.362 . S
C281 C282 1.366 . S
C282 C279 1.365 . S
C282 C281 1.366 . S
C282 H296 0.930 . S
C283 C280 1.378 . S
C283 N284 1.315 . S
C283 H286 0.930 . S
N284 Co264 2.194 . S
N284 C279 1.328 . S
N284 C283 1.315 . S
H285 C279 0.929 . S
H286 C283 0.930 . S
H287 C275 0.929 . S
H288 C277 0.929 . S
O289 Co264 2.351 . S
O289 C292 1.244 . S
O290 Co264 2.155 . S
O290 C292 1.240 . S
O291 Co264 2.096 . S
O291 C272 1.247 . S
C292 O289 1.244 . S
C292 O290 1.240 . S
H293 C267 0.931 . S
H294 C276 0.931 . S
H295 C280 0.929 . S
H296 C282 0.930 . S
Co297 N301 2.148 . S
Co297 N307 2.128 . S
Co297 N317 2.194 . S
Co297 O322 2.351 . S
Co297 O323 2.155 . S
Co297 O324 2.096 . S
C298 N301 1.301 . S
C298 N302 1.328 . S
C298 H303 0.930 . S
C299 C300 1.333 . S
C299 N301 1.317 . S
C299 H304 0.930 . S
C300 C299 1.333 . S
C300 N302 1.350 . S
C300 H326 0.931 . S
N301 Co297 2.148 . S
N301 C298 1.301 . S
N301 C299 1.317 . S
N302 C298 1.328 . S
N302 C300 1.350 . S
H303 C298 0.930 . S
H304 C299 0.930 . S
C305 O306 1.224 . S
C305 O324 1.247 . S
O306 C305 1.224 . S
N307 Co297 2.128 . S
N307 C308 1.355 . S
N307 C310 1.311 . S
C308 N307 1.355 . S
C308 C309 1.363 . S
C308 H320 0.929 . S
C309 C308 1.363 . S
C309 N311 1.375 . S
C309 H327 0.931 . S
C310 N307 1.311 . S
C310 N311 1.347 . S
C310 H321 0.929 . S
N311 C309 1.375 . S
N311 C310 1.347 . S
C312 C315 1.365 . S
C312 N317 1.328 . S
C312 H318 0.929 . S
C313 C314 1.362 . S
C313 C316 1.378 . S
C313 H328 0.929 . S
C314 C313 1.362 . S
C314 C315 1.366 . S
C315 C312 1.365 . S
C315 C314 1.366 . S
C315 H329 0.930 . S
C316 C313 1.378 . S
C316 N317 1.315 . S
C316 H319 0.930 . S
N317 Co297 2.194 . S
N317 C312 1.328 . S
N317 C316 1.315 . S
H318 C312 0.929 . S
H319 C316 0.930 . S
H320 C308 0.929 . S
H321 C310 0.929 . S
O322 Co297 2.351 . S
O322 C325 1.244 . S
O323 Co297 2.155 . S
O323 C325 1.240 . S
O324 Co297 2.096 . S
O324 C305 1.247 . S
C325 O322 1.244 . S
C325 O323 1.240 . S
H326 C300 0.931 . S
H327 C309 0.931 . S
H328 C313 0.929 . S
H329 C315 0.930 . S
Co330 N334 2.148 . S
Co330 N340 2.128 . S
Co330 N350 2.194 . S
Co330 O355 2.351 . S
Co330 O356 2.155 . S
Co330 O357 2.096 . S
C331 N334 1.301 . S
C331 N335 1.328 . S
C331 H336 0.930 . S
C332 C333 1.333 . S
C332 N334 1.317 . S
C332 H337 0.930 . S
C333 C332 1.333 . S
C333 N335 1.350 . S
C333 H359 0.931 . S
N334 Co330 2.148 . S
N334 C331 1.301 . S
N334 C332 1.317 . S
N335 C331 1.328 . S
N335 C333 1.350 . S
H336 C331 0.930 . S
H337 C332 0.930 . S
C338 O339 1.224 . S
C338 O357 1.247 . S
O339 C338 1.224 . S
N340 Co330 2.128 . S
N340 C341 1.355 . S
N340 C343 1.311 . S
C341 N340 1.355 . S
C341 C342 1.363 . S
C341 H353 0.929 . S
C342 C341 1.363 . S
C342 N344 1.375 . S
C342 H360 0.931 . S
C343 N340 1.311 . S
C343 N344 1.347 . S
C343 H354 0.929 . S
N344 C342 1.375 . S
N344 C343 1.347 . S
C345 C348 1.365 . S
C345 N350 1.328 . S
C345 H351 0.929 . S
C346 C347 1.362 . S
C346 C349 1.378 . S
C346 H361 0.929 . S
C347 C346 1.362 . S
C347 C348 1.366 . S
C348 C345 1.365 . S
C348 C347 1.366 . S
C348 H362 0.930 . S
C349 C346 1.378 . S
C349 N350 1.315 . S
C349 H352 0.930 . S
N350 Co330 2.194 . S
N350 C345 1.328 . S
N350 C349 1.315 . S
H351 C345 0.929 . S
H352 C349 0.930 . S
H353 C341 0.929 . S
H354 C343 0.929 . S
O355 Co330 2.351 . S
O355 C358 1.244 . S
O356 Co330 2.155 . S
O356 C358 1.240 . S
O357 Co330 2.096 . S
O357 C338 1.247 . S
C358 O355 1.244 . S
C358 O356 1.240 . S
H359 C333 0.931 . S
H360 C342 0.931 . S
H361 C346 0.929 . S
H362 C348 0.930 . S
Co363 N367 2.148 . S
Co363 N373 2.128 . S
Co363 N383 2.194 . S
Co363 O388 2.351 . S
Co363 O389 2.155 . S
Co363 O390 2.096 . S
C364 N367 1.301 . S
C364 N368 1.328 . S
C364 H369 0.930 . S
C365 C366 1.333 . S
C365 N367 1.317 . S
C365 H370 0.930 . S
C366 C365 1.333 . S
C366 N368 1.350 . S
C366 H392 0.931 . S
N367 Co363 2.148 . S
N367 C364 1.301 . S
N367 C365 1.317 . S
N368 C364 1.328 . S
N368 C366 1.350 . S
H369 C364 0.930 . S
H370 C365 0.930 . S
C371 O372 1.224 . S
C371 O390 1.247 . S
O372 C371 1.224 . S
N373 Co363 2.128 . S
N373 C374 1.355 . S
N373 C376 1.311 . S
C374 N373 1.355 . S
C374 C375 1.363 . S
C374 H386 0.929 . S
C375 C374 1.363 . S
C375 N377 1.375 . S
C375 H393 0.931 . S
C376 N373 1.311 . S
C376 N377 1.347 . S
C376 H387 0.929 . S
N377 C375 1.375 . S
N377 C376 1.347 . S
C378 C381 1.365 . S
C378 N383 1.328 . S
C378 H384 0.929 . S
C379 C380 1.362 . S
C379 C382 1.378 . S
C379 H394 0.929 . S
C380 C379 1.362 . S
C380 C381 1.366 . S
C381 C378 1.365 . S
C381 C380 1.366 . S
C381 H395 0.930 . S
C382 C379 1.378 . S
C382 N383 1.315 . S
C382 H385 0.930 . S
N383 Co363 2.194 . S
N383 C378 1.328 . S
N383 C382 1.315 . S
H384 C378 0.929 . S
H385 C382 0.930 . S
H386 C374 0.929 . S
H387 C376 0.929 . S
O388 Co363 2.351 . S
O388 C391 1.244 . S
O389 Co363 2.155 . S
O389 C391 1.240 . S
O390 Co363 2.096 . S
O390 C371 1.247 . S
C391 O388 1.244 . S
C391 O389 1.240 . S
H392 C366 0.931 . S
H393 C375 0.931 . S
H394 C379 0.929 . S
H395 C381 0.930 . S
Co396 N400 2.148 . S
Co396 N406 2.128 . S
Co396 N416 2.194 . S
Co396 O421 2.351 . S
Co396 O422 2.155 . S
Co396 O423 2.096 . S
C397 N400 1.301 . S
C397 N401 1.328 . S
C397 H402 0.930 . S
C398 C399 1.333 . S
C398 N400 1.317 . S
C398 H403 0.930 . S
C399 C398 1.333 . S
C399 N401 1.350 . S
C399 H425 0.931 . S
N400 Co396 2.148 . S
N400 C397 1.301 . S
N400 C398 1.317 . S
N401 C397 1.328 . S
N401 C399 1.350 . S
H402 C397 0.930 . S
H403 C398 0.930 . S
C404 O405 1.224 . S
C404 O423 1.247 . S
O405 C404 1.224 . S
N406 Co396 2.128 . S
N406 C407 1.355 . S
N406 C409 1.311 . S
C407 N406 1.355 . S
C407 C408 1.363 . S
C407 H419 0.929 . S
C408 C407 1.363 . S
C408 N410 1.375 . S
C408 H426 0.931 1_565 S
C409 N406 1.311 . S
C409 N410 1.347 . S
C409 H420 0.929 . S
N410 C408 1.375 . S
N410 C409 1.347 . S
C411 C414 1.365 . S
C411 N416 1.328 . S
C411 H417 0.929 . S
C412 C413 1.362 . S
C412 C415 1.378 . S
C412 H427 0.929 . S
C413 C412 1.362 . S
C413 C414 1.366 . S
C414 C411 1.365 . S
C414 C413 1.366 . S
C414 H428 0.930 . S
C415 C412 1.378 . S
C415 N416 1.315 . S
C415 H418 0.930 . S
N416 Co396 2.194 . S
N416 C411 1.328 . S
N416 C415 1.315 . S
H417 C411 0.929 . S
H418 C415 0.930 . S
H419 C407 0.929 . S
H420 C409 0.929 . S
O421 Co396 2.351 . S
O421 C424 1.244 . S
O422 Co396 2.155 . S
O422 C424 1.240 . S
O423 Co396 2.096 . S
O423 C404 1.247 . S
C424 O421 1.244 . S
C424 O422 1.240 . S
H425 C399 0.931 . S
H426 C408 0.931 1_545 S
H427 C412 0.929 . S
H428 C414 0.930 . S
Co429 N433 2.148 . S
Co429 N439 2.128 . S
Co429 N449 2.194 . S
Co429 O454 2.351 . S
Co429 O455 2.155 . S
Co429 O456 2.096 . S
C430 N433 1.301 . S
C430 N434 1.328 . S
C430 H435 0.930 . S
C431 C432 1.333 . S
C431 N433 1.317 . S
C431 H436 0.930 . S
C432 C431 1.333 . S
C432 N434 1.350 . S
C432 H458 0.931 . S
N433 Co429 2.148 . S
N433 C430 1.301 . S
N433 C431 1.317 . S
N434 C430 1.328 . S
N434 C432 1.350 . S
H435 C430 0.930 . S
H436 C431 0.930 . S
C437 O438 1.224 . S
C437 O456 1.247 . S
O438 C437 1.224 . S
N439 Co429 2.128 . S
N439 C440 1.355 . S
N439 C442 1.311 . S
C440 N439 1.355 . S
C440 C441 1.363 . S
C440 H452 0.929 . S
C441 C440 1.363 . S
C441 N443 1.375 . S
C441 H459 0.931 1_655 S
C442 N439 1.311 . S
C442 N443 1.347 . S
C442 H453 0.929 . S
N443 C441 1.375 . S
N443 C442 1.347 . S
C444 C447 1.365 . S
C444 N449 1.328 . S
C444 H450 0.929 . S
C445 C446 1.362 . S
C445 C448 1.378 . S
C445 H460 0.929 . S
C446 C445 1.362 . S
C446 C447 1.366 . S
C447 C444 1.365 . S
C447 C446 1.366 . S
C447 H461 0.930 . S
C448 C445 1.378 . S
C448 N449 1.315 . S
C448 H451 0.930 . S
N449 Co429 2.194 . S
N449 C444 1.328 . S
N449 C448 1.315 . S
H450 C444 0.929 . S
H451 C448 0.930 . S
H452 C440 0.929 . S
H453 C442 0.929 . S
O454 Co429 2.351 . S
O454 C457 1.244 . S
O455 Co429 2.155 . S
O455 C457 1.240 . S
O456 Co429 2.096 . S
O456 C437 1.247 . S
C457 O454 1.244 . S
C457 O455 1.240 . S
H458 C432 0.931 . S
H459 C441 0.931 1_455 S
H460 C445 0.929 . S
H461 C447 0.930 . S
Co462 N466 2.148 . S
Co462 N472 2.128 . S
Co462 N482 2.194 . S
Co462 O487 2.351 . S
Co462 O488 2.155 . S
Co462 O489 2.096 . S
C463 N466 1.301 . S
C463 N467 1.328 . S
C463 H468 0.930 . S
C464 C465 1.333 . S
C464 N466 1.317 . S
C464 H469 0.930 . S
C465 C464 1.333 . S
C465 N467 1.350 . S
C465 H491 0.931 . S
N466 Co462 2.148 . S
N466 C463 1.301 . S
N466 C464 1.317 . S
N467 C463 1.328 . S
N467 C465 1.350 . S
H468 C463 0.930 . S
H469 C464 0.930 . S
C470 O471 1.224 . S
C470 O489 1.247 . S
O471 C470 1.224 . S
N472 Co462 2.128 . S
N472 C473 1.355 . S
N472 C475 1.311 . S
C473 N472 1.355 . S
C473 C474 1.363 . S
C473 H485 0.929 . S
C474 C473 1.363 . S
C474 N476 1.375 . S
C474 H492 0.931 1_545 S
C475 N472 1.311 . S
C475 N476 1.347 . S
C475 H486 0.929 . S
N476 C474 1.375 . S
N476 C475 1.347 . S
C477 C480 1.365 . S
C477 N482 1.328 . S
C477 H483 0.929 . S
C478 C479 1.362 . S
C478 C481 1.378 . S
C478 H493 0.929 . S
C479 C478 1.362 . S
C479 C480 1.366 . S
C480 C477 1.365 . S
C480 C479 1.366 . S
C480 H494 0.930 . S
C481 C478 1.378 . S
C481 N482 1.315 . S
C481 H484 0.930 . S
N482 Co462 2.194 . S
N482 C477 1.328 . S
N482 C481 1.315 . S
H483 C477 0.929 . S
H484 C481 0.930 . S
H485 C473 0.929 . S
H486 C475 0.929 . S
O487 Co462 2.351 . S
O487 C490 1.244 . S
O488 Co462 2.155 . S
O488 C490 1.240 . S
O489 Co462 2.096 . S
O489 C470 1.247 . S
C490 O487 1.244 . S
C490 O488 1.240 . S
H491 C465 0.931 . S
H492 C474 0.931 1_565 S
H493 C478 0.929 . S
H494 C480 0.930 . S
Co495 N499 2.148 . S
Co495 N505 2.128 . S
Co495 N515 2.194 . S
Co495 O520 2.351 . S
Co495 O521 2.155 . S
Co495 O522 2.096 . S
C496 N499 1.301 . S
C496 N500 1.328 . S
C496 H501 0.930 . S
C497 C498 1.333 . S
C497 N499 1.317 . S
C497 H502 0.930 . S
C498 C497 1.333 . S
C498 N500 1.350 . S
C498 H524 0.931 . S
N499 Co495 2.148 . S
N499 C496 1.301 . S
N499 C497 1.317 . S
N500 C496 1.328 . S
N500 C498 1.350 . S
H501 C496 0.930 . S
H502 C497 0.930 . S
C503 O504 1.224 . S
C503 O522 1.247 . S
O504 C503 1.224 . S
N505 Co495 2.128 . S
N505 C506 1.355 . S
N505 C508 1.311 . S
C506 N505 1.355 . S
C506 C507 1.363 . S
C506 H518 0.929 . S
C507 C506 1.363 . S
C507 N509 1.375 . S
C507 H525 0.931 1_455 S
C508 N505 1.311 . S
C508 N509 1.347 . S
C508 H519 0.929 . S
N509 C507 1.375 . S
N509 C508 1.347 . S
C510 C513 1.365 . S
C510 N515 1.328 . S
C510 H516 0.929 . S
C511 C512 1.362 . S
C511 C514 1.378 . S
C511 H526 0.929 . S
C512 C511 1.362 . S
C512 C513 1.366 . S
C513 C510 1.365 . S
C513 C512 1.366 . S
C513 H527 0.930 . S
C514 C511 1.378 . S
C514 N515 1.315 . S
C514 H517 0.930 . S
N515 Co495 2.194 . S
N515 C510 1.328 . S
N515 C514 1.315 . S
H516 C510 0.929 . S
H517 C514 0.930 . S
H518 C506 0.929 . S
H519 C508 0.929 . S
O520 Co495 2.351 . S
O520 C523 1.244 . S
O521 Co495 2.155 . S
O521 C523 1.240 . S
O522 Co495 2.096 . S
O522 C503 1.247 . S
C523 O520 1.244 . S
C523 O521 1.240 . S
H524 C498 0.931 . S
H525 C507 0.931 1_655 S
H526 C511 0.929 . S
H527 C513 0.930 . S
C528 C529 1.387 . S
C528 H532 0.950 . S
C528 C537 1.390 . S
C529 C528 1.387 . S
C529 C531 1.387 . S
H530 C537 0.950 . S
C531 C529 1.387 . S
C531 C533 1.390 . S
C531 H535 0.950 . S
H532 C528 0.950 . S
C533 C531 1.390 . S
C533 C534 1.387 . S
C533 H536 0.950 . S
C534 C533 1.387 . S
C534 C537 1.387 . S
H535 C531 0.950 . S
H536 C533 0.950 . S
C537 C528 1.390 . S
C537 H530 0.950 . S
C537 C534 1.387 . S
C538 C539 1.387 . S
C538 H542 0.950 . S
C538 C547 1.390 . S
C539 C538 1.387 . S
C539 C541 1.387 . S
H540 C547 0.950 . S
C541 C539 1.387 . S
C541 C543 1.390 . S
C541 H545 0.950 . S
H542 C538 0.950 . S
C543 C541 1.390 . S
C543 C544 1.387 . S
C543 H546 0.950 . S
C544 C543 1.387 . S
C544 C547 1.387 . S
H545 C541 0.950 . S
H546 C543 0.950 . S
C547 C538 1.390 . S
C547 H540 0.950 . S
C547 C544 1.387 . S
C548 C549 1.387 . S
C548 H552 0.950 . S
C548 C557 1.390 . S
C549 C548 1.387 . S
C549 C551 1.387 . S
H550 C557 0.950 . S
C551 C549 1.387 . S
C551 C553 1.390 . S
C551 H555 0.950 . S
H552 C548 0.950 . S
C553 C551 1.390 . S
C553 C554 1.387 . S
C553 H556 0.950 . S
C554 C553 1.387 . S
C554 C557 1.387 . S
H555 C551 0.950 . S
H556 C553 0.950 . S
C557 C548 1.390 . S
C557 H550 0.950 . S
C557 C554 1.387 . S
C558 C559 1.387 . S
C558 H562 0.950 . S
C558 C567 1.390 . S
C559 C558 1.387 . S
C559 C561 1.387 . S
H560 C567 0.950 . S
C561 C559 1.387 . S
C561 C563 1.390 . S
C561 H565 0.950 . S
H562 C558 0.950 . S
C563 C561 1.390 . S
C563 C564 1.387 . S
C563 H566 0.950 . S
C564 C563 1.387 . S
C564 C567 1.387 . S
H565 C561 0.950 . S
H566 C563 0.950 . S
C567 C558 1.390 . S
C567 H560 0.950 . S
C567 C564 1.387 . S
C568 C569 1.387 . S
C568 H572 0.950 . S
C568 C577 1.390 . S
C569 C568 1.387 . S
C569 C571 1.387 . S
H570 C577 0.950 . S
C571 C569 1.387 . S
C571 C573 1.390 . S
C571 H575 0.950 . S
H572 C568 0.950 . S
C573 C571 1.390 . S
C573 C574 1.387 . S
C573 H576 0.950 . S
C574 C573 1.387 . S
C574 C577 1.387 . S
H575 C571 0.950 . S
H576 C573 0.950 . S
C577 C568 1.390 . S
C577 H570 0.950 . S
C577 C574 1.387 . S
C578 C579 1.387 . S
C578 H582 0.950 . S
C578 C587 1.390 . S
C579 C578 1.387 . S
C579 C581 1.387 . S
H580 C587 0.950 . S
C581 C579 1.387 . S
C581 C583 1.390 . S
C581 H585 0.950 . S
H582 C578 0.950 . S
C583 C581 1.390 . S
C583 C584 1.387 . S
C583 H586 0.950 . S
C584 C583 1.387 . S
C584 C587 1.387 . S
H585 C581 0.950 . S
H586 C583 0.950 . S
C587 C578 1.390 . S
C587 H580 0.950 . S
C587 C584 1.387 . S
C588 C589 1.387 . S
C588 H592 0.950 . S
C588 C597 1.390 . S
C589 C588 1.387 . S
C589 C591 1.387 . S
H590 C597 0.950 . S
C591 C589 1.387 . S
C591 C593 1.390 . S
C591 H595 0.950 . S
H592 C588 0.950 . S
C593 C591 1.390 . S
C593 C594 1.387 . S
C593 H596 0.950 . S
C594 C593 1.387 . S
C594 C597 1.387 . S
H595 C591 0.950 . S
H596 C593 0.950 . S
C597 C588 1.390 . S
C597 H590 0.950 . S
C597 C594 1.387 . S
C598 C599 1.387 . S
C598 H602 0.950 . S
C598 C607 1.390 . S
C599 C598 1.387 . S
C599 C601 1.387 . S
H600 C607 0.950 . S
C601 C599 1.387 . S
C601 C603 1.390 . S
C601 H605 0.950 . S
H602 C598 0.950 . S
C603 C601 1.390 . S
C603 C604 1.387 . S
C603 H606 0.950 . S
C604 C603 1.387 . S
C604 C607 1.387 . S
H605 C601 0.950 . S
H606 C603 0.950 . S
C607 C598 1.390 . S
C607 H600 0.950 . S
C607 C604 1.387 . S
C608 C609 1.387 . S
C608 H612 0.950 . S
C608 C617 1.390 . S
C609 C608 1.387 . S
C609 C611 1.387 . S
H610 C617 0.950 . S
C611 C609 1.387 . S
C611 C613 1.390 . S
C611 H615 0.950 . S
H612 C608 0.950 . S
C613 C611 1.390 . S
C613 C614 1.387 . S
C613 H616 0.950 . S
C614 C613 1.387 . S
C614 C617 1.387 . S
H615 C611 0.950 . S
H616 C613 0.950 . S
C617 C608 1.390 . S
C617 H610 0.950 . S
C617 C614 1.387 . S
C618 C619 1.387 . S
C618 H622 0.950 . S
C618 C627 1.390 . S
C619 C618 1.387 . S
C619 C621 1.387 . S
H620 C627 0.950 . S
C621 C619 1.387 . S
C621 C623 1.390 . S
C621 H625 0.950 . S
H622 C618 0.950 . S
C623 C621 1.390 . S
C623 C624 1.387 . S
C623 H626 0.950 . S
C624 C623 1.387 . S
C624 C627 1.387 . S
H625 C621 0.950 . S
H626 C623 0.950 . S
C627 C618 1.390 . S
C627 H620 0.950 . S
C627 C624 1.387 . S
C628 C629 1.387 . S
C628 H632 0.950 . S
C628 C637 1.390 . S
C629 C628 1.387 . S
C629 C631 1.387 . S
H630 C637 0.950 . S
C631 C629 1.387 . S
C631 C633 1.390 . S
C631 H635 0.950 . S
H632 C628 0.950 . S
C633 C631 1.390 . S
C633 C634 1.387 . S
C633 H636 0.950 . S
C634 C633 1.387 . S
C634 C637 1.387 . S
H635 C631 0.950 . S
H636 C633 0.950 . S
C637 C628 1.390 . S
C637 H630 0.950 . S
C637 C634 1.387 . S
C638 C639 1.387 . S
C638 H642 0.950 . S
C638 C647 1.390 . S
C639 C638 1.387 . S
C639 C641 1.387 . S
H640 C647 0.950 . S
C641 C639 1.387 . S
C641 C643 1.390 . S
C641 H645 0.950 . S
H642 C638 0.950 . S
C643 C641 1.390 . S
C643 C644 1.387 . S
C643 H646 0.950 . S
C644 C643 1.387 . S
C644 C647 1.387 . S
H645 C641 0.950 . S
H646 C643 0.950 . S
C647 C638 1.390 . S
C647 H640 0.950 . S
C647 C644 1.387 . S
C648 C649 1.387 . S
C648 H652 0.950 . S
C648 C657 1.390 . S
C649 C648 1.387 . S
C649 C651 1.387 . S
H650 C657 0.950 . S
C651 C649 1.387 . S
C651 C653 1.390 . S
C651 H655 0.950 . S
H652 C648 0.950 . S
C653 C651 1.390 . S
C653 C654 1.387 . S
C653 H656 0.950 . S
C654 C653 1.387 . S
C654 C657 1.387 . S
H655 C651 0.950 . S
H656 C653 0.950 . S
C657 C648 1.390 . S
C657 H650 0.950 . S
C657 C654 1.387 . S
C658 C659 1.387 . S
C658 H662 0.950 . S
C658 C667 1.390 . S
C659 C658 1.387 . S
C659 C661 1.387 . S
H660 C667 0.950 . S
C661 C659 1.387 . S
C661 C663 1.390 . S
C661 H665 0.950 . S
H662 C658 0.950 . S
C663 C661 1.390 . S
C663 C664 1.387 . S
C663 H666 0.950 . S
C664 C663 1.387 . S
C664 C667 1.387 . S
H665 C661 0.950 . S
H666 C663 0.950 . S
C667 C658 1.390 . S
C667 H660 0.950 . S
C667 C664 1.387 . S
C668 C669 1.387 . S
C668 H672 0.950 . S
C668 C677 1.390 . S
C669 C668 1.387 . S
C669 C671 1.387 . S
H670 C677 0.950 . S
C671 C669 1.387 . S
C671 C673 1.390 . S
C671 H675 0.950 . S
H672 C668 0.950 . S
C673 C671 1.390 . S
C673 C674 1.387 . S
C673 H676 0.950 . S
C674 C673 1.387 . S
C674 C677 1.387 . S
H675 C671 0.950 . S
H676 C673 0.950 . S
C677 C668 1.390 . S
C677 H670 0.950 . S
C677 C674 1.387 . S
C678 C679 1.387 . S
C678 H682 0.950 . S
C678 C687 1.390 . S
C679 C678 1.387 . S
C679 C681 1.387 . S
H680 C687 0.950 . S
C681 C679 1.387 . S
C681 C683 1.390 . S
C681 H685 0.950 . S
H682 C678 0.950 . S
C683 C681 1.390 . S
C683 C684 1.387 . S
C683 H686 0.950 . S
C684 C683 1.387 . S
C684 C687 1.387 . S
H685 C681 0.950 . S
H686 C683 0.950 . S
C687 C678 1.390 . S
C687 H680 0.950 . S
C687 C684 1.387 . S
C688 C689 1.387 . S
C688 H692 0.950 . S
C688 C697 1.390 . S
C689 C688 1.387 . S
C689 C691 1.387 . S
H690 C697 0.950 . S
C691 C689 1.387 . S
C691 C693 1.390 . S
C691 H695 0.950 . S
H692 C688 0.950 . S
C693 C691 1.390 . S
C693 C694 1.387 . S
C693 H696 0.950 . S
C694 C693 1.387 . S
C694 C697 1.387 . S
H695 C691 0.950 . S
H696 C693 0.950 . S
C697 C688 1.390 . S
C697 H690 0.950 . S
C697 C694 1.387 . S
C698 C699 1.387 . S
C698 H702 0.950 . S
C698 C707 1.390 . S
C699 C698 1.387 . S
C699 C701 1.387 . S
H700 C707 0.950 . S
C701 C699 1.387 . S
C701 C703 1.390 . S
C701 H705 0.950 . S
H702 C698 0.950 . S
C703 C701 1.390 . S
C703 C704 1.387 . S
C703 H706 0.950 . S
C704 C703 1.387 . S
C704 C707 1.387 . S
H705 C701 0.950 . S
H706 C703 0.950 . S
C707 C698 1.390 . S
C707 H700 0.950 . S
C707 C704 1.387 . S
C708 C709 1.387 . S
C708 H712 0.950 . S
C708 C717 1.390 . S
C709 C708 1.387 . S
C709 C711 1.387 . S
H710 C717 0.950 . S
C711 C709 1.387 . S
C711 C713 1.390 . S
C711 H715 0.950 . S
H712 C708 0.950 . S
C713 C711 1.390 . S
C713 C714 1.387 . S
C713 H716 0.950 . S
C714 C713 1.387 . S
C714 C717 1.387 . S
H715 C711 0.950 . S
H716 C713 0.950 . S
C717 C708 1.390 . S
C717 H710 0.950 . S
C717 C714 1.387 . S
C718 C719 1.387 . S
C718 H722 0.950 . S
C718 C727 1.390 . S
C719 C718 1.387 . S
C719 C721 1.387 . S
H720 C727 0.950 . S
C721 C719 1.387 . S
C721 C723 1.390 . S
C721 H725 0.950 . S
H722 C718 0.950 . S
C723 C721 1.390 . S
C723 C724 1.387 . S
C723 H726 0.950 . S
C724 C723 1.387 . S
C724 C727 1.387 . S
H725 C721 0.950 . S
H726 C723 0.950 . S
C727 C718 1.390 . S
C727 H720 0.950 . S
C727 C724 1.387 . S
C728 C729 1.387 . S
C728 H732 0.950 . S
C728 C737 1.390 . S
C729 C728 1.387 . S
C729 C731 1.387 . S
H730 C737 0.950 . S
C731 C729 1.387 . S
C731 C733 1.390 . S
C731 H735 0.950 . S
H732 C728 0.950 . S
C733 C731 1.390 . S
C733 C734 1.387 . S
C733 H736 0.950 . S
C734 C733 1.387 . S
C734 C737 1.387 . S
H735 C731 0.950 . S
H736 C733 0.950 . S
C737 C728 1.390 . S
C737 H730 0.950 . S
C737 C734 1.387 . S
C738 C739 1.387 . S
C738 H742 0.950 . S
C738 C747 1.390 . S
C739 C738 1.387 . S
C739 C741 1.387 . S
H740 C747 0.950 . S
C741 C739 1.387 . S
C741 C743 1.390 . S
C741 H745 0.950 . S
H742 C738 0.950 . S
C743 C741 1.390 . S
C743 C744 1.387 . S
C743 H746 0.950 . S
C744 C743 1.387 . S
C744 C747 1.387 . S
H745 C741 0.950 . S
H746 C743 0.950 . S
C747 C738 1.390 . S
C747 H740 0.950 . S
C747 C744 1.387 . S
C748 C749 1.387 . S
C748 H752 0.950 . S
C748 C757 1.390 . S
C749 C748 1.387 . S
C749 C751 1.387 . S
H750 C757 0.950 . S
C751 C749 1.387 . S
C751 C753 1.390 . S
C751 H755 0.950 . S
H752 C748 0.950 . S
C753 C751 1.390 . S
C753 C754 1.387 . S
C753 H756 0.950 . S
C754 C753 1.387 . S
C754 C757 1.387 . S
H755 C751 0.950 . S
H756 C753 0.950 . S
C757 C748 1.390 . S
C757 H750 0.950 . S
C757 C754 1.387 . S
C758 C759 1.387 . S
C758 H762 0.950 . S
C758 C767 1.390 . S
C759 C758 1.387 . S
C759 C761 1.387 . S
H760 C767 0.950 . S
C761 C759 1.387 . S
C761 C763 1.390 . S
C761 H765 0.950 . S
H762 C758 0.950 . S
C763 C761 1.390 . S
C763 C764 1.387 . S
C763 H766 0.950 . S
C764 C763 1.387 . S
C764 C767 1.387 . S
H765 C761 0.950 . S
H766 C763 0.950 . S
C767 C758 1.390 . S
C767 H760 0.950 . S
C767 C764 1.387 . S
C768 C769 1.387 . S
C768 H772 0.950 . S
C768 C777 1.390 . S
C769 C768 1.387 . S
C769 C771 1.387 . S
H770 C777 0.950 . S
C771 C769 1.387 . S
C771 C773 1.390 . S
C771 H775 0.950 . S
H772 C768 0.950 . S
C773 C771 1.390 . S
C773 C774 1.387 . S
C773 H776 0.950 . S
C774 C773 1.387 . S
C774 C777 1.387 . S
H775 C771 0.950 . S
H776 C773 0.950 . S
C777 C768 1.390 . S
C777 H770 0.950 . S
C777 C774 1.387 . S
C778 C779 1.387 . S
C778 H782 0.950 . S
C778 C787 1.390 . S
C779 C778 1.387 . S
C779 C781 1.387 . S
H780 C787 0.950 . S
C781 C779 1.387 . S
C781 C783 1.390 . S
C781 H785 0.950 . S
H782 C778 0.950 . S
C783 C781 1.390 . S
C783 C784 1.387 . S
C783 H786 0.950 . S
C784 C783 1.387 . S
C784 C787 1.387 . S
H785 C781 0.950 . S
H786 C783 0.950 . S
C787 C778 1.390 . S
C787 H780 0.950 . S
C787 C784 1.387 . S
C788 C789 1.387 . S
C788 H792 0.950 . S
C788 C797 1.390 . S
C789 C788 1.387 . S
C789 C791 1.387 . S
H790 C797 0.950 . S
C791 C789 1.387 . S
C791 C793 1.390 . S
C791 H795 0.950 . S
H792 C788 0.950 . S
C793 C791 1.390 . S
C793 C794 1.387 . S
C793 H796 0.950 . S
C794 C793 1.387 . S
C794 C797 1.387 . S
H795 C791 0.950 . S
H796 C793 0.950 . S
C797 C788 1.390 . S
C797 H790 0.950 . S
C797 C794 1.387 . S
C798 C799 1.387 . S
C798 H802 0.950 . S
C798 C807 1.390 . S
C799 C798 1.387 . S
C799 C801 1.387 . S
H800 C807 0.950 . S
C801 C799 1.387 . S
C801 C803 1.390 . S
C801 H805 0.950 . S
H802 C798 0.950 . S
C803 C801 1.390 . S
C803 C804 1.387 . S
C803 H806 0.950 . S
C804 C803 1.387 . S
C804 C807 1.387 . S
H805 C801 0.950 . S
H806 C803 0.950 . S
C807 C798 1.390 . S
C807 H800 0.950 . S
C807 C804 1.387 . S
C808 C809 1.387 . S
C808 H812 0.950 . S
C808 C817 1.390 . S
C809 C808 1.387 . S
C809 C811 1.387 1_556 S
H810 C817 0.950 . S
C811 C809 1.387 1_554 S
C811 C813 1.390 . S
C811 H815 0.950 . S
H812 C808 0.950 . S
C813 C811 1.390 . S
C813 C814 1.387 . S
C813 H816 0.950 . S
C814 C813 1.387 . S
C814 C817 1.387 1_554 S
H815 C811 0.950 . S
H816 C813 0.950 . S
C817 C808 1.390 . S
C817 H810 0.950 . S
C817 C814 1.387 1_556 S
C818 C819 1.387 . S
C818 H822 0.950 . S
C818 C827 1.390 . S
C819 C818 1.387 . S
C819 C821 1.387 1_554 S
H820 C827 0.950 . S
C821 C819 1.387 1_556 S
C821 C823 1.390 . S
C821 H825 0.950 . S
H822 C818 0.950 . S
C823 C821 1.390 . S
C823 C824 1.387 . S
C823 H826 0.950 . S
C824 C823 1.387 . S
C824 C827 1.387 1_556 S
H825 C821 0.950 . S
H826 C823 0.950 . S
C827 C818 1.390 . S
C827 H820 0.950 . S
C827 C824 1.387 1_554 S
C828 C829 1.387 1_556 S
C828 H832 0.950 . S
C828 C837 1.390 . S
C829 C828 1.387 1_554 S
C829 C831 1.387 . S
H830 C837 0.950 . S
C831 C829 1.387 . S
C831 C833 1.390 . S
C831 H835 0.950 . S
H832 C828 0.950 . S
C833 C831 1.390 . S
C833 C834 1.387 1_554 S
C833 H836 0.950 . S
C834 C833 1.387 1_556 S
C834 C837 1.387 . S
H835 C831 0.950 . S
H836 C833 0.950 . S
C837 C828 1.390 . S
C837 H830 0.950 . S
C837 C834 1.387 . S
C838 C839 1.387 1_556 S
C838 H842 0.950 . S
C838 C847 1.390 . S
C839 C838 1.387 1_554 S
C839 C841 1.387 . S
H840 C847 0.950 . S
C841 C839 1.387 . S
C841 C843 1.390 . S
C841 H845 0.950 . S
H842 C838 0.950 . S
C843 C841 1.390 . S
C843 C844 1.387 1_554 S
C843 H846 0.950 . S
C844 C843 1.387 1_556 S
C844 C847 1.387 . S
H845 C841 0.950 . S
H846 C843 0.950 . S
C847 C838 1.390 . S
C847 H840 0.950 . S
C847 C844 1.387 . S
C848 C849 1.387 . S
C848 H852 0.950 . S
C848 C857 1.390 . S
C849 C848 1.387 . S
C849 C851 1.387 . S
H850 C857 0.950 . S
C851 C849 1.387 . S
C851 C853 1.390 . S
C851 H855 0.950 . S
H852 C848 0.950 . S
C853 C851 1.390 . S
C853 C854 1.387 . S
C853 H856 0.950 . S
C854 C853 1.387 . S
C854 C857 1.387 . S
H855 C851 0.950 . S
H856 C853 0.950 . S
C857 C848 1.390 . S
C857 H850 0.950 . S
C857 C854 1.387 . S
C858 C859 1.387 . S
C858 H862 0.950 . S
C858 C867 1.390 . S
C859 C858 1.387 . S
C859 C861 1.387 . S
H860 C867 0.950 . S
C861 C859 1.387 . S
C861 C863 1.390 . S
C861 H865 0.950 . S
H862 C858 0.950 . S
C863 C861 1.390 . S
C863 C864 1.387 . S
C863 H866 0.950 . S
C864 C863 1.387 . S
C864 C867 1.387 . S
H865 C861 0.950 . S
H866 C863 0.950 . S
C867 C858 1.390 . S
C867 H860 0.950 . S
C867 C864 1.387 . S
C868 C869 1.387 . S
C868 H872 0.950 . S
C868 C877 1.390 . S
C869 C868 1.387 . S
C869 C871 1.387 . S
H870 C877 0.950 . S
C871 C869 1.387 . S
C871 C873 1.390 . S
C871 H875 0.950 . S
H872 C868 0.950 . S
C873 C871 1.390 . S
C873 C874 1.387 . S
C873 H876 0.950 . S
C874 C873 1.387 . S
C874 C877 1.387 . S
H875 C871 0.950 . S
H876 C873 0.950 . S
C877 C868 1.390 . S
C877 H870 0.950 . S
C877 C874 1.387 . S
C878 C879 1.387 . S
C878 H882 0.950 . S
C878 C887 1.390 . S
C879 C878 1.387 . S
C879 C881 1.387 . S
H880 C887 0.950 . S
C881 C879 1.387 . S
C881 C883 1.390 . S
C881 H885 0.950 . S
H882 C878 0.950 . S
C883 C881 1.390 . S
C883 C884 1.387 . S
C883 H886 0.950 . S
C884 C883 1.387 . S
C884 C887 1.387 . S
H885 C881 0.950 . S
H886 C883 0.950 . S
C887 C878 1.390 . S
C887 H880 0.950 . S
C887 C884 1.387 . S
C888 C889 1.387 . S
C888 H892 0.950 . S
C888 C897 1.390 . S
C889 C888 1.387 . S
C889 C891 1.387 . S
H890 C897 0.950 . S
C891 C889 1.387 . S
C891 C893 1.390 . S
C891 H895 0.950 . S
H892 C888 0.950 . S
C893 C891 1.390 . S
C893 C894 1.387 . S
C893 H896 0.950 . S
C894 C893 1.387 . S
C894 C897 1.387 . S
H895 C891 0.950 . S
H896 C893 0.950 . S
C897 C888 1.390 . S
C897 H890 0.950 . S
C897 C894 1.387 . S
C898 C899 1.387 . S
C898 H902 0.950 . S
C898 C907 1.390 . S
C899 C898 1.387 . S
C899 C901 1.387 . S
H900 C907 0.950 . S
C901 C899 1.387 . S
C901 C903 1.390 . S
C901 H905 0.950 . S
H902 C898 0.950 . S
C903 C901 1.390 . S
C903 C904 1.387 . S
C903 H906 0.950 . S
C904 C903 1.387 . S
C904 C907 1.387 . S
H905 C901 0.950 . S
H906 C903 0.950 . S
C907 C898 1.390 . S
C907 H900 0.950 . S
C907 C904 1.387 . S
C908 C909 1.387 . S
C908 H912 0.950 . S
C908 C917 1.390 . S
C909 C908 1.387 . S
C909 C911 1.387 . S
H910 C917 0.950 . S
C911 C909 1.387 . S
C911 C913 1.390 . S
C911 H915 0.950 . S
H912 C908 0.950 . S
C913 C911 1.390 . S
C913 C914 1.387 . S
C913 H916 0.950 . S
C914 C913 1.387 . S
C914 C917 1.387 . S
H915 C911 0.950 . S
H916 C913 0.950 . S
C917 C908 1.390 . S
C917 H910 0.950 . S
C917 C914 1.387 . S
C918 C919 1.387 . S
C918 H922 0.950 . S
C918 C927 1.390 . S
C919 C918 1.387 . S
C919 C921 1.387 . S
H920 C927 0.950 . S
C921 C919 1.387 . S
C921 C923 1.390 . S
C921 H925 0.950 . S
H922 C918 0.950 . S
C923 C921 1.390 . S
C923 C924 1.387 . S
C923 H926 0.950 . S
C924 C923 1.387 . S
C924 C927 1.387 . S
H925 C921 0.950 . S
H926 C923 0.950 . S
C927 C918 1.390 . S
C927 H920 0.950 . S
C927 C924 1.387 . S
C529 C8 1.229 . S
C534 C470 1.229 . S
C539 C503 1.229 . S
C544 C41 1.229 . S
C549 C404 1.229 . S
C554 C74 1.229 . S
C559 C107 1.229 . S
C564 C437 1.229 . S
C569 C140 1.229 . S
C574 C338 1.229 . S
C579 C371 1.229 . S
C584 C173 1.229 . S
C589 C206 1.229 . S
C594 C272 1.229 . S
C599 C305 1.229 . S
C604 C239 1.229 . S
C609 N137 1.406 . S
C614 N5 1.406 . S
C619 N38 1.405 . S
C624 N170 1.405 . S
C629 N71 1.405 . S
C634 N203 1.405 . S
C639 N104 1.406 . S
C644 N236 1.406 . S
C649 N401 1.406 . S
C654 N269 1.406 . S
C659 N434 1.405 . S
C664 N302 1.405 . S
C669 N335 1.406 . S
C674 N467 1.406 . S
C679 N368 1.406 . S
C684 N500 1.406 . S
C689 C17 1.537 . S
C694 C479 1.537 . S
C699 C512 1.537 . S
C704 C50 1.537 . S
C709 C83 1.535 . S
C714 C413 1.535 . S
C719 C446 1.537 . S
C724 C116 1.537 . S
C729 C347 1.535 . S
C734 C149 1.535 . S
C739 C380 1.535 . S
C744 C182 1.535 . S
C749 C215 1.537 . S
C754 C281 1.537 . S
C759 C248 1.535 . S
C764 C314 1.535 . S
C769 N14 1.552 1_565 S
C774 C391 1.620 . S
C779 C292 1.620 . S
C784 N47 1.552 1_655 S
C789 N80 1.550 1_545 S
C794 C325 1.620 . S
C799 C358 1.620 . S
C804 N113 1.552 1_455 S
C809 C193 1.619 . S
C814 N146 1.549 . S
C819 C226 1.620 . S
C824 N179 1.552 . S
C829 N212 1.550 . S
C834 C259 1.618 . S
C839 C160 1.619 . S
C844 N245 1.549 . S
C849 C127 1.620 . S
C854 N278 1.550 . S
C859 N311 1.550 . S
C864 C28 1.618 . S
C869 N344 1.553 . S
C874 C61 1.620 . S
C879 C94 1.620 . S
C884 N377 1.553 . S
C889 C457 1.619 . S
C894 N410 1.549 1_545 S
C899 C490 1.618 . S
C904 N443 1.550 1_455 S
C909 C523 1.619 . S
C914 N476 1.550 1_565 S
C919 N509 1.550 1_655 S
C924 C424 1.618 . S
