# Generated by pormake.
# Topology wje, (4)-cn, num edge types: 1
# Building blocks:
#     Node 0, Type 0, BuildingBlock: CEKHIL_clean_sbu_0, # of connection points: 4
#     Node 1, Type 0, BuildingBlock: CEKHIL_clean_sbu_0, # of connection points: 4
#     Node 2, Type 0, BuildingBlock: CEKHIL_clean_sbu_0, # of connection points: 4
#     Node 3, Type 0, BuildingBlock: CEKHIL_clean_sbu_0, # of connection points: 4
#     Node 4, Type 0, BuildingBlock: CEKHIL_clean_sbu_0, # of connection points: 4
#     Node 5, Type 0, BuildingBlock: CEKHIL_clean_sbu_0, # of connection points: 4
#     Node 6, Type 0, BuildingBlock: CEKHIL_clean_sbu_0, # of connection points: 4
#     Node 7, Type 0, BuildingBlock: CEKHIL_clean_sbu_0, # of connection points: 4
#     Node 8, Type 0, BuildingBlock: CEKHIL_clean_sbu_0, # of connection points: 4
#     Node 9, Type 0, BuildingBlock: CEKHIL_clean_sbu_0, # of connection points: 4
#     Node 10, Type 0, BuildingBlock: CEKHIL_clean_sbu_0, # of connection points: 4
#     Node 11, Type 0, BuildingBlock: CEKHIL_clean_sbu_0, # of connection points: 4
#     Edge 12, Type (0, 0), BuildingBlock: EZIPEK_clean_linker_0, # of connection points: 2
#     Edge 13, Type (0, 0), BuildingBlock: EZIPEK_clean_linker_0, # of connection points: 2
#     Edge 14, Type (0, 0), BuildingBlock: EZIPEK_clean_linker_0, # of connection points: 2
#     Edge 15, Type (0, 0), BuildingBlock: EZIPEK_clean_linker_0, # of connection points: 2
#     Edge 16, Type (0, 0), BuildingBlock: EZIPEK_clean_linker_0, # of connection points: 2
#     Edge 17, Type (0, 0), BuildingBlock: EZIPEK_clean_linker_0, # of connection points: 2
#     Edge 18, Type (0, 0), BuildingBlock: EZIPEK_clean_linker_0, # of connection points: 2
#     Edge 19, Type (0, 0), BuildingBlock: EZIPEK_clean_linker_0, # of connection points: 2
#     Edge 20, Type (0, 0), BuildingBlock: EZIPEK_clean_linker_0, # of connection points: 2
#     Edge 21, Type (0, 0), BuildingBlock: EZIPEK_clean_linker_0, # of connection points: 2
#     Edge 22, Type (0, 0), BuildingBlock: EZIPEK_clean_linker_0, # of connection points: 2
#     Edge 23, Type (0, 0), BuildingBlock: EZIPEK_clean_linker_0, # of connection points: 2
#     Edge 24, Type (0, 0), BuildingBlock: EZIPEK_clean_linker_0, # of connection points: 2
#     Edge 25, Type (0, 0), BuildingBlock: EZIPEK_clean_linker_0, # of connection points: 2
#     Edge 26, Type (0, 0), BuildingBlock: EZIPEK_clean_linker_0, # of connection points: 2
#     Edge 27, Type (0, 0), BuildingBlock: EZIPEK_clean_linker_0, # of connection points: 2
#     Edge 28, Type (0, 0), BuildingBlock: EZIPEK_clean_linker_0, # of connection points: 2
#     Edge 29, Type (0, 0), BuildingBlock: EZIPEK_clean_linker_0, # of connection points: 2
#     Edge 30, Type (0, 0), BuildingBlock: EZIPEK_clean_linker_0, # of connection points: 2
#     Edge 31, Type (0, 0), BuildingBlock: EZIPEK_clean_linker_0, # of connection points: 2
#     Edge 32, Type (0, 0), BuildingBlock: EZIPEK_clean_linker_0, # of connection points: 2
#     Edge 33, Type (0, 0), BuildingBlock: EZIPEK_clean_linker_0, # of connection points: 2
#     Edge 34, Type (0, 0), BuildingBlock: EZIPEK_clean_linker_0, # of connection points: 2
#     Edge 35, Type (0, 0), BuildingBlock: EZIPEK_clean_linker_0, # of connection points: 2
# Relax obj value: 0.156
# Max RMSD: 0.098
# Mean RMSD: 0.098
data_MOF--net-wje--node1-CEKHIL_clean_sbu_0--edge1-EZIPEK_clean_linker_0
_symmetry_space_group_name_H-M    P1
_symmetry_Int_Tables_number       1
_symmetry_cell_setting            triclinic
loop_
_symmetry_equiv_pos_as_xyz
'x, y, z'
_cell_length_a     28.626543
_cell_length_b     28.65781
_cell_length_c     27.993463
_cell_angle_alpha  89.985245
_cell_angle_beta   89.971982
_cell_angle_gamma 119.99951
loop_
_atom_site_label
_atom_site_type_symbol
_atom_site_fract_x
_atom_site_fract_y
_atom_site_fract_z
_atom_type_partial_charge
Co0 Co 0.3162 0.01933 0.2906 0.0
O1 O 0.31746 0.04329 0.22594 0.0
O2 O 0.35049 0.09757 0.28766 0.0
C3 C 0.22893 0.95159 0.2882 0.0
O4 O 0.31822 0.00834 0.36338 0.0
Co5 Co 0.29445 0.90367 0.31204 0.0
O6 O 0.28203 0.91947 0.3782 0.0
C7 C 0.40329 0.98751 0.28256 0.0
C8 C 0.34007 0.09219 0.24208 0.0
C9 C 0.2996 0.96761 0.39232 0.0
O10 O 0.38835 0.02318 0.28167 0.0
O11 O 0.37121 0.93749 0.2908 0.0
O12 O 0.24067 0.00092 0.29656 0.0
O13 O 0.27015 0.94653 0.27828 0.0
Co14 Co 0.28615 0.31489 0.64704 0.0
O15 O 0.27261 0.31112 0.5789 0.0
O16 O 0.25006 0.35531 0.62937 0.0
C17 C 0.25343 0.22531 0.65643 0.0
O18 O 0.29164 0.3256 0.72022 0.0
Co19 Co 0.36443 0.27851 0.68778 0.0
O20 O 0.33672 0.28647 0.75061 0.0
C21 C 0.40859 0.38251 0.63819 0.0
C22 C 0.24804 0.33815 0.58589 0.0
C23 C 0.3094 0.3102 0.75592 0.0
O24 O 0.3619 0.37958 0.63863 0.0
O25 O 0.41503 0.34253 0.64835 0.0
O26 O 0.22063 0.24418 0.65579 0.0
O27 O 0.30312 0.25969 0.64763 0.0
Co28 Co 0.97432 0.28749 0.97025 0.0
O29 O 0.9556 0.2702 0.90348 0.0
O30 O 0.89606 0.24747 0.96094 0.0
C31 C 0.03898 0.26311 0.97057 0.0
O32 O 0.97883 0.29449 0.04398 0.0
Co33 Co 0.09144 0.37329 1.00078 0.0
O34 O 0.06641 0.3432 0.06568 0.0
C35 C 0.01966 0.40868 0.96066 0.0
C36 C 0.90518 0.24455 0.91575 0.0
C37 C 0.01666 0.31349 0.07596 0.0
O38 O 0.97831 0.36044 0.96365 0.0
O39 O 0.06832 0.41961 0.96707 0.0
O40 O 0.98837 0.22673 0.97531 0.0
O41 O 0.04673 0.31058 0.9628 0.0
Co42 Co 0.69607 0.97697 0.30214 0.0
O43 O 0.69662 0.95935 0.2354 0.0
O44 O 0.65831 0.89902 0.29212 0.0
C45 C 0.78511 0.04199 0.30416 0.0
O46 O 0.69087 0.98054 0.37572 0.0
Co47 Co 0.72445 0.09277 0.33302 0.0
O48 O 0.72577 0.06729 0.39851 0.0
C49 C 0.61832 0.01987 0.29149 0.0
C50 C 0.67105 0.90882 0.24709 0.0
C51 C 0.7062 0.01754 0.40829 0.0
O52 O 0.62672 0.97956 0.29385 0.0
O53 O 0.65465 0.06866 0.29957 0.0
O54 O 0.77088 0.99141 0.30885 0.0
O55 O 0.74539 0.04971 0.29573 0.0
Co56 Co 0.71213 0.68782 0.63166 0.0
O57 O 0.73034 0.68836 0.56466 0.0
O58 O 0.76181 0.66036 0.62321 0.0
C59 C 0.72432 0.77292 0.63232 0.0
O60 O 0.70552 0.68467 0.70541 0.0
Co61 Co 0.61479 0.70009 0.66378 0.0
O62 O 0.64687 0.71123 0.72834 0.0
C63 C 0.59492 0.59517 0.62729 0.0
C64 C 0.76146 0.66989 0.5778 0.0
C65 C 0.68225 0.69813 0.73802 0.0
O66 O 0.64623 0.6129 0.62469 0.0
O67 O 0.57492 0.6248 0.63865 0.0
O68 O 0.76501 0.76494 0.63652 0.0
O69 O 0.67904 0.72952 0.62467 0.0
Co70 Co 0.03091 0.71667 0.96485 0.0
O71 O 0.0505 0.73591 0.89841 0.0
O72 O 0.1092 0.76237 0.95738 0.0
C73 C 0.96233 0.73562 0.9642 0.0
O74 O 0.02477 0.70703 0.03855 0.0
Co75 Co 0.91611 0.62428 0.99288 0.0
O76 O 0.93736 0.65267 0.05851 0.0
C77 C 0.99659 0.5973 0.9574 0.0
C78 C 0.10025 0.76404 0.91197 0.0
C79 C 0.98637 0.68435 0.06991 0.0
O80 O 0.03382 0.64757 0.95684 0.0
O81 O 0.94706 0.5808 0.96683 0.0
O82 O 0.01194 0.77354 0.97055 0.0
O83 O 0.95722 0.68912 0.95594 0.0
Co84 Co 0.97925 0.68731 0.38217 0.0
O85 O 0.96281 0.68946 0.44908 0.0
O86 O 0.90174 0.65803 0.392 0.0
C87 C 0.04978 0.77333 0.38007 0.0
O88 O 0.98225 0.68213 0.30829 0.0
Co89 Co 0.09104 0.70441 0.35009 0.0
O90 O 0.06886 0.7146 0.28581 0.0
C91 C 0.00995 0.59954 0.39008 0.0
C92 C 0.91279 0.6701 0.437 0.0
C93 C 0.01968 0.6982 0.27589 0.0
O94 O 0.97394 0.61428 0.39131 0.0
O95 O 0.05916 0.63086 0.37829 0.0
O96 O 1.00052 0.76353 0.37541 0.0
O97 O 0.05351 0.73117 0.38856 0.0
Co98 Co 0.28336 0.97319 0.70477 0.0
O99 O 0.2685 0.96274 0.77268 0.0
O100 O 0.24658 0.89648 0.72176 0.0
C101 C 0.2517 0.03082 0.69487 0.0
O102 O 0.2906 0.96935 0.63174 0.0
Co103 Co 0.36426 0.08858 0.66697 0.0
O104 O 0.33819 0.0543 0.60333 0.0
C105 C 0.4053 0.0262 0.71596 0.0
C106 C 0.24411 0.91126 0.76529 0.0
C107 C 0.31008 0.00347 0.59682 0.0
O108 O 0.35844 0.98296 0.71369 0.0
O109 O 0.41242 0.07334 0.7083 0.0
O110 O 0.21842 0.97927 0.69508 0.0
O111 O 0.30099 0.04543 0.70477 0.0
Co112 Co 0.31041 0.29391 0.06086 0.0
O113 O 0.31162 0.27037 0.12517 0.0
O114 O 0.347 0.25201 0.06332 0.0
C115 C 0.22191 0.27127 0.06219 0.0
O116 O 0.31315 0.30861 0.98833 0.0
Co117 Co 0.2869 0.38663 0.04201 0.0
O118 O 0.27676 0.3614 0.97498 0.0
C119 C 0.39552 0.41348 0.07207 0.0
C120 C 0.33615 0.24601 0.10884 0.0
C121 C 0.29469 0.33142 0.96005 0.0
O122 O 0.38166 0.36317 0.07084 0.0
O123 O 0.36265 0.43071 0.06514 0.0
O124 O 0.23572 0.23523 0.0536 0.0
O125 O 0.26188 0.31795 0.07343 0.0
Co126 Co 0.03268 0.31257 0.38679 0.0
O127 O 0.05332 0.31686 0.45341 0.0
O128 O 0.11129 0.34963 0.39388 0.0
C129 C 0.96787 0.2234 0.38986 0.0
O130 O 0.02594 0.31271 0.31314 0.0
Co131 Co 0.91473 0.28044 0.35868 0.0
O132 O 0.93821 0.27665 0.29282 0.0
C133 C 0.9876 0.38834 0.39616 0.0
C134 C 0.1031 0.34004 0.4395 0.0
C135 C 0.98759 0.29543 0.28173 0.0
O136 O 0.02914 0.38191 0.39157 0.0
O137 O 0.93887 0.34974 0.39305 0.0
O138 O 0.01822 0.23755 0.38376 0.0
O139 O 0.96027 0.26343 0.39653 0.0
Co140 Co 0.70922 0.02671 0.71811 0.0
O141 O 0.72866 0.04646 0.78441 0.0
O142 O 0.75492 0.10479 0.72563 0.0
C143 C 0.72618 0.95684 0.71846 0.0
O144 O 0.70022 0.02036 0.6446 0.0
Co145 Co 0.61422 0.91274 0.6912 0.0
O146 O 0.64483 0.93288 0.62584 0.0
C147 C 0.59024 0.99561 0.72557 0.0
C148 C 0.75695 0.09635 0.77112 0.0
C149 C 0.67752 0.98149 0.61381 0.0
O150 O 0.64097 0.03158 0.72518 0.0
O151 O 0.57217 0.94559 0.71726 0.0
O152 O 0.76517 0.0062 0.71289 0.0
O153 O 0.68019 0.95298 0.72694 0.0
Co154 Co 0.69132 0.71535 0.04803 0.0
O155 O 0.69212 0.73592 0.1139 0.0
O156 O 0.65533 0.75778 0.05566 0.0
C157 C 0.7798 0.73766 0.04759 0.0
O158 O 0.68651 0.70331 0.9746 0.0
Co159 Co 0.7179 0.62537 0.02195 0.0
O160 O 0.72783 0.656 0.95672 0.0
C161 C 0.61034 0.59565 0.06029 0.0
C162 C 0.66778 0.76163 0.10084 0.0
C163 C 0.70596 0.68335 0.94401 0.0
O164 O 0.62091 0.64504 0.05806 0.0
O165 O 0.64479 0.58087 0.051 0.0
O166 O 0.76637 0.77427 0.04062 0.0
O167 O 0.73953 0.69081 0.057 0.0
C168 C 0.35853 0.13346 0.1597 0.0
C169 C 0.35046 0.13808 0.20925 0.0
C170 C 0.35631 0.22465 0.19106 0.0
C171 C 0.34864 0.2119 0.14153 0.0
N172 N 0.33364 0.14535 0.08043 0.0
N173 N 0.33225 0.18754 0.27025 0.0
C174 C 0.34783 0.16415 0.126 0.0
C175 C 0.34727 0.18379 0.22475 0.0
N176 N 0.37748 0.10071 0.14457 0.0
N177 N 0.37327 0.27597 0.20617 0.0
H178 H 0.32056 0.15748 0.29583 0.0
H179 H 0.32519 0.21839 0.28081 0.0
H180 H 0.38461 0.30797 0.18245 0.0
H181 H 0.38294 0.28768 0.24174 0.0
H182 H 0.38747 0.09916 0.109 0.0
H183 H 0.39003 0.08106 0.16827 0.0
H184 H 0.32821 0.10808 0.06981 0.0
H185 H 0.32118 0.163 0.0548 0.0
C186 C 0.17836 0.29413 0.52058 0.0
C187 C 0.21272 0.34127 0.54748 0.0
C188 C 0.17567 0.38989 0.50254 0.0
C189 C 0.1459 0.3441 0.47293 0.0
N190 N 0.13045 0.25752 0.44651 0.0
N191 N 0.25055 0.43706 0.55784 0.0
C192 C 0.15123 0.29798 0.47956 0.0
C193 C 0.21314 0.39011 0.5368 0.0
N194 N 0.16812 0.24459 0.53597 0.0
N195 N 0.1676 0.43281 0.49844 0.0
H196 H 0.27925 0.43897 0.5819 0.0
H197 H 0.25629 0.47468 0.54823 0.0
H198 H 0.14219 0.43451 0.47262 0.0
H199 H 0.1834 0.46496 0.52234 0.0
H200 H 0.13937 0.20868 0.52017 0.0
H201 H 0.18277 0.23852 0.56799 0.0
H202 H 0.13772 0.22533 0.44719 0.0
H203 H 0.11122 0.25926 0.41553 0.0
C204 C 0.84133 0.18605 0.79463 0.0
C205 C 0.79098 0.13998 0.80687 0.0
C206 C 0.8138 0.16237 0.89187 0.0
C207 C 0.86177 0.21112 0.87955 0.0
N208 N 0.90684 0.27722 0.8172 0.0
N209 N 0.72221 0.09964 0.86791 0.0
C210 C 0.87091 0.22552 0.83031 0.0
C211 C 0.7749 0.13309 0.85571 0.0
N212 N 0.86338 0.19143 0.7503 0.0
N213 N 0.80594 0.14128 0.93685 0.0
H214 H 0.69168 0.08104 0.84252 0.0
H215 H 0.70817 0.09649 0.90282 0.0
H216 H 0.83432 0.15748 0.96404 0.0
H217 H 0.77345 0.10347 0.94536 0.0
H218 H 0.90217 0.22234 0.74198 0.0
H219 H 0.84656 0.16232 0.72375 0.0
H220 H 0.91182 0.29027 0.78182 0.0
H221 H 0.92586 0.30828 0.84201 0.0
C222 C 0.66218 0.84545 0.12496 0.0
C223 C 0.65771 0.79501 0.1367 0.0
C224 C 0.66016 0.81742 0.22196 0.0
C225 C 0.6601 0.86583 0.21033 0.0
N226 N 0.63903 0.91224 0.1493 0.0
N227 N 0.6303 0.72597 0.19716 0.0
C228 C 0.65404 0.87548 0.16137 0.0
C229 C 0.64941 0.7787 0.18545 0.0
N230 N 0.67734 0.86704 0.08031 0.0
N231 N 0.67397 0.80909 0.26653 0.0
H232 H 0.61816 0.69583 0.1714 0.0
H233 H 0.61989 0.7116 0.23203 0.0
H234 H 0.6871 0.83744 0.2938 0.0
H235 H 0.67879 0.7762 0.27453 0.0
H236 H 0.68584 0.90605 0.07223 0.0
H237 H 0.68733 0.84923 0.05285 0.0
H238 H 0.63021 0.91759 0.11427 0.0
H239 H 0.62831 0.93172 0.17475 0.0
C240 C 0.8854 0.71624 0.49859 0.0
C241 C 0.87249 0.66875 0.47231 0.0
C242 C 0.78466 0.62159 0.51401 0.0
C243 C 0.80026 0.66757 0.54331 0.0
N244 N 0.86959 0.75547 0.56909 0.0
N245 N 0.81264 0.57373 0.4598 0.0
C246 C 0.85197 0.71378 0.53735 0.0
C247 C 0.82268 0.62071 0.48116 0.0
N248 N 0.92793 0.76473 0.48476 0.0
N249 N 0.73325 0.57903 0.51718 0.0
H250 H 0.83958 0.57148 0.43612 0.0
H251 H 0.77981 0.53628 0.46839 0.0
H252 H 0.70533 0.57767 0.54195 0.0
H253 H 0.71722 0.54681 0.49337 0.0
H254 H 0.93579 0.80144 0.49921 0.0
H255 H 0.95194 0.76923 0.4552 0.0
H256 H 0.90915 0.78745 0.5699 0.0
H257 H 0.84617 0.75577 0.59748 0.0
C258 C 0.21228 0.82655 0.81651 0.0
C259 C 0.20859 0.87263 0.8034 0.0
C260 C 0.14351 0.85245 0.8688 0.0
C261 C 0.14216 0.80322 0.87817 0.0
N262 N 0.17132 0.7402 0.85802 0.0
N263 N 0.15958 0.9209 0.81048 0.0
C264 C 0.17551 0.78933 0.85117 0.0
C265 C 0.17136 0.88339 0.82793 0.0
N266 N 0.2521 0.81936 0.7973 0.0
N267 N 0.11853 0.87023 0.89939 0.0
H268 H 0.17586 0.94217 0.77896 0.0
H269 H 0.12874 0.92632 0.82408 0.0
H270 H 0.09838 0.84912 0.93005 0.0
H271 H 0.12283 0.90848 0.89717 0.0
H272 H 0.26037 0.78968 0.80876 0.0
H273 H 0.27994 0.84601 0.77259 0.0
H274 H 0.18988 0.72494 0.83605 0.0
H275 H 0.14639 0.71325 0.88417 0.0
C276 C 0.47903 0.98201 0.24246 0.0
C277 C 0.4613 0.00437 0.27873 0.0
C278 C 0.54287 0.02918 0.32475 0.0
C279 C 0.56264 0.01044 0.28722 0.0
N280 N 0.55429 0.97791 0.20665 0.0
N281 N 0.48387 0.0628 0.3475 0.0
C282 C 0.53203 0.98921 0.24492 0.0
C283 C 0.49573 0.03255 0.3175 0.0
N284 N 0.44505 0.95377 0.20585 0.0
N285 N 0.56776 0.04146 0.36837 0.0
H286 H 0.4502 0.06727 0.34346 0.0
H287 H 0.51056 0.08821 0.37344 0.0
H288 H 0.6015 0.03788 0.37597 0.0
H289 H 0.55155 0.04952 0.39848 0.0
H290 H 0.45283 0.93105 0.18147 0.0
H291 H 0.40775 0.95138 0.2011 0.0
H292 H 0.53616 0.96724 0.17316 0.0
H293 H 0.59311 0.98338 0.20748 0.0
C294 C 0.51197 0.52101 0.58773 0.0
C295 C 0.55508 0.53681 0.62077 0.0
C296 C 0.50198 0.45258 0.6647 0.0
C297 C 0.45899 0.43561 0.6311 0.0
N298 N 0.42862 0.44858 0.55455 0.0
N299 N 0.59705 0.50968 0.68098 0.0
C300 C 0.46558 0.46836 0.59071 0.0
C301 C 0.55218 0.4998 0.65572 0.0
N302 N 0.51525 0.55684 0.55384 0.0
N303 N 0.49409 0.42594 0.70713 0.0
H304 H 0.63482 0.54337 0.67546 0.0
H305 H 0.59818 0.48133 0.70353 0.0
H306 H 0.45789 0.39222 0.71685 0.0
H307 H 0.52174 0.44068 0.73513 0.0
H308 H 0.48287 0.55091 0.53262 0.0
H309 H 0.55035 0.59377 0.54827 0.0
H310 H 0.43366 0.46842 0.52216 0.0
H311 H 0.39493 0.40997 0.55516 0.0
C312 C 0.9888 0.51637 0.9151 0.0
C313 C 0.01083 0.55434 0.95305 0.0
C314 C 0.03174 0.49333 0.99723 0.0
C315 C 0.01234 0.45642 0.95832 0.0
N316 N 0.97994 0.43579 0.87747 0.0
N317 N 0.0618 0.58344 0.02641 0.0
C318 C 0.99282 0.46869 0.91642 0.0
C319 C 0.03533 0.54434 0.9927 0.0
N320 N 0.96336 0.52574 0.87817 0.0
N321 N 0.04444 0.47853 0.03961 0.0
H322 H 0.06373 0.62069 0.02582 0.0
H323 H 0.08589 0.58091 0.05297 0.0
H324 H 0.04282 0.44176 0.04472 0.0
H325 H 0.05195 0.50043 0.07112 0.0
H326 H 0.94073 0.49716 0.85234 0.0
H327 H 0.96313 0.56188 0.87452 0.0
H328 H 0.97076 0.4451 0.8441 0.0
H329 H 0.98192 0.40042 0.8777 0.0
C330 C 0.96402 0.50355 0.36382 0.0
C331 C 0.995 0.54257 0.39875 0.0
C332 C 0.01934 0.4791 0.43516 0.0
C333 C 0.99397 0.44314 0.39659 0.0
N334 N 0.95012 0.42542 0.31947 0.0
N335 N 0.05321 0.56904 0.46759 0.0
C336 C 0.96825 0.45646 0.35979 0.0
C337 C 0.02285 0.53062 0.43455 0.0
N338 N 0.93057 0.51131 0.33416 0.0
N339 N 0.03847 0.46338 0.47293 0.0
H340 H 0.05302 0.60527 0.47046 0.0
H341 H 0.07987 0.566 0.49091 0.0
H342 H 0.03707 0.42631 0.47403 0.0
H343 H 0.05247 0.48527 0.50447 0.0
H344 H 0.90265 0.48153 0.3116 0.0
H345 H 0.92644 0.54535 0.33528 0.0
H346 H 0.93752 0.43682 0.28895 0.0
H347 H 0.95248 0.39067 0.31436 0.0
C348 C 0.5122 0.9959 0.76634 0.0
C349 C 0.54904 0.01261 0.72754 0.0
C350 C 0.49488 0.04324 0.68396 0.0
C351 C 0.45499 0.02183 0.72085 0.0
N352 N 0.42474 0.97691 0.79681 0.0
N353 N 0.57331 0.04697 0.64728 0.0
C354 C 0.46342 0.99787 0.76201 0.0
C355 C 0.54028 0.03572 0.68617 0.0
N356 N 0.52485 0.9793 0.80768 0.0
N357 N 0.48944 0.07045 0.64616 0.0
H358 H 0.6083 0.04433 0.64754 0.0
H359 H 0.5644 0.05551 0.61346 0.0
H360 H 0.4545 0.07162 0.63856 0.0
H361 H 0.52089 0.09443 0.62298 0.0
H362 H 0.50257 0.97057 0.83908 0.0
H363 H 0.56061 0.97833 0.8117 0.0
H364 H 0.42511 0.95357 0.82511 0.0
H365 H 0.3905 0.98093 0.79647 0.0
C366 C 0.48439 0.4656 0.03193 0.0
C367 C 0.4534 0.4552 0.07411 0.0
C368 C 0.5266 0.5382 0.10976 0.0
C369 C 0.55377 0.55135 0.06519 0.0
N370 N 0.55063 0.5347 0.98069 0.0
N371 N 0.44251 0.48308 0.15254 0.0
C372 C 0.53035 0.51698 0.02539 0.0
C373 C 0.47378 0.49208 0.11294 0.0
N374 N 0.47024 0.42662 0.99795 0.0
N375 N 0.55173 0.56875 0.14903 0.0
H376 H 0.40525 0.44806 0.15696 0.0
H377 H 0.45239 0.51119 0.17982 0.0
H378 H 0.58996 0.60295 0.1473 0.0
H379 H 0.53632 0.55835 0.18353 0.0
H380 H 0.49461 0.43104 0.96865 0.0
H381 H 0.43708 0.388 1.00126 0.0
H382 H 0.53229 0.51318 0.94968 0.0
H383 H 0.58175 0.57396 0.97449 0.0
C384 C 0.14446 0.82325 0.35034 0.0
C385 C 0.09741 0.82452 0.36313 0.0
C386 C 0.13247 0.90996 0.31894 0.0
C387 C 0.17659 0.90416 0.3033 0.0
N388 N 0.2022 0.83783 0.28364 0.0
N389 N 0.05461 0.87811 0.37174 0.0
C390 C 0.17568 0.85535 0.31239 0.0
C391 C 0.09317 0.87038 0.35049 0.0
N392 N 0.16201 0.79473 0.37625 0.0
N393 N 0.12629 0.95078 0.30079 0.0
H394 H 0.03029 0.85341 0.3993 0.0
H395 H 0.05068 0.9119 0.3665 0.0
H396 H 0.15098 0.97588 0.27359 0.0
H397 H 0.09368 0.95612 0.30821 0.0
H398 H 0.19803 0.79552 0.36823 0.0
H399 H 0.14504 0.77737 0.40914 0.0
H400 H 0.19989 0.80067 0.28897 0.0
H401 H 0.21963 0.85672 0.25133 0.0
C402 C 0.23519 0.13528 0.62731 0.0
C403 C 0.23616 0.16805 0.66561 0.0
C404 C 0.2334 0.10269 0.72353 0.0
C405 C 0.23525 0.07134 0.68526 0.0
N406 N 0.22015 0.04786 0.60211 0.0
N407 N 0.21862 0.17534 0.74837 0.0
C408 C 0.23017 0.08438 0.63747 0.0
C409 C 0.22934 0.1491 0.71326 0.0
N410 N 0.24067 0.15361 0.58141 0.0
N411 N 0.2371 0.08889 0.76954 0.0
H412 H 0.21332 0.20786 0.74066 0.0
H413 H 0.20944 0.16182 0.78349 0.0
H414 H 0.2369 0.05337 0.77823 0.0
H415 H 0.24258 0.1135 0.79882 0.0
H416 H 0.24683 0.13474 0.55229 0.0
H417 H 0.24131 0.18934 0.57271 0.0
H418 H 0.21223 0.05295 0.56679 0.0
H419 H 0.21413 0.00972 0.60961 0.0
C420 C 0.12332 0.21234 0.03622 0.0
C421 C 0.16861 0.26401 0.04663 0.0
C422 C 0.1353 0.30497 0.99187 0.0
C423 C 0.08545 0.25683 0.98684 0.0
N424 N 0.03365 0.16089 1.00096 0.0
N425 N 0.19381 0.35776 0.05479 0.0
C426 C 0.07963 0.20899 1.00815 0.0
C427 C 0.16744 0.31003 0.03102 0.0
N428 N 0.12147 0.16713 0.05404 0.0
N429 N 0.15259 0.34577 0.95943 0.0
H430 H 0.21102 0.3609 0.08834 0.0
H431 H 0.19159 0.39143 0.04379 0.0
H432 H 0.13282 0.34103 0.92692 0.0
H433 H 0.1898 0.3811 0.96292 0.0
H434 H 0.09345 0.1282 0.04337 0.0
H435 H 0.14815 0.16888 0.08028 0.0
H436 H 0.02365 0.12613 0.02033 0.0
H437 H 0.00585 0.15555 0.97449 0.0
C438 C 0.92705 0.12541 0.35993 0.0
C439 C 0.92134 0.16945 0.37634 0.0
C440 C 0.83992 0.13679 0.33082 0.0
C441 C 0.83842 0.08802 0.31996 0.0
N442 N 0.88521 0.03737 0.32113 0.0
N443 N 0.85368 0.19282 0.39829 0.0
C444 C 0.88337 0.08237 0.33384 0.0
C445 C 0.87158 0.16713 0.36896 0.0
N446 N 0.97298 0.12404 0.36992 0.0
N447 N 0.81417 0.15637 0.30352 0.0
H448 H 0.87299 0.21044 0.4304 0.0
H449 H 0.81629 0.19016 0.39302 0.0
H450 H 0.79719 0.13962 0.27049 0.0
H451 H 0.81663 0.19322 0.31118 0.0
H452 H 0.98292 0.09736 0.35397 0.0
H453 H 1.00086 0.14934 0.3952 0.0
H454 H 0.91279 0.02743 0.3351 0.0
H455 H 0.85938 0.01025 0.29567 0.0
C456 C 0.77738 0.87187 0.65673 0.0
C457 C 0.72708 0.82439 0.6478 0.0
C458 C 0.68153 0.85902 0.69723 0.0
C459 C 0.72997 0.90855 0.7034 0.0
N460 N 0.82707 0.95401 0.70335 0.0
N461 N 0.63142 0.79124 0.639 0.0
C462 C 0.7791 0.91309 0.68688 0.0
C463 C 0.67905 0.82321 0.66183 0.0
N464 N 0.82244 0.87952 0.63311 0.0
N465 N 0.63861 0.84411 0.72699 0.0
H466 H 0.62925 0.77113 0.60731 0.0
H467 H 0.59625 0.79199 0.64735 0.0
H468 H 0.64138 0.86551 0.75802 0.0
H469 H 0.60362 0.80652 0.72451 0.0
H470 H 0.85959 0.91487 0.63483 0.0
H471 H 0.82095 0.8532 0.60666 0.0
H472 H 0.86432 0.95764 0.69571 0.0
H473 H 0.82917 0.98025 0.73012 0.0
C474 C 0.83526 0.69606 0.02727 0.0
C475 C 0.83313 0.74384 0.03334 0.0
C476 C 0.91946 0.79195 0.98946 0.0
C477 C 0.91482 0.74123 0.97818 0.0
N478 N 0.84883 0.64719 0.96525 0.0
N479 N 0.87874 0.84068 0.0255 0.0
C480 C 0.8667 0.69381 0.9903 0.0
C481 C 0.87695 0.79314 0.01586 0.0
N482 N 0.80918 0.65329 0.05746 0.0
N483 N 0.96322 0.83837 0.97384 0.0
H484 H 0.85465 0.84399 0.05166 0.0
H485 H 0.90502 0.87705 0.00896 0.0
H486 H 0.98925 0.83849 0.94773 0.0
H487 H 0.97305 0.87666 0.98553 0.0
H488 H 0.812 0.61852 0.05366 0.0
H489 H 0.79164 0.65591 0.08929 0.0
H490 H 0.8123 0.61259 0.97338 0.0
H491 H 0.86634 0.64578 0.93298 0.0
C492 C 0.25326 0.9574 0.47132 0.0
C493 C 0.30193 0.97605 0.44504 0.0
C494 C 0.35339 0.99976 0.52014 0.0
C495 C 0.30526 0.98464 0.54616 0.0
N496 N 0.20828 0.93348 0.54852 0.0
N497 N 0.39817 0.0131 0.44334 0.0
C498 C 0.25473 0.95877 0.52236 0.0
C499 C 0.35202 0.99669 0.46924 0.0
N500 N 0.20586 0.94034 0.44724 0.0
N501 N 0.39969 0.01352 0.54488 0.0
H502 H 0.39792 0.00745 0.40658 0.0
H503 H 0.43692 0.03379 0.45743 0.0
H504 H 0.40003 0.01082 0.58199 0.0
H505 H 0.43631 0.02262 0.52945 0.0
H506 H 0.16968 0.93143 0.46359 0.0
H507 H 0.20345 0.93903 0.41005 0.0
H508 H 0.17013 0.90998 0.53376 0.0
H509 H 0.20823 0.9311 0.58563 0.0
C510 C 0.34659 0.36338 0.88318 0.0
C511 C 0.29811 0.32735 0.90729 0.0
C512 C 0.25257 0.29607 0.82969 0.0
C513 C 0.30313 0.32417 0.80616 0.0
N514 N 0.39814 0.38825 0.80957 0.0
N515 N 0.20457 0.25803 0.90404 0.0
C516 C 0.35012 0.35892 0.8328 0.0
C517 C 0.25086 0.29342 0.88064 0.0
N518 N 0.38825 0.40372 0.90811 0.0
N519 N 0.20622 0.27391 0.80348 0.0
H520 H 0.20186 0.25542 0.94122 0.0
H521 H 0.17028 0.2285 0.88674 0.0
H522 H 0.2065 0.27894 0.76658 0.0
H523 H 0.16785 0.2564 0.81853 0.0
H524 H 0.42285 0.43452 0.89222 0.0
H525 H 0.38609 0.40933 0.94465 0.0
H526 H 0.4353 0.40848 0.8268 0.0
H527 H 0.40046 0.39129 0.77246 0.0
C528 C 0.99982 0.25827 0.20354 0.0
C529 C 1.00027 0.30106 0.22955 0.0
C530 C 0.99795 0.3436 0.15406 0.0
C531 C 0.0032 0.30413 0.12794 0.0
N532 N 0.01552 0.22691 0.12765 0.0
N533 N 0.01228 0.39034 0.22948 0.0
C534 C 0.00598 0.26223 0.15268 0.0
C535 C 0.00305 0.3455 0.20469 0.0
N536 N 0.99238 0.21341 0.22733 0.0
N537 N 0.9867 0.37852 0.13047 0.0
H538 H 0.0194 0.39395 0.26619 0.0
H539 H 0.0191 0.42587 0.21315 0.0
H540 H 0.97978 0.37593 0.09375 0.0
H541 H 0.97807 0.40552 0.14776 0.0
H542 H 0.9857 0.17835 0.2102 0.0
H543 H 0.9898 0.21024 0.26451 0.0
H544 H 0.02408 0.1993 0.14379 0.0
H545 H 0.01774 0.2273 0.09042 0.0
C546 C 0.74465 0.01943 0.48999 0.0
C547 C 0.69877 0.00296 0.46014 0.0
C548 C 0.64116 0.97996 0.53155 0.0
C549 C 0.6863 0.99271 0.56131 0.0
N550 N 0.77937 0.01599 0.56839 0.0
N551 N 0.60219 0.95996 0.452 0.0
C552 C 0.73772 0.01032 0.54041 0.0
C553 C 0.64665 0.98064 0.48083 0.0
N554 N 0.79505 0.04431 0.4701 0.0
N555 N 0.59343 0.96957 0.55186 0.0
H556 H 0.60451 0.9608 0.41482 0.0
H557 H 0.56282 0.93789 0.46472 0.0
H558 H 0.58791 0.96945 0.58869 0.0
H559 H 0.56081 0.96603 0.53243 0.0
H560 H 0.83043 0.06336 0.49007 0.0
H561 H 0.80156 0.04843 0.43327 0.0
H562 H 0.81609 0.02276 0.55478 0.0
H563 H 0.77588 0.0098 0.60525 0.0
C564 C 0.67409 0.64046 0.86273 0.0
C565 C 0.69993 0.68813 0.89117 0.0
C566 C 0.71673 0.74286 0.81833 0.0
C567 C 0.69346 0.69529 0.78988 0.0
N568 N 0.65604 0.59918 0.78421 0.0
N569 N 0.7545 0.78485 0.89493 0.0
C570 C 0.67435 0.64431 0.8119 0.0
C571 C 0.72339 0.73943 0.86867 0.0
N572 N 0.64673 0.59115 0.88442 0.0
N573 N 0.73232 0.7915 0.79715 0.0
H574 H 0.76086 0.78397 0.93151 0.0
H575 H 0.77765 0.82299 0.88002 0.0
H576 H 0.73214 0.79632 0.76022 0.0
H577 H 0.74291 0.82662 0.81617 0.0
H578 H 0.62103 0.55558 0.86647 0.0
H579 H 0.64595 0.5858 0.9212 0.0
H580 H 0.64838 0.56199 0.79727 0.0
H581 H 0.65193 0.5994 0.74729 0.0
C582 C 0.01979 0.74185 0.19734 0.0
C583 C 0.00621 0.69435 0.22389 0.0
C584 C 0.98927 0.64381 0.14868 0.0
C585 C 0.99858 0.69013 0.12229 0.0
N586 N 0.01566 0.78135 0.12159 0.0
N587 N 0.9721 0.59868 0.22554 0.0
C588 C 0.01214 0.73877 0.14665 0.0
C589 C 0.98895 0.64486 0.19967 0.0
N590 N 0.04096 0.79016 0.22058 0.0
N591 N 0.98285 0.59934 0.12477 0.0
H592 H 0.97287 0.59825 0.26276 0.0
H593 H 0.95349 0.56033 0.21053 0.0
H594 H 0.98363 0.59736 0.08759 0.0
H595 H 0.98164 0.5663 0.14146 0.0
H596 H 0.05781 0.82715 0.2031 0.0
H597 H 0.04441 0.79351 0.2577 0.0
H598 H 0.01931 0.81578 0.13764 0.0
H599 H 0.01132 0.7808 0.08456 0.0
loop_
_geom_bond_atom_site_label_1
_geom_bond_atom_site_label_2
_geom_bond_distance
_geom_bond_site_symmetry_2
_ccdc_geom_bond_type
Co0 O1 2.216 . S
Co0 O2 2.091 . S
Co0 O4 2.004 . S
Co0 O10 2.021 . S
Co0 O12 2.137 1_545 S
Co0 O13 2.244 1_545 S
O1 Co0 2.216 . S
O1 C8 1.247 . S
O2 Co0 2.091 . S
O2 C8 1.261 . S
C3 O12 1.247 . S
C3 O13 1.272 . S
O4 Co0 2.004 . S
O4 C9 1.259 . S
Co5 O6 2.061 . S
Co5 O11 2.052 . S
Co5 O13 2.135 . S
O6 Co5 2.061 . S
O6 C9 1.235 1_565 S
C7 O10 1.238 . S
C7 O11 1.241 1_545 S
C8 O1 1.247 . S
C8 O2 1.261 . S
C9 O4 1.259 . S
C9 O6 1.235 1_545 S
O10 Co0 2.021 . S
O10 C7 1.238 . S
O11 Co5 2.052 . S
O11 C7 1.241 1_565 S
O12 Co0 2.137 1_565 S
O12 C3 1.247 . S
O13 Co0 2.244 1_565 S
O13 C3 1.272 . S
O13 Co5 2.135 . S
Co14 O15 2.216 . S
Co14 O16 2.091 . S
Co14 O18 2.004 . S
Co14 O24 2.021 . S
Co14 O26 2.137 . S
Co14 O27 2.244 . S
O15 Co14 2.216 . S
O15 C22 1.247 . S
O16 Co14 2.091 . S
O16 C22 1.261 . S
C17 O26 1.247 . S
C17 O27 1.272 . S
O18 Co14 2.004 . S
O18 C23 1.259 . S
Co19 O20 2.061 . S
Co19 O25 2.052 . S
Co19 O27 2.135 . S
O20 Co19 2.061 . S
O20 C23 1.235 . S
C21 O24 1.238 . S
C21 O25 1.241 . S
C22 O15 1.247 . S
C22 O16 1.261 . S
C23 O18 1.259 . S
C23 O20 1.235 . S
O24 Co14 2.021 . S
O24 C21 1.238 . S
O25 Co19 2.052 . S
O25 C21 1.241 . S
O26 Co14 2.137 . S
O26 C17 1.247 . S
O27 Co14 2.244 . S
O27 C17 1.272 . S
O27 Co19 2.135 . S
Co28 O29 2.216 . S
Co28 O30 2.091 . S
Co28 O32 2.004 1_556 S
Co28 O38 2.021 . S
Co28 O40 2.137 1_655 S
Co28 O41 2.244 1_655 S
O29 Co28 2.216 . S
O29 C36 1.247 . S
O30 Co28 2.091 . S
O30 C36 1.261 . S
C31 O40 1.247 . S
C31 O41 1.272 . S
O32 Co28 2.004 1_554 S
O32 C37 1.259 . S
Co33 O34 2.061 . S
Co33 O39 2.052 1_554 S
Co33 O41 2.135 1_554 S
O34 Co33 2.061 . S
O34 C37 1.235 1_455 S
C35 O38 1.238 . S
C35 O39 1.241 1_655 S
C36 O29 1.247 . S
C36 O30 1.261 . S
C37 O32 1.259 . S
C37 O34 1.235 1_655 S
O38 Co28 2.021 . S
O38 C35 1.238 . S
O39 Co33 2.052 1_556 S
O39 C35 1.241 1_455 S
O40 Co28 2.137 1_455 S
O40 C31 1.247 . S
O41 Co28 2.244 1_455 S
O41 C31 1.272 . S
O41 Co33 2.135 1_556 S
Co42 O43 2.216 . S
Co42 O44 2.091 . S
Co42 O46 2.004 . S
Co42 O52 2.021 . S
Co42 O54 2.137 1_565 S
Co42 O55 2.244 1_565 S
O43 Co42 2.216 . S
O43 C50 1.247 . S
O44 Co42 2.091 . S
O44 C50 1.261 . S
C45 O54 1.247 . S
C45 O55 1.272 . S
O46 Co42 2.004 . S
O46 C51 1.259 . S
Co47 O48 2.061 . S
Co47 O53 2.052 . S
Co47 O55 2.135 . S
O48 Co47 2.061 . S
O48 C51 1.235 1_545 S
C49 O52 1.238 . S
C49 O53 1.241 1_565 S
C50 O43 1.247 . S
C50 O44 1.261 . S
C51 O46 1.259 . S
C51 O48 1.235 1_565 S
O52 Co42 2.021 . S
O52 C49 1.238 . S
O53 Co47 2.052 . S
O53 C49 1.241 1_545 S
O54 Co42 2.137 1_545 S
O54 C45 1.247 . S
O55 Co42 2.244 1_545 S
O55 C45 1.272 . S
O55 Co47 2.135 . S
Co56 O57 2.216 . S
Co56 O58 2.091 . S
Co56 O60 2.004 . S
Co56 O66 2.021 . S
Co56 O68 2.137 . S
Co56 O69 2.244 . S
O57 Co56 2.216 . S
O57 C64 1.247 . S
O58 Co56 2.091 . S
O58 C64 1.261 . S
C59 O68 1.247 . S
C59 O69 1.272 . S
O60 Co56 2.004 . S
O60 C65 1.259 . S
Co61 O62 2.061 . S
Co61 O67 2.052 . S
Co61 O69 2.135 . S
O62 Co61 2.061 . S
O62 C65 1.235 . S
C63 O66 1.238 . S
C63 O67 1.241 . S
C64 O57 1.247 . S
C64 O58 1.261 . S
C65 O60 1.259 . S
C65 O62 1.235 . S
O66 Co56 2.021 . S
O66 C63 1.238 . S
O67 Co61 2.052 . S
O67 C63 1.241 . S
O68 Co56 2.137 . S
O68 C59 1.247 . S
O69 Co56 2.244 . S
O69 C59 1.272 . S
O69 Co61 2.135 . S
Co70 O71 2.216 . S
Co70 O72 2.091 . S
Co70 O74 2.004 1_556 S
Co70 O80 2.021 . S
Co70 O82 2.137 1_455 S
Co70 O83 2.244 1_455 S
O71 Co70 2.216 . S
O71 C78 1.247 . S
O72 Co70 2.091 . S
O72 C78 1.261 . S
C73 O82 1.247 . S
C73 O83 1.272 . S
O74 Co70 2.004 1_554 S
O74 C79 1.259 . S
Co75 O76 2.061 . S
Co75 O81 2.052 1_554 S
Co75 O83 2.135 1_554 S
O76 Co75 2.061 . S
O76 C79 1.235 1_655 S
C77 O80 1.238 . S
C77 O81 1.241 1_455 S
C78 O71 1.247 . S
C78 O72 1.261 . S
C79 O74 1.259 . S
C79 O76 1.235 1_455 S
O80 Co70 2.021 . S
O80 C77 1.238 . S
O81 Co75 2.052 1_556 S
O81 C77 1.241 1_655 S
O82 Co70 2.137 1_655 S
O82 C73 1.247 . S
O83 Co70 2.244 1_655 S
O83 C73 1.272 . S
O83 Co75 2.135 1_556 S
Co84 O85 2.216 . S
Co84 O86 2.091 . S
Co84 O88 2.004 . S
Co84 O94 2.021 . S
Co84 O96 2.137 1_655 S
Co84 O97 2.244 1_655 S
O85 Co84 2.216 . S
O85 C92 1.247 . S
O86 Co84 2.091 . S
O86 C92 1.261 . S
C87 O96 1.247 . S
C87 O97 1.272 . S
O88 Co84 2.004 . S
O88 C93 1.259 . S
Co89 O90 2.061 . S
Co89 O95 2.052 . S
Co89 O97 2.135 . S
O90 Co89 2.061 . S
O90 C93 1.235 1_455 S
C91 O94 1.238 . S
C91 O95 1.241 1_655 S
C92 O85 1.247 . S
C92 O86 1.261 . S
C93 O88 1.259 . S
C93 O90 1.235 1_655 S
O94 Co84 2.021 . S
O94 C91 1.238 . S
O95 Co89 2.052 . S
O95 C91 1.241 1_455 S
O96 Co84 2.137 1_455 S
O96 C87 1.247 . S
O97 Co84 2.244 1_455 S
O97 C87 1.272 . S
O97 Co89 2.135 . S
Co98 O99 2.216 . S
Co98 O100 2.091 . S
Co98 O102 2.004 . S
Co98 O108 2.021 . S
Co98 O110 2.137 1_565 S
Co98 O111 2.244 1_565 S
O99 Co98 2.216 . S
O99 C106 1.247 . S
O100 Co98 2.091 . S
O100 C106 1.261 . S
C101 O110 1.247 . S
C101 O111 1.272 . S
O102 Co98 2.004 . S
O102 C107 1.259 . S
Co103 O104 2.061 . S
Co103 O109 2.052 . S
Co103 O111 2.135 . S
O104 Co103 2.061 . S
O104 C107 1.235 1_545 S
C105 O108 1.238 . S
C105 O109 1.241 1_565 S
C106 O99 1.247 . S
C106 O100 1.261 . S
C107 O102 1.259 . S
C107 O104 1.235 1_565 S
O108 Co98 2.021 . S
O108 C105 1.238 . S
O109 Co103 2.052 . S
O109 C105 1.241 1_545 S
O110 Co98 2.137 1_545 S
O110 C101 1.247 . S
O111 Co98 2.244 1_545 S
O111 C101 1.272 . S
O111 Co103 2.135 . S
Co112 O113 2.216 . S
Co112 O114 2.091 . S
Co112 O116 2.004 1_554 S
Co112 O122 2.021 . S
Co112 O124 2.137 . S
Co112 O125 2.244 . S
O113 Co112 2.216 . S
O113 C120 1.247 . S
O114 Co112 2.091 . S
O114 C120 1.261 . S
C115 O124 1.247 . S
C115 O125 1.272 . S
O116 Co112 2.004 1_556 S
O116 C121 1.259 . S
Co117 O118 2.061 . S
Co117 O123 2.052 1_556 S
Co117 O125 2.135 1_556 S
O118 Co117 2.061 . S
O118 C121 1.235 . S
C119 O122 1.238 . S
C119 O123 1.241 . S
C120 O113 1.247 . S
C120 O114 1.261 . S
C121 O116 1.259 . S
C121 O118 1.235 . S
O122 Co112 2.021 . S
O122 C119 1.238 . S
O123 Co117 2.052 1_554 S
O123 C119 1.241 . S
O124 Co112 2.137 . S
O124 C115 1.247 . S
O125 Co112 2.244 . S
O125 C115 1.272 . S
O125 Co117 2.135 1_554 S
Co126 O127 2.216 . S
Co126 O128 2.091 . S
Co126 O130 2.004 . S
Co126 O136 2.021 . S
Co126 O138 2.137 1_455 S
Co126 O139 2.244 1_455 S
O127 Co126 2.216 . S
O127 C134 1.247 . S
O128 Co126 2.091 . S
O128 C134 1.261 . S
C129 O138 1.247 . S
C129 O139 1.272 . S
O130 Co126 2.004 . S
O130 C135 1.259 . S
Co131 O132 2.061 . S
Co131 O137 2.052 . S
Co131 O139 2.135 . S
O132 Co131 2.061 . S
O132 C135 1.235 1_655 S
C133 O136 1.238 . S
C133 O137 1.241 1_455 S
C134 O127 1.247 . S
C134 O128 1.261 . S
C135 O130 1.259 . S
C135 O132 1.235 1_455 S
O136 Co126 2.021 . S
O136 C133 1.238 . S
O137 Co131 2.052 . S
O137 C133 1.241 1_655 S
O138 Co126 2.137 1_655 S
O138 C129 1.247 . S
O139 Co126 2.244 1_655 S
O139 C129 1.272 . S
O139 Co131 2.135 . S
Co140 O141 2.216 . S
Co140 O142 2.091 . S
Co140 O144 2.004 . S
Co140 O150 2.021 . S
Co140 O152 2.137 1_545 S
Co140 O153 2.244 1_545 S
O141 Co140 2.216 . S
O141 C148 1.247 . S
O142 Co140 2.091 . S
O142 C148 1.261 . S
C143 O152 1.247 . S
C143 O153 1.272 . S
O144 Co140 2.004 . S
O144 C149 1.259 . S
Co145 O146 2.061 . S
Co145 O151 2.052 . S
Co145 O153 2.135 . S
O146 Co145 2.061 . S
O146 C149 1.235 1_565 S
C147 O150 1.238 . S
C147 O151 1.241 1_545 S
C148 O141 1.247 . S
C148 O142 1.261 . S
C149 O144 1.259 . S
C149 O146 1.235 1_545 S
O150 Co140 2.021 . S
O150 C147 1.238 . S
O151 Co145 2.052 . S
O151 C147 1.241 1_565 S
O152 Co140 2.137 1_565 S
O152 C143 1.247 . S
O153 Co140 2.244 1_565 S
O153 C143 1.272 . S
O153 Co145 2.135 . S
Co154 O155 2.216 . S
Co154 O156 2.091 . S
Co154 O158 2.004 1_554 S
Co154 O164 2.021 . S
Co154 O166 2.137 . S
Co154 O167 2.244 . S
O155 Co154 2.216 . S
O155 C162 1.247 . S
O156 Co154 2.091 . S
O156 C162 1.261 . S
C157 O166 1.247 . S
C157 O167 1.272 . S
O158 Co154 2.004 1_556 S
O158 C163 1.259 . S
Co159 O160 2.061 . S
Co159 O165 2.052 1_556 S
Co159 O167 2.135 1_556 S
O160 Co159 2.061 . S
O160 C163 1.235 . S
C161 O164 1.238 . S
C161 O165 1.241 . S
C162 O155 1.247 . S
C162 O156 1.261 . S
C163 O158 1.259 . S
C163 O160 1.235 . S
O164 Co154 2.021 . S
O164 C161 1.238 . S
O165 Co159 2.052 1_554 S
O165 C161 1.241 . S
O166 Co154 2.137 . S
O166 C157 1.247 . S
O167 Co154 2.244 . S
O167 C157 1.272 . S
O167 Co159 2.135 1_554 S
C168 C169 1.363 . S
C168 C174 1.379 . S
C168 N176 1.356 . S
C169 C168 1.363 . S
C169 C175 1.363 . S
C170 C171 1.363 . S
C170 C175 1.379 . S
C170 N177 1.356 . S
C171 C170 1.363 . S
C171 C174 1.363 . S
N172 C174 1.356 . S
N172 H184 0.984 . S
N172 H185 0.985 . S
N173 C175 1.356 . S
N173 H178 0.984 . S
N173 H179 0.985 . S
C174 C168 1.379 . S
C174 C171 1.363 . S
C174 N172 1.356 . S
C175 C169 1.363 . S
C175 C170 1.379 . S
C175 N173 1.356 . S
N176 C168 1.356 . S
N176 H182 0.984 . S
N176 H183 0.984 . S
N177 C170 1.356 . S
N177 H180 0.984 . S
N177 H181 0.985 . S
H178 N173 0.984 . S
H179 N173 0.985 . S
H180 N177 0.984 . S
H181 N177 0.985 . S
H182 N176 0.984 . S
H183 N176 0.984 . S
H184 N172 0.984 . S
H185 N172 0.985 . S
C186 C187 1.363 . S
C186 C192 1.379 . S
C186 N194 1.356 . S
C187 C186 1.363 . S
C187 C193 1.363 . S
C188 C189 1.363 . S
C188 C193 1.379 . S
C188 N195 1.356 . S
C189 C188 1.363 . S
C189 C192 1.363 . S
N190 C192 1.356 . S
N190 H202 0.984 . S
N190 H203 0.985 . S
N191 C193 1.356 . S
N191 H196 0.984 . S
N191 H197 0.985 . S
C192 C186 1.379 . S
C192 C189 1.363 . S
C192 N190 1.356 . S
C193 C187 1.363 . S
C193 C188 1.379 . S
C193 N191 1.356 . S
N194 C186 1.356 . S
N194 H200 0.984 . S
N194 H201 0.984 . S
N195 C188 1.356 . S
N195 H198 0.984 . S
N195 H199 0.985 . S
H196 N191 0.984 . S
H197 N191 0.985 . S
H198 N195 0.984 . S
H199 N195 0.985 . S
H200 N194 0.984 . S
H201 N194 0.984 . S
H202 N190 0.984 . S
H203 N190 0.985 . S
C204 C205 1.363 . S
C204 C210 1.379 . S
C204 N212 1.356 . S
C205 C204 1.363 . S
C205 C211 1.363 . S
C206 C207 1.363 . S
C206 C211 1.379 . S
C206 N213 1.356 . S
C207 C206 1.363 . S
C207 C210 1.363 . S
N208 C210 1.356 . S
N208 H220 0.984 . S
N208 H221 0.985 . S
N209 C211 1.356 . S
N209 H214 0.984 . S
N209 H215 0.985 . S
C210 C204 1.379 . S
C210 C207 1.363 . S
C210 N208 1.356 . S
C211 C205 1.363 . S
C211 C206 1.379 . S
C211 N209 1.356 . S
N212 C204 1.356 . S
N212 H218 0.984 . S
N212 H219 0.984 . S
N213 C206 1.356 . S
N213 H216 0.984 . S
N213 H217 0.985 . S
H214 N209 0.984 . S
H215 N209 0.985 . S
H216 N213 0.984 . S
H217 N213 0.985 . S
H218 N212 0.984 . S
H219 N212 0.984 . S
H220 N208 0.984 . S
H221 N208 0.985 . S
C222 C223 1.363 . S
C222 C228 1.379 . S
C222 N230 1.356 . S
C223 C222 1.363 . S
C223 C229 1.363 . S
C224 C225 1.363 . S
C224 C229 1.379 . S
C224 N231 1.356 . S
C225 C224 1.363 . S
C225 C228 1.363 . S
N226 C228 1.356 . S
N226 H238 0.984 . S
N226 H239 0.985 . S
N227 C229 1.356 . S
N227 H232 0.984 . S
N227 H233 0.985 . S
C228 C222 1.379 . S
C228 C225 1.363 . S
C228 N226 1.356 . S
C229 C223 1.363 . S
C229 C224 1.379 . S
C229 N227 1.356 . S
N230 C222 1.356 . S
N230 H236 0.984 . S
N230 H237 0.984 . S
N231 C224 1.356 . S
N231 H234 0.984 . S
N231 H235 0.985 . S
H232 N227 0.984 . S
H233 N227 0.985 . S
H234 N231 0.984 . S
H235 N231 0.985 . S
H236 N230 0.984 . S
H237 N230 0.984 . S
H238 N226 0.984 . S
H239 N226 0.985 . S
C240 C241 1.363 . S
C240 C246 1.379 . S
C240 N248 1.356 . S
C241 C240 1.363 . S
C241 C247 1.363 . S
C242 C243 1.363 . S
C242 C247 1.379 . S
C242 N249 1.356 . S
C243 C242 1.363 . S
C243 C246 1.363 . S
N244 C246 1.356 . S
N244 H256 0.984 . S
N244 H257 0.985 . S
N245 C247 1.356 . S
N245 H250 0.984 . S
N245 H251 0.985 . S
C246 C240 1.379 . S
C246 C243 1.363 . S
C246 N244 1.356 . S
C247 C241 1.363 . S
C247 C242 1.379 . S
C247 N245 1.356 . S
N248 C240 1.356 . S
N248 H254 0.984 . S
N248 H255 0.984 . S
N249 C242 1.356 . S
N249 H252 0.984 . S
N249 H253 0.985 . S
H250 N245 0.984 . S
H251 N245 0.985 . S
H252 N249 0.984 . S
H253 N249 0.985 . S
H254 N248 0.984 . S
H255 N248 0.984 . S
H256 N244 0.984 . S
H257 N244 0.985 . S
C258 C259 1.363 . S
C258 C264 1.379 . S
C258 N266 1.356 . S
C259 C258 1.363 . S
C259 C265 1.363 . S
C260 C261 1.363 . S
C260 C265 1.379 . S
C260 N267 1.356 . S
C261 C260 1.363 . S
C261 C264 1.363 . S
N262 C264 1.356 . S
N262 H274 0.984 . S
N262 H275 0.985 . S
N263 C265 1.356 . S
N263 H268 0.984 . S
N263 H269 0.985 . S
C264 C258 1.379 . S
C264 C261 1.363 . S
C264 N262 1.356 . S
C265 C259 1.363 . S
C265 C260 1.379 . S
C265 N263 1.356 . S
N266 C258 1.356 . S
N266 H272 0.984 . S
N266 H273 0.984 . S
N267 C260 1.356 . S
N267 H270 0.984 . S
N267 H271 0.985 . S
H268 N263 0.984 . S
H269 N263 0.985 . S
H270 N267 0.984 . S
H271 N267 0.985 . S
H272 N266 0.984 . S
H273 N266 0.984 . S
H274 N262 0.984 . S
H275 N262 0.985 . S
C276 C277 1.363 1_565 S
C276 C282 1.379 . S
C276 N284 1.356 . S
C277 C276 1.363 1_545 S
C277 C283 1.363 . S
C278 C279 1.363 1_545 S
C278 C283 1.379 . S
C278 N285 1.356 . S
C279 C278 1.363 1_565 S
C279 C282 1.363 . S
N280 C282 1.356 . S
N280 H292 0.984 . S
N280 H293 0.985 . S
N281 C283 1.356 . S
N281 H286 0.984 . S
N281 H287 0.985 . S
C282 C276 1.379 . S
C282 C279 1.363 . S
C282 N280 1.356 . S
C283 C277 1.363 . S
C283 C278 1.379 . S
C283 N281 1.356 . S
N284 C276 1.356 . S
N284 H290 0.984 . S
N284 H291 0.984 . S
N285 C278 1.356 . S
N285 H288 0.984 . S
N285 H289 0.985 . S
H286 N281 0.984 . S
H287 N281 0.985 . S
H288 N285 0.984 . S
H289 N285 0.985 . S
H290 N284 0.984 . S
H291 N284 0.984 . S
H292 N280 0.984 . S
H293 N280 0.985 . S
C294 C295 1.363 . S
C294 C300 1.379 . S
C294 N302 1.356 . S
C295 C294 1.363 . S
C295 C301 1.363 . S
C296 C297 1.363 . S
C296 C301 1.379 . S
C296 N303 1.356 . S
C297 C296 1.363 . S
C297 C300 1.363 . S
N298 C300 1.356 . S
N298 H310 0.984 . S
N298 H311 0.985 . S
N299 C301 1.356 . S
N299 H304 0.984 . S
N299 H305 0.985 . S
C300 C294 1.379 . S
C300 C297 1.363 . S
C300 N298 1.356 . S
C301 C295 1.363 . S
C301 C296 1.379 . S
C301 N299 1.356 . S
N302 C294 1.356 . S
N302 H308 0.984 . S
N302 H309 0.984 . S
N303 C296 1.356 . S
N303 H306 0.984 . S
N303 H307 0.985 . S
H304 N299 0.984 . S
H305 N299 0.985 . S
H306 N303 0.984 . S
H307 N303 0.985 . S
H308 N302 0.984 . S
H309 N302 0.984 . S
H310 N298 0.984 . S
H311 N298 0.985 . S
C312 C313 1.363 1_655 S
C312 C318 1.379 . S
C312 N320 1.356 . S
C313 C312 1.363 1_455 S
C313 C319 1.363 . S
C314 C315 1.363 1_455 S
C314 C319 1.379 . S
C314 N321 1.356 1_556 S
C315 C314 1.363 1_655 S
C315 C318 1.363 . S
N316 C318 1.356 . S
N316 H328 0.984 . S
N316 H329 0.985 . S
N317 C319 1.356 1_554 S
N317 H322 0.984 . S
N317 H323 0.985 . S
C318 C312 1.379 . S
C318 C315 1.363 . S
C318 N316 1.356 . S
C319 C313 1.363 . S
C319 C314 1.379 . S
C319 N317 1.356 1_556 S
N320 C312 1.356 . S
N320 H326 0.984 . S
N320 H327 0.984 . S
N321 C314 1.356 1_554 S
N321 H324 0.984 . S
N321 H325 0.985 . S
H322 N317 0.984 . S
H323 N317 0.985 . S
H324 N321 0.984 . S
H325 N321 0.985 . S
H326 N320 0.984 . S
H327 N320 0.984 . S
H328 N316 0.984 . S
H329 N316 0.985 . S
C330 C331 1.363 . S
C330 C336 1.379 . S
C330 N338 1.356 . S
C331 C330 1.363 . S
C331 C337 1.363 1_655 S
C332 C333 1.363 . S
C332 C337 1.379 . S
C332 N339 1.356 . S
C333 C332 1.363 . S
C333 C336 1.363 1_455 S
N334 C336 1.356 . S
N334 H346 0.984 . S
N334 H347 0.985 . S
N335 C337 1.356 . S
N335 H340 0.984 . S
N335 H341 0.985 . S
C336 C330 1.379 . S
C336 C333 1.363 1_655 S
C336 N334 1.356 . S
C337 C331 1.363 1_455 S
C337 C332 1.379 . S
C337 N335 1.356 . S
N338 C330 1.356 . S
N338 H344 0.984 . S
N338 H345 0.984 . S
N339 C332 1.356 . S
N339 H342 0.984 . S
N339 H343 0.985 . S
H340 N335 0.984 . S
H341 N335 0.985 . S
H342 N339 0.984 . S
H343 N339 0.985 . S
H344 N338 0.984 . S
H345 N338 0.984 . S
H346 N334 0.984 . S
H347 N334 0.985 . S
C348 C349 1.363 1_565 S
C348 C354 1.379 . S
C348 N356 1.356 . S
C349 C348 1.363 1_545 S
C349 C355 1.363 . S
C350 C351 1.363 1_545 S
C350 C355 1.379 . S
C350 N357 1.356 . S
C351 C350 1.363 1_565 S
C351 C354 1.363 . S
N352 C354 1.356 . S
N352 H364 0.984 . S
N352 H365 0.985 . S
N353 C355 1.356 . S
N353 H358 0.984 . S
N353 H359 0.985 . S
C354 C348 1.379 . S
C354 C351 1.363 . S
C354 N352 1.356 . S
C355 C349 1.363 . S
C355 C350 1.379 . S
C355 N353 1.356 . S
N356 C348 1.356 . S
N356 H362 0.984 . S
N356 H363 0.984 . S
N357 C350 1.356 . S
N357 H360 0.984 . S
N357 H361 0.985 . S
H358 N353 0.984 . S
H359 N353 0.985 . S
H360 N357 0.984 . S
H361 N357 0.985 . S
H362 N356 0.984 . S
H363 N356 0.984 . S
H364 N352 0.984 . S
H365 N352 0.985 . S
C366 C367 1.363 . S
C366 C372 1.379 . S
C366 N374 1.356 1_554 S
C367 C366 1.363 . S
C367 C373 1.363 . S
C368 C369 1.363 . S
C368 C373 1.379 . S
C368 N375 1.356 . S
C369 C368 1.363 . S
C369 C372 1.363 . S
N370 C372 1.356 1_556 S
N370 H382 0.984 . S
N370 H383 0.985 . S
N371 C373 1.356 . S
N371 H376 0.984 . S
N371 H377 0.985 . S
C372 C366 1.379 . S
C372 C369 1.363 . S
C372 N370 1.356 1_554 S
C373 C367 1.363 . S
C373 C368 1.379 . S
C373 N371 1.356 . S
N374 C366 1.356 1_556 S
N374 H380 0.984 . S
N374 H381 0.984 . S
N375 C368 1.356 . S
N375 H378 0.984 . S
N375 H379 0.985 . S
H376 N371 0.984 . S
H377 N371 0.985 . S
H378 N375 0.984 . S
H379 N375 0.985 . S
H380 N374 0.984 . S
H381 N374 0.984 . S
H382 N370 0.984 . S
H383 N370 0.985 . S
C384 C385 1.363 . S
C384 C390 1.379 . S
C384 N392 1.356 . S
C385 C384 1.363 . S
C385 C391 1.363 . S
C386 C387 1.363 . S
C386 C391 1.379 . S
C386 N393 1.356 . S
C387 C386 1.363 . S
C387 C390 1.363 . S
N388 C390 1.356 . S
N388 H400 0.984 . S
N388 H401 0.985 . S
N389 C391 1.356 . S
N389 H394 0.984 . S
N389 H395 0.985 . S
C390 C384 1.379 . S
C390 C387 1.363 . S
C390 N388 1.356 . S
C391 C385 1.363 . S
C391 C386 1.379 . S
C391 N389 1.356 . S
N392 C384 1.356 . S
N392 H398 0.984 . S
N392 H399 0.984 . S
N393 C386 1.356 . S
N393 H396 0.984 . S
N393 H397 0.985 . S
H394 N389 0.984 . S
H395 N389 0.985 . S
H396 N393 0.984 . S
H397 N393 0.985 . S
H398 N392 0.984 . S
H399 N392 0.984 . S
H400 N388 0.984 . S
H401 N388 0.985 . S
C402 C403 1.363 . S
C402 C408 1.379 . S
C402 N410 1.356 . S
C403 C402 1.363 . S
C403 C409 1.363 . S
C404 C405 1.363 . S
C404 C409 1.379 . S
C404 N411 1.356 . S
C405 C404 1.363 . S
C405 C408 1.363 . S
N406 C408 1.356 . S
N406 H418 0.984 . S
N406 H419 0.985 . S
N407 C409 1.356 . S
N407 H412 0.984 . S
N407 H413 0.985 . S
C408 C402 1.379 . S
C408 C405 1.363 . S
C408 N406 1.356 . S
C409 C403 1.363 . S
C409 C404 1.379 . S
C409 N407 1.356 . S
N410 C402 1.356 . S
N410 H416 0.984 . S
N410 H417 0.984 . S
N411 C404 1.356 . S
N411 H414 0.984 . S
N411 H415 0.985 . S
H412 N407 0.984 . S
H413 N407 0.985 . S
H414 N411 0.984 . S
H415 N411 0.985 . S
H416 N410 0.984 . S
H417 N410 0.984 . S
H418 N406 0.984 . S
H419 N406 0.985 . S
C420 C421 1.363 1_556 S
C420 C426 1.379 . S
C420 N428 1.356 . S
C421 C420 1.363 1_554 S
C421 C427 1.363 . S
C422 C423 1.363 1_554 S
C422 C427 1.379 . S
C422 N429 1.356 . S
C423 C422 1.363 1_556 S
C423 C426 1.363 . S
N424 C426 1.356 . S
N424 H436 0.984 . S
N424 H437 0.985 . S
N425 C427 1.356 . S
N425 H430 0.984 . S
N425 H431 0.985 . S
C426 C420 1.379 . S
C426 C423 1.363 . S
C426 N424 1.356 . S
C427 C421 1.363 . S
C427 C422 1.379 . S
C427 N425 1.356 . S
N428 C420 1.356 . S
N428 H434 0.984 . S
N428 H435 0.984 1_556 S
N429 C422 1.356 . S
N429 H432 0.984 1_554 S
N429 H433 0.985 . S
H430 N425 0.984 . S
H431 N425 0.985 . S
H432 N429 0.984 1_556 S
H433 N429 0.985 . S
H434 N428 0.984 . S
H435 N428 0.984 1_554 S
H436 N424 0.984 . S
H437 N424 0.985 . S
C438 C439 1.363 . S
C438 C444 1.379 . S
C438 N446 1.356 . S
C439 C438 1.363 . S
C439 C445 1.363 . S
C440 C441 1.363 . S
C440 C445 1.379 . S
C440 N447 1.356 . S
C441 C440 1.363 . S
C441 C444 1.363 . S
N442 C444 1.356 . S
N442 H454 0.984 . S
N442 H455 0.985 . S
N443 C445 1.356 . S
N443 H448 0.984 . S
N443 H449 0.985 . S
C444 C438 1.379 . S
C444 C441 1.363 . S
C444 N442 1.356 . S
C445 C439 1.363 . S
C445 C440 1.379 . S
C445 N443 1.356 . S
N446 C438 1.356 . S
N446 H452 0.984 . S
N446 H453 0.984 . S
N447 C440 1.356 . S
N447 H450 0.984 . S
N447 H451 0.985 . S
H448 N443 0.984 . S
H449 N443 0.985 . S
H450 N447 0.984 . S
H451 N447 0.985 . S
H452 N446 0.984 . S
H453 N446 0.984 . S
H454 N442 0.984 . S
H455 N442 0.985 . S
C456 C457 1.363 . S
C456 C462 1.379 . S
C456 N464 1.356 . S
C457 C456 1.363 . S
C457 C463 1.363 . S
C458 C459 1.363 . S
C458 C463 1.379 . S
C458 N465 1.356 . S
C459 C458 1.363 . S
C459 C462 1.363 . S
N460 C462 1.356 . S
N460 H472 0.984 . S
N460 H473 0.985 . S
N461 C463 1.356 . S
N461 H466 0.984 . S
N461 H467 0.985 . S
C462 C456 1.379 . S
C462 C459 1.363 . S
C462 N460 1.356 . S
C463 C457 1.363 . S
C463 C458 1.379 . S
C463 N461 1.356 . S
N464 C456 1.356 . S
N464 H470 0.984 . S
N464 H471 0.984 . S
N465 C458 1.356 . S
N465 H468 0.984 . S
N465 H469 0.985 . S
H466 N461 0.984 . S
H467 N461 0.985 . S
H468 N465 0.984 . S
H469 N465 0.985 . S
H470 N464 0.984 . S
H471 N464 0.984 . S
H472 N460 0.984 . S
H473 N460 0.985 . S
C474 C475 1.363 . S
C474 C480 1.379 . S
C474 N482 1.356 . S
C475 C474 1.363 . S
C475 C481 1.363 1_554 S
C476 C477 1.363 . S
C476 C481 1.379 . S
C476 N483 1.356 . S
C477 C476 1.363 . S
C477 C480 1.363 1_556 S
N478 C480 1.356 . S
N478 H490 0.984 . S
N478 H491 0.985 1_554 S
N479 C481 1.356 . S
N479 H484 0.984 1_556 S
N479 H485 0.985 . S
C480 C474 1.379 . S
C480 C477 1.363 1_554 S
C480 N478 1.356 . S
C481 C475 1.363 1_556 S
C481 C476 1.379 . S
C481 N479 1.356 . S
N482 C474 1.356 . S
N482 H488 0.984 . S
N482 H489 0.984 . S
N483 C476 1.356 . S
N483 H486 0.984 . S
N483 H487 0.985 . S
H484 N479 0.984 1_554 S
H485 N479 0.985 . S
H486 N483 0.984 . S
H487 N483 0.985 . S
H488 N482 0.984 . S
H489 N482 0.984 . S
H490 N478 0.984 . S
H491 N478 0.985 1_556 S
C492 C493 1.363 1_565 S
C492 C498 1.379 . S
C492 N500 1.356 . S
C493 C492 1.363 1_545 S
C493 C499 1.363 . S
C494 C495 1.363 1_545 S
C494 C499 1.379 . S
C494 N501 1.356 . S
C495 C494 1.363 1_565 S
C495 C498 1.363 . S
N496 C498 1.356 . S
N496 H508 0.984 . S
N496 H509 0.985 . S
N497 C499 1.356 . S
N497 H502 0.984 . S
N497 H503 0.985 . S
C498 C492 1.379 . S
C498 C495 1.363 . S
C498 N496 1.356 . S
C499 C493 1.363 . S
C499 C494 1.379 . S
C499 N497 1.356 . S
N500 C492 1.356 . S
N500 H506 0.984 . S
N500 H507 0.984 . S
N501 C494 1.356 . S
N501 H504 0.984 . S
N501 H505 0.985 . S
H502 N497 0.984 . S
H503 N497 0.985 . S
H504 N501 0.984 . S
H505 N501 0.985 . S
H506 N500 0.984 . S
H507 N500 0.984 . S
H508 N496 0.984 . S
H509 N496 0.985 . S
C510 C511 1.363 . S
C510 C516 1.379 . S
C510 N518 1.356 . S
C511 C510 1.363 . S
C511 C517 1.363 . S
C512 C513 1.363 . S
C512 C517 1.379 . S
C512 N519 1.356 . S
C513 C512 1.363 . S
C513 C516 1.363 . S
N514 C516 1.356 . S
N514 H526 0.984 . S
N514 H527 0.985 . S
N515 C517 1.356 . S
N515 H520 0.984 . S
N515 H521 0.985 . S
C516 C510 1.379 . S
C516 C513 1.363 . S
C516 N514 1.356 . S
C517 C511 1.363 . S
C517 C512 1.379 . S
C517 N515 1.356 . S
N518 C510 1.356 . S
N518 H524 0.984 . S
N518 H525 0.984 . S
N519 C512 1.356 . S
N519 H522 0.984 . S
N519 H523 0.985 . S
H520 N515 0.984 . S
H521 N515 0.985 . S
H522 N519 0.984 . S
H523 N519 0.985 . S
H524 N518 0.984 . S
H525 N518 0.984 . S
H526 N514 0.984 . S
H527 N514 0.985 . S
C528 C529 1.363 . S
C528 C534 1.379 1_455 S
C528 N536 1.356 . S
C529 C528 1.363 . S
C529 C535 1.363 . S
C530 C531 1.363 . S
C530 C535 1.379 1_655 S
C530 N537 1.356 . S
C531 C530 1.363 . S
C531 C534 1.363 . S
N532 C534 1.356 . S
N532 H544 0.984 . S
N532 H545 0.985 . S
N533 C535 1.356 . S
N533 H538 0.984 . S
N533 H539 0.985 . S
C534 C528 1.379 1_655 S
C534 C531 1.363 . S
C534 N532 1.356 . S
C535 C529 1.363 . S
C535 C530 1.379 1_455 S
C535 N533 1.356 . S
N536 C528 1.356 . S
N536 H542 0.984 . S
N536 H543 0.984 . S
N537 C530 1.356 . S
N537 H540 0.984 . S
N537 H541 0.985 . S
H538 N533 0.984 . S
H539 N533 0.985 . S
H540 N537 0.984 . S
H541 N537 0.985 . S
H542 N536 0.984 . S
H543 N536 0.984 . S
H544 N532 0.984 . S
H545 N532 0.985 . S
C546 C547 1.363 1_545 S
C546 C552 1.379 . S
C546 N554 1.356 . S
C547 C546 1.363 1_565 S
C547 C553 1.363 . S
C548 C549 1.363 1_565 S
C548 C553 1.379 . S
C548 N555 1.356 . S
C549 C548 1.363 1_545 S
C549 C552 1.363 . S
N550 C552 1.356 . S
N550 H562 0.984 . S
N550 H563 0.985 . S
N551 C553 1.356 . S
N551 H556 0.984 . S
N551 H557 0.985 . S
C552 C546 1.379 . S
C552 C549 1.363 . S
C552 N550 1.356 . S
C553 C547 1.363 . S
C553 C548 1.379 . S
C553 N551 1.356 . S
N554 C546 1.356 . S
N554 H560 0.984 . S
N554 H561 0.984 . S
N555 C548 1.356 . S
N555 H558 0.984 . S
N555 H559 0.985 . S
H556 N551 0.984 . S
H557 N551 0.985 . S
H558 N555 0.984 . S
H559 N555 0.985 . S
H560 N554 0.984 . S
H561 N554 0.984 . S
H562 N550 0.984 . S
H563 N550 0.985 . S
C564 C565 1.363 . S
C564 C570 1.379 . S
C564 N572 1.356 . S
C565 C564 1.363 . S
C565 C571 1.363 . S
C566 C567 1.363 . S
C566 C571 1.379 . S
C566 N573 1.356 . S
C567 C566 1.363 . S
C567 C570 1.363 . S
N568 C570 1.356 . S
N568 H580 0.984 . S
N568 H581 0.985 . S
N569 C571 1.356 . S
N569 H574 0.984 . S
N569 H575 0.985 . S
C570 C564 1.379 . S
C570 C567 1.363 . S
C570 N568 1.356 . S
C571 C565 1.363 . S
C571 C566 1.379 . S
C571 N569 1.356 . S
N572 C564 1.356 . S
N572 H578 0.984 . S
N572 H579 0.984 . S
N573 C566 1.356 . S
N573 H576 0.984 . S
N573 H577 0.985 . S
H574 N569 0.984 . S
H575 N569 0.985 . S
H576 N573 0.984 . S
H577 N573 0.985 . S
H578 N572 0.984 . S
H579 N572 0.984 . S
H580 N568 0.984 . S
H581 N568 0.985 . S
C582 C583 1.365 1_455 S
C582 C588 1.385 . S
C582 N590 1.347 1_455 S
C583 C582 1.365 1_655 S
C583 C589 1.363 . S
C584 C585 1.365 1_655 S
C584 C589 1.385 . S
C584 N591 1.347 1_655 S
C585 C584 1.365 1_455 S
C585 C588 1.363 . S
N586 C588 1.356 . S
N586 H598 0.984 . S
N586 H599 0.985 . S
N587 C589 1.356 . S
N587 H592 0.984 . S
N587 H593 0.985 . S
C588 C582 1.385 . S
C588 C585 1.363 . S
C588 N586 1.356 . S
C589 C583 1.363 . S
C589 C584 1.385 . S
C589 N587 1.356 . S
N590 C582 1.347 1_655 S
N590 H596 0.984 1_655 S
N590 H597 0.984 . S
N591 C584 1.347 1_455 S
N591 H594 0.984 . S
N591 H595 0.985 1_455 S
H592 N587 0.984 . S
H593 N587 0.985 . S
H594 N591 0.984 . S
H595 N591 0.985 1_655 S
H596 N590 0.984 1_455 S
H597 N590 0.984 . S
H598 N586 0.984 . S
H599 N586 0.985 . S
C169 C8 1.703 . S
C171 C120 1.703 . S
C187 C22 1.703 . S
C189 C134 1.703 . S
C205 C148 1.703 . S
C207 C36 1.703 . S
C223 C162 1.703 . S
C225 C50 1.703 . S
C241 C92 1.703 . S
C243 C64 1.703 . S
C259 C106 1.703 . S
C261 C78 1.703 . S
C277 C7 1.509 . S
C279 C49 1.509 . S
C295 C63 1.509 . S
C297 C21 1.509 . S
C313 C77 1.509 . S
C315 C35 1.509 . S
C331 C91 1.509 . S
C333 C133 1.509 . S
C349 C147 1.509 . S
C351 C105 1.509 . S
C367 C119 1.509 . S
C369 C161 1.509 . S
C385 C87 1.110 . S
C387 C3 1.110 . S
C403 C17 1.110 . S
C405 C101 1.110 . S
C421 C115 1.110 . S
C423 C31 1.110 . S
C439 C129 1.110 . S
C441 C45 1.110 . S
C457 C59 1.110 . S
C459 C143 1.110 . S
C475 C157 1.110 . S
C477 C73 1.110 . S
C493 C9 1.169 . S
C495 C107 1.169 . S
C511 C121 1.169 . S
C513 C23 1.169 . S
C529 C135 1.169 . S
C531 C37 1.169 . S
C547 C51 1.169 . S
C549 C149 1.169 . S
C565 C163 1.169 . S
C567 C65 1.169 . S
C583 C93 1.169 . S
C585 C79 1.169 . S
