# Generated by pormake.
# Topology upc, (4)-cn, num edge types: 1
# Building blocks:
#     Node 0, Type 0, BuildingBlock: NAWXER_clean_sbu_0, # of connection points: 4
#     Node 1, Type 0, BuildingBlock: NAWXER_clean_sbu_0, # of connection points: 4
#     Node 2, Type 0, BuildingBlock: NAWXER_clean_sbu_0, # of connection points: 4
#     Node 3, Type 0, BuildingBlock: NAWXER_clean_sbu_0, # of connection points: 4
#     Node 4, Type 0, BuildingBlock: NAWXER_clean_sbu_0, # of connection points: 4
#     Node 5, Type 0, BuildingBlock: NAWXER_clean_sbu_0, # of connection points: 4
#     Node 6, Type 0, BuildingBlock: NAWXER_clean_sbu_0, # of connection points: 4
#     Node 7, Type 0, BuildingBlock: NAWXER_clean_sbu_0, # of connection points: 4
#     Node 8, Type 0, BuildingBlock: NAWXER_clean_sbu_0, # of connection points: 4
#     Node 9, Type 0, BuildingBlock: NAWXER_clean_sbu_0, # of connection points: 4
#     Node 10, Type 0, BuildingBlock: NAWXER_clean_sbu_0, # of connection points: 4
#     Node 11, Type 0, BuildingBlock: NAWXER_clean_sbu_0, # of connection points: 4
#     Node 12, Type 0, BuildingBlock: NAWXER_clean_sbu_0, # of connection points: 4
#     Node 13, Type 0, BuildingBlock: NAWXER_clean_sbu_0, # of connection points: 4
#     Node 14, Type 0, BuildingBlock: NAWXER_clean_sbu_0, # of connection points: 4
#     Node 15, Type 0, BuildingBlock: NAWXER_clean_sbu_0, # of connection points: 4
#     Edge 16, Type (0, 0), BuildingBlock: MIFKUJ_clean_linker_0, # of connection points: 2
#     Edge 17, Type (0, 0), BuildingBlock: MIFKUJ_clean_linker_0, # of connection points: 2
#     Edge 18, Type (0, 0), BuildingBlock: MIFKUJ_clean_linker_0, # of connection points: 2
#     Edge 19, Type (0, 0), BuildingBlock: MIFKUJ_clean_linker_0, # of connection points: 2
#     Edge 20, Type (0, 0), BuildingBlock: MIFKUJ_clean_linker_0, # of connection points: 2
#     Edge 21, Type (0, 0), BuildingBlock: MIFKUJ_clean_linker_0, # of connection points: 2
#     Edge 22, Type (0, 0), BuildingBlock: MIFKUJ_clean_linker_0, # of connection points: 2
#     Edge 23, Type (0, 0), BuildingBlock: MIFKUJ_clean_linker_0, # of connection points: 2
#     Edge 24, Type (0, 0), BuildingBlock: MIFKUJ_clean_linker_0, # of connection points: 2
#     Edge 25, Type (0, 0), BuildingBlock: MIFKUJ_clean_linker_0, # of connection points: 2
#     Edge 26, Type (0, 0), BuildingBlock: MIFKUJ_clean_linker_0, # of connection points: 2
#     Edge 27, Type (0, 0), BuildingBlock: MIFKUJ_clean_linker_0, # of connection points: 2
#     Edge 28, Type (0, 0), BuildingBlock: MIFKUJ_clean_linker_0, # of connection points: 2
#     Edge 29, Type (0, 0), BuildingBlock: MIFKUJ_clean_linker_0, # of connection points: 2
#     Edge 30, Type (0, 0), BuildingBlock: MIFKUJ_clean_linker_0, # of connection points: 2
#     Edge 31, Type (0, 0), BuildingBlock: MIFKUJ_clean_linker_0, # of connection points: 2
#     Edge 32, Type (0, 0), BuildingBlock: MIFKUJ_clean_linker_0, # of connection points: 2
#     Edge 33, Type (0, 0), BuildingBlock: MIFKUJ_clean_linker_0, # of connection points: 2
#     Edge 34, Type (0, 0), BuildingBlock: MIFKUJ_clean_linker_0, # of connection points: 2
#     Edge 35, Type (0, 0), BuildingBlock: MIFKUJ_clean_linker_0, # of connection points: 2
#     Edge 36, Type (0, 0), BuildingBlock: MIFKUJ_clean_linker_0, # of connection points: 2
#     Edge 37, Type (0, 0), BuildingBlock: MIFKUJ_clean_linker_0, # of connection points: 2
#     Edge 38, Type (0, 0), BuildingBlock: MIFKUJ_clean_linker_0, # of connection points: 2
#     Edge 39, Type (0, 0), BuildingBlock: MIFKUJ_clean_linker_0, # of connection points: 2
#     Edge 40, Type (0, 0), BuildingBlock: MIFKUJ_clean_linker_0, # of connection points: 2
#     Edge 41, Type (0, 0), BuildingBlock: MIFKUJ_clean_linker_0, # of connection points: 2
#     Edge 42, Type (0, 0), BuildingBlock: MIFKUJ_clean_linker_0, # of connection points: 2
#     Edge 43, Type (0, 0), BuildingBlock: MIFKUJ_clean_linker_0, # of connection points: 2
#     Edge 44, Type (0, 0), BuildingBlock: MIFKUJ_clean_linker_0, # of connection points: 2
#     Edge 45, Type (0, 0), BuildingBlock: MIFKUJ_clean_linker_0, # of connection points: 2
#     Edge 46, Type (0, 0), BuildingBlock: MIFKUJ_clean_linker_0, # of connection points: 2
#     Edge 47, Type (0, 0), BuildingBlock: MIFKUJ_clean_linker_0, # of connection points: 2
# Relax obj value: 0.229
# Max RMSD: 0.220
# Mean RMSD: 0.220
data_MOF--net-upc--node1-NAWXER_clean_sbu_0--edge1-MIFKUJ_clean_linker_0
_symmetry_space_group_name_H-M    P1
_symmetry_Int_Tables_number       1
_symmetry_cell_setting            triclinic
loop_
_symmetry_equiv_pos_as_xyz
'x, y, z'
_cell_length_a     46.833908
_cell_length_b     46.803479
_cell_length_c     53.305432
_cell_angle_alpha  90.149513
_cell_angle_beta   89.742527
_cell_angle_gamma 90.004921
loop_
_atom_site_label
_atom_site_type_symbol
_atom_site_fract_x
_atom_site_fract_y
_atom_site_fract_z
_atom_type_partial_charge
C0 C 0.08761 0.55937 0.15353 0.0
C1 C 0.14364 0.63111 0.10741 0.0
O2 O 0.07217 0.57899 0.1437 0.0
Zn3 Zn 0.07803 0.61522 0.11908 0.0
O4 O 0.11409 0.55826 0.14816 0.0
Zn5 Zn 0.11512 0.59195 0.12654 0.0
O6 O 0.10305 0.62524 0.15361 0.0
O7 O 0.06243 0.64394 0.14017 0.0
O8 O 0.15207 0.60674 0.11483 0.0
O9 O 0.1168 0.63655 0.1075 0.0
O10 O 0.0564 0.60701 0.0897 0.0
O11 O 0.09236 0.57722 0.09357 0.0
C12 C 0.08241 0.64315 0.1562 0.0
C13 C 0.06989 0.58533 0.08183 0.0
C14 C 0.92834 0.10142 0.07297 0.0
C15 C 0.8624 0.09679 0.1427 0.0
O16 O 0.93455 0.12091 0.08904 0.0
Zn17 Zn 0.91385 0.13757 0.12258 0.0
O18 O 0.9052 0.08776 0.07553 0.0
Zn19 Zn 0.89277 0.1027 0.10721 0.0
O20 O 0.87046 0.14238 0.10118 0.0
O21 O 0.89879 0.1759 0.1156 0.0
O22 O 0.86298 0.08174 0.12281 0.0
O23 O 0.87949 0.11815 0.14508 0.0
O24 O 0.94449 0.13398 0.14676 0.0
O25 O 0.92666 0.09276 0.13401 0.0
C26 C 0.8752 0.16887 0.10569 0.0
C27 C 0.94405 0.10681 0.14798 0.0
C28 C 0.41562 0.84577 0.14173 0.0
C29 C 0.41045 0.9207 0.08011 0.0
O30 O 0.39471 0.8628 0.14636 0.0
Zn31 Zn 0.37618 0.90076 0.12926 0.0
O32 O 0.43157 0.84983 0.12273 0.0
Zn33 Zn 0.41076 0.882 0.11088 0.0
O34 O 0.42171 0.91299 0.13999 0.0
O35 O 0.38101 0.92767 0.15655 0.0
O36 O 0.42473 0.89776 0.08042 0.0
O37 O 0.39138 0.92496 0.09711 0.0
O38 O 0.33759 0.88746 0.12203 0.0
O39 O 0.37025 0.86175 0.1027 0.0
C40 C 0.40816 0.9283 0.15617 0.0
C41 C 0.344 0.86582 0.10872 0.0
C42 C 0.5908 0.43785 0.08954 0.0
C43 C 0.64814 0.43458 0.16422 0.0
O44 O 0.58288 0.41667 0.10322 0.0
Zn45 Zn 0.5987 0.3973 0.13749 0.0
O46 O 0.6124 0.45231 0.09593 0.0
Zn47 Zn 0.62064 0.4342 0.12683 0.0
O48 O 0.64322 0.39524 0.11771 0.0
O49 O 0.61492 0.35995 0.12863 0.0
O50 O 0.64898 0.45267 0.1465 0.0
O51 O 0.63077 0.41339 0.16318 0.0
O52 O 0.56589 0.39874 0.15984 0.0
O53 O 0.58332 0.44131 0.15075 0.0
C54 C 0.63876 0.36833 0.11985 0.0
C55 C 0.56498 0.42576 0.16242 0.0
C56 C 0.0839 0.94626 0.34277 0.0
C57 C 0.14239 0.88007 0.39217 0.0
O58 O 0.06905 0.92678 0.35361 0.0
Zn59 Zn 0.07639 0.89191 0.37956 0.0
O60 O 0.11046 0.94805 0.34743 0.0
Zn61 Zn 0.11254 0.91585 0.37035 0.0
O62 O 0.10188 0.88063 0.34524 0.0
O63 O 0.06228 0.86106 0.36014 0.0
O64 O 0.14987 0.90351 0.38211 0.0
O65 O 0.11579 0.87362 0.393 0.0
O66 O 0.05427 0.90097 0.4084 0.0
O67 O 0.08922 0.93174 0.4028 0.0
C68 C 0.08209 0.86169 0.34381 0.0
C69 C 0.06701 0.92357 0.41508 0.0
C70 C 0.60586 0.04689 0.4175 0.0
C71 C 0.66594 0.05899 0.34444 0.0
O72 O 0.59788 0.06907 0.40521 0.0
Zn73 Zn 0.61397 0.0918 0.37255 0.0
O74 O 0.62806 0.03359 0.41051 0.0
Zn75 Zn 0.6367 0.05477 0.38108 0.0
O76 O 0.65731 0.09363 0.39332 0.0
O77 O 0.62797 0.12875 0.38433 0.0
O78 O 0.66636 0.03921 0.36071 0.0
O79 O 0.64774 0.07942 0.34647 0.0
O80 O 0.58164 0.09131 0.35 0.0
O81 O 0.60013 0.04863 0.35652 0.0
C82 C 0.6518 0.12046 0.39297 0.0
C83 C 0.58142 0.06454 0.34587 0.0
C84 C 0.41835 0.6078 0.42321 0.0
C85 C 0.41138 0.66127 0.34697 0.0
O86 O 0.39761 0.59806 0.41 0.0
Zn87 Zn 0.37596 0.6123 0.37618 0.0
O88 O 0.43035 0.63086 0.41675 0.0
Zn89 Zn 0.41105 0.63687 0.38609 0.0
O90 O 0.37101 0.65717 0.39565 0.0
O91 O 0.33802 0.62598 0.38545 0.0
O92 O 0.42854 0.66446 0.36512 0.0
O93 O 0.39056 0.64349 0.34867 0.0
O94 O 0.37857 0.57851 0.35523 0.0
O95 O 0.42015 0.59865 0.36338 0.0
C96 C 0.34454 0.65036 0.39419 0.0
C97 C 0.40559 0.5789 0.35253 0.0
C98 C 0.92699 0.39684 0.41852 0.0
C99 C 0.86285 0.39845 0.34908 0.0
O100 O 0.93491 0.3778 0.40254 0.0
Zn101 Zn 0.91568 0.3599 0.36883 0.0
O102 O 0.90338 0.40939 0.41553 0.0
Zn103 Zn 0.89333 0.39395 0.38409 0.0
O104 O 0.8732 0.35359 0.39138 0.0
O105 O 0.90245 0.32107 0.37644 0.0
O106 O 0.86321 0.41362 0.36884 0.0
O107 O 0.88054 0.3776 0.34645 0.0
O108 O 0.94659 0.36449 0.34485 0.0
O109 O 0.92772 0.40516 0.35781 0.0
C110 C 0.87904 0.32726 0.38726 0.0
C111 C 0.94582 0.39166 0.34397 0.0
C112 C 0.90493 0.34012 0.83374 0.0
C113 C 0.92962 0.40787 0.89893 0.0
O114 O 0.92629 0.33968 0.84831 0.0
Zn115 Zn 0.91684 0.37442 0.86523 0.0
O116 O 0.88754 0.36133 0.83411 0.0
Zn117 Zn 0.8828 0.40095 0.85553 0.0
O118 O 0.88779 0.43037 0.83023 0.0
O119 O 0.92698 0.40553 0.83657 0.0
O120 O 0.90776 0.41674 0.88676 0.0
O121 O 0.94072 0.38411 0.89299 0.0
O122 O 0.87561 0.36187 0.88087 0.0
O123 O 0.84465 0.39454 0.86909 0.0
C124 C 0.91383 0.42557 0.82496 0.0
C125 C 0.84977 0.37103 0.88011 0.0
C126 C 0.11122 0.94195 0.839 0.0
C127 C 0.15948 0.871 0.89131 0.0
O128 O 0.10424 0.91601 0.84258 0.0
Zn129 Zn 0.13208 0.90752 0.86817 0.0
O130 O 0.13177 0.95278 0.85179 0.0
Zn131 Zn 0.16157 0.9386 0.88035 0.0
O132 O 0.19778 0.94499 0.86369 0.0
O133 O 0.17113 0.91102 0.84689 0.0
O134 O 0.17023 0.89604 0.89384 0.0
O135 O 0.13604 0.8682 0.87961 0.0
O136 O 0.11708 0.93283 0.89937 0.0
O137 O 0.15233 0.96173 0.90932 0.0
C138 C 0.19443 0.9254 0.84734 0.0
C139 C 0.12701 0.95305 0.9131 0.0
C140 C 0.56324 0.18702 0.84883 0.0
C141 C 0.54433 0.12696 0.92101 0.0
O142 O 0.54316 0.18988 0.8648 0.0
Zn143 Zn 0.55485 0.15816 0.88512 0.0
O144 O 0.58106 0.16633 0.85069 0.0
Zn145 Zn 0.5891 0.1309 0.87555 0.0
O146 O 0.58373 0.09913 0.85255 0.0
O147 O 0.5443 0.12361 0.85977 0.0
O148 O 0.56542 0.11742 0.90802 0.0
O149 O 0.53302 0.15058 0.91503 0.0
O150 O 0.59621 0.17363 0.89674 0.0
O151 O 0.62751 0.14038 0.88674 0.0
C152 C 0.55724 0.10299 0.84859 0.0
C153 C 0.62221 0.16508 0.89559 0.0
C154 C 0.3614 0.59876 0.83478 0.0
C155 C 0.42048 0.58259 0.9072 0.0
O156 O 0.35891 0.57983 0.85169 0.0
Zn157 Zn 0.39024 0.59258 0.87111 0.0
O158 O 0.38146 0.61741 0.83607 0.0
Zn159 Zn 0.41589 0.62757 0.86197 0.0
O160 O 0.44842 0.6241 0.8396 0.0
O161 O 0.42541 0.58351 0.84541 0.0
O162 O 0.42997 0.60413 0.89479 0.0
O163 O 0.39754 0.57068 0.90034 0.0
O164 O 0.37318 0.63275 0.88372 0.0
O165 O 0.40437 0.66569 0.87307 0.0
C166 C 0.44564 0.59761 0.83478 0.0
C167 C 0.3804 0.65912 0.8827 0.0
C168 C 0.91354 0.09321 0.59421 0.0
C169 C 0.87331 0.12183 0.67487 0.0
O170 O 0.92642 0.11468 0.60394 0.0
Zn171 Zn 0.92274 0.1412 0.63635 0.0
O172 O 0.89155 0.08305 0.60503 0.0
Zn173 Zn 0.89112 0.10829 0.63385 0.0
O174 O 0.8777 0.14889 0.61948 0.0
O175 O 0.91336 0.17914 0.62365 0.0
O176 O 0.86317 0.10247 0.66067 0.0
O177 O 0.89454 0.137 0.66765 0.0
O178 O 0.9589 0.13414 0.65317 0.0
O179 O 0.93018 0.09673 0.65285 0.0
C180 C 0.88784 0.17417 0.61685 0.0
C181 C 0.95396 0.10827 0.65918 0.0
C182 C 0.40999 0.93592 0.66197 0.0
C183 C 0.34983 0.86859 0.61499 0.0
O184 O 0.42276 0.91264 0.65592 0.0
Zn185 Zn 0.41432 0.87384 0.63542 0.0
O186 O 0.38472 0.94037 0.65418 0.0
Zn187 Zn 0.38038 0.90449 0.6359 0.0
O188 O 0.38199 0.8752 0.66658 0.0
O189 O 0.41913 0.84615 0.66243 0.0
O190 O 0.34414 0.89444 0.62044 0.0
O191 O 0.37499 0.85894 0.61925 0.0
O192 O 0.44178 0.87555 0.60811 0.0
O193 O 0.40958 0.9097 0.60558 0.0
C194 C 0.39724 0.85451 0.67464 0.0
C195 C 0.43217 0.89756 0.5971 0.0
C196 C 0.61042 0.37028 0.63934 0.0
C197 C 0.60084 0.4304 0.56693 0.0
O198 O 0.59398 0.36775 0.6206 0.0
Zn199 Zn 0.6085 0.39938 0.60286 0.0
O200 O 0.6289 0.3906 0.64006 0.0
Zn201 Zn 0.64081 0.42624 0.61551 0.0
O202 O 0.63336 0.45823 0.63781 0.0
O203 O 0.59479 0.43361 0.628 0.0
O204 O 0.62016 0.44063 0.58144 0.0
O205 O 0.59 0.40631 0.5719 0.0
O206 O 0.65063 0.38426 0.59394 0.0
O207 O 0.68041 0.4173 0.60702 0.0
C208 C 0.6066 0.45424 0.64006 0.0
C209 C 0.6763 0.39308 0.59686 0.0
C210 C 0.15444 0.59256 0.63864 0.0
C211 C 0.09694 0.58045 0.56497 0.0
O212 O 0.1569 0.57463 0.62085 0.0
Zn213 Zn 0.12544 0.58784 0.60229 0.0
O214 O 0.13378 0.61065 0.63862 0.0
Zn215 Zn 0.09843 0.62101 0.6136 0.0
O216 O 0.06569 0.61366 0.6353 0.0
O217 O 0.09019 0.57476 0.62631 0.0
O218 O 0.08609 0.60011 0.57893 0.0
O219 O 0.12013 0.56877 0.57136 0.0
O220 O 0.14068 0.62965 0.59255 0.0
O221 O 0.10793 0.66051 0.60448 0.0
C222 C 0.06918 0.58685 0.6377 0.0
C223 C 0.13227 0.65558 0.59472 0.0
H224 H 0.20089 0.62733 0.09514 0.0
H225 H 0.2351 0.66669 0.09074 0.0
H226 H 0.16774 0.72729 0.10612 0.0
H227 H 0.13348 0.68836 0.10892 0.0
H228 H 0.19873 0.75044 0.0746 0.0
H229 H 0.22139 0.70203 0.15121 0.0
H230 H 0.23503 0.66185 0.1785 0.0
H231 H 0.31333 0.65158 0.13723 0.0
H232 H 0.29999 0.69148 0.1095 0.0
H233 H 0.28642 0.86625 0.11938 0.0
H234 H 0.25265 0.82649 0.1155 0.0
H235 H 0.31893 0.77404 0.08305 0.0
H236 H 0.35275 0.81354 0.08685 0.0
H237 H 0.29011 0.74658 0.12101 0.0
H238 H 0.26712 0.80374 0.04947 0.0
H239 H 0.25191 0.84705 0.02708 0.0
H240 H 0.17083 0.84448 0.06486 0.0
H241 H 0.18581 0.80157 0.08804 0.0
C242 C 0.19336 0.64909 0.0972 0.0
C243 C 0.16438 0.6546 0.1023 0.0
C244 C 0.21302 0.67167 0.09497 0.0
C245 C 0.20437 0.70025 0.09866 0.0
C246 C 0.17525 0.70566 0.10312 0.0
C247 C 0.15555 0.68323 0.10472 0.0
C248 C 0.22536 0.72458 0.09839 0.0
C249 C 0.21851 0.74962 0.08507 0.0
C250 C 0.2516 0.72372 0.11162 0.0
C251 C 0.25949 0.69947 0.12806 0.0
C252 C 0.24138 0.69102 0.14781 0.0
C253 C 0.24909 0.66833 0.16338 0.0
C254 C 0.27497 0.65409 0.15953 0.0
C255 C 0.29323 0.66254 0.14012 0.0
C256 C 0.28562 0.6852 0.12448 0.0
C257 C 0.29372 0.84642 0.11103 0.0
C258 C 0.32235 0.84326 0.10331 0.0
C259 C 0.27437 0.82364 0.10888 0.0
C260 C 0.28319 0.79718 0.09896 0.0
C261 C 0.31159 0.79417 0.09082 0.0
C262 C 0.33087 0.81693 0.09282 0.0
C263 C 0.26314 0.77237 0.09765 0.0
C264 C 0.27028 0.74728 0.11059 0.0
C265 C 0.23679 0.77358 0.08474 0.0
C266 C 0.22775 0.79945 0.0707 0.0
C267 C 0.24618 0.81257 0.05329 0.0
C268 C 0.23759 0.83708 0.04043 0.0
C269 C 0.21044 0.84854 0.04457 0.0
C270 C 0.19186 0.83557 0.06165 0.0
C271 C 0.20042 0.81115 0.07467 0.0
H272 H 0.20379 0.86745 0.03452 0.0
H273 H 0.28092 0.63656 0.17164 0.0
H274 H 0.87898 0.22762 0.10347 0.0
H275 H 0.83966 0.26213 0.10256 0.0
H276 H 0.77895 0.19273 0.10244 0.0
H277 H 0.81807 0.15843 0.10179 0.0
H278 H 0.75789 0.23013 0.07547 0.0
H279 H 0.79917 0.23558 0.15725 0.0
H280 H 0.83686 0.24238 0.18886 0.0
H281 H 0.85067 0.32804 0.16284 0.0
H282 H 0.81332 0.32162 0.13081 0.0
H283 H 0.6377 0.30951 0.12233 0.0
H284 H 0.678 0.27646 0.11777 0.0
H285 H 0.73414 0.34731 0.10227 0.0
H286 H 0.69412 0.38042 0.10689 0.0
H287 H 0.75748 0.31048 0.13629 0.0
H288 H 0.71057 0.30277 0.05601 0.0
H289 H 0.66794 0.29457 0.03016 0.0
H290 H 0.66101 0.2091 0.05869 0.0
H291 H 0.70313 0.21716 0.08541 0.0
C292 C 0.85724 0.21976 0.10288 0.0
C293 C 0.85178 0.1902 0.10266 0.0
C294 C 0.83466 0.23955 0.10265 0.0
C295 C 0.80599 0.23029 0.10308 0.0
C296 C 0.80066 0.20072 0.10214 0.0
C297 C 0.82318 0.18101 0.10175 0.0
C298 C 0.78154 0.25108 0.10488 0.0
C299 C 0.75784 0.24746 0.08901 0.0
C300 C 0.78111 0.27412 0.12231 0.0
C301 C 0.80371 0.27798 0.14142 0.0
C302 C 0.81042 0.25578 0.15812 0.0
C303 C 0.8317 0.25958 0.17614 0.0
C304 C 0.84623 0.28559 0.1778 0.0
C305 C 0.83946 0.30788 0.16148 0.0
C306 C 0.81824 0.30417 0.1434 0.0
C307 C 0.65854 0.31806 0.11765 0.0
C308 C 0.66247 0.3477 0.11478 0.0
C309 C 0.68163 0.2991 0.11507 0.0
C310 C 0.70922 0.30928 0.10951 0.0
C311 C 0.71315 0.33883 0.10654 0.0
C312 C 0.6901 0.35776 0.10901 0.0
C313 C 0.73407 0.28928 0.10703 0.0
C314 C 0.75777 0.29313 0.12274 0.0
C315 C 0.73418 0.26604 0.08996 0.0
C316 C 0.70984 0.26068 0.07289 0.0
C317 C 0.6999 0.28226 0.05685 0.0
C318 C 0.67578 0.27764 0.04207 0.0
C319 C 0.6617 0.25133 0.04281 0.0
C320 C 0.67188 0.2295 0.05819 0.0
C321 C 0.69586 0.2341 0.07319 0.0
H322 H 0.64292 0.24781 0.03147 0.0
H323 H 0.86267 0.2885 0.19177 0.0
H324 H 0.1987 0.87753 0.37826 0.0
H325 H 0.23167 0.83747 0.38384 0.0
H326 H 0.1682 0.79295 0.42757 0.0
H327 H 0.13484 0.83273 0.42168 0.0
H328 H 0.2249 0.78678 0.44654 0.0
H329 H 0.17235 0.77362 0.37102 0.0
H330 H 0.15212 0.78722 0.33016 0.0
H331 H 0.23651 0.80082 0.30071 0.0
H332 H 0.25725 0.78752 0.34155 0.0
H333 H 0.28751 0.64778 0.38312 0.0
H334 H 0.25155 0.68518 0.38873 0.0
H335 H 0.31399 0.73897 0.42464 0.0
H336 H 0.35027 0.70173 0.41881 0.0
H337 H 0.25375 0.7379 0.36769 0.0
H338 H 0.27356 0.78359 0.46857 0.0
H339 H 0.28673 0.76659 0.5107 0.0
H340 H 0.26003 0.6817 0.49116 0.0
H341 H 0.24604 0.69827 0.44915 0.0
C342 C 0.19192 0.85952 0.38953 0.0
C343 C 0.16405 0.85836 0.39946 0.0
C344 C 0.21076 0.83655 0.39259 0.0
C345 C 0.20232 0.81207 0.40592 0.0
C346 C 0.17517 0.81157 0.41719 0.0
C347 C 0.15613 0.83435 0.41378 0.0
C348 C 0.22099 0.78627 0.40637 0.0
C349 C 0.23147 0.77617 0.42934 0.0
C350 C 0.22864 0.77179 0.38399 0.0
C351 C 0.21633 0.77989 0.35942 0.0
C352 C 0.18658 0.77977 0.3559 0.0
C353 C 0.17502 0.78737 0.33273 0.0
C354 C 0.19301 0.79501 0.31287 0.0
C355 C 0.2226 0.79496 0.31613 0.0
C356 C 0.23428 0.78735 0.33928 0.0
C357 C 0.29356 0.66736 0.39257 0.0
C358 C 0.32189 0.6717 0.40042 0.0
C359 C 0.27294 0.68881 0.3957 0.0
C360 C 0.27996 0.71495 0.40715 0.0
C361 C 0.30793 0.71894 0.41595 0.0
C362 C 0.3287 0.69762 0.41251 0.0
C363 C 0.25875 0.73881 0.40786 0.0
C364 C 0.24761 0.74857 0.38499 0.0
C365 C 0.25013 0.75252 0.43044 0.0
C366 C 0.25925 0.74211 0.45546 0.0
C367 C 0.27056 0.76127 0.47321 0.0
C368 C 0.27812 0.75172 0.49711 0.0
C369 C 0.27448 0.72303 0.50352 0.0
C370 C 0.26312 0.70386 0.48609 0.0
C371 C 0.25541 0.71332 0.46219 0.0
H372 H 0.28024 0.7157 0.52206 0.0
H373 H 0.18402 0.80088 0.29494 0.0
H374 H 0.82337 0.33506 0.40119 0.0
H375 H 0.78625 0.2991 0.40632 0.0
H376 H 0.8478 0.23253 0.3914 0.0
H377 H 0.885 0.26873 0.38525 0.0
H378 H 0.8027 0.22057 0.36695 0.0
H379 H 0.81814 0.24699 0.45161 0.0
H380 H 0.82361 0.27849 0.48836 0.0
H381 H 0.73717 0.30735 0.48029 0.0
H382 H 0.73135 0.27659 0.44301 0.0
H383 H 0.70797 0.10936 0.40277 0.0
H384 H 0.74713 0.14358 0.40621 0.0
H385 H 0.68749 0.21328 0.40001 0.0
H386 H 0.64799 0.17909 0.39625 0.0
H387 H 0.73265 0.22142 0.43706 0.0
H388 H 0.72035 0.19364 0.34999 0.0
H389 H 0.71647 0.15802 0.31598 0.0
H390 H 0.80057 0.12711 0.3326 0.0
H391 H 0.80472 0.16216 0.36707 0.0
C392 C 0.82919 0.31276 0.3993 0.0
C393 C 0.85732 0.30485 0.39291 0.0
C394 C 0.80785 0.2921 0.40236 0.0
C395 C 0.81408 0.26286 0.39963 0.0
C396 C 0.84229 0.25487 0.39364 0.0
C397 C 0.86363 0.27561 0.39025 0.0
C398 C 0.79089 0.24091 0.40185 0.0
C399 C 0.78775 0.22058 0.38255 0.0
C400 C 0.77094 0.24083 0.42202 0.0
C401 C 0.7744 0.25963 0.44432 0.0
C402 C 0.80036 0.26025 0.45749 0.0
C403 C 0.80352 0.27794 0.47847 0.0
C404 C 0.78076 0.29487 0.4867 0.0
C405 C 0.7548 0.29422 0.4739 0.0
C406 C 0.75156 0.27667 0.45281 0.0
C407 C 0.70299 0.13196 0.40258 0.0
C408 C 0.67472 0.14141 0.39913 0.0
C409 C 0.7255 0.15151 0.40445 0.0
C410 C 0.72032 0.181 0.4031 0.0
C411 C 0.692 0.19062 0.40107 0.0
C412 C 0.66943 0.17103 0.39891 0.0
C413 C 0.74458 0.2016 0.40215 0.0
C414 C 0.74781 0.22156 0.42162 0.0
C415 C 0.76497 0.20097 0.38245 0.0
C416 C 0.76273 0.18035 0.3613 0.0
C417 C 0.73794 0.17911 0.34653 0.0
C418 C 0.73569 0.15903 0.32716 0.0
C419 C 0.75823 0.14026 0.32218 0.0
C420 C 0.78311 0.14162 0.33651 0.0
C421 C 0.78542 0.1616 0.35596 0.0
H422 H 0.75645 0.12472 0.30719 0.0
H423 H 0.78324 0.30847 0.50301 0.0
H424 H 0.85313 0.3148 0.89372 0.0
H425 H 0.81395 0.28069 0.89808 0.0
H426 H 0.75301 0.34877 0.88884 0.0
H427 H 0.79222 0.38301 0.8831 0.0
H428 H 0.7401 0.30875 0.929 0.0
H429 H 0.76171 0.31275 0.8433 0.0
H430 H 0.78554 0.31062 0.80215 0.0
H431 H 0.80375 0.22169 0.813 0.0
H432 H 0.78155 0.22358 0.85499 0.0
H433 H 0.61763 0.22263 0.90318 0.0
H434 H 0.65578 0.25792 0.90375 0.0
H435 H 0.71844 0.19058 0.89882 0.0
H436 H 0.68009 0.15498 0.89724 0.0
H437 H 0.72959 0.23158 0.86578 0.0
H438 H 0.70453 0.23177 0.9545 0.0
H439 H 0.66814 0.23524 0.98792 0.0
H440 H 0.64702 0.32022 0.96415 0.0
H441 H 0.68289 0.31703 0.93025 0.0
C442 C 0.83143 0.3227 0.89277 0.0
C443 C 0.82593 0.35173 0.88776 0.0
C444 C 0.80903 0.30305 0.89517 0.0
C445 C 0.78055 0.31207 0.89342 0.0
C446 C 0.77485 0.3413 0.89008 0.0
C447 C 0.7973 0.36088 0.88693 0.0
C448 C 0.75689 0.29082 0.89475 0.0
C449 C 0.73779 0.29193 0.91512 0.0
C450 C 0.75371 0.2689 0.87654 0.0
C451 C 0.77033 0.26848 0.85267 0.0
C452 C 0.77163 0.29295 0.8374 0.0
C453 C 0.78472 0.29173 0.8138 0.0
C454 C 0.7961 0.26602 0.80496 0.0
C455 C 0.79491 0.24158 0.8199 0.0
C456 C 0.78235 0.2428 0.84372 0.0
C457 C 0.63952 0.21515 0.90275 0.0
C458 C 0.64571 0.18582 0.90035 0.0
C459 C 0.66142 0.23549 0.90311 0.0
C460 C 0.69017 0.22705 0.90168 0.0
C461 C 0.69647 0.19771 0.90002 0.0
C462 C 0.67451 0.17732 0.89931 0.0
C463 C 0.71352 0.24883 0.90044 0.0
C464 C 0.73244 0.24798 0.87996 0.0
C465 C 0.71611 0.27135 0.91814 0.0
C466 C 0.69624 0.27406 0.93974 0.0
C467 C 0.69216 0.25121 0.95644 0.0
C468 C 0.67155 0.2531 0.97542 0.0
C469 C 0.65514 0.27787 0.97804 0.0
C470 C 0.65966 0.301 0.96201 0.0
C471 C 0.68015 0.29918 0.94294 0.0
H472 H 0.63889 0.27918 0.99249 0.0
H473 H 0.80585 0.26505 0.78653 0.0
H474 H 0.33072 0.65245 0.90915 0.0
H475 H 0.29173 0.68679 0.91384 0.0
H476 H 0.34163 0.75034 0.87497 0.0
H477 H 0.38085 0.71604 0.87021 0.0
H478 H 0.28556 0.73892 0.93552 0.0
H479 H 0.29677 0.7868 0.83622 0.0
H480 H 0.3136 0.77263 0.7941 0.0
H481 H 0.29615 0.68466 0.81112 0.0
H482 H 0.27875 0.69849 0.85319 0.0
H483 H 0.20697 0.86893 0.92101 0.0
H484 H 0.24228 0.83056 0.92316 0.0
H485 H 0.18961 0.77794 0.87567 0.0
H486 H 0.15403 0.8162 0.87355 0.0
H487 H 0.2444 0.78056 0.85821 0.0
H488 H 0.19778 0.7612 0.9359 0.0
H489 H 0.17815 0.77038 0.97815 0.0
H490 H 0.26165 0.79354 0.00426 0.0
H491 H 0.28154 0.78534 0.96217 0.0
C492 C 0.33365 0.67388 0.90196 0.0
C493 C 0.35897 0.68143 0.88927 0.0
C494 C 0.31128 0.6935 0.90465 0.0
C495 C 0.31352 0.72103 0.89444 0.0
C496 C 0.33924 0.72909 0.88272 0.0
C497 C 0.36177 0.70953 0.88022 0.0
C498 C 0.28858 0.74084 0.89529 0.0
C499 C 0.27665 0.74816 0.91863 0.0
C500 C 0.27636 0.75224 0.87321 0.0
C501 C 0.28661 0.74373 0.8479 0.0
C502 C 0.29635 0.7645 0.83091 0.0
C503 C 0.30602 0.75651 0.80705 0.0
C504 C 0.30599 0.72774 0.79995 0.0
C505 C 0.29623 0.70693 0.81667 0.0
C506 C 0.28648 0.71485 0.84053 0.0
C507 C 0.20248 0.84892 0.91155 0.0
C508 C 0.17751 0.84568 0.8972 0.0
C509 C 0.22278 0.82698 0.91275 0.0
C510 C 0.21873 0.80133 0.8995 0.0
C511 C 0.1933 0.79756 0.88599 0.0
C512 C 0.17279 0.81938 0.88502 0.0
C513 C 0.24176 0.77928 0.89857 0.0
C514 C 0.25333 0.77146 0.87515 0.0
C515 C 0.25333 0.76704 0.92057 0.0
C516 C 0.24112 0.77293 0.94577 0.0
C517 C 0.21186 0.76868 0.95058 0.0
C518 C 0.20067 0.77368 0.97455 0.0
C519 C 0.21856 0.78266 0.99393 0.0
C520 C 0.24767 0.78675 0.98933 0.0
C521 C 0.25893 0.78195 0.96539 0.0
H522 H 0.20986 0.78631 0.0125 0.0
H523 H 0.31349 0.72158 0.78148 0.0
H524 H 0.67364 0.33839 0.57899 0.0
H525 H 0.71205 0.30326 0.57705 0.0
H526 H 0.77236 0.36715 0.60107 0.0
H527 H 0.73387 0.40268 0.60323 0.0
H528 H 0.79392 0.32758 0.56289 0.0
H529 H 0.74724 0.32717 0.64376 0.0
H530 H 0.70493 0.32577 0.67144 0.0
H531 H 0.68246 0.2433 0.64214 0.0
H532 H 0.7244 0.24443 0.61392 0.0
H533 H 0.89954 0.23173 0.61335 0.0
H534 H 0.8658 0.27034 0.60429 0.0
H535 H 0.79921 0.20831 0.59193 0.0
H536 H 0.83254 0.16979 0.60122 0.0
H537 H 0.78143 0.24823 0.62353 0.0
H538 H 0.82849 0.247 0.54388 0.0
H539 H 0.86929 0.24848 0.51457 0.0
H540 H 0.89008 0.33314 0.53974 0.0
H541 H 0.84978 0.33192 0.56968 0.0
C542 C 0.69513 0.34525 0.58342 0.0
C543 C 0.70055 0.37339 0.5915 0.0
C544 C 0.71708 0.32505 0.58232 0.0
C545 C 0.74501 0.33248 0.5892 0.0
C546 C 0.75095 0.36096 0.5957 0.0
C547 C 0.72889 0.38123 0.59696 0.0
C548 C 0.76715 0.30989 0.59184 0.0
C549 C 0.79147 0.31041 0.57636 0.0
C550 C 0.76358 0.28716 0.60905 0.0
C551 C 0.73882 0.28602 0.62654 0.0
C552 C 0.73319 0.30881 0.6431 0.0
C553 C 0.70928 0.30806 0.65889 0.0
C554 C 0.69098 0.2845 0.6585 0.0
C555 C 0.69664 0.26156 0.64239 0.0
C556 C 0.72049 0.26223 0.6265 0.0
C557 C 0.87785 0.22628 0.60825 0.0
C558 C 0.8688 0.19759 0.60812 0.0
C559 C 0.85856 0.24841 0.60301 0.0
C560 C 0.82988 0.24231 0.59737 0.0
C561 C 0.82115 0.21363 0.5963 0.0
C562 C 0.84034 0.19158 0.60156 0.0
C563 C 0.80842 0.26564 0.59446 0.0
C564 C 0.7841 0.26533 0.61002 0.0
C565 C 0.81202 0.28843 0.57724 0.0
C566 C 0.83631 0.28921 0.55928 0.0
C567 C 0.84197 0.2658 0.54342 0.0
C568 C 0.86501 0.26659 0.52668 0.0
C569 C 0.88233 0.29085 0.52535 0.0
C570 C 0.87667 0.31435 0.54081 0.0
C571 C 0.85375 0.3136 0.55769 0.0
H572 H 0.90009 0.29146 0.5123 0.0
H573 H 0.67246 0.28401 0.6707 0.0
H574 H 0.12225 0.71376 0.59337 0.0
H575 H 0.15817 0.75197 0.59009 0.0
H576 H 0.22445 0.68884 0.58154 0.0
H577 H 0.18903 0.6508 0.58408 0.0
H578 H 0.22889 0.73008 0.62407 0.0
H579 H 0.21894 0.72247 0.53552 0.0
H580 H 0.19647 0.72256 0.49381 0.0
H581 H 0.16905 0.80917 0.50517 0.0
H582 H 0.19115 0.80951 0.54712 0.0
H583 H 0.35409 0.81092 0.60809 0.0
H584 H 0.31582 0.77695 0.59981 0.0
H585 H 0.25534 0.84615 0.59532 0.0
H586 H 0.29378 0.88058 0.60335 0.0
H587 H 0.24647 0.80329 0.55866 0.0
H588 H 0.25979 0.80913 0.64854 0.0
H589 H 0.28737 0.80727 0.68779 0.0
H590 H 0.31206 0.72086 0.67163 0.0
H591 H 0.285 0.72229 0.63207 0.0
C592 C 0.14438 0.70805 0.59018 0.0
C593 C 0.15267 0.67915 0.58905 0.0
C594 C 0.16486 0.7299 0.58826 0.0
C595 C 0.19396 0.7232 0.58552 0.0
C596 C 0.20211 0.69448 0.5835 0.0
C597 C 0.18172 0.67274 0.58495 0.0
C598 C 0.21627 0.74564 0.58782 0.0
C599 C 0.23284 0.74597 0.60968 0.0
C600 C 0.2212 0.76654 0.56916 0.0
C601 C 0.20627 0.76584 0.54468 0.0
C602 C 0.20763 0.74135 0.52936 0.0
C603 C 0.19514 0.74139 0.50559 0.0
C604 C 0.18125 0.76582 0.49688 0.0
C605 C 0.17976 0.79024 0.51197 0.0
C606 C 0.19228 0.79033 0.53574 0.0
C607 C 0.33277 0.8191 0.605 0.0
C608 C 0.32704 0.84858 0.60664 0.0
C609 C 0.31083 0.79954 0.60039 0.0
C610 C 0.2826 0.80892 0.59737 0.0
C611 C 0.27694 0.8384 0.59774 0.0
C612 C 0.29895 0.85806 0.60239 0.0
C613 C 0.259 0.78775 0.59496 0.0
C614 C 0.24223 0.78761 0.57316 0.0
C615 C 0.25409 0.76668 0.61351 0.0
C616 C 0.27054 0.7659 0.63724 0.0
C617 C 0.2713 0.78982 0.65324 0.0
C618 C 0.28683 0.78884 0.67556 0.0
C619 C 0.30155 0.76403 0.68216 0.0
C620 C 0.30075 0.74011 0.66646 0.0
C621 C 0.2853 0.74098 0.64409 0.0
H622 H 0.31351 0.76333 0.69948 0.0
H623 H 0.17174 0.76587 0.47841 0.0
H624 H 0.98922 0.37118 0.3139 0.0
H625 H 0.01581 0.39715 0.28138 0.0
H626 H 0.96928 0.47396 0.29954 0.0
H627 H 0.94294 0.44842 0.33218 0.0
H628 H 0.9701 0.45956 0.24733 0.0
H629 H 0.03557 0.46697 0.31755 0.0
H630 H 0.06605 0.44642 0.3505 0.0
H631 H 0.11608 0.40297 0.29461 0.0
H632 H 0.08537 0.4225 0.26133 0.0
H633 H 0.03878 0.56764 0.18033 0.0
H634 H 0.01755 0.5369 0.21202 0.0
H635 H 0.08489 0.4752 0.20066 0.0
H636 H 0.10722 0.50695 0.16961 0.0
H637 H 0.07456 0.47704 0.24746 0.0
H638 H 0.0135 0.46538 0.17783 0.0
H639 H 0.98318 0.47924 0.14221 0.0
H640 H 0.92587 0.52277 0.19245 0.0
H641 H 0.956 0.50937 0.2284 0.0
C642 C 0.98486 0.39368 0.31117 0.0
C643 C 0.96387 0.40766 0.32569 0.0
C644 C 1.00009 0.40849 0.29256 0.0
C645 C 0.99449 0.4375 0.28796 0.0
C646 C 0.9739 0.45157 0.30268 0.0
C647 C 0.95893 0.43692 0.32144 0.0
C648 C 0.00933 0.45314 0.26735 0.0
C649 C 0.9929 0.46368 0.24747 0.0
C650 C 0.03927 0.45728 0.2669 0.0
C651 C 0.05795 0.44596 0.28695 0.0
C652 C 0.05289 0.45282 0.31229 0.0
C653 C 0.07024 0.4414 0.33103 0.0
C654 C 0.09298 0.42344 0.32467 0.0
C655 C 0.09844 0.41686 0.29953 0.0
C656 C 0.08104 0.42806 0.28071 0.0
C657 C 0.04906 0.54745 0.1844 0.0
C658 C 0.07458 0.53964 0.17219 0.0
C659 C 0.03674 0.52972 0.20252 0.0
C660 C 0.04907 0.50321 0.20845 0.0
C661 C 0.07476 0.49542 0.19642 0.0
C662 C 0.08748 0.51352 0.17858 0.0
C663 C 0.03524 0.48416 0.22753 0.0
C664 C 0.05179 0.47287 0.24711 0.0
C665 C 0.00547 0.47848 0.22732 0.0
C666 C 0.98716 0.48656 0.2058 0.0
C667 C 0.99453 0.47807 0.18127 0.0
C668 C 0.97737 0.48583 0.16102 0.0
C669 C 0.95267 0.50198 0.16504 0.0
C670 C 0.94503 0.5103 0.18936 0.0
C671 C 0.96212 0.50257 0.20969 0.0
H672 H 0.93942 0.50798 0.14933 0.0
H673 H 0.10639 0.41466 0.33922 0.0
H674 H 0.991 0.12591 0.17401 0.0
H675 H 0.01662 0.10098 0.20764 0.0
H676 H 0.96037 0.02867 0.19959 0.0
H677 H 0.93517 0.05301 0.16579 0.0
H678 H 0.96727 0.04928 0.2503 0.0
H679 H 0.02346 0.02158 0.17782 0.0
H680 H 0.05261 0.03084 0.14007 0.0
H681 H 0.11305 0.07766 0.18444 0.0
H682 H 0.08401 0.069 0.22242 0.0
H683 H 0.03144 0.94026 0.32129 0.0
H684 H 0.00947 0.97006 0.28935 0.0
H685 H 0.08274 0.02595 0.29021 0.0
H686 H 0.10542 0.99538 0.32163 0.0
H687 H 0.0683 0.01809 0.24442 0.0
H688 H 0.01555 0.04357 0.31746 0.0
H689 H 0.98656 0.0369 0.3557 0.0
H690 H 0.91977 0.99865 0.31209 0.0
H691 H 0.94855 1.0046 0.27362 0.0
C692 C 0.98431 0.10458 0.17923 0.0
C693 C 0.96115 0.09141 0.16709 0.0
C694 C 0.99895 0.09038 0.19845 0.0
C695 C 0.99036 0.06298 0.20613 0.0
C696 C 0.96733 0.0498 0.19399 0.0
C697 C 0.95308 0.06371 0.17453 0.0
C698 C 1.00493 0.04807 0.22711 0.0
C699 C 0.98929 0.04219 0.24901 0.0
C700 C 0.03391 0.03977 0.2257 0.0
C701 C 0.05139 0.04494 0.2029 0.0
C702 C 0.04282 0.03409 0.17949 0.0
C703 C 0.05935 0.03917 0.15806 0.0
C704 C 0.08462 0.05491 0.15984 0.0
C705 C 0.09344 0.06552 0.18308 0.0
C706 C 0.07696 0.06052 0.20456 0.0
C707 C 0.04286 0.959 0.31486 0.0
C708 C 0.07018 0.96547 0.32417 0.0
C709 C 0.03014 0.97619 0.29662 0.0
C710 C 0.0441 1.0007 0.28756 0.0
C711 C 0.07141 0.00725 0.29687 0.0
C712 C 0.08435 0.98979 0.31491 0.0
C713 C 0.03057 0.01876 0.26777 0.0
C714 C 0.04636 0.02531 0.24602 0.0
C715 C 1.00176 0.02805 0.26949 0.0
C716 C 0.98441 0.02424 0.29265 0.0
C717 C 0.99481 0.03346 0.31603 0.0
C718 C 0.97839 0.02984 0.33776 0.0
C719 C 0.95139 0.01724 0.33635 0.0
C720 C 0.94073 0.00832 0.31318 0.0
C721 C 0.95709 0.01181 0.2914 0.0
H722 H 0.93871 0.01448 0.35319 0.0
H723 H 0.0974 0.05881 0.14323 0.0
H724 H 0.55352 0.09086 0.30726 0.0
H725 H 0.52277 0.06882 0.27571 0.0
H726 H 0.53131 0.98741 0.31282 0.0
H727 H 0.56334 0.00911 0.34352 0.0
H728 H 0.53515 0.9776 0.2671 0.0
H729 H 0.46762 0.03158 0.31464 0.0
H730 H 0.44692 0.07412 0.33518 0.0
H731 H 0.44106 0.1162 0.26391 0.0
H732 H 0.46206 0.07403 0.24297 0.0
H733 H 0.38843 0.95048 0.20064 0.0
H734 H 0.41608 0.97413 0.23352 0.0
H735 H 0.49171 0.96872 0.18721 0.0
H736 H 0.46442 0.94399 0.15478 0.0
H737 H 0.44382 0.02049 0.23933 0.0
H738 H 0.5508 0.96058 0.22142 0.0
H739 H 0.56736 0.91374 0.20577 0.0
H740 H 0.48722 0.87593 0.22673 0.0
H741 H 0.47034 0.92244 0.24281 0.0
C742 C 0.54862 0.06831 0.30881 0.0
C743 C 0.56081 0.05176 0.32795 0.0
C744 C 0.53088 0.0557 0.29078 0.0
C745 C 0.52421 0.02639 0.2919 0.0
C746 C 0.53607 0.00999 0.31133 0.0
C747 C 0.55431 0.02246 0.329 0.0
C748 C 0.50577 0.01257 0.27243 0.0
C749 C 0.51517 0.98705 0.26113 0.0
C750 C 0.4793 0.02435 0.26476 0.0
C751 C 0.46666 0.04975 0.27727 0.0
C752 C 0.4621 0.04998 0.30337 0.0
C753 C 0.45028 0.07401 0.31508 0.0
C754 C 0.44275 0.09787 0.30087 0.0
C755 C 0.44694 0.09772 0.2749 0.0
C756 C 0.45877 0.07375 0.26309 0.0
C757 C 0.41092 0.95446 0.1974 0.0
C758 C 0.42425 0.9451 0.17514 0.0
C759 C 0.42675 0.96804 0.21624 0.0
C760 C 0.45621 0.97281 0.21319 0.0
C761 C 0.46923 0.96465 0.19044 0.0
C762 C 0.45353 0.95065 0.17179 0.0
C763 C 0.47338 0.98574 0.23392 0.0
C764 C 0.4638 0.01109 0.24538 0.0
C765 C 0.49913 0.97322 0.24246 0.0
C766 C 0.50922 0.94508 0.23307 0.0
C767 C 0.53676 0.94225 0.22277 0.0
C768 C 0.5462 0.91576 0.21382 0.0
C769 C 0.52832 0.8919 0.21518 0.0
C770 C 0.50101 0.89445 0.2256 0.0
C771 C 0.49149 0.92088 0.23461 0.0
H772 H 0.53565 0.87142 0.20821 0.0
H773 H 0.4336 0.11646 0.30997 0.0
H774 H 0.54214 0.40269 0.20509 0.0
H775 H 0.51354 0.42677 0.23722 0.0
H776 H 0.51276 0.50341 0.19231 0.0
H777 H 0.54303 0.47985 0.16099 0.0
H778 H 0.52016 0.51967 0.23564 0.0
H779 H 0.45167 0.45529 0.20187 0.0
H780 H 0.43179 0.40911 0.18798 0.0
H781 H 0.43853 0.37644 0.26292 0.0
H782 H 0.4588 0.42231 0.2772 0.0
H783 H 0.38178 0.54731 0.31467 0.0
H784 H 0.40664 0.51961 0.2823 0.0
H785 H 0.487 0.53634 0.31879 0.0
H786 H 0.46235 0.56505 0.35056 0.0
H787 H 0.43719 0.47459 0.27798 0.0
H788 H 0.54003 0.5445 0.27704 0.0
H789 H 0.5539 0.59434 0.28607 0.0
H790 H 0.46833 0.62229 0.27114 0.0
H791 H 0.45408 0.57271 0.26163 0.0
C792 C 0.53554 0.42456 0.20193 0.0
C793 C 0.54472 0.4393 0.18041 0.0
C794 C 0.51902 0.43836 0.22032 0.0
C795 C 0.51039 0.46698 0.21726 0.0
C796 C 0.51907 0.48144 0.19539 0.0
C797 C 0.53625 0.46789 0.17734 0.0
C798 C 0.49342 0.48218 0.2372 0.0
C799 C 0.50201 0.50969 0.24477 0.0
C800 C 0.4692 0.46977 0.24903 0.0
C801 C 0.457 0.44215 0.24054 0.0
C802 C 0.44909 0.43819 0.21535 0.0
C803 C 0.43773 0.41208 0.20742 0.0
C804 C 0.43397 0.38984 0.22454 0.0
C805 C 0.44149 0.39368 0.24967 0.0
C806 C 0.45289 0.41974 0.2577 0.0
C807 C 0.40471 0.54483 0.31596 0.0
C808 C 0.42009 0.55867 0.33507 0.0
C809 C 0.41895 0.52894 0.2974 0.0
C810 C 0.44886 0.5263 0.29764 0.0
C811 C 0.46403 0.53865 0.31766 0.0
C812 C 0.44987 0.55494 0.33596 0.0
C813 C 0.46423 0.51174 0.27648 0.0
C814 C 0.45537 0.48443 0.26875 0.0
C815 C 0.48738 0.52484 0.2637 0.0
C816 C 0.49595 0.55483 0.26889 0.0
C817 C 0.52422 0.5613 0.27557 0.0
C818 C 0.53214 0.5895 0.28078 0.0
C819 C 0.51198 0.61145 0.27926 0.0
C820 C 0.4839 0.60526 0.27239 0.0
C821 C 0.4759 0.57711 0.26709 0.0
H822 H 0.51814 0.63325 0.28336 0.0
H823 H 0.42517 0.36964 0.21836 0.0
H824 H 0.07485 0.53065 0.65093 0.0
H825 H 0.04661 0.50365 0.68114 0.0
H826 H 0.99187 0.57668 0.69268 0.0
H827 H 0.02084 0.60426 0.66303 0.0
H828 H 1.00355 0.556 0.73573 0.0
H829 H 0.9627 0.50897 0.66263 0.0
H830 H 0.96214 0.48347 0.62206 0.0
H831 H 0.02072 0.42117 0.65076 0.0
H832 H 0.02055 0.44562 0.6919 0.0
H833 H 0.89717 0.47621 0.80359 0.0
H834 H 0.92232 0.50389 0.77133 0.0
H835 H 0.98955 0.44102 0.76959 0.0
H836 H 0.9648 0.41344 0.80202 0.0
H837 H 0.96995 0.45678 0.72158 0.0
H838 H 1.00215 0.50166 0.79763 0.0
H839 H 0.99595 0.52554 0.83858 0.0
H840 H 0.95023 0.5939 0.80322 0.0
H841 H 0.95581 0.57019 0.76208 0.0
C842 C 0.05664 0.54097 0.65967 0.0
C843 C 0.05024 0.56975 0.65452 0.0
C844 C 0.04024 0.52532 0.67687 0.0
C845 C 0.01666 0.53781 0.68911 0.0
C846 C 0.00988 0.56641 0.68358 0.0
C847 C 0.02646 0.58219 0.66653 0.0
C848 C 1.00038 0.52168 0.70878 0.0
C849 C 0.99579 0.5345 0.73238 0.0
C850 C 0.99067 0.49332 0.70497 0.0
C851 C 0.99192 0.4793 0.68011 0.0
C852 C 0.9756 0.48994 0.66019 0.0
C853 C 0.97524 0.47557 0.63718 0.0
C854 C 0.99168 0.45094 0.63371 0.0
C855 C 0.00811 0.44033 0.65342 0.0
C856 C 0.00802 0.45426 0.67666 0.0
C857 C 0.91733 0.46829 0.79639 0.0
C858 C 0.92896 0.44259 0.80545 0.0
C859 C 0.93173 0.48419 0.778 0.0
C860 C 0.9579 0.4746 0.7681 0.0
C861 C 0.96942 0.44885 0.77695 0.0
C862 C 0.95525 0.43316 0.79556 0.0
C863 C 0.97312 0.49117 0.74828 0.0
C864 C 0.97761 0.47836 0.72477 0.0
C865 C 0.98236 0.51963 0.75213 0.0
C866 C 0.97914 0.534 0.77681 0.0
C867 C 0.99056 0.52166 0.79861 0.0
C868 C 0.9872 0.53519 0.82185 0.0
C869 C 0.97263 0.56118 0.82351 0.0
C870 C 0.96147 0.57374 0.80191 0.0
C871 C 0.96475 0.56028 0.77863 0.0
H872 H 0.97005 0.57162 0.84152 0.0
H873 H 0.99156 0.44001 0.61579 0.0
H874 H 0.12035 0.99822 0.82751 0.0
H875 H 0.09626 0.02706 0.79587 0.0
H876 H 0.04398 0.95478 0.7757 0.0
H877 H 0.06822 0.92563 0.80717 0.0
H878 H 0.06363 0.98166 0.73446 0.0
H879 H 0.01718 0.00954 0.81112 0.0
H880 H 0.01452 0.02706 0.85473 0.0
H881 H 0.05426 0.10581 0.83265 0.0
H882 H 0.05752 0.08859 0.78893 0.0
H883 H 0.95253 0.0512 0.66919 0.0
H884 H 0.98255 0.02432 0.69788 0.0
H885 H 0.03143 0.10032 0.71363 0.0
H886 H 1.00107 0.12765 0.68491 0.0
H887 H 0.01605 0.07313 0.75643 0.0
H888 H 0.06265 0.04525 0.67986 0.0
H889 H 0.06587 0.02742 0.63637 0.0
H890 H 0.02491 0.94925 0.65823 0.0
H891 H 0.02178 0.96646 0.70197 0.0
C892 C 0.10369 0.98841 0.81641 0.0
C893 C 0.09619 0.95957 0.81999 0.0
C894 C 0.08985 1.005 0.79835 0.0
C895 C 0.06808 0.99322 0.78352 0.0
C896 C 0.06069 0.96438 0.7869 0.0
C897 C 0.07451 0.94776 0.80499 0.0
C898 C 0.05316 0.01089 0.76439 0.0
C899 C 0.05296 1.00149 0.73935 0.0
C900 C 0.03986 0.03721 0.77054 0.0
C901 C 0.03788 0.04764 0.7968 0.0
C902 C 0.02557 0.0305 0.8156 0.0
C903 C 0.02391 0.04039 0.84033 0.0
C904 C 0.03429 0.0675 0.84647 0.0
C905 C 0.04627 0.0848 0.82787 0.0
C906 C 0.04802 0.07499 0.80311 0.0
C907 C 0.96984 0.06224 0.6785 0.0
C908 C 0.97433 0.09166 0.67473 0.0
C909 C 0.98713 0.04674 0.69486 0.0
C910 C 0.00945 0.06018 0.70783 0.0
C911 C 0.01437 0.08945 0.7038 0.0
C912 C 0.9971 0.10503 0.68728 0.0
C913 C 0.02644 0.04383 0.72653 0.0
C914 C 0.02694 0.05343 0.75152 0.0
C915 C 0.04 0.01769 0.72036 0.0
C916 C 0.04177 0.00724 0.69412 0.0
C917 C 0.05417 0.02433 0.67535 0.0
C918 C 0.05603 0.01432 0.65067 0.0
C919 C 0.04537 0.98734 0.64448 0.0
C920 C 0.03309 0.97018 0.66303 0.0
C921 C 0.03141 0.97998 0.6878 0.0
H922 H 0.04673 0.9797 0.62533 0.0
H923 H 0.03298 0.07512 0.86563 0.0
H924 H 0.50084 0.10655 0.83607 0.0
H925 H 0.4753 0.07948 0.80412 0.0
H926 H 0.55188 0.03185 0.78728 0.0
H927 H 0.57785 0.05926 0.81909 0.0
H928 H 0.52639 0.04927 0.74501 0.0
H929 H 0.49623 1.00189 0.82028 0.0
H930 H 0.47617 0.99853 0.86302 0.0
H931 H 0.39696 0.03386 0.83727 0.0
H932 H 0.4167 0.03781 0.79442 0.0
H933 H 0.46588 0.93557 0.67583 0.0
H934 H 0.48945 0.96593 0.70657 0.0
H935 H 0.41107 0.01255 0.71829 0.0
H936 H 0.38704 0.98185 0.68745 0.0
H937 H 0.43607 0.99749 0.76259 0.0
H938 H 0.46587 0.04319 0.68686 0.0
H939 H 0.48601 0.04601 0.64413 0.0
H940 H 0.566 0.01341 0.67075 0.0
H941 H 0.54621 0.00999 0.7136 0.0
C942 C 0.51229 0.09018 0.82574 0.0
C943 C 0.54145 0.08506 0.83024 0.0
C944 C 0.49757 0.07463 0.80748 0.0
C945 C 0.51155 0.05341 0.79339 0.0
C946 C 0.54062 0.0481 0.79791 0.0
C947 C 0.55541 0.0637 0.8162 0.0
C948 C 0.49599 0.03732 0.77354 0.0
C949 C 0.50685 0.03762 0.74894 0.0
C950 C 0.46999 0.02283 0.77845 0.0
C951 C 0.45805 0.02042 0.80419 0.0
C952 C 0.47461 0.00917 0.82377 0.0
C953 C 0.46329 0.00711 0.84801 0.0
C954 C 0.43534 0.01605 0.85287 0.0
C955 C 0.41863 0.02699 0.83348 0.0
C956 C 0.42986 0.02912 0.80921 0.0
C957 C 0.45361 0.95243 0.68472 0.0
C958 C 0.42452 0.95628 0.6791 0.0
C959 C 0.46721 0.96987 0.70227 0.0
C960 C 0.45214 0.9917 0.71463 0.0
C961 C 0.42315 0.99587 0.70894 0.0
C962 C 0.40949 0.97843 0.69121 0.0
C963 C 0.4666 0.00928 0.73413 0.0
C964 C 0.45554 0.00925 0.75865 0.0
C965 C 0.49244 0.02399 0.72917 0.0
C966 C 0.50446 0.02611 0.70342 0.0
C967 C 0.48769 0.0364 0.68358 0.0
C968 C 0.49905 0.03815 0.65933 0.0
C969 C 0.52725 0.02983 0.65471 0.0
C970 C 0.54415 0.01982 0.67435 0.0
C971 C 0.53288 0.018 0.69863 0.0
H972 H 0.536 0.0312 0.63593 0.0
H973 H 0.42661 0.01445 0.87165 0.0
H974 H 0.55455 0.4413 0.66016 0.0
H975 H 0.52792 0.46753 0.69206 0.0
H976 H 0.59224 0.53359 0.69177 0.0
H977 H 0.61982 0.50646 0.66064 0.0
H978 H 0.57971 0.52344 0.73706 0.0
H979 H 0.51871 0.54354 0.66626 0.0
H980 H 0.48859 0.53314 0.62943 0.0
H981 H 0.43659 0.47699 0.67377 0.0
H982 H 0.46591 0.48755 0.71101 0.0
H983 H 0.49266 0.61945 0.81037 0.0
H984 H 0.5208 0.59678 0.77693 0.0
H985 H 0.46843 0.52125 0.78229 0.0
H986 H 0.44029 0.54364 0.81564 0.0
H987 H 0.47505 0.53885 0.73379 0.0
H988 H 0.53531 0.52095 0.80484 0.0
H989 H 0.5636 0.53406 0.84204 0.0
H990 H 0.61733 0.58745 0.79652 0.0
H991 H 0.58909 0.57495 0.75908 0.0
C992 C 0.5629 0.46159 0.66663 0.0
C993 C 0.58933 0.47179 0.65778 0.0
C994 C 0.54747 0.47676 0.68483 0.0
C995 C 0.55762 0.50298 0.69417 0.0
C996 C 0.5838 0.51348 0.68495 0.0
C997 C 0.59956 0.49799 0.66707 0.0
C998 C 0.54183 0.51843 0.71458 0.0
C999 C 0.55691 0.52729 0.73602 0.0
C1000 C 0.5119 0.52295 0.71381 0.0
C1001 C 0.49466 0.51612 0.69133 0.0
C1002 C 0.50098 0.52882 0.6681 0.0
C1003 C 0.48402 0.52296 0.64717 0.0
C1004 C 0.46094 0.50418 0.64919 0.0
C1005 C 0.45454 0.49145 0.67221 0.0
C1006 C 0.47119 0.49751 0.69327 0.0
C1007 C 0.48729 0.59791 0.8046 0.0
C1008 C 0.4642 0.58339 0.81576 0.0
C1009 C 0.50344 0.58496 0.7855 0.0
C1010 C 0.49679 0.55726 0.77711 0.0
C1011 C 0.47395 0.54264 0.7884 0.0
C1012 C 0.45795 0.55546 0.80758 0.0
C1013 C 0.51295 0.54375 0.75605 0.0
C1014 C 0.49791 0.53522 0.73459 0.0
C1015 C 0.54288 0.53975 0.75674 0.0
C1016 C 0.55989 0.54726 0.77922 0.0
C1017 C 0.553 0.53568 0.8028 0.0
C1018 C 0.56906 0.54296 0.82392 0.0
C1019 C 0.5922 0.56164 0.82166 0.0
C1020 C 0.59937 0.57302 0.79825 0.0
C1021 C 0.58336 0.56583 0.77707 0.0
H1022 H 0.60461 0.56725 0.83803 0.0
H1023 H 0.44792 0.49963 0.63294 0.0
H1024 H 0.12873 0.66284 0.18145 0.0
H1025 H 0.12971 0.70002 0.21364 0.0
H1026 H 0.03781 0.70663 0.21035 0.0
H1027 H 0.03691 0.67039 0.17727 0.0
H1028 H 0.05917 0.75693 0.21022 0.0
H1029 H 0.07478 0.67349 0.26015 0.0
H1030 H 0.09807 0.62859 0.27286 0.0
H1031 H 0.1771 0.67328 0.28395 0.0
H1032 H 0.15439 0.71841 0.27096 0.0
H1033 H 0.03784 0.82964 0.32653 0.0
H1034 H 0.03952 0.79273 0.29395 0.0
H1035 H 0.12967 0.80773 0.28372 0.0
H1036 H 0.12818 0.845 0.31608 0.0
H1037 H 0.11096 0.74773 0.2908 0.0
H1038 H 0.09271 0.83173 0.24127 0.0
H1039 H 0.067 0.87599 0.23057 0.0
H1040 H 0.9894 0.82835 0.22122 0.0
H1041 H 0.01457 0.78384 0.23226 0.0
C1042 C 0.10873 0.67203 0.18782 0.0
C1043 C 0.08273 0.66378 0.17699 0.0
C1044 C 0.1093 0.6932 0.20626 0.0
C1045 C 0.08379 0.70586 0.21464 0.0
C1046 C 0.05775 0.69719 0.20412 0.0
C1047 C 0.05723 0.67646 0.18532 0.0
C1048 C 0.0843 0.72902 0.23355 0.0
C1049 C 0.07017 0.75468 0.22797 0.0
C1050 C 0.09922 0.72639 0.25649 0.0
C1051 C 0.11295 0.69928 0.26431 0.0
C1052 C 0.09719 0.67371 0.26509 0.0
C1053 C 0.11028 0.64822 0.27238 0.0
C1054 C 0.13907 0.64807 0.27914 0.0
C1055 C 0.15482 0.67342 0.27867 0.0
C1056 C 0.14184 0.69896 0.27136 0.0
C1057 C 0.05799 0.82515 0.31727 0.0
C1058 C 0.08286 0.84017 0.32371 0.0
C1059 C 0.05888 0.80416 0.2987 0.0
C1060 C 0.0847 0.79773 0.28659 0.0
C1061 C 0.1096 0.81257 0.29298 0.0
C1062 C 0.10865 0.83388 0.3113 0.0
C1063 C 0.08562 0.77513 0.26742 0.0
C1064 C 0.10004 0.74973 0.27298 0.0
C1065 C 0.0706 0.77778 0.24467 0.0
C1066 C 0.05547 0.80449 0.23783 0.0
C1067 C 0.07011 0.83072 0.23716 0.0
C1068 C 0.05564 0.85585 0.23098 0.0
C1069 C 0.02657 0.855 0.22528 0.0
C1070 C 0.01191 0.82899 0.22567 0.0
C1071 C 0.02628 0.8038 0.23186 0.0
H1072 H 0.0154 0.87447 0.22051 0.0
H1073 H 0.14916 0.62832 0.28478 0.0
H1074 H 0.85692 0.12343 0.18804 0.0
H1075 H 0.82508 0.11047 0.22253 0.0
H1076 H 0.79246 0.03989 0.17902 0.0
H1077 H 0.82401 0.05288 0.14424 0.0
H1078 H 0.75033 0.06991 0.19974 0.0
H1079 H 0.83679 0.02749 0.22713 0.0
H1080 H 0.88798 0.02462 0.23743 0.0
H1081 H 0.87685 0.08821 0.29482 0.0
H1082 H 0.82566 0.09185 0.28461 0.0
H1083 H 0.70555 0.01803 0.33283 0.0
H1084 H 0.7402 0.01876 0.29832 0.0
H1085 H 0.70866 0.1012 0.27533 0.0
H1086 H 0.67386 0.10058 0.30946 0.0
H1087 H 0.78342 0.05613 0.28721 0.0
H1088 H 0.70734 0.10328 0.21222 0.0
H1089 H 0.65606 0.10245 0.20188 0.0
H1090 H 0.647 0.02146 0.23872 0.0
H1091 H 0.69829 0.02159 0.24895 0.0
C1092 C 0.843 0.10514 0.18579 0.0
C1093 C 0.84292 0.08921 0.1634 0.0
C1094 C 0.825 0.09764 0.20559 0.0
C1095 C 0.80676 0.07401 0.20339 0.0
C1096 C 0.80652 0.05813 0.18106 0.0
C1097 C 0.82451 0.06561 0.16123 0.0
C1098 C 0.7869 0.06685 0.22398 0.0
C1099 C 0.75757 0.06669 0.21883 0.0
C1100 C 0.79651 0.06211 0.24877 0.0
C1101 C 0.82737 0.0601 0.25494 0.0
C1102 C 0.84528 0.04106 0.2418 0.0
C1103 C 0.87431 0.03926 0.24765 0.0
C1104 C 0.88567 0.05625 0.26674 0.0
C1105 C 0.86802 0.07507 0.28003 0.0
C1106 C 0.83899 0.077 0.27423 0.0
C1107 C 0.70595 0.03626 0.32037 0.0
C1108 C 0.68679 0.05911 0.32368 0.0
C1109 C 0.72581 0.03668 0.30078 0.0
C1110 C 0.72666 0.05986 0.2842 0.0
C1111 C 0.70793 0.0829 0.28772 0.0
C1112 C 0.68808 0.08249 0.30723 0.0
C1113 C 0.74696 0.06008 0.26299 0.0
C1114 C 0.77629 0.059 0.26805 0.0
C1115 C 0.73743 0.0631 0.23801 0.0
C1116 C 0.70664 0.06257 0.23151 0.0
C1117 C 0.69444 0.08522 0.21799 0.0
C1118 C 0.66536 0.08488 0.21217 0.0
C1119 C 0.64827 0.06195 0.21969 0.0
C1120 C 0.66024 0.03925 0.23297 0.0
C1121 C 0.68931 0.03946 0.23881 0.0
H1122 H 0.62575 0.06175 0.2152 0.0
H1123 H 0.90814 0.05481 0.27125 0.0
H1124 H 0.46258 0.67653 0.3271 0.0
H1125 H 0.47134 0.69996 0.28684 0.0
H1126 H 0.38043 0.70377 0.27382 0.0
H1127 H 0.37179 0.67884 0.31336 0.0
H1128 H 0.40547 0.69136 0.23238 0.0
H1129 H 0.42146 0.7619 0.2975 0.0
H1130 H 0.44429 0.78188 0.33529 0.0
H1131 H 0.5262 0.7779 0.29893 0.0
H1132 H 0.50386 0.75757 0.261 0.0
H1133 H 0.37638 0.8196 0.1711 0.0
H1134 H 0.38401 0.77994 0.19984 0.0
H1135 H 0.47294 0.77675 0.17855 0.0
H1136 H 0.46534 0.81646 0.14922 0.0
H1137 H 0.4603 0.78206 0.2317 0.0
H1138 H 0.4366 0.72254 0.16185 0.0
H1139 H 0.40838 0.7079 0.12505 0.0
H1140 H 0.33438 0.69682 0.17186 0.0
H1141 H 0.36203 0.71169 0.20889 0.0
C1142 C 0.44452 0.6825 0.31561 0.0
C1143 C 0.41649 0.67637 0.32334 0.0
C1144 C 0.44954 0.69581 0.29265 0.0
C1145 C 0.42653 0.70402 0.27751 0.0
C1146 C 0.39852 0.69755 0.28516 0.0
C1147 C 0.39356 0.68356 0.3078 0.0
C1148 C 0.43124 0.72035 0.25416 0.0
C1149 C 0.41747 0.71119 0.23222 0.0
C1150 C 0.44761 0.7458 0.25376 0.0
C1151 C 0.46107 0.75784 0.27658 0.0
C1152 C 0.44437 0.76506 0.29766 0.0
C1153 C 0.45721 0.77649 0.31908 0.0
C1154 C 0.48669 0.78105 0.31955 0.0
C1155 C 0.50338 0.77427 0.29856 0.0
C1156 C 0.49065 0.7628 0.27711 0.0
C1157 C 0.39752 0.81034 0.17239 0.0
C1158 C 0.42035 0.82114 0.15815 0.0
C1159 C 0.40177 0.78755 0.18859 0.0
C1160 C 0.42894 0.77536 0.19099 0.0
C1161 C 0.45179 0.78583 0.17664 0.0
C1162 C 0.44743 0.80843 0.16003 0.0
C1163 C 0.43348 0.75367 0.21044 0.0
C1164 C 0.44907 0.76177 0.23165 0.0
C1165 C 0.41806 0.72774 0.21039 0.0
C1166 C 0.40143 0.71831 0.18817 0.0
C1167 C 0.41428 0.7171 0.16429 0.0
C1168 C 0.39838 0.70873 0.14338 0.0
C1169 C 0.3696 0.70143 0.1461 0.0
C1170 C 0.35668 0.70241 0.16976 0.0
C1171 C 0.37249 0.71074 0.19074 0.0
H1172 H 0.35731 0.695 0.12989 0.0
H1173 H 0.49659 0.78992 0.33614 0.0
H1174 H 0.69251 0.47205 0.16984 0.0
H1175 H 0.72929 0.47082 0.2023 0.0
H1176 H 0.68642 0.39983 0.23769 0.0
H1177 H 0.64951 0.40113 0.20576 0.0
H1178 H 0.7064 0.43643 0.2718 0.0
H1179 H 0.74053 0.38728 0.19817 0.0
H1180 H 0.75269 0.38223 0.1533 0.0
H1181 H 0.81324 0.45077 0.15957 0.0
H1182 H 0.80118 0.45642 0.20444 0.0
H1183 H 0.84896 0.3657 0.30847 0.0
H1184 H 0.81269 0.37607 0.27689 0.0
H1185 H 0.79481 0.45679 0.31303 0.0
H1186 H 0.83041 0.44635 0.34491 0.0
H1187 H 0.80557 0.41733 0.24304 0.0
H1188 H 0.72352 0.46892 0.31117 0.0
H1189 H 0.70982 0.46672 0.35589 0.0
H1190 H 0.74259 0.38122 0.36049 0.0
H1191 H 0.75609 0.38277 0.31575 0.0
C1192 C 0.69071 0.4565 0.18478 0.0
C1193 C 0.66835 0.43647 0.18514 0.0
C1194 C 0.71174 0.45577 0.20319 0.0
C1195 C 0.71064 0.43499 0.22207 0.0
C1196 C 0.68757 0.416 0.2232 0.0
C1197 C 0.66659 0.41671 0.20487 0.0
C1198 C 0.73432 0.43163 0.23984 0.0
C1199 C 0.72815 0.43254 0.26557 0.0
C1200 C 0.76244 0.42582 0.23153 0.0
C1201 C 0.76972 0.4225 0.20457 0.0
C1202 C 0.75627 0.40143 0.18992 0.0
C1203 C 0.76318 0.39842 0.16451 0.0
C1204 C 0.78366 0.41623 0.15357 0.0
C1205 C 0.79734 0.43703 0.16805 0.0
C1206 C 0.79049 0.44013 0.19348 0.0
C1207 C 0.83735 0.38568 0.3096 0.0
C1208 C 0.84219 0.40504 0.32929 0.0
C1209 C 0.81679 0.39162 0.29153 0.0
C1210 C 0.80093 0.41701 0.29291 0.0
C1211 C 0.80653 0.43686 0.31196 0.0
C1212 C 0.82685 0.43083 0.33014 0.0
C1213 C 0.77767 0.4222 0.27502 0.0
C1214 C 0.78392 0.42167 0.24929 0.0
C1215 C 0.74939 0.42738 0.28331 0.0
C1216 C 0.74112 0.42612 0.31019 0.0
C1217 C 0.72772 0.44964 0.32172 0.0
C1218 C 0.72 0.4485 0.34707 0.0
C1219 C 0.72543 0.42389 0.36104 0.0
C1220 C 0.7385 0.40031 0.34968 0.0
C1221 C 0.74623 0.40133 0.32433 0.0
H1222 H 0.71946 0.42306 0.38067 0.0
H1223 H 0.789 0.41387 0.1339 0.0
H1224 H 0.81973 0.13993 0.68773 0.0
H1225 H 0.80958 0.16926 0.72499 0.0
H1226 H 0.89287 0.14875 0.75428 0.0
H1227 H 0.90241 0.11904 0.7178 0.0
H1228 H 0.85976 0.16466 0.79178 0.0
H1229 H 0.88326 0.2019 0.70668 0.0
H1230 H 0.87193 0.20892 0.66204 0.0
H1231 H 0.79142 0.24663 0.68225 0.0
H1232 H 0.80234 0.23967 0.72716 0.0
H1233 H 0.92495 0.31755 0.78973 0.0
H1234 H 0.90846 0.27322 0.76951 0.0
H1235 H 0.84962 0.25921 0.83087 0.0
H1236 H 0.86535 0.30367 0.85031 0.0
H1237 H 0.85705 0.2605 0.75229 0.0
H1238 H 0.83674 0.18708 0.83636 0.0
H1239 H 0.85309 0.18037 0.87988 0.0
H1240 H 0.93495 0.21551 0.86055 0.0
H1241 H 0.91916 0.22222 0.81687 0.0
C1242 C 0.83498 0.14031 0.70294 0.0
C1243 C 0.86191 0.12761 0.7 0.0
C1244 C 0.82934 0.15727 0.72411 0.0
C1245 C 0.85089 0.16202 0.74199 0.0
C1246 C 0.87597 0.14569 0.74071 0.0
C1247 C 0.88147 0.12868 0.7198 0.0
C1248 C 0.85115 0.1881 0.75791 0.0
C1249 C 0.85852 0.18569 0.78333 0.0
C1250 C 0.8499 0.2156 0.74692 0.0
C1251 C 0.84343 0.21997 0.7201 0.0
C1252 C 0.86313 0.21162 0.70155 0.0
C1253 C 0.85677 0.21556 0.67622 0.0
C1254 C 0.83089 0.22808 0.6693 0.0
C1255 C 0.81139 0.23684 0.68768 0.0
C1256 C 0.81765 0.23291 0.71305 0.0
C1257 C 0.90842 0.3049 0.79865 0.0
C1258 C 0.89612 0.31377 0.82131 0.0
C1259 C 0.89899 0.27972 0.7872 0.0
C1260 C 0.87755 0.26299 0.79856 0.0
C1261 C 0.86585 0.27176 0.82156 0.0
C1262 C 0.87488 0.2971 0.8327 0.0
C1263 C 0.86694 0.23695 0.78579 0.0
C1264 C 0.85742 0.23959 0.76105 0.0
C1265 C 0.86671 0.20976 0.79737 0.0
C1266 C 0.87662 0.20548 0.82345 0.0
C1267 C 0.85823 0.19335 0.8414 0.0
C1268 C 0.8674 0.18955 0.86609 0.0
C1269 C 0.89501 0.19761 0.873 0.0
C1270 C 0.91354 0.2094 0.8552 0.0
C1271 C 0.90447 0.21325 0.83049 0.0
H1272 H 0.90206 0.19465 0.89212 0.0
H1273 H 0.82594 0.23107 0.64973 0.0
H1274 H 0.35733 0.81411 0.68306 0.0
H1275 H 0.32627 0.81512 0.72003 0.0
H1276 H 0.38456 0.87276 0.7567 0.0
H1277 H 0.41594 0.87123 0.71998 0.0
H1278 H 0.34843 0.84012 0.79111 0.0
H1279 H 0.34162 0.90304 0.71747 0.0
H1280 H 0.33597 0.91449 0.6726 0.0
H1281 H 0.26028 0.86291 0.66948 0.0
H1282 H 0.26525 0.85149 0.71445 0.0
H1283 H 0.25148 0.93876 0.85073 0.0
H1284 H 0.29067 0.91771 0.82608 0.0
H1285 H 0.22967 0.86915 0.78305 0.0
H1286 H 0.19075 0.89027 0.807 0.0
H1287 H 0.26758 0.89349 0.75373 0.0
H1288 H 0.26775 0.84028 0.82947 0.0
H1289 H 0.27045 0.83236 0.875 0.0
H1290 H 0.35665 0.8634 0.87552 0.0
H1291 H 0.3542 0.8726 0.83006 0.0
C1292 C 0.36454 0.82522 0.69974 0.0
C1293 C 0.38903 0.84244 0.69887 0.0
C1294 C 0.34662 0.82607 0.72074 0.0
C1295 C 0.35282 0.84459 0.74075 0.0
C1296 C 0.37941 0.85835 0.74144 0.0
C1297 C 0.39746 0.8573 0.72051 0.0
C1298 C 0.3294 0.85526 0.75697 0.0
C1299 C 0.33074 0.85187 0.78309 0.0
C1300 C 0.30622 0.87033 0.74638 0.0
C1301 C 0.30402 0.87611 0.71915 0.0
C1302 C 0.32396 0.89391 0.70713 0.0
C1303 C 0.32079 0.90051 0.68173 0.0
C1304 C 0.29785 0.88934 0.6682 0.0
C1305 C 0.27804 0.87153 0.68 0.0
C1306 C 0.28095 0.86509 0.70544 0.0
C1307 C 0.24648 0.92396 0.83573 0.0
C1308 C 0.21804 0.91624 0.83075 0.0
C1309 C 0.26886 0.91167 0.82193 0.0
C1310 C 0.26304 0.89151 0.80305 0.0
C1311 C 0.23464 0.88451 0.79764 0.0
C1312 C 0.2124 0.89671 0.81132 0.0
C1313 C 0.28622 0.8783 0.78804 0.0
C1314 C 0.28498 0.88146 0.76198 0.0
C1315 C 0.30915 0.86294 0.79886 0.0
C1316 C 0.31066 0.85751 0.82629 0.0
C1317 C 0.28716 0.84591 0.8393 0.0
C1318 C 0.28866 0.84108 0.86512 0.0
C1319 C 0.31369 0.84733 0.87816 0.0
C1320 C 0.33726 0.85855 0.8654 0.0
C1321 C 0.33581 0.86364 0.83959 0.0
H1322 H 0.31483 0.84344 0.89813 0.0
H1323 H 0.29525 0.89474 0.64865 0.0
H1324 H 0.61355 0.20311 0.82851 0.0
H1325 H 0.62139 0.23622 0.79379 0.0
H1326 H 0.53066 0.25061 0.78865 0.0
H1327 H 0.5226 0.21788 0.82409 0.0
H1328 H 0.56921 0.23077 0.74145 0.0
H1329 H 0.55622 0.30171 0.80814 0.0
H1330 H 0.56721 0.32142 0.84995 0.0
H1331 H 0.65549 0.32978 0.82912 0.0
H1332 H 0.64506 0.30974 0.78728 0.0
H1333 H 0.56398 0.33838 0.6511 0.0
H1334 H 0.55737 0.30761 0.68738 0.0
H1335 H 0.64314 0.32646 0.71177 0.0
H1336 H 0.64953 0.35834 0.67576 0.0
H1337 H 0.6086 0.32876 0.75007 0.0
H1338 H 0.62625 0.26113 0.68603 0.0
H1339 H 0.62196 0.23773 0.64475 0.0
H1340 H 0.53412 0.21793 0.66034 0.0
H1341 H 0.53779 0.24164 0.70159 0.0
C1342 C 0.59526 0.21343 0.82006 0.0
C1343 C 0.56744 0.20793 0.82874 0.0
C1344 C 0.59981 0.23235 0.80037 0.0
C1345 C 0.57658 0.24565 0.78888 0.0
C1346 C 0.54875 0.24042 0.79752 0.0
C1347 C 0.5442 0.2219 0.81767 0.0
C1348 C 0.58165 0.26404 0.76707 0.0
C1349 C 0.57726 0.25243 0.74318 0.0
C1350 C 0.59374 0.29149 0.76969 0.0
C1351 C 0.5999 0.30398 0.79468 0.0
C1352 C 0.57801 0.30752 0.81255 0.0
C1353 C 0.58413 0.31881 0.83623 0.0
C1354 C 0.61205 0.32678 0.84221 0.0
C1355 C 0.63388 0.32358 0.82447 0.0
C1356 C 0.62787 0.3123 0.80076 0.0
C1357 C 0.58152 0.33583 0.66408 0.0
C1358 C 0.60728 0.35067 0.66065 0.0
C1359 C 0.57775 0.31815 0.68476 0.0
C1360 C 0.5999 0.31444 0.70207 0.0
C1361 C 0.62578 0.32908 0.69861 0.0
C1362 C 0.62942 0.34719 0.67807 0.0
C1363 C 0.59544 0.29587 0.72412 0.0
C1364 C 0.60029 0.30724 0.74812 0.0
C1365 C 0.58462 0.26777 0.7216 0.0
C1366 C 0.58223 0.25343 0.69681 0.0
C1367 C 0.60595 0.25201 0.68057 0.0
C1368 C 0.60364 0.23865 0.65719 0.0
C1369 C 0.57776 0.22641 0.6499 0.0
C1370 C 0.55415 0.22745 0.666 0.0
C1371 C 0.55634 0.24083 0.6894 0.0
H1372 H 0.576 0.21606 0.63179 0.0
H1373 H 0.61675 0.33548 0.86056 0.0
H1374 H 0.30855 0.57481 0.83316 0.0
H1375 H 0.27474 0.57612 0.79852 0.0
H1376 H 0.33461 0.62547 0.75461 0.0
H1377 H 0.36813 0.62522 0.78967 0.0
H1378 H 0.28347 0.64507 0.74748 0.0
H1379 H 0.32642 0.55302 0.74497 0.0
H1380 H 0.34275 0.50665 0.76142 0.0
H1381 H 0.25621 0.48365 0.77906 0.0
H1382 H 0.23939 0.53007 0.76302 0.0
H1383 H 0.20452 0.56318 0.64001 0.0
H1384 H 0.24205 0.56679 0.6713 0.0
H1385 H 0.19159 0.62782 0.71311 0.0
H1386 H 0.15409 0.62491 0.68143 0.0
H1387 H 0.24211 0.55337 0.71804 0.0
H1388 H 0.23715 0.67511 0.74327 0.0
H1389 H 0.22664 0.72088 0.72241 0.0
H1390 H 0.24667 0.68358 0.65081 0.0
H1391 H 0.25794 0.6378 0.67125 0.0
C1392 C 0.3145 0.58593 0.81611 0.0
C1393 C 0.34103 0.59964 0.81393 0.0
C1394 C 0.2952 0.58663 0.79634 0.0
C1395 C 0.30243 0.60042 0.77384 0.0
C1396 C 0.32868 0.61466 0.77181 0.0
C1397 C 0.34782 0.61439 0.79177 0.0
C1398 C 0.28275 0.59936 0.75231 0.0
C1399 C 0.27441 0.62506 0.74097 0.0
C1400 C 0.27168 0.57314 0.74339 0.0
C1401 C 0.28168 0.54513 0.75298 0.0
C1402 C 0.31089 0.53815 0.75251 0.0
C1403 C 0.32023 0.51185 0.76174 0.0
C1404 C 0.30053 0.49224 0.77133 0.0
C1405 C 0.27144 0.49887 0.77165 0.0
C1406 C 0.26199 0.52516 0.76247 0.0
C1407 C 0.20133 0.57734 0.65588 0.0
C1408 C 0.17634 0.59373 0.65831 0.0
C1409 C 0.22284 0.57941 0.67371 0.0
C1410 C 0.2197 0.59778 0.69434 0.0
C1411 C 0.19461 0.61391 0.69705 0.0
C1412 C 0.17314 0.61204 0.67907 0.0
C1413 C 0.2423 0.59913 0.7135 0.0
C1414 C 0.25118 0.57343 0.72444 0.0
C1415 C 0.25463 0.62527 0.7213 0.0
C1416 C 0.24801 0.65284 0.70881 0.0
C1417 C 0.2394 0.67668 0.72308 0.0
C1418 C 0.23333 0.70265 0.71133 0.0
C1419 C 0.23583 0.70509 0.68529 0.0
C1420 C 0.24459 0.68162 0.67097 0.0
C1421 C 0.25081 0.65564 0.68263 0.0
H1422 H 0.23109 0.7252 0.67624 0.0
H1423 H 0.30781 0.47188 0.77846 0.0
H1424 H 0.02189 0.59659 0.05479 0.0
H1425 H 0.99921 0.56646 0.0233 0.0
H1426 H 0.06768 0.50535 0.02943 0.0
H1427 H 0.09073 0.53551 0.06119 0.0
H1428 H 0.05043 0.51474 0.97973 0.0
H1429 H 0.00785 0.49229 0.05906 0.0
H1430 H 0.98426 0.50295 0.09943 0.0
H1431 H 0.9127 0.53891 0.06058 0.0
H1432 H 0.93614 0.52898 0.01993 0.0
H1433 H 0.97928 0.39746 0.92395 0.0
H1434 H 1.00335 0.42817 0.95426 0.0
H1435 H 0.93509 0.48963 0.94894 0.0
H1436 H 0.91072 0.45895 0.91839 0.0
H1437 H 0.95247 0.47987 -0.00175 0.0
H1438 H 0.99512 0.50288 0.91902 0.0
H1439 H 0.01877 0.49264 0.87857 0.0
H1440 H 0.08994 0.45558 0.91721 0.0
H1441 H 0.06651 0.46525 0.95791 0.0
C1442 C 0.03239 0.5769 0.04933 0.0
C1443 C 0.05809 0.56839 0.06069 0.0
C1444 C 0.01928 0.55964 0.03135 0.0
C1445 C 0.03152 0.53347 0.02431 0.0
C1446 C 0.05782 0.52544 0.0347 0.0
C1447 C 0.07096 0.54269 0.05284 0.0
C1448 C 0.01617 0.51418 0.00677 0.0
C1449 C 0.02919 0.50677 0.98392 0.0
C1450 C 0.98817 0.50432 0.01203 0.0
C1451 C 0.9739 0.51014 0.03644 0.0
C1452 C 0.98719 0.50269 0.05911 0.0
C1453 C 0.97383 0.50856 0.08206 0.0
C1454 C 0.94701 0.52163 0.08258 0.0
C1455 C 0.93349 0.52882 0.06015 0.0
C1456 C 0.94681 0.52307 0.03715 0.0
C1457 C 0.9692 0.41742 0.92929 0.0
C1458 C 0.94306 0.42578 0.91864 0.0
C1459 C 0.9831 0.43501 0.94656 0.0
C1460 C 0.97119 0.46133 0.95363 0.0
C1461 C 0.94469 0.46942 0.94366 0.0
C1462 C 0.93082 0.45189 0.92619 0.0
C1463 C 0.9867 0.48048 0.97118 0.0
C1464 C 0.97371 0.48783 0.99406 0.0
C1465 C 0.01471 0.49028 0.96594 0.0
C1466 C 0.02892 0.48453 0.94151 0.0
C1467 C 0.01571 0.49233 0.91889 0.0
C1468 C 0.02909 0.48667 0.89591 0.0
C1469 C 0.05581 0.4734 0.89532 0.0
C1470 C 0.06922 0.46583 0.9177 0.0
C1471 C 0.05591 0.47141 0.94073 0.0
H1472 H 0.06614 0.46904 0.87751 0.0
H1473 H 0.9367 0.52615 0.10036 0.0
H1474 H 0.14127 0.99589 0.946 0.0
H1475 H 0.10911 0.0238 0.9728 0.0
H1476 H 0.03792 0.97268 0.94811 0.0
H1477 H 0.06985 0.94475 0.9212 0.0
H1478 H 0.02621 0.0295 0.94547 0.0
H1479 H 0.06509 0.96477 0.00644 0.0
H1480 H 0.10338 0.94067 0.0299 0.0
H1481 H 0.13305 0.02169 0.05734 0.0
H1482 H 0.09516 0.04632 0.03373 0.0
H1483 H 0.91949 0.06383 0.03458 0.0
H1484 H 0.95501 0.04267 0.0067 0.0
H1485 H 0.02023 0.09601 0.03929 0.0
H1486 H 0.98466 0.11709 0.06774 0.0
H1487 H 0.03752 0.04181 0.03734 0.0
H1488 H 0.99691 0.10653 0.97869 0.0
H1489 H 0.95887 0.1309 0.95515 0.0
H1490 H 0.93286 0.05085 0.92303 0.0
H1491 H 0.97049 0.02591 0.94667 0.0
C1492 C 0.11883 0.99032 0.94649 0.0
C1493 C 0.10819 0.96801 0.93143 0.0
C1494 C 0.10046 0.00632 0.96186 0.0
C1495 C 0.07107 1.00034 0.96251 0.0
C1496 C 0.06049 0.97775 0.94787 0.0
C1497 C 0.07884 0.96167 0.9326 0.0
C1498 C 0.05115 0.01816 0.97777 0.0
C1499 C 0.02848 0.03194 0.96561 0.0
C1500 C 0.05468 0.02218 0.00391 0.0
C1501 C 0.0775 0.00741 0.01808 0.0
C1502 C 0.07994 0.97747 0.01728 0.0
C1503 C 0.10154 0.96371 0.03065 0.0
C1504 C 0.12069 0.97964 0.04504 0.0
C1505 C 0.11824 0.00938 0.04615 0.0
C1506 C 0.0967 0.02325 0.03279 0.0
C1507 C 0.94128 0.07149 0.03559 0.0
C1508 C 0.94918 0.0922 0.05345 0.0
C1509 C 0.96161 0.05939 0.01952 0.0
C1510 C 0.99035 0.06781 0.02072 0.0
C1511 C 0.9982 0.08916 0.03798 0.0
C1512 C 0.97779 0.10135 0.05411 0.0
C1513 C 0.01226 0.05288 0.0051 0.0
C1514 C 0.03533 0.03963 0.01717 0.0
C1515 C 0.00915 0.04941 0.97884 0.0
C1516 C 0.9864 0.06431 0.96464 0.0
C1517 C 0.98293 0.09407 0.96678 0.0
C1518 C 0.96146 0.108 0.95338 0.0
C1519 C 0.94342 0.09242 0.93765 0.0
C1520 C 0.94684 0.06289 0.93524 0.0
C1521 C 0.96826 0.04885 0.94862 0.0
H1522 H 0.92683 0.10325 0.92728 0.0
H1523 H 0.13739 0.96895 0.05538 0.0
H1524 H 0.39204 0.97654 0.07863 0.0
H1525 H 0.4121 0.01527 0.05302 0.0
H1526 H 0.46789 0.95501 0.01605 0.0
H1527 H 0.44806 0.91643 0.04122 0.0
H1528 H 0.49661 1.00143 0.03634 0.0
H1529 H 0.41349 0.9828 0.98499 0.0
H1530 H 0.36183 0.97826 0.97713 0.0
H1531 H 0.34916 0.06542 -8e-05 0.0
H1532 H 0.40073 0.07036 0.00824 0.0
H1533 H 0.55758 0.07193 0.93316 0.0
H1534 H 0.53271 0.04078 0.96254 0.0
H1535 H 0.4769 0.11021 0.9837 0.0
H1536 H 0.50128 0.14143 0.95369 0.0
H1537 H 0.44652 0.06403 0.97588 0.0
H1538 H 0.5292 0.0848 0.024 0.0
H1539 H 0.58052 0.09033 0.03288 0.0
H1540 H 0.59388 1.00101 0.0185 0.0
H1541 H 0.54269 0.995 0.00919 0.0
C1542 C 0.40814 0.97147 0.06467 0.0
C1543 C 0.41857 0.94341 0.0621 0.0
C1544 C 0.41962 0.99363 0.05011 0.0
C1545 C 0.44166 0.98801 0.03281 0.0
C1546 C 0.45109 0.95984 0.02945 0.0
C1547 C 0.43961 0.93778 0.04382 0.0
C1548 C 0.45632 0.01141 0.01918 0.0
C1549 C 0.48574 0.015 0.02296 0.0
C1550 C 0.44187 0.02981 0.00252 0.0
C1551 C 0.4109 0.02683 0.99753 0.0
C1552 C 0.39965 1.00091 0.98855 0.0
C1553 C 0.3704 0.99829 0.98396 0.0
C1554 C 0.35221 0.02151 0.9881 0.0
C1555 C 0.36326 0.04744 0.99677 0.0
C1556 C 0.3925 0.05016 0.00141 0.0
C1557 C 0.54031 0.08076 0.94431 0.0
C1558 C 0.53148 0.10922 0.94109 0.0
C1559 C 0.52611 0.0629 0.9612 0.0
C1560 C 0.50307 0.07319 0.97558 0.0
C1561 C 0.4946 0.10178 0.97282 0.0
C1562 C 0.50867 0.11964 0.95575 0.0
C1563 C 0.4871 0.05359 0.9925 0.0
C1564 C 0.45743 0.05075 0.98946 0.0
C1565 C 0.50127 0.03602 0.01008 0.0
C1566 C 0.5321 0.0395 0.01573 0.0
C1567 C 0.5431 0.06637 0.02256 0.0
C1568 C 0.57218 0.06959 0.0277 0.0
C1569 C 0.59046 0.04605 0.02621 0.0
C1570 C 0.57969 0.01923 0.01963 0.0
C1571 C 0.55064 0.0159 0.01446 0.0
H1572 H 0.61296 0.04859 0.03019 0.0
H1573 H 0.32957 0.01944 0.98453 0.0
H1574 H 0.40258 0.54238 0.94064 0.0
H1575 H 0.43121 0.51687 0.97139 0.0
H1576 H 0.50468 0.56761 0.95133 0.0
H1577 H 0.4761 0.59326 0.92021 0.0
H1578 H 0.51652 0.51023 0.95184 0.0
H1579 H 0.47159 0.57821 0.00673 0.0
H1580 H 0.4313 0.60453 0.0257 0.0
H1581 H 0.39551 0.52581 0.05255 0.0
H1582 H 0.4354 0.49895 0.03342 0.0
H1583 H 0.60702 0.47496 0.05297 0.0
H1584 H 0.57715 0.49667 0.02099 0.0
H1585 H 0.50587 0.44498 0.04499 0.0
H1586 H 0.53576 0.4232 0.07746 0.0
H1587 H 0.49174 0.50099 0.04204 0.0
H1588 H 0.53726 0.43299 0.98857 0.0
H1589 H 0.57736 0.40638 0.9696 0.0
H1590 H 0.61175 0.48441 0.93996 0.0
H1591 H 0.57207 0.51158 0.95906 0.0
C1592 C 0.42474 0.54843 0.94295 0.0
C1593 C 0.43708 0.56987 0.92794 0.0
C1594 C 0.44106 0.53383 0.96061 0.0
C1595 C 0.47005 0.54038 0.96371 0.0
C1596 C 0.48232 0.56223 0.9492 0.0
C1597 C 0.46593 0.57699 0.93157 0.0
C1598 C 0.48774 0.52344 0.98127 0.0
C1599 C 0.51139 0.50854 0.97165 0.0
C1600 C 0.48038 0.52044 0.00691 0.0
C1601 C 0.45635 0.53654 0.01842 0.0
C1602 C 0.455 0.56648 0.01648 0.0
C1603 C 0.43226 0.5815 0.02731 0.0
C1604 C 0.41082 0.56685 0.04026 0.0
C1605 C 0.41211 0.53713 0.04248 0.0
C1606 C 0.4348 0.522 0.03167 0.0
C1607 C 0.58511 0.46781 0.05124 0.0
C1608 C 0.57372 0.4474 0.06783 0.0
C1609 C 0.56808 0.48019 0.03283 0.0
C1610 C 0.5393 0.47239 0.03052 0.0
C1611 C 0.52806 0.45129 0.04646 0.0
C1612 C 0.54519 0.43873 0.06488 0.0
C1613 C 0.52069 0.4879 0.01267 0.0
C1614 C 0.49684 0.50256 0.02222 0.0
C1615 C 0.52784 0.49061 0.98695 0.0
C1616 C 0.55179 0.47436 0.97545 0.0
C1617 C 0.5535 0.44452 0.97819 0.0
C1618 C 0.57614 0.42933 0.96738 0.0
C1619 C 0.59713 0.44371 0.95364 0.0
C1620 C 0.59549 0.47331 0.95063 0.0
C1621 C 0.57291 0.48861 0.96143 0.0
H1622 H 0.61463 0.4319 0.94527 0.0
H1623 H 0.39323 0.57852 0.04864 0.0
H1624 H 0.0209 0.91107 0.44436 0.0
H1625 H 0.99585 0.94265 0.47339 0.0
H1626 H 0.0586 0.00845 0.46041 0.0
H1627 H 0.08404 0.97682 0.43107 0.0
H1628 H 0.04201 1.0039 0.51094 0.0
H1629 H 0.99864 0.0139 0.43095 0.0
H1630 H 0.97701 0.9977 0.39132 0.0
H1631 H 0.90839 0.95839 0.43226 0.0
H1632 H 0.92992 0.97389 0.47221 0.0
H1633 H 0.95751 0.11233 0.56507 0.0
H1634 H 0.9834 0.08594 0.53267 0.0
H1635 H 0.92514 0.0152 0.54093 0.0
H1636 H 0.89879 0.04164 0.57332 0.0
H1637 H 0.94073 0.02528 0.49108 0.0
H1638 H 0.98725 0.01425 0.57162 0.0
H1639 H 0.0085 0.03376 0.61032 0.0
H1640 H 0.07164 0.07816 0.56666 0.0
H1641 H 0.05049 0.05924 0.52768 0.0
C1642 C 0.02967 0.93213 0.44782 0.0
C1643 C 0.05438 0.94151 0.43519 0.0
C1644 C 0.01522 0.95018 0.46438 0.0
C1645 C 0.02509 0.97803 0.46868 0.0
C1646 C 0.05057 0.98705 0.4572 0.0
C1647 C 0.06507 0.96896 0.44047 0.0
C1648 C 0.00798 0.99783 0.48442 0.0
C1649 C 0.02001 0.00892 0.50642 0.0
C1650 C 0.97918 1.00415 0.47859 0.0
C1651 C 0.96605 0.99484 0.45461 0.0
C1652 C 0.97907 1.00158 0.43153 0.0
C1653 C 0.9668 0.99257 0.409 0.0
C1654 C 0.94135 0.97701 0.40927 0.0
C1655 C 0.92811 0.97044 0.43208 0.0
C1656 C 0.94034 0.97934 0.45468 0.0
C1657 C 0.94988 0.09132 0.55978 0.0
C1658 C 0.92626 0.07894 0.572 0.0
C1659 C 0.96478 0.07626 0.54128 0.0
C1660 C 0.95652 0.04842 0.53478 0.0
C1661 C 0.93193 0.03663 0.5458 0.0
C1662 C 0.91691 0.05175 0.5643 0.0
C1663 C 0.97462 0.03098 0.51776 0.0
C1664 C 0.96276 0.02032 0.49552 0.0
C1665 C 1.00364 0.02528 0.52326 0.0
C1666 C 0.01713 0.03556 0.54674 0.0
C1667 C 0.00562 0.02823 0.57028 0.0
C1668 C 0.01763 0.0392 0.59226 0.0
C1669 C 0.04131 0.05731 0.59093 0.0
C1670 C 0.05324 0.0642 0.56765 0.0
C1671 C 0.04128 0.05334 0.54561 0.0
H1672 H 0.05042 0.06602 0.60792 0.0
H1673 H 0.93187 0.97008 0.3918 0.0
H1674 H 0.55194 0.063 0.43243 0.0
H1675 H 0.52106 0.0387 0.46291 0.0
H1676 H 0.58893 0.9794 0.47929 0.0
H1677 H 0.61968 1.00326 0.4489 0.0
H1678 H 0.53991 0.95184 0.46955 0.0
H1679 H 0.56952 0.03123 0.52108 0.0
H1680 H 0.57603 0.08213 0.53167 0.0
H1681 H 0.48552 0.09556 0.52707 0.0
H1682 H 0.47849 0.0448 0.51611 0.0
H1683 H 0.48529 0.88368 0.57885 0.0
H1684 H 0.51324 0.90976 0.5475 0.0
H1685 H 0.443 0.96799 0.53662 0.0
H1686 H 0.41516 0.9424 0.56816 0.0
H1687 H 0.49108 0.99683 0.54233 0.0
H1688 H 0.46077 0.9179 0.49203 0.0
H1689 H 0.45348 0.86724 0.48097 0.0
H1690 H 0.54406 0.8532 0.48233 0.0
H1691 H 0.55189 0.90371 0.49374 0.0
C1692 C 0.56041 0.04508 0.44283 0.0
C1693 C 0.58824 0.03502 0.43815 0.0
C1694 C 0.54275 0.0312 0.46024 0.0
C1695 C 0.55268 0.00717 0.47334 0.0
C1696 C 0.58075 0.99776 0.46928 0.0
C1697 C 0.59834 0.01154 0.45194 0.0
C1698 C 0.53362 0.99085 0.49042 0.0
C1699 C 0.5295 0.96161 0.48565 0.0
C1700 C 0.51932 1.00377 0.51094 0.0
C1701 C 0.52352 0.03429 0.5175 0.0
C1702 C 0.55103 0.04509 0.52211 0.0
C1703 C 0.55481 0.07391 0.52822 0.0
C1704 C 0.53121 0.09209 0.52997 0.0
C1705 C 0.50378 0.08147 0.52567 0.0
C1706 C 0.49988 0.05267 0.51952 0.0
C1707 C 0.47564 0.90178 0.56952 0.0
C1708 C 0.448 0.91095 0.57605 0.0
C1709 C 0.49163 0.91667 0.55158 0.0
C1710 C 0.48018 0.94081 0.53963 0.0
C1711 C 0.45233 0.94952 0.54565 0.0
C1712 C 0.43639 0.93474 0.56363 0.0
C1713 C 0.49763 0.95771 0.52164 0.0
C1714 C 0.50141 0.98706 0.52619 0.0
C1715 C 0.51151 0.94493 0.50083 0.0
C1716 C 0.50689 0.91453 0.49398 0.0
C1717 C 0.47913 0.90396 0.49018 0.0
C1718 C 0.4749 0.87528 0.48381 0.0
C1719 C 0.49829 0.857 0.48102 0.0
C1720 C 0.52596 0.86738 0.48453 0.0
C1721 C 0.53031 0.89604 0.49093 0.0
H1722 H 0.49498 0.8348 0.47608 0.0
H1723 H 0.53418 0.11439 0.53471 0.0
H1724 H 0.61077 0.48689 0.55632 0.0
H1725 H 0.58132 0.51775 0.52994 0.0
H1726 H 0.5315 0.4448 0.50697 0.0
H1727 H 0.56115 0.4138 0.53261 0.0
H1728 H 0.53666 0.48338 0.46917 0.0
H1729 H 0.51172 0.48415 0.55788 0.0
H1730 H 0.52509 0.49024 0.60231 0.0
H1731 H 0.54874 0.57737 0.58812 0.0
H1732 H 0.53597 0.57164 0.54351 0.0
H1733 H 0.41004 0.55099 0.43329 0.0
H1734 H 0.44079 0.52059 0.45894 0.0
H1735 H 0.48837 0.59472 0.48272 0.0
H1736 H 0.45751 0.62519 0.45764 0.0
H1737 H 0.48506 0.55618 0.51996 0.0
H1738 H 0.51017 0.55695 0.43244 0.0
H1739 H 0.50064 0.55158 0.38721 0.0
H1740 H 0.47933 0.46326 0.39824 0.0
H1741 H 0.48832 0.46823 0.44364 0.0
C1742 C 0.59409 0.47731 0.54508 0.0
C1743 C 0.58797 0.44799 0.54692 0.0
C1744 C 0.57718 0.49498 0.53012 0.0
C1745 C 0.55376 0.48363 0.51705 0.0
C1746 C 0.5493 0.45403 0.51707 0.0
C1747 C 0.56625 0.43636 0.53185 0.0
C1748 C 0.53202 0.50259 0.50572 0.0
C1749 C 0.5252 0.49912 0.4803 0.0
C1750 C 0.51733 0.52339 0.52021 0.0
C1751 C 0.52313 0.5274 0.54733 0.0
C1752 C 0.51977 0.50461 0.56425 0.0
C1753 C 0.52735 0.50795 0.58943 0.0
C1754 C 0.53798 0.53411 0.59797 0.0
C1755 C 0.54065 0.55708 0.58144 0.0
C1756 C 0.53322 0.55381 0.55621 0.0
C1757 C 0.42646 0.5609 0.4446 0.0
C1758 C 0.43162 0.59043 0.44314 0.0
C1759 C 0.44417 0.54349 0.45909 0.0
C1760 C 0.46731 0.55536 0.47221 0.0
C1761 C 0.47081 0.58509 0.47259 0.0
C1762 C 0.45315 0.60247 0.45817 0.0
C1763 C 0.48953 0.53684 0.48341 0.0
C1764 C 0.49645 0.5404 0.50882 0.0
C1765 C 0.50446 0.51628 0.46885 0.0
C1766 C 0.49964 0.51304 0.44148 0.0
C1767 C 0.5033 0.53643 0.42524 0.0
C1768 C 0.49799 0.53345 0.39957 0.0
C1769 C 0.48929 0.50712 0.38986 0.0
C1770 C 0.48601 0.48366 0.4058 0.0
C1771 C 0.49123 0.48654 0.4315 0.0
H1772 H 0.48516 0.50487 0.36999 0.0
H1773 H 0.54398 0.53661 0.61744 0.0
H1774 H 0.91275 0.42666 0.46046 0.0
H1775 H 0.94425 0.45729 0.48481 0.0
H1776 H 0.01709 0.42397 0.44444 0.0
H1777 H 0.98541 0.39354 0.41945 0.0
H1778 H 0.98879 0.45532 0.51493 0.0
H1779 H 0.06112 0.48296 0.42931 0.0
H1780 H 0.05962 0.48179 0.38314 0.0
H1781 H 0.96802 0.48532 0.38524 0.0
H1782 H 0.96902 0.48776 0.43143 0.0
H1783 H 0.11755 0.54584 0.52797 0.0
H1784 H 0.08944 0.51611 0.49966 0.0
H1785 H 0.0124 0.55756 0.52527 0.0
H1786 H 0.04034 0.5873 0.55394 0.0
H1787 H 0.04392 0.52282 0.46166 0.0
H1788 H 0.97258 0.50912 0.5445 0.0
H1789 H 0.97471 0.51975 0.58984 0.0
H1790 H 0.0623 0.49276 0.59158 0.0
H1791 H 0.06075 0.48241 0.54615 0.0
C1792 C 0.93556 0.42525 0.4572 0.0
C1793 C 0.9466 0.40807 0.43776 0.0
C1794 C 0.95356 0.44277 0.47119 0.0
C1795 C 0.9829 0.44348 0.46597 0.0
C1796 C 0.99438 0.42414 0.44839 0.0
C1797 C 0.97631 0.40655 0.4343 0.0
C1798 C 1.00059 0.46654 0.477 0.0
C1799 C 1.00072 0.47002 0.50318 0.0
C1800 C 0.01612 0.486 0.46174 0.0
C1801 C 0.01516 0.48496 0.4339 0.0
C1802 C 0.04066 0.48356 0.41993 0.0
C1803 C 0.03989 0.48272 0.39373 0.0
C1804 C 0.01372 0.48313 0.38124 0.0
C1805 C 0.98827 0.4848 0.39493 0.0
C1806 C 0.98894 0.486 0.42114 0.0
C1807 C 0.09469 0.54923 0.52709 0.0
C1808 C 0.08104 0.56848 0.54354 0.0
C1809 C 0.07872 0.53235 0.51075 0.0
C1810 C 0.04891 0.5344 0.51073 0.0
C1811 C 0.03545 0.55561 0.52523 0.0
C1812 C 0.05143 0.57259 0.54157 0.0
C1813 C 0.03197 0.51125 0.49924 0.0
C1814 C 0.03204 0.50783 0.47316 0.0
C1815 C 0.01636 0.49205 0.51442 0.0
C1816 C 0.01645 0.49481 0.54208 0.0
C1817 C 0.99211 0.50499 0.55469 0.0
C1818 C 0.9933 0.5112 0.58033 0.0
C1819 C 0.01862 0.50688 0.5936 0.0
C1820 C 0.04272 0.49608 0.5813 0.0
C1821 C 0.0417 0.49008 0.55561 0.0
H1822 H 0.0196 0.51198 0.6134 0.0
H1823 H 0.01317 0.48232 0.36095 0.0
loop_
_geom_bond_atom_site_label_1
_geom_bond_atom_site_label_2
_geom_bond_distance
_geom_bond_site_symmetry_2
_ccdc_geom_bond_type
C0 O2 1.247 . S
C0 O4 1.258 . S
C1 O8 1.247 . S
C1 O9 1.258 . S
O2 C0 1.247 . S
O2 Zn3 2.028 . S
Zn3 O2 2.028 . S
Zn3 O7 2.035 . S
Zn3 O9 2.035 . S
Zn3 O10 2.028 . S
O4 C0 1.258 . S
O4 Zn5 2.035 . S
Zn5 O4 2.035 . S
Zn5 O6 2.028 . S
Zn5 O8 2.028 . S
Zn5 O11 2.035 . S
O6 Zn5 2.028 . S
O6 C12 1.247 . S
O7 Zn3 2.035 . S
O7 C12 1.258 . S
O8 C1 1.247 . S
O8 Zn5 2.028 . S
O9 C1 1.258 . S
O9 Zn3 2.035 . S
O10 Zn3 2.028 . S
O10 C13 1.247 . S
O11 Zn5 2.035 . S
O11 C13 1.258 . S
C12 O6 1.247 . S
C12 O7 1.258 . S
C13 O10 1.247 . S
C13 O11 1.258 . S
C14 O16 1.247 . S
C14 O18 1.258 . S
C15 O22 1.247 . S
C15 O23 1.258 . S
O16 C14 1.247 . S
O16 Zn17 2.028 . S
Zn17 O16 2.028 . S
Zn17 O21 2.035 . S
Zn17 O23 2.035 . S
Zn17 O24 2.028 . S
O18 C14 1.258 . S
O18 Zn19 2.035 . S
Zn19 O18 2.035 . S
Zn19 O20 2.028 . S
Zn19 O22 2.028 . S
Zn19 O25 2.035 . S
O20 Zn19 2.028 . S
O20 C26 1.247 . S
O21 Zn17 2.035 . S
O21 C26 1.258 . S
O22 C15 1.247 . S
O22 Zn19 2.028 . S
O23 C15 1.258 . S
O23 Zn17 2.035 . S
O24 Zn17 2.028 . S
O24 C27 1.247 . S
O25 Zn19 2.035 . S
O25 C27 1.258 . S
C26 O20 1.247 . S
C26 O21 1.258 . S
C27 O24 1.247 . S
C27 O25 1.258 . S
C28 O30 1.247 . S
C28 O32 1.258 . S
C29 O36 1.247 . S
C29 O37 1.258 . S
O30 C28 1.247 . S
O30 Zn31 2.028 . S
Zn31 O30 2.028 . S
Zn31 O35 2.035 . S
Zn31 O37 2.035 . S
Zn31 O38 2.028 . S
O32 C28 1.258 . S
O32 Zn33 2.035 . S
Zn33 O32 2.035 . S
Zn33 O34 2.028 . S
Zn33 O36 2.028 . S
Zn33 O39 2.035 . S
O34 Zn33 2.028 . S
O34 C40 1.247 . S
O35 Zn31 2.035 . S
O35 C40 1.258 . S
O36 C29 1.247 . S
O36 Zn33 2.028 . S
O37 C29 1.258 . S
O37 Zn31 2.035 . S
O38 Zn31 2.028 . S
O38 C41 1.247 . S
O39 Zn33 2.035 . S
O39 C41 1.258 . S
C40 O34 1.247 . S
C40 O35 1.258 . S
C41 O38 1.247 . S
C41 O39 1.258 . S
C42 O44 1.247 . S
C42 O46 1.258 . S
C43 O50 1.247 . S
C43 O51 1.258 . S
O44 C42 1.247 . S
O44 Zn45 2.028 . S
Zn45 O44 2.028 . S
Zn45 O49 2.035 . S
Zn45 O51 2.035 . S
Zn45 O52 2.028 . S
O46 C42 1.258 . S
O46 Zn47 2.035 . S
Zn47 O46 2.035 . S
Zn47 O48 2.028 . S
Zn47 O50 2.028 . S
Zn47 O53 2.035 . S
O48 Zn47 2.028 . S
O48 C54 1.247 . S
O49 Zn45 2.035 . S
O49 C54 1.258 . S
O50 C43 1.247 . S
O50 Zn47 2.028 . S
O51 C43 1.258 . S
O51 Zn45 2.035 . S
O52 Zn45 2.028 . S
O52 C55 1.247 . S
O53 Zn47 2.035 . S
O53 C55 1.258 . S
C54 O48 1.247 . S
C54 O49 1.258 . S
C55 O52 1.247 . S
C55 O53 1.258 . S
C56 O58 1.247 . S
C56 O60 1.258 . S
C57 O64 1.247 . S
C57 O65 1.258 . S
O58 C56 1.247 . S
O58 Zn59 2.028 . S
Zn59 O58 2.028 . S
Zn59 O63 2.035 . S
Zn59 O65 2.035 . S
Zn59 O66 2.028 . S
O60 C56 1.258 . S
O60 Zn61 2.035 . S
Zn61 O60 2.035 . S
Zn61 O62 2.028 . S
Zn61 O64 2.028 . S
Zn61 O67 2.035 . S
O62 Zn61 2.028 . S
O62 C68 1.247 . S
O63 Zn59 2.035 . S
O63 C68 1.258 . S
O64 C57 1.247 . S
O64 Zn61 2.028 . S
O65 C57 1.258 . S
O65 Zn59 2.035 . S
O66 Zn59 2.028 . S
O66 C69 1.247 . S
O67 Zn61 2.035 . S
O67 C69 1.258 . S
C68 O62 1.247 . S
C68 O63 1.258 . S
C69 O66 1.247 . S
C69 O67 1.258 . S
C70 O72 1.247 . S
C70 O74 1.258 . S
C71 O78 1.247 . S
C71 O79 1.258 . S
O72 C70 1.247 . S
O72 Zn73 2.028 . S
Zn73 O72 2.028 . S
Zn73 O77 2.035 . S
Zn73 O79 2.035 . S
Zn73 O80 2.028 . S
O74 C70 1.258 . S
O74 Zn75 2.035 . S
Zn75 O74 2.035 . S
Zn75 O76 2.028 . S
Zn75 O78 2.028 . S
Zn75 O81 2.035 . S
O76 Zn75 2.028 . S
O76 C82 1.247 . S
O77 Zn73 2.035 . S
O77 C82 1.258 . S
O78 C71 1.247 . S
O78 Zn75 2.028 . S
O79 C71 1.258 . S
O79 Zn73 2.035 . S
O80 Zn73 2.028 . S
O80 C83 1.247 . S
O81 Zn75 2.035 . S
O81 C83 1.258 . S
C82 O76 1.247 . S
C82 O77 1.258 . S
C83 O80 1.247 . S
C83 O81 1.258 . S
C84 O86 1.247 . S
C84 O88 1.258 . S
C85 O92 1.247 . S
C85 O93 1.258 . S
O86 C84 1.247 . S
O86 Zn87 2.028 . S
Zn87 O86 2.028 . S
Zn87 O91 2.035 . S
Zn87 O93 2.035 . S
Zn87 O94 2.028 . S
O88 C84 1.258 . S
O88 Zn89 2.035 . S
Zn89 O88 2.035 . S
Zn89 O90 2.028 . S
Zn89 O92 2.028 . S
Zn89 O95 2.035 . S
O90 Zn89 2.028 . S
O90 C96 1.247 . S
O91 Zn87 2.035 . S
O91 C96 1.258 . S
O92 C85 1.247 . S
O92 Zn89 2.028 . S
O93 C85 1.258 . S
O93 Zn87 2.035 . S
O94 Zn87 2.028 . S
O94 C97 1.247 . S
O95 Zn89 2.035 . S
O95 C97 1.258 . S
C96 O90 1.247 . S
C96 O91 1.258 . S
C97 O94 1.247 . S
C97 O95 1.258 . S
C98 O100 1.247 . S
C98 O102 1.258 . S
C99 O106 1.247 . S
C99 O107 1.258 . S
O100 C98 1.247 . S
O100 Zn101 2.028 . S
Zn101 O100 2.028 . S
Zn101 O105 2.035 . S
Zn101 O107 2.035 . S
Zn101 O108 2.028 . S
O102 C98 1.258 . S
O102 Zn103 2.035 . S
Zn103 O102 2.035 . S
Zn103 O104 2.028 . S
Zn103 O106 2.028 . S
Zn103 O109 2.035 . S
O104 Zn103 2.028 . S
O104 C110 1.247 . S
O105 Zn101 2.035 . S
O105 C110 1.258 . S
O106 C99 1.247 . S
O106 Zn103 2.028 . S
O107 C99 1.258 . S
O107 Zn101 2.035 . S
O108 Zn101 2.028 . S
O108 C111 1.247 . S
O109 Zn103 2.035 . S
O109 C111 1.258 . S
C110 O104 1.247 . S
C110 O105 1.258 . S
C111 O108 1.247 . S
C111 O109 1.258 . S
C112 O114 1.247 . S
C112 O116 1.258 . S
C113 O120 1.247 . S
C113 O121 1.258 . S
O114 C112 1.247 . S
O114 Zn115 2.028 . S
Zn115 O114 2.028 . S
Zn115 O119 2.035 . S
Zn115 O121 2.035 . S
Zn115 O122 2.028 . S
O116 C112 1.258 . S
O116 Zn117 2.035 . S
Zn117 O116 2.035 . S
Zn117 O118 2.028 . S
Zn117 O120 2.028 . S
Zn117 O123 2.035 . S
O118 Zn117 2.028 . S
O118 C124 1.247 . S
O119 Zn115 2.035 . S
O119 C124 1.258 . S
O120 C113 1.247 . S
O120 Zn117 2.028 . S
O121 C113 1.258 . S
O121 Zn115 2.035 . S
O122 Zn115 2.028 . S
O122 C125 1.247 . S
O123 Zn117 2.035 . S
O123 C125 1.258 . S
C124 O118 1.247 . S
C124 O119 1.258 . S
C125 O122 1.247 . S
C125 O123 1.258 . S
C126 O128 1.247 . S
C126 O130 1.258 . S
C127 O134 1.247 . S
C127 O135 1.258 . S
O128 C126 1.247 . S
O128 Zn129 2.028 . S
Zn129 O128 2.028 . S
Zn129 O133 2.035 . S
Zn129 O135 2.035 . S
Zn129 O136 2.028 . S
O130 C126 1.258 . S
O130 Zn131 2.035 . S
Zn131 O130 2.035 . S
Zn131 O132 2.028 . S
Zn131 O134 2.028 . S
Zn131 O137 2.035 . S
O132 Zn131 2.028 . S
O132 C138 1.247 . S
O133 Zn129 2.035 . S
O133 C138 1.258 . S
O134 C127 1.247 . S
O134 Zn131 2.028 . S
O135 C127 1.258 . S
O135 Zn129 2.035 . S
O136 Zn129 2.028 . S
O136 C139 1.247 . S
O137 Zn131 2.035 . S
O137 C139 1.258 . S
C138 O132 1.247 . S
C138 O133 1.258 . S
C139 O136 1.247 . S
C139 O137 1.258 . S
C140 O142 1.247 . S
C140 O144 1.258 . S
C141 O148 1.247 . S
C141 O149 1.258 . S
O142 C140 1.247 . S
O142 Zn143 2.028 . S
Zn143 O142 2.028 . S
Zn143 O147 2.035 . S
Zn143 O149 2.035 . S
Zn143 O150 2.028 . S
O144 C140 1.258 . S
O144 Zn145 2.035 . S
Zn145 O144 2.035 . S
Zn145 O146 2.028 . S
Zn145 O148 2.028 . S
Zn145 O151 2.035 . S
O146 Zn145 2.028 . S
O146 C152 1.247 . S
O147 Zn143 2.035 . S
O147 C152 1.258 . S
O148 C141 1.247 . S
O148 Zn145 2.028 . S
O149 C141 1.258 . S
O149 Zn143 2.035 . S
O150 Zn143 2.028 . S
O150 C153 1.247 . S
O151 Zn145 2.035 . S
O151 C153 1.258 . S
C152 O146 1.247 . S
C152 O147 1.258 . S
C153 O150 1.247 . S
C153 O151 1.258 . S
C154 O156 1.247 . S
C154 O158 1.258 . S
C155 O162 1.247 . S
C155 O163 1.258 . S
O156 C154 1.247 . S
O156 Zn157 2.028 . S
Zn157 O156 2.028 . S
Zn157 O161 2.035 . S
Zn157 O163 2.035 . S
Zn157 O164 2.028 . S
O158 C154 1.258 . S
O158 Zn159 2.035 . S
Zn159 O158 2.035 . S
Zn159 O160 2.028 . S
Zn159 O162 2.028 . S
Zn159 O165 2.035 . S
O160 Zn159 2.028 . S
O160 C166 1.247 . S
O161 Zn157 2.035 . S
O161 C166 1.258 . S
O162 C155 1.247 . S
O162 Zn159 2.028 . S
O163 C155 1.258 . S
O163 Zn157 2.035 . S
O164 Zn157 2.028 . S
O164 C167 1.247 . S
O165 Zn159 2.035 . S
O165 C167 1.258 . S
C166 O160 1.247 . S
C166 O161 1.258 . S
C167 O164 1.247 . S
C167 O165 1.258 . S
C168 O170 1.247 . S
C168 O172 1.258 . S
C169 O176 1.247 . S
C169 O177 1.258 . S
O170 C168 1.247 . S
O170 Zn171 2.028 . S
Zn171 O170 2.028 . S
Zn171 O175 2.035 . S
Zn171 O177 2.035 . S
Zn171 O178 2.028 . S
O172 C168 1.258 . S
O172 Zn173 2.035 . S
Zn173 O172 2.035 . S
Zn173 O174 2.028 . S
Zn173 O176 2.028 . S
Zn173 O179 2.035 . S
O174 Zn173 2.028 . S
O174 C180 1.247 . S
O175 Zn171 2.035 . S
O175 C180 1.258 . S
O176 C169 1.247 . S
O176 Zn173 2.028 . S
O177 C169 1.258 . S
O177 Zn171 2.035 . S
O178 Zn171 2.028 . S
O178 C181 1.247 . S
O179 Zn173 2.035 . S
O179 C181 1.258 . S
C180 O174 1.247 . S
C180 O175 1.258 . S
C181 O178 1.247 . S
C181 O179 1.258 . S
C182 O184 1.247 . S
C182 O186 1.258 . S
C183 O190 1.247 . S
C183 O191 1.258 . S
O184 C182 1.247 . S
O184 Zn185 2.028 . S
Zn185 O184 2.028 . S
Zn185 O189 2.035 . S
Zn185 O191 2.035 . S
Zn185 O192 2.028 . S
O186 C182 1.258 . S
O186 Zn187 2.035 . S
Zn187 O186 2.035 . S
Zn187 O188 2.028 . S
Zn187 O190 2.028 . S
Zn187 O193 2.035 . S
O188 Zn187 2.028 . S
O188 C194 1.247 . S
O189 Zn185 2.035 . S
O189 C194 1.258 . S
O190 C183 1.247 . S
O190 Zn187 2.028 . S
O191 C183 1.258 . S
O191 Zn185 2.035 . S
O192 Zn185 2.028 . S
O192 C195 1.247 . S
O193 Zn187 2.035 . S
O193 C195 1.258 . S
C194 O188 1.247 . S
C194 O189 1.258 . S
C195 O192 1.247 . S
C195 O193 1.258 . S
C196 O198 1.247 . S
C196 O200 1.258 . S
C197 O204 1.247 . S
C197 O205 1.258 . S
O198 C196 1.247 . S
O198 Zn199 2.028 . S
Zn199 O198 2.028 . S
Zn199 O203 2.035 . S
Zn199 O205 2.035 . S
Zn199 O206 2.028 . S
O200 C196 1.258 . S
O200 Zn201 2.035 . S
Zn201 O200 2.035 . S
Zn201 O202 2.028 . S
Zn201 O204 2.028 . S
Zn201 O207 2.035 . S
O202 Zn201 2.028 . S
O202 C208 1.247 . S
O203 Zn199 2.035 . S
O203 C208 1.258 . S
O204 C197 1.247 . S
O204 Zn201 2.028 . S
O205 C197 1.258 . S
O205 Zn199 2.035 . S
O206 Zn199 2.028 . S
O206 C209 1.247 . S
O207 Zn201 2.035 . S
O207 C209 1.258 . S
C208 O202 1.247 . S
C208 O203 1.258 . S
C209 O206 1.247 . S
C209 O207 1.258 . S
C210 O212 1.247 . S
C210 O214 1.258 . S
C211 O218 1.247 . S
C211 O219 1.258 . S
O212 C210 1.247 . S
O212 Zn213 2.028 . S
Zn213 O212 2.028 . S
Zn213 O217 2.035 . S
Zn213 O219 2.035 . S
Zn213 O220 2.028 . S
O214 C210 1.258 . S
O214 Zn215 2.035 . S
Zn215 O214 2.035 . S
Zn215 O216 2.028 . S
Zn215 O218 2.028 . S
Zn215 O221 2.035 . S
O216 Zn215 2.028 . S
O216 C222 1.247 . S
O217 Zn213 2.035 . S
O217 C222 1.258 . S
O218 C211 1.247 . S
O218 Zn215 2.028 . S
O219 C211 1.258 . S
O219 Zn213 2.035 . S
O220 Zn213 2.028 . S
O220 C223 1.247 . S
O221 Zn215 2.035 . S
O221 C223 1.258 . S
C222 O216 1.247 . S
C222 O217 1.258 . S
C223 O220 1.247 . S
C223 O221 1.258 . S
H224 C242 0.951 . S
H225 C244 0.951 . S
H226 C246 0.950 . S
H227 C247 0.950 . S
H228 C249 0.950 . S
H229 C252 0.950 . S
H230 C253 0.950 . S
H231 C255 0.950 . S
H232 C256 0.950 . S
H233 C257 0.951 . S
H234 C259 0.951 . S
H235 C261 0.950 . S
H236 C262 0.950 . S
H237 C264 0.950 . S
H238 C267 0.950 . S
H239 C268 0.950 . S
H240 C270 0.950 . S
H241 C271 0.950 . S
C242 H224 0.951 . S
C242 C243 1.366 . S
C242 C244 1.388 . S
C243 C242 1.366 . S
C243 C247 1.385 . S
C244 H225 0.951 . S
C244 C242 1.388 . S
C244 C245 1.366 . S
C245 C244 1.366 . S
C245 C246 1.414 . S
C245 C248 1.499 . S
C246 H226 0.950 . S
C246 C245 1.414 . S
C246 C247 1.374 . S
C247 H227 0.950 . S
C247 C243 1.385 . S
C247 C246 1.374 . S
C248 C245 1.499 . S
C248 C249 1.373 . S
C248 C250 1.389 . S
C249 H228 0.950 . S
C249 C248 1.373 . S
C249 C265 1.377 . S
C250 C248 1.389 . S
C250 C251 1.524 . S
C250 C264 1.377 . S
C251 C250 1.524 . S
C251 C252 1.397 . S
C251 C256 1.363 . S
C252 H229 0.950 . S
C252 C251 1.397 . S
C252 C253 1.334 . S
C253 H230 0.950 . S
C253 C252 1.334 . S
C253 C254 1.287 . S
C254 C253 1.287 . S
C254 C255 1.524 . S
C254 H273 0.913 . S
C255 H231 0.950 . S
C255 C254 1.524 . S
C255 C256 1.415 . S
C256 H232 0.950 . S
C256 C251 1.363 . S
C256 C255 1.415 . S
C257 H233 0.951 . S
C257 C258 1.366 . S
C257 C259 1.388 . S
C258 C257 1.366 . S
C258 C262 1.385 . S
C259 H234 0.951 . S
C259 C257 1.388 . S
C259 C260 1.366 . S
C260 C259 1.366 . S
C260 C261 1.414 . S
C260 C263 1.499 . S
C261 H235 0.950 . S
C261 C260 1.414 . S
C261 C262 1.374 . S
C262 H236 0.950 . S
C262 C258 1.385 . S
C262 C261 1.374 . S
C263 C260 1.499 . S
C263 C264 1.373 . S
C263 C265 1.389 . S
C264 H237 0.950 . S
C264 C250 1.377 . S
C264 C263 1.373 . S
C265 C249 1.377 . S
C265 C263 1.389 . S
C265 C266 1.524 . S
C266 C265 1.524 . S
C266 C267 1.397 . S
C266 C271 1.363 . S
C267 H238 0.950 . S
C267 C266 1.397 . S
C267 C268 1.334 . S
C268 H239 0.950 . S
C268 C267 1.334 . S
C268 C269 1.287 . S
C269 C268 1.287 . S
C269 C270 1.524 . S
C269 H272 0.999 . S
C270 H240 0.950 . S
C270 C269 1.524 . S
C270 C271 1.415 . S
C271 H241 0.950 . S
C271 C266 1.363 . S
C271 C270 1.415 . S
H272 C269 0.999 . S
H273 C254 0.913 . S
H274 C292 0.951 . S
H275 C294 0.951 . S
H276 C296 0.950 . S
H277 C297 0.950 . S
H278 C299 0.950 . S
H279 C302 0.950 . S
H280 C303 0.950 . S
H281 C305 0.950 . S
H282 C306 0.950 . S
H283 C307 0.951 . S
H284 C309 0.951 . S
H285 C311 0.950 . S
H286 C312 0.950 . S
H287 C314 0.950 . S
H288 C317 0.950 . S
H289 C318 0.950 . S
H290 C320 0.950 . S
H291 C321 0.950 . S
C292 H274 0.951 . S
C292 C293 1.366 . S
C292 C294 1.388 . S
C293 C292 1.366 . S
C293 C297 1.385 . S
C294 H275 0.951 . S
C294 C292 1.388 . S
C294 C295 1.366 . S
C295 C294 1.366 . S
C295 C296 1.414 . S
C295 C298 1.499 . S
C296 H276 0.950 . S
C296 C295 1.414 . S
C296 C297 1.374 . S
C297 H277 0.950 . S
C297 C293 1.385 . S
C297 C296 1.374 . S
C298 C295 1.499 . S
C298 C299 1.373 . S
C298 C300 1.389 . S
C299 H278 0.950 . S
C299 C298 1.373 . S
C299 C315 1.377 . S
C300 C298 1.389 . S
C300 C301 1.524 . S
C300 C314 1.377 . S
C301 C300 1.524 . S
C301 C302 1.397 . S
C301 C306 1.363 . S
C302 H279 0.950 . S
C302 C301 1.397 . S
C302 C303 1.334 . S
C303 H280 0.950 . S
C303 C302 1.334 . S
C303 C304 1.287 . S
C304 C303 1.287 . S
C304 C305 1.524 . S
C304 H323 0.913 . S
C305 H281 0.950 . S
C305 C304 1.524 . S
C305 C306 1.415 . S
C306 H282 0.950 . S
C306 C301 1.363 . S
C306 C305 1.415 . S
C307 H283 0.951 . S
C307 C308 1.366 . S
C307 C309 1.388 . S
C308 C307 1.366 . S
C308 C312 1.385 . S
C309 H284 0.951 . S
C309 C307 1.388 . S
C309 C310 1.366 . S
C310 C309 1.366 . S
C310 C311 1.414 . S
C310 C313 1.499 . S
C311 H285 0.950 . S
C311 C310 1.414 . S
C311 C312 1.374 . S
C312 H286 0.950 . S
C312 C308 1.385 . S
C312 C311 1.374 . S
C313 C310 1.499 . S
C313 C314 1.373 . S
C313 C315 1.389 . S
C314 H287 0.950 . S
C314 C300 1.377 . S
C314 C313 1.373 . S
C315 C299 1.377 . S
C315 C313 1.389 . S
C315 C316 1.524 . S
C316 C315 1.524 . S
C316 C317 1.397 . S
C316 C321 1.363 . S
C317 H288 0.950 . S
C317 C316 1.397 . S
C317 C318 1.334 . S
C318 H289 0.950 . S
C318 C317 1.334 . S
C318 C319 1.287 . S
C319 C318 1.287 . S
C319 C320 1.524 . S
C319 H322 0.999 . S
C320 H290 0.950 . S
C320 C319 1.524 . S
C320 C321 1.415 . S
C321 H291 0.950 . S
C321 C316 1.363 . S
C321 C320 1.415 . S
H322 C319 0.999 . S
H323 C304 0.913 . S
H324 C342 0.951 . S
H325 C344 0.951 . S
H326 C346 0.950 . S
H327 C347 0.950 . S
H328 C349 0.950 . S
H329 C352 0.950 . S
H330 C353 0.950 . S
H331 C355 0.950 . S
H332 C356 0.950 . S
H333 C357 0.951 . S
H334 C359 0.951 . S
H335 C361 0.950 . S
H336 C362 0.950 . S
H337 C364 0.950 . S
H338 C367 0.950 . S
H339 C368 0.950 . S
H340 C370 0.950 . S
H341 C371 0.950 . S
C342 H324 0.951 . S
C342 C343 1.366 . S
C342 C344 1.388 . S
C343 C342 1.366 . S
C343 C347 1.385 . S
C344 H325 0.951 . S
C344 C342 1.388 . S
C344 C345 1.366 . S
C345 C344 1.366 . S
C345 C346 1.414 . S
C345 C348 1.499 . S
C346 H326 0.950 . S
C346 C345 1.414 . S
C346 C347 1.374 . S
C347 H327 0.950 . S
C347 C343 1.385 . S
C347 C346 1.374 . S
C348 C345 1.499 . S
C348 C349 1.373 . S
C348 C350 1.389 . S
C349 H328 0.950 . S
C349 C348 1.373 . S
C349 C365 1.377 . S
C350 C348 1.389 . S
C350 C351 1.524 . S
C350 C364 1.377 . S
C351 C350 1.524 . S
C351 C352 1.397 . S
C351 C356 1.363 . S
C352 H329 0.950 . S
C352 C351 1.397 . S
C352 C353 1.334 . S
C353 H330 0.950 . S
C353 C352 1.334 . S
C353 C354 1.287 . S
C354 C353 1.287 . S
C354 C355 1.524 . S
C354 H373 0.913 . S
C355 H331 0.950 . S
C355 C354 1.524 . S
C355 C356 1.415 . S
C356 H332 0.950 . S
C356 C351 1.363 . S
C356 C355 1.415 . S
C357 H333 0.951 . S
C357 C358 1.366 . S
C357 C359 1.388 . S
C358 C357 1.366 . S
C358 C362 1.385 . S
C359 H334 0.951 . S
C359 C357 1.388 . S
C359 C360 1.366 . S
C360 C359 1.366 . S
C360 C361 1.414 . S
C360 C363 1.499 . S
C361 H335 0.950 . S
C361 C360 1.414 . S
C361 C362 1.374 . S
C362 H336 0.950 . S
C362 C358 1.385 . S
C362 C361 1.374 . S
C363 C360 1.499 . S
C363 C364 1.373 . S
C363 C365 1.389 . S
C364 H337 0.950 . S
C364 C350 1.377 . S
C364 C363 1.373 . S
C365 C349 1.377 . S
C365 C363 1.389 . S
C365 C366 1.524 . S
C366 C365 1.524 . S
C366 C367 1.397 . S
C366 C371 1.363 . S
C367 H338 0.950 . S
C367 C366 1.397 . S
C367 C368 1.334 . S
C368 H339 0.950 . S
C368 C367 1.334 . S
C368 C369 1.287 . S
C369 C368 1.287 . S
C369 C370 1.524 . S
C369 H372 0.999 . S
C370 H340 0.950 . S
C370 C369 1.524 . S
C370 C371 1.415 . S
C371 H341 0.950 . S
C371 C366 1.363 . S
C371 C370 1.415 . S
H372 C369 0.999 . S
H373 C354 0.913 . S
H374 C392 0.951 . S
H375 C394 0.951 . S
H376 C396 0.950 . S
H377 C397 0.950 . S
H378 C399 0.950 . S
H379 C402 0.950 . S
H380 C403 0.950 . S
H381 C405 0.950 . S
H382 C406 0.950 . S
H383 C407 0.951 . S
H384 C409 0.951 . S
H385 C411 0.950 . S
H386 C412 0.950 . S
H387 C414 0.950 . S
H388 C417 0.950 . S
H389 C418 0.950 . S
H390 C420 0.950 . S
H391 C421 0.950 . S
C392 H374 0.951 . S
C392 C393 1.366 . S
C392 C394 1.388 . S
C393 C392 1.366 . S
C393 C397 1.385 . S
C394 H375 0.951 . S
C394 C392 1.388 . S
C394 C395 1.366 . S
C395 C394 1.366 . S
C395 C396 1.414 . S
C395 C398 1.499 . S
C396 H376 0.950 . S
C396 C395 1.414 . S
C396 C397 1.374 . S
C397 H377 0.950 . S
C397 C393 1.385 . S
C397 C396 1.374 . S
C398 C395 1.499 . S
C398 C399 1.373 . S
C398 C400 1.389 . S
C399 H378 0.950 . S
C399 C398 1.373 . S
C399 C415 1.377 . S
C400 C398 1.389 . S
C400 C401 1.524 . S
C400 C414 1.377 . S
C401 C400 1.524 . S
C401 C402 1.397 . S
C401 C406 1.363 . S
C402 H379 0.950 . S
C402 C401 1.397 . S
C402 C403 1.334 . S
C403 H380 0.950 . S
C403 C402 1.334 . S
C403 C404 1.287 . S
C404 C403 1.287 . S
C404 C405 1.524 . S
C404 H423 0.913 . S
C405 H381 0.950 . S
C405 C404 1.524 . S
C405 C406 1.415 . S
C406 H382 0.950 . S
C406 C401 1.363 . S
C406 C405 1.415 . S
C407 H383 0.951 . S
C407 C408 1.366 . S
C407 C409 1.388 . S
C408 C407 1.366 . S
C408 C412 1.385 . S
C409 H384 0.951 . S
C409 C407 1.388 . S
C409 C410 1.366 . S
C410 C409 1.366 . S
C410 C411 1.414 . S
C410 C413 1.499 . S
C411 H385 0.950 . S
C411 C410 1.414 . S
C411 C412 1.374 . S
C412 H386 0.950 . S
C412 C408 1.385 . S
C412 C411 1.374 . S
C413 C410 1.499 . S
C413 C414 1.373 . S
C413 C415 1.389 . S
C414 H387 0.950 . S
C414 C400 1.377 . S
C414 C413 1.373 . S
C415 C399 1.377 . S
C415 C413 1.389 . S
C415 C416 1.524 . S
C416 C415 1.524 . S
C416 C417 1.397 . S
C416 C421 1.363 . S
C417 H388 0.950 . S
C417 C416 1.397 . S
C417 C418 1.334 . S
C418 H389 0.950 . S
C418 C417 1.334 . S
C418 C419 1.287 . S
C419 C418 1.287 . S
C419 C420 1.524 . S
C419 H422 0.999 . S
C420 H390 0.950 . S
C420 C419 1.524 . S
C420 C421 1.415 . S
C421 H391 0.950 . S
C421 C416 1.363 . S
C421 C420 1.415 . S
H422 C419 0.999 . S
H423 C404 0.913 . S
H424 C442 0.951 . S
H425 C444 0.951 . S
H426 C446 0.950 . S
H427 C447 0.950 . S
H428 C449 0.950 . S
H429 C452 0.950 . S
H430 C453 0.950 . S
H431 C455 0.950 . S
H432 C456 0.950 . S
H433 C457 0.951 . S
H434 C459 0.951 . S
H435 C461 0.950 . S
H436 C462 0.950 . S
H437 C464 0.950 . S
H438 C467 0.950 . S
H439 C468 0.950 . S
H440 C470 0.950 . S
H441 C471 0.950 . S
C442 H424 0.951 . S
C442 C443 1.366 . S
C442 C444 1.388 . S
C443 C442 1.366 . S
C443 C447 1.385 . S
C444 H425 0.951 . S
C444 C442 1.388 . S
C444 C445 1.366 . S
C445 C444 1.366 . S
C445 C446 1.414 . S
C445 C448 1.499 . S
C446 H426 0.950 . S
C446 C445 1.414 . S
C446 C447 1.374 . S
C447 H427 0.950 . S
C447 C443 1.385 . S
C447 C446 1.374 . S
C448 C445 1.499 . S
C448 C449 1.373 . S
C448 C450 1.389 . S
C449 H428 0.950 . S
C449 C448 1.373 . S
C449 C465 1.377 . S
C450 C448 1.389 . S
C450 C451 1.524 . S
C450 C464 1.377 . S
C451 C450 1.524 . S
C451 C452 1.397 . S
C451 C456 1.363 . S
C452 H429 0.950 . S
C452 C451 1.397 . S
C452 C453 1.334 . S
C453 H430 0.950 . S
C453 C452 1.334 . S
C453 C454 1.287 . S
C454 C453 1.287 . S
C454 C455 1.524 . S
C454 H473 0.913 . S
C455 H431 0.950 . S
C455 C454 1.524 . S
C455 C456 1.415 . S
C456 H432 0.950 . S
C456 C451 1.363 . S
C456 C455 1.415 . S
C457 H433 0.951 . S
C457 C458 1.366 . S
C457 C459 1.388 . S
C458 C457 1.366 . S
C458 C462 1.385 . S
C459 H434 0.951 . S
C459 C457 1.388 . S
C459 C460 1.366 . S
C460 C459 1.366 . S
C460 C461 1.414 . S
C460 C463 1.499 . S
C461 H435 0.950 . S
C461 C460 1.414 . S
C461 C462 1.374 . S
C462 H436 0.950 . S
C462 C458 1.385 . S
C462 C461 1.374 . S
C463 C460 1.499 . S
C463 C464 1.373 . S
C463 C465 1.389 . S
C464 H437 0.950 . S
C464 C450 1.377 . S
C464 C463 1.373 . S
C465 C449 1.377 . S
C465 C463 1.389 . S
C465 C466 1.524 . S
C466 C465 1.524 . S
C466 C467 1.397 . S
C466 C471 1.363 . S
C467 H438 0.950 . S
C467 C466 1.397 . S
C467 C468 1.334 . S
C468 H439 0.950 . S
C468 C467 1.334 . S
C468 C469 1.287 . S
C469 C468 1.287 . S
C469 C470 1.524 . S
C469 H472 0.999 . S
C470 H440 0.950 . S
C470 C469 1.524 . S
C470 C471 1.415 . S
C471 H441 0.950 . S
C471 C466 1.363 . S
C471 C470 1.415 . S
H472 C469 0.999 . S
H473 C454 0.913 . S
H474 C492 0.951 . S
H475 C494 0.951 . S
H476 C496 0.950 . S
H477 C497 0.950 . S
H478 C499 0.950 . S
H479 C502 0.950 . S
H480 C503 0.950 . S
H481 C505 0.950 . S
H482 C506 0.950 . S
H483 C507 0.951 . S
H484 C509 0.951 . S
H485 C511 0.950 . S
H486 C512 0.950 . S
H487 C514 0.950 . S
H488 C517 0.950 . S
H489 C518 0.950 . S
H490 C520 0.950 1_554 S
H491 C521 0.950 . S
C492 H474 0.951 . S
C492 C493 1.366 . S
C492 C494 1.388 . S
C493 C492 1.366 . S
C493 C497 1.385 . S
C494 H475 0.951 . S
C494 C492 1.388 . S
C494 C495 1.366 . S
C495 C494 1.366 . S
C495 C496 1.414 . S
C495 C498 1.499 . S
C496 H476 0.950 . S
C496 C495 1.414 . S
C496 C497 1.374 . S
C497 H477 0.950 . S
C497 C493 1.385 . S
C497 C496 1.374 . S
C498 C495 1.499 . S
C498 C499 1.373 . S
C498 C500 1.389 . S
C499 H478 0.950 . S
C499 C498 1.373 . S
C499 C515 1.377 . S
C500 C498 1.389 . S
C500 C501 1.524 . S
C500 C514 1.377 . S
C501 C500 1.524 . S
C501 C502 1.397 . S
C501 C506 1.363 . S
C502 H479 0.950 . S
C502 C501 1.397 . S
C502 C503 1.334 . S
C503 H480 0.950 . S
C503 C502 1.334 . S
C503 C504 1.287 . S
C504 C503 1.287 . S
C504 C505 1.524 . S
C504 H523 0.913 . S
C505 H481 0.950 . S
C505 C504 1.524 . S
C505 C506 1.415 . S
C506 H482 0.950 . S
C506 C501 1.363 . S
C506 C505 1.415 . S
C507 H483 0.951 . S
C507 C508 1.366 . S
C507 C509 1.388 . S
C508 C507 1.366 . S
C508 C512 1.385 . S
C509 H484 0.951 . S
C509 C507 1.388 . S
C509 C510 1.366 . S
C510 C509 1.366 . S
C510 C511 1.414 . S
C510 C513 1.499 . S
C511 H485 0.950 . S
C511 C510 1.414 . S
C511 C512 1.374 . S
C512 H486 0.950 . S
C512 C508 1.385 . S
C512 C511 1.374 . S
C513 C510 1.499 . S
C513 C514 1.373 . S
C513 C515 1.389 . S
C514 H487 0.950 . S
C514 C500 1.377 . S
C514 C513 1.373 . S
C515 C499 1.377 . S
C515 C513 1.389 . S
C515 C516 1.524 . S
C516 C515 1.524 . S
C516 C517 1.397 . S
C516 C521 1.363 . S
C517 H488 0.950 . S
C517 C516 1.397 . S
C517 C518 1.334 . S
C518 H489 0.950 . S
C518 C517 1.334 . S
C518 C519 1.287 . S
C519 C518 1.287 . S
C519 C520 1.524 . S
C519 H522 0.999 1_556 S
C520 H490 0.950 1_556 S
C520 C519 1.524 . S
C520 C521 1.415 . S
C521 H491 0.950 . S
C521 C516 1.363 . S
C521 C520 1.415 . S
H522 C519 0.999 1_554 S
H523 C504 0.913 . S
H524 C542 0.951 . S
H525 C544 0.951 . S
H526 C546 0.950 . S
H527 C547 0.950 . S
H528 C549 0.950 . S
H529 C552 0.950 . S
H530 C553 0.950 . S
H531 C555 0.950 . S
H532 C556 0.950 . S
H533 C557 0.951 . S
H534 C559 0.951 . S
H535 C561 0.950 . S
H536 C562 0.950 . S
H537 C564 0.950 . S
H538 C567 0.950 . S
H539 C568 0.950 . S
H540 C570 0.950 . S
H541 C571 0.950 . S
C542 H524 0.951 . S
C542 C543 1.366 . S
C542 C544 1.388 . S
C543 C542 1.366 . S
C543 C547 1.385 . S
C544 H525 0.951 . S
C544 C542 1.388 . S
C544 C545 1.366 . S
C545 C544 1.366 . S
C545 C546 1.414 . S
C545 C548 1.499 . S
C546 H526 0.950 . S
C546 C545 1.414 . S
C546 C547 1.374 . S
C547 H527 0.950 . S
C547 C543 1.385 . S
C547 C546 1.374 . S
C548 C545 1.499 . S
C548 C549 1.373 . S
C548 C550 1.389 . S
C549 H528 0.950 . S
C549 C548 1.373 . S
C549 C565 1.377 . S
C550 C548 1.389 . S
C550 C551 1.524 . S
C550 C564 1.377 . S
C551 C550 1.524 . S
C551 C552 1.397 . S
C551 C556 1.363 . S
C552 H529 0.950 . S
C552 C551 1.397 . S
C552 C553 1.334 . S
C553 H530 0.950 . S
C553 C552 1.334 . S
C553 C554 1.287 . S
C554 C553 1.287 . S
C554 C555 1.524 . S
C554 H573 0.913 . S
C555 H531 0.950 . S
C555 C554 1.524 . S
C555 C556 1.415 . S
C556 H532 0.950 . S
C556 C551 1.363 . S
C556 C555 1.415 . S
C557 H533 0.951 . S
C557 C558 1.366 . S
C557 C559 1.388 . S
C558 C557 1.366 . S
C558 C562 1.385 . S
C559 H534 0.951 . S
C559 C557 1.388 . S
C559 C560 1.366 . S
C560 C559 1.366 . S
C560 C561 1.414 . S
C560 C563 1.499 . S
C561 H535 0.950 . S
C561 C560 1.414 . S
C561 C562 1.374 . S
C562 H536 0.950 . S
C562 C558 1.385 . S
C562 C561 1.374 . S
C563 C560 1.499 . S
C563 C564 1.373 . S
C563 C565 1.389 . S
C564 H537 0.950 . S
C564 C550 1.377 . S
C564 C563 1.373 . S
C565 C549 1.377 . S
C565 C563 1.389 . S
C565 C566 1.524 . S
C566 C565 1.524 . S
C566 C567 1.397 . S
C566 C571 1.363 . S
C567 H538 0.950 . S
C567 C566 1.397 . S
C567 C568 1.334 . S
C568 H539 0.950 . S
C568 C567 1.334 . S
C568 C569 1.287 . S
C569 C568 1.287 . S
C569 C570 1.524 . S
C569 H572 0.999 . S
C570 H540 0.950 . S
C570 C569 1.524 . S
C570 C571 1.415 . S
C571 H541 0.950 . S
C571 C566 1.363 . S
C571 C570 1.415 . S
H572 C569 0.999 . S
H573 C554 0.913 . S
H574 C592 0.951 . S
H575 C594 0.951 . S
H576 C596 0.950 . S
H577 C597 0.950 . S
H578 C599 0.950 . S
H579 C602 0.950 . S
H580 C603 0.950 . S
H581 C605 0.950 . S
H582 C606 0.950 . S
H583 C607 0.951 . S
H584 C609 0.951 . S
H585 C611 0.950 . S
H586 C612 0.950 . S
H587 C614 0.950 . S
H588 C617 0.950 . S
H589 C618 0.950 . S
H590 C620 0.950 . S
H591 C621 0.950 . S
C592 H574 0.951 . S
C592 C593 1.366 . S
C592 C594 1.388 . S
C593 C592 1.366 . S
C593 C597 1.385 . S
C594 H575 0.951 . S
C594 C592 1.388 . S
C594 C595 1.366 . S
C595 C594 1.366 . S
C595 C596 1.414 . S
C595 C598 1.499 . S
C596 H576 0.950 . S
C596 C595 1.414 . S
C596 C597 1.374 . S
C597 H577 0.950 . S
C597 C593 1.385 . S
C597 C596 1.374 . S
C598 C595 1.499 . S
C598 C599 1.373 . S
C598 C600 1.389 . S
C599 H578 0.950 . S
C599 C598 1.373 . S
C599 C615 1.377 . S
C600 C598 1.389 . S
C600 C601 1.524 . S
C600 C614 1.377 . S
C601 C600 1.524 . S
C601 C602 1.397 . S
C601 C606 1.363 . S
C602 H579 0.950 . S
C602 C601 1.397 . S
C602 C603 1.334 . S
C603 H580 0.950 . S
C603 C602 1.334 . S
C603 C604 1.287 . S
C604 C603 1.287 . S
C604 C605 1.524 . S
C604 H623 0.913 . S
C605 H581 0.950 . S
C605 C604 1.524 . S
C605 C606 1.415 . S
C606 H582 0.950 . S
C606 C601 1.363 . S
C606 C605 1.415 . S
C607 H583 0.951 . S
C607 C608 1.366 . S
C607 C609 1.388 . S
C608 C607 1.366 . S
C608 C612 1.385 . S
C609 H584 0.951 . S
C609 C607 1.388 . S
C609 C610 1.366 . S
C610 C609 1.366 . S
C610 C611 1.414 . S
C610 C613 1.499 . S
C611 H585 0.950 . S
C611 C610 1.414 . S
C611 C612 1.374 . S
C612 H586 0.950 . S
C612 C608 1.385 . S
C612 C611 1.374 . S
C613 C610 1.499 . S
C613 C614 1.373 . S
C613 C615 1.389 . S
C614 H587 0.950 . S
C614 C600 1.377 . S
C614 C613 1.373 . S
C615 C599 1.377 . S
C615 C613 1.389 . S
C615 C616 1.524 . S
C616 C615 1.524 . S
C616 C617 1.397 . S
C616 C621 1.363 . S
C617 H588 0.950 . S
C617 C616 1.397 . S
C617 C618 1.334 . S
C618 H589 0.950 . S
C618 C617 1.334 . S
C618 C619 1.287 . S
C619 C618 1.287 . S
C619 C620 1.524 . S
C619 H622 0.999 . S
C620 H590 0.950 . S
C620 C619 1.524 . S
C620 C621 1.415 . S
C621 H591 0.950 . S
C621 C616 1.363 . S
C621 C620 1.415 . S
H622 C619 0.999 . S
H623 C604 0.913 . S
H624 C642 0.951 . S
H625 C644 0.951 . S
H626 C646 0.950 . S
H627 C647 0.950 . S
H628 C649 0.950 . S
H629 C652 0.950 . S
H630 C653 0.950 . S
H631 C655 0.950 . S
H632 C656 0.950 . S
H633 C657 0.951 . S
H634 C659 0.951 . S
H635 C661 0.950 . S
H636 C662 0.950 . S
H637 C664 0.950 . S
H638 C667 0.950 . S
H639 C668 0.950 . S
H640 C670 0.950 . S
H641 C671 0.950 . S
C642 H624 0.951 . S
C642 C643 1.366 . S
C642 C644 1.388 . S
C643 C642 1.366 . S
C643 C647 1.385 . S
C644 H625 0.951 . S
C644 C642 1.388 . S
C644 C645 1.366 . S
C645 C644 1.366 . S
C645 C646 1.414 . S
C645 C648 1.499 . S
C646 H626 0.950 . S
C646 C645 1.414 . S
C646 C647 1.374 . S
C647 H627 0.950 . S
C647 C643 1.385 . S
C647 C646 1.374 . S
C648 C645 1.499 . S
C648 C649 1.373 . S
C648 C650 1.389 . S
C649 H628 0.950 . S
C649 C648 1.373 . S
C649 C665 1.377 . S
C650 C648 1.389 . S
C650 C651 1.524 . S
C650 C664 1.377 . S
C651 C650 1.524 . S
C651 C652 1.397 . S
C651 C656 1.363 . S
C652 H629 0.950 . S
C652 C651 1.397 . S
C652 C653 1.334 1_655 S
C653 H630 0.950 . S
C653 C652 1.334 1_455 S
C653 C654 1.287 . S
C654 C653 1.287 . S
C654 C655 1.524 . S
C654 H673 0.913 . S
C655 H631 0.950 . S
C655 C654 1.524 . S
C655 C656 1.415 1_455 S
C656 H632 0.950 . S
C656 C651 1.363 . S
C656 C655 1.415 1_655 S
C657 H633 0.951 . S
C657 C658 1.366 . S
C657 C659 1.388 1_455 S
C658 C657 1.366 . S
C658 C662 1.385 . S
C659 H634 0.951 . S
C659 C657 1.388 1_655 S
C659 C660 1.366 . S
C660 C659 1.366 . S
C660 C661 1.414 . S
C660 C663 1.499 . S
C661 H635 0.950 . S
C661 C660 1.414 . S
C661 C662 1.374 1_655 S
C662 H636 0.950 . S
C662 C658 1.385 . S
C662 C661 1.374 1_455 S
C663 C660 1.499 . S
C663 C664 1.373 . S
C663 C665 1.389 . S
C664 H637 0.950 . S
C664 C650 1.377 . S
C664 C663 1.373 . S
C665 C649 1.377 . S
C665 C663 1.389 . S
C665 C666 1.524 . S
C666 C665 1.524 . S
C666 C667 1.397 . S
C666 C671 1.363 . S
C667 H638 0.950 . S
C667 C666 1.397 . S
C667 C668 1.334 . S
C668 H639 0.950 . S
C668 C667 1.334 . S
C668 C669 1.287 . S
C669 C668 1.287 . S
C669 C670 1.524 . S
C669 H672 0.999 . S
C670 H640 0.950 . S
C670 C669 1.524 . S
C670 C671 1.415 . S
C671 H641 0.950 . S
C671 C666 1.363 . S
C671 C670 1.415 . S
H672 C669 0.999 . S
H673 C654 0.913 . S
H674 C692 0.951 . S
H675 C694 0.951 . S
H676 C696 0.950 . S
H677 C697 0.950 . S
H678 C699 0.950 . S
H679 C702 0.950 1_565 S
H680 C703 0.950 . S
H681 C705 0.950 . S
H682 C706 0.950 . S
H683 C707 0.951 . S
H684 C709 0.951 . S
H685 C711 0.950 . S
H686 C712 0.950 . S
H687 C714 0.950 . S
H688 C717 0.950 . S
H689 C718 0.950 . S
H690 C720 0.950 . S
H691 C721 0.950 . S
C692 H674 0.951 . S
C692 C693 1.366 . S
C692 C694 1.388 . S
C693 C692 1.366 . S
C693 C697 1.385 1_545 S
C694 H675 0.951 . S
C694 C692 1.388 . S
C694 C695 1.366 1_545 S
C695 C694 1.366 1_565 S
C695 C696 1.414 . S
C695 C698 1.499 . S
C696 H676 0.950 . S
C696 C695 1.414 . S
C696 C697 1.374 . S
C697 H677 0.950 . S
C697 C693 1.385 1_565 S
C697 C696 1.374 . S
C698 C695 1.499 . S
C698 C699 1.373 . S
C698 C700 1.389 . S
C699 H678 0.950 . S
C699 C698 1.373 . S
C699 C715 1.377 . S
C700 C698 1.389 . S
C700 C701 1.524 1_565 S
C700 C714 1.377 . S
C701 C700 1.524 1_545 S
C701 C702 1.397 . S
C701 C706 1.363 . S
C702 H679 0.950 1_545 S
C702 C701 1.397 . S
C702 C703 1.334 1_655 S
C703 H680 0.950 . S
C703 C702 1.334 1_455 S
C703 C704 1.287 . S
C704 C703 1.287 . S
C704 C705 1.525 . S
C704 H723 0.913 . S
C705 H681 0.950 . S
C705 C704 1.525 . S
C705 C706 1.414 1_455 S
C706 H682 0.950 . S
C706 C701 1.363 . S
C706 C705 1.414 1_655 S
C707 H683 0.951 . S
C707 C708 1.366 . S
C707 C709 1.388 1_455 S
C708 C707 1.366 . S
C708 C712 1.385 . S
C709 H684 0.951 . S
C709 C707 1.388 1_655 S
C709 C710 1.366 . S
C710 C709 1.366 . S
C710 C711 1.414 . S
C710 C713 1.499 . S
C711 H685 0.950 . S
C711 C710 1.414 . S
C711 C712 1.374 1_655 S
C712 H686 0.950 . S
C712 C708 1.385 . S
C712 C711 1.374 1_455 S
C713 C710 1.499 . S
C713 C714 1.373 . S
C713 C715 1.389 . S
C714 H687 0.950 . S
C714 C700 1.377 . S
C714 C713 1.373 . S
C715 C699 1.377 . S
C715 C713 1.389 . S
C715 C716 1.524 . S
C716 C715 1.524 . S
C716 C717 1.397 . S
C716 C721 1.363 . S
C717 H688 0.950 . S
C717 C716 1.397 . S
C717 C718 1.334 . S
C718 H689 0.950 . S
C718 C717 1.334 . S
C718 C719 1.287 . S
C719 C718 1.287 . S
C719 C720 1.524 . S
C719 H722 0.999 . S
C720 H690 0.950 . S
C720 C719 1.524 . S
C720 C721 1.415 . S
C721 H691 0.950 . S
C721 C716 1.363 . S
C721 C720 1.415 . S
H722 C719 0.999 . S
H723 C704 0.913 . S
H724 C742 0.951 . S
H725 C744 0.951 . S
H726 C746 0.950 . S
H727 C747 0.950 . S
H728 C749 0.950 . S
H729 C752 0.950 . S
H730 C753 0.950 . S
H731 C755 0.950 . S
H732 C756 0.950 . S
H733 C757 0.951 . S
H734 C759 0.951 . S
H735 C761 0.950 . S
H736 C762 0.950 . S
H737 C764 0.950 . S
H738 C767 0.950 . S
H739 C768 0.950 . S
H740 C770 0.950 . S
H741 C771 0.950 . S
C742 H724 0.951 . S
C742 C743 1.366 . S
C742 C744 1.388 . S
C743 C742 1.366 . S
C743 C747 1.385 1_545 S
C744 H725 0.951 . S
C744 C742 1.388 . S
C744 C745 1.366 1_545 S
C745 C744 1.366 1_565 S
C745 C746 1.414 . S
C745 C748 1.499 . S
C746 H726 0.950 . S
C746 C745 1.414 . S
C746 C747 1.374 . S
C747 H727 0.950 . S
C747 C743 1.385 1_565 S
C747 C746 1.374 . S
C748 C745 1.499 . S
C748 C749 1.373 . S
C748 C750 1.389 . S
C749 H728 0.950 . S
C749 C748 1.373 . S
C749 C765 1.377 . S
C750 C748 1.389 . S
C750 C751 1.524 1_565 S
C750 C764 1.377 . S
C751 C750 1.524 1_545 S
C751 C752 1.397 . S
C751 C756 1.363 . S
C752 H729 0.950 . S
C752 C751 1.397 . S
C752 C753 1.334 . S
C753 H730 0.950 . S
C753 C752 1.334 . S
C753 C754 1.287 . S
C754 C753 1.287 . S
C754 C755 1.524 . S
C754 H773 0.913 . S
C755 H731 0.950 . S
C755 C754 1.524 . S
C755 C756 1.415 . S
C756 H732 0.950 . S
C756 C751 1.363 . S
C756 C755 1.415 . S
C757 H733 0.951 . S
C757 C758 1.366 . S
C757 C759 1.388 . S
C758 C757 1.366 . S
C758 C762 1.385 . S
C759 H734 0.951 . S
C759 C757 1.388 . S
C759 C760 1.366 . S
C760 C759 1.366 . S
C760 C761 1.414 . S
C760 C763 1.499 . S
C761 H735 0.950 . S
C761 C760 1.414 . S
C761 C762 1.374 . S
C762 H736 0.950 . S
C762 C758 1.385 . S
C762 C761 1.374 . S
C763 C760 1.499 . S
C763 C764 1.373 . S
C763 C765 1.389 . S
C764 H737 0.950 . S
C764 C750 1.377 . S
C764 C763 1.373 . S
C765 C749 1.377 . S
C765 C763 1.389 . S
C765 C766 1.524 . S
C766 C765 1.524 . S
C766 C767 1.397 . S
C766 C771 1.363 . S
C767 H738 0.950 . S
C767 C766 1.397 . S
C767 C768 1.334 . S
C768 H739 0.950 . S
C768 C767 1.334 . S
C768 C769 1.287 . S
C769 C768 1.287 . S
C769 C770 1.524 . S
C769 H772 0.999 . S
C770 H740 0.950 . S
C770 C769 1.524 . S
C770 C771 1.415 . S
C771 H741 0.950 . S
C771 C766 1.363 . S
C771 C770 1.415 . S
H772 C769 0.999 . S
H773 C754 0.913 . S
H774 C792 0.951 . S
H775 C794 0.951 . S
H776 C796 0.950 . S
H777 C797 0.950 . S
H778 C799 0.950 . S
H779 C802 0.950 . S
H780 C803 0.950 . S
H781 C805 0.950 . S
H782 C806 0.950 . S
H783 C807 0.951 . S
H784 C809 0.951 . S
H785 C811 0.950 . S
H786 C812 0.950 . S
H787 C814 0.950 . S
H788 C817 0.950 . S
H789 C818 0.950 . S
H790 C820 0.950 . S
H791 C821 0.950 . S
C792 H774 0.951 . S
C792 C793 1.366 . S
C792 C794 1.388 . S
C793 C792 1.366 . S
C793 C797 1.385 . S
C794 H775 0.951 . S
C794 C792 1.388 . S
C794 C795 1.366 . S
C795 C794 1.366 . S
C795 C796 1.414 . S
C795 C798 1.499 . S
C796 H776 0.950 . S
C796 C795 1.414 . S
C796 C797 1.374 . S
C797 H777 0.950 . S
C797 C793 1.385 . S
C797 C796 1.374 . S
C798 C795 1.499 . S
C798 C799 1.373 . S
C798 C800 1.389 . S
C799 H778 0.950 . S
C799 C798 1.373 . S
C799 C815 1.377 . S
C800 C798 1.389 . S
C800 C801 1.524 . S
C800 C814 1.377 . S
C801 C800 1.524 . S
C801 C802 1.397 . S
C801 C806 1.363 . S
C802 H779 0.950 . S
C802 C801 1.397 . S
C802 C803 1.334 . S
C803 H780 0.950 . S
C803 C802 1.334 . S
C803 C804 1.287 . S
C804 C803 1.287 . S
C804 C805 1.524 . S
C804 H823 0.913 . S
C805 H781 0.950 . S
C805 C804 1.524 . S
C805 C806 1.415 . S
C806 H782 0.950 . S
C806 C801 1.363 . S
C806 C805 1.415 . S
C807 H783 0.951 . S
C807 C808 1.366 . S
C807 C809 1.388 . S
C808 C807 1.366 . S
C808 C812 1.385 . S
C809 H784 0.951 . S
C809 C807 1.388 . S
C809 C810 1.366 . S
C810 C809 1.366 . S
C810 C811 1.414 . S
C810 C813 1.499 . S
C811 H785 0.950 . S
C811 C810 1.414 . S
C811 C812 1.374 . S
C812 H786 0.950 . S
C812 C808 1.385 . S
C812 C811 1.374 . S
C813 C810 1.499 . S
C813 C814 1.373 . S
C813 C815 1.389 . S
C814 H787 0.950 . S
C814 C800 1.377 . S
C814 C813 1.373 . S
C815 C799 1.377 . S
C815 C813 1.389 . S
C815 C816 1.524 . S
C816 C815 1.524 . S
C816 C817 1.397 . S
C816 C821 1.363 . S
C817 H788 0.950 . S
C817 C816 1.397 . S
C817 C818 1.334 . S
C818 H789 0.950 . S
C818 C817 1.334 . S
C818 C819 1.287 . S
C819 C818 1.287 . S
C819 C820 1.524 . S
C819 H822 0.999 . S
C820 H790 0.950 . S
C820 C819 1.524 . S
C820 C821 1.415 . S
C821 H791 0.950 . S
C821 C816 1.363 . S
C821 C820 1.415 . S
H822 C819 0.999 . S
H823 C804 0.913 . S
H824 C842 0.951 . S
H825 C844 0.951 . S
H826 C846 0.950 . S
H827 C847 0.950 . S
H828 C849 0.950 . S
H829 C852 0.950 . S
H830 C853 0.950 . S
H831 C855 0.950 . S
H832 C856 0.950 . S
H833 C857 0.951 . S
H834 C859 0.951 . S
H835 C861 0.950 . S
H836 C862 0.950 . S
H837 C864 0.950 . S
H838 C867 0.916 1_455 S
H839 C868 0.950 . S
H840 C870 0.950 . S
H841 C871 0.950 . S
C842 H824 0.951 . S
C842 C843 1.366 . S
C842 C844 1.388 . S
C843 C842 1.366 . S
C843 C847 1.385 . S
C844 H825 0.951 . S
C844 C842 1.388 . S
C844 C845 1.366 . S
C845 C844 1.366 . S
C845 C846 1.414 . S
C845 C848 1.499 . S
C846 H826 0.950 . S
C846 C845 1.414 . S
C846 C847 1.374 . S
C847 H827 0.950 . S
C847 C843 1.385 . S
C847 C846 1.374 . S
C848 C845 1.499 . S
C848 C849 1.373 . S
C848 C850 1.389 . S
C849 H828 0.950 . S
C849 C848 1.373 . S
C849 C865 1.377 . S
C850 C848 1.389 . S
C850 C851 1.524 . S
C850 C864 1.377 . S
C851 C850 1.524 . S
C851 C852 1.397 . S
C851 C856 1.363 . S
C852 H829 0.950 . S
C852 C851 1.397 . S
C852 C853 1.334 . S
C853 H830 0.950 . S
C853 C852 1.334 . S
C853 C854 1.287 . S
C854 C853 1.287 . S
C854 C855 1.524 . S
C854 H873 0.913 . S
C855 H831 0.950 . S
C855 C854 1.524 . S
C855 C856 1.415 . S
C856 H832 0.950 . S
C856 C851 1.363 . S
C856 C855 1.415 . S
C857 H833 0.951 . S
C857 C858 1.366 . S
C857 C859 1.388 . S
C858 C857 1.366 . S
C858 C862 1.385 1_655 S
C859 H834 0.951 . S
C859 C857 1.388 . S
C859 C860 1.366 1_655 S
C860 C859 1.366 1_455 S
C860 C861 1.414 . S
C860 C863 1.499 . S
C861 H835 0.950 . S
C861 C860 1.414 . S
C861 C862 1.374 . S
C862 H836 0.950 . S
C862 C858 1.385 1_455 S
C862 C861 1.374 . S
C863 C860 1.499 . S
C863 C864 1.373 . S
C863 C865 1.389 . S
C864 H837 0.950 . S
C864 C850 1.377 . S
C864 C863 1.373 . S
C865 C849 1.377 . S
C865 C863 1.389 . S
C865 C866 1.524 1_455 S
C866 C865 1.524 1_655 S
C866 C867 1.403 . S
C866 C871 1.363 . S
C867 H838 0.916 1_655 S
C867 C866 1.403 . S
C867 C868 1.362 . S
C868 H839 0.950 . S
C868 C867 1.362 . S
C868 C869 1.287 . S
C869 C868 1.287 . S
C869 C870 1.524 . S
C869 H872 0.999 . S
C870 H840 0.950 . S
C870 C869 1.524 . S
C870 C871 1.415 . S
C871 H841 0.950 . S
C871 C866 1.363 . S
C871 C870 1.415 . S
H872 C869 0.999 . S
H873 C854 0.913 . S
H874 C892 0.951 . S
H875 C894 0.951 . S
H876 C896 0.950 . S
H877 C897 0.950 . S
H878 C899 0.950 1_565 S
H879 C902 0.950 . S
H880 C903 0.950 . S
H881 C905 0.950 . S
H882 C906 0.950 . S
H883 C907 0.951 . S
H884 C909 0.951 . S
H885 C911 0.950 . S
H886 C912 0.950 . S
H887 C914 0.950 . S
H888 C917 0.950 . S
H889 C918 0.950 . S
H890 C920 0.950 . S
H891 C921 0.950 1_545 S
C892 H874 0.951 . S
C892 C893 1.366 . S
C892 C894 1.388 1_565 S
C893 C892 1.366 . S
C893 C897 1.385 . S
C894 H875 0.951 . S
C894 C892 1.388 1_545 S
C894 C895 1.366 . S
C895 C894 1.366 . S
C895 C896 1.414 . S
C895 C898 1.499 . S
C896 H876 0.950 . S
C896 C895 1.414 . S
C896 C897 1.374 1_545 S
C897 H877 0.950 . S
C897 C893 1.385 . S
C897 C896 1.374 1_565 S
C898 C895 1.499 . S
C898 C899 1.373 . S
C898 C900 1.389 . S
C899 H878 0.950 1_545 S
C899 C898 1.373 . S
C899 C915 1.377 . S
C900 C898 1.389 . S
C900 C901 1.524 . S
C900 C914 1.377 . S
C901 C900 1.524 . S
C901 C902 1.397 . S
C901 C906 1.363 . S
C902 H879 0.950 . S
C902 C901 1.397 . S
C902 C903 1.334 . S
C903 H880 0.950 . S
C903 C902 1.334 . S
C903 C904 1.287 . S
C904 C903 1.287 . S
C904 C905 1.524 . S
C904 H923 0.913 . S
C905 H881 0.950 . S
C905 C904 1.524 . S
C905 C906 1.415 . S
C906 H882 0.950 . S
C906 C901 1.363 . S
C906 C905 1.415 . S
C907 H883 0.951 . S
C907 C908 1.366 . S
C907 C909 1.388 . S
C908 C907 1.366 . S
C908 C912 1.385 1_655 S
C909 H884 0.951 . S
C909 C907 1.388 . S
C909 C910 1.366 1_655 S
C910 C909 1.366 1_455 S
C910 C911 1.414 . S
C910 C913 1.499 . S
C911 H885 0.950 . S
C911 C910 1.414 . S
C911 C912 1.374 . S
C912 H886 0.950 . S
C912 C908 1.385 1_455 S
C912 C911 1.374 . S
C913 C910 1.499 . S
C913 C914 1.373 . S
C913 C915 1.389 . S
C914 H887 0.950 . S
C914 C900 1.377 . S
C914 C913 1.373 . S
C915 C899 1.377 . S
C915 C913 1.389 . S
C915 C916 1.524 1_455 S
C916 C915 1.524 1_655 S
C916 C917 1.397 1_655 S
C916 C921 1.363 1_545 S
C917 H888 0.950 . S
C917 C916 1.397 1_455 S
C917 C918 1.334 1_445 S
C918 H889 0.950 . S
C918 C917 1.334 1_665 S
C918 C919 1.287 . S
C919 C918 1.287 . S
C919 C920 1.524 . S
C919 H922 0.999 . S
C920 H890 0.950 . S
C920 C919 1.524 . S
C920 C921 1.415 . S
C921 H891 0.950 1_565 S
C921 C916 1.363 1_565 S
C921 C920 1.415 . S
H922 C919 0.999 . S
H923 C904 0.913 . S
H924 C942 0.951 . S
H925 C944 0.951 . S
H926 C946 0.950 . S
H927 C947 0.950 . S
H928 C949 0.950 . S
H929 C952 0.950 . S
H930 C953 0.950 . S
H931 C955 0.950 . S
H932 C956 0.950 . S
H933 C957 0.951 . S
H934 C959 0.951 . S
H935 C961 0.950 . S
H936 C962 0.950 . S
H937 C964 0.950 . S
H938 C967 0.941 1_545 S
H939 C968 0.950 . S
H940 C970 0.950 . S
H941 C971 0.950 . S
C942 H924 0.951 . S
C942 C943 1.366 . S
C942 C944 1.388 . S
C943 C942 1.366 . S
C943 C947 1.385 . S
C944 H925 0.951 . S
C944 C942 1.388 . S
C944 C945 1.366 . S
C945 C944 1.366 . S
C945 C946 1.414 . S
C945 C948 1.499 . S
C946 H926 0.950 . S
C946 C945 1.414 . S
C946 C947 1.374 . S
C947 H927 0.950 . S
C947 C943 1.385 . S
C947 C946 1.374 . S
C948 C945 1.499 . S
C948 C949 1.373 . S
C948 C950 1.389 . S
C949 H928 0.950 . S
C949 C948 1.373 . S
C949 C965 1.377 . S
C950 C948 1.389 . S
C950 C951 1.524 . S
C950 C964 1.377 . S
C951 C950 1.524 . S
C951 C952 1.397 . S
C951 C956 1.363 . S
C952 H929 0.950 . S
C952 C951 1.397 . S
C952 C953 1.334 . S
C953 H930 0.950 . S
C953 C952 1.334 . S
C953 C954 1.287 . S
C954 C953 1.287 . S
C954 C955 1.524 . S
C954 H973 0.913 . S
C955 H931 0.950 . S
C955 C954 1.524 . S
C955 C956 1.415 . S
C956 H932 0.950 . S
C956 C951 1.363 . S
C956 C955 1.415 . S
C957 H933 0.951 . S
C957 C958 1.366 . S
C957 C959 1.388 . S
C958 C957 1.366 . S
C958 C962 1.385 1_565 S
C959 H934 0.951 . S
C959 C957 1.388 . S
C959 C960 1.366 1_565 S
C960 C959 1.366 1_545 S
C960 C961 1.414 . S
C960 C963 1.499 . S
C961 H935 0.950 . S
C961 C960 1.414 . S
C961 C962 1.374 . S
C962 H936 0.950 . S
C962 C958 1.385 1_545 S
C962 C961 1.374 . S
C963 C960 1.499 . S
C963 C964 1.373 . S
C963 C965 1.389 . S
C964 H937 0.950 . S
C964 C950 1.377 . S
C964 C963 1.373 . S
C965 C949 1.377 . S
C965 C963 1.389 . S
C965 C966 1.524 1_545 S
C966 C965 1.524 1_565 S
C966 C967 1.398 . S
C966 C971 1.363 . S
C967 H938 0.941 1_565 S
C967 C966 1.398 . S
C967 C968 1.341 . S
C968 H939 0.950 . S
C968 C967 1.341 . S
C968 C969 1.287 . S
C969 C968 1.287 . S
C969 C970 1.524 . S
C969 H972 0.999 . S
C970 H940 0.950 . S
C970 C969 1.524 . S
C970 C971 1.415 . S
C971 H941 0.950 . S
C971 C966 1.363 . S
C971 C970 1.415 . S
H972 C969 0.999 . S
H973 C954 0.913 . S
H974 C992 0.951 . S
H975 C994 0.951 . S
H976 C996 0.950 . S
H977 C997 0.950 . S
H978 C999 0.950 . S
H979 C1002 0.950 . S
H980 C1003 0.950 . S
H981 C1005 0.950 . S
H982 C1006 0.950 . S
H983 C1007 0.951 . S
H984 C1009 0.951 . S
H985 C1011 0.950 . S
H986 C1012 0.950 . S
H987 C1014 0.950 . S
H988 C1017 0.950 . S
H989 C1018 0.950 . S
H990 C1020 0.950 . S
H991 C1021 0.950 . S
C992 H974 0.951 . S
C992 C993 1.366 . S
C992 C994 1.388 . S
C993 C992 1.366 . S
C993 C997 1.385 . S
C994 H975 0.951 . S
C994 C992 1.388 . S
C994 C995 1.366 . S
C995 C994 1.366 . S
C995 C996 1.414 . S
C995 C998 1.499 . S
C996 H976 0.950 . S
C996 C995 1.414 . S
C996 C997 1.374 . S
C997 H977 0.950 . S
C997 C993 1.385 . S
C997 C996 1.374 . S
C998 C995 1.499 . S
C998 C999 1.373 . S
C998 C1000 1.389 . S
C999 H978 0.950 . S
C999 C998 1.373 . S
C999 C1015 1.377 . S
C1000 C998 1.389 . S
C1000 C1001 1.524 . S
C1000 C1014 1.377 . S
C1001 C1000 1.524 . S
C1001 C1002 1.397 . S
C1001 C1006 1.363 . S
C1002 H979 0.950 . S
C1002 C1001 1.397 . S
C1002 C1003 1.334 . S
C1003 H980 0.950 . S
C1003 C1002 1.334 . S
C1003 C1004 1.287 . S
C1004 C1003 1.287 . S
C1004 C1005 1.524 . S
C1004 H1023 0.913 . S
C1005 H981 0.950 . S
C1005 C1004 1.524 . S
C1005 C1006 1.415 . S
C1006 H982 0.950 . S
C1006 C1001 1.363 . S
C1006 C1005 1.415 . S
C1007 H983 0.951 . S
C1007 C1008 1.366 . S
C1007 C1009 1.388 . S
C1008 C1007 1.366 . S
C1008 C1012 1.385 . S
C1009 H984 0.951 . S
C1009 C1007 1.388 . S
C1009 C1010 1.366 . S
C1010 C1009 1.366 . S
C1010 C1011 1.414 . S
C1010 C1013 1.499 . S
C1011 H985 0.950 . S
C1011 C1010 1.414 . S
C1011 C1012 1.374 . S
C1012 H986 0.950 . S
C1012 C1008 1.385 . S
C1012 C1011 1.374 . S
C1013 C1010 1.499 . S
C1013 C1014 1.373 . S
C1013 C1015 1.389 . S
C1014 H987 0.950 . S
C1014 C1000 1.377 . S
C1014 C1013 1.373 . S
C1015 C999 1.377 . S
C1015 C1013 1.389 . S
C1015 C1016 1.524 . S
C1016 C1015 1.524 . S
C1016 C1017 1.397 . S
C1016 C1021 1.363 . S
C1017 H988 0.950 . S
C1017 C1016 1.397 . S
C1017 C1018 1.334 . S
C1018 H989 0.950 . S
C1018 C1017 1.334 . S
C1018 C1019 1.287 . S
C1019 C1018 1.287 . S
C1019 C1020 1.524 . S
C1019 H1022 0.999 . S
C1020 H990 0.950 . S
C1020 C1019 1.524 . S
C1020 C1021 1.415 . S
C1021 H991 0.950 . S
C1021 C1016 1.363 . S
C1021 C1020 1.415 . S
H1022 C1019 0.999 . S
H1023 C1004 0.913 . S
H1024 C1042 0.951 . S
H1025 C1044 0.951 . S
H1026 C1046 0.950 . S
H1027 C1047 0.950 . S
H1028 C1049 0.950 . S
H1029 C1052 0.950 . S
H1030 C1053 0.950 . S
H1031 C1055 0.950 . S
H1032 C1056 0.950 . S
H1033 C1057 0.951 . S
H1034 C1059 0.951 . S
H1035 C1061 0.950 . S
H1036 C1062 0.950 . S
H1037 C1064 0.950 . S
H1038 C1067 0.950 . S
H1039 C1068 0.950 . S
H1040 C1070 0.950 . S
H1041 C1071 0.950 . S
C1042 H1024 0.951 . S
C1042 C1043 1.366 . S
C1042 C1044 1.388 . S
C1043 C1042 1.366 . S
C1043 C1047 1.385 . S
C1044 H1025 0.951 . S
C1044 C1042 1.388 . S
C1044 C1045 1.366 . S
C1045 C1044 1.366 . S
C1045 C1046 1.414 . S
C1045 C1048 1.499 . S
C1046 H1026 0.950 . S
C1046 C1045 1.414 . S
C1046 C1047 1.374 . S
C1047 H1027 0.950 . S
C1047 C1043 1.385 . S
C1047 C1046 1.374 . S
C1048 C1045 1.499 . S
C1048 C1049 1.373 . S
C1048 C1050 1.389 . S
C1049 H1028 0.950 . S
C1049 C1048 1.373 . S
C1049 C1065 1.377 . S
C1050 C1048 1.389 . S
C1050 C1051 1.524 . S
C1050 C1064 1.377 . S
C1051 C1050 1.524 . S
C1051 C1052 1.397 . S
C1051 C1056 1.363 . S
C1052 H1029 0.950 . S
C1052 C1051 1.397 . S
C1052 C1053 1.334 . S
C1053 H1030 0.950 . S
C1053 C1052 1.334 . S
C1053 C1054 1.287 . S
C1054 C1053 1.287 . S
C1054 C1055 1.524 . S
C1054 H1073 0.913 . S
C1055 H1031 0.950 . S
C1055 C1054 1.524 . S
C1055 C1056 1.415 . S
C1056 H1032 0.950 . S
C1056 C1051 1.363 . S
C1056 C1055 1.415 . S
C1057 H1033 0.951 . S
C1057 C1058 1.366 . S
C1057 C1059 1.388 . S
C1058 C1057 1.366 . S
C1058 C1062 1.385 . S
C1059 H1034 0.951 . S
C1059 C1057 1.388 . S
C1059 C1060 1.366 . S
C1060 C1059 1.366 . S
C1060 C1061 1.414 . S
C1060 C1063 1.499 . S
C1061 H1035 0.950 . S
C1061 C1060 1.414 . S
C1061 C1062 1.374 . S
C1062 H1036 0.950 . S
C1062 C1058 1.385 . S
C1062 C1061 1.374 . S
C1063 C1060 1.499 . S
C1063 C1064 1.373 . S
C1063 C1065 1.389 . S
C1064 H1037 0.950 . S
C1064 C1050 1.377 . S
C1064 C1063 1.373 . S
C1065 C1049 1.377 . S
C1065 C1063 1.389 . S
C1065 C1066 1.524 . S
C1066 C1065 1.524 . S
C1066 C1067 1.397 . S
C1066 C1071 1.363 . S
C1067 H1038 0.950 . S
C1067 C1066 1.397 . S
C1067 C1068 1.334 . S
C1068 H1039 0.950 . S
C1068 C1067 1.334 . S
C1068 C1069 1.287 . S
C1069 C1068 1.287 . S
C1069 C1070 1.524 . S
C1069 H1072 0.999 . S
C1070 H1040 0.950 . S
C1070 C1069 1.524 . S
C1070 C1071 1.415 . S
C1071 H1041 0.950 . S
C1071 C1066 1.363 . S
C1071 C1070 1.415 . S
H1072 C1069 0.999 . S
H1073 C1054 0.913 . S
H1074 C1092 0.951 . S
H1075 C1094 0.951 . S
H1076 C1096 0.950 . S
H1077 C1097 0.950 . S
H1078 C1099 0.950 . S
H1079 C1102 0.950 . S
H1080 C1103 0.950 . S
H1081 C1105 0.950 . S
H1082 C1106 0.950 . S
H1083 C1107 0.951 . S
H1084 C1109 0.951 . S
H1085 C1111 0.950 . S
H1086 C1112 0.950 . S
H1087 C1114 0.950 . S
H1088 C1117 0.950 . S
H1089 C1118 0.950 . S
H1090 C1120 0.950 . S
H1091 C1121 0.950 . S
C1092 H1074 0.951 . S
C1092 C1093 1.366 . S
C1092 C1094 1.388 . S
C1093 C1092 1.366 . S
C1093 C1097 1.385 . S
C1094 H1075 0.951 . S
C1094 C1092 1.388 . S
C1094 C1095 1.366 . S
C1095 C1094 1.366 . S
C1095 C1096 1.414 . S
C1095 C1098 1.499 . S
C1096 H1076 0.950 . S
C1096 C1095 1.414 . S
C1096 C1097 1.374 . S
C1097 H1077 0.950 . S
C1097 C1093 1.385 . S
C1097 C1096 1.374 . S
C1098 C1095 1.499 . S
C1098 C1099 1.373 . S
C1098 C1100 1.389 . S
C1099 H1078 0.950 . S
C1099 C1098 1.373 . S
C1099 C1115 1.377 . S
C1100 C1098 1.389 . S
C1100 C1101 1.524 . S
C1100 C1114 1.377 . S
C1101 C1100 1.524 . S
C1101 C1102 1.397 . S
C1101 C1106 1.363 . S
C1102 H1079 0.950 . S
C1102 C1101 1.397 . S
C1102 C1103 1.334 . S
C1103 H1080 0.950 . S
C1103 C1102 1.334 . S
C1103 C1104 1.287 . S
C1104 C1103 1.287 . S
C1104 C1105 1.524 . S
C1104 H1123 0.913 . S
C1105 H1081 0.950 . S
C1105 C1104 1.524 . S
C1105 C1106 1.415 . S
C1106 H1082 0.950 . S
C1106 C1101 1.363 . S
C1106 C1105 1.415 . S
C1107 H1083 0.951 . S
C1107 C1108 1.366 . S
C1107 C1109 1.388 . S
C1108 C1107 1.366 . S
C1108 C1112 1.385 . S
C1109 H1084 0.951 . S
C1109 C1107 1.388 . S
C1109 C1110 1.366 . S
C1110 C1109 1.366 . S
C1110 C1111 1.414 . S
C1110 C1113 1.499 . S
C1111 H1085 0.950 . S
C1111 C1110 1.414 . S
C1111 C1112 1.374 . S
C1112 H1086 0.950 . S
C1112 C1108 1.385 . S
C1112 C1111 1.374 . S
C1113 C1110 1.499 . S
C1113 C1114 1.373 . S
C1113 C1115 1.389 . S
C1114 H1087 0.950 . S
C1114 C1100 1.377 . S
C1114 C1113 1.373 . S
C1115 C1099 1.377 . S
C1115 C1113 1.389 . S
C1115 C1116 1.524 . S
C1116 C1115 1.524 . S
C1116 C1117 1.397 . S
C1116 C1121 1.363 . S
C1117 H1088 0.950 . S
C1117 C1116 1.397 . S
C1117 C1118 1.334 . S
C1118 H1089 0.950 . S
C1118 C1117 1.334 . S
C1118 C1119 1.287 . S
C1119 C1118 1.287 . S
C1119 C1120 1.524 . S
C1119 H1122 0.999 . S
C1120 H1090 0.950 . S
C1120 C1119 1.524 . S
C1120 C1121 1.415 . S
C1121 H1091 0.950 . S
C1121 C1116 1.363 . S
C1121 C1120 1.415 . S
H1122 C1119 0.999 . S
H1123 C1104 0.913 . S
H1124 C1142 0.951 . S
H1125 C1144 0.951 . S
H1126 C1146 0.950 . S
H1127 C1147 0.950 . S
H1128 C1149 0.950 . S
H1129 C1152 0.950 . S
H1130 C1153 0.950 . S
H1131 C1155 0.950 . S
H1132 C1156 0.950 . S
H1133 C1157 0.951 . S
H1134 C1159 0.951 . S
H1135 C1161 0.950 . S
H1136 C1162 0.950 . S
H1137 C1164 0.950 . S
H1138 C1167 0.950 . S
H1139 C1168 0.950 . S
H1140 C1170 0.950 . S
H1141 C1171 0.950 . S
C1142 H1124 0.951 . S
C1142 C1143 1.366 . S
C1142 C1144 1.388 . S
C1143 C1142 1.366 . S
C1143 C1147 1.385 . S
C1144 H1125 0.951 . S
C1144 C1142 1.388 . S
C1144 C1145 1.366 . S
C1145 C1144 1.366 . S
C1145 C1146 1.414 . S
C1145 C1148 1.499 . S
C1146 H1126 0.950 . S
C1146 C1145 1.414 . S
C1146 C1147 1.374 . S
C1147 H1127 0.950 . S
C1147 C1143 1.385 . S
C1147 C1146 1.374 . S
C1148 C1145 1.499 . S
C1148 C1149 1.373 . S
C1148 C1150 1.389 . S
C1149 H1128 0.950 . S
C1149 C1148 1.373 . S
C1149 C1165 1.377 . S
C1150 C1148 1.389 . S
C1150 C1151 1.524 . S
C1150 C1164 1.377 . S
C1151 C1150 1.524 . S
C1151 C1152 1.397 . S
C1151 C1156 1.363 . S
C1152 H1129 0.950 . S
C1152 C1151 1.397 . S
C1152 C1153 1.334 . S
C1153 H1130 0.950 . S
C1153 C1152 1.334 . S
C1153 C1154 1.287 . S
C1154 C1153 1.287 . S
C1154 C1155 1.524 . S
C1154 H1173 0.913 . S
C1155 H1131 0.950 . S
C1155 C1154 1.524 . S
C1155 C1156 1.415 . S
C1156 H1132 0.950 . S
C1156 C1151 1.363 . S
C1156 C1155 1.415 . S
C1157 H1133 0.951 . S
C1157 C1158 1.366 . S
C1157 C1159 1.388 . S
C1158 C1157 1.366 . S
C1158 C1162 1.385 . S
C1159 H1134 0.951 . S
C1159 C1157 1.388 . S
C1159 C1160 1.366 . S
C1160 C1159 1.366 . S
C1160 C1161 1.414 . S
C1160 C1163 1.499 . S
C1161 H1135 0.950 . S
C1161 C1160 1.414 . S
C1161 C1162 1.374 . S
C1162 H1136 0.950 . S
C1162 C1158 1.385 . S
C1162 C1161 1.374 . S
C1163 C1160 1.499 . S
C1163 C1164 1.373 . S
C1163 C1165 1.389 . S
C1164 H1137 0.950 . S
C1164 C1150 1.377 . S
C1164 C1163 1.373 . S
C1165 C1149 1.377 . S
C1165 C1163 1.389 . S
C1165 C1166 1.524 . S
C1166 C1165 1.524 . S
C1166 C1167 1.397 . S
C1166 C1171 1.363 . S
C1167 H1138 0.950 . S
C1167 C1166 1.397 . S
C1167 C1168 1.334 . S
C1168 H1139 0.950 . S
C1168 C1167 1.334 . S
C1168 C1169 1.287 . S
C1169 C1168 1.287 . S
C1169 C1170 1.524 . S
C1169 H1172 0.999 . S
C1170 H1140 0.950 . S
C1170 C1169 1.524 . S
C1170 C1171 1.415 . S
C1171 H1141 0.950 . S
C1171 C1166 1.363 . S
C1171 C1170 1.415 . S
H1172 C1169 0.999 . S
H1173 C1154 0.913 . S
H1174 C1192 0.951 . S
H1175 C1194 0.951 . S
H1176 C1196 0.950 . S
H1177 C1197 0.950 . S
H1178 C1199 0.950 . S
H1179 C1202 0.950 . S
H1180 C1203 0.950 . S
H1181 C1205 0.950 . S
H1182 C1206 0.950 . S
H1183 C1207 0.951 . S
H1184 C1209 0.951 . S
H1185 C1211 0.950 . S
H1186 C1212 0.950 . S
H1187 C1214 0.950 . S
H1188 C1217 0.950 . S
H1189 C1218 0.950 . S
H1190 C1220 0.950 . S
H1191 C1221 0.950 . S
C1192 H1174 0.951 . S
C1192 C1193 1.366 . S
C1192 C1194 1.388 . S
C1193 C1192 1.366 . S
C1193 C1197 1.385 . S
C1194 H1175 0.951 . S
C1194 C1192 1.388 . S
C1194 C1195 1.366 . S
C1195 C1194 1.366 . S
C1195 C1196 1.414 . S
C1195 C1198 1.499 . S
C1196 H1176 0.950 . S
C1196 C1195 1.414 . S
C1196 C1197 1.374 . S
C1197 H1177 0.950 . S
C1197 C1193 1.385 . S
C1197 C1196 1.374 . S
C1198 C1195 1.499 . S
C1198 C1199 1.373 . S
C1198 C1200 1.389 . S
C1199 H1178 0.950 . S
C1199 C1198 1.373 . S
C1199 C1215 1.377 . S
C1200 C1198 1.389 . S
C1200 C1201 1.524 . S
C1200 C1214 1.377 . S
C1201 C1200 1.524 . S
C1201 C1202 1.397 . S
C1201 C1206 1.363 . S
C1202 H1179 0.950 . S
C1202 C1201 1.397 . S
C1202 C1203 1.334 . S
C1203 H1180 0.950 . S
C1203 C1202 1.334 . S
C1203 C1204 1.287 . S
C1204 C1203 1.287 . S
C1204 C1205 1.524 . S
C1204 H1223 0.913 . S
C1205 H1181 0.950 . S
C1205 C1204 1.524 . S
C1205 C1206 1.415 . S
C1206 H1182 0.950 . S
C1206 C1201 1.363 . S
C1206 C1205 1.415 . S
C1207 H1183 0.951 . S
C1207 C1208 1.366 . S
C1207 C1209 1.388 . S
C1208 C1207 1.366 . S
C1208 C1212 1.385 . S
C1209 H1184 0.951 . S
C1209 C1207 1.388 . S
C1209 C1210 1.366 . S
C1210 C1209 1.366 . S
C1210 C1211 1.414 . S
C1210 C1213 1.499 . S
C1211 H1185 0.950 . S
C1211 C1210 1.414 . S
C1211 C1212 1.374 . S
C1212 H1186 0.950 . S
C1212 C1208 1.385 . S
C1212 C1211 1.374 . S
C1213 C1210 1.499 . S
C1213 C1214 1.373 . S
C1213 C1215 1.389 . S
C1214 H1187 0.950 . S
C1214 C1200 1.377 . S
C1214 C1213 1.373 . S
C1215 C1199 1.377 . S
C1215 C1213 1.389 . S
C1215 C1216 1.524 . S
C1216 C1215 1.524 . S
C1216 C1217 1.397 . S
C1216 C1221 1.363 . S
C1217 H1188 0.950 . S
C1217 C1216 1.397 . S
C1217 C1218 1.334 . S
C1218 H1189 0.950 . S
C1218 C1217 1.334 . S
C1218 C1219 1.287 . S
C1219 C1218 1.287 . S
C1219 C1220 1.524 . S
C1219 H1222 0.999 . S
C1220 H1190 0.950 . S
C1220 C1219 1.524 . S
C1220 C1221 1.415 . S
C1221 H1191 0.950 . S
C1221 C1216 1.363 . S
C1221 C1220 1.415 . S
H1222 C1219 0.999 . S
H1223 C1204 0.913 . S
H1224 C1242 0.951 . S
H1225 C1244 0.951 . S
H1226 C1246 0.950 . S
H1227 C1247 0.950 . S
H1228 C1249 0.950 . S
H1229 C1252 0.950 . S
H1230 C1253 0.950 . S
H1231 C1255 0.950 . S
H1232 C1256 0.950 . S
H1233 C1257 0.951 . S
H1234 C1259 0.951 . S
H1235 C1261 0.950 . S
H1236 C1262 0.950 . S
H1237 C1264 0.950 . S
H1238 C1267 0.950 . S
H1239 C1268 0.950 . S
H1240 C1270 0.950 . S
H1241 C1271 0.950 . S
C1242 H1224 0.951 . S
C1242 C1243 1.366 . S
C1242 C1244 1.388 . S
C1243 C1242 1.366 . S
C1243 C1247 1.385 . S
C1244 H1225 0.951 . S
C1244 C1242 1.388 . S
C1244 C1245 1.366 . S
C1245 C1244 1.366 . S
C1245 C1246 1.414 . S
C1245 C1248 1.499 . S
C1246 H1226 0.950 . S
C1246 C1245 1.414 . S
C1246 C1247 1.374 . S
C1247 H1227 0.950 . S
C1247 C1243 1.385 . S
C1247 C1246 1.374 . S
C1248 C1245 1.499 . S
C1248 C1249 1.373 . S
C1248 C1250 1.389 . S
C1249 H1228 0.950 . S
C1249 C1248 1.373 . S
C1249 C1265 1.377 . S
C1250 C1248 1.389 . S
C1250 C1251 1.524 . S
C1250 C1264 1.377 . S
C1251 C1250 1.524 . S
C1251 C1252 1.397 . S
C1251 C1256 1.363 . S
C1252 H1229 0.950 . S
C1252 C1251 1.397 . S
C1252 C1253 1.334 . S
C1253 H1230 0.950 . S
C1253 C1252 1.334 . S
C1253 C1254 1.287 . S
C1254 C1253 1.287 . S
C1254 C1255 1.524 . S
C1254 H1273 0.913 . S
C1255 H1231 0.950 . S
C1255 C1254 1.524 . S
C1255 C1256 1.415 . S
C1256 H1232 0.950 . S
C1256 C1251 1.363 . S
C1256 C1255 1.415 . S
C1257 H1233 0.951 . S
C1257 C1258 1.366 . S
C1257 C1259 1.388 . S
C1258 C1257 1.366 . S
C1258 C1262 1.385 . S
C1259 H1234 0.951 . S
C1259 C1257 1.388 . S
C1259 C1260 1.366 . S
C1260 C1259 1.366 . S
C1260 C1261 1.414 . S
C1260 C1263 1.499 . S
C1261 H1235 0.950 . S
C1261 C1260 1.414 . S
C1261 C1262 1.374 . S
C1262 H1236 0.950 . S
C1262 C1258 1.385 . S
C1262 C1261 1.374 . S
C1263 C1260 1.499 . S
C1263 C1264 1.373 . S
C1263 C1265 1.389 . S
C1264 H1237 0.950 . S
C1264 C1250 1.377 . S
C1264 C1263 1.373 . S
C1265 C1249 1.377 . S
C1265 C1263 1.389 . S
C1265 C1266 1.524 . S
C1266 C1265 1.524 . S
C1266 C1267 1.397 . S
C1266 C1271 1.363 . S
C1267 H1238 0.950 . S
C1267 C1266 1.397 . S
C1267 C1268 1.334 . S
C1268 H1239 0.950 . S
C1268 C1267 1.334 . S
C1268 C1269 1.287 1_655 S
C1269 C1268 1.287 1_455 S
C1269 C1270 1.524 . S
C1269 H1272 0.999 . S
C1270 H1240 0.950 . S
C1270 C1269 1.524 . S
C1270 C1271 1.415 1_455 S
C1271 H1241 0.950 . S
C1271 C1266 1.363 . S
C1271 C1270 1.415 1_655 S
H1272 C1269 0.999 . S
H1273 C1254 0.913 . S
H1274 C1292 0.951 . S
H1275 C1294 0.951 . S
H1276 C1296 0.950 . S
H1277 C1297 0.950 . S
H1278 C1299 0.950 . S
H1279 C1302 0.950 . S
H1280 C1303 0.950 . S
H1281 C1305 0.950 . S
H1282 C1306 0.950 . S
H1283 C1307 0.951 . S
H1284 C1309 0.951 . S
H1285 C1311 0.950 . S
H1286 C1312 0.950 . S
H1287 C1314 0.950 . S
H1288 C1317 0.950 . S
H1289 C1318 0.950 . S
H1290 C1320 0.950 . S
H1291 C1321 0.950 . S
C1292 H1274 0.951 . S
C1292 C1293 1.366 . S
C1292 C1294 1.388 . S
C1293 C1292 1.366 . S
C1293 C1297 1.385 . S
C1294 H1275 0.951 . S
C1294 C1292 1.388 . S
C1294 C1295 1.366 . S
C1295 C1294 1.366 . S
C1295 C1296 1.414 . S
C1295 C1298 1.499 . S
C1296 H1276 0.950 . S
C1296 C1295 1.414 . S
C1296 C1297 1.374 . S
C1297 H1277 0.950 . S
C1297 C1293 1.385 . S
C1297 C1296 1.374 . S
C1298 C1295 1.499 . S
C1298 C1299 1.373 . S
C1298 C1300 1.389 . S
C1299 H1278 0.950 . S
C1299 C1298 1.373 . S
C1299 C1315 1.377 . S
C1300 C1298 1.389 . S
C1300 C1301 1.524 . S
C1300 C1314 1.377 . S
C1301 C1300 1.524 . S
C1301 C1302 1.397 . S
C1301 C1306 1.363 . S
C1302 H1279 0.950 . S
C1302 C1301 1.397 . S
C1302 C1303 1.334 . S
C1303 H1280 0.950 . S
C1303 C1302 1.334 . S
C1303 C1304 1.287 . S
C1304 C1303 1.287 . S
C1304 C1305 1.524 . S
C1304 H1323 0.913 . S
C1305 H1281 0.950 . S
C1305 C1304 1.524 . S
C1305 C1306 1.415 . S
C1306 H1282 0.950 . S
C1306 C1301 1.363 . S
C1306 C1305 1.415 . S
C1307 H1283 0.951 . S
C1307 C1308 1.366 . S
C1307 C1309 1.388 . S
C1308 C1307 1.366 . S
C1308 C1312 1.385 . S
C1309 H1284 0.951 . S
C1309 C1307 1.388 . S
C1309 C1310 1.366 . S
C1310 C1309 1.366 . S
C1310 C1311 1.414 . S
C1310 C1313 1.499 . S
C1311 H1285 0.950 . S
C1311 C1310 1.414 . S
C1311 C1312 1.374 . S
C1312 H1286 0.950 . S
C1312 C1308 1.385 . S
C1312 C1311 1.374 . S
C1313 C1310 1.499 . S
C1313 C1314 1.373 . S
C1313 C1315 1.389 . S
C1314 H1287 0.950 . S
C1314 C1300 1.377 . S
C1314 C1313 1.373 . S
C1315 C1299 1.377 . S
C1315 C1313 1.389 . S
C1315 C1316 1.524 . S
C1316 C1315 1.524 . S
C1316 C1317 1.397 . S
C1316 C1321 1.363 . S
C1317 H1288 0.950 . S
C1317 C1316 1.397 . S
C1317 C1318 1.334 . S
C1318 H1289 0.950 . S
C1318 C1317 1.334 . S
C1318 C1319 1.287 1_565 S
C1319 C1318 1.287 1_545 S
C1319 C1320 1.524 . S
C1319 H1322 0.999 . S
C1320 H1290 0.950 . S
C1320 C1319 1.524 . S
C1320 C1321 1.415 1_545 S
C1321 H1291 0.950 . S
C1321 C1316 1.363 . S
C1321 C1320 1.415 1_565 S
H1322 C1319 0.999 . S
H1323 C1304 0.913 . S
H1324 C1342 0.951 . S
H1325 C1344 0.951 . S
H1326 C1346 0.950 . S
H1327 C1347 0.950 . S
H1328 C1349 0.950 . S
H1329 C1352 0.950 . S
H1330 C1353 0.950 . S
H1331 C1355 0.950 . S
H1332 C1356 0.950 . S
H1333 C1357 0.951 . S
H1334 C1359 0.951 . S
H1335 C1361 0.950 . S
H1336 C1362 0.950 . S
H1337 C1364 0.950 . S
H1338 C1367 0.950 . S
H1339 C1368 0.950 . S
H1340 C1370 0.950 . S
H1341 C1371 0.950 . S
C1342 H1324 0.951 . S
C1342 C1343 1.366 . S
C1342 C1344 1.388 . S
C1343 C1342 1.366 . S
C1343 C1347 1.385 . S
C1344 H1325 0.951 . S
C1344 C1342 1.388 . S
C1344 C1345 1.366 . S
C1345 C1344 1.366 . S
C1345 C1346 1.414 . S
C1345 C1348 1.499 . S
C1346 H1326 0.950 . S
C1346 C1345 1.414 . S
C1346 C1347 1.374 . S
C1347 H1327 0.950 . S
C1347 C1343 1.385 . S
C1347 C1346 1.374 . S
C1348 C1345 1.499 . S
C1348 C1349 1.373 . S
C1348 C1350 1.389 . S
C1349 H1328 0.950 . S
C1349 C1348 1.373 . S
C1349 C1365 1.377 . S
C1350 C1348 1.389 . S
C1350 C1351 1.524 . S
C1350 C1364 1.377 . S
C1351 C1350 1.524 . S
C1351 C1352 1.397 . S
C1351 C1356 1.363 . S
C1352 H1329 0.950 . S
C1352 C1351 1.397 . S
C1352 C1353 1.334 . S
C1353 H1330 0.950 . S
C1353 C1352 1.334 . S
C1353 C1354 1.287 . S
C1354 C1353 1.287 . S
C1354 C1355 1.524 . S
C1354 H1373 0.913 . S
C1355 H1331 0.950 . S
C1355 C1354 1.524 . S
C1355 C1356 1.415 . S
C1356 H1332 0.950 . S
C1356 C1351 1.363 . S
C1356 C1355 1.415 . S
C1357 H1333 0.951 . S
C1357 C1358 1.366 . S
C1357 C1359 1.388 . S
C1358 C1357 1.366 . S
C1358 C1362 1.385 . S
C1359 H1334 0.951 . S
C1359 C1357 1.388 . S
C1359 C1360 1.366 . S
C1360 C1359 1.366 . S
C1360 C1361 1.414 . S
C1360 C1363 1.499 . S
C1361 H1335 0.950 . S
C1361 C1360 1.414 . S
C1361 C1362 1.374 . S
C1362 H1336 0.950 . S
C1362 C1358 1.385 . S
C1362 C1361 1.374 . S
C1363 C1360 1.499 . S
C1363 C1364 1.373 . S
C1363 C1365 1.389 . S
C1364 H1337 0.950 . S
C1364 C1350 1.377 . S
C1364 C1363 1.373 . S
C1365 C1349 1.377 . S
C1365 C1363 1.389 . S
C1365 C1366 1.524 . S
C1366 C1365 1.524 . S
C1366 C1367 1.397 . S
C1366 C1371 1.363 . S
C1367 H1338 0.950 . S
C1367 C1366 1.397 . S
C1367 C1368 1.334 . S
C1368 H1339 0.950 . S
C1368 C1367 1.334 . S
C1368 C1369 1.287 . S
C1369 C1368 1.287 . S
C1369 C1370 1.524 . S
C1369 H1372 0.999 . S
C1370 H1340 0.950 . S
C1370 C1369 1.524 . S
C1370 C1371 1.415 . S
C1371 H1341 0.950 . S
C1371 C1366 1.363 . S
C1371 C1370 1.415 . S
H1372 C1369 0.999 . S
H1373 C1354 0.913 . S
H1374 C1392 0.951 . S
H1375 C1394 0.951 . S
H1376 C1396 0.950 . S
H1377 C1397 0.950 . S
H1378 C1399 0.950 . S
H1379 C1402 0.950 . S
H1380 C1403 0.950 . S
H1381 C1405 0.950 . S
H1382 C1406 0.950 . S
H1383 C1407 0.951 . S
H1384 C1409 0.951 . S
H1385 C1411 0.950 . S
H1386 C1412 0.950 . S
H1387 C1414 0.950 . S
H1388 C1417 0.950 . S
H1389 C1418 0.950 . S
H1390 C1420 0.950 . S
H1391 C1421 0.950 . S
C1392 H1374 0.951 . S
C1392 C1393 1.366 . S
C1392 C1394 1.388 . S
C1393 C1392 1.366 . S
C1393 C1397 1.385 . S
C1394 H1375 0.951 . S
C1394 C1392 1.388 . S
C1394 C1395 1.366 . S
C1395 C1394 1.366 . S
C1395 C1396 1.414 . S
C1395 C1398 1.499 . S
C1396 H1376 0.950 . S
C1396 C1395 1.414 . S
C1396 C1397 1.374 . S
C1397 H1377 0.950 . S
C1397 C1393 1.385 . S
C1397 C1396 1.374 . S
C1398 C1395 1.499 . S
C1398 C1399 1.373 . S
C1398 C1400 1.389 . S
C1399 H1378 0.950 . S
C1399 C1398 1.373 . S
C1399 C1415 1.377 . S
C1400 C1398 1.389 . S
C1400 C1401 1.524 . S
C1400 C1414 1.377 . S
C1401 C1400 1.524 . S
C1401 C1402 1.397 . S
C1401 C1406 1.363 . S
C1402 H1379 0.950 . S
C1402 C1401 1.397 . S
C1402 C1403 1.334 . S
C1403 H1380 0.950 . S
C1403 C1402 1.334 . S
C1403 C1404 1.287 . S
C1404 C1403 1.287 . S
C1404 C1405 1.524 . S
C1404 H1423 0.913 . S
C1405 H1381 0.950 . S
C1405 C1404 1.524 . S
C1405 C1406 1.415 . S
C1406 H1382 0.950 . S
C1406 C1401 1.363 . S
C1406 C1405 1.415 . S
C1407 H1383 0.951 . S
C1407 C1408 1.366 . S
C1407 C1409 1.388 . S
C1408 C1407 1.366 . S
C1408 C1412 1.385 . S
C1409 H1384 0.951 . S
C1409 C1407 1.388 . S
C1409 C1410 1.366 . S
C1410 C1409 1.366 . S
C1410 C1411 1.414 . S
C1410 C1413 1.499 . S
C1411 H1385 0.950 . S
C1411 C1410 1.414 . S
C1411 C1412 1.374 . S
C1412 H1386 0.950 . S
C1412 C1408 1.385 . S
C1412 C1411 1.374 . S
C1413 C1410 1.499 . S
C1413 C1414 1.373 . S
C1413 C1415 1.389 . S
C1414 H1387 0.950 . S
C1414 C1400 1.377 . S
C1414 C1413 1.373 . S
C1415 C1399 1.377 . S
C1415 C1413 1.389 . S
C1415 C1416 1.524 . S
C1416 C1415 1.524 . S
C1416 C1417 1.397 . S
C1416 C1421 1.363 . S
C1417 H1388 0.950 . S
C1417 C1416 1.397 . S
C1417 C1418 1.334 . S
C1418 H1389 0.950 . S
C1418 C1417 1.334 . S
C1418 C1419 1.287 . S
C1419 C1418 1.287 . S
C1419 C1420 1.524 . S
C1419 H1422 0.999 . S
C1420 H1390 0.950 . S
C1420 C1419 1.524 . S
C1420 C1421 1.415 . S
C1421 H1391 0.950 . S
C1421 C1416 1.363 . S
C1421 C1420 1.415 . S
H1422 C1419 0.999 . S
H1423 C1404 0.913 . S
H1424 C1442 0.951 . S
H1425 C1444 0.951 1_655 S
H1426 C1446 0.950 . S
H1427 C1447 0.950 . S
H1428 C1449 0.950 . S
H1429 C1452 0.986 . S
H1430 C1453 0.950 1_455 S
H1431 C1455 0.950 . S
H1432 C1456 0.950 . S
H1433 C1457 0.951 . S
H1434 C1459 0.951 1_455 S
H1435 C1461 0.950 . S
H1436 C1462 0.950 . S
H1437 C1464 0.950 . S
H1438 C1467 0.986 . S
H1439 C1468 0.950 1_655 S
H1440 C1470 0.950 . S
H1441 C1471 0.950 . S
C1442 H1424 0.951 . S
C1442 C1443 1.366 . S
C1442 C1444 1.388 . S
C1443 C1442 1.366 . S
C1443 C1447 1.385 . S
C1444 H1425 0.951 1_455 S
C1444 C1442 1.388 . S
C1444 C1445 1.366 . S
C1445 C1444 1.366 . S
C1445 C1446 1.414 . S
C1445 C1448 1.499 . S
C1446 H1426 0.950 . S
C1446 C1445 1.414 . S
C1446 C1447 1.374 . S
C1447 H1427 0.950 . S
C1447 C1443 1.385 . S
C1447 C1446 1.374 . S
C1448 C1445 1.499 . S
C1448 C1449 1.373 1_554 S
C1448 C1450 1.389 1_455 S
C1449 H1428 0.950 . S
C1449 C1448 1.373 1_556 S
C1449 C1465 1.377 . S
C1450 C1448 1.389 1_655 S
C1450 C1451 1.524 . S
C1450 C1464 1.377 . S
C1451 C1450 1.524 . S
C1451 C1452 1.371 1_655 S
C1451 C1456 1.363 . S
C1452 H1429 0.986 . S
C1452 C1451 1.371 1_455 S
C1452 C1453 1.325 1_455 S
C1453 H1430 0.950 1_655 S
C1453 C1452 1.325 1_655 S
C1453 C1454 1.287 . S
C1454 C1453 1.287 . S
C1454 C1455 1.524 . S
C1454 H1473 0.913 . S
C1455 H1431 0.950 . S
C1455 C1454 1.524 . S
C1455 C1456 1.415 . S
C1456 H1432 0.950 . S
C1456 C1451 1.363 . S
C1456 C1455 1.415 . S
C1457 H1433 0.951 . S
C1457 C1458 1.366 . S
C1457 C1459 1.388 . S
C1458 C1457 1.366 . S
C1458 C1462 1.385 . S
C1459 H1434 0.951 1_655 S
C1459 C1457 1.388 . S
C1459 C1460 1.366 . S
C1460 C1459 1.366 . S
C1460 C1461 1.414 . S
C1460 C1463 1.499 . S
C1461 H1435 0.950 . S
C1461 C1460 1.414 . S
C1461 C1462 1.374 . S
C1462 H1436 0.950 . S
C1462 C1458 1.385 . S
C1462 C1461 1.374 . S
C1463 C1460 1.499 . S
C1463 C1464 1.373 1_556 S
C1463 C1465 1.389 1_655 S
C1464 H1437 0.950 . S
C1464 C1450 1.377 . S
C1464 C1463 1.373 1_554 S
C1465 C1449 1.377 . S
C1465 C1463 1.389 1_455 S
C1465 C1466 1.524 . S
C1466 C1465 1.524 . S
C1466 C1467 1.371 1_455 S
C1466 C1471 1.363 . S
C1467 H1438 0.986 . S
C1467 C1466 1.371 1_655 S
C1467 C1468 1.325 1_655 S
C1468 H1439 0.950 1_455 S
C1468 C1467 1.325 1_455 S
C1468 C1469 1.287 . S
C1469 C1468 1.287 . S
C1469 C1470 1.524 . S
C1469 H1472 0.999 . S
C1470 H1440 0.950 . S
C1470 C1469 1.524 . S
C1470 C1471 1.415 . S
C1471 H1441 0.950 . S
C1471 C1466 1.363 . S
C1471 C1470 1.415 . S
H1472 C1469 0.999 . S
H1473 C1454 0.913 . S
H1474 C1492 0.951 . S
H1475 C1494 0.951 1_545 S
H1476 C1496 0.950 . S
H1477 C1497 0.950 . S
H1478 C1499 0.950 . S
H1479 C1502 0.950 . S
H1480 C1503 0.950 . S
H1481 C1505 0.950 . S
H1482 C1506 0.950 . S
H1483 C1507 0.951 . S
H1484 C1509 0.951 1_565 S
H1485 C1511 0.950 . S
H1486 C1512 0.950 . S
H1487 C1514 0.950 . S
H1488 C1517 0.950 . S
H1489 C1518 0.950 . S
H1490 C1520 0.950 . S
H1491 C1521 0.950 . S
C1492 H1474 0.951 . S
C1492 C1493 1.366 . S
C1492 C1494 1.388 . S
C1493 C1492 1.366 . S
C1493 C1497 1.385 . S
C1494 H1475 0.951 1_565 S
C1494 C1492 1.388 . S
C1494 C1495 1.366 . S
C1495 C1494 1.366 . S
C1495 C1496 1.414 . S
C1495 C1498 1.499 . S
C1496 H1476 0.950 . S
C1496 C1495 1.414 . S
C1496 C1497 1.374 . S
C1497 H1477 0.950 . S
C1497 C1493 1.385 . S
C1497 C1496 1.374 . S
C1498 C1495 1.499 . S
C1498 C1499 1.373 1_455 S
C1498 C1500 1.389 1_556 S
C1499 H1478 0.950 . S
C1499 C1498 1.373 1_655 S
C1499 C1515 1.377 1_565 S
C1500 C1498 1.389 1_554 S
C1500 C1501 1.524 . S
C1500 C1514 1.377 1_565 S
C1501 C1500 1.524 . S
C1501 C1502 1.397 . S
C1501 C1506 1.363 1_565 S
C1502 H1479 0.950 . S
C1502 C1501 1.397 . S
C1502 C1503 1.334 . S
C1503 H1480 0.950 . S
C1503 C1502 1.334 . S
C1503 C1504 1.287 . S
C1504 C1503 1.287 . S
C1504 C1505 1.524 1_565 S
C1504 H1523 0.913 . S
C1505 H1481 0.950 . S
C1505 C1504 1.524 1_545 S
C1505 C1506 1.415 . S
C1506 H1482 0.950 . S
C1506 C1501 1.363 1_545 S
C1506 C1505 1.415 . S
C1507 H1483 0.951 . S
C1507 C1508 1.366 . S
C1507 C1509 1.388 . S
C1508 C1507 1.366 . S
C1508 C1512 1.385 . S
C1509 H1484 0.951 1_545 S
C1509 C1507 1.388 . S
C1509 C1510 1.366 . S
C1510 C1509 1.366 . S
C1510 C1511 1.414 . S
C1510 C1513 1.499 . S
C1511 H1485 0.950 . S
C1511 C1510 1.414 . S
C1511 C1512 1.374 . S
C1512 H1486 0.950 . S
C1512 C1508 1.385 . S
C1512 C1511 1.374 . S
C1513 C1510 1.499 . S
C1513 C1514 1.373 1_655 S
C1513 C1515 1.389 1_554 S
C1514 H1487 0.950 . S
C1514 C1500 1.377 1_545 S
C1514 C1513 1.373 1_455 S
C1515 C1499 1.377 1_545 S
C1515 C1513 1.389 1_556 S
C1515 C1516 1.524 . S
C1516 C1515 1.524 . S
C1516 C1517 1.397 . S
C1516 C1521 1.363 1_545 S
C1517 H1488 0.950 . S
C1517 C1516 1.397 . S
C1517 C1518 1.334 . S
C1518 H1489 0.950 . S
C1518 C1517 1.334 . S
C1518 C1519 1.287 . S
C1519 C1518 1.287 . S
C1519 C1520 1.524 1_545 S
C1519 H1522 0.999 . S
C1520 H1490 0.950 . S
C1520 C1519 1.524 1_565 S
C1520 C1521 1.415 . S
C1521 H1491 0.950 . S
C1521 C1516 1.363 1_565 S
C1521 C1520 1.415 . S
H1522 C1519 0.999 . S
H1523 C1504 0.913 . S
H1524 C1542 0.951 . S
H1525 C1544 0.951 . S
H1526 C1546 0.950 . S
H1527 C1547 0.950 . S
H1528 C1549 0.950 . S
H1529 C1552 0.950 . S
H1530 C1553 0.950 . S
H1531 C1555 0.950 . S
H1532 C1556 0.950 . S
H1533 C1557 0.951 . S
H1534 C1559 0.951 . S
H1535 C1561 0.950 . S
H1536 C1562 0.950 . S
H1537 C1564 0.950 . S
H1538 C1567 0.950 . S
H1539 C1568 0.950 . S
H1540 C1570 0.950 . S
H1541 C1571 0.950 . S
C1542 H1524 0.951 . S
C1542 C1543 1.366 . S
C1542 C1544 1.388 . S
C1543 C1542 1.366 . S
C1543 C1547 1.385 . S
C1544 H1525 0.951 . S
C1544 C1542 1.388 . S
C1544 C1545 1.366 . S
C1545 C1544 1.366 . S
C1545 C1546 1.414 . S
C1545 C1548 1.499 . S
C1546 H1526 0.950 . S
C1546 C1545 1.414 . S
C1546 C1547 1.374 . S
C1547 H1527 0.950 . S
C1547 C1543 1.385 . S
C1547 C1546 1.374 . S
C1548 C1545 1.499 . S
C1548 C1549 1.373 . S
C1548 C1550 1.389 1_554 S
C1549 H1528 0.950 . S
C1549 C1548 1.373 . S
C1549 C1565 1.377 1_565 S
C1550 C1548 1.389 1_556 S
C1550 C1551 1.524 . S
C1550 C1564 1.377 1_565 S
C1551 C1550 1.524 . S
C1551 C1552 1.397 . S
C1551 C1556 1.363 . S
C1552 H1529 0.950 . S
C1552 C1551 1.397 . S
C1552 C1553 1.334 . S
C1553 H1530 0.950 . S
C1553 C1552 1.334 . S
C1553 C1554 1.287 . S
C1554 C1553 1.287 . S
C1554 C1555 1.524 . S
C1554 H1573 0.913 . S
C1555 H1531 0.950 . S
C1555 C1554 1.524 . S
C1555 C1556 1.415 . S
C1556 H1532 0.950 . S
C1556 C1551 1.363 . S
C1556 C1555 1.415 . S
C1557 H1533 0.951 . S
C1557 C1558 1.366 . S
C1557 C1559 1.388 . S
C1558 C1557 1.366 . S
C1558 C1562 1.385 . S
C1559 H1534 0.951 . S
C1559 C1557 1.388 . S
C1559 C1560 1.366 . S
C1560 C1559 1.366 . S
C1560 C1561 1.414 . S
C1560 C1563 1.499 . S
C1561 H1535 0.950 . S
C1561 C1560 1.414 . S
C1561 C1562 1.374 . S
C1562 H1536 0.950 . S
C1562 C1558 1.385 . S
C1562 C1561 1.374 . S
C1563 C1560 1.499 . S
C1563 C1564 1.373 . S
C1563 C1565 1.389 1_556 S
C1564 H1537 0.950 . S
C1564 C1550 1.377 1_545 S
C1564 C1563 1.373 . S
C1565 C1549 1.377 1_545 S
C1565 C1563 1.389 1_554 S
C1565 C1566 1.524 . S
C1566 C1565 1.524 . S
C1566 C1567 1.397 . S
C1566 C1571 1.363 . S
C1567 H1538 0.950 . S
C1567 C1566 1.397 . S
C1567 C1568 1.334 . S
C1568 H1539 0.950 . S
C1568 C1567 1.334 . S
C1568 C1569 1.287 . S
C1569 C1568 1.287 . S
C1569 C1570 1.524 . S
C1569 H1572 0.999 . S
C1570 H1540 0.950 . S
C1570 C1569 1.524 . S
C1570 C1571 1.415 . S
C1571 H1541 0.950 . S
C1571 C1566 1.363 . S
C1571 C1570 1.415 . S
H1572 C1569 0.999 . S
H1573 C1554 0.913 . S
H1574 C1592 0.951 . S
H1575 C1594 0.951 . S
H1576 C1596 0.950 . S
H1577 C1597 0.950 . S
H1578 C1599 0.950 . S
H1579 C1602 0.950 . S
H1580 C1603 0.950 . S
H1581 C1605 0.950 . S
H1582 C1606 0.950 . S
H1583 C1607 0.951 . S
H1584 C1609 0.951 . S
H1585 C1611 0.950 . S
H1586 C1612 0.950 . S
H1587 C1614 0.950 . S
H1588 C1617 0.950 . S
H1589 C1618 0.950 . S
H1590 C1620 0.950 . S
H1591 C1621 0.950 . S
C1592 H1574 0.951 . S
C1592 C1593 1.366 . S
C1592 C1594 1.388 . S
C1593 C1592 1.366 . S
C1593 C1597 1.385 . S
C1594 H1575 0.951 . S
C1594 C1592 1.388 . S
C1594 C1595 1.366 . S
C1595 C1594 1.366 . S
C1595 C1596 1.414 . S
C1595 C1598 1.499 . S
C1596 H1576 0.950 . S
C1596 C1595 1.414 . S
C1596 C1597 1.374 . S
C1597 H1577 0.950 . S
C1597 C1593 1.385 . S
C1597 C1596 1.374 . S
C1598 C1595 1.499 . S
C1598 C1599 1.373 . S
C1598 C1600 1.389 1_556 S
C1599 H1578 0.950 . S
C1599 C1598 1.373 . S
C1599 C1615 1.377 . S
C1600 C1598 1.389 1_554 S
C1600 C1601 1.524 . S
C1600 C1614 1.377 . S
C1601 C1600 1.524 . S
C1601 C1602 1.397 . S
C1601 C1606 1.363 . S
C1602 H1579 0.950 . S
C1602 C1601 1.397 . S
C1602 C1603 1.334 . S
C1603 H1580 0.950 . S
C1603 C1602 1.334 . S
C1603 C1604 1.287 . S
C1604 C1603 1.287 . S
C1604 C1605 1.524 . S
C1604 H1623 0.913 . S
C1605 H1581 0.950 . S
C1605 C1604 1.524 . S
C1605 C1606 1.415 . S
C1606 H1582 0.950 . S
C1606 C1601 1.363 . S
C1606 C1605 1.415 . S
C1607 H1583 0.951 . S
C1607 C1608 1.366 . S
C1607 C1609 1.388 . S
C1608 C1607 1.366 . S
C1608 C1612 1.385 . S
C1609 H1584 0.951 . S
C1609 C1607 1.388 . S
C1609 C1610 1.366 . S
C1610 C1609 1.366 . S
C1610 C1611 1.414 . S
C1610 C1613 1.499 . S
C1611 H1585 0.950 . S
C1611 C1610 1.414 . S
C1611 C1612 1.374 . S
C1612 H1586 0.950 . S
C1612 C1608 1.385 . S
C1612 C1611 1.374 . S
C1613 C1610 1.499 . S
C1613 C1614 1.373 . S
C1613 C1615 1.389 1_554 S
C1614 H1587 0.950 . S
C1614 C1600 1.377 . S
C1614 C1613 1.373 . S
C1615 C1599 1.377 . S
C1615 C1613 1.389 1_556 S
C1615 C1616 1.524 . S
C1616 C1615 1.524 . S
C1616 C1617 1.397 . S
C1616 C1621 1.363 . S
C1617 H1588 0.950 . S
C1617 C1616 1.397 . S
C1617 C1618 1.334 . S
C1618 H1589 0.950 . S
C1618 C1617 1.334 . S
C1618 C1619 1.287 . S
C1619 C1618 1.287 . S
C1619 C1620 1.524 . S
C1619 H1622 0.999 . S
C1620 H1590 0.950 . S
C1620 C1619 1.524 . S
C1620 C1621 1.415 . S
C1621 H1591 0.950 . S
C1621 C1616 1.363 . S
C1621 C1620 1.415 . S
H1622 C1619 0.999 . S
H1623 C1604 0.913 . S
H1624 C1642 0.951 . S
H1625 C1644 0.951 1_655 S
H1626 C1646 0.950 . S
H1627 C1647 0.950 . S
H1628 C1649 0.950 . S
H1629 C1652 0.936 1_445 S
H1630 C1653 0.950 . S
H1631 C1655 0.950 . S
H1632 C1656 0.950 . S
H1633 C1657 0.951 . S
H1634 C1659 0.951 1_455 S
H1635 C1661 0.950 . S
H1636 C1662 0.950 . S
H1637 C1664 0.950 . S
H1638 C1667 0.936 1_665 S
H1639 C1668 0.950 . S
H1640 C1670 0.950 . S
H1641 C1671 0.950 . S
C1642 H1624 0.951 . S
C1642 C1643 1.366 . S
C1642 C1644 1.388 . S
C1643 C1642 1.366 . S
C1643 C1647 1.385 . S
C1644 H1625 0.951 1_455 S
C1644 C1642 1.388 . S
C1644 C1645 1.366 . S
C1645 C1644 1.366 . S
C1645 C1646 1.414 . S
C1645 C1648 1.499 . S
C1646 H1626 0.950 . S
C1646 C1645 1.414 . S
C1646 C1647 1.374 . S
C1647 H1627 0.950 . S
C1647 C1643 1.385 . S
C1647 C1646 1.374 . S
C1648 C1645 1.499 . S
C1648 C1649 1.373 . S
C1648 C1650 1.389 1_455 S
C1649 H1628 0.950 . S
C1649 C1648 1.373 . S
C1649 C1665 1.377 1_565 S
C1650 C1648 1.389 1_655 S
C1650 C1651 1.524 . S
C1650 C1664 1.377 1_565 S
C1651 C1650 1.524 . S
C1651 C1652 1.397 . S
C1651 C1656 1.363 . S
C1652 H1629 0.936 1_665 S
C1652 C1651 1.397 . S
C1652 C1653 1.334 . S
C1653 H1630 0.950 . S
C1653 C1652 1.334 . S
C1653 C1654 1.287 . S
C1654 C1653 1.287 . S
C1654 C1655 1.524 . S
C1654 H1673 0.913 . S
C1655 H1631 0.950 . S
C1655 C1654 1.524 . S
C1655 C1656 1.415 . S
C1656 H1632 0.950 . S
C1656 C1651 1.363 . S
C1656 C1655 1.415 . S
C1657 H1633 0.951 . S
C1657 C1658 1.366 . S
C1657 C1659 1.388 . S
C1658 C1657 1.366 . S
C1658 C1662 1.385 . S
C1659 H1634 0.951 1_655 S
C1659 C1657 1.388 . S
C1659 C1660 1.366 . S
C1660 C1659 1.366 . S
C1660 C1661 1.414 . S
C1660 C1663 1.499 . S
C1661 H1635 0.950 . S
C1661 C1660 1.414 . S
C1661 C1662 1.374 . S
C1662 H1636 0.950 . S
C1662 C1658 1.385 . S
C1662 C1661 1.374 . S
C1663 C1660 1.499 . S
C1663 C1664 1.373 . S
C1663 C1665 1.389 1_655 S
C1664 H1637 0.950 . S
C1664 C1650 1.377 1_545 S
C1664 C1663 1.373 . S
C1665 C1649 1.377 1_545 S
C1665 C1663 1.389 1_455 S
C1665 C1666 1.524 . S
C1666 C1665 1.524 . S
C1666 C1667 1.397 . S
C1666 C1671 1.363 . S
C1667 H1638 0.936 1_445 S
C1667 C1666 1.397 . S
C1667 C1668 1.334 . S
C1668 H1639 0.950 . S
C1668 C1667 1.334 . S
C1668 C1669 1.287 . S
C1669 C1668 1.287 . S
C1669 C1670 1.524 . S
C1669 H1672 0.999 . S
C1670 H1640 0.950 . S
C1670 C1669 1.524 . S
C1670 C1671 1.415 . S
C1671 H1641 0.950 . S
C1671 C1666 1.363 . S
C1671 C1670 1.415 . S
H1672 C1669 0.999 . S
H1673 C1654 0.913 . S
H1674 C1692 0.951 . S
H1675 C1694 0.951 . S
H1676 C1696 0.950 . S
H1677 C1697 0.950 . S
H1678 C1699 0.950 . S
H1679 C1702 0.950 . S
H1680 C1703 0.950 . S
H1681 C1705 0.950 . S
H1682 C1706 0.950 . S
H1683 C1707 0.951 . S
H1684 C1709 0.951 . S
H1685 C1711 0.950 . S
H1686 C1712 0.950 . S
H1687 C1714 0.950 . S
H1688 C1717 0.950 . S
H1689 C1718 0.950 . S
H1690 C1720 0.950 . S
H1691 C1721 0.950 . S
C1692 H1674 0.951 . S
C1692 C1693 1.366 . S
C1692 C1694 1.388 . S
C1693 C1692 1.366 . S
C1693 C1697 1.385 . S
C1694 H1675 0.951 . S
C1694 C1692 1.388 . S
C1694 C1695 1.366 . S
C1695 C1694 1.366 . S
C1695 C1696 1.414 . S
C1695 C1698 1.499 . S
C1696 H1676 0.950 . S
C1696 C1695 1.414 . S
C1696 C1697 1.374 . S
C1697 H1677 0.950 . S
C1697 C1693 1.385 . S
C1697 C1696 1.374 . S
C1698 C1695 1.499 . S
C1698 C1699 1.373 1_545 S
C1698 C1700 1.389 . S
C1699 H1678 0.950 . S
C1699 C1698 1.373 1_565 S
C1699 C1715 1.377 . S
C1700 C1698 1.389 . S
C1700 C1701 1.524 . S
C1700 C1714 1.377 . S
C1701 C1700 1.524 . S
C1701 C1702 1.397 . S
C1701 C1706 1.363 . S
C1702 H1679 0.950 . S
C1702 C1701 1.397 . S
C1702 C1703 1.334 . S
C1703 H1680 0.950 . S
C1703 C1702 1.334 . S
C1703 C1704 1.287 . S
C1704 C1703 1.287 . S
C1704 C1705 1.524 . S
C1704 H1723 0.913 . S
C1705 H1681 0.950 . S
C1705 C1704 1.524 . S
C1705 C1706 1.415 . S
C1706 H1682 0.950 . S
C1706 C1701 1.363 . S
C1706 C1705 1.415 . S
C1707 H1683 0.951 . S
C1707 C1708 1.366 . S
C1707 C1709 1.388 . S
C1708 C1707 1.366 . S
C1708 C1712 1.385 . S
C1709 H1684 0.951 . S
C1709 C1707 1.388 . S
C1709 C1710 1.366 . S
C1710 C1709 1.366 . S
C1710 C1711 1.414 . S
C1710 C1713 1.499 . S
C1711 H1685 0.950 . S
C1711 C1710 1.414 . S
C1711 C1712 1.374 . S
C1712 H1686 0.950 . S
C1712 C1708 1.385 . S
C1712 C1711 1.374 . S
C1713 C1710 1.499 . S
C1713 C1714 1.373 1_565 S
C1713 C1715 1.389 . S
C1714 H1687 0.950 . S
C1714 C1700 1.377 . S
C1714 C1713 1.373 1_545 S
C1715 C1699 1.377 . S
C1715 C1713 1.389 . S
C1715 C1716 1.524 . S
C1716 C1715 1.524 . S
C1716 C1717 1.397 . S
C1716 C1721 1.363 . S
C1717 H1688 0.950 . S
C1717 C1716 1.397 . S
C1717 C1718 1.334 . S
C1718 H1689 0.950 . S
C1718 C1717 1.334 . S
C1718 C1719 1.287 . S
C1719 C1718 1.287 . S
C1719 C1720 1.524 . S
C1719 H1722 0.999 . S
C1720 H1690 0.950 . S
C1720 C1719 1.524 . S
C1720 C1721 1.415 . S
C1721 H1691 0.950 . S
C1721 C1716 1.363 . S
C1721 C1720 1.415 . S
H1722 C1719 0.999 . S
H1723 C1704 0.913 . S
H1724 C1742 0.951 . S
H1725 C1744 0.951 . S
H1726 C1746 0.950 . S
H1727 C1747 0.950 . S
H1728 C1749 0.950 . S
H1729 C1752 0.950 . S
H1730 C1753 0.950 . S
H1731 C1755 0.950 . S
H1732 C1756 0.950 . S
H1733 C1757 0.951 . S
H1734 C1759 0.951 . S
H1735 C1761 0.950 . S
H1736 C1762 0.950 . S
H1737 C1764 0.950 . S
H1738 C1767 0.950 . S
H1739 C1768 0.950 . S
H1740 C1770 0.950 . S
H1741 C1771 0.950 . S
C1742 H1724 0.951 . S
C1742 C1743 1.366 . S
C1742 C1744 1.388 . S
C1743 C1742 1.366 . S
C1743 C1747 1.385 . S
C1744 H1725 0.951 . S
C1744 C1742 1.388 . S
C1744 C1745 1.366 . S
C1745 C1744 1.366 . S
C1745 C1746 1.414 . S
C1745 C1748 1.499 . S
C1746 H1726 0.950 . S
C1746 C1745 1.414 . S
C1746 C1747 1.374 . S
C1747 H1727 0.950 . S
C1747 C1743 1.385 . S
C1747 C1746 1.374 . S
C1748 C1745 1.499 . S
C1748 C1749 1.373 . S
C1748 C1750 1.389 . S
C1749 H1728 0.950 . S
C1749 C1748 1.373 . S
C1749 C1765 1.377 . S
C1750 C1748 1.389 . S
C1750 C1751 1.524 . S
C1750 C1764 1.377 . S
C1751 C1750 1.524 . S
C1751 C1752 1.397 . S
C1751 C1756 1.363 . S
C1752 H1729 0.950 . S
C1752 C1751 1.397 . S
C1752 C1753 1.334 . S
C1753 H1730 0.950 . S
C1753 C1752 1.334 . S
C1753 C1754 1.287 . S
C1754 C1753 1.287 . S
C1754 C1755 1.524 . S
C1754 H1773 0.913 . S
C1755 H1731 0.950 . S
C1755 C1754 1.524 . S
C1755 C1756 1.415 . S
C1756 H1732 0.950 . S
C1756 C1751 1.363 . S
C1756 C1755 1.415 . S
C1757 H1733 0.951 . S
C1757 C1758 1.366 . S
C1757 C1759 1.388 . S
C1758 C1757 1.366 . S
C1758 C1762 1.385 . S
C1759 H1734 0.951 . S
C1759 C1757 1.388 . S
C1759 C1760 1.366 . S
C1760 C1759 1.366 . S
C1760 C1761 1.414 . S
C1760 C1763 1.499 . S
C1761 H1735 0.950 . S
C1761 C1760 1.414 . S
C1761 C1762 1.374 . S
C1762 H1736 0.950 . S
C1762 C1758 1.385 . S
C1762 C1761 1.374 . S
C1763 C1760 1.499 . S
C1763 C1764 1.373 . S
C1763 C1765 1.389 . S
C1764 H1737 0.950 . S
C1764 C1750 1.377 . S
C1764 C1763 1.373 . S
C1765 C1749 1.377 . S
C1765 C1763 1.389 . S
C1765 C1766 1.524 . S
C1766 C1765 1.524 . S
C1766 C1767 1.397 . S
C1766 C1771 1.363 . S
C1767 H1738 0.950 . S
C1767 C1766 1.397 . S
C1767 C1768 1.334 . S
C1768 H1739 0.950 . S
C1768 C1767 1.334 . S
C1768 C1769 1.287 . S
C1769 C1768 1.287 . S
C1769 C1770 1.524 . S
C1769 H1772 0.999 . S
C1770 H1740 0.950 . S
C1770 C1769 1.524 . S
C1770 C1771 1.415 . S
C1771 H1741 0.950 . S
C1771 C1766 1.363 . S
C1771 C1770 1.415 . S
H1772 C1769 0.999 . S
H1773 C1754 0.913 . S
H1774 C1792 0.951 . S
H1775 C1794 0.951 . S
H1776 C1796 0.950 . S
H1777 C1797 0.950 . S
H1778 C1799 0.950 . S
H1779 C1802 0.950 . S
H1780 C1803 0.950 . S
H1781 C1805 0.950 . S
H1782 C1806 0.950 . S
H1783 C1807 0.951 . S
H1784 C1809 0.951 . S
H1785 C1811 0.950 . S
H1786 C1812 0.950 . S
H1787 C1814 0.950 . S
H1788 C1817 0.950 . S
H1789 C1818 0.950 . S
H1790 C1820 0.950 . S
H1791 C1821 0.950 . S
C1792 H1774 0.951 . S
C1792 C1793 1.366 . S
C1792 C1794 1.388 . S
C1793 C1792 1.366 . S
C1793 C1797 1.385 . S
C1794 H1775 0.951 . S
C1794 C1792 1.388 . S
C1794 C1795 1.366 . S
C1795 C1794 1.366 . S
C1795 C1796 1.414 . S
C1795 C1798 1.499 . S
C1796 H1776 0.950 . S
C1796 C1795 1.414 . S
C1796 C1797 1.374 . S
C1797 H1777 0.950 . S
C1797 C1793 1.385 . S
C1797 C1796 1.374 . S
C1798 C1795 1.499 . S
C1798 C1799 1.373 . S
C1798 C1800 1.389 1_655 S
C1799 H1778 0.950 . S
C1799 C1798 1.373 . S
C1799 C1815 1.377 . S
C1800 C1798 1.389 1_455 S
C1800 C1801 1.524 . S
C1800 C1814 1.377 . S
C1801 C1800 1.524 . S
C1801 C1802 1.397 . S
C1801 C1806 1.363 . S
C1802 H1779 0.950 . S
C1802 C1801 1.397 . S
C1802 C1803 1.334 . S
C1803 H1780 0.950 . S
C1803 C1802 1.334 . S
C1803 C1804 1.287 . S
C1804 C1803 1.287 . S
C1804 C1805 1.524 . S
C1804 H1823 0.913 . S
C1805 H1781 0.950 . S
C1805 C1804 1.524 . S
C1805 C1806 1.415 . S
C1806 H1782 0.950 . S
C1806 C1801 1.363 . S
C1806 C1805 1.415 . S
C1807 H1783 0.951 . S
C1807 C1808 1.366 . S
C1807 C1809 1.388 . S
C1808 C1807 1.366 . S
C1808 C1812 1.385 . S
C1809 H1784 0.951 . S
C1809 C1807 1.388 . S
C1809 C1810 1.366 . S
C1810 C1809 1.366 . S
C1810 C1811 1.414 . S
C1810 C1813 1.499 . S
C1811 H1785 0.950 . S
C1811 C1810 1.414 . S
C1811 C1812 1.374 . S
C1812 H1786 0.950 . S
C1812 C1808 1.385 . S
C1812 C1811 1.374 . S
C1813 C1810 1.499 . S
C1813 C1814 1.373 . S
C1813 C1815 1.389 1_455 S
C1814 H1787 0.950 . S
C1814 C1800 1.377 . S
C1814 C1813 1.373 . S
C1815 C1799 1.377 . S
C1815 C1813 1.389 1_655 S
C1815 C1816 1.524 . S
C1816 C1815 1.524 . S
C1816 C1817 1.397 . S
C1816 C1821 1.363 . S
C1817 H1788 0.950 . S
C1817 C1816 1.397 . S
C1817 C1818 1.334 . S
C1818 H1789 0.950 . S
C1818 C1817 1.334 . S
C1818 C1819 1.287 . S
C1819 C1818 1.287 . S
C1819 C1820 1.524 . S
C1819 H1822 0.999 . S
C1820 H1790 0.950 . S
C1820 C1819 1.524 . S
C1820 C1821 1.415 . S
C1821 H1791 0.950 . S
C1821 C1816 1.363 . S
C1821 C1820 1.415 . S
H1822 C1819 0.999 . S
H1823 C1804 0.913 . S
C243 C1 2.001 . S
C258 C41 2.001 . S
C293 C26 2.003 . S
C308 C54 2.002 . S
C343 C57 2.001 . S
C358 C96 2.002 . S
C393 C110 2.002 . S
C408 C82 2.003 . S
C443 C125 2.003 . S
C458 C153 2.002 . S
C493 C167 2.003 . S
C508 C127 2.002 . S
C543 C209 2.003 . S
C558 C180 2.000 . S
C593 C223 2.003 . S
C608 C183 2.003 . S
C643 C111 1.624 . S
C658 C0 1.625 . S
C693 C27 1.624 . S
C708 C56 1.625 . S
C743 C83 1.624 . S
C758 C40 1.626 . S
C793 C55 1.624 . S
C808 C97 1.624 . S
C843 C222 1.624 . S
C858 C124 1.624 . S
C893 C126 1.623 . S
C908 C181 1.625 . S
C943 C152 1.624 . S
C958 C182 1.624 . S
C993 C208 1.623 . S
C1008 C166 1.624 . S
C1043 C12 0.264 . S
C1058 C68 0.264 . S
C1093 C15 0.265 . S
C1108 C71 0.263 . S
C1143 C85 0.262 . S
C1158 C28 0.262 . S
C1193 C43 0.263 . S
C1208 C99 0.262 . S
C1243 C169 0.261 . S
C1258 C112 0.264 . S
C1293 C194 0.262 . S
C1308 C138 0.263 . S
C1343 C140 0.263 . S
C1358 C196 0.262 . S
C1393 C154 0.264 . S
C1408 C210 0.262 . S
C1443 C13 1.840 . S
C1458 C113 1.841 . S
C1493 C139 1.841 . S
C1508 C14 1.841 . S
C1543 C29 1.840 . S
C1558 C141 1.841 . S
C1593 C155 1.841 . S
C1608 C42 1.840 . S
C1643 C69 1.840 . S
C1658 C168 1.840 . S
C1693 C70 1.840 . S
C1708 C195 1.840 . S
C1743 C197 1.841 . S
C1758 C84 1.841 . S
C1793 C98 1.841 . S
C1808 C211 1.841 . S
