# Generated by pormake.
# Topology uog, (4)-cn, num edge types: 1
# Building blocks:
#     Node 0, Type 0, BuildingBlock: QUQFOY_clean_sbu_1, # of connection points: 4
#     Node 1, Type 0, BuildingBlock: QUQFOY_clean_sbu_1, # of connection points: 4
#     Node 2, Type 0, BuildingBlock: QUQFOY_clean_sbu_1, # of connection points: 4
#     Node 3, Type 0, BuildingBlock: QUQFOY_clean_sbu_1, # of connection points: 4
#     Node 4, Type 0, BuildingBlock: QUQFOY_clean_sbu_1, # of connection points: 4
#     Node 5, Type 0, BuildingBlock: QUQFOY_clean_sbu_1, # of connection points: 4
#     Edge 6, Type (0, 0), BuildingBlock: MIFKUJ_clean_linker_0, # of connection points: 2
#     Edge 7, Type (0, 0), BuildingBlock: MIFKUJ_clean_linker_0, # of connection points: 2
#     Edge 8, Type (0, 0), BuildingBlock: MIFKUJ_clean_linker_0, # of connection points: 2
#     Edge 9, Type (0, 0), BuildingBlock: MIFKUJ_clean_linker_0, # of connection points: 2
#     Edge 10, Type (0, 0), BuildingBlock: MIFKUJ_clean_linker_0, # of connection points: 2
#     Edge 11, Type (0, 0), BuildingBlock: MIFKUJ_clean_linker_0, # of connection points: 2
#     Edge 12, Type (0, 0), BuildingBlock: MIFKUJ_clean_linker_0, # of connection points: 2
#     Edge 13, Type (0, 0), BuildingBlock: MIFKUJ_clean_linker_0, # of connection points: 2
#     Edge 14, Type (0, 0), BuildingBlock: MIFKUJ_clean_linker_0, # of connection points: 2
#     Edge 15, Type (0, 0), BuildingBlock: MIFKUJ_clean_linker_0, # of connection points: 2
#     Edge 16, Type (0, 0), BuildingBlock: MIFKUJ_clean_linker_0, # of connection points: 2
#     Edge 17, Type (0, 0), BuildingBlock: MIFKUJ_clean_linker_0, # of connection points: 2
# Relax obj value: 0.088
# Max RMSD: 0.155
# Mean RMSD: 0.155
data_MOF--net-uog--node1-QUQFOY_clean_sbu_1--edge1-MIFKUJ_clean_linker_0
_symmetry_space_group_name_H-M    P1
_symmetry_Int_Tables_number       1
_symmetry_cell_setting            triclinic
loop_
_symmetry_equiv_pos_as_xyz
'x, y, z'
_cell_length_a     37.848748
_cell_length_b     37.807694
_cell_length_c     57.012819
_cell_angle_alpha  90.051195
_cell_angle_beta   90.021803
_cell_angle_gamma 120.00073
loop_
_atom_site_label
_atom_site_type_symbol
_atom_site_fract_x
_atom_site_fract_y
_atom_site_fract_z
_atom_type_partial_charge
O0 O 0.60381 0.36173 0.17393 0.0
Cd1 Cd 0.63275 0.32849 0.17147 0.0
Cd2 Cd 0.55626 0.27 0.15904 0.0
O3 O 0.54025 0.31053 0.17415 0.0
O4 O 0.67896 0.35261 0.19484 0.0
O5 O 0.62332 0.29227 0.19873 0.0
C6 C 0.65688 0.32074 0.20757 0.0
C7 C 0.53419 0.20215 0.16976 0.0
C8 C 0.5659 0.34854 0.17655 0.0
C9 C 0.62116 0.30488 0.12149 0.0
O10 O 0.58334 0.28646 0.12654 0.0
O11 O 0.64795 0.32035 0.13768 0.0
O12 O 0.51054 0.211 0.15788 0.0
O13 O 0.5688 0.23193 0.17653 0.0
O14 O 0.24313 0.60187 0.50468 0.0
Cd15 Cd 0.30531 0.63406 0.50087 0.0
Cd16 Cd 0.29088 0.55901 0.48906 0.0
O17 O 0.23348 0.53929 0.50368 0.0
O18 O 0.32443 0.68164 0.52297 0.0
O19 O 0.33702 0.63101 0.52801 0.0
C20 C 0.33848 0.66358 0.53607 0.0
C21 C 0.33799 0.53895 0.50011 0.0
C22 C 0.21969 0.56357 0.50685 0.0
C23 C 0.3164 0.6226 0.45072 0.0
O24 O 0.29998 0.58506 0.4563 0.0
O25 O 0.32614 0.64975 0.46658 0.0
O26 O 0.30647 0.51518 0.48754 0.0
O27 O 0.34123 0.57273 0.50737 0.0
O28 O 0.64259 0.24363 0.84085 0.0
Cd29 Cd 0.67236 0.30587 0.83866 0.0
Cd30 Cd 0.73341 0.29265 0.82489 0.0
O31 O 0.69499 0.23355 0.83765 0.0
O32 O 0.6439 0.32342 0.86166 0.0
O33 O 0.70754 0.33688 0.86581 0.0
C34 C 0.67649 0.33778 0.87436 0.0
C35 C 0.80019 0.33878 0.83692 0.0
C36 C 0.65704 0.21971 0.84126 0.0
C37 C 0.69522 0.32213 0.78868 0.0
O38 O 0.71752 0.30648 0.79296 0.0
O39 O 0.67626 0.32841 0.80515 0.0
O40 O 0.79281 0.30822 0.82354 0.0
O41 O 0.76948 0.34129 0.84456 0.0
O42 O 0.40243 0.6344 0.17202 0.0
Cd43 Cd 0.37138 0.66547 0.16792 0.0
Cd44 Cd 0.44718 0.7254 0.15649 0.0
O45 O 0.465 0.68719 0.17268 0.0
O46 O 0.32335 0.63825 0.1899 0.0
O47 O 0.3752 0.7008 0.19494 0.0
C48 C 0.34198 0.67053 0.20288 0.0
C49 C 0.46514 0.79226 0.16707 0.0
C50 C 0.44044 0.64901 0.17524 0.0
C51 C 0.38509 0.68825 0.11765 0.0
O52 O 0.42261 0.70797 0.12342 0.0
O53 O 0.35755 0.67212 0.13339 0.0
O54 O 0.49097 0.78511 0.15629 0.0
O55 O 0.43053 0.76141 0.17284 0.0
O56 O 0.76783 0.39974 0.50421 0.0
Cd57 Cd 0.70557 0.37159 0.50403 0.0
Cd58 Cd 0.72252 0.44814 0.49107 0.0
O59 O 0.78088 0.46366 0.50322 0.0
O60 O 0.68273 0.32717 0.52855 0.0
O61 O 0.68342 0.38586 0.53162 0.0
C62 C 0.67606 0.35187 0.54098 0.0
C63 C 0.68144 0.47522 0.50302 0.0
C64 C 0.79311 0.43785 0.50538 0.0
C65 C 0.68612 0.38039 0.4549 0.0
O66 O 0.70553 0.41852 0.45923 0.0
O67 O 0.67842 0.35458 0.47125 0.0
O68 O 0.71196 0.49557 0.48909 0.0
O69 O 0.67631 0.44128 0.51125 0.0
O70 O 0.36875 0.76946 0.83831 0.0
Cd71 Cd 0.33693 0.70719 0.83455 0.0
Cd72 Cd 0.27735 0.72394 0.82318 0.0
O73 O 0.31703 0.78096 0.83783 0.0
O74 O 0.36423 0.6863 0.8564 0.0
O75 O 0.30208 0.67632 0.86182 0.0
C76 C 0.33233 0.67314 0.86959 0.0
C77 C 0.21046 0.67742 0.83486 0.0
C78 C 0.35497 0.79377 0.84068 0.0
C79 C 0.31227 0.69608 0.78445 0.0
O80 O 0.29265 0.71401 0.79017 0.0
O81 O 0.32937 0.6857 0.80017 0.0
O82 O 0.21825 0.70982 0.82318 0.0
O83 O 0.24082 0.67302 0.84093 0.0
H84 H 0.58473 0.17608 0.18636 0.0
H85 H 0.57165 0.10609 0.18879 0.0
H86 H 0.44832 0.06091 0.16494 0.0
H87 H 0.46139 0.13133 0.16191 0.0
H88 H 0.46269 0.01706 0.20607 0.0
H89 H 0.50443 0.06372 0.12605 0.0
H90 H 0.55056 0.11288 0.09661 0.0
H91 H 0.64989 0.1004 0.12328 0.0
H92 H 0.60444 0.05162 0.15313 0.0
H93 H 0.40914 0.81596 0.1745 0.0
H94 H 0.42055 0.88505 0.17775 0.0
H95 H 0.55055 0.93327 0.17281 0.0
H96 H 0.53888 0.86374 0.16803 0.0
H97 H 0.53391 0.97736 0.14772 0.0
H98 H 0.49681 0.93085 0.22628 0.0
H99 H 0.45543 0.88454 0.25813 0.0
H100 H 0.35415 0.89943 0.23838 0.0
H101 H 0.39473 0.94541 0.2062 0.0
C102 C 0.55459 0.15133 0.18189 0.0
C103 C 0.52411 0.15934 0.17384 0.0
C104 C 0.54725 0.11133 0.18328 0.0
C105 C 0.50913 0.07842 0.17694 0.0
C106 C 0.47795 0.08599 0.16993 0.0
C107 C 0.48548 0.12619 0.16817 0.0
C108 C 0.50296 0.03647 0.17635 0.0
C109 C 0.47774 0.00801 0.19316 0.0
C110 C 0.52394 0.02541 0.16007 0.0
C111 C 0.55114 0.05436 0.14196 0.0
C112 C 0.53619 0.07174 0.12577 0.0
C113 C 0.56219 0.09948 0.10898 0.0
C114 C 0.60316 0.10984 0.10812 0.0
C115 C 0.61817 0.09238 0.12399 0.0
C116 C 0.59229 0.06467 0.14083 0.0
C117 C 0.44023 0.84123 0.17435 0.0
C118 C 0.47316 0.83437 0.17114 0.0
C119 C 0.44677 0.88088 0.17638 0.0
C120 C 0.48651 0.91471 0.17605 0.0
C121 C 0.51956 0.90783 0.17318 0.0
C122 C 0.51293 0.86808 0.17055 0.0
C123 C 0.49327 0.95714 0.17748 0.0
C124 C 0.51876 0.98598 0.16078 0.0
C125 C 0.47317 0.96875 0.19425 0.0
C126 C 0.44873 0.94132 0.2137 0.0
C127 C 0.46563 0.92405 0.22863 0.0
C128 C 0.44232 0.89788 0.24676 0.0
C129 C 0.40216 0.88897 0.25024 0.0
C130 C 0.38525 0.90633 0.23565 0.0
C131 C 0.40841 0.93249 0.21748 0.0
H132 H 0.38416 0.86868 0.26427 0.0
H133 H 0.62325 0.13133 0.09511 0.0
H134 H 0.34306 0.4726 0.48522 0.0
H135 H 0.4012 0.46146 0.48923 0.0
H136 H 0.46687 0.57419 0.52798 0.0
H137 H 0.40875 0.58507 0.52446 0.0
H138 H 0.47549 0.50468 0.47249 0.0
H139 H 0.53394 0.56961 0.56567 0.0
H140 H 0.5062 0.57461 0.6039 0.0
H141 H 0.39125 0.46873 0.58718 0.0
H142 H 0.41845 0.46277 0.54901 0.0
H143 H 0.67583 0.53843 0.48319 0.0
H144 H 0.61844 0.55101 0.48607 0.0
H145 H 0.55878 0.45131 0.53501 0.0
H146 H 0.61613 0.43906 0.53256 0.0
H147 H 0.54559 0.51142 0.54732 0.0
H148 H 0.53495 0.43739 0.47676 0.0
H149 H 0.55858 0.42494 0.43898 0.0
H150 H 0.56971 0.53562 0.41122 0.0
H151 H 0.54668 0.54901 0.44899 0.0
C152 C 0.36962 0.49468 0.49492 0.0
C153 C 0.37117 0.52968 0.50455 0.0
C154 C 0.40296 0.4884 0.49709 0.0
C155 C 0.43846 0.51688 0.50899 0.0
C156 C 0.4397 0.55143 0.51902 0.0
C157 C 0.40638 0.55766 0.51692 0.0
C158 C 0.47485 0.51151 0.50999 0.0
C159 C 0.49075 0.50617 0.48888 0.0
C160 C 0.49469 0.51297 0.53135 0.0
C161 C 0.47815 0.51603 0.55438 0.0
C162 C 0.5028 0.54732 0.57019 0.0
C163 C 0.48716 0.55033 0.59185 0.0
C164 C 0.44695 0.52209 0.59793 0.0
C165 C 0.42233 0.49068 0.58241 0.0
C166 C 0.43783 0.48751 0.56075 0.0
C167 C 0.65088 0.51974 0.49493 0.0
C168 C 0.65045 0.48754 0.50749 0.0
C169 C 0.61794 0.52677 0.49644 0.0
C170 C 0.58387 0.50159 0.51042 0.0
C171 C 0.58456 0.47104 0.52403 0.0
C172 C 0.61743 0.46404 0.52256 0.0
C173 C 0.54645 0.50522 0.50981 0.0
C174 C 0.53039 0.51019 0.53095 0.0
C175 C 0.52589 0.5025 0.48853 0.0
C176 C 0.5395 0.4944 0.46577 0.0
C177 C 0.54271 0.45921 0.46265 0.0
C178 C 0.55596 0.45197 0.44124 0.0
C179 C 0.56574 0.47953 0.42273 0.0
C180 C 0.56219 0.51433 0.42559 0.0
C181 C 0.54902 0.52176 0.44699 0.0
H182 H 0.57599 0.47387 0.40616 0.0
H183 H 0.43489 0.52449 0.6147 0.0
H184 H 0.87197 0.33835 0.83067 0.0
H185 H 0.94166 0.39658 0.83457 0.0
H186 H 0.89333 0.4733 0.85611 0.0
H187 H 0.82392 0.41531 0.85298 0.0
H188 H 0.95321 0.49971 0.81452 0.0
H189 H 0.93304 0.45667 0.89592 0.0
H190 H 0.91601 0.40617 0.92751 0.0
H191 H 0.01394 0.38723 0.90581 0.0
H192 H 0.03115 0.43718 0.87384 0.0
H193 H 0.14012 0.68171 0.83389 0.0
H194 H 0.07 0.62528 0.83846 0.0
H195 H 0.11511 0.54174 0.84895 0.0
H196 H 0.18492 0.59824 0.84583 0.0
H197 H 0.05478 0.51835 0.87542 0.0
H198 H 0.07483 0.55476 0.79409 0.0
H199 H 0.09248 0.60004 0.7597 0.0
H200 H 0.99682 0.62523 0.77701 0.0
H201 H 0.97893 0.58048 0.81169 0.0
C202 C 0.87624 0.36745 0.83661 0.0
C203 C 0.84242 0.37218 0.84154 0.0
C204 C 0.91601 0.40064 0.8388 0.0
C205 C 0.9225 0.43917 0.84557 0.0
C206 C 0.88888 0.44379 0.85087 0.0
C207 C 0.84926 0.41052 0.84917 0.0
C208 C 0.96421 0.47522 0.84592 0.0
C209 C 0.97536 0.50421 0.82799 0.0
C210 C 0.99328 0.48018 0.86306 0.0
C211 C 0.98307 0.45031 0.88233 0.0
C212 C 0.95067 0.44142 0.89773 0.0
C213 C 0.94105 0.41297 0.91574 0.0
C214 C 0.9638 0.39341 0.91862 0.0
C215 C 0.9963 0.40235 0.90353 0.0
C216 C 0.00602 0.43075 0.88548 0.0
C217 C 0.135 0.65136 0.83746 0.0
C218 C 0.16805 0.64444 0.83941 0.0
C219 C 0.09487 0.61899 0.83987 0.0
C220 C 0.08693 0.5788 0.84349 0.0
C221 C 0.12011 0.57224 0.84614 0.0
C222 C 0.16015 0.60468 0.8443 0.0
C223 C 0.04432 0.54339 0.84389 0.0
C224 C 0.03284 0.51426 0.86192 0.0
C225 C 0.01517 0.53772 0.82644 0.0
C226 C 0.02585 0.56464 0.80562 0.0
C227 C 0.05775 0.57019 0.79065 0.0
C228 C 0.06777 0.59572 0.7711 0.0
C229 C 0.04587 0.6156 0.76622 0.0
C230 C 0.01382 0.60988 0.78084 0.0
C231 C 0.0037 0.58442 0.80044 0.0
H232 H 0.05367 0.63535 0.75107 0.0
H233 H 0.95631 0.3714 0.93258 0.0
H234 H 0.1559 0.48416 0.50541 0.0
H235 H 0.08292 0.46109 0.50873 0.0
H236 H 0.11141 0.5851 0.52145 0.0
H237 H 0.18385 0.60812 0.51876 0.0
H238 H 0.04961 0.53543 0.54798 0.0
H239 H 0.08445 0.54144 0.46647 0.0
H240 H 0.11193 0.52541 0.43138 0.0
H241 H 0.0248 0.39791 0.43957 0.0
H242 H 0.99715 0.41315 0.47493 0.0
H243 H 0.85799 0.516 0.51169 0.0
H244 H 0.93051 0.53662 0.51518 0.0
H245 H 0.89976 0.4107 0.50918 0.0
H246 H 0.82794 0.3899 0.50576 0.0
H247 H 0.96217 0.46058 0.47995 0.0
H248 H 0.92571 0.45687 0.56119 0.0
H249 H 0.8984 0.47524 0.59544 0.0
H250 H 0.98884 0.60155 0.58653 0.0
H251 H 0.01634 0.58398 0.552 0.0
C252 C 0.14661 0.50638 0.50927 0.0
C253 C 0.17576 0.54804 0.51153 0.0
C254 C 0.10488 0.49321 0.51102 0.0
C255 C 0.09161 0.5215 0.51489 0.0
C256 C 0.12078 0.56271 0.51835 0.0
C257 C 0.16231 0.57583 0.51668 0.0
C258 C 0.04755 0.5089 0.51417 0.0
C259 C 0.03059 0.51936 0.53301 0.0
C260 C 0.02253 0.48763 0.49475 0.0
C261 C 0.03905 0.47839 0.47349 0.0
C262 C 0.07136 0.50995 0.46089 0.0
C263 C 0.08693 0.50102 0.44094 0.0
C264 C 0.0702 0.46065 0.43329 0.0
C265 C 0.03778 0.42915 0.44555 0.0
C266 C 0.02214 0.43792 0.46554 0.0
C267 C 0.8667 0.49273 0.51125 0.0
C268 C 0.83705 0.45131 0.50844 0.0
C269 C 0.90811 0.50453 0.51331 0.0
C270 C 0.92049 0.47512 0.5125 0.0
C271 C 0.89094 0.43389 0.50981 0.0
C272 C 0.84976 0.42209 0.50793 0.0
C273 C 0.96425 0.48699 0.51377 0.0
C274 C 0.98117 0.4765 0.49496 0.0
C275 C 0.98924 0.50855 0.5331 0.0
C276 C 0.97279 0.51916 0.55386 0.0
C277 C 0.93954 0.4886 0.56641 0.0
C278 C 0.92407 0.49886 0.5859 0.0
C279 C 0.94179 0.53955 0.59311 0.0
C280 C 0.9751 0.57005 0.58089 0.0
C281 C 0.99065 0.55996 0.56137 0.0
H282 H 0.92978 0.54743 0.60821 0.0
H283 H 0.08228 0.45379 0.41784 0.0
H284 H 0.43441 0.82723 0.85409 0.0
H285 H 0.48552 0.89922 0.85734 0.0
H286 H 0.39437 0.93208 0.84093 0.0
H287 H 0.3427 0.85951 0.83731 0.0
H288 H 0.46173 0.97429 0.81455 0.0
H289 H 0.43412 0.94541 0.89612 0.0
H290 H 0.42491 0.90807 0.93311 0.0
H291 H 0.549 0.93415 0.92983 0.0
H292 H 0.55881 0.97118 0.89261 0.0
H293 H 0.57433 0.18211 0.84361 0.0
H294 H 0.52547 0.10955 0.84601 0.0
H295 H 0.62377 0.08315 0.8488 0.0
H296 H 0.67373 0.15667 0.84607 0.0
H297 H 0.55484 0.03786 0.88235 0.0
H298 H 0.5815 0.06696 0.8003 0.0
H299 H 0.58995 0.10557 0.76391 0.0
H300 H 0.46605 0.07964 0.76887 0.0
H301 H 0.45705 0.04141 0.80554 0.0
C302 C 0.42495 0.84964 0.85142 0.0
C303 C 0.38438 0.83752 0.84535 0.0
C304 C 0.45429 0.89091 0.85341 0.0
C305 C 0.44382 0.92113 0.84952 0.0
C306 C 0.40313 0.90924 0.84403 0.0
C307 C 0.37358 0.86778 0.84209 0.0
C308 C 0.47598 0.96497 0.84979 0.0
C309 C 0.48164 0.98828 0.82953 0.0
C310 C 0.50284 0.98299 0.86906 0.0
C311 C 0.49707 0.96073 0.89144 0.0
C312 C 0.45935 0.94288 0.90317 0.0
C313 C 0.45404 0.92183 0.9242 0.0
C314 C 0.48631 0.91864 0.93379 0.0
C315 C 0.52401 0.93659 0.92237 0.0
C316 C 0.52947 0.95765 0.90132 0.0
C317 C 0.58592 0.16116 0.8449 0.0
C318 C 0.62816 0.17538 0.84452 0.0
C319 C 0.55777 0.11956 0.84624 0.0
C320 C 0.57098 0.09103 0.84739 0.0
C321 C 0.61304 0.10484 0.84788 0.0
C322 C 0.64149 0.14676 0.84627 0.0
C323 C 0.54028 0.04688 0.84719 0.0
C324 C 0.53492 0.02364 0.86741 0.0
C325 C 0.51353 0.02888 0.82793 0.0
C326 C 0.51874 0.05166 0.80581 0.0
C327 C 0.55616 0.0698 0.79376 0.0
C328 C 0.56104 0.09156 0.77305 0.0
C329 C 0.52859 0.09514 0.76411 0.0
C330 C 0.49118 0.07688 0.77584 0.0
C331 C 0.48616 0.05514 0.79657 0.0
H332 H 0.53242 0.11199 0.74808 0.0
H333 H 0.48214 0.90234 0.95008 0.0
H334 H 0.51986 0.66567 0.1801 0.0
H335 H 0.54312 0.61611 0.18518 0.0
H336 H 0.4181 0.51797 0.18674 0.0
H337 H 0.39475 0.56691 0.18235 0.0
H338 H 0.46079 0.5028 0.2173 0.0
H339 H 0.47658 0.54372 0.13609 0.0
H340 H 0.5019 0.59269 0.10326 0.0
H341 H 0.62549 0.63221 0.12342 0.0
H342 H 0.60087 0.5838 0.15657 0.0
H343 H 0.4875 0.33566 0.17942 0.0
H344 H 0.46732 0.38782 0.18367 0.0
H345 H 0.59391 0.48152 0.18818 0.0
H346 H 0.61425 0.4302 0.18401 0.0
H347 H 0.55271 0.50026 0.15618 0.0
H348 H 0.53556 0.45432 0.23593 0.0
H349 H 0.50884 0.40293 0.26749 0.0
H350 H 0.38628 0.37061 0.24907 0.0
H351 H 0.41225 0.42136 0.21711 0.0
C352 C 0.49737 0.6336 0.18184 0.0
C353 C 0.45546 0.62033 0.18056 0.0
C354 C 0.51068 0.60525 0.18463 0.0
C355 C 0.48234 0.56316 0.18595 0.0
C356 C 0.44058 0.55017 0.18573 0.0
C357 C 0.42729 0.57835 0.18308 0.0
C358 C 0.49572 0.53223 0.18627 0.0
C359 C 0.48068 0.5021 0.20384 0.0
C360 C 0.52205 0.53146 0.1689 0.0
C361 C 0.53689 0.56049 0.14896 0.0
C362 C 0.50916 0.56308 0.13362 0.0
C363 C 0.52338 0.59069 0.11494 0.0
C364 C 0.56528 0.61563 0.1113 0.0
C365 C 0.59305 0.61293 0.12629 0.0
C366 C 0.57898 0.5854 0.14502 0.0
C367 C 0.51096 0.36731 0.1816 0.0
C368 C 0.55247 0.37867 0.18122 0.0
C369 C 0.49942 0.39708 0.18405 0.0
C370 C 0.52918 0.43859 0.1862 0.0
C371 C 0.57046 0.44975 0.18641 0.0
C372 C 0.58198 0.4202 0.18406 0.0
C373 C 0.51776 0.47087 0.18715 0.0
C374 C 0.53309 0.50116 0.16975 0.0
C375 C 0.49153 0.47155 0.20458 0.0
C376 C 0.47584 0.44138 0.22397 0.0
C377 C 0.50289 0.43604 0.23848 0.0
C378 C 0.48789 0.40705 0.25646 0.0
C379 C 0.44589 0.38345 0.26025 0.0
C380 C 0.41881 0.38888 0.2461 0.0
C381 C 0.43366 0.41777 0.22806 0.0
H382 H 0.43432 0.36102 0.27417 0.0
H383 H 0.57623 0.63699 0.09682 0.0
H384 H 0.74224 0.37836 0.90345 0.0
H385 H 0.74101 0.38429 0.94612 0.0
H386 H 0.6097 0.32638 0.94426 0.0
H387 H 0.61087 0.32178 0.9016 0.0
H388 H 0.63761 0.38105 0.97752 0.0
H389 H 0.66171 0.27202 0.9538 0.0
H390 H 0.69878 0.24274 0.93349 0.0
H391 H 0.8068 0.3208 0.9731 0.0
H392 H 0.77046 0.3509 0.99345 0.0
H393 H 0.57102 0.27595 0.08343 0.0
H394 H 0.58903 0.29178 0.04231 0.0
H395 H 0.71617 0.36365 0.06096 0.0
H396 H 0.6984 0.34804 0.10259 0.0
H397 H 0.70004 0.31214 0.02088 0.0
H398 H 0.66934 0.41334 0.04869 0.0
H399 H 0.6284 0.43793 0.06924 0.0
H400 H 0.52859 0.3697 0.02193 0.0
H401 H 0.56871 0.34418 1.0013 0.0
C402 C 0.71319 0.36782 0.9121 0.0
C403 C 0.6766 0.34925 0.89918 0.0
C404 C 0.71251 0.37093 0.93651 0.0
C405 C 0.67519 0.35472 0.9485 0.0
C406 C 0.63888 0.33887 0.93546 0.0
C407 C 0.63958 0.33631 0.91102 0.0
C408 C 0.67339 0.35139 0.97452 0.0
C409 C 0.65118 0.36588 0.98695 0.0
C410 C 0.69178 0.3323 0.98701 0.0
C411 C 0.71353 0.31402 0.97493 0.0
C412 C 0.69344 0.2831 0.95806 0.0
C413 C 0.7143 0.26635 0.94656 0.0
C414 C 0.75515 0.28 0.95195 0.0
C415 C 0.77518 0.31033 0.96891 0.0
C416 C 0.75447 0.32723 0.98044 0.0
C417 C 0.60293 0.29489 0.07892 0.0
C418 C 0.63325 0.31101 0.09641 0.0
C419 C 0.61311 0.30403 0.05535 0.0
C420 C 0.65381 0.32948 0.04865 0.0
C421 C 0.68452 0.34418 0.06584 0.0
C422 C 0.67431 0.33518 0.08959 0.0
C423 C 0.66359 0.34102 0.02366 0.0
C424 C 0.68719 0.32801 0.01146 0.0
C425 C 0.64605 0.36097 0.01134 0.0
C426 C 0.62198 0.37666 0.02353 0.0
C427 C 0.63857 0.40336 0.04275 0.0
C428 C 0.61552 0.4175 0.05441 0.0
C429 C 0.5759 0.40534 0.04692 0.0
C430 C 0.55929 0.37909 0.02772 0.0
C431 C 0.5822 0.36483 0.01601 0.0
H432 H 0.5581 0.4163 0.05597 0.0
H433 H 0.77126 0.267 0.94303 0.0
H434 H 0.29087 0.60535 0.23004 0.0
H435 H 0.28286 0.60485 0.27249 0.0
H436 H 0.35731 0.73627 0.274 0.0
H437 H 0.36672 0.73671 0.23155 0.0
H438 H 0.38433 0.70706 0.30501 0.0
H439 H 0.25144 0.68336 0.28773 0.0
H440 H 0.18386 0.65119 0.26874 0.0
H441 H 0.15362 0.53582 0.2995 0.0
H442 H 0.22124 0.56715 0.31843 0.0
H443 H 0.3488 0.69897 0.43058 0.0
H444 H 0.35047 0.71479 0.38865 0.0
H445 H 0.29487 0.58666 0.37201 0.0
H446 H 0.29324 0.57063 0.41342 0.0
H447 H 0.25679 0.62383 0.34988 0.0
H448 H 0.39415 0.64833 0.36292 0.0
H449 H 0.46172 0.68195 0.382 0.0
H450 H 0.48226 0.79904 0.35935 0.0
H451 H 0.41454 0.76611 0.34038 0.0
C452 C 0.30462 0.63423 0.23931 0.0
C453 C 0.32947 0.67104 0.22743 0.0
C454 C 0.29997 0.63396 0.26366 0.0
C455 C 0.31931 0.67057 0.27659 0.0
C456 C 0.34221 0.70759 0.26451 0.0
C457 C 0.34735 0.70782 0.2402 0.0
C458 C 0.3188 0.66974 0.30274 0.0
C459 C 0.35625 0.6896 0.31481 0.0
C460 C 0.28237 0.6466 0.31569 0.0
C461 C 0.24156 0.62759 0.30439 0.0
C462 C 0.2305 0.65107 0.29032 0.0
C463 C 0.19216 0.63299 0.27959 0.0
C464 C 0.1645 0.59147 0.28288 0.0
C465 C 0.17508 0.56797 0.29696 0.0
C466 C 0.2134 0.58589 0.30773 0.0
C467 C 0.3373 0.67425 0.41796 0.0
C468 C 0.32089 0.63354 0.42544 0.0
C469 C 0.33821 0.68332 0.39402 0.0
C470 C 0.32259 0.65183 0.37723 0.0
C471 C 0.30678 0.61138 0.38466 0.0
C472 C 0.30613 0.60235 0.40842 0.0
C473 C 0.32222 0.66035 0.35183 0.0
C474 C 0.28464 0.6419 0.33999 0.0
C475 C 0.35843 0.68509 0.33913 0.0
C476 C 0.39911 0.70482 0.3505 0.0
C477 C 0.41293 0.68127 0.3622 0.0
C478 C 0.45128 0.70019 0.37295 0.0
C479 C 0.47621 0.74261 0.37196 0.0
C480 C 0.46288 0.76619 0.36015 0.0
C481 C 0.42454 0.74742 0.34939 0.0
H482 H 0.50589 0.75721 0.38029 0.0
H483 H 0.13483 0.57753 0.27454 0.0
H484 H 0.6271 0.31762 0.7691 0.0
H485 H 0.61275 0.31778 0.72717 0.0
H486 H 0.7349 0.3441 0.71083 0.0
H487 H 0.74849 0.34183 0.75248 0.0
H488 H 0.63741 0.3659 0.69215 0.0
H489 H 0.73947 0.29782 0.66318 0.0
H490 H 0.7612 0.25091 0.67889 0.0
H491 H 0.65587 0.19541 0.72357 0.0
H492 H 0.6332 0.24157 0.70791 0.0
H493 H 0.69054 0.40849 0.57434 0.0
H494 H 0.68265 0.39876 0.61644 0.0
H495 H 0.62791 0.2684 0.60691 0.0
H496 H 0.63883 0.2786 0.56446 0.0
H497 H 0.67609 0.28635 0.63945 0.0
H498 H 0.57328 0.31989 0.62733 0.0
H499 H 0.54053 0.35753 0.6121 0.0
H500 H 0.62621 0.46452 0.6501 0.0
H501 H 0.65987 0.42775 0.6653 0.0
C502 C 0.651 0.32397 0.75653 0.0
C503 C 0.68877 0.32931 0.76399 0.0
C504 C 0.64275 0.32395 0.73257 0.0
C505 C 0.67233 0.32978 0.71574 0.0
C506 C 0.71105 0.3381 0.72337 0.0
C507 C 0.71896 0.33719 0.74721 0.0
C508 C 0.66269 0.32607 0.69022 0.0
C509 C 0.64566 0.34837 0.68061 0.0
C510 C 0.67163 0.30168 0.67521 0.0
C511 C 0.68482 0.2734 0.68447 0.0
C512 C 0.72083 0.27546 0.67626 0.0
C513 C 0.73334 0.24903 0.68518 0.0
C514 C 0.70999 0.22027 0.70226 0.0
C515 C 0.674 0.21778 0.7104 0.0
C516 C 0.66133 0.2441 0.70152 0.0
C517 C 0.67616 0.37762 0.58114 0.0
C518 C 0.66517 0.34425 0.56609 0.0
C519 C 0.67132 0.37202 0.60533 0.0
C520 C 0.65388 0.33272 0.61509 0.0
C521 C 0.64145 0.29908 0.59994 0.0
C522 C 0.64747 0.30484 0.57567 0.0
C523 C 0.65227 0.32755 0.64109 0.0
C524 C 0.66719 0.30348 0.65088 0.0
C525 C 0.63955 0.34879 0.6563 0.0
C526 C 0.61923 0.37106 0.64737 0.0
C527 C 0.58529 0.35151 0.63234 0.0
C528 C 0.56655 0.3727 0.62372 0.0
C529 C 0.58132 0.4134 0.63011 0.0
C530 C 0.6148 0.43298 0.64517 0.0
C531 C 0.63367 0.41195 0.65384 0.0
H532 H 0.56679 0.42976 0.6234 0.0
H533 H 0.71975 0.19988 0.70916 0.0
H534 H 0.39765 0.68468 0.89588 0.0
H535 H 0.39945 0.67678 0.93824 0.0
H536 H 0.26887 0.62522 0.94147 0.0
H537 H 0.26714 0.63445 0.89913 0.0
H538 H 0.30197 0.68155 0.97268 0.0
H539 H 0.31759 0.56775 0.95312 0.0
H540 H 0.34622 0.53004 0.9329 0.0
H541 H 0.46376 0.61013 0.96309 0.0
H542 H 0.43599 0.6487 0.98324 0.0
H543 H 0.3087 0.64874 0.09725 0.0
H544 H 0.29265 0.63658 0.05524 0.0
H545 H 0.42109 0.70178 0.03897 0.0
H546 H 0.43737 0.71406 0.08051 0.0
H547 H 0.38027 0.62884 0.01537 0.0
H548 H 0.36452 0.74634 0.03108 0.0
H549 H 0.33498 0.78326 0.05128 0.0
H550 H 0.21519 0.69287 0.02832 0.0
H551 H 0.24401 0.65512 0.00824 0.0
C552 C 0.36917 0.67067 0.9055 0.0
C553 C 0.33227 0.66023 0.89413 0.0
C554 C 0.3702 0.66609 0.9298 0.0
C555 C 0.33424 0.65018 0.94318 0.0
C556 C 0.29705 0.63771 0.93161 0.0
C557 C 0.29608 0.64277 0.90736 0.0
C558 C 0.33604 0.65003 0.9693 0.0
C559 C 0.31834 0.66914 0.982 0.0
C560 C 0.35789 0.63449 0.9816 0.0
C561 C 0.37473 0.61129 0.96957 0.0
C562 C 0.34961 0.57751 0.95532 0.0
C563 C 0.36568 0.55594 0.94389 0.0
C564 C 0.4068 0.56772 0.94668 0.0
C565 C 0.43192 0.60104 0.96095 0.0
C566 C 0.41601 0.62273 0.9724 0.0
C567 C 0.33348 0.66069 0.08471 0.0
C568 C 0.37432 0.68241 0.09232 0.0
C569 C 0.32427 0.6537 0.06071 0.0
C570 C 0.35571 0.66822 0.04398 0.0
C571 C 0.39635 0.69007 0.05156 0.0
C572 C 0.40556 0.69725 0.07539 0.0
C573 C 0.34687 0.66092 0.01848 0.0
C574 C 0.36331 0.64049 0.00596 0.0
C575 C 0.32363 0.67495 0.00637 0.0
C576 C 0.30635 0.69765 0.01842 0.0
C577 C 0.33184 0.73415 0.03052 0.0
C578 C 0.31524 0.75526 0.04191 0.0
C579 C 0.27322 0.74035 0.04115 0.0
C580 C 0.24772 0.70434 0.02894 0.0
C581 C 0.26417 0.68309 0.01754 0.0
H582 H 0.26042 0.75674 0.04997 0.0
H583 H 0.41918 0.55099 0.93781 0.0
H584 H 0.67229 0.30832 0.43519 0.0
H585 H 0.66607 0.29156 0.39323 0.0
H586 H 0.67172 0.40568 0.37703 0.0
H587 H 0.67811 0.42267 0.4187 0.0
H588 H 0.61467 0.3421 0.35014 0.0
H589 H 0.75562 0.40048 0.37334 0.0
H590 H 0.81218 0.40479 0.39702 0.0
H591 H 0.78298 0.28508 0.37383 0.0
H592 H 0.72582 0.27984 0.35026 0.0
H593 H 0.72169 0.37804 0.23334 0.0
H594 H 0.72721 0.38165 0.27624 0.0
H595 H 0.61701 0.26482 0.28154 0.0
H596 H 0.61151 0.26054 0.23889 0.0
H597 H 0.72633 0.3281 0.31384 0.0
H598 H 0.55715 0.28272 0.32126 0.0
H599 H 0.50328 0.2837 0.29733 0.0
H600 H 0.59398 0.38662 0.25871 0.0
H601 H 0.64829 0.38665 0.28265 0.0
C602 C 0.6714 0.32943 0.4227 0.0
C603 C 0.67593 0.36692 0.43022 0.0
C604 C 0.66812 0.31994 0.39875 0.0
C605 C 0.66892 0.34762 0.38203 0.0
C606 C 0.67114 0.38395 0.38963 0.0
C607 C 0.67488 0.39365 0.41345 0.0
C608 C 0.66974 0.34013 0.35655 0.0
C609 C 0.63886 0.33865 0.34226 0.0
C610 C 0.70175 0.3364 0.3462 0.0
C611 C 0.73618 0.33958 0.36026 0.0
C612 C 0.76105 0.37494 0.37345 0.0
C613 C 0.79325 0.37758 0.38682 0.0
C614 C 0.80109 0.34518 0.38699 0.0
C615 C 0.77681 0.31012 0.37372 0.0
C616 C 0.74453 0.3073 0.36034 0.0
C617 C 0.69932 0.35257 0.24361 0.0
C618 C 0.66595 0.31922 0.2327 0.0
C619 C 0.70252 0.35469 0.26811 0.0
C620 C 0.67218 0.32376 0.28197 0.0
C621 C 0.64053 0.28913 0.2711 0.0
C622 C 0.63753 0.28677 0.2467 0.0
C623 C 0.67099 0.32955 0.30759 0.0
C624 C 0.70181 0.33088 0.32183 0.0
C625 C 0.63924 0.33373 0.31789 0.0
C626 C 0.60679 0.33431 0.30355 0.0
C627 C 0.56557 0.3056 0.3077 0.0
C628 C 0.53496 0.306 0.29414 0.0
C629 C 0.54521 0.3351 0.27645 0.0
C630 C 0.58609 0.36398 0.27234 0.0
C631 C 0.6168 0.36375 0.28588 0.0
H632 H 0.52148 0.33535 0.26597 0.0
H633 H 0.82605 0.34728 0.39734 0.0
H634 H 0.35178 0.65916 0.76403 0.0
H635 H 0.3617 0.65311 0.72198 0.0
H636 H 0.29439 0.71441 0.70582 0.0
H637 H 0.28343 0.71947 0.74734 0.0
H638 H 0.272 0.65363 0.67732 0.0
H639 H 0.40171 0.76329 0.70453 0.0
H640 H 0.46362 0.79466 0.72915 0.0
H641 H 0.49609 0.70789 0.70349 0.0
H642 H 0.43407 0.67567 0.67892 0.0
H643 H 0.32673 0.71792 0.56172 0.0
H644 H 0.32939 0.72466 0.60443 0.0
H645 H 0.37652 0.6421 0.60963 0.0
H646 H 0.37376 0.63494 0.56688 0.0
H647 H 0.41046 0.70865 0.64345 0.0
H648 H 0.28115 0.60157 0.61472 0.0
H649 H 0.22044 0.57315 0.58917 0.0
H650 H 0.18779 0.65806 0.61771 0.0
H651 H 0.24877 0.6875 0.64313 0.0
C652 C 0.33885 0.67104 0.75149 0.0
C653 C 0.31686 0.68985 0.75914 0.0
C654 C 0.34479 0.66783 0.72745 0.0
C655 C 0.32926 0.6838 0.71067 0.0
C656 C 0.30668 0.70182 0.71834 0.0
C657 C 0.3005 0.70475 0.74221 0.0
C658 C 0.33625 0.68217 0.68508 0.0
C659 C 0.30236 0.66602 0.66999 0.0
C660 C 0.37575 0.69743 0.67538 0.0
C661 C 0.41304 0.71679 0.6901 0.0
C662 C 0.4219 0.75071 0.70428 0.0
C663 C 0.45703 0.76868 0.7182 0.0
C664 C 0.48371 0.7532 0.71794 0.0
C665 C 0.47536 0.71979 0.70371 0.0
C666 C 0.44024 0.70168 0.68977 0.0
C667 C 0.3388 0.70212 0.57186 0.0
C668 C 0.34964 0.67557 0.5609 0.0
C669 C 0.34012 0.70587 0.59628 0.0
C670 C 0.35254 0.68337 0.61017 0.0
C671 C 0.36672 0.65961 0.59922 0.0
C672 C 0.36507 0.65555 0.57478 0.0
C673 C 0.34634 0.68113 0.63594 0.0
C674 C 0.3802 0.6962 0.65094 0.0
C675 C 0.30685 0.66515 0.64562 0.0
C676 C 0.26975 0.647 0.63066 0.0
C677 C 0.2612 0.61439 0.61542 0.0
C678 C 0.22672 0.59807 0.60098 0.0
C679 C 0.20033 0.61385 0.60178 0.0
C680 C 0.2083 0.6459 0.61708 0.0
C681 C 0.2428 0.6624 0.63152 0.0
H682 H 0.17367 0.6012 0.59057 0.0
H683 H 0.51089 0.76716 0.72873 0.0
loop_
_geom_bond_atom_site_label_1
_geom_bond_atom_site_label_2
_geom_bond_distance
_geom_bond_site_symmetry_2
_ccdc_geom_bond_type
O0 Cd1 2.223 . S
O0 C8 1.315 . S
Cd1 O0 2.223 . S
Cd1 O4 2.297 . S
Cd1 O5 2.439 . S
Cd1 O11 2.240 . S
Cd2 O3 2.240 . S
Cd2 O10 2.223 . S
Cd2 O12 2.297 . S
Cd2 O13 2.439 . S
O3 Cd2 2.240 . S
O3 C8 1.279 . S
O4 Cd1 2.297 . S
O4 C6 1.247 . S
O5 Cd1 2.439 . S
O5 C6 1.208 . S
C6 O4 1.247 . S
C6 O5 1.208 . S
C7 O12 1.247 . S
C7 O13 1.208 . S
C8 O0 1.315 . S
C8 O3 1.279 . S
C9 O10 1.315 . S
C9 O11 1.279 . S
O10 Cd2 2.223 . S
O10 C9 1.315 . S
O11 Cd1 2.240 . S
O11 C9 1.279 . S
O12 Cd2 2.297 . S
O12 C7 1.247 . S
O13 Cd2 2.439 . S
O13 C7 1.208 . S
O14 Cd15 2.223 . S
O14 C22 1.315 . S
Cd15 O14 2.223 . S
Cd15 O18 2.297 . S
Cd15 O19 2.439 . S
Cd15 O25 2.240 . S
Cd16 O17 2.240 . S
Cd16 O24 2.223 . S
Cd16 O26 2.297 . S
Cd16 O27 2.439 . S
O17 Cd16 2.240 . S
O17 C22 1.279 . S
O18 Cd15 2.297 . S
O18 C20 1.247 . S
O19 Cd15 2.439 . S
O19 C20 1.208 . S
C20 O18 1.247 . S
C20 O19 1.208 . S
C21 O26 1.247 . S
C21 O27 1.208 . S
C22 O14 1.315 . S
C22 O17 1.279 . S
C23 O24 1.315 . S
C23 O25 1.279 . S
O24 Cd16 2.223 . S
O24 C23 1.315 . S
O25 Cd15 2.240 . S
O25 C23 1.279 . S
O26 Cd16 2.297 . S
O26 C21 1.247 . S
O27 Cd16 2.439 . S
O27 C21 1.208 . S
O28 Cd29 2.223 . S
O28 C36 1.315 . S
Cd29 O28 2.223 . S
Cd29 O32 2.297 . S
Cd29 O33 2.439 . S
Cd29 O39 2.240 . S
Cd30 O31 2.240 . S
Cd30 O38 2.223 . S
Cd30 O40 2.297 . S
Cd30 O41 2.439 . S
O31 Cd30 2.240 . S
O31 C36 1.279 . S
O32 Cd29 2.297 . S
O32 C34 1.247 . S
O33 Cd29 2.439 . S
O33 C34 1.208 . S
C34 O32 1.247 . S
C34 O33 1.208 . S
C35 O40 1.247 . S
C35 O41 1.208 . S
C36 O28 1.315 . S
C36 O31 1.279 . S
C37 O38 1.315 . S
C37 O39 1.279 . S
O38 Cd30 2.223 . S
O38 C37 1.315 . S
O39 Cd29 2.240 . S
O39 C37 1.279 . S
O40 Cd30 2.297 . S
O40 C35 1.247 . S
O41 Cd30 2.439 . S
O41 C35 1.208 . S
O42 Cd43 2.223 . S
O42 C50 1.315 . S
Cd43 O42 2.223 . S
Cd43 O46 2.297 . S
Cd43 O47 2.439 . S
Cd43 O53 2.240 . S
Cd44 O45 2.240 . S
Cd44 O52 2.223 . S
Cd44 O54 2.297 . S
Cd44 O55 2.439 . S
O45 Cd44 2.240 . S
O45 C50 1.279 . S
O46 Cd43 2.297 . S
O46 C48 1.247 . S
O47 Cd43 2.439 . S
O47 C48 1.208 . S
C48 O46 1.247 . S
C48 O47 1.208 . S
C49 O54 1.247 . S
C49 O55 1.208 . S
C50 O42 1.315 . S
C50 O45 1.279 . S
C51 O52 1.315 . S
C51 O53 1.279 . S
O52 Cd44 2.223 . S
O52 C51 1.315 . S
O53 Cd43 2.240 . S
O53 C51 1.279 . S
O54 Cd44 2.297 . S
O54 C49 1.247 . S
O55 Cd44 2.439 . S
O55 C49 1.208 . S
O56 Cd57 2.223 . S
O56 C64 1.315 . S
Cd57 O56 2.223 . S
Cd57 O60 2.297 . S
Cd57 O61 2.439 . S
Cd57 O67 2.240 . S
Cd58 O59 2.240 . S
Cd58 O66 2.223 . S
Cd58 O68 2.297 . S
Cd58 O69 2.439 . S
O59 Cd58 2.240 . S
O59 C64 1.279 . S
O60 Cd57 2.297 . S
O60 C62 1.247 . S
O61 Cd57 2.439 . S
O61 C62 1.208 . S
C62 O60 1.247 . S
C62 O61 1.208 . S
C63 O68 1.247 . S
C63 O69 1.208 . S
C64 O56 1.315 . S
C64 O59 1.279 . S
C65 O66 1.315 . S
C65 O67 1.279 . S
O66 Cd58 2.223 . S
O66 C65 1.315 . S
O67 Cd57 2.240 . S
O67 C65 1.279 . S
O68 Cd58 2.297 . S
O68 C63 1.247 . S
O69 Cd58 2.439 . S
O69 C63 1.208 . S
O70 Cd71 2.223 . S
O70 C78 1.315 . S
Cd71 O70 2.223 . S
Cd71 O74 2.297 . S
Cd71 O75 2.439 . S
Cd71 O81 2.240 . S
Cd72 O73 2.240 . S
Cd72 O80 2.223 . S
Cd72 O82 2.297 . S
Cd72 O83 2.439 . S
O73 Cd72 2.240 . S
O73 C78 1.279 . S
O74 Cd71 2.297 . S
O74 C76 1.247 . S
O75 Cd71 2.439 . S
O75 C76 1.208 . S
C76 O74 1.247 . S
C76 O75 1.208 . S
C77 O82 1.247 . S
C77 O83 1.208 . S
C78 O70 1.315 . S
C78 O73 1.279 . S
C79 O80 1.315 . S
C79 O81 1.279 . S
O80 Cd72 2.223 . S
O80 C79 1.315 . S
O81 Cd71 2.240 . S
O81 C79 1.279 . S
O82 Cd72 2.297 . S
O82 C77 1.247 . S
O83 Cd72 2.439 . S
O83 C77 1.208 . S
H84 C102 0.951 . S
H85 C104 0.951 . S
H86 C106 0.950 . S
H87 C107 0.950 . S
H88 C109 0.950 . S
H89 C112 0.950 . S
H90 C113 0.950 . S
H91 C115 0.950 . S
H92 C116 0.950 . S
H93 C117 0.951 . S
H94 C119 0.951 . S
H95 C121 0.950 . S
H96 C122 0.950 . S
H97 C124 0.950 . S
H98 C127 0.950 . S
H99 C128 0.950 . S
H100 C130 0.950 . S
H101 C131 0.950 . S
C102 H84 0.951 . S
C102 C103 1.366 . S
C102 C104 1.388 . S
C103 C102 1.366 . S
C103 C107 1.385 . S
C104 H85 0.951 . S
C104 C102 1.388 . S
C104 C105 1.366 . S
C105 C104 1.366 . S
C105 C106 1.414 . S
C105 C108 1.499 . S
C106 H86 0.950 . S
C106 C105 1.414 . S
C106 C107 1.374 . S
C107 H87 0.950 . S
C107 C103 1.385 . S
C107 C106 1.374 . S
C108 C105 1.499 . S
C108 C109 1.373 . S
C108 C110 1.389 . S
C109 H88 0.950 . S
C109 C108 1.373 . S
C109 C125 1.377 1_545 S
C110 C108 1.389 . S
C110 C111 1.524 . S
C110 C124 1.377 1_545 S
C111 C110 1.524 . S
C111 C112 1.397 . S
C111 C116 1.363 . S
C112 H89 0.950 . S
C112 C111 1.397 . S
C112 C113 1.334 . S
C113 H90 0.950 . S
C113 C112 1.334 . S
C113 C114 1.287 . S
C114 C113 1.287 . S
C114 C115 1.524 . S
C114 H133 0.913 . S
C115 H91 0.950 . S
C115 C114 1.524 . S
C115 C116 1.415 . S
C116 H92 0.950 . S
C116 C111 1.363 . S
C116 C115 1.415 . S
C117 H93 0.951 . S
C117 C118 1.366 . S
C117 C119 1.388 . S
C118 C117 1.366 . S
C118 C122 1.385 . S
C119 H94 0.951 . S
C119 C117 1.388 . S
C119 C120 1.366 . S
C120 C119 1.366 . S
C120 C121 1.414 . S
C120 C123 1.499 . S
C121 H95 0.950 . S
C121 C120 1.414 . S
C121 C122 1.374 . S
C122 H96 0.950 . S
C122 C118 1.385 . S
C122 C121 1.374 . S
C123 C120 1.499 . S
C123 C124 1.373 . S
C123 C125 1.389 . S
C124 H97 0.950 . S
C124 C110 1.377 1_565 S
C124 C123 1.373 . S
C125 C109 1.377 1_565 S
C125 C123 1.389 . S
C125 C126 1.524 . S
C126 C125 1.524 . S
C126 C127 1.397 . S
C126 C131 1.363 . S
C127 H98 0.950 . S
C127 C126 1.397 . S
C127 C128 1.334 . S
C128 H99 0.950 . S
C128 C127 1.334 . S
C128 C129 1.287 . S
C129 C128 1.287 . S
C129 C130 1.524 . S
C129 H132 0.999 . S
C130 H100 0.950 . S
C130 C129 1.524 . S
C130 C131 1.415 . S
C131 H101 0.950 . S
C131 C126 1.363 . S
C131 C130 1.415 . S
H132 C129 0.999 . S
H133 C114 0.913 . S
H134 C152 0.951 . S
H135 C154 0.951 . S
H136 C156 0.950 . S
H137 C157 0.950 . S
H138 C159 0.950 . S
H139 C162 0.950 . S
H140 C163 0.950 . S
H141 C165 0.950 . S
H142 C166 0.950 . S
H143 C167 0.951 . S
H144 C169 0.951 . S
H145 C171 0.950 . S
H146 C172 0.950 . S
H147 C174 0.950 . S
H148 C177 0.950 . S
H149 C178 0.950 . S
H150 C180 0.950 . S
H151 C181 0.950 . S
C152 H134 0.951 . S
C152 C153 1.366 . S
C152 C154 1.388 . S
C153 C152 1.366 . S
C153 C157 1.385 . S
C154 H135 0.951 . S
C154 C152 1.388 . S
C154 C155 1.366 . S
C155 C154 1.366 . S
C155 C156 1.414 . S
C155 C158 1.499 . S
C156 H136 0.950 . S
C156 C155 1.414 . S
C156 C157 1.374 . S
C157 H137 0.950 . S
C157 C153 1.385 . S
C157 C156 1.374 . S
C158 C155 1.499 . S
C158 C159 1.373 . S
C158 C160 1.389 . S
C159 H138 0.950 . S
C159 C158 1.373 . S
C159 C175 1.377 . S
C160 C158 1.389 . S
C160 C161 1.524 . S
C160 C174 1.377 . S
C161 C160 1.524 . S
C161 C162 1.397 . S
C161 C166 1.363 . S
C162 H139 0.950 . S
C162 C161 1.397 . S
C162 C163 1.334 . S
C163 H140 0.950 . S
C163 C162 1.334 . S
C163 C164 1.287 . S
C164 C163 1.287 . S
C164 C165 1.524 . S
C164 H183 0.913 . S
C165 H141 0.950 . S
C165 C164 1.524 . S
C165 C166 1.415 . S
C166 H142 0.950 . S
C166 C161 1.363 . S
C166 C165 1.415 . S
C167 H143 0.951 . S
C167 C168 1.366 . S
C167 C169 1.388 . S
C168 C167 1.366 . S
C168 C172 1.385 . S
C169 H144 0.951 . S
C169 C167 1.388 . S
C169 C170 1.366 . S
C170 C169 1.366 . S
C170 C171 1.414 . S
C170 C173 1.499 . S
C171 H145 0.950 . S
C171 C170 1.414 . S
C171 C172 1.374 . S
C172 H146 0.950 . S
C172 C168 1.385 . S
C172 C171 1.374 . S
C173 C170 1.499 . S
C173 C174 1.373 . S
C173 C175 1.389 . S
C174 H147 0.950 . S
C174 C160 1.377 . S
C174 C173 1.373 . S
C175 C159 1.377 . S
C175 C173 1.389 . S
C175 C176 1.524 . S
C176 C175 1.524 . S
C176 C177 1.397 . S
C176 C181 1.363 . S
C177 H148 0.950 . S
C177 C176 1.397 . S
C177 C178 1.334 . S
C178 H149 0.950 . S
C178 C177 1.334 . S
C178 C179 1.287 . S
C179 C178 1.287 . S
C179 C180 1.524 . S
C179 H182 0.999 . S
C180 H150 0.950 . S
C180 C179 1.524 . S
C180 C181 1.415 . S
C181 H151 0.950 . S
C181 C176 1.363 . S
C181 C180 1.415 . S
H182 C179 0.999 . S
H183 C164 0.913 . S
H184 C202 0.951 . S
H185 C204 0.951 . S
H186 C206 0.950 . S
H187 C207 0.950 . S
H188 C209 0.950 . S
H189 C212 0.950 . S
H190 C213 0.950 . S
H191 C215 0.950 . S
H192 C216 0.950 1_455 S
H193 C217 0.951 . S
H194 C219 0.951 . S
H195 C221 0.950 . S
H196 C222 0.950 . S
H197 C224 0.950 . S
H198 C227 0.950 . S
H199 C228 0.950 . S
H200 C230 0.950 . S
H201 C231 0.950 1_655 S
C202 H184 0.951 . S
C202 C203 1.366 . S
C202 C204 1.388 . S
C203 C202 1.366 . S
C203 C207 1.385 . S
C204 H185 0.951 . S
C204 C202 1.388 . S
C204 C205 1.366 . S
C205 C204 1.366 . S
C205 C206 1.414 . S
C205 C208 1.499 . S
C206 H186 0.950 . S
C206 C205 1.414 . S
C206 C207 1.374 . S
C207 H187 0.950 . S
C207 C203 1.385 . S
C207 C206 1.374 . S
C208 C205 1.499 . S
C208 C209 1.373 . S
C208 C210 1.389 . S
C209 H188 0.950 . S
C209 C208 1.373 . S
C209 C225 1.377 1_655 S
C210 C208 1.389 . S
C210 C211 1.524 . S
C210 C224 1.377 1_655 S
C211 C210 1.524 . S
C211 C212 1.397 . S
C211 C216 1.363 . S
C212 H189 0.950 . S
C212 C211 1.397 . S
C212 C213 1.334 . S
C213 H190 0.950 . S
C213 C212 1.334 . S
C213 C214 1.287 . S
C214 C213 1.287 . S
C214 C215 1.524 . S
C214 H233 0.913 . S
C215 H191 0.950 . S
C215 C214 1.524 . S
C215 C216 1.415 . S
C216 H192 0.950 1_655 S
C216 C211 1.363 . S
C216 C215 1.415 . S
C217 H193 0.951 . S
C217 C218 1.366 . S
C217 C219 1.388 . S
C218 C217 1.366 . S
C218 C222 1.385 . S
C219 H194 0.951 . S
C219 C217 1.388 . S
C219 C220 1.366 . S
C220 C219 1.366 . S
C220 C221 1.414 . S
C220 C223 1.499 . S
C221 H195 0.950 . S
C221 C220 1.414 . S
C221 C222 1.374 . S
C222 H196 0.950 . S
C222 C218 1.385 . S
C222 C221 1.374 . S
C223 C220 1.499 . S
C223 C224 1.373 . S
C223 C225 1.389 . S
C224 H197 0.950 . S
C224 C210 1.377 1_455 S
C224 C223 1.373 . S
C225 C209 1.377 1_455 S
C225 C223 1.389 . S
C225 C226 1.524 . S
C226 C225 1.524 . S
C226 C227 1.397 . S
C226 C231 1.363 . S
C227 H198 0.950 . S
C227 C226 1.397 . S
C227 C228 1.334 . S
C228 H199 0.950 . S
C228 C227 1.334 . S
C228 C229 1.287 . S
C229 C228 1.287 . S
C229 C230 1.524 . S
C229 H232 0.999 . S
C230 H200 0.950 . S
C230 C229 1.524 . S
C230 C231 1.415 . S
C231 H201 0.950 1_455 S
C231 C226 1.363 . S
C231 C230 1.415 . S
H232 C229 0.999 . S
H233 C214 0.913 . S
H234 C252 0.951 . S
H235 C254 0.951 . S
H236 C256 0.950 . S
H237 C257 0.950 . S
H238 C259 0.950 . S
H239 C262 0.950 . S
H240 C263 0.950 . S
H241 C265 0.950 . S
H242 C266 0.950 1_655 S
H243 C267 0.951 . S
H244 C269 0.951 . S
H245 C271 0.950 . S
H246 C272 0.950 . S
H247 C274 0.950 . S
H248 C277 0.950 . S
H249 C278 0.950 . S
H250 C280 0.950 . S
H251 C281 0.950 1_455 S
C252 H234 0.951 . S
C252 C253 1.366 . S
C252 C254 1.388 . S
C253 C252 1.366 . S
C253 C257 1.385 . S
C254 H235 0.951 . S
C254 C252 1.388 . S
C254 C255 1.366 . S
C255 C254 1.366 . S
C255 C256 1.414 . S
C255 C258 1.499 . S
C256 H236 0.950 . S
C256 C255 1.414 . S
C256 C257 1.374 . S
C257 H237 0.950 . S
C257 C253 1.385 . S
C257 C256 1.374 . S
C258 C255 1.499 . S
C258 C259 1.373 . S
C258 C260 1.389 . S
C259 H238 0.950 . S
C259 C258 1.373 . S
C259 C275 1.377 1_455 S
C260 C258 1.389 . S
C260 C261 1.524 . S
C260 C274 1.377 1_455 S
C261 C260 1.524 . S
C261 C262 1.397 . S
C261 C266 1.363 . S
C262 H239 0.950 . S
C262 C261 1.397 . S
C262 C263 1.334 . S
C263 H240 0.950 . S
C263 C262 1.334 . S
C263 C264 1.287 . S
C264 C263 1.287 . S
C264 C265 1.524 . S
C264 H283 0.913 . S
C265 H241 0.950 . S
C265 C264 1.524 . S
C265 C266 1.415 . S
C266 H242 0.950 1_455 S
C266 C261 1.363 . S
C266 C265 1.415 . S
C267 H243 0.951 . S
C267 C268 1.366 . S
C267 C269 1.388 . S
C268 C267 1.366 . S
C268 C272 1.385 . S
C269 H244 0.951 . S
C269 C267 1.388 . S
C269 C270 1.366 . S
C270 C269 1.366 . S
C270 C271 1.414 . S
C270 C273 1.499 . S
C271 H245 0.950 . S
C271 C270 1.414 . S
C271 C272 1.374 . S
C272 H246 0.950 . S
C272 C268 1.385 . S
C272 C271 1.374 . S
C273 C270 1.499 . S
C273 C274 1.373 . S
C273 C275 1.389 . S
C274 H247 0.950 . S
C274 C260 1.377 1_655 S
C274 C273 1.373 . S
C275 C259 1.377 1_655 S
C275 C273 1.389 . S
C275 C276 1.524 . S
C276 C275 1.524 . S
C276 C277 1.397 . S
C276 C281 1.363 . S
C277 H248 0.950 . S
C277 C276 1.397 . S
C277 C278 1.334 . S
C278 H249 0.950 . S
C278 C277 1.334 . S
C278 C279 1.287 . S
C279 C278 1.287 . S
C279 C280 1.524 . S
C279 H282 0.999 . S
C280 H250 0.950 . S
C280 C279 1.524 . S
C280 C281 1.415 . S
C281 H251 0.950 1_655 S
C281 C276 1.363 . S
C281 C280 1.415 . S
H282 C279 0.999 . S
H283 C264 0.913 . S
H284 C302 0.951 . S
H285 C304 0.951 . S
H286 C306 0.950 . S
H287 C307 0.950 . S
H288 C309 0.950 . S
H289 C312 0.950 . S
H290 C313 0.950 . S
H291 C315 0.950 . S
H292 C316 0.950 . S
H293 C317 0.951 . S
H294 C319 0.951 . S
H295 C321 0.950 . S
H296 C322 0.950 . S
H297 C324 0.950 . S
H298 C327 0.950 . S
H299 C328 0.950 . S
H300 C330 0.950 . S
H301 C331 0.950 . S
C302 H284 0.951 . S
C302 C303 1.366 . S
C302 C304 1.388 . S
C303 C302 1.366 . S
C303 C307 1.385 . S
C304 H285 0.951 . S
C304 C302 1.388 . S
C304 C305 1.366 . S
C305 C304 1.366 . S
C305 C306 1.414 . S
C305 C308 1.499 . S
C306 H286 0.950 . S
C306 C305 1.414 . S
C306 C307 1.374 . S
C307 H287 0.950 . S
C307 C303 1.385 . S
C307 C306 1.374 . S
C308 C305 1.499 . S
C308 C309 1.373 . S
C308 C310 1.389 . S
C309 H288 0.950 . S
C309 C308 1.373 . S
C309 C325 1.377 1_565 S
C310 C308 1.389 . S
C310 C311 1.524 . S
C310 C324 1.377 1_565 S
C311 C310 1.524 . S
C311 C312 1.397 . S
C311 C316 1.363 . S
C312 H289 0.950 . S
C312 C311 1.397 . S
C312 C313 1.334 . S
C313 H290 0.950 . S
C313 C312 1.334 . S
C313 C314 1.287 . S
C314 C313 1.287 . S
C314 C315 1.524 . S
C314 H333 0.913 . S
C315 H291 0.950 . S
C315 C314 1.524 . S
C315 C316 1.415 . S
C316 H292 0.950 . S
C316 C311 1.363 . S
C316 C315 1.415 . S
C317 H293 0.951 . S
C317 C318 1.366 . S
C317 C319 1.388 . S
C318 C317 1.366 . S
C318 C322 1.385 . S
C319 H294 0.951 . S
C319 C317 1.388 . S
C319 C320 1.366 . S
C320 C319 1.366 . S
C320 C321 1.414 . S
C320 C323 1.499 . S
C321 H295 0.950 . S
C321 C320 1.414 . S
C321 C322 1.374 . S
C322 H296 0.950 . S
C322 C318 1.385 . S
C322 C321 1.374 . S
C323 C320 1.499 . S
C323 C324 1.373 . S
C323 C325 1.389 . S
C324 H297 0.950 . S
C324 C310 1.377 1_545 S
C324 C323 1.373 . S
C325 C309 1.377 1_545 S
C325 C323 1.389 . S
C325 C326 1.524 . S
C326 C325 1.524 . S
C326 C327 1.397 . S
C326 C331 1.363 . S
C327 H298 0.950 . S
C327 C326 1.397 . S
C327 C328 1.334 . S
C328 H299 0.950 . S
C328 C327 1.334 . S
C328 C329 1.287 . S
C329 C328 1.287 . S
C329 C330 1.524 . S
C329 H332 0.999 . S
C330 H300 0.950 . S
C330 C329 1.524 . S
C330 C331 1.415 . S
C331 H301 0.950 . S
C331 C326 1.363 . S
C331 C330 1.415 . S
H332 C329 0.999 . S
H333 C314 0.913 . S
H334 C352 0.951 . S
H335 C354 0.951 . S
H336 C356 0.950 . S
H337 C357 0.950 . S
H338 C359 0.950 . S
H339 C362 0.950 . S
H340 C363 0.950 . S
H341 C365 0.950 . S
H342 C366 0.950 . S
H343 C367 0.951 . S
H344 C369 0.951 . S
H345 C371 0.950 . S
H346 C372 0.950 . S
H347 C374 0.950 . S
H348 C377 0.950 . S
H349 C378 0.950 . S
H350 C380 0.950 . S
H351 C381 0.950 . S
C352 H334 0.951 . S
C352 C353 1.366 . S
C352 C354 1.388 . S
C353 C352 1.366 . S
C353 C357 1.385 . S
C354 H335 0.951 . S
C354 C352 1.388 . S
C354 C355 1.366 . S
C355 C354 1.366 . S
C355 C356 1.414 . S
C355 C358 1.499 . S
C356 H336 0.950 . S
C356 C355 1.414 . S
C356 C357 1.374 . S
C357 H337 0.950 . S
C357 C353 1.385 . S
C357 C356 1.374 . S
C358 C355 1.499 . S
C358 C359 1.373 . S
C358 C360 1.389 . S
C359 H338 0.950 . S
C359 C358 1.373 . S
C359 C375 1.377 . S
C360 C358 1.389 . S
C360 C361 1.524 . S
C360 C374 1.377 . S
C361 C360 1.524 . S
C361 C362 1.397 . S
C361 C366 1.363 . S
C362 H339 0.950 . S
C362 C361 1.397 . S
C362 C363 1.334 . S
C363 H340 0.950 . S
C363 C362 1.334 . S
C363 C364 1.287 . S
C364 C363 1.287 . S
C364 C365 1.524 . S
C364 H383 0.913 . S
C365 H341 0.950 . S
C365 C364 1.524 . S
C365 C366 1.415 . S
C366 H342 0.950 . S
C366 C361 1.363 . S
C366 C365 1.415 . S
C367 H343 0.951 . S
C367 C368 1.366 . S
C367 C369 1.388 . S
C368 C367 1.366 . S
C368 C372 1.385 . S
C369 H344 0.951 . S
C369 C367 1.388 . S
C369 C370 1.366 . S
C370 C369 1.366 . S
C370 C371 1.414 . S
C370 C373 1.499 . S
C371 H345 0.950 . S
C371 C370 1.414 . S
C371 C372 1.374 . S
C372 H346 0.950 . S
C372 C368 1.385 . S
C372 C371 1.374 . S
C373 C370 1.499 . S
C373 C374 1.373 . S
C373 C375 1.389 . S
C374 H347 0.950 . S
C374 C360 1.377 . S
C374 C373 1.373 . S
C375 C359 1.377 . S
C375 C373 1.389 . S
C375 C376 1.524 . S
C376 C375 1.524 . S
C376 C377 1.397 . S
C376 C381 1.363 . S
C377 H348 0.950 . S
C377 C376 1.397 . S
C377 C378 1.334 . S
C378 H349 0.950 . S
C378 C377 1.334 . S
C378 C379 1.287 . S
C379 C378 1.287 . S
C379 C380 1.524 . S
C379 H382 0.999 . S
C380 H350 0.950 . S
C380 C379 1.524 . S
C380 C381 1.415 . S
C381 H351 0.950 . S
C381 C376 1.363 . S
C381 C380 1.415 . S
H382 C379 0.999 . S
H383 C364 0.913 . S
H384 C402 0.951 . S
H385 C404 0.951 . S
H386 C406 0.950 . S
H387 C407 0.950 . S
H388 C409 0.950 . S
H389 C412 0.950 . S
H390 C413 0.950 . S
H391 C415 0.950 . S
H392 C416 0.968 . S
H393 C417 0.951 . S
H394 C419 0.951 . S
H395 C421 0.950 . S
H396 C422 0.950 . S
H397 C424 0.950 . S
H398 C427 0.950 . S
H399 C428 0.950 . S
H400 C430 0.950 . S
H401 C431 0.950 . S
C402 H384 0.951 . S
C402 C403 1.366 . S
C402 C404 1.388 . S
C403 C402 1.366 . S
C403 C407 1.385 . S
C404 H385 0.951 . S
C404 C402 1.388 . S
C404 C405 1.366 . S
C405 C404 1.366 . S
C405 C406 1.414 . S
C405 C408 1.499 . S
C406 H386 0.950 . S
C406 C405 1.414 . S
C406 C407 1.374 . S
C407 H387 0.950 . S
C407 C403 1.385 . S
C407 C406 1.374 . S
C408 C405 1.499 . S
C408 C409 1.373 . S
C408 C410 1.389 . S
C409 H388 0.950 . S
C409 C408 1.373 . S
C409 C425 1.377 1_556 S
C410 C408 1.389 . S
C410 C411 1.524 . S
C410 C424 1.377 1_556 S
C411 C410 1.524 . S
C411 C412 1.397 . S
C411 C416 1.363 . S
C412 H389 0.950 . S
C412 C411 1.397 . S
C412 C413 1.334 . S
C413 H390 0.950 . S
C413 C412 1.334 . S
C413 C414 1.287 . S
C414 C413 1.287 . S
C414 C415 1.524 . S
C414 H433 0.913 . S
C415 H391 0.950 . S
C415 C414 1.524 . S
C415 C416 1.415 . S
C416 H392 0.968 . S
C416 C411 1.363 . S
C416 C415 1.415 . S
C417 H393 0.951 . S
C417 C418 1.366 . S
C417 C419 1.388 . S
C418 C417 1.366 . S
C418 C422 1.385 . S
C419 H394 0.951 . S
C419 C417 1.388 . S
C419 C420 1.366 . S
C420 C419 1.366 . S
C420 C421 1.414 . S
C420 C423 1.499 . S
C421 H395 0.950 . S
C421 C420 1.414 . S
C421 C422 1.374 . S
C422 H396 0.950 . S
C422 C418 1.385 . S
C422 C421 1.374 . S
C423 C420 1.499 . S
C423 C424 1.373 . S
C423 C425 1.389 . S
C424 H397 0.950 . S
C424 C410 1.377 1_554 S
C424 C423 1.373 . S
C425 C409 1.377 1_554 S
C425 C423 1.389 . S
C425 C426 1.524 . S
C426 C425 1.524 . S
C426 C427 1.397 . S
C426 C431 1.363 . S
C427 H398 0.950 . S
C427 C426 1.397 . S
C427 C428 1.334 . S
C428 H399 0.950 . S
C428 C427 1.334 . S
C428 C429 1.287 . S
C429 C428 1.287 . S
C429 C430 1.524 . S
C429 H432 0.999 . S
C430 H400 0.950 . S
C430 C429 1.524 . S
C430 C431 1.415 . S
C431 H401 0.950 . S
C431 C426 1.363 . S
C431 C430 1.415 . S
H432 C429 0.999 . S
H433 C414 0.913 . S
H434 C452 0.951 . S
H435 C454 0.951 . S
H436 C456 0.950 . S
H437 C457 0.950 . S
H438 C459 0.950 . S
H439 C462 0.950 . S
H440 C463 0.950 . S
H441 C465 0.950 . S
H442 C466 0.950 . S
H443 C467 0.951 . S
H444 C469 0.951 . S
H445 C471 0.950 . S
H446 C472 0.950 . S
H447 C474 0.950 . S
H448 C477 0.950 . S
H449 C478 0.950 . S
H450 C480 0.950 . S
H451 C481 0.950 . S
C452 H434 0.951 . S
C452 C453 1.366 . S
C452 C454 1.388 . S
C453 C452 1.366 . S
C453 C457 1.385 . S
C454 H435 0.951 . S
C454 C452 1.388 . S
C454 C455 1.366 . S
C455 C454 1.366 . S
C455 C456 1.414 . S
C455 C458 1.499 . S
C456 H436 0.950 . S
C456 C455 1.414 . S
C456 C457 1.374 . S
C457 H437 0.950 . S
C457 C453 1.385 . S
C457 C456 1.374 . S
C458 C455 1.499 . S
C458 C459 1.373 . S
C458 C460 1.389 . S
C459 H438 0.950 . S
C459 C458 1.373 . S
C459 C475 1.377 . S
C460 C458 1.389 . S
C460 C461 1.524 . S
C460 C474 1.377 . S
C461 C460 1.524 . S
C461 C462 1.397 . S
C461 C466 1.363 . S
C462 H439 0.950 . S
C462 C461 1.397 . S
C462 C463 1.334 . S
C463 H440 0.950 . S
C463 C462 1.334 . S
C463 C464 1.287 . S
C464 C463 1.287 . S
C464 C465 1.524 . S
C464 H483 0.913 . S
C465 H441 0.950 . S
C465 C464 1.524 . S
C465 C466 1.415 . S
C466 H442 0.950 . S
C466 C461 1.363 . S
C466 C465 1.415 . S
C467 H443 0.951 . S
C467 C468 1.366 . S
C467 C469 1.388 . S
C468 C467 1.366 . S
C468 C472 1.385 . S
C469 H444 0.951 . S
C469 C467 1.388 . S
C469 C470 1.366 . S
C470 C469 1.366 . S
C470 C471 1.414 . S
C470 C473 1.499 . S
C471 H445 0.950 . S
C471 C470 1.414 . S
C471 C472 1.374 . S
C472 H446 0.950 . S
C472 C468 1.385 . S
C472 C471 1.374 . S
C473 C470 1.499 . S
C473 C474 1.373 . S
C473 C475 1.389 . S
C474 H447 0.950 . S
C474 C460 1.377 . S
C474 C473 1.373 . S
C475 C459 1.377 . S
C475 C473 1.389 . S
C475 C476 1.524 . S
C476 C475 1.524 . S
C476 C477 1.397 . S
C476 C481 1.363 . S
C477 H448 0.950 . S
C477 C476 1.397 . S
C477 C478 1.334 . S
C478 H449 0.950 . S
C478 C477 1.334 . S
C478 C479 1.287 . S
C479 C478 1.287 . S
C479 C480 1.524 . S
C479 H482 0.999 . S
C480 H450 0.950 . S
C480 C479 1.524 . S
C480 C481 1.415 . S
C481 H451 0.950 . S
C481 C476 1.363 . S
C481 C480 1.415 . S
H482 C479 0.999 . S
H483 C464 0.913 . S
H484 C502 0.951 . S
H485 C504 0.951 . S
H486 C506 0.950 . S
H487 C507 0.950 . S
H488 C509 0.950 . S
H489 C512 0.950 . S
H490 C513 0.950 . S
H491 C515 0.950 . S
H492 C516 0.950 . S
H493 C517 0.951 . S
H494 C519 0.951 . S
H495 C521 0.950 . S
H496 C522 0.950 . S
H497 C524 0.950 . S
H498 C527 0.950 . S
H499 C528 0.950 . S
H500 C530 0.950 . S
H501 C531 0.950 . S
C502 H484 0.951 . S
C502 C503 1.366 . S
C502 C504 1.388 . S
C503 C502 1.366 . S
C503 C507 1.385 . S
C504 H485 0.951 . S
C504 C502 1.388 . S
C504 C505 1.366 . S
C505 C504 1.366 . S
C505 C506 1.414 . S
C505 C508 1.499 . S
C506 H486 0.950 . S
C506 C505 1.414 . S
C506 C507 1.374 . S
C507 H487 0.950 . S
C507 C503 1.385 . S
C507 C506 1.374 . S
C508 C505 1.499 . S
C508 C509 1.373 . S
C508 C510 1.389 . S
C509 H488 0.950 . S
C509 C508 1.373 . S
C509 C525 1.377 . S
C510 C508 1.389 . S
C510 C511 1.524 . S
C510 C524 1.377 . S
C511 C510 1.524 . S
C511 C512 1.397 . S
C511 C516 1.363 . S
C512 H489 0.950 . S
C512 C511 1.397 . S
C512 C513 1.334 . S
C513 H490 0.950 . S
C513 C512 1.334 . S
C513 C514 1.287 . S
C514 C513 1.287 . S
C514 C515 1.524 . S
C514 H533 0.913 . S
C515 H491 0.950 . S
C515 C514 1.524 . S
C515 C516 1.415 . S
C516 H492 0.950 . S
C516 C511 1.363 . S
C516 C515 1.415 . S
C517 H493 0.951 . S
C517 C518 1.366 . S
C517 C519 1.388 . S
C518 C517 1.366 . S
C518 C522 1.385 . S
C519 H494 0.951 . S
C519 C517 1.388 . S
C519 C520 1.366 . S
C520 C519 1.366 . S
C520 C521 1.414 . S
C520 C523 1.499 . S
C521 H495 0.950 . S
C521 C520 1.414 . S
C521 C522 1.374 . S
C522 H496 0.950 . S
C522 C518 1.385 . S
C522 C521 1.374 . S
C523 C520 1.499 . S
C523 C524 1.373 . S
C523 C525 1.389 . S
C524 H497 0.950 . S
C524 C510 1.377 . S
C524 C523 1.373 . S
C525 C509 1.377 . S
C525 C523 1.389 . S
C525 C526 1.524 . S
C526 C525 1.524 . S
C526 C527 1.397 . S
C526 C531 1.363 . S
C527 H498 0.950 . S
C527 C526 1.397 . S
C527 C528 1.334 . S
C528 H499 0.950 . S
C528 C527 1.334 . S
C528 C529 1.287 . S
C529 C528 1.287 . S
C529 C530 1.524 . S
C529 H532 0.999 . S
C530 H500 0.950 . S
C530 C529 1.524 . S
C530 C531 1.415 . S
C531 H501 0.950 . S
C531 C526 1.363 . S
C531 C530 1.415 . S
H532 C529 0.999 . S
H533 C514 0.913 . S
H534 C552 0.951 . S
H535 C554 0.951 . S
H536 C556 0.950 . S
H537 C557 0.950 . S
H538 C559 0.950 . S
H539 C562 0.950 . S
H540 C563 0.950 . S
H541 C565 0.950 . S
H542 C566 0.953 1_554 S
H543 C567 0.951 . S
H544 C569 0.951 . S
H545 C571 0.950 . S
H546 C572 0.950 . S
H547 C574 0.950 . S
H548 C577 0.950 . S
H549 C578 0.950 . S
H550 C580 0.950 . S
H551 C581 0.950 . S
C552 H534 0.951 . S
C552 C553 1.366 . S
C552 C554 1.388 . S
C553 C552 1.366 . S
C553 C557 1.385 . S
C554 H535 0.951 . S
C554 C552 1.388 . S
C554 C555 1.366 . S
C555 C554 1.366 . S
C555 C556 1.414 . S
C555 C558 1.499 . S
C556 H536 0.950 . S
C556 C555 1.414 . S
C556 C557 1.374 . S
C557 H537 0.950 . S
C557 C553 1.385 . S
C557 C556 1.374 . S
C558 C555 1.499 . S
C558 C559 1.373 . S
C558 C560 1.389 . S
C559 H538 0.950 . S
C559 C558 1.373 . S
C559 C575 1.377 1_556 S
C560 C558 1.389 . S
C560 C561 1.524 . S
C560 C574 1.377 1_556 S
C561 C560 1.524 . S
C561 C562 1.397 . S
C561 C566 1.363 . S
C562 H539 0.950 . S
C562 C561 1.397 . S
C562 C563 1.334 . S
C563 H540 0.950 . S
C563 C562 1.334 . S
C563 C564 1.287 . S
C564 C563 1.287 . S
C564 C565 1.524 . S
C564 H583 0.913 . S
C565 H541 0.950 . S
C565 C564 1.524 . S
C565 C566 1.415 . S
C566 H542 0.953 1_556 S
C566 C561 1.363 . S
C566 C565 1.415 . S
C567 H543 0.951 . S
C567 C568 1.366 . S
C567 C569 1.388 . S
C568 C567 1.366 . S
C568 C572 1.385 . S
C569 H544 0.951 . S
C569 C567 1.388 . S
C569 C570 1.366 . S
C570 C569 1.366 . S
C570 C571 1.414 . S
C570 C573 1.499 . S
C571 H545 0.950 . S
C571 C570 1.414 . S
C571 C572 1.374 . S
C572 H546 0.950 . S
C572 C568 1.385 . S
C572 C571 1.374 . S
C573 C570 1.499 . S
C573 C574 1.373 . S
C573 C575 1.389 . S
C574 H547 0.950 . S
C574 C560 1.377 1_554 S
C574 C573 1.373 . S
C575 C559 1.377 1_554 S
C575 C573 1.389 . S
C575 C576 1.524 . S
C576 C575 1.524 . S
C576 C577 1.397 . S
C576 C581 1.363 . S
C577 H548 0.950 . S
C577 C576 1.397 . S
C577 C578 1.334 . S
C578 H549 0.950 . S
C578 C577 1.334 . S
C578 C579 1.287 . S
C579 C578 1.287 . S
C579 C580 1.524 . S
C579 H582 0.999 . S
C580 H550 0.950 . S
C580 C579 1.524 . S
C580 C581 1.415 . S
C581 H551 0.950 . S
C581 C576 1.363 . S
C581 C580 1.415 . S
H582 C579 0.999 . S
H583 C564 0.913 . S
H584 C602 0.951 . S
H585 C604 0.951 . S
H586 C606 0.950 . S
H587 C607 0.950 . S
H588 C609 0.950 . S
H589 C612 0.950 . S
H590 C613 0.950 . S
H591 C615 0.950 . S
H592 C616 0.950 . S
H593 C617 0.951 . S
H594 C619 0.951 . S
H595 C621 0.950 . S
H596 C622 0.950 . S
H597 C624 0.950 . S
H598 C627 0.950 . S
H599 C628 0.950 . S
H600 C630 0.950 . S
H601 C631 0.950 . S
C602 H584 0.951 . S
C602 C603 1.366 . S
C602 C604 1.388 . S
C603 C602 1.366 . S
C603 C607 1.385 . S
C604 H585 0.951 . S
C604 C602 1.388 . S
C604 C605 1.366 . S
C605 C604 1.366 . S
C605 C606 1.414 . S
C605 C608 1.499 . S
C606 H586 0.950 . S
C606 C605 1.414 . S
C606 C607 1.374 . S
C607 H587 0.950 . S
C607 C603 1.385 . S
C607 C606 1.374 . S
C608 C605 1.499 . S
C608 C609 1.373 . S
C608 C610 1.389 . S
C609 H588 0.950 . S
C609 C608 1.373 . S
C609 C625 1.377 . S
C610 C608 1.389 . S
C610 C611 1.524 . S
C610 C624 1.377 . S
C611 C610 1.524 . S
C611 C612 1.397 . S
C611 C616 1.363 . S
C612 H589 0.950 . S
C612 C611 1.397 . S
C612 C613 1.334 . S
C613 H590 0.950 . S
C613 C612 1.334 . S
C613 C614 1.287 . S
C614 C613 1.287 . S
C614 C615 1.524 . S
C614 H633 0.913 . S
C615 H591 0.950 . S
C615 C614 1.524 . S
C615 C616 1.415 . S
C616 H592 0.950 . S
C616 C611 1.363 . S
C616 C615 1.415 . S
C617 H593 0.951 . S
C617 C618 1.366 . S
C617 C619 1.388 . S
C618 C617 1.366 . S
C618 C622 1.385 . S
C619 H594 0.951 . S
C619 C617 1.388 . S
C619 C620 1.366 . S
C620 C619 1.366 . S
C620 C621 1.414 . S
C620 C623 1.499 . S
C621 H595 0.950 . S
C621 C620 1.414 . S
C621 C622 1.374 . S
C622 H596 0.950 . S
C622 C618 1.385 . S
C622 C621 1.374 . S
C623 C620 1.499 . S
C623 C624 1.373 . S
C623 C625 1.389 . S
C624 H597 0.950 . S
C624 C610 1.377 . S
C624 C623 1.373 . S
C625 C609 1.377 . S
C625 C623 1.389 . S
C625 C626 1.524 . S
C626 C625 1.524 . S
C626 C627 1.397 . S
C626 C631 1.363 . S
C627 H598 0.950 . S
C627 C626 1.397 . S
C627 C628 1.334 . S
C628 H599 0.950 . S
C628 C627 1.334 . S
C628 C629 1.287 . S
C629 C628 1.287 . S
C629 C630 1.524 . S
C629 H632 0.999 . S
C630 H600 0.950 . S
C630 C629 1.524 . S
C630 C631 1.415 . S
C631 H601 0.950 . S
C631 C626 1.363 . S
C631 C630 1.415 . S
H632 C629 0.999 . S
H633 C614 0.913 . S
H634 C652 0.951 . S
H635 C654 0.951 . S
H636 C656 0.950 . S
H637 C657 0.950 . S
H638 C659 0.950 . S
H639 C662 0.950 . S
H640 C663 0.950 . S
H641 C665 0.950 . S
H642 C666 0.950 . S
H643 C667 0.951 . S
H644 C669 0.951 . S
H645 C671 0.950 . S
H646 C672 0.950 . S
H647 C674 0.950 . S
H648 C677 0.950 . S
H649 C678 0.950 . S
H650 C680 0.950 . S
H651 C681 0.950 . S
C652 H634 0.951 . S
C652 C653 1.366 . S
C652 C654 1.388 . S
C653 C652 1.366 . S
C653 C657 1.385 . S
C654 H635 0.951 . S
C654 C652 1.388 . S
C654 C655 1.366 . S
C655 C654 1.366 . S
C655 C656 1.414 . S
C655 C658 1.499 . S
C656 H636 0.950 . S
C656 C655 1.414 . S
C656 C657 1.374 . S
C657 H637 0.950 . S
C657 C653 1.385 . S
C657 C656 1.374 . S
C658 C655 1.499 . S
C658 C659 1.373 . S
C658 C660 1.389 . S
C659 H638 0.950 . S
C659 C658 1.373 . S
C659 C675 1.377 . S
C660 C658 1.389 . S
C660 C661 1.524 . S
C660 C674 1.377 . S
C661 C660 1.524 . S
C661 C662 1.397 . S
C661 C666 1.363 . S
C662 H639 0.950 . S
C662 C661 1.397 . S
C662 C663 1.334 . S
C663 H640 0.950 . S
C663 C662 1.334 . S
C663 C664 1.287 . S
C664 C663 1.287 . S
C664 C665 1.524 . S
C664 H683 0.913 . S
C665 H641 0.950 . S
C665 C664 1.524 . S
C665 C666 1.415 . S
C666 H642 0.950 . S
C666 C661 1.363 . S
C666 C665 1.415 . S
C667 H643 0.951 . S
C667 C668 1.366 . S
C667 C669 1.388 . S
C668 C667 1.366 . S
C668 C672 1.385 . S
C669 H644 0.951 . S
C669 C667 1.388 . S
C669 C670 1.366 . S
C670 C669 1.366 . S
C670 C671 1.414 . S
C670 C673 1.499 . S
C671 H645 0.950 . S
C671 C670 1.414 . S
C671 C672 1.374 . S
C672 H646 0.950 . S
C672 C668 1.385 . S
C672 C671 1.374 . S
C673 C670 1.499 . S
C673 C674 1.373 . S
C673 C675 1.389 . S
C674 H647 0.950 . S
C674 C660 1.377 . S
C674 C673 1.373 . S
C675 C659 1.377 . S
C675 C673 1.389 . S
C675 C676 1.524 . S
C676 C675 1.524 . S
C676 C677 1.397 . S
C676 C681 1.363 . S
C677 H648 0.950 . S
C677 C676 1.397 . S
C677 C678 1.334 . S
C678 H649 0.950 . S
C678 C677 1.334 . S
C678 C679 1.287 . S
C679 C678 1.287 . S
C679 C680 1.524 . S
C679 H682 0.999 . S
C680 H650 0.950 . S
C680 C679 1.524 . S
C680 C681 1.415 . S
C681 H651 0.950 . S
C681 C676 1.363 . S
C681 C680 1.415 . S
H682 C679 0.999 . S
H683 C664 0.913 . S
C103 C7 1.132 . S
C118 C49 1.132 . S
C153 C21 1.132 . S
C168 C63 1.133 . S
C203 C35 1.133 . S
C218 C77 1.133 . S
C253 C22 1.801 . S
C268 C64 1.801 . S
C303 C78 1.800 . S
C318 C36 1.800 . S
C353 C50 1.800 . S
C368 C8 1.800 . S
C403 C34 1.261 . S
C418 C9 1.192 . S
C453 C48 1.261 . S
C468 C23 1.191 . S
C503 C37 1.192 . S
C518 C62 1.261 . S
C553 C76 1.261 . S
C568 C51 1.191 . S
C603 C65 1.191 . S
C618 C6 1.261 . S
C653 C79 1.191 . S
C668 C20 1.261 . S
