# Generated by pormake.
# Topology bcg, (8)-cn, num edge types: 1
# Building blocks:
#     Node 0, Type 0, BuildingBlock: EBIMEJ_clean_sbu_0, # of connection points: 8
#     Node 1, Type 0, BuildingBlock: EBIMEJ_clean_sbu_0, # of connection points: 8
#     Node 2, Type 0, BuildingBlock: EBIMEJ_clean_sbu_0, # of connection points: 8
#     Node 3, Type 0, BuildingBlock: EBIMEJ_clean_sbu_0, # of connection points: 8
#     Edge 4, Type (0, 0), BuildingBlock: OJICUG_clean_linker_0, # of connection points: 2
#     Edge 5, Type (0, 0), BuildingBlock: OJICUG_clean_linker_0, # of connection points: 2
#     Edge 6, Type (0, 0), BuildingBlock: OJICUG_clean_linker_0, # of connection points: 2
#     Edge 7, Type (0, 0), BuildingBlock: OJICUG_clean_linker_0, # of connection points: 2
#     Edge 8, Type (0, 0), BuildingBlock: OJICUG_clean_linker_0, # of connection points: 2
#     Edge 9, Type (0, 0), BuildingBlock: OJICUG_clean_linker_0, # of connection points: 2
#     Edge 10, Type (0, 0), BuildingBlock: OJICUG_clean_linker_0, # of connection points: 2
#     Edge 11, Type (0, 0), BuildingBlock: OJICUG_clean_linker_0, # of connection points: 2
#     Edge 12, Type (0, 0), BuildingBlock: OJICUG_clean_linker_0, # of connection points: 2
#     Edge 13, Type (0, 0), BuildingBlock: OJICUG_clean_linker_0, # of connection points: 2
#     Edge 14, Type (0, 0), BuildingBlock: OJICUG_clean_linker_0, # of connection points: 2
#     Edge 15, Type (0, 0), BuildingBlock: OJICUG_clean_linker_0, # of connection points: 2
#     Edge 16, Type (0, 0), BuildingBlock: OJICUG_clean_linker_0, # of connection points: 2
#     Edge 17, Type (0, 0), BuildingBlock: OJICUG_clean_linker_0, # of connection points: 2
#     Edge 18, Type (0, 0), BuildingBlock: OJICUG_clean_linker_0, # of connection points: 2
#     Edge 19, Type (0, 0), BuildingBlock: OJICUG_clean_linker_0, # of connection points: 2
# Relax obj value: 0.040
# Max RMSD: 0.091
# Mean RMSD: 0.091
data_MOF--net-bcg--node1-EBIMEJ_clean_sbu_0--edge1-OJICUG_clean_linker_0
_symmetry_space_group_name_H-M    P1
_symmetry_Int_Tables_number       1
_symmetry_cell_setting            triclinic
loop_
_symmetry_equiv_pos_as_xyz
'x, y, z'
_cell_length_a     13.235691
_cell_length_b     20.890658
_cell_length_c     26.873973
_cell_angle_alpha  81.251676
_cell_angle_beta   90.000478
_cell_angle_gamma 90.002365
loop_
_atom_site_label
_atom_site_type_symbol
_atom_site_fract_x
_atom_site_fract_y
_atom_site_fract_z
_atom_type_partial_charge
Co0 Co 0.12655 0.23926 0.92865 0.0
Co1 Co 0.3351 0.25199 0.99179 0.0
Co2 Co 0.13732 0.25365 0.04496 0.0
H3 H 0.15506 0.25872 0.98604 0.0
O4 O 0.19999 0.28756 0.97593 0.0
H5 H 0.31743 0.24683 0.05071 0.0
O6 O 0.27244 0.21803 0.06082 0.0
Co7 Co 0.34621 0.26618 0.1081 0.0
O8 O 0.48995 0.26058 0.08059 0.0
O9 O 0.4698 0.2169 1.01026 0.0
O10 O 0.22384 0.27406 0.15305 0.0
O11 O 0.09154 0.23365 0.11625 0.0
O12 O 0.12067 0.2122 0.85806 0.0
O13 O 0.02549 0.28426 0.8761 0.0
O14 O 0.35062 0.359 0.0779 0.0
O15 O 0.38425 0.34223 0.99982 0.0
C16 C 0.94667 0.26982 0.99307 0.0
C17 C 0.34005 0.25122 0.88301 0.0
C18 C 0.42187 0.25437 0.19383 0.0
C19 C 0.09084 0.12641 1.00304 0.0
C20 C 0.52594 0.23607 0.04349 0.0
C21 C 0.1327 0.25386 0.15394 0.0
C22 C 0.05107 0.25109 0.84286 0.0
C23 C 0.38165 0.37917 0.03378 0.0
O24 O 0.98274 0.24528 0.95599 0.0
O25 O 0.00269 0.28879 0.02643 0.0
O26 O 0.38075 0.27209 0.92053 0.0
O27 O 0.24914 0.23055 0.88398 0.0
O28 O 0.35237 0.29333 0.17863 0.0
O29 O 0.44729 0.22112 0.16062 0.0
O30 O 0.12215 0.14648 0.95896 0.0
O31 O 0.08805 0.16342 0.03695 0.0
Co32 Co 0.62666 0.73912 0.9287 0.0
Co33 Co 0.83528 0.7519 0.99183 0.0
Co34 Co 0.6375 0.75356 0.045 0.0
H35 H 0.65522 0.75861 0.98608 0.0
O36 O 0.70016 0.78745 0.97596 0.0
H37 H 0.8176 0.74675 0.05076 0.0
O38 O 0.77261 0.71794 0.06086 0.0
Co39 Co 0.84631 0.76611 0.10815 0.0
O40 O -0.00992 0.76042 0.08069 0.0
O41 O 0.96999 0.71682 1.01033 0.0
O42 O 0.72391 0.77416 0.15305 0.0
O43 O 0.59174 0.73356 0.11628 0.0
O44 O 0.62131 0.71251 0.85796 0.0
O45 O 0.52475 0.78362 0.87638 0.0
O46 O 0.85088 0.85892 0.07794 0.0
O47 O 0.88441 0.84216 0.99985 0.0
C48 C 0.44681 0.76961 0.99317 0.0
C49 C 0.84016 0.75117 0.88303 0.0
C50 C 0.92175 0.75432 0.19393 0.0
C51 C 0.59113 0.6263 1.00312 0.0
C52 C 0.02608 0.73591 0.0436 0.0
C53 C 0.6328 0.75387 0.15395 0.0
C54 C 0.55097 0.75091 0.84296 0.0
C55 C 0.88185 0.87909 0.03381 0.0
O56 O 0.48286 0.74503 0.95611 0.0
O57 O 0.50286 0.78869 0.02647 0.0
O58 O 0.88095 0.77196 0.92056 0.0
O59 O 0.74922 0.73057 0.88399 0.0
O60 O 0.85326 0.79391 0.17843 0.0
O61 O 0.94627 0.72044 0.16098 0.0
O62 O 0.62253 0.64635 0.95905 0.0
O63 O 0.58823 0.66333 0.03701 0.0
Co64 Co 0.12631 0.7659 0.60816 0.0
Co65 Co 0.33505 0.75322 0.54504 0.0
Co66 Co 0.13729 0.75159 0.49187 0.0
H67 H 0.15497 0.74647 0.55079 0.0
O68 O 0.19992 0.71764 0.5609 0.0
H69 H 0.31733 0.75829 0.48611 0.0
O70 O 0.27241 0.78713 0.476 0.0
Co71 Co 0.34587 0.7388 0.42874 0.0
O72 O 0.48968 0.74466 0.45615 0.0
O73 O 0.46971 0.78832 0.52651 0.0
O74 O 0.22329 0.73021 0.38403 0.0
O75 O 0.09165 0.77168 0.4206 0.0
O76 O 0.11985 0.79346 0.67854 0.0
O77 O 0.02583 0.72059 0.66089 0.0
O78 O 0.34994 0.64601 0.45907 0.0
O79 O 0.38425 0.66298 0.53704 0.0
C80 C 0.94651 0.73558 0.54363 0.0
C81 C 0.33982 0.75371 0.65394 0.0
C82 C 0.4216 0.75077 0.343 0.0
C83 C 0.09075 0.87881 0.53381 0.0
C84 C 0.52575 0.76923 0.49322 0.0
C85 C 0.13238 0.75086 0.38307 0.0
C86 C 0.05085 0.75421 0.69393 0.0
C87 C 0.38132 0.62594 0.50315 0.0
O88 O 0.98252 0.76011 0.58073 0.0
O89 O 0.00259 0.71651 0.51035 0.0
O90 O 0.38079 0.73322 0.61632 0.0
O91 O 0.24877 0.7741 0.65301 0.0
O92 O 0.35091 0.71259 0.35785 0.0
O93 O 0.44816 0.78317 0.37656 0.0
O94 O 0.12188 0.8587 0.57792 0.0
O95 O 0.0881 0.84184 0.49988 0.0
Co96 Co 0.62636 0.26594 0.6082 0.0
Co97 Co 0.83495 0.25318 0.54507 0.0
Co98 Co 0.63717 0.25151 0.49191 0.0
H99 H 0.6549 0.24645 0.55083 0.0
O100 O 0.69984 0.21762 0.56095 0.0
H101 H 0.81726 0.25825 0.48615 0.0
O102 O 0.7723 0.28708 0.47603 0.0
Co103 Co 0.84593 0.23878 0.42879 0.0
O104 O -0.01029 0.24445 0.45628 0.0
O105 O 0.96964 0.28826 0.52656 0.0
O106 O 0.72346 0.23055 0.38395 0.0
O107 O 0.59146 0.2715 0.42063 0.0
O108 O 0.61984 0.29356 0.67857 0.0
O109 O 0.52609 0.22052 0.66097 0.0
O110 O 0.84987 0.14599 0.45911 0.0
O111 O 0.88411 0.16293 0.53709 0.0
C112 C 0.44648 0.23542 0.54377 0.0
C113 C 0.83985 0.25392 0.6539 0.0
C114 C 0.9218 0.25066 0.34308 0.0
C115 C 0.59071 0.37878 0.53379 0.0
C116 C 0.02573 0.26905 0.49334 0.0
C117 C 0.63242 0.25097 0.38303 0.0
C118 C 0.55099 0.2542 0.69399 0.0
C119 C 0.88119 0.1259 0.50319 0.0
O120 O 0.48254 0.25999 0.58084 0.0
O121 O 0.50251 0.2164 0.51044 0.0
O122 O 0.88065 0.23317 0.61634 0.0
O123 O 0.7489 0.27448 0.65293 0.0
O124 O 0.85098 0.21256 0.3579 0.0
O125 O 0.94842 0.28302 0.37666 0.0
O126 O 0.62199 0.35872 0.57788 0.0
O127 O 0.58793 0.34176 0.49989 0.0
C128 C 0.67797 0.20968 0.9956 0.0
C129 C 0.63506 0.24143 0.033 0.0
H130 H 0.80957 0.1949 0.95277 0.0
C131 C 0.69439 0.28492 0.05545 0.0
H132 H 0.63395 0.17614 0.9774 0.0
C133 C 0.79452 0.29649 0.04073 0.0
C134 C 0.83746 0.26468 1.00338 0.0
H135 H 0.66293 0.31126 0.08357 0.0
H136 H 0.83854 0.33002 0.05894 0.0
C137 C 0.77811 0.22126 0.98088 0.0
C138 C 0.19452 0.78478 0.05554 0.0
C139 C 0.13524 0.74119 0.03317 0.0
H140 H 0.33864 0.82996 0.05894 0.0
C141 C 0.1782 0.70928 0.99588 0.0
H142 H 0.16302 0.81124 0.08358 0.0
C143 C 0.27834 0.72083 0.98115 0.0
C144 C 0.33763 0.7644 1.00354 0.0
H145 H 0.13422 0.67564 0.97776 0.0
H146 H 0.30984 0.69437 0.95312 0.0
C147 C 0.29466 0.79633 0.04081 0.0
C148 C 0.67786 0.79587 0.54093 0.0
C149 C 0.63493 0.76402 0.50359 0.0
H150 H 0.80947 0.81072 0.58375 0.0
C151 C 0.69427 0.72055 0.48114 0.0
H152 H 0.63384 0.82943 0.55911 0.0
C153 C 0.79442 0.709 0.49586 0.0
C154 C 0.83734 0.74083 0.53321 0.0
H155 H 0.66281 0.69416 0.45305 0.0
H156 H 0.83844 0.67545 0.47769 0.0
C157 C 0.778 0.78432 0.55566 0.0
C158 C 0.17783 0.29568 0.54107 0.0
C159 C 0.13488 0.26374 0.5038 0.0
H160 H 0.30948 0.31065 0.58381 0.0
C161 C 0.19416 0.22012 0.48146 0.0
H162 H 0.13385 0.32934 0.55917 0.0
C163 C 0.2943 0.20859 0.49619 0.0
C164 C 0.33728 0.24057 0.53343 0.0
H165 H 0.16266 0.19363 0.45344 0.0
H166 H 0.33829 0.17494 0.47809 0.0
C167 C 0.27798 0.28415 0.5558 0.0
C168 C 0.48841 0.54104 0.05692 0.0
C169 C 0.54178 0.56159 1.01219 0.0
H170 H 0.39449 0.46856 0.09837 0.0
C171 C 0.53892 0.52248 0.97379 0.0
H172 H 0.48762 0.57014 0.08702 0.0
C173 C 0.48429 0.46445 0.97996 0.0
C174 C 0.43093 0.4439 0.0247 0.0
H175 H 0.57823 0.53692 0.93852 0.0
H176 H 0.48509 0.43534 0.94987 0.0
C177 C 0.43378 0.483 0.0631 0.0
C178 C 0.5389 0.48272 0.56303 0.0
C179 C 0.54139 0.4435 0.5247 0.0
H180 H 0.4854 0.56996 0.5869 0.0
C181 C 0.48768 0.46395 0.48005 0.0
H182 H 0.57849 0.46837 0.59823 0.0
C183 C 0.43308 0.52199 0.47389 0.0
C184 C 0.4306 0.56122 0.51222 0.0
H185 H 0.48659 0.43474 0.45002 0.0
H186 H 0.3935 0.53635 0.43869 0.0
C187 C 0.48431 0.54076 0.55687 0.0
C188 C -0.0115 0.04101 0.05693 0.0
C189 C 0.04159 0.06167 1.01213 0.0
H190 H 0.89494 0.9684 0.09847 0.0
C191 C 0.03858 0.02261 0.9737 0.0
H192 H -0.01216 0.07007 0.08705 0.0
C193 C 0.98409 0.96452 0.97991 0.0
C194 C 0.93102 0.94386 0.02471 0.0
H195 H 0.07766 0.03713 0.93837 0.0
H196 H 0.98476 0.93546 0.94979 0.0
C197 C 0.93402 0.98292 0.06314 0.0
C198 C 0.98424 0.04075 0.55691 0.0
C199 C 0.9305 0.06119 0.51227 0.0
H200 H 0.07849 0.96839 0.59826 0.0
C201 C 0.93301 0.02197 0.47394 0.0
H202 H 0.9853 0.06995 0.58694 0.0
C203 C -0.01233 0.96395 0.48009 0.0
C204 C 0.04141 0.94352 0.52473 0.0
H205 H 0.89341 0.03631 0.43874 0.0
H206 H -0.0134 0.93475 0.45006 0.0
C207 C 0.03889 0.98274 0.56306 0.0
C208 C 0.60861 0.21241 0.30008 0.0
C209 C 0.57373 0.24971 0.33606 0.0
H210 H 0.58754 0.18417 0.22751 0.0
C211 C 0.48471 0.28609 0.32586 0.0
H212 H 0.67597 0.18296 0.30685 0.0
C213 C 0.43405 0.28684 0.27991 0.0
C214 C 0.47084 0.25064 0.24366 0.0
H215 H 0.45555 0.31512 0.35278 0.0
H216 H 0.36687 0.31638 0.27252 0.0
C217 C 0.55764 0.21271 0.25458 0.0
C218 C 0.61004 0.79143 0.23736 0.0
C219 C 0.57414 0.75511 0.20095 0.0
H220 H 0.5896 0.81901 0.31019 0.0
C221 C 0.48397 0.7198 0.2107 0.0
H222 H 0.67834 0.82003 0.23098 0.0
C223 C 0.43308 0.71917 0.25659 0.0
C224 C 0.47084 0.75441 0.29324 0.0
H225 H 0.45397 0.69155 0.18345 0.0
H226 H 0.36493 0.69049 0.26362 0.0
C227 C 0.5589 0.79124 0.28279 0.0
C228 C 0.36299 0.79176 0.73714 0.0
C229 C 0.39852 0.75504 0.70091 0.0
H230 H 0.3837 0.81972 0.80982 0.0
C231 C 0.48833 0.71939 0.71083 0.0
H232 H 0.29498 0.82063 0.73061 0.0
C233 C 0.53919 0.71883 0.75672 0.0
C234 C 0.50178 0.75447 0.79319 0.0
H235 H 0.51803 0.69083 0.68373 0.0
H236 H 0.60704 0.68988 0.76388 0.0
C237 C 0.41412 0.79163 0.78257 0.0
C238 C 0.36495 0.21171 0.8005 0.0
C239 C 0.39891 0.24982 0.83612 0.0
H240 H 0.38689 0.1827 0.72825 0.0
C241 C 0.48716 0.28692 0.82564 0.0
H242 H 0.29818 0.18174 0.80753 0.0
C243 C 0.53793 0.28756 0.77973 0.0
C244 C 0.50204 0.25054 0.74382 0.0
H245 H 0.51557 0.3166 0.85228 0.0
H246 H 0.60445 0.31767 0.77209 0.0
C247 C 0.41606 0.2119 0.75505 0.0
C248 C 0.10726 0.71129 0.30061 0.0
C249 C 0.07355 0.74957 0.33616 0.0
H250 H 0.0852 0.68227 0.22836 0.0
C251 C 0.98564 0.78696 0.32558 0.0
H252 H 0.17375 0.68108 0.30772 0.0
C253 C 0.93497 0.78773 0.27964 0.0
C254 C 0.97062 0.75055 0.24378 0.0
H255 H 0.95745 0.81678 0.35217 0.0
H256 H 0.86873 0.81808 0.27192 0.0
C257 C 0.05624 0.71161 0.25512 0.0
C258 C 0.05923 0.29095 0.28292 0.0
C259 C 0.97099 0.2543 0.29331 0.0
H260 H 0.17868 0.31966 0.23111 0.0
C261 C 0.93297 0.21926 0.25659 0.0
H262 H 0.09013 0.31856 0.31037 0.0
C263 C 0.98377 0.21992 0.21068 0.0
C264 C 0.07411 0.25507 0.20097 0.0
H265 H 0.86467 0.19073 0.26358 0.0
H266 H 0.95356 0.19185 0.18337 0.0
C267 C 0.11027 0.29119 0.23745 0.0
C268 C 0.91515 0.29261 0.78215 0.0
C269 C 0.00197 0.2547 0.79307 0.0
H270 H 0.79658 0.32217 0.72996 0.0
C271 C 0.03857 0.21833 0.75688 0.0
H272 H 0.8854 0.32128 0.80917 0.0
C273 C -0.0123 0.21891 0.71101 0.0
C274 C 0.89867 0.2553 0.70081 0.0
H275 H 0.10575 0.18879 0.76428 0.0
H276 H 0.01671 0.18976 0.68414 0.0
C277 C 0.86397 0.29275 0.73672 0.0
C278 C 0.91574 0.7121 0.75494 0.0
C279 C 0.00194 0.75055 0.74377 0.0
H280 H 0.7978 0.68205 0.80739 0.0
C281 C 0.03811 0.78736 0.77976 0.0
H282 H 0.88635 0.68306 0.72807 0.0
C283 C -0.01259 0.7867 0.82568 0.0
C284 C 0.89896 0.74979 0.83611 0.0
H285 H 0.1048 0.81731 0.77216 0.0
H286 H 0.01604 0.81621 0.85239 0.0
C287 C 0.86472 0.71188 0.80041 0.0
loop_
_geom_bond_atom_site_label_1
_geom_bond_atom_site_label_2
_geom_bond_distance
_geom_bond_site_symmetry_2
_ccdc_geom_bond_type
Co0 H3 2.400 . S
Co0 O4 2.009 . S
Co0 O12 2.115 . S
Co0 O13 2.315 . S
Co0 O24 2.053 1_455 S
Co0 O27 2.094 . S
Co0 O30 2.122 . S
Co1 O4 2.126 . S
Co1 H5 2.388 1_556 S
Co1 O6 2.053 1_556 S
Co1 O9 2.047 . S
Co1 O15 2.113 . S
Co1 O26 2.063 . S
Co2 H3 2.388 1_554 S
Co2 O4 2.053 1_554 S
Co2 O6 2.126 . S
Co2 O11 2.063 . S
Co2 O25 2.047 1_455 S
Co2 O31 2.113 . S
H3 Co0 2.400 . S
H3 Co2 2.388 1_556 S
H3 O4 0.760 . S
O4 Co0 2.009 . S
O4 Co1 2.126 . S
O4 Co2 2.053 1_556 S
O4 H3 0.760 . S
H5 Co1 2.388 1_554 S
H5 O6 0.760 . S
H5 Co7 2.400 . S
O6 Co1 2.053 1_554 S
O6 Co2 2.126 . S
O6 H5 0.760 . S
O6 Co7 2.009 . S
Co7 H5 2.400 . S
Co7 O6 2.009 . S
Co7 O8 2.053 . S
Co7 O10 2.094 . S
Co7 O14 2.122 . S
Co7 O28 2.115 . S
Co7 O29 2.315 . S
O8 Co7 2.053 . S
O8 C20 1.259 . S
O9 Co1 2.047 . S
O9 C20 1.257 1_556 S
O10 Co7 2.094 . S
O10 C21 1.253 . S
O11 Co2 2.063 . S
O11 C21 1.268 . S
O12 Co0 2.115 . S
O12 C22 1.281 . S
O13 Co0 2.315 . S
O13 C22 1.252 . S
O14 Co7 2.122 . S
O14 C23 1.272 . S
O15 Co1 2.113 . S
O15 C23 1.245 1_556 S
C16 O24 1.259 . S
C16 O25 1.257 1_556 S
C17 O26 1.268 . S
C17 O27 1.253 . S
C18 O28 1.281 . S
C18 O29 1.252 . S
C19 O30 1.272 . S
C19 O31 1.245 1_556 S
C20 O8 1.259 . S
C20 O9 1.257 1_554 S
C21 O10 1.253 . S
C21 O11 1.268 . S
C22 O12 1.281 . S
C22 O13 1.252 . S
C23 O14 1.272 . S
C23 O15 1.245 1_554 S
O24 Co0 2.053 1_655 S
O24 C16 1.259 . S
O25 Co2 2.047 1_655 S
O25 C16 1.257 1_554 S
O26 Co1 2.063 . S
O26 C17 1.268 . S
O27 Co0 2.094 . S
O27 C17 1.253 . S
O28 Co7 2.115 . S
O28 C18 1.281 . S
O29 Co7 2.315 . S
O29 C18 1.252 . S
O30 Co0 2.122 . S
O30 C19 1.272 . S
O31 Co2 2.113 . S
O31 C19 1.245 1_554 S
Co32 H35 2.400 . S
Co32 O36 2.009 . S
Co32 O44 2.115 . S
Co32 O45 2.315 . S
Co32 O56 2.053 . S
Co32 O59 2.094 . S
Co32 O62 2.122 . S
Co33 O36 2.126 . S
Co33 H37 2.388 1_556 S
Co33 O38 2.053 1_556 S
Co33 O41 2.047 1_655 S
Co33 O47 2.113 . S
Co33 O58 2.063 . S
Co34 H35 2.388 1_554 S
Co34 O36 2.053 1_554 S
Co34 O38 2.126 . S
Co34 O43 2.063 . S
Co34 O57 2.047 . S
Co34 O63 2.113 . S
H35 Co32 2.400 . S
H35 Co34 2.388 1_556 S
H35 O36 0.760 . S
O36 Co32 2.009 . S
O36 Co33 2.126 . S
O36 Co34 2.053 1_556 S
O36 H35 0.760 . S
H37 Co33 2.388 1_554 S
H37 O38 0.760 . S
H37 Co39 2.400 . S
O38 Co33 2.053 1_554 S
O38 Co34 2.126 . S
O38 H37 0.760 . S
O38 Co39 2.009 . S
Co39 H37 2.400 . S
Co39 O38 2.009 . S
Co39 O40 2.053 1_655 S
Co39 O42 2.094 . S
Co39 O46 2.122 . S
Co39 O60 2.115 . S
Co39 O61 2.315 . S
O40 Co39 2.053 1_455 S
O40 C52 1.259 . S
O41 Co33 2.047 1_455 S
O41 C52 1.257 1_556 S
O42 Co39 2.094 . S
O42 C53 1.253 . S
O43 Co34 2.063 . S
O43 C53 1.268 . S
O44 Co32 2.115 . S
O44 C54 1.281 . S
O45 Co32 2.315 . S
O45 C54 1.252 . S
O46 Co39 2.122 . S
O46 C55 1.272 . S
O47 Co33 2.113 . S
O47 C55 1.245 1_556 S
C48 O56 1.259 . S
C48 O57 1.257 1_556 S
C49 O58 1.268 . S
C49 O59 1.253 . S
C50 O60 1.281 . S
C50 O61 1.252 . S
C51 O62 1.272 . S
C51 O63 1.245 1_556 S
C52 O40 1.259 . S
C52 O41 1.257 1_554 S
C53 O42 1.253 . S
C53 O43 1.268 . S
C54 O44 1.281 . S
C54 O45 1.252 . S
C55 O46 1.272 . S
C55 O47 1.245 1_554 S
O56 Co32 2.053 . S
O56 C48 1.259 . S
O57 Co34 2.047 . S
O57 C48 1.257 1_554 S
O58 Co33 2.063 . S
O58 C49 1.268 . S
O59 Co32 2.094 . S
O59 C49 1.253 . S
O60 Co39 2.115 . S
O60 C50 1.281 . S
O61 Co39 2.315 . S
O61 C50 1.252 . S
O62 Co32 2.122 . S
O62 C51 1.272 . S
O63 Co34 2.113 . S
O63 C51 1.245 1_554 S
Co64 H67 2.400 . S
Co64 O68 2.009 . S
Co64 O76 2.115 . S
Co64 O77 2.315 . S
Co64 O88 2.053 1_455 S
Co64 O91 2.094 . S
Co64 O94 2.122 . S
Co65 O68 2.126 . S
Co65 H69 2.388 . S
Co65 O70 2.053 . S
Co65 O73 2.047 . S
Co65 O79 2.113 . S
Co65 O90 2.063 . S
Co66 H67 2.388 . S
Co66 O68 2.053 . S
Co66 O70 2.126 . S
Co66 O75 2.063 . S
Co66 O89 2.047 1_455 S
Co66 O95 2.113 . S
H67 Co64 2.400 . S
H67 Co66 2.388 . S
H67 O68 0.760 . S
O68 Co64 2.009 . S
O68 Co65 2.126 . S
O68 Co66 2.053 . S
O68 H67 0.760 . S
H69 Co65 2.388 . S
H69 O70 0.760 . S
H69 Co71 2.400 . S
O70 Co65 2.053 . S
O70 Co66 2.126 . S
O70 H69 0.760 . S
O70 Co71 2.009 . S
Co71 H69 2.400 . S
Co71 O70 2.009 . S
Co71 O72 2.053 . S
Co71 O74 2.094 . S
Co71 O78 2.122 . S
Co71 O92 2.115 . S
Co71 O93 2.315 . S
O72 Co71 2.053 . S
O72 C84 1.259 . S
O73 Co65 2.047 . S
O73 C84 1.257 . S
O74 Co71 2.094 . S
O74 C85 1.253 . S
O75 Co66 2.063 . S
O75 C85 1.268 . S
O76 Co64 2.115 . S
O76 C86 1.281 . S
O77 Co64 2.315 . S
O77 C86 1.252 . S
O78 Co71 2.122 . S
O78 C87 1.272 . S
O79 Co65 2.113 . S
O79 C87 1.245 . S
C80 O88 1.259 . S
C80 O89 1.257 . S
C81 O90 1.268 . S
C81 O91 1.253 . S
C82 O92 1.281 . S
C82 O93 1.252 . S
C83 O94 1.272 . S
C83 O95 1.245 . S
C84 O72 1.259 . S
C84 O73 1.257 . S
C85 O74 1.253 . S
C85 O75 1.268 . S
C86 O76 1.281 . S
C86 O77 1.252 . S
C87 O78 1.272 . S
C87 O79 1.245 . S
O88 Co64 2.053 1_655 S
O88 C80 1.259 . S
O89 Co66 2.047 1_655 S
O89 C80 1.257 . S
O90 Co65 2.063 . S
O90 C81 1.268 . S
O91 Co64 2.094 . S
O91 C81 1.253 . S
O92 Co71 2.115 . S
O92 C82 1.281 . S
O93 Co71 2.315 . S
O93 C82 1.252 . S
O94 Co64 2.122 . S
O94 C83 1.272 . S
O95 Co66 2.113 . S
O95 C83 1.245 . S
Co96 H99 2.400 . S
Co96 O100 2.009 . S
Co96 O108 2.115 . S
Co96 O109 2.315 . S
Co96 O120 2.053 . S
Co96 O123 2.094 . S
Co96 O126 2.122 . S
Co97 O100 2.126 . S
Co97 H101 2.388 . S
Co97 O102 2.053 . S
Co97 O105 2.047 1_655 S
Co97 O111 2.113 . S
Co97 O122 2.063 . S
Co98 H99 2.388 . S
Co98 O100 2.053 . S
Co98 O102 2.126 . S
Co98 O107 2.063 . S
Co98 O121 2.047 . S
Co98 O127 2.113 . S
H99 Co96 2.400 . S
H99 Co98 2.388 . S
H99 O100 0.760 . S
O100 Co96 2.009 . S
O100 Co97 2.126 . S
O100 Co98 2.053 . S
O100 H99 0.760 . S
H101 Co97 2.388 . S
H101 O102 0.760 . S
H101 Co103 2.400 . S
O102 Co97 2.053 . S
O102 Co98 2.126 . S
O102 H101 0.760 . S
O102 Co103 2.009 . S
Co103 H101 2.400 . S
Co103 O102 2.009 . S
Co103 O104 2.053 1_655 S
Co103 O106 2.094 . S
Co103 O110 2.122 . S
Co103 O124 2.115 . S
Co103 O125 2.315 . S
O104 Co103 2.053 1_455 S
O104 C116 1.259 . S
O105 Co97 2.047 1_455 S
O105 C116 1.257 . S
O106 Co103 2.094 . S
O106 C117 1.253 . S
O107 Co98 2.063 . S
O107 C117 1.268 . S
O108 Co96 2.115 . S
O108 C118 1.281 . S
O109 Co96 2.315 . S
O109 C118 1.252 . S
O110 Co103 2.122 . S
O110 C119 1.272 . S
O111 Co97 2.113 . S
O111 C119 1.245 . S
C112 O120 1.259 . S
C112 O121 1.257 . S
C113 O122 1.268 . S
C113 O123 1.253 . S
C114 O124 1.281 . S
C114 O125 1.252 . S
C115 O126 1.272 . S
C115 O127 1.245 . S
C116 O104 1.259 . S
C116 O105 1.257 . S
C117 O106 1.253 . S
C117 O107 1.268 . S
C118 O108 1.281 . S
C118 O109 1.252 . S
C119 O110 1.272 . S
C119 O111 1.245 . S
O120 Co96 2.053 . S
O120 C112 1.259 . S
O121 Co98 2.047 . S
O121 C112 1.257 . S
O122 Co97 2.063 . S
O122 C113 1.268 . S
O123 Co96 2.094 . S
O123 C113 1.253 . S
O124 Co103 2.115 . S
O124 C114 1.281 . S
O125 Co103 2.315 . S
O125 C114 1.252 . S
O126 Co96 2.122 . S
O126 C115 1.272 . S
O127 Co98 2.113 . S
O127 C115 1.245 . S
C128 C129 1.387 . S
C128 H132 0.950 . S
C128 C137 1.390 1_554 S
C129 C128 1.387 . S
C129 C131 1.387 . S
H130 C137 0.950 . S
C131 C129 1.387 . S
C131 C133 1.390 1_554 S
C131 H135 0.950 . S
H132 C128 0.950 . S
C133 C131 1.390 1_556 S
C133 C134 1.387 . S
C133 H136 0.950 . S
C134 C133 1.387 . S
C134 C137 1.387 . S
H135 C131 0.950 . S
H136 C133 0.950 . S
C137 C128 1.390 1_556 S
C137 H130 0.950 . S
C137 C134 1.387 . S
C138 C139 1.387 . S
C138 H142 0.950 . S
C138 C147 1.390 1_554 S
C139 C138 1.387 . S
C139 C141 1.387 . S
H140 C147 0.950 . S
C141 C139 1.387 . S
C141 C143 1.390 1_554 S
C141 H145 0.950 . S
H142 C138 0.950 . S
C143 C141 1.390 1_556 S
C143 C144 1.387 . S
C143 H146 0.950 . S
C144 C143 1.387 . S
C144 C147 1.387 . S
H145 C141 0.950 . S
H146 C143 0.950 . S
C147 C138 1.390 1_556 S
C147 H140 0.950 . S
C147 C144 1.387 . S
C148 C149 1.387 . S
C148 H152 0.950 . S
C148 C157 1.390 . S
C149 C148 1.387 . S
C149 C151 1.387 . S
H150 C157 0.950 . S
C151 C149 1.387 . S
C151 C153 1.390 . S
C151 H155 0.950 . S
H152 C148 0.950 . S
C153 C151 1.390 . S
C153 C154 1.387 . S
C153 H156 0.950 . S
C154 C153 1.387 . S
C154 C157 1.387 . S
H155 C151 0.950 . S
H156 C153 0.950 . S
C157 C148 1.390 . S
C157 H150 0.950 . S
C157 C154 1.387 . S
C158 C159 1.387 . S
C158 H162 0.950 . S
C158 C167 1.390 . S
C159 C158 1.387 . S
C159 C161 1.387 . S
H160 C167 0.950 . S
C161 C159 1.387 . S
C161 C163 1.390 . S
C161 H165 0.950 . S
H162 C158 0.950 . S
C163 C161 1.390 . S
C163 C164 1.387 . S
C163 H166 0.950 . S
C164 C163 1.387 . S
C164 C167 1.387 . S
H165 C161 0.950 . S
H166 C163 0.950 . S
C167 C158 1.390 . S
C167 H160 0.950 . S
C167 C164 1.387 . S
C168 C169 1.387 . S
C168 H172 0.950 . S
C168 C177 1.390 . S
C169 C168 1.387 . S
C169 C171 1.387 1_554 S
H170 C177 0.950 . S
C171 C169 1.387 1_556 S
C171 C173 1.390 . S
C171 H175 0.950 . S
H172 C168 0.950 . S
C173 C171 1.390 . S
C173 C174 1.387 . S
C173 H176 0.950 . S
C174 C173 1.387 . S
C174 C177 1.387 1_556 S
H175 C171 0.950 . S
H176 C173 0.950 . S
C177 C168 1.390 . S
C177 H170 0.950 . S
C177 C174 1.387 1_554 S
C178 C179 1.387 . S
C178 H182 0.950 . S
C178 C187 1.390 . S
C179 C178 1.387 . S
C179 C181 1.387 . S
H180 C187 0.950 . S
C181 C179 1.387 . S
C181 C183 1.390 . S
C181 H185 0.950 . S
H182 C178 0.950 . S
C183 C181 1.390 . S
C183 C184 1.387 . S
C183 H186 0.950 . S
C184 C183 1.387 . S
C184 C187 1.387 . S
H185 C181 0.950 . S
H186 C183 0.950 . S
C187 C178 1.390 . S
C187 H180 0.950 . S
C187 C184 1.387 . S
C188 C189 1.387 . S
C188 H192 0.950 . S
C188 C197 1.390 1_445 S
C189 C188 1.387 . S
C189 C191 1.387 1_554 S
H190 C197 0.950 . S
C191 C189 1.387 1_556 S
C191 C193 1.390 1_445 S
C191 H195 0.950 . S
H192 C188 0.950 . S
C193 C191 1.390 1_665 S
C193 C194 1.387 . S
C193 H196 0.950 . S
C194 C193 1.387 . S
C194 C197 1.387 1_556 S
H195 C191 0.950 . S
H196 C193 0.950 . S
C197 C188 1.390 1_665 S
C197 H190 0.950 . S
C197 C194 1.387 1_554 S
C198 C199 1.387 . S
C198 H202 0.950 . S
C198 C207 1.390 1_645 S
C199 C198 1.387 . S
C199 C201 1.387 . S
H200 C207 0.950 . S
C201 C199 1.387 . S
C201 C203 1.390 1_645 S
C201 H205 0.950 . S
H202 C198 0.950 . S
C203 C201 1.390 1_465 S
C203 C204 1.387 . S
C203 H206 0.950 . S
C204 C203 1.387 . S
C204 C207 1.387 . S
H205 C201 0.950 . S
H206 C203 0.950 . S
C207 C198 1.390 1_465 S
C207 H200 0.950 . S
C207 C204 1.387 . S
C208 C209 1.387 . S
C208 H212 0.950 . S
C208 C217 1.390 . S
C209 C208 1.387 . S
C209 C211 1.387 . S
H210 C217 0.950 . S
C211 C209 1.387 . S
C211 C213 1.390 . S
C211 H215 0.950 . S
H212 C208 0.950 . S
C213 C211 1.390 . S
C213 C214 1.387 . S
C213 H216 0.950 . S
C214 C213 1.387 . S
C214 C217 1.387 . S
H215 C211 0.950 . S
H216 C213 0.950 . S
C217 C208 1.390 . S
C217 H210 0.950 . S
C217 C214 1.387 . S
C218 C219 1.387 . S
C218 H222 0.950 . S
C218 C227 1.390 . S
C219 C218 1.387 . S
C219 C221 1.387 . S
H220 C227 0.950 . S
C221 C219 1.387 . S
C221 C223 1.390 . S
C221 H225 0.950 . S
H222 C218 0.950 . S
C223 C221 1.390 . S
C223 C224 1.387 . S
C223 H226 0.950 . S
C224 C223 1.387 . S
C224 C227 1.387 . S
H225 C221 0.950 . S
H226 C223 0.950 . S
C227 C218 1.390 . S
C227 H220 0.950 . S
C227 C224 1.387 . S
C228 C229 1.387 . S
C228 H232 0.950 . S
C228 C237 1.390 . S
C229 C228 1.387 . S
C229 C231 1.387 . S
H230 C237 0.950 . S
C231 C229 1.387 . S
C231 C233 1.390 . S
C231 H235 0.950 . S
H232 C228 0.950 . S
C233 C231 1.390 . S
C233 C234 1.387 . S
C233 H236 0.950 . S
C234 C233 1.387 . S
C234 C237 1.387 . S
H235 C231 0.950 . S
H236 C233 0.950 . S
C237 C228 1.390 . S
C237 H230 0.950 . S
C237 C234 1.387 . S
C238 C239 1.387 . S
C238 H242 0.950 . S
C238 C247 1.390 . S
C239 C238 1.387 . S
C239 C241 1.387 . S
H240 C247 0.950 . S
C241 C239 1.387 . S
C241 C243 1.390 . S
C241 H245 0.950 . S
H242 C238 0.950 . S
C243 C241 1.390 . S
C243 C244 1.387 . S
C243 H246 0.950 . S
C244 C243 1.387 . S
C244 C247 1.387 . S
H245 C241 0.950 . S
H246 C243 0.950 . S
C247 C238 1.390 . S
C247 H240 0.950 . S
C247 C244 1.387 . S
C248 C249 1.387 . S
C248 H252 0.950 . S
C248 C257 1.390 . S
C249 C248 1.387 . S
C249 C251 1.387 . S
H250 C257 0.950 1_655 S
C251 C249 1.387 . S
C251 C253 1.390 . S
C251 H255 0.950 . S
H252 C248 0.950 . S
C253 C251 1.390 . S
C253 C254 1.387 1_455 S
C253 H256 0.950 . S
C254 C253 1.387 1_655 S
C254 C257 1.387 1_655 S
H255 C251 0.950 . S
H256 C253 0.950 . S
C257 C248 1.390 . S
C257 H250 0.950 1_455 S
C257 C254 1.387 1_455 S
C258 C259 1.387 1_455 S
C258 H262 0.950 . S
C258 C267 1.390 . S
C259 C258 1.387 1_655 S
C259 C261 1.387 1_655 S
H260 C267 0.950 . S
C261 C259 1.387 1_455 S
C261 C263 1.390 . S
C261 H265 0.950 1_455 S
H262 C258 0.950 . S
C263 C261 1.390 . S
C263 C264 1.387 . S
C263 H266 0.950 . S
C264 C263 1.387 . S
C264 C267 1.387 . S
H265 C261 0.950 1_655 S
H266 C263 0.950 . S
C267 C258 1.390 . S
C267 H260 0.950 . S
C267 C264 1.387 . S
C268 C269 1.387 1_655 S
C268 H272 0.950 1_655 S
C268 C277 1.390 . S
C269 C268 1.387 1_455 S
C269 C271 1.387 1_455 S
H270 C277 0.950 . S
C271 C269 1.387 1_655 S
C271 C273 1.390 . S
C271 H275 0.950 . S
H272 C268 0.950 1_455 S
C273 C271 1.390 . S
C273 C274 1.387 . S
C273 H276 0.950 . S
C274 C273 1.387 . S
C274 C277 1.387 . S
H275 C271 0.950 . S
H276 C273 0.950 . S
C277 C268 1.390 . S
C277 H270 0.950 . S
C277 C274 1.387 . S
C278 C279 1.387 1_655 S
C278 H282 0.950 1_655 S
C278 C287 1.390 . S
C279 C278 1.387 1_455 S
C279 C281 1.387 1_455 S
H280 C287 0.950 . S
C281 C279 1.387 1_655 S
C281 C283 1.390 . S
C281 H285 0.950 . S
H282 C278 0.950 1_455 S
C283 C281 1.390 . S
C283 C284 1.387 . S
C283 H286 0.950 . S
C284 C283 1.387 . S
C284 C287 1.387 . S
H285 C281 0.950 . S
H286 C283 0.950 . S
C287 C278 1.390 . S
C287 H280 0.950 . S
C287 C284 1.387 . S
C129 C20 1.104 . S
C134 C16 1.104 . S
C139 C52 1.102 . S
C144 C48 1.102 . S
C149 C84 1.104 . S
C154 C80 1.104 . S
C159 C116 1.104 . S
C164 C112 1.104 . S
C169 C51 1.452 1_554 S
C174 C23 1.452 1_556 S
C179 C115 1.450 . S
C184 C87 1.450 . S
C189 C19 1.452 1_554 S
C194 C55 1.452 1_556 S
C199 C119 1.450 . S
C204 C83 1.450 . S
C209 C117 1.657 . S
C214 C18 1.625 . S
C219 C53 1.657 . S
C224 C82 1.625 . S
C229 C81 1.657 . S
C234 C54 1.628 . S
C239 C17 1.657 . S
C244 C118 1.628 . S
C249 C85 1.657 . S
C254 C50 1.625 . S
C259 C114 1.627 . S
C264 C21 1.655 . S
C269 C22 1.626 . S
C274 C113 1.659 . S
C279 C86 1.626 . S
C284 C49 1.659 . S
