# Generated by pormake.
# Topology vbv, (6)-cn, num edge types: 1
# Building blocks:
#     Node 0, Type 0, BuildingBlock: OJICUG_clean_sbu_0, # of connection points: 6
#     Node 1, Type 0, BuildingBlock: OJICUG_clean_sbu_0, # of connection points: 6
#     Node 2, Type 0, BuildingBlock: OJICUG_clean_sbu_0, # of connection points: 6
#     Node 3, Type 0, BuildingBlock: OJICUG_clean_sbu_0, # of connection points: 6
#     Node 4, Type 0, BuildingBlock: OJICUG_clean_sbu_0, # of connection points: 6
#     Node 5, Type 0, BuildingBlock: OJICUG_clean_sbu_0, # of connection points: 6
#     Node 6, Type 0, BuildingBlock: OJICUG_clean_sbu_0, # of connection points: 6
#     Node 7, Type 0, BuildingBlock: OJICUG_clean_sbu_0, # of connection points: 6
#     Node 8, Type 0, BuildingBlock: OJICUG_clean_sbu_0, # of connection points: 6
#     Node 9, Type 0, BuildingBlock: OJICUG_clean_sbu_0, # of connection points: 6
#     Node 10, Type 0, BuildingBlock: OJICUG_clean_sbu_0, # of connection points: 6
#     Node 11, Type 0, BuildingBlock: OJICUG_clean_sbu_0, # of connection points: 6
#     Node 12, Type 0, BuildingBlock: OJICUG_clean_sbu_0, # of connection points: 6
#     Node 13, Type 0, BuildingBlock: OJICUG_clean_sbu_0, # of connection points: 6
#     Node 14, Type 0, BuildingBlock: OJICUG_clean_sbu_0, # of connection points: 6
#     Node 15, Type 0, BuildingBlock: OJICUG_clean_sbu_0, # of connection points: 6
#     Edge 16, Type (0, 0), BuildingBlock: AJUNOK_clean_linker_0, # of connection points: 2
#     Edge 17, Type (0, 0), BuildingBlock: AJUNOK_clean_linker_0, # of connection points: 2
#     Edge 18, Type (0, 0), BuildingBlock: AJUNOK_clean_linker_0, # of connection points: 2
#     Edge 19, Type (0, 0), BuildingBlock: AJUNOK_clean_linker_0, # of connection points: 2
#     Edge 20, Type (0, 0), BuildingBlock: AJUNOK_clean_linker_0, # of connection points: 2
#     Edge 21, Type (0, 0), BuildingBlock: AJUNOK_clean_linker_0, # of connection points: 2
#     Edge 22, Type (0, 0), BuildingBlock: AJUNOK_clean_linker_0, # of connection points: 2
#     Edge 23, Type (0, 0), BuildingBlock: AJUNOK_clean_linker_0, # of connection points: 2
#     Edge 24, Type (0, 0), BuildingBlock: AJUNOK_clean_linker_0, # of connection points: 2
#     Edge 25, Type (0, 0), BuildingBlock: AJUNOK_clean_linker_0, # of connection points: 2
#     Edge 26, Type (0, 0), BuildingBlock: AJUNOK_clean_linker_0, # of connection points: 2
#     Edge 27, Type (0, 0), BuildingBlock: AJUNOK_clean_linker_0, # of connection points: 2
#     Edge 28, Type (0, 0), BuildingBlock: AJUNOK_clean_linker_0, # of connection points: 2
#     Edge 29, Type (0, 0), BuildingBlock: AJUNOK_clean_linker_0, # of connection points: 2
#     Edge 30, Type (0, 0), BuildingBlock: AJUNOK_clean_linker_0, # of connection points: 2
#     Edge 31, Type (0, 0), BuildingBlock: AJUNOK_clean_linker_0, # of connection points: 2
#     Edge 32, Type (0, 0), BuildingBlock: AJUNOK_clean_linker_0, # of connection points: 2
#     Edge 33, Type (0, 0), BuildingBlock: AJUNOK_clean_linker_0, # of connection points: 2
#     Edge 34, Type (0, 0), BuildingBlock: AJUNOK_clean_linker_0, # of connection points: 2
#     Edge 35, Type (0, 0), BuildingBlock: AJUNOK_clean_linker_0, # of connection points: 2
#     Edge 36, Type (0, 0), BuildingBlock: AJUNOK_clean_linker_0, # of connection points: 2
#     Edge 37, Type (0, 0), BuildingBlock: AJUNOK_clean_linker_0, # of connection points: 2
#     Edge 38, Type (0, 0), BuildingBlock: AJUNOK_clean_linker_0, # of connection points: 2
#     Edge 39, Type (0, 0), BuildingBlock: AJUNOK_clean_linker_0, # of connection points: 2
#     Edge 40, Type (0, 0), BuildingBlock: AJUNOK_clean_linker_0, # of connection points: 2
#     Edge 41, Type (0, 0), BuildingBlock: AJUNOK_clean_linker_0, # of connection points: 2
#     Edge 42, Type (0, 0), BuildingBlock: AJUNOK_clean_linker_0, # of connection points: 2
#     Edge 43, Type (0, 0), BuildingBlock: AJUNOK_clean_linker_0, # of connection points: 2
#     Edge 44, Type (0, 0), BuildingBlock: AJUNOK_clean_linker_0, # of connection points: 2
#     Edge 45, Type (0, 0), BuildingBlock: AJUNOK_clean_linker_0, # of connection points: 2
#     Edge 46, Type (0, 0), BuildingBlock: AJUNOK_clean_linker_0, # of connection points: 2
#     Edge 47, Type (0, 0), BuildingBlock: AJUNOK_clean_linker_0, # of connection points: 2
#     Edge 48, Type (0, 0), BuildingBlock: AJUNOK_clean_linker_0, # of connection points: 2
#     Edge 49, Type (0, 0), BuildingBlock: AJUNOK_clean_linker_0, # of connection points: 2
#     Edge 50, Type (0, 0), BuildingBlock: AJUNOK_clean_linker_0, # of connection points: 2
#     Edge 51, Type (0, 0), BuildingBlock: AJUNOK_clean_linker_0, # of connection points: 2
#     Edge 52, Type (0, 0), BuildingBlock: AJUNOK_clean_linker_0, # of connection points: 2
#     Edge 53, Type (0, 0), BuildingBlock: AJUNOK_clean_linker_0, # of connection points: 2
#     Edge 54, Type (0, 0), BuildingBlock: AJUNOK_clean_linker_0, # of connection points: 2
#     Edge 55, Type (0, 0), BuildingBlock: AJUNOK_clean_linker_0, # of connection points: 2
#     Edge 56, Type (0, 0), BuildingBlock: AJUNOK_clean_linker_0, # of connection points: 2
#     Edge 57, Type (0, 0), BuildingBlock: AJUNOK_clean_linker_0, # of connection points: 2
#     Edge 58, Type (0, 0), BuildingBlock: AJUNOK_clean_linker_0, # of connection points: 2
#     Edge 59, Type (0, 0), BuildingBlock: AJUNOK_clean_linker_0, # of connection points: 2
#     Edge 60, Type (0, 0), BuildingBlock: AJUNOK_clean_linker_0, # of connection points: 2
#     Edge 61, Type (0, 0), BuildingBlock: AJUNOK_clean_linker_0, # of connection points: 2
#     Edge 62, Type (0, 0), BuildingBlock: AJUNOK_clean_linker_0, # of connection points: 2
#     Edge 63, Type (0, 0), BuildingBlock: AJUNOK_clean_linker_0, # of connection points: 2
# Relax obj value: 0.217
# Max RMSD: 0.236
# Mean RMSD: 0.236
data_MOF--net-vbv--node1-OJICUG_clean_sbu_0--edge1-AJUNOK_clean_linker_0
_symmetry_space_group_name_H-M    P1
_symmetry_Int_Tables_number       1
_symmetry_cell_setting            triclinic
loop_
_symmetry_equiv_pos_as_xyz
'x, y, z'
_cell_length_a     40.678482
_cell_length_b     21.301691
_cell_length_c     36.226092
_cell_angle_alpha  89.959173
_cell_angle_beta   90.025951
_cell_angle_gamma 90.113309
loop_
_atom_site_label
_atom_site_type_symbol
_atom_site_fract_x
_atom_site_fract_y
_atom_site_fract_z
_atom_type_partial_charge
Sc0 Sc 0.12881 0.41965 0.11004 0.0
Sc1 Sc 0.18349 0.29852 0.10256 0.0
Sc2 Sc 0.13393 0.33568 0.02947 0.0
O3 O 0.14879 0.35144 0.08082 0.0
C4 C 0.06995 0.35179 0.07247 0.0
C5 C 0.13797 0.30825 0.16914 0.0
C6 C 0.14199 0.20179 0.05121 0.0
C7 C 0.20389 0.43517 0.12776 0.0
C8 C 0.13678 0.47846 0.02859 0.0
C9 C 0.21054 0.31422 0.02631 0.0
O10 O 0.08177 0.37112 0.10308 0.0
O11 O 0.15165 0.27148 0.14628 0.0
O12 O 0.12052 0.24283 0.04389 0.0
O13 O 0.17766 0.46135 0.11585 0.0
O14 O 0.14751 0.42808 0.0146 0.0
O15 O 0.21465 0.32791 0.05985 0.0
O16 O 0.12273 0.4798 0.06037 0.0
O17 O 0.20487 0.37629 0.13466 0.0
O18 O 0.18225 0.3043 0.0123 0.0
O19 O 0.13368 0.36673 0.16218 0.0
O20 O 0.08455 0.36514 0.04247 0.0
O21 O 0.16782 0.21567 0.06989 0.0
Sc22 Sc 0.40048 0.68296 0.02951 0.0
Sc23 Sc 0.34817 0.71483 0.10106 0.0
Sc24 Sc 0.40397 0.59535 0.10928 0.0
O25 O 0.38405 0.66392 0.08004 0.0
C26 C 0.4002 0.54011 0.0264 0.0
C27 C 0.32371 0.70658 0.0239 0.0
C28 C 0.32879 0.57554 0.12532 0.0
C29 C 0.39025 0.81567 0.05305 0.0
C30 C 0.46356 0.66667 0.07491 0.0
C31 C 0.39188 0.70363 0.16959 0.0
O32 O 0.38875 0.59018 0.01254 0.0
O33 O 0.31893 0.68699 0.05629 0.0
O34 O 0.35562 0.55067 0.11416 0.0
O35 O 0.41231 0.77559 0.04612 0.0
O36 O 0.45053 0.64557 0.10444 0.0
O37 O 0.37798 0.7406 0.14693 0.0
O38 O 0.45012 0.65597 0.04381 0.0
O39 O 0.36409 0.8002 0.07065 0.0
O40 O 0.3976 0.64603 0.16172 0.0
O41 O 0.35248 0.71471 0.0108 0.0
O42 O 0.41225 0.53783 0.05916 0.0
O43 O 0.32623 0.63476 0.13052 0.0
Sc44 Sc 0.63108 0.59148 0.3749 0.0
Sc45 Sc 0.68434 0.71477 0.38513 0.0
Sc46 Sc 0.63329 0.67465 0.4564 0.0
O47 O 0.64975 0.65981 0.4055 0.0
C48 C 0.57066 0.65829 0.41018 0.0
C49 C 0.64037 0.7043 0.31702 0.0
C50 C 0.64132 0.80987 0.43541 0.0
C51 C 0.70651 0.57865 0.35907 0.0
C52 C 0.63559 0.5317 0.45666 0.0
C53 C 0.7099 0.69729 0.46229 0.0
O54 O 0.58388 0.63852 0.38048 0.0
O55 O 0.65323 0.74118 0.34048 0.0
O56 O 0.62029 0.76782 0.44244 0.0
O57 O 0.68015 0.55068 0.36936 0.0
O58 O 0.64611 0.58174 0.47138 0.0
O59 O 0.71488 0.68625 0.42855 0.0
O60 O 0.62359 0.53038 0.42385 0.0
O61 O 0.70694 0.63807 0.35367 0.0
O62 O 0.68125 0.70546 0.47569 0.0
O63 O 0.63675 0.64548 0.32339 0.0
O64 O 0.58395 0.64673 0.44126 0.0
O65 O 0.66763 0.79713 0.41744 0.0
Sc66 Sc 0.90519 0.41612 0.37665 0.0
Sc67 Sc 0.85081 0.29392 0.38536 0.0
Sc68 Sc 0.90205 0.33003 0.45713 0.0
O69 O 0.88589 0.34722 0.40629 0.0
C70 C 0.96525 0.34827 0.41215 0.0
C71 C 0.89539 0.30499 0.3176 0.0
C72 C 0.89357 0.19612 0.43449 0.0
C73 C 0.82988 0.4315 0.35962 0.0
C74 C 0.89916 0.47333 0.45874 0.0
C75 C 0.82533 0.30882 0.46234 0.0
O76 O 0.95226 0.36902 0.38256 0.0
O77 O 0.88151 0.26812 0.34036 0.0
O78 O 0.91486 0.23759 0.44168 0.0
O79 O 0.85656 0.45783 0.37022 0.0
O80 O 0.88952 0.42231 0.47311 0.0
O81 O 0.82074 0.32254 0.42892 0.0
O82 O 0.91161 0.47604 0.42618 0.0
O83 O 0.82819 0.37198 0.35487 0.0
O84 O 0.85385 0.29874 0.47569 0.0
O85 O 0.90029 0.36313 0.32489 0.0
O86 O 0.95157 0.35822 0.44317 0.0
O87 O 0.86716 0.20996 0.4169 0.0
Sc88 Sc 0.90283 0.5938 0.87706 0.0
Sc89 Sc 0.84994 0.71758 0.88463 0.0
Sc90 Sc 0.89973 0.67997 0.95751 0.0
O91 O 0.88403 0.66333 0.90645 0.0
C92 C 0.89723 0.53681 0.95944 0.0
C93 C 0.82767 0.58136 0.8596 0.0
C94 C 0.82309 0.70576 0.96095 0.0
C95 C 0.8945 0.70462 0.81753 0.0
C96 C 0.96303 0.66173 0.91268 0.0
C97 C 0.89186 0.81438 0.93515 0.0
O98 O 0.90954 0.53443 0.92682 0.0
O99 O 0.8279 0.64043 0.85322 0.0
O100 O 0.8516 0.71219 0.9751 0.0
O101 O 0.89807 0.64617 0.82493 0.0
O102 O 0.94928 0.65165 0.94371 0.0
O103 O 0.8661 0.80066 0.91644 0.0
O104 O 0.95012 0.64076 0.88304 0.0
O105 O 0.88187 0.74256 0.84051 0.0
O106 O 0.91305 0.77301 0.94287 0.0
O107 O 0.85357 0.55312 0.87092 0.0
O108 O 0.88651 0.58727 0.97343 0.0
O109 O 0.81863 0.69032 0.92772 0.0
Sc110 Sc 0.62783 0.42031 0.8746 0.0
Sc111 Sc 0.68312 0.30073 0.88333 0.0
Sc112 Sc 0.63259 0.33608 0.95565 0.0
O113 O 0.64765 0.35239 0.90431 0.0
C114 C 0.63345 0.47923 0.95638 0.0
C115 C 0.70293 0.43774 0.85741 0.0
C116 C 0.70942 0.31259 0.95859 0.0
C117 C 0.63826 0.30845 0.81609 0.0
C118 C 0.56864 0.35127 0.91117 0.0
C119 C 0.64233 0.2023 0.93457 0.0
O120 O 0.62058 0.48032 0.92398 0.0
O121 O 0.70429 0.37857 0.8515 0.0
O122 O 0.68118 0.30515 0.97327 0.0
O123 O 0.6334 0.36684 0.82283 0.0
O124 O 0.58261 0.3623 0.94198 0.0
O125 O 0.66809 0.21711 0.91603 0.0
O126 O 0.5812 0.37156 0.88119 0.0
O127 O 0.65219 0.27219 0.8391 0.0
O128 O 0.62032 0.24255 0.94135 0.0
O129 O 0.67627 0.46348 0.86844 0.0
O130 O 0.64493 0.42953 0.97062 0.0
O131 O 0.71287 0.33322 0.92634 0.0
Sc132 Sc 0.40173 0.33374 0.5288 0.0
Sc133 Sc 0.35085 0.2963 0.60074 0.0
Sc134 Sc 0.40653 0.41606 0.6103 0.0
O135 O 0.38637 0.34876 0.58019 0.0
C136 C 0.46533 0.34793 0.57279 0.0
C137 C 0.39279 0.19932 0.54993 0.0
C138 C 0.39524 0.30431 0.66895 0.0
C139 C 0.32526 0.31273 0.52386 0.0
C140 C 0.39925 0.47669 0.52944 0.0
C141 C 0.33092 0.43358 0.62704 0.0
O142 O 0.45116 0.36216 0.54267 0.0
O143 O 0.36696 0.21332 0.56851 0.0
O144 O 0.40123 0.36213 0.66175 0.0
O145 O 0.35365 0.30279 0.51031 0.0
O146 O 0.41321 0.47734 0.56126 0.0
O147 O 0.3288 0.37412 0.63174 0.0
O148 O 0.38861 0.42673 0.51472 0.0
O149 O 0.32095 0.32674 0.55727 0.0
O150 O 0.35804 0.45916 0.61705 0.0
O151 O 0.4144 0.24026 0.54251 0.0
O152 O 0.45331 0.36691 0.60333 0.0
O153 O 0.38106 0.26841 0.64589 0.0
Sc154 Sc 0.13139 0.59481 0.61111 0.0
Sc155 Sc 0.18555 0.71696 0.60164 0.0
Sc156 Sc 0.1349 0.67863 0.52988 0.0
O157 O 0.15073 0.66313 0.58101 0.0
C158 C 0.13817 0.53578 0.52953 0.0
C159 C 0.2071 0.58071 0.62739 0.0
C160 C 0.21129 0.70431 0.52501 0.0
C161 C 0.14103 0.70693 0.66944 0.0
C162 C 0.07179 0.66203 0.57417 0.0
C163 C 0.14287 0.81299 0.55128 0.0
O164 O 0.12488 0.53411 0.56172 0.0
O165 O 0.20773 0.63999 0.63302 0.0
O166 O 0.18264 0.71175 0.5115 0.0
O167 O 0.13655 0.64841 0.6628 0.0
O168 O 0.08591 0.64813 0.54401 0.0
O169 O 0.16893 0.79947 0.56955 0.0
O170 O 0.08408 0.64303 0.60463 0.0
O171 O 0.15465 0.74348 0.64633 0.0
O172 O 0.12145 0.77155 0.54414 0.0
O173 O 0.1805 0.55307 0.6174 0.0
O174 O 0.14851 0.5863 0.51515 0.0
O175 O 0.21596 0.68811 0.55807 0.0
Sc176 Sc 0.63075 0.92043 0.11075 0.0
Sc177 Sc 0.68315 0.79621 0.10012 0.0
Sc178 Sc 0.632 0.83729 0.02907 0.0
O179 O 0.64874 0.8517 0.08003 0.0
C180 C 0.56957 0.85508 0.0753 0.0
C181 C 0.64003 0.80712 0.16884 0.0
C182 C 0.63927 0.70179 0.04976 0.0
C183 C 0.70639 0.93176 0.12696 0.0
C184 C 0.63661 0.98069 0.0293 0.0
C185 C 0.7083 0.81398 0.02279 0.0
O186 O 0.58303 0.87465 0.10496 0.0
O187 O 0.65244 0.77011 0.14519 0.0
O188 O 0.61844 0.74411 0.04276 0.0
O189 O 0.68016 0.96019 0.11684 0.0
O190 O 0.64559 0.92994 0.01425 0.0
O191 O 0.71345 0.82474 0.05652 0.0
O192 O 0.62429 0.98253 0.06194 0.0
O193 O 0.70665 0.87216 0.13156 0.0
O194 O 0.6796 0.80571 0.00952 0.0
O195 O 0.63584 0.86566 0.16207 0.0
O196 O 0.58292 0.86618 0.04421 0.0
O197 O 0.66565 0.7142 0.06781 0.0
Sc198 Sc 0.89948 0.18096 0.02993 0.0
Sc199 Sc 0.85069 0.21709 0.10366 0.0
Sc200 Sc 0.90522 0.09501 0.10998 0.0
O201 O 0.88487 0.16377 0.08124 0.0
C202 C 0.89696 0.03813 0.02793 0.0
C203 C 0.82263 0.20554 0.02797 0.0
C204 C 0.83023 0.07867 0.12872 0.0
C205 C 0.89257 0.31502 0.05345 0.0
C206 C 0.96416 0.16291 0.07222 0.0
C207 C 0.89708 0.20489 0.16969 0.0
O208 O 0.88611 0.0888 0.01434 0.0
O209 O 0.8189 0.19019 0.06126 0.0
O210 O 0.85674 0.0527 0.11742 0.0
O211 O 0.9132 0.27318 0.04503 0.0
O212 O 0.95206 0.14342 0.10262 0.0
O213 O 0.88293 0.24205 0.14742 0.0
O214 O 0.94928 0.15215 0.04199 0.0
O215 O 0.86663 0.30149 0.07205 0.0
O216 O 0.90124 0.14662 0.16238 0.0
O217 O 0.8509 0.21285 0.01334 0.0
O218 O 0.91067 0.03587 0.05989 0.0
O219 O 0.82875 0.13807 0.13422 0.0
Sc220 Sc 0.13132 0.09389 0.37595 0.0
Sc221 Sc 0.1848 0.21695 0.38523 0.0
Sc222 Sc 0.13357 0.17938 0.4568 0.0
O223 O 0.14991 0.16307 0.40592 0.0
C224 C 0.07076 0.16045 0.41142 0.0
C225 C 0.14068 0.20621 0.31722 0.0
C226 C 0.14257 0.31362 0.43547 0.0
C227 C 0.20678 0.08109 0.35969 0.0
C228 C 0.1371 0.03598 0.45795 0.0
C229 C 0.21014 0.20346 0.46217 0.0
O230 O 0.08389 0.14023 0.38177 0.0
O231 O 0.15393 0.24322 0.34038 0.0
O232 O 0.12079 0.2727 0.44226 0.0
O233 O 0.18046 0.05314 0.37007 0.0
O234 O 0.14645 0.08705 0.47244 0.0
O235 O 0.21502 0.18817 0.42899 0.0
O236 O 0.12486 0.03328 0.42528 0.0
O237 O 0.20711 0.14029 0.35385 0.0
O238 O 0.18143 0.2111 0.47548 0.0
O239 O 0.13626 0.14777 0.32428 0.0
O240 O 0.08436 0.15025 0.44245 0.0
O241 O 0.16852 0.29955 0.41724 0.0
Sc242 Sc 0.40588 0.91712 0.3757 0.0
Sc243 Sc 0.35031 0.79764 0.38651 0.0
Sc244 Sc 0.40298 0.8333 0.45712 0.0
O245 O 0.38644 0.84956 0.40628 0.0
C246 C 0.46588 0.84809 0.41095 0.0
C247 C 0.39405 0.80463 0.31793 0.0
C248 C 0.39205 0.69939 0.43644 0.0
C249 C 0.33039 0.93463 0.35997 0.0
C250 C 0.40095 0.97692 0.45701 0.0
C251 C 0.32621 0.81516 0.46386 0.0
O252 O 0.45269 0.86852 0.38136 0.0
O253 O 0.38001 0.76895 0.34123 0.0
O254 O 0.41435 0.73941 0.44288 0.0
O255 O 0.35745 0.96028 0.36997 0.0
O256 O 0.3913 0.92656 0.47213 0.0
O257 O 0.32131 0.82913 0.4305 0.0
O258 O 0.41349 0.97841 0.42449 0.0
O259 O 0.32834 0.87522 0.35527 0.0
O260 O 0.35482 0.80442 0.47672 0.0
O261 O 0.39959 0.86287 0.32445 0.0
O262 O 0.45264 0.85904 0.4421 0.0
O263 O 0.36596 0.71443 0.41867 0.0
Sc264 Sc 0.403 0.09466 0.87725 0.0
Sc265 Sc 0.3516 0.22102 0.88531 0.0
Sc266 Sc 0.40185 0.18171 0.95751 0.0
O267 O 0.38519 0.16523 0.90676 0.0
C268 C 0.39646 0.03864 0.95962 0.0
C269 C 0.32749 0.08461 0.86109 0.0
C270 C 0.3258 0.21046 0.9626 0.0
C271 C 0.39559 0.20493 0.8176 0.0
C272 C 0.46405 0.16047 0.91205 0.0
C273 C 0.396 0.31648 0.93414 0.0
O274 O 0.40899 0.03532 0.92714 0.0
O275 O 0.32764 0.14395 0.85536 0.0
O276 O 0.35458 0.21627 0.97609 0.0
O277 O 0.39842 0.14634 0.82489 0.0
O278 O 0.45057 0.15005 0.94312 0.0
O279 O 0.3697 0.30403 0.91601 0.0
O280 O 0.4508 0.13993 0.88253 0.0
O281 O 0.38315 0.24344 0.84034 0.0
O282 O 0.41634 0.27381 0.94225 0.0
O283 O 0.35347 0.05582 0.87162 0.0
O284 O 0.38737 0.09011 0.97379 0.0
O285 O 0.32054 0.19698 0.92922 0.0
Sc286 Sc 0.12809 0.9209 0.87608 0.0
Sc287 Sc 0.18382 0.80169 0.8858 0.0
Sc288 Sc 0.13215 0.83725 0.95731 0.0
O289 O 0.14799 0.85346 0.90625 0.0
C290 C 0.1338 0.98075 0.95723 0.0
C291 C 0.20338 0.93914 0.85972 0.0
C292 C 0.20918 0.81997 0.96279 0.0
C293 C 0.13984 0.8093 0.81753 0.0
C294 C 0.06858 0.85096 0.91201 0.0
C295 C 0.14266 0.70321 0.93642 0.0
O296 O 0.12074 0.98198 0.92496 0.0
O297 O 0.20528 0.87985 0.85447 0.0
O298 O 0.18069 0.80949 0.97615 0.0
O299 O 0.13404 0.86717 0.82465 0.0
O300 O 0.08217 0.86193 0.94301 0.0
O301 O 0.16853 0.71809 0.91811 0.0
O302 O 0.08143 0.87161 0.88226 0.0
O303 O 0.15357 0.77317 0.8408 0.0
O304 O 0.12066 0.74337 0.9433 0.0
O305 O 0.17642 0.96453 0.87007 0.0
O306 O 0.14386 0.93058 0.97211 0.0
O307 O 0.2137 0.83291 0.92923 0.0
Sc308 Sc 0.90132 0.83175 0.5293 0.0
Sc309 Sc 0.85109 0.79331 0.60151 0.0
Sc310 Sc 0.90509 0.91568 0.61033 0.0
O311 O 0.88571 0.84727 0.58044 0.0
C312 C 0.96507 0.84918 0.5737 0.0
C313 C 0.89335 0.69721 0.55103 0.0
C314 C 0.89583 0.80395 0.66891 0.0
C315 C 0.82475 0.80568 0.52508 0.0
C316 C 0.89898 0.97453 0.52855 0.0
C317 C 0.82962 0.92966 0.62708 0.0
O318 O 0.95082 0.86078 0.54317 0.0
O319 O 0.86743 0.71069 0.5695 0.0
O320 O 0.89991 0.86252 0.66215 0.0
O321 O 0.85334 0.79907 0.51125 0.0
O322 O 0.91198 0.97592 0.56088 0.0
O323 O 0.82915 0.87042 0.63294 0.0
O324 O 0.88788 0.92451 0.5143 0.0
O325 O 0.82021 0.82154 0.55821 0.0
O326 O 0.85603 0.95733 0.61655 0.0
O327 O 0.91463 0.7387 0.5435 0.0
O328 O 0.95228 0.86779 0.60395 0.0
O329 O 0.88246 0.76706 0.64584 0.0
Sc330 Sc 0.63007 0.09228 0.61035 0.0
Sc331 Sc 0.68479 0.21359 0.59969 0.0
Sc332 Sc 0.63333 0.17406 0.52868 0.0
O333 O 0.64954 0.1597 0.57979 0.0
C334 C 0.63593 0.03167 0.52901 0.0
C335 C 0.70586 0.07649 0.62644 0.0
C336 C 0.70955 0.19995 0.52261 0.0
C337 C 0.64111 0.2045 0.66857 0.0
C338 C 0.57011 0.15748 0.57348 0.0
C339 C 0.64071 0.30889 0.54998 0.0
O340 O 0.62298 0.03101 0.56138 0.0
O341 O 0.70797 0.13617 0.63024 0.0
O342 O 0.68081 0.20748 0.50941 0.0
O343 O 0.6355 0.14648 0.66164 0.0
O344 O 0.58416 0.14423 0.54313 0.0
O345 O 0.66722 0.29638 0.56781 0.0
O346 O 0.58303 0.14019 0.60389 0.0
O347 O 0.65499 0.24053 0.64534 0.0
O348 O 0.61978 0.26658 0.54301 0.0
O349 O 0.67878 0.0503 0.61686 0.0
O350 O 0.647 0.08135 0.5143 0.0
O351 O 0.71444 0.18428 0.55567 0.0
C352 C 0.11097 0.12833 0.00966 0.0
C353 C 0.13981 0.14189 0.03009 0.0
C354 C 0.10946 0.07777 0.98488 0.0
C355 C 0.13655 0.03817 0.9799 0.0
H356 H 0.08938 0.15765 0.01234 0.0
H357 H 0.08674 0.06884 0.97016 0.0
S358 S 0.21808 0.05276 0.02523 0.0
N359 N 0.19639 0.11124 0.04247 0.0
N360 N 0.19317 0.01557 -0.00338 0.0
C361 C 0.16541 0.05052 0.00016 0.0
C362 C 0.16711 0.10232 0.02512 0.0
C363 C 0.41964 0.9379 0.98371 0.0
C364 C 0.39422 0.98218 0.98345 0.0
C365 C 0.4189 0.88654 0.00794 0.0
C366 C 0.39233 0.87637 0.03249 0.0
H367 H 0.44054 0.94343 0.96546 0.0
H368 H 0.43916 0.8537 0.00661 0.0
S369 S 0.3191 0.97893 0.0417 0.0
N370 N 0.34172 0.01339 0.0097 0.0
N371 N 0.3398 0.91595 0.05448 0.0
C372 C 0.36679 0.92082 0.03255 0.0
C373 C 0.36783 0.97373 0.00821 0.0
C374 C 0.66474 0.9611 0.48468 0.0
C375 C 0.6366 0.97449 0.50588 0.0
C376 C 0.66563 0.90968 0.46048 0.0
C377 C 0.63814 0.87017 0.456 0.0
H378 H 0.6865 0.99023 0.48722 0.0
H379 H 0.68835 0.89995 0.44603 0.0
S380 S 0.55691 0.89052 0.50187 0.0
N381 N 0.57989 0.94749 0.51897 0.0
N382 N 0.58078 0.852 0.47286 0.0
C383 C 0.60929 0.885 0.476 0.0
C384 C 0.60872 0.93667 0.50116 0.0
C385 C 0.86991 0.04522 0.48426 0.0
C386 C 0.89831 0.03125 0.50495 0.0
C387 C 0.86895 0.09664 0.45995 0.0
C388 C 0.89664 0.13541 0.4548 0.0
H389 H 0.84799 0.0167 0.48738 0.0
H390 H 0.84604 0.10704 0.44601 0.0
S391 S 0.97857 0.11275 0.49884 0.0
N392 N 0.95545 0.05661 0.51664 0.0
N393 N 0.95449 0.15179 0.47024 0.0
C394 C 0.92576 0.11969 0.47414 0.0
C395 C 0.92638 0.06818 0.49944 0.0
C396 C 0.91949 0.93506 0.00624 0.0
C397 C 0.89526 0.98162 0.00401 0.0
C398 C 0.91912 0.88324 0.98238 0.0
C399 C 0.89415 0.87506 0.95557 0.0
H400 H 0.93915 0.93895 0.02631 0.0
H401 H 0.93828 0.84848 0.98577 0.0
S402 S 0.82456 0.98398 0.93887 0.0
N403 N 0.84553 0.01678 0.97279 0.0
N404 N 0.84459 0.91906 0.92841 0.0
C405 C 0.86991 0.92182 0.95285 0.0
C406 C 0.87048 0.97496 0.97696 0.0
C407 C 0.61337 0.13094 0.97934 0.0
C408 C 0.64071 0.14243 0.95606 0.0
C409 C 0.61266 0.08016 0.00407 0.0
C410 C 0.63898 0.03797 0.00617 0.0
H411 H 0.59236 0.1621 0.97906 0.0
H412 H 0.59105 0.07315 0.02107 0.0
S413 S 0.71654 0.04584 0.95226 0.0
N414 N 0.69508 0.1067 0.93764 0.0
N415 N 0.69327 0.01051 0.98333 0.0
C416 C 0.6663 0.0481 0.98295 0.0
C417 C 0.66725 0.10029 0.95808 0.0
C418 C 0.42537 0.07422 0.48449 0.0
C419 C 0.39825 0.03444 0.47961 0.0
C420 C 0.42385 0.12514 0.50902 0.0
C421 C 0.39498 0.13896 0.52923 0.0
H422 H 0.4481 0.06521 0.46988 0.0
H423 H 0.44548 0.15456 0.51164 0.0
S424 S 0.31669 0.04921 0.52467 0.0
N425 N 0.34163 0.01168 0.49635 0.0
N426 N 0.33837 0.10815 0.54162 0.0
C427 C 0.36766 0.09911 0.52442 0.0
C428 C 0.3694 0.04688 0.49976 0.0
C429 C 0.11535 0.88101 0.50385 0.0
C430 C 0.14052 0.87326 0.53046 0.0
C431 C 0.11483 0.93258 0.47975 0.0
C432 C 0.13912 0.97923 0.48159 0.0
H433 H 0.09611 0.84617 0.50086 0.0
H434 H 0.09499 0.93633 0.45992 0.0
S435 S 0.21047 0.98241 0.54575 0.0
N436 N 0.19045 0.9176 0.55678 0.0
N437 N 0.1892 0.01482 0.51195 0.0
C438 C 0.16416 0.97288 0.50832 0.0
C439 C 0.16488 0.92004 0.53265 0.0
C440 C 0.66186 0.5489 0.0018 0.0
C441 C 0.63405 0.53621 0.9798 0.0
C442 C 0.66285 0.60066 0.02577 0.0
C443 C 0.6358 0.64134 0.02924 0.0
H444 H 0.68334 0.51904 -0.0 0.0
H445 H 0.68536 0.60969 0.04087 0.0
S446 S 0.55542 0.62345 0.98096 0.0
N447 N 0.57803 0.5653 0.96488 0.0
N448 N 0.57909 0.66146 0.01051 0.0
C449 C 0.60722 0.62728 0.00844 0.0
C450 C 0.60657 0.57521 0.98353 0.0
C451 C 0.86823 0.41576 0.0295 0.0
C452 C 0.89567 0.37616 0.03355 0.0
C453 C 0.86896 0.4673 0.00524 0.0
C454 C 0.89685 0.48057 0.9835 0.0
H455 H 0.84563 0.40581 0.0442 0.0
H456 H 0.84721 0.49632 0.00288 0.0
S457 S 0.97657 0.39723 0.98689 0.0
N458 N 0.95295 0.35863 0.01623 0.0
N459 N 0.95344 0.45394 0.96992 0.0
C460 C 0.92476 0.443 0.98808 0.0
C461 C 0.92441 0.39139 0.01333 0.0
C462 C 0.11451 0.43436 0.50632 0.0
C463 C 0.13997 0.47881 0.50609 0.0
C464 C 0.11477 0.38316 0.48194 0.0
C465 C 0.1408 0.37363 0.45664 0.0
H466 H 0.09393 0.43971 0.52502 0.0
H467 H 0.09457 0.35007 0.4836 0.0
S468 S 0.21411 0.47634 0.44618 0.0
N469 N 0.19217 0.51014 0.4789 0.0
N470 N 0.19297 0.41369 0.43358 0.0
C471 C 0.16642 0.41812 0.45619 0.0
C472 C 0.16596 0.47054 0.4808 0.0
C473 C 0.42393 0.57395 0.50223 0.0
C474 C 0.3967 0.53434 0.50689 0.0
C475 C 0.42265 0.62503 0.47778 0.0
C476 C 0.39391 0.63918 0.45738 0.0
H477 H 0.44658 0.56466 0.51697 0.0
H478 H 0.44436 0.65429 0.47539 0.0
S479 S 0.31535 0.55017 0.46138 0.0
N480 N 0.34007 0.51229 0.48984 0.0
N481 N 0.33726 0.60896 0.44461 0.0
C482 C 0.36646 0.59959 0.46201 0.0
C483 C 0.36794 0.54722 0.48663 0.0
C484 C 0.37303 0.41997 0.95512 0.0
C485 C 0.39959 0.37777 0.95371 0.0
C486 C 0.37356 0.47219 0.97874 0.0
C487 C 0.4004 0.48387 0.00236 0.0
H488 H 0.3511 0.41155 0.93888 0.0
H489 H 0.35233 0.50283 0.97922 0.0
S490 S 0.47799 0.39344 0.00613 0.0
N491 N 0.45521 0.3558 0.97557 0.0
N492 N 0.45538 0.45285 0.02053 0.0
C493 C 0.4276 0.44378 0.00036 0.0
C494 C 0.42744 0.39122 0.97582 0.0
C495 C 0.11441 0.5816 0.00681 0.0
C496 C 0.13895 0.53562 0.00523 0.0
C497 C 0.11507 0.63365 0.98308 0.0
C498 C 0.14067 0.64271 0.95712 0.0
H499 H 0.09422 0.57693 0.02612 0.0
H500 H 0.09551 0.66776 0.98583 0.0
S501 S 0.21123 0.53549 0.94238 0.0
N502 N 0.18962 0.50183 0.97551 0.0
N503 N 0.19123 0.6003 0.93161 0.0
C504 C 0.16536 0.59677 0.95525 0.0
C505 C 0.16445 0.54328 0.97913 0.0
C506 C 0.92094 0.62859 0.50409 0.0
C507 C 0.89575 0.63664 0.5306 0.0
C508 C 0.92149 0.57673 0.48027 0.0
C509 C 0.89722 0.53007 0.48232 0.0
H510 H 0.94017 0.66343 0.50092 0.0
H511 H 0.94132 0.57279 0.46045 0.0
S512 S 0.82588 0.52753 0.54642 0.0
N513 N 0.84586 0.59253 0.55712 0.0
N514 N 0.84716 0.49474 0.51281 0.0
C515 C 0.87218 0.53667 0.50898 0.0
C516 C 0.87142 0.58983 0.53303 0.0
C517 C 0.66253 0.46462 0.50449 0.0
C518 C 0.63602 0.47474 0.48013 0.0
C519 C 0.66323 0.41274 0.52841 0.0
C520 C 0.63712 0.36937 0.52947 0.0
H521 H 0.68333 0.4965 0.50452 0.0
H522 H 0.68487 0.40572 0.54534 0.0
S523 S 0.55967 0.38037 0.47475 0.0
N524 N 0.5819 0.44066 0.46061 0.0
N525 N 0.58222 0.34433 0.50613 0.0
C526 C 0.60961 0.38107 0.50644 0.0
C527 C 0.60934 0.43321 0.48156 0.0
C528 C 0.13615 0.29703 0.2734 0.0
C529 C 0.13369 0.23173 0.27972 0.0
C530 C 0.13507 0.32222 0.23764 0.0
C531 C 0.13166 0.28313 0.20669 0.0
H532 H 0.14032 0.32907 0.29613 0.0
H533 H 0.13894 0.37221 0.23419 0.0
S534 S 0.11822 0.11061 0.20809 0.0
N535 N 0.12324 0.12963 0.2519 0.0
N536 N 0.12124 0.17698 0.18479 0.0
C537 C 0.12651 0.21845 0.21269 0.0
C538 C 0.12746 0.19277 0.24914 0.0
C539 C 0.39738 0.79351 0.2137 0.0
C540 C 0.39842 0.72816 0.20735 0.0
C541 C 0.39822 0.81832 0.24951 0.0
C542 C 0.3999 0.77879 0.28049 0.0
H543 H 0.39465 0.82597 0.19088 0.0
H544 H 0.39566 0.86859 0.25291 0.0
S545 S 0.40872 0.60526 0.2791 0.0
N546 N 0.40533 0.62503 0.23519 0.0
N547 N 0.4069 0.67165 0.30248 0.0
C548 C 0.40346 0.71375 0.27452 0.0
C549 C 0.40278 0.68846 0.23799 0.0
C550 C 0.63678 0.71621 0.21275 0.0
C551 C 0.63397 0.78147 0.20654 0.0
C552 C 0.63664 0.69095 0.2485 0.0
C553 C 0.63384 0.72987 0.27959 0.0
H554 H 0.64047 0.68426 0.18989 0.0
H555 H 0.64061 0.64098 0.25176 0.0
S556 S 0.61977 0.90213 0.2787 0.0
N557 N 0.62389 0.8833 0.23475 0.0
N558 N 0.62357 0.83578 0.30187 0.0
C559 C 0.62839 0.79448 0.2738 0.0
C560 C 0.62841 0.82026 0.23734 0.0
C561 C 0.90078 0.1898 0.23794 0.0
C562 C 0.9041 0.22928 0.20714 0.0
C563 C 0.89995 0.21458 0.27374 0.0
C564 C 0.90255 0.2798 0.28018 0.0
H565 H 0.89668 0.13991 0.23434 0.0
H566 H 0.89574 0.18236 0.29641 0.0
S567 S 0.9183 0.40152 0.20891 0.0
N568 N 0.91493 0.33543 0.18543 0.0
N569 N 0.91337 0.38209 0.25268 0.0
C570 C 0.90891 0.31904 0.24975 0.0
C571 C 0.90963 0.29376 0.21326 0.0
C572 C 0.9005 0.81869 0.73721 0.0
C573 C 0.9023 0.77885 0.70643 0.0
C574 C 0.89994 0.79425 0.77313 0.0
C575 C 0.90128 0.72897 0.77977 0.0
H576 H 0.89758 0.86885 0.73359 0.0
H577 H 0.89701 0.82692 0.79578 0.0
S578 S 0.91249 0.60559 0.70857 0.0
N579 N 0.91015 0.67168 0.68491 0.0
N580 N 0.90899 0.62575 0.75238 0.0
C581 C 0.90594 0.68906 0.7493 0.0
C582 C 0.90641 0.71399 0.71268 0.0
C583 C 0.63613 0.32159 0.74754 0.0
C584 C 0.63217 0.28297 0.77863 0.0
C585 C 0.6373 0.29593 0.71193 0.0
C586 C 0.63434 0.23064 0.70593 0.0
H587 H 0.64033 0.37152 0.75079 0.0
H588 H 0.64186 0.32756 0.68907 0.0
S589 S 0.6176 0.11084 0.77807 0.0
N590 N 0.62092 0.17744 0.80104 0.0
N591 N 0.62303 0.12915 0.7342 0.0
C592 C 0.62767 0.19221 0.73666 0.0
C593 C 0.62665 0.21838 0.77295 0.0
C594 C 0.39659 0.21396 0.71334 0.0
C595 C 0.40158 0.27859 0.70655 0.0
C596 C 0.39704 0.18939 0.74924 0.0
C597 C 0.40232 0.22848 0.77985 0.0
H598 H 0.3909 0.18216 0.6909 0.0
H599 H 0.39125 0.14016 0.7531 0.0
S600 S 0.42277 0.39837 0.77716 0.0
N601 N 0.41647 0.37938 0.73355 0.0
N602 N 0.41726 0.33307 0.80095 0.0
C603 C 0.40999 0.29206 0.77338 0.0
C604 C 0.40968 0.31713 0.73678 0.0
C605 C 0.13622 0.71854 0.77367 0.0
C606 C 0.13401 0.78385 0.77981 0.0
C607 C 0.13625 0.69338 0.73791 0.0
C608 C 0.1343 0.73254 0.70678 0.0
H609 H 0.13924 0.68647 0.79664 0.0
H610 H 0.13969 0.64327 0.73468 0.0
S611 S 0.12271 0.9055 0.70747 0.0
N612 N 0.12581 0.88627 0.75148 0.0
N613 N 0.12588 0.83904 0.68436 0.0
C614 C 0.12961 0.79737 0.7125 0.0
C615 C 0.12941 0.823 0.74894 0.0
C616 C 0.2559 0.47524 0.15949 0.0
C617 C 0.2355 0.47174 0.12799 0.0
C618 C 0.28626 0.50825 0.15879 0.0
C619 C 0.29786 0.53712 0.12622 0.0
H620 H 0.24813 0.45309 0.18496 0.0
H621 H 0.3007 0.51124 0.18386 0.0
S622 S 0.2558 0.5352 0.03537 0.0
N623 N 0.23031 0.49717 0.06296 0.0
N624 N 0.28741 0.55603 0.06127 0.0
C625 C 0.27819 0.53193 0.09442 0.0
C626 C 0.2471 0.50002 0.09536 0.0
C627 C 0.73817 0.47573 0.35619 0.0
C628 C 0.73817 0.54197 0.35511 0.0
C629 C 0.7677 0.44078 0.35604 0.0
C630 C 0.79893 0.47009 0.35529 0.0
H631 H 0.71512 0.45036 0.35788 0.0
H632 H 0.76591 0.39014 0.35784 0.0
S633 S 0.81319 0.64234 0.35143 0.0
N634 N 0.77279 0.63531 0.35231 0.0
N635 N 0.82767 0.57004 0.35248 0.0
C636 C 0.79932 0.53624 0.35356 0.0
C637 C 0.76926 0.57187 0.35332 0.0
C638 C 0.79494 0.48018 0.85138 0.0
C639 C 0.79563 0.54598 0.8555 0.0
C640 C 0.765 0.44628 0.85035 0.0
C641 C 0.73411 0.4762 0.85397 0.0
H642 H 0.81777 0.45436 0.84937 0.0
H643 H 0.76626 0.39568 0.84786 0.0
S644 S 0.72198 0.64787 0.86626 0.0
N645 N 0.76223 0.63974 0.86336 0.0
N646 N 0.70661 0.57651 0.86189 0.0
C647 C 0.73448 0.54213 0.85776 0.0
C648 C 0.76492 0.5767 0.85839 0.0
C649 C 0.23918 0.47844 0.63458 0.0
C650 C 0.23896 0.54432 0.63063 0.0
C651 C 0.26886 0.44375 0.63494 0.0
C652 C 0.3 0.47285 0.63081 0.0
H653 H 0.21616 0.45314 0.63702 0.0
H654 H 0.26717 0.39319 0.63743 0.0
S655 S 0.31337 0.64422 0.61795 0.0
N656 N 0.27312 0.63711 0.62185 0.0
N657 N 0.32817 0.57249 0.62208 0.0
C658 C 0.3001 0.5388 0.62695 0.0
C659 C 0.26993 0.57417 0.62697 0.0
C660 C 0.76801 0.06927 0.13306 0.0
C661 C 0.79918 0.03991 0.13277 0.0
C662 C 0.73837 0.03441 0.13226 0.0
C663 C 0.73818 0.96815 0.13163 0.0
H664 H 0.76635 0.12 0.13256 0.0
H665 H 0.71538 0.0599 0.13143 0.0
S666 S 0.81295 0.86746 0.13244 0.0
N667 N 0.82763 0.93974 0.13301 0.0
N668 N 0.77257 0.87464 0.13198 0.0
C669 C 0.76921 0.93811 0.13252 0.0
C670 C 0.79938 0.97368 0.13294 0.0
C671 C 0.23877 0.97904 0.35297 0.0
C672 C 0.2386 0.045 0.35621 0.0
C673 C 0.26841 0.94442 0.35265 0.0
C674 C 0.29954 0.97373 0.3561 0.0
H675 H 0.21575 0.95362 0.35112 0.0
H676 H 0.26671 0.89378 0.35077 0.0
S677 S 0.31305 0.14548 0.36653 0.0
N678 N 0.27276 0.13821 0.36332 0.0
N679 N 0.32783 0.07364 0.36314 0.0
C680 C 0.29971 0.03978 0.35912 0.0
C681 C 0.26956 0.07509 0.35906 0.0
C682 C 0.26526 0.94907 0.85165 0.0
C683 C 0.23431 0.97833 0.85621 0.0
C684 C 0.29503 0.98343 0.85241 0.0
C685 C 0.2955 0.04911 0.85721 0.0
H686 H 0.26674 0.89859 0.84857 0.0
H687 H 0.31793 0.95803 0.84966 0.0
S688 S 0.22167 0.14931 0.87106 0.0
N689 N 0.20652 0.07788 0.8661 0.0
N690 N 0.26189 0.14199 0.86706 0.0
C691 C 0.26473 0.07921 0.86118 0.0
C692 C 0.23444 0.04413 0.86081 0.0
C693 C 0.79763 0.03206 0.63338 0.0
C694 C 0.7978 0.966 0.63066 0.0
C695 C 0.76797 0.06676 0.63364 0.0
C696 C 0.73679 0.03745 0.63065 0.0
H697 H 0.82068 0.05749 0.63482 0.0
H698 H 0.76969 0.11743 0.63506 0.0
S699 S 0.72319 0.86538 0.62225 0.0
N700 N 0.7635 0.8727 0.62493 0.0
N701 N 0.70846 0.93734 0.62502 0.0
C702 C 0.73662 0.9713 0.62835 0.0
C703 C 0.76678 0.93593 0.62846 0.0
C704 C 0.26653 0.20797 0.97464 0.0
C705 C 0.29753 0.23393 0.98259 0.0
C706 C 0.23798 0.23703 0.98675 0.0
C707 C 0.23971 0.29265 0.00726 0.0
H708 H 0.26437 0.16546 0.95837 0.0
H709 H 0.21455 0.2146 0.98111 0.0
S710 S 0.31474 0.38057 0.03418 0.0
N711 N 0.32841 0.31903 0.01118 0.0
N712 N 0.27432 0.37361 0.03454 0.0
C713 C 0.2705 0.31928 0.0153 0.0
C714 C 0.2996 0.28962 0.00303 0.0
C715 C 0.26375 0.71392 0.01637 0.0
C716 C 0.29525 0.7348 0.00596 0.0
C717 C 0.23569 0.7453 0.00483 0.0
C718 C 0.23824 0.7987 0.98248 0.0
H719 H 0.2607 0.67325 0.03392 0.0
H720 H 0.21191 0.7258 0.01209 0.0
S721 S 0.31481 0.87608 0.95015 0.0
N722 N 0.32745 0.81449 0.9739 0.0
N723 N 0.27428 0.87409 0.95208 0.0
C724 C 0.26953 0.82157 0.97281 0.0
C725 C 0.29817 0.7892 0.98434 0.0
C726 C 0.73659 0.77356 0.50323 0.0
C727 C 0.73863 0.7181 0.48262 0.0
C728 C 0.76503 0.80381 0.51502 0.0
C729 C 0.79621 0.77939 0.50653 0.0
H730 H 0.71304 0.79532 0.5088 0.0
H731 H 0.76263 0.84648 0.53109 0.0
S732 S 0.81412 0.63225 0.45581 0.0
N733 N 0.77364 0.63769 0.45579 0.0
N734 N 0.82749 0.69469 0.47829 0.0
C735 C 0.79853 0.72316 0.4866 0.0
C736 C 0.76956 0.69219 0.47478 0.0
C737 C 0.79783 0.23059 0.50137 0.0
C738 C 0.79621 0.287 0.4816 0.0
C739 C 0.76917 0.20011 0.51219 0.0
C740 C 0.73813 0.22527 0.50366 0.0
H741 H 0.82126 0.20848 0.50714 0.0
H742 H 0.77127 0.15692 0.52787 0.0
S743 S 0.72118 0.37339 0.45343 0.0
N744 N 0.76164 0.36807 0.45454 0.0
N745 N 0.70739 0.31046 0.47516 0.0
C746 C 0.73619 0.28187 0.48405 0.0
C747 C 0.76539 0.31313 0.47323 0.0
C748 C 0.76338 0.70715 0.97079 0.0
C749 C 0.79453 0.73197 0.97928 0.0
C750 C 0.73492 0.73747 0.98219 0.0
C751 C 0.73692 0.79339 0.00237 0.0
H752 H 0.76105 0.66412 0.95503 0.0
H753 H 0.71137 0.71539 0.97673 0.0
S754 S 0.81231 0.88039 0.02889 0.0
N755 N 0.82575 0.81751 0.007 0.0
N756 N 0.77183 0.87471 0.02869 0.0
C757 C 0.76782 0.81976 0.0101 0.0
C758 C 0.79681 0.7887 -0.00127 0.0
C759 C 0.73954 0.27748 0.01386 0.0
C760 C 0.73828 0.28439 0.97557 0.0
C761 C 0.76668 0.24981 0.03039 0.0
C762 C 0.79334 0.22805 0.00906 0.0
H763 H 0.71973 0.29442 0.03117 0.0
H764 H 0.76704 0.24719 0.06026 0.0
S765 S 0.79984 0.22776 0.90728 0.0
N766 N 0.76438 0.26203 0.91617 0.0
N767 N 0.81574 0.21034 0.94791 0.0
C768 C 0.7919 0.2326 0.97068 0.0
C769 C 0.76423 0.26073 0.95372 0.0
C770 C 0.29822 0.23557 0.4837 0.0
C771 C 0.29615 0.29059 0.50472 0.0
C772 C 0.26982 0.20494 0.47222 0.0
C773 C 0.23861 0.22862 0.48133 0.0
H774 H 0.32181 0.21462 0.47732 0.0
H775 H 0.27227 0.16286 0.45563 0.0
S776 S 0.22048 0.37253 0.5351 0.0
N777 N 0.26097 0.36866 0.53369 0.0
N778 N 0.20721 0.31074 0.51195 0.0
C779 C 0.23622 0.28374 0.50228 0.0
C780 C 0.26515 0.31516 0.51375 0.0
C781 C 0.2994 0.7371 0.50366 0.0
C782 C 0.29736 0.79321 0.48358 0.0
C783 C 0.27098 0.70624 0.51491 0.0
C784 C 0.23978 0.73068 0.50644 0.0
H785 H 0.32296 0.71539 0.50929 0.0
H786 H 0.27339 0.66318 0.53065 0.0
S787 S 0.22175 0.87821 0.45601 0.0
N788 N 0.26224 0.87358 0.45674 0.0
N789 N 0.20843 0.81524 0.47805 0.0
C790 C 0.23743 0.78719 0.48675 0.0
C791 C 0.26638 0.81885 0.47554 0.0
C792 C 0.0269 0.28541 0.10478 0.0
C793 C 0.04211 0.30531 0.07178 0.0
C794 C 1.00279 0.2377 0.10497 0.0
C795 C 0.99283 0.20733 0.07218 0.0
H796 H 0.03373 0.30664 0.13084 0.0
H797 H 0.99141 0.22549 0.13103 0.0
S798 S 0.02593 0.23918 0.97837 0.0
N799 N 0.04574 0.28883 0.00532 0.0
N800 N 1.00109 0.19963 0.00586 0.0
C801 C 1.00819 0.22611 0.03907 0.0
C802 C 0.03253 0.27483 0.03882 0.0
C803 C 0.50434 0.73781 0.0435 0.0
C804 C 0.49179 0.71214 0.07652 0.0
C805 C 0.5283 0.78537 0.0436 0.0
C806 C 0.54113 0.81008 0.07674 0.0
H807 H 0.49541 0.72149 0.01701 0.0
H808 H 0.53711 0.80226 0.01719 0.0
S809 S 0.51674 0.75991 0.17122 0.0
N810 N 0.49406 0.71588 0.14363 0.0
N811 N 0.53925 0.80464 0.14384 0.0
C812 C 0.52882 0.78505 0.1101 0.0
C813 C 0.50428 0.73635 0.10999 0.0
C814 C 0.50561 0.77499 0.44225 0.0
C815 C 0.49398 0.8026 0.40934 0.0
C816 C 0.52924 0.72705 0.44198 0.0
C817 C 0.54263 0.70391 0.40879 0.0
H818 H 0.49613 0.78994 0.46875 0.0
H819 H 0.5373 0.7085 0.4683 0.0
S820 S 0.52109 0.76005 0.3146 0.0
N821 N 0.49796 0.80278 0.34229 0.0
N822 N 0.54255 0.7133 0.34179 0.0
C823 C 0.53133 0.73103 0.37554 0.0
C824 C 0.50713 0.7801 0.37582 0.0
C825 C 0.02963 0.22958 0.44324 0.0
C826 C 0.04245 0.20532 0.41003 0.0
C827 C 1.00584 0.27716 0.44347 0.0
C828 C 0.99348 0.30325 0.41051 0.0
H829 H 0.03827 0.2122 0.46961 0.0
H830 H 0.9968 0.293 0.46999 0.0
S831 S 0.01872 0.25706 0.31568 0.0
N832 N 0.04095 0.21179 0.34296 0.0
N833 N 0.99604 0.30068 0.34336 0.0
C834 C 1.00603 0.27959 0.37695 0.0
C835 C 0.03039 0.23084 0.37672 0.0
C836 C 1.00424 0.73202 0.94407 0.0
C837 C 0.99129 0.70709 0.91106 0.0
C838 C 0.02807 0.77983 0.94392 0.0
C839 C 0.04032 0.80554 0.91076 0.0
H840 H 0.99568 0.71498 0.97055 0.0
H841 H 0.0372 0.79621 0.97031 0.0
S842 S 1.01467 0.75764 0.81632 0.0
N843 N 0.99256 0.71262 0.84394 0.0
N844 N 0.03746 0.80185 0.84367 0.0
C845 C 0.02762 0.78122 0.87742 0.0
C846 C 1.00325 0.73225 0.87756 0.0
C847 C 0.52983 0.27699 0.9432 0.0
C848 C 0.54051 0.30562 0.91019 0.0
C849 C 0.50622 0.22879 0.94324 0.0
C850 C 0.49198 0.20643 0.91028 0.0
H851 H 0.54005 0.29128 0.96951 0.0
H852 H 0.49889 0.20933 0.96962 0.0
S853 S 0.51055 0.26597 0.81601 0.0
N854 N 0.53448 0.30801 0.84333 0.0
N855 N 0.49002 0.21802 0.84345 0.0
C856 C 0.50227 0.23469 0.87695 0.0
C857 C 0.52639 0.28404 0.87691 0.0
C858 C 0.53233 0.23419 0.60576 0.0
C859 C 0.5417 0.2024 0.57326 0.0
C860 C 0.50843 0.28213 0.60531 0.0
C861 C 0.49288 0.30094 0.57229 0.0
H862 H 0.54398 0.22286 0.63182 0.0
H863 H 0.50207 0.30447 0.63118 0.0
S864 S 0.50736 0.23073 0.4796 0.0
N865 N 0.53241 0.19207 0.50722 0.0
N866 N 0.48821 0.28176 0.50617 0.0
C867 C 0.50186 0.26904 0.53962 0.0
C868 C 0.52596 0.22002 0.54016 0.0
C869 C 0.02859 0.72815 0.60662 0.0
C870 C 0.04389 0.70844 0.57364 0.0
C871 C 1.00419 0.77529 0.60673 0.0
C872 C 0.99405 0.80542 0.5739 0.0
H873 H 0.03552 0.70707 0.63269 0.0
H874 H 0.99273 0.78725 0.63277 0.0
S875 S 0.02741 0.77419 0.48014 0.0
N876 N 0.0474 0.72502 0.50717 0.0
N877 N 1.00244 0.81325 0.50759 0.0
C878 C 1.0096 0.78699 0.54086 0.0
C879 C 0.03415 0.73876 0.54067 0.0
loop_
_geom_bond_atom_site_label_1
_geom_bond_atom_site_label_2
_geom_bond_distance
_geom_bond_site_symmetry_2
_ccdc_geom_bond_type
Sc0 O3 2.025 . S
Sc0 O10 2.105 . S
Sc0 O13 2.105 . S
Sc0 O16 2.105 . S
Sc0 O19 2.105 . S
Sc1 O3 2.025 . S
Sc1 O11 2.105 . S
Sc1 O15 2.105 . S
Sc1 O17 2.105 . S
Sc1 O21 2.105 . S
Sc2 O3 2.025 . S
Sc2 O12 2.105 . S
Sc2 O14 2.105 . S
Sc2 O18 2.105 . S
Sc2 O20 2.105 . S
O3 Sc0 2.025 . S
O3 Sc1 2.025 . S
O3 Sc2 2.025 . S
C4 O10 1.268 . S
C4 O20 1.268 . S
C5 O11 1.268 . S
C5 O19 1.268 . S
C6 O12 1.268 . S
C6 O21 1.268 . S
C7 O13 1.268 . S
C7 O17 1.268 . S
C8 O14 1.268 . S
C8 O16 1.268 . S
C9 O15 1.268 . S
C9 O18 1.268 . S
O10 Sc0 2.105 . S
O10 C4 1.268 . S
O11 Sc1 2.105 . S
O11 C5 1.268 . S
O12 Sc2 2.105 . S
O12 C6 1.268 . S
O13 Sc0 2.105 . S
O13 C7 1.268 . S
O14 Sc2 2.105 . S
O14 C8 1.268 . S
O15 Sc1 2.105 . S
O15 C9 1.268 . S
O16 Sc0 2.105 . S
O16 C8 1.268 . S
O17 Sc1 2.105 . S
O17 C7 1.268 . S
O18 Sc2 2.105 . S
O18 C9 1.268 . S
O19 Sc0 2.105 . S
O19 C5 1.268 . S
O20 Sc2 2.105 . S
O20 C4 1.268 . S
O21 Sc1 2.105 . S
O21 C6 1.268 . S
Sc22 O25 2.025 . S
Sc22 O32 2.105 . S
Sc22 O35 2.105 . S
Sc22 O38 2.105 . S
Sc22 O41 2.105 . S
Sc23 O25 2.025 . S
Sc23 O33 2.105 . S
Sc23 O37 2.105 . S
Sc23 O39 2.105 . S
Sc23 O43 2.105 . S
Sc24 O25 2.025 . S
Sc24 O34 2.105 . S
Sc24 O36 2.105 . S
Sc24 O40 2.105 . S
Sc24 O42 2.105 . S
O25 Sc22 2.025 . S
O25 Sc23 2.025 . S
O25 Sc24 2.025 . S
C26 O32 1.268 . S
C26 O42 1.268 . S
C27 O33 1.268 . S
C27 O41 1.268 . S
C28 O34 1.268 . S
C28 O43 1.268 . S
C29 O35 1.268 . S
C29 O39 1.268 . S
C30 O36 1.268 . S
C30 O38 1.268 . S
C31 O37 1.268 . S
C31 O40 1.268 . S
O32 Sc22 2.105 . S
O32 C26 1.268 . S
O33 Sc23 2.105 . S
O33 C27 1.268 . S
O34 Sc24 2.105 . S
O34 C28 1.268 . S
O35 Sc22 2.105 . S
O35 C29 1.268 . S
O36 Sc24 2.105 . S
O36 C30 1.268 . S
O37 Sc23 2.105 . S
O37 C31 1.268 . S
O38 Sc22 2.105 . S
O38 C30 1.268 . S
O39 Sc23 2.105 . S
O39 C29 1.268 . S
O40 Sc24 2.105 . S
O40 C31 1.268 . S
O41 Sc22 2.105 . S
O41 C27 1.268 . S
O42 Sc24 2.105 . S
O42 C26 1.268 . S
O43 Sc23 2.105 . S
O43 C28 1.268 . S
Sc44 O47 2.025 . S
Sc44 O54 2.105 . S
Sc44 O57 2.105 . S
Sc44 O60 2.105 . S
Sc44 O63 2.105 . S
Sc45 O47 2.025 . S
Sc45 O55 2.105 . S
Sc45 O59 2.105 . S
Sc45 O61 2.105 . S
Sc45 O65 2.105 . S
Sc46 O47 2.025 . S
Sc46 O56 2.105 . S
Sc46 O58 2.105 . S
Sc46 O62 2.105 . S
Sc46 O64 2.105 . S
O47 Sc44 2.025 . S
O47 Sc45 2.025 . S
O47 Sc46 2.025 . S
C48 O54 1.268 . S
C48 O64 1.268 . S
C49 O55 1.268 . S
C49 O63 1.268 . S
C50 O56 1.268 . S
C50 O65 1.268 . S
C51 O57 1.268 . S
C51 O61 1.268 . S
C52 O58 1.268 . S
C52 O60 1.268 . S
C53 O59 1.268 . S
C53 O62 1.268 . S
O54 Sc44 2.105 . S
O54 C48 1.268 . S
O55 Sc45 2.105 . S
O55 C49 1.268 . S
O56 Sc46 2.105 . S
O56 C50 1.268 . S
O57 Sc44 2.105 . S
O57 C51 1.268 . S
O58 Sc46 2.105 . S
O58 C52 1.268 . S
O59 Sc45 2.105 . S
O59 C53 1.268 . S
O60 Sc44 2.105 . S
O60 C52 1.268 . S
O61 Sc45 2.105 . S
O61 C51 1.268 . S
O62 Sc46 2.105 . S
O62 C53 1.268 . S
O63 Sc44 2.105 . S
O63 C49 1.268 . S
O64 Sc46 2.105 . S
O64 C48 1.268 . S
O65 Sc45 2.105 . S
O65 C50 1.268 . S
Sc66 O69 2.025 . S
Sc66 O76 2.105 . S
Sc66 O79 2.105 . S
Sc66 O82 2.105 . S
Sc66 O85 2.105 . S
Sc67 O69 2.025 . S
Sc67 O77 2.105 . S
Sc67 O81 2.105 . S
Sc67 O83 2.105 . S
Sc67 O87 2.105 . S
Sc68 O69 2.025 . S
Sc68 O78 2.105 . S
Sc68 O80 2.105 . S
Sc68 O84 2.105 . S
Sc68 O86 2.105 . S
O69 Sc66 2.025 . S
O69 Sc67 2.025 . S
O69 Sc68 2.025 . S
C70 O76 1.268 . S
C70 O86 1.268 . S
C71 O77 1.268 . S
C71 O85 1.268 . S
C72 O78 1.268 . S
C72 O87 1.268 . S
C73 O79 1.268 . S
C73 O83 1.268 . S
C74 O80 1.268 . S
C74 O82 1.268 . S
C75 O81 1.268 . S
C75 O84 1.268 . S
O76 Sc66 2.105 . S
O76 C70 1.268 . S
O77 Sc67 2.105 . S
O77 C71 1.268 . S
O78 Sc68 2.105 . S
O78 C72 1.268 . S
O79 Sc66 2.105 . S
O79 C73 1.268 . S
O80 Sc68 2.105 . S
O80 C74 1.268 . S
O81 Sc67 2.105 . S
O81 C75 1.268 . S
O82 Sc66 2.105 . S
O82 C74 1.268 . S
O83 Sc67 2.105 . S
O83 C73 1.268 . S
O84 Sc68 2.105 . S
O84 C75 1.268 . S
O85 Sc66 2.105 . S
O85 C71 1.268 . S
O86 Sc68 2.105 . S
O86 C70 1.268 . S
O87 Sc67 2.105 . S
O87 C72 1.268 . S
Sc88 O91 2.025 . S
Sc88 O98 2.105 . S
Sc88 O101 2.105 . S
Sc88 O104 2.105 . S
Sc88 O107 2.105 . S
Sc89 O91 2.025 . S
Sc89 O99 2.105 . S
Sc89 O103 2.105 . S
Sc89 O105 2.105 . S
Sc89 O109 2.105 . S
Sc90 O91 2.025 . S
Sc90 O100 2.105 . S
Sc90 O102 2.105 . S
Sc90 O106 2.105 . S
Sc90 O108 2.105 . S
O91 Sc88 2.025 . S
O91 Sc89 2.025 . S
O91 Sc90 2.025 . S
C92 O98 1.268 . S
C92 O108 1.268 . S
C93 O99 1.268 . S
C93 O107 1.268 . S
C94 O100 1.268 . S
C94 O109 1.268 . S
C95 O101 1.268 . S
C95 O105 1.268 . S
C96 O102 1.268 . S
C96 O104 1.268 . S
C97 O103 1.268 . S
C97 O106 1.268 . S
O98 Sc88 2.105 . S
O98 C92 1.268 . S
O99 Sc89 2.105 . S
O99 C93 1.268 . S
O100 Sc90 2.105 . S
O100 C94 1.268 . S
O101 Sc88 2.105 . S
O101 C95 1.268 . S
O102 Sc90 2.105 . S
O102 C96 1.268 . S
O103 Sc89 2.105 . S
O103 C97 1.268 . S
O104 Sc88 2.105 . S
O104 C96 1.268 . S
O105 Sc89 2.105 . S
O105 C95 1.268 . S
O106 Sc90 2.105 . S
O106 C97 1.268 . S
O107 Sc88 2.105 . S
O107 C93 1.268 . S
O108 Sc90 2.105 . S
O108 C92 1.268 . S
O109 Sc89 2.105 . S
O109 C94 1.268 . S
Sc110 O113 2.025 . S
Sc110 O120 2.105 . S
Sc110 O123 2.105 . S
Sc110 O126 2.105 . S
Sc110 O129 2.105 . S
Sc111 O113 2.025 . S
Sc111 O121 2.105 . S
Sc111 O125 2.105 . S
Sc111 O127 2.105 . S
Sc111 O131 2.105 . S
Sc112 O113 2.025 . S
Sc112 O122 2.105 . S
Sc112 O124 2.105 . S
Sc112 O128 2.105 . S
Sc112 O130 2.105 . S
O113 Sc110 2.025 . S
O113 Sc111 2.025 . S
O113 Sc112 2.025 . S
C114 O120 1.268 . S
C114 O130 1.268 . S
C115 O121 1.268 . S
C115 O129 1.268 . S
C116 O122 1.268 . S
C116 O131 1.268 . S
C117 O123 1.268 . S
C117 O127 1.268 . S
C118 O124 1.268 . S
C118 O126 1.268 . S
C119 O125 1.268 . S
C119 O128 1.268 . S
O120 Sc110 2.105 . S
O120 C114 1.268 . S
O121 Sc111 2.105 . S
O121 C115 1.268 . S
O122 Sc112 2.105 . S
O122 C116 1.268 . S
O123 Sc110 2.105 . S
O123 C117 1.268 . S
O124 Sc112 2.105 . S
O124 C118 1.268 . S
O125 Sc111 2.105 . S
O125 C119 1.268 . S
O126 Sc110 2.105 . S
O126 C118 1.268 . S
O127 Sc111 2.105 . S
O127 C117 1.268 . S
O128 Sc112 2.105 . S
O128 C119 1.268 . S
O129 Sc110 2.105 . S
O129 C115 1.268 . S
O130 Sc112 2.105 . S
O130 C114 1.268 . S
O131 Sc111 2.105 . S
O131 C116 1.268 . S
Sc132 O135 2.025 . S
Sc132 O142 2.105 . S
Sc132 O145 2.105 . S
Sc132 O148 2.105 . S
Sc132 O151 2.105 . S
Sc133 O135 2.025 . S
Sc133 O143 2.105 . S
Sc133 O147 2.105 . S
Sc133 O149 2.105 . S
Sc133 O153 2.105 . S
Sc134 O135 2.025 . S
Sc134 O144 2.105 . S
Sc134 O146 2.105 . S
Sc134 O150 2.105 . S
Sc134 O152 2.105 . S
O135 Sc132 2.025 . S
O135 Sc133 2.025 . S
O135 Sc134 2.025 . S
C136 O142 1.268 . S
C136 O152 1.268 . S
C137 O143 1.268 . S
C137 O151 1.268 . S
C138 O144 1.268 . S
C138 O153 1.268 . S
C139 O145 1.268 . S
C139 O149 1.268 . S
C140 O146 1.268 . S
C140 O148 1.268 . S
C141 O147 1.268 . S
C141 O150 1.268 . S
O142 Sc132 2.105 . S
O142 C136 1.268 . S
O143 Sc133 2.105 . S
O143 C137 1.268 . S
O144 Sc134 2.105 . S
O144 C138 1.268 . S
O145 Sc132 2.105 . S
O145 C139 1.268 . S
O146 Sc134 2.105 . S
O146 C140 1.268 . S
O147 Sc133 2.105 . S
O147 C141 1.268 . S
O148 Sc132 2.105 . S
O148 C140 1.268 . S
O149 Sc133 2.105 . S
O149 C139 1.268 . S
O150 Sc134 2.105 . S
O150 C141 1.268 . S
O151 Sc132 2.105 . S
O151 C137 1.268 . S
O152 Sc134 2.105 . S
O152 C136 1.268 . S
O153 Sc133 2.105 . S
O153 C138 1.268 . S
Sc154 O157 2.025 . S
Sc154 O164 2.105 . S
Sc154 O167 2.105 . S
Sc154 O170 2.105 . S
Sc154 O173 2.105 . S
Sc155 O157 2.025 . S
Sc155 O165 2.105 . S
Sc155 O169 2.105 . S
Sc155 O171 2.105 . S
Sc155 O175 2.105 . S
Sc156 O157 2.025 . S
Sc156 O166 2.105 . S
Sc156 O168 2.105 . S
Sc156 O172 2.105 . S
Sc156 O174 2.105 . S
O157 Sc154 2.025 . S
O157 Sc155 2.025 . S
O157 Sc156 2.025 . S
C158 O164 1.268 . S
C158 O174 1.268 . S
C159 O165 1.268 . S
C159 O173 1.268 . S
C160 O166 1.268 . S
C160 O175 1.268 . S
C161 O167 1.268 . S
C161 O171 1.268 . S
C162 O168 1.268 . S
C162 O170 1.268 . S
C163 O169 1.268 . S
C163 O172 1.268 . S
O164 Sc154 2.105 . S
O164 C158 1.268 . S
O165 Sc155 2.105 . S
O165 C159 1.268 . S
O166 Sc156 2.105 . S
O166 C160 1.268 . S
O167 Sc154 2.105 . S
O167 C161 1.268 . S
O168 Sc156 2.105 . S
O168 C162 1.268 . S
O169 Sc155 2.105 . S
O169 C163 1.268 . S
O170 Sc154 2.105 . S
O170 C162 1.268 . S
O171 Sc155 2.105 . S
O171 C161 1.268 . S
O172 Sc156 2.105 . S
O172 C163 1.268 . S
O173 Sc154 2.105 . S
O173 C159 1.268 . S
O174 Sc156 2.105 . S
O174 C158 1.268 . S
O175 Sc155 2.105 . S
O175 C160 1.268 . S
Sc176 O179 2.025 . S
Sc176 O186 2.105 . S
Sc176 O189 2.105 . S
Sc176 O192 2.105 . S
Sc176 O195 2.105 . S
Sc177 O179 2.025 . S
Sc177 O187 2.105 . S
Sc177 O191 2.105 . S
Sc177 O193 2.105 . S
Sc177 O197 2.105 . S
Sc178 O179 2.025 . S
Sc178 O188 2.105 . S
Sc178 O190 2.105 . S
Sc178 O194 2.105 . S
Sc178 O196 2.105 . S
O179 Sc176 2.025 . S
O179 Sc177 2.025 . S
O179 Sc178 2.025 . S
C180 O186 1.268 . S
C180 O196 1.268 . S
C181 O187 1.268 . S
C181 O195 1.268 . S
C182 O188 1.268 . S
C182 O197 1.268 . S
C183 O189 1.268 . S
C183 O193 1.268 . S
C184 O190 1.268 . S
C184 O192 1.268 . S
C185 O191 1.268 . S
C185 O194 1.268 . S
O186 Sc176 2.105 . S
O186 C180 1.268 . S
O187 Sc177 2.105 . S
O187 C181 1.268 . S
O188 Sc178 2.105 . S
O188 C182 1.268 . S
O189 Sc176 2.105 . S
O189 C183 1.268 . S
O190 Sc178 2.105 . S
O190 C184 1.268 . S
O191 Sc177 2.105 . S
O191 C185 1.268 . S
O192 Sc176 2.105 . S
O192 C184 1.268 . S
O193 Sc177 2.105 . S
O193 C183 1.268 . S
O194 Sc178 2.105 . S
O194 C185 1.268 . S
O195 Sc176 2.105 . S
O195 C181 1.268 . S
O196 Sc178 2.105 . S
O196 C180 1.268 . S
O197 Sc177 2.105 . S
O197 C182 1.268 . S
Sc198 O201 2.025 . S
Sc198 O208 2.105 . S
Sc198 O211 2.105 . S
Sc198 O214 2.105 . S
Sc198 O217 2.105 . S
Sc199 O201 2.025 . S
Sc199 O209 2.105 . S
Sc199 O213 2.105 . S
Sc199 O215 2.105 . S
Sc199 O219 2.105 . S
Sc200 O201 2.025 . S
Sc200 O210 2.105 . S
Sc200 O212 2.105 . S
Sc200 O216 2.105 . S
Sc200 O218 2.105 . S
O201 Sc198 2.025 . S
O201 Sc199 2.025 . S
O201 Sc200 2.025 . S
C202 O208 1.268 . S
C202 O218 1.268 . S
C203 O209 1.268 . S
C203 O217 1.268 . S
C204 O210 1.268 . S
C204 O219 1.268 . S
C205 O211 1.268 . S
C205 O215 1.268 . S
C206 O212 1.268 . S
C206 O214 1.268 . S
C207 O213 1.268 . S
C207 O216 1.268 . S
O208 Sc198 2.105 . S
O208 C202 1.268 . S
O209 Sc199 2.105 . S
O209 C203 1.268 . S
O210 Sc200 2.105 . S
O210 C204 1.268 . S
O211 Sc198 2.105 . S
O211 C205 1.268 . S
O212 Sc200 2.105 . S
O212 C206 1.268 . S
O213 Sc199 2.105 . S
O213 C207 1.268 . S
O214 Sc198 2.105 . S
O214 C206 1.268 . S
O215 Sc199 2.105 . S
O215 C205 1.268 . S
O216 Sc200 2.105 . S
O216 C207 1.268 . S
O217 Sc198 2.105 . S
O217 C203 1.268 . S
O218 Sc200 2.105 . S
O218 C202 1.268 . S
O219 Sc199 2.105 . S
O219 C204 1.268 . S
Sc220 O223 2.025 . S
Sc220 O230 2.105 . S
Sc220 O233 2.105 . S
Sc220 O236 2.105 . S
Sc220 O239 2.105 . S
Sc221 O223 2.025 . S
Sc221 O231 2.105 . S
Sc221 O235 2.105 . S
Sc221 O237 2.105 . S
Sc221 O241 2.105 . S
Sc222 O223 2.025 . S
Sc222 O232 2.105 . S
Sc222 O234 2.105 . S
Sc222 O238 2.105 . S
Sc222 O240 2.105 . S
O223 Sc220 2.025 . S
O223 Sc221 2.025 . S
O223 Sc222 2.025 . S
C224 O230 1.268 . S
C224 O240 1.268 . S
C225 O231 1.268 . S
C225 O239 1.268 . S
C226 O232 1.268 . S
C226 O241 1.268 . S
C227 O233 1.268 . S
C227 O237 1.268 . S
C228 O234 1.268 . S
C228 O236 1.268 . S
C229 O235 1.268 . S
C229 O238 1.268 . S
O230 Sc220 2.105 . S
O230 C224 1.268 . S
O231 Sc221 2.105 . S
O231 C225 1.268 . S
O232 Sc222 2.105 . S
O232 C226 1.268 . S
O233 Sc220 2.105 . S
O233 C227 1.268 . S
O234 Sc222 2.105 . S
O234 C228 1.268 . S
O235 Sc221 2.105 . S
O235 C229 1.268 . S
O236 Sc220 2.105 . S
O236 C228 1.268 . S
O237 Sc221 2.105 . S
O237 C227 1.268 . S
O238 Sc222 2.105 . S
O238 C229 1.268 . S
O239 Sc220 2.105 . S
O239 C225 1.268 . S
O240 Sc222 2.105 . S
O240 C224 1.268 . S
O241 Sc221 2.105 . S
O241 C226 1.268 . S
Sc242 O245 2.025 . S
Sc242 O252 2.105 . S
Sc242 O255 2.105 . S
Sc242 O258 2.105 . S
Sc242 O261 2.105 . S
Sc243 O245 2.025 . S
Sc243 O253 2.105 . S
Sc243 O257 2.105 . S
Sc243 O259 2.105 . S
Sc243 O263 2.105 . S
Sc244 O245 2.025 . S
Sc244 O254 2.105 . S
Sc244 O256 2.105 . S
Sc244 O260 2.105 . S
Sc244 O262 2.105 . S
O245 Sc242 2.025 . S
O245 Sc243 2.025 . S
O245 Sc244 2.025 . S
C246 O252 1.268 . S
C246 O262 1.268 . S
C247 O253 1.268 . S
C247 O261 1.268 . S
C248 O254 1.268 . S
C248 O263 1.268 . S
C249 O255 1.268 . S
C249 O259 1.268 . S
C250 O256 1.268 . S
C250 O258 1.268 . S
C251 O257 1.268 . S
C251 O260 1.268 . S
O252 Sc242 2.105 . S
O252 C246 1.268 . S
O253 Sc243 2.105 . S
O253 C247 1.268 . S
O254 Sc244 2.105 . S
O254 C248 1.268 . S
O255 Sc242 2.105 . S
O255 C249 1.268 . S
O256 Sc244 2.105 . S
O256 C250 1.268 . S
O257 Sc243 2.105 . S
O257 C251 1.268 . S
O258 Sc242 2.105 . S
O258 C250 1.268 . S
O259 Sc243 2.105 . S
O259 C249 1.268 . S
O260 Sc244 2.105 . S
O260 C251 1.268 . S
O261 Sc242 2.105 . S
O261 C247 1.268 . S
O262 Sc244 2.105 . S
O262 C246 1.268 . S
O263 Sc243 2.105 . S
O263 C248 1.268 . S
Sc264 O267 2.025 . S
Sc264 O274 2.105 . S
Sc264 O277 2.105 . S
Sc264 O280 2.105 . S
Sc264 O283 2.105 . S
Sc265 O267 2.025 . S
Sc265 O275 2.105 . S
Sc265 O279 2.105 . S
Sc265 O281 2.105 . S
Sc265 O285 2.105 . S
Sc266 O267 2.025 . S
Sc266 O276 2.105 . S
Sc266 O278 2.105 . S
Sc266 O282 2.105 . S
Sc266 O284 2.105 . S
O267 Sc264 2.025 . S
O267 Sc265 2.025 . S
O267 Sc266 2.025 . S
C268 O274 1.268 . S
C268 O284 1.268 . S
C269 O275 1.268 . S
C269 O283 1.268 . S
C270 O276 1.268 . S
C270 O285 1.268 . S
C271 O277 1.268 . S
C271 O281 1.268 . S
C272 O278 1.268 . S
C272 O280 1.268 . S
C273 O279 1.268 . S
C273 O282 1.268 . S
O274 Sc264 2.105 . S
O274 C268 1.268 . S
O275 Sc265 2.105 . S
O275 C269 1.268 . S
O276 Sc266 2.105 . S
O276 C270 1.268 . S
O277 Sc264 2.105 . S
O277 C271 1.268 . S
O278 Sc266 2.105 . S
O278 C272 1.268 . S
O279 Sc265 2.105 . S
O279 C273 1.268 . S
O280 Sc264 2.105 . S
O280 C272 1.268 . S
O281 Sc265 2.105 . S
O281 C271 1.268 . S
O282 Sc266 2.105 . S
O282 C273 1.268 . S
O283 Sc264 2.105 . S
O283 C269 1.268 . S
O284 Sc266 2.105 . S
O284 C268 1.268 . S
O285 Sc265 2.105 . S
O285 C270 1.268 . S
Sc286 O289 2.025 . S
Sc286 O296 2.105 . S
Sc286 O299 2.105 . S
Sc286 O302 2.105 . S
Sc286 O305 2.105 . S
Sc287 O289 2.025 . S
Sc287 O297 2.105 . S
Sc287 O301 2.105 . S
Sc287 O303 2.105 . S
Sc287 O307 2.105 . S
Sc288 O289 2.025 . S
Sc288 O298 2.105 . S
Sc288 O300 2.105 . S
Sc288 O304 2.105 . S
Sc288 O306 2.105 . S
O289 Sc286 2.025 . S
O289 Sc287 2.025 . S
O289 Sc288 2.025 . S
C290 O296 1.268 . S
C290 O306 1.268 . S
C291 O297 1.268 . S
C291 O305 1.268 . S
C292 O298 1.268 . S
C292 O307 1.268 . S
C293 O299 1.268 . S
C293 O303 1.268 . S
C294 O300 1.268 . S
C294 O302 1.268 . S
C295 O301 1.268 . S
C295 O304 1.268 . S
O296 Sc286 2.105 . S
O296 C290 1.268 . S
O297 Sc287 2.105 . S
O297 C291 1.268 . S
O298 Sc288 2.105 . S
O298 C292 1.268 . S
O299 Sc286 2.105 . S
O299 C293 1.268 . S
O300 Sc288 2.105 . S
O300 C294 1.268 . S
O301 Sc287 2.105 . S
O301 C295 1.268 . S
O302 Sc286 2.105 . S
O302 C294 1.268 . S
O303 Sc287 2.105 . S
O303 C293 1.268 . S
O304 Sc288 2.105 . S
O304 C295 1.268 . S
O305 Sc286 2.105 . S
O305 C291 1.268 . S
O306 Sc288 2.105 . S
O306 C290 1.268 . S
O307 Sc287 2.105 . S
O307 C292 1.268 . S
Sc308 O311 2.025 . S
Sc308 O318 2.105 . S
Sc308 O321 2.105 . S
Sc308 O324 2.105 . S
Sc308 O327 2.105 . S
Sc309 O311 2.025 . S
Sc309 O319 2.105 . S
Sc309 O323 2.105 . S
Sc309 O325 2.105 . S
Sc309 O329 2.105 . S
Sc310 O311 2.025 . S
Sc310 O320 2.105 . S
Sc310 O322 2.105 . S
Sc310 O326 2.105 . S
Sc310 O328 2.105 . S
O311 Sc308 2.025 . S
O311 Sc309 2.025 . S
O311 Sc310 2.025 . S
C312 O318 1.268 . S
C312 O328 1.268 . S
C313 O319 1.268 . S
C313 O327 1.268 . S
C314 O320 1.268 . S
C314 O329 1.268 . S
C315 O321 1.268 . S
C315 O325 1.268 . S
C316 O322 1.268 . S
C316 O324 1.268 . S
C317 O323 1.268 . S
C317 O326 1.268 . S
O318 Sc308 2.105 . S
O318 C312 1.268 . S
O319 Sc309 2.105 . S
O319 C313 1.268 . S
O320 Sc310 2.105 . S
O320 C314 1.268 . S
O321 Sc308 2.105 . S
O321 C315 1.268 . S
O322 Sc310 2.105 . S
O322 C316 1.268 . S
O323 Sc309 2.105 . S
O323 C317 1.268 . S
O324 Sc308 2.105 . S
O324 C316 1.268 . S
O325 Sc309 2.105 . S
O325 C315 1.268 . S
O326 Sc310 2.105 . S
O326 C317 1.268 . S
O327 Sc308 2.105 . S
O327 C313 1.268 . S
O328 Sc310 2.105 . S
O328 C312 1.268 . S
O329 Sc309 2.105 . S
O329 C314 1.268 . S
Sc330 O333 2.025 . S
Sc330 O340 2.105 . S
Sc330 O343 2.105 . S
Sc330 O346 2.105 . S
Sc330 O349 2.105 . S
Sc331 O333 2.025 . S
Sc331 O341 2.105 . S
Sc331 O345 2.105 . S
Sc331 O347 2.105 . S
Sc331 O351 2.105 . S
Sc332 O333 2.025 . S
Sc332 O342 2.105 . S
Sc332 O344 2.105 . S
Sc332 O348 2.105 . S
Sc332 O350 2.105 . S
O333 Sc330 2.025 . S
O333 Sc331 2.025 . S
O333 Sc332 2.025 . S
C334 O340 1.268 . S
C334 O350 1.268 . S
C335 O341 1.268 . S
C335 O349 1.268 . S
C336 O342 1.268 . S
C336 O351 1.268 . S
C337 O343 1.268 . S
C337 O347 1.268 . S
C338 O344 1.268 . S
C338 O346 1.268 . S
C339 O345 1.268 . S
C339 O348 1.268 . S
O340 Sc330 2.105 . S
O340 C334 1.268 . S
O341 Sc331 2.105 . S
O341 C335 1.268 . S
O342 Sc332 2.105 . S
O342 C336 1.268 . S
O343 Sc330 2.105 . S
O343 C337 1.268 . S
O344 Sc332 2.105 . S
O344 C338 1.268 . S
O345 Sc331 2.105 . S
O345 C339 1.268 . S
O346 Sc330 2.105 . S
O346 C338 1.268 . S
O347 Sc331 2.105 . S
O347 C337 1.268 . S
O348 Sc332 2.105 . S
O348 C339 1.268 . S
O349 Sc330 2.105 . S
O349 C335 1.268 . S
O350 Sc332 2.105 . S
O350 C334 1.268 . S
O351 Sc331 2.105 . S
O351 C336 1.268 . S
C352 C353 1.369 . S
C352 C354 1.419 . S
C352 H356 0.930 . S
C353 C352 1.369 . S
C353 C362 1.429 . S
C354 C352 1.419 . S
C354 C355 1.363 1_544 S
C354 H357 0.929 1_554 S
C355 C354 1.363 1_566 S
C355 C361 1.430 1_556 S
H356 C352 0.930 . S
H357 C354 0.929 1_556 S
S358 N359 1.613 1_565 S
S358 N360 1.610 . S
N359 S358 1.613 1_545 S
N359 C362 1.350 . S
N360 S358 1.610 . S
N360 C361 1.356 . S
C361 C355 1.430 1_554 S
C361 N360 1.356 . S
C361 C362 1.427 1_565 S
C362 C353 1.429 . S
C362 N359 1.350 . S
C362 C361 1.427 1_545 S
C363 C364 1.369 1_565 S
C363 C365 1.419 1_556 S
C363 H367 0.930 . S
C364 C363 1.369 1_545 S
C364 C373 1.429 1_556 S
C365 C363 1.419 1_554 S
C365 C366 1.363 . S
C365 H368 0.929 . S
C366 C365 1.363 . S
C366 C372 1.428 . S
H367 C363 0.930 . S
H368 C365 0.929 . S
S369 N370 1.613 . S
S369 N371 1.610 1_545 S
N370 S369 1.613 . S
N370 C373 1.350 . S
N371 S369 1.610 1_565 S
N371 C372 1.351 . S
C372 C366 1.428 . S
C372 N371 1.351 . S
C372 C373 1.434 1_565 S
C373 C364 1.429 1_554 S
C373 N370 1.350 . S
C373 C372 1.434 1_545 S
C374 C375 1.369 1_565 S
C374 C376 1.419 . S
C374 H378 0.930 1_565 S
C375 C374 1.369 1_545 S
C375 C384 1.429 1_545 S
C376 C374 1.419 . S
C376 C377 1.363 . S
C376 H379 0.929 . S
C377 C376 1.363 . S
C377 C383 1.428 . S
H378 C374 0.930 1_545 S
H379 C376 0.929 . S
S380 N381 1.613 . S
S380 N382 1.610 . S
N381 S380 1.613 . S
N381 C384 1.350 . S
N382 S380 1.610 . S
N382 C383 1.351 . S
C383 C377 1.428 . S
C383 N382 1.351 . S
C383 C384 1.434 . S
C384 C375 1.429 1_565 S
C384 N381 1.350 . S
C384 C383 1.434 . S
C385 C386 1.369 1_545 S
C385 C387 1.419 . S
C385 H389 0.936 . S
C386 C385 1.369 1_565 S
C386 C395 1.429 1_565 S
C387 C385 1.419 . S
C387 C388 1.363 . S
C387 H390 0.929 . S
C388 C387 1.363 . S
C388 C394 1.428 . S
H389 C385 0.936 . S
H390 C387 0.929 . S
S391 N392 1.614 1_545 S
S391 N393 1.610 . S
N392 S391 1.614 1_565 S
N392 C395 1.350 1_565 S
N393 S391 1.610 . S
N393 C394 1.351 . S
C394 C388 1.428 . S
C394 N393 1.351 . S
C394 C395 1.434 . S
C395 C386 1.429 1_545 S
C395 N392 1.350 1_545 S
C395 C394 1.434 . S
C396 C397 1.369 1_566 S
C396 C398 1.419 . S
C396 H400 0.930 1_565 S
C397 C396 1.369 1_544 S
C397 C406 1.429 1_545 S
C398 C396 1.419 . S
C398 C399 1.363 . S
C398 H401 0.929 . S
C399 C398 1.363 . S
C399 C405 1.428 . S
H400 C396 0.930 1_545 S
H401 C398 0.929 . S
S402 N403 1.613 . S
S402 N404 1.610 1_554 S
N403 S402 1.613 . S
N403 C406 1.350 . S
N404 S402 1.610 1_556 S
N404 C405 1.351 . S
C405 C399 1.428 . S
C405 N404 1.351 . S
C405 C406 1.434 1_556 S
C406 C397 1.429 1_565 S
C406 N403 1.350 . S
C406 C405 1.434 1_554 S
C407 C408 1.369 . S
C407 C409 1.419 . S
C407 H411 0.930 . S
C408 C407 1.369 . S
C408 C417 1.429 . S
C409 C407 1.419 . S
C409 C410 1.363 1_546 S
C409 H412 0.929 1_545 S
C410 C409 1.363 1_564 S
C410 C416 1.429 1_565 S
H411 C407 0.930 . S
H412 C409 0.929 1_565 S
S413 N414 1.613 1_554 S
S413 N415 1.610 . S
N414 S413 1.613 1_556 S
N414 C417 1.350 . S
N415 S413 1.610 . S
N415 C416 1.355 . S
C416 C410 1.429 1_545 S
C416 N415 1.355 . S
C416 C417 1.429 1_554 S
C417 C408 1.429 . S
C417 N414 1.350 . S
C417 C416 1.429 1_556 S
C418 C419 1.369 1_545 S
C418 C420 1.419 . S
C418 H422 0.930 1_545 S
C419 C418 1.369 1_565 S
C419 C428 1.429 1_565 S
C420 C418 1.419 . S
C420 C421 1.363 . S
C420 H423 0.929 . S
C421 C420 1.363 . S
C421 C427 1.428 . S
H422 C418 0.930 1_565 S
H423 C420 0.929 . S
S424 N425 1.613 . S
S424 N426 1.610 . S
N425 S424 1.613 . S
N425 C428 1.350 . S
N426 S424 1.610 . S
N426 C427 1.351 . S
C427 C421 1.428 . S
C427 N426 1.351 . S
C427 C428 1.434 . S
C428 C419 1.429 1_545 S
C428 N425 1.350 . S
C428 C427 1.434 . S
C429 C430 1.369 . S
C429 C431 1.419 . S
C429 H433 0.930 . S
C430 C429 1.369 . S
C430 C439 1.429 . S
C431 C429 1.419 . S
C431 C432 1.363 1_565 S
C431 H434 0.929 . S
C432 C431 1.363 1_545 S
C432 C438 1.428 . S
H433 C429 0.930 . S
H434 C431 0.929 . S
S435 N436 1.613 1_545 S
S435 N437 1.610 . S
N436 S435 1.613 1_565 S
N436 C439 1.350 . S
N437 S435 1.610 . S
N437 C438 1.351 . S
C438 C432 1.428 . S
C438 N437 1.351 . S
C438 C439 1.434 1_545 S
C439 C430 1.429 . S
C439 N436 1.350 . S
C439 C438 1.434 1_565 S
C440 C441 1.369 1_554 S
C440 C442 1.419 . S
C440 H444 0.930 1_554 S
C441 C440 1.369 1_556 S
C441 C450 1.429 1_556 S
C442 C440 1.419 . S
C442 C443 1.363 . S
C442 H445 0.929 . S
C443 C442 1.363 . S
C443 C449 1.428 . S
H444 C440 0.930 1_556 S
H445 C442 0.929 . S
S446 N447 1.613 . S
S446 N448 1.610 . S
N447 S446 1.613 . S
N447 C450 1.350 . S
N448 S446 1.610 . S
N448 C449 1.351 . S
C449 C443 1.428 . S
C449 N448 1.351 . S
C449 C450 1.434 . S
C450 C441 1.429 1_554 S
C450 N447 1.350 . S
C450 C449 1.434 . S
C451 C452 1.369 . S
C451 C453 1.419 . S
C451 H455 0.930 . S
C452 C451 1.369 . S
C452 C461 1.429 . S
C453 C451 1.419 . S
C453 C454 1.363 1_554 S
C453 H456 0.929 1_554 S
C454 C453 1.363 1_556 S
C454 C460 1.428 1_556 S
H455 C451 0.930 . S
H456 C453 0.929 1_556 S
S457 N458 1.613 . S
S457 N459 1.610 . S
N458 S457 1.613 . S
N458 C461 1.350 . S
N459 S457 1.610 . S
N459 C460 1.351 . S
C460 C454 1.428 1_554 S
C460 N459 1.351 . S
C460 C461 1.434 . S
C461 C452 1.429 . S
C461 N458 1.350 . S
C461 C460 1.434 . S
C462 C463 1.369 . S
C462 C464 1.419 . S
C462 H466 0.930 . S
C463 C462 1.369 . S
C463 C472 1.429 . S
C464 C462 1.419 . S
C464 C465 1.363 . S
C464 H467 0.929 . S
C465 C464 1.363 . S
C465 C471 1.428 . S
H466 C462 0.930 . S
H467 C464 0.929 . S
S468 N469 1.613 . S
S468 N470 1.610 . S
N469 S468 1.613 . S
N469 C472 1.350 . S
N470 S468 1.610 . S
N470 C471 1.351 . S
C471 C465 1.428 . S
C471 N470 1.351 . S
C471 C472 1.434 . S
C472 C463 1.429 . S
C472 N469 1.350 . S
C472 C471 1.434 . S
C473 C474 1.369 . S
C473 C475 1.419 . S
C473 H477 0.930 . S
C474 C473 1.369 . S
C474 C483 1.429 . S
C475 C473 1.419 . S
C475 C476 1.363 . S
C475 H478 0.929 . S
C476 C475 1.363 . S
C476 C482 1.428 . S
H477 C473 0.930 . S
H478 C475 0.929 . S
S479 N480 1.613 . S
S479 N481 1.610 . S
N480 S479 1.613 . S
N480 C483 1.350 . S
N481 S479 1.610 . S
N481 C482 1.351 . S
C482 C476 1.428 . S
C482 N481 1.351 . S
C482 C483 1.434 . S
C483 C474 1.429 . S
C483 N480 1.350 . S
C483 C482 1.434 . S
C484 C485 1.369 . S
C484 C486 1.419 . S
C484 H488 0.930 . S
C485 C484 1.369 . S
C485 C494 1.429 . S
C486 C484 1.419 . S
C486 C487 1.363 1_556 S
C486 H489 0.929 . S
C487 C486 1.363 1_554 S
C487 C493 1.428 . S
H488 C484 0.930 . S
H489 C486 0.929 . S
S490 N491 1.613 1_554 S
S490 N492 1.610 . S
N491 S490 1.613 1_556 S
N491 C494 1.350 . S
N492 S490 1.610 . S
N492 C493 1.351 . S
C493 C487 1.428 . S
C493 N492 1.351 . S
C493 C494 1.434 1_554 S
C494 C485 1.429 . S
C494 N491 1.350 . S
C494 C493 1.434 1_556 S
C495 C496 1.369 . S
C495 C497 1.419 1_554 S
C495 H499 0.930 . S
C496 C495 1.369 . S
C496 C505 1.429 1_554 S
C497 C495 1.419 1_556 S
C497 C498 1.363 . S
C497 H500 0.929 . S
C498 C497 1.363 . S
C498 C504 1.428 . S
H499 C495 0.930 . S
H500 C497 0.929 . S
S501 N502 1.613 . S
S501 N503 1.610 . S
N502 S501 1.613 . S
N502 C505 1.350 . S
N503 S501 1.610 . S
N503 C504 1.351 . S
C504 C498 1.428 . S
C504 N503 1.351 . S
C504 C505 1.434 . S
C505 C496 1.429 1_556 S
C505 N502 1.350 . S
C505 C504 1.434 . S
C506 C507 1.369 . S
C506 C508 1.419 . S
C506 H510 0.930 . S
C507 C506 1.369 . S
C507 C516 1.429 . S
C508 C506 1.419 . S
C508 C509 1.363 . S
C508 H511 0.929 . S
C509 C508 1.363 . S
C509 C515 1.428 . S
H510 C506 0.930 . S
H511 C508 0.929 . S
S512 N513 1.613 . S
S512 N514 1.610 . S
N513 S512 1.613 . S
N513 C516 1.350 . S
N514 S512 1.610 . S
N514 C515 1.351 . S
C515 C509 1.428 . S
C515 N514 1.351 . S
C515 C516 1.434 . S
C516 C507 1.429 . S
C516 N513 1.350 . S
C516 C515 1.434 . S
C517 C518 1.369 . S
C517 C519 1.419 . S
C517 H521 0.930 . S
C518 C517 1.369 . S
C518 C527 1.429 . S
C519 C517 1.419 . S
C519 C520 1.363 . S
C519 H522 0.929 . S
C520 C519 1.363 . S
C520 C526 1.428 . S
H521 C517 0.930 . S
H522 C519 0.929 . S
S523 N524 1.613 . S
S523 N525 1.610 . S
N524 S523 1.613 . S
N524 C527 1.350 . S
N525 S523 1.610 . S
N525 C526 1.351 . S
C526 C520 1.428 . S
C526 N525 1.351 . S
C526 C527 1.434 . S
C527 C518 1.429 . S
C527 N524 1.350 . S
C527 C526 1.434 . S
C528 C529 1.369 . S
C528 C530 1.419 . S
C528 H532 0.930 . S
C529 C528 1.369 . S
C529 C538 1.429 . S
C530 C528 1.419 . S
C530 C531 1.363 . S
C530 H533 0.929 . S
C531 C530 1.363 . S
C531 C537 1.428 . S
H532 C528 0.930 . S
H533 C530 0.929 . S
S534 N535 1.613 . S
S534 N536 1.610 . S
N535 S534 1.613 . S
N535 C538 1.350 . S
N536 S534 1.610 . S
N536 C537 1.351 . S
C537 C531 1.428 . S
C537 N536 1.351 . S
C537 C538 1.434 . S
C538 C529 1.429 . S
C538 N535 1.350 . S
C538 C537 1.434 . S
C539 C540 1.369 . S
C539 C541 1.419 . S
C539 H543 0.930 . S
C540 C539 1.369 . S
C540 C549 1.429 . S
C541 C539 1.419 . S
C541 C542 1.363 . S
C541 H544 0.929 . S
C542 C541 1.363 . S
C542 C548 1.428 . S
H543 C539 0.930 . S
H544 C541 0.929 . S
S545 N546 1.613 . S
S545 N547 1.610 . S
N546 S545 1.613 . S
N546 C549 1.350 . S
N547 S545 1.610 . S
N547 C548 1.351 . S
C548 C542 1.428 . S
C548 N547 1.351 . S
C548 C549 1.434 . S
C549 C540 1.429 . S
C549 N546 1.350 . S
C549 C548 1.434 . S
C550 C551 1.369 . S
C550 C552 1.419 . S
C550 H554 0.930 . S
C551 C550 1.369 . S
C551 C560 1.429 . S
C552 C550 1.419 . S
C552 C553 1.363 . S
C552 H555 0.929 . S
C553 C552 1.363 . S
C553 C559 1.428 . S
H554 C550 0.930 . S
H555 C552 0.929 . S
S556 N557 1.613 . S
S556 N558 1.610 . S
N557 S556 1.613 . S
N557 C560 1.350 . S
N558 S556 1.610 . S
N558 C559 1.351 . S
C559 C553 1.428 . S
C559 N558 1.351 . S
C559 C560 1.434 . S
C560 C551 1.429 . S
C560 N557 1.350 . S
C560 C559 1.434 . S
C561 C562 1.369 . S
C561 C563 1.419 . S
C561 H565 0.930 . S
C562 C561 1.369 . S
C562 C571 1.429 . S
C563 C561 1.419 . S
C563 C564 1.363 . S
C563 H566 0.929 . S
C564 C563 1.363 . S
C564 C570 1.428 . S
H565 C561 0.930 . S
H566 C563 0.929 . S
S567 N568 1.613 . S
S567 N569 1.610 . S
N568 S567 1.613 . S
N568 C571 1.350 . S
N569 S567 1.610 . S
N569 C570 1.351 . S
C570 C564 1.428 . S
C570 N569 1.351 . S
C570 C571 1.434 . S
C571 C562 1.429 . S
C571 N568 1.350 . S
C571 C570 1.434 . S
C572 C573 1.369 . S
C572 C574 1.419 . S
C572 H576 0.930 . S
C573 C572 1.369 . S
C573 C582 1.429 . S
C574 C572 1.419 . S
C574 C575 1.363 . S
C574 H577 0.929 . S
C575 C574 1.363 . S
C575 C581 1.428 . S
H576 C572 0.930 . S
H577 C574 0.929 . S
S578 N579 1.613 . S
S578 N580 1.610 . S
N579 S578 1.613 . S
N579 C582 1.350 . S
N580 S578 1.610 . S
N580 C581 1.351 . S
C581 C575 1.428 . S
C581 N580 1.351 . S
C581 C582 1.434 . S
C582 C573 1.429 . S
C582 N579 1.350 . S
C582 C581 1.434 . S
C583 C584 1.369 . S
C583 C585 1.419 . S
C583 H587 0.930 . S
C584 C583 1.369 . S
C584 C593 1.429 . S
C585 C583 1.419 . S
C585 C586 1.363 . S
C585 H588 0.929 . S
C586 C585 1.363 . S
C586 C592 1.428 . S
H587 C583 0.930 . S
H588 C585 0.929 . S
S589 N590 1.613 . S
S589 N591 1.610 . S
N590 S589 1.613 . S
N590 C593 1.350 . S
N591 S589 1.610 . S
N591 C592 1.351 . S
C592 C586 1.428 . S
C592 N591 1.351 . S
C592 C593 1.434 . S
C593 C584 1.429 . S
C593 N590 1.350 . S
C593 C592 1.434 . S
C594 C595 1.369 . S
C594 C596 1.419 . S
C594 H598 0.930 . S
C595 C594 1.369 . S
C595 C604 1.429 . S
C596 C594 1.419 . S
C596 C597 1.363 . S
C596 H599 0.929 . S
C597 C596 1.363 . S
C597 C603 1.428 . S
H598 C594 0.930 . S
H599 C596 0.929 . S
S600 N601 1.613 . S
S600 N602 1.610 . S
N601 S600 1.613 . S
N601 C604 1.350 . S
N602 S600 1.610 . S
N602 C603 1.351 . S
C603 C597 1.428 . S
C603 N602 1.351 . S
C603 C604 1.434 . S
C604 C595 1.429 . S
C604 N601 1.350 . S
C604 C603 1.434 . S
C605 C606 1.369 . S
C605 C607 1.419 . S
C605 H609 0.930 . S
C606 C605 1.369 . S
C606 C615 1.429 . S
C607 C605 1.419 . S
C607 C608 1.363 . S
C607 H610 0.929 . S
C608 C607 1.363 . S
C608 C614 1.428 . S
H609 C605 0.930 . S
H610 C607 0.929 . S
S611 N612 1.613 . S
S611 N613 1.610 . S
N612 S611 1.613 . S
N612 C615 1.350 . S
N613 S611 1.610 . S
N613 C614 1.351 . S
C614 C608 1.428 . S
C614 N613 1.351 . S
C614 C615 1.434 . S
C615 C606 1.429 . S
C615 N612 1.350 . S
C615 C614 1.434 . S
C616 C617 1.369 . S
C616 C618 1.419 . S
C616 H620 0.930 . S
C617 C616 1.369 . S
C617 C626 1.429 . S
C618 C616 1.419 . S
C618 C619 1.363 . S
C618 H621 0.929 . S
C619 C618 1.363 . S
C619 C625 1.428 . S
H620 C616 0.930 . S
H621 C618 0.929 . S
S622 N623 1.613 . S
S622 N624 1.610 . S
N623 S622 1.613 . S
N623 C626 1.350 . S
N624 S622 1.610 . S
N624 C625 1.351 . S
C625 C619 1.428 . S
C625 N624 1.351 . S
C625 C626 1.434 . S
C626 C617 1.429 . S
C626 N623 1.350 . S
C626 C625 1.434 . S
C627 C628 1.369 . S
C627 C629 1.419 . S
C627 H631 0.930 . S
C628 C627 1.369 . S
C628 C637 1.429 . S
C629 C627 1.419 . S
C629 C630 1.363 . S
C629 H632 0.929 . S
C630 C629 1.363 . S
C630 C636 1.428 . S
H631 C627 0.930 . S
H632 C629 0.929 . S
S633 N634 1.613 . S
S633 N635 1.610 . S
N634 S633 1.613 . S
N634 C637 1.350 . S
N635 S633 1.610 . S
N635 C636 1.351 . S
C636 C630 1.428 . S
C636 N635 1.351 . S
C636 C637 1.434 . S
C637 C628 1.429 . S
C637 N634 1.350 . S
C637 C636 1.434 . S
C638 C639 1.369 . S
C638 C640 1.419 . S
C638 H642 0.930 . S
C639 C638 1.369 . S
C639 C648 1.429 . S
C640 C638 1.419 . S
C640 C641 1.363 . S
C640 H643 0.929 . S
C641 C640 1.363 . S
C641 C647 1.428 . S
H642 C638 0.930 . S
H643 C640 0.929 . S
S644 N645 1.613 . S
S644 N646 1.610 . S
N645 S644 1.613 . S
N645 C648 1.350 . S
N646 S644 1.610 . S
N646 C647 1.351 . S
C647 C641 1.428 . S
C647 N646 1.351 . S
C647 C648 1.434 . S
C648 C639 1.429 . S
C648 N645 1.350 . S
C648 C647 1.434 . S
C649 C650 1.369 . S
C649 C651 1.419 . S
C649 H653 0.930 . S
C650 C649 1.369 . S
C650 C659 1.429 . S
C651 C649 1.419 . S
C651 C652 1.363 . S
C651 H654 0.929 . S
C652 C651 1.363 . S
C652 C658 1.428 . S
H653 C649 0.930 . S
H654 C651 0.929 . S
S655 N656 1.613 . S
S655 N657 1.610 . S
N656 S655 1.613 . S
N656 C659 1.350 . S
N657 S655 1.610 . S
N657 C658 1.351 . S
C658 C652 1.428 . S
C658 N657 1.351 . S
C658 C659 1.434 . S
C659 C650 1.429 . S
C659 N656 1.350 . S
C659 C658 1.434 . S
C660 C661 1.369 . S
C660 C662 1.419 1_545 S
C660 H664 0.930 . S
C661 C660 1.369 . S
C661 C670 1.429 . S
C662 C660 1.419 1_565 S
C662 C663 1.363 . S
C662 H665 0.929 . S
C663 C662 1.363 . S
C663 C669 1.428 . S
H664 C660 0.930 . S
H665 C662 0.929 . S
S666 N667 1.613 1_565 S
S666 N668 1.610 . S
N667 S666 1.613 1_545 S
N667 C670 1.350 . S
N668 S666 1.610 . S
N668 C669 1.351 . S
C669 C663 1.428 . S
C669 N668 1.351 . S
C669 C670 1.434 1_565 S
C670 C661 1.429 . S
C670 N667 1.350 . S
C670 C669 1.434 1_545 S
C671 C672 1.369 1_565 S
C671 C673 1.419 . S
C671 H675 0.930 . S
C672 C671 1.369 1_545 S
C672 C681 1.429 . S
C673 C671 1.419 . S
C673 C674 1.363 . S
C673 H676 0.929 . S
C674 C673 1.363 . S
C674 C680 1.428 1_565 S
H675 C671 0.930 . S
H676 C673 0.929 . S
S677 N678 1.613 . S
S677 N679 1.610 . S
N678 S677 1.613 . S
N678 C681 1.350 . S
N679 S677 1.610 . S
N679 C680 1.351 . S
C680 C674 1.428 1_545 S
C680 N679 1.351 . S
C680 C681 1.434 . S
C681 C672 1.429 . S
C681 N678 1.350 . S
C681 C680 1.434 . S
C682 C683 1.369 . S
C682 C684 1.419 . S
C682 H686 0.930 . S
C683 C682 1.369 . S
C683 C692 1.429 1_565 S
C684 C682 1.419 . S
C684 C685 1.363 1_565 S
C684 H687 0.929 . S
C685 C684 1.363 1_545 S
C685 C691 1.428 . S
H686 C682 0.930 . S
H687 C684 0.929 . S
S688 N689 1.613 . S
S688 N690 1.610 . S
N689 S688 1.613 . S
N689 C692 1.350 . S
N690 S688 1.610 . S
N690 C691 1.351 . S
C691 C685 1.428 . S
C691 N690 1.351 . S
C691 C692 1.434 . S
C692 C683 1.429 1_545 S
C692 N689 1.350 . S
C692 C691 1.434 . S
C693 C694 1.369 . S
C693 C695 1.419 1_565 S
C693 H697 0.930 . S
C694 C693 1.369 . S
C694 C703 1.429 . S
C695 C693 1.419 1_545 S
C695 C696 1.363 . S
C695 H698 0.929 . S
C696 C695 1.363 . S
C696 C702 1.432 . S
H697 C693 0.930 . S
H698 C695 0.929 . S
S699 N700 1.613 . S
S699 N701 1.610 . S
N700 S699 1.613 . S
N700 C703 1.350 . S
N701 S699 1.610 . S
N701 C702 1.350 1_565 S
C702 C696 1.432 . S
C702 N701 1.350 1_545 S
C702 C703 1.431 1_545 S
C703 C694 1.429 . S
C703 N700 1.350 . S
C703 C702 1.431 1_565 S
C704 C705 1.366 1_556 S
C704 C706 1.419 . S
C704 H708 0.930 . S
C705 C704 1.366 1_554 S
C705 C714 1.432 . S
C706 C704 1.419 . S
C706 C707 1.348 1_556 S
C706 H709 0.929 . S
C707 C706 1.348 1_554 S
C707 C713 1.444 . S
H708 C704 0.930 . S
H709 C706 0.929 . S
S710 N711 1.613 . S
S710 N712 1.610 . S
N711 S710 1.613 . S
N711 C714 1.350 . S
N712 S710 1.610 . S
N712 C713 1.351 . S
C713 C707 1.444 . S
C713 N712 1.351 . S
C713 C714 1.434 . S
C714 C705 1.432 . S
C714 N711 1.350 . S
C714 C713 1.434 . S
C715 C716 1.370 1_554 S
C715 C717 1.419 . S
C715 H719 0.930 . S
C716 C715 1.370 1_556 S
C716 C725 1.427 . S
C717 C715 1.419 . S
C717 C718 1.351 1_554 S
C717 H720 0.929 . S
C718 C717 1.351 1_556 S
C718 C724 1.440 . S
H719 C715 0.930 . S
H720 C717 0.929 . S
S721 N722 1.613 . S
S721 N723 1.610 . S
N722 S721 1.613 . S
N722 C725 1.350 . S
N723 S721 1.610 . S
N723 C724 1.351 . S
C724 C718 1.440 . S
C724 N723 1.351 . S
C724 C725 1.434 . S
C725 C716 1.427 . S
C725 N722 1.350 . S
C725 C724 1.434 . S
C726 C727 1.369 . S
C726 C728 1.419 . S
C726 H730 0.930 . S
C727 C726 1.369 . S
C727 C736 1.429 . S
C728 C726 1.419 . S
C728 C729 1.363 . S
C728 H731 0.929 . S
C729 C728 1.363 . S
C729 C735 1.428 . S
H730 C726 0.930 . S
H731 C728 0.929 . S
S732 N733 1.613 . S
S732 N734 1.610 . S
N733 S732 1.613 . S
N733 C736 1.350 . S
N734 S732 1.610 . S
N734 C735 1.351 . S
C735 C729 1.428 . S
C735 N734 1.351 . S
C735 C736 1.434 . S
C736 C727 1.429 . S
C736 N733 1.350 . S
C736 C735 1.434 . S
C737 C738 1.369 . S
C737 C739 1.419 . S
C737 H741 0.930 . S
C738 C737 1.369 . S
C738 C747 1.429 . S
C739 C737 1.419 . S
C739 C740 1.363 . S
C739 H742 0.929 . S
C740 C739 1.363 . S
C740 C746 1.428 . S
H741 C737 0.930 . S
H742 C739 0.929 . S
S743 N744 1.613 . S
S743 N745 1.610 . S
N744 S743 1.613 . S
N744 C747 1.350 . S
N745 S743 1.610 . S
N745 C746 1.351 . S
C746 C740 1.428 . S
C746 N745 1.351 . S
C746 C747 1.434 . S
C747 C738 1.429 . S
C747 N744 1.350 . S
C747 C746 1.434 . S
C748 C749 1.368 1_556 S
C748 C750 1.419 . S
C748 H752 0.930 . S
C749 C748 1.368 1_554 S
C749 C758 1.430 . S
C750 C748 1.419 . S
C750 C751 1.354 1_556 S
C750 H753 0.929 . S
C751 C750 1.354 1_554 S
C751 C757 1.437 . S
H752 C748 0.930 . S
H753 C750 0.929 . S
S754 N755 1.613 . S
S754 N756 1.610 . S
N755 S754 1.613 . S
N755 C758 1.350 . S
N756 S754 1.610 . S
N756 C757 1.351 . S
C757 C751 1.437 . S
C757 N756 1.351 . S
C757 C758 1.434 . S
C758 C749 1.430 . S
C758 N755 1.350 . S
C758 C757 1.434 . S
C759 C760 1.357 1_554 S
C759 C761 1.419 . S
C759 H763 0.930 . S
C760 C759 1.357 1_556 S
C760 C769 1.440 . S
C761 C759 1.419 . S
C761 C762 1.361 . S
C761 H764 0.929 . S
C762 C761 1.361 . S
C762 C768 1.430 1_554 S
H763 C759 0.930 . S
H764 C761 0.929 . S
S765 N766 1.613 . S
S765 N767 1.610 . S
N766 S765 1.613 . S
N766 C769 1.350 . S
N767 S765 1.610 . S
N767 C768 1.351 . S
C768 C762 1.430 1_556 S
C768 N767 1.351 . S
C768 C769 1.434 . S
C769 C760 1.440 . S
C769 N766 1.350 . S
C769 C768 1.434 . S
C770 C771 1.369 . S
C770 C772 1.419 . S
C770 H774 0.930 . S
C771 C770 1.369 . S
C771 C780 1.429 . S
C772 C770 1.419 . S
C772 C773 1.363 . S
C772 H775 0.929 . S
C773 C772 1.363 . S
C773 C779 1.428 . S
H774 C770 0.930 . S
H775 C772 0.929 . S
S776 N777 1.613 . S
S776 N778 1.610 . S
N777 S776 1.613 . S
N777 C780 1.350 . S
N778 S776 1.610 . S
N778 C779 1.351 . S
C779 C773 1.428 . S
C779 N778 1.351 . S
C779 C780 1.434 . S
C780 C771 1.429 . S
C780 N777 1.350 . S
C780 C779 1.434 . S
C781 C782 1.369 . S
C781 C783 1.419 . S
C781 H785 0.930 . S
C782 C781 1.369 . S
C782 C791 1.429 . S
C783 C781 1.419 . S
C783 C784 1.363 . S
C783 H786 0.929 . S
C784 C783 1.363 . S
C784 C790 1.428 . S
H785 C781 0.930 . S
H786 C783 0.929 . S
S787 N788 1.613 . S
S787 N789 1.610 . S
N788 S787 1.613 . S
N788 C791 1.350 . S
N789 S787 1.610 . S
N789 C790 1.351 . S
C790 C784 1.428 . S
C790 N789 1.351 . S
C790 C791 1.434 . S
C791 C782 1.429 . S
C791 N788 1.350 . S
C791 C790 1.434 . S
C792 C793 1.369 . S
C792 C794 1.419 1_455 S
C792 H796 0.930 . S
C793 C792 1.369 . S
C793 C802 1.429 . S
C794 C792 1.419 1_655 S
C794 C795 1.363 . S
C794 H797 0.929 . S
C795 C794 1.363 . S
C795 C801 1.428 . S
H796 C792 0.930 . S
H797 C794 0.929 . S
S798 N799 1.613 1_655 S
S798 N800 1.610 . S
N799 S798 1.613 1_455 S
N799 C802 1.350 . S
N800 S798 1.610 . S
N800 C801 1.351 . S
C801 C795 1.428 . S
C801 N800 1.351 . S
C801 C802 1.434 1_655 S
C802 C793 1.429 . S
C802 N799 1.350 . S
C802 C801 1.434 1_455 S
C803 C804 1.369 . S
C803 C805 1.419 . S
C803 H807 0.930 . S
C804 C803 1.369 . S
C804 C813 1.429 . S
C805 C803 1.419 . S
C805 C806 1.363 . S
C805 H808 0.929 . S
C806 C805 1.363 . S
C806 C812 1.428 . S
H807 C803 0.930 . S
H808 C805 0.929 . S
S809 N810 1.613 . S
S809 N811 1.610 . S
N810 S809 1.613 . S
N810 C813 1.350 . S
N811 S809 1.610 . S
N811 C812 1.351 . S
C812 C806 1.428 . S
C812 N811 1.351 . S
C812 C813 1.434 . S
C813 C804 1.429 . S
C813 N810 1.350 . S
C813 C812 1.434 . S
C814 C815 1.369 . S
C814 C816 1.419 . S
C814 H818 0.930 . S
C815 C814 1.369 . S
C815 C824 1.429 . S
C816 C814 1.419 . S
C816 C817 1.363 . S
C816 H819 0.929 . S
C817 C816 1.363 . S
C817 C823 1.428 . S
H818 C814 0.930 . S
H819 C816 0.929 . S
S820 N821 1.613 . S
S820 N822 1.610 . S
N821 S820 1.613 . S
N821 C824 1.350 . S
N822 S820 1.610 . S
N822 C823 1.351 . S
C823 C817 1.428 . S
C823 N822 1.351 . S
C823 C824 1.434 . S
C824 C815 1.429 . S
C824 N821 1.350 . S
C824 C823 1.434 . S
C825 C826 1.369 . S
C825 C827 1.419 1_455 S
C825 H829 0.930 . S
C826 C825 1.369 . S
C826 C835 1.429 . S
C827 C825 1.419 1_655 S
C827 C828 1.363 . S
C827 H830 0.929 . S
C828 C827 1.363 . S
C828 C834 1.428 . S
H829 C825 0.930 . S
H830 C827 0.929 . S
S831 N832 1.613 . S
S831 N833 1.610 1_455 S
N832 S831 1.613 . S
N832 C835 1.350 . S
N833 S831 1.610 1_655 S
N833 C834 1.351 . S
C834 C828 1.428 . S
C834 N833 1.351 . S
C834 C835 1.434 1_655 S
C835 C826 1.429 . S
C835 N832 1.350 . S
C835 C834 1.434 1_455 S
C836 C837 1.369 . S
C836 C838 1.419 1_655 S
C836 H840 0.930 . S
C837 C836 1.369 . S
C837 C846 1.429 . S
C838 C836 1.419 1_455 S
C838 C839 1.363 . S
C838 H841 0.929 . S
C839 C838 1.363 . S
C839 C845 1.428 . S
H840 C836 0.930 . S
H841 C838 0.929 . S
S842 N843 1.613 . S
S842 N844 1.610 1_655 S
N843 S842 1.613 . S
N843 C846 1.350 . S
N844 S842 1.610 1_455 S
N844 C845 1.351 . S
C845 C839 1.428 . S
C845 N844 1.351 . S
C845 C846 1.434 1_455 S
C846 C837 1.429 . S
C846 N843 1.350 . S
C846 C845 1.434 1_655 S
C847 C848 1.369 . S
C847 C849 1.419 . S
C847 H851 0.930 . S
C848 C847 1.369 . S
C848 C857 1.429 . S
C849 C847 1.419 . S
C849 C850 1.363 . S
C849 H852 0.929 . S
C850 C849 1.363 . S
C850 C856 1.428 . S
H851 C847 0.930 . S
H852 C849 0.929 . S
S853 N854 1.613 . S
S853 N855 1.610 . S
N854 S853 1.613 . S
N854 C857 1.350 . S
N855 S853 1.610 . S
N855 C856 1.351 . S
C856 C850 1.428 . S
C856 N855 1.351 . S
C856 C857 1.434 . S
C857 C848 1.429 . S
C857 N854 1.350 . S
C857 C856 1.434 . S
C858 C859 1.369 . S
C858 C860 1.419 . S
C858 H862 0.930 . S
C859 C858 1.369 . S
C859 C868 1.429 . S
C860 C858 1.419 . S
C860 C861 1.363 . S
C860 H863 0.929 . S
C861 C860 1.363 . S
C861 C867 1.428 . S
H862 C858 0.930 . S
H863 C860 0.929 . S
S864 N865 1.613 . S
S864 N866 1.610 . S
N865 S864 1.613 . S
N865 C868 1.350 . S
N866 S864 1.610 . S
N866 C867 1.351 . S
C867 C861 1.428 . S
C867 N866 1.351 . S
C867 C868 1.434 . S
C868 C859 1.429 . S
C868 N865 1.350 . S
C868 C867 1.434 . S
C869 C870 1.369 . S
C869 C871 1.419 1_455 S
C869 H873 0.930 . S
C870 C869 1.369 . S
C870 C879 1.429 . S
C871 C869 1.419 1_655 S
C871 C872 1.363 . S
C871 H874 0.929 . S
C872 C871 1.363 . S
C872 C878 1.428 . S
H873 C869 0.930 . S
H874 C871 0.929 . S
S875 N876 1.618 . S
S875 N877 1.605 1_455 S
N876 S875 1.618 . S
N876 C879 1.350 . S
N877 S875 1.605 1_655 S
N877 C878 1.351 . S
C878 C872 1.428 . S
C878 N877 1.351 . S
C878 C879 1.434 1_655 S
C879 C870 1.429 . S
C879 N876 1.350 . S
C879 C878 1.434 1_455 S
C353 C6 1.475 . S
C355 C290 1.608 . S
C364 C268 1.607 . S
C366 C29 1.480 . S
C375 C334 1.608 . S
C377 C50 1.476 . S
C386 C316 1.608 . S
C388 C72 1.478 . S
C397 C202 1.609 . S
C399 C97 1.472 . S
C408 C119 1.475 . S
C410 C184 1.608 . S
C419 C250 1.609 . S
C421 C137 1.473 . S
C430 C163 1.483 . S
C432 C228 1.607 . S
C441 C114 1.608 . S
C443 C182 1.478 . S
C452 C205 1.483 . S
C454 C92 1.607 . S
C463 C158 1.609 . S
C465 C226 1.473 . S
C474 C140 1.607 . S
C476 C248 1.481 . S
C485 C273 1.472 . S
C487 C26 1.609 . S
C496 C8 1.608 . S
C498 C295 1.477 . S
C507 C313 1.483 . S
C509 C74 1.608 . S
C518 C52 1.608 . S
C520 C339 1.475 . S
C529 C225 1.486 . S
C531 C5 1.492 . S
C540 C31 1.484 . S
C542 C247 1.490 . S
C551 C181 1.483 . S
C553 C49 1.489 . S
C562 C207 1.492 . S
C564 C71 1.485 . S
C573 C314 1.492 . S
C575 C95 1.486 . S
C584 C117 1.492 . S
C586 C337 1.489 . S
C595 C138 1.487 . S
C597 C271 1.492 . S
C606 C293 1.483 . S
C608 C161 1.489 . S
C617 C7 1.704 . S
C619 C28 1.704 . S
C628 C51 1.705 . S
C630 C73 1.705 . S
C639 C93 1.704 . S
C641 C115 1.704 . S
C650 C159 1.704 . S
C652 C141 1.704 . S
C661 C204 1.705 . S
C663 C183 1.705 . S
C672 C227 1.705 . S
C674 C249 1.705 . S
C683 C291 1.704 . S
C685 C269 1.705 . S
C694 C317 1.705 . S
C696 C335 1.705 . S
C705 C270 1.025 1_554 S
C707 C9 1.022 . S
C716 C27 1.020 1_556 S
C718 C292 1.025 . S
C727 C53 1.026 . S
C729 C315 1.013 . S
C738 C75 1.018 . S
C740 C336 1.020 . S
C749 C94 1.022 1_554 S
C751 C185 1.024 . S
C760 C116 1.016 . S
C762 C203 1.025 . S
C771 C139 1.008 . S
C773 C229 1.027 . S
C782 C251 1.029 . S
C784 C160 1.011 . S
C793 C4 1.534 . S
C795 C206 1.533 . S
C804 C30 1.533 . S
C806 C180 1.534 . S
C815 C246 1.536 . S
C817 C48 1.536 . S
C826 C224 1.534 . S
C828 C70 1.536 . S
C837 C96 1.535 . S
C839 C294 1.536 . S
C848 C118 1.534 . S
C850 C272 1.533 . S
C859 C338 1.533 . S
C861 C136 1.533 . S
C870 C162 1.532 . S
C872 C312 1.533 . S
