# Generated by pormake.
# Topology ulg, (4)-cn, num edge types: 1
# Building blocks:
#     Node 0, Type 0, BuildingBlock: KUFVIS_clean_sbu_0, # of connection points: 4
#     Node 1, Type 0, BuildingBlock: KUFVIS_clean_sbu_0, # of connection points: 4
#     Node 2, Type 0, BuildingBlock: KUFVIS_clean_sbu_0, # of connection points: 4
#     Node 3, Type 0, BuildingBlock: KUFVIS_clean_sbu_0, # of connection points: 4
#     Node 4, Type 0, BuildingBlock: KUFVIS_clean_sbu_0, # of connection points: 4
#     Node 5, Type 0, BuildingBlock: KUFVIS_clean_sbu_0, # of connection points: 4
#     Node 6, Type 0, BuildingBlock: KUFVIS_clean_sbu_0, # of connection points: 4
#     Node 7, Type 0, BuildingBlock: KUFVIS_clean_sbu_0, # of connection points: 4
#     Node 8, Type 0, BuildingBlock: KUFVIS_clean_sbu_0, # of connection points: 4
#     Node 9, Type 0, BuildingBlock: KUFVIS_clean_sbu_0, # of connection points: 4
#     Node 10, Type 0, BuildingBlock: KUFVIS_clean_sbu_0, # of connection points: 4
#     Node 11, Type 0, BuildingBlock: KUFVIS_clean_sbu_0, # of connection points: 4
#     Node 12, Type 0, BuildingBlock: KUFVIS_clean_sbu_0, # of connection points: 4
#     Node 13, Type 0, BuildingBlock: KUFVIS_clean_sbu_0, # of connection points: 4
#     Node 14, Type 0, BuildingBlock: KUFVIS_clean_sbu_0, # of connection points: 4
#     Node 15, Type 0, BuildingBlock: KUFVIS_clean_sbu_0, # of connection points: 4
#     Node 16, Type 0, BuildingBlock: KUFVIS_clean_sbu_0, # of connection points: 4
#     Node 17, Type 0, BuildingBlock: KUFVIS_clean_sbu_0, # of connection points: 4
#     Node 18, Type 0, BuildingBlock: KUFVIS_clean_sbu_0, # of connection points: 4
#     Node 19, Type 0, BuildingBlock: KUFVIS_clean_sbu_0, # of connection points: 4
#     Node 20, Type 0, BuildingBlock: KUFVIS_clean_sbu_0, # of connection points: 4
#     Node 21, Type 0, BuildingBlock: KUFVIS_clean_sbu_0, # of connection points: 4
#     Node 22, Type 0, BuildingBlock: KUFVIS_clean_sbu_0, # of connection points: 4
#     Node 23, Type 0, BuildingBlock: KUFVIS_clean_sbu_0, # of connection points: 4
#     Node 24, Type 0, BuildingBlock: KUFVIS_clean_sbu_0, # of connection points: 4
#     Node 25, Type 0, BuildingBlock: KUFVIS_clean_sbu_0, # of connection points: 4
#     Node 26, Type 0, BuildingBlock: KUFVIS_clean_sbu_0, # of connection points: 4
#     Node 27, Type 0, BuildingBlock: KUFVIS_clean_sbu_0, # of connection points: 4
#     Node 28, Type 0, BuildingBlock: KUFVIS_clean_sbu_0, # of connection points: 4
#     Node 29, Type 0, BuildingBlock: KUFVIS_clean_sbu_0, # of connection points: 4
#     Node 30, Type 0, BuildingBlock: KUFVIS_clean_sbu_0, # of connection points: 4
#     Node 31, Type 0, BuildingBlock: KUFVIS_clean_sbu_0, # of connection points: 4
#     Node 32, Type 0, BuildingBlock: KUFVIS_clean_sbu_0, # of connection points: 4
#     Node 33, Type 0, BuildingBlock: KUFVIS_clean_sbu_0, # of connection points: 4
#     Node 34, Type 0, BuildingBlock: KUFVIS_clean_sbu_0, # of connection points: 4
#     Node 35, Type 0, BuildingBlock: KUFVIS_clean_sbu_0, # of connection points: 4
#     Node 36, Type 0, BuildingBlock: KUFVIS_clean_sbu_0, # of connection points: 4
#     Node 37, Type 0, BuildingBlock: KUFVIS_clean_sbu_0, # of connection points: 4
#     Node 38, Type 0, BuildingBlock: KUFVIS_clean_sbu_0, # of connection points: 4
#     Node 39, Type 0, BuildingBlock: KUFVIS_clean_sbu_0, # of connection points: 4
#     Node 40, Type 0, BuildingBlock: KUFVIS_clean_sbu_0, # of connection points: 4
#     Node 41, Type 0, BuildingBlock: KUFVIS_clean_sbu_0, # of connection points: 4
#     Node 42, Type 0, BuildingBlock: KUFVIS_clean_sbu_0, # of connection points: 4
#     Node 43, Type 0, BuildingBlock: KUFVIS_clean_sbu_0, # of connection points: 4
#     Node 44, Type 0, BuildingBlock: KUFVIS_clean_sbu_0, # of connection points: 4
#     Node 45, Type 0, BuildingBlock: KUFVIS_clean_sbu_0, # of connection points: 4
#     Node 46, Type 0, BuildingBlock: KUFVIS_clean_sbu_0, # of connection points: 4
#     Node 47, Type 0, BuildingBlock: KUFVIS_clean_sbu_0, # of connection points: 4
#     Node 48, Type 0, BuildingBlock: KUFVIS_clean_sbu_0, # of connection points: 4
#     Node 49, Type 0, BuildingBlock: KUFVIS_clean_sbu_0, # of connection points: 4
#     Node 50, Type 0, BuildingBlock: KUFVIS_clean_sbu_0, # of connection points: 4
#     Node 51, Type 0, BuildingBlock: KUFVIS_clean_sbu_0, # of connection points: 4
#     Node 52, Type 0, BuildingBlock: KUFVIS_clean_sbu_0, # of connection points: 4
#     Node 53, Type 0, BuildingBlock: KUFVIS_clean_sbu_0, # of connection points: 4
#     Node 54, Type 0, BuildingBlock: KUFVIS_clean_sbu_0, # of connection points: 4
#     Node 55, Type 0, BuildingBlock: KUFVIS_clean_sbu_0, # of connection points: 4
#     Node 56, Type 0, BuildingBlock: KUFVIS_clean_sbu_0, # of connection points: 4
#     Node 57, Type 0, BuildingBlock: KUFVIS_clean_sbu_0, # of connection points: 4
#     Node 58, Type 0, BuildingBlock: KUFVIS_clean_sbu_0, # of connection points: 4
#     Node 59, Type 0, BuildingBlock: KUFVIS_clean_sbu_0, # of connection points: 4
#     Node 60, Type 0, BuildingBlock: KUFVIS_clean_sbu_0, # of connection points: 4
#     Node 61, Type 0, BuildingBlock: KUFVIS_clean_sbu_0, # of connection points: 4
#     Node 62, Type 0, BuildingBlock: KUFVIS_clean_sbu_0, # of connection points: 4
#     Node 63, Type 0, BuildingBlock: KUFVIS_clean_sbu_0, # of connection points: 4
#     Node 64, Type 0, BuildingBlock: KUFVIS_clean_sbu_0, # of connection points: 4
#     Node 65, Type 0, BuildingBlock: KUFVIS_clean_sbu_0, # of connection points: 4
#     Node 66, Type 0, BuildingBlock: KUFVIS_clean_sbu_0, # of connection points: 4
#     Node 67, Type 0, BuildingBlock: KUFVIS_clean_sbu_0, # of connection points: 4
#     Node 68, Type 0, BuildingBlock: KUFVIS_clean_sbu_0, # of connection points: 4
#     Node 69, Type 0, BuildingBlock: KUFVIS_clean_sbu_0, # of connection points: 4
#     Node 70, Type 0, BuildingBlock: KUFVIS_clean_sbu_0, # of connection points: 4
#     Node 71, Type 0, BuildingBlock: KUFVIS_clean_sbu_0, # of connection points: 4
#     Node 72, Type 0, BuildingBlock: KUFVIS_clean_sbu_0, # of connection points: 4
#     Node 73, Type 0, BuildingBlock: KUFVIS_clean_sbu_0, # of connection points: 4
#     Node 74, Type 0, BuildingBlock: KUFVIS_clean_sbu_0, # of connection points: 4
#     Node 75, Type 0, BuildingBlock: KUFVIS_clean_sbu_0, # of connection points: 4
#     Node 76, Type 0, BuildingBlock: KUFVIS_clean_sbu_0, # of connection points: 4
#     Node 77, Type 0, BuildingBlock: KUFVIS_clean_sbu_0, # of connection points: 4
#     Node 78, Type 0, BuildingBlock: KUFVIS_clean_sbu_0, # of connection points: 4
#     Node 79, Type 0, BuildingBlock: KUFVIS_clean_sbu_0, # of connection points: 4
#     Node 80, Type 0, BuildingBlock: KUFVIS_clean_sbu_0, # of connection points: 4
#     Node 81, Type 0, BuildingBlock: KUFVIS_clean_sbu_0, # of connection points: 4
#     Node 82, Type 0, BuildingBlock: KUFVIS_clean_sbu_0, # of connection points: 4
#     Node 83, Type 0, BuildingBlock: KUFVIS_clean_sbu_0, # of connection points: 4
#     Node 84, Type 0, BuildingBlock: KUFVIS_clean_sbu_0, # of connection points: 4
#     Node 85, Type 0, BuildingBlock: KUFVIS_clean_sbu_0, # of connection points: 4
#     Node 86, Type 0, BuildingBlock: KUFVIS_clean_sbu_0, # of connection points: 4
#     Node 87, Type 0, BuildingBlock: KUFVIS_clean_sbu_0, # of connection points: 4
#     Node 88, Type 0, BuildingBlock: KUFVIS_clean_sbu_0, # of connection points: 4
#     Node 89, Type 0, BuildingBlock: KUFVIS_clean_sbu_0, # of connection points: 4
#     Node 90, Type 0, BuildingBlock: KUFVIS_clean_sbu_0, # of connection points: 4
#     Node 91, Type 0, BuildingBlock: KUFVIS_clean_sbu_0, # of connection points: 4
#     Node 92, Type 0, BuildingBlock: KUFVIS_clean_sbu_0, # of connection points: 4
#     Node 93, Type 0, BuildingBlock: KUFVIS_clean_sbu_0, # of connection points: 4
#     Node 94, Type 0, BuildingBlock: KUFVIS_clean_sbu_0, # of connection points: 4
#     Node 95, Type 0, BuildingBlock: KUFVIS_clean_sbu_0, # of connection points: 4
#     Edge 96, Type (0, 0), BuildingBlock: EZIPEK_clean_linker_0, # of connection points: 2
#     Edge 97, Type (0, 0), BuildingBlock: EZIPEK_clean_linker_0, # of connection points: 2
#     Edge 98, Type (0, 0), BuildingBlock: EZIPEK_clean_linker_0, # of connection points: 2
#     Edge 99, Type (0, 0), BuildingBlock: EZIPEK_clean_linker_0, # of connection points: 2
#     Edge 100, Type (0, 0), BuildingBlock: EZIPEK_clean_linker_0, # of connection points: 2
#     Edge 101, Type (0, 0), BuildingBlock: EZIPEK_clean_linker_0, # of connection points: 2
#     Edge 102, Type (0, 0), BuildingBlock: EZIPEK_clean_linker_0, # of connection points: 2
#     Edge 103, Type (0, 0), BuildingBlock: EZIPEK_clean_linker_0, # of connection points: 2
#     Edge 104, Type (0, 0), BuildingBlock: EZIPEK_clean_linker_0, # of connection points: 2
#     Edge 105, Type (0, 0), BuildingBlock: EZIPEK_clean_linker_0, # of connection points: 2
#     Edge 106, Type (0, 0), BuildingBlock: EZIPEK_clean_linker_0, # of connection points: 2
#     Edge 107, Type (0, 0), BuildingBlock: EZIPEK_clean_linker_0, # of connection points: 2
#     Edge 108, Type (0, 0), BuildingBlock: EZIPEK_clean_linker_0, # of connection points: 2
#     Edge 109, Type (0, 0), BuildingBlock: EZIPEK_clean_linker_0, # of connection points: 2
#     Edge 110, Type (0, 0), BuildingBlock: EZIPEK_clean_linker_0, # of connection points: 2
#     Edge 111, Type (0, 0), BuildingBlock: EZIPEK_clean_linker_0, # of connection points: 2
#     Edge 112, Type (0, 0), BuildingBlock: EZIPEK_clean_linker_0, # of connection points: 2
#     Edge 113, Type (0, 0), BuildingBlock: EZIPEK_clean_linker_0, # of connection points: 2
#     Edge 114, Type (0, 0), BuildingBlock: EZIPEK_clean_linker_0, # of connection points: 2
#     Edge 115, Type (0, 0), BuildingBlock: EZIPEK_clean_linker_0, # of connection points: 2
#     Edge 116, Type (0, 0), BuildingBlock: EZIPEK_clean_linker_0, # of connection points: 2
#     Edge 117, Type (0, 0), BuildingBlock: EZIPEK_clean_linker_0, # of connection points: 2
#     Edge 118, Type (0, 0), BuildingBlock: EZIPEK_clean_linker_0, # of connection points: 2
#     Edge 119, Type (0, 0), BuildingBlock: EZIPEK_clean_linker_0, # of connection points: 2
#     Edge 120, Type (0, 0), BuildingBlock: EZIPEK_clean_linker_0, # of connection points: 2
#     Edge 121, Type (0, 0), BuildingBlock: EZIPEK_clean_linker_0, # of connection points: 2
#     Edge 122, Type (0, 0), BuildingBlock: EZIPEK_clean_linker_0, # of connection points: 2
#     Edge 123, Type (0, 0), BuildingBlock: EZIPEK_clean_linker_0, # of connection points: 2
#     Edge 124, Type (0, 0), BuildingBlock: EZIPEK_clean_linker_0, # of connection points: 2
#     Edge 125, Type (0, 0), BuildingBlock: EZIPEK_clean_linker_0, # of connection points: 2
#     Edge 126, Type (0, 0), BuildingBlock: EZIPEK_clean_linker_0, # of connection points: 2
#     Edge 127, Type (0, 0), BuildingBlock: EZIPEK_clean_linker_0, # of connection points: 2
#     Edge 128, Type (0, 0), BuildingBlock: EZIPEK_clean_linker_0, # of connection points: 2
#     Edge 129, Type (0, 0), BuildingBlock: EZIPEK_clean_linker_0, # of connection points: 2
#     Edge 130, Type (0, 0), BuildingBlock: EZIPEK_clean_linker_0, # of connection points: 2
#     Edge 131, Type (0, 0), BuildingBlock: EZIPEK_clean_linker_0, # of connection points: 2
#     Edge 132, Type (0, 0), BuildingBlock: EZIPEK_clean_linker_0, # of connection points: 2
#     Edge 133, Type (0, 0), BuildingBlock: EZIPEK_clean_linker_0, # of connection points: 2
#     Edge 134, Type (0, 0), BuildingBlock: EZIPEK_clean_linker_0, # of connection points: 2
#     Edge 135, Type (0, 0), BuildingBlock: EZIPEK_clean_linker_0, # of connection points: 2
#     Edge 136, Type (0, 0), BuildingBlock: EZIPEK_clean_linker_0, # of connection points: 2
#     Edge 137, Type (0, 0), BuildingBlock: EZIPEK_clean_linker_0, # of connection points: 2
#     Edge 138, Type (0, 0), BuildingBlock: EZIPEK_clean_linker_0, # of connection points: 2
#     Edge 139, Type (0, 0), BuildingBlock: EZIPEK_clean_linker_0, # of connection points: 2
#     Edge 140, Type (0, 0), BuildingBlock: EZIPEK_clean_linker_0, # of connection points: 2
#     Edge 141, Type (0, 0), BuildingBlock: EZIPEK_clean_linker_0, # of connection points: 2
#     Edge 142, Type (0, 0), BuildingBlock: EZIPEK_clean_linker_0, # of connection points: 2
#     Edge 143, Type (0, 0), BuildingBlock: EZIPEK_clean_linker_0, # of connection points: 2
#     Edge 144, Type (0, 0), BuildingBlock: EZIPEK_clean_linker_0, # of connection points: 2
#     Edge 145, Type (0, 0), BuildingBlock: EZIPEK_clean_linker_0, # of connection points: 2
#     Edge 146, Type (0, 0), BuildingBlock: EZIPEK_clean_linker_0, # of connection points: 2
#     Edge 147, Type (0, 0), BuildingBlock: EZIPEK_clean_linker_0, # of connection points: 2
#     Edge 148, Type (0, 0), BuildingBlock: EZIPEK_clean_linker_0, # of connection points: 2
#     Edge 149, Type (0, 0), BuildingBlock: EZIPEK_clean_linker_0, # of connection points: 2
#     Edge 150, Type (0, 0), BuildingBlock: EZIPEK_clean_linker_0, # of connection points: 2
#     Edge 151, Type (0, 0), BuildingBlock: EZIPEK_clean_linker_0, # of connection points: 2
#     Edge 152, Type (0, 0), BuildingBlock: EZIPEK_clean_linker_0, # of connection points: 2
#     Edge 153, Type (0, 0), BuildingBlock: EZIPEK_clean_linker_0, # of connection points: 2
#     Edge 154, Type (0, 0), BuildingBlock: EZIPEK_clean_linker_0, # of connection points: 2
#     Edge 155, Type (0, 0), BuildingBlock: EZIPEK_clean_linker_0, # of connection points: 2
#     Edge 156, Type (0, 0), BuildingBlock: EZIPEK_clean_linker_0, # of connection points: 2
#     Edge 157, Type (0, 0), BuildingBlock: EZIPEK_clean_linker_0, # of connection points: 2
#     Edge 158, Type (0, 0), BuildingBlock: EZIPEK_clean_linker_0, # of connection points: 2
#     Edge 159, Type (0, 0), BuildingBlock: EZIPEK_clean_linker_0, # of connection points: 2
#     Edge 160, Type (0, 0), BuildingBlock: EZIPEK_clean_linker_0, # of connection points: 2
#     Edge 161, Type (0, 0), BuildingBlock: EZIPEK_clean_linker_0, # of connection points: 2
#     Edge 162, Type (0, 0), BuildingBlock: EZIPEK_clean_linker_0, # of connection points: 2
#     Edge 163, Type (0, 0), BuildingBlock: EZIPEK_clean_linker_0, # of connection points: 2
#     Edge 164, Type (0, 0), BuildingBlock: EZIPEK_clean_linker_0, # of connection points: 2
#     Edge 165, Type (0, 0), BuildingBlock: EZIPEK_clean_linker_0, # of connection points: 2
#     Edge 166, Type (0, 0), BuildingBlock: EZIPEK_clean_linker_0, # of connection points: 2
#     Edge 167, Type (0, 0), BuildingBlock: EZIPEK_clean_linker_0, # of connection points: 2
#     Edge 168, Type (0, 0), BuildingBlock: EZIPEK_clean_linker_0, # of connection points: 2
#     Edge 169, Type (0, 0), BuildingBlock: EZIPEK_clean_linker_0, # of connection points: 2
#     Edge 170, Type (0, 0), BuildingBlock: EZIPEK_clean_linker_0, # of connection points: 2
#     Edge 171, Type (0, 0), BuildingBlock: EZIPEK_clean_linker_0, # of connection points: 2
#     Edge 172, Type (0, 0), BuildingBlock: EZIPEK_clean_linker_0, # of connection points: 2
#     Edge 173, Type (0, 0), BuildingBlock: EZIPEK_clean_linker_0, # of connection points: 2
#     Edge 174, Type (0, 0), BuildingBlock: EZIPEK_clean_linker_0, # of connection points: 2
#     Edge 175, Type (0, 0), BuildingBlock: EZIPEK_clean_linker_0, # of connection points: 2
#     Edge 176, Type (0, 0), BuildingBlock: EZIPEK_clean_linker_0, # of connection points: 2
#     Edge 177, Type (0, 0), BuildingBlock: EZIPEK_clean_linker_0, # of connection points: 2
#     Edge 178, Type (0, 0), BuildingBlock: EZIPEK_clean_linker_0, # of connection points: 2
#     Edge 179, Type (0, 0), BuildingBlock: EZIPEK_clean_linker_0, # of connection points: 2
#     Edge 180, Type (0, 0), BuildingBlock: EZIPEK_clean_linker_0, # of connection points: 2
#     Edge 181, Type (0, 0), BuildingBlock: EZIPEK_clean_linker_0, # of connection points: 2
#     Edge 182, Type (0, 0), BuildingBlock: EZIPEK_clean_linker_0, # of connection points: 2
#     Edge 183, Type (0, 0), BuildingBlock: EZIPEK_clean_linker_0, # of connection points: 2
#     Edge 184, Type (0, 0), BuildingBlock: EZIPEK_clean_linker_0, # of connection points: 2
#     Edge 185, Type (0, 0), BuildingBlock: EZIPEK_clean_linker_0, # of connection points: 2
#     Edge 186, Type (0, 0), BuildingBlock: EZIPEK_clean_linker_0, # of connection points: 2
#     Edge 187, Type (0, 0), BuildingBlock: EZIPEK_clean_linker_0, # of connection points: 2
#     Edge 188, Type (0, 0), BuildingBlock: EZIPEK_clean_linker_0, # of connection points: 2
#     Edge 189, Type (0, 0), BuildingBlock: EZIPEK_clean_linker_0, # of connection points: 2
#     Edge 190, Type (0, 0), BuildingBlock: EZIPEK_clean_linker_0, # of connection points: 2
#     Edge 191, Type (0, 0), BuildingBlock: EZIPEK_clean_linker_0, # of connection points: 2
#     Edge 192, Type (0, 0), BuildingBlock: EZIPEK_clean_linker_0, # of connection points: 2
#     Edge 193, Type (0, 0), BuildingBlock: EZIPEK_clean_linker_0, # of connection points: 2
#     Edge 194, Type (0, 0), BuildingBlock: EZIPEK_clean_linker_0, # of connection points: 2
#     Edge 195, Type (0, 0), BuildingBlock: EZIPEK_clean_linker_0, # of connection points: 2
#     Edge 196, Type (0, 0), BuildingBlock: EZIPEK_clean_linker_0, # of connection points: 2
#     Edge 197, Type (0, 0), BuildingBlock: EZIPEK_clean_linker_0, # of connection points: 2
#     Edge 198, Type (0, 0), BuildingBlock: EZIPEK_clean_linker_0, # of connection points: 2
#     Edge 199, Type (0, 0), BuildingBlock: EZIPEK_clean_linker_0, # of connection points: 2
#     Edge 200, Type (0, 0), BuildingBlock: EZIPEK_clean_linker_0, # of connection points: 2
#     Edge 201, Type (0, 0), BuildingBlock: EZIPEK_clean_linker_0, # of connection points: 2
#     Edge 202, Type (0, 0), BuildingBlock: EZIPEK_clean_linker_0, # of connection points: 2
#     Edge 203, Type (0, 0), BuildingBlock: EZIPEK_clean_linker_0, # of connection points: 2
#     Edge 204, Type (0, 0), BuildingBlock: EZIPEK_clean_linker_0, # of connection points: 2
#     Edge 205, Type (0, 0), BuildingBlock: EZIPEK_clean_linker_0, # of connection points: 2
#     Edge 206, Type (0, 0), BuildingBlock: EZIPEK_clean_linker_0, # of connection points: 2
#     Edge 207, Type (0, 0), BuildingBlock: EZIPEK_clean_linker_0, # of connection points: 2
#     Edge 208, Type (0, 0), BuildingBlock: EZIPEK_clean_linker_0, # of connection points: 2
#     Edge 209, Type (0, 0), BuildingBlock: EZIPEK_clean_linker_0, # of connection points: 2
#     Edge 210, Type (0, 0), BuildingBlock: EZIPEK_clean_linker_0, # of connection points: 2
#     Edge 211, Type (0, 0), BuildingBlock: EZIPEK_clean_linker_0, # of connection points: 2
#     Edge 212, Type (0, 0), BuildingBlock: EZIPEK_clean_linker_0, # of connection points: 2
#     Edge 213, Type (0, 0), BuildingBlock: EZIPEK_clean_linker_0, # of connection points: 2
#     Edge 214, Type (0, 0), BuildingBlock: EZIPEK_clean_linker_0, # of connection points: 2
#     Edge 215, Type (0, 0), BuildingBlock: EZIPEK_clean_linker_0, # of connection points: 2
#     Edge 216, Type (0, 0), BuildingBlock: EZIPEK_clean_linker_0, # of connection points: 2
#     Edge 217, Type (0, 0), BuildingBlock: EZIPEK_clean_linker_0, # of connection points: 2
#     Edge 218, Type (0, 0), BuildingBlock: EZIPEK_clean_linker_0, # of connection points: 2
#     Edge 219, Type (0, 0), BuildingBlock: EZIPEK_clean_linker_0, # of connection points: 2
#     Edge 220, Type (0, 0), BuildingBlock: EZIPEK_clean_linker_0, # of connection points: 2
#     Edge 221, Type (0, 0), BuildingBlock: EZIPEK_clean_linker_0, # of connection points: 2
#     Edge 222, Type (0, 0), BuildingBlock: EZIPEK_clean_linker_0, # of connection points: 2
#     Edge 223, Type (0, 0), BuildingBlock: EZIPEK_clean_linker_0, # of connection points: 2
#     Edge 224, Type (0, 0), BuildingBlock: EZIPEK_clean_linker_0, # of connection points: 2
#     Edge 225, Type (0, 0), BuildingBlock: EZIPEK_clean_linker_0, # of connection points: 2
#     Edge 226, Type (0, 0), BuildingBlock: EZIPEK_clean_linker_0, # of connection points: 2
#     Edge 227, Type (0, 0), BuildingBlock: EZIPEK_clean_linker_0, # of connection points: 2
#     Edge 228, Type (0, 0), BuildingBlock: EZIPEK_clean_linker_0, # of connection points: 2
#     Edge 229, Type (0, 0), BuildingBlock: EZIPEK_clean_linker_0, # of connection points: 2
#     Edge 230, Type (0, 0), BuildingBlock: EZIPEK_clean_linker_0, # of connection points: 2
#     Edge 231, Type (0, 0), BuildingBlock: EZIPEK_clean_linker_0, # of connection points: 2
#     Edge 232, Type (0, 0), BuildingBlock: EZIPEK_clean_linker_0, # of connection points: 2
#     Edge 233, Type (0, 0), BuildingBlock: EZIPEK_clean_linker_0, # of connection points: 2
#     Edge 234, Type (0, 0), BuildingBlock: EZIPEK_clean_linker_0, # of connection points: 2
#     Edge 235, Type (0, 0), BuildingBlock: EZIPEK_clean_linker_0, # of connection points: 2
#     Edge 236, Type (0, 0), BuildingBlock: EZIPEK_clean_linker_0, # of connection points: 2
#     Edge 237, Type (0, 0), BuildingBlock: EZIPEK_clean_linker_0, # of connection points: 2
#     Edge 238, Type (0, 0), BuildingBlock: EZIPEK_clean_linker_0, # of connection points: 2
#     Edge 239, Type (0, 0), BuildingBlock: EZIPEK_clean_linker_0, # of connection points: 2
#     Edge 240, Type (0, 0), BuildingBlock: EZIPEK_clean_linker_0, # of connection points: 2
#     Edge 241, Type (0, 0), BuildingBlock: EZIPEK_clean_linker_0, # of connection points: 2
#     Edge 242, Type (0, 0), BuildingBlock: EZIPEK_clean_linker_0, # of connection points: 2
#     Edge 243, Type (0, 0), BuildingBlock: EZIPEK_clean_linker_0, # of connection points: 2
#     Edge 244, Type (0, 0), BuildingBlock: EZIPEK_clean_linker_0, # of connection points: 2
#     Edge 245, Type (0, 0), BuildingBlock: EZIPEK_clean_linker_0, # of connection points: 2
#     Edge 246, Type (0, 0), BuildingBlock: EZIPEK_clean_linker_0, # of connection points: 2
#     Edge 247, Type (0, 0), BuildingBlock: EZIPEK_clean_linker_0, # of connection points: 2
#     Edge 248, Type (0, 0), BuildingBlock: EZIPEK_clean_linker_0, # of connection points: 2
#     Edge 249, Type (0, 0), BuildingBlock: EZIPEK_clean_linker_0, # of connection points: 2
#     Edge 250, Type (0, 0), BuildingBlock: EZIPEK_clean_linker_0, # of connection points: 2
#     Edge 251, Type (0, 0), BuildingBlock: EZIPEK_clean_linker_0, # of connection points: 2
#     Edge 252, Type (0, 0), BuildingBlock: EZIPEK_clean_linker_0, # of connection points: 2
#     Edge 253, Type (0, 0), BuildingBlock: EZIPEK_clean_linker_0, # of connection points: 2
#     Edge 254, Type (0, 0), BuildingBlock: EZIPEK_clean_linker_0, # of connection points: 2
#     Edge 255, Type (0, 0), BuildingBlock: EZIPEK_clean_linker_0, # of connection points: 2
#     Edge 256, Type (0, 0), BuildingBlock: EZIPEK_clean_linker_0, # of connection points: 2
#     Edge 257, Type (0, 0), BuildingBlock: EZIPEK_clean_linker_0, # of connection points: 2
#     Edge 258, Type (0, 0), BuildingBlock: EZIPEK_clean_linker_0, # of connection points: 2
#     Edge 259, Type (0, 0), BuildingBlock: EZIPEK_clean_linker_0, # of connection points: 2
#     Edge 260, Type (0, 0), BuildingBlock: EZIPEK_clean_linker_0, # of connection points: 2
#     Edge 261, Type (0, 0), BuildingBlock: EZIPEK_clean_linker_0, # of connection points: 2
#     Edge 262, Type (0, 0), BuildingBlock: EZIPEK_clean_linker_0, # of connection points: 2
#     Edge 263, Type (0, 0), BuildingBlock: EZIPEK_clean_linker_0, # of connection points: 2
#     Edge 264, Type (0, 0), BuildingBlock: EZIPEK_clean_linker_0, # of connection points: 2
#     Edge 265, Type (0, 0), BuildingBlock: EZIPEK_clean_linker_0, # of connection points: 2
#     Edge 266, Type (0, 0), BuildingBlock: EZIPEK_clean_linker_0, # of connection points: 2
#     Edge 267, Type (0, 0), BuildingBlock: EZIPEK_clean_linker_0, # of connection points: 2
#     Edge 268, Type (0, 0), BuildingBlock: EZIPEK_clean_linker_0, # of connection points: 2
#     Edge 269, Type (0, 0), BuildingBlock: EZIPEK_clean_linker_0, # of connection points: 2
#     Edge 270, Type (0, 0), BuildingBlock: EZIPEK_clean_linker_0, # of connection points: 2
#     Edge 271, Type (0, 0), BuildingBlock: EZIPEK_clean_linker_0, # of connection points: 2
#     Edge 272, Type (0, 0), BuildingBlock: EZIPEK_clean_linker_0, # of connection points: 2
#     Edge 273, Type (0, 0), BuildingBlock: EZIPEK_clean_linker_0, # of connection points: 2
#     Edge 274, Type (0, 0), BuildingBlock: EZIPEK_clean_linker_0, # of connection points: 2
#     Edge 275, Type (0, 0), BuildingBlock: EZIPEK_clean_linker_0, # of connection points: 2
#     Edge 276, Type (0, 0), BuildingBlock: EZIPEK_clean_linker_0, # of connection points: 2
#     Edge 277, Type (0, 0), BuildingBlock: EZIPEK_clean_linker_0, # of connection points: 2
#     Edge 278, Type (0, 0), BuildingBlock: EZIPEK_clean_linker_0, # of connection points: 2
#     Edge 279, Type (0, 0), BuildingBlock: EZIPEK_clean_linker_0, # of connection points: 2
#     Edge 280, Type (0, 0), BuildingBlock: EZIPEK_clean_linker_0, # of connection points: 2
#     Edge 281, Type (0, 0), BuildingBlock: EZIPEK_clean_linker_0, # of connection points: 2
#     Edge 282, Type (0, 0), BuildingBlock: EZIPEK_clean_linker_0, # of connection points: 2
#     Edge 283, Type (0, 0), BuildingBlock: EZIPEK_clean_linker_0, # of connection points: 2
#     Edge 284, Type (0, 0), BuildingBlock: EZIPEK_clean_linker_0, # of connection points: 2
#     Edge 285, Type (0, 0), BuildingBlock: EZIPEK_clean_linker_0, # of connection points: 2
#     Edge 286, Type (0, 0), BuildingBlock: EZIPEK_clean_linker_0, # of connection points: 2
#     Edge 287, Type (0, 0), BuildingBlock: EZIPEK_clean_linker_0, # of connection points: 2
# Relax obj value: 0.530
# Max RMSD: 0.157
# Mean RMSD: 0.157
data_MOF--net-ulg--node1-KUFVIS_clean_sbu_0--edge1-EZIPEK_clean_linker_0
_symmetry_space_group_name_H-M    P1
_symmetry_Int_Tables_number       1
_symmetry_cell_setting            triclinic
loop_
_symmetry_equiv_pos_as_xyz
'x, y, z'
_cell_length_a     68.43757
_cell_length_b     68.442664
_cell_length_c     68.46256
_cell_angle_alpha  90.016597
_cell_angle_beta   90.001719
_cell_angle_gamma 89.972049
loop_
_atom_site_label
_atom_site_type_symbol
_atom_site_fract_x
_atom_site_fract_y
_atom_site_fract_z
_atom_type_partial_charge
Mn0 Mn 0.05219 0.52831 0.15144 0.0
Mn1 Mn 0.07211 0.56978 0.15418 0.0
C2 C 0.03411 0.55593 0.13601 0.0
C3 C 0.03543 0.50644 0.17024 0.0
C4 C 0.08419 0.53538 0.12403 0.0
O5 O 0.07814 0.52426 0.16857 0.0
O6 O 0.07834 0.55458 0.17769 0.0
C7 C 0.05758 0.58723 0.19409 0.0
N8 N 0.05867 0.58937 0.17091 0.0
C9 C 0.06 0.63069 0.16534 0.0
C10 C 0.05972 0.62957 0.2042 0.0
C11 C 0.05844 0.60551 0.21121 0.0
C12 C 0.0594 0.60755 0.15721 0.0
H13 H 0.05723 0.57266 0.20005 0.0
C14 C 0.0858 0.53788 0.17889 0.0
O15 O 0.04615 0.50078 0.15564 0.0
O16 O 0.03542 0.52493 0.17445 0.0
N17 N 0.06673 0.58599 0.13351 0.0
C18 C 0.06617 0.58111 0.11471 0.0
C19 C 0.06968 0.59559 0.10136 0.0
C20 C 0.07567 0.61403 0.10818 0.0
C21 C 0.07014 0.61955 0.12655 0.0
C22 C 0.0651 0.60454 0.139 0.0
H23 H 0.06406 0.56612 0.11032 0.0
O24 O 0.02847 0.53795 0.13424 0.0
O25 O 0.04834 0.55659 0.14872 0.0
O26 O 0.06871 0.52567 0.12683 0.0
O27 O 0.08781 0.55032 0.13549 0.0
C28 C 0.06846 0.63921 0.13165 0.0
C29 C 0.06243 0.64486 0.15009 0.0
H30 H 0.0604 0.64098 0.21531 0.0
H31 H 0.05819 0.60186 0.22657 0.0
H32 H 0.06768 0.59143 0.08653 0.0
H33 H 0.08239 0.62504 0.09959 0.0
H34 H 0.07126 0.65047 0.12087 0.0
H35 H 0.06085 0.66023 0.15187 0.0
Mn36 Mn 0.71237 0.30333 0.40279 0.0
Mn37 Mn 0.67452 0.32761 0.38828 0.0
C38 C 0.68788 0.2873 0.38122 0.0
C39 C 0.72815 0.28106 0.42234 0.0
C40 C 0.71331 0.3338 0.36993 0.0
O41 O 0.71267 0.32512 0.42475 0.0
O42 O 0.68844 0.34144 0.41115 0.0
C43 C 0.65659 0.32246 0.42812 0.0
N44 N 0.65383 0.32325 0.40537 0.0
C45 C 0.61347 0.32643 0.39985 0.0
C46 C 0.61571 0.32534 0.43915 0.0
C47 C 0.6393 0.32358 0.44534 0.0
C48 C 0.6362 0.32544 0.39164 0.0
H49 H 0.67095 0.31937 0.43339 0.0
C50 C 0.70122 0.33992 0.4248 0.0
O51 O 0.73799 0.29338 0.41188 0.0
O52 O 0.70934 0.28306 0.42283 0.0
N53 N 0.65886 0.31733 0.36661 0.0
C54 C 0.66747 0.31083 0.34626 0.0
C55 C 0.65946 0.31633 0.32367 0.0
C56 C 0.63962 0.33063 0.32033 0.0
C57 C 0.62506 0.33985 0.35692 0.0
C58 C 0.64048 0.32852 0.37294 0.0
H59 H 0.68244 0.30606 0.34624 0.0
O60 O 0.70603 0.28249 0.38156 0.0
O61 O 0.68468 0.30181 0.39327 0.0
O62 O 0.72281 0.32315 0.38188 0.0
O63 O 0.69495 0.33439 0.36998 0.0
C64 C 0.60525 0.33713 0.36563 0.0
C65 C 0.59996 0.32992 0.38453 0.0
H66 H 0.60474 0.32555 0.45051 0.0
H67 H 0.6433 0.32229 0.46055 0.0
H68 H 0.66846 0.31234 0.3114 0.0
H69 H 0.63585 0.33659 0.30716 0.0
H70 H 0.59212 0.3389 0.35711 0.0
H71 H 0.58466 0.32763 0.38677 0.0
Mn72 Mn 0.94217 0.96767 0.65415 0.0
Mn73 Mn 0.92261 0.92547 0.65617 0.0
C74 C 0.96047 0.94019 0.63851 0.0
C75 C 0.96032 0.98955 0.67148 0.0
C76 C 0.91042 0.96016 0.62634 0.0
O77 O 0.91645 0.97124 0.67161 0.0
O78 O 0.91575 0.94045 0.67961 0.0
C79 C 0.93653 0.9077 0.69624 0.0
N80 N 0.93594 0.90581 0.67302 0.0
C81 C 0.9354 0.86447 0.66699 0.0
C82 C 0.93492 0.86518 0.70583 0.0
C83 C 0.93566 0.8892 0.71314 0.0
C84 C 0.93577 0.88773 0.65911 0.0
H85 H 0.93645 0.9222 0.70237 0.0
C86 C 0.90847 0.95723 0.68116 0.0
O87 O 0.94848 0.99547 0.65795 0.0
O88 O 0.95948 0.97132 0.67659 0.0
N89 N 0.92853 0.90943 0.63551 0.0
C90 C 0.92932 0.91451 0.61679 0.0
C91 C 0.92637 0.90013 0.60322 0.0
C92 C 0.92076 0.88144 0.6096 0.0
C93 C 0.92593 0.87585 0.62807 0.0
C94 C 0.93037 0.89083 0.64083 0.0
H95 H 0.93124 0.92959 0.61264 0.0
O96 O 0.96565 0.95824 0.63669 0.0
O97 O 0.94632 0.9392 0.65131 0.0
O98 O 0.92542 0.97033 0.6298 0.0
O99 O 0.90699 0.94481 0.63732 0.0
C100 C 0.92786 0.85617 0.633 0.0
C101 C 0.93347 0.8504 0.65155 0.0
H102 H 0.93426 0.85365 0.71681 0.0
H103 H 0.93554 0.89269 0.72854 0.0
H104 H 0.9288 0.90448 0.58853 0.0
H105 H 0.91465 0.87039 0.60057 0.0
H106 H 0.92552 0.84498 0.62204 0.0
H107 H 0.93504 0.83499 0.65325 0.0
Mn108 Mn 0.27908 0.19223 0.90326 0.0
Mn109 Mn 0.32131 0.17454 0.90797 0.0
C110 C 0.30591 0.21119 0.88728 0.0
C111 C 0.25591 0.2081 0.92178 0.0
C112 C 0.28784 0.159 0.87736 0.0
O113 O 0.27651 0.16656 0.92111 0.0
O114 O 0.30637 0.16876 0.93165 0.0
C115 C 0.33788 0.19478 0.94735 0.0
N116 N 0.34011 0.19006 0.92451 0.0
C117 C 0.38115 0.18975 0.91883 0.0
C118 C 0.38105 0.19511 0.95726 0.0
C119 C 0.35662 0.19685 0.96454 0.0
C120 C 0.35824 0.1884 0.91102 0.0
H121 H 0.32325 0.19504 0.95328 0.0
C122 C 0.29013 0.16021 0.93231 0.0
O123 O 0.25113 0.19699 0.90716 0.0
O124 O 0.27438 0.20966 0.92576 0.0
N125 N 0.3372 0.17956 0.88721 0.0
C126 C 0.33186 0.17994 0.86853 0.0
C127 C 0.34622 0.17864 0.8548 0.0
C128 C 0.36545 0.17561 0.86074 0.0
C129 C 0.3706 0.18154 0.87916 0.0
C130 C 0.3555 0.18316 0.89249 0.0
H131 H 0.31669 0.1807 0.86444 0.0
O132 O 0.28764 0.21581 0.88529 0.0
O133 O 0.30716 0.19747 0.90062 0.0
O134 O 0.27762 0.17434 0.87935 0.0
O135 O 0.30278 0.1566 0.88941 0.0
C136 C 0.38986 0.18606 0.88386 0.0
C137 C 0.39527 0.19008 0.90292 0.0
H138 H 0.39276 0.19632 0.96805 0.0
H139 H 0.3531 0.19912 0.97977 0.0
H140 H 0.34145 0.18073 0.84045 0.0
H141 H 0.37665 0.17037 0.85149 0.0
H142 H 0.40118 0.18543 0.87279 0.0
H143 H 0.41073 0.19253 0.90433 0.0
Mn144 Mn 0.05287 0.46763 0.84419 0.0
Mn145 Mn 0.06813 0.42469 0.83897 0.0
C146 C 0.03298 0.4416 0.86039 0.0
C147 C 0.03742 0.49208 0.82748 0.0
C148 C 0.08605 0.45763 0.86846 0.0
O149 O 0.07871 0.46892 0.82615 0.0
O150 O 0.07312 0.43998 0.81507 0.0
C151 C 0.04465 0.40804 0.80163 0.0
N152 N 0.05081 0.40589 0.82409 0.0
C153 C 0.05363 0.36457 0.82926 0.0
C154 C 0.04589 0.36523 0.79107 0.0
C155 C 0.04256 0.38953 0.78444 0.0
C156 C 0.05415 0.38765 0.83732 0.0
H157 H 0.04367 0.42271 0.79584 0.0
C158 C 0.08385 0.45494 0.81476 0.0
O159 O 0.04974 0.49607 0.84128 0.0
O160 O 0.03549 0.47391 0.82234 0.0
N161 N 0.06388 0.40913 0.86006 0.0
C162 C 0.06444 0.41458 0.87864 0.0
C163 C 0.06739 0.4004 0.89226 0.0
C164 C 0.07195 0.38141 0.88609 0.0
C165 C 0.06572 0.3757 0.86784 0.0
C166 C 0.06128 0.39063 0.85506 0.0
H167 H 0.06366 0.42978 0.88261 0.0
O168 O 0.02912 0.46003 0.86252 0.0
O169 O 0.04624 0.43984 0.84677 0.0
O170 O 0.07051 0.46743 0.86765 0.0
O171 O 0.08778 0.44271 0.85628 0.0
C172 C 0.06271 0.35616 0.86307 0.0
C173 C 0.05709 0.35047 0.84447 0.0
H174 H 0.04495 0.35373 0.78003 0.0
H175 H 0.03937 0.39315 0.7694 0.0
H176 H 0.06616 0.40553 0.90656 0.0
H177 H 0.0783 0.37062 0.89522 0.0
H178 H 0.06456 0.34494 0.8741 0.0
H179 H 0.05533 0.33507 0.84301 0.0
Mn180 Mn 0.77849 0.3017 0.09445 0.0
Mn181 Mn 0.81989 0.32235 0.0916 0.0
C182 C 0.80682 0.28404 0.10933 0.0
C183 C 0.75774 0.28313 0.07613 0.0
C184 C 0.78546 0.33347 0.12242 0.0
O185 O 0.77366 0.32733 0.07718 0.0
O186 O 0.80426 0.32907 0.06857 0.0
C187 C 0.83687 0.30874 0.05097 0.0
N188 N 0.83937 0.30952 0.07413 0.0
C189 C 0.88081 0.31079 0.07906 0.0
C190 C 0.87912 0.311 0.04023 0.0
C191 C 0.85491 0.30981 0.03356 0.0
C192 C 0.85778 0.31008 0.08753 0.0
H193 H 0.82221 0.30852 0.04525 0.0
C194 C 0.78716 0.33558 0.06716 0.0
O195 O 0.75105 0.2936 0.09047 0.0
O196 O 0.77599 0.28499 0.07154 0.0
N197 N 0.83655 0.31663 0.11178 0.0
C198 C 0.832 0.31563 0.13064 0.0
C199 C 0.84666 0.31903 0.14378 0.0
C200 C 0.86501 0.32511 0.13684 0.0
C201 C 0.87024 0.32005 0.11826 0.0
C202 C 0.85503 0.31531 0.10592 0.0
H203 H 0.81711 0.31332 0.13525 0.0
O204 O 0.78898 0.27843 0.11157 0.0
O205 O 0.80703 0.29838 0.09675 0.0
O206 O 0.77555 0.31818 0.11914 0.0
O207 O 0.8005 0.33727 0.11109 0.0
C208 C 0.88982 0.31855 0.11281 0.0
C209 C 0.89521 0.313 0.09413 0.0
H210 H 0.89035 0.3118 0.02896 0.0
H211 H 0.85101 0.30978 0.01826 0.0
H212 H 0.84271 0.31666 0.15859 0.0
H213 H 0.87617 0.33156 0.14545 0.0
H214 H 0.90124 0.32111 0.12348 0.0
H215 H 0.91058 0.31162 0.09207 0.0
Mn216 Mn 0.94327 0.02786 0.34442 0.0
Mn217 Mn 0.92319 0.06938 0.34164 0.0
C218 C 0.96113 0.05586 0.3599 0.0
C219 C 0.96285 0.00775 0.32641 0.0
C220 C 0.91133 0.03504 0.37223 0.0
O221 O 0.91755 0.02325 0.32682 0.0
O222 O 0.91663 0.05392 0.31844 0.0
C223 C 0.93758 0.08585 0.30114 0.0
N224 N 0.93651 0.08852 0.32428 0.0
C225 C 0.93583 0.12996 0.32896 0.0
C226 C 0.93612 0.12803 0.29012 0.0
C227 C 0.93702 0.10378 0.28362 0.0
C228 C 0.93605 0.107 0.33757 0.0
H229 H 0.93777 0.07116 0.29551 0.0
C230 C 0.90976 0.03702 0.31673 0.0
O231 O 0.95191 0.00058 0.34015 0.0
O232 O 0.96037 0.02586 0.32172 0.0
N233 N 0.9289 0.08601 0.36185 0.0
C234 C 0.92973 0.08149 0.38074 0.0
C235 C 0.92666 0.09625 0.39385 0.0
C236 C 0.92097 0.11472 0.38682 0.0
C237 C 0.92609 0.11976 0.36819 0.0
C238 C 0.93061 0.10443 0.35593 0.0
H239 H 0.93164 0.06654 0.38536 0.0
O240 O 0.96658 0.03795 0.36188 0.0
O241 O 0.94688 0.0563 0.34722 0.0
O242 O 0.92644 0.0248 0.36893 0.0
O243 O 0.90787 0.05022 0.36098 0.0
C244 C 0.92795 0.13928 0.36263 0.0
C245 C 0.93372 0.14445 0.34395 0.0
H246 H 0.93564 0.13921 0.27877 0.0
H247 H 0.93722 0.09979 0.26834 0.0
H248 H 0.92889 0.09228 0.4087 0.0
H249 H 0.91474 0.12606 0.39537 0.0
H250 H 0.92561 0.1508 0.37324 0.0
H251 H 0.93553 0.15973 0.34186 0.0
Mn252 Mn 0.21913 0.18812 0.59553 0.0
Mn253 Mn 0.17832 0.16862 0.59086 0.0
C254 C 0.19231 0.20625 0.61292 0.0
C255 C 0.23976 0.20758 0.57793 0.0
C256 C 0.21336 0.15295 0.61874 0.0
O257 O 0.22235 0.16337 0.5764 0.0
O258 O 0.19329 0.16924 0.56675 0.0
C259 C 0.16018 0.19211 0.55563 0.0
N260 N 0.15782 0.18503 0.57787 0.0
C261 C 0.11626 0.18423 0.58308 0.0
C262 C 0.11762 0.19416 0.5452 0.0
C263 C 0.14192 0.19623 0.53872 0.0
C264 C 0.13946 0.18138 0.5911 0.0
H265 H 0.17477 0.19354 0.54984 0.0
C266 C 0.20831 0.15905 0.56489 0.0
O267 O 0.24667 0.19537 0.59069 0.0
O268 O 0.2213 0.2066 0.57389 0.0
N269 N 0.16311 0.16759 0.61233 0.0
C270 C 0.17178 0.16336 0.63165 0.0
C271 C 0.14726 0.15904 0.65517 0.0
C272 C 0.12501 0.16155 0.64401 0.0
C273 C 0.12418 0.16718 0.62185 0.0
C274 C 0.14224 0.17076 0.60775 0.0
H275 H 0.18631 0.1688 0.63431 0.0
O276 O 0.21048 0.21106 0.61423 0.0
O277 O 0.19094 0.19158 0.60072 0.0
O278 O 0.22174 0.16947 0.61823 0.0
O279 O 0.19878 0.14979 0.60637 0.0
C280 C 0.10623 0.1748 0.6164 0.0
C281 C 0.1018 0.18156 0.59796 0.0
H282 H 0.10626 0.19669 0.53426 0.0
H283 H 0.14574 0.20023 0.52393 0.0
H284 H 0.16617 0.17166 0.68745 0.0
H285 H 0.13723 0.16026 0.65233 0.0
H286 H 0.0946 0.17542 0.62709 0.0
H287 H 0.08672 0.18545 0.59658 0.0
Mn288 Mn 0.15215 0.05396 0.52609 0.0
Mn289 Mn 0.13547 0.07553 0.56543 0.0
C290 C 0.13392 0.03648 0.55169 0.0
C291 C 0.17375 0.0356 0.50793 0.0
C292 C 0.11528 0.07907 0.52437 0.0
O293 O 0.17182 0.07662 0.52605 0.0
O294 O 0.15649 0.0913 0.55056 0.0
C295 C 0.17611 0.08106 0.58505 0.0
N296 N 0.15428 0.07467 0.58742 0.0
C297 C 0.15148 0.0702 0.62845 0.0
C298 C 0.18813 0.08063 0.6261 0.0
C299 C 0.19303 0.08435 0.6023 0.0
C300 C 0.14233 0.06957 0.60555 0.0
H301 H 0.18186 0.08193 0.57085 0.0
C302 C 0.17012 0.09107 0.53755 0.0
O303 O 0.16109 0.04715 0.50003 0.0
O304 O 0.17418 0.03498 0.52691 0.0
N305 N 0.11512 0.06346 0.58264 0.0
C306 C 0.09442 0.06627 0.57305 0.0
C307 C 0.07648 0.08183 0.57956 0.0
C308 C 0.0784 0.0957 0.59995 0.0
C309 C 0.11228 0.08631 0.61795 0.0
C310 C 0.12334 0.06938 0.60313 0.0
H311 H 0.0913 0.05837 0.55979 0.0
O312 O 0.13301 0.03146 0.53339 0.0
O313 O 0.14474 0.05165 0.55456 0.0
O314 O 0.13015 0.0732 0.5151 0.0
O315 O 0.11514 0.07529 0.54271 0.0
C316 C 0.11892 0.08181 0.63743 0.0
C317 C 0.13576 0.07067 0.64205 0.0
H318 H 0.17971 0.07803 0.63028 0.0
H319 H 0.20762 0.08763 0.59748 0.0
H320 H 0.06398 0.08295 0.57009 0.0
H321 H 0.06776 0.10632 0.60338 0.0
H322 H 0.10952 0.08262 0.64933 0.0
H323 H 0.13736 0.06613 0.65711 0.0
Mn324 Mn 0.19387 0.40055 0.77598 0.0
Mn325 Mn 0.17439 0.38777 0.81808 0.0
C326 C 0.21207 0.38114 0.80037 0.0
C327 C 0.21188 0.4228 0.75821 0.0
C328 C 0.16531 0.36701 0.77687 0.0
O329 O 0.16949 0.41959 0.77673 0.0
O330 O 0.16015 0.41077 0.80634 0.0
C331 C 0.18898 0.42694 0.83716 0.0
N332 N 0.18453 0.40433 0.83936 0.0
C333 C 0.18176 0.39876 0.88048 0.0
C334 C 0.18853 0.4375 0.87937 0.0
C335 C 0.19089 0.44402 0.85531 0.0
C336 C 0.18181 0.39086 0.8572 0.0
H337 H 0.19065 0.43234 0.82247 0.0
C338 C 0.15795 0.42166 0.79137 0.0
O339 O 0.20028 0.41034 0.75 0.0
O340 O 0.21203 0.42315 0.77718 0.0
N341 N 0.18318 0.36474 0.83274 0.0
C342 C 0.17867 0.34515 0.82168 0.0
C343 C 0.16216 0.32751 0.82732 0.0
C344 C 0.14786 0.32961 0.84906 0.0
C345 C 0.15953 0.36231 0.86768 0.0
C346 C 0.17735 0.3727 0.85337 0.0
H347 H 0.18508 0.34334 0.80744 0.0
O348 O 0.21731 0.38155 0.78215 0.0
O349 O 0.19732 0.39225 0.80354 0.0
O350 O 0.17629 0.37739 0.76619 0.0
O351 O 0.16534 0.37038 0.79543 0.0
C352 C 0.15831 0.37117 0.88645 0.0
C353 C 0.17209 0.38514 0.89349 0.0
H354 H 0.18885 0.44874 0.89068 0.0
H355 H 0.19347 0.45914 0.85155 0.0
H356 H 0.16293 0.31612 0.81419 0.0
H357 H 0.15292 0.32476 0.83665 0.0
H358 H 0.1476 0.36629 0.89635 0.0
H359 H 0.17176 0.38742 0.90905 0.0
Mn360 Mn 0.83769 0.44265 0.02944 0.0
Mn361 Mn 0.83758 0.42247 0.07094 0.0
C362 C 0.85372 0.46118 0.05631 0.0
C363 C 0.81659 0.45825 0.00849 0.0
C364 C 0.86699 0.41154 0.0354 0.0
O365 O 0.82137 0.41618 0.02588 0.0
O366 O 0.81397 0.41492 0.05667 0.0
C367 C 0.79746 0.43555 0.08928 0.0
N368 N 0.82072 0.4352 0.09087 0.0
C369 C 0.82735 0.43485 0.13205 0.0
C370 C 0.78845 0.43403 0.13192 0.0
C371 C 0.78081 0.4346 0.108 0.0
C372 C 0.83488 0.43521 0.1087 0.0
H373 H 0.79114 0.43541 0.07487 0.0
C374 C 0.81208 0.40795 0.03985 0.0
O375 O 0.8317 0.44851 0.00227 0.0
O376 O 0.81369 0.45866 0.02721 0.0
N377 N 0.85836 0.42891 0.08656 0.0
C378 C 0.87697 0.43021 0.08113 0.0
C379 C 0.89085 0.42745 0.09523 0.0
C380 C 0.88489 0.42156 0.11401 0.0
C381 C 0.86637 0.42616 0.11996 0.0
C382 C 0.85327 0.43037 0.10525 0.0
H383 H 0.8808 0.43227 0.066 0.0
O384 O 0.85437 0.46696 0.0383 0.0
O385 O 0.84161 0.44645 0.05754 0.0
O386 O 0.86288 0.42677 0.02564 0.0
O387 O 0.85642 0.40761 0.05092 0.0
C388 C 0.86165 0.42779 0.13973 0.0
C389 C 0.84305 0.43302 0.14582 0.0
H390 H 0.77765 0.43321 0.1436 0.0
H391 H 0.76536 0.4343 0.10472 0.0
H392 H 0.90541 0.43023 0.0906 0.0
H393 H 0.89422 0.41558 0.12488 0.0
H394 H 0.87284 0.42564 0.15072 0.0
H395 H 0.84158 0.43451 0.16122 0.0
Mn396 Mn 0.8036 0.08969 0.27783 0.0
Mn397 Mn 0.82384 0.08884 0.31963 0.0
C398 C 0.78569 0.10607 0.30523 0.0
C399 C 0.78416 0.07122 0.25777 0.0
C400 C 0.83564 0.118 0.28411 0.0
O401 O 0.82919 0.07182 0.27409 0.0
O402 O 0.8312 0.06525 0.30521 0.0
C403 C 0.81009 0.0488 0.33761 0.0
N404 N 0.81069 0.07205 0.33935 0.0
C405 C 0.81053 0.07844 0.38055 0.0
C406 C 0.81091 0.03954 0.3802 0.0
C407 C 0.81058 0.03204 0.35624 0.0
C408 C 0.8106 0.08611 0.35726 0.0
H409 H 0.81033 0.04257 0.32316 0.0
C410 C 0.83764 0.06279 0.28823 0.0
O411 O 0.79534 0.08472 0.25054 0.0
O412 O 0.78622 0.06705 0.27608 0.0
N413 N 0.81763 0.10961 0.3354 0.0
C414 C 0.81664 0.12827 0.33008 0.0
C415 C 0.81934 0.14204 0.3443 0.0
C416 C 0.82478 0.13594 0.36316 0.0
C417 C 0.81993 0.11741 0.3689 0.0
C418 C 0.81581 0.10444 0.35402 0.0
H419 H 0.81476 0.1322 0.31494 0.0
O420 O 0.78037 0.10746 0.28725 0.0
O421 O 0.79999 0.09341 0.30622 0.0
O422 O 0.8206 0.1141 0.27398 0.0
O423 O 0.83904 0.10754 0.29983 0.0
C424 C 0.81789 0.11259 0.38859 0.0
C425 C 0.81228 0.09404 0.39445 0.0
H426 H 0.81143 0.02866 0.39184 0.0
H427 H 0.81075 0.0166 0.35288 0.0
H428 H 0.81674 0.15666 0.33973 0.0
H429 H 0.83061 0.1452 0.37418 0.0
H430 H 0.81999 0.12368 0.39971 0.0
H431 H 0.81041 0.09251 0.40979 0.0
Mn432 Mn 0.15129 0.93807 0.47138 0.0
Mn433 Mn 0.15319 0.91338 0.43289 0.0
C434 C 0.13262 0.95095 0.44232 0.0
C435 C 0.1699 0.95991 0.48838 0.0
C436 C 0.1261 0.90431 0.47002 0.0
O437 O 0.17047 0.91348 0.47787 0.0
O438 O 0.1777 0.91613 0.44772 0.0
C439 C 0.18823 0.93503 0.41092 0.0
N440 N 0.16664 0.92609 0.40992 0.0
C441 C 0.15867 0.92577 0.36864 0.0
C442 C 0.19522 0.94029 0.3679 0.0
C443 C 0.20315 0.94194 0.3918 0.0
C444 C 0.15281 0.92134 0.39246 0.0
H445 H 0.19485 0.93671 0.42512 0.0
C446 C 0.18065 0.90721 0.46354 0.0
O447 O 0.1568 0.94951 0.49732 0.0
O448 O 0.17308 0.95639 0.47006 0.0
N449 N 0.13029 0.91147 0.41837 0.0
C450 C 0.11083 0.90328 0.42757 0.0
C451 C 0.09191 0.88366 0.40059 0.0
C452 C 0.10557 0.88454 0.37876 0.0
C453 C 0.12626 0.89797 0.37816 0.0
C454 C 0.13708 0.91004 0.39676 0.0
H455 H 0.10621 0.90814 0.44165 0.0
O456 O 0.13154 0.95903 0.45931 0.0
O457 O 0.1456 0.93738 0.44308 0.0
O458 O 0.12858 0.92092 0.47753 0.0
O459 O 0.13772 0.89867 0.45575 0.0
C460 C 0.13125 0.90401 0.35947 0.0
C461 C 0.14489 0.91829 0.35477 0.0
H462 H 0.2052 0.94386 0.35595 0.0
H463 H 0.21772 0.94726 0.39481 0.0
H464 H 0.09626 0.88145 0.3874 0.0
H465 H 0.10287 0.87787 0.36267 0.0
H466 H 0.12241 0.89874 0.34782 0.0
H467 H 0.1453 0.92162 0.3394 0.0
Mn468 Mn 0.31062 0.40633 0.719 0.0
Mn469 Mn 0.33654 0.4039 0.67911 0.0
C470 C 0.29482 0.38992 0.69145 0.0
C471 C 0.28938 0.42371 0.73833 0.0
C472 C 0.34385 0.37648 0.71629 0.0
O473 O 0.33352 0.42609 0.72346 0.0
O474 O 0.34531 0.42716 0.69306 0.0
C475 C 0.33384 0.4431 0.6549 0.0
N476 N 0.32882 0.42052 0.65599 0.0
C477 C 0.3191 0.41186 0.616 0.0
C478 C 0.32721 0.44944 0.61246 0.0
C479 C 0.33355 0.45811 0.63506 0.0
C480 C 0.32279 0.4057 0.63994 0.0
H481 H 0.33826 0.45029 0.66812 0.0
C482 C 0.34447 0.43372 0.71036 0.0
O483 O 0.30111 0.41093 0.74592 0.0
O484 O 0.29171 0.42792 0.72002 0.0
N485 N 0.32853 0.38236 0.66571 0.0
C486 C 0.33249 0.36272 0.67455 0.0
C487 C 0.33657 0.34011 0.64925 0.0
C488 C 0.33396 0.35155 0.62754 0.0
C489 C 0.32888 0.37292 0.62664 0.0
C490 C 0.32618 0.38695 0.64439 0.0
H491 H 0.32748 0.35983 0.68924 0.0
O492 O 0.289 0.38843 0.70926 0.0
O493 O 0.30963 0.40259 0.69012 0.0
O494 O 0.32822 0.382 0.72474 0.0
O495 O 0.34922 0.38561 0.70052 0.0
C496 C 0.32081 0.37768 0.60863 0.0
C497 C 0.31471 0.396 0.60349 0.0
H498 H 0.32613 0.45939 0.60033 0.0
H499 H 0.33616 0.4735 0.6372 0.0
H500 H 0.32432 0.30707 0.66646 0.0
H501 H 0.33532 0.34334 0.63978 0.0
H502 H 0.31864 0.36646 0.59787 0.0
H503 H 0.30919 0.3972 0.58875 0.0
Mn504 Mn 0.84662 0.54964 0.9661 0.0
Mn505 Mn 0.85193 0.57277 0.92609 0.0
C506 C 0.86409 0.53249 0.94001 0.0
C507 C 0.82569 0.53 0.98352 0.0
C508 C 0.87526 0.58185 0.96308 0.0
O509 O 0.82827 0.57471 0.96863 0.0
O510 O 0.82623 0.58031 0.93693 0.0
C511 C 0.82101 0.54778 0.90207 0.0
N512 N 0.83903 0.56236 0.90398 0.0
C513 C 0.84798 0.57353 0.86546 0.0
C514 C 0.81739 0.5494 0.85855 0.0
C515 C 0.80952 0.54079 0.88087 0.0
C516 C 0.85155 0.57444 0.88948 0.0
H517 H 0.81513 0.5418 0.91546 0.0
C518 C 0.82082 0.58423 0.95422 0.0
O519 O 0.83904 0.54006 0.99253 0.0
O520 O 0.82373 0.53269 0.96495 0.0
N521 N 0.87589 0.56824 0.91336 0.0
C522 C 0.8962 0.56124 0.92136 0.0
C523 C 0.91858 0.56719 0.91299 0.0
C524 C 0.92119 0.58308 0.89431 0.0
C525 C 0.88474 0.59399 0.88235 0.0
C526 C 0.86886 0.58135 0.89659 0.0
H527 H 0.89617 0.55496 0.93568 0.0
O528 O 0.86459 0.52663 0.95783 0.0
O529 O 0.85257 0.5476 0.93826 0.0
O530 O 0.87093 0.56624 0.97219 0.0
O531 O 0.86634 0.58669 0.94745 0.0
C532 C 0.8755 0.59865 0.86402 0.0
C533 C 0.86123 0.58609 0.85521 0.0
H534 H 0.8097 0.54518 0.84519 0.0
H535 H 0.79721 0.53092 0.88154 0.0
H536 H 0.93134 0.5619 0.92059 0.0
H537 H 0.93421 0.58847 0.89003 0.0
H538 H 0.88174 0.60978 0.85489 0.0
H539 H 0.86077 0.5861 0.83989 0.0
Mn540 Mn 0.69228 0.08915 0.21498 0.0
Mn541 Mn 0.67054 0.09001 0.17339 0.0
C542 C 0.71015 0.10509 0.18863 0.0
C543 C 0.70843 0.06903 0.23641 0.0
C544 C 0.66081 0.11863 0.21058 0.0
O545 O 0.66666 0.07233 0.21783 0.0
O546 O 0.66242 0.066 0.18649 0.0
C547 C 0.678 0.05114 0.14827 0.0
N548 N 0.68077 0.07416 0.15037 0.0
C549 C 0.68176 0.0863 0.10999 0.0
C550 C 0.67624 0.04893 0.10467 0.0
C551 C 0.67545 0.0378 0.12719 0.0
C552 C 0.68283 0.09034 0.13464 0.0
H553 H 0.6765 0.04282 0.16153 0.0
C554 C 0.65782 0.06316 0.20414 0.0
O555 O 0.69795 0.0837 0.24227 0.0
O556 O 0.70874 0.06553 0.21776 0.0
N557 N 0.67789 0.11164 0.15983 0.0
C558 C 0.67876 0.12988 0.16697 0.0
C559 C 0.67599 0.14472 0.15399 0.0
C560 C 0.66928 0.13909 0.13551 0.0
C561 C 0.67682 0.12271 0.12764 0.0
C562 C 0.68026 0.10834 0.14071 0.0
H563 H 0.68059 0.13282 0.18228 0.0
O564 O 0.71605 0.10566 0.20661 0.0
O565 O 0.69561 0.09254 0.18661 0.0
O566 O 0.67657 0.11471 0.21946 0.0
O567 O 0.65663 0.10789 0.19525 0.0
C568 C 0.68017 0.12096 0.10777 0.0
C569 C 0.68337 0.10353 0.09862 0.0
H570 H 0.67632 0.04007 0.09155 0.0
H571 H 0.67368 0.02213 0.12807 0.0
H572 H 0.67703 0.15932 0.15951 0.0
H573 H 0.65792 0.14541 0.12716 0.0
H574 H 0.67952 0.13353 0.09908 0.0
H575 H 0.68469 0.10434 0.0829 0.0
Mn576 Mn 0.52856 0.14903 0.0501 0.0
Mn577 Mn 0.56774 0.14206 0.07424 0.0
C578 C 0.55571 0.13451 0.03025 0.0
C579 C 0.50986 0.17001 0.03186 0.0
C580 C 0.53087 0.11922 0.08145 0.0
O581 O 0.52548 0.16564 0.07673 0.0
O582 O 0.55697 0.16785 0.08138 0.0
C583 C 0.58943 0.17647 0.05472 0.0
N584 N 0.58974 0.15545 0.06467 0.0
C585 C 0.62934 0.14741 0.07149 0.0
C586 C 0.63233 0.18314 0.05448 0.0
C587 C 0.6091 0.19087 0.04932 0.0
C588 C 0.60579 0.14195 0.07309 0.0
H589 H 0.57532 0.18255 0.05107 0.0
C590 C 0.53997 0.17312 0.08613 0.0
O591 O 0.50178 0.15663 0.04251 0.0
O592 O 0.5284 0.17306 0.03432 0.0
N593 N 0.58039 0.11712 0.07061 0.0
C594 C 0.57072 0.09619 0.06629 0.0
C595 C 0.57898 0.07432 0.07415 0.0
C596 C 0.5993 0.07223 0.08798 0.0
C597 C 0.61458 0.10924 0.09308 0.0
C598 C 0.59971 0.12448 0.08066 0.0
H599 H 0.57371 0.11086 0.06794 0.0
O600 O 0.53775 0.13425 0.02464 0.0
O601 O 0.55646 0.1423 0.04789 0.0
O602 O 0.52289 0.12338 0.06514 0.0
O603 O 0.54593 0.12827 0.08736 0.0
C604 C 0.6338 0.11801 0.09463 0.0
C605 C 0.64103 0.1335 0.08215 0.0
H606 H 0.64474 0.19283 0.05173 0.0
H607 H 0.60685 0.20506 0.04275 0.0
H608 H 0.57123 0.06131 0.06977 0.0
H609 H 0.60522 0.05953 0.09183 0.0
H610 H 0.64442 0.11132 0.10393 0.0
H611 H 0.65636 0.13476 0.0812 0.0
Mn612 Mn 0.02919 0.84207 0.44361 0.0
Mn613 Mn 0.07131 0.8551 0.42417 0.0
C614 C 0.05375 0.8611 0.46199 0.0
C615 C 0.01099 0.8199 0.46105 0.0
C616 C 0.03009 0.87642 0.41605 0.0
O617 O 0.02965 0.82333 0.41925 0.0
O618 O 0.05888 0.83282 0.40949 0.0
C619 C 0.08939 0.81554 0.43896 0.0
N620 N 0.09234 0.83782 0.4333 0.0
C621 C 0.13345 0.84163 0.42897 0.0
C622 C 0.13121 0.80332 0.43805 0.0
C623 C 0.10696 0.79788 0.4414 0.0
C624 C 0.11059 0.85047 0.42944 0.0
H625 H 0.07453 0.81073 0.44109 0.0
C626 C 0.04402 0.82177 0.40741 0.0
O627 O 0.00311 0.83249 0.44938 0.0
O628 O 0.02996 0.8193 0.46153 0.0
N629 N 0.08703 0.87743 0.43314 0.0
C630 C 0.07622 0.89725 0.42893 0.0
C631 C 0.08223 0.91477 0.41272 0.0
C632 C 0.10276 0.91309 0.3989 0.0
C633 C 0.12201 0.88033 0.40934 0.0
C634 C 0.10766 0.86932 0.42693 0.0
H635 H 0.06195 0.89922 0.43515 0.0
O636 O 0.03549 0.86077 0.46716 0.0
O637 O 0.05695 0.85011 0.44717 0.0
O638 O 0.0194 0.86541 0.42632 0.0
O639 O 0.04868 0.87321 0.4162 0.0
C640 C 0.14024 0.8707 0.4064 0.0
C641 C 0.14622 0.85411 0.41743 0.0
H642 H 0.14201 0.79154 0.43798 0.0
H643 H 0.10268 0.78305 0.44473 0.0
H644 H 0.07161 0.92603 0.41023 0.0
H645 H 0.10557 0.92386 0.38777 0.0
H646 H 0.15089 0.87625 0.39624 0.0
H647 H 0.16043 0.84948 0.41329 0.0
Mn648 Mn 0.40305 0.27449 0.68917 0.0
Mn649 Mn 0.40118 0.31221 0.66295 0.0
C650 C 0.38478 0.30248 0.70397 0.0
C651 C 0.4227 0.25832 0.71111 0.0
C652 C 0.37728 0.27333 0.6548 0.0
O653 O 0.42248 0.26935 0.6647 0.0
O654 O 0.42835 0.30057 0.66385 0.0
C655 C 0.43267 0.34109 0.68079 0.0
N656 N 0.41098 0.33896 0.67274 0.0
C657 C 0.39748 0.37913 0.6729 0.0
C658 C 0.43396 0.3842 0.68723 0.0
C659 C 0.44484 0.36167 0.68805 0.0
C660 C 0.39486 0.35488 0.66822 0.0
H661 H 0.44117 0.3279 0.68222 0.0
C662 C 0.4327 0.2834 0.65759 0.0
O663 O 0.40978 0.24881 0.70098 0.0
O664 O 0.42522 0.27661 0.70713 0.0
N665 N 0.37632 0.32167 0.66237 0.0
C666 C 0.3519 0.30949 0.65844 0.0
C667 C 0.31 0.33044 0.66152 0.0
C668 C 0.31105 0.35664 0.65287 0.0
C669 C 0.35547 0.36524 0.65258 0.0
C670 C 0.37828 0.34833 0.66001 0.0
H671 H 0.35161 0.29497 0.6638 0.0
O672 O 0.38424 0.28503 0.71088 0.0
O673 O 0.39686 0.30289 0.68916 0.0
O674 O 0.37932 0.26718 0.67216 0.0
O675 O 0.38844 0.28768 0.64936 0.0
C676 C 0.36448 0.38421 0.65638 0.0
C677 C 0.3811 0.39045 0.66724 0.0
H678 H 0.44213 0.39713 0.69181 0.0
H679 H 0.4597 0.36043 0.69329 0.0
H680 H 0.29698 0.32018 0.66604 0.0
H681 H 0.30551 0.34394 0.65792 0.0
H682 H 0.35646 0.39688 0.65474 0.0
H683 H 0.38105 0.40599 0.67007 0.0
Mn684 Mn 0.96458 0.65271 0.94032 0.0
Mn685 Mn 0.92289 0.66236 0.92124 0.0
C686 C 0.93775 0.63705 0.9567 0.0
C687 C 0.98711 0.67071 0.95725 0.0
C688 C 0.95562 0.6287 0.90682 0.0
O689 O 0.96985 0.6696 0.91552 0.0
O690 O 0.94258 0.68337 0.92146 0.0
C691 C 0.90754 0.70119 0.93912 0.0
N692 N 0.90605 0.67788 0.93986 0.0
C693 C 0.86484 0.67132 0.94195 0.0
C694 C 0.86472 0.70974 0.93689 0.0
C695 C 0.88864 0.71761 0.93659 0.0
C696 C 0.8882 0.66355 0.94281 0.0
H697 H 0.92188 0.70754 0.93795 0.0
C698 C 0.95782 0.68285 0.91122 0.0
O699 O 0.99223 0.65598 0.94642 0.0
O700 O 0.96867 0.67509 0.95792 0.0
N701 N 0.90023 0.64637 0.91899 0.0
C702 C 0.88938 0.64652 0.90208 0.0
C703 C 0.87308 0.63463 0.90048 0.0
C704 C 0.86625 0.62539 0.91704 0.0
C705 C 0.87254 0.63275 0.93499 0.0
C706 C 0.88945 0.64518 0.93508 0.0
H707 H 0.89438 0.65305 0.88909 0.0
O708 O 0.95553 0.63556 0.96301 0.0
O709 O 0.93595 0.64978 0.94277 0.0
O710 O 0.96528 0.62952 0.92253 0.0
O711 O 0.94156 0.6421 0.90394 0.0
C712 C 0.85702 0.63684 0.94711 0.0
C713 C 0.85125 0.65614 0.94766 0.0
H714 H 0.85308 0.7206 0.93646 0.0
H715 H 0.89178 0.73302 0.93518 0.0
H716 H 0.86737 0.6313 0.88645 0.0
H717 H 0.85343 0.61612 0.91583 0.0
H718 H 0.84596 0.62581 0.94961 0.0
H719 H 0.83644 0.65816 0.9524 0.0
Mn720 Mn 0.09261 0.71535 0.19507 0.0
Mn721 Mn 0.09135 0.67464 0.17288 0.0
C722 C 0.10893 0.68706 0.21138 0.0
C723 C 0.07361 0.73257 0.21707 0.0
C724 C 0.121 0.71013 0.16256 0.0
O725 O 0.07416 0.7209 0.17017 0.0
O726 O 0.06841 0.68985 0.16514 0.0
C727 C 0.05058 0.65779 0.18594 0.0
N728 N 0.07375 0.65523 0.1853 0.0
C729 C 0.07873 0.61387 0.18458 0.0
C730 C 0.03985 0.61554 0.1842 0.0
C731 C 0.03317 0.63975 0.18504 0.0
C732 C 0.08718 0.63685 0.18503 0.0
H733 H 0.04488 0.67246 0.18598 0.0
C734 C 0.06561 0.70732 0.16034 0.0
O735 O 0.0872 0.74146 0.20723 0.0
O736 O 0.07016 0.71462 0.21277 0.0
N737 N 0.11149 0.65807 0.17893 0.0
C738 C 0.13028 0.66277 0.18023 0.0
C739 C 0.14363 0.6482 0.17745 0.0
C740 C 0.137 0.62965 0.17151 0.0
C741 C 0.11821 0.62441 0.1759 0.0
C742 C 0.10568 0.6396 0.18017 0.0
H743 H 0.13465 0.67775 0.18249 0.0
O744 O 0.11099 0.70475 0.21708 0.0
O745 O 0.09613 0.68689 0.1972 0.0
O746 O 0.11678 0.72025 0.17764 0.0
O747 O 0.11075 0.69438 0.15884 0.0
C748 C 0.11269 0.60485 0.17738 0.0
C749 C 0.09387 0.59949 0.1826 0.0
H750 H 0.02859 0.60429 0.1835 0.0
H751 H 0.01786 0.64365 0.18496 0.0
H752 H 0.15831 0.65233 0.18036 0.0
H753 H 0.14595 0.61845 0.16554 0.0
H754 H 0.12346 0.59342 0.17523 0.0
H755 H 0.09182 0.58417 0.18409 0.0
Mn756 Mn 0.4655 0.84258 0.05444 0.0
Mn757 Mn 0.42348 0.84031 0.07419 0.0
C758 C 0.43764 0.85838 0.0363 0.0
C759 C 0.48728 0.82517 0.03628 0.0
C760 C 0.45705 0.87023 0.08657 0.0
O761 O 0.46983 0.82419 0.07932 0.0
O762 O 0.43877 0.81762 0.08292 0.0
C763 C 0.40829 0.79933 0.06109 0.0
N764 N 0.40533 0.82242 0.06072 0.0
C765 C 0.36406 0.82674 0.05985 0.0
C766 C 0.36626 0.78803 0.06233 0.0
C767 C 0.39054 0.78169 0.06246 0.0
C768 C 0.38679 0.83556 0.05976 0.0
H769 H 0.42302 0.79398 0.06119 0.0
C770 C 0.45619 0.81463 0.08789 0.0
O771 O 0.49327 0.83904 0.04772 0.0
O772 O 0.46894 0.82045 0.03686 0.0
N773 N 0.40706 0.86041 0.06721 0.0
C774 C 0.41148 0.8794 0.06663 0.0
C775 C 0.39647 0.89251 0.06866 0.0
C776 C 0.37757 0.88553 0.07221 0.0
C777 C 0.37315 0.86669 0.06696 0.0
C778 C 0.38887 0.85429 0.06442 0.0
H779 H 0.42648 0.88412 0.06563 0.0
O780 O 0.4557 0.86053 0.03132 0.0
O781 O 0.43703 0.84536 0.05039 0.0
O782 O 0.46785 0.86652 0.072 0.0
O783 O 0.44147 0.85973 0.08963 0.0
C784 C 0.35407 0.86095 0.0628 0.0
C785 C 0.34946 0.8417 0.05882 0.0
H786 H 0.35517 0.7766 0.06294 0.0
H787 H 0.39467 0.76645 0.06319 0.0
H788 H 0.4003 0.90743 0.06683 0.0
H789 H 0.36594 0.89431 0.07768 0.0
H790 H 0.34259 0.87175 0.06153 0.0
H791 H 0.33462 0.83941 0.05487 0.0
Mn792 Mn 0.40574 0.21618 0.80191 0.0
Mn793 Mn 0.40411 0.17716 0.82611 0.0
C794 C 0.39043 0.18824 0.78412 0.0
C795 C 0.42662 0.23672 0.78536 0.0
C796 C 0.37701 0.21439 0.83482 0.0
O797 O 0.42298 0.22009 0.8275 0.0
O798 O 0.4288 0.18893 0.83326 0.0
C799 C 0.44099 0.15079 0.8181 0.0
N800 N 0.41816 0.1535 0.8171 0.0
C801 C 0.40487 0.11404 0.81567 0.0
C802 C 0.44218 0.10723 0.81746 0.0
C803 C 0.45407 0.12977 0.81842 0.0
C804 C 0.40137 0.13869 0.81615 0.0
H805 H 0.44977 0.16375 0.81964 0.0
C806 C 0.43217 0.20665 0.83683 0.0
O807 O 0.41158 0.24314 0.79499 0.0
O808 O 0.42957 0.21798 0.78549 0.0
N809 N 0.3816 0.16563 0.81907 0.0
C810 C 0.36501 0.17546 0.81487 0.0
C811 C 0.34875 0.1653 0.81084 0.0
C812 C 0.35031 0.14557 0.81156 0.0
C813 C 0.3674 0.13518 0.81589 0.0
C814 C 0.38335 0.14631 0.81752 0.0
H815 H 0.36446 0.19071 0.81263 0.0
O816 O 0.38932 0.20618 0.77809 0.0
O817 O 0.40228 0.18771 0.79953 0.0
O818 O 0.38018 0.22171 0.81801 0.0
O819 O 0.38811 0.19987 0.8399 0.0
C820 C 0.36908 0.11492 0.81742 0.0
C821 C 0.3864 0.10428 0.81579 0.0
H822 H 0.43159 0.10531 0.81706 0.0
H823 H 0.45672 0.11448 0.81758 0.0
H824 H 0.33534 0.17262 0.80655 0.0
H825 H 0.33843 0.14019 0.80471 0.0
H826 H 0.3566 0.10698 0.82114 0.0
H827 H 0.38442 0.08862 0.81597 0.0
Mn828 Mn 0.59296 0.27914 0.29923 0.0
Mn829 Mn 0.58967 0.30609 0.32601 0.0
C830 C 0.61423 0.30576 0.28588 0.0
C831 C 0.57059 0.26986 0.27579 0.0
C832 C 0.61992 0.2714 0.33153 0.0
O833 O 0.57066 0.27553 0.32337 0.0
O834 O 0.58919 0.28661 0.3463 0.0
C835 C 0.55283 0.32766 0.30784 0.0
N836 N 0.57503 0.32895 0.31499 0.0
C837 C 0.58294 0.37011 0.31241 0.0
C838 C 0.54565 0.37064 0.30112 0.0
C839 C 0.53738 0.34666 0.30128 0.0
C840 C 0.58929 0.34625 0.31757 0.0
H841 H 0.54647 0.31328 0.30709 0.0
C842 C 0.57286 0.27881 0.34204 0.0
O843 O 0.58172 0.25696 0.28416 0.0
O844 O 0.57108 0.28746 0.28246 0.0
N845 N 0.61136 0.32021 0.33368 0.0
C846 C 0.6316 0.31225 0.34407 0.0
C847 C 0.65429 0.34293 0.34517 0.0
C848 C 0.64369 0.36081 0.33503 0.0
C849 C 0.62178 0.36071 0.32772 0.0
C850 C 0.60712 0.34187 0.32626 0.0
H851 H 0.63313 0.29921 0.35213 0.0
O852 O 0.61273 0.28896 0.27748 0.0
O853 O 0.60432 0.30586 0.30205 0.0
O854 O 0.6167 0.26604 0.31407 0.0
O855 O 0.60767 0.28405 0.33847 0.0
C856 C 0.61649 0.37885 0.32044 0.0
C857 C 0.59853 0.38379 0.31362 0.0
H858 H 0.53574 0.38247 0.29698 0.0
H859 H 0.52249 0.34351 0.29704 0.0
H860 H 0.66965 0.34505 0.34858 0.0
H861 H 0.65386 0.36941 0.32774 0.0
H862 H 0.62636 0.391 0.32149 0.0
H863 H 0.59763 0.3992 0.31026 0.0
Mn864 Mn 0.05863 0.02591 0.6525 0.0
Mn865 Mn 0.08653 0.06341 0.65071 0.0
C866 C 0.04613 0.05453 0.63541 0.0
C867 C 0.03781 0.00734 0.67086 0.0
C868 C 0.09282 0.02649 0.62484 0.0
O869 O 0.08131 0.01986 0.67231 0.0
O870 O 0.09333 0.04991 0.67466 0.0
C871 C 0.07635 0.08451 0.68979 0.0
N872 N 0.0772 0.08574 0.66666 0.0
C873 C 0.07491 0.12687 0.65954 0.0
C874 C 0.07351 0.12678 0.69863 0.0
C875 C 0.07466 0.10306 0.70617 0.0
C876 C 0.07685 0.10309 0.65224 0.0
H877 H 0.07658 0.0703 0.69648 0.0
C878 C 0.09239 0.03246 0.68054 0.0
O879 O 0.04864 -0.0002 0.65727 0.0
O880 O 0.03962 0.02595 0.67418 0.0
N881 N 0.08167 0.07689 0.62754 0.0
C882 C 0.08945 0.06749 0.60776 0.0
C883 C 0.10743 0.09531 0.58812 0.0
C884 C 0.10619 0.11697 0.60161 0.0
C885 C 0.09391 0.11733 0.62259 0.0
C886 C 0.08305 0.09884 0.63402 0.0
H887 H 0.08502 0.0531 0.60344 0.0
O888 O 0.03789 0.03755 0.63363 0.0
O889 O 0.06015 0.05394 0.6485 0.0
O890 O 0.07624 0.01938 0.629 0.0
O891 O 0.0991 0.04137 0.63453 0.0
C892 C 0.08594 0.13561 0.62689 0.0
C893 C 0.07643 0.14056 0.64409 0.0
H894 H 0.07175 0.13831 0.70928 0.0
H895 H 0.07333 0.09954 0.72149 0.0
H896 H 0.10937 0.10854 0.59228 0.0
H897 H 0.11096 0.13359 0.59834 0.0
H898 H 0.08529 0.14598 0.61518 0.0
H899 H 0.07147 0.15543 0.64505 0.0
Mn900 Mn 0.71698 0.80148 0.8989 0.0
Mn901 Mn 0.67675 0.82465 0.892 0.0
C902 C 0.69118 0.78432 0.88106 0.0
C903 C 0.73489 0.78156 0.91889 0.0
C904 C 0.71413 0.83346 0.86961 0.0
O905 O 0.71911 0.82624 0.91757 0.0
O906 O 0.68767 0.83371 0.91711 0.0
C907 C 0.65393 0.80304 0.92557 0.0
N908 N 0.65491 0.81466 0.90558 0.0
C909 C 0.61568 0.82268 0.89592 0.0
C910 C 0.6107 0.80271 0.92975 0.0
C911 C 0.63343 0.79663 0.93823 0.0
C912 C 0.63968 0.82423 0.89194 0.0
H913 H 0.66768 0.7988 0.9321 0.0
C914 C 0.70466 0.83646 0.92391 0.0
O915 O 0.74354 0.79283 0.90634 0.0
O916 O 0.71628 0.78388 0.92142 0.0
N917 N 0.6639 0.81887 0.86814 0.0
C918 C 0.67223 0.81242 0.84778 0.0
C919 C 0.66396 0.81866 0.82541 0.0
C920 C 0.64503 0.8343 0.8229 0.0
C921 C 0.63239 0.84416 0.85943 0.0
C922 C 0.64672 0.83148 0.8751 0.0
H923 H 0.6867 0.80643 0.84782 0.0
O924 O 0.70907 0.77845 0.8808 0.0
O925 O 0.68916 0.79944 0.89255 0.0
O926 O 0.72344 0.81827 0.87481 0.0
O927 O 0.69781 0.83797 0.87722 0.0
C928 C 0.6136 0.84777 0.86854 0.0
C929 C 0.60489 0.83461 0.88249 0.0
H930 H 0.59779 0.79923 0.93851 0.0
H931 H 0.63483 0.78882 0.95189 0.0
H932 H 0.67155 0.81343 0.81262 0.0
H933 H 0.64026 0.8393 0.80995 0.0
H934 H 0.60428 0.8589 0.86259 0.0
H935 H 0.58947 0.83468 0.8835 0.0
Mn936 Mn 0.94054 0.46936 0.15189 0.0
Mn937 Mn 0.92189 0.42698 0.1542 0.0
C938 C 0.95903 0.4424 0.13563 0.0
C939 C 0.95894 0.49053 0.16973 0.0
C940 C 0.90829 0.46163 0.12465 0.0
O941 O 0.91515 0.47252 0.16984 0.0
O942 O 0.91527 0.44174 0.17784 0.0
C943 C 0.93741 0.40957 0.1939 0.0
N944 N 0.9361 0.40762 0.17072 0.0
C945 C 0.93634 0.36626 0.16476 0.0
C946 C 0.93708 0.36703 0.20361 0.0
C947 C 0.9375 0.39109 0.21085 0.0
C948 C 0.93593 0.38952 0.15686 0.0
H949 H 0.93724 0.42408 0.2 0.0
C950 C 0.90779 0.45839 0.1797 0.0
O951 O 0.94722 0.49702 0.1563 0.0
O952 O 0.95785 0.47221 0.1743 0.0
N953 N 0.92768 0.41108 0.13345 0.0
C954 C 0.92787 0.4162 0.11472 0.0
C955 C 0.92482 0.40178 0.10126 0.0
C956 C 0.91975 0.38298 0.10783 0.0
C957 C 0.92557 0.37746 0.12611 0.0
C958 C 0.93004 0.39252 0.13872 0.0
H959 H 0.92934 0.43131 0.11053 0.0
O960 O 0.96394 0.46054 0.13395 0.0
O961 O 0.94508 0.44111 0.14861 0.0
O962 O 0.92323 0.47211 0.12777 0.0
O963 O 0.90549 0.44617 0.1357 0.0
C964 C 0.928 0.35781 0.131 0.0
C965 C 0.93421 0.35214 0.1494 0.0
H966 H 0.93703 0.35555 0.21464 0.0
H967 H 0.93781 0.39461 0.22624 0.0
H968 H 0.92669 0.40625 0.08652 0.0
H969 H 0.91351 0.37179 0.0991 0.0
H970 H 0.92553 0.34658 0.12011 0.0
H971 H 0.93604 0.33675 0.15108 0.0
Mn972 Mn 0.27761 0.69061 0.4013 0.0
Mn973 Mn 0.32125 0.67508 0.39444 0.0
C974 C 0.30112 0.71228 0.38411 0.0
C975 C 0.25707 0.70506 0.42352 0.0
C976 C 0.28214 0.658 0.37271 0.0
O977 O 0.27956 0.66513 0.41898 0.0
O978 O 0.31177 0.66398 0.42 0.0
C979 C 0.34099 0.70229 0.42732 0.0
N980 N 0.34138 0.69172 0.40648 0.0
C981 C 0.38124 0.6853 0.39888 0.0
C982 C 0.38442 0.70081 0.43491 0.0
C983 C 0.36088 0.70681 0.44243 0.0
C984 C 0.35802 0.68492 0.39244 0.0
H985 H 0.32679 0.70512 0.43366 0.0
C986 C 0.29527 0.65754 0.42592 0.0
O987 O 0.25057 0.69369 0.40982 0.0
O988 O 0.27588 0.70722 0.4248 0.0
N989 N 0.33367 0.68332 0.37148 0.0
C990 C 0.3237 0.68348 0.355 0.0
C991 C 0.33361 0.66673 0.3157 0.0
C992 C 0.35307 0.65823 0.3192 0.0
C993 C 0.36435 0.66761 0.35906 0.0
C994 C 0.35272 0.67975 0.37347 0.0
H995 H 0.30879 0.68858 0.35714 0.0
O996 O 0.28248 0.71576 0.38378 0.0
O997 O 0.30444 0.69691 0.39465 0.0
O998 O 0.27233 0.67315 0.37715 0.0
O999 O 0.3002 0.6568 0.37942 0.0
C1000 C 0.38412 0.66749 0.36799 0.0
C1001 C 0.39252 0.6762 0.38461 0.0
H1002 H 0.39682 0.70281 0.44476 0.0
H1003 H 0.35857 0.71301 0.45677 0.0
H1004 H 0.32014 0.66932 0.30286 0.0
H1005 H 0.34219 0.66244 0.31281 0.0
H1006 H 0.39601 0.66331 0.36042 0.0
H1007 H 0.40822 0.67503 0.38593 0.0
Mn1008 Mn 0.05388 0.96514 0.34103 0.0
Mn1009 Mn 0.07261 0.92291 0.33538 0.0
C1010 C 0.03467 0.93892 0.35658 0.0
C1011 C 0.03849 0.98849 0.32267 0.0
C1012 C 0.08441 0.95397 0.36919 0.0
O1013 O 0.08009 0.96952 0.32511 0.0
O1014 O 0.07932 0.94021 0.3135 0.0
C1015 C 0.0617 0.90849 0.293 0.0
N1016 N 0.05891 0.90523 0.31595 0.0
C1017 C 0.05826 0.86356 0.31904 0.0
C1018 C 0.06556 0.86653 0.28121 0.0
C1019 C 0.06576 0.89103 0.27532 0.0
C1020 C 0.05638 0.88623 0.32823 0.0
H1021 H 0.06225 0.92328 0.28778 0.0
C1022 C 0.08728 0.95669 0.31378 0.0
O1023 O 0.04912 0.99306 0.33773 0.0
O1024 O 0.03771 0.97018 0.31782 0.0
N1025 N 0.06662 0.90476 0.35455 0.0
C1026 C 0.06521 0.90939 0.37398 0.0
C1027 C 0.05861 0.89431 0.38492 0.0
C1028 C 0.0576 0.87491 0.37842 0.0
C1029 C 0.05722 0.87136 0.35917 0.0
C1030 C 0.05915 0.88731 0.34715 0.0
H1031 H 0.07174 0.91214 0.36074 0.0
O1032 O 0.02969 0.9571 0.35721 0.0
O1033 O 0.04877 0.93671 0.3434 0.0
O1034 O 0.07002 0.96515 0.36583 0.0
O1035 O 0.08862 0.93987 0.35672 0.0
C1036 C 0.05458 0.85255 0.35253 0.0
C1037 C 0.05486 0.84847 0.33307 0.0
H1038 H 0.06723 0.85571 0.26969 0.0
H1039 H 0.06809 0.89545 0.26034 0.0
H1040 H 0.05564 0.89862 0.39898 0.0
H1041 H 0.0563 0.86239 0.38767 0.0
H1042 H 0.05318 0.84066 0.36274 0.0
H1043 H 0.05211 0.83361 0.3299 0.0
Mn1044 Mn 0.77831 0.80328 0.59126 0.0
Mn1045 Mn 0.82043 0.82299 0.58977 0.0
C1046 C 0.80577 0.78517 0.60742 0.0
C1047 C 0.75711 0.78476 0.57316 0.0
C1048 C 0.78531 0.83514 0.6193 0.0
O1049 O 0.77474 0.82891 0.57354 0.0
O1050 O 0.80572 0.83005 0.5662 0.0
C1051 C 0.83835 0.80867 0.54977 0.0
N1052 N 0.84015 0.8096 0.57299 0.0
C1053 C 0.88145 0.81003 0.57919 0.0
C1054 C 0.88096 0.80996 0.54033 0.0
C1055 C 0.85694 0.80922 0.53293 0.0
C1056 C 0.85815 0.80987 0.58696 0.0
H1057 H 0.82386 0.80874 0.5436 0.0
C1058 C 0.78885 0.83701 0.56419 0.0
O1059 O 0.75066 0.79613 0.58688 0.0
O1060 O 0.77547 0.78597 0.56868 0.0
N1061 N 0.83632 0.81701 0.61049 0.0
C1062 C 0.83113 0.81625 0.62919 0.0
C1063 C 0.84544 0.81911 0.64284 0.0
C1064 C 0.86418 0.82467 0.63653 0.0
C1065 C 0.86986 0.81959 0.61807 0.0
C1066 C 0.85495 0.81521 0.60524 0.0
H1067 H 0.81601 0.81446 0.63326 0.0
O1068 O 0.78774 0.77999 0.609 0.0
O1069 O 0.80679 0.7993 0.59459 0.0
O1070 O 0.77509 0.82018 0.6156 0.0
O1071 O 0.80086 0.8385 0.60856 0.0
C1072 C 0.88957 0.81768 0.61321 0.0
C1073 C 0.89542 0.81203 0.5947 0.0
H1074 H 0.89255 0.81046 0.5294 0.0
H1075 H 0.85352 0.80915 0.51751 0.0
H1076 H 0.84097 0.81673 0.65752 0.0
H1077 H 0.87523 0.83076 0.64555 0.0
H1078 H 0.9007 0.81998 0.62423 0.0
H1079 H 0.91081 0.81037 0.59311 0.0
Mn1080 Mn 0.93741 0.52719 0.83893 0.0
Mn1081 Mn 0.90563 0.56139 0.84238 0.0
C1082 C 0.94928 0.55632 0.85681 0.0
C1083 C 0.96008 0.51049 0.82094 0.0
C1084 C 0.90476 0.52385 0.86776 0.0
O1085 O 0.91436 0.51966 0.81928 0.0
O1086 O 0.90127 0.54899 0.81773 0.0
C1087 C 0.91505 0.58496 0.80424 0.0
N1088 N 0.91431 0.58485 0.82761 0.0
C1089 C 0.9232 0.62483 0.83691 0.0
C1090 C 0.92453 0.62672 0.79791 0.0
C1091 C 0.91959 0.60405 0.78892 0.0
C1092 C 0.91769 0.60097 0.84315 0.0
H1093 H 0.91259 0.57166 0.79642 0.0
C1094 C 0.90267 0.53196 0.81132 0.0
O1095 O 0.94882 0.50195 0.83342 0.0
O1096 O 0.95649 0.5288 0.81718 0.0
N1097 N 0.90651 0.57409 0.86602 0.0
C1098 C 0.89704 0.5654 0.8858 0.0
C1099 C 0.89729 0.59442 0.91124 0.0
C1100 C 0.9078 0.61321 0.90116 0.0
C1101 C 0.91416 0.61394 0.87803 0.0
C1102 C 0.914 0.59555 0.86231 0.0
H1103 H 0.88959 0.5517 0.88677 0.0
O1104 O 0.95818 0.53962 0.85718 0.0
O1105 O 0.93396 0.5552 0.84487 0.0
O1106 O 0.92181 0.51872 0.86293 0.0
O1107 O 0.89589 0.53711 0.85758 0.0
C1108 C 0.92007 0.63238 0.87135 0.0
C1109 C 0.92422 0.63797 0.85265 0.0
H1110 H 0.92847 0.63842 0.78796 0.0
H1111 H 0.91976 0.60163 0.77331 0.0
H1112 H 0.89357 0.59558 0.92662 0.0
H1113 H 0.91709 0.62032 0.91136 0.0
H1114 H 0.92071 0.64454 0.88075 0.0
H1115 H 0.92755 0.65335 0.85126 0.0
Mn1116 Mn 0.21896 0.69185 0.09473 0.0
Mn1117 Mn 0.17706 0.67236 0.0921 0.0
C1118 C 0.19142 0.70992 0.11065 0.0
C1119 C 0.23959 0.71102 0.07704 0.0
C1120 C 0.21156 0.65959 0.12208 0.0
O1121 O 0.22287 0.66638 0.07676 0.0
O1122 O 0.19212 0.66564 0.06866 0.0
C1123 C 0.16002 0.68746 0.05201 0.0
N1124 N 0.15778 0.68613 0.07517 0.0
C1125 C 0.1164 0.68588 0.08059 0.0
C1126 C 0.1176 0.68663 0.04175 0.0
C1127 C 0.14175 0.68734 0.03481 0.0
C1128 C 0.13953 0.68574 0.08878 0.0
H1129 H 0.17462 0.68745 0.04612 0.0
C1130 C 0.20895 0.65855 0.0669 0.0
O1131 O 0.24644 0.69959 0.09054 0.0
O1132 O 0.22139 0.70919 0.0723 0.0
N1133 N 0.16088 0.67813 0.11265 0.0
C1134 C 0.16574 0.67866 0.13147 0.0
C1135 C 0.15114 0.67575 0.14479 0.0
C1136 C 0.13253 0.67033 0.13796 0.0
C1137 C 0.12721 0.67576 0.11952 0.0
C1138 C 0.14238 0.68018 0.10706 0.0
H1139 H 0.18078 0.6803 0.13588 0.0
O1140 O 0.20944 0.71509 0.11258 0.0
O1141 O 0.1906 0.69587 0.09773 0.0
O1142 O 0.22188 0.67465 0.11895 0.0
O1143 O 0.19623 0.65647 0.11096 0.0
C1144 C 0.10761 0.67788 0.11434 0.0
C1145 C 0.10215 0.68383 0.09581 0.0
H1146 H 0.1062 0.68645 0.0306 0.0
H1147 H 0.14546 0.68769 0.01946 0.0
H1148 H 0.15539 0.67765 0.15961 0.0
H1149 H 0.12126 0.66402 0.1465 0.0
H1150 H 0.09626 0.67552 0.12513 0.0
H1151 H 0.08684 0.6858 0.09402 0.0
Mn1152 Mn 0.15527 0.5527 0.02871 0.0
Mn1153 Mn 0.15584 0.57308 0.06984 0.0
C1154 C 0.1384 0.53494 0.05575 0.0
C1155 C 0.1763 0.53227 0.0122 0.0
C1156 C 0.12666 0.58461 0.03415 0.0
O1157 O 0.17257 0.57858 0.02432 0.0
O1158 O 0.17949 0.58001 0.05527 0.0
C1159 C 0.19579 0.55845 0.08734 0.0
N1160 N 0.17259 0.55961 0.08935 0.0
C1161 C 0.16666 0.55933 0.13061 0.0
C1162 C 0.20556 0.55879 0.12983 0.0
C1163 C 0.21278 0.55843 0.10578 0.0
C1164 C 0.15874 0.55972 0.10741 0.0
H1165 H 0.20186 0.55856 0.07283 0.0
C1166 C 0.1817 0.5869 0.03844 0.0
O1167 O 0.16246 0.54133 0.00282 0.0
O1168 O 0.17904 0.53691 0.03013 0.0
N1169 N 0.13515 0.56725 0.0858 0.0
C1170 C 0.11646 0.5665 0.08063 0.0
C1171 C 0.10286 0.56937 0.09494 0.0
C1172 C 0.10916 0.57457 0.11381 0.0
C1173 C 0.12768 0.5694 0.11938 0.0
C1174 C 0.14046 0.56523 0.10437 0.0
H1175 H 0.11239 0.56466 0.06552 0.0
O1176 O 0.13775 0.52898 0.03792 0.0
O1177 O 0.15059 0.54953 0.05666 0.0
O1178 O 0.13054 0.56944 0.02392 0.0
O1179 O 0.13719 0.58808 0.04985 0.0
C1180 C 0.13267 0.56716 0.13902 0.0
C1181 C 0.15124 0.56134 0.14469 0.0
H1182 H 0.21659 0.559 0.14135 0.0
H1183 H 0.22818 0.55824 0.10224 0.0
H1184 H 0.08821 0.56698 0.09041 0.0
H1185 H 0.10004 0.58044 0.12492 0.0
H1186 H 0.12169 0.56929 0.15023 0.0
H1187 H 0.15293 0.5595 0.16003 0.0
Mn1188 Mn 0.19388 0.90605 0.2792 0.0
Mn1189 Mn 0.17115 0.90489 0.32046 0.0
C1190 C 0.2114 0.89006 0.30645 0.0
C1191 C 0.20987 0.92599 0.25744 0.0
C1192 C 0.16299 0.87568 0.28419 0.0
O1193 O 0.16844 0.92349 0.27518 0.0
O1194 O 0.16056 0.92705 0.30622 0.0
C1195 C 0.17239 0.94482 0.34202 0.0
N1196 N 0.18035 0.92303 0.34147 0.0
C1197 C 0.18479 0.91439 0.38226 0.0
C1198 C 0.17055 0.94997 0.3849 0.0
C1199 C 0.16696 0.95871 0.36186 0.0
C1200 C 0.18624 0.90874 0.35808 0.0
H1201 H 0.16938 0.95185 0.32839 0.0
C1202 C 0.15814 0.93156 0.28859 0.0
O1203 O 0.19987 0.91088 0.25193 0.0
O1204 O 0.21062 0.92956 0.27609 0.0
N1205 N 0.18015 0.88493 0.3355 0.0
C1206 C 0.18103 0.86632 0.32981 0.0
C1207 C 0.17926 0.85243 0.34393 0.0
C1208 C 0.17563 0.8588 0.36301 0.0
C1209 C 0.18318 0.87641 0.36841 0.0
C1210 C 0.18431 0.88994 0.35388 0.0
H1211 H 0.18238 0.86248 0.31463 0.0
O1212 O 0.21739 0.88923 0.2885 0.0
O1213 O 0.19671 0.90271 0.3078 0.0
O1214 O 0.17806 0.88067 0.27471 0.0
O1215 O 0.15872 0.88539 0.29998 0.0
C1216 C 0.1901 0.88022 0.3871 0.0
C1217 C 0.19113 0.89907 0.39433 0.0
H1218 H 0.16907 0.95976 0.3971 0.0
H1219 H 0.16214 0.97362 0.35979 0.0
H1220 H 0.18083 0.83771 0.33918 0.0
H1221 H 0.16898 0.85055 0.37431 0.0
H1222 H 0.19519 0.86827 0.39581 0.0
H1223 H 0.19598 0.9012 0.40895 0.0
Mn1224 Mn 0.8434 0.94301 0.52812 0.0
Mn1225 Mn 0.84088 0.92252 0.56966 0.0
C1226 C 0.85888 0.96059 0.55614 0.0
C1227 C 0.82525 0.9628 0.50812 0.0
C1228 C 0.87125 0.91081 0.53502 0.0
O1229 O 0.82571 0.91748 0.52351 0.0
O1230 O 0.81771 0.9158 0.55429 0.0
C1231 C 0.80041 0.93655 0.5866 0.0
N1232 N 0.82359 0.93573 0.58901 0.0
C1233 C 0.82872 0.93537 0.63043 0.0
C1234 C 0.78986 0.93532 0.62891 0.0
C1235 C 0.78308 0.93598 0.60473 0.0
C1236 C 0.83709 0.9355 0.60736 0.0
H1237 H 0.7946 0.9365 0.57198 0.0
C1238 C 0.81606 0.90914 0.53729 0.0
O1239 O 0.83917 0.9521 0.5009 0.0
O1240 O 0.8207 0.96019 0.52624 0.0
N1241 N 0.86116 0.92827 0.58617 0.0
C1242 C 0.87997 0.92921 0.58144 0.0
C1243 C 0.89326 0.92633 0.59605 0.0
C1244 C 0.88654 0.92069 0.61464 0.0
C1245 C 0.8679 0.92568 0.61986 0.0
C1246 C 0.85543 0.93006 0.60464 0.0
H1247 H 0.88438 0.93118 0.56646 0.0
O1248 O 0.86087 0.96609 0.53829 0.0
O1249 O 0.8462 0.94633 0.5566 0.0
O1250 O 0.86792 0.92603 0.52492 0.0
O1251 O 0.86013 0.90731 0.55029 0.0
C1252 C 0.86252 0.92761 0.63942 0.0
C1253 C 0.84386 0.93332 0.64479 0.0
H1254 H 0.77863 0.93474 0.64021 0.0
H1255 H 0.76775 0.93598 0.60091 0.0
H1256 H 0.90801 0.92891 0.59192 0.0
H1257 H 0.89537 0.91466 0.62589 0.0
H1258 H 0.87327 0.92533 0.65083 0.0
H1259 H 0.84187 0.935 0.66012 0.0
Mn1260 Mn 0.80603 0.5911 0.77737 0.0
Mn1261 Mn 0.83227 0.59505 0.818 0.0
C1262 C 0.79318 0.6089 0.80557 0.0
C1263 C 0.78356 0.57395 0.75969 0.0
C1264 C 0.83778 0.6217 0.77893 0.0
O1265 O 0.82723 0.56974 0.77245 0.0
O1266 O 0.8439 0.57587 0.79952 0.0
C1267 C 0.84205 0.55634 0.8351 0.0
N1268 N 0.82775 0.57448 0.83721 0.0
C1269 C 0.819 0.57384 0.87814 0.0
C1270 C 0.8433 0.54403 0.87553 0.0
C1271 C 0.85036 0.54135 0.85238 0.0
C1272 C 0.81695 0.58357 0.85526 0.0
H1273 H 0.84964 0.55371 0.82193 0.0
C1274 C 0.84164 0.56632 0.78376 0.0
O1275 O 0.7955 0.58602 0.75143 0.0
O1276 O 0.78575 0.57073 0.77824 0.0
N1277 N 0.82287 0.61265 0.83909 0.0
C1278 C 0.83132 0.6301 0.84273 0.0
C1279 C 0.83958 0.63371 0.8606 0.0
C1280 C 0.82954 0.62746 0.8767 0.0
C1281 C 0.81587 0.61285 0.87402 0.0
C1282 C 0.81587 0.60331 0.85534 0.0
H1283 H 0.82373 0.64289 0.838 0.0
O1284 O 0.78628 0.61112 0.78806 0.0
O1285 O 0.80654 0.59518 0.80645 0.0
O1286 O 0.82491 0.61385 0.76819 0.0
O1287 O 0.83917 0.61515 0.79643 0.0
C1288 C 0.808 0.6044 0.89073 0.0
C1289 C 0.80912 0.58451 0.89299 0.0
H1290 H 0.84932 0.53484 0.88629 0.0
H1291 H 0.86055 0.53004 0.8484 0.0
H1292 H 0.85244 0.64229 0.86169 0.0
H1293 H 0.83346 0.63266 0.8911 0.0
H1294 H 0.80539 0.61321 0.90362 0.0
H1295 H 0.80561 0.57898 0.90722 0.0
Mn1296 Mn 0.15904 0.44316 0.96482 0.0
Mn1297 Mn 0.15491 0.4149 0.92712 0.0
C1298 C 0.14178 0.45691 0.93612 0.0
C1299 C 0.18181 0.46402 0.9785 0.0
C1300 C 0.12962 0.41018 0.96753 0.0
O1301 O 0.17793 0.41944 0.9714 0.0
O1302 O 0.17731 0.40584 0.94214 0.0
C1303 C 0.19506 0.41767 0.90732 0.0
N1304 N 0.17235 0.4215 0.90534 0.0
C1305 C 0.16661 0.42099 0.86402 0.0
C1306 C 0.20483 0.4144 0.86567 0.0
C1307 C 0.2116 0.41401 0.88944 0.0
C1308 C 0.15865 0.42297 0.88731 0.0
H1309 H 0.20133 0.41767 0.92163 0.0
C1310 C 0.18433 0.40686 0.95909 0.0
O1311 O 0.16802 0.45618 0.98902 0.0
O1312 O 0.18215 0.45974 0.9602 0.0
N1313 N 0.13413 0.42093 0.90949 0.0
C1314 C 0.11589 0.427 0.91297 0.0
C1315 C 0.10189 0.42418 0.89901 0.0
C1316 C 0.1075 0.41673 0.88072 0.0
C1317 C 0.12671 0.41761 0.87554 0.0
C1318 C 0.13984 0.42036 0.89071 0.0
H1319 H 0.11185 0.43329 0.92676 0.0
O1320 O 0.1414 0.46501 0.95319 0.0
O1321 O 0.15335 0.4415 0.93655 0.0
O1322 O 0.13436 0.42672 0.975 0.0
O1323 O 0.13785 0.40589 0.95102 0.0
C1324 C 0.13213 0.41806 0.8558 0.0
C1325 C 0.15127 0.42126 0.85009 0.0
H1326 H 0.2157 0.41226 0.8545 0.0
H1327 H 0.22676 0.41194 0.89332 0.0
H1328 H 0.08762 0.4293 0.90279 0.0
H1329 H 0.09781 0.41268 0.86933 0.0
H1330 H 0.12104 0.41727 0.8445 0.0
H1331 H 0.1534 0.42369 0.83505 0.0
Mn1332 Mn 0.30472 0.90081 0.21702 0.0
Mn1333 Mn 0.32919 0.90572 0.17755 0.0
C1334 C 0.29046 0.88505 0.18768 0.0
C1335 C 0.28286 0.92046 0.23306 0.0
C1336 C 0.33925 0.87727 0.21745 0.0
O1337 O 0.32942 0.91885 0.22424 0.0
O1338 O 0.32506 0.92805 0.19506 0.0
C1339 C 0.30518 0.94119 0.15925 0.0
N1340 N 0.31249 0.91905 0.15674 0.0
C1341 C 0.31004 0.91355 0.11515 0.0
C1342 C 0.30057 0.95112 0.1166 0.0
C1343 C 0.29991 0.95795 0.141 0.0
C1344 C 0.31448 0.90569 0.13819 0.0
H1345 H 0.30482 0.94724 0.17379 0.0
C1346 C 0.33524 0.92966 0.21033 0.0
O1347 O 0.29246 0.90708 0.24249 0.0
O1348 O 0.28722 0.92333 0.21491 0.0
N1349 N 0.33636 0.88728 0.15631 0.0
C1350 C 0.35383 0.87785 0.15483 0.0
C1351 C 0.36663 0.87975 0.13927 0.0
C1352 C 0.35808 0.88144 0.12133 0.0
C1353 C 0.33857 0.8869 0.12079 0.0
C1354 C 0.32875 0.89206 0.13869 0.0
H1355 H 0.3524 0.86223 0.15349 0.0
O1356 O 0.28276 0.88329 0.20472 0.0
O1357 O 0.30647 0.89473 0.18862 0.0
O1358 O 0.32178 0.87763 0.22365 0.0
O1359 O 0.34352 0.88902 0.20213 0.0
C1360 C 0.32888 0.88695 0.10313 0.0
C1361 C 0.3133 0.89906 0.10043 0.0
H1362 H 0.29783 0.96203 0.10527 0.0
H1363 H 0.29622 0.97282 0.14486 0.0
H1364 H 0.38115 0.87352 0.1402 0.0
H1365 H 0.36638 0.87802 0.1084 0.0
H1366 H 0.33451 0.87891 0.09096 0.0
H1367 H 0.30725 0.899 0.08588 0.0
Mn1368 Mn 0.8411 0.05426 0.46768 0.0
Mn1369 Mn 0.83996 0.07317 0.42559 0.0
C1370 C 0.85765 0.03563 0.44122 0.0
C1371 C 0.8208 0.03806 0.48887 0.0
C1372 C 0.86913 0.08605 0.46062 0.0
O1373 O 0.82398 0.08026 0.47058 0.0
O1374 O 0.8161 0.07987 0.43994 0.0
C1375 C 0.80041 0.0582 0.40767 0.0
N1376 N 0.82364 0.0592 0.40602 0.0
C1377 C 0.83012 0.05915 0.3648 0.0
C1378 C 0.79124 0.05894 0.36508 0.0
C1379 C 0.7837 0.05847 0.38901 0.0
C1380 C 0.83774 0.05931 0.38813 0.0
H1381 H 0.79414 0.05821 0.4221 0.0
C1382 C 0.81426 0.08762 0.45643 0.0
O1383 O 0.83536 0.04861 0.49505 0.0
O1384 O 0.81777 0.03761 0.47018 0.0
N1385 N 0.86095 0.06731 0.41001 0.0
C1386 C 0.87962 0.06696 0.41538 0.0
C1387 C 0.89333 0.06984 0.40112 0.0
C1388 C 0.88704 0.075 0.38226 0.0
C1389 C 0.86876 0.06939 0.37651 0.0
C1390 C 0.85591 0.06501 0.39139 0.0
H1391 H 0.88361 0.06542 0.43053 0.0
O1392 O 0.85865 0.03032 0.45936 0.0
O1393 O 0.84504 0.04987 0.43969 0.0
O1394 O 0.86563 0.07103 0.47089 0.0
O1395 O 0.85829 0.08925 0.44511 0.0
C1396 C 0.86409 0.06707 0.3568 0.0
C1397 C 0.84569 0.06111 0.3509 0.0
H1398 H 0.78036 0.05928 0.35343 0.0
H1399 H 0.76825 0.05833 0.39233 0.0
H1400 H 0.90801 0.06784 0.40574 0.0
H1401 H 0.89599 0.08113 0.3712 0.0
H1402 H 0.87516 0.06941 0.34572 0.0
H1403 H 0.8442 0.05926 0.33551 0.0
Mn1404 Mn 0.6893 0.5888 0.71563 0.0
Mn1405 Mn 0.67252 0.58943 0.6706 0.0
C1406 C 0.70652 0.60868 0.692 0.0
C1407 C 0.70697 0.57357 0.73936 0.0
C1408 C 0.65922 0.62002 0.70339 0.0
O1409 O 0.66883 0.56673 0.71629 0.0
O1410 O 0.65383 0.5758 0.68903 0.0
C1411 C 0.66428 0.54629 0.66071 0.0
N1412 N 0.67983 0.56325 0.65769 0.0
C1413 C 0.68814 0.55956 0.61645 0.0
C1414 C 0.65949 0.53362 0.61927 0.0
C1415 C 0.65288 0.53203 0.64343 0.0
C1416 C 0.69215 0.56902 0.63938 0.0
H1417 H 0.65885 0.54452 0.67475 0.0
C1418 C 0.65435 0.56574 0.7048 0.0
O1419 O 0.69269 0.58514 0.7439 0.0
O1420 O 0.70998 0.56986 0.72099 0.0
N1421 N 0.68971 0.6005 0.65082 0.0
C1422 C 0.68895 0.61919 0.64501 0.0
C1423 C 0.69613 0.62419 0.62666 0.0
C1424 C 0.70867 0.61247 0.61676 0.0
C1425 C 0.70981 0.59334 0.62217 0.0
C1426 C 0.69907 0.58737 0.63894 0.0
H1427 H 0.6827 0.62985 0.65458 0.0
O1428 O 0.70954 0.60994 0.71059 0.0
O1429 O 0.69526 0.5933 0.68767 0.0
O1430 O 0.66742 0.60981 0.71666 0.0
O1431 O 0.66234 0.61576 0.68464 0.0
C1432 C 0.71494 0.58065 0.60714 0.0
C1433 C 0.70219 0.56587 0.60229 0.0
H1434 H 0.65264 0.52432 0.60882 0.0
H1435 H 0.64176 0.52177 0.64782 0.0
H1436 H 0.69078 0.6356 0.6184 0.0
H1437 H 0.71407 0.61749 0.60288 0.0
H1438 H 0.72506 0.58541 0.59595 0.0
H1439 H 0.70395 0.56019 0.58767 0.0
Mn1440 Mn 0.52375 0.65303 0.55795 0.0
Mn1441 Mn 0.56045 0.64909 0.58667 0.0
C1442 C 0.55238 0.63512 0.54572 0.0
C1443 C 0.50621 0.67108 0.53577 0.0
C1444 C 0.52376 0.62388 0.59133 0.0
O1445 O 0.51783 0.67367 0.58053 0.0
O1446 O 0.54652 0.6722 0.59552 0.0
C1447 C 0.58041 0.68975 0.58112 0.0
N1448 N 0.58208 0.66684 0.57803 0.0
C1449 C 0.62346 0.66166 0.57337 0.0
C1450 C 0.62227 0.70017 0.57933 0.0
C1451 C 0.59846 0.70665 0.58231 0.0
C1452 C 0.59952 0.6532 0.57451 0.0
H1453 H 0.56621 0.69605 0.58259 0.0
C1454 C 0.52994 0.67994 0.59346 0.0
O1455 O 0.49804 0.65825 0.54702 0.0
O1456 O 0.52473 0.67434 0.53841 0.0
N1457 N 0.57418 0.62568 0.58077 0.0
C1458 C 0.56744 0.6053 0.59104 0.0
C1459 C 0.59977 0.58839 0.60363 0.0
C1460 C 0.61901 0.60317 0.59685 0.0
C1461 C 0.61591 0.62328 0.58523 0.0
C1462 C 0.59578 0.63353 0.57823 0.0
H1463 H 0.55263 0.60089 0.59244 0.0
O1464 O 0.5354 0.63371 0.53743 0.0
O1465 O 0.55167 0.64805 0.55996 0.0
O1466 O 0.51619 0.6295 0.57536 0.0
O1467 O 0.53912 0.6322 0.59793 0.0
C1468 C 0.63156 0.62823 0.57326 0.0
C1469 C 0.63699 0.64702 0.56918 0.0
H1470 H 0.63339 0.71137 0.57948 0.0
H1471 H 0.5945 0.7218 0.58417 0.0
H1472 H 0.60109 0.57308 0.61244 0.0
H1473 H 0.61017 0.59415 0.60139 0.0
H1474 H 0.63935 0.61699 0.56612 0.0
H1475 H 0.65116 0.64919 0.56265 0.0
Mn1476 Mn 0.0305 0.34149 0.94415 0.0
Mn1477 Mn 0.06936 0.34352 0.92023 0.0
C1478 C 0.05876 0.35667 0.96213 0.0
C1479 C 0.00933 0.32104 0.96 0.0
C1480 C 0.03251 0.37082 0.91204 0.0
O1481 O 0.02633 0.32423 0.91834 0.0
O1482 O 0.0574 0.31924 0.91193 0.0
C1483 C 0.0937 0.30565 0.92685 0.0
N1484 N 0.09199 0.32859 0.92951 0.0
C1485 C 0.13184 0.34083 0.93031 0.0
C1486 C 0.13675 0.30267 0.92538 0.0
C1487 C 0.1143 0.29203 0.92474 0.0
C1488 C 0.10743 0.34499 0.93114 0.0
H1489 H 0.08041 0.29732 0.92609 0.0
C1490 C 0.03978 0.31528 0.90875 0.0
O1491 O 0.00346 0.33619 0.95024 0.0
O1492 O 0.02803 0.31764 0.96042 0.0
N1493 N 0.08149 0.36566 0.92793 0.0
C1494 C 0.07236 0.38267 0.93188 0.0
C1495 C 0.08337 0.39862 0.93531 0.0
C1496 C 0.10308 0.39631 0.93401 0.0
C1497 C 0.11278 0.37874 0.9302 0.0
C1498 C 0.10074 0.36322 0.92954 0.0
H1499 H 0.05699 0.38391 0.93374 0.0
O1500 O 0.04082 0.35787 0.96822 0.0
O1501 O 0.05894 0.34487 0.9467 0.0
O1502 O 0.02517 0.36716 0.92866 0.0
O1503 O 0.04723 0.36017 0.90672 0.0
C1504 C 0.13321 0.37615 0.92876 0.0
C1505 C 0.14289 0.35827 0.93078 0.0
H1506 H 0.14976 0.29357 0.92507 0.0
H1507 H 0.11312 0.27631 0.92375 0.0
H1508 H 0.07675 0.41248 0.93931 0.0
H1509 H 0.1092 0.40826 0.93998 0.0
H1510 H 0.14223 0.38801 0.92447 0.0
H1511 H 0.15866 0.35876 0.93008 0.0
Mn1512 Mn 0.40392 0.77682 0.19389 0.0
Mn1513 Mn 0.40504 0.81732 0.17297 0.0
C1514 C 0.39017 0.80516 0.21342 0.0
C1515 C 0.42318 0.75462 0.21027 0.0
C1516 C 0.37536 0.78342 0.16152 0.0
O1517 O 0.42098 0.77279 0.16764 0.0
O1518 O 0.42854 0.80367 0.16474 0.0
C1519 C 0.44506 0.8365 0.18392 0.0
N1520 N 0.42179 0.83708 0.18533 0.0
C1521 C 0.41341 0.87774 0.18708 0.0
C1522 C 0.4521 0.87941 0.18361 0.0
C1523 C 0.46076 0.85592 0.18262 0.0
C1524 C 0.40685 0.85401 0.18705 0.0
H1525 H 0.45201 0.82243 0.18289 0.0
C1526 C 0.43071 0.78641 0.15906 0.0
O1527 O 0.4081 0.74922 0.20011 0.0
O1528 O 0.42738 0.77309 0.21029 0.0
N1529 N 0.38363 0.8309 0.18061 0.0
C1530 C 0.36574 0.82308 0.18338 0.0
C1531 C 0.35067 0.83509 0.18751 0.0
C1532 C 0.35392 0.85473 0.18644 0.0
C1533 C 0.37332 0.86284 0.18619 0.0
C1534 C 0.38785 0.84941 0.18463 0.0
H1535 H 0.36328 0.80779 0.18407 0.0
O1536 O 0.38781 0.78706 0.21847 0.0
O1537 O 0.40179 0.8051 0.19799 0.0
O1538 O 0.37853 0.77422 0.17738 0.0
O1539 O 0.38663 0.79816 0.15741 0.0
C1540 C 0.37846 0.88303 0.18648 0.0
C1541 C 0.39721 0.89049 0.18736 0.0
H1542 H 0.46238 0.89151 0.18342 0.0
H1543 H 0.4763 0.85336 0.18132 0.0
H1544 H 0.33668 0.82897 0.19097 0.0
H1545 H 0.34047 0.86253 0.18479 0.0
H1546 H 0.36824 0.89416 0.18398 0.0
H1547 H 0.39824 0.9062 0.18717 0.0
Mn1548 Mn 0.96662 0.15499 0.44306 0.0
Mn1549 Mn 0.92517 0.15648 0.42205 0.0
C1550 C 0.93872 0.13915 0.46058 0.0
C1551 C 0.98652 0.17289 0.46296 0.0
C1552 C 0.96036 0.12659 0.41115 0.0
O1553 O 0.97117 0.17241 0.41734 0.0
O1554 O 0.94026 0.17969 0.41502 0.0
C1555 C 0.90758 0.19701 0.43474 0.0
N1556 N 0.90548 0.17378 0.43463 0.0
C1557 C 0.86415 0.1681 0.43407 0.0
C1558 C 0.86516 0.20696 0.4328 0.0
C1559 C 0.88924 0.21406 0.43346 0.0
C1560 C 0.88732 0.16003 0.43464 0.0
H1561 H 0.92213 0.20302 0.43469 0.0
C1562 C 0.9573 0.18146 0.4085 0.0
O1563 O 0.99382 0.15951 0.45167 0.0
O1564 O 0.9684 0.17763 0.4604 0.0
N1565 N 0.90888 0.13608 0.42804 0.0
C1566 C 0.9139 0.11737 0.42931 0.0
C1567 C 0.89952 0.10377 0.42669 0.0
C1568 C 0.88078 0.11007 0.42104 0.0
C1569 C 0.87527 0.12876 0.42562 0.0
C1570 C 0.89032 0.14157 0.42969 0.0
H1571 H 0.92896 0.11325 0.43143 0.0
O1572 O 0.95659 0.13758 0.4663 0.0
O1573 O 0.93811 0.15172 0.44618 0.0
O1574 O 0.97034 0.1305 0.42628 0.0
O1575 O 0.94488 0.13727 0.40737 0.0
C1576 C 0.85563 0.13393 0.42739 0.0
C1577 C 0.85001 0.1527 0.43251 0.0
H1578 H 0.85372 0.21802 0.43185 0.0
H1579 H 0.89286 0.22944 0.43304 0.0
H1580 H 0.90388 0.08915 0.42954 0.0
H1581 H 0.86971 0.10087 0.41519 0.0
H1582 H 0.84437 0.12299 0.42539 0.0
H1583 H 0.83465 0.15455 0.43411 0.0
Mn1584 Mn 0.09271 0.21634 0.69372 0.0
Mn1585 Mn 0.10091 0.17511 0.67154 0.0
C1586 C 0.10809 0.18989 0.71216 0.0
C1587 C 0.0714 0.23577 0.71082 0.0
C1588 C 0.12477 0.21454 0.6631 0.0
O1589 O 0.07521 0.21829 0.66873 0.0
O1590 O 0.07784 0.18738 0.65892 0.0
C1591 C 0.0619 0.15332 0.67928 0.0
N1592 N 0.08507 0.15329 0.67988 0.0
C1593 C 0.09473 0.11321 0.67982 0.0
C1594 C 0.05588 0.11042 0.67841 0.0
C1595 C 0.04665 0.13363 0.67833 0.0
C1596 C 0.10074 0.13683 0.68006 0.0
H1597 H 0.05481 0.16728 0.6792 0.0
C1598 C 0.06999 0.20418 0.65762 0.0
O1599 O 0.08533 0.24299 0.70023 0.0
O1600 O 0.06906 0.21695 0.71031 0.0
N1601 N 0.12236 0.16119 0.68252 0.0
C1602 C 0.13975 0.16995 0.68457 0.0
C1603 C 0.17792 0.15948 0.66668 0.0
C1604 C 0.17428 0.14283 0.65794 0.0
C1605 C 0.13507 0.13151 0.66646 0.0
C1606 C 0.12019 0.14246 0.67798 0.0
H1607 H 0.13844 0.18436 0.69125 0.0
O1608 O 0.10911 0.20794 0.71787 0.0
O1609 O 0.09767 0.18827 0.69622 0.0
O1610 O 0.11792 0.22363 0.67779 0.0
O1611 O 0.1185 0.19702 0.65973 0.0
C1612 C 0.12767 0.11069 0.66854 0.0
C1613 C 0.11147 0.10226 0.67824 0.0
H1614 H 0.04603 0.09799 0.67883 0.0
H1615 H 0.03101 0.13585 0.67798 0.0
H1616 H 0.1916 0.16753 0.66739 0.0
H1617 H 0.18582 0.13496 0.65087 0.0
H1618 H 0.13634 0.09863 0.66526 0.0
H1619 H 0.11152 0.08662 0.68071 0.0
Mn1620 Mn 0.46936 0.3459 0.55574 0.0
Mn1621 Mn 0.43065 0.34734 0.58167 0.0
C1622 C 0.43857 0.36179 0.54122 0.0
C1623 C 0.48539 0.32763 0.5324 0.0
C1624 C 0.47244 0.37012 0.59201 0.0
O1625 O 0.4758 0.32495 0.57859 0.0
O1626 O 0.44458 0.32143 0.58479 0.0
C1627 C 0.40826 0.30932 0.57356 0.0
N1628 N 0.40716 0.333 0.57347 0.0
C1629 C 0.36429 0.34046 0.57408 0.0
C1630 C 0.365 0.30013 0.57366 0.0
C1631 C 0.38924 0.29273 0.5735 0.0
C1632 C 0.389 0.34797 0.57411 0.0
H1633 H 0.42207 0.30203 0.57219 0.0
C1634 C 0.46211 0.31533 0.58723 0.0
O1635 O 0.49471 0.34068 0.54244 0.0
O1636 O 0.46728 0.32462 0.53663 0.0
N1637 N 0.41568 0.37124 0.57714 0.0
C1638 C 0.4271 0.39076 0.57447 0.0
C1639 C 0.41881 0.41394 0.57606 0.0
C1640 C 0.39539 0.4186 0.57996 0.0
C1641 C 0.3756 0.38388 0.58038 0.0
C1642 C 0.39343 0.36631 0.57818 0.0
H1643 H 0.44203 0.3895 0.56947 0.0
O1644 O 0.45607 0.36524 0.53507 0.0
O1645 O 0.44007 0.34952 0.5557 0.0
O1646 O 0.47887 0.36881 0.57457 0.0
O1647 O 0.4553 0.362 0.59439 0.0
C1648 C 0.35593 0.37645 0.57843 0.0
C1649 C 0.35072 0.35643 0.57527 0.0
H1650 H 0.35352 0.28937 0.57247 0.0
H1651 H 0.39271 0.2774 0.57206 0.0
H1652 H 0.42809 0.42599 0.57182 0.0
H1653 H 0.3904 0.43284 0.58279 0.0
H1654 H 0.34368 0.38622 0.57802 0.0
H1655 H 0.3354 0.35397 0.57333 0.0
Mn1656 Mn 0.40378 0.72076 0.30944 0.0
Mn1657 Mn 0.3983 0.68469 0.33877 0.0
C1658 C 0.38765 0.69218 0.29606 0.0
C1659 C 0.4225 0.73694 0.28685 0.0
C1660 C 0.37327 0.72291 0.34195 0.0
O1661 O 0.42336 0.72599 0.33269 0.0
O1662 O 0.42302 0.69625 0.34641 0.0
C1663 C 0.43495 0.65669 0.33504 0.0
N1664 N 0.41211 0.65846 0.33311 0.0
C1665 C 0.40061 0.61882 0.32473 0.0
C1666 C 0.43982 0.61411 0.3253 0.0
C1667 C 0.44983 0.6374 0.33139 0.0
C1668 C 0.39609 0.64264 0.33022 0.0
H1669 H 0.44298 0.6697 0.33844 0.0
C1670 C 0.4305 0.71309 0.34439 0.0
O1671 O 0.40969 0.7463 0.29722 0.0
O1672 O 0.42602 0.71893 0.29143 0.0
N1673 N 0.37478 0.67511 0.33151 0.0
C1674 C 0.34927 0.68569 0.33537 0.0
C1675 C 0.30944 0.66136 0.33612 0.0
C1676 C 0.31324 0.63661 0.34682 0.0
C1677 C 0.35743 0.63069 0.34413 0.0
C1678 C 0.37834 0.64866 0.33585 0.0
H1679 H 0.34817 0.70002 0.32967 0.0
O1680 O 0.38618 0.70923 0.28822 0.0
O1681 O 0.39959 0.69247 0.31129 0.0
O1682 O 0.37868 0.72892 0.3252 0.0
O1683 O 0.38269 0.70844 0.3495 0.0
C1684 C 0.36779 0.61195 0.34015 0.0
C1685 C 0.38355 0.60728 0.32698 0.0
H1686 H 0.44824 0.59901 0.32163 0.0
H1687 H 0.44738 0.62409 0.32807 0.0
H1688 H 0.29581 0.66876 0.33371 0.0
H1689 H 0.30349 0.62643 0.35158 0.0
H1690 H 0.36137 0.59839 0.34335 0.0
H1691 H 0.38362 0.59255 0.32135 0.0
Mn1692 Mn 0.58979 0.77719 0.8076 0.0
Mn1693 Mn 0.593 0.81186 0.83842 0.0
C1694 C 0.60657 0.80666 0.79472 0.0
C1695 C 0.56955 0.75892 0.78796 0.0
C1696 C 0.61898 0.77467 0.83984 0.0
O1697 O 0.57128 0.76971 0.83178 0.0
O1698 O 0.56823 0.7996 0.84306 0.0
C1699 C 0.55488 0.83488 0.8279 0.0
N1700 N 0.57823 0.83507 0.82911 0.0
C1701 C 0.58719 0.87526 0.82099 0.0
C1702 C 0.54819 0.87678 0.81918 0.0
C1703 C 0.53941 0.85386 0.82344 0.0
C1704 C 0.59362 0.8514 0.82616 0.0
H1705 H 0.54722 0.82137 0.82968 0.0
C1706 C 0.56264 0.78222 0.84278 0.0
O1707 O 0.58431 0.75157 0.7972 0.0
O1708 O 0.56647 0.77759 0.79007 0.0
N1709 N 0.61671 0.82451 0.83703 0.0
C1710 C 0.63657 0.81594 0.84653 0.0
C1711 C 0.66146 0.84539 0.84725 0.0
C1712 C 0.65131 0.86415 0.83714 0.0
C1713 C 0.62826 0.86479 0.83054 0.0
C1714 C 0.61278 0.84614 0.82997 0.0
H1715 H 0.63761 0.80239 0.85408 0.0
O1716 O 0.60686 0.78995 0.78578 0.0
O1717 O 0.59524 0.80522 0.8104 0.0
O1718 O 0.61461 0.76982 0.82257 0.0
O1719 O 0.60826 0.78762 0.84869 0.0
C1720 C 0.6213 0.88349 0.82573 0.0
C1721 C 0.60272 0.88873 0.82079 0.0
H1722 H 0.53805 0.88853 0.81573 0.0
H1723 H 0.52388 0.85112 0.82242 0.0
H1724 H 0.67677 0.84676 0.85111 0.0
H1725 H 0.66167 0.87134 0.82797 0.0
H1726 H 0.63029 0.89608 0.82656 0.0
H1727 H 0.60114 0.90418 0.81787 0.0
Mn1728 Mn 0.55444 0.52812 0.64976 0.0
Mn1729 Mn 0.57785 0.56918 0.64203 0.0
C1730 C 0.53768 0.55361 0.63277 0.0
C1731 C 0.53644 0.50887 0.67064 0.0
C1732 C 0.585 0.53084 0.6182 0.0
O1733 O 0.57883 0.52617 0.66789 0.0
O1734 O 0.58828 0.55732 0.66629 0.0
C1735 C 0.5661 0.5916 0.68065 0.0
N1736 N 0.56921 0.5917 0.6577 0.0
C1737 C 0.56919 0.63195 0.64836 0.0
C1738 C 0.56399 0.6346 0.68691 0.0
C1739 C 0.5637 0.61124 0.69595 0.0
C1740 C 0.57119 0.6082 0.64264 0.0
H1741 H 0.56504 0.57758 0.68753 0.0
C1742 C 0.5892 0.54043 0.67406 0.0
O1743 O 0.54735 0.5015 0.657 0.0
O1744 O 0.53713 0.5277 0.67296 0.0
N1745 N 0.56961 0.58233 0.61821 0.0
C1746 C 0.56964 0.57064 0.59858 0.0
C1747 C 0.58043 0.57597 0.57723 0.0
C1748 C 0.59304 0.59863 0.57452 0.0
C1749 C 0.58926 0.61769 0.6096 0.0
C1750 C 0.57635 0.60273 0.62433 0.0
H1751 H 0.56324 0.55644 0.59921 0.0
O1752 O 0.53123 0.5358 0.63267 0.0
O1753 O 0.55279 0.55607 0.64418 0.0
O1754 O 0.57037 0.52151 0.62474 0.0
O1755 O 0.58987 0.54712 0.62589 0.0
C1756 C 0.58175 0.63674 0.61536 0.0
C1757 C 0.56989 0.64285 0.63131 0.0
H1758 H 0.56139 0.6469 0.69671 0.0
H1759 H 0.56149 0.60887 0.7114 0.0
H1760 H 0.5877 0.58683 0.57294 0.0
H1761 H 0.60202 0.60494 0.56151 0.0
H1762 H 0.58143 0.64791 0.60572 0.0
H1763 H 0.56405 0.65753 0.63069 0.0
Mn1764 Mn 0.21822 0.30747 0.90253 0.0
Mn1765 Mn 0.18151 0.33651 0.89906 0.0
C1766 C 0.1895 0.29636 0.88425 0.0
C1767 C 0.2331 0.28328 0.92035 0.0
C1768 C 0.21917 0.3413 0.87371 0.0
O1769 O 0.2242 0.32986 0.92337 0.0
O1770 O 0.19495 0.34414 0.92287 0.0
C1771 C 0.16164 0.32339 0.93825 0.0
N1772 N 0.15987 0.3263 0.91523 0.0
C1773 C 0.11894 0.32227 0.9083 0.0
C1774 C 0.11954 0.31735 0.94722 0.0
C1775 C 0.14333 0.31921 0.95472 0.0
C1776 C 0.14233 0.32615 0.90102 0.0
H1777 H 0.17598 0.32401 0.9446 0.0
C1778 C 0.21179 0.34235 0.93015 0.0
O1779 O 0.24316 0.29387 0.90825 0.0
O1780 O 0.2151 0.28813 0.92345 0.0
N1781 N 0.16778 0.33126 0.87617 0.0
C1782 C 0.17699 0.33876 0.85632 0.0
C1783 C 0.15053 0.35884 0.83769 0.0
C1784 C 0.12864 0.3586 0.85156 0.0
C1785 C 0.12773 0.34527 0.87231 0.0
C1786 C 0.14614 0.33317 0.8831 0.0
H1787 H 0.19137 0.33418 0.85207 0.0
O1788 O 0.20614 0.28767 0.88275 0.0
O1789 O 0.19063 0.31038 0.89719 0.0
O1790 O 0.22656 0.32518 0.87942 0.0
O1791 O 0.2038 0.34824 0.88233 0.0
C1792 C 0.10901 0.33944 0.87804 0.0
C1793 C 0.10472 0.32675 0.89355 0.0
H1794 H 0.10802 0.31485 0.95792 0.0
H1795 H 0.14683 0.31761 0.97004 0.0
H1796 H 0.13736 0.36145 0.84214 0.0
H1797 H 0.11269 0.36553 0.84899 0.0
H1798 H 0.09714 0.34368 0.8688 0.0
H1799 H 0.08948 0.32306 0.89488 0.0
Mn1800 Mn 0.44066 0.96701 0.15556 0.0
Mn1801 Mn 0.41838 0.92555 0.15668 0.0
C1802 C 0.45639 0.93953 0.13843 0.0
C1803 C 0.46181 0.98643 0.17259 0.0
C1804 C 0.4075 0.96192 0.12749 0.0
O1805 O 0.41705 0.97102 0.1755 0.0
O1806 O 0.41191 0.93972 0.18093 0.0
C1807 C 0.43297 0.90578 0.19622 0.0
N1808 N 0.43055 0.90464 0.17308 0.0
C1809 C 0.43172 0.86354 0.16557 0.0
C1810 C 0.43514 0.86292 0.20435 0.0
C1811 C 0.43501 0.88673 0.21242 0.0
C1812 C 0.42994 0.88709 0.15867 0.0
H1813 H 0.43246 0.92006 0.20292 0.0
C1814 C 0.40908 0.95732 0.1856 0.0
O1815 O 0.44993 0.99403 0.15992 0.0
O1816 O 0.45963 0.96815 0.17689 0.0
N1817 N 0.42326 0.90965 0.13552 0.0
C1818 C 0.42407 0.91507 0.11683 0.0
C1819 C 0.42135 0.90091 0.10299 0.0
C1820 C 0.4157 0.88212 0.10904 0.0
C1821 C 0.4207 0.87615 0.12735 0.0
C1822 C 0.42467 0.89084 0.14051 0.0
H1823 H 0.42598 0.93018 0.11281 0.0
O1824 O 0.46221 0.95732 0.1366 0.0
O1825 O 0.44287 0.93842 0.15196 0.0
O1826 O 0.42253 0.97195 0.13171 0.0
O1827 O 0.40415 0.9462 0.13796 0.0
C1828 C 0.42288 0.85632 0.13169 0.0
C1829 C 0.42916 0.84997 0.14982 0.0
H1830 H 0.43685 0.85103 0.2148 0.0
H1831 H 0.43624 0.88972 0.22788 0.0
H1832 H 0.42392 0.90544 0.08836 0.0
H1833 H 0.40958 0.87112 0.10004 0.0
H1834 H 0.42054 0.84549 0.12039 0.0
H1835 H 0.43091 0.8345 0.15093 0.0
Mn1836 Mn 0.77788 0.19274 0.40048 0.0
Mn1837 Mn 0.81981 0.17354 0.40347 0.0
C1838 C 0.80509 0.21104 0.38474 0.0
C1839 C 0.75482 0.20763 0.41966 0.0
C1840 C 0.78556 0.16051 0.37348 0.0
O1841 O 0.77451 0.16691 0.41773 0.0
O1842 O 0.80474 0.16755 0.42709 0.0
C1843 C 0.83715 0.18903 0.44313 0.0
N1844 N 0.83928 0.18746 0.41997 0.0
C1845 C 0.88065 0.18664 0.41438 0.0
C1846 C 0.87956 0.18778 0.45322 0.0
C1847 C 0.85547 0.18885 0.46024 0.0
C1848 C 0.85748 0.1867 0.40627 0.0
H1849 H 0.82258 0.18929 0.44909 0.0
C1850 C 0.78817 0.15983 0.42833 0.0
O1851 O 0.75015 0.19728 0.40449 0.0
O1852 O 0.77331 0.20953 0.42358 0.0
N1853 N 0.83596 0.17874 0.38272 0.0
C1854 C 0.83101 0.17891 0.36394 0.0
C1855 C 0.84549 0.17537 0.35062 0.0
C1856 C 0.86414 0.17002 0.35733 0.0
C1857 C 0.8696 0.17584 0.37565 0.0
C1858 C 0.85452 0.18072 0.38813 0.0
H1859 H 0.81599 0.18077 0.35958 0.0
O1860 O 0.78698 0.2164 0.38304 0.0
O1861 O 0.80614 0.19711 0.39776 0.0
O1862 O 0.77576 0.17596 0.37607 0.0
O1863 O 0.80052 0.15721 0.38503 0.0
C1864 C 0.88924 0.1779 0.38072 0.0
C1865 C 0.89486 0.18407 0.39916 0.0
H1866 H 0.89098 0.18753 0.46434 0.0
H1867 H 0.85183 0.18939 0.4756 0.0
H1868 H 0.84122 0.17718 0.33583 0.0
H1869 H 0.87525 0.16359 0.34857 0.0
H1870 H 0.90052 0.17517 0.36994 0.0
H1871 H 0.91026 0.18559 0.40097 0.0
Mn1872 Mn 0.55423 0.46096 0.33794 0.0
Mn1873 Mn 0.57637 0.419 0.33251 0.0
C1874 C 0.53796 0.43445 0.35338 0.0
C1875 C 0.53788 0.48358 0.31929 0.0
C1876 C 0.58659 0.45435 0.36548 0.0
O1877 O 0.57936 0.46585 0.32205 0.0
O1878 O 0.57887 0.43659 0.3098 0.0
C1879 C 0.56795 0.39628 0.29337 0.0
N1880 N 0.56263 0.39799 0.31595 0.0
C1881 C 0.5579 0.35724 0.32676 0.0
C1882 C 0.56915 0.35271 0.29015 0.0
C1883 C 0.57213 0.3755 0.27999 0.0
C1884 C 0.55674 0.38195 0.33139 0.0
H1885 H 0.57144 0.40964 0.28579 0.0
C1886 C 0.58621 0.45354 0.31012 0.0
O1887 O 0.54822 0.48851 0.33437 0.0
O1888 O 0.53742 0.46513 0.31473 0.0
N1889 N 0.57581 0.39908 0.35146 0.0
C1890 C 0.59349 0.38926 0.35414 0.0
C1891 C 0.59283 0.37514 0.36836 0.0
C1892 C 0.57497 0.36899 0.37585 0.0
C1893 C 0.5584 0.37179 0.36449 0.0
C1894 C 0.55975 0.38663 0.35035 0.0
H1895 H 0.58644 0.40266 0.35195 0.0
O1896 O 0.53105 0.45207 0.35389 0.0
O1897 O 0.55221 0.4322 0.34074 0.0
O1898 O 0.57063 0.46312 0.36255 0.0
O1899 O 0.59121 0.43983 0.35301 0.0
C1900 C 0.54821 0.35473 0.36064 0.0
C1901 C 0.55117 0.34576 0.34275 0.0
H1902 H 0.57041 0.33981 0.28097 0.0
H1903 H 0.57628 0.37679 0.26481 0.0
H1904 H 0.60641 0.37083 0.37475 0.0
H1905 H 0.57513 0.35865 0.38742 0.0
H1906 H 0.54405 0.34568 0.37261 0.0
H1907 H 0.54874 0.33032 0.34229 0.0
Mn1908 Mn 0.27714 0.30359 0.59656 0.0
Mn1909 Mn 0.3188 0.32608 0.60281 0.0
C1910 C 0.30456 0.28497 0.61057 0.0
C1911 C 0.25699 0.28511 0.57704 0.0
C1912 C 0.28048 0.33641 0.62691 0.0
O1913 O 0.27427 0.32741 0.57799 0.0
O1914 O 0.30472 0.33877 0.58049 0.0
C1915 C 0.33754 0.31929 0.56378 0.0
N1916 N 0.33968 0.31905 0.58651 0.0
C1917 C 0.38014 0.3204 0.59245 0.0
C1918 C 0.37907 0.32062 0.55369 0.0
C1919 C 0.35538 0.31998 0.5472 0.0
C1920 C 0.35733 0.31941 0.60075 0.0
H1921 H 0.32305 0.31835 0.55792 0.0
C1922 C 0.28778 0.33913 0.57267 0.0
O1923 O 0.25017 0.29622 0.59076 0.0
O1924 O 0.27565 0.28585 0.57384 0.0
N1925 N 0.33424 0.31424 0.62303 0.0
C1926 C 0.3254 0.31127 0.64023 0.0
C1927 C 0.33652 0.32718 0.67915 0.0
C1928 C 0.35339 0.3364 0.67584 0.0
C1929 C 0.36426 0.33111 0.63583 0.0
C1930 C 0.35318 0.31924 0.62072 0.0
H1931 H 0.31076 0.30525 0.63885 0.0
O1932 O 0.28645 0.28006 0.61323 0.0
O1933 O 0.30573 0.30099 0.6 0.0
O1934 O 0.27067 0.32164 0.62108 0.0
O1935 O 0.29811 0.33811 0.62079 0.0
C1936 C 0.38324 0.33581 0.62561 0.0
C1937 C 0.39142 0.32826 0.60802 0.0
H1938 H 0.38299 0.32086 0.5623 0.0
H1939 H 0.35133 0.31869 0.53203 0.0
H1940 H 0.32787 0.32595 0.69222 0.0
H1941 H 0.3609 0.34339 0.68802 0.0
H1942 H 0.39421 0.34553 0.63125 0.0
H1943 H 0.40635 0.33257 0.60597 0.0
Mn1944 Mn 0.43659 0.02587 0.84131 0.0
Mn1945 Mn 0.40632 0.06102 0.8441 0.0
C1946 C 0.44959 0.05515 0.8584 0.0
C1947 C 0.45711 0.00788 0.82193 0.0
C1948 C 0.40397 0.02401 0.87026 0.0
O1949 O 0.41288 0.01862 0.82222 0.0
O1950 O 0.40113 0.0484 0.81958 0.0
C1951 C 0.41756 0.08262 0.80454 0.0
N1952 N 0.41613 0.08345 0.82865 0.0
C1953 C 0.42487 0.12549 0.83724 0.0
C1954 C 0.42703 0.1266 0.79709 0.0
C1955 C 0.42246 0.1024 0.78829 0.0
C1956 C 0.41915 0.10071 0.84413 0.0
H1957 H 0.41559 0.06892 0.79721 0.0
C1958 C 0.40171 0.03109 0.81376 0.0
O1959 O 0.44696 0.0002 0.83589 0.0
O1960 O 0.45473 0.02648 0.81868 0.0
N1961 N 0.40813 0.07428 0.86759 0.0
C1962 C 0.39884 0.06611 0.88775 0.0
C1963 C 0.39786 0.09581 0.91178 0.0
C1964 C 0.4077 0.11454 0.90126 0.0
C1965 C 0.41414 0.11501 0.87817 0.0
C1966 C 0.41489 0.09595 0.86311 0.0
H1967 H 0.39178 0.0524 0.8893 0.0
O1968 O 0.45815 0.03827 0.85906 0.0
O1969 O 0.43418 0.05393 0.84666 0.0
O1970 O 0.42098 0.01847 0.86568 0.0
O1971 O 0.39551 0.03745 0.85988 0.0
C1972 C 0.41931 0.13369 0.87109 0.0
C1973 C 0.42481 0.13897 0.8526 0.0
H1974 H 0.43057 0.1383 0.78694 0.0
H1975 H 0.4234 0.09952 0.77279 0.0
H1976 H 0.39415 0.09747 0.9271 0.0
H1977 H 0.41712 0.12172 0.91142 0.0
H1978 H 0.41851 0.14632 0.88004 0.0
H1979 H 0.42783 0.15438 0.85087 0.0
Mn1980 Mn 0.7157 0.1899 0.0895 0.0
Mn1981 Mn 0.67593 0.16495 0.09503 0.0
C1982 C 0.68747 0.20641 0.10617 0.0
C1983 C 0.73561 0.20858 0.0701 0.0
C1984 C 0.71241 0.15996 0.12242 0.0
O1985 O 0.72047 0.16656 0.06958 0.0
O1986 O 0.69248 0.15174 0.07486 0.0
C1987 C 0.65805 0.15965 0.05467 0.0
N1988 N 0.65601 0.16953 0.07542 0.0
C1989 C 0.61493 0.17446 0.07916 0.0
C1990 C 0.61693 0.15774 0.04436 0.0
C1991 C 0.64036 0.15334 0.03903 0.0
C1992 C 0.638 0.17632 0.08743 0.0
H1993 H 0.67212 0.15628 0.04932 0.0
C1994 C 0.7085 0.15277 0.06569 0.0
O1995 O 0.7423 0.19776 0.0841 0.0
O1996 O 0.71684 0.20838 0.06718 0.0
N1997 N 0.65879 0.17583 0.11303 0.0
C1998 C 0.66288 0.17908 0.13188 0.0
C1999 C 0.64793 0.17712 0.14501 0.0
C2000 C 0.6293 0.17187 0.13806 0.0
C2001 C 0.62471 0.17545 0.11904 0.0
C2002 C 0.64042 0.17701 0.10651 0.0
H2003 H 0.67778 0.18109 0.13671 0.0
O2004 O 0.70544 0.21217 0.10765 0.0
O2005 O 0.68668 0.19142 0.09381 0.0
O2006 O 0.72316 0.17249 0.11394 0.0
O2007 O 0.69517 0.15754 0.11616 0.0
C2008 C 0.60529 0.17765 0.11294 0.0
C2009 C 0.60053 0.1792 0.09335 0.0
H2010 H 0.60614 0.15533 0.03287 0.0
H2011 H 0.6441 0.14687 0.02511 0.0
H2012 H 0.65178 0.17988 0.15983 0.0
H2013 H 0.61771 0.16616 0.14658 0.0
H2014 H 0.59359 0.17834 0.12361 0.0
H2015 H 0.58559 0.18171 0.09016 0.0
Mn2016 Mn 0.65347 0.05401 0.02574 0.0
Mn2017 Mn 0.64982 0.08489 0.05999 0.0
C2018 C 0.63401 0.04298 0.05489 0.0
C2019 C 0.6738 0.02905 0.01584 0.0
C2020 C 0.62618 0.08845 0.01942 0.0
O2021 O 0.67434 0.07659 0.01834 0.0
O2022 O 0.674 0.09025 0.04735 0.0
C2023 C 0.6886 0.06958 0.07952 0.0
N2024 N 0.66564 0.07347 0.08193 0.0
C2025 C 0.65956 0.06817 0.12317 0.0
C2026 C 0.69856 0.06262 0.12238 0.0
C2027 C 0.70591 0.06486 0.0971 0.0
C2028 C 0.65171 0.0728 0.09967 0.0
H2029 H 0.69462 0.06979 0.06506 0.0
C2030 C 0.68126 0.08895 0.03075 0.0
O2031 O 0.66197 0.03732 0.00348 0.0
O2032 O 0.67513 0.03656 0.03303 0.0
N2033 N 0.62711 0.08423 0.0744 0.0
C2034 C 0.60698 0.09375 0.067 0.0
C2035 C 0.58537 0.09845 0.09818 0.0
C2036 C 0.5972 0.08969 0.11654 0.0
C2037 C 0.61935 0.08172 0.11566 0.0
C2038 C 0.63284 0.07887 0.09599 0.0
H2039 H 0.60357 0.09181 0.05259 0.0
O2040 O 0.63366 0.03383 0.03841 0.0
O2041 O 0.64552 0.05821 0.05277 0.0
O2042 O 0.63074 0.07102 0.01411 0.0
O2043 O 0.6338 0.0954 0.03567 0.0
C2044 C 0.62629 0.07542 0.1337 0.0
C2045 C 0.64483 0.06941 0.13771 0.0
H2046 H 0.70873 0.05985 0.13657 0.0
H2047 H 0.70521 0.0632 0.11104 0.0
H2048 H 0.56976 0.10101 0.10046 0.0
H2049 H 0.58753 0.0801 0.12363 0.0
H2050 H 0.61702 0.07544 0.14628 0.0
H2051 H 0.64688 0.06621 0.15299 0.0
Mn2052 Mn 0.69332 0.40754 0.28516 0.0
Mn2053 Mn 0.66978 0.41095 0.32682 0.0
C2054 C 0.70845 0.39135 0.31209 0.0
C2055 C 0.71303 0.42473 0.26474 0.0
C2056 C 0.66085 0.37966 0.29064 0.0
O2057 O 0.66877 0.42419 0.27964 0.0
O2058 O 0.66611 0.434 0.30994 0.0
C2059 C 0.67716 0.45008 0.34936 0.0
N2060 N 0.68264 0.42757 0.34776 0.0
C2061 C 0.68698 0.41662 0.38823 0.0
C2062 C 0.67559 0.45319 0.39283 0.0
C2063 C 0.67285 0.46341 0.37004 0.0
C2064 C 0.68846 0.41211 0.36367 0.0
H2065 H 0.67398 0.45774 0.33599 0.0
C2066 C 0.66034 0.43463 0.29239 0.0
O2067 O 0.70143 0.41142 0.2579 0.0
O2068 O 0.71092 0.42993 0.28286 0.0
N2069 N 0.67162 0.3916 0.34587 0.0
C2070 C 0.65439 0.38997 0.35551 0.0
C2071 C 0.65313 0.37655 0.37031 0.0
C2072 C 0.67043 0.36883 0.37739 0.0
C2073 C 0.68762 0.37902 0.37377 0.0
C2074 C 0.68638 0.39308 0.35863 0.0
H2075 H 0.64129 0.39499 0.34867 0.0
O2076 O 0.7158 0.39096 0.29477 0.0
O2077 O 0.69429 0.40413 0.31391 0.0
O2078 O 0.67665 0.38324 0.2818 0.0
O2079 O 0.65585 0.39135 0.30545 0.0
C2080 C 0.698 0.38305 0.39065 0.0
C2081 C 0.69425 0.40073 0.39973 0.0
H2082 H 0.6744 0.46234 0.40575 0.0
H2083 H 0.66934 0.4787 0.36851 0.0
H2084 H 0.63913 0.37063 0.37395 0.0
H2085 H 0.66962 0.35777 0.38813 0.0
H2086 H 0.70273 0.37112 0.39956 0.0
H2087 H 0.69683 0.40115 0.41518 0.0
Mn2088 Mn 0.33719 0.43573 0.52197 0.0
Mn2089 Mn 0.33811 0.41318 0.56161 0.0
C2090 C 0.35688 0.45176 0.54833 0.0
C2091 C 0.31791 0.45511 0.50266 0.0
C2092 C 0.35994 0.39862 0.52168 0.0
O2093 O 0.3165 0.41255 0.52085 0.0
O2094 O 0.31134 0.4124 0.55244 0.0
C2095 C 0.30714 0.4324 0.58959 0.0
N2096 N 0.3295 0.42676 0.58613 0.0
C2097 C 0.34521 0.42702 0.62521 0.0
C2098 C 0.30774 0.43575 0.63302 0.0
C2099 C 0.29539 0.43658 0.61126 0.0
C2100 C 0.34709 0.42397 0.60049 0.0
H2101 H 0.2977 0.43315 0.57699 0.0
C2102 C 0.30694 0.40622 0.5357 0.0
O2103 O 0.33023 0.44273 0.49528 0.0
O2104 O 0.31613 0.45539 0.52155 0.0
N2105 N 0.3629 0.41436 0.57043 0.0
C2106 C 0.37689 0.40788 0.55422 0.0
C2107 C 0.39661 0.39447 0.55962 0.0
C2108 C 0.3997 0.39355 0.59802 0.0
C2109 C 0.37967 0.40561 0.60752 0.0
C2110 C 0.363 0.41481 0.59279 0.0
H2111 H 0.37831 0.4212 0.54365 0.0
O2112 O 0.35788 0.4573 0.53021 0.0
O2113 O 0.34344 0.43812 0.54975 0.0
O2114 O 0.35925 0.41606 0.51528 0.0
O2115 O 0.3482 0.39511 0.53675 0.0
C2116 C 0.37832 0.41188 0.62682 0.0
C2117 C 0.3634 0.42391 0.63487 0.0
H2118 H 0.29988 0.43876 0.64657 0.0
H2119 H 0.27995 0.43994 0.61122 0.0
H2120 H 0.38433 0.39666 0.55138 0.0
H2121 H 0.40708 0.38392 0.60728 0.0
H2122 H 0.38934 0.40716 0.6364 0.0
H2123 H 0.36568 0.42817 0.64988 0.0
Mn2124 Mn 0.30428 0.08857 0.77783 0.0
Mn2125 Mn 0.33213 0.09263 0.8165 0.0
C2126 C 0.28992 0.10498 0.8071 0.0
C2127 C 0.28422 0.0692 0.75892 0.0
C2128 C 0.33659 0.11881 0.77736 0.0
O2129 O 0.32718 0.06863 0.7719 0.0
O2130 O 0.34255 0.07171 0.80011 0.0
C2131 C 0.34003 0.05436 0.83699 0.0
N2132 N 0.32839 0.07428 0.83794 0.0
C2133 C 0.32103 0.07832 0.87884 0.0
C2134 C 0.34026 0.04472 0.87827 0.0
C2135 C 0.34632 0.03947 0.85519 0.0
C2136 C 0.32009 0.08623 0.85539 0.0
H2137 H 0.34597 0.04947 0.82355 0.0
C2138 C 0.34062 0.0634 0.7838 0.0
O2139 O 0.29454 0.08331 0.75179 0.0
O2140 O 0.28554 0.06622 0.77763 0.0
N2141 N 0.32369 0.11188 0.83459 0.0
C2142 C 0.31948 0.13051 0.83115 0.0
C2143 C 0.32245 0.14385 0.84567 0.0
C2144 C 0.32726 0.13704 0.86439 0.0
C2145 C 0.32303 0.118 0.86885 0.0
C2146 C 0.32127 0.10541 0.85296 0.0
H2147 H 0.31372 0.13497 0.81728 0.0
O2148 O 0.28296 0.10655 0.78955 0.0
O2149 O 0.30487 0.09253 0.8071 0.0
O2150 O 0.32117 0.11311 0.76879 0.0
O2151 O 0.33995 0.11112 0.79407 0.0
C2152 C 0.31951 0.11217 0.88818 0.0
C2153 C 0.31607 0.09279 0.89289 0.0
H2154 H 0.345 0.03536 0.88964 0.0
H2155 H 0.3547 0.02662 0.85179 0.0
H2156 H 0.31888 0.15854 0.84197 0.0
H2157 H 0.332 0.14595 0.87616 0.0
H2158 H 0.31902 0.12291 0.89981 0.0
H2159 H 0.31278 0.0897 0.90781 0.0
Mn2160 Mn 0.65524 0.94233 0.96567 0.0
Mn2161 Mn 0.65888 0.92376 0.92411 0.0
C2162 C 0.63908 0.96113 0.93884 0.0
C2163 C 0.67682 0.95876 0.98584 0.0
C2164 C 0.62812 0.90956 0.95819 0.0
O2165 O 0.67212 0.91597 0.96877 0.0
O2166 O 0.6825 0.91778 0.93899 0.0
C2167 C 0.69864 0.94319 0.90763 0.0
N2168 N 0.6757 0.93895 0.90535 0.0
C2169 C 0.67002 0.939 0.86437 0.0
C2170 C 0.70857 0.94352 0.86448 0.0
C2171 C 0.71589 0.94499 0.88891 0.0
C2172 C 0.66218 0.93768 0.88722 0.0
H2173 H 0.70458 0.94326 0.92226 0.0
C2174 C 0.68289 0.90907 0.9551 0.0
O2175 O 0.66193 0.9493 0.99301 0.0
O2176 O 0.67874 0.9587 0.9671 0.0
N2177 N 0.63827 0.92897 0.90816 0.0
C2178 C 0.61962 0.9298 0.91354 0.0
C2179 C 0.60586 0.92879 0.89922 0.0
C2180 C 0.61171 0.92581 0.87996 0.0
C2181 C 0.63023 0.93141 0.87482 0.0
C2182 C 0.64359 0.93266 0.88992 0.0
H2183 H 0.6156 0.93078 0.92871 0.0
O2184 O 0.63784 0.96645 0.95695 0.0
O2185 O 0.65156 0.94669 0.93781 0.0
O2186 O 0.63075 0.92492 0.9685 0.0
O2187 O 0.63996 0.90672 0.94311 0.0
C2188 C 0.63501 0.93595 0.8556 0.0
C2189 C 0.65414 0.93968 0.85024 0.0
H2190 H 0.71939 0.94455 0.85279 0.0
H2191 H 0.73117 0.94693 0.89245 0.0
H2192 H 0.59162 0.93118 0.9041 0.0
H2193 H 0.60239 0.92085 0.86873 0.0
H2194 H 0.62395 0.93554 0.84426 0.0
H2195 H 0.6556 0.94219 0.83479 0.0
Mn2196 Mn 0.8039 0.40225 0.21898 0.0
Mn2197 Mn 0.82254 0.40468 0.17675 0.0
C2198 C 0.78525 0.38619 0.1922 0.0
C2199 C 0.78819 0.4214 0.24144 0.0
C2200 C 0.83608 0.37502 0.21111 0.0
O2201 O 0.82965 0.4198 0.22196 0.0
O2202 O 0.829 0.42837 0.19147 0.0
C2203 C 0.80715 0.44436 0.15943 0.0
N2204 N 0.80838 0.42117 0.15744 0.0
C2205 C 0.80822 0.41526 0.11612 0.0
C2206 C 0.80753 0.45413 0.11697 0.0
C2207 C 0.8071 0.46133 0.141 0.0
C2208 C 0.80859 0.40732 0.13934 0.0
H2209 H 0.80726 0.45044 0.17394 0.0
C2210 C 0.83672 0.43002 0.20799 0.0
O2211 O 0.79893 0.40667 0.24667 0.0
O2212 O 0.78692 0.42515 0.22288 0.0
N2213 N 0.81684 0.38386 0.16086 0.0
C2214 C 0.8167 0.36512 0.16594 0.0
C2215 C 0.81978 0.35166 0.15148 0.0
C2216 C 0.82484 0.35827 0.1327 0.0
C2217 C 0.819 0.37658 0.12724 0.0
C2218 C 0.81449 0.38916 0.14232 0.0
H2219 H 0.81523 0.36089 0.18104 0.0
O2220 O 0.78019 0.38459 0.21038 0.0
O2221 O 0.79922 0.39914 0.19084 0.0
O2222 O 0.82095 0.37794 0.22133 0.0
O2223 O 0.83905 0.38626 0.19585 0.0
C2224 C 0.81657 0.3815 0.10761 0.0
C2225 C 0.81031 0.39991 0.10201 0.0
H2226 H 0.80765 0.46517 0.10547 0.0
H2227 H 0.80683 0.47672 0.14454 0.0
H2228 H 0.81793 0.33689 0.15586 0.0
H2229 H 0.83104 0.34951 0.1215 0.0
H2230 H 0.81901 0.37063 0.09636 0.0
H2231 H 0.80829 0.40156 0.08668 0.0
Mn2232 Mn 0.34843 0.55107 0.46988 0.0
Mn2233 Mn 0.35214 0.57274 0.42936 0.0
C2234 C 0.36474 0.53319 0.44146 0.0
C2235 C 0.32783 0.53139 0.48746 0.0
C2236 C 0.37568 0.58368 0.46941 0.0
O2237 O 0.33009 0.57695 0.47277 0.0
O2238 O 0.3275 0.58138 0.44108 0.0
C2239 C 0.31395 0.56165 0.40867 0.0
N2240 N 0.33713 0.56147 0.40736 0.0
C2241 C 0.34463 0.5613 0.36627 0.0
C2242 C 0.30524 0.56312 0.36549 0.0
C2243 C 0.29719 0.56298 0.39042 0.0
C2244 C 0.35176 0.56094 0.39002 0.0
H2245 H 0.30751 0.56073 0.42294 0.0
C2246 C 0.32269 0.58634 0.4581 0.0
O2247 O 0.34126 0.54145 0.49624 0.0
O2248 O 0.32532 0.53434 0.46899 0.0
N2249 N 0.3756 0.56598 0.41673 0.0
C2250 C 0.39434 0.57074 0.42871 0.0
C2251 C 0.41579 0.57946 0.42079 0.0
C2252 C 0.41961 0.58299 0.39717 0.0
C2253 C 0.38665 0.57153 0.37746 0.0
C2254 C 0.37062 0.5646 0.39471 0.0
H2255 H 0.39461 0.56635 0.44374 0.0
O2256 O 0.36645 0.52755 0.45939 0.0
O2257 O 0.35304 0.54818 0.44143 0.0
O2258 O 0.37279 0.5675 0.47787 0.0
O2259 O 0.36741 0.58577 0.45259 0.0
C2260 C 0.37918 0.56978 0.35806 0.0
C2261 C 0.36053 0.56296 0.35275 0.0
H2262 H 0.29546 0.56384 0.35079 0.0
H2263 H 0.29845 0.56328 0.37652 0.0
H2264 H 0.42751 0.58196 0.4311 0.0
H2265 H 0.43202 0.59035 0.39216 0.0
H2266 H 0.38738 0.5739 0.34579 0.0
H2267 H 0.35856 0.56199 0.33712 0.0
Mn2268 Mn 0.18666 0.09071 0.71918 0.0
Mn2269 Mn 0.15901 0.09517 0.68224 0.0
C2270 C 0.20047 0.10761 0.69107 0.0
C2271 C 0.20828 0.07172 0.73643 0.0
C2272 C 0.15233 0.11795 0.72097 0.0
O2273 O 0.16328 0.07104 0.7233 0.0
O2274 O 0.15424 0.06881 0.69202 0.0
C2275 C 0.17392 0.06188 0.65486 0.0
N2276 N 0.16766 0.08475 0.65623 0.0
C2277 C 0.16256 0.09607 0.61433 0.0
C2278 C 0.17355 0.05711 0.6102 0.0
C2279 C 0.17713 0.04758 0.63381 0.0
C2280 C 0.16235 0.10086 0.63959 0.0
H2281 H 0.17647 0.0542 0.66838 0.0
C2282 C 0.15359 0.06268 0.70952 0.0
O2283 O 0.19761 0.08466 0.74527 0.0
O2284 O 0.20502 0.06872 0.71803 0.0
N2285 N 0.16249 0.11974 0.67329 0.0
C2286 C 0.15891 0.14402 0.68603 0.0
C2287 C 0.15985 0.18568 0.66444 0.0
C2288 C 0.15007 0.18467 0.63859 0.0
C2289 C 0.14934 0.14072 0.62945 0.0
C2290 C 0.15741 0.11829 0.64636 0.0
H2291 H 0.16458 0.14419 0.70053 0.0
O2292 O 0.20801 0.10897 0.70828 0.0
O2293 O 0.18568 0.0955 0.69112 0.0
O2294 O 0.16971 0.1148 0.72663 0.0
O2295 O 0.14592 0.10762 0.7066 0.0
C2296 C 0.14853 0.13118 0.60991 0.0
C2297 C 0.15507 0.11218 0.603 0.0
H2298 H 0.17543 0.04779 0.59743 0.0
H2299 H 0.18148 0.03247 0.63541 0.0
H2300 H 0.16472 0.19823 0.67488 0.0
H2301 H 0.15573 0.19019 0.6511 0.0
H2302 H 0.14341 0.13883 0.59724 0.0
H2303 H 0.15329 0.11024 0.58743 0.0
Mn2304 Mn 0.02911 0.15492 0.55447 0.0
Mn2305 Mn 0.0723 0.1578 0.57271 0.0
C2306 C 0.05435 0.13908 0.53389 0.0
C2307 C 0.00595 0.17387 0.5393 0.0
C2308 C 0.03921 0.1265 0.58571 0.0
O2309 O 0.02606 0.1711 0.58051 0.0
O2310 O 0.05658 0.18007 0.58121 0.0
C2311 C 0.08972 0.1996 0.56518 0.0
N2312 N 0.09116 0.17682 0.56057 0.0
C2313 C 0.13251 0.17048 0.55956 0.0
C2314 C 0.13236 0.20761 0.56959 0.0
C2315 C 0.10845 0.21539 0.57036 0.0
C2316 C 0.10908 0.16328 0.55723 0.0
H2317 H 0.07537 0.20592 0.56627 0.0
C2318 C 0.03968 0.18111 0.5882 0.0
O2319 O 0.00114 0.15914 0.55025 0.0
O2320 O 0.02438 0.17818 0.53823 0.0
N2321 N 0.08865 0.1385 0.5649 0.0
C2322 C 0.0828 0.12032 0.56196 0.0
C2323 C 0.09579 0.1079 0.55368 0.0
C2324 C 0.11547 0.11317 0.55188 0.0
C2325 C 0.12102 0.1316 0.55498 0.0
C2326 C 0.10628 0.14451 0.55906 0.0
H2327 H 0.06783 0.11609 0.56376 0.0
O2328 O 0.03591 0.13873 0.53001 0.0
O2329 O 0.0575 0.15177 0.54845 0.0
O2330 O 0.0282 0.13014 0.5712 0.0
O2331 O 0.05489 0.13728 0.5885 0.0
C2332 C 0.14052 0.13678 0.55334 0.0
C2333 C 0.14658 0.15548 0.5561 0.0
H2334 H 0.14387 0.21826 0.57091 0.0
H2335 H 0.10524 0.23056 0.57345 0.0
H2336 H 0.09021 0.09418 0.55026 0.0
H2337 H 0.1267 0.10404 0.54714 0.0
H2338 H 0.15149 0.12586 0.55121 0.0
H2339 H 0.16212 0.15719 0.55604 0.0
Mn2340 Mn 0.52779 0.84006 0.94053 0.0
Mn2341 Mn 0.56669 0.84369 0.91324 0.0
C2342 C 0.55708 0.85636 0.95521 0.0
C2343 C 0.50874 0.82123 0.96062 0.0
C2344 C 0.52799 0.87045 0.90848 0.0
O2345 O 0.52184 0.81998 0.91783 0.0
O2346 O 0.5499 0.82329 0.90231 0.0
C2347 C 0.58629 0.80506 0.90501 0.0
N2348 N 0.58765 0.82477 0.91696 0.0
C2349 C 0.62864 0.82788 0.92423 0.0
C2350 C 0.62738 0.79467 0.9044 0.0
C2351 C 0.60419 0.78995 0.89836 0.0
C2352 C 0.60536 0.83623 0.92543 0.0
H2353 H 0.57279 0.80055 0.89899 0.0
C2354 C 0.5336 0.81493 0.90424 0.0
O2355 O 0.50165 0.83504 0.94987 0.0
O2356 O 0.52742 0.81799 0.95937 0.0
N2357 N 0.58511 0.86233 0.92213 0.0
C2358 C 0.58191 0.88107 0.92589 0.0
C2359 C 0.59674 0.89407 0.92322 0.0
C2360 C 0.61541 0.88689 0.91879 0.0
C2361 C 0.61946 0.86777 0.92316 0.0
C2362 C 0.60332 0.85548 0.92468 0.0
H2363 H 0.56812 0.88574 0.93158 0.0
O2364 O 0.53943 0.85819 0.96185 0.0
O2365 O 0.55711 0.84375 0.94038 0.0
O2366 O 0.51892 0.86447 0.92346 0.0
O2367 O 0.5448 0.86282 0.90553 0.0
C2368 C 0.63864 0.8615 0.92676 0.0
C2369 C 0.64297 0.84193 0.92959 0.0
H2370 H 0.63856 0.78521 0.89938 0.0
H2371 H 0.60052 0.77734 0.88975 0.0
H2372 H 0.5932 0.90881 0.92673 0.0
H2373 H 0.62737 0.89558 0.91407 0.0
H2374 H 0.65047 0.872 0.92754 0.0
H2375 H 0.65782 0.83843 0.9328 0.0
Mn2376 Mn 0.90592 0.27898 0.19179 0.0
Mn2377 Mn 0.90698 0.32097 0.1718 0.0
C2378 C 0.89007 0.30634 0.2101 0.0
C2379 C 0.92421 0.25816 0.2104 0.0
C2380 C 0.87747 0.28561 0.1603 0.0
O2381 O 0.92321 0.27536 0.16588 0.0
O2382 O 0.9305 0.30635 0.16456 0.0
C2383 C 0.94713 0.33937 0.18496 0.0
N2384 N 0.92386 0.34093 0.18465 0.0
C2385 C 0.91723 0.38216 0.1844 0.0
C2386 C 0.9561 0.38205 0.18351 0.0
C2387 C 0.96377 0.35812 0.18403 0.0
C2388 C 0.90971 0.3588 0.1847 0.0
H2389 H 0.95346 0.32495 0.18474 0.0
C2390 C 0.93242 0.28947 0.15763 0.0
O2391 O 0.91047 0.25145 0.1992 0.0
O2392 O 0.92879 0.27645 0.20871 0.0
N2393 N 0.88625 0.33674 0.17807 0.0
C2394 C 0.86763 0.33137 0.17949 0.0
C2395 C 0.85374 0.34552 0.17699 0.0
C2396 C 0.85968 0.36433 0.17122 0.0
C2397 C 0.87824 0.3702 0.17572 0.0
C2398 C 0.89135 0.35542 0.1797 0.0
H2399 H 0.86378 0.31623 0.18149 0.0
O2400 O 0.88865 0.28833 0.21533 0.0
O2401 O 0.90261 0.30745 0.19571 0.0
O2402 O 0.88125 0.2756 0.17538 0.0
O2403 O 0.88812 0.30116 0.1567 0.0
C2404 C 0.88293 0.38994 0.17759 0.0
C2405 C 0.90153 0.39597 0.18282 0.0
H2406 H 0.9669 0.39375 0.18274 0.0
H2407 H 0.97922 0.35485 0.1837 0.0
H2408 H 0.83919 0.34092 0.17988 0.0
H2409 H 0.85032 0.37528 0.16544 0.0
H2410 H 0.87172 0.40097 0.17564 0.0
H2411 H 0.90299 0.41137 0.1845 0.0
Mn2412 Mn 0.46675 0.65401 0.43645 0.0
Mn2413 Mn 0.42472 0.65615 0.41293 0.0
C2414 C 0.43902 0.6392 0.45367 0.0
C2415 C 0.48843 0.6687 0.45734 0.0
C2416 C 0.45736 0.62398 0.40429 0.0
O2417 O 0.47263 0.67435 0.41477 0.0
O2418 O 0.44333 0.67453 0.4009 0.0
C2419 C 0.41076 0.69961 0.41206 0.0
N2420 N 0.40736 0.67841 0.42075 0.0
C2421 C 0.36588 0.67734 0.42534 0.0
C2422 C 0.36942 0.71236 0.4098 0.0
C2423 C 0.3937 0.71671 0.40598 0.0
C2424 C 0.38839 0.66773 0.42713 0.0
H2425 H 0.42536 0.70368 0.40857 0.0
C2426 C 0.4607 0.68082 0.40208 0.0
O2427 O 0.49437 0.65569 0.44491 0.0
O2428 O 0.4704 0.67434 0.45625 0.0
N2429 N 0.40574 0.64015 0.42277 0.0
C2430 C 0.40878 0.62163 0.42697 0.0
C2431 C 0.39365 0.6119 0.43529 0.0
C2432 C 0.37462 0.61903 0.43453 0.0
C2433 C 0.37223 0.63812 0.43213 0.0
C2434 C 0.38884 0.64877 0.42759 0.0
H2435 H 0.42328 0.61559 0.42651 0.0
O2436 O 0.45711 0.6356 0.4572 0.0
O2437 O 0.43742 0.6527 0.4394 0.0
O2438 O 0.46924 0.63066 0.41701 0.0
O2439 O 0.44058 0.63252 0.4016 0.0
C2440 C 0.35419 0.64617 0.43626 0.0
C2441 C 0.35113 0.66561 0.43404 0.0
H2442 H 0.35924 0.72389 0.40777 0.0
H2443 H 0.39836 0.73063 0.40024 0.0
H2444 H 0.39756 0.59996 0.44301 0.0
H2445 H 0.36144 0.61067 0.4355 0.0
H2446 H 0.34239 0.63714 0.44153 0.0
H2447 H 0.33762 0.67082 0.43978 0.0
Mn2448 Mn 0.58888 0.71975 0.68882 0.0
Mn2449 Mn 0.59282 0.68385 0.65931 0.0
C2450 C 0.60813 0.6911 0.70013 0.0
C2451 C 0.57075 0.73501 0.71262 0.0
C2452 C 0.61621 0.72261 0.65415 0.0
O2453 O 0.56716 0.72515 0.66688 0.0
O2454 O 0.56847 0.69618 0.65227 0.0
C2455 C 0.55459 0.65993 0.66491 0.0
N2456 N 0.57759 0.6602 0.66762 0.0
C2457 C 0.58654 0.61927 0.67132 0.0
C2458 C 0.54778 0.61741 0.66618 0.0
C2459 C 0.53929 0.64058 0.66378 0.0
C2460 C 0.59285 0.6438 0.67047 0.0
H2461 H 0.54699 0.67353 0.6638 0.0
C2462 C 0.56052 0.7126 0.65446 0.0
O2463 O 0.58287 0.74489 0.70194 0.0
O2464 O 0.56833 0.71668 0.70857 0.0
N2465 N 0.6168 0.67199 0.66421 0.0
C2466 C 0.63582 0.6814 0.65383 0.0
C2467 C 0.6564 0.65149 0.64127 0.0
C2468 C 0.64551 0.63126 0.64782 0.0
C2469 C 0.62513 0.63077 0.65955 0.0
C2470 C 0.61186 0.6494 0.66653 0.0
H2471 H 0.63939 0.69627 0.65441 0.0
O2472 O 0.60949 0.70808 0.70816 0.0
O2473 O 0.59467 0.69176 0.68631 0.0
O2474 O 0.61142 0.72911 0.67085 0.0
O2475 O 0.60768 0.70719 0.64756 0.0
C2476 C 0.6209 0.6125 0.66786 0.0
C2477 C 0.60245 0.60625 0.67277 0.0
H2478 H 0.53759 0.60535 0.66558 0.0
H2479 H 0.52383 0.64329 0.66232 0.0
H2480 H 0.66964 0.65043 0.63379 0.0
H2481 H 0.65407 0.61857 0.64849 0.0
H2482 H 0.63221 0.60158 0.66869 0.0
H2483 H 0.60125 0.59093 0.67627 0.0
Mn2484 Mn 0.96842 0.84251 0.55444 0.0
Mn2485 Mn 0.9261 0.84025 0.57339 0.0
C2486 C 0.94106 0.85811 0.53576 0.0
C2487 C 0.99026 0.82436 0.53688 0.0
C2488 C 0.96059 0.87032 0.58604 0.0
O2489 O 0.97176 0.82504 0.58023 0.0
O2490 O 0.94104 0.8168 0.58038 0.0
C2491 C 0.90868 0.8001 0.55899 0.0
N2492 N 0.90668 0.82332 0.55975 0.0
C2493 C 0.86532 0.82917 0.55978 0.0
C2494 C 0.86615 0.79031 0.55998 0.0
C2495 C 0.89023 0.7831 0.5595 0.0
C2496 C 0.88855 0.83714 0.55978 0.0
H2497 H 0.92321 0.79404 0.55918 0.0
C2498 C 0.95773 0.81518 0.58782 0.0
O2499 O 0.99626 0.83839 0.54811 0.0
O2500 O 0.9719 0.81977 0.53755 0.0
N2501 N 0.91006 0.86086 0.56732 0.0
C2502 C 0.91507 0.87963 0.56665 0.0
C2503 C 0.90058 0.8931 0.5695 0.0
C2504 C 0.88185 0.88656 0.5748 0.0
C2505 C 0.87642 0.86811 0.56947 0.0
C2506 C 0.89152 0.85544 0.56522 0.0
H2507 H 0.93013 0.88391 0.56494 0.0
O2508 O 0.95919 0.85998 0.53085 0.0
O2509 O 0.94001 0.84532 0.54991 0.0
O2510 O 0.97093 0.86703 0.57108 0.0
O2511 O 0.94527 0.8592 0.58925 0.0
C2512 C 0.85679 0.86312 0.56724 0.0
C2513 C 0.85118 0.84457 0.56151 0.0
H2514 H 0.85465 0.77929 0.56048 0.0
H2515 H 0.89378 0.76771 0.55956 0.0
H2516 H 0.90493 0.90784 0.5674 0.0
H2517 H 0.87064 0.8954 0.58087 0.0
H2518 H 0.84552 0.87405 0.56941 0.0
H2519 H 0.83584 0.84286 0.55957 0.0
Mn2520 Mn 0.90376 0.21538 0.301 0.0
Mn2521 Mn 0.90547 0.17413 0.32136 0.0
C2522 C 0.88838 0.18786 0.28278 0.0
C2523 C 0.92401 0.23689 0.28528 0.0
C2524 C 0.87513 0.20897 0.33226 0.0
O2525 O 0.92019 0.21952 0.32739 0.0
O2526 O 0.92894 0.18913 0.32815 0.0
C2527 C 0.94575 0.15645 0.30781 0.0
N2528 N 0.92254 0.15437 0.30852 0.0
C2529 C 0.91686 0.11306 0.31003 0.0
C2530 C 0.95574 0.11407 0.31043 0.0
C2531 C 0.96283 0.13812 0.30909 0.0
C2532 C 0.9088 0.13622 0.30912 0.0
H2533 H 0.95173 0.171 0.30742 0.0
C2534 C 0.93027 0.20592 0.33534 0.0
O2535 O 0.90881 0.24272 0.29507 0.0
O2536 O 0.92754 0.21826 0.28498 0.0
N2537 N 0.88494 0.15795 0.31554 0.0
C2538 C 0.86618 0.16292 0.31449 0.0
C2539 C 0.8527 0.14852 0.31767 0.0
C2540 C 0.85926 0.13004 0.32384 0.0
C2541 C 0.87777 0.12442 0.31893 0.0
C2542 C 0.89043 0.13936 0.31422 0.0
H2543 H 0.86192 0.17791 0.31225 0.0
O2544 O 0.88714 0.20581 0.27684 0.0
O2545 O 0.90069 0.18715 0.29735 0.0
O2546 O 0.87856 0.21852 0.31678 0.0
O2547 O 0.88634 0.1939 0.33633 0.0
C2548 C 0.88288 0.10474 0.31756 0.0
C2549 C 0.90151 0.09896 0.31223 0.0
H2550 H 0.96682 0.10264 0.31137 0.0
H2551 H 0.9782 0.14174 0.30907 0.0
H2552 H 0.83797 0.15278 0.31521 0.0
H2553 H 0.85043 0.11906 0.33028 0.0
H2554 H 0.87197 0.09354 0.32009 0.0
H2555 H 0.90331 0.08356 0.31096 0.0
Mn2556 Mn 0.08997 0.27966 0.80355 0.0
Mn2557 Mn 0.08414 0.32287 0.82107 0.0
C2558 C 0.10534 0.30562 0.78354 0.0
C2559 C 0.07327 0.25594 0.78695 0.0
C2560 C 0.11751 0.29226 0.83441 0.0
O2561 O 0.0737 0.27575 0.82947 0.0
O2562 O 0.06266 0.30547 0.82902 0.0
C2563 C 0.04138 0.33701 0.81088 0.0
N2564 N 0.0643 0.34009 0.80758 0.0
C2565 C 0.06772 0.3817 0.80656 0.0
C2566 C 0.02997 0.37915 0.81445 0.0
C2567 C 0.02388 0.35467 0.81501 0.0
C2568 C 0.07671 0.35897 0.80483 0.0
H2569 H 0.03615 0.32223 0.81197 0.0
C2570 C 0.06298 0.28894 0.837 0.0
O2571 O 0.08752 0.25132 0.79857 0.0
O2572 O 0.06739 0.27394 0.78701 0.0
N2573 N 0.10255 0.34063 0.81398 0.0
C2574 C 0.12127 0.33634 0.8123 0.0
C2575 C 0.13314 0.35034 0.80506 0.0
C2576 C 0.1271 0.3698 0.80369 0.0
C2577 C 0.10785 0.37359 0.80485 0.0
C2578 C 0.09564 0.35775 0.80777 0.0
H2579 H 0.12654 0.32173 0.81402 0.0
O2580 O 0.10628 0.28734 0.77943 0.0
O2581 O 0.09204 0.30819 0.79756 0.0
O2582 O 0.11432 0.28048 0.82044 0.0
O2583 O 0.10559 0.3071 0.83737 0.0
C2584 C 0.10125 0.3924 0.80219 0.0
C2585 C 0.08183 0.39663 0.80281 0.0
H2586 H 0.0186 0.3901 0.81639 0.0
H2587 H 0.00892 0.35039 0.81776 0.0
H2588 H 0.14718 0.34553 0.80247 0.0
H2589 H 0.13643 0.38203 0.80083 0.0
H2590 H 0.11151 0.40414 0.80026 0.0
H2591 H 0.07871 0.41146 0.79982 0.0
Mn2592 Mn 0.5543 0.03208 0.15419 0.0
Mn2593 Mn 0.57445 0.07345 0.16319 0.0
C2594 C 0.5381 0.05886 0.13841 0.0
C2595 C 0.53739 0.00973 0.17237 0.0
C2596 C 0.58757 0.04007 0.12956 0.0
O2597 O 0.57948 0.02612 0.17023 0.0
O2598 O 0.57454 0.05353 0.18391 0.0
C2599 C 0.55746 0.08801 0.20264 0.0
N2600 N 0.55608 0.08992 0.17938 0.0
C2601 C 0.55358 0.1312 0.17364 0.0
C2602 C 0.55976 0.13067 0.2119 0.0
C2603 C 0.56039 0.10661 0.21933 0.0
C2604 C 0.55262 0.10802 0.16547 0.0
H2605 H 0.55881 0.07357 0.20872 0.0
C2606 C 0.58459 0.03821 0.18307 0.0
O2607 O 0.54797 0.00458 0.15749 0.0
O2608 O 0.53707 0.02815 0.17691 0.0
N2609 N 0.57635 0.09691 0.14777 0.0
C2610 C 0.59303 0.10831 0.14821 0.0
C2611 C 0.59425 0.12527 0.13691 0.0
C2612 C 0.57743 0.13149 0.1276 0.0
C2613 C 0.5596 0.12437 0.13477 0.0
C2614 C 0.56001 0.10724 0.14689 0.0
H2615 H 0.60653 0.10239 0.15275 0.0
O2616 O 0.53134 0.04124 0.13764 0.0
O2617 O 0.55238 0.06078 0.15084 0.0
O2618 O 0.57147 0.03118 0.1308 0.0
O2619 O 0.59149 0.05444 0.14256 0.0
C2620 C 0.54712 0.13939 0.13947 0.0
C2621 C 0.54724 0.14495 0.15886 0.0
H2622 H 0.56049 0.14217 0.2229 0.0
H2623 H 0.56225 0.10319 0.23463 0.0
H2624 H 0.60813 0.13241 0.13438 0.0
H2625 H 0.57815 0.14456 0.11865 0.0
H2626 H 0.54405 0.15046 0.12866 0.0
H2627 H 0.54244 0.15965 0.16131 0.0
Mn2628 Mn 0.21847 0.80251 0.40481 0.0
Mn2629 Mn 0.17756 0.82628 0.40217 0.0
C2630 C 0.19034 0.78704 0.38711 0.0
C2631 C 0.23636 0.78028 0.42242 0.0
C2632 C 0.21492 0.83487 0.37459 0.0
O2633 O 0.2229 0.82485 0.42626 0.0
O2634 O 0.1931 0.83678 0.42416 0.0
C2635 C 0.15996 0.82261 0.4429 0.0
N2636 N 0.15732 0.81761 0.42056 0.0
C2637 C 0.11583 0.81916 0.41566 0.0
C2638 C 0.11882 0.82782 0.45332 0.0
C2639 C 0.14265 0.82777 0.45949 0.0
C2640 C 0.13886 0.8157 0.4073 0.0
H2641 H 0.1745 0.82285 0.44887 0.0
C2642 C 0.20938 0.83609 0.43293 0.0
O2643 O 0.24487 0.79168 0.40992 0.0
O2644 O 0.21799 0.7831 0.42578 0.0
N2645 N 0.16052 0.81842 0.38259 0.0
C2646 C 0.16521 0.81705 0.36379 0.0
C2647 C 0.15077 0.81985 0.35035 0.0
C2648 C 0.13199 0.82537 0.35666 0.0
C2649 C 0.12668 0.82171 0.37557 0.0
C2650 C 0.14184 0.81778 0.38834 0.0
H2651 H 0.18019 0.81464 0.35949 0.0
O2652 O 0.20824 0.78161 0.38514 0.0
O2653 O 0.18948 0.80089 0.40044 0.0
O2654 O 0.22572 0.82123 0.38123 0.0
O2655 O 0.19787 0.83688 0.38231 0.0
C2656 C 0.10701 0.82129 0.38125 0.0
C2657 C 0.10157 0.81874 0.40062 0.0
H2658 H 0.10804 0.83113 0.46427 0.0
H2659 H 0.14698 0.83074 0.47437 0.0
H2660 H 0.15506 0.81687 0.33572 0.0
H2661 H 0.12081 0.83094 0.3474 0.0
H2662 H 0.09557 0.82273 0.37037 0.0
H2663 H 0.0865 0.81737 0.40324 0.0
Mn2664 Mn 0.43764 0.46938 0.65264 0.0
Mn2665 Mn 0.41093 0.43151 0.65331 0.0
C2666 C 0.45653 0.43941 0.64253 0.0
C2667 C 0.4588 0.49011 0.66877 0.0
C2668 C 0.40398 0.46527 0.62224 0.0
O2669 O 0.41408 0.47625 0.6713 0.0
O2670 O 0.40167 0.44638 0.67536 0.0
C2671 C 0.4081 0.40719 0.69228 0.0
N2672 N 0.41617 0.40907 0.6708 0.0
C2673 C 0.42498 0.36955 0.66092 0.0
C2674 C 0.41164 0.36421 0.69668 0.0
C2675 C 0.40531 0.38667 0.70578 0.0
C2676 C 0.42354 0.39388 0.65619 0.0
H2677 H 0.40313 0.42029 0.69941 0.0
C2678 C 0.40279 0.46417 0.68015 0.0
O2679 O 0.44792 0.49646 0.65464 0.0
O2680 O 0.4556 0.47256 0.67489 0.0
N2681 N 0.4206 0.41823 0.63313 0.0
C2682 C 0.42745 0.42744 0.61706 0.0
C2683 C 0.44096 0.41854 0.60653 0.0
C2684 C 0.44243 0.399 0.60931 0.0
C2685 C 0.43525 0.38893 0.62525 0.0
C2686 C 0.42639 0.40025 0.63819 0.0
H2687 H 0.4273 0.44241 0.6147 0.0
O2688 O 0.46038 0.45706 0.63727 0.0
O2689 O 0.4399 0.43992 0.65351 0.0
O2690 O 0.42041 0.47328 0.62657 0.0
O2691 O 0.39847 0.4511 0.63337 0.0
C2692 C 0.43344 0.36881 0.62679 0.0
C2693 C 0.4297 0.35889 0.64427 0.0
H2694 H 0.4103 0.3514 0.70539 0.0
H2695 H 0.40078 0.38861 0.72057 0.0
H2696 H 0.44907 0.42624 0.59529 0.0
H2697 H 0.44963 0.39321 0.59835 0.0
H2698 H 0.42952 0.36191 0.61348 0.0
H2699 H 0.42777 0.34356 0.64402 0.0
Mn2700 Mn 0.77928 0.68981 0.90428 0.0
Mn2701 Mn 0.82146 0.67212 0.90867 0.0
C2702 C 0.80605 0.70871 0.88819 0.0
C2703 C 0.75593 0.70567 0.92239 0.0
C2704 C 0.78894 0.65787 0.87765 0.0
O2705 O 0.77661 0.66378 0.92157 0.0
O2706 O 0.8064 0.66581 0.93215 0.0
C2707 C 0.83708 0.69214 0.94839 0.0
N2708 N 0.83964 0.6878 0.92551 0.0
C2709 C 0.88064 0.68834 0.92018 0.0
C2710 C 0.8801 0.693 0.95875 0.0
C2711 C 0.85559 0.69421 0.96581 0.0
C2712 C 0.85784 0.68675 0.91211 0.0
H2713 H 0.82239 0.69199 0.95419 0.0
C2714 C 0.79028 0.65702 0.93244 0.0
O2715 O 0.75134 0.69427 0.90795 0.0
O2716 O 0.77433 0.70702 0.92686 0.0
N2717 N 0.83724 0.67721 0.88791 0.0
C2718 C 0.83191 0.67623 0.86915 0.0
C2719 C 0.84602 0.67676 0.85541 0.0
C2720 C 0.86559 0.67649 0.86117 0.0
C2721 C 0.87036 0.6821 0.87989 0.0
C2722 C 0.85527 0.68201 0.89329 0.0
H2723 H 0.81704 0.67567 0.86464 0.0
O2724 O 0.7878 0.71354 0.88649 0.0
O2725 O 0.80732 0.69504 0.90155 0.0
O2726 O 0.77818 0.67268 0.88021 0.0
O2727 O 0.80361 0.65479 0.8897 0.0
C2728 C 0.88934 0.68747 0.88498 0.0
C2729 C 0.89477 0.68972 0.90436 0.0
H2730 H 0.89167 0.69431 0.96967 0.0
H2731 H 0.85187 0.69613 0.98104 0.0
H2732 H 0.84054 0.67549 0.84141 0.0
H2733 H 0.87699 0.67145 0.85198 0.0
H2734 H 0.90069 0.68804 0.87395 0.0
H2735 H 0.91021 0.6922 0.90598 0.0
Mn2736 Mn 0.55368 0.9678 0.83973 0.0
Mn2737 Mn 0.57717 0.92804 0.84097 0.0
C2738 C 0.53554 0.93973 0.85482 0.0
C2739 C 0.53475 0.98867 0.82161 0.0
C2740 C 0.58694 0.96512 0.86786 0.0
O2741 O 0.57885 0.97108 0.82166 0.0
O2742 O 0.58427 0.93961 0.81616 0.0
C2743 C 0.56874 0.90068 0.80421 0.0
N2744 N 0.56791 0.90412 0.82719 0.0
C2745 C 0.56623 0.86513 0.84219 0.0
C2746 C 0.5677 0.85707 0.80432 0.0
C2747 C 0.56882 0.87887 0.79192 0.0
C2748 C 0.56701 0.88983 0.84461 0.0
H2749 H 0.57006 0.91341 0.79502 0.0
C2750 C 0.58807 0.95733 0.81266 0.0
O2751 O 0.5463 0.99528 0.83504 0.0
O2752 O 0.53622 0.97031 0.8171 0.0
N2753 N 0.56998 0.91705 0.86382 0.0
C2754 C 0.56588 0.92716 0.88031 0.0
C2755 C 0.56158 0.91728 0.89672 0.0
C2756 C 0.56232 0.89752 0.89558 0.0
C2757 C 0.56682 0.88688 0.87865 0.0
C2758 C 0.56839 0.89776 0.86246 0.0
H2759 H 0.56376 0.94245 0.88063 0.0
O2760 O 0.53029 0.95777 0.85667 0.0
O2761 O 0.55073 0.93906 0.84268 0.0
O2762 O 0.57034 0.97286 0.86485 0.0
O2763 O 0.59158 0.9505 0.85671 0.0
C2764 C 0.56848 0.86655 0.87733 0.0
C2765 C 0.56615 0.8555 0.86038 0.0
H2766 H 0.56648 0.84333 0.79644 0.0
H2767 H 0.56924 0.87885 0.77614 0.0
H2768 H 0.5572 0.92483 0.90997 0.0
H2769 H 0.55522 0.89229 0.9075 0.0
H2770 H 0.57266 0.85896 0.88982 0.0
H2771 H 0.56599 0.83981 0.86204 0.0
Mn2772 Mn 0.27809 0.80462 0.09286 0.0
Mn2773 Mn 0.32043 0.82283 0.08863 0.0
C2774 C 0.30471 0.78673 0.10948 0.0
C2775 C 0.25576 0.78733 0.07498 0.0
C2776 C 0.2872 0.83941 0.11596 0.0
O2777 O 0.2751 0.82892 0.07398 0.0
O2778 O 0.30537 0.82756 0.06452 0.0
C2779 C 0.33796 0.80468 0.05082 0.0
N2780 N 0.3396 0.80725 0.07394 0.0
C2781 C 0.38057 0.8093 0.08059 0.0
C2782 C 0.38053 0.80703 0.04167 0.0
C2783 C 0.35667 0.80496 0.03412 0.0
C2784 C 0.3574 0.80891 0.08816 0.0
H2785 H 0.32352 0.80407 0.04454 0.0
C2786 C 0.28885 0.83566 0.06336 0.0
O2787 O 0.25025 0.79907 0.08888 0.0
O2788 O 0.27429 0.78636 0.0712 0.0
N2789 N 0.33558 0.81887 0.11066 0.0
C2790 C 0.32975 0.81883 0.12929 0.0
C2791 C 0.34349 0.82208 0.14354 0.0
C2792 C 0.36292 0.82528 0.13806 0.0
C2793 C 0.36882 0.81964 0.11956 0.0
C2794 C 0.3541 0.81563 0.10621 0.0
H2795 H 0.31447 0.81796 0.13301 0.0
O2796 O 0.28654 0.78191 0.11165 0.0
O2797 O 0.30606 0.80012 0.09591 0.0
O2798 O 0.27701 0.82386 0.11575 0.0
O2799 O 0.30216 0.84107 0.10441 0.0
C2800 C 0.38844 0.81711 0.11491 0.0
C2801 C 0.39433 0.81153 0.09631 0.0
H2802 H 0.39222 0.80744 0.03081 0.0
H2803 H 0.3534 0.80391 0.0187 0.0
H2804 H 0.3379 0.82321 0.15784 0.0
H2805 H 0.37355 0.8311 0.14781 0.0
H2806 H 0.39948 0.81899 0.1261 0.0
H2807 H 0.40958 0.80908 0.09508 0.0
Mn2808 Mn 0.4396 0.52418 0.33716 0.0
Mn2809 Mn 0.41193 0.56133 0.34083 0.0
C2810 C 0.45324 0.55248 0.35473 0.0
C2811 C 0.46245 0.5076 0.319 0.0
C2812 C 0.4042 0.52085 0.36385 0.0
O2813 O 0.41678 0.52033 0.31666 0.0
O2814 O 0.40644 0.55136 0.31489 0.0
C2815 C 0.41804 0.59275 0.30766 0.0
N2816 N 0.41799 0.58792 0.33015 0.0
C2817 C 0.42088 0.62614 0.34757 0.0
C2818 C 0.42272 0.63554 0.30986 0.0
C2819 C 0.42076 0.61466 0.2967 0.0
C2820 C 0.41828 0.60128 0.3484 0.0
H2821 H 0.41688 0.58066 0.29762 0.0
C2822 C 0.40648 0.53391 0.3086 0.0
O2823 O 0.45121 0.49835 0.33111 0.0
O2824 O 0.45888 0.52592 0.31597 0.0
N2825 N 0.4182 0.57063 0.36508 0.0
C2826 C 0.41707 0.554 0.37988 0.0
C2827 C 0.40355 0.55609 0.39893 0.0
C2828 C 0.39003 0.59254 0.40041 0.0
C2829 C 0.39911 0.60457 0.38025 0.0
C2830 C 0.41243 0.59228 0.36452 0.0
H2831 H 0.4276 0.54248 0.3798 0.0
O2832 O 0.46025 0.53506 0.35652 0.0
O2833 O 0.43896 0.55263 0.3417 0.0
O2834 O 0.42168 0.5152 0.36069 0.0
O2835 O 0.39851 0.5357 0.35337 0.0
C2836 C 0.40204 0.62511 0.37911 0.0
C2837 C 0.41573 0.63454 0.36594 0.0
H2838 H 0.42492 0.64937 0.30242 0.0
H2839 H 0.42221 0.61517 0.28099 0.0
H2840 H 0.40513 0.54535 0.40984 0.0
H2841 H 0.37712 0.59836 0.40711 0.0
H2842 H 0.39505 0.63399 0.38991 0.0
H2843 H 0.42079 0.64899 0.36945 0.0
Mn2844 Mn 0.71483 0.69456 0.59604 0.0
Mn2845 Mn 0.6729 0.6739 0.60388 0.0
C2846 C 0.68828 0.71368 0.6114 0.0
C2847 C 0.7346 0.70966 0.57341 0.0
C2848 C 0.71233 0.66773 0.62954 0.0
O2849 O 0.717 0.66767 0.58056 0.0
O2850 O 0.68519 0.66315 0.57957 0.0
C2851 C 0.64947 0.68434 0.56432 0.0
N2852 N 0.64989 0.68066 0.58722 0.0
C2853 C 0.60978 0.67733 0.59694 0.0
C2854 C 0.60606 0.68309 0.55849 0.0
C2855 C 0.62938 0.68552 0.5492 0.0
C2856 C 0.63372 0.6772 0.6023 0.0
H2857 H 0.66336 0.68627 0.55718 0.0
C2858 C 0.70224 0.65801 0.57425 0.0
O2859 O 0.74148 0.70019 0.58827 0.0
O2860 O 0.71575 0.70953 0.57114 0.0
N2861 N 0.65915 0.68219 0.62713 0.0
C2862 C 0.67063 0.68305 0.64705 0.0
C2863 C 0.6657 0.67138 0.66813 0.0
C2864 C 0.64591 0.65701 0.6702 0.0
C2865 C 0.62624 0.65822 0.63521 0.0
C2866 C 0.63968 0.67302 0.62062 0.0
H2867 H 0.68436 0.69053 0.64687 0.0
O2868 O 0.70632 0.71957 0.61147 0.0
O2869 O 0.68618 0.69815 0.60081 0.0
O2870 O 0.72279 0.68099 0.62225 0.0
O2871 O 0.69524 0.66556 0.62223 0.0
C2872 C 0.60648 0.6638 0.62971 0.0
C2873 C 0.59916 0.67534 0.61409 0.0
H2874 H 0.59344 0.68445 0.54884 0.0
H2875 H 0.63138 0.68809 0.53374 0.0
H2876 H 0.67459 0.67399 0.68083 0.0
H2877 H 0.64103 0.65288 0.68314 0.0
H2878 H 0.59548 0.6632 0.63958 0.0
H2879 H 0.58403 0.67982 0.61501 0.0
Mn2880 Mn 0.65221 0.55332 0.52575 0.0
Mn2881 Mn 0.65323 0.56866 0.56868 0.0
C2882 C 0.6346 0.53399 0.55001 0.0
C2883 C 0.67375 0.53903 0.50426 0.0
C2884 C 0.62387 0.58439 0.53447 0.0
O2885 O 0.66938 0.57931 0.52607 0.0
O2886 O 0.67906 0.57337 0.55554 0.0
C2887 C 0.68083 0.53491 0.59184 0.0
N2888 N 0.66556 0.55256 0.59049 0.0
C2889 C 0.65973 0.56303 0.63018 0.0
C2890 C 0.68613 0.53519 0.63607 0.0
C2891 C 0.69202 0.52568 0.61294 0.0
C2892 C 0.65614 0.56559 0.60633 0.0
H2893 H 0.68537 0.52833 0.57821 0.0
C2894 C 0.68028 0.58414 0.54045 0.0
O2895 O 0.65921 0.54969 0.49818 0.0
O2896 O 0.67575 0.53703 0.52298 0.0
N2897 N 0.66 0.59017 0.58347 0.0
C2898 C 0.67026 0.6073 0.57947 0.0
C2899 C 0.6673 0.62162 0.59336 0.0
C2900 C 0.65505 0.61811 0.60912 0.0
C2901 C 0.65238 0.59884 0.61569 0.0
C2902 C 0.65571 0.58477 0.6021 0.0
H2903 H 0.66189 0.59589 0.57353 0.0
O2904 O 0.63412 0.52923 0.53166 0.0
O2905 O 0.6476 0.54719 0.55302 0.0
O2906 O 0.6275 0.57013 0.5232 0.0
O2907 O 0.63514 0.5867 0.55 0.0
C2908 C 0.64101 0.59236 0.63133 0.0
C2909 C 0.64652 0.57526 0.6407 0.0
H2910 H 0.69303 0.52942 0.64925 0.0
H2911 H 0.70256 0.51397 0.61173 0.0
H2912 H 0.67206 0.63596 0.5907 0.0
H2913 H 0.64634 0.63014 0.61362 0.0
H2914 H 0.62834 0.60034 0.63557 0.0
H2915 H 0.63993 0.57168 0.65456 0.0
Mn2916 Mn 0.6895 0.90349 0.78048 0.0
Mn2917 Mn 0.67007 0.91323 0.82217 0.0
C2918 C 0.70525 0.88749 0.80766 0.0
C2919 C 0.70951 0.91995 0.75963 0.0
C2920 C 0.65555 0.8798 0.78914 0.0
O2921 O 0.66529 0.92106 0.77449 0.0
O2922 O 0.6709 0.93393 0.80221 0.0
C2923 C 0.6887 0.95157 0.83719 0.0
N2924 N 0.68934 0.92826 0.83887 0.0
C2925 C 0.69189 0.92208 0.88019 0.0
C2926 C 0.68692 0.96053 0.87991 0.0
C2927 C 0.68639 0.96816 0.85595 0.0
C2928 C 0.69243 0.91402 0.85691 0.0
H2929 H 0.68744 0.95783 0.82282 0.0
C2930 C 0.66054 0.9337 0.78703 0.0
O2931 O 0.69781 0.90654 0.75302 0.0
O2932 O 0.70783 0.9251 0.77774 0.0
N2933 N 0.66689 0.89775 0.84559 0.0
C2934 C 0.64911 0.89736 0.85625 0.0
C2935 C 0.64873 0.88578 0.87303 0.0
C2936 C 0.66553 0.87639 0.87941 0.0
C2937 C 0.68358 0.88369 0.87315 0.0
C2938 C 0.684 0.89588 0.85626 0.0
H2939 H 0.65635 0.89956 0.84288 0.0
O2940 O 0.71149 0.88577 0.79001 0.0
O2941 O 0.69124 0.90011 0.80928 0.0
O2942 O 0.67113 0.88089 0.77926 0.0
O2943 O 0.65255 0.89298 0.80349 0.0
C2944 C 0.69603 0.88759 0.8885 0.0
C2945 C 0.69745 0.90697 0.89391 0.0
H2946 H 0.68651 0.97146 0.8915 0.0
H2947 H 0.68495 0.98355 0.85267 0.0
H2948 H 0.6353 0.88443 0.8812 0.0
H2949 H 0.66448 0.86763 0.89257 0.0
H2950 H 0.69832 0.87666 0.8997 0.0
H2951 H 0.70249 0.90913 0.90861 0.0
Mn2952 Mn 0.33896 0.94344 0.02853 0.0
Mn2953 Mn 0.33487 0.92274 0.06944 0.0
C2954 C 0.35434 0.96123 0.05646 0.0
C2955 C 0.31981 0.9598 0.00638 0.0
C2956 C 0.36644 0.91114 0.03495 0.0
O2957 O 0.32224 0.91737 0.02396 0.0
O2958 O 0.3118 0.91674 0.05389 0.0
C2959 C 0.29374 0.93102 0.08921 0.0
N2960 N 0.31682 0.9354 0.08943 0.0
C2961 C 0.32508 0.93707 0.13031 0.0
C2962 C 0.28781 0.92712 0.13269 0.0
C2963 C 0.27867 0.92607 0.10902 0.0
C2964 C 0.33136 0.93871 0.10662 0.0
H2965 H 0.28674 0.92968 0.07526 0.0
C2966 C 0.31138 0.9096 0.03703 0.0
O2967 O 0.33482 0.94946 0.00105 0.0
O2968 O 0.31568 0.96016 0.02488 0.0
N2969 N 0.35535 0.9284 0.08549 0.0
C2970 C 0.37417 0.92855 0.08024 0.0
C2971 C 0.3879 0.92721 0.09467 0.0
C2972 C 0.38152 0.92511 0.11384 0.0
C2973 C 0.36345 0.93227 0.11844 0.0
C2974 C 0.35014 0.93373 0.10342 0.0
H2975 H 0.37837 0.92971 0.06517 0.0
O2976 O 0.35596 0.96707 0.03851 0.0
O2977 O 0.34127 0.9471 0.057 0.0
O2978 O 0.36384 0.927 0.02579 0.0
O2979 O 0.35438 0.90734 0.04957 0.0
C2980 C 0.35944 0.93972 0.13671 0.0
C2981 C 0.34061 0.94227 0.14303 0.0
H2982 H 0.27823 0.92385 0.14503 0.0
H2983 H 0.2635 0.92238 0.10662 0.0
H2984 H 0.40275 0.92902 0.09045 0.0
H2985 H 0.3901 0.91936 0.12543 0.0
H2986 H 0.37113 0.94469 0.14567 0.0
H2987 H 0.33884 0.94801 0.15752 0.0
Mn2988 Mn 0.30914 0.59197 0.2788 0.0
Mn2989 Mn 0.33491 0.59021 0.31782 0.0
C2990 C 0.29236 0.60605 0.30704 0.0
C2991 C 0.29011 0.57429 0.25758 0.0
C2992 C 0.34329 0.61917 0.28279 0.0
O2993 O 0.33331 0.57413 0.27264 0.0
O2994 O 0.34028 0.56636 0.30314 0.0
C2995 C 0.32455 0.55144 0.33876 0.0
N2996 N 0.32571 0.57457 0.3401 0.0
C2997 C 0.3255 0.5814 0.38142 0.0
C2998 C 0.32382 0.54289 0.38105 0.0
C2999 C 0.3236 0.53523 0.35738 0.0
C3000 C 0.32638 0.5889 0.35785 0.0
H3001 H 0.32413 0.5448 0.32452 0.0
C3002 C 0.34237 0.56357 0.28503 0.0
O3003 O 0.30089 0.5887 0.25166 0.0
O3004 O 0.29146 0.56941 0.27585 0.0
N3005 N 0.33104 0.61188 0.33247 0.0
C3006 C 0.33305 0.63149 0.32322 0.0
C3007 C 0.3375 0.65531 0.3466 0.0
C3008 C 0.33741 0.64453 0.36964 0.0
C3009 C 0.33467 0.62205 0.37148 0.0
C3010 C 0.33106 0.60734 0.35389 0.0
H3011 H 0.32584 0.63353 0.30934 0.0
O3012 O 0.28628 0.60802 0.28928 0.0
O3013 O 0.30784 0.59415 0.30764 0.0
O3014 O 0.32622 0.6169 0.27575 0.0
O3015 O 0.34883 0.60742 0.29661 0.0
C3016 C 0.33225 0.61571 0.39055 0.0
C3017 C 0.32707 0.59684 0.39549 0.0
H3018 H 0.32116 0.53218 0.3923 0.0
H3019 H 0.32171 0.51991 0.35405 0.0
H3020 H 0.32089 0.68605 0.32884 0.0
H3021 H 0.33708 0.65251 0.35712 0.0
H3022 H 0.33372 0.62618 0.40237 0.0
H3023 H 0.32526 0.59505 0.41082 0.0
Mn3024 Mn 0.64996 0.44207 0.47216 0.0
Mn3025 Mn 0.65516 0.41556 0.43864 0.0
C3026 C 0.63347 0.45637 0.44142 0.0
C3027 C 0.66966 0.46475 0.48728 0.0
C3028 C 0.62574 0.40817 0.47415 0.0
O3029 O 0.66827 0.41616 0.48042 0.0
O3030 O 0.67892 0.4203 0.45249 0.0
C3031 C 0.69196 0.43543 0.4177 0.0
N3032 N 0.66967 0.42789 0.41625 0.0
C3033 C 0.66194 0.43096 0.37529 0.0
C3034 C 0.69931 0.44237 0.3751 0.0
C3035 C 0.70743 0.44216 0.39894 0.0
C3036 C 0.65538 0.42577 0.39898 0.0
H3037 H 0.69891 0.43651 0.43173 0.0
C3038 C 0.68061 0.41054 0.46741 0.0
O3039 O 0.65616 0.45572 0.49708 0.0
O3040 O 0.67289 0.45904 0.46961 0.0
N3041 N 0.63261 0.41133 0.42515 0.0
C3042 C 0.61261 0.40093 0.43339 0.0
C3043 C 0.5895 0.39959 0.40298 0.0
C3044 C 0.59996 0.40976 0.38487 0.0
C3045 C 0.62216 0.41686 0.3848 0.0
C3046 C 0.63688 0.41843 0.40354 0.0
H3047 H 0.61167 0.39237 0.44596 0.0
O3048 O 0.63237 0.46426 0.45843 0.0
O3049 O 0.64405 0.44059 0.44383 0.0
O3050 O 0.62582 0.42612 0.47872 0.0
O3051 O 0.6395 0.40204 0.46211 0.0
C3052 C 0.62798 0.42337 0.36654 0.0
C3053 C 0.64622 0.43004 0.36166 0.0
H3054 H 0.70927 0.44669 0.36338 0.0
H3055 H 0.72226 0.44652 0.4022 0.0
H3056 H 0.57411 0.39655 0.4011 0.0
H3057 H 0.58957 0.4179 0.37697 0.0
H3058 H 0.6185 0.421 0.35422 0.0
H3059 H 0.64736 0.43312 0.34622 0.0
Mn3060 Mn 0.80191 0.90307 0.71657 0.0
Mn3061 Mn 0.82191 0.9054 0.67495 0.0
C3062 C 0.78382 0.8875 0.68919 0.0
C3063 C 0.78535 0.92189 0.73867 0.0
C3064 C 0.83388 0.8754 0.70964 0.0
O3065 O 0.82787 0.92018 0.72042 0.0
O3066 O 0.82825 0.92896 0.68997 0.0
C3067 C 0.80775 0.94534 0.65706 0.0
N3068 N 0.80862 0.92212 0.65516 0.0
C3069 C 0.80979 0.91613 0.61385 0.0
C3070 C 0.80984 0.955 0.6146 0.0
C3071 C 0.80869 0.96227 0.6386 0.0
C3072 C 0.80919 0.90823 0.63709 0.0
H3073 H 0.80754 0.95146 0.67156 0.0
C3074 C 0.83559 0.9303 0.70671 0.0
O3075 O 0.79611 0.90724 0.7441 0.0
O3076 O 0.78503 0.92609 0.72017 0.0
N3077 N 0.81642 0.8847 0.65887 0.0
C3078 C 0.8157 0.86597 0.66395 0.0
C3079 C 0.81895 0.85243 0.64961 0.0
C3080 C 0.82489 0.85893 0.63104 0.0
C3081 C 0.81961 0.87733 0.62536 0.0
C3082 C 0.81477 0.89001 0.64026 0.0
H3083 H 0.81365 0.86179 0.67898 0.0
O3084 O 0.77819 0.88594 0.7072 0.0
O3085 O 0.79805 0.90022 0.68828 0.0
O3086 O 0.81839 0.8784 0.71929 0.0
O3087 O 0.83755 0.8867 0.69456 0.0
C3088 C 0.81796 0.88226 0.60565 0.0
C3089 C 0.81217 0.90073 0.5998 0.0
H3090 H 0.81062 0.966 0.60309 0.0
H3091 H 0.80861 0.97767 0.64211 0.0
H3092 H 0.8166 0.83771 0.65395 0.0
H3093 H 0.83134 0.85006 0.62007 0.0
H3094 H 0.82066 0.87134 0.5945 0.0
H3095 H 0.81085 0.90243 0.58437 0.0
Mn3096 Mn 0.34631 0.05352 0.96798 0.0
Mn3097 Mn 0.35276 0.07563 0.92726 0.0
C3098 C 0.36345 0.03546 0.94232 0.0
C3099 C 0.32566 0.03455 0.9863 0.0
C3100 C 0.37579 0.08503 0.96422 0.0
O3101 O 0.32821 0.07869 0.96982 0.0
O3102 O 0.32756 0.08459 0.93807 0.0
C3103 C 0.31909 0.05397 0.90455 0.0
N3104 N 0.3393 0.06522 0.90546 0.0
C3105 C 0.3493 0.07235 0.86611 0.0
C3106 C 0.31512 0.05291 0.86133 0.0
C3107 C 0.30643 0.04742 0.88411 0.0
C3108 C 0.35319 0.07426 0.89012 0.0
H3109 H 0.31239 0.05014 0.91833 0.0
C3110 C 0.32135 0.08819 0.95513 0.0
O3111 O 0.3389 0.04521 0.99473 0.0
O3112 O 0.32323 0.03672 0.96768 0.0
N3113 N 0.37664 0.06956 0.91467 0.0
C3114 C 0.39671 0.06308 0.92348 0.0
C3115 C 0.41942 0.06875 0.916 0.0
C3116 C 0.42253 0.08483 0.89557 0.0
C3117 C 0.38564 0.09408 0.88275 0.0
C3118 C 0.36996 0.0817 0.89715 0.0
H3119 H 0.3962 0.05714 0.93794 0.0
O3120 O 0.36384 0.03001 0.96029 0.0
O3121 O 0.35221 0.05074 0.94014 0.0
O3122 O 0.37087 0.06988 0.97375 0.0
O3123 O 0.36756 0.08947 0.94816 0.0
C3124 C 0.37652 0.09746 0.86386 0.0
C3125 C 0.36281 0.08407 0.8552 0.0
H3126 H 0.30633 0.0494 0.84845 0.0
H3127 H 0.29261 0.03991 0.88557 0.0
H3128 H 0.4243 0.07664 0.90589 0.0
H3129 H 0.43569 0.09157 0.88827 0.0
H3130 H 0.38242 0.10846 0.85432 0.0
H3131 H 0.36199 0.08393 0.83975 0.0
Mn3132 Mn 0.19284 0.58925 0.21805 0.0
Mn3133 Mn 0.17314 0.58826 0.17578 0.0
C3134 C 0.21088 0.60577 0.19097 0.0
C3135 C 0.21205 0.572 0.23915 0.0
C3136 C 0.16069 0.61709 0.21106 0.0
O3137 O 0.16728 0.57136 0.22128 0.0
O3138 O 0.16618 0.56454 0.19021 0.0
C3139 C 0.18697 0.54855 0.15743 0.0
N3140 N 0.18651 0.5718 0.15594 0.0
C3141 C 0.18622 0.57855 0.11476 0.0
C3142 C 0.18554 0.53968 0.1148 0.0
C3143 C 0.18611 0.53197 0.13866 0.0
C3144 C 0.18649 0.58603 0.13813 0.0
H3145 H 0.18687 0.54217 0.17181 0.0
C3146 C 0.15899 0.56249 0.20696 0.0
O3147 O 0.19978 0.58488 0.24566 0.0
O3148 O 0.21078 0.56711 0.2209 0.0
N3149 N 0.17915 0.60926 0.1602 0.0
C3150 C 0.17985 0.6279 0.16564 0.0
C3151 C 0.17703 0.64175 0.15149 0.0
C3152 C 0.1716 0.6357 0.13264 0.0
C3153 C 0.17679 0.61732 0.12675 0.0
C3154 C 0.18113 0.60429 0.14153 0.0
H3155 H 0.18163 0.63177 0.18081 0.0
O3156 O 0.21604 0.60726 0.20906 0.0
O3157 O 0.19683 0.59287 0.18967 0.0
O3158 O 0.17557 0.61331 0.22135 0.0
O3159 O 0.15747 0.60662 0.19536 0.0
C3160 C 0.17879 0.6127 0.10701 0.0
C3161 C 0.1844 0.59424 0.10096 0.0
H3162 H 0.18487 0.52889 0.10309 0.0
H3163 H 0.1859 0.51651 0.14188 0.0
H3164 H 0.17931 0.65639 0.15614 0.0
H3165 H 0.16554 0.64489 0.12172 0.0
H3166 H 0.17647 0.62385 0.09599 0.0
H3167 H 0.18606 0.59279 0.08555 0.0
Mn3168 Mn 0.02993 0.65504 0.05263 0.0
Mn3169 Mn 0.07166 0.65597 0.0732 0.0
C3170 C 0.05753 0.6387 0.03485 0.0
C3171 C 0.00955 0.67274 0.03301 0.0
C3172 C 0.0362 0.62657 0.0845 0.0
O3173 O 0.0259 0.67292 0.07822 0.0
O3174 O 0.05699 0.6794 0.08096 0.0
C3175 C 0.0896 0.69632 0.06008 0.0
N3176 N 0.09146 0.67308 0.06045 0.0
C3177 C 0.13275 0.66696 0.06113 0.0
C3178 C 0.13216 0.70583 0.06203 0.0
C3179 C 0.10813 0.7132 0.06123 0.0
C3180 C 0.10948 0.65915 0.06055 0.0
H3181 H 0.0751 0.70244 0.0601 0.0
C3182 C 0.03987 0.68179 0.08713 0.0
O3183 O 0.00256 0.65961 0.04473 0.0
O3184 O 0.02778 0.67743 0.03495 0.0
N3185 N 0.08762 0.63537 0.06684 0.0
C3186 C 0.08244 0.61666 0.06567 0.0
C3187 C 0.09675 0.60296 0.06831 0.0
C3188 C 0.11549 0.6092 0.07399 0.0
C3189 C 0.12117 0.62777 0.06938 0.0
C3190 C 0.10625 0.64069 0.06528 0.0
H3191 H 0.06733 0.61263 0.06375 0.0
O3192 O 0.03954 0.63723 0.02949 0.0
O3193 O 0.05844 0.65148 0.0491 0.0
O3194 O 0.02611 0.63066 0.06952 0.0
O3195 O 0.05194 0.63694 0.08806 0.0
C3196 C 0.14087 0.63272 0.06775 0.0
C3197 C 0.14673 0.65142 0.06273 0.0
H3198 H 0.14372 0.71677 0.06284 0.0
H3199 H 0.10467 0.72861 0.06149 0.0
H3200 H 0.09228 0.58829 0.06579 0.0
H3201 H 0.12652 0.60013 0.07999 0.0
H3202 H 0.15203 0.62166 0.06984 0.0
H3203 H 0.16212 0.65307 0.0612 0.0
Mn3204 Mn 0.53033 0.34331 0.44108 0.0
Mn3205 Mn 0.56954 0.35692 0.41773 0.0
C3206 C 0.55574 0.36201 0.45827 0.0
C3207 C 0.5114 0.32218 0.45914 0.0
C3208 C 0.53152 0.37684 0.41135 0.0
O3209 O 0.5296 0.32287 0.41826 0.0
O3210 O 0.55557 0.33487 0.40339 0.0
C3211 C 0.587 0.31658 0.42155 0.0
N3212 N 0.58992 0.33936 0.42198 0.0
C3213 C 0.63028 0.34478 0.41918 0.0
C3214 C 0.6279 0.30539 0.41824 0.0
C3215 C 0.60422 0.29926 0.41959 0.0
C3216 C 0.60763 0.35306 0.42048 0.0
H3217 H 0.57254 0.31127 0.42397 0.0
C3218 C 0.54172 0.32232 0.40413 0.0
O3219 O 0.50399 0.33523 0.44767 0.0
O3220 O 0.53037 0.32136 0.4602 0.0
N3221 N 0.58523 0.37831 0.42882 0.0
C3222 C 0.57678 0.3987 0.43538 0.0
C3223 C 0.58468 0.42127 0.42952 0.0
C3224 C 0.60431 0.42448 0.41492 0.0
C3225 C 0.61873 0.38782 0.40582 0.0
C3226 C 0.60346 0.37188 0.41749 0.0
H3227 H 0.56194 0.39876 0.44059 0.0
O3228 O 0.5375 0.36273 0.46345 0.0
O3229 O 0.55829 0.35088 0.443 0.0
O3230 O 0.52149 0.36572 0.42229 0.0
O3231 O 0.54974 0.37559 0.41051 0.0
C3232 C 0.6385 0.379 0.40823 0.0
C3233 C 0.64377 0.36014 0.41571 0.0
H3234 H 0.63883 0.29398 0.41694 0.0
H3235 H 0.60007 0.28402 0.41965 0.0
H3236 H 0.57569 0.43362 0.43342 0.0
H3237 H 0.60742 0.43713 0.40805 0.0
H3238 H 0.65164 0.38744 0.40646 0.0
H3239 H 0.65904 0.35786 0.41822 0.0
Mn3240 Mn 0.90255 0.77817 0.6931 0.0
Mn3241 Mn 0.90482 0.8199 0.67297 0.0
C3242 C 0.88665 0.80599 0.71077 0.0
C3243 C 0.92101 0.75797 0.71241 0.0
C3244 C 0.87498 0.78501 0.66084 0.0
O3245 O 0.92045 0.77396 0.66771 0.0
O3246 O 0.92824 0.80481 0.66643 0.0
C3247 C 0.94492 0.83732 0.68747 0.0
N3248 N 0.92171 0.83944 0.6864 0.0
C3249 C 0.91604 0.88079 0.68604 0.0
C3250 C 0.95492 0.87979 0.68639 0.0
C3251 C 0.96201 0.85568 0.6871 0.0
C3252 C 0.90797 0.85762 0.68605 0.0
H3253 H 0.95092 0.82276 0.68744 0.0
C3254 C 0.93008 0.78788 0.65961 0.0
O3255 O 0.90702 0.75084 0.70175 0.0
O3256 O 0.92519 0.77626 0.71031 0.0
N3257 N 0.88423 0.83613 0.67858 0.0
C3258 C 0.86546 0.83118 0.67928 0.0
C3259 C 0.85204 0.84563 0.67607 0.0
C3260 C 0.8586 0.86432 0.67063 0.0
C3261 C 0.8771 0.86976 0.67593 0.0
C3262 C 0.88971 0.85467 0.68043 0.0
H3263 H 0.86115 0.81615 0.68128 0.0
O3264 O 0.88468 0.78806 0.71605 0.0
O3265 O 0.89948 0.80664 0.69666 0.0
O3266 O 0.87831 0.77484 0.67596 0.0
O3267 O 0.88597 0.8004 0.6575 0.0
C3268 C 0.88219 0.88938 0.678 0.0
C3269 C 0.90073 0.89497 0.68389 0.0
H3270 H 0.966 0.89123 0.68597 0.0
H3271 H 0.97739 0.85206 0.68726 0.0
H3272 H 0.83731 0.84133 0.67828 0.0
H3273 H 0.84967 0.87545 0.66449 0.0
H3274 H 0.87133 0.90067 0.67562 0.0
H3275 H 0.9025 0.91034 0.6856 0.0
Mn3276 Mn 0.4653 0.15446 0.93856 0.0
Mn3277 Mn 0.42337 0.16372 0.91947 0.0
C3278 C 0.43848 0.13895 0.95527 0.0
C3279 C 0.48804 0.17226 0.95567 0.0
C3280 C 0.4564 0.12984 0.90524 0.0
O3281 O 0.47058 0.17114 0.91363 0.0
O3282 O 0.44323 0.18454 0.91961 0.0
C3283 C 0.4084 0.20258 0.93724 0.0
N3284 N 0.40664 0.1793 0.93837 0.0
C3285 C 0.36524 0.17339 0.94103 0.0
C3286 C 0.3657 0.21171 0.93527 0.0
C3287 C 0.38971 0.21922 0.93458 0.0
C3288 C 0.38851 0.16524 0.94178 0.0
H3289 H 0.4228 0.20875 0.93588 0.0
C3290 C 0.45827 0.18402 0.90909 0.0
O3291 O 0.49296 0.1577 0.94456 0.0
O3292 O 0.46964 0.17688 0.95627 0.0
N3293 N 0.39984 0.14829 0.91679 0.0
C3294 C 0.389 0.14789 0.89911 0.0
C3295 C 0.37219 0.13633 0.89893 0.0
C3296 C 0.36594 0.1271 0.91585 0.0
C3297 C 0.37222 0.13472 0.93376 0.0
C3298 C 0.38918 0.14685 0.93393 0.0
H3299 H 0.4025 0.14992 0.90619 0.0
O3300 O 0.45632 0.13746 0.9614 0.0
O3301 O 0.43657 0.15132 0.94105 0.0
O3302 O 0.46604 0.13117 0.92093 0.0
O3303 O 0.44197 0.14296 0.90208 0.0
C3304 C 0.35682 0.13904 0.946 0.0
C3305 C 0.35144 0.15846 0.94682 0.0
H3306 H 0.35416 0.22269 0.9346 0.0
H3307 H 0.39306 0.23455 0.93283 0.0
H3308 H 0.36395 0.13485 0.88556 0.0
H3309 H 0.35279 0.11829 0.91497 0.0
H3310 H 0.34557 0.12821 0.94854 0.0
H3311 H 0.3367 0.16079 0.95161 0.0
Mn3312 Mn 0.59046 0.21621 0.19313 0.0
Mn3313 Mn 0.58692 0.17506 0.1747 0.0
C3314 C 0.60717 0.18918 0.21191 0.0
C3315 C 0.5683 0.23649 0.20854 0.0
C3316 C 0.61739 0.20993 0.16054 0.0
O3317 O 0.5736 0.219 0.16627 0.0
O3318 O 0.56296 0.18962 0.16918 0.0
C3319 C 0.54767 0.15857 0.19511 0.0
N3320 N 0.57044 0.15618 0.19009 0.0
C3321 C 0.57592 0.11519 0.18976 0.0
C3322 C 0.53748 0.11549 0.19551 0.0
C3323 C 0.53037 0.13995 0.19735 0.0
C3324 C 0.58382 0.13802 0.18833 0.0
H3325 H 0.54181 0.17324 0.19547 0.0
C3326 C 0.5626 0.20527 0.15973 0.0
O3327 O 0.58344 0.24352 0.19941 0.0
O3328 O 0.56666 0.21769 0.20926 0.0
N3329 N 0.60768 0.15901 0.17942 0.0
C3330 C 0.62639 0.1642 0.17998 0.0
C3331 C 0.64005 0.1498 0.17766 0.0
C3332 C 0.63381 0.13071 0.17428 0.0
C3333 C 0.61569 0.12562 0.18144 0.0
C3334 C 0.60236 0.14073 0.18303 0.0
H3335 H 0.63036 0.17934 0.18151 0.0
O3336 O 0.60813 0.20732 0.21733 0.0
O3337 O 0.59456 0.18834 0.19761 0.0
O3338 O 0.61507 0.21967 0.17622 0.0
O3339 O 0.60545 0.19486 0.15767 0.0
C3340 C 0.6111 0.10657 0.18698 0.0
C3341 C 0.59187 0.1011 0.19045 0.0
H3342 H 0.52665 0.10385 0.19694 0.0
H3343 H 0.51518 0.14357 0.19981 0.0
H3344 H 0.65469 0.15396 0.18014 0.0
H3345 H 0.64298 0.11974 0.16795 0.0
H3346 H 0.6222 0.09528 0.18669 0.0
H3347 H 0.59045 0.08565 0.19299 0.0
Mn3348 Mn 0.96594 0.34485 0.05139 0.0
Mn3349 Mn 0.92462 0.34206 0.07192 0.0
C3350 C 0.93769 0.35998 0.03366 0.0
C3351 C 0.98657 0.32615 0.03309 0.0
C3352 C 0.95914 0.37271 0.08312 0.0
O3353 O 0.97071 0.3277 0.07717 0.0
O3354 O 0.9402 0.31889 0.07845 0.0
C3355 C 0.9076 0.30159 0.05795 0.0
N3356 N 0.90512 0.32476 0.05895 0.0
C3357 C 0.86369 0.32974 0.06031 0.0
C3358 C 0.86535 0.29089 0.06016 0.0
C3359 C 0.88954 0.2842 0.05888 0.0
C3360 C 0.88673 0.33819 0.05964 0.0
H3361 H 0.92226 0.29584 0.05765 0.0
C3362 C 0.95719 0.31757 0.08526 0.0
O3363 O 0.99337 0.34056 0.04339 0.0
O3364 O 0.96828 0.32177 0.03494 0.0
N3365 N 0.90799 0.36234 0.06634 0.0
C3366 C 0.91259 0.3812 0.06532 0.0
C3367 C 0.89794 0.39442 0.06852 0.0
C3368 C 0.87957 0.38754 0.07462 0.0
C3369 C 0.87432 0.36893 0.06967 0.0
C3370 C 0.8895 0.35655 0.06495 0.0
H3371 H 0.92752 0.38572 0.0631 0.0
O3372 O 0.95553 0.36195 0.02795 0.0
O3373 O 0.93744 0.34742 0.04802 0.0
O3374 O 0.96895 0.36956 0.06774 0.0
O3375 O 0.94411 0.36137 0.08692 0.0
C3376 C 0.85473 0.36349 0.06821 0.0
C3377 C 0.8493 0.34482 0.06266 0.0
H3378 H 0.8541 0.27963 0.06083 0.0
H3379 H 0.89342 0.26888 0.05869 0.0
H3380 H 0.90187 0.40925 0.06607 0.0
H3381 H 0.86842 0.3962 0.08102 0.0
H3382 H 0.84332 0.37418 0.07081 0.0
H3383 H 0.83393 0.34278 0.06136 0.0
Mn3384 Mn 0.9068 0.71733 0.80387 0.0
Mn3385 Mn 0.90374 0.67795 0.82698 0.0
C3386 C 0.89167 0.69021 0.78501 0.0
C3387 C 0.92762 0.73783 0.78739 0.0
C3388 C 0.87741 0.71502 0.83624 0.0
O3389 O 0.92392 0.72006 0.82962 0.0
O3390 O 0.92873 0.68858 0.835 0.0
C3391 C 0.94015 0.65013 0.81852 0.0
N3392 N 0.9172 0.65394 0.81797 0.0
C3393 C 0.90154 0.61536 0.81615 0.0
C3394 C 0.93926 0.60654 0.81699 0.0
C3395 C 0.95208 0.62811 0.81822 0.0
C3396 C 0.8995 0.64006 0.81712 0.0
H3397 H 0.94955 0.66271 0.81977 0.0
C3398 C 0.93262 0.70619 0.83882 0.0
O3399 O 0.91303 0.74434 0.79763 0.0
O3400 O 0.93063 0.71911 0.78762 0.0
N3401 N 0.88052 0.66776 0.81899 0.0
C3402 C 0.86426 0.67811 0.81426 0.0
C3403 C 0.8476 0.66845 0.80964 0.0
C3404 C 0.84771 0.64868 0.81213 0.0
C3405 C 0.86516 0.6379 0.81645 0.0
C3406 C 0.88161 0.64848 0.81765 0.0
H3407 H 0.86431 0.69339 0.81199 0.0
O3408 O 0.89058 0.70833 0.77958 0.0
O3409 O 0.9032 0.68904 0.80062 0.0
O3410 O 0.88093 0.72282 0.81972 0.0
O3411 O 0.88861 0.70066 0.84113 0.0
C3412 C 0.86679 0.61766 0.81941 0.0
C3413 C 0.8833 0.60619 0.81645 0.0
H3414 H 0.9469 0.59265 0.81571 0.0
H3415 H 0.96787 0.62782 0.81851 0.0
H3416 H 0.83446 0.67633 0.80565 0.0
H3417 H 0.83344 0.643 0.80955 0.0
H3418 H 0.85469 0.61017 0.824 0.0
H3419 H 0.88135 0.59054 0.81631 0.0
Mn3420 Mn 0.09453 0.77907 0.30039 0.0
Mn3421 Mn 0.09153 0.82068 0.31776 0.0
C3422 C 0.11136 0.80539 0.28127 0.0
C3423 C 0.07138 0.75918 0.28639 0.0
C3424 C 0.12149 0.78616 0.33236 0.0
O3425 O 0.07849 0.77656 0.32733 0.0
O3426 O 0.06764 0.80549 0.32287 0.0
C3427 C 0.05333 0.83738 0.29583 0.0
N3428 N 0.07587 0.83977 0.30162 0.0
C3429 C 0.08057 0.88105 0.30477 0.0
C3430 C 0.04225 0.88004 0.2976 0.0
C3431 C 0.03586 0.85569 0.29417 0.0
C3432 C 0.08891 0.85809 0.30497 0.0
H3433 H 0.04772 0.82265 0.2947 0.0
C3434 C 0.06742 0.79035 0.33321 0.0
O3435 O 0.08674 0.75193 0.29509 0.0
O3436 O 0.07028 0.77798 0.28502 0.0
N3437 N 0.11232 0.83672 0.31356 0.0
C3438 C 0.13107 0.83178 0.31365 0.0
C3439 C 0.1443 0.84618 0.31769 0.0
C3440 C 0.13742 0.86468 0.32332 0.0
C3441 C 0.11926 0.87023 0.3167 0.0
C3442 C 0.10681 0.8552 0.31179 0.0
H3443 H 0.13542 0.81675 0.31178 0.0
O3444 O 0.112 0.78725 0.27582 0.0
O3445 O 0.09909 0.80664 0.29563 0.0
O3446 O 0.11906 0.77589 0.31703 0.0
O3447 O 0.10978 0.80137 0.33512 0.0
C3448 C 0.11433 0.88974 0.31361 0.0
C3449 C 0.09567 0.89529 0.3081 0.0
H3450 H 0.03107 0.89143 0.29696 0.0
H3451 H 0.02081 0.85191 0.29119 0.0
H3452 H 0.15907 0.84189 0.31613 0.0
H3453 H 0.14625 0.87553 0.33022 0.0
H3454 H 0.12526 0.90106 0.31539 0.0
H3455 H 0.09405 0.9107 0.30642 0.0
C3456 C 0.11813 0.52493 0.10853 0.0
C3457 C 0.09771 0.5292 0.10634 0.0
C3458 C 0.10334 0.52683 0.07004 0.0
C3459 C 0.12421 0.5274 0.07232 0.0
N3460 N 0.14962 0.51641 0.09344 0.0
N3461 N 0.07102 0.52921 0.08249 0.0
C3462 C 0.13098 0.52307 0.09155 0.0
C3463 C 0.09042 0.52783 0.0866 0.0
N3464 N 0.12544 0.52327 0.12694 0.0
N3465 N 0.09483 0.52673 0.05209 0.0
H3466 H 0.06008 0.53092 0.09292 0.0
H3467 H 0.06008 0.53092 0.09292 0.0
H3468 H 0.10251 0.52593 0.03898 0.0
H3469 H 0.10251 0.52593 0.03898 0.0
H3470 H 0.14022 0.52181 0.13014 0.0
H3471 H 0.11646 0.52442 0.13915 0.0
H3472 H 0.15516 0.51056 0.10632 0.0
H3473 H 0.15883 0.51495 0.08135 0.0
C3474 C 0.71218 0.35531 0.32138 0.0
C3475 C 0.71441 0.37553 0.32641 0.0
C3476 C 0.72894 0.36482 0.35779 0.0
C3477 C 0.72254 0.34548 0.354 0.0
N3478 N 0.71458 0.32127 0.3302 0.0
N3479 N 0.73158 0.3987 0.34658 0.0
C3480 C 0.71668 0.34052 0.33501 0.0
C3481 C 0.7252 0.38001 0.34368 0.0
N3482 N 0.70577 0.34932 0.30361 0.0
N3483 N 0.73777 0.36855 0.37524 0.0
H3484 H 0.72883 0.40989 0.3366 0.0
H3485 H 0.74007 0.40308 0.35838 0.0
H3486 H 0.74104 0.35726 0.38496 0.0
H3487 H 0.74176 0.38237 0.3801 0.0
H3488 H 0.70268 0.35863 0.29206 0.0
H3489 H 0.70268 0.35863 0.29206 0.0
H3490 H 0.70966 0.31661 0.31654 0.0
H3491 H 0.71839 0.31015 0.33994 0.0
C3492 C 0.89332 0.9691 0.57161 0.0
C3493 C 0.87237 0.96825 0.5733 0.0
C3494 C 0.87697 0.97026 0.60966 0.0
C3495 C 0.89746 0.96617 0.60818 0.0
N3496 N 0.9256 0.96898 0.58687 0.0
N3497 N 0.84606 0.97883 0.59349 0.0
C3498 C 0.90575 0.96838 0.58892 0.0
C3499 C 0.86482 0.97233 0.59226 0.0
N3500 N 0.90154 0.96879 0.55344 0.0
N3501 N 0.86893 0.9716 0.6278 0.0
H3502 H 0.83731 0.98035 0.58108 0.0
H3503 H 0.83999 0.98453 0.60621 0.0
H3504 H 0.87742 0.97024 0.64033 0.0
H3505 H 0.85403 0.97303 0.63044 0.0
H3506 H 0.91616 0.96572 0.55069 0.0
H3507 H 0.8937 0.97145 0.54073 0.0
H3508 H 0.93269 0.9735 0.57423 0.0
H3509 H 0.93532 0.96586 0.59808 0.0
C3510 C 0.27909 0.15201 0.8398 0.0
C3511 C 0.28254 0.14475 0.85941 0.0
C3512 C 0.27939 0.111 0.84438 0.0
C3513 C 0.28154 0.11805 0.8248 0.0
N3514 N 0.27608 0.14641 0.80449 0.0
N3515 N 0.27721 0.1158 0.87902 0.0
C3516 C 0.27802 0.13883 0.82284 0.0
C3517 C 0.27971 0.12399 0.86118 0.0
N3518 N 0.27753 0.1717 0.83699 0.0
N3519 N 0.27722 0.09156 0.84771 0.0
H3520 H 0.27725 0.12398 0.89186 0.0
H3521 H 0.27725 0.12398 0.89186 0.0
H3522 H 0.27671 0.08122 0.83649 0.0
H3523 H 0.27671 0.08122 0.83649 0.0
H3524 H 0.27169 0.17812 0.82453 0.0
H3525 H 0.28169 0.18199 0.84729 0.0
H3526 H 0.27763 0.1611 0.80099 0.0
H3527 H 0.27271 0.13797 0.79236 0.0
C3528 C 0.12224 0.46339 0.88253 0.0
C3529 C 0.10138 0.46379 0.88496 0.0
C3530 C 0.1082 0.46904 0.92091 0.0
C3531 C 0.12869 0.46463 0.91863 0.0
N3532 N 0.15502 0.46719 0.89578 0.0
N3533 N 0.0778 0.47997 0.90649 0.0
C3534 C 0.13554 0.46512 0.89898 0.0
C3535 C 0.09536 0.47076 0.90405 0.0
N3536 N 0.13013 0.46155 0.86449 0.0
N3537 N 0.10016 0.46941 0.93917 0.0
H3538 H 0.06847 0.48395 0.89526 0.0
H3539 H 0.07381 0.48677 0.91951 0.0
H3540 H 0.10818 0.46863 0.952 0.0
H3541 H 0.08513 0.46888 0.94158 0.0
H3542 H 0.12168 0.45989 0.85197 0.0
H3543 H 0.12168 0.45989 0.85197 0.0
H3544 H 0.16081 0.46842 0.88173 0.0
H3545 H 0.16488 0.46888 0.9073 0.0
C3546 C 0.77869 0.33865 0.16023 0.0
C3547 C 0.77947 0.34647 0.14064 0.0
C3548 C 0.77284 0.37925 0.15635 0.0
C3549 C 0.77763 0.37216 0.17538 0.0
N3550 N 0.7777 0.34295 0.19537 0.0
N3551 N 0.77247 0.37451 0.12083 0.0
C3552 C 0.77753 0.35124 0.17725 0.0
C3553 C 0.77464 0.36681 0.13904 0.0
N3554 N 0.78084 0.31916 0.16359 0.0
N3555 N 0.76585 0.39782 0.15498 0.0
H3556 H 0.77352 0.36584 0.10839 0.0
H3557 H 0.77066 0.38933 0.118 0.0
H3558 H 0.76452 0.40678 0.16726 0.0
H3559 H 0.7596 0.4035 0.14234 0.0
H3560 H 0.78285 0.30866 0.15276 0.0
H3561 H 0.78285 0.30866 0.15276 0.0
H3562 H 0.77631 0.35096 0.2082 0.0
H3563 H 0.77839 0.32787 0.19753 0.0
C3564 C 0.90555 0.02833 0.40999 0.0
C3565 C 0.89803 0.02925 0.3903 0.0
C3566 C 0.86496 0.02313 0.40557 0.0
C3567 C 0.87184 0.02789 0.42466 0.0
N3568 N 0.90073 0.02788 0.44509 0.0
N3569 N 0.87012 0.02281 0.37015 0.0
C3570 C 0.89271 0.02758 0.42685 0.0
C3571 C 0.87763 0.02479 0.38845 0.0
N3572 N 0.92504 0.02976 0.41358 0.0
N3573 N 0.84635 0.0163 0.40396 0.0
H3574 H 0.87898 0.0238 0.35786 0.0
H3575 H 0.8553 0.02127 0.36713 0.0
H3576 H 0.83721 0.01507 0.41612 0.0
H3577 H 0.84082 0.01006 0.39126 0.0
H3578 H 0.9357 0.03108 0.40281 0.0
H3579 H 0.9357 0.03108 0.40281 0.0
H3580 H 0.91579 0.02845 0.44748 0.0
H3581 H 0.8925 0.02681 0.4578 0.0
C3582 C 0.2181 0.11897 0.63733 0.0
C3583 C 0.2178 0.13979 0.63729 0.0
C3584 C 0.21626 0.13803 0.67386 0.0
C3585 C 0.20975 0.1181 0.67307 0.0
N3586 N 0.21679 0.08825 0.65631 0.0
N3587 N 0.23314 0.16469 0.65738 0.0
C3588 C 0.21444 0.10803 0.65537 0.0
C3589 C 0.22228 0.14802 0.65612 0.0
N3590 N 0.2248 0.11009 0.62094 0.0
N3591 N 0.21517 0.1482 0.69101 0.0
H3592 H 0.24037 0.17073 0.64547 0.0
H3593 H 0.23791 0.17054 0.67058 0.0
H3594 H 0.20994 0.14235 0.70399 0.0
H3595 H 0.21761 0.16319 0.69198 0.0
H3596 H 0.2291 0.09554 0.62041 0.0
H3597 H 0.22819 0.11821 0.60852 0.0
H3598 H 0.22168 0.07962 0.64482 0.0
H3599 H 0.21485 0.08051 0.6693 0.0
C3600 C 0.0877 0.12829 0.51625 0.0
C3601 C 0.06864 0.12346 0.52361 0.0
C3602 C 0.07844 0.08788 0.51783 0.0
C3603 C 0.0986 0.0928 0.51531 0.0
N3604 N 0.11951 0.11885 0.50397 0.0
N3605 N 0.04432 0.09737 0.5217 0.0
C3606 C 0.102 0.11319 0.51127 0.0
C3607 C 0.06346 0.10294 0.52103 0.0
N3608 N 0.09265 0.14746 0.51436 0.0
N3609 N 0.07402 0.06853 0.51972 0.0
H3610 H 0.03274 0.10666 0.52462 0.0
H3611 H 0.03955 0.08355 0.51753 0.0
H3612 H 0.0844 0.05768 0.51697 0.0
H3613 H 0.06073 0.0633 0.52494 0.0
H3614 H 0.10645 0.15189 0.50961 0.0
H3615 H 0.08284 0.15871 0.51755 0.0
H3616 H 0.13017 0.10882 0.49969 0.0
H3617 H 0.13017 0.10882 0.49969 0.0
C3618 C 0.14218 0.31538 0.77437 0.0
C3619 C 0.12138 0.32012 0.77459 0.0
C3620 C 0.13165 0.35364 0.76316 0.0
C3621 C 0.1518 0.35032 0.76811 0.0
N3622 N 0.17651 0.32603 0.7702 0.0
N3623 N 0.09757 0.3433 0.763 0.0
C3624 C 0.15704 0.33038 0.77073 0.0
C3625 C 0.11664 0.33891 0.7666 0.0
N3626 N 0.14807 0.29682 0.77864 0.0
N3627 N 0.12607 0.37143 0.75647 0.0
H3628 H 0.08638 0.33319 0.76523 0.0
H3629 H 0.09319 0.35692 0.7577 0.0
H3630 H 0.13606 0.3826 0.75367 0.0
H3631 H 0.13606 0.3826 0.75367 0.0
H3632 H 0.16248 0.29274 0.7811 0.0
H3633 H 0.13876 0.28498 0.77988 0.0
H3634 H 0.18238 0.31204 0.77075 0.0
H3635 H 0.18696 0.33684 0.7676 0.0
C3636 C 0.90456 0.40668 0.02648 0.0
C3637 C 0.88515 0.39866 0.02867 0.0
C3638 C 0.90117 0.36587 0.02255 0.0
C3639 C 0.92026 0.3734 0.02628 0.0
N3640 N 0.93971 0.40289 0.02397 0.0
N3641 N 0.86559 0.37001 0.02369 0.0
C3642 C 0.92175 0.39431 0.02518 0.0
C3643 C 0.88373 0.37809 0.02473 0.0
N3644 N 0.90766 0.42629 0.02702 0.0
N3645 N 0.89985 0.3471 0.01613 0.0
H3646 H 0.85306 0.3785 0.02503 0.0
H3647 H 0.86298 0.35508 0.02252 0.0
H3648 H 0.91224 0.33833 0.01452 0.0
H3649 H 0.88706 0.34108 0.01055 0.0
H3650 H 0.89669 0.43672 0.02844 0.0
H3651 H 0.89669 0.43672 0.02844 0.0
H3652 H 0.94163 0.41802 0.02388 0.0
H3653 H 0.95259 0.39507 0.02214 0.0
C3654 C 0.84118 0.15545 0.27549 0.0
C3655 C 0.84888 0.13592 0.27762 0.0
C3656 C 0.88193 0.15145 0.27169 0.0
C3657 C 0.87466 0.17069 0.27531 0.0
N3658 N 0.84477 0.19003 0.273 0.0
N3659 N 0.87727 0.11592 0.27287 0.0
C3660 C 0.85373 0.17235 0.2742 0.0
C3661 C 0.86945 0.13418 0.27381 0.0
N3662 N 0.82165 0.15904 0.27612 0.0
N3663 N 0.90073 0.1498 0.26542 0.0
H3664 H 0.86858 0.10352 0.27423 0.0
H3665 H 0.89216 0.11307 0.27181 0.0
H3666 H 0.90972 0.16203 0.26385 0.0
H3667 H 0.9066 0.1369 0.25992 0.0
H3668 H 0.81101 0.14828 0.27768 0.0
H3669 H 0.81101 0.14828 0.27768 0.0
H3670 H 0.85216 0.20328 0.27169 0.0
H3671 H 0.85216 0.20328 0.27169 0.0
C3672 C 0.08711 0.86314 0.47898 0.0
C3673 C 0.07014 0.87277 0.47195 0.0
C3674 C 0.0881 0.90379 0.47645 0.0
C3675 C 0.1066 0.89357 0.47519 0.0
N3676 N 0.12253 0.86394 0.48461 0.0
N3677 N 0.05286 0.90323 0.47059 0.0
C3678 C 0.10575 0.87322 0.47927 0.0
C3679 C 0.07004 0.89342 0.47316 0.0
N3680 N 0.0848 0.84497 0.48683 0.0
N3681 N 0.08738 0.92294 0.48204 0.0
H3682 H 0.03948 0.89607 0.46952 0.0
H3683 H 0.05201 0.91825 0.46827 0.0
H3684 H 0.09925 0.93078 0.48721 0.0
H3685 H 0.07439 0.93048 0.48446 0.0
H3686 H 0.0956 0.83772 0.49469 0.0
H3687 H 0.07124 0.83795 0.48687 0.0
H3688 H 0.12304 0.84948 0.48915 0.0
H3689 H 0.13591 0.87121 0.48534 0.0
C3690 C 0.34322 0.33802 0.72257 0.0
C3691 C 0.35354 0.35624 0.72205 0.0
C3692 C 0.3836 0.33535 0.72408 0.0
C3693 C 0.3738 0.31988 0.71418 0.0
N3694 N 0.34245 0.30326 0.71752 0.0
N3695 N 0.38112 0.36786 0.73953 0.0
C3696 C 0.35329 0.31989 0.71837 0.0
C3697 C 0.37345 0.3539 0.7277 0.0
N3698 N 0.32374 0.33714 0.72634 0.0
N3699 N 0.40158 0.33145 0.73179 0.0
H3700 H 0.37313 0.38039 0.74313 0.0
H3701 H 0.39475 0.36685 0.74618 0.0
H3702 H 0.40817 0.31777 0.73017 0.0
H3703 H 0.40988 0.34152 0.73957 0.0
H3704 H 0.31524 0.34926 0.72987 0.0
H3705 H 0.31524 0.34926 0.72987 0.0
H3706 H 0.34818 0.28957 0.71405 0.0
H3707 H 0.34818 0.28957 0.71405 0.0
C3708 C 0.91148 0.58781 0.96413 0.0
C3709 C 0.8925 0.59421 0.969 0.0
C3710 C 0.90544 0.62768 0.97289 0.0
C3711 C 0.92255 0.62213 0.96245 0.0
N3712 N 0.94283 0.5958 0.95009 0.0
N3713 N 0.87258 0.61878 0.98375 0.0
C3714 C 0.926 0.60182 0.95897 0.0
C3715 C 0.8899 0.61377 0.9753 0.0
N3716 N 0.91576 0.56836 0.96506 0.0
N3717 N 0.90423 0.64608 0.98053 0.0
H3718 H 0.86198 0.60826 0.98676 0.0
H3719 H 0.86868 0.63294 0.98765 0.0
H3720 H 0.91544 0.65629 0.97897 0.0
H3721 H 0.89267 0.65104 0.98905 0.0
H3722 H 0.9298 0.56271 0.96345 0.0
H3723 H 0.90553 0.55804 0.9696 0.0
H3724 H 0.94524 0.58156 0.94538 0.0
H3725 H 0.9542 0.60513 0.94652 0.0
C3726 C 0.61505 0.15307 0.22462 0.0
C3727 C 0.62172 0.17217 0.21918 0.0
C3728 C 0.65544 0.15686 0.21796 0.0
C3729 C 0.64795 0.13712 0.21748 0.0
N3730 N 0.62083 0.11764 0.22778 0.0
N3731 N 0.65154 0.19159 0.21738 0.0
C3732 C 0.62781 0.13573 0.22338 0.0
C3733 C 0.64274 0.17384 0.2186 0.0
N3734 N 0.59665 0.15173 0.23202 0.0
N3735 N 0.67491 0.16043 0.21639 0.0
H3736 H 0.64403 0.20483 0.2177 0.0
H3737 H 0.64403 0.20483 0.2177 0.0
H3738 H 0.6855 0.14954 0.21558 0.0
H3739 H 0.6855 0.14954 0.21558 0.0
H3740 H 0.59113 0.13925 0.23866 0.0
H3741 H 0.5876 0.16398 0.23313 0.0
H3742 H 0.60625 0.11452 0.2307 0.0
H3743 H 0.63002 0.10551 0.22784 0.0
C3744 C 0.52209 0.09107 0.12826 0.0
C3745 C 0.53216 0.07363 0.12309 0.0
C3746 C 0.52961 0.0833 0.08842 0.0
C3747 C 0.52436 0.10242 0.09397 0.0
N3748 N 0.51071 0.12346 0.11824 0.0
N3749 N 0.54125 0.05189 0.09607 0.0
C3750 C 0.5189 0.10588 0.11369 0.0
C3751 C 0.53438 0.0693 0.10273 0.0
N3752 N 0.51522 0.09318 0.14687 0.0
N3753 N 0.53078 0.07796 0.0693 0.0
H3754 H 0.5454 0.04028 0.10494 0.0
H3755 H 0.5454 0.04028 0.10494 0.0
H3756 H 0.52715 0.08719 0.05773 0.0
H3757 H 0.52715 0.08719 0.05773 0.0
H3758 H 0.50691 0.10498 0.15163 0.0
H3759 H 0.51719 0.08247 0.15754 0.0
H3760 H 0.50738 0.12802 0.13234 0.0
H3761 H 0.5072 0.13355 0.10737 0.0
C3762 C 0.02389 0.91333 0.40802 0.0
C3763 C 0.02122 0.8933 0.40282 0.0
C3764 C 0.01932 0.90478 0.36779 0.0
C3765 C 0.02647 0.92394 0.3725 0.0
N3766 N 0.02469 0.9477 0.39901 0.0
N3767 N 0.00973 0.87224 0.37688 0.0
C3768 C 0.02527 0.92865 0.39318 0.0
C3769 C 0.01621 0.89003 0.38268 0.0
N3770 N 0.02674 0.91752 0.42728 0.0
N3771 N 0.01545 0.89983 0.34897 0.0
H3772 H 0.00706 0.86093 0.38674 0.0
H3773 H 0.00706 0.86093 0.38674 0.0
H3774 H 0.01714 0.90949 0.33729 0.0
H3775 H 0.01714 0.90949 0.33729 0.0
H3776 H 0.03208 0.93083 0.43237 0.0
H3777 H 0.02461 0.90699 0.4381 0.0
H3778 H 0.0217 0.95197 0.4133 0.0
H3779 H 0.02502 0.95952 0.38957 0.0
C3780 C 0.33984 0.26973 0.61096 0.0
C3781 C 0.32215 0.27416 0.62096 0.0
C3782 C 0.33984 0.26333 0.65111 0.0
C3783 C 0.35861 0.26733 0.64237 0.0
N3784 N 0.37548 0.26565 0.61195 0.0
N3785 N 0.30479 0.26773 0.65129 0.0
C3786 C 0.35827 0.26799 0.62157 0.0
C3787 C 0.32192 0.26818 0.64108 0.0
N3788 N 0.33842 0.2647 0.5918 0.0
N3789 N 0.33825 0.25534 0.66922 0.0
H3790 H 0.29127 0.27103 0.64525 0.0
H3791 H 0.3042 0.26415 0.6661 0.0
H3792 H 0.34994 0.24973 0.67719 0.0
H3793 H 0.34994 0.24973 0.67719 0.0
H3794 H 0.34968 0.25802 0.58405 0.0
H3795 H 0.32514 0.26548 0.5843 0.0
H3796 H 0.37642 0.26488 0.59689 0.0
H3797 H 0.38862 0.26332 0.61933 0.0
C3798 C 0.96149 0.61108 0.87193 0.0
C3799 C 0.9611 0.61055 0.89284 0.0
C3800 C 0.96455 0.57353 0.8888 0.0
C3801 C 0.95778 0.57452 0.86878 0.0
N3802 N 0.96982 0.59399 0.84241 0.0
N3803 N 0.97851 0.59055 0.91696 0.0
C3804 C 0.9617 0.59323 0.86039 0.0
C3805 C 0.96792 0.5916 0.90011 0.0
N3806 N 0.96447 0.62828 0.86257 0.0
N3807 N 0.96556 0.55585 0.89792 0.0
H3808 H 0.98402 0.60271 0.92414 0.0
H3809 H 0.98477 0.57764 0.92201 0.0
H3810 H 0.9633 0.54268 0.89074 0.0
H3811 H 0.96732 0.55434 0.91295 0.0
H3812 H 0.9657 0.64159 0.86991 0.0
H3813 H 0.9657 0.64159 0.86991 0.0
H3814 H 0.97292 0.58143 0.83429 0.0
H3815 H 0.97292 0.58143 0.83429 0.0
C3816 C 0.17575 0.71855 0.14524 0.0
C3817 C 0.17429 0.7177 0.12427 0.0
C3818 C 0.13784 0.72044 0.12913 0.0
C3819 C 0.13922 0.71634 0.14966 0.0
N3820 N 0.16198 0.71665 0.17714 0.0
N3821 N 0.15409 0.72878 0.09817 0.0
C3822 C 0.15869 0.71763 0.15758 0.0
C3823 C 0.1553 0.72212 0.11685 0.0
N3824 N 0.19334 0.71936 0.15441 0.0
N3825 N 0.11971 0.72208 0.12112 0.0
H3826 H 0.16648 0.73007 0.08934 0.0
H3827 H 0.14146 0.73488 0.09229 0.0
H3828 H 0.10717 0.72099 0.12965 0.0
H3829 H 0.11707 0.72345 0.10622 0.0
H3830 H 0.2067 0.72063 0.14723 0.0
H3831 H 0.2067 0.72063 0.14723 0.0
H3832 H 0.151 0.71541 0.1876 0.0
H3833 H 0.151 0.71541 0.1876 0.0
C3834 C 0.46441 0.92476 0.10371 0.0
C3835 C 0.46377 0.92279 0.12464 0.0
C3836 C 0.4661 0.88679 0.11991 0.0
C3837 C 0.46226 0.88829 0.09944 0.0
N3838 N 0.46469 0.90963 0.07136 0.0
N3839 N 0.474 0.90155 0.15062 0.0
C3840 C 0.46402 0.90756 0.0912 0.0
C3841 C 0.46787 0.90383 0.13195 0.0
N3842 N 0.46373 0.94298 0.09565 0.0
N3843 N 0.46829 0.86913 0.12865 0.0
H3844 H 0.47651 0.91334 0.15998 0.0
H3845 H 0.47651 0.91334 0.15998 0.0
H3846 H 0.46714 0.85593 0.12113 0.0
H3847 H 0.46714 0.85593 0.12113 0.0
H3848 H 0.46063 0.94575 0.08105 0.0
H3849 H 0.46612 0.95569 0.10357 0.0
H3850 H 0.46873 0.92246 0.06429 0.0
H3851 H 0.46219 0.89825 0.06165 0.0
C3852 C 0.34165 0.22483 0.88038 0.0
C3853 C 0.32289 0.21902 0.8732 0.0
C3854 C 0.33851 0.21997 0.83965 0.0
C3855 C 0.35815 0.22023 0.84738 0.0
N3856 N 0.37708 0.22813 0.87575 0.0
N3857 N 0.30391 0.2175 0.84299 0.0
C3858 C 0.35915 0.22454 0.86793 0.0
C3859 C 0.32146 0.2191 0.85216 0.0
N3860 N 0.34252 0.23177 0.89898 0.0
N3861 N 0.33505 0.2195 0.82009 0.0
H3862 H 0.2905 0.21701 0.85015 0.0
H3863 H 0.2905 0.21701 0.85015 0.0
H3864 H 0.34584 0.22028 0.80939 0.0
H3865 H 0.34584 0.22028 0.80939 0.0
H3866 H 0.35463 0.23905 0.90457 0.0
H3867 H 0.33021 0.23213 0.90798 0.0
H3868 H 0.37976 0.22945 0.89066 0.0
H3869 H 0.38948 0.22898 0.86701 0.0
C3870 C 0.65378 0.2702 0.37751 0.0
C3871 C 0.672 0.27564 0.36912 0.0
C3872 C 0.65786 0.26529 0.33678 0.0
C3873 C 0.63832 0.26547 0.34429 0.0
N3874 N 0.61925 0.26218 0.37347 0.0
N3875 N 0.69233 0.26907 0.34043 0.0
C3876 C 0.637 0.2656 0.36528 0.0
C3877 C 0.67445 0.26955 0.34908 0.0
N3878 N 0.6531 0.26749 0.39721 0.0
N3879 N 0.66152 0.26175 0.3176 0.0
H3880 H 0.70539 0.27214 0.34762 0.0
H3881 H 0.70539 0.27214 0.34762 0.0
H3882 H 0.6508 0.25797 0.30747 0.0
H3883 H 0.6508 0.25797 0.30747 0.0
H3884 H 0.64132 0.26113 0.40442 0.0
H3885 H 0.66524 0.26994 0.40612 0.0
H3886 H 0.61595 0.26484 0.38807 0.0
H3887 H 0.60788 0.25664 0.36503 0.0
C3888 C 0.09352 0.01823 0.58723 0.0
C3889 C 0.10352 0.02058 0.60566 0.0
C3890 C 0.13439 0.02234 0.58638 0.0
C3891 C 0.1238 0.0259 0.56882 0.0
N3892 N 0.09326 0.0209 0.55195 0.0
N3893 N 0.13448 0.01956 0.62198 0.0
C3894 C 0.10352 0.02145 0.56904 0.0
C3895 C 0.12433 0.02076 0.60489 0.0
N3896 N 0.07428 0.01339 0.58614 0.0
N3897 N 0.15406 0.01949 0.58506 0.0
H3898 H 0.12761 0.017 0.63534 0.0
H3899 H 0.14954 0.02098 0.62299 0.0
H3900 H 0.16142 0.02012 0.5717 0.0
H3901 H 0.16271 0.01466 0.59658 0.0
H3902 H 0.06556 0.00953 0.59797 0.0
H3903 H 0.06556 0.00953 0.59797 0.0
H3904 H 0.07824 0.01827 0.55144 0.0
H3905 H 0.09972 0.02295 0.53835 0.0
C3906 C 0.70892 0.8526 0.81939 0.0
C3907 C 0.7115 0.87302 0.82291 0.0
C3908 C 0.72571 0.86529 0.855 0.0
C3909 C 0.72038 0.84547 0.85244 0.0
N3910 N 0.71683 0.81939 0.82946 0.0
N3911 N 0.72986 0.89748 0.84028 0.0
C3912 C 0.71532 0.83883 0.83363 0.0
C3913 C 0.72241 0.87899 0.83953 0.0
N3914 N 0.69974 0.8463 0.80283 0.0
N3915 N 0.73389 0.8708 0.87229 0.0
H3916 H 0.72768 0.9076 0.82909 0.0
H3917 H 0.73903 0.90247 0.85134 0.0
H3918 H 0.73751 0.86048 0.8829 0.0
H3919 H 0.73679 0.88521 0.87615 0.0
H3920 H 0.69666 0.83174 0.79985 0.0
H3921 H 0.69418 0.85565 0.79229 0.0
H3922 H 0.71491 0.81351 0.81557 0.0
H3923 H 0.72199 0.80937 0.83971 0.0
C3924 C 0.86105 0.47289 0.09227 0.0
C3925 C 0.86787 0.46909 0.07295 0.0
C3926 C 0.90189 0.46991 0.08733 0.0
C3927 C 0.89449 0.46748 0.10694 0.0
N3928 N 0.86659 0.47203 0.12763 0.0
N3929 N 0.89619 0.46999 0.05201 0.0
C3930 C 0.87395 0.47102 0.10919 0.0
C3931 C 0.88873 0.47028 0.07049 0.0
N3932 N 0.84221 0.47893 0.09433 0.0
N3933 N 0.92162 0.4711 0.08451 0.0
H3934 H 0.88767 0.47208 0.03963 0.0
H3935 H 0.91078 0.46731 0.0487 0.0
H3936 H 0.93184 0.46851 0.0954 0.0
H3937 H 0.92806 0.47568 0.07153 0.0
H3938 H 0.83658 0.48446 0.10732 0.0
H3939 H 0.8329 0.48028 0.08232 0.0
H3940 H 0.85176 0.47298 0.13085 0.0
H3941 H 0.87558 0.47087 0.13983 0.0
C3942 C 0.27163 0.62206 0.35902 0.0
C3943 C 0.27288 0.64303 0.35714 0.0
C3944 C 0.27533 0.63789 0.32128 0.0
C3945 C 0.28144 0.6178 0.32378 0.0
N3946 N 0.27186 0.59 0.34322 0.0
N3947 N 0.25825 0.66622 0.33523 0.0
C3948 C 0.27479 0.60952 0.34194 0.0
C3949 C 0.26796 0.64905 0.33786 0.0
N3950 N 0.27003 0.61376 0.37685 0.0
N3951 N 0.27853 0.64737 0.30401 0.0
H3952 H 0.25322 0.67445 0.34704 0.0
H3953 H 0.25341 0.67093 0.32158 0.0
H3954 H 0.28565 0.64121 0.29212 0.0
H3955 H 0.276 0.66227 0.30223 0.0
H3956 H 0.26852 0.62219 0.38943 0.0
H3957 H 0.26852 0.62219 0.38943 0.0
H3958 H 0.26669 0.5835 0.35601 0.0
H3959 H 0.27352 0.58094 0.33104 0.0
C3960 C 0.08707 0.95875 0.4075 0.0
C3961 C 0.09618 0.95797 0.38851 0.0
C3962 C 0.1269 0.96404 0.40698 0.0
C3963 C 0.11929 0.9561 0.42453 0.0
N3964 N 0.08946 0.95032 0.44215 0.0
N3965 N 0.12631 0.96619 0.37208 0.0
C3966 C 0.0985 0.95513 0.42508 0.0
C3967 C 0.11657 0.96219 0.38881 0.0
N3968 N 0.06765 0.96293 0.40912 0.0
N3969 N 0.14232 0.97641 0.40774 0.0
H3970 H 0.11986 0.96557 0.3583 0.0
H3971 H 0.11986 0.96557 0.3583 0.0
H3972 H 0.14962 0.97978 0.42072 0.0
H3973 H 0.14962 0.97978 0.42072 0.0
H3974 H 0.0608 0.9653 0.4225 0.0
H3975 H 0.05881 0.96601 0.39723 0.0
H3976 H 0.07461 0.94711 0.44311 0.0
H3977 H 0.09717 0.94838 0.4551 0.0
C3978 C 0.77586 0.85269 0.67398 0.0
C3979 C 0.77642 0.87365 0.67213 0.0
C3980 C 0.77477 0.86864 0.63575 0.0
C3981 C 0.77905 0.8482 0.63739 0.0
N3982 N 0.77642 0.82026 0.65891 0.0
N3983 N 0.76576 0.89962 0.65155 0.0
C3984 C 0.77683 0.8401 0.65674 0.0
C3985 C 0.77243 0.88094 0.65304 0.0
N3986 N 0.7761 0.84469 0.69224 0.0
N3987 N 0.7735 0.87651 0.61753 0.0
H3988 H 0.76409 0.90852 0.66384 0.0
H3989 H 0.76005 0.90546 0.63874 0.0
H3990 H 0.77499 0.86794 0.60507 0.0
H3991 H 0.77202 0.89138 0.61476 0.0
H3992 H 0.77904 0.83009 0.69519 0.0
H3993 H 0.77355 0.85276 0.70483 0.0
H3994 H 0.77228 0.81316 0.67168 0.0
H3995 H 0.77923 0.81053 0.64763 0.0
C3996 C 0.90655 0.51821 0.90559 0.0
C3997 C 0.89617 0.51648 0.88745 0.0
C3998 C 0.86595 0.51283 0.90751 0.0
C3999 C 0.87546 0.5219 0.9235 0.0
N4000 N 0.90673 0.52006 0.94041 0.0
N4001 N 0.86774 0.502 0.87321 0.0
C4002 C 0.89616 0.51957 0.92359 0.0
C4003 C 0.87638 0.51025 0.88913 0.0
N4004 N 0.92637 0.51929 0.90662 0.0
N4005 N 0.84702 0.507 0.90985 0.0
H4006 H 0.87561 0.49947 0.86038 0.0
H4007 H 0.85327 0.49741 0.87274 0.0
H4008 H 0.83977 0.50858 0.92319 0.0
H4009 H 0.83874 0.5003 0.89902 0.0
H4010 H 0.93572 0.51807 0.89469 0.0
H4011 H 0.93572 0.51807 0.89469 0.0
H4012 H 0.90049 0.52118 0.95426 0.0
H4013 H 0.90049 0.52118 0.95426 0.0
C4014 C 0.22308 0.61281 0.15507 0.0
C4015 C 0.21875 0.61977 0.17427 0.0
C4016 C 0.21874 0.65348 0.15962 0.0
C4017 C 0.21738 0.64606 0.13994 0.0
N4018 N 0.22316 0.61811 0.11962 0.0
N4019 N 0.22004 0.64943 0.19416 0.0
C4020 C 0.22148 0.62558 0.13797 0.0
C4021 C 0.21962 0.64069 0.17632 0.0
N4022 N 0.22943 0.59405 0.15333 0.0
N4023 N 0.21755 0.67293 0.16351 0.0
H4024 H 0.22102 0.64195 0.20737 0.0
H4025 H 0.22102 0.64195 0.20737 0.0
H4026 H 0.21599 0.68374 0.15292 0.0
H4027 H 0.21599 0.68374 0.15292 0.0
H4028 H 0.2353 0.58835 0.14052 0.0
H4029 H 0.23062 0.58486 0.16546 0.0
H4030 H 0.2245 0.60329 0.11652 0.0
H4031 H 0.22215 0.62701 0.10735 0.0
C4032 C 0.09366 0.63152 0.0232 0.0
C4033 C 0.07436 0.62466 0.02689 0.0
C4034 C 0.08912 0.59063 0.02593 0.0
C4035 C 0.10872 0.59813 0.0281 0.0
N4036 N 0.12849 0.62701 0.02311 0.0
N4037 N 0.05369 0.59611 0.02544 0.0
C4038 C 0.11055 0.61877 0.02471 0.0
C4039 C 0.07212 0.60371 0.02557 0.0
N4040 N 0.0961 0.65057 0.01813 0.0
N4041 N 0.08654 0.57088 0.02477 0.0
H4042 H 0.04131 0.60448 0.02286 0.0
H4043 H 0.05041 0.5815 0.02796 0.0
H4044 H 0.09779 0.56088 0.02667 0.0
H4045 H 0.0735 0.56418 0.02081 0.0
H4046 H 0.08425 0.66008 0.01666 0.0
H4047 H 0.10974 0.65621 0.01432 0.0
H4048 H 0.1414 0.61903 0.02427 0.0
H4049 H 0.1414 0.61903 0.02427 0.0
C4050 C 0.15879 0.83787 0.2763 0.0
C4051 C 0.15071 0.85733 0.27717 0.0
C4052 C 0.11852 0.84117 0.26912 0.0
C4053 C 0.12559 0.8222 0.27407 0.0
N4054 N 0.15557 0.80308 0.27493 0.0
N4055 N 0.12244 0.87672 0.26979 0.0
C4056 C 0.14653 0.82075 0.27476 0.0
C4057 C 0.1305 0.85864 0.2718 0.0
N4058 N 0.1783 0.83475 0.27825 0.0
N4059 N 0.10069 0.8423 0.26046 0.0
H4060 H 0.13076 0.88936 0.27126 0.0
H4061 H 0.10756 0.87911 0.26771 0.0
H4062 H 0.09196 0.82993 0.25849 0.0
H4063 H 0.09593 0.85477 0.25316 0.0
H4064 H 0.18854 0.8459 0.27982 0.0
H4065 H 0.18854 0.8459 0.27982 0.0
H4066 H 0.1482 0.78983 0.2735 0.0
H4067 H 0.1482 0.78983 0.2735 0.0
C4068 C 0.90498 0.86456 0.5235 0.0
C4069 C 0.92405 0.87179 0.52781 0.0
C4070 C 0.90899 0.90541 0.52815 0.0
C4071 C 0.88941 0.89759 0.52911 0.0
N4072 N 0.86948 0.86945 0.52298 0.0
N4073 N 0.94402 0.90043 0.52287 0.0
C4074 C 0.88773 0.87712 0.52488 0.0
C4075 C 0.926 0.89264 0.52628 0.0
N4076 N 0.90355 0.84577 0.51716 0.0
N4077 N 0.91169 0.92494 0.53117 0.0
H4078 H 0.95643 0.89195 0.5207 0.0
H4079 H 0.94637 0.91511 0.51968 0.0
H4080 H 0.90025 0.93481 0.53257 0.0
H4081 H 0.92525 0.93126 0.53389 0.0
H4082 H 0.89087 0.83991 0.51118 0.0
H4083 H 0.91583 0.83676 0.51607 0.0
H4084 H 0.86657 0.8546 0.5216 0.0
H4085 H 0.85709 0.87822 0.52383 0.0
C4086 C 0.85773 0.67564 0.77023 0.0
C4087 C 0.87819 0.67333 0.77549 0.0
C4088 C 0.87256 0.63726 0.77166 0.0
C4089 C 0.85168 0.63907 0.77187 0.0
N4090 N 0.8257 0.66066 0.7626 0.0
N4091 N 0.90431 0.65222 0.76642 0.0
C4092 C 0.84479 0.6585 0.76787 0.0
C4093 C 0.88534 0.65419 0.7718 0.0
N4094 N 0.84999 0.69401 0.76959 0.0
N4095 N 0.88093 0.6193 0.77126 0.0
H4096 H 0.91378 0.66417 0.76585 0.0
H4097 H 0.9097 0.63905 0.76089 0.0
H4098 H 0.87288 0.60636 0.77109 0.0
H4099 H 0.87288 0.60636 0.77109 0.0
H4100 H 0.83512 0.69697 0.76878 0.0
H4101 H 0.85838 0.7066 0.77048 0.0
H4102 H 0.81951 0.67378 0.75808 0.0
H4103 H 0.81637 0.64872 0.76115 0.0
C4104 C 0.09202 0.40355 0.97827 0.0
C4105 C 0.11164 0.3965 0.97501 0.0
C4106 C 0.09568 0.36272 0.97451 0.0
C4107 C 0.07645 0.37013 0.97092 0.0
N4108 N 0.05649 0.39907 0.97504 0.0
N4109 N 0.13122 0.36755 0.97536 0.0
C4110 C 0.07466 0.39083 0.97549 0.0
C4111 C 0.11301 0.37549 0.9751 0.0
N4112 N 0.08977 0.42263 0.98356 0.0
N4113 N 0.09727 0.34338 0.97873 0.0
H4114 H 0.14366 0.37625 0.97638 0.0
H4115 H 0.13397 0.3527 0.97398 0.0
H4116 H 0.08513 0.33413 0.97858 0.0
H4117 H 0.10992 0.33713 0.98444 0.0
H4118 H 0.07658 0.42872 0.98802 0.0
H4119 H 0.10161 0.43198 0.98544 0.0
H4120 H 0.05393 0.41404 0.97502 0.0
H4121 H 0.04374 0.39102 0.9735 0.0
C4122 C 0.38591 0.84208 0.22739 0.0
C4123 C 0.37776 0.82326 0.2228 0.0
C4124 C 0.34542 0.84033 0.23027 0.0
C4125 C 0.35307 0.85956 0.22582 0.0
N4126 N 0.3832 0.87741 0.23028 0.0
N4127 N 0.34764 0.80491 0.22595 0.0
C4128 C 0.37401 0.86 0.22789 0.0
C4129 C 0.35701 0.82246 0.22694 0.0
N4130 N 0.40513 0.84299 0.23209 0.0
N4131 N 0.32739 0.83886 0.23864 0.0
H4132 H 0.35485 0.79166 0.22433 0.0
H4133 H 0.33247 0.80364 0.2255 0.0
H4134 H 0.31968 0.85096 0.24363 0.0
H4135 H 0.32162 0.82571 0.24365 0.0
H4136 H 0.41153 0.85588 0.23711 0.0
H4137 H 0.41389 0.83048 0.23229 0.0
H4138 H 0.37567 0.89068 0.23093 0.0
H4139 H 0.37567 0.89068 0.23093 0.0
C4140 C 0.92371 0.10438 0.46922 0.0
C4141 C 0.92171 0.12534 0.46826 0.0
C4142 C 0.88545 0.11999 0.47022 0.0
C4143 C 0.88711 0.09941 0.46659 0.0
N4144 N 0.90901 0.07186 0.47054 0.0
N4145 N 0.90028 0.15153 0.47713 0.0
C4146 C 0.90657 0.0916 0.46901 0.0
C4147 C 0.90249 0.13248 0.47193 0.0
N4148 N 0.94198 0.09641 0.46837 0.0
N4149 N 0.86758 0.1284 0.47199 0.0
H4150 H 0.88669 0.15736 0.48086 0.0
H4151 H 0.91226 0.16085 0.47873 0.0
H4152 H 0.85457 0.12057 0.47084 0.0
H4153 H 0.85457 0.12057 0.47084 0.0
H4154 H 0.94475 0.08183 0.46507 0.0
H4155 H 0.95467 0.10444 0.47048 0.0
H4156 H 0.9219 0.06529 0.4752 0.0
H4157 H 0.89785 0.06182 0.4684 0.0
C4158 C 0.62461 0.63643 0.71125 0.0
C4159 C 0.64556 0.63727 0.71112 0.0
C4160 C 0.64149 0.67401 0.71243 0.0
C4161 C 0.62093 0.67291 0.70737 0.0
N4162 N 0.59335 0.65284 0.71541 0.0
N4163 N 0.66999 0.65715 0.72641 0.0
C4164 C 0.61266 0.65406 0.71108 0.0
C4165 C 0.65285 0.65621 0.71649 0.0
N4166 N 0.61551 0.61891 0.71172 0.0
N4167 N 0.65081 0.69158 0.71188 0.0
H4168 H 0.67713 0.64443 0.73084 0.0
H4169 H 0.67548 0.6701 0.73226 0.0
H4170 H 0.64377 0.7046 0.70848 0.0
H4171 H 0.66591 0.6929 0.71336 0.0
H4172 H 0.62322 0.60578 0.71145 0.0
H4173 H 0.62322 0.60578 0.71145 0.0
H4174 H 0.58698 0.63972 0.71985 0.0
H4175 H 0.58446 0.66523 0.7161 0.0
C4176 C 0.51915 0.58603 0.63195 0.0
C4177 C 0.52726 0.56998 0.62168 0.0
C4178 C 0.51815 0.58673 0.59085 0.0
C4179 C 0.51737 0.60484 0.60117 0.0
N4180 N 0.50921 0.62033 0.63132 0.0
N4181 N 0.52609 0.5519 0.59141 0.0
C4182 C 0.51532 0.60399 0.62176 0.0
C4183 C 0.52379 0.5692 0.6011 0.0
N4184 N 0.51374 0.5834 0.65095 0.0
N4185 N 0.51386 0.58646 0.57138 0.0
H4186 H 0.52914 0.53885 0.59853 0.0
H4187 H 0.52512 0.55019 0.57637 0.0
H4188 H 0.50809 0.59854 0.56418 0.0
H4189 H 0.51438 0.57414 0.56254 0.0
H4190 H 0.50565 0.59349 0.65893 0.0
H4191 H 0.51607 0.57022 0.65828 0.0
H4192 H 0.50672 0.62087 0.64626 0.0
H4193 H 0.50585 0.63318 0.62383 0.0
C4194 C 0.02115 0.38868 0.87962 0.0
C4195 C 0.02609 0.38959 0.89995 0.0
C4196 C 0.02704 0.42635 0.89578 0.0
C4197 C 0.02547 0.42494 0.8748 0.0
N4198 N 0.01056 0.40565 0.84994 0.0
N4199 N 0.02505 0.41115 0.92803 0.0
C4200 C 0.01928 0.40632 0.86776 0.0
C4201 C 0.02591 0.40899 0.90822 0.0
N4202 N 0.01852 0.37078 0.87134 0.0
N4203 N 0.03181 0.44393 0.90392 0.0
H4204 H 0.02488 0.39953 0.93776 0.0
H4205 H 0.02252 0.42451 0.93485 0.0
H4206 H 0.03217 0.45693 0.89611 0.0
H4207 H 0.03666 0.4455 0.91825 0.0
H4208 H 0.01677 0.36863 0.85639 0.0
H4209 H 0.019 0.35799 0.87957 0.0
H4210 H 0.00261 0.39356 0.84521 0.0
H4211 H 0.00922 0.41808 0.84118 0.0
C4212 C 0.31995 0.78005 0.14444 0.0
C4213 C 0.32156 0.77941 0.12349 0.0
C4214 C 0.35771 0.77461 0.12835 0.0
C4215 C 0.35659 0.77871 0.14888 0.0
N4216 N 0.33394 0.77951 0.17648 0.0
N4217 N 0.34103 0.76624 0.09775 0.0
C4218 C 0.33708 0.77909 0.15686 0.0
C4219 C 0.3402 0.7736 0.1162 0.0
N4220 N 0.30213 0.78297 0.15295 0.0
N4221 N 0.3757 0.77215 0.12017 0.0
H4222 H 0.32866 0.76545 0.08884 0.0
H4223 H 0.35324 0.75902 0.09226 0.0
H4224 H 0.38841 0.77229 0.12851 0.0
H4225 H 0.37807 0.77105 0.10519 0.0
H4226 H 0.3003 0.78422 0.16803 0.0
H4227 H 0.28916 0.78425 0.14518 0.0
H4228 H 0.34483 0.77866 0.18706 0.0
H4229 H 0.34483 0.77866 0.18706 0.0
C4230 C 0.9697 0.07165 0.39431 0.0
C4231 C 0.96878 0.07317 0.37335 0.0
C4232 C 0.97065 0.10962 0.37781 0.0
C4233 C 0.96665 0.1083 0.39834 0.0
N4234 N 0.96973 0.08715 0.42652 0.0
N4235 N 0.97927 0.09331 0.34698 0.0
C4236 C 0.96893 0.08905 0.40668 0.0
C4237 C 0.97278 0.09214 0.36574 0.0
N4238 N 0.96978 0.0535 0.40257 0.0
N4239 N 0.97187 0.12771 0.36965 0.0
H4240 H 0.98081 0.08086 0.33828 0.0
H4241 H 0.98496 0.10601 0.34089 0.0
H4242 H 0.97044 0.1403 0.37805 0.0
H4243 H 0.97322 0.13026 0.35473 0.0
H4244 H 0.96694 0.05073 0.41722 0.0
H4245 H 0.9726 0.04084 0.39469 0.0
H4246 H 0.974 0.07447 0.4337 0.0
H4247 H 0.96716 0.09857 0.43616 0.0
C4248 C 0.16054 0.22812 0.65703 0.0
C4249 C 0.14138 0.22374 0.64988 0.0
C4250 C 0.15776 0.22265 0.61729 0.0
C4251 C 0.17573 0.21629 0.62554 0.0
N4252 N 0.19519 0.21936 0.65505 0.0
N4253 N 0.12234 0.22398 0.62059 0.0
C4254 C 0.17772 0.22185 0.6458 0.0
C4255 C 0.14019 0.22371 0.62912 0.0
N4256 N 0.16238 0.23622 0.6751 0.0
N4257 N 0.15817 0.23092 0.59937 0.0
H4258 H 0.10961 0.22454 0.6289 0.0
H4259 H 0.12062 0.22325 0.60556 0.0
H4260 H 0.17088 0.23106 0.5909 0.0
H4261 H 0.14664 0.23967 0.59452 0.0
H4262 H 0.17574 0.24071 0.68084 0.0
H4263 H 0.15015 0.24007 0.68336 0.0
H4264 H 0.19691 0.22109 0.67007 0.0
H4265 H 0.20764 0.21418 0.64807 0.0
C4266 C 0.4722 0.40194 0.64152 0.0
C4267 C 0.47015 0.42135 0.63355 0.0
C4268 C 0.48557 0.40608 0.60274 0.0
C4269 C 0.48078 0.38627 0.6081 0.0
N4270 N 0.48035 0.36678 0.63711 0.0
N4271 N 0.48817 0.4403 0.60879 0.0
C4272 C 0.47776 0.38475 0.62909 0.0
C4273 C 0.4814 0.42287 0.61536 0.0
N4274 N 0.46939 0.40004 0.66108 0.0
N4275 N 0.49409 0.40987 0.58523 0.0
H4276 H 0.48777 0.45319 0.61681 0.0
H4277 H 0.48777 0.45319 0.61681 0.0
H4278 H 0.49857 0.39899 0.57554 0.0
H4279 H 0.49857 0.39899 0.57554 0.0
H4280 H 0.47165 0.38718 0.66877 0.0
H4281 H 0.46589 0.41213 0.66971 0.0
H4282 H 0.47707 0.36318 0.65149 0.0
H4283 H 0.48705 0.35571 0.62903 0.0
C4284 C 0.31694 0.72579 0.35143 0.0
C4285 C 0.31706 0.72382 0.37225 0.0
C4286 C 0.35162 0.73561 0.37126 0.0
C4287 C 0.35329 0.72983 0.35141 0.0
N4288 N 0.33485 0.73439 0.32164 0.0
N4289 N 0.32981 0.74105 0.39962 0.0
C4290 C 0.33498 0.73023 0.34112 0.0
C4291 C 0.33308 0.73315 0.38162 0.0
N4292 N 0.30009 0.72209 0.34145 0.0
N4293 N 0.36709 0.74523 0.37927 0.0
H4294 H 0.31636 0.73952 0.40667 0.0
H4295 H 0.3397 0.75004 0.40687 0.0
H4296 H 0.38 0.74741 0.37141 0.0
H4297 H 0.36686 0.7519 0.39293 0.0
H4298 H 0.29936 0.72081 0.32632 0.0
H4299 H 0.2869 0.71939 0.34854 0.0
H4300 H 0.32213 0.73614 0.3135 0.0
H4301 H 0.3475 0.7381 0.31406 0.0
C4302 C 0.65875 0.76451 0.87911 0.0
C4303 C 0.67474 0.77362 0.86963 0.0
C4304 C 0.65704 0.76933 0.83846 0.0
C4305 C 0.63878 0.76762 0.84871 0.0
N4306 N 0.62471 0.75304 0.87712 0.0
N4307 N 0.6919 0.7713 0.83855 0.0
C4308 C 0.64042 0.76178 0.86864 0.0
C4309 C 0.67498 0.77094 0.84898 0.0
N4310 N 0.66136 0.75809 0.89781 0.0
N4311 N 0.65826 0.77014 0.81865 0.0
H4312 H 0.70569 0.77259 0.8449 0.0
H4313 H 0.70569 0.77259 0.8449 0.0
H4314 H 0.64646 0.76873 0.80917 0.0
H4315 H 0.64646 0.76873 0.80917 0.0
H4316 H 0.65073 0.7509 0.90593 0.0
H4317 H 0.67473 0.75967 0.905 0.0
H4318 H 0.62427 0.74842 0.89159 0.0
H4319 H 0.61201 0.75017 0.86915 0.0
C4320 C 0.59951 0.53005 0.56394 0.0
C4321 C 0.62002 0.52685 0.56557 0.0
C4322 C 0.61443 0.51584 0.5997 0.0
C4323 C 0.59557 0.52446 0.59944 0.0
N4324 N 0.56729 0.52657 0.57891 0.0
N4325 N 0.64307 0.50537 0.5806 0.0
C4326 C 0.58711 0.52761 0.58075 0.0
C4327 C 0.62638 0.51618 0.5822 0.0
N4328 N 0.59175 0.53482 0.54628 0.0
N4329 N 0.6203 0.50657 0.61634 0.0
H4330 H 0.65141 0.50529 0.56783 0.0
H4331 H 0.64791 0.49564 0.59123 0.0
H4332 H 0.63343 0.49905 0.61777 0.0
H4333 H 0.61141 0.50594 0.62872 0.0
H4334 H 0.57733 0.5392 0.54431 0.0
H4335 H 0.59984 0.53403 0.53345 0.0
H4336 H 0.55985 0.52725 0.56568 0.0
H4337 H 0.5584 0.52301 0.59073 0.0
C4338 C 0.2299 0.38002 0.83332 0.0
C4339 C 0.22232 0.36988 0.81689 0.0
C4340 C 0.22568 0.33943 0.83608 0.0
C4341 C 0.22584 0.35038 0.85398 0.0
N4342 N 0.23714 0.38005 0.86846 0.0
N4343 N 0.22168 0.33824 0.80118 0.0
C4344 C 0.23077 0.37049 0.85222 0.0
C4345 C 0.22331 0.34919 0.81767 0.0
N4346 N 0.23751 0.39819 0.83027 0.0
N4347 N 0.22759 0.31963 0.83632 0.0
H4348 H 0.22004 0.34422 0.78725 0.0
H4349 H 0.22004 0.34422 0.78725 0.0
H4350 H 0.23134 0.31186 0.8488 0.0
H4351 H 0.2269 0.3112 0.82363 0.0
H4352 H 0.24549 0.40591 0.84064 0.0
H4353 H 0.23713 0.40481 0.81653 0.0
H4354 H 0.24218 0.39436 0.86842 0.0
H4355 H 0.2382 0.37307 0.88198 0.0
C4356 C 0.38984 0.96818 0.07174 0.0
C4357 C 0.36875 0.96837 0.07358 0.0
C4358 C 0.37486 0.97445 0.1094 0.0
C4359 C 0.39478 0.96783 0.10859 0.0
N4360 N 0.42249 0.96737 0.08697 0.0
N4361 N 0.34289 0.97944 0.09453 0.0
C4362 C 0.40266 0.96786 0.08905 0.0
C4363 C 0.36194 0.97404 0.09249 0.0
N4364 N 0.39771 0.96721 0.05346 0.0
N4365 N 0.368 0.98243 0.12613 0.0
H4366 H 0.3333 0.97983 0.08267 0.0
H4367 H 0.33695 0.98346 0.10799 0.0
H4368 H 0.377 0.98492 0.13814 0.0
H4369 H 0.377 0.98492 0.13814 0.0
H4370 H 0.41233 0.96454 0.05043 0.0
H4371 H 0.3895 0.96926 0.04087 0.0
H4372 H 0.42989 0.96881 0.07381 0.0
H4373 H 0.43193 0.96667 0.09883 0.0
C4374 C 0.77558 0.12632 0.35811 0.0
C4375 C 0.7795 0.14678 0.35583 0.0
C4376 C 0.77672 0.14105 0.31942 0.0
C4377 C 0.7778 0.12018 0.32191 0.0
N4378 N 0.7675 0.09463 0.34318 0.0
N4379 N 0.77609 0.17392 0.3333 0.0
C4380 C 0.77374 0.1134 0.34119 0.0
C4381 C 0.77718 0.1542 0.33622 0.0
N4382 N 0.77405 0.11908 0.37658 0.0
N4383 N 0.77708 0.14856 0.30096 0.0
H4384 H 0.77918 0.18427 0.34394 0.0
H4385 H 0.77114 0.18026 0.3204 0.0
H4386 H 0.77442 0.14025 0.28855 0.0
H4387 H 0.78025 0.16306 0.29771 0.0
H4388 H 0.77275 0.10429 0.37986 0.0
H4389 H 0.77499 0.12812 0.38877 0.0
H4390 H 0.76192 0.08899 0.35614 0.0
H4391 H 0.76614 0.08536 0.33113 0.0
C4392 C 0.60052 0.46752 0.42208 0.0
C4393 C 0.62136 0.46393 0.42256 0.0
C4394 C 0.61946 0.46557 0.3855 0.0
C4395 C 0.59878 0.46166 0.38479 0.0
N4396 N 0.57178 0.47672 0.40282 0.0
N4397 N 0.64531 0.48103 0.40454 0.0
C4398 C 0.58973 0.46812 0.40321 0.0
C4399 C 0.62985 0.46868 0.40408 0.0
N4400 N 0.59069 0.46883 0.43934 0.0
N4401 N 0.62927 0.46889 0.36864 0.0
H4402 H 0.64979 0.48874 0.39222 0.0
H4403 H 0.65183 0.48509 0.41776 0.0
H4404 H 0.62271 0.46794 0.35491 0.0
H4405 H 0.62271 0.46794 0.35491 0.0
H4406 H 0.5755 0.46894 0.4403 0.0
H4407 H 0.59781 0.46875 0.45278 0.0
H4408 H 0.56521 0.48281 0.41511 0.0
H4409 H 0.56487 0.48079 0.38996 0.0
C4410 C 0.26841 0.3465 0.66197 0.0
C4411 C 0.27258 0.35188 0.64229 0.0
C4412 C 0.27959 0.38543 0.65603 0.0
C4413 C 0.28371 0.37779 0.67504 0.0
N4414 N 0.27849 0.34927 0.69592 0.0
N4415 N 0.27582 0.38015 0.6214 0.0
C4416 C 0.2761 0.35815 0.67822 0.0
C4417 C 0.27558 0.37251 0.63964 0.0
N4418 N 0.25852 0.32954 0.66519 0.0
N4419 N 0.27953 0.40508 0.65333 0.0
H4420 H 0.27359 0.37166 0.60895 0.0
H4421 H 0.27359 0.37166 0.60895 0.0
H4422 H 0.27573 0.41129 0.63994 0.0
H4423 H 0.28183 0.41477 0.66487 0.0
H4424 H 0.25359 0.32529 0.67895 0.0
H4425 H 0.25349 0.32096 0.65363 0.0
H4426 H 0.27547 0.33455 0.69827 0.0
H4427 H 0.28534 0.35566 0.70781 0.0
C4428 C 0.40563 0.01939 0.90827 0.0
C4429 C 0.3952 0.01734 0.89017 0.0
C4430 C 0.36495 0.01492 0.91037 0.0
C4431 C 0.37464 0.02431 0.92605 0.0
N4432 N 0.40584 0.02209 0.94304 0.0
N4433 N 0.36662 0.00261 0.87661 0.0
C4434 C 0.39528 0.02149 0.92622 0.0
C4435 C 0.37526 0.01167 0.89206 0.0
N4436 N 0.42546 0.02011 0.90928 0.0
N4437 N 0.34617 0.00881 0.91323 0.0
H4438 H 0.3745 -0.00061 0.86394 0.0
H4439 H 0.35213 -0.00194 0.87637 0.0
H4440 H 0.33909 0.01076 0.9266 0.0
H4441 H 0.33789 0.00151 0.90279 0.0
H4442 H 0.43481 0.01836 0.89742 0.0
H4443 H 0.43481 0.01836 0.89742 0.0
H4444 H 0.39961 0.02369 0.95685 0.0
H4445 H 0.39961 0.02369 0.95685 0.0
C4446 C 0.72019 0.154 0.1593 0.0
C4447 C 0.71947 0.14689 0.13971 0.0
C4448 C 0.72256 0.11303 0.15344 0.0
C4449 C 0.71831 0.11958 0.17268 0.0
N4450 N 0.72047 0.14741 0.19451 0.0
N4451 N 0.7251 0.11883 0.119 0.0
C4452 C 0.71998 0.14044 0.17583 0.0
C4453 C 0.72262 0.12637 0.13716 0.0
N4454 N 0.72028 0.17378 0.162 0.0
N4455 N 0.72635 0.09373 0.15043 0.0
H4456 H 0.72515 0.12738 0.1064 0.0
H4457 H 0.72515 0.12738 0.1064 0.0
H4458 H 0.72672 0.08366 0.16187 0.0
H4459 H 0.72998 0.08821 0.13668 0.0
H4460 H 0.7204 0.18079 0.17544 0.0
H4461 H 0.72058 0.18354 0.15029 0.0
H4462 H 0.72084 0.16209 0.1983 0.0
H4463 H 0.72135 0.13847 0.20671 0.0
C4464 C 0.58269 0.11093 0.03063 0.0
C4465 C 0.57187 0.12241 0.01919 0.0
C4466 C 0.60313 0.11545 -0.00103 0.0
C4467 C 0.60681 0.09769 0.01073 0.0
N4468 N 0.58379 0.07594 0.02627 0.0
N4469 N 0.57838 0.14104 0.98937 0.0
C4470 C 0.59026 0.09406 0.02169 0.0
C4471 C 0.58388 0.12649 0.00163 0.0
N4472 N 0.59571 0.12338 0.03873 0.0
N4473 N 0.6175 0.12233 0.98721 0.0
H4474 H 0.5656 0.14899 0.99194 0.0
H4475 H 0.58606 0.14433 0.97664 0.0
H4476 H 0.63071 0.11479 0.98587 0.0
H4477 H 0.61632 0.13552 0.97971 0.0
H4478 H 0.61057 0.12068 0.04049 0.0
H4479 H 0.61057 0.12068 0.04049 0.0
H4480 H 0.59024 0.06339 0.02045 0.0
H4481 H 0.59024 0.06339 0.02045 0.0
C4482 C 0.65817 0.34244 0.27684 0.0
C4483 C 0.64891 0.36074 0.28303 0.0
C4484 C 0.61799 0.34257 0.2745 0.0
C4485 C 0.62645 0.32373 0.27775 0.0
N4486 N 0.65691 0.30646 0.27568 0.0
N4487 N 0.61867 0.37766 0.27593 0.0
C4488 C 0.64731 0.32389 0.27645 0.0
C4489 C 0.6284 0.36062 0.27859 0.0
N4490 N 0.67635 0.34281 0.26879 0.0
N4491 N 0.60119 0.34372 0.26423 0.0
H4492 H 0.62522 0.39131 0.27773 0.0
H4493 H 0.62522 0.39131 0.27773 0.0
H4494 H 0.59418 0.33135 0.2587 0.0
H4495 H 0.59418 0.33135 0.2587 0.0
H4496 H 0.68319 0.33045 0.26313 0.0
H4497 H 0.68305 0.35568 0.26439 0.0
H4498 H 0.67205 0.30525 0.27679 0.0
H4499 H 0.64947 0.29318 0.27493 0.0
C4500 C 0.38308 0.36645 0.52177 0.0
C4501 C 0.38045 0.38691 0.51848 0.0
C4502 C 0.41719 0.38978 0.52374 0.0
C4503 C 0.41902 0.37009 0.53109 0.0
N4504 N 0.4056 0.33835 0.52547 0.0
N4505 N 0.39894 0.41335 0.50398 0.0
C4506 C 0.4024 0.35798 0.52661 0.0
C4507 C 0.39879 0.39702 0.51538 0.0
N4508 N 0.36732 0.35493 0.51831 0.0
N4509 N 0.43239 0.40243 0.52618 0.0
H4510 H 0.38683 0.41765 0.49584 0.0
H4511 H 0.41174 0.42062 0.5001 0.0
H4512 H 0.44562 0.3984 0.53248 0.0
H4513 H 0.43114 0.4174 0.52372 0.0
H4514 H 0.36828 0.33998 0.51645 0.0
H4515 H 0.3537 0.36087 0.5149 0.0
H4516 H 0.39571 0.32846 0.51959 0.0
H4517 H 0.41917 0.33214 0.52859 0.0
C4518 C 0.35623 0.17337 0.7702 0.0
C4519 C 0.37672 0.171 0.77532 0.0
C4520 C 0.37088 0.13487 0.76949 0.0
C4521 C 0.35003 0.1367 0.77022 0.0
N4522 N 0.32323 0.15916 0.7676 0.0
N4523 N 0.40318 0.15031 0.76642 0.0
C4524 C 0.34297 0.15643 0.7685 0.0
C4525 C 0.38393 0.15186 0.77103 0.0
N4526 N 0.34898 0.19177 0.76764 0.0
N4527 N 0.37829 0.11654 0.7675 0.0
H4528 H 0.41256 0.16233 0.76702 0.0
H4529 H 0.40926 0.13795 0.75996 0.0
H4530 H 0.36928 0.10436 0.76592 0.0
H4531 H 0.39306 0.11343 0.76718 0.0
H4532 H 0.33522 0.19465 0.76186 0.0
H4533 H 0.35711 0.20437 0.76971 0.0
H4534 H 0.31637 0.17258 0.76953 0.0
H4535 H 0.3135 0.1476 0.76585 0.0
C4536 C 0.59033 0.90298 0.96664 0.0
C4537 C 0.60988 0.89553 0.96345 0.0
C4538 C 0.59435 0.86174 0.96634 0.0
C4539 C 0.57493 0.86922 0.96386 0.0
N4540 N 0.55491 0.8979 0.96872 0.0
N4541 N 0.62982 0.86742 0.96933 0.0
C4542 C 0.5732 0.89003 0.96728 0.0
C4543 C 0.61157 0.87473 0.96633 0.0
N4544 N 0.58779 0.92267 0.96858 0.0
N4545 N 0.59628 0.84199 0.96825 0.0
H4546 H 0.64198 0.87653 0.9692 0.0
H4547 H 0.63298 0.8529 0.97242 0.0
H4548 H 0.5841 0.83282 0.96887 0.0
H4549 H 0.60954 0.83464 0.96908 0.0
H4550 H 0.57522 0.92917 0.97412 0.0
H4551 H 0.59853 0.93285 0.96539 0.0
H4552 H 0.55167 0.91262 0.96687 0.0
H4553 H 0.54257 0.88967 0.97181 0.0
C4554 C 0.88304 0.34236 0.22178 0.0
C4555 C 0.87618 0.32302 0.21829 0.0
C4556 C 0.84224 0.33765 0.21945 0.0
C4557 C 0.84975 0.35723 0.21687 0.0
N4558 N 0.87865 0.37703 0.22211 0.0
N4559 N 0.84762 0.30229 0.21944 0.0
C4560 C 0.87035 0.35914 0.22027 0.0
C4561 C 0.85528 0.3207 0.21968 0.0
N4562 N 0.90203 0.34537 0.22655 0.0
N4563 N 0.82254 0.33492 0.22113 0.0
H4564 H 0.85591 0.28981 0.2218 0.0
H4565 H 0.83302 0.29918 0.21661 0.0
H4566 H 0.81225 0.34579 0.21866 0.0
H4567 H 0.81621 0.32203 0.22611 0.0
H4568 H 0.91197 0.33394 0.22843 0.0
H4569 H 0.91197 0.33394 0.22843 0.0
H4570 H 0.87069 0.38997 0.22107 0.0
H4571 H 0.87069 0.38997 0.22107 0.0
C4572 C 0.42739 0.60773 0.47341 0.0
C4573 C 0.42303 0.62692 0.46569 0.0
C4574 C 0.38843 0.61958 0.47635 0.0
C4575 C 0.39195 0.59878 0.4763 0.0
N4576 N 0.41693 0.57414 0.47884 0.0
N4577 N 0.40032 0.6532 0.47011 0.0
C4578 C 0.41211 0.59333 0.47654 0.0
C4579 C 0.40381 0.6336 0.47073 0.0
N4580 N 0.44576 0.60367 0.47998 0.0
N4581 N 0.36991 0.62559 0.48025 0.0
H4582 H 0.41135 0.66312 0.46655 0.0
H4583 H 0.387 0.65967 0.47349 0.0
H4584 H 0.35943 0.61547 0.48461 0.0
H4585 H 0.3651 0.63999 0.4796 0.0
H4586 H 0.44944 0.59063 0.48692 0.0
H4587 H 0.45619 0.61443 0.48222 0.0
H4588 H 0.43089 0.56871 0.47607 0.0
H4589 H 0.40679 0.56355 0.48286 0.0
C4590 C 0.11991 0.13681 0.72891 0.0
C4591 C 0.1407 0.13661 0.72785 0.0
C4592 C 0.13923 0.17319 0.72771 0.0
C4593 C 0.11896 0.1727 0.72261 0.0
N4594 N 0.0901 0.15654 0.7331 0.0
N4595 N 0.16855 0.15687 0.73757 0.0
C4596 C 0.10916 0.15512 0.72758 0.0
C4597 C 0.14973 0.15531 0.73139 0.0
N4598 N 0.11061 0.11962 0.73241 0.0
N4599 N 0.14904 0.19054 0.7282 0.0
H4600 H 0.17722 0.14509 0.74178 0.0
H4601 H 0.17722 0.14509 0.74178 0.0
H4602 H 0.14237 0.20394 0.72561 0.0
H4603 H 0.16397 0.19141 0.73119 0.0
H4604 H 0.09574 0.11863 0.735 0.0
H4605 H 0.11824 0.10652 0.73404 0.0
H4606 H 0.08249 0.14536 0.74004 0.0
H4607 H 0.08255 0.16979 0.73246 0.0
C4608 C 0.03418 0.10854 0.6196 0.0
C4609 C 0.03432 0.10804 0.59866 0.0
C4610 C 0.03761 0.0715 0.6018 0.0
C4611 C 0.03985 0.07256 0.62259 0.0
N4612 N 0.02761 0.0911 0.64959 0.0
N4613 N 0.02613 0.08664 0.57161 0.0
C4614 C 0.03437 0.09079 0.63098 0.0
C4615 C 0.03244 0.08877 0.5904 0.0
N4616 N 0.0338 0.1258 0.62932 0.0
N4617 N 0.04157 0.05429 0.59251 0.0
H4618 H 0.02229 0.09829 0.56269 0.0
H4619 H 0.02274 0.07312 0.56551 0.0
H4620 H 0.04589 0.04172 0.59986 0.0
H4621 H 0.04238 0.05295 0.57737 0.0
H4622 H 0.03383 0.13931 0.62229 0.0
H4623 H 0.03383 0.13931 0.62229 0.0
H4624 H 0.02157 0.10372 0.65568 0.0
H4625 H 0.02653 0.0784 0.65799 0.0
C4626 C 0.52192 0.90345 0.86103 0.0
C4627 C 0.52634 0.92255 0.8683 0.0
C4628 C 0.51892 0.90794 0.90174 0.0
C4629 C 0.52104 0.88822 0.8949 0.0
N4630 N 0.51821 0.86809 0.86666 0.0
N4631 N 0.52021 0.94252 0.89755 0.0
C4632 C 0.5204 0.8864 0.87405 0.0
C4633 C 0.52129 0.9247 0.88884 0.0
N4634 N 0.51719 0.90203 0.8418 0.0
N4635 N 0.51633 0.91164 0.92108 0.0
H4636 H 0.52205 0.95579 0.89036 0.0
H4637 H 0.52205 0.95579 0.89036 0.0
H4638 H 0.51492 0.90072 0.93161 0.0
H4639 H 0.51492 0.90072 0.93161 0.0
H4640 H 0.5106 0.88975 0.83572 0.0
H4641 H 0.51787 0.91409 0.83248 0.0
H4642 H 0.51732 0.86506 0.8519 0.0
H4643 H 0.51678 0.85588 0.87566 0.0
C4644 C 0.8608 0.27498 0.12696 0.0
C4645 C 0.85934 0.27912 0.14745 0.0
C4646 C 0.82287 0.27473 0.14331 0.0
C4647 C 0.82434 0.27654 0.12248 0.0
N4648 N 0.84461 0.2667 0.09597 0.0
N4649 N 0.83754 0.28018 0.1753 0.0
C4650 C 0.84337 0.27298 0.11479 0.0
C4651 C 0.84 0.2773 0.15571 0.0
N4652 N 0.87894 0.27381 0.11889 0.0
N4653 N 0.80518 0.2704 0.15144 0.0
H4654 H 0.84907 0.2822 0.18495 0.0
H4655 H 0.82399 0.28227 0.18186 0.0
H4656 H 0.79274 0.26764 0.14319 0.0
H4657 H 0.8033 0.26698 0.16613 0.0
H4658 H 0.88159 0.27252 0.10399 0.0
H4659 H 0.89147 0.27517 0.12739 0.0
H4660 H 0.85736 0.26116 0.08984 0.0
H4661 H 0.83218 0.26516 0.08725 0.0
C4662 C 0.46634 0.60575 0.37184 0.0
C4663 C 0.46327 0.60529 0.39238 0.0
C4664 C 0.46256 0.5686 0.38921 0.0
C4665 C 0.46026 0.56994 0.36823 0.0
N4666 N 0.47391 0.58901 0.34205 0.0
N4667 N 0.46838 0.58504 0.42075 0.0
C4668 C 0.46616 0.58822 0.36026 0.0
C4669 C 0.46528 0.58626 0.4011 0.0
N4670 N 0.47129 0.62273 0.363 0.0
N4671 N 0.46083 0.55082 0.39808 0.0
H4672 H 0.46924 0.59737 0.42964 0.0
H4673 H 0.47156 0.57209 0.42802 0.0
H4674 H 0.45984 0.53776 0.39042 0.0
H4675 H 0.45951 0.54895 0.4131 0.0
H4676 H 0.4725 0.63598 0.37046 0.0
H4677 H 0.4725 0.63598 0.37046 0.0
H4678 H 0.47549 0.57673 0.33312 0.0
H4679 H 0.47549 0.57673 0.33312 0.0
C4680 C 0.65419 0.72988 0.61255 0.0
C4681 C 0.67136 0.7238 0.6225 0.0
C4682 C 0.65381 0.73022 0.65358 0.0
C4683 C 0.63521 0.72976 0.64376 0.0
N4684 N 0.61902 0.73676 0.61364 0.0
N4685 N 0.68853 0.7273 0.65343 0.0
C4686 C 0.63588 0.73201 0.62306 0.0
C4687 C 0.67159 0.72732 0.64303 0.0
N4688 N 0.656 0.73521 0.59344 0.0
N4689 N 0.65539 0.73216 0.67329 0.0
H4690 H 0.7023 0.72531 0.64722 0.0
H4691 H 0.7023 0.72531 0.64722 0.0
H4692 H 0.64369 0.7347 0.68267 0.0
H4693 H 0.64369 0.7347 0.68267 0.0
H4694 H 0.64514 0.74233 0.58554 0.0
H4695 H 0.66926 0.73403 0.58597 0.0
H4696 H 0.61819 0.73944 0.59874 0.0
H4697 H 0.60593 0.73886 0.62119 0.0
C4698 C 0.97245 0.90407 0.63215 0.0
C4699 C 0.96828 0.92317 0.62484 0.0
C4700 C 0.96798 0.9079 0.59143 0.0
C4701 C 0.96648 0.88837 0.59924 0.0
N4702 N 0.97234 0.8685 0.62748 0.0
N4703 N 0.97004 0.94249 0.59486 0.0
C4704 C 0.97069 0.88673 0.61971 0.0
C4705 C 0.96921 0.92482 0.6039 0.0
N4706 N 0.97886 0.90264 0.65091 0.0
N4707 N 0.96654 0.91147 0.57192 0.0
H4708 H 0.97137 0.95579 0.60212 0.0
H4709 H 0.97137 0.95579 0.60212 0.0
H4710 H 0.96453 0.90075 0.56129 0.0
H4711 H 0.96453 0.90075 0.56129 0.0
H4712 H 0.98469 0.8899 0.65681 0.0
H4713 H 0.98016 0.91494 0.65986 0.0
H4714 H 0.97376 0.86567 0.64234 0.0
H4715 H 0.97128 0.85607 0.6188 0.0
C4716 C 0.83739 0.21636 0.33718 0.0
C4717 C 0.85693 0.21547 0.34515 0.0
C4718 C 0.84128 0.22253 0.37784 0.0
C4719 C 0.82217 0.21819 0.37072 0.0
N4720 N 0.80221 0.22133 0.34182 0.0
N4721 N 0.87681 0.22233 0.37315 0.0
C4722 C 0.8203 0.21871 0.3498 0.0
C4723 C 0.85857 0.22042 0.36545 0.0
N4724 N 0.8348 0.21274 0.31773 0.0
N4725 N 0.84275 0.22957 0.39638 0.0
H4726 H 0.88924 0.22109 0.36449 0.0
H4727 H 0.87967 0.22412 0.38797 0.0
H4728 H 0.83047 0.23117 0.4053 0.0
H4729 H 0.85548 0.23563 0.40204 0.0
H4730 H 0.8213 0.20996 0.31133 0.0
H4731 H 0.84629 0.2109 0.30801 0.0
H4732 H 0.79979 0.22382 0.32702 0.0
H4733 H 0.78969 0.22334 0.35015 0.0
C4734 C 0.15534 0.28548 0.83879 0.0
C4735 C 0.13624 0.28859 0.84706 0.0
C4736 C 0.15326 0.2847 0.87907 0.0
C4737 C 0.1715 0.29083 0.87113 0.0
N4738 N 0.19025 0.29169 0.84129 0.0
N4739 N 0.1176 0.28372 0.87604 0.0
C4740 C 0.1727 0.28923 0.85035 0.0
C4741 C 0.1354 0.28618 0.86764 0.0
N4742 N 0.15728 0.27847 0.82025 0.0
N4743 N 0.15357 0.27454 0.89609 0.0
H4744 H 0.10461 0.2848 0.8682 0.0
H4745 H 0.11575 0.28026 0.89057 0.0
H4746 H 0.16658 0.27219 0.90373 0.0
H4747 H 0.14152 0.26688 0.90137 0.0
H4748 H 0.17069 0.27432 0.81436 0.0
H4749 H 0.14557 0.27438 0.8116 0.0
H4750 H 0.19167 0.29334 0.82622 0.0
H4751 H 0.20326 0.29313 0.84891 0.0
C4752 C 0.63164 0.03057 0.09201 0.0
C4753 C 0.62249 0.03534 0.07377 0.0
C4754 C 0.59184 0.02667 0.09263 0.0
C4755 C 0.60045 0.03294 0.11124 0.0
N4756 N 0.63165 0.0296 0.12724 0.0
N4757 N 0.59202 0.02969 0.05679 0.0
C4758 C 0.62131 0.0319 0.11054 0.0
C4759 C 0.6021 0.03004 0.07395 0.0
N4760 N 0.64853 0.02037 0.09177 0.0
N4761 N 0.57486 0.01627 0.09254 0.0
H4762 H 0.59866 0.03221 0.04334 0.0
H4763 H 0.57688 0.02822 0.05608 0.0
H4764 H 0.56869 0.01049 0.10515 0.0
H4765 H 0.56877 0.01051 0.07984 0.0
H4766 H 0.65558 0.01653 0.07879 0.0
H4767 H 0.65558 0.01653 0.07879 0.0
H4768 H 0.62511 0.02945 0.14101 0.0
H4769 H 0.62511 0.02945 0.14101 0.0
C4770 C 0.22495 0.88211 0.34214 0.0
C4771 C 0.21981 0.8756 0.32293 0.0
C4772 C 0.22096 0.84113 0.33678 0.0
C4773 C 0.22131 0.84814 0.3565 0.0
N4774 N 0.23325 0.87428 0.37625 0.0
N4775 N 0.2231 0.84749 0.30161 0.0
C4776 C 0.22643 0.86837 0.35854 0.0
C4777 C 0.22143 0.85465 0.32013 0.0
N4778 N 0.22804 0.90163 0.34476 0.0
N4779 N 0.21892 0.82149 0.33392 0.0
H4780 H 0.22389 0.85635 0.28934 0.0
H4781 H 0.22567 0.83288 0.29836 0.0
H4782 H 0.21922 0.81154 0.34545 0.0
H4783 H 0.21606 0.81505 0.32046 0.0
H4784 H 0.23022 0.9082 0.35828 0.0
H4785 H 0.22782 0.91142 0.33307 0.0
H4786 H 0.23813 0.88831 0.37938 0.0
H4787 H 0.23543 0.86419 0.38742 0.0
C4788 C 0.39134 0.46189 0.56475 0.0
C4789 C 0.37024 0.46058 0.56541 0.0
C4790 C 0.37303 0.4728 0.59998 0.0
C4791 C 0.39337 0.46818 0.60149 0.0
N4792 N 0.42266 0.46777 0.58174 0.0
N4793 N 0.34463 0.47948 0.57957 0.0
C4794 C 0.40282 0.46617 0.58264 0.0
C4795 C 0.36209 0.47024 0.58192 0.0
N4796 N 0.40053 0.45672 0.54783 0.0
N4797 N 0.36395 0.48158 0.61523 0.0
H4798 H 0.33877 0.48862 0.59029 0.0
H4799 H 0.33675 0.47873 0.56652 0.0
H4800 H 0.37095 0.48494 0.62837 0.0
H4801 H 0.37095 0.48494 0.62837 0.0
H4802 H 0.41553 0.45475 0.5465 0.0
H4803 H 0.39291 0.45346 0.53508 0.0
H4804 H 0.4306 0.46788 0.5688 0.0
H4805 H 0.43122 0.47068 0.59395 0.0
C4806 C 0.78799 0.65494 0.83937 0.0
C4807 C 0.78574 0.64603 0.85827 0.0
C4808 C 0.77849 0.61497 0.84022 0.0
C4809 C 0.78692 0.62246 0.82267 0.0
N4810 N 0.79589 0.65143 0.80479 0.0
N4811 N 0.76954 0.61886 0.874 0.0
C4812 C 0.78985 0.64311 0.82189 0.0
C4813 C 0.77786 0.62667 0.8578 0.0
N4814 N 0.78777 0.67478 0.83781 0.0
N4815 N 0.77191 0.59618 0.84062 0.0
H4816 H 0.76818 0.6265 0.88711 0.0
H4817 H 0.76818 0.6265 0.88711 0.0
H4818 H 0.77205 0.58726 0.82825 0.0
H4819 H 0.76628 0.58977 0.85326 0.0
H4820 H 0.78661 0.68214 0.82456 0.0
H4821 H 0.78651 0.68397 0.84976 0.0
H4822 H 0.80077 0.66577 0.80363 0.0
H4823 H 0.79734 0.64369 0.7918 0.0
C4824 C 0.62012 0.9747 0.88574 0.0
C4825 C 0.59955 0.97062 0.88671 0.0
C4826 C 0.6041 0.96935 0.92338 0.0
C4827 C 0.62513 0.96907 0.92191 0.0
N4828 N 0.65113 0.98163 0.90248 0.0
N4829 N 0.5718 0.97039 0.90886 0.0
C4830 C 0.63247 0.97485 0.90324 0.0
C4831 C 0.59158 0.97048 0.90622 0.0
N4832 N 0.62804 0.97823 0.86785 0.0
N4833 N 0.59513 0.96767 0.94101 0.0
H4834 H 0.56179 0.97193 0.89757 0.0
H4835 H 0.56533 0.96953 0.92264 0.0
H4836 H 0.60244 0.96693 0.95433 0.0
H4837 H 0.60244 0.96693 0.95433 0.0
H4838 H 0.64296 0.97942 0.86522 0.0
H4839 H 0.61934 0.97915 0.85541 0.0
H4840 H 0.65688 0.98885 0.89041 0.0
H4841 H 0.66007 0.98192 0.91484 0.0
C4842 C 0.26965 0.87672 0.1565 0.0
C4843 C 0.28465 0.87266 0.17053 0.0
C4844 C 0.29995 0.85213 0.14759 0.0
C4845 C 0.2852 0.85312 0.13352 0.0
N4846 N 0.25256 0.8649 0.12708 0.0
N4847 N 0.30422 0.84577 0.18127 0.0
C4848 C 0.26864 0.86486 0.13874 0.0
C4849 C 0.29619 0.85657 0.16683 0.0
N4850 N 0.25663 0.8913 0.16012 0.0
N4851 N 0.31867 0.85332 0.14251 0.0
H4852 H 0.30233 0.84909 0.19604 0.0
H4853 H 0.30957 0.83196 0.17773 0.0
H4854 H 0.32316 0.85452 0.12806 0.0
H4855 H 0.32316 0.85452 0.12806 0.0
H4856 H 0.24614 0.89572 0.15002 0.0
H4857 H 0.25708 0.89928 0.17312 0.0
H4858 H 0.23967 0.87212 0.13079 0.0
H4859 H 0.25204 0.85664 0.11427 0.0
C4860 C 0.3942 0.51537 0.42157 0.0
C4861 C 0.3745 0.52277 0.42279 0.0
C4862 C 0.37266 0.51635 0.38651 0.0
C4863 C 0.39336 0.51578 0.38423 0.0
N4864 N 0.4208 0.50152 0.40155 0.0
N4865 N 0.34447 0.51352 0.40773 0.0
C4866 C 0.40316 0.51071 0.40238 0.0
C4867 C 0.36353 0.51836 0.40568 0.0
N4868 N 0.40525 0.51504 0.43813 0.0
N4869 N 0.36146 0.51234 0.37066 0.0
H4870 H 0.33723 0.51342 0.42117 0.0
H4871 H 0.33723 0.51342 0.42117 0.0
H4872 H 0.34677 0.5088 0.37215 0.0
H4873 H 0.36745 0.5104 0.35676 0.0
H4874 H 0.42026 0.51261 0.43818 0.0
H4875 H 0.3995 0.51833 0.45182 0.0
H4876 H 0.42811 0.49633 0.41383 0.0
H4877 H 0.42685 0.49667 0.38849 0.0
C4878 C 0.70963 0.64617 0.68206 0.0
C4879 C 0.71397 0.62582 0.67828 0.0
C4880 C 0.72972 0.63786 0.64737 0.0
C4881 C 0.7186 0.65558 0.64802 0.0
N4882 N 0.71138 0.68046 0.671 0.0
N4883 N 0.7367 0.6055 0.66054 0.0
C4884 C 0.71242 0.66095 0.66699 0.0
C4885 C 0.72714 0.62286 0.66222 0.0
N4886 N 0.70367 0.65166 0.7002 0.0
N4887 N 0.74209 0.63443 0.63224 0.0
H4888 H 0.73516 0.59441 0.6709 0.0
H4889 H 0.74613 0.60251 0.64893 0.0
H4890 H 0.74436 0.6445 0.62101 0.0
H4891 H 0.74436 0.6445 0.62101 0.0
H4892 H 0.69936 0.66573 0.70385 0.0
H4893 H 0.70403 0.64241 0.71215 0.0
H4894 H 0.70846 0.68646 0.68463 0.0
H4895 H 0.71523 0.69088 0.66054 0.0
C4896 C 0.60614 0.61877 0.52873 0.0
C4897 C 0.60535 0.59782 0.5295 0.0
C4898 C 0.56918 0.60169 0.53589 0.0
C4899 C 0.57057 0.62244 0.53873 0.0
N4900 N 0.58924 0.65053 0.52928 0.0
N4901 N 0.58231 0.57166 0.52342 0.0
C4902 C 0.5888 0.6309 0.53253 0.0
C4903 C 0.58582 0.59011 0.52966 0.0
N4904 N 0.62361 0.62694 0.5241 0.0
N4905 N 0.55192 0.5924 0.53949 0.0
H4906 H 0.59288 0.56297 0.51674 0.0
H4907 H 0.59288 0.56297 0.51674 0.0
H4908 H 0.53958 0.59959 0.54466 0.0
H4909 H 0.55032 0.57729 0.53806 0.0
H4910 H 0.62663 0.64182 0.52465 0.0
H4911 H 0.63505 0.61809 0.51944 0.0
H4912 H 0.60115 0.65788 0.52338 0.0
H4913 H 0.57692 0.6593 0.53125 0.0
C4914 C 0.63846 0.82438 0.77971 0.0
C4915 C 0.61843 0.82506 0.78643 0.0
C4916 C 0.62102 0.86166 0.783 0.0
C4917 C 0.64191 0.86147 0.78342 0.0
N4918 N 0.66647 0.84188 0.76598 0.0
N4919 N 0.59225 0.84408 0.77328 0.0
C4920 C 0.6495 0.84265 0.77642 0.0
C4921 C 0.60981 0.84363 0.78232 0.0
N4922 N 0.64783 0.80682 0.77876 0.0
N4923 N 0.6114 0.87876 0.7803 0.0
H4924 H 0.58446 0.83139 0.76988 0.0
H4925 H 0.58446 0.83139 0.76988 0.0
H4926 H 0.61852 0.89221 0.77944 0.0
H4927 H 0.61852 0.89221 0.77944 0.0
H4928 H 0.66288 0.8055 0.77694 0.0
H4929 H 0.6408 0.79358 0.78118 0.0
H4930 H 0.67172 0.82905 0.7597 0.0
H4931 H 0.6736 0.85414 0.76065 0.0
C4932 C 0.40119 0.8647 0.02356 0.0
C4933 C 0.42029 0.872 0.0282 0.0
C4934 C 0.40465 0.90549 0.02767 0.0
C4935 C 0.38495 0.89785 0.02893 0.0
N4936 N 0.36558 0.86982 0.02109 0.0
N4937 N 0.43933 0.90215 0.02661 0.0
C4938 C 0.38369 0.87732 0.02439 0.0
C4939 C 0.42171 0.89299 0.02714 0.0
N4940 N 0.39993 0.84564 0.01796 0.0
N4941 N 0.40827 0.925 0.02813 0.0
H4942 H 0.45273 0.895 0.0257 0.0
H4943 H 0.45273 0.895 0.0257 0.0
H4944 H 0.39752 0.93573 0.02873 0.0
H4945 H 0.39752 0.93573 0.02873 0.0
H4946 H 0.38722 0.83904 0.01292 0.0
H4947 H 0.4123 0.83674 0.01717 0.0
H4948 H 0.3626 0.85512 0.01875 0.0
H4949 H 0.35328 0.87875 0.02133 0.0
C4950 C 0.34677 0.65702 0.2742 0.0
C4951 C 0.35534 0.63831 0.27852 0.0
C4952 C 0.38663 0.65678 0.28155 0.0
C4953 C 0.37675 0.67423 0.28683 0.0
N4954 N 0.34679 0.69221 0.28077 0.0
N4955 N 0.38625 0.62205 0.27568 0.0
C4956 C 0.35686 0.67499 0.27994 0.0
C4957 C 0.37608 0.63864 0.27927 0.0
N4958 N 0.32937 0.65789 0.26452 0.0
N4959 N 0.40546 0.65813 0.27541 0.0
H4960 H 0.37971 0.60861 0.27266 0.0
H4961 H 0.37971 0.60861 0.27266 0.0
H4962 H 0.41274 0.64638 0.26898 0.0
H4963 H 0.41307 0.67135 0.27565 0.0
H4964 H 0.3231 0.67089 0.25975 0.0
H4965 H 0.32259 0.64559 0.25873 0.0
H4966 H 0.33188 0.69337 0.27801 0.0
H4967 H 0.35273 0.70517 0.28597 0.0
C4968 C 0.59046 0.36299 0.47406 0.0
C4969 C 0.57257 0.37247 0.46964 0.0
C4970 C 0.58801 0.40306 0.48219 0.0
C4971 C 0.60739 0.39507 0.47968 0.0
N4972 N 0.62556 0.36512 0.47939 0.0
N4973 N 0.55266 0.39979 0.47765 0.0
C4974 C 0.60801 0.37421 0.47785 0.0
C4975 C 0.57087 0.39186 0.47685 0.0
N4976 N 0.59008 0.34334 0.47702 0.0
N4977 N 0.5851 0.42111 0.48992 0.0
H4978 H 0.54987 0.41407 0.48222 0.0
H4979 H 0.54987 0.41407 0.48222 0.0
H4980 H 0.59607 0.42964 0.49613 0.0
H4981 H 0.59607 0.42964 0.49613 0.0
H4982 H 0.60167 0.33565 0.48323 0.0
H4983 H 0.57736 0.33515 0.47502 0.0
H4984 H 0.62778 0.35044 0.47612 0.0
H4985 H 0.63773 0.37276 0.4842 0.0
C4986 C 0.85216 0.82106 0.71985 0.0
C4987 C 0.87298 0.82309 0.71833 0.0
C4988 C 0.86753 0.85939 0.72047 0.0
C4989 C 0.84713 0.85749 0.71601 0.0
N4990 N 0.81989 0.83496 0.71421 0.0
N4991 N 0.89884 0.84383 0.72885 0.0
C4992 C 0.83936 0.83791 0.7174 0.0
C4993 C 0.88013 0.84224 0.72232 0.0
N4994 N 0.84443 0.80312 0.72386 0.0
N4995 N 0.87508 0.87771 0.72215 0.0
H4996 H 0.90784 0.83159 0.73031 0.0
H4997 H 0.90462 0.85665 0.73462 0.0
H4998 H 0.86626 0.89004 0.72095 0.0
H4999 H 0.88989 0.88073 0.72373 0.0
H5000 H 0.82975 0.80085 0.7271 0.0
H5001 H 0.85294 0.79086 0.72659 0.0
H5002 H 0.81374 0.82128 0.71175 0.0
H5003 H 0.80992 0.84624 0.71233 0.0
C5004 C 0.39073 0.11702 0.97541 0.0
C5005 C 0.39312 0.09717 0.97003 0.0
C5006 C 0.42637 0.10404 0.95887 0.0
C5007 C 0.42321 0.12448 0.96174 0.0
N5008 N 0.40564 0.14917 0.97959 0.0
N5009 N 0.41608 0.07098 0.96672 0.0
C5010 C 0.40641 0.13059 0.97234 0.0
C5011 C 0.41194 0.09041 0.96508 0.0
N5012 N 0.3734 0.12268 0.98345 0.0
N5013 N 0.44275 0.09755 0.94951 0.0
H5014 H 0.40582 0.06098 0.97193 0.0
H5015 H 0.43003 0.06516 0.96497 0.0
H5016 H 0.45387 0.10672 0.94487 0.0
H5017 H 0.44484 0.08309 0.94528 0.0
H5018 H 0.36969 0.13711 0.9865 0.0
H5019 H 0.36255 0.11252 0.98679 0.0
H5020 H 0.39443 0.15436 0.98845 0.0
H5021 H 0.41694 0.15919 0.97752 0.0
C5022 C 0.15571 0.65428 0.22001 0.0
C5023 C 0.14757 0.63505 0.21724 0.0
C5024 C 0.11471 0.65078 0.22275 0.0
C5025 C 0.12229 0.66981 0.21909 0.0
N5026 N 0.15146 0.68969 0.22021 0.0
N5027 N 0.11894 0.61528 0.22142 0.0
C5028 C 0.14323 0.67153 0.22043 0.0
C5029 C 0.12696 0.63345 0.22068 0.0
N5030 N 0.17549 0.65637 0.22163 0.0
N5031 N 0.09582 0.6494 0.22879 0.0
H5032 H 0.12748 0.60279 0.21996 0.0
H5033 H 0.10401 0.61259 0.22239 0.0
H5034 H 0.08701 0.66178 0.23032 0.0
H5035 H 0.08966 0.63657 0.23412 0.0
H5036 H 0.18224 0.66903 0.22667 0.0
H5037 H 0.18542 0.6452 0.21906 0.0
H5038 H 0.16609 0.69235 0.21706 0.0
H5039 H 0.14367 0.70241 0.22294 0.0
C5040 C 0.02282 0.59235 0.12991 0.0
C5041 C 0.0268 0.57327 0.12243 0.0
C5042 C 0.02774 0.58904 0.08925 0.0
C5043 C 0.02963 0.60842 0.09733 0.0
N5044 N 0.02374 0.62798 0.1258 0.0
N5045 N 0.02502 0.55442 0.09221 0.0
C5046 C 0.02515 0.60984 0.11777 0.0
C5047 C 0.02614 0.57195 0.10147 0.0
N5048 N 0.01595 0.59364 0.14852 0.0
N5049 N 0.02888 0.58579 0.06969 0.0
H5050 H 0.02339 0.54108 0.09935 0.0
H5051 H 0.02339 0.54108 0.09935 0.0
H5052 H 0.03071 0.59673 0.05928 0.0
H5053 H 0.03071 0.59673 0.05928 0.0
H5054 H 0.01012 0.60638 0.1544 0.0
H5055 H 0.01424 0.58124 0.15725 0.0
H5056 H 0.0221 0.6306 0.14068 0.0
H5057 H 0.02526 0.64052 0.11735 0.0
C5058 C 0.53469 0.42515 0.38937 0.0
C5059 C 0.53185 0.42022 0.3692 0.0
C5060 C 0.51724 0.38892 0.37978 0.0
C5061 C 0.52311 0.39286 0.39923 0.0
N5062 N 0.52949 0.41672 0.42362 0.0
N5063 N 0.51448 0.40026 0.34602 0.0
C5064 C 0.5291 0.41178 0.40428 0.0
C5065 C 0.52099 0.40305 0.36468 0.0
N5066 N 0.54333 0.44233 0.39445 0.0
N5067 N 0.50887 0.37128 0.37583 0.0
H5068 H 0.51731 0.41021 0.33483 0.0
H5069 H 0.50563 0.38868 0.34174 0.0
H5070 H 0.50546 0.36148 0.387 0.0
H5071 H 0.50558 0.36626 0.36187 0.0
H5072 H 0.54868 0.44527 0.40837 0.0
H5073 H 0.54548 0.45365 0.38472 0.0
H5074 H 0.53213 0.43075 0.42885 0.0
H5075 H 0.52529 0.40679 0.43443 0.0
C5076 C 0.83749 0.77714 0.65526 0.0
C5077 C 0.857 0.77905 0.64748 0.0
C5078 C 0.84172 0.7731 0.61441 0.0
C5079 C 0.82258 0.77737 0.62145 0.0
N5080 N 0.80208 0.7774 0.65017 0.0
N5081 N 0.87719 0.77357 0.61937 0.0
C5082 C 0.82043 0.77666 0.64239 0.0
C5083 C 0.85887 0.77501 0.627 0.0
N5084 N 0.83498 0.77661 0.67505 0.0
N5085 N 0.84339 0.76662 0.59568 0.0
H5086 H 0.88954 0.77475 0.62814 0.0
H5087 H 0.88016 0.77226 0.60453 0.0
H5088 H 0.83121 0.76526 0.5866 0.0
H5089 H 0.85621 0.76079 0.58996 0.0
H5090 H 0.82207 0.77237 0.68183 0.0
H5091 H 0.84605 0.77949 0.68503 0.0
H5092 H 0.79907 0.78065 0.6647 0.0
H5093 H 0.78952 0.77497 0.64202 0.0
C5094 C 0.46868 0.09236 0.90019 0.0
C5095 C 0.46251 0.1112 0.89196 0.0
C5096 C 0.46261 0.09198 0.86034 0.0
C5097 C 0.45846 0.07375 0.86962 0.0
N5098 N 0.46496 0.05661 0.89989 0.0
N5099 N 0.4654 0.12722 0.86072 0.0
C5100 C 0.4648 0.07377 0.88981 0.0
C5101 C 0.4628 0.11052 0.87099 0.0
N5102 N 0.47901 0.09186 0.91722 0.0
N5103 N 0.46948 0.09169 0.84184 0.0
H5104 H 0.46654 0.14089 0.86739 0.0
H5105 H 0.46654 0.14089 0.86739 0.0
H5106 H 0.47108 0.07883 0.83377 0.0
H5107 H 0.47108 0.07883 0.83377 0.0
H5108 H 0.48475 0.07902 0.92301 0.0
H5109 H 0.48475 0.10425 0.92383 0.0
H5110 H 0.4663 0.0559 0.91503 0.0
H5111 H 0.46233 0.04318 0.89327 0.0
C5112 C 0.65039 0.21838 0.11199 0.0
C5113 C 0.66999 0.21588 0.11915 0.0
C5114 C 0.65501 0.2191 0.15309 0.0
C5115 C 0.63524 0.21607 0.14614 0.0
N5116 N 0.6149 0.22097 0.11819 0.0
N5117 N 0.68962 0.22271 0.14813 0.0
C5118 C 0.6333 0.21856 0.12529 0.0
C5119 C 0.6718 0.21971 0.13988 0.0
N5120 N 0.64813 0.21991 0.09226 0.0
N5121 N 0.65853 0.21993 0.17271 0.0
H5122 H 0.70264 0.22392 0.14036 0.0
H5123 H 0.70264 0.22392 0.14036 0.0
H5124 H 0.64777 0.21857 0.18329 0.0
H5125 H 0.67251 0.22166 0.17855 0.0
H5126 H 0.63476 0.22087 0.08513 0.0
H5127 H 0.66016 0.22023 0.08288 0.0
H5128 H 0.6114 0.22331 0.10361 0.0
H5129 H 0.60295 0.22099 0.12757 0.0
C5130 C 0.96717 0.42737 0.10073 0.0
C5131 C 0.96685 0.42562 0.12169 0.0
C5132 C 0.96991 0.38929 0.11649 0.0
C5133 C 0.96514 0.39085 0.09614 0.0
N5134 N 0.96426 0.41309 0.06851 0.0
N5135 N 0.97865 0.40535 0.14743 0.0
C5136 C 0.96606 0.41033 0.08819 0.0
C5137 C 0.97166 0.40664 0.12886 0.0
N5138 N 0.96736 0.44516 0.0919 0.0
N5139 N 0.9721 0.3711 0.12421 0.0
H5140 H 0.97995 0.41767 0.15634 0.0
H5141 H 0.98493 0.39274 0.15314 0.0
H5142 H 0.97106 0.35864 0.11556 0.0
H5143 H 0.97392 0.3683 0.13904 0.0
H5144 H 0.96852 0.45842 0.09926 0.0
H5145 H 0.96852 0.45842 0.09926 0.0
H5146 H 0.96445 0.42692 0.06208 0.0
H5147 H 0.96226 0.40179 0.05858 0.0
C5148 C 0.82137 0.7177 0.85317 0.0
C5149 C 0.82305 0.71674 0.87419 0.0
C5150 C 0.85889 0.72396 0.86915 0.0
C5151 C 0.85819 0.71987 0.84862 0.0
N5152 N 0.83666 0.72093 0.82074 0.0
N5153 N 0.84326 0.72843 0.90043 0.0
C5154 C 0.83872 0.71937 0.84053 0.0
C5155 C 0.84163 0.72284 0.8815 0.0
N5156 N 0.80314 0.71711 0.84514 0.0
N5157 N 0.87624 0.72939 0.87717 0.0
H5158 H 0.83138 0.72896 0.90999 0.0
H5159 H 0.83138 0.72896 0.90999 0.0
H5160 H 0.87788 0.73231 0.89205 0.0
H5161 H 0.88871 0.73119 0.86864 0.0
H5162 H 0.80015 0.7158 0.83034 0.0
H5163 H 0.79046 0.71828 0.85337 0.0
H5164 H 0.82346 0.72116 0.81328 0.0
H5165 H 0.8483 0.72343 0.81135 0.0
C5166 C 0.17525 0.77625 0.35285 0.0
C5167 C 0.17315 0.77883 0.37364 0.0
C5168 C 0.13667 0.77748 0.36743 0.0
C5169 C 0.13898 0.78019 0.34668 0.0
N5170 N 0.16316 0.77745 0.32039 0.0
N5171 N 0.15132 0.77248 0.40009 0.0
C5172 C 0.15876 0.77745 0.33977 0.0
C5173 C 0.15361 0.77615 0.38065 0.0
N5174 N 0.19304 0.77369 0.34436 0.0
N5175 N 0.11816 0.777 0.37464 0.0
H5176 H 0.16331 0.77144 0.40946 0.0
H5177 H 0.13803 0.76927 0.40671 0.0
H5178 H 0.10618 0.77825 0.36541 0.0
H5179 H 0.11461 0.77635 0.38939 0.0
H5180 H 0.2061 0.77193 0.35196 0.0
H5181 H 0.2061 0.77193 0.35196 0.0
H5182 H 0.153 0.77915 0.30921 0.0
H5183 H 0.153 0.77915 0.30921 0.0
C5184 C 0.13975 0.5329 0.19497 0.0
C5185 C 0.14073 0.54934 0.20784 0.0
C5186 C 0.10453 0.54831 0.20946 0.0
C5187 C 0.10373 0.53617 0.19246 0.0
N5188 N 0.12037 0.51158 0.1738 0.0
N5189 N 0.12386 0.56804 0.23219 0.0
C5190 C 0.12131 0.52662 0.18682 0.0
C5191 C 0.12301 0.55545 0.21679 0.0
N5192 N 0.15671 0.52316 0.19103 0.0
N5193 N 0.0874 0.55244 0.2188 0.0
H5194 H 0.13704 0.57196 0.2387 0.0
H5195 H 0.11174 0.57459 0.2386 0.0
H5196 H 0.07427 0.54595 0.2145 0.0
H5197 H 0.08621 0.56071 0.23148 0.0
H5198 H 0.15781 0.51088 0.18218 0.0
H5199 H 0.16974 0.52679 0.1981 0.0
H5200 H 0.13247 0.50487 0.16754 0.0
H5201 H 0.10715 0.50553 0.16935 0.0
C5202 C 0.68931 0.35452 0.45841 0.0
C5203 C 0.70142 0.35585 0.44133 0.0
C5204 C 0.7079 0.39039 0.45117 0.0
C5205 C 0.69134 0.39059 0.46404 0.0
N5206 N 0.6735 0.3708 0.4864 0.0
N5207 N 0.72791 0.3733 0.42673 0.0
C5208 C 0.68405 0.37195 0.4696 0.0
C5209 C 0.71262 0.37327 0.43954 0.0
N5210 N 0.68402 0.33637 0.46459 0.0
N5211 N 0.71929 0.40676 0.45047 0.0
H5212 H 0.7322 0.36064 0.41939 0.0
H5213 H 0.73615 0.38553 0.42313 0.0
H5214 H 0.71675 0.41868 0.45966 0.0
H5215 H 0.73177 0.40827 0.44197 0.0
H5216 H 0.67466 0.33358 0.4762 0.0
H5217 H 0.69033 0.32385 0.45857 0.0
H5218 H 0.66806 0.35791 0.49227 0.0
H5219 H 0.67104 0.38308 0.4951 0.0
C5220 C 0.88951 0.94613 0.71119 0.0
C5221 C 0.89038 0.95857 0.69444 0.0
C5222 C 0.85427 0.96066 0.696 0.0
C5223 C 0.85349 0.94382 0.70832 0.0
N5224 N 0.87031 0.9251 0.73275 0.0
N5225 N 0.87341 0.98251 0.67523 0.0
C5226 C 0.87112 0.93812 0.71772 0.0
C5227 C 0.87267 0.96756 0.68835 0.0
N5228 N 0.90649 0.94247 0.72098 0.0
N5229 N 0.8372 0.97024 0.69215 0.0
H5230 H 0.88654 0.9889 0.67098 0.0
H5231 H 0.86121 0.98859 0.66852 0.0
H5232 H 0.82412 0.96608 0.69881 0.0
H5233 H 0.83613 0.98303 0.68403 0.0
H5234 H 0.90754 0.93421 0.73368 0.0
H5235 H 0.91954 0.94934 0.71704 0.0
H5236 H 0.88249 0.91869 0.73917 0.0
H5237 H 0.85713 0.92072 0.73895 0.0
C5238 C 0.28132 0.12383 0.93784 0.0
C5239 C 0.28948 0.14155 0.94479 0.0
C5240 C 0.31008 0.12195 0.96746 0.0
C5241 C 0.30627 0.10474 0.95648 0.0
N5242 N 0.2845 0.08848 0.9342 0.0
N5243 N 0.30525 0.15629 0.97273 0.0
C5244 C 0.29046 0.10545 0.94279 0.0
C5245 C 0.30164 0.14019 0.96166 0.0
N5246 N 0.26424 0.12449 0.92765 0.0
N5247 N 0.32233 0.12131 0.98313 0.0
H5248 H 0.29892 0.1699 0.96997 0.0
H5249 H 0.29892 0.1699 0.96997 0.0
H5250 H 0.32792 0.10826 0.98858 0.0
H5251 H 0.32616 0.13379 0.99102 0.0
H5252 H 0.25645 0.11212 0.92345 0.0
H5253 H 0.2569 0.1376 0.92511 0.0
H5254 H 0.27489 0.08792 0.92242 0.0
H5255 H 0.28987 0.0749 0.93864 0.0
C5256 C 0.12346 0.43327 0.7801 0.0
C5257 C 0.14052 0.43632 0.79167 0.0
C5258 C 0.12129 0.46139 0.8102 0.0
C5259 C 0.10342 0.45351 0.8032 0.0
N5260 N 0.08823 0.43851 0.77543 0.0
N5261 N 0.15647 0.45771 0.81441 0.0
C5262 C 0.10481 0.44151 0.78612 0.0
C5263 C 0.13961 0.45181 0.80568 0.0
N5264 N 0.12506 0.42212 0.76367 0.0
N5265 N 0.121 0.47894 0.81962 0.0
H5266 H 0.17003 0.45325 0.80915 0.0
H5267 H 0.15686 0.46679 0.82662 0.0
H5268 H 0.10814 0.48686 0.82157 0.0
H5269 H 0.13357 0.48648 0.82368 0.0
H5270 H 0.11352 0.41842 0.75454 0.0
H5271 H 0.13856 0.41728 0.7586 0.0
H5272 H 0.08725 0.42941 0.76332 0.0
H5273 H 0.0752 0.44576 0.77865 0.0
C5274 C 0.79691 0.35392 0.03636 0.0
C5275 C 0.78491 0.3532 0.05342 0.0
C5276 C 0.78206 0.38918 0.05101 0.0
C5277 C 0.79869 0.38999 0.03844 0.0
N5278 N 0.81772 0.37293 0.01443 0.0
N5279 N 0.76142 0.37025 0.07311 0.0
C5280 C 0.80463 0.37227 0.02941 0.0
C5281 C 0.77578 0.37088 0.05935 0.0
N5282 N 0.80052 0.33684 0.02673 0.0
N5283 N 0.77215 0.40612 0.05453 0.0
H5284 H 0.75544 0.35713 0.07795 0.0
H5285 H 0.75553 0.38257 0.07981 0.0
H5286 H 0.77604 0.41914 0.04759 0.0
H5287 H 0.7593 0.40703 0.0626 0.0
H5288 H 0.80832 0.33577 0.01373 0.0
H5289 H 0.79398 0.32377 0.03111 0.0
H5290 H 0.82436 0.36067 0.00838 0.0
H5291 H 0.82201 0.38606 0.00806 0.0
C5292 C 0.89168 0.04739 0.28569 0.0
C5293 C 0.89213 0.03547 0.30282 0.0
C5294 C 0.85616 0.03262 0.29984 0.0
C5295 C 0.85549 0.04911 0.287 0.0
N5296 N 0.873 0.0681 0.26334 0.0
N5297 N 0.87558 0.01291 0.32293 0.0
C5298 C 0.87341 0.05503 0.27834 0.0
C5299 C 0.87445 0.02658 0.3086 0.0
N5300 N 0.9089 0.05087 0.27629 0.0
N5301 N 0.83914 0.02287 0.30334 0.0
H5302 H 0.8636 0.0059 0.32917 0.0
H5303 H 0.8636 0.0059 0.32917 0.0
H5304 H 0.82622 0.02676 0.29618 0.0
H5305 H 0.838 0.01018 0.3116 0.0
H5306 H 0.91016 0.05857 0.26326 0.0
H5307 H 0.92187 0.04425 0.28086 0.0
H5308 H 0.88537 0.07469 0.25747 0.0
H5309 H 0.85995 0.07247 0.25682 0.0
C5310 C 0.21292 0.12203 0.55701 0.0
C5311 C 0.20636 0.14104 0.55166 0.0
C5312 C 0.18246 0.12561 0.52909 0.0
C5313 C 0.18574 0.10724 0.53803 0.0
N5314 N 0.21125 0.08685 0.55085 0.0
N5315 N 0.19185 0.1599 0.52587 0.0
C5316 C 0.20334 0.10506 0.54895 0.0
C5317 C 0.19344 0.1424 0.53532 0.0
N5318 N 0.22802 0.12011 0.56981 0.0
N5319 N 0.16863 0.12689 0.51484 0.0
H5320 H 0.20049 0.17187 0.52974 0.0
H5321 H 0.18337 0.1622 0.51349 0.0
H5322 H 0.16225 0.11436 0.50902 0.0
H5323 H 0.16359 0.13994 0.50888 0.0
H5324 H 0.23231 0.10681 0.5758 0.0
H5325 H 0.23642 0.13195 0.57434 0.0
H5326 H 0.22482 0.0841 0.55715 0.0
H5327 H 0.2047 0.07459 0.54458 0.0
C5328 C 0.19799 0.87288 0.47511 0.0
C5329 C 0.19299 0.88828 0.46168 0.0
C5330 C 0.21229 0.87117 0.43794 0.0
C5331 C 0.21261 0.85317 0.44718 0.0
N5332 N 0.20585 0.83761 0.47809 0.0
N5333 N 0.17976 0.88022 0.43202 0.0
C5334 C 0.20553 0.85414 0.46713 0.0
C5335 C 0.19631 0.88319 0.44234 0.0
N5336 N 0.19534 0.87568 0.49457 0.0
N5337 N 0.22491 0.87538 0.42333 0.0
H5338 H 0.16588 0.88405 0.43694 0.0
H5339 H 0.17992 0.8706 0.42071 0.0
H5340 H 0.22487 0.88894 0.41642 0.0
H5341 H 0.23647 0.86591 0.42022 0.0
H5342 H 0.19977 0.86551 0.50499 0.0
H5343 H 0.18992 0.88888 0.49995 0.0
H5344 H 0.20004 0.83691 0.49214 0.0
H5345 H 0.21163 0.82463 0.4725 0.0
C5346 C 0.3544 0.4675 0.70204 0.0
C5347 C 0.35738 0.45091 0.71409 0.0
C5348 C 0.39236 0.45796 0.71387 0.0
C5349 C 0.38978 0.46948 0.69681 0.0
N5350 N 0.36837 0.48904 0.67733 0.0
N5351 N 0.37904 0.43358 0.7356 0.0
C5352 C 0.37074 0.47613 0.69229 0.0
C5353 C 0.37623 0.44764 0.7218 0.0
N5354 N 0.33578 0.47394 0.69914 0.0
N5355 N 0.41056 0.45466 0.72108 0.0
H5356 H 0.36737 0.42577 0.74156 0.0
H5357 H 0.39287 0.43015 0.74105 0.0
H5358 H 0.423 0.46141 0.71536 0.0
H5359 H 0.423 0.46141 0.71536 0.0
H5360 H 0.33232 0.48646 0.69122 0.0
H5361 H 0.32396 0.46719 0.70605 0.0
H5362 H 0.35484 0.49299 0.67161 0.0
H5363 H 0.38039 0.49543 0.67043 0.0
C5364 C 0.78971 0.60178 0.94306 0.0
C5365 C 0.80595 0.60101 0.95616 0.0
C5366 C 0.80157 0.63659 0.96151 0.0
C5367 C 0.78969 0.63799 0.94446 0.0
N5368 N 0.76513 0.62137 0.92586 0.0
N5369 N 0.82309 0.61709 0.98221 0.0
C5370 C 0.78134 0.62035 0.93736 0.0
C5371 C 0.81022 0.61819 0.96706 0.0
N5372 N 0.78246 0.58454 0.93614 0.0
N5373 N 0.80394 0.65298 0.97264 0.0
H5374 H 0.82789 0.60376 0.98775 0.0
H5375 H 0.82895 0.62918 0.9893 0.0
H5376 H 0.79695 0.66609 0.96914 0.0
H5377 H 0.81133 0.65333 0.98591 0.0
H5378 H 0.77156 0.58334 0.92563 0.0
H5379 H 0.78767 0.5711 0.94116 0.0
H5380 H 0.7578 0.60933 0.92023 0.0
H5381 H 0.75802 0.63455 0.92314 0.0
C5382 C 0.60511 0.04836 0.21214 0.0
C5383 C 0.60327 0.03675 0.19502 0.0
C5384 C 0.63903 0.03311 0.19463 0.0
C5385 C 0.64067 0.04957 0.20723 0.0
N5386 N 0.62587 0.06827 0.23304 0.0
N5387 N 0.61806 0.01077 0.17638 0.0
C5388 C 0.6239 0.05556 0.21786 0.0
C5389 C 0.62013 0.02663 0.18829 0.0
N5390 N 0.58887 0.05162 0.22325 0.0
N5391 N 0.65579 0.0239 0.18892 0.0
H5392 H 0.60463 0.00402 0.17409 0.0
H5393 H 0.62957 0.0034 0.16977 0.0
H5394 H 0.66938 0.028 0.19455 0.0
H5395 H 0.65643 0.01203 0.17948 0.0
H5396 H 0.58887 0.05913 0.23645 0.0
H5397 H 0.57556 0.0449 0.22 0.0
H5398 H 0.61418 0.07502 0.24004 0.0
H5399 H 0.63945 0.07195 0.23883 0.0
C5400 C 0.53359 0.19312 0.13891 0.0
C5401 C 0.5508 0.20488 0.14029 0.0
C5402 C 0.55252 0.20394 0.10402 0.0
C5403 C 0.53878 0.18813 0.10318 0.0
N5404 N 0.51191 0.17244 0.1193 0.0
N5405 N 0.5681 0.22989 0.12312 0.0
C5406 C 0.52766 0.18456 0.12043 0.0
C5407 C 0.55779 0.21289 0.12249 0.0
N5408 N 0.52245 0.19099 0.15533 0.0
N5409 N 0.56066 0.21029 0.08698 0.0
H5410 H 0.57075 0.23719 0.13622 0.0
H5411 H 0.57233 0.2377 0.11079 0.0
H5412 H 0.55576 0.20534 0.07341 0.0
H5413 H 0.57247 0.21985 0.0863 0.0
H5414 H 0.5092 0.18359 0.15585 0.0
H5415 H 0.52604 0.19801 0.16839 0.0
H5416 H 0.50433 0.16709 0.13132 0.0
H5417 H 0.50628 0.16784 0.10594 0.0
C5418 C 0.058 0.79175 0.38896 0.0
C5419 C 0.04417 0.80735 0.38994 0.0
C5420 C 0.03867 0.80283 0.35427 0.0
C5421 C 0.05589 0.79109 0.35274 0.0
N5422 N 0.07277 0.76552 0.36973 0.0
N5423 N 0.01627 0.82197 0.37473 0.0
C5424 C 0.06294 0.78282 0.37045 0.0
C5425 C 0.03265 0.81077 0.37296 0.0
N5426 N 0.06619 0.78526 0.40589 0.0
N5427 N 0.02785 0.8058 0.33777 0.0
H5428 H 0.01106 0.82634 0.38835 0.0
H5429 H 0.0074 0.82627 0.36319 0.0
H5430 H 0.03119 0.7988 0.32463 0.0
H5431 H 0.01538 0.81442 0.33701 0.0
H5432 H 0.07815 0.77587 0.40644 0.0
H5433 H 0.06089 0.78975 0.41945 0.0
H5434 H 0.07696 0.75768 0.38206 0.0
H5435 H 0.07502 0.75805 0.35666 0.0
C5436 C 0.46006 0.27414 0.62893 0.0
C5437 C 0.44261 0.28308 0.6371 0.0
C5438 C 0.45221 0.31133 0.62079 0.0
C5439 C 0.46435 0.30349 0.60675 0.0
N5440 N 0.4809 0.27303 0.59903 0.0
N5441 N 0.41844 0.3046 0.62649 0.0
C5442 C 0.46884 0.28317 0.61104 0.0
C5443 C 0.43715 0.29918 0.62673 0.0
N5444 N 0.46793 0.25815 0.63756 0.0
N5445 N 0.45008 0.33043 0.62134 0.0
H5446 H 0.40787 0.2942 0.62315 0.0
H5447 H 0.41461 0.31724 0.6338 0.0
H5448 H 0.46209 0.3393 0.61894 0.0
H5449 H 0.43665 0.33435 0.61598 0.0
H5450 H 0.48095 0.2519 0.6327 0.0
H5451 H 0.46144 0.25199 0.64993 0.0
H5452 H 0.48392 0.25825 0.60116 0.0
H5453 H 0.48716 0.27973 0.58683 0.0
C5454 C 0.94012 0.71885 0.873 0.0
C5455 C 0.94634 0.70896 0.85588 0.0
C5456 C 0.96932 0.68944 0.8759 0.0
C5457 C 0.95907 0.69546 0.89294 0.0
N5458 N 0.94374 0.72301 0.90821 0.0
N5459 N 0.97126 0.69002 0.84023 0.0
C5460 C 0.94726 0.71252 0.89162 0.0
C5461 C 0.96267 0.69611 0.85717 0.0
N5462 N 0.92697 0.73373 0.87151 0.0
N5463 N 0.9856 0.67805 0.87769 0.0
H5464 H 0.96717 0.69584 0.82672 0.0
H5465 H 0.98224 0.67956 0.83932 0.0
H5466 H 0.99229 0.6755 0.8911 0.0
H5467 H 0.99368 0.67269 0.86601 0.0
H5468 H 0.92007 0.74018 0.88342 0.0
H5469 H 0.92301 0.73974 0.8581 0.0
H5470 H 0.93609 0.73615 0.90859 0.0
H5471 H 0.95041 0.71941 0.92144 0.0
C5472 C 0.05843 0.71857 0.12489 0.0
C5473 C 0.052 0.7097 0.14251 0.0
C5474 C 0.0288 0.68946 0.12275 0.0
C5475 C 0.03818 0.69534 0.10516 0.0
N5476 N 0.05503 0.72162 0.08939 0.0
N5477 N 0.02525 0.6936 0.15815 0.0
C5478 C 0.05079 0.71198 0.10631 0.0
C5479 C 0.03518 0.69739 0.14129 0.0
N5480 N 0.07204 0.73305 0.12592 0.0
N5481 N 0.0141 0.67609 0.12181 0.0
H5482 H 0.02931 0.70014 0.17133 0.0
H5483 H 0.01233 0.68564 0.15892 0.0
H5484 H 0.00823 0.67146 0.10855 0.0
H5485 H 0.0078 0.66948 0.13395 0.0
H5486 H 0.07893 0.73916 0.11384 0.0
H5487 H 0.07659 0.73886 0.13925 0.0
H5488 H 0.06335 0.7343 0.08857 0.0
H5489 H 0.04849 0.71764 0.07619 0.0
C5490 C 0.46769 0.80557 0.12282 0.0
C5491 C 0.45863 0.80015 0.10493 0.0
C5492 C 0.43838 0.77626 0.12342 0.0
C5493 C 0.44443 0.78446 0.14146 0.0
N5494 N 0.47134 0.79958 0.15789 0.0
N5495 N 0.44188 0.77353 0.08884 0.0
C5496 C 0.46133 0.79673 0.14091 0.0
C5497 C 0.44626 0.78334 0.1055 0.0
N5498 N 0.4819 0.81949 0.12266 0.0
N5499 N 0.42531 0.76136 0.12269 0.0
H5500 H 0.44835 0.77689 0.07544 0.0
H5501 H 0.44835 0.77689 0.07544 0.0
H5502 H 0.41953 0.75474 0.13514 0.0
H5503 H 0.41953 0.75474 0.13514 0.0
H5504 H 0.48766 0.82584 0.13522 0.0
H5505 H 0.4877 0.82497 0.1097 0.0
H5506 H 0.48446 0.8072 0.15887 0.0
H5507 H 0.46717 0.79256 0.17079 0.0
C5508 C 0.46261 0.19742 0.85478 0.0
C5509 C 0.44607 0.20994 0.85365 0.0
C5510 C 0.44741 0.21355 0.88937 0.0
C5511 C 0.45922 0.19645 0.89062 0.0
N5512 N 0.48456 0.17771 0.87476 0.0
N5513 N 0.42678 0.23462 0.8694 0.0
C5514 C 0.4691 0.19024 0.87339 0.0
C5515 C 0.43995 0.21976 0.87082 0.0
N5516 N 0.47181 0.19246 0.83779 0.0
N5517 N 0.44415 0.22415 0.90593 0.0
H5518 H 0.42258 0.24043 0.85597 0.0
H5519 H 0.42005 0.24117 0.88136 0.0
H5520 H 0.45105 0.22064 0.91908 0.0
H5521 H 0.4365 0.23728 0.90634 0.0
H5522 H 0.4842 0.18373 0.83684 0.0
H5523 H 0.46736 0.19828 0.82439 0.0
H5524 H 0.49113 0.17087 0.8629 0.0
H5525 H 0.49168 0.17492 0.88789 0.0
C5526 C 0.56115 0.27679 0.3773 0.0
C5527 C 0.55679 0.28168 0.35757 0.0
C5528 C 0.53355 0.3066 0.37035 0.0
C5529 C 0.5422 0.30528 0.38925 0.0
N5530 N 0.55468 0.28187 0.41205 0.0
N5531 N 0.53191 0.29433 0.33661 0.0
C5532 C 0.55318 0.28809 0.39319 0.0
C5533 C 0.54062 0.29436 0.3545 0.0
N5534 N 0.57273 0.26097 0.38066 0.0
N5535 N 0.5184 0.31929 0.36781 0.0
H5536 H 0.51996 0.30292 0.33287 0.0
H5537 H 0.53611 0.28447 0.32577 0.0
H5538 H 0.51166 0.32208 0.3545 0.0
H5539 H 0.51263 0.32715 0.37954 0.0
H5540 H 0.57859 0.25737 0.39421 0.0
H5541 H 0.5761 0.25126 0.36937 0.0
H5542 H 0.56147 0.26895 0.41628 0.0
H5543 H 0.54746 0.28908 0.4234 0.0
C5544 C 0.14203 0.0296 0.70018 0.0
C5545 C 0.13977 0.04599 0.71269 0.0
C5546 C 0.10452 0.0394 0.7137 0.0
C5547 C 0.10639 0.02787 0.69663 0.0
N5548 N 0.12669 0.00782 0.67647 0.0
N5549 N 0.11922 0.06417 0.73457 0.0
C5550 C 0.12516 0.02106 0.69127 0.0
C5551 C 0.12116 0.0497 0.72102 0.0
N5552 N 0.16046 0.02321 0.69607 0.0
N5553 N 0.08647 0.04133 0.72188 0.0
H5554 H 0.13132 0.07127 0.74052 0.0
H5555 H 0.10581 0.0693 0.73959 0.0
H5556 H 0.07438 0.03406 0.71601 0.0
H5557 H 0.08382 0.04871 0.73491 0.0
H5558 H 0.16352 0.01091 0.68768 0.0
H5559 H 0.17268 0.02973 0.7025 0.0
H5560 H 0.13986 0.0035 0.67022 0.0
H5561 H 0.11432 0.00134 0.67033 0.0
C5562 C 0.69252 0.85388 0.95473 0.0
C5563 C 0.70628 0.85301 0.93902 0.0
C5564 C 0.71189 0.88854 0.94377 0.0
C5565 C 0.6948 0.88998 0.9556 0.0
N5566 N 0.6767 0.87319 0.98034 0.0
N5567 N 0.73263 0.86901 0.92225 0.0
C5568 C 0.68746 0.87234 0.96362 0.0
C5569 C 0.71743 0.87014 0.93508 0.0
N5570 N 0.68393 0.83693 0.96075 0.0
N5571 N 0.72306 0.9049 0.94143 0.0
H5572 H 0.73796 0.85569 0.9172 0.0
H5573 H 0.73991 0.88108 0.91659 0.0
H5574 H 0.71956 0.91801 0.94842 0.0
H5575 H 0.73634 0.90525 0.93407 0.0
H5576 H 0.67215 0.83634 0.97035 0.0
H5577 H 0.6884 0.82333 0.95545 0.0
H5578 H 0.67203 0.86094 0.98803 0.0
H5579 H 0.67404 0.88634 0.98754 0.0
C5580 C 0.8542 0.46079 0.19656 0.0
C5581 C 0.85425 0.44406 0.20902 0.0
C5582 C 0.89027 0.44708 0.21054 0.0
C5583 C 0.89024 0.45944 0.19369 0.0
N5584 N 0.87208 0.4829 0.17498 0.0
N5585 N 0.87212 0.4265 0.2335 0.0
C5586 C 0.87214 0.46804 0.18822 0.0
C5587 C 0.87227 0.43893 0.21795 0.0
N5588 N 0.83679 0.46995 0.19327 0.0
N5589 N 0.90774 0.44355 0.21948 0.0
H5590 H 0.85918 0.422 0.24011 0.0
H5591 H 0.88457 0.42086 0.24012 0.0
H5592 H 0.92047 0.4507 0.21505 0.0
H5593 H 0.90961 0.43486 0.23179 0.0
H5594 H 0.83512 0.48264 0.1851 0.0
H5595 H 0.82406 0.46555 0.20045 0.0
H5596 H 0.85951 0.48865 0.16867 0.0
H5597 H 0.8849 0.48957 0.17024 0.0
C5598 C 0.30771 0.6403 0.4576 0.0
C5599 C 0.2954 0.64017 0.44069 0.0
C5600 C 0.29249 0.60419 0.44498 0.0
C5601 C 0.30837 0.60389 0.45851 0.0
N5602 N 0.32312 0.62195 0.48436 0.0
N5603 N 0.26789 0.62298 0.42733 0.0
C5604 C 0.31353 0.62213 0.46696 0.0
C5605 C 0.28522 0.62238 0.43707 0.0
N5606 N 0.31362 0.65789 0.46481 0.0
N5607 N 0.28436 0.5868 0.43971 0.0
H5608 H 0.26157 0.63603 0.42275 0.0
H5609 H 0.25877 0.61093 0.4256 0.0
H5610 H 0.28786 0.57389 0.44706 0.0
H5611 H 0.27467 0.58516 0.4281 0.0
H5612 H 0.324 0.65954 0.47578 0.0
H5613 H 0.30815 0.67102 0.45927 0.0
H5614 H 0.32651 0.63441 0.49237 0.0
H5615 H 0.32616 0.60884 0.49154 0.0
C5616 C 0.12271 0.96826 0.3067 0.0
C5617 C 0.10503 0.95931 0.30046 0.0
C5618 C 0.12391 0.93989 0.27639 0.0
C5619 C 0.14156 0.94591 0.28532 0.0
N5620 N 0.15762 0.97282 0.30067 0.0
N5621 N 0.08902 0.94575 0.2724 0.0
C5622 C 0.14082 0.96256 0.29771 0.0
C5623 C 0.10576 0.94809 0.28292 0.0
N5624 N 0.12246 0.98156 0.3215 0.0
N5625 N 0.12442 0.92597 0.26219 0.0
H5626 H 0.07608 0.95273 0.27653 0.0
H5627 H 0.08847 0.93882 0.25887 0.0
H5628 H 0.13758 0.92097 0.25634 0.0
H5629 H 0.11196 0.91923 0.25664 0.0
H5630 H 0.13507 0.9867 0.3283 0.0
H5631 H 0.10954 0.98725 0.32717 0.0
H5632 H 0.15823 0.98599 0.30828 0.0
H5633 H 0.1707 0.96861 0.294 0.0
C5634 C 0.77864 0.8727 0.55607 0.0
C5635 C 0.78756 0.8548 0.55044 0.0
C5636 C 0.80828 0.87349 0.52688 0.0
C5637 C 0.80234 0.89139 0.53555 0.0
N5638 N 0.77569 0.90798 0.55098 0.0
N5639 N 0.80373 0.8381 0.52429 0.0
C5640 C 0.78541 0.89087 0.54776 0.0
C5641 C 0.80009 0.85527 0.53373 0.0
N5642 N 0.76401 0.87242 0.56956 0.0
N5643 N 0.82185 0.87385 0.51233 0.0
H5644 H 0.79685 0.82514 0.5285 0.0
H5645 H 0.81187 0.83686 0.51152 0.0
H5646 H 0.8266 0.88689 0.50608 0.0
H5647 H 0.82848 0.86146 0.50656 0.0
H5648 H 0.75823 0.88488 0.57608 0.0
H5649 H 0.75772 0.85944 0.57441 0.0
H5650 H 0.76267 0.90913 0.55873 0.0
H5651 H 0.77997 0.92091 0.5441 0.0
C5652 C 0.85283 0.53197 0.79194 0.0
C5653 C 0.85558 0.54931 0.78077 0.0
C5654 C 0.89047 0.541 0.77859 0.0
C5655 C 0.88866 0.52814 0.79478 0.0
N5656 N 0.86766 0.50762 0.81357 0.0
N5657 N 0.8766 0.56685 0.75888 0.0
C5658 C 0.86956 0.52189 0.79982 0.0
C5659 C 0.87421 0.55246 0.77238 0.0
N5660 N 0.83422 0.5261 0.79595 0.0
N5661 N 0.90821 0.54394 0.7702 0.0
H5662 H 0.86476 0.57496 0.75368 0.0
H5663 H 0.89019 0.57012 0.75278 0.0
H5664 H 0.92069 0.53627 0.77452 0.0
H5665 H 0.92069 0.53627 0.77452 0.0
H5666 H 0.83081 0.51329 0.80337 0.0
H5667 H 0.82215 0.53366 0.79047 0.0
H5668 H 0.8544 0.50338 0.81968 0.0
H5669 H 0.87988 0.50029 0.81906 0.0
C5670 C 0.19825 0.64069 0.0359 0.0
C5671 C 0.21038 0.64089 0.05293 0.0
C5672 C 0.21224 0.60481 0.05001 0.0
C5673 C 0.19568 0.60455 0.0373 0.0
N5674 N 0.17786 0.62225 0.01296 0.0
N5675 N 0.23364 0.62298 0.07209 0.0
C5676 C 0.19034 0.62255 0.02845 0.0
C5677 C 0.21908 0.62288 0.05853 0.0
N5678 N 0.19473 0.65807 0.02678 0.0
N5679 N 0.22163 0.58755 0.0534 0.0
H5680 H 0.23999 0.6359 0.07703 0.0
H5681 H 0.2394 0.61047 0.07851 0.0
H5682 H 0.21743 0.57474 0.04622 0.0
H5683 H 0.2343 0.58611 0.06164 0.0
H5684 H 0.18646 0.65969 0.01415 0.0
H5685 H 0.2016 0.67092 0.03133 0.0
H5686 H 0.17195 0.63464 0.00646 0.0
H5687 H 0.1734 0.6092 0.00651 0.0
C5688 C 0.2036 0.35594 0.9631 0.0
C5689 C 0.21573 0.35696 0.94626 0.0
C5690 C 0.217 0.3927 0.95102 0.0
C5691 C 0.20014 0.39187 0.96303 0.0
N5692 N 0.18078 0.37277 0.98488 0.0
N5693 N 0.23674 0.37649 0.9262 0.0
C5694 C 0.19485 0.37343 0.97082 0.0
C5695 C 0.22379 0.3754 0.94128 0.0
N5696 N 0.20009 0.33804 0.97108 0.0
N5697 N 0.22597 0.4103 0.94857 0.0
H5698 H 0.24214 0.36394 0.91939 0.0
H5699 H 0.24161 0.38961 0.92024 0.0
H5700 H 0.22071 0.42283 0.95555 0.0
H5701 H 0.23905 0.41208 0.94101 0.0
H5702 H 0.19208 0.33583 0.98381 0.0
H5703 H 0.20659 0.32547 0.96534 0.0
H5704 H 0.17471 0.3599 0.99022 0.0
H5705 H 0.17511 0.38556 0.99098 0.0
C5706 C 0.37388 0.96188 0.18854 0.0
C5707 C 0.3913 0.96011 0.19873 0.0
C5708 C 0.36989 0.9432 0.22353 0.0
C5709 C 0.35489 0.94069 0.20897 0.0
N5710 N 0.36398 0.93127 0.17781 0.0
N5711 N 0.40528 0.94798 0.22869 0.0
C5712 C 0.36079 0.94628 0.19018 0.0
C5713 C 0.38916 0.95052 0.21737 0.0
N5714 N 0.37132 0.97574 0.17475 0.0
N5715 N 0.36625 0.9385 0.24247 0.0
H5716 H 0.41882 0.95362 0.22445 0.0
H5717 H 0.40514 0.93985 0.24155 0.0
H5718 H 0.35263 0.93346 0.24702 0.0
H5719 H 0.37628 0.94112 0.25362 0.0
H5720 H 0.35834 0.9764 0.16675 0.0
H5721 H 0.38143 0.98705 0.17306 0.0
H5722 H 0.37743 0.92938 0.1709 0.0
H5723 H 0.35432 0.91988 0.17642 0.0
C5724 C 0.77738 0.12439 0.43643 0.0
C5725 C 0.7867 0.14207 0.44203 0.0
C5726 C 0.80604 0.12322 0.46657 0.0
C5727 C 0.80066 0.1055 0.45722 0.0
N5728 N 0.77518 0.08885 0.43999 0.0
N5729 N 0.80303 0.15887 0.46804 0.0
C5730 C 0.78426 0.10607 0.44429 0.0
C5731 C 0.79883 0.14157 0.45904 0.0
N5732 N 0.76189 0.12517 0.42392 0.0
N5733 N 0.81768 0.12244 0.48271 0.0
H5734 H 0.79624 0.17185 0.46377 0.0
H5735 H 0.81211 0.16043 0.4801 0.0
H5736 H 0.82146 0.10926 0.48931 0.0
H5737 H 0.82313 0.13457 0.49003 0.0
H5738 H 0.75481 0.11304 0.41818 0.0
H5739 H 0.75552 0.13833 0.41973 0.0
H5740 H 0.76356 0.08728 0.43035 0.0
H5741 H 0.77888 0.07595 0.44726 0.0
C5742 C 0.60184 0.55246 0.70636 0.0
C5743 C 0.60306 0.53849 0.69105 0.0
C5744 C 0.6371 0.53312 0.70031 0.0
C5745 C 0.63748 0.55202 0.70876 0.0
N5746 N 0.61948 0.57334 0.72949 0.0
N5747 N 0.62137 0.51063 0.67883 0.0
C5748 C 0.61946 0.55975 0.71498 0.0
C5749 C 0.62028 0.52701 0.68997 0.0
N5750 N 0.58386 0.55821 0.71261 0.0
N5751 N 0.65307 0.52133 0.70081 0.0
H5752 H 0.60961 0.50519 0.6708 0.0
H5753 H 0.60961 0.50519 0.6708 0.0
H5754 H 0.66591 0.52531 0.70804 0.0
H5755 H 0.66591 0.52531 0.70804 0.0
H5756 H 0.58145 0.56861 0.72343 0.0
H5757 H 0.57125 0.55142 0.70731 0.0
H5758 H 0.60698 0.57996 0.73503 0.0
H5759 H 0.63255 0.57776 0.73604 0.0
C5760 C 0.51975 0.69203 0.6268 0.0
C5761 C 0.52619 0.69656 0.60762 0.0
C5762 C 0.54739 0.72234 0.62146 0.0
C5763 C 0.54347 0.71555 0.64067 0.0
N5764 N 0.51995 0.7004 0.66153 0.0
N5765 N 0.5388 0.72155 0.58679 0.0
C5766 C 0.52726 0.70283 0.64318 0.0
C5767 C 0.53731 0.71386 0.60508 0.0
N5768 N 0.50758 0.67648 0.62936 0.0
N5769 N 0.5619 0.73571 0.61882 0.0
H5770 H 0.53166 0.71509 0.57494 0.0
H5771 H 0.54569 0.73478 0.58379 0.0
H5772 H 0.56893 0.74224 0.63069 0.0
H5773 H 0.5672 0.73977 0.60516 0.0
H5774 H 0.50391 0.67081 0.64298 0.0
H5775 H 0.5016 0.66904 0.61745 0.0
H5776 H 0.50752 0.6922 0.66461 0.0
H5777 H 0.52583 0.708 0.6734 0.0
C5778 C 0.04965 0.28449 0.89128 0.0
C5779 C 0.03675 0.30082 0.89215 0.0
C5780 C 0.03283 0.29775 0.85651 0.0
C5781 C 0.05038 0.28661 0.85529 0.0
N5782 N 0.07225 0.26473 0.8721 0.0
N5783 N 0.01251 0.31994 0.87551 0.0
C5784 C 0.05757 0.27818 0.87287 0.0
C5785 C 0.02691 0.30623 0.87476 0.0
N5786 N 0.05426 0.27523 0.90831 0.0
N5787 N 0.02173 0.29979 0.84011 0.0
H5788 H 0.00696 0.32511 0.88871 0.0
H5789 H 0.00639 0.32635 0.86314 0.0
H5790 H 0.0255 0.29274 0.82711 0.0
H5791 H 0.00811 0.30657 0.83991 0.0
H5792 H 0.06252 0.26249 0.9091 0.0
H5793 H 0.0482 0.27967 0.9216 0.0
H5794 H 0.0798 0.25979 0.88434 0.0
H5795 H 0.07705 0.2586 0.85905 0.0
C5796 C 0.93817 0.21735 0.37077 0.0
C5797 C 0.94384 0.20773 0.35325 0.0
C5798 C 0.96777 0.18815 0.3727 0.0
C5799 C 0.95896 0.1946 0.39034 0.0
N5800 N 0.94314 0.2216 0.40594 0.0
N5801 N 0.97027 0.19134 0.33716 0.0
C5802 C 0.94652 0.21133 0.38919 0.0
C5803 C 0.96075 0.19547 0.35419 0.0
N5804 N 0.92473 0.23201 0.36991 0.0
N5805 N 0.9827 0.17501 0.37364 0.0
H5806 H 0.9661 0.19784 0.324 0.0
H5807 H 0.98306 0.18319 0.33619 0.0
H5808 H 0.98896 0.17088 0.38689 0.0
H5809 H 0.98882 0.16814 0.36154 0.0
H5810 H 0.91815 0.23824 0.38211 0.0
H5811 H 0.92008 0.23797 0.35672 0.0
H5812 H 0.93519 0.23453 0.40664 0.0
H5813 H 0.95004 0.21784 0.41903 0.0
C5814 C 0.03827 0.19367 0.64181 0.0
C5815 C 0.05465 0.20643 0.64184 0.0
C5816 C 0.04921 0.21135 0.60665 0.0
C5817 C 0.03765 0.19409 0.60599 0.0
N5818 N 0.01531 0.17369 0.62393 0.0
N5819 N 0.0723 0.23148 0.62477 0.0
C5820 C 0.03019 0.18688 0.62387 0.0
C5821 C 0.05878 0.21688 0.62443 0.0
N5822 N 0.0299 0.18804 0.65888 0.0
N5823 N 0.05074 0.22233 0.59011 0.0
H5824 H 0.07825 0.23663 0.63781 0.0
H5825 H 0.07777 0.2382 0.61228 0.0
H5826 H 0.04324 0.21848 0.57738 0.0
H5827 H 0.05785 0.23575 0.58945 0.0
H5828 H 0.03425 0.19362 0.67241 0.0
H5829 H 0.03425 0.19362 0.67241 0.0
H5830 H 0.00973 0.16781 0.63685 0.0
H5831 H 0.00836 0.16923 0.61114 0.0
C5832 C 0.44672 0.72419 0.37519 0.0
C5833 C 0.44857 0.7161 0.35627 0.0
C5834 C 0.47159 0.6917 0.36892 0.0
C5835 C 0.4659 0.69683 0.38808 0.0
N5836 N 0.4573 0.72319 0.40929 0.0
N5837 N 0.46948 0.69908 0.33407 0.0
C5838 C 0.45697 0.71523 0.39105 0.0
C5839 C 0.46382 0.70251 0.35284 0.0
N5840 N 0.43393 0.73915 0.37812 0.0
N5841 N 0.48324 0.67579 0.36627 0.0
H5842 H 0.4632 0.70679 0.32247 0.0
H5843 H 0.48095 0.68986 0.33024 0.0
H5844 H 0.48934 0.66843 0.37817 0.0
H5845 H 0.4866 0.6699 0.35265 0.0
H5846 H 0.43052 0.74476 0.39184 0.0
H5847 H 0.42655 0.74567 0.36645 0.0
H5848 H 0.45179 0.73699 0.41254 0.0
H5849 H 0.46444 0.71613 0.42079 0.0
C5850 C 0.55074 0.77173 0.87597 0.0
C5851 C 0.54608 0.77843 0.85692 0.0
C5852 C 0.5225 0.80164 0.8715 0.0
C5853 C 0.53025 0.79799 0.8903 0.0
N5854 N 0.54515 0.7743 0.91124 0.0
N5855 N 0.52154 0.7942 0.83721 0.0
C5856 C 0.54179 0.78085 0.89274 0.0
C5857 C 0.52958 0.79096 0.85506 0.0
N5858 N 0.56496 0.75791 0.87794 0.0
N5859 N 0.50887 0.81593 0.86913 0.0
H5860 H 0.52635 0.78702 0.82462 0.0
H5861 H 0.52635 0.78702 0.82462 0.0
H5862 H 0.50313 0.82352 0.88106 0.0
H5863 H 0.50324 0.81964 0.85544 0.0
H5864 H 0.57071 0.75347 0.89129 0.0
H5865 H 0.57117 0.75116 0.86575 0.0
H5866 H 0.55274 0.76152 0.91446 0.0
H5867 H 0.53892 0.78126 0.92333 0.0
C5868 C 0.60757 0.44556 0.28134 0.0
C5869 C 0.60428 0.4573 0.29811 0.0
C5870 C 0.63946 0.46376 0.29987 0.0
C5871 C 0.64271 0.44705 0.28803 0.0
N5872 N 0.63081 0.42776 0.26108 0.0
N5873 N 0.61622 0.48447 0.31714 0.0
C5874 C 0.62707 0.43993 0.27642 0.0
C5875 C 0.61996 0.46888 0.30529 0.0
N5876 N 0.59191 0.44027 0.27018 0.0
N5877 N 0.65521 0.47458 0.30558 0.0
H5878 H 0.60227 0.49033 0.31871 0.0
H5879 H 0.62689 0.49231 0.32458 0.0
H5880 H 0.66929 0.47125 0.30068 0.0
H5881 H 0.65445 0.48723 0.31395 0.0
H5882 H 0.5928 0.43218 0.25735 0.0
H5883 H 0.57787 0.44542 0.27326 0.0
H5884 H 0.6201 0.42041 0.25321 0.0
H5885 H 0.64485 0.42555 0.25568 0.0
C5886 C 0.2734 0.37108 0.55997 0.0
C5887 C 0.28458 0.35398 0.55663 0.0
C5888 C 0.30094 0.37026 0.52893 0.0
C5889 C 0.29383 0.3885 0.5358 0.0
N5890 N 0.26869 0.4058 0.55292 0.0
N5891 N 0.30081 0.3347 0.53247 0.0
C5892 C 0.27812 0.38855 0.54943 0.0
C5893 C 0.29582 0.35276 0.53926 0.0
N5894 N 0.25842 0.37046 0.57309 0.0
N5895 N 0.31291 0.36981 0.51301 0.0
H5896 H 0.29555 0.32204 0.53918 0.0
H5897 H 0.30858 0.33212 0.51968 0.0
H5898 H 0.31534 0.38213 0.50441 0.0
H5899 H 0.31984 0.35732 0.50788 0.0
H5900 H 0.24928 0.38216 0.57628 0.0
H5901 H 0.25451 0.35757 0.58021 0.0
H5902 H 0.25798 0.40782 0.56349 0.0
H5903 H 0.27175 0.41829 0.5447 0.0
C5904 C 0.36854 0.02066 0.80176 0.0
C5905 C 0.38765 0.0272 0.79717 0.0
C5906 C 0.37349 0.05009 0.77306 0.0
C5907 C 0.35454 0.04642 0.78056 0.0
N5908 N 0.33338 0.02296 0.79547 0.0
N5909 N 0.40802 0.04088 0.77238 0.0
C5910 C 0.35193 0.02949 0.7923 0.0
C5911 C 0.38988 0.03922 0.78041 0.0
N5912 N 0.36634 0.00728 0.81633 0.0
N5913 N 0.37585 0.06478 0.75985 0.0
H5914 H 0.41989 0.03319 0.77816 0.0
H5915 H 0.4109 0.04855 0.75957 0.0
H5916 H 0.36381 0.07196 0.7538 0.0
H5917 H 0.38941 0.06992 0.75528 0.0
H5918 H 0.35288 0.00305 0.82202 0.0
H5919 H 0.37842 0.0007 0.82294 0.0
H5920 H 0.33009 0.01029 0.8032 0.0
H5921 H 0.32139 0.02976 0.7889 0.0
C5922 C 0.7194 0.11899 0.05296 0.0
C5923 C 0.71132 0.13772 0.04916 0.0
C5924 C 0.69244 0.12301 0.02184 0.0
C5925 C 0.69755 0.10387 0.02811 0.0
N5926 N 0.72232 0.08462 0.04332 0.0
N5927 N 0.69842 0.15822 0.02392 0.0
C5928 C 0.71347 0.10235 0.04142 0.0
C5929 C 0.70076 0.1399 0.03137 0.0
N5930 N 0.73252 0.11717 0.06778 0.0
N5931 N 0.67848 0.12496 0.00778 0.0
H5932 H 0.70435 0.17043 0.03092 0.0
H5933 H 0.69203 0.16102 0.01041 0.0
H5934 H 0.67267 0.11279 0.00064 0.0
H5935 H 0.67247 0.13832 0.00369 0.0
H5936 H 0.73755 0.10384 0.07308 0.0
H5937 H 0.73834 0.1295 0.07463 0.0
H5938 H 0.73462 0.08214 0.0519 0.0
H5939 H 0.71776 0.07266 0.03497 0.0
C5940 C 0.94738 0.28663 0.10349 0.0
C5941 C 0.95932 0.30376 0.10289 0.0
C5942 C 0.96237 0.30089 0.13884 0.0
C5943 C 0.94581 0.28822 0.13961 0.0
N5944 N 0.92678 0.26438 0.12237 0.0
N5945 N 0.98283 0.3233 0.12008 0.0
C5946 C 0.93981 0.27942 0.12181 0.0
C5947 C 0.96852 0.3095 0.1206 0.0
N5948 N 0.94376 0.27715 0.08634 0.0
N5949 N 0.97234 0.30427 0.15577 0.0
H5950 H 0.98877 0.3283 0.107 0.0
H5951 H 0.98874 0.32989 0.13244 0.0
H5952 H 0.96851 0.2972 0.16874 0.0
H5953 H 0.98516 0.31238 0.1567 0.0
H5954 H 0.93603 0.26413 0.08518 0.0
H5955 H 0.95026 0.28166 0.07329 0.0
H5956 H 0.92011 0.25843 0.11008 0.0
H5957 H 0.92254 0.25788 0.13545 0.0
C5958 C 0.96078 0.79867 0.64165 0.0
C5959 C 0.94394 0.78634 0.64197 0.0
C5960 C 0.94653 0.78461 0.60591 0.0
C5961 C 0.95892 0.80143 0.6056 0.0
N5962 N 0.98234 0.82051 0.62343 0.0
N5963 N 0.92477 0.76301 0.62421 0.0
C5964 C 0.96768 0.80704 0.62357 0.0
C5965 C 0.93823 0.77766 0.62401 0.0
N5966 N 0.97029 0.80194 0.65886 0.0
N5967 N 0.94319 0.77514 0.58869 0.0
H5968 H 0.91995 0.75666 0.63718 0.0
H5969 H 0.91828 0.75723 0.61174 0.0
H5970 H 0.95022 0.7794 0.57583 0.0
H5971 H 0.93517 0.76231 0.58736 0.0
H5972 H 0.98321 0.80981 0.66017 0.0
H5973 H 0.96593 0.795 0.67174 0.0
H5974 H 0.98802 0.82701 0.63594 0.0
H5975 H 0.98882 0.82529 0.61053 0.0
C5976 C 0.62234 0.96988 0.80506 0.0
C5977 C 0.6051 0.96021 0.79887 0.0
C5978 C 0.62491 0.94027 0.77601 0.0
C5979 C 0.64213 0.9463 0.78604 0.0
N5980 N 0.65761 0.97372 0.80139 0.0
N5981 N 0.58926 0.94227 0.77343 0.0
C5982 C 0.64093 0.96338 0.79787 0.0
C5983 C 0.60627 0.94748 0.78247 0.0
N5984 N 0.62094 0.9849 0.81806 0.0
N5985 N 0.62636 0.92801 0.76035 0.0
H5986 H 0.57586 0.94822 0.77772 0.0
H5987 H 0.58823 0.93297 0.76149 0.0
H5988 H 0.63958 0.92515 0.75342 0.0
H5989 H 0.61455 0.92162 0.7533 0.0
H5990 H 0.63288 0.99145 0.8248 0.0
H5991 H 0.60754 0.99089 0.82208 0.0
H5992 H 0.65814 0.98678 0.80914 0.0
H5993 H 0.6708 0.97005 0.79465 0.0
C5994 C 0.27747 0.87128 0.05612 0.0
C5995 C 0.28736 0.85384 0.05035 0.0
C5996 C 0.30579 0.87381 0.02593 0.0
C5997 C 0.29884 0.8912 0.03486 0.0
N5998 N 0.27084 0.90511 0.05121 0.0
N5999 N 0.3041 0.83811 0.02378 0.0
C6000 C 0.28231 0.88937 0.0473 0.0
C6001 C 0.29938 0.85504 0.03323 0.0
N6002 N 0.2634 0.87159 0.07013 0.0
N6003 N 0.31818 0.87527 0.01043 0.0
H6004 H 0.29827 0.82468 0.02807 0.0
H6005 H 0.31224 0.83736 0.01099 0.0
H6006 H 0.32135 0.88866 0.00392 0.0
H6007 H 0.32514 0.86346 0.00388 0.0
H6008 H 0.25814 0.85927 0.07733 0.0
H6009 H 0.25814 0.85927 0.07733 0.0
H6010 H 0.27285 0.91866 0.04448 0.0
H6011 H 0.27285 0.91866 0.04448 0.0
C6012 C 0.37498 0.55344 0.27093 0.0
C6013 C 0.35698 0.54809 0.27968 0.0
C6014 C 0.37358 0.52215 0.29817 0.0
C6015 C 0.39178 0.5304 0.29284 0.0
N6016 N 0.41009 0.54735 0.26847 0.0
N6017 N 0.33818 0.5223 0.2939 0.0
C6018 C 0.39242 0.54353 0.27683 0.0
C6019 C 0.35604 0.53039 0.29041 0.0
N6020 N 0.37552 0.56877 0.25823 0.0
N6021 N 0.37307 0.5078 0.31197 0.0
H6022 H 0.32543 0.52859 0.2883 0.0
H6023 H 0.33618 0.50889 0.30078 0.0
H6024 H 0.38582 0.50127 0.31719 0.0
H6025 H 0.36027 0.50269 0.31839 0.0
H6026 H 0.38836 0.57487 0.25286 0.0
H6027 H 0.36282 0.57547 0.25313 0.0
H6028 H 0.41197 0.55612 0.2562 0.0
H6029 H 0.42275 0.54029 0.27329 0.0
C6030 C 0.71495 0.6238 0.56214 0.0
C6031 C 0.70326 0.64085 0.55941 0.0
C6032 C 0.68373 0.62201 0.53495 0.0
C6033 C 0.69154 0.60395 0.54203 0.0
N6034 N 0.72003 0.58881 0.55557 0.0
N6035 N 0.68306 0.65787 0.53671 0.0
C6036 C 0.70897 0.60529 0.55353 0.0
C6037 C 0.68961 0.64037 0.54371 0.0
N6038 N 0.73182 0.62542 0.57264 0.0
N6039 N 0.67139 0.62174 0.51934 0.0
H6040 H 0.68918 0.67104 0.54138 0.0
H6041 H 0.67259 0.65966 0.52588 0.0
H6042 H 0.66465 0.634 0.51348 0.0
H6043 H 0.66895 0.60926 0.51105 0.0
H6044 H 0.74114 0.61387 0.57584 0.0
H6045 H 0.73671 0.63877 0.57805 0.0
H6046 H 0.73334 0.58816 0.56282 0.0
H6047 H 0.71633 0.57575 0.54861 0.0
C6048 C 0.98656 0.50158 0.19035 0.0
C6049 C 0.97829 0.49895 0.17153 0.0
C6050 C 0.00894 0.48684 0.15976 0.0
C6051 C 0.01851 0.49473 0.17599 0.0
N6052 N 0.01655 0.50737 0.20863 0.0
N6053 N 0.9845 0.49633 0.13671 0.0
C6054 C 0.00727 0.50112 0.19217 0.0
C6055 C 0.99047 0.49419 0.15559 0.0
N6056 N 0.9747 0.50441 0.2061 0.0
N6057 N 0.01803 0.47399 0.14759 0.0
H6058 H 0.97148 0.50326 0.13297 0.0
H6059 H 0.99372 0.49325 0.12495 0.0
H6060 H 0.0317 0.46814 0.15104 0.0
H6061 H 0.01094 0.46788 0.13554 0.0
H6062 H 0.97984 0.50478 0.22043 0.0
H6063 H 0.95957 0.50573 0.2046 0.0
H6064 H 0.00936 0.51394 0.22032 0.0
H6065 H 0.03173 0.50628 0.20999 0.0
C6066 C 0.74161 0.25362 0.44303 0.0
C6067 C 0.73565 0.26134 0.42475 0.0
C6068 C 0.72824 0.22912 0.41357 0.0
C6069 C 0.74043 0.22126 0.42792 0.0
N6070 N 0.75568 0.22515 0.45926 0.0
N6071 N 0.73217 0.25452 0.39024 0.0
C6072 C 0.74587 0.23322 0.44396 0.0
C6073 C 0.7313 0.24861 0.4092 0.0
N6074 N 0.74362 0.26557 0.45882 0.0
N6075 N 0.71648 0.21768 0.40235 0.0
H6076 H 0.73803 0.26804 0.38638 0.0
H6077 H 0.72975 0.24489 0.37865 0.0
H6078 H 0.7143 0.20294 0.40566 0.0
H6079 H 0.7078 0.22356 0.39126 0.0
H6080 H 0.74673 0.26038 0.47279 0.0
H6081 H 0.74131 0.28062 0.45786 0.0
H6082 H 0.76161 0.23332 0.47065 0.0
H6083 H 0.75808 0.21008 0.45997 0.0
C6084 C 0.98777 0.0034 0.69102 0.0
C6085 C 0.97953 -0.00154 0.67266 0.0
C6086 C 0.01072 0.9874 0.6615 0.0
C6087 C 0.01997 0.99716 0.6769 0.0
N6088 N 0.01743 0.01309 0.70813 0.0
N6089 N 0.98569 0.99346 0.63806 0.0
C6090 C 0.0085 0.00468 0.69245 0.0
C6091 C 0.99184 0.99319 0.657 0.0
N6092 N 0.97592 0.00677 0.70666 0.0
N6093 N 0.02009 0.97356 0.65067 0.0
H6094 H 0.97226 -0.00076 0.63383 0.0
H6095 H 0.99507 0.99001 0.62653 0.0
H6096 H 0.03375 0.96813 0.65477 0.0
H6097 H 0.01311 0.96609 0.63935 0.0
H6098 H 0.9812 0.00887 0.72079 0.0
H6099 H 0.96072 0.00675 0.70536 0.0
H6100 H 0.00986 0.02043 0.71911 0.0
H6101 H 0.03263 0.01291 0.70963 0.0
C6102 C 0.23193 0.24945 0.90933 0.0
C6103 C 0.23836 0.26288 0.92366 0.0
C6104 C 0.24821 0.23555 0.94428 0.0
C6105 C 0.24205 0.22283 0.92915 0.0
N6106 N 0.21712 0.21788 0.90494 0.0
N6107 N 0.24831 0.26885 0.95696 0.0
C6108 C 0.22946 0.22999 0.91477 0.0
C6109 C 0.24491 0.25602 0.94209 0.0
N6110 N 0.22986 0.25473 0.89026 0.0
N6111 N 0.2579 0.228 0.95994 0.0
H6112 H 0.24668 0.28391 0.95517 0.0
H6113 H 0.2518 0.26448 0.9711 0.0
H6114 H 0.2595 0.2129 0.96164 0.0
H6115 H 0.26448 0.23651 0.97069 0.0
H6116 H 0.22592 0.24476 0.87941 0.0
H6117 H 0.23509 0.26801 0.88501 0.0
H6118 H 0.20752 0.22302 0.89426 0.0
H6119 H 0.21532 0.20332 0.90917 0.0
C6120 C 0.00712 0.50184 0.84068 0.0
C6121 C 0.02025 0.50438 0.82515 0.0
C6122 C 0.99242 0.50964 0.80342 0.0
C6123 C 0.98001 0.50289 0.81861 0.0
N6124 N 0.97917 0.48219 0.84746 0.0
N6125 N 0.02578 0.51009 0.79099 0.0
C6126 C 0.98843 0.49556 0.83595 0.0
C6127 C 0.01302 0.50828 0.80616 0.0
N6128 N 0.01285 0.50336 0.85969 0.0
N6129 N 0.98457 0.51684 0.7866 0.0
H6130 H 0.04088 0.5098 0.79324 0.0
H6131 H 0.02136 0.51121 0.77647 0.0
H6132 H 0.96955 0.51642 0.78392 0.0
H6133 H 0.99291 0.52351 0.77575 0.0
H6134 H 0.00304 0.50144 0.87121 0.0
H6135 H 0.02652 0.50882 0.86362 0.0
H6136 H 0.98569 0.47643 0.85999 0.0
H6137 H 0.96667 0.4748 0.84282 0.0
C6138 C 0.75665 0.24954 0.08513 0.0
C6139 C 0.74944 0.26403 0.07242 0.0
C6140 C 0.73965 0.23841 0.04973 0.0
C6141 C 0.74777 0.22471 0.06294 0.0
N6142 N 0.77484 0.21958 0.08485 0.0
N6143 N 0.73796 0.27268 0.04022 0.0
C6144 C 0.76076 0.23137 0.0772 0.0
C6145 C 0.74225 0.25869 0.05371 0.0
N6146 N 0.75898 0.25278 0.10462 0.0
N6147 N 0.72919 0.23193 0.03411 0.0
H6148 H 0.73911 0.28756 0.04344 0.0
H6149 H 0.7341 0.26944 0.02586 0.0
H6150 H 0.72818 0.21701 0.03099 0.0
H6151 H 0.72146 0.24117 0.02481 0.0
H6152 H 0.76367 0.2418 0.11412 0.0
H6153 H 0.75399 0.26549 0.11138 0.0
H6154 H 0.78443 0.22446 0.09567 0.0
H6155 H 0.77772 0.20583 0.07886 0.0
C6156 C 0.98947 0.99609 0.30444 0.0
C6157 C 0.98256 0.00037 0.32353 0.0
C6158 C 0.0146 0.01171 0.33235 0.0
C6159 C 0.0226 0.00154 0.31657 0.0
N6160 N 0.01796 0.98748 0.28484 0.0
N6161 N 0.99105 0.00624 0.35749 0.0
C6162 C 0.01004 0.99517 0.30141 0.0
C6163 C 0.99589 0.00626 0.33817 0.0
N6164 N 0.97655 0.99287 0.28963 0.0
N6165 N 0.02549 0.02459 0.34288 0.0
H6166 H 0.97791 0.00057 0.36267 0.0
H6167 H 0.00114 0.00981 0.36836 0.0
H6168 H 0.03953 0.02854 0.33838 0.0
H6169 H 0.01967 0.03242 0.35461 0.0
H6170 H 0.98077 0.99125 0.2751 0.0
H6171 H 0.96148 0.99253 0.29201 0.0
H6172 H 0.00974 0.98081 0.27391 0.0
H6173 H 0.03307 0.98754 0.28261 0.0
C6174 C 0.25236 0.23502 0.5576 0.0
C6175 C 0.24837 0.22691 0.57624 0.0
C6176 C 0.23745 0.25818 0.58757 0.0
C6177 C 0.24631 0.26736 0.57157 0.0
N6178 N 0.26091 0.26459 0.53975 0.0
N6179 N 0.2444 0.23319 0.61089 0.0
C6180 C 0.25324 0.25575 0.55585 0.0
C6181 C 0.24353 0.23931 0.59196 0.0
N6182 N 0.25522 0.22305 0.54194 0.0
N6183 N 0.22418 0.26765 0.59901 0.0
H6184 H 0.2502 0.21969 0.61487 0.0
H6185 H 0.24138 0.24256 0.62253 0.0
H6186 H 0.2186 0.2813 0.5951 0.0
H6187 H 0.21727 0.26077 0.61074 0.0
H6188 H 0.25657 0.22819 0.52768 0.0
H6189 H 0.25553 0.20786 0.54341 0.0
H6190 H 0.26788 0.25698 0.52856 0.0
H6191 H 0.26058 0.27978 0.53815 0.0
C6192 C 0.19501 0.00627 0.50488 0.0
C6193 C 0.18155 0.0194 0.49625 0.0
C6194 C 0.16054 0.99361 0.48701 0.0
C6195 C 0.17359 0.97974 0.4948 0.0
N6196 N 0.20573 0.97239 0.50731 0.0
N6197 N 0.15987 0.02347 0.46875 0.0
C6198 C 0.19189 0.98583 0.50239 0.0
C6199 C 0.16774 0.01211 0.48306 0.0
N6200 N 0.20998 0.01343 0.51584 0.0
N6201 N 0.14121 0.9896 0.48448 0.0
H6202 H 0.16547 0.03733 0.46569 0.0
H6203 H 0.14939 0.01809 0.45905 0.0
H6204 H 0.13487 0.97695 0.4901 0.0
H6205 H 0.13135 8e-05 0.47941 0.0
H6206 H 0.21938 0.00462 0.52395 0.0
H6207 H 0.21241 0.02847 0.51693 0.0
H6208 H 0.21984 0.97621 0.51157 0.0
H6209 H 0.20314 0.95739 0.5062 0.0
C6210 C 0.26171 0.44339 0.75252 0.0
C6211 C 0.26957 0.42536 0.74598 0.0
C6212 C 0.23769 0.41512 0.73587 0.0
C6213 C 0.22906 0.42972 0.74736 0.0
N6214 N 0.23277 0.45951 0.76561 0.0
N6215 N 0.26281 0.39124 0.73913 0.0
C6216 C 0.24107 0.44467 0.75528 0.0
C6217 C 0.25691 0.41023 0.7401 0.0
N6218 N 0.27375 0.45881 0.75622 0.0
N6219 N 0.22743 0.40517 0.72203 0.0
H6220 H 0.27638 0.38662 0.74426 0.0
H6221 H 0.25319 0.37998 0.73547 0.0
H6222 H 0.21347 0.40959 0.71772 0.0
H6223 H 0.2339 0.39435 0.71343 0.0
H6224 H 0.26858 0.47273 0.75959 0.0
H6225 H 0.28892 0.45763 0.75505 0.0
H6226 H 0.24086 0.4699 0.77324 0.0
H6227 H 0.2176 0.46085 0.76676 0.0
C6228 C 0.81943 0.47768 0.97995 0.0
C6229 C 0.80728 0.47276 0.99554 0.0
C6230 C 0.80172 0.50771 0.00073 0.0
C6231 C 0.81963 0.51096 0.99082 0.0
N6232 N 0.84907 0.49582 0.9788 0.0
N6233 N 0.78143 0.48312 0.01683 0.0
C6234 C 0.82952 0.49511 0.98218 0.0
C6235 C 0.79617 0.4879 0.00437 0.0
N6236 N 0.82467 0.46424 0.9663 0.0
N6237 N 0.79067 0.52311 0.00682 0.0
H6238 H 0.77731 0.46855 0.0188 0.0
H6239 H 0.77381 0.49332 0.02516 0.0
H6240 H 0.7952 0.53753 0.00481 0.0
H6241 H 0.77689 0.52151 0.01308 0.0
H6242 H 0.83448 0.46759 0.9551 0.0
H6243 H 0.81794 0.45054 0.9658 0.0
H6244 H 0.85681 0.48395 0.97313 0.0
H6245 H 0.85754 0.50687 0.98499 0.0
C6246 C 0.75768 0.04981 0.24415 0.0
C6247 C 0.76458 0.0685 0.24994 0.0
C6248 C 0.73227 0.07693 0.26048 0.0
C6249 C 0.72444 0.06203 0.24891 0.0
N6250 N 0.72944 0.03146 0.23247 0.0
N6251 N 0.75587 0.10223 0.25657 0.0
C6252 C 0.73712 0.04726 0.24182 0.0
C6253 C 0.75111 0.08292 0.25594 0.0
N6254 N 0.77054 0.03498 0.24079 0.0
N6255 N 0.7212 0.08666 0.27384 0.0
H6256 H 0.7691 0.10755 0.25126 0.0
H6257 H 0.74564 0.11294 0.26027 0.0
H6258 H 0.7071 0.08198 0.27733 0.0
H6259 H 0.72696 0.09786 0.28246 0.0
H6260 H 0.76617 0.02067 0.238 0.0
H6261 H 0.78564 0.03707 0.24162 0.0
H6262 H 0.73791 0.02099 0.22538 0.0
H6263 H 0.71433 0.02941 0.23163 0.0
C6264 C 0.49826 0.19189 0.00464 0.0
C6265 C 0.50243 0.17298 0.01209 0.0
C6266 C 0.51105 0.16235 0.97987 0.0
C6267 C 0.50102 0.17815 0.97174 0.0
N6268 N 0.48734 0.21019 0.97608 0.0
N6269 N 0.50459 0.13836 0.00416 0.0
C6270 C 0.49555 0.19391 0.98406 0.0
C6271 C 0.50634 0.15752 -0.00102 0.0
N6272 N 0.49656 0.2074 0.01702 0.0
N6273 N 0.52317 0.1509 0.96901 0.0
H6274 H 0.49905 0.13385 0.01757 0.0
H6275 H 0.50666 0.1271 0.99407 0.0
H6276 H 0.52714 0.15482 0.9548 0.0
H6277 H 0.53059 0.13902 0.97506 0.0
H6278 H 0.49494 0.22174 0.01218 0.0
H6279 H 0.49759 0.20576 0.03215 0.0
H6280 H 0.48136 0.22147 0.98437 0.0
H6281 H 0.48625 0.21185 0.96094 0.0
C6282 C 0.00569 0.80286 0.51169 0.0
C6283 C -0.00041 0.82163 0.51807 0.0
C6284 C 0.98854 0.82899 0.48589 0.0
C6285 C -0.00021 0.8137 0.47821 0.0
N6286 N 0.0177 0.78405 0.48392 0.0
N6287 N 0.99277 0.85509 0.5086 0.0
C6288 C 0.00784 0.79972 0.49121 0.0
C6289 C 0.9937 0.83567 0.50428 0.0
N6290 N 0.00936 0.78847 0.52494 0.0
N6291 N 0.97438 0.83804 0.47524 0.0
H6292 H -0.00206 0.8608 0.52173 0.0
H6293 H 0.98888 0.86548 0.49813 0.0
H6294 H 0.96985 0.83252 0.46175 0.0
H6295 H 0.96601 0.84944 0.48099 0.0
H6296 H 0.01236 0.77409 0.52094 0.0
H6297 H 0.0086 0.79106 0.53996 0.0
H6298 H 0.02532 0.7742 0.49267 0.0
H6299 H 0.01845 0.78151 0.46888 0.0
C6300 C 0.42303 0.2638 0.76384 0.0
C6301 C 0.43576 0.2493 0.77046 0.0
C6302 C 0.44525 0.24369 0.73647 0.0
C6303 C 0.42721 0.25233 0.73102 0.0
N6304 N 0.39565 0.26327 0.74243 0.0
N6305 N 0.46361 0.2292 0.76344 0.0
C6306 C 0.41512 0.26069 0.74544 0.0
C6307 C 0.4488 0.24071 0.75682 0.0
N6308 N 0.41582 0.27769 0.7761 0.0
N6309 N 0.45835 0.23813 0.72254 0.0
H6310 H 0.46633 0.22779 0.7784 0.0
H6311 H 0.47265 0.22105 0.75431 0.0
H6312 H 0.45538 0.23964 0.70766 0.0
H6313 H 0.47227 0.23291 0.72583 0.0
H6314 H 0.40582 0.28819 0.77134 0.0
H6315 H 0.42129 0.27927 0.79026 0.0
H6316 H 0.38639 0.26874 0.75326 0.0
H6317 H 0.38868 0.25684 0.73051 0.0
C6318 C 0.99681 0.69259 0.00505 0.0
C6319 C 0.00171 0.6742 0.01329 0.0
C6320 C 0.01074 0.66246 0.98148 0.0
C6321 C 0.00014 0.67759 0.97281 0.0
N6322 N 0.98575 0.70944 0.97568 0.0
N6323 N 0.00655 0.63948 0.00725 0.0
C6324 C 0.99426 0.69371 0.98442 0.0
C6325 C 0.00658 0.65837 0.00092 0.0
N6326 N 0.99441 0.70852 0.01677 0.0
N6327 N 0.02314 0.65106 0.97088 0.0
H6328 H 0.00159 0.63535 0.02102 0.0
H6329 H 0.00932 0.6278 -0.00217 0.0
H6330 H 0.02665 0.6545 0.95643 0.0
H6331 H 0.03126 0.63984 0.97727 0.0
H6332 H 0.99233 0.7226 0.01136 0.0
H6333 H 0.99528 0.70755 0.03197 0.0
H6334 H 0.97941 0.72093 0.9834 0.0
H6335 H 0.98479 0.71045 0.96048 0.0
C6336 C 0.0667 0.72884 0.27035 0.0
C6337 C 0.05815 0.74668 0.27482 0.0
C6338 C 0.05182 0.75163 0.24011 0.0
C6339 C 0.06784 0.73893 0.23661 0.0
N6340 N 0.09462 0.72125 0.25125 0.0
N6341 N 0.03439 0.7704 0.26508 0.0
C6342 C 0.07611 0.7283 0.25234 0.0
C6343 C 0.04733 0.75617 0.25996 0.0
N6344 N 0.07026 0.71544 0.28457 0.0
N6345 N 0.04163 0.75942 0.22488 0.0
H6346 H 0.03144 0.77327 0.27979 0.0
H6347 H 0.02704 0.77918 0.25508 0.0
H6348 H 0.04536 0.7565 0.21038 0.0
H6349 H 0.02921 0.76804 0.22664 0.0
H6350 H 0.07743 0.70229 0.28162 0.0
H6351 H 0.06467 0.71732 0.29865 0.0
H6352 H 0.10131 0.71382 0.26276 0.0
H6353 H 0.10413 0.72702 0.24089 0.0
C6354 C 0.49055 0.83661 0.00381 0.0
C6355 C 0.49668 0.82262 0.01756 0.0
C6356 C 0.50547 0.80091 0.99074 0.0
C6357 C 0.49757 0.81498 0.97777 0.0
N6358 N 0.47167 0.83872 0.97445 0.0
N6359 N 0.50675 0.78956 0.02445 0.0
C6360 C 0.48584 0.82994 0.98532 0.0
C6361 C 0.50309 0.80395 0.01119 0.0
N6362 N 0.48896 0.85596 0.00828 0.0
N6363 N 0.51522 0.78516 0.98346 0.0
H6364 H 0.5058 0.79208 0.03947 0.0
H6365 H 0.50995 0.77522 0.02046 0.0
H6366 H 0.51587 0.78253 0.96844 0.0
H6367 H 0.52274 0.77523 0.99221 0.0
H6368 H 0.48488 0.86632 -0.00215 0.0
H6369 H 0.4938 0.86172 0.02151 0.0
H6370 H 0.46289 0.84985 0.98011 0.0
H6371 H 0.46764 0.83325 0.96078 0.0
C6372 C 0.56087 0.26879 0.22163 0.0
C6373 C 0.55568 0.24911 0.22066 0.0
C6374 C 0.54897 0.24863 0.25545 0.0
C6375 C 0.5609 0.26556 0.25709 0.0
N6376 N 0.578 0.29242 0.24087 0.0
N6377 N 0.53403 0.22487 0.23336 0.0
C6378 C 0.56607 0.27644 0.24 0.0
C6379 C 0.54582 0.2406 0.23658 0.0
N6380 N 0.56234 0.27935 0.20482 0.0
N6381 N 0.54175 0.23994 0.27188 0.0
H6382 H 0.53141 0.21982 0.2192 0.0
H6383 H 0.52589 0.21794 0.24416 0.0
H6384 H 0.5434 0.24618 0.2857 0.0
H6385 H 0.53422 0.22674 0.2719 0.0
H6386 H 0.56497 0.29435 0.20462 0.0
H6387 H 0.55889 0.27309 0.19133 0.0
H6388 H 0.58335 0.29837 0.2537 0.0
H6389 H 0.58392 0.29901 0.2285 0.0
C6390 C 0.74589 0.75462 0.94115 0.0
C6391 C 0.74224 0.76185 0.92207 0.0
C6392 C 0.73306 0.72962 0.91177 0.0
C6393 C 0.74263 0.72158 0.92792 0.0
N6394 N 0.75547 0.72608 0.96021 0.0
N6395 N 0.73952 0.75385 0.88761 0.0
C6396 C 0.74791 0.73403 0.94361 0.0
C6397 C 0.73804 0.74866 0.90677 0.0
N6398 N 0.74766 0.76724 0.95646 0.0
N6399 N 0.72106 0.71868 0.90028 0.0
H6400 H 0.74521 0.76725 0.88317 0.0
H6401 H 0.7372 0.74385 0.87634 0.0
H6402 H 0.71701 0.70453 0.90429 0.0
H6403 H 0.71381 0.72462 0.88824 0.0
H6404 H 0.74884 0.76263 0.97092 0.0
H6405 H 0.74716 0.78236 0.95454 0.0
H6406 H 0.76133 0.73437 0.97155 0.0
H6407 H 0.75617 0.71094 0.96208 0.0
C6408 C 0.24973 0.75348 0.44356 0.0
C6409 C 0.24336 0.76044 0.42511 0.0
C6410 C 0.23228 0.72829 0.41684 0.0
C6411 C 0.24426 0.72036 0.43137 0.0
N6412 N 0.26175 0.72504 0.46135 0.0
N6413 N 0.23529 0.75222 0.39166 0.0
C6414 C 0.25183 0.7329 0.446 0.0
C6415 C 0.23664 0.74719 0.41087 0.0
N6416 N 0.254 0.7663 0.45819 0.0
N6417 N 0.21881 0.71721 0.40729 0.0
H6418 H 0.24085 0.76537 0.38637 0.0
H6419 H 0.23106 0.74223 0.38094 0.0
H6420 H 0.21555 0.70303 0.4119 0.0
H6421 H 0.20989 0.723 0.39635 0.0
H6422 H 0.25735 0.7619 0.47236 0.0
H6423 H 0.25338 0.7814 0.45609 0.0
H6424 H 0.26925 0.73337 0.47164 0.0
H6425 H 0.26268 0.7099 0.46315 0.0
C6426 C 0.74124 0.75858 0.55282 0.0
C6427 C 0.74847 0.7655 0.57098 0.0
C6428 C 0.75941 0.73334 0.57869 0.0
C6429 C 0.74656 0.72538 0.56494 0.0
N6430 N 0.72755 0.73035 0.53586 0.0
N6431 N 0.7564 0.75667 0.60434 0.0
C6432 C 0.73834 0.73801 0.5507 0.0
C6433 C 0.75507 0.75205 0.58504 0.0
N6434 N 0.73705 0.77136 0.53815 0.0
N6435 N 0.77351 0.72241 0.58748 0.0
H6436 H 0.75123 0.76987 0.60992 0.0
H6437 H 0.76062 0.74638 0.61479 0.0
H6438 H 0.77667 0.70826 0.58268 0.0
H6439 H 0.78281 0.72831 0.59804 0.0
H6440 H 0.73308 0.76689 0.52416 0.0
H6441 H 0.73838 0.78645 0.54006 0.0
H6442 H 0.71976 0.73888 0.52595 0.0
H6443 H 0.72628 0.71524 0.53406 0.0
C6444 C 0.25053 0.73836 0.05595 0.0
C6445 C 0.24736 0.73064 0.07492 0.0
C6446 C 0.23509 0.76176 0.08553 0.0
C6447 C 0.24353 0.77076 0.0693 0.0
N6448 N 0.25664 0.76783 0.03694 0.0
N6449 N 0.24331 0.73767 0.10944 0.0
C6450 C 0.25005 0.75902 0.05352 0.0
C6451 C 0.24194 0.74322 0.09036 0.0
N6452 N 0.254 0.72607 0.04066 0.0
N6453 N 0.22222 0.77149 0.09717 0.0
H6454 H 0.24986 0.72462 0.11374 0.0
H6455 H 0.23994 0.74719 0.12087 0.0
H6456 H 0.21693 0.78528 0.09329 0.0
H6457 H 0.21557 0.76487 0.10919 0.0
H6458 H 0.25485 0.73076 0.02621 0.0
H6459 H 0.25542 0.71101 0.04264 0.0
H6460 H 0.2634 0.76034 0.02555 0.0
H6461 H 0.25566 0.78297 0.03519 0.0
C6462 C 0.19508 0.48056 0.00681 0.0
C6463 C 0.1943 0.47958 0.98651 0.0
C6464 C 0.19263 0.51498 0.98442 0.0
C6465 C 0.18623 0.51496 0.00419 0.0
N6466 N 0.18061 0.4963 0.03437 0.0
N6467 N 0.20314 0.49527 0.95656 0.0
C6468 C 0.18802 0.4976 0.01583 0.0
C6469 C 0.19687 0.49674 0.97542 0.0
N6470 N 0.2004 0.46437 0.01711 0.0
N6471 N 0.19409 0.5322 0.97443 0.0
H6472 H 0.2078 0.48193 0.9508 0.0
H6473 H 0.20503 0.50704 0.94716 0.0
H6474 H 0.19224 0.54573 0.98123 0.0
H6475 H 0.19757 0.53329 0.95969 0.0
H6476 H 0.2025 0.46442 0.03219 0.0
H6477 H 0.20457 0.45154 0.00993 0.0
H6478 H 0.1804 0.48329 0.04228 0.0
H6479 H 0.17248 0.50703 0.04133 0.0
C6480 C 0.25828 0.94396 0.24727 0.0
C6481 C 0.26312 0.92557 0.23899 0.0
C6482 C 0.22972 0.9215 0.22918 0.0
C6483 C 0.22404 0.93465 0.24373 0.0
N6484 N 0.23219 0.96319 0.26225 0.0
N6485 N 0.25117 0.8941 0.22813 0.0
C6486 C 0.23815 0.94785 0.25108 0.0
C6487 C 0.24826 0.91352 0.23129 0.0
N6488 N 0.27258 0.9571 0.25168 0.0
N6489 N 0.2166 0.91419 0.21616 0.0
H6490 H 0.26349 0.88696 0.23352 0.0
H6491 H 0.24005 0.88489 0.22321 0.0
H6492 H 0.2024 0.91975 0.21536 0.0
H6493 H 0.22062 0.90405 0.20549 0.0
H6494 H 0.26967 0.97122 0.25654 0.0
H6495 H 0.28735 0.95396 0.24952 0.0
H6496 H 0.24175 0.97252 0.26952 0.0
H6497 H 0.21732 0.96608 0.26427 0.0
C6498 C 0.82767 0.01464 0.51341 0.0
C6499 C 0.81324 0.02214 0.50113 0.0
C6500 C 0.80328 0.98853 0.49411 0.0
C6501 C 0.82196 0.98246 0.50076 0.0
N6502 N 0.85456 0.99272 0.50991 0.0
N6503 N 0.78388 0.01627 0.48289 0.0
C6504 C 0.83507 0.9964 0.5084 0.0
C6505 C 0.79955 0.009 0.49277 0.0
N6506 N 0.83606 0.02582 0.52754 0.0
N6507 N 0.78963 0.975 0.48893 0.0
H6508 H 0.78107 0.03128 0.4826 0.0
H6509 H 0.7743 0.00763 0.47483 0.0
H6510 H 0.79272 0.96005 0.48899 0.0
H6511 H 0.77529 0.97861 0.48532 0.0
H6512 H 0.84701 0.02038 0.53666 0.0
H6513 H 0.83059 0.03969 0.53088 0.0
H6514 H 0.86442 0.00327 0.51482 0.0
H6515 H 0.86085 0.98012 0.5041 0.0
C6516 C 0.73509 0.58949 0.75115 0.0
C6517 C 0.72383 0.57238 0.75209 0.0
C6518 C 0.75371 0.55344 0.75611 0.0
C6519 C 0.76444 0.57044 0.75098 0.0
N6520 N 0.76305 0.60161 0.73414 0.0
N6521 N 0.7219 0.53754 0.75537 0.0
C6522 C 0.75446 0.58754 0.74534 0.0
C6523 C 0.733 0.55406 0.75473 0.0
N6524 N 0.72699 0.60748 0.75395 0.0
N6525 N 0.76331 0.53701 0.76205 0.0
H6526 H 0.70665 0.53822 0.75514 0.0
H6527 H 0.7278 0.5235 0.75553 0.0
H6528 H 0.77854 0.53607 0.76178 0.0
H6529 H 0.75619 0.52478 0.76763 0.0
H6530 H 0.73532 0.62025 0.75351 0.0
H6531 H 0.71273 0.60924 0.75901 0.0
H6532 H 0.75546 0.61397 0.72943 0.0
H6533 H 0.77638 0.59939 0.72711 0.0
C6534 C 0.49183 0.65507 0.48932 0.0
C6535 C 0.49753 0.67007 0.47649 0.0
C6536 C 0.5051 0.69059 0.50471 0.0
C6537 C 0.49709 0.67582 0.51689 0.0
N6538 N 0.47268 0.65032 0.51816 0.0
N6539 N 0.5074 0.70347 0.4716 0.0
C6540 C 0.48688 0.66023 0.50833 0.0
C6541 C 0.50349 0.68842 0.48405 0.0
N6542 N 0.4907 0.63607 0.48347 0.0
N6543 N 0.51403 0.70638 0.5129 0.0
H6544 H 0.50714 0.70161 0.45646 0.0
H6545 H 0.51018 0.71768 0.47629 0.0
H6546 H 0.51384 0.70872 0.52798 0.0
H6547 H 0.52176 0.71672 0.50485 0.0
H6548 H 0.48756 0.62486 0.49333 0.0
H6549 H 0.49525 0.63142 0.46971 0.0
H6550 H 0.46473 0.63904 0.51166 0.0
H6551 H 0.46727 0.65525 0.53154 0.0
C6552 C 0.98743 0.33487 -0.00048 0.0
C6553 C 0.99477 0.32225 0.01402 0.0
C6554 C 0.00402 0.2993 0.98842 0.0
C6555 C 0.99619 0.31273 0.97478 0.0
N6556 N 0.96918 0.33462 0.96959 0.0
N6557 N 0.00604 0.28997 0.02274 0.0
C6558 C 0.98299 0.32675 0.98152 0.0
C6559 C 0.00169 0.30341 0.00872 0.0
N6560 N 0.98552 0.35446 0.00253 0.0
N6561 N 0.01416 0.28351 0.98184 0.0
H6562 H 0.00511 0.29331 0.0376 0.0
H6563 H 0.00978 0.27556 0.01955 0.0
H6564 H 0.01516 0.28056 0.96689 0.0
H6565 H 0.02166 0.27395 0.991 0.0
H6566 H 0.98082 0.36389 0.99151 0.0
H6567 H 0.9908 0.36128 0.01508 0.0
H6568 H 0.95963 0.34552 0.97442 0.0
H6569 H 0.96667 0.32891 0.95566 0.0
C6570 C 0.41576 0.73077 0.23459 0.0
C6571 C 0.4305 0.74204 0.2261 0.0
C6572 C 0.4438 0.74758 0.25883 0.0
C6573 C 0.42526 0.74219 0.2664 0.0
N6574 N 0.39127 0.73537 0.25888 0.0
N6575 N 0.46155 0.75789 0.2297 0.0
C6576 C 0.41046 0.73562 0.25359 0.0
C6577 C 0.44583 0.74909 0.23814 0.0
N6578 N 0.40541 0.71755 0.22394 0.0
N6579 N 0.45889 0.75158 0.27119 0.0
H6580 H 0.46316 0.75819 0.21452 0.0
H6581 H 0.47242 0.76505 0.23758 0.0
H6582 H 0.45717 0.75141 0.28635 0.0
H6583 H 0.47309 0.75425 0.2664 0.0
H6584 H 0.39435 0.70908 0.23015 0.0
H6585 H 0.40948 0.71399 0.20966 0.0
H6586 H 0.38024 0.73136 0.24914 0.0
H6587 H 0.38631 0.7416 0.27185 0.0
C6588 C 0.9887 0.15946 0.49549 0.0
C6589 C 0.99377 0.17501 0.48285 0.0
C6590 C -0.00114 0.19579 0.51141 0.0
C6591 C 0.99302 0.17988 0.52328 0.0
N6592 N 0.97106 0.15253 0.52505 0.0
N6593 N 0.00027 0.20937 0.47856 0.0
C6594 C 0.98346 0.16405 0.51461 0.0
C6595 C 0.99764 0.19382 0.49072 0.0
N6596 N 0.98933 0.14041 0.48967 0.0
N6597 N 0.00624 0.21214 0.52003 0.0
H6598 H 0.00045 0.2078 0.46339 0.0
H6599 H 0.00157 0.2237 0.48352 0.0
H6600 H 0.00635 0.21365 0.53523 0.0
H6601 H 0.01253 0.22363 0.51229 0.0
H6602 H 0.98643 0.12893 0.49928 0.0
H6603 H 0.99491 0.13603 0.47622 0.0
H6604 H 0.96362 0.14082 0.51871 0.0
H6605 H 0.96688 0.15625 0.53925 0.0
C6606 C 0.08009 0.25757 0.73647 0.0
C6607 C 0.06492 0.24671 0.72809 0.0
C6608 C 0.05306 0.24009 0.76112 0.0
C6609 C 0.0716 0.24602 0.76825 0.0
N6610 N 0.10543 0.25242 0.75987 0.0
N6611 N 0.03485 0.22912 0.73254 0.0
C6612 C 0.08614 0.25192 0.75497 0.0
C6613 C 0.05047 0.23854 0.74051 0.0
N6614 N 0.08964 0.27178 0.72635 0.0
N6615 N 0.03832 0.23605 0.77388 0.0
H6616 H 0.03263 0.22892 0.71744 0.0
H6617 H 0.02471 0.22133 0.74079 0.0
H6618 H 0.04054 0.23632 0.78898 0.0
H6619 H 0.02405 0.23316 0.76945 0.0
H6620 H 0.10094 0.2799 0.73261 0.0
H6621 H 0.08466 0.27651 0.71273 0.0
H6622 H 0.11618 0.25638 0.7498 0.0
H6623 H 0.11062 0.24693 0.77309 0.0
C6624 C 0.48316 0.33325 0.49756 0.0
C6625 C 0.49181 0.32246 0.51282 0.0
C6626 C 0.50734 0.30138 0.48873 0.0
C6627 C 0.49879 0.31323 0.47411 0.0
N6628 N 0.46923 0.33033 0.46552 0.0
N6629 N 0.50801 0.29295 0.52334 0.0
C6630 C 0.48275 0.32493 0.47907 0.0
C6631 C 0.50247 0.30518 0.50864 0.0
N6632 N 0.47735 0.3521 0.50015 0.0
N6633 N 0.52042 0.28735 0.48345 0.0
H6634 H 0.50494 0.29602 0.53796 0.0
H6635 H 0.51465 0.27947 0.52091 0.0
H6636 H 0.52313 0.2843 0.46874 0.0
H6637 H 0.52852 0.2792 0.49343 0.0
H6638 H 0.47166 0.36055 0.4888 0.0
H6639 H 0.48153 0.35994 0.5125 0.0
H6640 H 0.45737 0.33926 0.46904 0.0
H6641 H 0.46922 0.32422 0.45153 0.0
C6642 C 0.57222 0.73171 0.76582 0.0
C6643 C 0.56053 0.7473 0.77216 0.0
C6644 C 0.54988 0.75161 0.73833 0.0
C6645 C 0.56688 0.7412 0.73261 0.0
N6646 N 0.59812 0.72844 0.74292 0.0
N6647 N 0.53379 0.76891 0.76509 0.0
C6648 C 0.57915 0.73291 0.74686 0.0
C6649 C 0.54762 0.75616 0.75859 0.0
N6650 N 0.57888 0.71782 0.7784 0.0
N6651 N 0.53647 0.75717 0.7247 0.0
H6652 H 0.53143 0.77103 0.78002 0.0
H6653 H 0.525 0.7772 0.75585 0.0
H6654 H 0.53844 0.75432 0.70985 0.0
H6655 H 0.52315 0.76363 0.72827 0.0
H6656 H 0.58791 0.70641 0.77376 0.0
H6657 H 0.57371 0.71701 0.79273 0.0
H6658 H 0.60759 0.72295 0.75354 0.0
H6659 H 0.60489 0.73375 0.73037 0.0
C6660 C 0.49197 0.49062 0.65667 0.0
C6661 C 0.47873 0.49737 0.67097 0.0
C6662 C 0.50657 0.50611 0.69157 0.0
C6663 C 0.51908 0.49797 0.67718 0.0
N6664 N 0.52154 0.47213 0.65336 0.0
N6665 N 0.47327 0.50827 0.70403 0.0
C6666 C 0.51092 0.48625 0.66253 0.0
C6667 C 0.48594 0.50397 0.68927 0.0
N6668 N 0.48694 0.48901 0.63748 0.0
N6669 N 0.51445 0.51606 0.7069 0.0
H6670 H 0.45814 0.50761 0.70212 0.0
H6671 H 0.47781 0.51164 0.71816 0.0
H6672 H 0.52956 0.51661 0.70903 0.0
H6673 H 0.50613 0.52392 0.71694 0.0
H6674 H 0.49734 0.48568 0.62683 0.0
H6675 H 0.47347 0.49347 0.63201 0.0
H6676 H 0.51548 0.46327 0.64252 0.0
H6677 H 0.5354 0.46812 0.65832 0.0
C6678 C 0.49445 0.98856 0.15949 0.0
C6679 C 0.48149 0.99417 0.17454 0.0
C6680 C 0.50949 0.0031 0.19468 0.0
C6681 C 0.52176 0.99675 0.17925 0.0
N6682 N 0.52518 0.97251 0.154 0.0
N6683 N 0.47657 0.00324 0.20823 0.0
C6684 C 0.51387 0.98515 0.16441 0.0
C6685 C 0.48895 0.00018 0.19292 0.0
N6686 N 0.48864 0.98731 0.14049 0.0
N6687 N 0.51753 0.01234 0.21037 0.0
H6688 H 0.46144 0.00205 0.20673 0.0
H6689 H 0.48137 0.00618 0.22236 0.0
H6690 H 0.53268 0.01346 0.21194 0.0
H6691 H 0.50932 0.01904 0.22129 0.0
H6692 H 0.49838 0.98398 0.12924 0.0
H6693 H 0.47492 0.99198 0.13582 0.0
H6694 H 0.51939 0.96365 0.14301 0.0
H6695 H 0.53961 0.96963 0.15804 0.0
C6696 C 0.49563 0.50671 0.33141 0.0
C6697 C 0.48258 0.50117 0.31641 0.0
C6698 C 0.51042 0.49118 0.29652 0.0
C6699 C 0.52276 0.49708 0.31206 0.0
N6700 N 0.52689 0.52163 0.33693 0.0
N6701 N 0.4776 0.49218 0.2827 0.0
C6702 C 0.51518 0.50932 0.32658 0.0
C6703 C 0.48996 0.49488 0.29808 0.0
N6704 N 0.48987 0.50809 0.35042 0.0
N6705 N 0.5183 0.48165 0.28092 0.0
H6706 H 0.46252 0.49408 0.28402 0.0
H6707 H 0.48241 0.48896 0.26863 0.0
H6708 H 0.53341 0.47996 0.27954 0.0
H6709 H 0.50998 0.47534 0.26986 0.0
H6710 H 0.49965 0.51136 0.36165 0.0
H6711 H 0.47626 0.5032 0.35514 0.0
H6712 H 0.52134 0.53087 0.34774 0.0
H6713 H 0.54148 0.52384 0.33303 0.0
C6714 C 0.50746 0.00326 0.80187 0.0
C6715 C 0.51532 0.99713 0.82005 0.0
C6716 C 0.48368 0.98661 0.83022 0.0
C6717 C 0.47487 0.99771 0.81543 0.0
N6718 N 0.47836 0.01518 0.78513 0.0
N6719 N 0.50839 0.99097 0.8543 0.0
C6720 C 0.48678 0.00559 0.80039 0.0
C6721 C 0.50265 0.99153 0.83525 0.0
N6722 N 0.51957 0.00686 0.78649 0.0
N6723 N 0.47384 0.97242 0.84011 0.0
H6724 H 0.52189 0.99618 0.85901 0.0
H6725 H 0.49869 0.98733 0.8655 0.0
H6726 H 0.46007 0.96765 0.83561 0.0
H6727 H 0.48054 0.96413 0.85104 0.0
H6728 H 0.51449 0.00989 0.77247 0.0
H6729 H 0.53475 0.006 0.78786 0.0
H6730 H 0.48636 0.02273 0.77462 0.0
H6731 H 0.46319 0.01568 0.78345 0.0
C6732 C 0.68287 0.97466 0.01729 0.0
C6733 C 0.68841 0.97246 -0.0022 0.0
C6734 C 0.69422 0.00734 0.99479 0.0
C6735 C 0.68264 0.0099 0.0118 0.0
N6736 N 0.66638 0.99549 0.0401 0.0
N6737 N 0.71012 0.98404 0.97298 0.0
C6738 C 0.67778 0.99351 0.02384 0.0
C6739 C 0.69792 0.98802 0.98822 0.0
N6740 N 0.68146 0.95853 0.02888 0.0
N6741 N 0.70069 0.02324 0.98462 0.0
H6742 H 0.71332 0.96964 0.96903 0.0
H6743 H 0.71822 0.99455 0.96558 0.0
H6744 H 0.69885 0.03748 0.98976 0.0
H6745 H 0.70757 0.0224 0.97109 0.0
H6746 H 0.67876 0.95919 0.04385 0.0
H6747 H 0.68509 0.94469 0.02354 0.0
H6748 H 0.66076 0.98366 0.04784 0.0
H6749 H 0.66107 0.00873 0.04515 0.0
C6750 C 0.74501 0.41006 0.26193 0.0
C6751 C 0.73273 0.42593 0.25693 0.0
C6752 C 0.76165 0.445 0.24873 0.0
C6753 C 0.77317 0.42888 0.25475 0.0
N6754 N 0.77519 0.40277 0.27821 0.0
N6755 N 0.72938 0.46005 0.24878 0.0
C6756 C 0.76451 0.41409 0.26582 0.0
C6757 C 0.74104 0.44412 0.25152 0.0
N6758 N 0.73859 0.39119 0.26214 0.0
N6759 N 0.77043 0.46044 0.23976 0.0
H6760 H 0.71418 0.45919 0.24979 0.0
H6761 H 0.73484 0.47402 0.24627 0.0
H6762 H 0.78563 0.46122 0.23853 0.0
H6763 H 0.76274 0.47189 0.23331 0.0
H6764 H 0.74799 0.37951 0.26498 0.0
H6765 H 0.7248 0.38702 0.25728 0.0
H6766 H 0.7688 0.39174 0.2866 0.0
H6767 H 0.78975 0.40608 0.28141 0.0
C6768 C 0.32891 0.47992 0.48116 0.0
C6769 C 0.31285 0.47268 0.49152 0.0
C6770 C 0.30395 0.5064 0.49929 0.0
C6771 C 0.32327 0.51184 0.49423 0.0
N6772 N 0.35617 0.50076 0.48739 0.0
N6773 N 0.28282 0.47922 0.50841 0.0
C6774 C 0.33652 0.49762 0.48747 0.0
C6775 C 0.29933 0.48609 0.4997 0.0
N6776 N 0.33793 0.4692 0.46703 0.0
N6777 N 0.29047 0.52034 0.50382 0.0
H6778 H 0.27932 0.46437 0.50801 0.0
H6779 H 0.2732 0.48805 0.51626 0.0
H6780 H 0.29414 0.53514 0.50445 0.0
H6781 H 0.27576 0.51722 0.50619 0.0
H6782 H 0.34992 0.47457 0.45926 0.0
H6783 H 0.33193 0.4561 0.46199 0.0
H6784 H 0.36606 0.48998 0.48304 0.0
H6785 H 0.36241 0.5131 0.49377 0.0
C6786 C 0.23424 0.05028 0.75168 0.0
C6787 C 0.22811 0.06821 0.74328 0.0
C6788 C 0.26095 0.07467 0.73331 0.0
C6789 C 0.2679 0.0614 0.74723 0.0
N6790 N 0.26153 0.03302 0.76686 0.0
N6791 N 0.23798 0.10074 0.73355 0.0
C6792 C 0.25462 0.04777 0.75544 0.0
C6793 C 0.24209 0.08144 0.73608 0.0
N6794 N 0.22088 0.03622 0.75619 0.0
N6795 N 0.27281 0.08248 0.71939 0.0
H6796 H 0.22516 0.10692 0.73898 0.0
H6797 H 0.24853 0.11072 0.72888 0.0
H6798 H 0.28695 0.07716 0.71713 0.0
H6799 H 0.26765 0.0926 0.7092 0.0
H6800 H 0.22478 0.02234 0.76108 0.0
H6801 H 0.20592 0.03838 0.75408 0.0
H6802 H 0.25252 0.02356 0.77466 0.0
H6803 H 0.27653 0.03068 0.76851 0.0
C6804 C 0.91795 0.26153 0.2618 0.0
C6805 C 0.93222 0.24954 0.27003 0.0
C6806 C 0.94481 0.24387 0.23708 0.0
C6807 C 0.92639 0.25009 0.22989 0.0
N6808 N 0.89265 0.25702 0.23832 0.0
N6809 N 0.96244 0.23221 0.26578 0.0
C6810 C 0.91196 0.25658 0.24309 0.0
C6811 C 0.94706 0.2419 0.2577 0.0
N6812 N 0.9083 0.27518 0.27258 0.0
N6813 N 0.9596 0.23967 0.22442 0.0
H6814 H 0.96417 0.2315 0.28093 0.0
H6815 H 0.97285 0.22471 0.2576 0.0
H6816 H 0.95761 0.24018 0.20931 0.0
H6817 H 0.97376 0.23639 0.22897 0.0
H6818 H 0.89736 0.28394 0.26652 0.0
H6819 H 0.91274 0.27856 0.28679 0.0
H6820 H 0.88195 0.26105 0.24843 0.0
H6821 H 0.88736 0.25139 0.2252 0.0
C6822 C 0.69665 0.51161 0.49954 0.0
C6823 C 0.68294 0.52468 0.49113 0.0
C6824 C 0.66175 0.49895 0.4826 0.0
C6825 C 0.67427 0.48513 0.49149 0.0
N6826 N 0.70625 0.47761 0.50433 0.0
N6827 N 0.66139 0.52868 0.46383 0.0
C6828 C 0.69286 0.49113 0.49845 0.0
C6829 C 0.66943 0.51718 0.4779 0.0
N6830 N 0.71203 0.51903 0.50974 0.0
N6831 N 0.64224 0.49562 0.48072 0.0
H6832 H 0.66665 0.54278 0.46129 0.0
H6833 H 0.65089 0.52337 0.45412 0.0
H6834 H 0.63551 0.48381 0.48758 0.0
H6835 H 0.63271 0.50607 0.475 0.0
H6836 H 0.72164 0.5105 0.51789 0.0
H6837 H 0.71453 0.53409 0.51019 0.0
H6838 H 0.72048 0.4812 0.50834 0.0
H6839 H 0.70316 0.46267 0.50434 0.0
C6840 C 0.74207 0.9073 0.75727 0.0
C6841 C 0.72893 0.92208 0.75138 0.0
C6842 C 0.75669 0.94331 0.7444 0.0
C6843 C 0.76911 0.92819 0.75116 0.0
N6844 N 0.77196 0.90256 0.77504 0.0
N6845 N 0.72339 0.95577 0.74272 0.0
C6846 C 0.76107 0.91281 0.76192 0.0
C6847 C 0.7361 0.9408 0.7461 0.0
N6848 N 0.73669 0.88814 0.7582 0.0
N6849 N 0.76468 0.95943 0.7359 0.0
H6850 H 0.70827 0.95372 0.74298 0.0
H6851 H 0.72786 0.97013 0.74038 0.0
H6852 H 0.77982 0.96147 0.73558 0.0
H6853 H 0.75648 0.97022 0.72897 0.0
H6854 H 0.74661 0.87712 0.76181 0.0
H6855 H 0.72322 0.88315 0.75319 0.0
H6856 H 0.76606 0.89122 0.78336 0.0
H6857 H 0.78607 0.90702 0.77879 0.0
C6858 C 0.32779 0.98284 0.98189 0.0
C6859 C 0.31275 0.97548 0.9935 0.0
C6860 C 0.30242 0.00923 -0.00075 0.0
C6861 C 0.32153 0.0151 0.99375 0.0
N6862 N 0.35465 0.00415 0.98792 0.0
N6863 N 0.28242 0.98172 0.00998 0.0
C6864 C 0.33504 0.00093 0.9874 0.0
C6865 C 0.29861 0.98877 0.00085 0.0
N6866 N 0.33703 0.97155 0.96839 0.0
N6867 N 0.28847 0.02289 0.00316 0.0
H6868 H 0.27962 0.96671 0.01046 0.0
H6869 H 0.27238 0.99056 0.01724 0.0
H6870 H 0.29158 0.03783 0.00287 0.0
H6871 H 0.27393 0.01935 0.00593 0.0
H6872 H 0.34863 0.97692 0.96004 0.0
H6873 H 0.33175 0.95769 0.96477 0.0
H6874 H 0.3647 0.99337 0.98396 0.0
H6875 H 0.36056 0.01663 0.99437 0.0
C6876 C 0.24316 0.58787 0.24382 0.0
C6877 C 0.23161 0.57118 0.24759 0.0
C6878 C 0.26152 0.55227 0.25236 0.0
C6879 C 0.27238 0.56899 0.24668 0.0
N6880 N 0.27181 0.59768 0.22622 0.0
N6881 N 0.22965 0.53646 0.25297 0.0
C6882 C 0.26258 0.58499 0.23847 0.0
C6883 C 0.24075 0.55289 0.25102 0.0
N6884 N 0.2359 0.60639 0.24528 0.0
N6885 N 0.27111 0.5362 0.25919 0.0
H6886 H 0.2144 0.53702 0.25305 0.0
H6887 H 0.23555 0.52245 0.2538 0.0
H6888 H 0.28635 0.53534 0.25895 0.0
H6889 H 0.26404 0.52421 0.26534 0.0
H6890 H 0.24467 0.61868 0.24314 0.0
H6891 H 0.22214 0.60951 0.25094 0.0
H6892 H 0.2645 0.60934 0.21963 0.0
H6893 H 0.2858 0.59485 0.22085 0.0
C6894 C 0.94781 0.74089 0.75734 0.0
C6895 C 0.93493 0.74969 0.77102 0.0
C6896 C 0.91244 0.75786 0.74617 0.0
C6897 C 0.92479 0.75002 0.73171 0.0
N6898 N 0.95645 0.73728 0.72295 0.0
N6899 N 0.9132 0.77695 0.77558 0.0
C6900 C 0.94343 0.74265 0.73703 0.0
C6901 C 0.92069 0.76256 0.76408 0.0
N6902 N 0.9634 0.73043 0.76393 0.0
N6903 N 0.8929 0.76004 0.74318 0.0
H6904 H 0.91928 0.78007 0.78923 0.0
H6905 H 0.90235 0.78644 0.77057 0.0
H6906 H 0.88603 0.75445 0.73077 0.0
H6907 H 0.88355 0.76518 0.75409 0.0
H6908 H 0.97238 0.72214 0.75485 0.0
H6909 H 0.96679 0.72996 0.77881 0.0
H6910 H 0.97078 0.73313 0.72601 0.0
H6911 H 0.95286 0.73772 0.70813 0.0
loop_
_geom_bond_atom_site_label_1
_geom_bond_atom_site_label_2
_geom_bond_distance
_geom_bond_site_symmetry_2
_ccdc_geom_bond_type
Mn0 O5 2.095 . S
Mn0 O15 2.162 . S
Mn0 O16 2.297 . S
Mn0 O24 2.385 . S
Mn0 O25 2.209 . S
Mn0 O26 2.094 . S
Mn1 O6 2.121 . S
Mn1 N8 2.257 . S
Mn1 N17 2.282 . S
Mn1 O25 2.215 . S
Mn1 O27 2.117 . S
C2 O24 1.234 . S
C2 O25 1.283 . S
C3 O15 1.281 . S
C3 O16 1.236 . S
C4 O26 1.240 . S
C4 O27 1.264 . S
O5 Mn0 2.095 . S
O5 C14 1.250 . S
O6 Mn1 2.121 . S
O6 C14 1.258 . S
C7 N8 1.326 . S
C7 C11 1.460 . S
C7 H13 0.929 . S
N8 Mn1 2.257 . S
N8 C7 1.326 . S
N8 C12 1.362 . S
C9 C10 1.258 . S
C9 C12 1.431 . S
C9 C29 1.449 . S
C10 C9 1.258 . S
C10 C11 1.477 . S
C10 H30 0.931 . S
C11 C7 1.460 . S
C11 C10 1.477 . S
C11 H31 0.930 . S
C12 N8 1.362 . S
C12 C9 1.431 . S
C12 C22 1.476 . S
H13 C7 0.929 . S
C14 O5 1.250 . S
C14 O6 1.258 . S
O15 Mn0 2.162 . S
O15 C3 1.281 . S
O16 Mn0 2.297 . S
O16 C3 1.236 . S
N17 Mn1 2.282 . S
N17 C18 1.328 . S
N17 C22 1.318 . S
C18 N17 1.328 . S
C18 C19 1.457 . S
C18 H23 0.929 . S
C19 C18 1.457 . S
C19 C20 1.291 . S
C19 H32 0.931 . S
C20 C19 1.291 . S
C20 C21 1.373 . S
C20 H33 0.929 . S
C21 C20 1.373 . S
C21 C22 1.396 . S
C21 C28 1.403 . S
C22 C12 1.476 . S
C22 N17 1.318 . S
C22 C21 1.396 . S
H23 C18 0.929 . S
O24 Mn0 2.385 . S
O24 C2 1.234 . S
O25 Mn0 2.209 . S
O25 Mn1 2.215 . S
O25 C2 1.283 . S
O26 Mn0 2.094 . S
O26 C4 1.240 . S
O27 Mn1 2.117 . S
O27 C4 1.264 . S
C28 C21 1.403 . S
C28 C29 1.399 . S
C28 H34 0.929 . S
C29 C9 1.449 . S
C29 C28 1.399 . S
C29 H35 0.930 . S
H30 C10 0.931 . S
H31 C11 0.930 . S
H32 C19 0.931 . S
H33 C20 0.929 . S
H34 C28 0.929 . S
H35 C29 0.930 . S
Mn36 O41 2.095 . S
Mn36 O51 2.162 . S
Mn36 O52 2.297 . S
Mn36 O60 2.385 . S
Mn36 O61 2.209 . S
Mn36 O62 2.094 . S
Mn37 O42 2.121 . S
Mn37 N44 2.257 . S
Mn37 N53 2.282 . S
Mn37 O61 2.215 . S
Mn37 O63 2.117 . S
C38 O60 1.234 . S
C38 O61 1.283 . S
C39 O51 1.281 . S
C39 O52 1.236 . S
C40 O62 1.240 . S
C40 O63 1.264 . S
O41 Mn36 2.095 . S
O41 C50 1.250 . S
O42 Mn37 2.121 . S
O42 C50 1.258 . S
C43 N44 1.326 . S
C43 C47 1.460 . S
C43 H49 0.929 . S
N44 Mn37 2.257 . S
N44 C43 1.326 . S
N44 C48 1.362 . S
C45 C46 1.258 . S
C45 C48 1.431 . S
C45 C65 1.449 . S
C46 C45 1.258 . S
C46 C47 1.477 . S
C46 H66 0.931 . S
C47 C43 1.460 . S
C47 C46 1.477 . S
C47 H67 0.930 . S
C48 N44 1.362 . S
C48 C45 1.431 . S
C48 C58 1.476 . S
H49 C43 0.929 . S
C50 O41 1.250 . S
C50 O42 1.258 . S
O51 Mn36 2.162 . S
O51 C39 1.281 . S
O52 Mn36 2.297 . S
O52 C39 1.236 . S
N53 Mn37 2.282 . S
N53 C54 1.328 . S
N53 C58 1.318 . S
C54 N53 1.328 . S
C54 C55 1.457 . S
C54 H59 0.929 . S
C55 C54 1.457 . S
C55 C56 1.291 . S
C55 H68 0.931 . S
C56 C55 1.291 . S
C56 C57 1.373 . S
C56 H69 0.929 . S
C57 C56 1.373 . S
C57 C58 1.396 . S
C57 C64 1.403 . S
C58 C48 1.476 . S
C58 N53 1.318 . S
C58 C57 1.396 . S
H59 C54 0.929 . S
O60 Mn36 2.385 . S
O60 C38 1.234 . S
O61 Mn36 2.209 . S
O61 Mn37 2.215 . S
O61 C38 1.283 . S
O62 Mn36 2.094 . S
O62 C40 1.240 . S
O63 Mn37 2.117 . S
O63 C40 1.264 . S
C64 C57 1.403 . S
C64 C65 1.399 . S
C64 H70 0.929 . S
C65 C45 1.449 . S
C65 C64 1.399 . S
C65 H71 0.930 . S
H66 C46 0.931 . S
H67 C47 0.930 . S
H68 C55 0.931 . S
H69 C56 0.929 . S
H70 C64 0.929 . S
H71 C65 0.930 . S
Mn72 O77 2.095 . S
Mn72 O87 2.162 1_565 S
Mn72 O88 2.297 . S
Mn72 O96 2.385 . S
Mn72 O97 2.209 . S
Mn72 O98 2.094 . S
Mn73 O78 2.121 . S
Mn73 N80 2.257 . S
Mn73 N89 2.282 . S
Mn73 O97 2.215 . S
Mn73 O99 2.117 . S
C74 O96 1.234 . S
C74 O97 1.283 . S
C75 O87 1.277 1_565 S
C75 O88 1.244 . S
C76 O98 1.240 . S
C76 O99 1.264 . S
O77 Mn72 2.095 . S
O77 C86 1.250 . S
O78 Mn73 2.121 . S
O78 C86 1.258 . S
C79 N80 1.326 . S
C79 C83 1.460 . S
C79 H85 0.929 . S
N80 Mn73 2.257 . S
N80 C79 1.326 . S
N80 C84 1.362 . S
C81 C82 1.258 . S
C81 C84 1.431 . S
C81 C101 1.449 . S
C82 C81 1.258 . S
C82 C83 1.477 . S
C82 H102 0.931 . S
C83 C79 1.460 . S
C83 C82 1.477 . S
C83 H103 0.930 . S
C84 N80 1.362 . S
C84 C81 1.431 . S
C84 C94 1.476 . S
H85 C79 0.929 . S
C86 O77 1.250 . S
C86 O78 1.258 . S
O87 Mn72 2.162 1_545 S
O87 C75 1.277 1_545 S
O88 Mn72 2.297 . S
O88 C75 1.244 . S
N89 Mn73 2.282 . S
N89 C90 1.328 . S
N89 C94 1.318 . S
C90 N89 1.328 . S
C90 C91 1.457 . S
C90 H95 0.929 . S
C91 C90 1.457 . S
C91 C92 1.291 . S
C91 H104 0.931 . S
C92 C91 1.291 . S
C92 C93 1.373 . S
C92 H105 0.929 . S
C93 C92 1.373 . S
C93 C94 1.396 . S
C93 C100 1.403 . S
C94 C84 1.476 . S
C94 N89 1.318 . S
C94 C93 1.396 . S
H95 C90 0.929 . S
O96 Mn72 2.385 . S
O96 C74 1.234 . S
O97 Mn72 2.209 . S
O97 Mn73 2.215 . S
O97 C74 1.283 . S
O98 Mn72 2.094 . S
O98 C76 1.240 . S
O99 Mn73 2.117 . S
O99 C76 1.264 . S
C100 C93 1.403 . S
C100 C101 1.399 . S
C100 H106 0.929 . S
C101 C81 1.449 . S
C101 C100 1.399 . S
C101 H107 0.930 . S
H102 C82 0.931 . S
H103 C83 0.930 . S
H104 C91 0.931 . S
H105 C92 0.929 . S
H106 C100 0.929 . S
H107 C101 0.930 . S
Mn108 O113 2.095 . S
Mn108 O123 2.162 . S
Mn108 O124 2.297 . S
Mn108 O132 2.385 . S
Mn108 O133 2.209 . S
Mn108 O134 2.094 . S
Mn109 O114 2.121 . S
Mn109 N116 2.257 . S
Mn109 N125 2.282 . S
Mn109 O133 2.215 . S
Mn109 O135 2.117 . S
C110 O132 1.234 . S
C110 O133 1.283 . S
C111 O123 1.281 . S
C111 O124 1.236 . S
C112 O134 1.240 . S
C112 O135 1.264 . S
O113 Mn108 2.095 . S
O113 C122 1.250 . S
O114 Mn109 2.121 . S
O114 C122 1.258 . S
C115 N116 1.326 . S
C115 C119 1.460 . S
C115 H121 0.929 . S
N116 Mn109 2.257 . S
N116 C115 1.326 . S
N116 C120 1.362 . S
C117 C118 1.258 . S
C117 C120 1.431 . S
C117 C137 1.449 . S
C118 C117 1.258 . S
C118 C119 1.477 . S
C118 H138 0.931 . S
C119 C115 1.460 . S
C119 C118 1.477 . S
C119 H139 0.930 . S
C120 N116 1.362 . S
C120 C117 1.431 . S
C120 C130 1.476 . S
H121 C115 0.929 . S
C122 O113 1.250 . S
C122 O114 1.258 . S
O123 Mn108 2.162 . S
O123 C111 1.281 . S
O124 Mn108 2.297 . S
O124 C111 1.236 . S
N125 Mn109 2.282 . S
N125 C126 1.328 . S
N125 C130 1.318 . S
C126 N125 1.328 . S
C126 C127 1.457 . S
C126 H131 0.929 . S
C127 C126 1.457 . S
C127 C128 1.291 . S
C127 H140 0.931 . S
C128 C127 1.291 . S
C128 C129 1.373 . S
C128 H141 0.929 . S
C129 C128 1.373 . S
C129 C130 1.396 . S
C129 C136 1.403 . S
C130 C120 1.476 . S
C130 N125 1.318 . S
C130 C129 1.396 . S
H131 C126 0.929 . S
O132 Mn108 2.385 . S
O132 C110 1.234 . S
O133 Mn108 2.209 . S
O133 Mn109 2.215 . S
O133 C110 1.283 . S
O134 Mn108 2.094 . S
O134 C112 1.240 . S
O135 Mn109 2.117 . S
O135 C112 1.264 . S
C136 C129 1.403 . S
C136 C137 1.399 . S
C136 H142 0.929 . S
C137 C117 1.449 . S
C137 C136 1.399 . S
C137 H143 0.930 . S
H138 C118 0.931 . S
H139 C119 0.930 . S
H140 C127 0.931 . S
H141 C128 0.929 . S
H142 C136 0.929 . S
H143 C137 0.930 . S
Mn144 O149 2.095 . S
Mn144 O159 2.162 . S
Mn144 O160 2.297 . S
Mn144 O168 2.385 . S
Mn144 O169 2.209 . S
Mn144 O170 2.094 . S
Mn145 O150 2.121 . S
Mn145 N152 2.257 . S
Mn145 N161 2.282 . S
Mn145 O169 2.215 . S
Mn145 O171 2.117 . S
C146 O168 1.234 . S
C146 O169 1.283 . S
C147 O159 1.281 . S
C147 O160 1.236 . S
C148 O170 1.240 . S
C148 O171 1.264 . S
O149 Mn144 2.095 . S
O149 C158 1.250 . S
O150 Mn145 2.121 . S
O150 C158 1.258 . S
C151 N152 1.326 . S
C151 C155 1.460 . S
C151 H157 0.929 . S
N152 Mn145 2.257 . S
N152 C151 1.326 . S
N152 C156 1.362 . S
C153 C154 1.258 . S
C153 C156 1.431 . S
C153 C173 1.449 . S
C154 C153 1.258 . S
C154 C155 1.477 . S
C154 H174 0.931 . S
C155 C151 1.460 . S
C155 C154 1.477 . S
C155 H175 0.930 . S
C156 N152 1.362 . S
C156 C153 1.431 . S
C156 C166 1.476 . S
H157 C151 0.929 . S
C158 O149 1.250 . S
C158 O150 1.258 . S
O159 Mn144 2.162 . S
O159 C147 1.281 . S
O160 Mn144 2.297 . S
O160 C147 1.236 . S
N161 Mn145 2.282 . S
N161 C162 1.328 . S
N161 C166 1.318 . S
C162 N161 1.328 . S
C162 C163 1.457 . S
C162 H167 0.929 . S
C163 C162 1.457 . S
C163 C164 1.291 . S
C163 H176 0.931 . S
C164 C163 1.291 . S
C164 C165 1.373 . S
C164 H177 0.929 . S
C165 C164 1.373 . S
C165 C166 1.396 . S
C165 C172 1.403 . S
C166 C156 1.476 . S
C166 N161 1.318 . S
C166 C165 1.396 . S
H167 C162 0.929 . S
O168 Mn144 2.385 . S
O168 C146 1.234 . S
O169 Mn144 2.209 . S
O169 Mn145 2.215 . S
O169 C146 1.283 . S
O170 Mn144 2.094 . S
O170 C148 1.240 . S
O171 Mn145 2.117 . S
O171 C148 1.264 . S
C172 C165 1.403 . S
C172 C173 1.399 . S
C172 H178 0.929 . S
C173 C153 1.449 . S
C173 C172 1.399 . S
C173 H179 0.930 . S
H174 C154 0.931 . S
H175 C155 0.930 . S
H176 C163 0.931 . S
H177 C164 0.929 . S
H178 C172 0.929 . S
H179 C173 0.930 . S
Mn180 O185 2.095 . S
Mn180 O195 2.162 . S
Mn180 O196 2.297 . S
Mn180 O204 2.385 . S
Mn180 O205 2.209 . S
Mn180 O206 2.094 . S
Mn181 O186 2.121 . S
Mn181 N188 2.257 . S
Mn181 N197 2.282 . S
Mn181 O205 2.215 . S
Mn181 O207 2.117 . S
C182 O204 1.234 . S
C182 O205 1.283 . S
C183 O195 1.281 . S
C183 O196 1.236 . S
C184 O206 1.240 . S
C184 O207 1.264 . S
O185 Mn180 2.095 . S
O185 C194 1.250 . S
O186 Mn181 2.121 . S
O186 C194 1.258 . S
C187 N188 1.326 . S
C187 C191 1.460 . S
C187 H193 0.929 . S
N188 Mn181 2.257 . S
N188 C187 1.326 . S
N188 C192 1.362 . S
C189 C190 1.258 . S
C189 C192 1.431 . S
C189 C209 1.449 . S
C190 C189 1.258 . S
C190 C191 1.477 . S
C190 H210 0.931 . S
C191 C187 1.460 . S
C191 C190 1.477 . S
C191 H211 0.930 . S
C192 N188 1.362 . S
C192 C189 1.431 . S
C192 C202 1.476 . S
H193 C187 0.929 . S
C194 O185 1.250 . S
C194 O186 1.258 . S
O195 Mn180 2.162 . S
O195 C183 1.281 . S
O196 Mn180 2.297 . S
O196 C183 1.236 . S
N197 Mn181 2.282 . S
N197 C198 1.328 . S
N197 C202 1.318 . S
C198 N197 1.328 . S
C198 C199 1.457 . S
C198 H203 0.929 . S
C199 C198 1.457 . S
C199 C200 1.291 . S
C199 H212 0.931 . S
C200 C199 1.291 . S
C200 C201 1.373 . S
C200 H213 0.929 . S
C201 C200 1.373 . S
C201 C202 1.396 . S
C201 C208 1.403 . S
C202 C192 1.476 . S
C202 N197 1.318 . S
C202 C201 1.396 . S
H203 C198 0.929 . S
O204 Mn180 2.385 . S
O204 C182 1.234 . S
O205 Mn180 2.209 . S
O205 Mn181 2.215 . S
O205 C182 1.283 . S
O206 Mn180 2.094 . S
O206 C184 1.240 . S
O207 Mn181 2.117 . S
O207 C184 1.264 . S
C208 C201 1.403 . S
C208 C209 1.399 . S
C208 H214 0.929 . S
C209 C189 1.449 . S
C209 C208 1.399 . S
C209 H215 0.930 . S
H210 C190 0.931 . S
H211 C191 0.930 . S
H212 C199 0.931 . S
H213 C200 0.929 . S
H214 C208 0.929 . S
H215 C209 0.930 . S
Mn216 O221 2.095 . S
Mn216 O231 2.162 1_545 S
Mn216 O232 2.297 . S
Mn216 O240 2.385 . S
Mn216 O241 2.209 . S
Mn216 O242 2.094 . S
Mn217 O222 2.121 . S
Mn217 N224 2.257 . S
Mn217 N233 2.282 . S
Mn217 O241 2.215 . S
Mn217 O243 2.117 . S
C218 O240 1.234 . S
C218 O241 1.283 . S
C219 O231 1.277 1_545 S
C219 O232 1.244 . S
C220 O242 1.240 . S
C220 O243 1.264 . S
O221 Mn216 2.095 . S
O221 C230 1.250 . S
O222 Mn217 2.121 . S
O222 C230 1.258 . S
C223 N224 1.326 . S
C223 C227 1.460 . S
C223 H229 0.929 . S
N224 Mn217 2.257 . S
N224 C223 1.326 . S
N224 C228 1.362 . S
C225 C226 1.258 . S
C225 C228 1.431 . S
C225 C245 1.449 . S
C226 C225 1.258 . S
C226 C227 1.477 . S
C226 H246 0.931 . S
C227 C223 1.460 . S
C227 C226 1.477 . S
C227 H247 0.930 . S
C228 N224 1.362 . S
C228 C225 1.431 . S
C228 C238 1.476 . S
H229 C223 0.929 . S
C230 O221 1.250 . S
C230 O222 1.258 . S
O231 Mn216 2.162 1_565 S
O231 C219 1.277 1_565 S
O232 Mn216 2.297 . S
O232 C219 1.244 . S
N233 Mn217 2.282 . S
N233 C234 1.328 . S
N233 C238 1.318 . S
C234 N233 1.328 . S
C234 C235 1.457 . S
C234 H239 0.929 . S
C235 C234 1.457 . S
C235 C236 1.291 . S
C235 H248 0.931 . S
C236 C235 1.291 . S
C236 C237 1.373 . S
C236 H249 0.929 . S
C237 C236 1.373 . S
C237 C238 1.396 . S
C237 C244 1.403 . S
C238 C228 1.476 . S
C238 N233 1.318 . S
C238 C237 1.396 . S
H239 C234 0.929 . S
O240 Mn216 2.385 . S
O240 C218 1.234 . S
O241 Mn216 2.209 . S
O241 Mn217 2.215 . S
O241 C218 1.283 . S
O242 Mn216 2.094 . S
O242 C220 1.240 . S
O243 Mn217 2.117 . S
O243 C220 1.264 . S
C244 C237 1.403 . S
C244 C245 1.399 . S
C244 H250 0.929 . S
C245 C225 1.449 . S
C245 C244 1.399 . S
C245 H251 0.930 . S
H246 C226 0.931 . S
H247 C227 0.930 . S
H248 C235 0.931 . S
H249 C236 0.929 . S
H250 C244 0.929 . S
H251 C245 0.930 . S
Mn252 O257 2.095 . S
Mn252 O267 2.162 . S
Mn252 O268 2.297 . S
Mn252 O276 2.385 . S
Mn252 O277 2.209 . S
Mn252 O278 2.094 . S
Mn253 O258 2.121 . S
Mn253 N260 2.257 . S
Mn253 N269 2.282 . S
Mn253 O277 2.215 . S
Mn253 O279 2.117 . S
C254 O276 1.234 . S
C254 O277 1.283 . S
C255 O267 1.281 . S
C255 O268 1.236 . S
C256 O278 1.240 . S
C256 O279 1.264 . S
O257 Mn252 2.095 . S
O257 C266 1.250 . S
O258 Mn253 2.121 . S
O258 C266 1.258 . S
C259 N260 1.326 . S
C259 C263 1.460 . S
C259 H265 0.929 . S
N260 Mn253 2.257 . S
N260 C259 1.326 . S
N260 C264 1.362 . S
C261 C262 1.258 . S
C261 C264 1.431 . S
C261 C281 1.449 . S
C262 C261 1.258 . S
C262 C263 1.477 . S
C262 H282 0.931 . S
C263 C259 1.460 . S
C263 C262 1.477 . S
C263 H283 0.930 . S
C264 N260 1.362 . S
C264 C261 1.431 . S
C264 C274 1.476 . S
H265 C259 0.929 . S
C266 O257 1.250 . S
C266 O258 1.258 . S
O267 Mn252 2.162 . S
O267 C255 1.281 . S
O268 Mn252 2.297 . S
O268 C255 1.236 . S
N269 Mn253 2.282 . S
N269 C270 1.328 . S
N269 C274 1.318 . S
C270 N269 1.328 . S
C270 C271 1.457 . S
C270 H275 0.929 . S
C271 C270 1.457 . S
C271 C272 1.291 . S
C271 H284 0.931 . S
C272 C271 1.291 . S
C272 C273 1.373 . S
C272 H285 0.929 . S
C273 C272 1.373 . S
C273 C274 1.396 . S
C273 C280 1.403 . S
C274 C264 1.476 . S
C274 N269 1.318 . S
C274 C273 1.396 . S
H275 C270 0.929 . S
O276 Mn252 2.385 . S
O276 C254 1.234 . S
O277 Mn252 2.209 . S
O277 Mn253 2.215 . S
O277 C254 1.283 . S
O278 Mn252 2.094 . S
O278 C256 1.240 . S
O279 Mn253 2.117 . S
O279 C256 1.264 . S
C280 C273 1.403 . S
C280 C281 1.399 . S
C280 H286 0.929 . S
C281 C261 1.449 . S
C281 C280 1.399 . S
C281 H287 0.930 . S
H282 C262 0.931 . S
H283 C263 0.930 . S
H284 C271 0.931 . S
H285 C272 0.929 . S
H286 C280 0.929 . S
H287 C281 0.930 . S
Mn288 O293 2.095 . S
Mn288 O303 2.162 . S
Mn288 O304 2.297 . S
Mn288 O312 2.385 . S
Mn288 O313 2.209 . S
Mn288 O314 2.094 . S
Mn289 O294 2.121 . S
Mn289 N296 2.257 . S
Mn289 N305 2.282 . S
Mn289 O313 2.215 . S
Mn289 O315 2.117 . S
C290 O312 1.234 . S
C290 O313 1.283 . S
C291 O303 1.281 . S
C291 O304 1.236 . S
C292 O314 1.240 . S
C292 O315 1.264 . S
O293 Mn288 2.095 . S
O293 C302 1.250 . S
O294 Mn289 2.121 . S
O294 C302 1.258 . S
C295 N296 1.326 . S
C295 C299 1.460 . S
C295 H301 0.929 . S
N296 Mn289 2.257 . S
N296 C295 1.326 . S
N296 C300 1.362 . S
C297 C298 1.258 . S
C297 C300 1.431 . S
C297 C317 1.449 . S
C298 C297 1.258 . S
C298 C299 1.477 . S
C298 H318 0.931 . S
C299 C295 1.460 . S
C299 C298 1.477 . S
C299 H319 0.930 . S
C300 N296 1.362 . S
C300 C297 1.431 . S
C300 C310 1.476 . S
H301 C295 0.929 . S
C302 O293 1.250 . S
C302 O294 1.258 . S
O303 Mn288 2.162 . S
O303 C291 1.281 . S
O304 Mn288 2.297 . S
O304 C291 1.236 . S
N305 Mn289 2.282 . S
N305 C306 1.328 . S
N305 C310 1.318 . S
C306 N305 1.328 . S
C306 C307 1.457 . S
C306 H311 0.929 . S
C307 C306 1.457 . S
C307 C308 1.291 . S
C307 H320 0.931 . S
C308 C307 1.291 . S
C308 C309 1.373 . S
C308 H321 0.929 . S
C309 C308 1.373 . S
C309 C310 1.396 . S
C309 C316 1.403 . S
C310 C300 1.476 . S
C310 N305 1.318 . S
C310 C309 1.396 . S
H311 C306 0.929 . S
O312 Mn288 2.385 . S
O312 C290 1.234 . S
O313 Mn288 2.209 . S
O313 Mn289 2.215 . S
O313 C290 1.283 . S
O314 Mn288 2.094 . S
O314 C292 1.240 . S
O315 Mn289 2.117 . S
O315 C292 1.264 . S
C316 C309 1.403 . S
C316 C317 1.399 . S
C316 H322 0.929 . S
C317 C297 1.449 . S
C317 C316 1.399 . S
C317 H323 0.930 . S
H318 C298 0.931 . S
H319 C299 0.930 . S
H320 C307 0.931 . S
H321 C308 0.929 . S
H322 C316 0.929 . S
H323 C317 0.930 . S
Mn324 O329 2.095 . S
Mn324 O339 2.162 . S
Mn324 O340 2.297 . S
Mn324 O348 2.385 . S
Mn324 O349 2.209 . S
Mn324 O350 2.094 . S
Mn325 O330 2.121 . S
Mn325 N332 2.257 . S
Mn325 N341 2.282 . S
Mn325 O349 2.215 . S
Mn325 O351 2.117 . S
C326 O348 1.234 . S
C326 O349 1.283 . S
C327 O339 1.281 . S
C327 O340 1.236 . S
C328 O350 1.240 . S
C328 O351 1.264 . S
O329 Mn324 2.095 . S
O329 C338 1.250 . S
O330 Mn325 2.121 . S
O330 C338 1.258 . S
C331 N332 1.326 . S
C331 C335 1.460 . S
C331 H337 0.929 . S
N332 Mn325 2.257 . S
N332 C331 1.326 . S
N332 C336 1.362 . S
C333 C334 1.258 . S
C333 C336 1.431 . S
C333 C353 1.449 . S
C334 C333 1.258 . S
C334 C335 1.477 . S
C334 H354 0.931 . S
C335 C331 1.460 . S
C335 C334 1.477 . S
C335 H355 0.930 . S
C336 N332 1.362 . S
C336 C333 1.431 . S
C336 C346 1.476 . S
H337 C331 0.929 . S
C338 O329 1.250 . S
C338 O330 1.258 . S
O339 Mn324 2.162 . S
O339 C327 1.281 . S
O340 Mn324 2.297 . S
O340 C327 1.236 . S
N341 Mn325 2.282 . S
N341 C342 1.328 . S
N341 C346 1.318 . S
C342 N341 1.328 . S
C342 C343 1.457 . S
C342 H347 0.929 . S
C343 C342 1.457 . S
C343 C344 1.291 . S
C343 H356 0.931 . S
C344 C343 1.291 . S
C344 C345 1.373 . S
C344 H357 0.929 . S
C345 C344 1.373 . S
C345 C346 1.396 . S
C345 C352 1.403 . S
C346 C336 1.476 . S
C346 N341 1.318 . S
C346 C345 1.396 . S
H347 C342 0.929 . S
O348 Mn324 2.385 . S
O348 C326 1.234 . S
O349 Mn324 2.209 . S
O349 Mn325 2.215 . S
O349 C326 1.283 . S
O350 Mn324 2.094 . S
O350 C328 1.240 . S
O351 Mn325 2.117 . S
O351 C328 1.264 . S
C352 C345 1.403 . S
C352 C353 1.399 . S
C352 H358 0.929 . S
C353 C333 1.449 . S
C353 C352 1.399 . S
C353 H359 0.930 . S
H354 C334 0.931 . S
H355 C335 0.930 . S
H356 C343 0.931 . S
H357 C344 0.929 . S
H358 C352 0.929 . S
H359 C353 0.930 . S
Mn360 O365 2.095 . S
Mn360 O375 2.162 1_554 S
Mn360 O376 2.297 . S
Mn360 O384 2.385 . S
Mn360 O385 2.209 . S
Mn360 O386 2.094 . S
Mn361 O366 2.121 . S
Mn361 N368 2.257 . S
Mn361 N377 2.282 . S
Mn361 O385 2.215 . S
Mn361 O387 2.117 . S
C362 O384 1.234 . S
C362 O385 1.283 . S
C363 O375 1.277 1_554 S
C363 O376 1.244 . S
C364 O386 1.240 . S
C364 O387 1.264 . S
O365 Mn360 2.095 . S
O365 C374 1.250 . S
O366 Mn361 2.121 . S
O366 C374 1.258 . S
C367 N368 1.326 . S
C367 C371 1.460 . S
C367 H373 0.929 . S
N368 Mn361 2.257 . S
N368 C367 1.326 . S
N368 C372 1.362 . S
C369 C370 1.258 . S
C369 C372 1.431 . S
C369 C389 1.449 . S
C370 C369 1.258 . S
C370 C371 1.477 . S
C370 H390 0.931 . S
C371 C367 1.460 . S
C371 C370 1.477 . S
C371 H391 0.930 . S
C372 N368 1.362 . S
C372 C369 1.431 . S
C372 C382 1.476 . S
H373 C367 0.929 . S
C374 O365 1.250 . S
C374 O366 1.258 . S
O375 Mn360 2.162 1_556 S
O375 C363 1.277 1_556 S
O376 Mn360 2.297 . S
O376 C363 1.244 . S
N377 Mn361 2.282 . S
N377 C378 1.328 . S
N377 C382 1.318 . S
C378 N377 1.328 . S
C378 C379 1.457 . S
C378 H383 0.929 . S
C379 C378 1.457 . S
C379 C380 1.291 . S
C379 H392 0.931 . S
C380 C379 1.291 . S
C380 C381 1.373 . S
C380 H393 0.929 . S
C381 C380 1.373 . S
C381 C382 1.396 . S
C381 C388 1.403 . S
C382 C372 1.476 . S
C382 N377 1.318 . S
C382 C381 1.396 . S
H383 C378 0.929 . S
O384 Mn360 2.385 . S
O384 C362 1.234 . S
O385 Mn360 2.209 . S
O385 Mn361 2.215 . S
O385 C362 1.283 . S
O386 Mn360 2.094 . S
O386 C364 1.240 . S
O387 Mn361 2.117 . S
O387 C364 1.264 . S
C388 C381 1.403 . S
C388 C389 1.399 . S
C388 H394 0.929 . S
C389 C369 1.449 . S
C389 C388 1.399 . S
C389 H395 0.930 . S
H390 C370 0.931 . S
H391 C371 0.930 . S
H392 C379 0.931 . S
H393 C380 0.929 . S
H394 C388 0.929 . S
H395 C389 0.930 . S
Mn396 O401 2.095 . S
Mn396 O411 2.162 . S
Mn396 O412 2.297 . S
Mn396 O420 2.385 . S
Mn396 O421 2.209 . S
Mn396 O422 2.094 . S
Mn397 O402 2.121 . S
Mn397 N404 2.257 . S
Mn397 N413 2.282 . S
Mn397 O421 2.215 . S
Mn397 O423 2.117 . S
C398 O420 1.234 . S
C398 O421 1.283 . S
C399 O411 1.281 . S
C399 O412 1.236 . S
C400 O422 1.240 . S
C400 O423 1.264 . S
O401 Mn396 2.095 . S
O401 C410 1.250 . S
O402 Mn397 2.121 . S
O402 C410 1.258 . S
C403 N404 1.326 . S
C403 C407 1.460 . S
C403 H409 0.929 . S
N404 Mn397 2.257 . S
N404 C403 1.326 . S
N404 C408 1.362 . S
C405 C406 1.258 . S
C405 C408 1.431 . S
C405 C425 1.449 . S
C406 C405 1.258 . S
C406 C407 1.477 . S
C406 H426 0.931 . S
C407 C403 1.460 . S
C407 C406 1.477 . S
C407 H427 0.930 . S
C408 N404 1.362 . S
C408 C405 1.431 . S
C408 C418 1.476 . S
H409 C403 0.929 . S
C410 O401 1.250 . S
C410 O402 1.258 . S
O411 Mn396 2.162 . S
O411 C399 1.281 . S
O412 Mn396 2.297 . S
O412 C399 1.236 . S
N413 Mn397 2.282 . S
N413 C414 1.328 . S
N413 C418 1.318 . S
C414 N413 1.328 . S
C414 C415 1.457 . S
C414 H419 0.929 . S
C415 C414 1.457 . S
C415 C416 1.291 . S
C415 H428 0.931 . S
C416 C415 1.291 . S
C416 C417 1.373 . S
C416 H429 0.929 . S
C417 C416 1.373 . S
C417 C418 1.396 . S
C417 C424 1.403 . S
C418 C408 1.476 . S
C418 N413 1.318 . S
C418 C417 1.396 . S
H419 C414 0.929 . S
O420 Mn396 2.385 . S
O420 C398 1.234 . S
O421 Mn396 2.209 . S
O421 Mn397 2.215 . S
O421 C398 1.283 . S
O422 Mn396 2.094 . S
O422 C400 1.240 . S
O423 Mn397 2.117 . S
O423 C400 1.264 . S
C424 C417 1.403 . S
C424 C425 1.399 . S
C424 H430 0.929 . S
C425 C405 1.449 . S
C425 C424 1.399 . S
C425 H431 0.930 . S
H426 C406 0.931 . S
H427 C407 0.930 . S
H428 C415 0.931 . S
H429 C416 0.929 . S
H430 C424 0.929 . S
H431 C425 0.930 . S
Mn432 O437 2.095 . S
Mn432 O447 2.162 . S
Mn432 O448 2.297 . S
Mn432 O456 2.385 . S
Mn432 O457 2.209 . S
Mn432 O458 2.094 . S
Mn433 O438 2.121 . S
Mn433 N440 2.257 . S
Mn433 N449 2.282 . S
Mn433 O457 2.215 . S
Mn433 O459 2.117 . S
C434 O456 1.234 . S
C434 O457 1.283 . S
C435 O447 1.281 . S
C435 O448 1.236 . S
C436 O458 1.240 . S
C436 O459 1.264 . S
O437 Mn432 2.095 . S
O437 C446 1.250 . S
O438 Mn433 2.121 . S
O438 C446 1.258 . S
C439 N440 1.326 . S
C439 C443 1.460 . S
C439 H445 0.929 . S
N440 Mn433 2.257 . S
N440 C439 1.326 . S
N440 C444 1.362 . S
C441 C442 1.258 . S
C441 C444 1.431 . S
C441 C461 1.449 . S
C442 C441 1.258 . S
C442 C443 1.477 . S
C442 H462 0.931 . S
C443 C439 1.460 . S
C443 C442 1.477 . S
C443 H463 0.930 . S
C444 N440 1.362 . S
C444 C441 1.431 . S
C444 C454 1.476 . S
H445 C439 0.929 . S
C446 O437 1.250 . S
C446 O438 1.258 . S
O447 Mn432 2.162 . S
O447 C435 1.281 . S
O448 Mn432 2.297 . S
O448 C435 1.236 . S
N449 Mn433 2.282 . S
N449 C450 1.328 . S
N449 C454 1.318 . S
C450 N449 1.328 . S
C450 C451 1.457 . S
C450 H455 0.929 . S
C451 C450 1.457 . S
C451 C452 1.291 . S
C451 H464 0.931 . S
C452 C451 1.291 . S
C452 C453 1.373 . S
C452 H465 0.929 . S
C453 C452 1.373 . S
C453 C454 1.396 . S
C453 C460 1.403 . S
C454 C444 1.476 . S
C454 N449 1.318 . S
C454 C453 1.396 . S
H455 C450 0.929 . S
O456 Mn432 2.385 . S
O456 C434 1.234 . S
O457 Mn432 2.209 . S
O457 Mn433 2.215 . S
O457 C434 1.283 . S
O458 Mn432 2.094 . S
O458 C436 1.240 . S
O459 Mn433 2.117 . S
O459 C436 1.264 . S
C460 C453 1.403 . S
C460 C461 1.399 . S
C460 H466 0.929 . S
C461 C441 1.449 . S
C461 C460 1.399 . S
C461 H467 0.930 . S
H462 C442 0.931 . S
H463 C443 0.930 . S
H464 C451 0.931 . S
H465 C452 0.929 . S
H466 C460 0.929 . S
H467 C461 0.930 . S
Mn468 O473 2.095 . S
Mn468 O483 2.162 . S
Mn468 O484 2.297 . S
Mn468 O492 2.385 . S
Mn468 O493 2.209 . S
Mn468 O494 2.094 . S
Mn469 O474 2.121 . S
Mn469 N476 2.257 . S
Mn469 N485 2.282 . S
Mn469 O493 2.215 . S
Mn469 O495 2.117 . S
C470 O492 1.234 . S
C470 O493 1.283 . S
C471 O483 1.281 . S
C471 O484 1.236 . S
C472 O494 1.240 . S
C472 O495 1.264 . S
O473 Mn468 2.095 . S
O473 C482 1.250 . S
O474 Mn469 2.121 . S
O474 C482 1.258 . S
C475 N476 1.326 . S
C475 C479 1.460 . S
C475 H481 0.929 . S
N476 Mn469 2.257 . S
N476 C475 1.326 . S
N476 C480 1.362 . S
C477 C478 1.258 . S
C477 C480 1.431 . S
C477 C497 1.449 . S
C478 C477 1.258 . S
C478 C479 1.477 . S
C478 H498 0.931 . S
C479 C475 1.460 . S
C479 C478 1.477 . S
C479 H499 0.930 . S
C480 N476 1.362 . S
C480 C477 1.431 . S
C480 C490 1.476 . S
H481 C475 0.929 . S
C482 O473 1.250 . S
C482 O474 1.258 . S
O483 Mn468 2.162 . S
O483 C471 1.281 . S
O484 Mn468 2.297 . S
O484 C471 1.236 . S
N485 Mn469 2.282 . S
N485 C486 1.328 . S
N485 C490 1.318 . S
C486 N485 1.328 . S
C486 C487 1.457 . S
C486 H491 0.929 . S
C487 C486 1.457 . S
C487 C488 1.291 . S
C487 H500 0.931 . S
C488 C487 1.291 . S
C488 C489 1.373 . S
C488 H501 0.929 . S
C489 C488 1.373 . S
C489 C490 1.396 . S
C489 C496 1.403 . S
C490 C480 1.476 . S
C490 N485 1.318 . S
C490 C489 1.396 . S
H491 C486 0.929 . S
O492 Mn468 2.385 . S
O492 C470 1.234 . S
O493 Mn468 2.209 . S
O493 Mn469 2.215 . S
O493 C470 1.283 . S
O494 Mn468 2.094 . S
O494 C472 1.240 . S
O495 Mn469 2.117 . S
O495 C472 1.264 . S
C496 C489 1.403 . S
C496 C497 1.399 . S
C496 H502 0.929 . S
C497 C477 1.449 . S
C497 C496 1.399 . S
C497 H503 0.930 . S
H498 C478 0.931 . S
H499 C479 0.930 . S
H500 C487 0.931 . S
H501 C488 0.929 . S
H502 C496 0.929 . S
H503 C497 0.930 . S
Mn504 O509 2.095 . S
Mn504 O519 2.162 1_556 S
Mn504 O520 2.297 . S
Mn504 O528 2.385 . S
Mn504 O529 2.209 . S
Mn504 O530 2.094 . S
Mn505 O510 2.121 . S
Mn505 N512 2.257 . S
Mn505 N521 2.282 . S
Mn505 O529 2.215 . S
Mn505 O531 2.117 . S
C506 O528 1.234 . S
C506 O529 1.283 . S
C507 O519 1.277 1_556 S
C507 O520 1.244 . S
C508 O530 1.240 . S
C508 O531 1.264 . S
O509 Mn504 2.095 . S
O509 C518 1.250 . S
O510 Mn505 2.121 . S
O510 C518 1.258 . S
C511 N512 1.326 . S
C511 C515 1.460 . S
C511 H517 0.929 . S
N512 Mn505 2.257 . S
N512 C511 1.326 . S
N512 C516 1.362 . S
C513 C514 1.258 . S
C513 C516 1.431 . S
C513 C533 1.449 . S
C514 C513 1.258 . S
C514 C515 1.477 . S
C514 H534 0.931 . S
C515 C511 1.460 . S
C515 C514 1.477 . S
C515 H535 0.930 . S
C516 N512 1.362 . S
C516 C513 1.431 . S
C516 C526 1.476 . S
H517 C511 0.929 . S
C518 O509 1.250 . S
C518 O510 1.258 . S
O519 Mn504 2.162 1_554 S
O519 C507 1.277 1_554 S
O520 Mn504 2.297 . S
O520 C507 1.244 . S
N521 Mn505 2.282 . S
N521 C522 1.328 . S
N521 C526 1.318 . S
C522 N521 1.328 . S
C522 C523 1.457 . S
C522 H527 0.929 . S
C523 C522 1.457 . S
C523 C524 1.291 . S
C523 H536 0.931 . S
C524 C523 1.291 . S
C524 C525 1.373 . S
C524 H537 0.929 . S
C525 C524 1.373 . S
C525 C526 1.396 . S
C525 C532 1.403 . S
C526 C516 1.476 . S
C526 N521 1.318 . S
C526 C525 1.396 . S
H527 C522 0.929 . S
O528 Mn504 2.385 . S
O528 C506 1.234 . S
O529 Mn504 2.209 . S
O529 Mn505 2.215 . S
O529 C506 1.283 . S
O530 Mn504 2.094 . S
O530 C508 1.240 . S
O531 Mn505 2.117 . S
O531 C508 1.264 . S
C532 C525 1.403 . S
C532 C533 1.399 . S
C532 H538 0.929 . S
C533 C513 1.449 . S
C533 C532 1.399 . S
C533 H539 0.930 . S
H534 C514 0.931 . S
H535 C515 0.930 . S
H536 C523 0.931 . S
H537 C524 0.929 . S
H538 C532 0.929 . S
H539 C533 0.930 . S
Mn540 O545 2.095 . S
Mn540 O555 2.162 . S
Mn540 O556 2.297 . S
Mn540 O564 2.385 . S
Mn540 O565 2.209 . S
Mn540 O566 2.094 . S
Mn541 O546 2.121 . S
Mn541 N548 2.257 . S
Mn541 N557 2.282 . S
Mn541 O565 2.215 . S
Mn541 O567 2.117 . S
C542 O564 1.234 . S
C542 O565 1.283 . S
C543 O555 1.281 . S
C543 O556 1.236 . S
C544 O566 1.240 . S
C544 O567 1.264 . S
O545 Mn540 2.095 . S
O545 C554 1.250 . S
O546 Mn541 2.121 . S
O546 C554 1.258 . S
C547 N548 1.326 . S
C547 C551 1.460 . S
C547 H553 0.929 . S
N548 Mn541 2.257 . S
N548 C547 1.326 . S
N548 C552 1.362 . S
C549 C550 1.258 . S
C549 C552 1.431 . S
C549 C569 1.449 . S
C550 C549 1.258 . S
C550 C551 1.477 . S
C550 H570 0.931 . S
C551 C547 1.460 . S
C551 C550 1.477 . S
C551 H571 0.930 . S
C552 N548 1.362 . S
C552 C549 1.431 . S
C552 C562 1.476 . S
H553 C547 0.929 . S
C554 O545 1.250 . S
C554 O546 1.258 . S
O555 Mn540 2.162 . S
O555 C543 1.281 . S
O556 Mn540 2.297 . S
O556 C543 1.236 . S
N557 Mn541 2.282 . S
N557 C558 1.328 . S
N557 C562 1.318 . S
C558 N557 1.328 . S
C558 C559 1.457 . S
C558 H563 0.929 . S
C559 C558 1.457 . S
C559 C560 1.291 . S
C559 H572 0.931 . S
C560 C559 1.291 . S
C560 C561 1.373 . S
C560 H573 0.929 . S
C561 C560 1.373 . S
C561 C562 1.396 . S
C561 C568 1.403 . S
C562 C552 1.476 . S
C562 N557 1.318 . S
C562 C561 1.396 . S
H563 C558 0.929 . S
O564 Mn540 2.385 . S
O564 C542 1.234 . S
O565 Mn540 2.209 . S
O565 Mn541 2.215 . S
O565 C542 1.283 . S
O566 Mn540 2.094 . S
O566 C544 1.240 . S
O567 Mn541 2.117 . S
O567 C544 1.264 . S
C568 C561 1.403 . S
C568 C569 1.399 . S
C568 H574 0.929 . S
C569 C549 1.449 . S
C569 C568 1.399 . S
C569 H575 0.930 . S
H570 C550 0.931 . S
H571 C551 0.930 . S
H572 C559 0.931 . S
H573 C560 0.929 . S
H574 C568 0.929 . S
H575 C569 0.930 . S
Mn576 O581 2.095 . S
Mn576 O591 2.162 . S
Mn576 O592 2.297 . S
Mn576 O600 2.385 . S
Mn576 O601 2.209 . S
Mn576 O602 2.094 . S
Mn577 O582 2.121 . S
Mn577 N584 2.257 . S
Mn577 N593 2.282 . S
Mn577 O601 2.215 . S
Mn577 O603 2.117 . S
C578 O600 1.234 . S
C578 O601 1.283 . S
C579 O591 1.281 . S
C579 O592 1.236 . S
C580 O602 1.240 . S
C580 O603 1.264 . S
O581 Mn576 2.095 . S
O581 C590 1.250 . S
O582 Mn577 2.121 . S
O582 C590 1.258 . S
C583 N584 1.326 . S
C583 C587 1.460 . S
C583 H589 0.929 . S
N584 Mn577 2.257 . S
N584 C583 1.326 . S
N584 C588 1.362 . S
C585 C586 1.258 . S
C585 C588 1.431 . S
C585 C605 1.449 . S
C586 C585 1.258 . S
C586 C587 1.477 . S
C586 H606 0.931 . S
C587 C583 1.460 . S
C587 C586 1.477 . S
C587 H607 0.930 . S
C588 N584 1.362 . S
C588 C585 1.431 . S
C588 C598 1.476 . S
H589 C583 0.929 . S
C590 O581 1.250 . S
C590 O582 1.258 . S
O591 Mn576 2.162 . S
O591 C579 1.281 . S
O592 Mn576 2.297 . S
O592 C579 1.236 . S
N593 Mn577 2.282 . S
N593 C594 1.328 . S
N593 C598 1.318 . S
C594 N593 1.328 . S
C594 C595 1.457 . S
C594 H599 0.929 . S
C595 C594 1.457 . S
C595 C596 1.291 . S
C595 H608 0.931 . S
C596 C595 1.291 . S
C596 C597 1.373 . S
C596 H609 0.929 . S
C597 C596 1.373 . S
C597 C598 1.396 . S
C597 C604 1.403 . S
C598 C588 1.476 . S
C598 N593 1.318 . S
C598 C597 1.396 . S
H599 C594 0.929 . S
O600 Mn576 2.385 . S
O600 C578 1.234 . S
O601 Mn576 2.209 . S
O601 Mn577 2.215 . S
O601 C578 1.283 . S
O602 Mn576 2.094 . S
O602 C580 1.240 . S
O603 Mn577 2.117 . S
O603 C580 1.264 . S
C604 C597 1.403 . S
C604 C605 1.399 . S
C604 H610 0.929 . S
C605 C585 1.449 . S
C605 C604 1.399 . S
C605 H611 0.930 . S
H606 C586 0.931 . S
H607 C587 0.930 . S
H608 C595 0.931 . S
H609 C596 0.929 . S
H610 C604 0.929 . S
H611 C605 0.930 . S
Mn612 O617 2.095 . S
Mn612 O627 2.162 1_455 S
Mn612 O628 2.297 . S
Mn612 O636 2.385 . S
Mn612 O637 2.209 . S
Mn612 O638 2.094 . S
Mn613 O618 2.121 . S
Mn613 N620 2.257 . S
Mn613 N629 2.282 . S
Mn613 O637 2.215 . S
Mn613 O639 2.117 . S
C614 O636 1.234 . S
C614 O637 1.283 . S
C615 O627 1.277 1_455 S
C615 O628 1.244 . S
C616 O638 1.240 . S
C616 O639 1.264 . S
O617 Mn612 2.095 . S
O617 C626 1.250 . S
O618 Mn613 2.121 . S
O618 C626 1.258 . S
C619 N620 1.326 . S
C619 C623 1.460 . S
C619 H625 0.929 . S
N620 Mn613 2.257 . S
N620 C619 1.326 . S
N620 C624 1.362 . S
C621 C622 1.258 . S
C621 C624 1.431 . S
C621 C641 1.449 . S
C622 C621 1.258 . S
C622 C623 1.477 . S
C622 H642 0.931 . S
C623 C619 1.460 . S
C623 C622 1.477 . S
C623 H643 0.930 . S
C624 N620 1.362 . S
C624 C621 1.431 . S
C624 C634 1.476 . S
H625 C619 0.929 . S
C626 O617 1.250 . S
C626 O618 1.258 . S
O627 Mn612 2.162 1_655 S
O627 C615 1.277 1_655 S
O628 Mn612 2.297 . S
O628 C615 1.244 . S
N629 Mn613 2.282 . S
N629 C630 1.328 . S
N629 C634 1.318 . S
C630 N629 1.328 . S
C630 C631 1.457 . S
C630 H635 0.929 . S
C631 C630 1.457 . S
C631 C632 1.291 . S
C631 H644 0.931 . S
C632 C631 1.291 . S
C632 C633 1.373 . S
C632 H645 0.929 . S
C633 C632 1.373 . S
C633 C634 1.396 . S
C633 C640 1.403 . S
C634 C624 1.476 . S
C634 N629 1.318 . S
C634 C633 1.396 . S
H635 C630 0.929 . S
O636 Mn612 2.385 . S
O636 C614 1.234 . S
O637 Mn612 2.209 . S
O637 Mn613 2.215 . S
O637 C614 1.283 . S
O638 Mn612 2.094 . S
O638 C616 1.240 . S
O639 Mn613 2.117 . S
O639 C616 1.264 . S
C640 C633 1.403 . S
C640 C641 1.399 . S
C640 H646 0.929 . S
C641 C621 1.449 . S
C641 C640 1.399 . S
C641 H647 0.930 . S
H642 C622 0.931 . S
H643 C623 0.930 . S
H644 C631 0.931 . S
H645 C632 0.929 . S
H646 C640 0.929 . S
H647 C641 0.930 . S
Mn648 O653 2.095 . S
Mn648 O663 2.162 . S
Mn648 O664 2.297 . S
Mn648 O672 2.385 . S
Mn648 O673 2.209 . S
Mn648 O674 2.094 . S
Mn649 O654 2.121 . S
Mn649 N656 2.257 . S
Mn649 N665 2.282 . S
Mn649 O673 2.215 . S
Mn649 O675 2.117 . S
C650 O672 1.234 . S
C650 O673 1.283 . S
C651 O663 1.281 . S
C651 O664 1.236 . S
C652 O674 1.240 . S
C652 O675 1.264 . S
O653 Mn648 2.095 . S
O653 C662 1.250 . S
O654 Mn649 2.121 . S
O654 C662 1.258 . S
C655 N656 1.326 . S
C655 C659 1.460 . S
C655 H661 0.929 . S
N656 Mn649 2.257 . S
N656 C655 1.326 . S
N656 C660 1.362 . S
C657 C658 1.258 . S
C657 C660 1.431 . S
C657 C677 1.449 . S
C658 C657 1.258 . S
C658 C659 1.477 . S
C658 H678 0.931 . S
C659 C655 1.460 . S
C659 C658 1.477 . S
C659 H679 0.930 . S
C660 N656 1.362 . S
C660 C657 1.431 . S
C660 C670 1.476 . S
H661 C655 0.929 . S
C662 O653 1.250 . S
C662 O654 1.258 . S
O663 Mn648 2.162 . S
O663 C651 1.281 . S
O664 Mn648 2.297 . S
O664 C651 1.236 . S
N665 Mn649 2.282 . S
N665 C666 1.328 . S
N665 C670 1.318 . S
C666 N665 1.328 . S
C666 C667 1.457 . S
C666 H671 0.929 . S
C667 C666 1.457 . S
C667 C668 1.291 . S
C667 H680 0.931 . S
C668 C667 1.291 . S
C668 C669 1.373 . S
C668 H681 0.929 . S
C669 C668 1.373 . S
C669 C670 1.396 . S
C669 C676 1.403 . S
C670 C660 1.476 . S
C670 N665 1.318 . S
C670 C669 1.396 . S
H671 C666 0.929 . S
O672 Mn648 2.385 . S
O672 C650 1.234 . S
O673 Mn648 2.209 . S
O673 Mn649 2.215 . S
O673 C650 1.283 . S
O674 Mn648 2.094 . S
O674 C652 1.240 . S
O675 Mn649 2.117 . S
O675 C652 1.264 . S
C676 C669 1.403 . S
C676 C677 1.399 . S
C676 H682 0.929 . S
C677 C657 1.449 . S
C677 C676 1.399 . S
C677 H683 0.930 . S
H678 C658 0.931 . S
H679 C659 0.930 . S
H680 C667 0.931 . S
H681 C668 0.929 . S
H682 C676 0.929 . S
H683 C677 0.930 . S
Mn684 O689 2.095 . S
Mn684 O699 2.162 1_655 S
Mn684 O700 2.297 . S
Mn684 O708 2.385 . S
Mn684 O709 2.209 . S
Mn684 O710 2.094 . S
Mn685 O690 2.121 . S
Mn685 N692 2.257 . S
Mn685 N701 2.282 . S
Mn685 O709 2.215 . S
Mn685 O711 2.117 . S
C686 O708 1.234 . S
C686 O709 1.283 . S
C687 O699 1.277 1_655 S
C687 O700 1.244 . S
C688 O710 1.240 . S
C688 O711 1.264 . S
O689 Mn684 2.095 . S
O689 C698 1.250 . S
O690 Mn685 2.121 . S
O690 C698 1.258 . S
C691 N692 1.326 . S
C691 C695 1.460 . S
C691 H697 0.929 . S
N692 Mn685 2.257 . S
N692 C691 1.326 . S
N692 C696 1.362 . S
C693 C694 1.258 . S
C693 C696 1.431 . S
C693 C713 1.449 . S
C694 C693 1.258 . S
C694 C695 1.477 . S
C694 H714 0.931 . S
C695 C691 1.460 . S
C695 C694 1.477 . S
C695 H715 0.930 . S
C696 N692 1.362 . S
C696 C693 1.431 . S
C696 C706 1.476 . S
H697 C691 0.929 . S
C698 O689 1.250 . S
C698 O690 1.258 . S
O699 Mn684 2.162 1_455 S
O699 C687 1.277 1_455 S
O700 Mn684 2.297 . S
O700 C687 1.244 . S
N701 Mn685 2.282 . S
N701 C702 1.328 . S
N701 C706 1.318 . S
C702 N701 1.328 . S
C702 C703 1.457 . S
C702 H707 0.929 . S
C703 C702 1.457 . S
C703 C704 1.291 . S
C703 H716 0.931 . S
C704 C703 1.291 . S
C704 C705 1.373 . S
C704 H717 0.929 . S
C705 C704 1.373 . S
C705 C706 1.396 . S
C705 C712 1.403 . S
C706 C696 1.476 . S
C706 N701 1.318 . S
C706 C705 1.396 . S
H707 C702 0.929 . S
O708 Mn684 2.385 . S
O708 C686 1.234 . S
O709 Mn684 2.209 . S
O709 Mn685 2.215 . S
O709 C686 1.283 . S
O710 Mn684 2.094 . S
O710 C688 1.240 . S
O711 Mn685 2.117 . S
O711 C688 1.264 . S
C712 C705 1.403 . S
C712 C713 1.399 . S
C712 H718 0.929 . S
C713 C693 1.449 . S
C713 C712 1.399 . S
C713 H719 0.930 . S
H714 C694 0.931 . S
H715 C695 0.930 . S
H716 C703 0.931 . S
H717 C704 0.929 . S
H718 C712 0.929 . S
H719 C713 0.930 . S
Mn720 O725 2.095 . S
Mn720 O735 2.162 . S
Mn720 O736 2.297 . S
Mn720 O744 2.385 . S
Mn720 O745 2.209 . S
Mn720 O746 2.094 . S
Mn721 O726 2.121 . S
Mn721 N728 2.257 . S
Mn721 N737 2.282 . S
Mn721 O745 2.215 . S
Mn721 O747 2.117 . S
C722 O744 1.234 . S
C722 O745 1.283 . S
C723 O735 1.281 . S
C723 O736 1.236 . S
C724 O746 1.240 . S
C724 O747 1.264 . S
O725 Mn720 2.095 . S
O725 C734 1.250 . S
O726 Mn721 2.121 . S
O726 C734 1.258 . S
C727 N728 1.326 . S
C727 C731 1.460 . S
C727 H733 0.929 . S
N728 Mn721 2.257 . S
N728 C727 1.326 . S
N728 C732 1.362 . S
C729 C730 1.258 . S
C729 C732 1.431 . S
C729 C749 1.449 . S
C730 C729 1.258 . S
C730 C731 1.477 . S
C730 H750 0.931 . S
C731 C727 1.460 . S
C731 C730 1.477 . S
C731 H751 0.930 . S
C732 N728 1.362 . S
C732 C729 1.431 . S
C732 C742 1.476 . S
H733 C727 0.929 . S
C734 O725 1.250 . S
C734 O726 1.258 . S
O735 Mn720 2.162 . S
O735 C723 1.281 . S
O736 Mn720 2.297 . S
O736 C723 1.236 . S
N737 Mn721 2.282 . S
N737 C738 1.328 . S
N737 C742 1.318 . S
C738 N737 1.328 . S
C738 C739 1.457 . S
C738 H743 0.929 . S
C739 C738 1.457 . S
C739 C740 1.291 . S
C739 H752 0.931 . S
C740 C739 1.291 . S
C740 C741 1.373 . S
C740 H753 0.929 . S
C741 C740 1.373 . S
C741 C742 1.396 . S
C741 C748 1.403 . S
C742 C732 1.476 . S
C742 N737 1.318 . S
C742 C741 1.396 . S
H743 C738 0.929 . S
O744 Mn720 2.385 . S
O744 C722 1.234 . S
O745 Mn720 2.209 . S
O745 Mn721 2.215 . S
O745 C722 1.283 . S
O746 Mn720 2.094 . S
O746 C724 1.240 . S
O747 Mn721 2.117 . S
O747 C724 1.264 . S
C748 C741 1.403 . S
C748 C749 1.399 . S
C748 H754 0.929 . S
C749 C729 1.449 . S
C749 C748 1.399 . S
C749 H755 0.930 . S
H750 C730 0.931 . S
H751 C731 0.930 . S
H752 C739 0.931 . S
H753 C740 0.929 . S
H754 C748 0.929 . S
H755 C749 0.930 . S
Mn756 O761 2.095 . S
Mn756 O771 2.162 . S
Mn756 O772 2.297 . S
Mn756 O780 2.385 . S
Mn756 O781 2.209 . S
Mn756 O782 2.094 . S
Mn757 O762 2.121 . S
Mn757 N764 2.257 . S
Mn757 N773 2.282 . S
Mn757 O781 2.215 . S
Mn757 O783 2.117 . S
C758 O780 1.234 . S
C758 O781 1.283 . S
C759 O771 1.281 . S
C759 O772 1.236 . S
C760 O782 1.240 . S
C760 O783 1.264 . S
O761 Mn756 2.095 . S
O761 C770 1.250 . S
O762 Mn757 2.121 . S
O762 C770 1.258 . S
C763 N764 1.326 . S
C763 C767 1.460 . S
C763 H769 0.929 . S
N764 Mn757 2.257 . S
N764 C763 1.326 . S
N764 C768 1.362 . S
C765 C766 1.258 . S
C765 C768 1.431 . S
C765 C785 1.449 . S
C766 C765 1.258 . S
C766 C767 1.477 . S
C766 H786 0.931 . S
C767 C763 1.460 . S
C767 C766 1.477 . S
C767 H787 0.930 . S
C768 N764 1.362 . S
C768 C765 1.431 . S
C768 C778 1.476 . S
H769 C763 0.929 . S
C770 O761 1.250 . S
C770 O762 1.258 . S
O771 Mn756 2.162 . S
O771 C759 1.281 . S
O772 Mn756 2.297 . S
O772 C759 1.236 . S
N773 Mn757 2.282 . S
N773 C774 1.328 . S
N773 C778 1.318 . S
C774 N773 1.328 . S
C774 C775 1.457 . S
C774 H779 0.929 . S
C775 C774 1.457 . S
C775 C776 1.291 . S
C775 H788 0.931 . S
C776 C775 1.291 . S
C776 C777 1.373 . S
C776 H789 0.929 . S
C777 C776 1.373 . S
C777 C778 1.396 . S
C777 C784 1.403 . S
C778 C768 1.476 . S
C778 N773 1.318 . S
C778 C777 1.396 . S
H779 C774 0.929 . S
O780 Mn756 2.385 . S
O780 C758 1.234 . S
O781 Mn756 2.209 . S
O781 Mn757 2.215 . S
O781 C758 1.283 . S
O782 Mn756 2.094 . S
O782 C760 1.240 . S
O783 Mn757 2.117 . S
O783 C760 1.264 . S
C784 C777 1.403 . S
C784 C785 1.399 . S
C784 H790 0.929 . S
C785 C765 1.449 . S
C785 C784 1.399 . S
C785 H791 0.930 . S
H786 C766 0.931 . S
H787 C767 0.930 . S
H788 C775 0.931 . S
H789 C776 0.929 . S
H790 C784 0.929 . S
H791 C785 0.930 . S
Mn792 O797 2.095 . S
Mn792 O807 2.162 . S
Mn792 O808 2.297 . S
Mn792 O816 2.385 . S
Mn792 O817 2.209 . S
Mn792 O818 2.094 . S
Mn793 O798 2.121 . S
Mn793 N800 2.257 . S
Mn793 N809 2.282 . S
Mn793 O817 2.215 . S
Mn793 O819 2.117 . S
C794 O816 1.234 . S
C794 O817 1.283 . S
C795 O807 1.281 . S
C795 O808 1.236 . S
C796 O818 1.240 . S
C796 O819 1.264 . S
O797 Mn792 2.095 . S
O797 C806 1.250 . S
O798 Mn793 2.121 . S
O798 C806 1.258 . S
C799 N800 1.326 . S
C799 C803 1.460 . S
C799 H805 0.929 . S
N800 Mn793 2.257 . S
N800 C799 1.326 . S
N800 C804 1.362 . S
C801 C802 1.258 . S
C801 C804 1.431 . S
C801 C821 1.449 . S
C802 C801 1.258 . S
C802 C803 1.477 . S
C802 H822 0.931 . S
C803 C799 1.460 . S
C803 C802 1.477 . S
C803 H823 0.930 . S
C804 N800 1.362 . S
C804 C801 1.431 . S
C804 C814 1.476 . S
H805 C799 0.929 . S
C806 O797 1.250 . S
C806 O798 1.258 . S
O807 Mn792 2.162 . S
O807 C795 1.281 . S
O808 Mn792 2.297 . S
O808 C795 1.236 . S
N809 Mn793 2.282 . S
N809 C810 1.328 . S
N809 C814 1.318 . S
C810 N809 1.328 . S
C810 C811 1.457 . S
C810 H815 0.929 . S
C811 C810 1.457 . S
C811 C812 1.291 . S
C811 H824 0.931 . S
C812 C811 1.291 . S
C812 C813 1.373 . S
C812 H825 0.929 . S
C813 C812 1.373 . S
C813 C814 1.396 . S
C813 C820 1.403 . S
C814 C804 1.476 . S
C814 N809 1.318 . S
C814 C813 1.396 . S
H815 C810 0.929 . S
O816 Mn792 2.385 . S
O816 C794 1.234 . S
O817 Mn792 2.209 . S
O817 Mn793 2.215 . S
O817 C794 1.283 . S
O818 Mn792 2.094 . S
O818 C796 1.240 . S
O819 Mn793 2.117 . S
O819 C796 1.264 . S
C820 C813 1.403 . S
C820 C821 1.399 . S
C820 H826 0.929 . S
C821 C801 1.449 . S
C821 C820 1.399 . S
C821 H827 0.930 . S
H822 C802 0.931 . S
H823 C803 0.930 . S
H824 C811 0.931 . S
H825 C812 0.929 . S
H826 C820 0.929 . S
H827 C821 0.930 . S
Mn828 O833 2.095 . S
Mn828 O843 2.162 . S
Mn828 O844 2.297 . S
Mn828 O852 2.385 . S
Mn828 O853 2.209 . S
Mn828 O854 2.094 . S
Mn829 O834 2.121 . S
Mn829 N836 2.257 . S
Mn829 N845 2.282 . S
Mn829 O853 2.215 . S
Mn829 O855 2.117 . S
C830 O852 1.234 . S
C830 O853 1.283 . S
C831 O843 1.281 . S
C831 O844 1.236 . S
C832 O854 1.240 . S
C832 O855 1.264 . S
O833 Mn828 2.095 . S
O833 C842 1.250 . S
O834 Mn829 2.121 . S
O834 C842 1.258 . S
C835 N836 1.326 . S
C835 C839 1.460 . S
C835 H841 0.929 . S
N836 Mn829 2.257 . S
N836 C835 1.326 . S
N836 C840 1.362 . S
C837 C838 1.258 . S
C837 C840 1.431 . S
C837 C857 1.449 . S
C838 C837 1.258 . S
C838 C839 1.477 . S
C838 H858 0.931 . S
C839 C835 1.460 . S
C839 C838 1.477 . S
C839 H859 0.930 . S
C840 N836 1.362 . S
C840 C837 1.431 . S
C840 C850 1.476 . S
H841 C835 0.929 . S
C842 O833 1.250 . S
C842 O834 1.258 . S
O843 Mn828 2.162 . S
O843 C831 1.281 . S
O844 Mn828 2.297 . S
O844 C831 1.236 . S
N845 Mn829 2.282 . S
N845 C846 1.328 . S
N845 C850 1.318 . S
C846 N845 1.328 . S
C846 C847 1.457 . S
C846 H851 0.929 . S
C847 C846 1.457 . S
C847 C848 1.291 . S
C847 H860 0.931 . S
C848 C847 1.291 . S
C848 C849 1.373 . S
C848 H861 0.929 . S
C849 C848 1.373 . S
C849 C850 1.396 . S
C849 C856 1.403 . S
C850 C840 1.476 . S
C850 N845 1.318 . S
C850 C849 1.396 . S
H851 C846 0.929 . S
O852 Mn828 2.385 . S
O852 C830 1.234 . S
O853 Mn828 2.209 . S
O853 Mn829 2.215 . S
O853 C830 1.283 . S
O854 Mn828 2.094 . S
O854 C832 1.240 . S
O855 Mn829 2.117 . S
O855 C832 1.264 . S
C856 C849 1.403 . S
C856 C857 1.399 . S
C856 H862 0.929 . S
C857 C837 1.449 . S
C857 C856 1.399 . S
C857 H863 0.930 . S
H858 C838 0.931 . S
H859 C839 0.930 . S
H860 C847 0.931 . S
H861 C848 0.929 . S
H862 C856 0.929 . S
H863 C857 0.930 . S
Mn864 O869 2.095 . S
Mn864 O879 2.162 1_545 S
Mn864 O880 2.297 . S
Mn864 O888 2.385 . S
Mn864 O889 2.209 . S
Mn864 O890 2.094 . S
Mn865 O870 2.121 . S
Mn865 N872 2.257 . S
Mn865 N881 2.282 . S
Mn865 O889 2.215 . S
Mn865 O891 2.117 . S
C866 O888 1.234 . S
C866 O889 1.283 . S
C867 O879 1.277 1_545 S
C867 O880 1.244 . S
C868 O890 1.240 . S
C868 O891 1.264 . S
O869 Mn864 2.095 . S
O869 C878 1.250 . S
O870 Mn865 2.121 . S
O870 C878 1.258 . S
C871 N872 1.326 . S
C871 C875 1.460 . S
C871 H877 0.929 . S
N872 Mn865 2.257 . S
N872 C871 1.326 . S
N872 C876 1.362 . S
C873 C874 1.258 . S
C873 C876 1.431 . S
C873 C893 1.449 . S
C874 C873 1.258 . S
C874 C875 1.477 . S
C874 H894 0.931 . S
C875 C871 1.460 . S
C875 C874 1.477 . S
C875 H895 0.930 . S
C876 N872 1.362 . S
C876 C873 1.431 . S
C876 C886 1.476 . S
H877 C871 0.929 . S
C878 O869 1.250 . S
C878 O870 1.258 . S
O879 Mn864 2.162 1_565 S
O879 C867 1.277 1_565 S
O880 Mn864 2.297 . S
O880 C867 1.244 . S
N881 Mn865 2.282 . S
N881 C882 1.328 . S
N881 C886 1.318 . S
C882 N881 1.328 . S
C882 C883 1.457 . S
C882 H887 0.929 . S
C883 C882 1.457 . S
C883 C884 1.291 . S
C883 H896 0.931 . S
C884 C883 1.291 . S
C884 C885 1.373 . S
C884 H897 0.929 . S
C885 C884 1.373 . S
C885 C886 1.396 . S
C885 C892 1.403 . S
C886 C876 1.476 . S
C886 N881 1.318 . S
C886 C885 1.396 . S
H887 C882 0.929 . S
O888 Mn864 2.385 . S
O888 C866 1.234 . S
O889 Mn864 2.209 . S
O889 Mn865 2.215 . S
O889 C866 1.283 . S
O890 Mn864 2.094 . S
O890 C868 1.240 . S
O891 Mn865 2.117 . S
O891 C868 1.264 . S
C892 C885 1.403 . S
C892 C893 1.399 . S
C892 H898 0.929 . S
C893 C873 1.449 . S
C893 C892 1.399 . S
C893 H899 0.930 . S
H894 C874 0.931 . S
H895 C875 0.930 . S
H896 C883 0.931 . S
H897 C884 0.929 . S
H898 C892 0.929 . S
H899 C893 0.930 . S
Mn900 O905 2.095 . S
Mn900 O915 2.162 . S
Mn900 O916 2.297 . S
Mn900 O924 2.385 . S
Mn900 O925 2.209 . S
Mn900 O926 2.094 . S
Mn901 O906 2.121 . S
Mn901 N908 2.257 . S
Mn901 N917 2.282 . S
Mn901 O925 2.215 . S
Mn901 O927 2.117 . S
C902 O924 1.234 . S
C902 O925 1.283 . S
C903 O915 1.281 . S
C903 O916 1.236 . S
C904 O926 1.240 . S
C904 O927 1.264 . S
O905 Mn900 2.095 . S
O905 C914 1.250 . S
O906 Mn901 2.121 . S
O906 C914 1.258 . S
C907 N908 1.326 . S
C907 C911 1.460 . S
C907 H913 0.929 . S
N908 Mn901 2.257 . S
N908 C907 1.326 . S
N908 C912 1.362 . S
C909 C910 1.258 . S
C909 C912 1.431 . S
C909 C929 1.449 . S
C910 C909 1.258 . S
C910 C911 1.477 . S
C910 H930 0.931 . S
C911 C907 1.460 . S
C911 C910 1.477 . S
C911 H931 0.930 . S
C912 N908 1.362 . S
C912 C909 1.431 . S
C912 C922 1.476 . S
H913 C907 0.929 . S
C914 O905 1.250 . S
C914 O906 1.258 . S
O915 Mn900 2.162 . S
O915 C903 1.281 . S
O916 Mn900 2.297 . S
O916 C903 1.236 . S
N917 Mn901 2.282 . S
N917 C918 1.328 . S
N917 C922 1.318 . S
C918 N917 1.328 . S
C918 C919 1.457 . S
C918 H923 0.929 . S
C919 C918 1.457 . S
C919 C920 1.291 . S
C919 H932 0.931 . S
C920 C919 1.291 . S
C920 C921 1.373 . S
C920 H933 0.929 . S
C921 C920 1.373 . S
C921 C922 1.396 . S
C921 C928 1.403 . S
C922 C912 1.476 . S
C922 N917 1.318 . S
C922 C921 1.396 . S
H923 C918 0.929 . S
O924 Mn900 2.385 . S
O924 C902 1.234 . S
O925 Mn900 2.209 . S
O925 Mn901 2.215 . S
O925 C902 1.283 . S
O926 Mn900 2.094 . S
O926 C904 1.240 . S
O927 Mn901 2.117 . S
O927 C904 1.264 . S
C928 C921 1.403 . S
C928 C929 1.399 . S
C928 H934 0.929 . S
C929 C909 1.449 . S
C929 C928 1.399 . S
C929 H935 0.930 . S
H930 C910 0.931 . S
H931 C911 0.930 . S
H932 C919 0.931 . S
H933 C920 0.929 . S
H934 C928 0.929 . S
H935 C929 0.930 . S
Mn936 O941 2.095 . S
Mn936 O951 2.162 . S
Mn936 O952 2.297 . S
Mn936 O960 2.385 . S
Mn936 O961 2.209 . S
Mn936 O962 2.094 . S
Mn937 O942 2.121 . S
Mn937 N944 2.257 . S
Mn937 N953 2.282 . S
Mn937 O961 2.215 . S
Mn937 O963 2.117 . S
C938 O960 1.234 . S
C938 O961 1.283 . S
C939 O951 1.281 . S
C939 O952 1.236 . S
C940 O962 1.240 . S
C940 O963 1.264 . S
O941 Mn936 2.095 . S
O941 C950 1.250 . S
O942 Mn937 2.121 . S
O942 C950 1.258 . S
C943 N944 1.326 . S
C943 C947 1.460 . S
C943 H949 0.929 . S
N944 Mn937 2.257 . S
N944 C943 1.326 . S
N944 C948 1.362 . S
C945 C946 1.258 . S
C945 C948 1.431 . S
C945 C965 1.449 . S
C946 C945 1.258 . S
C946 C947 1.477 . S
C946 H966 0.931 . S
C947 C943 1.460 . S
C947 C946 1.477 . S
C947 H967 0.930 . S
C948 N944 1.362 . S
C948 C945 1.431 . S
C948 C958 1.476 . S
H949 C943 0.929 . S
C950 O941 1.250 . S
C950 O942 1.258 . S
O951 Mn936 2.162 . S
O951 C939 1.281 . S
O952 Mn936 2.297 . S
O952 C939 1.236 . S
N953 Mn937 2.282 . S
N953 C954 1.328 . S
N953 C958 1.318 . S
C954 N953 1.328 . S
C954 C955 1.457 . S
C954 H959 0.929 . S
C955 C954 1.457 . S
C955 C956 1.291 . S
C955 H968 0.931 . S
C956 C955 1.291 . S
C956 C957 1.373 . S
C956 H969 0.929 . S
C957 C956 1.373 . S
C957 C958 1.396 . S
C957 C964 1.403 . S
C958 C948 1.476 . S
C958 N953 1.318 . S
C958 C957 1.396 . S
H959 C954 0.929 . S
O960 Mn936 2.385 . S
O960 C938 1.234 . S
O961 Mn936 2.209 . S
O961 Mn937 2.215 . S
O961 C938 1.283 . S
O962 Mn936 2.094 . S
O962 C940 1.240 . S
O963 Mn937 2.117 . S
O963 C940 1.264 . S
C964 C957 1.403 . S
C964 C965 1.399 . S
C964 H970 0.929 . S
C965 C945 1.449 . S
C965 C964 1.399 . S
C965 H971 0.930 . S
H966 C946 0.931 . S
H967 C947 0.930 . S
H968 C955 0.931 . S
H969 C956 0.929 . S
H970 C964 0.929 . S
H971 C965 0.930 . S
Mn972 O977 2.095 . S
Mn972 O987 2.162 . S
Mn972 O988 2.297 . S
Mn972 O996 2.385 . S
Mn972 O997 2.209 . S
Mn972 O998 2.094 . S
Mn973 O978 2.121 . S
Mn973 N980 2.257 . S
Mn973 N989 2.282 . S
Mn973 O997 2.215 . S
Mn973 O999 2.117 . S
C974 O996 1.234 . S
C974 O997 1.283 . S
C975 O987 1.281 . S
C975 O988 1.236 . S
C976 O998 1.240 . S
C976 O999 1.264 . S
O977 Mn972 2.095 . S
O977 C986 1.250 . S
O978 Mn973 2.121 . S
O978 C986 1.258 . S
C979 N980 1.326 . S
C979 C983 1.460 . S
C979 H985 0.929 . S
N980 Mn973 2.257 . S
N980 C979 1.326 . S
N980 C984 1.362 . S
C981 C982 1.258 . S
C981 C984 1.431 . S
C981 C1001 1.449 . S
C982 C981 1.258 . S
C982 C983 1.477 . S
C982 H1002 0.931 . S
C983 C979 1.460 . S
C983 C982 1.477 . S
C983 H1003 0.930 . S
C984 N980 1.362 . S
C984 C981 1.431 . S
C984 C994 1.476 . S
H985 C979 0.929 . S
C986 O977 1.250 . S
C986 O978 1.258 . S
O987 Mn972 2.162 . S
O987 C975 1.281 . S
O988 Mn972 2.297 . S
O988 C975 1.236 . S
N989 Mn973 2.282 . S
N989 C990 1.328 . S
N989 C994 1.318 . S
C990 N989 1.328 . S
C990 C991 1.457 . S
C990 H995 0.929 . S
C991 C990 1.457 . S
C991 C992 1.291 . S
C991 H1004 0.931 . S
C992 C991 1.291 . S
C992 C993 1.373 . S
C992 H1005 0.929 . S
C993 C992 1.373 . S
C993 C994 1.396 . S
C993 C1000 1.403 . S
C994 C984 1.476 . S
C994 N989 1.318 . S
C994 C993 1.396 . S
H995 C990 0.929 . S
O996 Mn972 2.385 . S
O996 C974 1.234 . S
O997 Mn972 2.209 . S
O997 Mn973 2.215 . S
O997 C974 1.283 . S
O998 Mn972 2.094 . S
O998 C976 1.240 . S
O999 Mn973 2.117 . S
O999 C976 1.264 . S
C1000 C993 1.403 . S
C1000 C1001 1.399 . S
C1000 H1006 0.929 . S
C1001 C981 1.449 . S
C1001 C1000 1.399 . S
C1001 H1007 0.930 . S
H1002 C982 0.931 . S
H1003 C983 0.930 . S
H1004 C991 0.931 . S
H1005 C992 0.929 . S
H1006 C1000 0.929 . S
H1007 C1001 0.930 . S
Mn1008 O1013 2.095 . S
Mn1008 O1023 2.162 1_565 S
Mn1008 O1024 2.297 . S
Mn1008 O1032 2.385 . S
Mn1008 O1033 2.209 . S
Mn1008 O1034 2.094 . S
Mn1009 O1014 2.121 . S
Mn1009 N1016 2.257 . S
Mn1009 N1025 2.282 . S
Mn1009 O1033 2.215 . S
Mn1009 O1035 2.117 . S
C1010 O1032 1.234 . S
C1010 O1033 1.283 . S
C1011 O1023 1.277 1_565 S
C1011 O1024 1.244 . S
C1012 O1034 1.240 . S
C1012 O1035 1.264 . S
O1013 Mn1008 2.095 . S
O1013 C1022 1.250 . S
O1014 Mn1009 2.121 . S
O1014 C1022 1.258 . S
C1015 N1016 1.326 . S
C1015 C1019 1.460 . S
C1015 H1021 0.929 . S
N1016 Mn1009 2.257 . S
N1016 C1015 1.326 . S
N1016 C1020 1.362 . S
C1017 C1018 1.258 . S
C1017 C1020 1.431 . S
C1017 C1037 1.449 . S
C1018 C1017 1.258 . S
C1018 C1019 1.477 . S
C1018 H1038 0.931 . S
C1019 C1015 1.460 . S
C1019 C1018 1.477 . S
C1019 H1039 0.930 . S
C1020 N1016 1.362 . S
C1020 C1017 1.431 . S
C1020 C1030 1.476 . S
H1021 C1015 0.929 . S
C1022 O1013 1.250 . S
C1022 O1014 1.258 . S
O1023 Mn1008 2.162 1_545 S
O1023 C1011 1.277 1_545 S
O1024 Mn1008 2.297 . S
O1024 C1011 1.244 . S
N1025 Mn1009 2.282 . S
N1025 C1026 1.328 . S
N1025 C1030 1.318 . S
C1026 N1025 1.328 . S
C1026 C1027 1.457 . S
C1026 H1031 0.929 . S
C1027 C1026 1.457 . S
C1027 C1028 1.291 . S
C1027 H1040 0.931 . S
C1028 C1027 1.291 . S
C1028 C1029 1.373 . S
C1028 H1041 0.929 . S
C1029 C1028 1.373 . S
C1029 C1030 1.396 . S
C1029 C1036 1.403 . S
C1030 C1020 1.476 . S
C1030 N1025 1.318 . S
C1030 C1029 1.396 . S
H1031 C1026 0.929 . S
O1032 Mn1008 2.385 . S
O1032 C1010 1.234 . S
O1033 Mn1008 2.209 . S
O1033 Mn1009 2.215 . S
O1033 C1010 1.283 . S
O1034 Mn1008 2.094 . S
O1034 C1012 1.240 . S
O1035 Mn1009 2.117 . S
O1035 C1012 1.264 . S
C1036 C1029 1.403 . S
C1036 C1037 1.399 . S
C1036 H1042 0.929 . S
C1037 C1017 1.449 . S
C1037 C1036 1.399 . S
C1037 H1043 0.930 . S
H1038 C1018 0.931 . S
H1039 C1019 0.930 . S
H1040 C1027 0.931 . S
H1041 C1028 0.929 . S
H1042 C1036 0.929 . S
H1043 C1037 0.930 . S
Mn1044 O1049 2.095 . S
Mn1044 O1059 2.162 . S
Mn1044 O1060 2.297 . S
Mn1044 O1068 2.385 . S
Mn1044 O1069 2.209 . S
Mn1044 O1070 2.094 . S
Mn1045 O1050 2.121 . S
Mn1045 N1052 2.257 . S
Mn1045 N1061 2.282 . S
Mn1045 O1069 2.215 . S
Mn1045 O1071 2.117 . S
C1046 O1068 1.234 . S
C1046 O1069 1.283 . S
C1047 O1059 1.281 . S
C1047 O1060 1.236 . S
C1048 O1070 1.240 . S
C1048 O1071 1.264 . S
O1049 Mn1044 2.095 . S
O1049 C1058 1.250 . S
O1050 Mn1045 2.121 . S
O1050 C1058 1.258 . S
C1051 N1052 1.326 . S
C1051 C1055 1.460 . S
C1051 H1057 0.929 . S
N1052 Mn1045 2.257 . S
N1052 C1051 1.326 . S
N1052 C1056 1.362 . S
C1053 C1054 1.258 . S
C1053 C1056 1.431 . S
C1053 C1073 1.449 . S
C1054 C1053 1.258 . S
C1054 C1055 1.477 . S
C1054 H1074 0.931 . S
C1055 C1051 1.460 . S
C1055 C1054 1.477 . S
C1055 H1075 0.930 . S
C1056 N1052 1.362 . S
C1056 C1053 1.431 . S
C1056 C1066 1.476 . S
H1057 C1051 0.929 . S
C1058 O1049 1.250 . S
C1058 O1050 1.258 . S
O1059 Mn1044 2.162 . S
O1059 C1047 1.281 . S
O1060 Mn1044 2.297 . S
O1060 C1047 1.236 . S
N1061 Mn1045 2.282 . S
N1061 C1062 1.328 . S
N1061 C1066 1.318 . S
C1062 N1061 1.328 . S
C1062 C1063 1.457 . S
C1062 H1067 0.929 . S
C1063 C1062 1.457 . S
C1063 C1064 1.291 . S
C1063 H1076 0.931 . S
C1064 C1063 1.291 . S
C1064 C1065 1.373 . S
C1064 H1077 0.929 . S
C1065 C1064 1.373 . S
C1065 C1066 1.396 . S
C1065 C1072 1.403 . S
C1066 C1056 1.476 . S
C1066 N1061 1.318 . S
C1066 C1065 1.396 . S
H1067 C1062 0.929 . S
O1068 Mn1044 2.385 . S
O1068 C1046 1.234 . S
O1069 Mn1044 2.209 . S
O1069 Mn1045 2.215 . S
O1069 C1046 1.283 . S
O1070 Mn1044 2.094 . S
O1070 C1048 1.240 . S
O1071 Mn1045 2.117 . S
O1071 C1048 1.264 . S
C1072 C1065 1.403 . S
C1072 C1073 1.399 . S
C1072 H1078 0.929 . S
C1073 C1053 1.449 . S
C1073 C1072 1.399 . S
C1073 H1079 0.930 . S
H1074 C1054 0.931 . S
H1075 C1055 0.930 . S
H1076 C1063 0.931 . S
H1077 C1064 0.929 . S
H1078 C1072 0.929 . S
H1079 C1073 0.930 . S
Mn1080 O1085 2.095 . S
Mn1080 O1095 2.162 . S
Mn1080 O1096 2.297 . S
Mn1080 O1104 2.385 . S
Mn1080 O1105 2.209 . S
Mn1080 O1106 2.094 . S
Mn1081 O1086 2.121 . S
Mn1081 N1088 2.257 . S
Mn1081 N1097 2.282 . S
Mn1081 O1105 2.215 . S
Mn1081 O1107 2.117 . S
C1082 O1104 1.234 . S
C1082 O1105 1.283 . S
C1083 O1095 1.281 . S
C1083 O1096 1.236 . S
C1084 O1106 1.240 . S
C1084 O1107 1.264 . S
O1085 Mn1080 2.095 . S
O1085 C1094 1.250 . S
O1086 Mn1081 2.121 . S
O1086 C1094 1.258 . S
C1087 N1088 1.326 . S
C1087 C1091 1.460 . S
C1087 H1093 0.929 . S
N1088 Mn1081 2.257 . S
N1088 C1087 1.326 . S
N1088 C1092 1.362 . S
C1089 C1090 1.258 . S
C1089 C1092 1.431 . S
C1089 C1109 1.449 . S
C1090 C1089 1.258 . S
C1090 C1091 1.477 . S
C1090 H1110 0.931 . S
C1091 C1087 1.460 . S
C1091 C1090 1.477 . S
C1091 H1111 0.930 . S
C1092 N1088 1.362 . S
C1092 C1089 1.431 . S
C1092 C1102 1.476 . S
H1093 C1087 0.929 . S
C1094 O1085 1.250 . S
C1094 O1086 1.258 . S
O1095 Mn1080 2.162 . S
O1095 C1083 1.281 . S
O1096 Mn1080 2.297 . S
O1096 C1083 1.236 . S
N1097 Mn1081 2.282 . S
N1097 C1098 1.328 . S
N1097 C1102 1.318 . S
C1098 N1097 1.328 . S
C1098 C1099 1.457 . S
C1098 H1103 0.929 . S
C1099 C1098 1.457 . S
C1099 C1100 1.291 . S
C1099 H1112 0.931 . S
C1100 C1099 1.291 . S
C1100 C1101 1.373 . S
C1100 H1113 0.929 . S
C1101 C1100 1.373 . S
C1101 C1102 1.396 . S
C1101 C1108 1.403 . S
C1102 C1092 1.476 . S
C1102 N1097 1.318 . S
C1102 C1101 1.396 . S
H1103 C1098 0.929 . S
O1104 Mn1080 2.385 . S
O1104 C1082 1.234 . S
O1105 Mn1080 2.209 . S
O1105 Mn1081 2.215 . S
O1105 C1082 1.283 . S
O1106 Mn1080 2.094 . S
O1106 C1084 1.240 . S
O1107 Mn1081 2.117 . S
O1107 C1084 1.264 . S
C1108 C1101 1.403 . S
C1108 C1109 1.399 . S
C1108 H1114 0.929 . S
C1109 C1089 1.449 . S
C1109 C1108 1.399 . S
C1109 H1115 0.930 . S
H1110 C1090 0.931 . S
H1111 C1091 0.930 . S
H1112 C1099 0.931 . S
H1113 C1100 0.929 . S
H1114 C1108 0.929 . S
H1115 C1109 0.930 . S
Mn1116 O1121 2.095 . S
Mn1116 O1131 2.162 . S
Mn1116 O1132 2.297 . S
Mn1116 O1140 2.385 . S
Mn1116 O1141 2.209 . S
Mn1116 O1142 2.094 . S
Mn1117 O1122 2.121 . S
Mn1117 N1124 2.257 . S
Mn1117 N1133 2.282 . S
Mn1117 O1141 2.215 . S
Mn1117 O1143 2.117 . S
C1118 O1140 1.234 . S
C1118 O1141 1.283 . S
C1119 O1131 1.281 . S
C1119 O1132 1.236 . S
C1120 O1142 1.240 . S
C1120 O1143 1.264 . S
O1121 Mn1116 2.095 . S
O1121 C1130 1.250 . S
O1122 Mn1117 2.121 . S
O1122 C1130 1.258 . S
C1123 N1124 1.326 . S
C1123 C1127 1.460 . S
C1123 H1129 0.929 . S
N1124 Mn1117 2.257 . S
N1124 C1123 1.326 . S
N1124 C1128 1.362 . S
C1125 C1126 1.258 . S
C1125 C1128 1.431 . S
C1125 C1145 1.449 . S
C1126 C1125 1.258 . S
C1126 C1127 1.477 . S
C1126 H1146 0.931 . S
C1127 C1123 1.460 . S
C1127 C1126 1.477 . S
C1127 H1147 0.930 . S
C1128 N1124 1.362 . S
C1128 C1125 1.431 . S
C1128 C1138 1.476 . S
H1129 C1123 0.929 . S
C1130 O1121 1.250 . S
C1130 O1122 1.258 . S
O1131 Mn1116 2.162 . S
O1131 C1119 1.281 . S
O1132 Mn1116 2.297 . S
O1132 C1119 1.236 . S
N1133 Mn1117 2.282 . S
N1133 C1134 1.328 . S
N1133 C1138 1.318 . S
C1134 N1133 1.328 . S
C1134 C1135 1.457 . S
C1134 H1139 0.929 . S
C1135 C1134 1.457 . S
C1135 C1136 1.291 . S
C1135 H1148 0.931 . S
C1136 C1135 1.291 . S
C1136 C1137 1.373 . S
C1136 H1149 0.929 . S
C1137 C1136 1.373 . S
C1137 C1138 1.396 . S
C1137 C1144 1.403 . S
C1138 C1128 1.476 . S
C1138 N1133 1.318 . S
C1138 C1137 1.396 . S
H1139 C1134 0.929 . S
O1140 Mn1116 2.385 . S
O1140 C1118 1.234 . S
O1141 Mn1116 2.209 . S
O1141 Mn1117 2.215 . S
O1141 C1118 1.283 . S
O1142 Mn1116 2.094 . S
O1142 C1120 1.240 . S
O1143 Mn1117 2.117 . S
O1143 C1120 1.264 . S
C1144 C1137 1.403 . S
C1144 C1145 1.399 . S
C1144 H1150 0.929 . S
C1145 C1125 1.449 . S
C1145 C1144 1.399 . S
C1145 H1151 0.930 . S
H1146 C1126 0.931 . S
H1147 C1127 0.930 . S
H1148 C1135 0.931 . S
H1149 C1136 0.929 . S
H1150 C1144 0.929 . S
H1151 C1145 0.930 . S
Mn1152 O1157 2.095 . S
Mn1152 O1167 2.162 1_554 S
Mn1152 O1168 2.297 . S
Mn1152 O1176 2.385 . S
Mn1152 O1177 2.209 . S
Mn1152 O1178 2.094 . S
Mn1153 O1158 2.121 . S
Mn1153 N1160 2.257 . S
Mn1153 N1169 2.282 . S
Mn1153 O1177 2.215 . S
Mn1153 O1179 2.117 . S
C1154 O1176 1.234 . S
C1154 O1177 1.283 . S
C1155 O1167 1.277 1_554 S
C1155 O1168 1.244 . S
C1156 O1178 1.240 . S
C1156 O1179 1.264 . S
O1157 Mn1152 2.095 . S
O1157 C1166 1.250 . S
O1158 Mn1153 2.121 . S
O1158 C1166 1.258 . S
C1159 N1160 1.326 . S
C1159 C1163 1.460 . S
C1159 H1165 0.929 . S
N1160 Mn1153 2.257 . S
N1160 C1159 1.326 . S
N1160 C1164 1.362 . S
C1161 C1162 1.258 . S
C1161 C1164 1.431 . S
C1161 C1181 1.449 . S
C1162 C1161 1.258 . S
C1162 C1163 1.477 . S
C1162 H1182 0.931 . S
C1163 C1159 1.460 . S
C1163 C1162 1.477 . S
C1163 H1183 0.930 . S
C1164 N1160 1.362 . S
C1164 C1161 1.431 . S
C1164 C1174 1.476 . S
H1165 C1159 0.929 . S
C1166 O1157 1.250 . S
C1166 O1158 1.258 . S
O1167 Mn1152 2.162 1_556 S
O1167 C1155 1.277 1_556 S
O1168 Mn1152 2.297 . S
O1168 C1155 1.244 . S
N1169 Mn1153 2.282 . S
N1169 C1170 1.328 . S
N1169 C1174 1.318 . S
C1170 N1169 1.328 . S
C1170 C1171 1.457 . S
C1170 H1175 0.929 . S
C1171 C1170 1.457 . S
C1171 C1172 1.291 . S
C1171 H1184 0.931 . S
C1172 C1171 1.291 . S
C1172 C1173 1.373 . S
C1172 H1185 0.929 . S
C1173 C1172 1.373 . S
C1173 C1174 1.396 . S
C1173 C1180 1.403 . S
C1174 C1164 1.476 . S
C1174 N1169 1.318 . S
C1174 C1173 1.396 . S
H1175 C1170 0.929 . S
O1176 Mn1152 2.385 . S
O1176 C1154 1.234 . S
O1177 Mn1152 2.209 . S
O1177 Mn1153 2.215 . S
O1177 C1154 1.283 . S
O1178 Mn1152 2.094 . S
O1178 C1156 1.240 . S
O1179 Mn1153 2.117 . S
O1179 C1156 1.264 . S
C1180 C1173 1.403 . S
C1180 C1181 1.399 . S
C1180 H1186 0.929 . S
C1181 C1161 1.449 . S
C1181 C1180 1.399 . S
C1181 H1187 0.930 . S
H1182 C1162 0.931 . S
H1183 C1163 0.930 . S
H1184 C1171 0.931 . S
H1185 C1172 0.929 . S
H1186 C1180 0.929 . S
H1187 C1181 0.930 . S
Mn1188 O1193 2.095 . S
Mn1188 O1203 2.162 . S
Mn1188 O1204 2.297 . S
Mn1188 O1212 2.385 . S
Mn1188 O1213 2.209 . S
Mn1188 O1214 2.094 . S
Mn1189 O1194 2.121 . S
Mn1189 N1196 2.257 . S
Mn1189 N1205 2.282 . S
Mn1189 O1213 2.215 . S
Mn1189 O1215 2.117 . S
C1190 O1212 1.234 . S
C1190 O1213 1.283 . S
C1191 O1203 1.281 . S
C1191 O1204 1.236 . S
C1192 O1214 1.240 . S
C1192 O1215 1.264 . S
O1193 Mn1188 2.095 . S
O1193 C1202 1.250 . S
O1194 Mn1189 2.121 . S
O1194 C1202 1.258 . S
C1195 N1196 1.326 . S
C1195 C1199 1.460 . S
C1195 H1201 0.929 . S
N1196 Mn1189 2.257 . S
N1196 C1195 1.326 . S
N1196 C1200 1.362 . S
C1197 C1198 1.258 . S
C1197 C1200 1.431 . S
C1197 C1217 1.449 . S
C1198 C1197 1.258 . S
C1198 C1199 1.477 . S
C1198 H1218 0.931 . S
C1199 C1195 1.460 . S
C1199 C1198 1.477 . S
C1199 H1219 0.930 . S
C1200 N1196 1.362 . S
C1200 C1197 1.431 . S
C1200 C1210 1.476 . S
H1201 C1195 0.929 . S
C1202 O1193 1.250 . S
C1202 O1194 1.258 . S
O1203 Mn1188 2.162 . S
O1203 C1191 1.281 . S
O1204 Mn1188 2.297 . S
O1204 C1191 1.236 . S
N1205 Mn1189 2.282 . S
N1205 C1206 1.328 . S
N1205 C1210 1.318 . S
C1206 N1205 1.328 . S
C1206 C1207 1.457 . S
C1206 H1211 0.929 . S
C1207 C1206 1.457 . S
C1207 C1208 1.291 . S
C1207 H1220 0.931 . S
C1208 C1207 1.291 . S
C1208 C1209 1.373 . S
C1208 H1221 0.929 . S
C1209 C1208 1.373 . S
C1209 C1210 1.396 . S
C1209 C1216 1.403 . S
C1210 C1200 1.476 . S
C1210 N1205 1.318 . S
C1210 C1209 1.396 . S
H1211 C1206 0.929 . S
O1212 Mn1188 2.385 . S
O1212 C1190 1.234 . S
O1213 Mn1188 2.209 . S
O1213 Mn1189 2.215 . S
O1213 C1190 1.283 . S
O1214 Mn1188 2.094 . S
O1214 C1192 1.240 . S
O1215 Mn1189 2.117 . S
O1215 C1192 1.264 . S
C1216 C1209 1.403 . S
C1216 C1217 1.399 . S
C1216 H1222 0.929 . S
C1217 C1197 1.449 . S
C1217 C1216 1.399 . S
C1217 H1223 0.930 . S
H1218 C1198 0.931 . S
H1219 C1199 0.930 . S
H1220 C1207 0.931 . S
H1221 C1208 0.929 . S
H1222 C1216 0.929 . S
H1223 C1217 0.930 . S
Mn1224 O1229 2.095 . S
Mn1224 O1239 2.162 . S
Mn1224 O1240 2.297 . S
Mn1224 O1248 2.385 . S
Mn1224 O1249 2.209 . S
Mn1224 O1250 2.094 . S
Mn1225 O1230 2.121 . S
Mn1225 N1232 2.257 . S
Mn1225 N1241 2.282 . S
Mn1225 O1249 2.215 . S
Mn1225 O1251 2.117 . S
C1226 O1248 1.234 . S
C1226 O1249 1.283 . S
C1227 O1239 1.281 . S
C1227 O1240 1.236 . S
C1228 O1250 1.240 . S
C1228 O1251 1.264 . S
O1229 Mn1224 2.095 . S
O1229 C1238 1.250 . S
O1230 Mn1225 2.121 . S
O1230 C1238 1.258 . S
C1231 N1232 1.326 . S
C1231 C1235 1.460 . S
C1231 H1237 0.929 . S
N1232 Mn1225 2.257 . S
N1232 C1231 1.326 . S
N1232 C1236 1.362 . S
C1233 C1234 1.258 . S
C1233 C1236 1.431 . S
C1233 C1253 1.449 . S
C1234 C1233 1.258 . S
C1234 C1235 1.477 . S
C1234 H1254 0.931 . S
C1235 C1231 1.460 . S
C1235 C1234 1.477 . S
C1235 H1255 0.930 . S
C1236 N1232 1.362 . S
C1236 C1233 1.431 . S
C1236 C1246 1.476 . S
H1237 C1231 0.929 . S
C1238 O1229 1.250 . S
C1238 O1230 1.258 . S
O1239 Mn1224 2.162 . S
O1239 C1227 1.281 . S
O1240 Mn1224 2.297 . S
O1240 C1227 1.236 . S
N1241 Mn1225 2.282 . S
N1241 C1242 1.328 . S
N1241 C1246 1.318 . S
C1242 N1241 1.328 . S
C1242 C1243 1.457 . S
C1242 H1247 0.929 . S
C1243 C1242 1.457 . S
C1243 C1244 1.291 . S
C1243 H1256 0.931 . S
C1244 C1243 1.291 . S
C1244 C1245 1.373 . S
C1244 H1257 0.929 . S
C1245 C1244 1.373 . S
C1245 C1246 1.396 . S
C1245 C1252 1.403 . S
C1246 C1236 1.476 . S
C1246 N1241 1.318 . S
C1246 C1245 1.396 . S
H1247 C1242 0.929 . S
O1248 Mn1224 2.385 . S
O1248 C1226 1.234 . S
O1249 Mn1224 2.209 . S
O1249 Mn1225 2.215 . S
O1249 C1226 1.283 . S
O1250 Mn1224 2.094 . S
O1250 C1228 1.240 . S
O1251 Mn1225 2.117 . S
O1251 C1228 1.264 . S
C1252 C1245 1.403 . S
C1252 C1253 1.399 . S
C1252 H1258 0.929 . S
C1253 C1233 1.449 . S
C1253 C1252 1.399 . S
C1253 H1259 0.930 . S
H1254 C1234 0.931 . S
H1255 C1235 0.930 . S
H1256 C1243 0.931 . S
H1257 C1244 0.929 . S
H1258 C1252 0.929 . S
H1259 C1253 0.930 . S
Mn1260 O1265 2.095 . S
Mn1260 O1275 2.162 . S
Mn1260 O1276 2.297 . S
Mn1260 O1284 2.385 . S
Mn1260 O1285 2.209 . S
Mn1260 O1286 2.094 . S
Mn1261 O1266 2.121 . S
Mn1261 N1268 2.257 . S
Mn1261 N1277 2.282 . S
Mn1261 O1285 2.215 . S
Mn1261 O1287 2.117 . S
C1262 O1284 1.234 . S
C1262 O1285 1.283 . S
C1263 O1275 1.281 . S
C1263 O1276 1.236 . S
C1264 O1286 1.240 . S
C1264 O1287 1.264 . S
O1265 Mn1260 2.095 . S
O1265 C1274 1.250 . S
O1266 Mn1261 2.121 . S
O1266 C1274 1.258 . S
C1267 N1268 1.326 . S
C1267 C1271 1.460 . S
C1267 H1273 0.929 . S
N1268 Mn1261 2.257 . S
N1268 C1267 1.326 . S
N1268 C1272 1.362 . S
C1269 C1270 1.258 . S
C1269 C1272 1.431 . S
C1269 C1289 1.449 . S
C1270 C1269 1.258 . S
C1270 C1271 1.477 . S
C1270 H1290 0.931 . S
C1271 C1267 1.460 . S
C1271 C1270 1.477 . S
C1271 H1291 0.930 . S
C1272 N1268 1.362 . S
C1272 C1269 1.431 . S
C1272 C1282 1.476 . S
H1273 C1267 0.929 . S
C1274 O1265 1.250 . S
C1274 O1266 1.258 . S
O1275 Mn1260 2.162 . S
O1275 C1263 1.281 . S
O1276 Mn1260 2.297 . S
O1276 C1263 1.236 . S
N1277 Mn1261 2.282 . S
N1277 C1278 1.328 . S
N1277 C1282 1.318 . S
C1278 N1277 1.328 . S
C1278 C1279 1.457 . S
C1278 H1283 0.929 . S
C1279 C1278 1.457 . S
C1279 C1280 1.291 . S
C1279 H1292 0.931 . S
C1280 C1279 1.291 . S
C1280 C1281 1.373 . S
C1280 H1293 0.929 . S
C1281 C1280 1.373 . S
C1281 C1282 1.396 . S
C1281 C1288 1.403 . S
C1282 C1272 1.476 . S
C1282 N1277 1.318 . S
C1282 C1281 1.396 . S
H1283 C1278 0.929 . S
O1284 Mn1260 2.385 . S
O1284 C1262 1.234 . S
O1285 Mn1260 2.209 . S
O1285 Mn1261 2.215 . S
O1285 C1262 1.283 . S
O1286 Mn1260 2.094 . S
O1286 C1264 1.240 . S
O1287 Mn1261 2.117 . S
O1287 C1264 1.264 . S
C1288 C1281 1.403 . S
C1288 C1289 1.399 . S
C1288 H1294 0.929 . S
C1289 C1269 1.449 . S
C1289 C1288 1.399 . S
C1289 H1295 0.930 . S
H1290 C1270 0.931 . S
H1291 C1271 0.930 . S
H1292 C1279 0.931 . S
H1293 C1280 0.929 . S
H1294 C1288 0.929 . S
H1295 C1289 0.930 . S
Mn1296 O1301 2.095 . S
Mn1296 O1311 2.162 1_556 S
Mn1296 O1312 2.297 . S
Mn1296 O1320 2.385 . S
Mn1296 O1321 2.209 . S
Mn1296 O1322 2.094 . S
Mn1297 O1302 2.121 . S
Mn1297 N1304 2.257 . S
Mn1297 N1313 2.282 . S
Mn1297 O1321 2.215 . S
Mn1297 O1323 2.117 . S
C1298 O1320 1.234 . S
C1298 O1321 1.283 . S
C1299 O1311 1.277 1_556 S
C1299 O1312 1.244 . S
C1300 O1322 1.240 . S
C1300 O1323 1.264 . S
O1301 Mn1296 2.095 . S
O1301 C1310 1.250 . S
O1302 Mn1297 2.121 . S
O1302 C1310 1.258 . S
C1303 N1304 1.326 . S
C1303 C1307 1.460 . S
C1303 H1309 0.929 . S
N1304 Mn1297 2.257 . S
N1304 C1303 1.326 . S
N1304 C1308 1.362 . S
C1305 C1306 1.258 . S
C1305 C1308 1.431 . S
C1305 C1325 1.449 . S
C1306 C1305 1.258 . S
C1306 C1307 1.477 . S
C1306 H1326 0.931 . S
C1307 C1303 1.460 . S
C1307 C1306 1.477 . S
C1307 H1327 0.930 . S
C1308 N1304 1.362 . S
C1308 C1305 1.431 . S
C1308 C1318 1.476 . S
H1309 C1303 0.929 . S
C1310 O1301 1.250 . S
C1310 O1302 1.258 . S
O1311 Mn1296 2.162 1_554 S
O1311 C1299 1.277 1_554 S
O1312 Mn1296 2.297 . S
O1312 C1299 1.244 . S
N1313 Mn1297 2.282 . S
N1313 C1314 1.328 . S
N1313 C1318 1.318 . S
C1314 N1313 1.328 . S
C1314 C1315 1.457 . S
C1314 H1319 0.929 . S
C1315 C1314 1.457 . S
C1315 C1316 1.291 . S
C1315 H1328 0.931 . S
C1316 C1315 1.291 . S
C1316 C1317 1.373 . S
C1316 H1329 0.929 . S
C1317 C1316 1.373 . S
C1317 C1318 1.396 . S
C1317 C1324 1.403 . S
C1318 C1308 1.476 . S
C1318 N1313 1.318 . S
C1318 C1317 1.396 . S
H1319 C1314 0.929 . S
O1320 Mn1296 2.385 . S
O1320 C1298 1.234 . S
O1321 Mn1296 2.209 . S
O1321 Mn1297 2.215 . S
O1321 C1298 1.283 . S
O1322 Mn1296 2.094 . S
O1322 C1300 1.240 . S
O1323 Mn1297 2.117 . S
O1323 C1300 1.264 . S
C1324 C1317 1.403 . S
C1324 C1325 1.399 . S
C1324 H1330 0.929 . S
C1325 C1305 1.449 . S
C1325 C1324 1.399 . S
C1325 H1331 0.930 . S
H1326 C1306 0.931 . S
H1327 C1307 0.930 . S
H1328 C1315 0.931 . S
H1329 C1316 0.929 . S
H1330 C1324 0.929 . S
H1331 C1325 0.930 . S
Mn1332 O1337 2.095 . S
Mn1332 O1347 2.162 . S
Mn1332 O1348 2.297 . S
Mn1332 O1356 2.385 . S
Mn1332 O1357 2.209 . S
Mn1332 O1358 2.094 . S
Mn1333 O1338 2.121 . S
Mn1333 N1340 2.257 . S
Mn1333 N1349 2.282 . S
Mn1333 O1357 2.215 . S
Mn1333 O1359 2.117 . S
C1334 O1356 1.234 . S
C1334 O1357 1.283 . S
C1335 O1347 1.281 . S
C1335 O1348 1.236 . S
C1336 O1358 1.240 . S
C1336 O1359 1.264 . S
O1337 Mn1332 2.095 . S
O1337 C1346 1.250 . S
O1338 Mn1333 2.121 . S
O1338 C1346 1.258 . S
C1339 N1340 1.326 . S
C1339 C1343 1.460 . S
C1339 H1345 0.929 . S
N1340 Mn1333 2.257 . S
N1340 C1339 1.326 . S
N1340 C1344 1.362 . S
C1341 C1342 1.258 . S
C1341 C1344 1.431 . S
C1341 C1361 1.449 . S
C1342 C1341 1.258 . S
C1342 C1343 1.477 . S
C1342 H1362 0.931 . S
C1343 C1339 1.460 . S
C1343 C1342 1.477 . S
C1343 H1363 0.930 . S
C1344 N1340 1.362 . S
C1344 C1341 1.431 . S
C1344 C1354 1.476 . S
H1345 C1339 0.929 . S
C1346 O1337 1.250 . S
C1346 O1338 1.258 . S
O1347 Mn1332 2.162 . S
O1347 C1335 1.281 . S
O1348 Mn1332 2.297 . S
O1348 C1335 1.236 . S
N1349 Mn1333 2.282 . S
N1349 C1350 1.328 . S
N1349 C1354 1.318 . S
C1350 N1349 1.328 . S
C1350 C1351 1.457 . S
C1350 H1355 0.929 . S
C1351 C1350 1.457 . S
C1351 C1352 1.291 . S
C1351 H1364 0.931 . S
C1352 C1351 1.291 . S
C1352 C1353 1.373 . S
C1352 H1365 0.929 . S
C1353 C1352 1.373 . S
C1353 C1354 1.396 . S
C1353 C1360 1.403 . S
C1354 C1344 1.476 . S
C1354 N1349 1.318 . S
C1354 C1353 1.396 . S
H1355 C1350 0.929 . S
O1356 Mn1332 2.385 . S
O1356 C1334 1.234 . S
O1357 Mn1332 2.209 . S
O1357 Mn1333 2.215 . S
O1357 C1334 1.283 . S
O1358 Mn1332 2.094 . S
O1358 C1336 1.240 . S
O1359 Mn1333 2.117 . S
O1359 C1336 1.264 . S
C1360 C1353 1.403 . S
C1360 C1361 1.399 . S
C1360 H1366 0.929 . S
C1361 C1341 1.449 . S
C1361 C1360 1.399 . S
C1361 H1367 0.930 . S
H1362 C1342 0.931 . S
H1363 C1343 0.930 . S
H1364 C1351 0.931 . S
H1365 C1352 0.929 . S
H1366 C1360 0.929 . S
H1367 C1361 0.930 . S
Mn1368 O1373 2.095 . S
Mn1368 O1383 2.162 . S
Mn1368 O1384 2.297 . S
Mn1368 O1392 2.385 . S
Mn1368 O1393 2.209 . S
Mn1368 O1394 2.094 . S
Mn1369 O1374 2.121 . S
Mn1369 N1376 2.257 . S
Mn1369 N1385 2.282 . S
Mn1369 O1393 2.215 . S
Mn1369 O1395 2.117 . S
C1370 O1392 1.234 . S
C1370 O1393 1.283 . S
C1371 O1383 1.281 . S
C1371 O1384 1.236 . S
C1372 O1394 1.240 . S
C1372 O1395 1.264 . S
O1373 Mn1368 2.095 . S
O1373 C1382 1.250 . S
O1374 Mn1369 2.121 . S
O1374 C1382 1.258 . S
C1375 N1376 1.326 . S
C1375 C1379 1.460 . S
C1375 H1381 0.929 . S
N1376 Mn1369 2.257 . S
N1376 C1375 1.326 . S
N1376 C1380 1.362 . S
C1377 C1378 1.258 . S
C1377 C1380 1.431 . S
C1377 C1397 1.449 . S
C1378 C1377 1.258 . S
C1378 C1379 1.477 . S
C1378 H1398 0.931 . S
C1379 C1375 1.460 . S
C1379 C1378 1.477 . S
C1379 H1399 0.930 . S
C1380 N1376 1.362 . S
C1380 C1377 1.431 . S
C1380 C1390 1.476 . S
H1381 C1375 0.929 . S
C1382 O1373 1.250 . S
C1382 O1374 1.258 . S
O1383 Mn1368 2.162 . S
O1383 C1371 1.281 . S
O1384 Mn1368 2.297 . S
O1384 C1371 1.236 . S
N1385 Mn1369 2.282 . S
N1385 C1386 1.328 . S
N1385 C1390 1.318 . S
C1386 N1385 1.328 . S
C1386 C1387 1.457 . S
C1386 H1391 0.929 . S
C1387 C1386 1.457 . S
C1387 C1388 1.291 . S
C1387 H1400 0.931 . S
C1388 C1387 1.291 . S
C1388 C1389 1.373 . S
C1388 H1401 0.929 . S
C1389 C1388 1.373 . S
C1389 C1390 1.396 . S
C1389 C1396 1.403 . S
C1390 C1380 1.476 . S
C1390 N1385 1.318 . S
C1390 C1389 1.396 . S
H1391 C1386 0.929 . S
O1392 Mn1368 2.385 . S
O1392 C1370 1.234 . S
O1393 Mn1368 2.209 . S
O1393 Mn1369 2.215 . S
O1393 C1370 1.283 . S
O1394 Mn1368 2.094 . S
O1394 C1372 1.240 . S
O1395 Mn1369 2.117 . S
O1395 C1372 1.264 . S
C1396 C1389 1.403 . S
C1396 C1397 1.399 . S
C1396 H1402 0.929 . S
C1397 C1377 1.449 . S
C1397 C1396 1.399 . S
C1397 H1403 0.930 . S
H1398 C1378 0.931 . S
H1399 C1379 0.930 . S
H1400 C1387 0.931 . S
H1401 C1388 0.929 . S
H1402 C1396 0.929 . S
H1403 C1397 0.930 . S
Mn1404 O1409 2.095 . S
Mn1404 O1419 2.162 . S
Mn1404 O1420 2.297 . S
Mn1404 O1428 2.385 . S
Mn1404 O1429 2.209 . S
Mn1404 O1430 2.094 . S
Mn1405 O1410 2.121 . S
Mn1405 N1412 2.257 . S
Mn1405 N1421 2.282 . S
Mn1405 O1429 2.215 . S
Mn1405 O1431 2.117 . S
C1406 O1428 1.234 . S
C1406 O1429 1.283 . S
C1407 O1419 1.281 . S
C1407 O1420 1.236 . S
C1408 O1430 1.240 . S
C1408 O1431 1.264 . S
O1409 Mn1404 2.095 . S
O1409 C1418 1.250 . S
O1410 Mn1405 2.121 . S
O1410 C1418 1.258 . S
C1411 N1412 1.326 . S
C1411 C1415 1.460 . S
C1411 H1417 0.929 . S
N1412 Mn1405 2.257 . S
N1412 C1411 1.326 . S
N1412 C1416 1.362 . S
C1413 C1414 1.258 . S
C1413 C1416 1.431 . S
C1413 C1433 1.449 . S
C1414 C1413 1.258 . S
C1414 C1415 1.477 . S
C1414 H1434 0.931 . S
C1415 C1411 1.460 . S
C1415 C1414 1.477 . S
C1415 H1435 0.930 . S
C1416 N1412 1.362 . S
C1416 C1413 1.431 . S
C1416 C1426 1.476 . S
H1417 C1411 0.929 . S
C1418 O1409 1.250 . S
C1418 O1410 1.258 . S
O1419 Mn1404 2.162 . S
O1419 C1407 1.281 . S
O1420 Mn1404 2.297 . S
O1420 C1407 1.236 . S
N1421 Mn1405 2.282 . S
N1421 C1422 1.328 . S
N1421 C1426 1.318 . S
C1422 N1421 1.328 . S
C1422 C1423 1.457 . S
C1422 H1427 0.929 . S
C1423 C1422 1.457 . S
C1423 C1424 1.291 . S
C1423 H1436 0.931 . S
C1424 C1423 1.291 . S
C1424 C1425 1.373 . S
C1424 H1437 0.929 . S
C1425 C1424 1.373 . S
C1425 C1426 1.396 . S
C1425 C1432 1.403 . S
C1426 C1416 1.476 . S
C1426 N1421 1.318 . S
C1426 C1425 1.396 . S
H1427 C1422 0.929 . S
O1428 Mn1404 2.385 . S
O1428 C1406 1.234 . S
O1429 Mn1404 2.209 . S
O1429 Mn1405 2.215 . S
O1429 C1406 1.283 . S
O1430 Mn1404 2.094 . S
O1430 C1408 1.240 . S
O1431 Mn1405 2.117 . S
O1431 C1408 1.264 . S
C1432 C1425 1.403 . S
C1432 C1433 1.399 . S
C1432 H1438 0.929 . S
C1433 C1413 1.449 . S
C1433 C1432 1.399 . S
C1433 H1439 0.930 . S
H1434 C1414 0.931 . S
H1435 C1415 0.930 . S
H1436 C1423 0.931 . S
H1437 C1424 0.929 . S
H1438 C1432 0.929 . S
H1439 C1433 0.930 . S
Mn1440 O1445 2.095 . S
Mn1440 O1455 2.162 . S
Mn1440 O1456 2.297 . S
Mn1440 O1464 2.385 . S
Mn1440 O1465 2.209 . S
Mn1440 O1466 2.094 . S
Mn1441 O1446 2.121 . S
Mn1441 N1448 2.257 . S
Mn1441 N1457 2.282 . S
Mn1441 O1465 2.215 . S
Mn1441 O1467 2.117 . S
C1442 O1464 1.234 . S
C1442 O1465 1.283 . S
C1443 O1455 1.281 . S
C1443 O1456 1.236 . S
C1444 O1466 1.240 . S
C1444 O1467 1.264 . S
O1445 Mn1440 2.095 . S
O1445 C1454 1.250 . S
O1446 Mn1441 2.121 . S
O1446 C1454 1.258 . S
C1447 N1448 1.326 . S
C1447 C1451 1.460 . S
C1447 H1453 0.929 . S
N1448 Mn1441 2.257 . S
N1448 C1447 1.326 . S
N1448 C1452 1.362 . S
C1449 C1450 1.258 . S
C1449 C1452 1.431 . S
C1449 C1469 1.449 . S
C1450 C1449 1.258 . S
C1450 C1451 1.477 . S
C1450 H1470 0.931 . S
C1451 C1447 1.460 . S
C1451 C1450 1.477 . S
C1451 H1471 0.930 . S
C1452 N1448 1.362 . S
C1452 C1449 1.431 . S
C1452 C1462 1.476 . S
H1453 C1447 0.929 . S
C1454 O1445 1.250 . S
C1454 O1446 1.258 . S
O1455 Mn1440 2.162 . S
O1455 C1443 1.281 . S
O1456 Mn1440 2.297 . S
O1456 C1443 1.236 . S
N1457 Mn1441 2.282 . S
N1457 C1458 1.328 . S
N1457 C1462 1.318 . S
C1458 N1457 1.328 . S
C1458 C1459 1.457 . S
C1458 H1463 0.929 . S
C1459 C1458 1.457 . S
C1459 C1460 1.291 . S
C1459 H1472 0.931 . S
C1460 C1459 1.291 . S
C1460 C1461 1.373 . S
C1460 H1473 0.929 . S
C1461 C1460 1.373 . S
C1461 C1462 1.396 . S
C1461 C1468 1.403 . S
C1462 C1452 1.476 . S
C1462 N1457 1.318 . S
C1462 C1461 1.396 . S
H1463 C1458 0.929 . S
O1464 Mn1440 2.385 . S
O1464 C1442 1.234 . S
O1465 Mn1440 2.209 . S
O1465 Mn1441 2.215 . S
O1465 C1442 1.283 . S
O1466 Mn1440 2.094 . S
O1466 C1444 1.240 . S
O1467 Mn1441 2.117 . S
O1467 C1444 1.264 . S
C1468 C1461 1.403 . S
C1468 C1469 1.399 . S
C1468 H1474 0.929 . S
C1469 C1449 1.449 . S
C1469 C1468 1.399 . S
C1469 H1475 0.930 . S
H1470 C1450 0.931 . S
H1471 C1451 0.930 . S
H1472 C1459 0.931 . S
H1473 C1460 0.929 . S
H1474 C1468 0.929 . S
H1475 C1469 0.930 . S
Mn1476 O1481 2.095 . S
Mn1476 O1491 2.162 1_455 S
Mn1476 O1492 2.297 . S
Mn1476 O1500 2.385 . S
Mn1476 O1501 2.209 . S
Mn1476 O1502 2.094 . S
Mn1477 O1482 2.121 . S
Mn1477 N1484 2.257 . S
Mn1477 N1493 2.282 . S
Mn1477 O1501 2.215 . S
Mn1477 O1503 2.117 . S
C1478 O1500 1.234 . S
C1478 O1501 1.283 . S
C1479 O1491 1.277 1_455 S
C1479 O1492 1.244 . S
C1480 O1502 1.240 . S
C1480 O1503 1.264 . S
O1481 Mn1476 2.095 . S
O1481 C1490 1.250 . S
O1482 Mn1477 2.121 . S
O1482 C1490 1.258 . S
C1483 N1484 1.326 . S
C1483 C1487 1.460 . S
C1483 H1489 0.929 . S
N1484 Mn1477 2.257 . S
N1484 C1483 1.326 . S
N1484 C1488 1.362 . S
C1485 C1486 1.258 . S
C1485 C1488 1.431 . S
C1485 C1505 1.449 . S
C1486 C1485 1.258 . S
C1486 C1487 1.477 . S
C1486 H1506 0.931 . S
C1487 C1483 1.460 . S
C1487 C1486 1.477 . S
C1487 H1507 0.930 . S
C1488 N1484 1.362 . S
C1488 C1485 1.431 . S
C1488 C1498 1.476 . S
H1489 C1483 0.929 . S
C1490 O1481 1.250 . S
C1490 O1482 1.258 . S
O1491 Mn1476 2.162 1_655 S
O1491 C1479 1.277 1_655 S
O1492 Mn1476 2.297 . S
O1492 C1479 1.244 . S
N1493 Mn1477 2.282 . S
N1493 C1494 1.328 . S
N1493 C1498 1.318 . S
C1494 N1493 1.328 . S
C1494 C1495 1.457 . S
C1494 H1499 0.929 . S
C1495 C1494 1.457 . S
C1495 C1496 1.291 . S
C1495 H1508 0.931 . S
C1496 C1495 1.291 . S
C1496 C1497 1.373 . S
C1496 H1509 0.929 . S
C1497 C1496 1.373 . S
C1497 C1498 1.396 . S
C1497 C1504 1.403 . S
C1498 C1488 1.476 . S
C1498 N1493 1.318 . S
C1498 C1497 1.396 . S
H1499 C1494 0.929 . S
O1500 Mn1476 2.385 . S
O1500 C1478 1.234 . S
O1501 Mn1476 2.209 . S
O1501 Mn1477 2.215 . S
O1501 C1478 1.283 . S
O1502 Mn1476 2.094 . S
O1502 C1480 1.240 . S
O1503 Mn1477 2.117 . S
O1503 C1480 1.264 . S
C1504 C1497 1.403 . S
C1504 C1505 1.399 . S
C1504 H1510 0.929 . S
C1505 C1485 1.449 . S
C1505 C1504 1.399 . S
C1505 H1511 0.930 . S
H1506 C1486 0.931 . S
H1507 C1487 0.930 . S
H1508 C1495 0.931 . S
H1509 C1496 0.929 . S
H1510 C1504 0.929 . S
H1511 C1505 0.930 . S
Mn1512 O1517 2.095 . S
Mn1512 O1527 2.162 . S
Mn1512 O1528 2.297 . S
Mn1512 O1536 2.385 . S
Mn1512 O1537 2.209 . S
Mn1512 O1538 2.094 . S
Mn1513 O1518 2.121 . S
Mn1513 N1520 2.257 . S
Mn1513 N1529 2.282 . S
Mn1513 O1537 2.215 . S
Mn1513 O1539 2.117 . S
C1514 O1536 1.234 . S
C1514 O1537 1.283 . S
C1515 O1527 1.281 . S
C1515 O1528 1.236 . S
C1516 O1538 1.240 . S
C1516 O1539 1.264 . S
O1517 Mn1512 2.095 . S
O1517 C1526 1.250 . S
O1518 Mn1513 2.121 . S
O1518 C1526 1.258 . S
C1519 N1520 1.326 . S
C1519 C1523 1.460 . S
C1519 H1525 0.929 . S
N1520 Mn1513 2.257 . S
N1520 C1519 1.326 . S
N1520 C1524 1.362 . S
C1521 C1522 1.258 . S
C1521 C1524 1.431 . S
C1521 C1541 1.449 . S
C1522 C1521 1.258 . S
C1522 C1523 1.477 . S
C1522 H1542 0.931 . S
C1523 C1519 1.460 . S
C1523 C1522 1.477 . S
C1523 H1543 0.930 . S
C1524 N1520 1.362 . S
C1524 C1521 1.431 . S
C1524 C1534 1.476 . S
H1525 C1519 0.929 . S
C1526 O1517 1.250 . S
C1526 O1518 1.258 . S
O1527 Mn1512 2.162 . S
O1527 C1515 1.281 . S
O1528 Mn1512 2.297 . S
O1528 C1515 1.236 . S
N1529 Mn1513 2.282 . S
N1529 C1530 1.328 . S
N1529 C1534 1.318 . S
C1530 N1529 1.328 . S
C1530 C1531 1.457 . S
C1530 H1535 0.929 . S
C1531 C1530 1.457 . S
C1531 C1532 1.291 . S
C1531 H1544 0.931 . S
C1532 C1531 1.291 . S
C1532 C1533 1.373 . S
C1532 H1545 0.929 . S
C1533 C1532 1.373 . S
C1533 C1534 1.396 . S
C1533 C1540 1.403 . S
C1534 C1524 1.476 . S
C1534 N1529 1.318 . S
C1534 C1533 1.396 . S
H1535 C1530 0.929 . S
O1536 Mn1512 2.385 . S
O1536 C1514 1.234 . S
O1537 Mn1512 2.209 . S
O1537 Mn1513 2.215 . S
O1537 C1514 1.283 . S
O1538 Mn1512 2.094 . S
O1538 C1516 1.240 . S
O1539 Mn1513 2.117 . S
O1539 C1516 1.264 . S
C1540 C1533 1.403 . S
C1540 C1541 1.399 . S
C1540 H1546 0.929 . S
C1541 C1521 1.449 . S
C1541 C1540 1.399 . S
C1541 H1547 0.930 . S
H1542 C1522 0.931 . S
H1543 C1523 0.930 . S
H1544 C1531 0.931 . S
H1545 C1532 0.929 . S
H1546 C1540 0.929 . S
H1547 C1541 0.930 . S
Mn1548 O1553 2.095 . S
Mn1548 O1563 2.162 1_655 S
Mn1548 O1564 2.297 . S
Mn1548 O1572 2.385 . S
Mn1548 O1573 2.209 . S
Mn1548 O1574 2.094 . S
Mn1549 O1554 2.121 . S
Mn1549 N1556 2.257 . S
Mn1549 N1565 2.282 . S
Mn1549 O1573 2.215 . S
Mn1549 O1575 2.117 . S
C1550 O1572 1.234 . S
C1550 O1573 1.283 . S
C1551 O1563 1.277 1_655 S
C1551 O1564 1.244 . S
C1552 O1574 1.240 . S
C1552 O1575 1.264 . S
O1553 Mn1548 2.095 . S
O1553 C1562 1.250 . S
O1554 Mn1549 2.121 . S
O1554 C1562 1.258 . S
C1555 N1556 1.326 . S
C1555 C1559 1.460 . S
C1555 H1561 0.929 . S
N1556 Mn1549 2.257 . S
N1556 C1555 1.326 . S
N1556 C1560 1.362 . S
C1557 C1558 1.258 . S
C1557 C1560 1.431 . S
C1557 C1577 1.449 . S
C1558 C1557 1.258 . S
C1558 C1559 1.477 . S
C1558 H1578 0.931 . S
C1559 C1555 1.460 . S
C1559 C1558 1.477 . S
C1559 H1579 0.930 . S
C1560 N1556 1.362 . S
C1560 C1557 1.431 . S
C1560 C1570 1.476 . S
H1561 C1555 0.929 . S
C1562 O1553 1.250 . S
C1562 O1554 1.258 . S
O1563 Mn1548 2.162 1_455 S
O1563 C1551 1.277 1_455 S
O1564 Mn1548 2.297 . S
O1564 C1551 1.244 . S
N1565 Mn1549 2.282 . S
N1565 C1566 1.328 . S
N1565 C1570 1.318 . S
C1566 N1565 1.328 . S
C1566 C1567 1.457 . S
C1566 H1571 0.929 . S
C1567 C1566 1.457 . S
C1567 C1568 1.291 . S
C1567 H1580 0.931 . S
C1568 C1567 1.291 . S
C1568 C1569 1.373 . S
C1568 H1581 0.929 . S
C1569 C1568 1.373 . S
C1569 C1570 1.396 . S
C1569 C1576 1.403 . S
C1570 C1560 1.476 . S
C1570 N1565 1.318 . S
C1570 C1569 1.396 . S
H1571 C1566 0.929 . S
O1572 Mn1548 2.385 . S
O1572 C1550 1.234 . S
O1573 Mn1548 2.209 . S
O1573 Mn1549 2.215 . S
O1573 C1550 1.283 . S
O1574 Mn1548 2.094 . S
O1574 C1552 1.240 . S
O1575 Mn1549 2.117 . S
O1575 C1552 1.264 . S
C1576 C1569 1.403 . S
C1576 C1577 1.399 . S
C1576 H1582 0.929 . S
C1577 C1557 1.449 . S
C1577 C1576 1.399 . S
C1577 H1583 0.930 . S
H1578 C1558 0.931 . S
H1579 C1559 0.930 . S
H1580 C1567 0.931 . S
H1581 C1568 0.929 . S
H1582 C1576 0.929 . S
H1583 C1577 0.930 . S
Mn1584 O1589 2.095 . S
Mn1584 O1599 2.162 . S
Mn1584 O1600 2.297 . S
Mn1584 O1608 2.385 . S
Mn1584 O1609 2.209 . S
Mn1584 O1610 2.094 . S
Mn1585 O1590 2.121 . S
Mn1585 N1592 2.257 . S
Mn1585 N1601 2.282 . S
Mn1585 O1609 2.215 . S
Mn1585 O1611 2.117 . S
C1586 O1608 1.234 . S
C1586 O1609 1.283 . S
C1587 O1599 1.281 . S
C1587 O1600 1.236 . S
C1588 O1610 1.240 . S
C1588 O1611 1.264 . S
O1589 Mn1584 2.095 . S
O1589 C1598 1.250 . S
O1590 Mn1585 2.121 . S
O1590 C1598 1.258 . S
C1591 N1592 1.326 . S
C1591 C1595 1.460 . S
C1591 H1597 0.929 . S
N1592 Mn1585 2.257 . S
N1592 C1591 1.326 . S
N1592 C1596 1.362 . S
C1593 C1594 1.258 . S
C1593 C1596 1.431 . S
C1593 C1613 1.449 . S
C1594 C1593 1.258 . S
C1594 C1595 1.477 . S
C1594 H1614 0.931 . S
C1595 C1591 1.460 . S
C1595 C1594 1.477 . S
C1595 H1615 0.930 . S
C1596 N1592 1.362 . S
C1596 C1593 1.431 . S
C1596 C1606 1.476 . S
H1597 C1591 0.929 . S
C1598 O1589 1.250 . S
C1598 O1590 1.258 . S
O1599 Mn1584 2.162 . S
O1599 C1587 1.281 . S
O1600 Mn1584 2.297 . S
O1600 C1587 1.236 . S
N1601 Mn1585 2.282 . S
N1601 C1602 1.328 . S
N1601 C1606 1.318 . S
C1602 N1601 1.328 . S
C1602 C1603 1.457 . S
C1602 H1607 0.929 . S
C1603 C1602 1.457 . S
C1603 C1604 1.291 . S
C1603 H1616 0.931 . S
C1604 C1603 1.291 . S
C1604 C1605 1.373 . S
C1604 H1617 0.929 . S
C1605 C1604 1.373 . S
C1605 C1606 1.396 . S
C1605 C1612 1.403 . S
C1606 C1596 1.476 . S
C1606 N1601 1.318 . S
C1606 C1605 1.396 . S
H1607 C1602 0.929 . S
O1608 Mn1584 2.385 . S
O1608 C1586 1.234 . S
O1609 Mn1584 2.209 . S
O1609 Mn1585 2.215 . S
O1609 C1586 1.283 . S
O1610 Mn1584 2.094 . S
O1610 C1588 1.240 . S
O1611 Mn1585 2.117 . S
O1611 C1588 1.264 . S
C1612 C1605 1.403 . S
C1612 C1613 1.399 . S
C1612 H1618 0.929 . S
C1613 C1593 1.449 . S
C1613 C1612 1.399 . S
C1613 H1619 0.930 . S
H1614 C1594 0.931 . S
H1615 C1595 0.930 . S
H1616 C1603 0.931 . S
H1617 C1604 0.929 . S
H1618 C1612 0.929 . S
H1619 C1613 0.930 . S
Mn1620 O1625 2.095 . S
Mn1620 O1635 2.162 . S
Mn1620 O1636 2.297 . S
Mn1620 O1644 2.385 . S
Mn1620 O1645 2.209 . S
Mn1620 O1646 2.094 . S
Mn1621 O1626 2.121 . S
Mn1621 N1628 2.257 . S
Mn1621 N1637 2.282 . S
Mn1621 O1645 2.215 . S
Mn1621 O1647 2.117 . S
C1622 O1644 1.234 . S
C1622 O1645 1.283 . S
C1623 O1635 1.281 . S
C1623 O1636 1.236 . S
C1624 O1646 1.240 . S
C1624 O1647 1.264 . S
O1625 Mn1620 2.095 . S
O1625 C1634 1.250 . S
O1626 Mn1621 2.121 . S
O1626 C1634 1.258 . S
C1627 N1628 1.326 . S
C1627 C1631 1.460 . S
C1627 H1633 0.929 . S
N1628 Mn1621 2.257 . S
N1628 C1627 1.326 . S
N1628 C1632 1.362 . S
C1629 C1630 1.258 . S
C1629 C1632 1.431 . S
C1629 C1649 1.449 . S
C1630 C1629 1.258 . S
C1630 C1631 1.477 . S
C1630 H1650 0.931 . S
C1631 C1627 1.460 . S
C1631 C1630 1.477 . S
C1631 H1651 0.930 . S
C1632 N1628 1.362 . S
C1632 C1629 1.431 . S
C1632 C1642 1.476 . S
H1633 C1627 0.929 . S
C1634 O1625 1.250 . S
C1634 O1626 1.258 . S
O1635 Mn1620 2.162 . S
O1635 C1623 1.281 . S
O1636 Mn1620 2.297 . S
O1636 C1623 1.236 . S
N1637 Mn1621 2.282 . S
N1637 C1638 1.328 . S
N1637 C1642 1.318 . S
C1638 N1637 1.328 . S
C1638 C1639 1.457 . S
C1638 H1643 0.929 . S
C1639 C1638 1.457 . S
C1639 C1640 1.291 . S
C1639 H1652 0.931 . S
C1640 C1639 1.291 . S
C1640 C1641 1.373 . S
C1640 H1653 0.929 . S
C1641 C1640 1.373 . S
C1641 C1642 1.396 . S
C1641 C1648 1.403 . S
C1642 C1632 1.476 . S
C1642 N1637 1.318 . S
C1642 C1641 1.396 . S
H1643 C1638 0.929 . S
O1644 Mn1620 2.385 . S
O1644 C1622 1.234 . S
O1645 Mn1620 2.209 . S
O1645 Mn1621 2.215 . S
O1645 C1622 1.283 . S
O1646 Mn1620 2.094 . S
O1646 C1624 1.240 . S
O1647 Mn1621 2.117 . S
O1647 C1624 1.264 . S
C1648 C1641 1.403 . S
C1648 C1649 1.399 . S
C1648 H1654 0.929 . S
C1649 C1629 1.449 . S
C1649 C1648 1.399 . S
C1649 H1655 0.930 . S
H1650 C1630 0.931 . S
H1651 C1631 0.930 . S
H1652 C1639 0.931 . S
H1653 C1640 0.929 . S
H1654 C1648 0.929 . S
H1655 C1649 0.930 . S
Mn1656 O1661 2.095 . S
Mn1656 O1671 2.162 . S
Mn1656 O1672 2.297 . S
Mn1656 O1680 2.385 . S
Mn1656 O1681 2.209 . S
Mn1656 O1682 2.094 . S
Mn1657 O1662 2.121 . S
Mn1657 N1664 2.257 . S
Mn1657 N1673 2.282 . S
Mn1657 O1681 2.215 . S
Mn1657 O1683 2.117 . S
C1658 O1680 1.234 . S
C1658 O1681 1.283 . S
C1659 O1671 1.281 . S
C1659 O1672 1.236 . S
C1660 O1682 1.240 . S
C1660 O1683 1.264 . S
O1661 Mn1656 2.095 . S
O1661 C1670 1.250 . S
O1662 Mn1657 2.121 . S
O1662 C1670 1.258 . S
C1663 N1664 1.326 . S
C1663 C1667 1.460 . S
C1663 H1669 0.929 . S
N1664 Mn1657 2.257 . S
N1664 C1663 1.326 . S
N1664 C1668 1.362 . S
C1665 C1666 1.258 . S
C1665 C1668 1.431 . S
C1665 C1685 1.449 . S
C1666 C1665 1.258 . S
C1666 C1667 1.477 . S
C1666 H1686 0.931 . S
C1667 C1663 1.460 . S
C1667 C1666 1.477 . S
C1667 H1687 0.930 . S
C1668 N1664 1.362 . S
C1668 C1665 1.431 . S
C1668 C1678 1.476 . S
H1669 C1663 0.929 . S
C1670 O1661 1.250 . S
C1670 O1662 1.258 . S
O1671 Mn1656 2.162 . S
O1671 C1659 1.281 . S
O1672 Mn1656 2.297 . S
O1672 C1659 1.236 . S
N1673 Mn1657 2.282 . S
N1673 C1674 1.328 . S
N1673 C1678 1.318 . S
C1674 N1673 1.328 . S
C1674 C1675 1.457 . S
C1674 H1679 0.929 . S
C1675 C1674 1.457 . S
C1675 C1676 1.291 . S
C1675 H1688 0.931 . S
C1676 C1675 1.291 . S
C1676 C1677 1.373 . S
C1676 H1689 0.929 . S
C1677 C1676 1.373 . S
C1677 C1678 1.396 . S
C1677 C1684 1.403 . S
C1678 C1668 1.476 . S
C1678 N1673 1.318 . S
C1678 C1677 1.396 . S
H1679 C1674 0.929 . S
O1680 Mn1656 2.385 . S
O1680 C1658 1.234 . S
O1681 Mn1656 2.209 . S
O1681 Mn1657 2.215 . S
O1681 C1658 1.283 . S
O1682 Mn1656 2.094 . S
O1682 C1660 1.240 . S
O1683 Mn1657 2.117 . S
O1683 C1660 1.264 . S
C1684 C1677 1.403 . S
C1684 C1685 1.399 . S
C1684 H1690 0.929 . S
C1685 C1665 1.449 . S
C1685 C1684 1.399 . S
C1685 H1691 0.930 . S
H1686 C1666 0.931 . S
H1687 C1667 0.930 . S
H1688 C1675 0.931 . S
H1689 C1676 0.929 . S
H1690 C1684 0.929 . S
H1691 C1685 0.930 . S
Mn1692 O1697 2.095 . S
Mn1692 O1707 2.162 . S
Mn1692 O1708 2.297 . S
Mn1692 O1716 2.385 . S
Mn1692 O1717 2.209 . S
Mn1692 O1718 2.094 . S
Mn1693 O1698 2.121 . S
Mn1693 N1700 2.257 . S
Mn1693 N1709 2.282 . S
Mn1693 O1717 2.215 . S
Mn1693 O1719 2.117 . S
C1694 O1716 1.234 . S
C1694 O1717 1.283 . S
C1695 O1707 1.281 . S
C1695 O1708 1.236 . S
C1696 O1718 1.240 . S
C1696 O1719 1.264 . S
O1697 Mn1692 2.095 . S
O1697 C1706 1.250 . S
O1698 Mn1693 2.121 . S
O1698 C1706 1.258 . S
C1699 N1700 1.326 . S
C1699 C1703 1.460 . S
C1699 H1705 0.929 . S
N1700 Mn1693 2.257 . S
N1700 C1699 1.326 . S
N1700 C1704 1.362 . S
C1701 C1702 1.258 . S
C1701 C1704 1.431 . S
C1701 C1721 1.449 . S
C1702 C1701 1.258 . S
C1702 C1703 1.477 . S
C1702 H1722 0.931 . S
C1703 C1699 1.460 . S
C1703 C1702 1.477 . S
C1703 H1723 0.930 . S
C1704 N1700 1.362 . S
C1704 C1701 1.431 . S
C1704 C1714 1.476 . S
H1705 C1699 0.929 . S
C1706 O1697 1.250 . S
C1706 O1698 1.258 . S
O1707 Mn1692 2.162 . S
O1707 C1695 1.281 . S
O1708 Mn1692 2.297 . S
O1708 C1695 1.236 . S
N1709 Mn1693 2.282 . S
N1709 C1710 1.328 . S
N1709 C1714 1.318 . S
C1710 N1709 1.328 . S
C1710 C1711 1.457 . S
C1710 H1715 0.929 . S
C1711 C1710 1.457 . S
C1711 C1712 1.291 . S
C1711 H1724 0.931 . S
C1712 C1711 1.291 . S
C1712 C1713 1.373 . S
C1712 H1725 0.929 . S
C1713 C1712 1.373 . S
C1713 C1714 1.396 . S
C1713 C1720 1.403 . S
C1714 C1704 1.476 . S
C1714 N1709 1.318 . S
C1714 C1713 1.396 . S
H1715 C1710 0.929 . S
O1716 Mn1692 2.385 . S
O1716 C1694 1.234 . S
O1717 Mn1692 2.209 . S
O1717 Mn1693 2.215 . S
O1717 C1694 1.283 . S
O1718 Mn1692 2.094 . S
O1718 C1696 1.240 . S
O1719 Mn1693 2.117 . S
O1719 C1696 1.264 . S
C1720 C1713 1.403 . S
C1720 C1721 1.399 . S
C1720 H1726 0.929 . S
C1721 C1701 1.449 . S
C1721 C1720 1.399 . S
C1721 H1727 0.930 . S
H1722 C1702 0.931 . S
H1723 C1703 0.930 . S
H1724 C1711 0.931 . S
H1725 C1712 0.929 . S
H1726 C1720 0.929 . S
H1727 C1721 0.930 . S
Mn1728 O1733 2.095 . S
Mn1728 O1743 2.162 . S
Mn1728 O1744 2.297 . S
Mn1728 O1752 2.385 . S
Mn1728 O1753 2.209 . S
Mn1728 O1754 2.094 . S
Mn1729 O1734 2.121 . S
Mn1729 N1736 2.257 . S
Mn1729 N1745 2.282 . S
Mn1729 O1753 2.215 . S
Mn1729 O1755 2.117 . S
C1730 O1752 1.234 . S
C1730 O1753 1.283 . S
C1731 O1743 1.281 . S
C1731 O1744 1.236 . S
C1732 O1754 1.240 . S
C1732 O1755 1.264 . S
O1733 Mn1728 2.095 . S
O1733 C1742 1.250 . S
O1734 Mn1729 2.121 . S
O1734 C1742 1.258 . S
C1735 N1736 1.326 . S
C1735 C1739 1.460 . S
C1735 H1741 0.929 . S
N1736 Mn1729 2.257 . S
N1736 C1735 1.326 . S
N1736 C1740 1.362 . S
C1737 C1738 1.258 . S
C1737 C1740 1.431 . S
C1737 C1757 1.449 . S
C1738 C1737 1.258 . S
C1738 C1739 1.477 . S
C1738 H1758 0.931 . S
C1739 C1735 1.460 . S
C1739 C1738 1.477 . S
C1739 H1759 0.930 . S
C1740 N1736 1.362 . S
C1740 C1737 1.431 . S
C1740 C1750 1.476 . S
H1741 C1735 0.929 . S
C1742 O1733 1.250 . S
C1742 O1734 1.258 . S
O1743 Mn1728 2.162 . S
O1743 C1731 1.281 . S
O1744 Mn1728 2.297 . S
O1744 C1731 1.236 . S
N1745 Mn1729 2.282 . S
N1745 C1746 1.328 . S
N1745 C1750 1.318 . S
C1746 N1745 1.328 . S
C1746 C1747 1.457 . S
C1746 H1751 0.929 . S
C1747 C1746 1.457 . S
C1747 C1748 1.291 . S
C1747 H1760 0.931 . S
C1748 C1747 1.291 . S
C1748 C1749 1.373 . S
C1748 H1761 0.929 . S
C1749 C1748 1.373 . S
C1749 C1750 1.396 . S
C1749 C1756 1.403 . S
C1750 C1740 1.476 . S
C1750 N1745 1.318 . S
C1750 C1749 1.396 . S
H1751 C1746 0.929 . S
O1752 Mn1728 2.385 . S
O1752 C1730 1.234 . S
O1753 Mn1728 2.209 . S
O1753 Mn1729 2.215 . S
O1753 C1730 1.283 . S
O1754 Mn1728 2.094 . S
O1754 C1732 1.240 . S
O1755 Mn1729 2.117 . S
O1755 C1732 1.264 . S
C1756 C1749 1.403 . S
C1756 C1757 1.399 . S
C1756 H1762 0.929 . S
C1757 C1737 1.449 . S
C1757 C1756 1.399 . S
C1757 H1763 0.930 . S
H1758 C1738 0.931 . S
H1759 C1739 0.930 . S
H1760 C1747 0.931 . S
H1761 C1748 0.929 . S
H1762 C1756 0.929 . S
H1763 C1757 0.930 . S
Mn1764 O1769 2.095 . S
Mn1764 O1779 2.162 . S
Mn1764 O1780 2.297 . S
Mn1764 O1788 2.385 . S
Mn1764 O1789 2.209 . S
Mn1764 O1790 2.094 . S
Mn1765 O1770 2.121 . S
Mn1765 N1772 2.257 . S
Mn1765 N1781 2.282 . S
Mn1765 O1789 2.215 . S
Mn1765 O1791 2.117 . S
C1766 O1788 1.234 . S
C1766 O1789 1.283 . S
C1767 O1779 1.281 . S
C1767 O1780 1.236 . S
C1768 O1790 1.240 . S
C1768 O1791 1.264 . S
O1769 Mn1764 2.095 . S
O1769 C1778 1.250 . S
O1770 Mn1765 2.121 . S
O1770 C1778 1.258 . S
C1771 N1772 1.326 . S
C1771 C1775 1.460 . S
C1771 H1777 0.929 . S
N1772 Mn1765 2.257 . S
N1772 C1771 1.326 . S
N1772 C1776 1.362 . S
C1773 C1774 1.258 . S
C1773 C1776 1.431 . S
C1773 C1793 1.449 . S
C1774 C1773 1.258 . S
C1774 C1775 1.477 . S
C1774 H1794 0.931 . S
C1775 C1771 1.460 . S
C1775 C1774 1.477 . S
C1775 H1795 0.930 . S
C1776 N1772 1.362 . S
C1776 C1773 1.431 . S
C1776 C1786 1.476 . S
H1777 C1771 0.929 . S
C1778 O1769 1.250 . S
C1778 O1770 1.258 . S
O1779 Mn1764 2.162 . S
O1779 C1767 1.281 . S
O1780 Mn1764 2.297 . S
O1780 C1767 1.236 . S
N1781 Mn1765 2.282 . S
N1781 C1782 1.328 . S
N1781 C1786 1.318 . S
C1782 N1781 1.328 . S
C1782 C1783 1.457 . S
C1782 H1787 0.929 . S
C1783 C1782 1.457 . S
C1783 C1784 1.291 . S
C1783 H1796 0.931 . S
C1784 C1783 1.291 . S
C1784 C1785 1.373 . S
C1784 H1797 0.929 . S
C1785 C1784 1.373 . S
C1785 C1786 1.396 . S
C1785 C1792 1.403 . S
C1786 C1776 1.476 . S
C1786 N1781 1.318 . S
C1786 C1785 1.396 . S
H1787 C1782 0.929 . S
O1788 Mn1764 2.385 . S
O1788 C1766 1.234 . S
O1789 Mn1764 2.209 . S
O1789 Mn1765 2.215 . S
O1789 C1766 1.283 . S
O1790 Mn1764 2.094 . S
O1790 C1768 1.240 . S
O1791 Mn1765 2.117 . S
O1791 C1768 1.264 . S
C1792 C1785 1.403 . S
C1792 C1793 1.399 . S
C1792 H1798 0.929 . S
C1793 C1773 1.449 . S
C1793 C1792 1.399 . S
C1793 H1799 0.930 . S
H1794 C1774 0.931 . S
H1795 C1775 0.930 . S
H1796 C1783 0.931 . S
H1797 C1784 0.929 . S
H1798 C1792 0.929 . S
H1799 C1793 0.930 . S
Mn1800 O1805 2.095 . S
Mn1800 O1815 2.162 1_565 S
Mn1800 O1816 2.297 . S
Mn1800 O1824 2.385 . S
Mn1800 O1825 2.209 . S
Mn1800 O1826 2.094 . S
Mn1801 O1806 2.121 . S
Mn1801 N1808 2.257 . S
Mn1801 N1817 2.282 . S
Mn1801 O1825 2.215 . S
Mn1801 O1827 2.117 . S
C1802 O1824 1.234 . S
C1802 O1825 1.283 . S
C1803 O1815 1.277 1_565 S
C1803 O1816 1.244 . S
C1804 O1826 1.240 . S
C1804 O1827 1.264 . S
O1805 Mn1800 2.095 . S
O1805 C1814 1.250 . S
O1806 Mn1801 2.121 . S
O1806 C1814 1.258 . S
C1807 N1808 1.326 . S
C1807 C1811 1.460 . S
C1807 H1813 0.929 . S
N1808 Mn1801 2.257 . S
N1808 C1807 1.326 . S
N1808 C1812 1.362 . S
C1809 C1810 1.258 . S
C1809 C1812 1.431 . S
C1809 C1829 1.449 . S
C1810 C1809 1.258 . S
C1810 C1811 1.477 . S
C1810 H1830 0.931 . S
C1811 C1807 1.460 . S
C1811 C1810 1.477 . S
C1811 H1831 0.930 . S
C1812 N1808 1.362 . S
C1812 C1809 1.431 . S
C1812 C1822 1.476 . S
H1813 C1807 0.929 . S
C1814 O1805 1.250 . S
C1814 O1806 1.258 . S
O1815 Mn1800 2.162 1_545 S
O1815 C1803 1.277 1_545 S
O1816 Mn1800 2.297 . S
O1816 C1803 1.244 . S
N1817 Mn1801 2.282 . S
N1817 C1818 1.328 . S
N1817 C1822 1.318 . S
C1818 N1817 1.328 . S
C1818 C1819 1.457 . S
C1818 H1823 0.929 . S
C1819 C1818 1.457 . S
C1819 C1820 1.291 . S
C1819 H1832 0.931 . S
C1820 C1819 1.291 . S
C1820 C1821 1.373 . S
C1820 H1833 0.929 . S
C1821 C1820 1.373 . S
C1821 C1822 1.396 . S
C1821 C1828 1.403 . S
C1822 C1812 1.476 . S
C1822 N1817 1.318 . S
C1822 C1821 1.396 . S
H1823 C1818 0.929 . S
O1824 Mn1800 2.385 . S
O1824 C1802 1.234 . S
O1825 Mn1800 2.209 . S
O1825 Mn1801 2.215 . S
O1825 C1802 1.283 . S
O1826 Mn1800 2.094 . S
O1826 C1804 1.240 . S
O1827 Mn1801 2.117 . S
O1827 C1804 1.264 . S
C1828 C1821 1.403 . S
C1828 C1829 1.399 . S
C1828 H1834 0.929 . S
C1829 C1809 1.449 . S
C1829 C1828 1.399 . S
C1829 H1835 0.930 . S
H1830 C1810 0.931 . S
H1831 C1811 0.930 . S
H1832 C1819 0.931 . S
H1833 C1820 0.929 . S
H1834 C1828 0.929 . S
H1835 C1829 0.930 . S
Mn1836 O1841 2.095 . S
Mn1836 O1851 2.162 . S
Mn1836 O1852 2.297 . S
Mn1836 O1860 2.385 . S
Mn1836 O1861 2.209 . S
Mn1836 O1862 2.094 . S
Mn1837 O1842 2.121 . S
Mn1837 N1844 2.257 . S
Mn1837 N1853 2.282 . S
Mn1837 O1861 2.215 . S
Mn1837 O1863 2.117 . S
C1838 O1860 1.234 . S
C1838 O1861 1.283 . S
C1839 O1851 1.281 . S
C1839 O1852 1.236 . S
C1840 O1862 1.240 . S
C1840 O1863 1.264 . S
O1841 Mn1836 2.095 . S
O1841 C1850 1.250 . S
O1842 Mn1837 2.121 . S
O1842 C1850 1.258 . S
C1843 N1844 1.326 . S
C1843 C1847 1.460 . S
C1843 H1849 0.929 . S
N1844 Mn1837 2.257 . S
N1844 C1843 1.326 . S
N1844 C1848 1.362 . S
C1845 C1846 1.258 . S
C1845 C1848 1.431 . S
C1845 C1865 1.449 . S
C1846 C1845 1.258 . S
C1846 C1847 1.477 . S
C1846 H1866 0.931 . S
C1847 C1843 1.460 . S
C1847 C1846 1.477 . S
C1847 H1867 0.930 . S
C1848 N1844 1.362 . S
C1848 C1845 1.431 . S
C1848 C1858 1.476 . S
H1849 C1843 0.929 . S
C1850 O1841 1.250 . S
C1850 O1842 1.258 . S
O1851 Mn1836 2.162 . S
O1851 C1839 1.281 . S
O1852 Mn1836 2.297 . S
O1852 C1839 1.236 . S
N1853 Mn1837 2.282 . S
N1853 C1854 1.328 . S
N1853 C1858 1.318 . S
C1854 N1853 1.328 . S
C1854 C1855 1.457 . S
C1854 H1859 0.929 . S
C1855 C1854 1.457 . S
C1855 C1856 1.291 . S
C1855 H1868 0.931 . S
C1856 C1855 1.291 . S
C1856 C1857 1.373 . S
C1856 H1869 0.929 . S
C1857 C1856 1.373 . S
C1857 C1858 1.396 . S
C1857 C1864 1.403 . S
C1858 C1848 1.476 . S
C1858 N1853 1.318 . S
C1858 C1857 1.396 . S
H1859 C1854 0.929 . S
O1860 Mn1836 2.385 . S
O1860 C1838 1.234 . S
O1861 Mn1836 2.209 . S
O1861 Mn1837 2.215 . S
O1861 C1838 1.283 . S
O1862 Mn1836 2.094 . S
O1862 C1840 1.240 . S
O1863 Mn1837 2.117 . S
O1863 C1840 1.264 . S
C1864 C1857 1.403 . S
C1864 C1865 1.399 . S
C1864 H1870 0.929 . S
C1865 C1845 1.449 . S
C1865 C1864 1.399 . S
C1865 H1871 0.930 . S
H1866 C1846 0.931 . S
H1867 C1847 0.930 . S
H1868 C1855 0.931 . S
H1869 C1856 0.929 . S
H1870 C1864 0.929 . S
H1871 C1865 0.930 . S
Mn1872 O1877 2.095 . S
Mn1872 O1887 2.162 . S
Mn1872 O1888 2.297 . S
Mn1872 O1896 2.385 . S
Mn1872 O1897 2.209 . S
Mn1872 O1898 2.094 . S
Mn1873 O1878 2.121 . S
Mn1873 N1880 2.257 . S
Mn1873 N1889 2.282 . S
Mn1873 O1897 2.215 . S
Mn1873 O1899 2.117 . S
C1874 O1896 1.234 . S
C1874 O1897 1.283 . S
C1875 O1887 1.281 . S
C1875 O1888 1.236 . S
C1876 O1898 1.240 . S
C1876 O1899 1.264 . S
O1877 Mn1872 2.095 . S
O1877 C1886 1.250 . S
O1878 Mn1873 2.121 . S
O1878 C1886 1.258 . S
C1879 N1880 1.326 . S
C1879 C1883 1.460 . S
C1879 H1885 0.929 . S
N1880 Mn1873 2.257 . S
N1880 C1879 1.326 . S
N1880 C1884 1.362 . S
C1881 C1882 1.258 . S
C1881 C1884 1.431 . S
C1881 C1901 1.449 . S
C1882 C1881 1.258 . S
C1882 C1883 1.477 . S
C1882 H1902 0.931 . S
C1883 C1879 1.460 . S
C1883 C1882 1.477 . S
C1883 H1903 0.930 . S
C1884 N1880 1.362 . S
C1884 C1881 1.431 . S
C1884 C1894 1.476 . S
H1885 C1879 0.929 . S
C1886 O1877 1.250 . S
C1886 O1878 1.258 . S
O1887 Mn1872 2.162 . S
O1887 C1875 1.281 . S
O1888 Mn1872 2.297 . S
O1888 C1875 1.236 . S
N1889 Mn1873 2.282 . S
N1889 C1890 1.328 . S
N1889 C1894 1.318 . S
C1890 N1889 1.328 . S
C1890 C1891 1.457 . S
C1890 H1895 0.929 . S
C1891 C1890 1.457 . S
C1891 C1892 1.291 . S
C1891 H1904 0.931 . S
C1892 C1891 1.291 . S
C1892 C1893 1.373 . S
C1892 H1905 0.929 . S
C1893 C1892 1.373 . S
C1893 C1894 1.396 . S
C1893 C1900 1.403 . S
C1894 C1884 1.476 . S
C1894 N1889 1.318 . S
C1894 C1893 1.396 . S
H1895 C1890 0.929 . S
O1896 Mn1872 2.385 . S
O1896 C1874 1.234 . S
O1897 Mn1872 2.209 . S
O1897 Mn1873 2.215 . S
O1897 C1874 1.283 . S
O1898 Mn1872 2.094 . S
O1898 C1876 1.240 . S
O1899 Mn1873 2.117 . S
O1899 C1876 1.264 . S
C1900 C1893 1.403 . S
C1900 C1901 1.399 . S
C1900 H1906 0.929 . S
C1901 C1881 1.449 . S
C1901 C1900 1.399 . S
C1901 H1907 0.930 . S
H1902 C1882 0.931 . S
H1903 C1883 0.930 . S
H1904 C1891 0.931 . S
H1905 C1892 0.929 . S
H1906 C1900 0.929 . S
H1907 C1901 0.930 . S
Mn1908 O1913 2.095 . S
Mn1908 O1923 2.162 . S
Mn1908 O1924 2.297 . S
Mn1908 O1932 2.385 . S
Mn1908 O1933 2.209 . S
Mn1908 O1934 2.094 . S
Mn1909 O1914 2.121 . S
Mn1909 N1916 2.257 . S
Mn1909 N1925 2.282 . S
Mn1909 O1933 2.215 . S
Mn1909 O1935 2.117 . S
C1910 O1932 1.234 . S
C1910 O1933 1.283 . S
C1911 O1923 1.281 . S
C1911 O1924 1.236 . S
C1912 O1934 1.240 . S
C1912 O1935 1.264 . S
O1913 Mn1908 2.095 . S
O1913 C1922 1.250 . S
O1914 Mn1909 2.121 . S
O1914 C1922 1.258 . S
C1915 N1916 1.326 . S
C1915 C1919 1.460 . S
C1915 H1921 0.929 . S
N1916 Mn1909 2.257 . S
N1916 C1915 1.326 . S
N1916 C1920 1.362 . S
C1917 C1918 1.258 . S
C1917 C1920 1.431 . S
C1917 C1937 1.449 . S
C1918 C1917 1.258 . S
C1918 C1919 1.477 . S
C1918 H1938 0.931 . S
C1919 C1915 1.460 . S
C1919 C1918 1.477 . S
C1919 H1939 0.930 . S
C1920 N1916 1.362 . S
C1920 C1917 1.431 . S
C1920 C1930 1.476 . S
H1921 C1915 0.929 . S
C1922 O1913 1.250 . S
C1922 O1914 1.258 . S
O1923 Mn1908 2.162 . S
O1923 C1911 1.281 . S
O1924 Mn1908 2.297 . S
O1924 C1911 1.236 . S
N1925 Mn1909 2.282 . S
N1925 C1926 1.328 . S
N1925 C1930 1.318 . S
C1926 N1925 1.328 . S
C1926 C1927 1.457 . S
C1926 H1931 0.929 . S
C1927 C1926 1.457 . S
C1927 C1928 1.291 . S
C1927 H1940 0.931 . S
C1928 C1927 1.291 . S
C1928 C1929 1.373 . S
C1928 H1941 0.929 . S
C1929 C1928 1.373 . S
C1929 C1930 1.396 . S
C1929 C1936 1.403 . S
C1930 C1920 1.476 . S
C1930 N1925 1.318 . S
C1930 C1929 1.396 . S
H1931 C1926 0.929 . S
O1932 Mn1908 2.385 . S
O1932 C1910 1.234 . S
O1933 Mn1908 2.209 . S
O1933 Mn1909 2.215 . S
O1933 C1910 1.283 . S
O1934 Mn1908 2.094 . S
O1934 C1912 1.240 . S
O1935 Mn1909 2.117 . S
O1935 C1912 1.264 . S
C1936 C1929 1.403 . S
C1936 C1937 1.399 . S
C1936 H1942 0.929 . S
C1937 C1917 1.449 . S
C1937 C1936 1.399 . S
C1937 H1943 0.930 . S
H1938 C1918 0.931 . S
H1939 C1919 0.930 . S
H1940 C1927 0.931 . S
H1941 C1928 0.929 . S
H1942 C1936 0.929 . S
H1943 C1937 0.930 . S
Mn1944 O1949 2.095 . S
Mn1944 O1959 2.162 1_545 S
Mn1944 O1960 2.297 . S
Mn1944 O1968 2.385 . S
Mn1944 O1969 2.209 . S
Mn1944 O1970 2.094 . S
Mn1945 O1950 2.121 . S
Mn1945 N1952 2.257 . S
Mn1945 N1961 2.282 . S
Mn1945 O1969 2.215 . S
Mn1945 O1971 2.117 . S
C1946 O1968 1.234 . S
C1946 O1969 1.283 . S
C1947 O1959 1.277 1_545 S
C1947 O1960 1.244 . S
C1948 O1970 1.240 . S
C1948 O1971 1.264 . S
O1949 Mn1944 2.095 . S
O1949 C1958 1.250 . S
O1950 Mn1945 2.121 . S
O1950 C1958 1.258 . S
C1951 N1952 1.326 . S
C1951 C1955 1.460 . S
C1951 H1957 0.929 . S
N1952 Mn1945 2.257 . S
N1952 C1951 1.326 . S
N1952 C1956 1.362 . S
C1953 C1954 1.258 . S
C1953 C1956 1.431 . S
C1953 C1973 1.449 . S
C1954 C1953 1.258 . S
C1954 C1955 1.477 . S
C1954 H1974 0.931 . S
C1955 C1951 1.460 . S
C1955 C1954 1.477 . S
C1955 H1975 0.930 . S
C1956 N1952 1.362 . S
C1956 C1953 1.431 . S
C1956 C1966 1.476 . S
H1957 C1951 0.929 . S
C1958 O1949 1.250 . S
C1958 O1950 1.258 . S
O1959 Mn1944 2.162 1_565 S
O1959 C1947 1.277 1_565 S
O1960 Mn1944 2.297 . S
O1960 C1947 1.244 . S
N1961 Mn1945 2.282 . S
N1961 C1962 1.328 . S
N1961 C1966 1.318 . S
C1962 N1961 1.328 . S
C1962 C1963 1.457 . S
C1962 H1967 0.929 . S
C1963 C1962 1.457 . S
C1963 C1964 1.291 . S
C1963 H1976 0.931 . S
C1964 C1963 1.291 . S
C1964 C1965 1.373 . S
C1964 H1977 0.929 . S
C1965 C1964 1.373 . S
C1965 C1966 1.396 . S
C1965 C1972 1.403 . S
C1966 C1956 1.476 . S
C1966 N1961 1.318 . S
C1966 C1965 1.396 . S
H1967 C1962 0.929 . S
O1968 Mn1944 2.385 . S
O1968 C1946 1.234 . S
O1969 Mn1944 2.209 . S
O1969 Mn1945 2.215 . S
O1969 C1946 1.283 . S
O1970 Mn1944 2.094 . S
O1970 C1948 1.240 . S
O1971 Mn1945 2.117 . S
O1971 C1948 1.264 . S
C1972 C1965 1.403 . S
C1972 C1973 1.399 . S
C1972 H1978 0.929 . S
C1973 C1953 1.449 . S
C1973 C1972 1.399 . S
C1973 H1979 0.930 . S
H1974 C1954 0.931 . S
H1975 C1955 0.930 . S
H1976 C1963 0.931 . S
H1977 C1964 0.929 . S
H1978 C1972 0.929 . S
H1979 C1973 0.930 . S
Mn1980 O1985 2.095 . S
Mn1980 O1995 2.162 . S
Mn1980 O1996 2.297 . S
Mn1980 O2004 2.385 . S
Mn1980 O2005 2.209 . S
Mn1980 O2006 2.094 . S
Mn1981 O1986 2.121 . S
Mn1981 N1988 2.257 . S
Mn1981 N1997 2.282 . S
Mn1981 O2005 2.215 . S
Mn1981 O2007 2.117 . S
C1982 O2004 1.234 . S
C1982 O2005 1.283 . S
C1983 O1995 1.281 . S
C1983 O1996 1.236 . S
C1984 O2006 1.240 . S
C1984 O2007 1.264 . S
O1985 Mn1980 2.095 . S
O1985 C1994 1.250 . S
O1986 Mn1981 2.121 . S
O1986 C1994 1.258 . S
C1987 N1988 1.326 . S
C1987 C1991 1.460 . S
C1987 H1993 0.929 . S
N1988 Mn1981 2.257 . S
N1988 C1987 1.326 . S
N1988 C1992 1.362 . S
C1989 C1990 1.258 . S
C1989 C1992 1.431 . S
C1989 C2009 1.449 . S
C1990 C1989 1.258 . S
C1990 C1991 1.477 . S
C1990 H2010 0.931 . S
C1991 C1987 1.460 . S
C1991 C1990 1.477 . S
C1991 H2011 0.930 . S
C1992 N1988 1.362 . S
C1992 C1989 1.431 . S
C1992 C2002 1.476 . S
H1993 C1987 0.929 . S
C1994 O1985 1.250 . S
C1994 O1986 1.258 . S
O1995 Mn1980 2.162 . S
O1995 C1983 1.281 . S
O1996 Mn1980 2.297 . S
O1996 C1983 1.236 . S
N1997 Mn1981 2.282 . S
N1997 C1998 1.328 . S
N1997 C2002 1.318 . S
C1998 N1997 1.328 . S
C1998 C1999 1.457 . S
C1998 H2003 0.929 . S
C1999 C1998 1.457 . S
C1999 C2000 1.291 . S
C1999 H2012 0.931 . S
C2000 C1999 1.291 . S
C2000 C2001 1.373 . S
C2000 H2013 0.929 . S
C2001 C2000 1.373 . S
C2001 C2002 1.396 . S
C2001 C2008 1.403 . S
C2002 C1992 1.476 . S
C2002 N1997 1.318 . S
C2002 C2001 1.396 . S
H2003 C1998 0.929 . S
O2004 Mn1980 2.385 . S
O2004 C1982 1.234 . S
O2005 Mn1980 2.209 . S
O2005 Mn1981 2.215 . S
O2005 C1982 1.283 . S
O2006 Mn1980 2.094 . S
O2006 C1984 1.240 . S
O2007 Mn1981 2.117 . S
O2007 C1984 1.264 . S
C2008 C2001 1.403 . S
C2008 C2009 1.399 . S
C2008 H2014 0.929 . S
C2009 C1989 1.449 . S
C2009 C2008 1.399 . S
C2009 H2015 0.930 . S
H2010 C1990 0.931 . S
H2011 C1991 0.930 . S
H2012 C1999 0.931 . S
H2013 C2000 0.929 . S
H2014 C2008 0.929 . S
H2015 C2009 0.930 . S
Mn2016 O2021 2.095 . S
Mn2016 O2031 2.162 1_554 S
Mn2016 O2032 2.297 . S
Mn2016 O2040 2.385 . S
Mn2016 O2041 2.209 . S
Mn2016 O2042 2.094 . S
Mn2017 O2022 2.121 . S
Mn2017 N2024 2.257 . S
Mn2017 N2033 2.282 . S
Mn2017 O2041 2.215 . S
Mn2017 O2043 2.117 . S
C2018 O2040 1.234 . S
C2018 O2041 1.283 . S
C2019 O2031 1.277 1_554 S
C2019 O2032 1.244 . S
C2020 O2042 1.240 . S
C2020 O2043 1.264 . S
O2021 Mn2016 2.095 . S
O2021 C2030 1.250 . S
O2022 Mn2017 2.121 . S
O2022 C2030 1.258 . S
C2023 N2024 1.326 . S
C2023 C2027 1.460 . S
C2023 H2029 0.929 . S
N2024 Mn2017 2.257 . S
N2024 C2023 1.326 . S
N2024 C2028 1.362 . S
C2025 C2026 1.258 . S
C2025 C2028 1.431 . S
C2025 C2045 1.449 . S
C2026 C2025 1.258 . S
C2026 C2027 1.477 . S
C2026 H2046 0.931 . S
C2027 C2023 1.460 . S
C2027 C2026 1.477 . S
C2027 H2047 0.930 . S
C2028 N2024 1.362 . S
C2028 C2025 1.431 . S
C2028 C2038 1.476 . S
H2029 C2023 0.929 . S
C2030 O2021 1.250 . S
C2030 O2022 1.258 . S
O2031 Mn2016 2.162 1_556 S
O2031 C2019 1.277 1_556 S
O2032 Mn2016 2.297 . S
O2032 C2019 1.244 . S
N2033 Mn2017 2.282 . S
N2033 C2034 1.328 . S
N2033 C2038 1.318 . S
C2034 N2033 1.328 . S
C2034 C2035 1.457 . S
C2034 H2039 0.929 . S
C2035 C2034 1.457 . S
C2035 C2036 1.291 . S
C2035 H2048 0.931 . S
C2036 C2035 1.291 . S
C2036 C2037 1.373 . S
C2036 H2049 0.929 . S
C2037 C2036 1.373 . S
C2037 C2038 1.396 . S
C2037 C2044 1.403 . S
C2038 C2028 1.476 . S
C2038 N2033 1.318 . S
C2038 C2037 1.396 . S
H2039 C2034 0.929 . S
O2040 Mn2016 2.385 . S
O2040 C2018 1.234 . S
O2041 Mn2016 2.209 . S
O2041 Mn2017 2.215 . S
O2041 C2018 1.283 . S
O2042 Mn2016 2.094 . S
O2042 C2020 1.240 . S
O2043 Mn2017 2.117 . S
O2043 C2020 1.264 . S
C2044 C2037 1.403 . S
C2044 C2045 1.399 . S
C2044 H2050 0.929 . S
C2045 C2025 1.449 . S
C2045 C2044 1.399 . S
C2045 H2051 0.930 . S
H2046 C2026 0.931 . S
H2047 C2027 0.930 . S
H2048 C2035 0.931 . S
H2049 C2036 0.929 . S
H2050 C2044 0.929 . S
H2051 C2045 0.930 . S
Mn2052 O2057 2.095 . S
Mn2052 O2067 2.162 . S
Mn2052 O2068 2.297 . S
Mn2052 O2076 2.385 . S
Mn2052 O2077 2.209 . S
Mn2052 O2078 2.094 . S
Mn2053 O2058 2.121 . S
Mn2053 N2060 2.257 . S
Mn2053 N2069 2.282 . S
Mn2053 O2077 2.215 . S
Mn2053 O2079 2.117 . S
C2054 O2076 1.234 . S
C2054 O2077 1.283 . S
C2055 O2067 1.281 . S
C2055 O2068 1.236 . S
C2056 O2078 1.240 . S
C2056 O2079 1.264 . S
O2057 Mn2052 2.095 . S
O2057 C2066 1.250 . S
O2058 Mn2053 2.121 . S
O2058 C2066 1.258 . S
C2059 N2060 1.326 . S
C2059 C2063 1.460 . S
C2059 H2065 0.929 . S
N2060 Mn2053 2.257 . S
N2060 C2059 1.326 . S
N2060 C2064 1.362 . S
C2061 C2062 1.258 . S
C2061 C2064 1.431 . S
C2061 C2081 1.449 . S
C2062 C2061 1.258 . S
C2062 C2063 1.477 . S
C2062 H2082 0.931 . S
C2063 C2059 1.460 . S
C2063 C2062 1.477 . S
C2063 H2083 0.930 . S
C2064 N2060 1.362 . S
C2064 C2061 1.431 . S
C2064 C2074 1.476 . S
H2065 C2059 0.929 . S
C2066 O2057 1.250 . S
C2066 O2058 1.258 . S
O2067 Mn2052 2.162 . S
O2067 C2055 1.281 . S
O2068 Mn2052 2.297 . S
O2068 C2055 1.236 . S
N2069 Mn2053 2.282 . S
N2069 C2070 1.328 . S
N2069 C2074 1.318 . S
C2070 N2069 1.328 . S
C2070 C2071 1.457 . S
C2070 H2075 0.929 . S
C2071 C2070 1.457 . S
C2071 C2072 1.291 . S
C2071 H2084 0.931 . S
C2072 C2071 1.291 . S
C2072 C2073 1.373 . S
C2072 H2085 0.929 . S
C2073 C2072 1.373 . S
C2073 C2074 1.396 . S
C2073 C2080 1.403 . S
C2074 C2064 1.476 . S
C2074 N2069 1.318 . S
C2074 C2073 1.396 . S
H2075 C2070 0.929 . S
O2076 Mn2052 2.385 . S
O2076 C2054 1.234 . S
O2077 Mn2052 2.209 . S
O2077 Mn2053 2.215 . S
O2077 C2054 1.283 . S
O2078 Mn2052 2.094 . S
O2078 C2056 1.240 . S
O2079 Mn2053 2.117 . S
O2079 C2056 1.264 . S
C2080 C2073 1.403 . S
C2080 C2081 1.399 . S
C2080 H2086 0.929 . S
C2081 C2061 1.449 . S
C2081 C2080 1.399 . S
C2081 H2087 0.930 . S
H2082 C2062 0.931 . S
H2083 C2063 0.930 . S
H2084 C2071 0.931 . S
H2085 C2072 0.929 . S
H2086 C2080 0.929 . S
H2087 C2081 0.930 . S
Mn2088 O2093 2.095 . S
Mn2088 O2103 2.162 . S
Mn2088 O2104 2.297 . S
Mn2088 O2112 2.385 . S
Mn2088 O2113 2.209 . S
Mn2088 O2114 2.094 . S
Mn2089 O2094 2.121 . S
Mn2089 N2096 2.257 . S
Mn2089 N2105 2.282 . S
Mn2089 O2113 2.215 . S
Mn2089 O2115 2.117 . S
C2090 O2112 1.234 . S
C2090 O2113 1.283 . S
C2091 O2103 1.281 . S
C2091 O2104 1.236 . S
C2092 O2114 1.240 . S
C2092 O2115 1.264 . S
O2093 Mn2088 2.095 . S
O2093 C2102 1.250 . S
O2094 Mn2089 2.121 . S
O2094 C2102 1.258 . S
C2095 N2096 1.326 . S
C2095 C2099 1.460 . S
C2095 H2101 0.929 . S
N2096 Mn2089 2.257 . S
N2096 C2095 1.326 . S
N2096 C2100 1.362 . S
C2097 C2098 1.258 . S
C2097 C2100 1.431 . S
C2097 C2117 1.449 . S
C2098 C2097 1.258 . S
C2098 C2099 1.477 . S
C2098 H2118 0.931 . S
C2099 C2095 1.460 . S
C2099 C2098 1.477 . S
C2099 H2119 0.930 . S
C2100 N2096 1.362 . S
C2100 C2097 1.431 . S
C2100 C2110 1.476 . S
H2101 C2095 0.929 . S
C2102 O2093 1.250 . S
C2102 O2094 1.258 . S
O2103 Mn2088 2.162 . S
O2103 C2091 1.281 . S
O2104 Mn2088 2.297 . S
O2104 C2091 1.236 . S
N2105 Mn2089 2.282 . S
N2105 C2106 1.328 . S
N2105 C2110 1.318 . S
C2106 N2105 1.328 . S
C2106 C2107 1.457 . S
C2106 H2111 0.929 . S
C2107 C2106 1.457 . S
C2107 C2108 1.291 . S
C2107 H2120 0.931 . S
C2108 C2107 1.291 . S
C2108 C2109 1.373 . S
C2108 H2121 0.929 . S
C2109 C2108 1.373 . S
C2109 C2110 1.396 . S
C2109 C2116 1.403 . S
C2110 C2100 1.476 . S
C2110 N2105 1.318 . S
C2110 C2109 1.396 . S
H2111 C2106 0.929 . S
O2112 Mn2088 2.385 . S
O2112 C2090 1.234 . S
O2113 Mn2088 2.209 . S
O2113 Mn2089 2.215 . S
O2113 C2090 1.283 . S
O2114 Mn2088 2.094 . S
O2114 C2092 1.240 . S
O2115 Mn2089 2.117 . S
O2115 C2092 1.264 . S
C2116 C2109 1.403 . S
C2116 C2117 1.399 . S
C2116 H2122 0.929 . S
C2117 C2097 1.449 . S
C2117 C2116 1.399 . S
C2117 H2123 0.930 . S
H2118 C2098 0.931 . S
H2119 C2099 0.930 . S
H2120 C2107 0.931 . S
H2121 C2108 0.929 . S
H2122 C2116 0.929 . S
H2123 C2117 0.930 . S
Mn2124 O2129 2.095 . S
Mn2124 O2139 2.162 . S
Mn2124 O2140 2.297 . S
Mn2124 O2148 2.385 . S
Mn2124 O2149 2.209 . S
Mn2124 O2150 2.094 . S
Mn2125 O2130 2.121 . S
Mn2125 N2132 2.257 . S
Mn2125 N2141 2.282 . S
Mn2125 O2149 2.215 . S
Mn2125 O2151 2.117 . S
C2126 O2148 1.234 . S
C2126 O2149 1.283 . S
C2127 O2139 1.281 . S
C2127 O2140 1.236 . S
C2128 O2150 1.240 . S
C2128 O2151 1.264 . S
O2129 Mn2124 2.095 . S
O2129 C2138 1.250 . S
O2130 Mn2125 2.121 . S
O2130 C2138 1.258 . S
C2131 N2132 1.326 . S
C2131 C2135 1.460 . S
C2131 H2137 0.929 . S
N2132 Mn2125 2.257 . S
N2132 C2131 1.326 . S
N2132 C2136 1.362 . S
C2133 C2134 1.258 . S
C2133 C2136 1.431 . S
C2133 C2153 1.449 . S
C2134 C2133 1.258 . S
C2134 C2135 1.477 . S
C2134 H2154 0.931 . S
C2135 C2131 1.460 . S
C2135 C2134 1.477 . S
C2135 H2155 0.930 . S
C2136 N2132 1.362 . S
C2136 C2133 1.431 . S
C2136 C2146 1.476 . S
H2137 C2131 0.929 . S
C2138 O2129 1.250 . S
C2138 O2130 1.258 . S
O2139 Mn2124 2.162 . S
O2139 C2127 1.281 . S
O2140 Mn2124 2.297 . S
O2140 C2127 1.236 . S
N2141 Mn2125 2.282 . S
N2141 C2142 1.328 . S
N2141 C2146 1.318 . S
C2142 N2141 1.328 . S
C2142 C2143 1.457 . S
C2142 H2147 0.929 . S
C2143 C2142 1.457 . S
C2143 C2144 1.291 . S
C2143 H2156 0.931 . S
C2144 C2143 1.291 . S
C2144 C2145 1.373 . S
C2144 H2157 0.929 . S
C2145 C2144 1.373 . S
C2145 C2146 1.396 . S
C2145 C2152 1.403 . S
C2146 C2136 1.476 . S
C2146 N2141 1.318 . S
C2146 C2145 1.396 . S
H2147 C2142 0.929 . S
O2148 Mn2124 2.385 . S
O2148 C2126 1.234 . S
O2149 Mn2124 2.209 . S
O2149 Mn2125 2.215 . S
O2149 C2126 1.283 . S
O2150 Mn2124 2.094 . S
O2150 C2128 1.240 . S
O2151 Mn2125 2.117 . S
O2151 C2128 1.264 . S
C2152 C2145 1.403 . S
C2152 C2153 1.399 . S
C2152 H2158 0.929 . S
C2153 C2133 1.449 . S
C2153 C2152 1.399 . S
C2153 H2159 0.930 . S
H2154 C2134 0.931 . S
H2155 C2135 0.930 . S
H2156 C2143 0.931 . S
H2157 C2144 0.929 . S
H2158 C2152 0.929 . S
H2159 C2153 0.930 . S
Mn2160 O2165 2.095 . S
Mn2160 O2175 2.162 1_556 S
Mn2160 O2176 2.297 . S
Mn2160 O2184 2.385 . S
Mn2160 O2185 2.209 . S
Mn2160 O2186 2.094 . S
Mn2161 O2166 2.121 . S
Mn2161 N2168 2.257 . S
Mn2161 N2177 2.282 . S
Mn2161 O2185 2.215 . S
Mn2161 O2187 2.117 . S
C2162 O2184 1.234 . S
C2162 O2185 1.283 . S
C2163 O2175 1.277 1_556 S
C2163 O2176 1.244 . S
C2164 O2186 1.240 . S
C2164 O2187 1.264 . S
O2165 Mn2160 2.095 . S
O2165 C2174 1.250 . S
O2166 Mn2161 2.121 . S
O2166 C2174 1.258 . S
C2167 N2168 1.326 . S
C2167 C2171 1.460 . S
C2167 H2173 0.929 . S
N2168 Mn2161 2.257 . S
N2168 C2167 1.326 . S
N2168 C2172 1.362 . S
C2169 C2170 1.258 . S
C2169 C2172 1.431 . S
C2169 C2189 1.449 . S
C2170 C2169 1.258 . S
C2170 C2171 1.477 . S
C2170 H2190 0.931 . S
C2171 C2167 1.460 . S
C2171 C2170 1.477 . S
C2171 H2191 0.930 . S
C2172 N2168 1.362 . S
C2172 C2169 1.431 . S
C2172 C2182 1.476 . S
H2173 C2167 0.929 . S
C2174 O2165 1.250 . S
C2174 O2166 1.258 . S
O2175 Mn2160 2.162 1_554 S
O2175 C2163 1.277 1_554 S
O2176 Mn2160 2.297 . S
O2176 C2163 1.244 . S
N2177 Mn2161 2.282 . S
N2177 C2178 1.328 . S
N2177 C2182 1.318 . S
C2178 N2177 1.328 . S
C2178 C2179 1.457 . S
C2178 H2183 0.929 . S
C2179 C2178 1.457 . S
C2179 C2180 1.291 . S
C2179 H2192 0.931 . S
C2180 C2179 1.291 . S
C2180 C2181 1.373 . S
C2180 H2193 0.929 . S
C2181 C2180 1.373 . S
C2181 C2182 1.396 . S
C2181 C2188 1.403 . S
C2182 C2172 1.476 . S
C2182 N2177 1.318 . S
C2182 C2181 1.396 . S
H2183 C2178 0.929 . S
O2184 Mn2160 2.385 . S
O2184 C2162 1.234 . S
O2185 Mn2160 2.209 . S
O2185 Mn2161 2.215 . S
O2185 C2162 1.283 . S
O2186 Mn2160 2.094 . S
O2186 C2164 1.240 . S
O2187 Mn2161 2.117 . S
O2187 C2164 1.264 . S
C2188 C2181 1.403 . S
C2188 C2189 1.399 . S
C2188 H2194 0.929 . S
C2189 C2169 1.449 . S
C2189 C2188 1.399 . S
C2189 H2195 0.930 . S
H2190 C2170 0.931 . S
H2191 C2171 0.930 . S
H2192 C2179 0.931 . S
H2193 C2180 0.929 . S
H2194 C2188 0.929 . S
H2195 C2189 0.930 . S
Mn2196 O2201 2.095 . S
Mn2196 O2211 2.162 . S
Mn2196 O2212 2.297 . S
Mn2196 O2220 2.385 . S
Mn2196 O2221 2.209 . S
Mn2196 O2222 2.094 . S
Mn2197 O2202 2.121 . S
Mn2197 N2204 2.257 . S
Mn2197 N2213 2.282 . S
Mn2197 O2221 2.215 . S
Mn2197 O2223 2.117 . S
C2198 O2220 1.234 . S
C2198 O2221 1.283 . S
C2199 O2211 1.281 . S
C2199 O2212 1.236 . S
C2200 O2222 1.240 . S
C2200 O2223 1.264 . S
O2201 Mn2196 2.095 . S
O2201 C2210 1.250 . S
O2202 Mn2197 2.121 . S
O2202 C2210 1.258 . S
C2203 N2204 1.326 . S
C2203 C2207 1.460 . S
C2203 H2209 0.929 . S
N2204 Mn2197 2.257 . S
N2204 C2203 1.326 . S
N2204 C2208 1.362 . S
C2205 C2206 1.258 . S
C2205 C2208 1.431 . S
C2205 C2225 1.449 . S
C2206 C2205 1.258 . S
C2206 C2207 1.477 . S
C2206 H2226 0.931 . S
C2207 C2203 1.460 . S
C2207 C2206 1.477 . S
C2207 H2227 0.930 . S
C2208 N2204 1.362 . S
C2208 C2205 1.431 . S
C2208 C2218 1.476 . S
H2209 C2203 0.929 . S
C2210 O2201 1.250 . S
C2210 O2202 1.258 . S
O2211 Mn2196 2.162 . S
O2211 C2199 1.281 . S
O2212 Mn2196 2.297 . S
O2212 C2199 1.236 . S
N2213 Mn2197 2.282 . S
N2213 C2214 1.328 . S
N2213 C2218 1.318 . S
C2214 N2213 1.328 . S
C2214 C2215 1.457 . S
C2214 H2219 0.929 . S
C2215 C2214 1.457 . S
C2215 C2216 1.291 . S
C2215 H2228 0.931 . S
C2216 C2215 1.291 . S
C2216 C2217 1.373 . S
C2216 H2229 0.929 . S
C2217 C2216 1.373 . S
C2217 C2218 1.396 . S
C2217 C2224 1.403 . S
C2218 C2208 1.476 . S
C2218 N2213 1.318 . S
C2218 C2217 1.396 . S
H2219 C2214 0.929 . S
O2220 Mn2196 2.385 . S
O2220 C2198 1.234 . S
O2221 Mn2196 2.209 . S
O2221 Mn2197 2.215 . S
O2221 C2198 1.283 . S
O2222 Mn2196 2.094 . S
O2222 C2200 1.240 . S
O2223 Mn2197 2.117 . S
O2223 C2200 1.264 . S
C2224 C2217 1.403 . S
C2224 C2225 1.399 . S
C2224 H2230 0.929 . S
C2225 C2205 1.449 . S
C2225 C2224 1.399 . S
C2225 H2231 0.930 . S
H2226 C2206 0.931 . S
H2227 C2207 0.930 . S
H2228 C2215 0.931 . S
H2229 C2216 0.929 . S
H2230 C2224 0.929 . S
H2231 C2225 0.930 . S
Mn2232 O2237 2.095 . S
Mn2232 O2247 2.162 . S
Mn2232 O2248 2.297 . S
Mn2232 O2256 2.385 . S
Mn2232 O2257 2.209 . S
Mn2232 O2258 2.094 . S
Mn2233 O2238 2.121 . S
Mn2233 N2240 2.257 . S
Mn2233 N2249 2.282 . S
Mn2233 O2257 2.215 . S
Mn2233 O2259 2.117 . S
C2234 O2256 1.234 . S
C2234 O2257 1.283 . S
C2235 O2247 1.281 . S
C2235 O2248 1.236 . S
C2236 O2258 1.240 . S
C2236 O2259 1.264 . S
O2237 Mn2232 2.095 . S
O2237 C2246 1.250 . S
O2238 Mn2233 2.121 . S
O2238 C2246 1.258 . S
C2239 N2240 1.326 . S
C2239 C2243 1.460 . S
C2239 H2245 0.929 . S
N2240 Mn2233 2.257 . S
N2240 C2239 1.326 . S
N2240 C2244 1.362 . S
C2241 C2242 1.258 . S
C2241 C2244 1.431 . S
C2241 C2261 1.449 . S
C2242 C2241 1.258 . S
C2242 C2243 1.477 . S
C2242 H2262 0.931 . S
C2243 C2239 1.460 . S
C2243 C2242 1.477 . S
C2243 H2263 0.930 . S
C2244 N2240 1.362 . S
C2244 C2241 1.431 . S
C2244 C2254 1.476 . S
H2245 C2239 0.929 . S
C2246 O2237 1.250 . S
C2246 O2238 1.258 . S
O2247 Mn2232 2.162 . S
O2247 C2235 1.281 . S
O2248 Mn2232 2.297 . S
O2248 C2235 1.236 . S
N2249 Mn2233 2.282 . S
N2249 C2250 1.328 . S
N2249 C2254 1.318 . S
C2250 N2249 1.328 . S
C2250 C2251 1.457 . S
C2250 H2255 0.929 . S
C2251 C2250 1.457 . S
C2251 C2252 1.291 . S
C2251 H2264 0.931 . S
C2252 C2251 1.291 . S
C2252 C2253 1.373 . S
C2252 H2265 0.929 . S
C2253 C2252 1.373 . S
C2253 C2254 1.396 . S
C2253 C2260 1.403 . S
C2254 C2244 1.476 . S
C2254 N2249 1.318 . S
C2254 C2253 1.396 . S
H2255 C2250 0.929 . S
O2256 Mn2232 2.385 . S
O2256 C2234 1.234 . S
O2257 Mn2232 2.209 . S
O2257 Mn2233 2.215 . S
O2257 C2234 1.283 . S
O2258 Mn2232 2.094 . S
O2258 C2236 1.240 . S
O2259 Mn2233 2.117 . S
O2259 C2236 1.264 . S
C2260 C2253 1.403 . S
C2260 C2261 1.399 . S
C2260 H2266 0.929 . S
C2261 C2241 1.449 . S
C2261 C2260 1.399 . S
C2261 H2267 0.930 . S
H2262 C2242 0.931 . S
H2263 C2243 0.930 . S
H2264 C2251 0.931 . S
H2265 C2252 0.929 . S
H2266 C2260 0.929 . S
H2267 C2261 0.930 . S
Mn2268 O2273 2.095 . S
Mn2268 O2283 2.162 . S
Mn2268 O2284 2.297 . S
Mn2268 O2292 2.385 . S
Mn2268 O2293 2.209 . S
Mn2268 O2294 2.094 . S
Mn2269 O2274 2.121 . S
Mn2269 N2276 2.257 . S
Mn2269 N2285 2.282 . S
Mn2269 O2293 2.215 . S
Mn2269 O2295 2.117 . S
C2270 O2292 1.234 . S
C2270 O2293 1.283 . S
C2271 O2283 1.281 . S
C2271 O2284 1.236 . S
C2272 O2294 1.240 . S
C2272 O2295 1.264 . S
O2273 Mn2268 2.095 . S
O2273 C2282 1.250 . S
O2274 Mn2269 2.121 . S
O2274 C2282 1.258 . S
C2275 N2276 1.326 . S
C2275 C2279 1.460 . S
C2275 H2281 0.929 . S
N2276 Mn2269 2.257 . S
N2276 C2275 1.326 . S
N2276 C2280 1.362 . S
C2277 C2278 1.258 . S
C2277 C2280 1.431 . S
C2277 C2297 1.449 . S
C2278 C2277 1.258 . S
C2278 C2279 1.477 . S
C2278 H2298 0.931 . S
C2279 C2275 1.460 . S
C2279 C2278 1.477 . S
C2279 H2299 0.930 . S
C2280 N2276 1.362 . S
C2280 C2277 1.431 . S
C2280 C2290 1.476 . S
H2281 C2275 0.929 . S
C2282 O2273 1.250 . S
C2282 O2274 1.258 . S
O2283 Mn2268 2.162 . S
O2283 C2271 1.281 . S
O2284 Mn2268 2.297 . S
O2284 C2271 1.236 . S
N2285 Mn2269 2.282 . S
N2285 C2286 1.328 . S
N2285 C2290 1.318 . S
C2286 N2285 1.328 . S
C2286 C2287 1.457 . S
C2286 H2291 0.929 . S
C2287 C2286 1.457 . S
C2287 C2288 1.291 . S
C2287 H2300 0.931 . S
C2288 C2287 1.291 . S
C2288 C2289 1.373 . S
C2288 H2301 0.929 . S
C2289 C2288 1.373 . S
C2289 C2290 1.396 . S
C2289 C2296 1.403 . S
C2290 C2280 1.476 . S
C2290 N2285 1.318 . S
C2290 C2289 1.396 . S
H2291 C2286 0.929 . S
O2292 Mn2268 2.385 . S
O2292 C2270 1.234 . S
O2293 Mn2268 2.209 . S
O2293 Mn2269 2.215 . S
O2293 C2270 1.283 . S
O2294 Mn2268 2.094 . S
O2294 C2272 1.240 . S
O2295 Mn2269 2.117 . S
O2295 C2272 1.264 . S
C2296 C2289 1.403 . S
C2296 C2297 1.399 . S
C2296 H2302 0.929 . S
C2297 C2277 1.449 . S
C2297 C2296 1.399 . S
C2297 H2303 0.930 . S
H2298 C2278 0.931 . S
H2299 C2279 0.930 . S
H2300 C2287 0.931 . S
H2301 C2288 0.929 . S
H2302 C2296 0.929 . S
H2303 C2297 0.930 . S
Mn2304 O2309 2.095 . S
Mn2304 O2319 2.162 1_455 S
Mn2304 O2320 2.297 . S
Mn2304 O2328 2.385 . S
Mn2304 O2329 2.209 . S
Mn2304 O2330 2.094 . S
Mn2305 O2310 2.121 . S
Mn2305 N2312 2.257 . S
Mn2305 N2321 2.282 . S
Mn2305 O2329 2.215 . S
Mn2305 O2331 2.117 . S
C2306 O2328 1.234 . S
C2306 O2329 1.283 . S
C2307 O2319 1.277 1_455 S
C2307 O2320 1.244 . S
C2308 O2330 1.240 . S
C2308 O2331 1.264 . S
O2309 Mn2304 2.095 . S
O2309 C2318 1.250 . S
O2310 Mn2305 2.121 . S
O2310 C2318 1.258 . S
C2311 N2312 1.326 . S
C2311 C2315 1.460 . S
C2311 H2317 0.929 . S
N2312 Mn2305 2.257 . S
N2312 C2311 1.326 . S
N2312 C2316 1.362 . S
C2313 C2314 1.258 . S
C2313 C2316 1.431 . S
C2313 C2333 1.449 . S
C2314 C2313 1.258 . S
C2314 C2315 1.477 . S
C2314 H2334 0.931 . S
C2315 C2311 1.460 . S
C2315 C2314 1.477 . S
C2315 H2335 0.930 . S
C2316 N2312 1.362 . S
C2316 C2313 1.431 . S
C2316 C2326 1.476 . S
H2317 C2311 0.929 . S
C2318 O2309 1.250 . S
C2318 O2310 1.258 . S
O2319 Mn2304 2.162 1_655 S
O2319 C2307 1.277 1_655 S
O2320 Mn2304 2.297 . S
O2320 C2307 1.244 . S
N2321 Mn2305 2.282 . S
N2321 C2322 1.328 . S
N2321 C2326 1.318 . S
C2322 N2321 1.328 . S
C2322 C2323 1.457 . S
C2322 H2327 0.929 . S
C2323 C2322 1.457 . S
C2323 C2324 1.291 . S
C2323 H2336 0.931 . S
C2324 C2323 1.291 . S
C2324 C2325 1.373 . S
C2324 H2337 0.929 . S
C2325 C2324 1.373 . S
C2325 C2326 1.396 . S
C2325 C2332 1.403 . S
C2326 C2316 1.476 . S
C2326 N2321 1.318 . S
C2326 C2325 1.396 . S
H2327 C2322 0.929 . S
O2328 Mn2304 2.385 . S
O2328 C2306 1.234 . S
O2329 Mn2304 2.209 . S
O2329 Mn2305 2.215 . S
O2329 C2306 1.283 . S
O2330 Mn2304 2.094 . S
O2330 C2308 1.240 . S
O2331 Mn2305 2.117 . S
O2331 C2308 1.264 . S
C2332 C2325 1.403 . S
C2332 C2333 1.399 . S
C2332 H2338 0.929 . S
C2333 C2313 1.449 . S
C2333 C2332 1.399 . S
C2333 H2339 0.930 . S
H2334 C2314 0.931 . S
H2335 C2315 0.930 . S
H2336 C2323 0.931 . S
H2337 C2324 0.929 . S
H2338 C2332 0.929 . S
H2339 C2333 0.930 . S
Mn2340 O2345 2.095 . S
Mn2340 O2355 2.162 . S
Mn2340 O2356 2.297 . S
Mn2340 O2364 2.385 . S
Mn2340 O2365 2.209 . S
Mn2340 O2366 2.094 . S
Mn2341 O2346 2.121 . S
Mn2341 N2348 2.257 . S
Mn2341 N2357 2.282 . S
Mn2341 O2365 2.215 . S
Mn2341 O2367 2.117 . S
C2342 O2364 1.234 . S
C2342 O2365 1.283 . S
C2343 O2355 1.281 . S
C2343 O2356 1.236 . S
C2344 O2366 1.240 . S
C2344 O2367 1.264 . S
O2345 Mn2340 2.095 . S
O2345 C2354 1.250 . S
O2346 Mn2341 2.121 . S
O2346 C2354 1.258 . S
C2347 N2348 1.326 . S
C2347 C2351 1.460 . S
C2347 H2353 0.929 . S
N2348 Mn2341 2.257 . S
N2348 C2347 1.326 . S
N2348 C2352 1.362 . S
C2349 C2350 1.258 . S
C2349 C2352 1.431 . S
C2349 C2369 1.449 . S
C2350 C2349 1.258 . S
C2350 C2351 1.477 . S
C2350 H2370 0.931 . S
C2351 C2347 1.460 . S
C2351 C2350 1.477 . S
C2351 H2371 0.930 . S
C2352 N2348 1.362 . S
C2352 C2349 1.431 . S
C2352 C2362 1.476 . S
H2353 C2347 0.929 . S
C2354 O2345 1.250 . S
C2354 O2346 1.258 . S
O2355 Mn2340 2.162 . S
O2355 C2343 1.281 . S
O2356 Mn2340 2.297 . S
O2356 C2343 1.236 . S
N2357 Mn2341 2.282 . S
N2357 C2358 1.328 . S
N2357 C2362 1.318 . S
C2358 N2357 1.328 . S
C2358 C2359 1.457 . S
C2358 H2363 0.929 . S
C2359 C2358 1.457 . S
C2359 C2360 1.291 . S
C2359 H2372 0.931 . S
C2360 C2359 1.291 . S
C2360 C2361 1.373 . S
C2360 H2373 0.929 . S
C2361 C2360 1.373 . S
C2361 C2362 1.396 . S
C2361 C2368 1.403 . S
C2362 C2352 1.476 . S
C2362 N2357 1.318 . S
C2362 C2361 1.396 . S
H2363 C2358 0.929 . S
O2364 Mn2340 2.385 . S
O2364 C2342 1.234 . S
O2365 Mn2340 2.209 . S
O2365 Mn2341 2.215 . S
O2365 C2342 1.283 . S
O2366 Mn2340 2.094 . S
O2366 C2344 1.240 . S
O2367 Mn2341 2.117 . S
O2367 C2344 1.264 . S
C2368 C2361 1.403 . S
C2368 C2369 1.399 . S
C2368 H2374 0.929 . S
C2369 C2349 1.449 . S
C2369 C2368 1.399 . S
C2369 H2375 0.930 . S
H2370 C2350 0.931 . S
H2371 C2351 0.930 . S
H2372 C2359 0.931 . S
H2373 C2360 0.929 . S
H2374 C2368 0.929 . S
H2375 C2369 0.930 . S
Mn2376 O2381 2.095 . S
Mn2376 O2391 2.162 . S
Mn2376 O2392 2.297 . S
Mn2376 O2400 2.385 . S
Mn2376 O2401 2.209 . S
Mn2376 O2402 2.094 . S
Mn2377 O2382 2.121 . S
Mn2377 N2384 2.257 . S
Mn2377 N2393 2.282 . S
Mn2377 O2401 2.215 . S
Mn2377 O2403 2.117 . S
C2378 O2400 1.234 . S
C2378 O2401 1.283 . S
C2379 O2391 1.281 . S
C2379 O2392 1.236 . S
C2380 O2402 1.240 . S
C2380 O2403 1.264 . S
O2381 Mn2376 2.095 . S
O2381 C2390 1.250 . S
O2382 Mn2377 2.121 . S
O2382 C2390 1.258 . S
C2383 N2384 1.326 . S
C2383 C2387 1.460 . S
C2383 H2389 0.929 . S
N2384 Mn2377 2.257 . S
N2384 C2383 1.326 . S
N2384 C2388 1.362 . S
C2385 C2386 1.258 . S
C2385 C2388 1.431 . S
C2385 C2405 1.449 . S
C2386 C2385 1.258 . S
C2386 C2387 1.477 . S
C2386 H2406 0.931 . S
C2387 C2383 1.460 . S
C2387 C2386 1.477 . S
C2387 H2407 0.930 . S
C2388 N2384 1.362 . S
C2388 C2385 1.431 . S
C2388 C2398 1.476 . S
H2389 C2383 0.929 . S
C2390 O2381 1.250 . S
C2390 O2382 1.258 . S
O2391 Mn2376 2.162 . S
O2391 C2379 1.281 . S
O2392 Mn2376 2.297 . S
O2392 C2379 1.236 . S
N2393 Mn2377 2.282 . S
N2393 C2394 1.328 . S
N2393 C2398 1.318 . S
C2394 N2393 1.328 . S
C2394 C2395 1.457 . S
C2394 H2399 0.929 . S
C2395 C2394 1.457 . S
C2395 C2396 1.291 . S
C2395 H2408 0.931 . S
C2396 C2395 1.291 . S
C2396 C2397 1.373 . S
C2396 H2409 0.929 . S
C2397 C2396 1.373 . S
C2397 C2398 1.396 . S
C2397 C2404 1.403 . S
C2398 C2388 1.476 . S
C2398 N2393 1.318 . S
C2398 C2397 1.396 . S
H2399 C2394 0.929 . S
O2400 Mn2376 2.385 . S
O2400 C2378 1.234 . S
O2401 Mn2376 2.209 . S
O2401 Mn2377 2.215 . S
O2401 C2378 1.283 . S
O2402 Mn2376 2.094 . S
O2402 C2380 1.240 . S
O2403 Mn2377 2.117 . S
O2403 C2380 1.264 . S
C2404 C2397 1.403 . S
C2404 C2405 1.399 . S
C2404 H2410 0.929 . S
C2405 C2385 1.449 . S
C2405 C2404 1.399 . S
C2405 H2411 0.930 . S
H2406 C2386 0.931 . S
H2407 C2387 0.930 . S
H2408 C2395 0.931 . S
H2409 C2396 0.929 . S
H2410 C2404 0.929 . S
H2411 C2405 0.930 . S
Mn2412 O2417 2.095 . S
Mn2412 O2427 2.162 . S
Mn2412 O2428 2.297 . S
Mn2412 O2436 2.385 . S
Mn2412 O2437 2.209 . S
Mn2412 O2438 2.094 . S
Mn2413 O2418 2.121 . S
Mn2413 N2420 2.257 . S
Mn2413 N2429 2.282 . S
Mn2413 O2437 2.215 . S
Mn2413 O2439 2.117 . S
C2414 O2436 1.234 . S
C2414 O2437 1.283 . S
C2415 O2427 1.281 . S
C2415 O2428 1.236 . S
C2416 O2438 1.240 . S
C2416 O2439 1.264 . S
O2417 Mn2412 2.095 . S
O2417 C2426 1.250 . S
O2418 Mn2413 2.121 . S
O2418 C2426 1.258 . S
C2419 N2420 1.326 . S
C2419 C2423 1.460 . S
C2419 H2425 0.929 . S
N2420 Mn2413 2.257 . S
N2420 C2419 1.326 . S
N2420 C2424 1.362 . S
C2421 C2422 1.258 . S
C2421 C2424 1.431 . S
C2421 C2441 1.449 . S
C2422 C2421 1.258 . S
C2422 C2423 1.477 . S
C2422 H2442 0.931 . S
C2423 C2419 1.460 . S
C2423 C2422 1.477 . S
C2423 H2443 0.930 . S
C2424 N2420 1.362 . S
C2424 C2421 1.431 . S
C2424 C2434 1.476 . S
H2425 C2419 0.929 . S
C2426 O2417 1.250 . S
C2426 O2418 1.258 . S
O2427 Mn2412 2.162 . S
O2427 C2415 1.281 . S
O2428 Mn2412 2.297 . S
O2428 C2415 1.236 . S
N2429 Mn2413 2.282 . S
N2429 C2430 1.328 . S
N2429 C2434 1.318 . S
C2430 N2429 1.328 . S
C2430 C2431 1.457 . S
C2430 H2435 0.929 . S
C2431 C2430 1.457 . S
C2431 C2432 1.291 . S
C2431 H2444 0.931 . S
C2432 C2431 1.291 . S
C2432 C2433 1.373 . S
C2432 H2445 0.929 . S
C2433 C2432 1.373 . S
C2433 C2434 1.396 . S
C2433 C2440 1.403 . S
C2434 C2424 1.476 . S
C2434 N2429 1.318 . S
C2434 C2433 1.396 . S
H2435 C2430 0.929 . S
O2436 Mn2412 2.385 . S
O2436 C2414 1.234 . S
O2437 Mn2412 2.209 . S
O2437 Mn2413 2.215 . S
O2437 C2414 1.283 . S
O2438 Mn2412 2.094 . S
O2438 C2416 1.240 . S
O2439 Mn2413 2.117 . S
O2439 C2416 1.264 . S
C2440 C2433 1.403 . S
C2440 C2441 1.399 . S
C2440 H2446 0.929 . S
C2441 C2421 1.449 . S
C2441 C2440 1.399 . S
C2441 H2447 0.930 . S
H2442 C2422 0.931 . S
H2443 C2423 0.930 . S
H2444 C2431 0.931 . S
H2445 C2432 0.929 . S
H2446 C2440 0.929 . S
H2447 C2441 0.930 . S
Mn2448 O2453 2.095 . S
Mn2448 O2463 2.162 . S
Mn2448 O2464 2.297 . S
Mn2448 O2472 2.385 . S
Mn2448 O2473 2.209 . S
Mn2448 O2474 2.094 . S
Mn2449 O2454 2.121 . S
Mn2449 N2456 2.257 . S
Mn2449 N2465 2.282 . S
Mn2449 O2473 2.215 . S
Mn2449 O2475 2.117 . S
C2450 O2472 1.234 . S
C2450 O2473 1.283 . S
C2451 O2463 1.281 . S
C2451 O2464 1.236 . S
C2452 O2474 1.240 . S
C2452 O2475 1.264 . S
O2453 Mn2448 2.095 . S
O2453 C2462 1.250 . S
O2454 Mn2449 2.121 . S
O2454 C2462 1.258 . S
C2455 N2456 1.326 . S
C2455 C2459 1.460 . S
C2455 H2461 0.929 . S
N2456 Mn2449 2.257 . S
N2456 C2455 1.326 . S
N2456 C2460 1.362 . S
C2457 C2458 1.258 . S
C2457 C2460 1.431 . S
C2457 C2477 1.449 . S
C2458 C2457 1.258 . S
C2458 C2459 1.477 . S
C2458 H2478 0.931 . S
C2459 C2455 1.460 . S
C2459 C2458 1.477 . S
C2459 H2479 0.930 . S
C2460 N2456 1.362 . S
C2460 C2457 1.431 . S
C2460 C2470 1.476 . S
H2461 C2455 0.929 . S
C2462 O2453 1.250 . S
C2462 O2454 1.258 . S
O2463 Mn2448 2.162 . S
O2463 C2451 1.281 . S
O2464 Mn2448 2.297 . S
O2464 C2451 1.236 . S
N2465 Mn2449 2.282 . S
N2465 C2466 1.328 . S
N2465 C2470 1.318 . S
C2466 N2465 1.328 . S
C2466 C2467 1.457 . S
C2466 H2471 0.929 . S
C2467 C2466 1.457 . S
C2467 C2468 1.291 . S
C2467 H2480 0.931 . S
C2468 C2467 1.291 . S
C2468 C2469 1.373 . S
C2468 H2481 0.929 . S
C2469 C2468 1.373 . S
C2469 C2470 1.396 . S
C2469 C2476 1.403 . S
C2470 C2460 1.476 . S
C2470 N2465 1.318 . S
C2470 C2469 1.396 . S
H2471 C2466 0.929 . S
O2472 Mn2448 2.385 . S
O2472 C2450 1.234 . S
O2473 Mn2448 2.209 . S
O2473 Mn2449 2.215 . S
O2473 C2450 1.283 . S
O2474 Mn2448 2.094 . S
O2474 C2452 1.240 . S
O2475 Mn2449 2.117 . S
O2475 C2452 1.264 . S
C2476 C2469 1.403 . S
C2476 C2477 1.399 . S
C2476 H2482 0.929 . S
C2477 C2457 1.449 . S
C2477 C2476 1.399 . S
C2477 H2483 0.930 . S
H2478 C2458 0.931 . S
H2479 C2459 0.930 . S
H2480 C2467 0.931 . S
H2481 C2468 0.929 . S
H2482 C2476 0.929 . S
H2483 C2477 0.930 . S
Mn2484 O2489 2.095 . S
Mn2484 O2499 2.162 1_655 S
Mn2484 O2500 2.297 . S
Mn2484 O2508 2.385 . S
Mn2484 O2509 2.209 . S
Mn2484 O2510 2.094 . S
Mn2485 O2490 2.121 . S
Mn2485 N2492 2.257 . S
Mn2485 N2501 2.282 . S
Mn2485 O2509 2.215 . S
Mn2485 O2511 2.117 . S
C2486 O2508 1.234 . S
C2486 O2509 1.283 . S
C2487 O2499 1.277 1_655 S
C2487 O2500 1.244 . S
C2488 O2510 1.240 . S
C2488 O2511 1.264 . S
O2489 Mn2484 2.095 . S
O2489 C2498 1.250 . S
O2490 Mn2485 2.121 . S
O2490 C2498 1.258 . S
C2491 N2492 1.326 . S
C2491 C2495 1.460 . S
C2491 H2497 0.929 . S
N2492 Mn2485 2.257 . S
N2492 C2491 1.326 . S
N2492 C2496 1.362 . S
C2493 C2494 1.258 . S
C2493 C2496 1.431 . S
C2493 C2513 1.449 . S
C2494 C2493 1.258 . S
C2494 C2495 1.477 . S
C2494 H2514 0.931 . S
C2495 C2491 1.460 . S
C2495 C2494 1.477 . S
C2495 H2515 0.930 . S
C2496 N2492 1.362 . S
C2496 C2493 1.431 . S
C2496 C2506 1.476 . S
H2497 C2491 0.929 . S
C2498 O2489 1.250 . S
C2498 O2490 1.258 . S
O2499 Mn2484 2.162 1_455 S
O2499 C2487 1.277 1_455 S
O2500 Mn2484 2.297 . S
O2500 C2487 1.244 . S
N2501 Mn2485 2.282 . S
N2501 C2502 1.328 . S
N2501 C2506 1.318 . S
C2502 N2501 1.328 . S
C2502 C2503 1.457 . S
C2502 H2507 0.929 . S
C2503 C2502 1.457 . S
C2503 C2504 1.291 . S
C2503 H2516 0.931 . S
C2504 C2503 1.291 . S
C2504 C2505 1.373 . S
C2504 H2517 0.929 . S
C2505 C2504 1.373 . S
C2505 C2506 1.396 . S
C2505 C2512 1.403 . S
C2506 C2496 1.476 . S
C2506 N2501 1.318 . S
C2506 C2505 1.396 . S
H2507 C2502 0.929 . S
O2508 Mn2484 2.385 . S
O2508 C2486 1.234 . S
O2509 Mn2484 2.209 . S
O2509 Mn2485 2.215 . S
O2509 C2486 1.283 . S
O2510 Mn2484 2.094 . S
O2510 C2488 1.240 . S
O2511 Mn2485 2.117 . S
O2511 C2488 1.264 . S
C2512 C2505 1.403 . S
C2512 C2513 1.399 . S
C2512 H2518 0.929 . S
C2513 C2493 1.449 . S
C2513 C2512 1.399 . S
C2513 H2519 0.930 . S
H2514 C2494 0.931 . S
H2515 C2495 0.930 . S
H2516 C2503 0.931 . S
H2517 C2504 0.929 . S
H2518 C2512 0.929 . S
H2519 C2513 0.930 . S
Mn2520 O2525 2.095 . S
Mn2520 O2535 2.162 . S
Mn2520 O2536 2.297 . S
Mn2520 O2544 2.385 . S
Mn2520 O2545 2.209 . S
Mn2520 O2546 2.094 . S
Mn2521 O2526 2.121 . S
Mn2521 N2528 2.257 . S
Mn2521 N2537 2.282 . S
Mn2521 O2545 2.215 . S
Mn2521 O2547 2.117 . S
C2522 O2544 1.234 . S
C2522 O2545 1.283 . S
C2523 O2535 1.281 . S
C2523 O2536 1.236 . S
C2524 O2546 1.240 . S
C2524 O2547 1.264 . S
O2525 Mn2520 2.095 . S
O2525 C2534 1.250 . S
O2526 Mn2521 2.121 . S
O2526 C2534 1.258 . S
C2527 N2528 1.326 . S
C2527 C2531 1.460 . S
C2527 H2533 0.929 . S
N2528 Mn2521 2.257 . S
N2528 C2527 1.326 . S
N2528 C2532 1.362 . S
C2529 C2530 1.258 . S
C2529 C2532 1.431 . S
C2529 C2549 1.449 . S
C2530 C2529 1.258 . S
C2530 C2531 1.477 . S
C2530 H2550 0.931 . S
C2531 C2527 1.460 . S
C2531 C2530 1.477 . S
C2531 H2551 0.930 . S
C2532 N2528 1.362 . S
C2532 C2529 1.431 . S
C2532 C2542 1.476 . S
H2533 C2527 0.929 . S
C2534 O2525 1.250 . S
C2534 O2526 1.258 . S
O2535 Mn2520 2.162 . S
O2535 C2523 1.281 . S
O2536 Mn2520 2.297 . S
O2536 C2523 1.236 . S
N2537 Mn2521 2.282 . S
N2537 C2538 1.328 . S
N2537 C2542 1.318 . S
C2538 N2537 1.328 . S
C2538 C2539 1.457 . S
C2538 H2543 0.929 . S
C2539 C2538 1.457 . S
C2539 C2540 1.291 . S
C2539 H2552 0.931 . S
C2540 C2539 1.291 . S
C2540 C2541 1.373 . S
C2540 H2553 0.929 . S
C2541 C2540 1.373 . S
C2541 C2542 1.396 . S
C2541 C2548 1.403 . S
C2542 C2532 1.476 . S
C2542 N2537 1.318 . S
C2542 C2541 1.396 . S
H2543 C2538 0.929 . S
O2544 Mn2520 2.385 . S
O2544 C2522 1.234 . S
O2545 Mn2520 2.209 . S
O2545 Mn2521 2.215 . S
O2545 C2522 1.283 . S
O2546 Mn2520 2.094 . S
O2546 C2524 1.240 . S
O2547 Mn2521 2.117 . S
O2547 C2524 1.264 . S
C2548 C2541 1.403 . S
C2548 C2549 1.399 . S
C2548 H2554 0.929 . S
C2549 C2529 1.449 . S
C2549 C2548 1.399 . S
C2549 H2555 0.930 . S
H2550 C2530 0.931 . S
H2551 C2531 0.930 . S
H2552 C2539 0.931 . S
H2553 C2540 0.929 . S
H2554 C2548 0.929 . S
H2555 C2549 0.930 . S
Mn2556 O2561 2.095 . S
Mn2556 O2571 2.162 . S
Mn2556 O2572 2.297 . S
Mn2556 O2580 2.385 . S
Mn2556 O2581 2.209 . S
Mn2556 O2582 2.094 . S
Mn2557 O2562 2.121 . S
Mn2557 N2564 2.257 . S
Mn2557 N2573 2.282 . S
Mn2557 O2581 2.215 . S
Mn2557 O2583 2.117 . S
C2558 O2580 1.234 . S
C2558 O2581 1.283 . S
C2559 O2571 1.281 . S
C2559 O2572 1.236 . S
C2560 O2582 1.240 . S
C2560 O2583 1.264 . S
O2561 Mn2556 2.095 . S
O2561 C2570 1.250 . S
O2562 Mn2557 2.121 . S
O2562 C2570 1.258 . S
C2563 N2564 1.326 . S
C2563 C2567 1.460 . S
C2563 H2569 0.929 . S
N2564 Mn2557 2.257 . S
N2564 C2563 1.326 . S
N2564 C2568 1.362 . S
C2565 C2566 1.258 . S
C2565 C2568 1.431 . S
C2565 C2585 1.449 . S
C2566 C2565 1.258 . S
C2566 C2567 1.477 . S
C2566 H2586 0.931 . S
C2567 C2563 1.460 . S
C2567 C2566 1.477 . S
C2567 H2587 0.930 . S
C2568 N2564 1.362 . S
C2568 C2565 1.431 . S
C2568 C2578 1.476 . S
H2569 C2563 0.929 . S
C2570 O2561 1.250 . S
C2570 O2562 1.258 . S
O2571 Mn2556 2.162 . S
O2571 C2559 1.281 . S
O2572 Mn2556 2.297 . S
O2572 C2559 1.236 . S
N2573 Mn2557 2.282 . S
N2573 C2574 1.328 . S
N2573 C2578 1.318 . S
C2574 N2573 1.328 . S
C2574 C2575 1.457 . S
C2574 H2579 0.929 . S
C2575 C2574 1.457 . S
C2575 C2576 1.291 . S
C2575 H2588 0.931 . S
C2576 C2575 1.291 . S
C2576 C2577 1.373 . S
C2576 H2589 0.929 . S
C2577 C2576 1.373 . S
C2577 C2578 1.396 . S
C2577 C2584 1.403 . S
C2578 C2568 1.476 . S
C2578 N2573 1.318 . S
C2578 C2577 1.396 . S
H2579 C2574 0.929 . S
O2580 Mn2556 2.385 . S
O2580 C2558 1.234 . S
O2581 Mn2556 2.209 . S
O2581 Mn2557 2.215 . S
O2581 C2558 1.283 . S
O2582 Mn2556 2.094 . S
O2582 C2560 1.240 . S
O2583 Mn2557 2.117 . S
O2583 C2560 1.264 . S
C2584 C2577 1.403 . S
C2584 C2585 1.399 . S
C2584 H2590 0.929 . S
C2585 C2565 1.449 . S
C2585 C2584 1.399 . S
C2585 H2591 0.930 . S
H2586 C2566 0.931 . S
H2587 C2567 0.930 . S
H2588 C2575 0.931 . S
H2589 C2576 0.929 . S
H2590 C2584 0.929 . S
H2591 C2585 0.930 . S
Mn2592 O2597 2.095 . S
Mn2592 O2607 2.162 1_545 S
Mn2592 O2608 2.297 . S
Mn2592 O2616 2.385 . S
Mn2592 O2617 2.209 . S
Mn2592 O2618 2.094 . S
Mn2593 O2598 2.121 . S
Mn2593 N2600 2.257 . S
Mn2593 N2609 2.282 . S
Mn2593 O2617 2.215 . S
Mn2593 O2619 2.117 . S
C2594 O2616 1.234 . S
C2594 O2617 1.283 . S
C2595 O2607 1.277 1_545 S
C2595 O2608 1.244 . S
C2596 O2618 1.240 . S
C2596 O2619 1.264 . S
O2597 Mn2592 2.095 . S
O2597 C2606 1.250 . S
O2598 Mn2593 2.121 . S
O2598 C2606 1.258 . S
C2599 N2600 1.326 . S
C2599 C2603 1.460 . S
C2599 H2605 0.929 . S
N2600 Mn2593 2.257 . S
N2600 C2599 1.326 . S
N2600 C2604 1.362 . S
C2601 C2602 1.258 . S
C2601 C2604 1.431 . S
C2601 C2621 1.449 . S
C2602 C2601 1.258 . S
C2602 C2603 1.477 . S
C2602 H2622 0.931 . S
C2603 C2599 1.460 . S
C2603 C2602 1.477 . S
C2603 H2623 0.930 . S
C2604 N2600 1.362 . S
C2604 C2601 1.431 . S
C2604 C2614 1.476 . S
H2605 C2599 0.929 . S
C2606 O2597 1.250 . S
C2606 O2598 1.258 . S
O2607 Mn2592 2.162 1_565 S
O2607 C2595 1.277 1_565 S
O2608 Mn2592 2.297 . S
O2608 C2595 1.244 . S
N2609 Mn2593 2.282 . S
N2609 C2610 1.328 . S
N2609 C2614 1.318 . S
C2610 N2609 1.328 . S
C2610 C2611 1.457 . S
C2610 H2615 0.929 . S
C2611 C2610 1.457 . S
C2611 C2612 1.291 . S
C2611 H2624 0.931 . S
C2612 C2611 1.291 . S
C2612 C2613 1.373 . S
C2612 H2625 0.929 . S
C2613 C2612 1.373 . S
C2613 C2614 1.396 . S
C2613 C2620 1.403 . S
C2614 C2604 1.476 . S
C2614 N2609 1.318 . S
C2614 C2613 1.396 . S
H2615 C2610 0.929 . S
O2616 Mn2592 2.385 . S
O2616 C2594 1.234 . S
O2617 Mn2592 2.209 . S
O2617 Mn2593 2.215 . S
O2617 C2594 1.283 . S
O2618 Mn2592 2.094 . S
O2618 C2596 1.240 . S
O2619 Mn2593 2.117 . S
O2619 C2596 1.264 . S
C2620 C2613 1.403 . S
C2620 C2621 1.399 . S
C2620 H2626 0.929 . S
C2621 C2601 1.449 . S
C2621 C2620 1.399 . S
C2621 H2627 0.930 . S
H2622 C2602 0.931 . S
H2623 C2603 0.930 . S
H2624 C2611 0.931 . S
H2625 C2612 0.929 . S
H2626 C2620 0.929 . S
H2627 C2621 0.930 . S
Mn2628 O2633 2.095 . S
Mn2628 O2643 2.162 . S
Mn2628 O2644 2.297 . S
Mn2628 O2652 2.385 . S
Mn2628 O2653 2.209 . S
Mn2628 O2654 2.094 . S
Mn2629 O2634 2.121 . S
Mn2629 N2636 2.257 . S
Mn2629 N2645 2.282 . S
Mn2629 O2653 2.215 . S
Mn2629 O2655 2.117 . S
C2630 O2652 1.234 . S
C2630 O2653 1.283 . S
C2631 O2643 1.281 . S
C2631 O2644 1.236 . S
C2632 O2654 1.240 . S
C2632 O2655 1.264 . S
O2633 Mn2628 2.095 . S
O2633 C2642 1.250 . S
O2634 Mn2629 2.121 . S
O2634 C2642 1.258 . S
C2635 N2636 1.326 . S
C2635 C2639 1.460 . S
C2635 H2641 0.929 . S
N2636 Mn2629 2.257 . S
N2636 C2635 1.326 . S
N2636 C2640 1.362 . S
C2637 C2638 1.258 . S
C2637 C2640 1.431 . S
C2637 C2657 1.449 . S
C2638 C2637 1.258 . S
C2638 C2639 1.477 . S
C2638 H2658 0.931 . S
C2639 C2635 1.460 . S
C2639 C2638 1.477 . S
C2639 H2659 0.930 . S
C2640 N2636 1.362 . S
C2640 C2637 1.431 . S
C2640 C2650 1.476 . S
H2641 C2635 0.929 . S
C2642 O2633 1.250 . S
C2642 O2634 1.258 . S
O2643 Mn2628 2.162 . S
O2643 C2631 1.281 . S
O2644 Mn2628 2.297 . S
O2644 C2631 1.236 . S
N2645 Mn2629 2.282 . S
N2645 C2646 1.328 . S
N2645 C2650 1.318 . S
C2646 N2645 1.328 . S
C2646 C2647 1.457 . S
C2646 H2651 0.929 . S
C2647 C2646 1.457 . S
C2647 C2648 1.291 . S
C2647 H2660 0.931 . S
C2648 C2647 1.291 . S
C2648 C2649 1.373 . S
C2648 H2661 0.929 . S
C2649 C2648 1.373 . S
C2649 C2650 1.396 . S
C2649 C2656 1.403 . S
C2650 C2640 1.476 . S
C2650 N2645 1.318 . S
C2650 C2649 1.396 . S
H2651 C2646 0.929 . S
O2652 Mn2628 2.385 . S
O2652 C2630 1.234 . S
O2653 Mn2628 2.209 . S
O2653 Mn2629 2.215 . S
O2653 C2630 1.283 . S
O2654 Mn2628 2.094 . S
O2654 C2632 1.240 . S
O2655 Mn2629 2.117 . S
O2655 C2632 1.264 . S
C2656 C2649 1.403 . S
C2656 C2657 1.399 . S
C2656 H2662 0.929 . S
C2657 C2637 1.449 . S
C2657 C2656 1.399 . S
C2657 H2663 0.930 . S
H2658 C2638 0.931 . S
H2659 C2639 0.930 . S
H2660 C2647 0.931 . S
H2661 C2648 0.929 . S
H2662 C2656 0.929 . S
H2663 C2657 0.930 . S
Mn2664 O2669 2.095 . S
Mn2664 O2679 2.162 . S
Mn2664 O2680 2.297 . S
Mn2664 O2688 2.385 . S
Mn2664 O2689 2.209 . S
Mn2664 O2690 2.094 . S
Mn2665 O2670 2.121 . S
Mn2665 N2672 2.257 . S
Mn2665 N2681 2.282 . S
Mn2665 O2689 2.215 . S
Mn2665 O2691 2.117 . S
C2666 O2688 1.234 . S
C2666 O2689 1.283 . S
C2667 O2679 1.281 . S
C2667 O2680 1.236 . S
C2668 O2690 1.240 . S
C2668 O2691 1.264 . S
O2669 Mn2664 2.095 . S
O2669 C2678 1.250 . S
O2670 Mn2665 2.121 . S
O2670 C2678 1.258 . S
C2671 N2672 1.326 . S
C2671 C2675 1.460 . S
C2671 H2677 0.929 . S
N2672 Mn2665 2.257 . S
N2672 C2671 1.326 . S
N2672 C2676 1.362 . S
C2673 C2674 1.258 . S
C2673 C2676 1.431 . S
C2673 C2693 1.449 . S
C2674 C2673 1.258 . S
C2674 C2675 1.477 . S
C2674 H2694 0.931 . S
C2675 C2671 1.460 . S
C2675 C2674 1.477 . S
C2675 H2695 0.930 . S
C2676 N2672 1.362 . S
C2676 C2673 1.431 . S
C2676 C2686 1.476 . S
H2677 C2671 0.929 . S
C2678 O2669 1.250 . S
C2678 O2670 1.258 . S
O2679 Mn2664 2.162 . S
O2679 C2667 1.281 . S
O2680 Mn2664 2.297 . S
O2680 C2667 1.236 . S
N2681 Mn2665 2.282 . S
N2681 C2682 1.328 . S
N2681 C2686 1.318 . S
C2682 N2681 1.328 . S
C2682 C2683 1.457 . S
C2682 H2687 0.929 . S
C2683 C2682 1.457 . S
C2683 C2684 1.291 . S
C2683 H2696 0.931 . S
C2684 C2683 1.291 . S
C2684 C2685 1.373 . S
C2684 H2697 0.929 . S
C2685 C2684 1.373 . S
C2685 C2686 1.396 . S
C2685 C2692 1.403 . S
C2686 C2676 1.476 . S
C2686 N2681 1.318 . S
C2686 C2685 1.396 . S
H2687 C2682 0.929 . S
O2688 Mn2664 2.385 . S
O2688 C2666 1.234 . S
O2689 Mn2664 2.209 . S
O2689 Mn2665 2.215 . S
O2689 C2666 1.283 . S
O2690 Mn2664 2.094 . S
O2690 C2668 1.240 . S
O2691 Mn2665 2.117 . S
O2691 C2668 1.264 . S
C2692 C2685 1.403 . S
C2692 C2693 1.399 . S
C2692 H2698 0.929 . S
C2693 C2673 1.449 . S
C2693 C2692 1.399 . S
C2693 H2699 0.930 . S
H2694 C2674 0.931 . S
H2695 C2675 0.930 . S
H2696 C2683 0.931 . S
H2697 C2684 0.929 . S
H2698 C2692 0.929 . S
H2699 C2693 0.930 . S
Mn2700 O2705 2.095 . S
Mn2700 O2715 2.162 . S
Mn2700 O2716 2.297 . S
Mn2700 O2724 2.385 . S
Mn2700 O2725 2.209 . S
Mn2700 O2726 2.094 . S
Mn2701 O2706 2.121 . S
Mn2701 N2708 2.257 . S
Mn2701 N2717 2.282 . S
Mn2701 O2725 2.215 . S
Mn2701 O2727 2.117 . S
C2702 O2724 1.234 . S
C2702 O2725 1.283 . S
C2703 O2715 1.281 . S
C2703 O2716 1.236 . S
C2704 O2726 1.240 . S
C2704 O2727 1.264 . S
O2705 Mn2700 2.095 . S
O2705 C2714 1.250 . S
O2706 Mn2701 2.121 . S
O2706 C2714 1.258 . S
C2707 N2708 1.326 . S
C2707 C2711 1.460 . S
C2707 H2713 0.929 . S
N2708 Mn2701 2.257 . S
N2708 C2707 1.326 . S
N2708 C2712 1.362 . S
C2709 C2710 1.258 . S
C2709 C2712 1.431 . S
C2709 C2729 1.449 . S
C2710 C2709 1.258 . S
C2710 C2711 1.477 . S
C2710 H2730 0.931 . S
C2711 C2707 1.460 . S
C2711 C2710 1.477 . S
C2711 H2731 0.930 . S
C2712 N2708 1.362 . S
C2712 C2709 1.431 . S
C2712 C2722 1.476 . S
H2713 C2707 0.929 . S
C2714 O2705 1.250 . S
C2714 O2706 1.258 . S
O2715 Mn2700 2.162 . S
O2715 C2703 1.281 . S
O2716 Mn2700 2.297 . S
O2716 C2703 1.236 . S
N2717 Mn2701 2.282 . S
N2717 C2718 1.328 . S
N2717 C2722 1.318 . S
C2718 N2717 1.328 . S
C2718 C2719 1.457 . S
C2718 H2723 0.929 . S
C2719 C2718 1.457 . S
C2719 C2720 1.291 . S
C2719 H2732 0.931 . S
C2720 C2719 1.291 . S
C2720 C2721 1.373 . S
C2720 H2733 0.929 . S
C2721 C2720 1.373 . S
C2721 C2722 1.396 . S
C2721 C2728 1.403 . S
C2722 C2712 1.476 . S
C2722 N2717 1.318 . S
C2722 C2721 1.396 . S
H2723 C2718 0.929 . S
O2724 Mn2700 2.385 . S
O2724 C2702 1.234 . S
O2725 Mn2700 2.209 . S
O2725 Mn2701 2.215 . S
O2725 C2702 1.283 . S
O2726 Mn2700 2.094 . S
O2726 C2704 1.240 . S
O2727 Mn2701 2.117 . S
O2727 C2704 1.264 . S
C2728 C2721 1.403 . S
C2728 C2729 1.399 . S
C2728 H2734 0.929 . S
C2729 C2709 1.449 . S
C2729 C2728 1.399 . S
C2729 H2735 0.930 . S
H2730 C2710 0.931 . S
H2731 C2711 0.930 . S
H2732 C2719 0.931 . S
H2733 C2720 0.929 . S
H2734 C2728 0.929 . S
H2735 C2729 0.930 . S
Mn2736 O2741 2.095 . S
Mn2736 O2751 2.162 1_565 S
Mn2736 O2752 2.297 . S
Mn2736 O2760 2.385 . S
Mn2736 O2761 2.209 . S
Mn2736 O2762 2.094 . S
Mn2737 O2742 2.121 . S
Mn2737 N2744 2.257 . S
Mn2737 N2753 2.282 . S
Mn2737 O2761 2.215 . S
Mn2737 O2763 2.117 . S
C2738 O2760 1.234 . S
C2738 O2761 1.283 . S
C2739 O2751 1.277 1_565 S
C2739 O2752 1.244 . S
C2740 O2762 1.240 . S
C2740 O2763 1.264 . S
O2741 Mn2736 2.095 . S
O2741 C2750 1.250 . S
O2742 Mn2737 2.121 . S
O2742 C2750 1.258 . S
C2743 N2744 1.326 . S
C2743 C2747 1.460 . S
C2743 H2749 0.929 . S
N2744 Mn2737 2.257 . S
N2744 C2743 1.326 . S
N2744 C2748 1.362 . S
C2745 C2746 1.258 . S
C2745 C2748 1.431 . S
C2745 C2765 1.449 . S
C2746 C2745 1.258 . S
C2746 C2747 1.477 . S
C2746 H2766 0.931 . S
C2747 C2743 1.460 . S
C2747 C2746 1.477 . S
C2747 H2767 0.930 . S
C2748 N2744 1.362 . S
C2748 C2745 1.431 . S
C2748 C2758 1.476 . S
H2749 C2743 0.929 . S
C2750 O2741 1.250 . S
C2750 O2742 1.258 . S
O2751 Mn2736 2.162 1_545 S
O2751 C2739 1.277 1_545 S
O2752 Mn2736 2.297 . S
O2752 C2739 1.244 . S
N2753 Mn2737 2.282 . S
N2753 C2754 1.328 . S
N2753 C2758 1.318 . S
C2754 N2753 1.328 . S
C2754 C2755 1.457 . S
C2754 H2759 0.929 . S
C2755 C2754 1.457 . S
C2755 C2756 1.291 . S
C2755 H2768 0.931 . S
C2756 C2755 1.291 . S
C2756 C2757 1.373 . S
C2756 H2769 0.929 . S
C2757 C2756 1.373 . S
C2757 C2758 1.396 . S
C2757 C2764 1.403 . S
C2758 C2748 1.476 . S
C2758 N2753 1.318 . S
C2758 C2757 1.396 . S
H2759 C2754 0.929 . S
O2760 Mn2736 2.385 . S
O2760 C2738 1.234 . S
O2761 Mn2736 2.209 . S
O2761 Mn2737 2.215 . S
O2761 C2738 1.283 . S
O2762 Mn2736 2.094 . S
O2762 C2740 1.240 . S
O2763 Mn2737 2.117 . S
O2763 C2740 1.264 . S
C2764 C2757 1.403 . S
C2764 C2765 1.399 . S
C2764 H2770 0.929 . S
C2765 C2745 1.449 . S
C2765 C2764 1.399 . S
C2765 H2771 0.930 . S
H2766 C2746 0.931 . S
H2767 C2747 0.930 . S
H2768 C2755 0.931 . S
H2769 C2756 0.929 . S
H2770 C2764 0.929 . S
H2771 C2765 0.930 . S
Mn2772 O2777 2.095 . S
Mn2772 O2787 2.162 . S
Mn2772 O2788 2.297 . S
Mn2772 O2796 2.385 . S
Mn2772 O2797 2.209 . S
Mn2772 O2798 2.094 . S
Mn2773 O2778 2.121 . S
Mn2773 N2780 2.257 . S
Mn2773 N2789 2.282 . S
Mn2773 O2797 2.215 . S
Mn2773 O2799 2.117 . S
C2774 O2796 1.234 . S
C2774 O2797 1.283 . S
C2775 O2787 1.281 . S
C2775 O2788 1.236 . S
C2776 O2798 1.240 . S
C2776 O2799 1.264 . S
O2777 Mn2772 2.095 . S
O2777 C2786 1.250 . S
O2778 Mn2773 2.121 . S
O2778 C2786 1.258 . S
C2779 N2780 1.326 . S
C2779 C2783 1.460 . S
C2779 H2785 0.929 . S
N2780 Mn2773 2.257 . S
N2780 C2779 1.326 . S
N2780 C2784 1.362 . S
C2781 C2782 1.258 . S
C2781 C2784 1.431 . S
C2781 C2801 1.449 . S
C2782 C2781 1.258 . S
C2782 C2783 1.477 . S
C2782 H2802 0.931 . S
C2783 C2779 1.460 . S
C2783 C2782 1.477 . S
C2783 H2803 0.930 . S
C2784 N2780 1.362 . S
C2784 C2781 1.431 . S
C2784 C2794 1.476 . S
H2785 C2779 0.929 . S
C2786 O2777 1.250 . S
C2786 O2778 1.258 . S
O2787 Mn2772 2.162 . S
O2787 C2775 1.281 . S
O2788 Mn2772 2.297 . S
O2788 C2775 1.236 . S
N2789 Mn2773 2.282 . S
N2789 C2790 1.328 . S
N2789 C2794 1.318 . S
C2790 N2789 1.328 . S
C2790 C2791 1.457 . S
C2790 H2795 0.929 . S
C2791 C2790 1.457 . S
C2791 C2792 1.291 . S
C2791 H2804 0.931 . S
C2792 C2791 1.291 . S
C2792 C2793 1.373 . S
C2792 H2805 0.929 . S
C2793 C2792 1.373 . S
C2793 C2794 1.396 . S
C2793 C2800 1.403 . S
C2794 C2784 1.476 . S
C2794 N2789 1.318 . S
C2794 C2793 1.396 . S
H2795 C2790 0.929 . S
O2796 Mn2772 2.385 . S
O2796 C2774 1.234 . S
O2797 Mn2772 2.209 . S
O2797 Mn2773 2.215 . S
O2797 C2774 1.283 . S
O2798 Mn2772 2.094 . S
O2798 C2776 1.240 . S
O2799 Mn2773 2.117 . S
O2799 C2776 1.264 . S
C2800 C2793 1.403 . S
C2800 C2801 1.399 . S
C2800 H2806 0.929 . S
C2801 C2781 1.449 . S
C2801 C2800 1.399 . S
C2801 H2807 0.930 . S
H2802 C2782 0.931 . S
H2803 C2783 0.930 . S
H2804 C2791 0.931 . S
H2805 C2792 0.929 . S
H2806 C2800 0.929 . S
H2807 C2801 0.930 . S
Mn2808 O2813 2.095 . S
Mn2808 O2823 2.162 . S
Mn2808 O2824 2.297 . S
Mn2808 O2832 2.385 . S
Mn2808 O2833 2.209 . S
Mn2808 O2834 2.094 . S
Mn2809 O2814 2.121 . S
Mn2809 N2816 2.257 . S
Mn2809 N2825 2.282 . S
Mn2809 O2833 2.215 . S
Mn2809 O2835 2.117 . S
C2810 O2832 1.234 . S
C2810 O2833 1.283 . S
C2811 O2823 1.281 . S
C2811 O2824 1.236 . S
C2812 O2834 1.240 . S
C2812 O2835 1.264 . S
O2813 Mn2808 2.095 . S
O2813 C2822 1.250 . S
O2814 Mn2809 2.121 . S
O2814 C2822 1.258 . S
C2815 N2816 1.326 . S
C2815 C2819 1.460 . S
C2815 H2821 0.929 . S
N2816 Mn2809 2.257 . S
N2816 C2815 1.326 . S
N2816 C2820 1.362 . S
C2817 C2818 1.258 . S
C2817 C2820 1.431 . S
C2817 C2837 1.449 . S
C2818 C2817 1.258 . S
C2818 C2819 1.477 . S
C2818 H2838 0.931 . S
C2819 C2815 1.460 . S
C2819 C2818 1.477 . S
C2819 H2839 0.930 . S
C2820 N2816 1.362 . S
C2820 C2817 1.431 . S
C2820 C2830 1.476 . S
H2821 C2815 0.929 . S
C2822 O2813 1.250 . S
C2822 O2814 1.258 . S
O2823 Mn2808 2.162 . S
O2823 C2811 1.281 . S
O2824 Mn2808 2.297 . S
O2824 C2811 1.236 . S
N2825 Mn2809 2.282 . S
N2825 C2826 1.328 . S
N2825 C2830 1.318 . S
C2826 N2825 1.328 . S
C2826 C2827 1.457 . S
C2826 H2831 0.929 . S
C2827 C2826 1.457 . S
C2827 C2828 1.291 . S
C2827 H2840 0.931 . S
C2828 C2827 1.291 . S
C2828 C2829 1.373 . S
C2828 H2841 0.929 . S
C2829 C2828 1.373 . S
C2829 C2830 1.396 . S
C2829 C2836 1.403 . S
C2830 C2820 1.476 . S
C2830 N2825 1.318 . S
C2830 C2829 1.396 . S
H2831 C2826 0.929 . S
O2832 Mn2808 2.385 . S
O2832 C2810 1.234 . S
O2833 Mn2808 2.209 . S
O2833 Mn2809 2.215 . S
O2833 C2810 1.283 . S
O2834 Mn2808 2.094 . S
O2834 C2812 1.240 . S
O2835 Mn2809 2.117 . S
O2835 C2812 1.264 . S
C2836 C2829 1.403 . S
C2836 C2837 1.399 . S
C2836 H2842 0.929 . S
C2837 C2817 1.449 . S
C2837 C2836 1.399 . S
C2837 H2843 0.930 . S
H2838 C2818 0.931 . S
H2839 C2819 0.930 . S
H2840 C2827 0.931 . S
H2841 C2828 0.929 . S
H2842 C2836 0.929 . S
H2843 C2837 0.930 . S
Mn2844 O2849 2.095 . S
Mn2844 O2859 2.162 . S
Mn2844 O2860 2.297 . S
Mn2844 O2868 2.385 . S
Mn2844 O2869 2.209 . S
Mn2844 O2870 2.094 . S
Mn2845 O2850 2.121 . S
Mn2845 N2852 2.257 . S
Mn2845 N2861 2.282 . S
Mn2845 O2869 2.215 . S
Mn2845 O2871 2.117 . S
C2846 O2868 1.234 . S
C2846 O2869 1.283 . S
C2847 O2859 1.281 . S
C2847 O2860 1.236 . S
C2848 O2870 1.240 . S
C2848 O2871 1.264 . S
O2849 Mn2844 2.095 . S
O2849 C2858 1.250 . S
O2850 Mn2845 2.121 . S
O2850 C2858 1.258 . S
C2851 N2852 1.326 . S
C2851 C2855 1.460 . S
C2851 H2857 0.929 . S
N2852 Mn2845 2.257 . S
N2852 C2851 1.326 . S
N2852 C2856 1.362 . S
C2853 C2854 1.258 . S
C2853 C2856 1.431 . S
C2853 C2873 1.449 . S
C2854 C2853 1.258 . S
C2854 C2855 1.477 . S
C2854 H2874 0.931 . S
C2855 C2851 1.460 . S
C2855 C2854 1.477 . S
C2855 H2875 0.930 . S
C2856 N2852 1.362 . S
C2856 C2853 1.431 . S
C2856 C2866 1.476 . S
H2857 C2851 0.929 . S
C2858 O2849 1.250 . S
C2858 O2850 1.258 . S
O2859 Mn2844 2.162 . S
O2859 C2847 1.281 . S
O2860 Mn2844 2.297 . S
O2860 C2847 1.236 . S
N2861 Mn2845 2.282 . S
N2861 C2862 1.328 . S
N2861 C2866 1.318 . S
C2862 N2861 1.328 . S
C2862 C2863 1.457 . S
C2862 H2867 0.929 . S
C2863 C2862 1.457 . S
C2863 C2864 1.291 . S
C2863 H2876 0.931 . S
C2864 C2863 1.291 . S
C2864 C2865 1.373 . S
C2864 H2877 0.929 . S
C2865 C2864 1.373 . S
C2865 C2866 1.396 . S
C2865 C2872 1.403 . S
C2866 C2856 1.476 . S
C2866 N2861 1.318 . S
C2866 C2865 1.396 . S
H2867 C2862 0.929 . S
O2868 Mn2844 2.385 . S
O2868 C2846 1.234 . S
O2869 Mn2844 2.209 . S
O2869 Mn2845 2.215 . S
O2869 C2846 1.283 . S
O2870 Mn2844 2.094 . S
O2870 C2848 1.240 . S
O2871 Mn2845 2.117 . S
O2871 C2848 1.264 . S
C2872 C2865 1.403 . S
C2872 C2873 1.399 . S
C2872 H2878 0.929 . S
C2873 C2853 1.449 . S
C2873 C2872 1.399 . S
C2873 H2879 0.930 . S
H2874 C2854 0.931 . S
H2875 C2855 0.930 . S
H2876 C2863 0.931 . S
H2877 C2864 0.929 . S
H2878 C2872 0.929 . S
H2879 C2873 0.930 . S
Mn2880 O2885 2.095 . S
Mn2880 O2895 2.162 . S
Mn2880 O2896 2.297 . S
Mn2880 O2904 2.385 . S
Mn2880 O2905 2.209 . S
Mn2880 O2906 2.094 . S
Mn2881 O2886 2.121 . S
Mn2881 N2888 2.257 . S
Mn2881 N2897 2.282 . S
Mn2881 O2905 2.215 . S
Mn2881 O2907 2.117 . S
C2882 O2904 1.234 . S
C2882 O2905 1.283 . S
C2883 O2895 1.281 . S
C2883 O2896 1.236 . S
C2884 O2906 1.240 . S
C2884 O2907 1.264 . S
O2885 Mn2880 2.095 . S
O2885 C2894 1.250 . S
O2886 Mn2881 2.121 . S
O2886 C2894 1.258 . S
C2887 N2888 1.326 . S
C2887 C2891 1.460 . S
C2887 H2893 0.929 . S
N2888 Mn2881 2.257 . S
N2888 C2887 1.326 . S
N2888 C2892 1.362 . S
C2889 C2890 1.258 . S
C2889 C2892 1.431 . S
C2889 C2909 1.449 . S
C2890 C2889 1.258 . S
C2890 C2891 1.477 . S
C2890 H2910 0.931 . S
C2891 C2887 1.460 . S
C2891 C2890 1.477 . S
C2891 H2911 0.930 . S
C2892 N2888 1.362 . S
C2892 C2889 1.431 . S
C2892 C2902 1.476 . S
H2893 C2887 0.929 . S
C2894 O2885 1.250 . S
C2894 O2886 1.258 . S
O2895 Mn2880 2.162 . S
O2895 C2883 1.281 . S
O2896 Mn2880 2.297 . S
O2896 C2883 1.236 . S
N2897 Mn2881 2.282 . S
N2897 C2898 1.328 . S
N2897 C2902 1.318 . S
C2898 N2897 1.328 . S
C2898 C2899 1.457 . S
C2898 H2903 0.929 . S
C2899 C2898 1.457 . S
C2899 C2900 1.291 . S
C2899 H2912 0.931 . S
C2900 C2899 1.291 . S
C2900 C2901 1.373 . S
C2900 H2913 0.929 . S
C2901 C2900 1.373 . S
C2901 C2902 1.396 . S
C2901 C2908 1.403 . S
C2902 C2892 1.476 . S
C2902 N2897 1.318 . S
C2902 C2901 1.396 . S
H2903 C2898 0.929 . S
O2904 Mn2880 2.385 . S
O2904 C2882 1.234 . S
O2905 Mn2880 2.209 . S
O2905 Mn2881 2.215 . S
O2905 C2882 1.283 . S
O2906 Mn2880 2.094 . S
O2906 C2884 1.240 . S
O2907 Mn2881 2.117 . S
O2907 C2884 1.264 . S
C2908 C2901 1.403 . S
C2908 C2909 1.399 . S
C2908 H2914 0.929 . S
C2909 C2889 1.449 . S
C2909 C2908 1.399 . S
C2909 H2915 0.930 . S
H2910 C2890 0.931 . S
H2911 C2891 0.930 . S
H2912 C2899 0.931 . S
H2913 C2900 0.929 . S
H2914 C2908 0.929 . S
H2915 C2909 0.930 . S
Mn2916 O2921 2.095 . S
Mn2916 O2931 2.162 . S
Mn2916 O2932 2.297 . S
Mn2916 O2940 2.385 . S
Mn2916 O2941 2.209 . S
Mn2916 O2942 2.094 . S
Mn2917 O2922 2.121 . S
Mn2917 N2924 2.257 . S
Mn2917 N2933 2.282 . S
Mn2917 O2941 2.215 . S
Mn2917 O2943 2.117 . S
C2918 O2940 1.234 . S
C2918 O2941 1.283 . S
C2919 O2931 1.281 . S
C2919 O2932 1.236 . S
C2920 O2942 1.240 . S
C2920 O2943 1.264 . S
O2921 Mn2916 2.095 . S
O2921 C2930 1.250 . S
O2922 Mn2917 2.121 . S
O2922 C2930 1.258 . S
C2923 N2924 1.326 . S
C2923 C2927 1.460 . S
C2923 H2929 0.929 . S
N2924 Mn2917 2.257 . S
N2924 C2923 1.326 . S
N2924 C2928 1.362 . S
C2925 C2926 1.258 . S
C2925 C2928 1.431 . S
C2925 C2945 1.449 . S
C2926 C2925 1.258 . S
C2926 C2927 1.477 . S
C2926 H2946 0.931 . S
C2927 C2923 1.460 . S
C2927 C2926 1.477 . S
C2927 H2947 0.930 . S
C2928 N2924 1.362 . S
C2928 C2925 1.431 . S
C2928 C2938 1.476 . S
H2929 C2923 0.929 . S
C2930 O2921 1.250 . S
C2930 O2922 1.258 . S
O2931 Mn2916 2.162 . S
O2931 C2919 1.281 . S
O2932 Mn2916 2.297 . S
O2932 C2919 1.236 . S
N2933 Mn2917 2.282 . S
N2933 C2934 1.328 . S
N2933 C2938 1.318 . S
C2934 N2933 1.328 . S
C2934 C2935 1.457 . S
C2934 H2939 0.929 . S
C2935 C2934 1.457 . S
C2935 C2936 1.291 . S
C2935 H2948 0.931 . S
C2936 C2935 1.291 . S
C2936 C2937 1.373 . S
C2936 H2949 0.929 . S
C2937 C2936 1.373 . S
C2937 C2938 1.396 . S
C2937 C2944 1.403 . S
C2938 C2928 1.476 . S
C2938 N2933 1.318 . S
C2938 C2937 1.396 . S
H2939 C2934 0.929 . S
O2940 Mn2916 2.385 . S
O2940 C2918 1.234 . S
O2941 Mn2916 2.209 . S
O2941 Mn2917 2.215 . S
O2941 C2918 1.283 . S
O2942 Mn2916 2.094 . S
O2942 C2920 1.240 . S
O2943 Mn2917 2.117 . S
O2943 C2920 1.264 . S
C2944 C2937 1.403 . S
C2944 C2945 1.399 . S
C2944 H2950 0.929 . S
C2945 C2925 1.449 . S
C2945 C2944 1.399 . S
C2945 H2951 0.930 . S
H2946 C2926 0.931 . S
H2947 C2927 0.930 . S
H2948 C2935 0.931 . S
H2949 C2936 0.929 . S
H2950 C2944 0.929 . S
H2951 C2945 0.930 . S
Mn2952 O2957 2.095 . S
Mn2952 O2967 2.162 1_554 S
Mn2952 O2968 2.297 . S
Mn2952 O2976 2.385 . S
Mn2952 O2977 2.209 . S
Mn2952 O2978 2.094 . S
Mn2953 O2958 2.121 . S
Mn2953 N2960 2.257 . S
Mn2953 N2969 2.282 . S
Mn2953 O2977 2.215 . S
Mn2953 O2979 2.117 . S
C2954 O2976 1.234 . S
C2954 O2977 1.283 . S
C2955 O2967 1.277 1_554 S
C2955 O2968 1.244 . S
C2956 O2978 1.240 . S
C2956 O2979 1.264 . S
O2957 Mn2952 2.095 . S
O2957 C2966 1.250 . S
O2958 Mn2953 2.121 . S
O2958 C2966 1.258 . S
C2959 N2960 1.326 . S
C2959 C2963 1.460 . S
C2959 H2965 0.929 . S
N2960 Mn2953 2.257 . S
N2960 C2959 1.326 . S
N2960 C2964 1.362 . S
C2961 C2962 1.258 . S
C2961 C2964 1.431 . S
C2961 C2981 1.449 . S
C2962 C2961 1.258 . S
C2962 C2963 1.477 . S
C2962 H2982 0.931 . S
C2963 C2959 1.460 . S
C2963 C2962 1.477 . S
C2963 H2983 0.930 . S
C2964 N2960 1.362 . S
C2964 C2961 1.431 . S
C2964 C2974 1.476 . S
H2965 C2959 0.929 . S
C2966 O2957 1.250 . S
C2966 O2958 1.258 . S
O2967 Mn2952 2.162 1_556 S
O2967 C2955 1.277 1_556 S
O2968 Mn2952 2.297 . S
O2968 C2955 1.244 . S
N2969 Mn2953 2.282 . S
N2969 C2970 1.328 . S
N2969 C2974 1.318 . S
C2970 N2969 1.328 . S
C2970 C2971 1.457 . S
C2970 H2975 0.929 . S
C2971 C2970 1.457 . S
C2971 C2972 1.291 . S
C2971 H2984 0.931 . S
C2972 C2971 1.291 . S
C2972 C2973 1.373 . S
C2972 H2985 0.929 . S
C2973 C2972 1.373 . S
C2973 C2974 1.396 . S
C2973 C2980 1.403 . S
C2974 C2964 1.476 . S
C2974 N2969 1.318 . S
C2974 C2973 1.396 . S
H2975 C2970 0.929 . S
O2976 Mn2952 2.385 . S
O2976 C2954 1.234 . S
O2977 Mn2952 2.209 . S
O2977 Mn2953 2.215 . S
O2977 C2954 1.283 . S
O2978 Mn2952 2.094 . S
O2978 C2956 1.240 . S
O2979 Mn2953 2.117 . S
O2979 C2956 1.264 . S
C2980 C2973 1.403 . S
C2980 C2981 1.399 . S
C2980 H2986 0.929 . S
C2981 C2961 1.449 . S
C2981 C2980 1.399 . S
C2981 H2987 0.930 . S
H2982 C2962 0.931 . S
H2983 C2963 0.930 . S
H2984 C2971 0.931 . S
H2985 C2972 0.929 . S
H2986 C2980 0.929 . S
H2987 C2981 0.930 . S
Mn2988 O2993 2.095 . S
Mn2988 O3003 2.162 . S
Mn2988 O3004 2.297 . S
Mn2988 O3012 2.385 . S
Mn2988 O3013 2.209 . S
Mn2988 O3014 2.094 . S
Mn2989 O2994 2.121 . S
Mn2989 N2996 2.257 . S
Mn2989 N3005 2.282 . S
Mn2989 O3013 2.215 . S
Mn2989 O3015 2.117 . S
C2990 O3012 1.234 . S
C2990 O3013 1.283 . S
C2991 O3003 1.281 . S
C2991 O3004 1.236 . S
C2992 O3014 1.240 . S
C2992 O3015 1.264 . S
O2993 Mn2988 2.095 . S
O2993 C3002 1.250 . S
O2994 Mn2989 2.121 . S
O2994 C3002 1.258 . S
C2995 N2996 1.326 . S
C2995 C2999 1.460 . S
C2995 H3001 0.929 . S
N2996 Mn2989 2.257 . S
N2996 C2995 1.326 . S
N2996 C3000 1.362 . S
C2997 C2998 1.258 . S
C2997 C3000 1.431 . S
C2997 C3017 1.449 . S
C2998 C2997 1.258 . S
C2998 C2999 1.477 . S
C2998 H3018 0.931 . S
C2999 C2995 1.460 . S
C2999 C2998 1.477 . S
C2999 H3019 0.930 . S
C3000 N2996 1.362 . S
C3000 C2997 1.431 . S
C3000 C3010 1.476 . S
H3001 C2995 0.929 . S
C3002 O2993 1.250 . S
C3002 O2994 1.258 . S
O3003 Mn2988 2.162 . S
O3003 C2991 1.281 . S
O3004 Mn2988 2.297 . S
O3004 C2991 1.236 . S
N3005 Mn2989 2.282 . S
N3005 C3006 1.328 . S
N3005 C3010 1.318 . S
C3006 N3005 1.328 . S
C3006 C3007 1.457 . S
C3006 H3011 0.929 . S
C3007 C3006 1.457 . S
C3007 C3008 1.291 . S
C3007 H3020 0.931 . S
C3008 C3007 1.291 . S
C3008 C3009 1.373 . S
C3008 H3021 0.929 . S
C3009 C3008 1.373 . S
C3009 C3010 1.396 . S
C3009 C3016 1.403 . S
C3010 C3000 1.476 . S
C3010 N3005 1.318 . S
C3010 C3009 1.396 . S
H3011 C3006 0.929 . S
O3012 Mn2988 2.385 . S
O3012 C2990 1.234 . S
O3013 Mn2988 2.209 . S
O3013 Mn2989 2.215 . S
O3013 C2990 1.283 . S
O3014 Mn2988 2.094 . S
O3014 C2992 1.240 . S
O3015 Mn2989 2.117 . S
O3015 C2992 1.264 . S
C3016 C3009 1.403 . S
C3016 C3017 1.399 . S
C3016 H3022 0.929 . S
C3017 C2997 1.449 . S
C3017 C3016 1.399 . S
C3017 H3023 0.930 . S
H3018 C2998 0.931 . S
H3019 C2999 0.930 . S
H3020 C3007 0.931 . S
H3021 C3008 0.929 . S
H3022 C3016 0.929 . S
H3023 C3017 0.930 . S
Mn3024 O3029 2.095 . S
Mn3024 O3039 2.162 . S
Mn3024 O3040 2.297 . S
Mn3024 O3048 2.385 . S
Mn3024 O3049 2.209 . S
Mn3024 O3050 2.094 . S
Mn3025 O3030 2.121 . S
Mn3025 N3032 2.257 . S
Mn3025 N3041 2.282 . S
Mn3025 O3049 2.215 . S
Mn3025 O3051 2.117 . S
C3026 O3048 1.234 . S
C3026 O3049 1.283 . S
C3027 O3039 1.281 . S
C3027 O3040 1.236 . S
C3028 O3050 1.240 . S
C3028 O3051 1.264 . S
O3029 Mn3024 2.095 . S
O3029 C3038 1.250 . S
O3030 Mn3025 2.121 . S
O3030 C3038 1.258 . S
C3031 N3032 1.326 . S
C3031 C3035 1.460 . S
C3031 H3037 0.929 . S
N3032 Mn3025 2.257 . S
N3032 C3031 1.326 . S
N3032 C3036 1.362 . S
C3033 C3034 1.258 . S
C3033 C3036 1.431 . S
C3033 C3053 1.449 . S
C3034 C3033 1.258 . S
C3034 C3035 1.477 . S
C3034 H3054 0.931 . S
C3035 C3031 1.460 . S
C3035 C3034 1.477 . S
C3035 H3055 0.930 . S
C3036 N3032 1.362 . S
C3036 C3033 1.431 . S
C3036 C3046 1.476 . S
H3037 C3031 0.929 . S
C3038 O3029 1.250 . S
C3038 O3030 1.258 . S
O3039 Mn3024 2.162 . S
O3039 C3027 1.281 . S
O3040 Mn3024 2.297 . S
O3040 C3027 1.236 . S
N3041 Mn3025 2.282 . S
N3041 C3042 1.328 . S
N3041 C3046 1.318 . S
C3042 N3041 1.328 . S
C3042 C3043 1.457 . S
C3042 H3047 0.929 . S
C3043 C3042 1.457 . S
C3043 C3044 1.291 . S
C3043 H3056 0.931 . S
C3044 C3043 1.291 . S
C3044 C3045 1.373 . S
C3044 H3057 0.929 . S
C3045 C3044 1.373 . S
C3045 C3046 1.396 . S
C3045 C3052 1.403 . S
C3046 C3036 1.476 . S
C3046 N3041 1.318 . S
C3046 C3045 1.396 . S
H3047 C3042 0.929 . S
O3048 Mn3024 2.385 . S
O3048 C3026 1.234 . S
O3049 Mn3024 2.209 . S
O3049 Mn3025 2.215 . S
O3049 C3026 1.283 . S
O3050 Mn3024 2.094 . S
O3050 C3028 1.240 . S
O3051 Mn3025 2.117 . S
O3051 C3028 1.264 . S
C3052 C3045 1.403 . S
C3052 C3053 1.399 . S
C3052 H3058 0.929 . S
C3053 C3033 1.449 . S
C3053 C3052 1.399 . S
C3053 H3059 0.930 . S
H3054 C3034 0.931 . S
H3055 C3035 0.930 . S
H3056 C3043 0.931 . S
H3057 C3044 0.929 . S
H3058 C3052 0.929 . S
H3059 C3053 0.930 . S
Mn3060 O3065 2.095 . S
Mn3060 O3075 2.162 . S
Mn3060 O3076 2.297 . S
Mn3060 O3084 2.385 . S
Mn3060 O3085 2.209 . S
Mn3060 O3086 2.094 . S
Mn3061 O3066 2.121 . S
Mn3061 N3068 2.257 . S
Mn3061 N3077 2.282 . S
Mn3061 O3085 2.215 . S
Mn3061 O3087 2.117 . S
C3062 O3084 1.234 . S
C3062 O3085 1.283 . S
C3063 O3075 1.281 . S
C3063 O3076 1.236 . S
C3064 O3086 1.240 . S
C3064 O3087 1.264 . S
O3065 Mn3060 2.095 . S
O3065 C3074 1.250 . S
O3066 Mn3061 2.121 . S
O3066 C3074 1.258 . S
C3067 N3068 1.326 . S
C3067 C3071 1.460 . S
C3067 H3073 0.929 . S
N3068 Mn3061 2.257 . S
N3068 C3067 1.326 . S
N3068 C3072 1.362 . S
C3069 C3070 1.258 . S
C3069 C3072 1.431 . S
C3069 C3089 1.449 . S
C3070 C3069 1.258 . S
C3070 C3071 1.477 . S
C3070 H3090 0.931 . S
C3071 C3067 1.460 . S
C3071 C3070 1.477 . S
C3071 H3091 0.930 . S
C3072 N3068 1.362 . S
C3072 C3069 1.431 . S
C3072 C3082 1.476 . S
H3073 C3067 0.929 . S
C3074 O3065 1.250 . S
C3074 O3066 1.258 . S
O3075 Mn3060 2.162 . S
O3075 C3063 1.281 . S
O3076 Mn3060 2.297 . S
O3076 C3063 1.236 . S
N3077 Mn3061 2.282 . S
N3077 C3078 1.328 . S
N3077 C3082 1.318 . S
C3078 N3077 1.328 . S
C3078 C3079 1.457 . S
C3078 H3083 0.929 . S
C3079 C3078 1.457 . S
C3079 C3080 1.291 . S
C3079 H3092 0.931 . S
C3080 C3079 1.291 . S
C3080 C3081 1.373 . S
C3080 H3093 0.929 . S
C3081 C3080 1.373 . S
C3081 C3082 1.396 . S
C3081 C3088 1.403 . S
C3082 C3072 1.476 . S
C3082 N3077 1.318 . S
C3082 C3081 1.396 . S
H3083 C3078 0.929 . S
O3084 Mn3060 2.385 . S
O3084 C3062 1.234 . S
O3085 Mn3060 2.209 . S
O3085 Mn3061 2.215 . S
O3085 C3062 1.283 . S
O3086 Mn3060 2.094 . S
O3086 C3064 1.240 . S
O3087 Mn3061 2.117 . S
O3087 C3064 1.264 . S
C3088 C3081 1.403 . S
C3088 C3089 1.399 . S
C3088 H3094 0.929 . S
C3089 C3069 1.449 . S
C3089 C3088 1.399 . S
C3089 H3095 0.930 . S
H3090 C3070 0.931 . S
H3091 C3071 0.930 . S
H3092 C3079 0.931 . S
H3093 C3080 0.929 . S
H3094 C3088 0.929 . S
H3095 C3089 0.930 . S
Mn3096 O3101 2.095 . S
Mn3096 O3111 2.162 1_556 S
Mn3096 O3112 2.297 . S
Mn3096 O3120 2.385 . S
Mn3096 O3121 2.209 . S
Mn3096 O3122 2.094 . S
Mn3097 O3102 2.121 . S
Mn3097 N3104 2.257 . S
Mn3097 N3113 2.282 . S
Mn3097 O3121 2.215 . S
Mn3097 O3123 2.117 . S
C3098 O3120 1.234 . S
C3098 O3121 1.283 . S
C3099 O3111 1.277 1_556 S
C3099 O3112 1.244 . S
C3100 O3122 1.240 . S
C3100 O3123 1.264 . S
O3101 Mn3096 2.095 . S
O3101 C3110 1.250 . S
O3102 Mn3097 2.121 . S
O3102 C3110 1.258 . S
C3103 N3104 1.326 . S
C3103 C3107 1.460 . S
C3103 H3109 0.929 . S
N3104 Mn3097 2.257 . S
N3104 C3103 1.326 . S
N3104 C3108 1.362 . S
C3105 C3106 1.258 . S
C3105 C3108 1.431 . S
C3105 C3125 1.449 . S
C3106 C3105 1.258 . S
C3106 C3107 1.477 . S
C3106 H3126 0.931 . S
C3107 C3103 1.460 . S
C3107 C3106 1.477 . S
C3107 H3127 0.930 . S
C3108 N3104 1.362 . S
C3108 C3105 1.431 . S
C3108 C3118 1.476 . S
H3109 C3103 0.929 . S
C3110 O3101 1.250 . S
C3110 O3102 1.258 . S
O3111 Mn3096 2.162 1_554 S
O3111 C3099 1.277 1_554 S
O3112 Mn3096 2.297 . S
O3112 C3099 1.244 . S
N3113 Mn3097 2.282 . S
N3113 C3114 1.328 . S
N3113 C3118 1.318 . S
C3114 N3113 1.328 . S
C3114 C3115 1.457 . S
C3114 H3119 0.929 . S
C3115 C3114 1.457 . S
C3115 C3116 1.291 . S
C3115 H3128 0.931 . S
C3116 C3115 1.291 . S
C3116 C3117 1.373 . S
C3116 H3129 0.929 . S
C3117 C3116 1.373 . S
C3117 C3118 1.396 . S
C3117 C3124 1.403 . S
C3118 C3108 1.476 . S
C3118 N3113 1.318 . S
C3118 C3117 1.396 . S
H3119 C3114 0.929 . S
O3120 Mn3096 2.385 . S
O3120 C3098 1.234 . S
O3121 Mn3096 2.209 . S
O3121 Mn3097 2.215 . S
O3121 C3098 1.283 . S
O3122 Mn3096 2.094 . S
O3122 C3100 1.240 . S
O3123 Mn3097 2.117 . S
O3123 C3100 1.264 . S
C3124 C3117 1.403 . S
C3124 C3125 1.399 . S
C3124 H3130 0.929 . S
C3125 C3105 1.449 . S
C3125 C3124 1.399 . S
C3125 H3131 0.930 . S
H3126 C3106 0.931 . S
H3127 C3107 0.930 . S
H3128 C3115 0.931 . S
H3129 C3116 0.929 . S
H3130 C3124 0.929 . S
H3131 C3125 0.930 . S
Mn3132 O3137 2.095 . S
Mn3132 O3147 2.162 . S
Mn3132 O3148 2.297 . S
Mn3132 O3156 2.385 . S
Mn3132 O3157 2.209 . S
Mn3132 O3158 2.094 . S
Mn3133 O3138 2.121 . S
Mn3133 N3140 2.257 . S
Mn3133 N3149 2.282 . S
Mn3133 O3157 2.215 . S
Mn3133 O3159 2.117 . S
C3134 O3156 1.234 . S
C3134 O3157 1.283 . S
C3135 O3147 1.281 . S
C3135 O3148 1.236 . S
C3136 O3158 1.240 . S
C3136 O3159 1.264 . S
O3137 Mn3132 2.095 . S
O3137 C3146 1.250 . S
O3138 Mn3133 2.121 . S
O3138 C3146 1.258 . S
C3139 N3140 1.326 . S
C3139 C3143 1.460 . S
C3139 H3145 0.929 . S
N3140 Mn3133 2.257 . S
N3140 C3139 1.326 . S
N3140 C3144 1.362 . S
C3141 C3142 1.258 . S
C3141 C3144 1.431 . S
C3141 C3161 1.449 . S
C3142 C3141 1.258 . S
C3142 C3143 1.477 . S
C3142 H3162 0.931 . S
C3143 C3139 1.460 . S
C3143 C3142 1.477 . S
C3143 H3163 0.930 . S
C3144 N3140 1.362 . S
C3144 C3141 1.431 . S
C3144 C3154 1.476 . S
H3145 C3139 0.929 . S
C3146 O3137 1.250 . S
C3146 O3138 1.258 . S
O3147 Mn3132 2.162 . S
O3147 C3135 1.281 . S
O3148 Mn3132 2.297 . S
O3148 C3135 1.236 . S
N3149 Mn3133 2.282 . S
N3149 C3150 1.328 . S
N3149 C3154 1.318 . S
C3150 N3149 1.328 . S
C3150 C3151 1.457 . S
C3150 H3155 0.929 . S
C3151 C3150 1.457 . S
C3151 C3152 1.291 . S
C3151 H3164 0.931 . S
C3152 C3151 1.291 . S
C3152 C3153 1.373 . S
C3152 H3165 0.929 . S
C3153 C3152 1.373 . S
C3153 C3154 1.396 . S
C3153 C3160 1.403 . S
C3154 C3144 1.476 . S
C3154 N3149 1.318 . S
C3154 C3153 1.396 . S
H3155 C3150 0.929 . S
O3156 Mn3132 2.385 . S
O3156 C3134 1.234 . S
O3157 Mn3132 2.209 . S
O3157 Mn3133 2.215 . S
O3157 C3134 1.283 . S
O3158 Mn3132 2.094 . S
O3158 C3136 1.240 . S
O3159 Mn3133 2.117 . S
O3159 C3136 1.264 . S
C3160 C3153 1.403 . S
C3160 C3161 1.399 . S
C3160 H3166 0.929 . S
C3161 C3141 1.449 . S
C3161 C3160 1.399 . S
C3161 H3167 0.930 . S
H3162 C3142 0.931 . S
H3163 C3143 0.930 . S
H3164 C3151 0.931 . S
H3165 C3152 0.929 . S
H3166 C3160 0.929 . S
H3167 C3161 0.930 . S
Mn3168 O3173 2.095 . S
Mn3168 O3183 2.162 1_455 S
Mn3168 O3184 2.297 . S
Mn3168 O3192 2.385 . S
Mn3168 O3193 2.209 . S
Mn3168 O3194 2.094 . S
Mn3169 O3174 2.121 . S
Mn3169 N3176 2.257 . S
Mn3169 N3185 2.282 . S
Mn3169 O3193 2.215 . S
Mn3169 O3195 2.117 . S
C3170 O3192 1.234 . S
C3170 O3193 1.283 . S
C3171 O3183 1.277 1_455 S
C3171 O3184 1.244 . S
C3172 O3194 1.240 . S
C3172 O3195 1.264 . S
O3173 Mn3168 2.095 . S
O3173 C3182 1.250 . S
O3174 Mn3169 2.121 . S
O3174 C3182 1.258 . S
C3175 N3176 1.326 . S
C3175 C3179 1.460 . S
C3175 H3181 0.929 . S
N3176 Mn3169 2.257 . S
N3176 C3175 1.326 . S
N3176 C3180 1.362 . S
C3177 C3178 1.258 . S
C3177 C3180 1.431 . S
C3177 C3197 1.449 . S
C3178 C3177 1.258 . S
C3178 C3179 1.477 . S
C3178 H3198 0.931 . S
C3179 C3175 1.460 . S
C3179 C3178 1.477 . S
C3179 H3199 0.930 . S
C3180 N3176 1.362 . S
C3180 C3177 1.431 . S
C3180 C3190 1.476 . S
H3181 C3175 0.929 . S
C3182 O3173 1.250 . S
C3182 O3174 1.258 . S
O3183 Mn3168 2.162 1_655 S
O3183 C3171 1.277 1_655 S
O3184 Mn3168 2.297 . S
O3184 C3171 1.244 . S
N3185 Mn3169 2.282 . S
N3185 C3186 1.328 . S
N3185 C3190 1.318 . S
C3186 N3185 1.328 . S
C3186 C3187 1.457 . S
C3186 H3191 0.929 . S
C3187 C3186 1.457 . S
C3187 C3188 1.291 . S
C3187 H3200 0.931 . S
C3188 C3187 1.291 . S
C3188 C3189 1.373 . S
C3188 H3201 0.929 . S
C3189 C3188 1.373 . S
C3189 C3190 1.396 . S
C3189 C3196 1.403 . S
C3190 C3180 1.476 . S
C3190 N3185 1.318 . S
C3190 C3189 1.396 . S
H3191 C3186 0.929 . S
O3192 Mn3168 2.385 . S
O3192 C3170 1.234 . S
O3193 Mn3168 2.209 . S
O3193 Mn3169 2.215 . S
O3193 C3170 1.283 . S
O3194 Mn3168 2.094 . S
O3194 C3172 1.240 . S
O3195 Mn3169 2.117 . S
O3195 C3172 1.264 . S
C3196 C3189 1.403 . S
C3196 C3197 1.399 . S
C3196 H3202 0.929 . S
C3197 C3177 1.449 . S
C3197 C3196 1.399 . S
C3197 H3203 0.930 . S
H3198 C3178 0.931 . S
H3199 C3179 0.930 . S
H3200 C3187 0.931 . S
H3201 C3188 0.929 . S
H3202 C3196 0.929 . S
H3203 C3197 0.930 . S
Mn3204 O3209 2.095 . S
Mn3204 O3219 2.162 . S
Mn3204 O3220 2.297 . S
Mn3204 O3228 2.385 . S
Mn3204 O3229 2.209 . S
Mn3204 O3230 2.094 . S
Mn3205 O3210 2.121 . S
Mn3205 N3212 2.257 . S
Mn3205 N3221 2.282 . S
Mn3205 O3229 2.215 . S
Mn3205 O3231 2.117 . S
C3206 O3228 1.234 . S
C3206 O3229 1.283 . S
C3207 O3219 1.281 . S
C3207 O3220 1.236 . S
C3208 O3230 1.240 . S
C3208 O3231 1.264 . S
O3209 Mn3204 2.095 . S
O3209 C3218 1.250 . S
O3210 Mn3205 2.121 . S
O3210 C3218 1.258 . S
C3211 N3212 1.326 . S
C3211 C3215 1.460 . S
C3211 H3217 0.929 . S
N3212 Mn3205 2.257 . S
N3212 C3211 1.326 . S
N3212 C3216 1.362 . S
C3213 C3214 1.258 . S
C3213 C3216 1.431 . S
C3213 C3233 1.449 . S
C3214 C3213 1.258 . S
C3214 C3215 1.477 . S
C3214 H3234 0.931 . S
C3215 C3211 1.460 . S
C3215 C3214 1.477 . S
C3215 H3235 0.930 . S
C3216 N3212 1.362 . S
C3216 C3213 1.431 . S
C3216 C3226 1.476 . S
H3217 C3211 0.929 . S
C3218 O3209 1.250 . S
C3218 O3210 1.258 . S
O3219 Mn3204 2.162 . S
O3219 C3207 1.281 . S
O3220 Mn3204 2.297 . S
O3220 C3207 1.236 . S
N3221 Mn3205 2.282 . S
N3221 C3222 1.328 . S
N3221 C3226 1.318 . S
C3222 N3221 1.328 . S
C3222 C3223 1.457 . S
C3222 H3227 0.929 . S
C3223 C3222 1.457 . S
C3223 C3224 1.291 . S
C3223 H3236 0.931 . S
C3224 C3223 1.291 . S
C3224 C3225 1.373 . S
C3224 H3237 0.929 . S
C3225 C3224 1.373 . S
C3225 C3226 1.396 . S
C3225 C3232 1.403 . S
C3226 C3216 1.476 . S
C3226 N3221 1.318 . S
C3226 C3225 1.396 . S
H3227 C3222 0.929 . S
O3228 Mn3204 2.385 . S
O3228 C3206 1.234 . S
O3229 Mn3204 2.209 . S
O3229 Mn3205 2.215 . S
O3229 C3206 1.283 . S
O3230 Mn3204 2.094 . S
O3230 C3208 1.240 . S
O3231 Mn3205 2.117 . S
O3231 C3208 1.264 . S
C3232 C3225 1.403 . S
C3232 C3233 1.399 . S
C3232 H3238 0.929 . S
C3233 C3213 1.449 . S
C3233 C3232 1.399 . S
C3233 H3239 0.930 . S
H3234 C3214 0.931 . S
H3235 C3215 0.930 . S
H3236 C3223 0.931 . S
H3237 C3224 0.929 . S
H3238 C3232 0.929 . S
H3239 C3233 0.930 . S
Mn3240 O3245 2.095 . S
Mn3240 O3255 2.162 . S
Mn3240 O3256 2.297 . S
Mn3240 O3264 2.385 . S
Mn3240 O3265 2.209 . S
Mn3240 O3266 2.094 . S
Mn3241 O3246 2.121 . S
Mn3241 N3248 2.257 . S
Mn3241 N3257 2.282 . S
Mn3241 O3265 2.215 . S
Mn3241 O3267 2.117 . S
C3242 O3264 1.234 . S
C3242 O3265 1.283 . S
C3243 O3255 1.281 . S
C3243 O3256 1.236 . S
C3244 O3266 1.240 . S
C3244 O3267 1.264 . S
O3245 Mn3240 2.095 . S
O3245 C3254 1.250 . S
O3246 Mn3241 2.121 . S
O3246 C3254 1.258 . S
C3247 N3248 1.326 . S
C3247 C3251 1.460 . S
C3247 H3253 0.929 . S
N3248 Mn3241 2.257 . S
N3248 C3247 1.326 . S
N3248 C3252 1.362 . S
C3249 C3250 1.258 . S
C3249 C3252 1.431 . S
C3249 C3269 1.449 . S
C3250 C3249 1.258 . S
C3250 C3251 1.477 . S
C3250 H3270 0.931 . S
C3251 C3247 1.460 . S
C3251 C3250 1.477 . S
C3251 H3271 0.930 . S
C3252 N3248 1.362 . S
C3252 C3249 1.431 . S
C3252 C3262 1.476 . S
H3253 C3247 0.929 . S
C3254 O3245 1.250 . S
C3254 O3246 1.258 . S
O3255 Mn3240 2.162 . S
O3255 C3243 1.281 . S
O3256 Mn3240 2.297 . S
O3256 C3243 1.236 . S
N3257 Mn3241 2.282 . S
N3257 C3258 1.328 . S
N3257 C3262 1.318 . S
C3258 N3257 1.328 . S
C3258 C3259 1.457 . S
C3258 H3263 0.929 . S
C3259 C3258 1.457 . S
C3259 C3260 1.291 . S
C3259 H3272 0.931 . S
C3260 C3259 1.291 . S
C3260 C3261 1.373 . S
C3260 H3273 0.929 . S
C3261 C3260 1.373 . S
C3261 C3262 1.396 . S
C3261 C3268 1.403 . S
C3262 C3252 1.476 . S
C3262 N3257 1.318 . S
C3262 C3261 1.396 . S
H3263 C3258 0.929 . S
O3264 Mn3240 2.385 . S
O3264 C3242 1.234 . S
O3265 Mn3240 2.209 . S
O3265 Mn3241 2.215 . S
O3265 C3242 1.283 . S
O3266 Mn3240 2.094 . S
O3266 C3244 1.240 . S
O3267 Mn3241 2.117 . S
O3267 C3244 1.264 . S
C3268 C3261 1.403 . S
C3268 C3269 1.399 . S
C3268 H3274 0.929 . S
C3269 C3249 1.449 . S
C3269 C3268 1.399 . S
C3269 H3275 0.930 . S
H3270 C3250 0.931 . S
H3271 C3251 0.930 . S
H3272 C3259 0.931 . S
H3273 C3260 0.929 . S
H3274 C3268 0.929 . S
H3275 C3269 0.930 . S
Mn3276 O3281 2.095 . S
Mn3276 O3291 2.162 . S
Mn3276 O3292 2.297 . S
Mn3276 O3300 2.385 . S
Mn3276 O3301 2.209 . S
Mn3276 O3302 2.094 . S
Mn3277 O3282 2.121 . S
Mn3277 N3284 2.257 . S
Mn3277 N3293 2.282 . S
Mn3277 O3301 2.215 . S
Mn3277 O3303 2.117 . S
C3278 O3300 1.234 . S
C3278 O3301 1.283 . S
C3279 O3291 1.281 . S
C3279 O3292 1.236 . S
C3280 O3302 1.240 . S
C3280 O3303 1.264 . S
O3281 Mn3276 2.095 . S
O3281 C3290 1.250 . S
O3282 Mn3277 2.121 . S
O3282 C3290 1.258 . S
C3283 N3284 1.326 . S
C3283 C3287 1.460 . S
C3283 H3289 0.929 . S
N3284 Mn3277 2.257 . S
N3284 C3283 1.326 . S
N3284 C3288 1.362 . S
C3285 C3286 1.258 . S
C3285 C3288 1.431 . S
C3285 C3305 1.449 . S
C3286 C3285 1.258 . S
C3286 C3287 1.477 . S
C3286 H3306 0.931 . S
C3287 C3283 1.460 . S
C3287 C3286 1.477 . S
C3287 H3307 0.930 . S
C3288 N3284 1.362 . S
C3288 C3285 1.431 . S
C3288 C3298 1.476 . S
H3289 C3283 0.929 . S
C3290 O3281 1.250 . S
C3290 O3282 1.258 . S
O3291 Mn3276 2.162 . S
O3291 C3279 1.281 . S
O3292 Mn3276 2.297 . S
O3292 C3279 1.236 . S
N3293 Mn3277 2.282 . S
N3293 C3294 1.328 . S
N3293 C3298 1.318 . S
C3294 N3293 1.328 . S
C3294 C3295 1.457 . S
C3294 H3299 0.929 . S
C3295 C3294 1.457 . S
C3295 C3296 1.291 . S
C3295 H3308 0.931 . S
C3296 C3295 1.291 . S
C3296 C3297 1.373 . S
C3296 H3309 0.929 . S
C3297 C3296 1.373 . S
C3297 C3298 1.396 . S
C3297 C3304 1.403 . S
C3298 C3288 1.476 . S
C3298 N3293 1.318 . S
C3298 C3297 1.396 . S
H3299 C3294 0.929 . S
O3300 Mn3276 2.385 . S
O3300 C3278 1.234 . S
O3301 Mn3276 2.209 . S
O3301 Mn3277 2.215 . S
O3301 C3278 1.283 . S
O3302 Mn3276 2.094 . S
O3302 C3280 1.240 . S
O3303 Mn3277 2.117 . S
O3303 C3280 1.264 . S
C3304 C3297 1.403 . S
C3304 C3305 1.399 . S
C3304 H3310 0.929 . S
C3305 C3285 1.449 . S
C3305 C3304 1.399 . S
C3305 H3311 0.930 . S
H3306 C3286 0.931 . S
H3307 C3287 0.930 . S
H3308 C3295 0.931 . S
H3309 C3296 0.929 . S
H3310 C3304 0.929 . S
H3311 C3305 0.930 . S
Mn3312 O3317 2.095 . S
Mn3312 O3327 2.162 . S
Mn3312 O3328 2.297 . S
Mn3312 O3336 2.385 . S
Mn3312 O3337 2.209 . S
Mn3312 O3338 2.094 . S
Mn3313 O3318 2.121 . S
Mn3313 N3320 2.257 . S
Mn3313 N3329 2.282 . S
Mn3313 O3337 2.215 . S
Mn3313 O3339 2.117 . S
C3314 O3336 1.234 . S
C3314 O3337 1.283 . S
C3315 O3327 1.281 . S
C3315 O3328 1.236 . S
C3316 O3338 1.240 . S
C3316 O3339 1.264 . S
O3317 Mn3312 2.095 . S
O3317 C3326 1.250 . S
O3318 Mn3313 2.121 . S
O3318 C3326 1.258 . S
C3319 N3320 1.326 . S
C3319 C3323 1.460 . S
C3319 H3325 0.929 . S
N3320 Mn3313 2.257 . S
N3320 C3319 1.326 . S
N3320 C3324 1.362 . S
C3321 C3322 1.258 . S
C3321 C3324 1.431 . S
C3321 C3341 1.449 . S
C3322 C3321 1.258 . S
C3322 C3323 1.477 . S
C3322 H3342 0.931 . S
C3323 C3319 1.460 . S
C3323 C3322 1.477 . S
C3323 H3343 0.930 . S
C3324 N3320 1.362 . S
C3324 C3321 1.431 . S
C3324 C3334 1.476 . S
H3325 C3319 0.929 . S
C3326 O3317 1.250 . S
C3326 O3318 1.258 . S
O3327 Mn3312 2.162 . S
O3327 C3315 1.281 . S
O3328 Mn3312 2.297 . S
O3328 C3315 1.236 . S
N3329 Mn3313 2.282 . S
N3329 C3330 1.328 . S
N3329 C3334 1.318 . S
C3330 N3329 1.328 . S
C3330 C3331 1.457 . S
C3330 H3335 0.929 . S
C3331 C3330 1.457 . S
C3331 C3332 1.291 . S
C3331 H3344 0.931 . S
C3332 C3331 1.291 . S
C3332 C3333 1.373 . S
C3332 H3345 0.929 . S
C3333 C3332 1.373 . S
C3333 C3334 1.396 . S
C3333 C3340 1.403 . S
C3334 C3324 1.476 . S
C3334 N3329 1.318 . S
C3334 C3333 1.396 . S
H3335 C3330 0.929 . S
O3336 Mn3312 2.385 . S
O3336 C3314 1.234 . S
O3337 Mn3312 2.209 . S
O3337 Mn3313 2.215 . S
O3337 C3314 1.283 . S
O3338 Mn3312 2.094 . S
O3338 C3316 1.240 . S
O3339 Mn3313 2.117 . S
O3339 C3316 1.264 . S
C3340 C3333 1.403 . S
C3340 C3341 1.399 . S
C3340 H3346 0.929 . S
C3341 C3321 1.449 . S
C3341 C3340 1.399 . S
C3341 H3347 0.930 . S
H3342 C3322 0.931 . S
H3343 C3323 0.930 . S
H3344 C3331 0.931 . S
H3345 C3332 0.929 . S
H3346 C3340 0.929 . S
H3347 C3341 0.930 . S
Mn3348 O3353 2.095 . S
Mn3348 O3363 2.162 1_655 S
Mn3348 O3364 2.297 . S
Mn3348 O3372 2.385 . S
Mn3348 O3373 2.209 . S
Mn3348 O3374 2.094 . S
Mn3349 O3354 2.121 . S
Mn3349 N3356 2.257 . S
Mn3349 N3365 2.282 . S
Mn3349 O3373 2.215 . S
Mn3349 O3375 2.117 . S
C3350 O3372 1.234 . S
C3350 O3373 1.283 . S
C3351 O3363 1.277 1_655 S
C3351 O3364 1.244 . S
C3352 O3374 1.240 . S
C3352 O3375 1.264 . S
O3353 Mn3348 2.095 . S
O3353 C3362 1.250 . S
O3354 Mn3349 2.121 . S
O3354 C3362 1.258 . S
C3355 N3356 1.326 . S
C3355 C3359 1.460 . S
C3355 H3361 0.929 . S
N3356 Mn3349 2.257 . S
N3356 C3355 1.326 . S
N3356 C3360 1.362 . S
C3357 C3358 1.258 . S
C3357 C3360 1.431 . S
C3357 C3377 1.449 . S
C3358 C3357 1.258 . S
C3358 C3359 1.477 . S
C3358 H3378 0.931 . S
C3359 C3355 1.460 . S
C3359 C3358 1.477 . S
C3359 H3379 0.930 . S
C3360 N3356 1.362 . S
C3360 C3357 1.431 . S
C3360 C3370 1.476 . S
H3361 C3355 0.929 . S
C3362 O3353 1.250 . S
C3362 O3354 1.258 . S
O3363 Mn3348 2.162 1_455 S
O3363 C3351 1.277 1_455 S
O3364 Mn3348 2.297 . S
O3364 C3351 1.244 . S
N3365 Mn3349 2.282 . S
N3365 C3366 1.328 . S
N3365 C3370 1.318 . S
C3366 N3365 1.328 . S
C3366 C3367 1.457 . S
C3366 H3371 0.929 . S
C3367 C3366 1.457 . S
C3367 C3368 1.291 . S
C3367 H3380 0.931 . S
C3368 C3367 1.291 . S
C3368 C3369 1.373 . S
C3368 H3381 0.929 . S
C3369 C3368 1.373 . S
C3369 C3370 1.396 . S
C3369 C3376 1.403 . S
C3370 C3360 1.476 . S
C3370 N3365 1.318 . S
C3370 C3369 1.396 . S
H3371 C3366 0.929 . S
O3372 Mn3348 2.385 . S
O3372 C3350 1.234 . S
O3373 Mn3348 2.209 . S
O3373 Mn3349 2.215 . S
O3373 C3350 1.283 . S
O3374 Mn3348 2.094 . S
O3374 C3352 1.240 . S
O3375 Mn3349 2.117 . S
O3375 C3352 1.264 . S
C3376 C3369 1.403 . S
C3376 C3377 1.399 . S
C3376 H3382 0.929 . S
C3377 C3357 1.449 . S
C3377 C3376 1.399 . S
C3377 H3383 0.930 . S
H3378 C3358 0.931 . S
H3379 C3359 0.930 . S
H3380 C3367 0.931 . S
H3381 C3368 0.929 . S
H3382 C3376 0.929 . S
H3383 C3377 0.930 . S
Mn3384 O3389 2.095 . S
Mn3384 O3399 2.162 . S
Mn3384 O3400 2.297 . S
Mn3384 O3408 2.385 . S
Mn3384 O3409 2.209 . S
Mn3384 O3410 2.094 . S
Mn3385 O3390 2.121 . S
Mn3385 N3392 2.257 . S
Mn3385 N3401 2.282 . S
Mn3385 O3409 2.215 . S
Mn3385 O3411 2.117 . S
C3386 O3408 1.234 . S
C3386 O3409 1.283 . S
C3387 O3399 1.281 . S
C3387 O3400 1.236 . S
C3388 O3410 1.240 . S
C3388 O3411 1.264 . S
O3389 Mn3384 2.095 . S
O3389 C3398 1.250 . S
O3390 Mn3385 2.121 . S
O3390 C3398 1.258 . S
C3391 N3392 1.326 . S
C3391 C3395 1.460 . S
C3391 H3397 0.929 . S
N3392 Mn3385 2.257 . S
N3392 C3391 1.326 . S
N3392 C3396 1.362 . S
C3393 C3394 1.258 . S
C3393 C3396 1.431 . S
C3393 C3413 1.449 . S
C3394 C3393 1.258 . S
C3394 C3395 1.477 . S
C3394 H3414 0.931 . S
C3395 C3391 1.460 . S
C3395 C3394 1.477 . S
C3395 H3415 0.930 . S
C3396 N3392 1.362 . S
C3396 C3393 1.431 . S
C3396 C3406 1.476 . S
H3397 C3391 0.929 . S
C3398 O3389 1.250 . S
C3398 O3390 1.258 . S
O3399 Mn3384 2.162 . S
O3399 C3387 1.281 . S
O3400 Mn3384 2.297 . S
O3400 C3387 1.236 . S
N3401 Mn3385 2.282 . S
N3401 C3402 1.328 . S
N3401 C3406 1.318 . S
C3402 N3401 1.328 . S
C3402 C3403 1.457 . S
C3402 H3407 0.929 . S
C3403 C3402 1.457 . S
C3403 C3404 1.291 . S
C3403 H3416 0.931 . S
C3404 C3403 1.291 . S
C3404 C3405 1.373 . S
C3404 H3417 0.929 . S
C3405 C3404 1.373 . S
C3405 C3406 1.396 . S
C3405 C3412 1.403 . S
C3406 C3396 1.476 . S
C3406 N3401 1.318 . S
C3406 C3405 1.396 . S
H3407 C3402 0.929 . S
O3408 Mn3384 2.385 . S
O3408 C3386 1.234 . S
O3409 Mn3384 2.209 . S
O3409 Mn3385 2.215 . S
O3409 C3386 1.283 . S
O3410 Mn3384 2.094 . S
O3410 C3388 1.240 . S
O3411 Mn3385 2.117 . S
O3411 C3388 1.264 . S
C3412 C3405 1.403 . S
C3412 C3413 1.399 . S
C3412 H3418 0.929 . S
C3413 C3393 1.449 . S
C3413 C3412 1.399 . S
C3413 H3419 0.930 . S
H3414 C3394 0.931 . S
H3415 C3395 0.930 . S
H3416 C3403 0.931 . S
H3417 C3404 0.929 . S
H3418 C3412 0.929 . S
H3419 C3413 0.930 . S
Mn3420 O3425 2.095 . S
Mn3420 O3435 2.162 . S
Mn3420 O3436 2.297 . S
Mn3420 O3444 2.385 . S
Mn3420 O3445 2.209 . S
Mn3420 O3446 2.094 . S
Mn3421 O3426 2.121 . S
Mn3421 N3428 2.257 . S
Mn3421 N3437 2.282 . S
Mn3421 O3445 2.215 . S
Mn3421 O3447 2.117 . S
C3422 O3444 1.234 . S
C3422 O3445 1.283 . S
C3423 O3435 1.281 . S
C3423 O3436 1.236 . S
C3424 O3446 1.240 . S
C3424 O3447 1.264 . S
O3425 Mn3420 2.095 . S
O3425 C3434 1.250 . S
O3426 Mn3421 2.121 . S
O3426 C3434 1.258 . S
C3427 N3428 1.326 . S
C3427 C3431 1.460 . S
C3427 H3433 0.929 . S
N3428 Mn3421 2.257 . S
N3428 C3427 1.326 . S
N3428 C3432 1.362 . S
C3429 C3430 1.258 . S
C3429 C3432 1.431 . S
C3429 C3449 1.449 . S
C3430 C3429 1.258 . S
C3430 C3431 1.477 . S
C3430 H3450 0.931 . S
C3431 C3427 1.460 . S
C3431 C3430 1.477 . S
C3431 H3451 0.930 . S
C3432 N3428 1.362 . S
C3432 C3429 1.431 . S
C3432 C3442 1.476 . S
H3433 C3427 0.929 . S
C3434 O3425 1.250 . S
C3434 O3426 1.258 . S
O3435 Mn3420 2.162 . S
O3435 C3423 1.281 . S
O3436 Mn3420 2.297 . S
O3436 C3423 1.236 . S
N3437 Mn3421 2.282 . S
N3437 C3438 1.328 . S
N3437 C3442 1.318 . S
C3438 N3437 1.328 . S
C3438 C3439 1.457 . S
C3438 H3443 0.929 . S
C3439 C3438 1.457 . S
C3439 C3440 1.291 . S
C3439 H3452 0.931 . S
C3440 C3439 1.291 . S
C3440 C3441 1.373 . S
C3440 H3453 0.929 . S
C3441 C3440 1.373 . S
C3441 C3442 1.396 . S
C3441 C3448 1.403 . S
C3442 C3432 1.476 . S
C3442 N3437 1.318 . S
C3442 C3441 1.396 . S
H3443 C3438 0.929 . S
O3444 Mn3420 2.385 . S
O3444 C3422 1.234 . S
O3445 Mn3420 2.209 . S
O3445 Mn3421 2.215 . S
O3445 C3422 1.283 . S
O3446 Mn3420 2.094 . S
O3446 C3424 1.240 . S
O3447 Mn3421 2.117 . S
O3447 C3424 1.264 . S
C3448 C3441 1.403 . S
C3448 C3449 1.399 . S
C3448 H3454 0.929 . S
C3449 C3429 1.449 . S
C3449 C3448 1.399 . S
C3449 H3455 0.930 . S
H3450 C3430 0.931 . S
H3451 C3431 0.930 . S
H3452 C3439 0.931 . S
H3453 C3440 0.929 . S
H3454 C3448 0.929 . S
H3455 C3449 0.930 . S
C3456 C3457 1.363 . S
C3456 C3462 1.379 . S
C3456 N3464 1.356 . S
C3457 C3456 1.363 . S
C3457 C3463 1.363 . S
C3458 C3459 1.363 . S
C3458 C3463 1.379 . S
C3458 N3465 1.356 . S
C3459 C3458 1.363 . S
C3459 C3462 1.363 . S
N3460 C3462 1.356 . S
N3460 H3472 0.984 . S
N3460 H3473 0.985 . S
N3461 C3463 1.356 . S
N3461 H3466 0.984 . S
N3461 H3467 0.985 . S
C3462 C3456 1.379 . S
C3462 C3459 1.363 . S
C3462 N3460 1.356 . S
C3463 C3457 1.363 . S
C3463 C3458 1.379 . S
C3463 N3461 1.356 . S
N3464 C3456 1.356 . S
N3464 H3470 0.984 . S
N3464 H3471 0.984 . S
N3465 C3458 1.356 . S
N3465 H3468 0.984 . S
N3465 H3469 0.985 . S
H3466 N3461 0.984 . S
H3467 N3461 0.985 . S
H3468 N3465 0.984 . S
H3469 N3465 0.985 . S
H3470 N3464 0.984 . S
H3471 N3464 0.984 . S
H3472 N3460 0.984 . S
H3473 N3460 0.985 . S
C3474 C3475 1.363 . S
C3474 C3480 1.379 . S
C3474 N3482 1.356 . S
C3475 C3474 1.363 . S
C3475 C3481 1.363 . S
C3476 C3477 1.363 . S
C3476 C3481 1.379 . S
C3476 N3483 1.356 . S
C3477 C3476 1.363 . S
C3477 C3480 1.363 . S
N3478 C3480 1.356 . S
N3478 H3490 0.984 . S
N3478 H3491 0.985 . S
N3479 C3481 1.356 . S
N3479 H3484 0.984 . S
N3479 H3485 0.985 . S
C3480 C3474 1.379 . S
C3480 C3477 1.363 . S
C3480 N3478 1.356 . S
C3481 C3475 1.363 . S
C3481 C3476 1.379 . S
C3481 N3479 1.356 . S
N3482 C3474 1.356 . S
N3482 H3488 0.984 . S
N3482 H3489 0.984 . S
N3483 C3476 1.356 . S
N3483 H3486 0.984 . S
N3483 H3487 0.985 . S
H3484 N3479 0.984 . S
H3485 N3479 0.985 . S
H3486 N3483 0.984 . S
H3487 N3483 0.985 . S
H3488 N3482 0.984 . S
H3489 N3482 0.984 . S
H3490 N3478 0.984 . S
H3491 N3478 0.985 . S
C3492 C3493 1.363 . S
C3492 C3498 1.379 . S
C3492 N3500 1.356 . S
C3493 C3492 1.363 . S
C3493 C3499 1.363 . S
C3494 C3495 1.363 . S
C3494 C3499 1.379 . S
C3494 N3501 1.356 . S
C3495 C3494 1.363 . S
C3495 C3498 1.363 . S
N3496 C3498 1.392 . S
N3496 H3508 0.961 1_565 S
N3496 H3509 0.974 1_565 S
N3497 C3499 1.356 . S
N3497 H3502 0.984 . S
N3497 H3503 0.985 . S
C3498 C3492 1.379 . S
C3498 C3495 1.363 . S
C3498 N3496 1.392 . S
C3499 C3493 1.363 . S
C3499 C3494 1.379 . S
C3499 N3497 1.356 . S
N3500 C3492 1.356 . S
N3500 H3506 0.984 . S
N3500 H3507 0.984 . S
N3501 C3494 1.356 . S
N3501 H3504 0.984 . S
N3501 H3505 0.985 . S
H3502 N3497 0.984 . S
H3503 N3497 0.985 . S
H3504 N3501 0.984 . S
H3505 N3501 0.985 . S
H3506 N3500 0.984 . S
H3507 N3500 0.984 . S
H3508 N3496 0.961 1_545 S
H3509 N3496 0.974 1_545 S
C3510 C3511 1.363 . S
C3510 C3516 1.379 . S
C3510 N3518 1.356 . S
C3511 C3510 1.363 . S
C3511 C3517 1.363 . S
C3512 C3513 1.363 . S
C3512 C3517 1.379 . S
C3512 N3519 1.356 . S
C3513 C3512 1.363 . S
C3513 C3516 1.363 . S
N3514 C3516 1.356 . S
N3514 H3526 0.984 . S
N3514 H3527 0.985 . S
N3515 C3517 1.356 . S
N3515 H3520 0.984 . S
N3515 H3521 0.985 . S
C3516 C3510 1.379 . S
C3516 C3513 1.363 . S
C3516 N3514 1.356 . S
C3517 C3511 1.363 . S
C3517 C3512 1.379 . S
C3517 N3515 1.356 . S
N3518 C3510 1.356 . S
N3518 H3524 0.984 . S
N3518 H3525 0.984 . S
N3519 C3512 1.356 . S
N3519 H3522 0.984 . S
N3519 H3523 0.985 . S
H3520 N3515 0.984 . S
H3521 N3515 0.985 . S
H3522 N3519 0.984 . S
H3523 N3519 0.985 . S
H3524 N3518 0.984 . S
H3525 N3518 0.984 . S
H3526 N3514 0.984 . S
H3527 N3514 0.985 . S
C3528 C3529 1.363 . S
C3528 C3534 1.379 . S
C3528 N3536 1.356 . S
C3529 C3528 1.363 . S
C3529 C3535 1.363 . S
C3530 C3531 1.363 . S
C3530 C3535 1.379 . S
C3530 N3537 1.356 . S
C3531 C3530 1.363 . S
C3531 C3534 1.363 . S
N3532 C3534 1.356 . S
N3532 H3544 0.984 . S
N3532 H3545 0.985 . S
N3533 C3535 1.356 . S
N3533 H3538 0.984 . S
N3533 H3539 0.985 . S
C3534 C3528 1.379 . S
C3534 C3531 1.363 . S
C3534 N3532 1.356 . S
C3535 C3529 1.363 . S
C3535 C3530 1.379 . S
C3535 N3533 1.356 . S
N3536 C3528 1.356 . S
N3536 H3542 0.984 . S
N3536 H3543 0.984 . S
N3537 C3530 1.356 . S
N3537 H3540 0.984 . S
N3537 H3541 0.985 . S
H3538 N3533 0.984 . S
H3539 N3533 0.985 . S
H3540 N3537 0.984 . S
H3541 N3537 0.985 . S
H3542 N3536 0.984 . S
H3543 N3536 0.984 . S
H3544 N3532 0.984 . S
H3545 N3532 0.985 . S
C3546 C3547 1.363 . S
C3546 C3552 1.379 . S
C3546 N3554 1.356 . S
C3547 C3546 1.363 . S
C3547 C3553 1.363 . S
C3548 C3549 1.363 . S
C3548 C3553 1.379 . S
C3548 N3555 1.356 . S
C3549 C3548 1.363 . S
C3549 C3552 1.363 . S
N3550 C3552 1.356 . S
N3550 H3562 0.984 . S
N3550 H3563 0.985 . S
N3551 C3553 1.356 . S
N3551 H3556 0.984 . S
N3551 H3557 0.985 . S
C3552 C3546 1.379 . S
C3552 C3549 1.363 . S
C3552 N3550 1.356 . S
C3553 C3547 1.363 . S
C3553 C3548 1.379 . S
C3553 N3551 1.356 . S
N3554 C3546 1.356 . S
N3554 H3560 0.984 . S
N3554 H3561 0.984 . S
N3555 C3548 1.356 . S
N3555 H3558 0.984 . S
N3555 H3559 0.985 . S
H3556 N3551 0.984 . S
H3557 N3551 0.985 . S
H3558 N3555 0.984 . S
H3559 N3555 0.985 . S
H3560 N3554 0.984 . S
H3561 N3554 0.984 . S
H3562 N3550 0.984 . S
H3563 N3550 0.985 . S
C3564 C3565 1.363 . S
C3564 C3570 1.379 . S
C3564 N3572 1.356 . S
C3565 C3564 1.363 . S
C3565 C3571 1.363 . S
C3566 C3567 1.363 . S
C3566 C3571 1.379 . S
C3566 N3573 1.356 . S
C3567 C3566 1.363 . S
C3567 C3570 1.363 . S
N3568 C3570 1.356 . S
N3568 H3580 0.984 . S
N3568 H3581 0.985 . S
N3569 C3571 1.356 1_565 S
N3569 H3574 0.984 . S
N3569 H3575 0.985 . S
C3570 C3564 1.379 . S
C3570 C3567 1.363 . S
C3570 N3568 1.356 . S
C3571 C3565 1.363 . S
C3571 C3566 1.379 . S
C3571 N3569 1.356 1_545 S
N3572 C3564 1.356 . S
N3572 H3578 0.984 . S
N3572 H3579 0.984 . S
N3573 C3566 1.356 . S
N3573 H3576 0.984 . S
N3573 H3577 0.985 . S
H3574 N3569 0.984 . S
H3575 N3569 0.985 . S
H3576 N3573 0.984 . S
H3577 N3573 0.985 . S
H3578 N3572 0.984 . S
H3579 N3572 0.984 . S
H3580 N3568 0.984 . S
H3581 N3568 0.985 . S
C3582 C3583 1.363 . S
C3582 C3588 1.379 . S
C3582 N3590 1.356 . S
C3583 C3582 1.363 . S
C3583 C3589 1.363 . S
C3584 C3585 1.363 . S
C3584 C3589 1.379 . S
C3584 N3591 1.356 . S
C3585 C3584 1.363 . S
C3585 C3588 1.363 . S
N3586 C3588 1.356 . S
N3586 H3598 0.984 . S
N3586 H3599 0.985 . S
N3587 C3589 1.356 . S
N3587 H3592 0.984 . S
N3587 H3593 0.985 . S
C3588 C3582 1.379 . S
C3588 C3585 1.363 . S
C3588 N3586 1.356 . S
C3589 C3583 1.363 . S
C3589 C3584 1.379 . S
C3589 N3587 1.356 . S
N3590 C3582 1.356 . S
N3590 H3596 0.984 . S
N3590 H3597 0.984 . S
N3591 C3584 1.356 . S
N3591 H3594 0.984 . S
N3591 H3595 0.985 . S
H3592 N3587 0.984 . S
H3593 N3587 0.985 . S
H3594 N3591 0.984 . S
H3595 N3591 0.985 . S
H3596 N3590 0.984 . S
H3597 N3590 0.984 . S
H3598 N3586 0.984 . S
H3599 N3586 0.985 . S
C3600 C3601 1.363 . S
C3600 C3606 1.379 . S
C3600 N3608 1.356 . S
C3601 C3600 1.363 . S
C3601 C3607 1.363 . S
C3602 C3603 1.363 . S
C3602 C3607 1.379 . S
C3602 N3609 1.356 . S
C3603 C3602 1.363 . S
C3603 C3606 1.363 . S
N3604 C3606 1.356 . S
N3604 H3616 0.984 . S
N3604 H3617 0.985 . S
N3605 C3607 1.356 . S
N3605 H3610 0.984 . S
N3605 H3611 0.985 . S
C3606 C3600 1.379 . S
C3606 C3603 1.363 . S
C3606 N3604 1.356 . S
C3607 C3601 1.363 . S
C3607 C3602 1.379 . S
C3607 N3605 1.356 . S
N3608 C3600 1.356 . S
N3608 H3614 0.984 . S
N3608 H3615 0.984 . S
N3609 C3602 1.356 . S
N3609 H3612 0.984 . S
N3609 H3613 0.985 . S
H3610 N3605 0.984 . S
H3611 N3605 0.985 . S
H3612 N3609 0.984 . S
H3613 N3609 0.985 . S
H3614 N3608 0.984 . S
H3615 N3608 0.984 . S
H3616 N3604 0.984 . S
H3617 N3604 0.985 . S
C3618 C3619 1.363 . S
C3618 C3624 1.379 . S
C3618 N3626 1.356 . S
C3619 C3618 1.363 . S
C3619 C3625 1.363 . S
C3620 C3621 1.363 . S
C3620 C3625 1.379 . S
C3620 N3627 1.356 . S
C3621 C3620 1.363 . S
C3621 C3624 1.363 . S
N3622 C3624 1.356 . S
N3622 H3634 0.984 . S
N3622 H3635 0.985 . S
N3623 C3625 1.356 . S
N3623 H3628 0.984 . S
N3623 H3629 0.985 . S
C3624 C3618 1.379 . S
C3624 C3621 1.363 . S
C3624 N3622 1.356 . S
C3625 C3619 1.363 . S
C3625 C3620 1.379 . S
C3625 N3623 1.356 . S
N3626 C3618 1.356 . S
N3626 H3632 0.984 . S
N3626 H3633 0.984 . S
N3627 C3620 1.356 . S
N3627 H3630 0.984 . S
N3627 H3631 0.985 . S
H3628 N3623 0.984 . S
H3629 N3623 0.985 . S
H3630 N3627 0.984 . S
H3631 N3627 0.985 . S
H3632 N3626 0.984 . S
H3633 N3626 0.984 . S
H3634 N3622 0.984 . S
H3635 N3622 0.985 . S
C3636 C3637 1.363 . S
C3636 C3642 1.379 . S
C3636 N3644 1.356 . S
C3637 C3636 1.363 . S
C3637 C3643 1.363 . S
C3638 C3639 1.363 . S
C3638 C3643 1.379 . S
C3638 N3645 1.356 . S
C3639 C3638 1.363 . S
C3639 C3642 1.363 . S
N3640 C3642 1.356 . S
N3640 H3652 0.984 . S
N3640 H3653 0.985 . S
N3641 C3643 1.356 . S
N3641 H3646 0.984 . S
N3641 H3647 0.985 . S
C3642 C3636 1.379 . S
C3642 C3639 1.363 . S
C3642 N3640 1.356 . S
C3643 C3637 1.363 . S
C3643 C3638 1.379 . S
C3643 N3641 1.356 . S
N3644 C3636 1.356 . S
N3644 H3650 0.984 . S
N3644 H3651 0.984 . S
N3645 C3638 1.356 . S
N3645 H3648 0.984 . S
N3645 H3649 0.985 . S
H3646 N3641 0.984 . S
H3647 N3641 0.985 . S
H3648 N3645 0.984 . S
H3649 N3645 0.985 . S
H3650 N3644 0.984 . S
H3651 N3644 0.984 . S
H3652 N3640 0.984 . S
H3653 N3640 0.985 . S
C3654 C3655 1.363 . S
C3654 C3660 1.379 . S
C3654 N3662 1.356 . S
C3655 C3654 1.363 . S
C3655 C3661 1.363 . S
C3656 C3657 1.363 . S
C3656 C3661 1.379 . S
C3656 N3663 1.356 . S
C3657 C3656 1.363 . S
C3657 C3660 1.363 . S
N3658 C3660 1.356 . S
N3658 H3670 0.984 . S
N3658 H3671 0.985 . S
N3659 C3661 1.356 . S
N3659 H3664 0.984 . S
N3659 H3665 0.985 . S
C3660 C3654 1.379 . S
C3660 C3657 1.363 . S
C3660 N3658 1.356 . S
C3661 C3655 1.363 . S
C3661 C3656 1.379 . S
C3661 N3659 1.356 . S
N3662 C3654 1.356 . S
N3662 H3668 0.984 . S
N3662 H3669 0.984 . S
N3663 C3656 1.356 . S
N3663 H3666 0.984 . S
N3663 H3667 0.985 . S
H3664 N3659 0.984 . S
H3665 N3659 0.985 . S
H3666 N3663 0.984 . S
H3667 N3663 0.985 . S
H3668 N3662 0.984 . S
H3669 N3662 0.984 . S
H3670 N3658 0.984 . S
H3671 N3658 0.985 . S
C3672 C3673 1.363 . S
C3672 C3678 1.379 . S
C3672 N3680 1.356 . S
C3673 C3672 1.363 . S
C3673 C3679 1.363 . S
C3674 C3675 1.363 . S
C3674 C3679 1.379 . S
C3674 N3681 1.356 . S
C3675 C3674 1.363 . S
C3675 C3678 1.363 . S
N3676 C3678 1.356 . S
N3676 H3688 0.984 . S
N3676 H3689 0.985 . S
N3677 C3679 1.356 . S
N3677 H3682 0.984 . S
N3677 H3683 0.985 . S
C3678 C3672 1.379 . S
C3678 C3675 1.363 . S
C3678 N3676 1.356 . S
C3679 C3673 1.363 . S
C3679 C3674 1.379 . S
C3679 N3677 1.356 . S
N3680 C3672 1.356 . S
N3680 H3686 0.984 . S
N3680 H3687 0.984 . S
N3681 C3674 1.356 . S
N3681 H3684 0.984 . S
N3681 H3685 0.985 . S
H3682 N3677 0.984 . S
H3683 N3677 0.985 . S
H3684 N3681 0.984 . S
H3685 N3681 0.985 . S
H3686 N3680 0.984 . S
H3687 N3680 0.984 . S
H3688 N3676 0.984 . S
H3689 N3676 0.985 . S
C3690 C3691 1.363 . S
C3690 C3696 1.379 . S
C3690 N3698 1.356 . S
C3691 C3690 1.363 . S
C3691 C3697 1.363 . S
C3692 C3693 1.363 . S
C3692 C3697 1.379 . S
C3692 N3699 1.356 . S
C3693 C3692 1.363 . S
C3693 C3696 1.363 . S
N3694 C3696 1.356 . S
N3694 H3706 0.984 . S
N3694 H3707 0.985 . S
N3695 C3697 1.356 . S
N3695 H3700 0.984 . S
N3695 H3701 0.985 . S
C3696 C3690 1.379 . S
C3696 C3693 1.363 . S
C3696 N3694 1.356 . S
C3697 C3691 1.363 . S
C3697 C3692 1.379 . S
C3697 N3695 1.356 . S
N3698 C3690 1.356 . S
N3698 H3704 0.984 . S
N3698 H3705 0.984 . S
N3699 C3692 1.356 . S
N3699 H3702 0.984 . S
N3699 H3703 0.985 . S
H3700 N3695 0.984 . S
H3701 N3695 0.985 . S
H3702 N3699 0.984 . S
H3703 N3699 0.985 . S
H3704 N3698 0.984 . S
H3705 N3698 0.984 . S
H3706 N3694 0.984 . S
H3707 N3694 0.985 . S
C3708 C3709 1.363 . S
C3708 C3714 1.379 . S
C3708 N3716 1.356 . S
C3709 C3708 1.363 . S
C3709 C3715 1.363 . S
C3710 C3711 1.363 . S
C3710 C3715 1.379 . S
C3710 N3717 1.356 . S
C3711 C3710 1.363 . S
C3711 C3714 1.363 . S
N3712 C3714 1.356 . S
N3712 H3724 0.984 . S
N3712 H3725 0.985 . S
N3713 C3715 1.356 . S
N3713 H3718 0.984 . S
N3713 H3719 0.985 . S
C3714 C3708 1.379 . S
C3714 C3711 1.363 . S
C3714 N3712 1.356 . S
C3715 C3709 1.363 . S
C3715 C3710 1.379 . S
C3715 N3713 1.356 . S
N3716 C3708 1.356 . S
N3716 H3722 0.984 . S
N3716 H3723 0.984 . S
N3717 C3710 1.356 . S
N3717 H3720 0.984 . S
N3717 H3721 0.985 . S
H3718 N3713 0.984 . S
H3719 N3713 0.985 . S
H3720 N3717 0.984 . S
H3721 N3717 0.985 . S
H3722 N3716 0.984 . S
H3723 N3716 0.984 . S
H3724 N3712 0.984 . S
H3725 N3712 0.985 . S
C3726 C3727 1.363 . S
C3726 C3732 1.379 . S
C3726 N3734 1.356 . S
C3727 C3726 1.363 . S
C3727 C3733 1.363 . S
C3728 C3729 1.363 . S
C3728 C3733 1.379 . S
C3728 N3735 1.356 . S
C3729 C3728 1.363 . S
C3729 C3732 1.363 . S
N3730 C3732 1.356 . S
N3730 H3742 0.984 . S
N3730 H3743 0.985 . S
N3731 C3733 1.356 . S
N3731 H3736 0.984 . S
N3731 H3737 0.985 . S
C3732 C3726 1.379 . S
C3732 C3729 1.363 . S
C3732 N3730 1.356 . S
C3733 C3727 1.363 . S
C3733 C3728 1.379 . S
C3733 N3731 1.356 . S
N3734 C3726 1.356 . S
N3734 H3740 0.984 . S
N3734 H3741 0.984 . S
N3735 C3728 1.356 . S
N3735 H3738 0.984 . S
N3735 H3739 0.985 . S
H3736 N3731 0.984 . S
H3737 N3731 0.985 . S
H3738 N3735 0.984 . S
H3739 N3735 0.985 . S
H3740 N3734 0.984 . S
H3741 N3734 0.984 . S
H3742 N3730 0.984 . S
H3743 N3730 0.985 . S
C3744 C3745 1.363 . S
C3744 C3750 1.379 . S
C3744 N3752 1.356 . S
C3745 C3744 1.363 . S
C3745 C3751 1.363 . S
C3746 C3747 1.363 . S
C3746 C3751 1.379 . S
C3746 N3753 1.356 . S
C3747 C3746 1.363 . S
C3747 C3750 1.363 . S
N3748 C3750 1.356 . S
N3748 H3760 0.984 . S
N3748 H3761 0.985 . S
N3749 C3751 1.356 . S
N3749 H3754 0.984 . S
N3749 H3755 0.985 . S
C3750 C3744 1.379 . S
C3750 C3747 1.363 . S
C3750 N3748 1.356 . S
C3751 C3745 1.363 . S
C3751 C3746 1.379 . S
C3751 N3749 1.356 . S
N3752 C3744 1.356 . S
N3752 H3758 0.984 . S
N3752 H3759 0.984 . S
N3753 C3746 1.356 . S
N3753 H3756 0.984 . S
N3753 H3757 0.985 . S
H3754 N3749 0.984 . S
H3755 N3749 0.985 . S
H3756 N3753 0.984 . S
H3757 N3753 0.985 . S
H3758 N3752 0.984 . S
H3759 N3752 0.984 . S
H3760 N3748 0.984 . S
H3761 N3748 0.985 . S
C3762 C3763 1.363 . S
C3762 C3768 1.379 . S
C3762 N3770 1.356 1_455 S
C3763 C3762 1.363 . S
C3763 C3769 1.363 . S
C3764 C3765 1.363 . S
C3764 C3769 1.379 . S
C3764 N3771 1.356 . S
C3765 C3764 1.363 . S
C3765 C3768 1.363 . S
N3766 C3768 1.356 . S
N3766 H3778 0.984 . S
N3766 H3779 0.985 . S
N3767 C3769 1.356 . S
N3767 H3772 0.984 . S
N3767 H3773 0.985 . S
C3768 C3762 1.379 . S
C3768 C3765 1.363 . S
C3768 N3766 1.356 . S
C3769 C3763 1.363 . S
C3769 C3764 1.379 . S
C3769 N3767 1.356 . S
N3770 C3762 1.356 1_655 S
N3770 H3776 0.984 . S
N3770 H3777 0.984 . S
N3771 C3764 1.356 . S
N3771 H3774 0.984 . S
N3771 H3775 0.985 . S
H3772 N3767 0.984 . S
H3773 N3767 0.985 . S
H3774 N3771 0.984 . S
H3775 N3771 0.985 . S
H3776 N3770 0.984 . S
H3777 N3770 0.984 . S
H3778 N3766 0.984 . S
H3779 N3766 0.985 . S
C3780 C3781 1.363 . S
C3780 C3786 1.379 . S
C3780 N3788 1.356 . S
C3781 C3780 1.363 . S
C3781 C3787 1.363 . S
C3782 C3783 1.363 . S
C3782 C3787 1.379 . S
C3782 N3789 1.356 . S
C3783 C3782 1.363 . S
C3783 C3786 1.363 . S
N3784 C3786 1.356 . S
N3784 H3796 0.984 . S
N3784 H3797 0.985 . S
N3785 C3787 1.356 . S
N3785 H3790 0.984 . S
N3785 H3791 0.985 . S
C3786 C3780 1.379 . S
C3786 C3783 1.363 . S
C3786 N3784 1.356 . S
C3787 C3781 1.363 . S
C3787 C3782 1.379 . S
C3787 N3785 1.356 . S
N3788 C3780 1.356 . S
N3788 H3794 0.984 . S
N3788 H3795 0.984 . S
N3789 C3782 1.356 . S
N3789 H3792 0.984 . S
N3789 H3793 0.985 . S
H3790 N3785 0.984 . S
H3791 N3785 0.985 . S
H3792 N3789 0.984 . S
H3793 N3789 0.985 . S
H3794 N3788 0.984 . S
H3795 N3788 0.984 . S
H3796 N3784 0.984 . S
H3797 N3784 0.985 . S
C3798 C3799 1.363 . S
C3798 C3804 1.379 . S
C3798 N3806 1.356 . S
C3799 C3798 1.363 . S
C3799 C3805 1.363 . S
C3800 C3801 1.363 . S
C3800 C3805 1.379 . S
C3800 N3807 1.356 . S
C3801 C3800 1.363 . S
C3801 C3804 1.363 . S
N3802 C3804 1.356 . S
N3802 H3814 0.984 . S
N3802 H3815 0.985 . S
N3803 C3805 1.356 . S
N3803 H3808 0.984 . S
N3803 H3809 0.985 . S
C3804 C3798 1.379 . S
C3804 C3801 1.363 . S
C3804 N3802 1.356 . S
C3805 C3799 1.363 . S
C3805 C3800 1.379 . S
C3805 N3803 1.356 . S
N3806 C3798 1.356 . S
N3806 H3812 0.984 . S
N3806 H3813 0.984 . S
N3807 C3800 1.356 . S
N3807 H3810 0.984 . S
N3807 H3811 0.985 . S
H3808 N3803 0.984 . S
H3809 N3803 0.985 . S
H3810 N3807 0.984 . S
H3811 N3807 0.985 . S
H3812 N3806 0.984 . S
H3813 N3806 0.984 . S
H3814 N3802 0.984 . S
H3815 N3802 0.985 . S
C3816 C3817 1.363 . S
C3816 C3822 1.379 . S
C3816 N3824 1.356 . S
C3817 C3816 1.363 . S
C3817 C3823 1.363 . S
C3818 C3819 1.363 . S
C3818 C3823 1.379 . S
C3818 N3825 1.356 . S
C3819 C3818 1.363 . S
C3819 C3822 1.363 . S
N3820 C3822 1.356 . S
N3820 H3832 0.984 . S
N3820 H3833 0.985 . S
N3821 C3823 1.356 . S
N3821 H3826 0.984 . S
N3821 H3827 0.985 . S
C3822 C3816 1.379 . S
C3822 C3819 1.363 . S
C3822 N3820 1.356 . S
C3823 C3817 1.363 . S
C3823 C3818 1.379 . S
C3823 N3821 1.356 . S
N3824 C3816 1.356 . S
N3824 H3830 0.984 . S
N3824 H3831 0.984 . S
N3825 C3818 1.356 . S
N3825 H3828 0.984 . S
N3825 H3829 0.985 . S
H3826 N3821 0.984 . S
H3827 N3821 0.985 . S
H3828 N3825 0.984 . S
H3829 N3825 0.985 . S
H3830 N3824 0.984 . S
H3831 N3824 0.984 . S
H3832 N3820 0.984 . S
H3833 N3820 0.985 . S
C3834 C3835 1.363 . S
C3834 C3840 1.379 . S
C3834 N3842 1.356 . S
C3835 C3834 1.363 . S
C3835 C3841 1.363 . S
C3836 C3837 1.363 . S
C3836 C3841 1.379 . S
C3836 N3843 1.356 . S
C3837 C3836 1.363 . S
C3837 C3840 1.363 . S
N3838 C3840 1.356 . S
N3838 H3850 0.984 . S
N3838 H3851 0.985 . S
N3839 C3841 1.356 . S
N3839 H3844 0.984 . S
N3839 H3845 0.985 . S
C3840 C3834 1.379 . S
C3840 C3837 1.363 . S
C3840 N3838 1.356 . S
C3841 C3835 1.363 . S
C3841 C3836 1.379 . S
C3841 N3839 1.356 . S
N3842 C3834 1.356 . S
N3842 H3848 0.984 . S
N3842 H3849 0.984 . S
N3843 C3836 1.356 . S
N3843 H3846 0.984 . S
N3843 H3847 0.985 . S
H3844 N3839 0.984 . S
H3845 N3839 0.985 . S
H3846 N3843 0.984 . S
H3847 N3843 0.985 . S
H3848 N3842 0.984 . S
H3849 N3842 0.984 . S
H3850 N3838 0.984 . S
H3851 N3838 0.985 . S
C3852 C3853 1.363 . S
C3852 C3858 1.379 . S
C3852 N3860 1.356 . S
C3853 C3852 1.363 . S
C3853 C3859 1.363 . S
C3854 C3855 1.363 . S
C3854 C3859 1.379 . S
C3854 N3861 1.356 . S
C3855 C3854 1.363 . S
C3855 C3858 1.363 . S
N3856 C3858 1.356 . S
N3856 H3868 0.984 . S
N3856 H3869 0.985 . S
N3857 C3859 1.356 . S
N3857 H3862 0.984 . S
N3857 H3863 0.985 . S
C3858 C3852 1.379 . S
C3858 C3855 1.363 . S
C3858 N3856 1.356 . S
C3859 C3853 1.363 . S
C3859 C3854 1.379 . S
C3859 N3857 1.356 . S
N3860 C3852 1.356 . S
N3860 H3866 0.984 . S
N3860 H3867 0.984 . S
N3861 C3854 1.356 . S
N3861 H3864 0.984 . S
N3861 H3865 0.985 . S
H3862 N3857 0.984 . S
H3863 N3857 0.985 . S
H3864 N3861 0.984 . S
H3865 N3861 0.985 . S
H3866 N3860 0.984 . S
H3867 N3860 0.984 . S
H3868 N3856 0.984 . S
H3869 N3856 0.985 . S
C3870 C3871 1.363 . S
C3870 C3876 1.379 . S
C3870 N3878 1.356 . S
C3871 C3870 1.363 . S
C3871 C3877 1.363 . S
C3872 C3873 1.363 . S
C3872 C3877 1.379 . S
C3872 N3879 1.356 . S
C3873 C3872 1.363 . S
C3873 C3876 1.363 . S
N3874 C3876 1.356 . S
N3874 H3886 0.984 . S
N3874 H3887 0.985 . S
N3875 C3877 1.356 . S
N3875 H3880 0.984 . S
N3875 H3881 0.985 . S
C3876 C3870 1.379 . S
C3876 C3873 1.363 . S
C3876 N3874 1.356 . S
C3877 C3871 1.363 . S
C3877 C3872 1.379 . S
C3877 N3875 1.356 . S
N3878 C3870 1.356 . S
N3878 H3884 0.984 . S
N3878 H3885 0.984 . S
N3879 C3872 1.356 . S
N3879 H3882 0.984 . S
N3879 H3883 0.985 . S
H3880 N3875 0.984 . S
H3881 N3875 0.985 . S
H3882 N3879 0.984 . S
H3883 N3879 0.985 . S
H3884 N3878 0.984 . S
H3885 N3878 0.984 . S
H3886 N3874 0.984 . S
H3887 N3874 0.985 . S
C3888 C3889 1.363 . S
C3888 C3894 1.379 . S
C3888 N3896 1.356 . S
C3889 C3888 1.363 . S
C3889 C3895 1.363 . S
C3890 C3891 1.363 . S
C3890 C3895 1.379 . S
C3890 N3897 1.356 . S
C3891 C3890 1.363 . S
C3891 C3894 1.363 . S
N3892 C3894 1.356 . S
N3892 H3904 0.984 . S
N3892 H3905 0.985 . S
N3893 C3895 1.356 1_565 S
N3893 H3898 0.984 . S
N3893 H3899 0.985 . S
C3894 C3888 1.379 . S
C3894 C3891 1.363 . S
C3894 N3892 1.356 . S
C3895 C3889 1.363 . S
C3895 C3890 1.379 . S
C3895 N3893 1.356 1_545 S
N3896 C3888 1.356 . S
N3896 H3902 0.984 . S
N3896 H3903 0.984 . S
N3897 C3890 1.356 . S
N3897 H3900 0.984 . S
N3897 H3901 0.985 . S
H3898 N3893 0.984 . S
H3899 N3893 0.985 . S
H3900 N3897 0.984 . S
H3901 N3897 0.985 . S
H3902 N3896 0.984 . S
H3903 N3896 0.984 . S
H3904 N3892 0.984 . S
H3905 N3892 0.985 . S
C3906 C3907 1.363 . S
C3906 C3912 1.379 . S
C3906 N3914 1.356 . S
C3907 C3906 1.363 . S
C3907 C3913 1.363 . S
C3908 C3909 1.363 . S
C3908 C3913 1.379 . S
C3908 N3915 1.356 . S
C3909 C3908 1.363 . S
C3909 C3912 1.363 . S
N3910 C3912 1.356 . S
N3910 H3922 0.984 . S
N3910 H3923 0.985 . S
N3911 C3913 1.356 . S
N3911 H3916 0.984 . S
N3911 H3917 0.985 . S
C3912 C3906 1.379 . S
C3912 C3909 1.363 . S
C3912 N3910 1.356 . S
C3913 C3907 1.363 . S
C3913 C3908 1.379 . S
C3913 N3911 1.356 . S
N3914 C3906 1.356 . S
N3914 H3920 0.984 . S
N3914 H3921 0.984 . S
N3915 C3908 1.356 . S
N3915 H3918 0.984 . S
N3915 H3919 0.985 . S
H3916 N3911 0.984 . S
H3917 N3911 0.985 . S
H3918 N3915 0.984 . S
H3919 N3915 0.985 . S
H3920 N3914 0.984 . S
H3921 N3914 0.984 . S
H3922 N3910 0.984 . S
H3923 N3910 0.985 . S
C3924 C3925 1.363 . S
C3924 C3930 1.379 . S
C3924 N3932 1.356 . S
C3925 C3924 1.363 . S
C3925 C3931 1.363 . S
C3926 C3927 1.363 . S
C3926 C3931 1.379 . S
C3926 N3933 1.356 . S
C3927 C3926 1.363 . S
C3927 C3930 1.363 . S
N3928 C3930 1.356 . S
N3928 H3940 0.984 . S
N3928 H3941 0.985 . S
N3929 C3931 1.356 . S
N3929 H3934 0.984 . S
N3929 H3935 0.985 . S
C3930 C3924 1.379 . S
C3930 C3927 1.363 . S
C3930 N3928 1.356 . S
C3931 C3925 1.363 . S
C3931 C3926 1.379 . S
C3931 N3929 1.356 . S
N3932 C3924 1.356 . S
N3932 H3938 0.984 . S
N3932 H3939 0.984 . S
N3933 C3926 1.356 . S
N3933 H3936 0.984 . S
N3933 H3937 0.985 . S
H3934 N3929 0.984 . S
H3935 N3929 0.985 . S
H3936 N3933 0.984 . S
H3937 N3933 0.985 . S
H3938 N3932 0.984 . S
H3939 N3932 0.984 . S
H3940 N3928 0.984 . S
H3941 N3928 0.985 . S
C3942 C3943 1.363 . S
C3942 C3948 1.379 . S
C3942 N3950 1.356 . S
C3943 C3942 1.363 . S
C3943 C3949 1.363 . S
C3944 C3945 1.363 . S
C3944 C3949 1.379 . S
C3944 N3951 1.356 . S
C3945 C3944 1.363 . S
C3945 C3948 1.363 . S
N3946 C3948 1.356 . S
N3946 H3958 0.984 . S
N3946 H3959 0.985 . S
N3947 C3949 1.356 . S
N3947 H3952 0.984 . S
N3947 H3953 0.985 . S
C3948 C3942 1.379 . S
C3948 C3945 1.363 . S
C3948 N3946 1.356 . S
C3949 C3943 1.363 . S
C3949 C3944 1.379 . S
C3949 N3947 1.356 . S
N3950 C3942 1.356 . S
N3950 H3956 0.984 . S
N3950 H3957 0.984 . S
N3951 C3944 1.356 . S
N3951 H3954 0.984 . S
N3951 H3955 0.985 . S
H3952 N3947 0.984 . S
H3953 N3947 0.985 . S
H3954 N3951 0.984 . S
H3955 N3951 0.985 . S
H3956 N3950 0.984 . S
H3957 N3950 0.984 . S
H3958 N3946 0.984 . S
H3959 N3946 0.985 . S
C3960 C3961 1.363 . S
C3960 C3966 1.379 . S
C3960 N3968 1.356 1_565 S
C3961 C3960 1.363 . S
C3961 C3967 1.363 . S
C3962 C3963 1.363 . S
C3962 C3967 1.379 . S
C3962 N3969 1.356 . S
C3963 C3962 1.363 . S
C3963 C3966 1.363 . S
N3964 C3966 1.356 . S
N3964 H3976 0.984 . S
N3964 H3977 0.985 . S
N3965 C3967 1.356 . S
N3965 H3970 0.984 . S
N3965 H3971 0.985 . S
C3966 C3960 1.379 . S
C3966 C3963 1.363 . S
C3966 N3964 1.356 . S
C3967 C3961 1.363 . S
C3967 C3962 1.379 . S
C3967 N3965 1.356 . S
N3968 C3960 1.356 1_545 S
N3968 H3974 0.984 . S
N3968 H3975 0.984 . S
N3969 C3962 1.356 . S
N3969 H3972 0.984 . S
N3969 H3973 0.985 . S
H3970 N3965 0.984 . S
H3971 N3965 0.985 . S
H3972 N3969 0.984 . S
H3973 N3969 0.985 . S
H3974 N3968 0.984 . S
H3975 N3968 0.984 . S
H3976 N3964 0.984 . S
H3977 N3964 0.985 . S
C3978 C3979 1.363 . S
C3978 C3984 1.379 . S
C3978 N3986 1.356 . S
C3979 C3978 1.363 . S
C3979 C3985 1.363 . S
C3980 C3981 1.363 . S
C3980 C3985 1.379 . S
C3980 N3987 1.356 . S
C3981 C3980 1.363 . S
C3981 C3984 1.363 . S
N3982 C3984 1.356 . S
N3982 H3994 0.984 . S
N3982 H3995 0.985 . S
N3983 C3985 1.356 . S
N3983 H3988 0.984 . S
N3983 H3989 0.985 . S
C3984 C3978 1.379 . S
C3984 C3981 1.363 . S
C3984 N3982 1.356 . S
C3985 C3979 1.363 . S
C3985 C3980 1.379 . S
C3985 N3983 1.356 . S
N3986 C3978 1.356 . S
N3986 H3992 0.984 . S
N3986 H3993 0.984 . S
N3987 C3980 1.356 . S
N3987 H3990 0.984 . S
N3987 H3991 0.985 . S
H3988 N3983 0.984 . S
H3989 N3983 0.985 . S
H3990 N3987 0.984 . S
H3991 N3987 0.985 . S
H3992 N3986 0.984 . S
H3993 N3986 0.984 . S
H3994 N3982 0.984 . S
H3995 N3982 0.985 . S
C3996 C3997 1.363 . S
C3996 C4002 1.379 . S
C3996 N4004 1.356 . S
C3997 C3996 1.363 . S
C3997 C4003 1.363 . S
C3998 C3999 1.363 . S
C3998 C4003 1.379 . S
C3998 N4005 1.356 . S
C3999 C3998 1.363 . S
C3999 C4002 1.363 . S
N4000 C4002 1.356 . S
N4000 H4012 0.984 . S
N4000 H4013 0.985 . S
N4001 C4003 1.356 . S
N4001 H4006 0.984 . S
N4001 H4007 0.985 . S
C4002 C3996 1.379 . S
C4002 C3999 1.363 . S
C4002 N4000 1.356 . S
C4003 C3997 1.363 . S
C4003 C3998 1.379 . S
C4003 N4001 1.356 . S
N4004 C3996 1.356 . S
N4004 H4010 0.984 . S
N4004 H4011 0.984 . S
N4005 C3998 1.356 . S
N4005 H4008 0.984 . S
N4005 H4009 0.985 . S
H4006 N4001 0.984 . S
H4007 N4001 0.985 . S
H4008 N4005 0.984 . S
H4009 N4005 0.985 . S
H4010 N4004 0.984 . S
H4011 N4004 0.984 . S
H4012 N4000 0.984 . S
H4013 N4000 0.985 . S
C4014 C4015 1.363 . S
C4014 C4020 1.379 . S
C4014 N4022 1.356 . S
C4015 C4014 1.363 . S
C4015 C4021 1.363 . S
C4016 C4017 1.363 . S
C4016 C4021 1.379 . S
C4016 N4023 1.356 . S
C4017 C4016 1.363 . S
C4017 C4020 1.363 . S
N4018 C4020 1.356 . S
N4018 H4030 0.984 . S
N4018 H4031 0.985 . S
N4019 C4021 1.356 . S
N4019 H4024 0.984 . S
N4019 H4025 0.985 . S
C4020 C4014 1.379 . S
C4020 C4017 1.363 . S
C4020 N4018 1.356 . S
C4021 C4015 1.363 . S
C4021 C4016 1.379 . S
C4021 N4019 1.356 . S
N4022 C4014 1.356 . S
N4022 H4028 0.984 . S
N4022 H4029 0.984 . S
N4023 C4016 1.356 . S
N4023 H4026 0.984 . S
N4023 H4027 0.985 . S
H4024 N4019 0.984 . S
H4025 N4019 0.985 . S
H4026 N4023 0.984 . S
H4027 N4023 0.985 . S
H4028 N4022 0.984 . S
H4029 N4022 0.984 . S
H4030 N4018 0.984 . S
H4031 N4018 0.985 . S
C4032 C4033 1.363 . S
C4032 C4038 1.379 . S
C4032 N4040 1.356 . S
C4033 C4032 1.363 . S
C4033 C4039 1.363 . S
C4034 C4035 1.363 . S
C4034 C4039 1.379 . S
C4034 N4041 1.356 1_554 S
C4035 C4034 1.363 . S
C4035 C4038 1.363 . S
N4036 C4038 1.356 . S
N4036 H4048 0.984 . S
N4036 H4049 0.985 . S
N4037 C4039 1.356 . S
N4037 H4042 0.984 . S
N4037 H4043 0.985 . S
C4038 C4032 1.379 . S
C4038 C4035 1.363 . S
C4038 N4036 1.356 . S
C4039 C4033 1.363 . S
C4039 C4034 1.379 . S
C4039 N4037 1.356 . S
N4040 C4032 1.356 . S
N4040 H4046 0.984 . S
N4040 H4047 0.984 . S
N4041 C4034 1.356 1_556 S
N4041 H4044 0.984 . S
N4041 H4045 0.985 . S
H4042 N4037 0.984 . S
H4043 N4037 0.985 . S
H4044 N4041 0.984 . S
H4045 N4041 0.985 . S
H4046 N4040 0.984 . S
H4047 N4040 0.984 . S
H4048 N4036 0.984 . S
H4049 N4036 0.985 . S
C4050 C4051 1.363 . S
C4050 C4056 1.379 . S
C4050 N4058 1.356 . S
C4051 C4050 1.363 . S
C4051 C4057 1.363 . S
C4052 C4053 1.363 . S
C4052 C4057 1.379 . S
C4052 N4059 1.356 . S
C4053 C4052 1.363 . S
C4053 C4056 1.363 . S
N4054 C4056 1.356 . S
N4054 H4066 0.984 . S
N4054 H4067 0.985 . S
N4055 C4057 1.356 . S
N4055 H4060 0.984 . S
N4055 H4061 0.985 . S
C4056 C4050 1.379 . S
C4056 C4053 1.363 . S
C4056 N4054 1.356 . S
C4057 C4051 1.363 . S
C4057 C4052 1.379 . S
C4057 N4055 1.356 . S
N4058 C4050 1.356 . S
N4058 H4064 0.984 . S
N4058 H4065 0.984 . S
N4059 C4052 1.356 . S
N4059 H4062 0.984 . S
N4059 H4063 0.985 . S
H4060 N4055 0.984 . S
H4061 N4055 0.985 . S
H4062 N4059 0.984 . S
H4063 N4059 0.985 . S
H4064 N4058 0.984 . S
H4065 N4058 0.984 . S
H4066 N4054 0.984 . S
H4067 N4054 0.985 . S
C4068 C4069 1.363 . S
C4068 C4074 1.379 . S
C4068 N4076 1.356 . S
C4069 C4068 1.363 . S
C4069 C4075 1.363 . S
C4070 C4071 1.363 . S
C4070 C4075 1.379 . S
C4070 N4077 1.356 . S
C4071 C4070 1.363 . S
C4071 C4074 1.363 . S
N4072 C4074 1.356 . S
N4072 H4084 0.984 . S
N4072 H4085 0.985 . S
N4073 C4075 1.356 . S
N4073 H4078 0.984 . S
N4073 H4079 0.985 . S
C4074 C4068 1.379 . S
C4074 C4071 1.363 . S
C4074 N4072 1.356 . S
C4075 C4069 1.363 . S
C4075 C4070 1.379 . S
C4075 N4073 1.356 . S
N4076 C4068 1.356 . S
N4076 H4082 0.984 . S
N4076 H4083 0.984 . S
N4077 C4070 1.356 . S
N4077 H4080 0.984 . S
N4077 H4081 0.985 . S
H4078 N4073 0.984 . S
H4079 N4073 0.985 . S
H4080 N4077 0.984 . S
H4081 N4077 0.985 . S
H4082 N4076 0.984 . S
H4083 N4076 0.984 . S
H4084 N4072 0.984 . S
H4085 N4072 0.985 . S
C4086 C4087 1.363 . S
C4086 C4092 1.379 . S
C4086 N4094 1.356 . S
C4087 C4086 1.363 . S
C4087 C4093 1.363 . S
C4088 C4089 1.363 . S
C4088 C4093 1.379 . S
C4088 N4095 1.356 . S
C4089 C4088 1.363 . S
C4089 C4092 1.363 . S
N4090 C4092 1.356 . S
N4090 H4102 0.984 . S
N4090 H4103 0.985 . S
N4091 C4093 1.356 . S
N4091 H4096 0.984 . S
N4091 H4097 0.985 . S
C4092 C4086 1.379 . S
C4092 C4089 1.363 . S
C4092 N4090 1.356 . S
C4093 C4087 1.363 . S
C4093 C4088 1.379 . S
C4093 N4091 1.356 . S
N4094 C4086 1.356 . S
N4094 H4100 0.984 . S
N4094 H4101 0.984 . S
N4095 C4088 1.356 . S
N4095 H4098 0.984 . S
N4095 H4099 0.985 . S
H4096 N4091 0.984 . S
H4097 N4091 0.985 . S
H4098 N4095 0.984 . S
H4099 N4095 0.985 . S
H4100 N4094 0.984 . S
H4101 N4094 0.984 . S
H4102 N4090 0.984 . S
H4103 N4090 0.985 . S
C4104 C4105 1.363 . S
C4104 C4110 1.379 . S
C4104 N4112 1.356 . S
C4105 C4104 1.363 . S
C4105 C4111 1.363 . S
C4106 C4107 1.363 . S
C4106 C4111 1.379 . S
C4106 N4113 1.356 . S
C4107 C4106 1.363 . S
C4107 C4110 1.363 . S
N4108 C4110 1.356 . S
N4108 H4120 0.984 . S
N4108 H4121 0.985 . S
N4109 C4111 1.356 . S
N4109 H4114 0.984 . S
N4109 H4115 0.985 . S
C4110 C4104 1.379 . S
C4110 C4107 1.363 . S
C4110 N4108 1.356 . S
C4111 C4105 1.363 . S
C4111 C4106 1.379 . S
C4111 N4109 1.356 . S
N4112 C4104 1.356 . S
N4112 H4118 0.984 . S
N4112 H4119 0.984 . S
N4113 C4106 1.356 . S
N4113 H4116 0.984 . S
N4113 H4117 0.985 . S
H4114 N4109 0.984 . S
H4115 N4109 0.985 . S
H4116 N4113 0.984 . S
H4117 N4113 0.985 . S
H4118 N4112 0.984 . S
H4119 N4112 0.984 . S
H4120 N4108 0.984 . S
H4121 N4108 0.985 . S
C4122 C4123 1.363 . S
C4122 C4128 1.379 . S
C4122 N4130 1.356 . S
C4123 C4122 1.363 . S
C4123 C4129 1.363 . S
C4124 C4125 1.363 . S
C4124 C4129 1.379 . S
C4124 N4131 1.356 . S
C4125 C4124 1.363 . S
C4125 C4128 1.363 . S
N4126 C4128 1.356 . S
N4126 H4138 0.984 . S
N4126 H4139 0.985 . S
N4127 C4129 1.356 . S
N4127 H4132 0.984 . S
N4127 H4133 0.985 . S
C4128 C4122 1.379 . S
C4128 C4125 1.363 . S
C4128 N4126 1.356 . S
C4129 C4123 1.363 . S
C4129 C4124 1.379 . S
C4129 N4127 1.356 . S
N4130 C4122 1.356 . S
N4130 H4136 0.984 . S
N4130 H4137 0.984 . S
N4131 C4124 1.356 . S
N4131 H4134 0.984 . S
N4131 H4135 0.985 . S
H4132 N4127 0.984 . S
H4133 N4127 0.985 . S
H4134 N4131 0.984 . S
H4135 N4131 0.985 . S
H4136 N4130 0.984 . S
H4137 N4130 0.984 . S
H4138 N4126 0.984 . S
H4139 N4126 0.985 . S
C4140 C4141 1.363 . S
C4140 C4146 1.379 . S
C4140 N4148 1.356 . S
C4141 C4140 1.363 . S
C4141 C4147 1.363 . S
C4142 C4143 1.363 . S
C4142 C4147 1.379 . S
C4142 N4149 1.356 . S
C4143 C4142 1.363 . S
C4143 C4146 1.363 . S
N4144 C4146 1.356 . S
N4144 H4156 0.984 . S
N4144 H4157 0.985 . S
N4145 C4147 1.356 . S
N4145 H4150 0.984 . S
N4145 H4151 0.985 . S
C4146 C4140 1.379 . S
C4146 C4143 1.363 . S
C4146 N4144 1.356 . S
C4147 C4141 1.363 . S
C4147 C4142 1.379 . S
C4147 N4145 1.356 . S
N4148 C4140 1.356 . S
N4148 H4154 0.984 . S
N4148 H4155 0.984 . S
N4149 C4142 1.356 . S
N4149 H4152 0.984 . S
N4149 H4153 0.985 . S
H4150 N4145 0.984 . S
H4151 N4145 0.985 . S
H4152 N4149 0.984 . S
H4153 N4149 0.985 . S
H4154 N4148 0.984 . S
H4155 N4148 0.984 . S
H4156 N4144 0.984 . S
H4157 N4144 0.985 . S
C4158 C4159 1.363 . S
C4158 C4164 1.379 . S
C4158 N4166 1.356 . S
C4159 C4158 1.363 . S
C4159 C4165 1.363 . S
C4160 C4161 1.363 . S
C4160 C4165 1.379 . S
C4160 N4167 1.356 . S
C4161 C4160 1.363 . S
C4161 C4164 1.363 . S
N4162 C4164 1.356 . S
N4162 H4174 0.984 . S
N4162 H4175 0.985 . S
N4163 C4165 1.356 . S
N4163 H4168 0.984 . S
N4163 H4169 0.985 . S
C4164 C4158 1.379 . S
C4164 C4161 1.363 . S
C4164 N4162 1.356 . S
C4165 C4159 1.363 . S
C4165 C4160 1.379 . S
C4165 N4163 1.356 . S
N4166 C4158 1.356 . S
N4166 H4172 0.984 . S
N4166 H4173 0.984 . S
N4167 C4160 1.356 . S
N4167 H4170 0.984 . S
N4167 H4171 0.985 . S
H4168 N4163 0.984 . S
H4169 N4163 0.985 . S
H4170 N4167 0.984 . S
H4171 N4167 0.985 . S
H4172 N4166 0.984 . S
H4173 N4166 0.984 . S
H4174 N4162 0.984 . S
H4175 N4162 0.985 . S
C4176 C4177 1.363 . S
C4176 C4182 1.379 . S
C4176 N4184 1.356 . S
C4177 C4176 1.363 . S
C4177 C4183 1.363 . S
C4178 C4179 1.363 . S
C4178 C4183 1.379 . S
C4178 N4185 1.356 . S
C4179 C4178 1.363 . S
C4179 C4182 1.363 . S
N4180 C4182 1.356 . S
N4180 H4192 0.984 . S
N4180 H4193 0.985 . S
N4181 C4183 1.356 . S
N4181 H4186 0.984 . S
N4181 H4187 0.985 . S
C4182 C4176 1.379 . S
C4182 C4179 1.363 . S
C4182 N4180 1.356 . S
C4183 C4177 1.363 . S
C4183 C4178 1.379 . S
C4183 N4181 1.356 . S
N4184 C4176 1.356 . S
N4184 H4190 0.984 . S
N4184 H4191 0.984 . S
N4185 C4178 1.356 . S
N4185 H4188 0.984 . S
N4185 H4189 0.985 . S
H4186 N4181 0.984 . S
H4187 N4181 0.985 . S
H4188 N4185 0.984 . S
H4189 N4185 0.985 . S
H4190 N4184 0.984 . S
H4191 N4184 0.984 . S
H4192 N4180 0.984 . S
H4193 N4180 0.985 . S
C4194 C4195 1.363 . S
C4194 C4200 1.379 . S
C4194 N4202 1.356 . S
C4195 C4194 1.363 . S
C4195 C4201 1.363 . S
C4196 C4197 1.363 . S
C4196 C4201 1.379 . S
C4196 N4203 1.356 . S
C4197 C4196 1.363 . S
C4197 C4200 1.363 . S
N4198 C4200 1.356 . S
N4198 H4210 0.984 . S
N4198 H4211 0.985 . S
N4199 C4201 1.356 . S
N4199 H4204 0.984 . S
N4199 H4205 0.985 . S
C4200 C4194 1.379 . S
C4200 C4197 1.363 . S
C4200 N4198 1.356 . S
C4201 C4195 1.363 . S
C4201 C4196 1.379 . S
C4201 N4199 1.356 . S
N4202 C4194 1.356 . S
N4202 H4208 0.984 . S
N4202 H4209 0.984 . S
N4203 C4196 1.356 . S
N4203 H4206 0.984 . S
N4203 H4207 0.985 . S
H4204 N4199 0.984 . S
H4205 N4199 0.985 . S
H4206 N4203 0.984 . S
H4207 N4203 0.985 . S
H4208 N4202 0.984 . S
H4209 N4202 0.984 . S
H4210 N4198 0.984 . S
H4211 N4198 0.985 . S
C4212 C4213 1.363 . S
C4212 C4218 1.379 . S
C4212 N4220 1.356 . S
C4213 C4212 1.363 . S
C4213 C4219 1.363 . S
C4214 C4215 1.363 . S
C4214 C4219 1.379 . S
C4214 N4221 1.356 . S
C4215 C4214 1.363 . S
C4215 C4218 1.363 . S
N4216 C4218 1.356 . S
N4216 H4228 0.984 . S
N4216 H4229 0.985 . S
N4217 C4219 1.356 . S
N4217 H4222 0.984 . S
N4217 H4223 0.985 . S
C4218 C4212 1.379 . S
C4218 C4215 1.363 . S
C4218 N4216 1.356 . S
C4219 C4213 1.363 . S
C4219 C4214 1.379 . S
C4219 N4217 1.356 . S
N4220 C4212 1.356 . S
N4220 H4226 0.984 . S
N4220 H4227 0.984 . S
N4221 C4214 1.356 . S
N4221 H4224 0.984 . S
N4221 H4225 0.985 . S
H4222 N4217 0.984 . S
H4223 N4217 0.985 . S
H4224 N4221 0.984 . S
H4225 N4221 0.985 . S
H4226 N4220 0.984 . S
H4227 N4220 0.984 . S
H4228 N4216 0.984 . S
H4229 N4216 0.985 . S
C4230 C4231 1.363 . S
C4230 C4236 1.379 . S
C4230 N4238 1.356 . S
C4231 C4230 1.363 . S
C4231 C4237 1.363 . S
C4232 C4233 1.363 . S
C4232 C4237 1.379 . S
C4232 N4239 1.356 . S
C4233 C4232 1.363 . S
C4233 C4236 1.363 . S
N4234 C4236 1.356 . S
N4234 H4246 0.984 . S
N4234 H4247 0.985 . S
N4235 C4237 1.356 . S
N4235 H4240 0.984 . S
N4235 H4241 0.985 . S
C4236 C4230 1.379 . S
C4236 C4233 1.363 . S
C4236 N4234 1.356 . S
C4237 C4231 1.363 . S
C4237 C4232 1.379 . S
C4237 N4235 1.356 . S
N4238 C4230 1.356 . S
N4238 H4244 0.984 . S
N4238 H4245 0.984 . S
N4239 C4232 1.356 . S
N4239 H4242 0.984 . S
N4239 H4243 0.985 . S
H4240 N4235 0.984 . S
H4241 N4235 0.985 . S
H4242 N4239 0.984 . S
H4243 N4239 0.985 . S
H4244 N4238 0.984 . S
H4245 N4238 0.984 . S
H4246 N4234 0.984 . S
H4247 N4234 0.985 . S
C4248 C4249 1.363 . S
C4248 C4254 1.379 . S
C4248 N4256 1.356 . S
C4249 C4248 1.363 . S
C4249 C4255 1.363 . S
C4250 C4251 1.363 . S
C4250 C4255 1.379 . S
C4250 N4257 1.356 . S
C4251 C4250 1.363 . S
C4251 C4254 1.363 . S
N4252 C4254 1.356 . S
N4252 H4264 0.984 . S
N4252 H4265 0.985 . S
N4253 C4255 1.356 . S
N4253 H4258 0.984 . S
N4253 H4259 0.985 . S
C4254 C4248 1.379 . S
C4254 C4251 1.363 . S
C4254 N4252 1.356 . S
C4255 C4249 1.363 . S
C4255 C4250 1.379 . S
C4255 N4253 1.356 . S
N4256 C4248 1.356 . S
N4256 H4262 0.984 . S
N4256 H4263 0.984 . S
N4257 C4250 1.356 . S
N4257 H4260 0.984 . S
N4257 H4261 0.985 . S
H4258 N4253 0.984 . S
H4259 N4253 0.985 . S
H4260 N4257 0.984 . S
H4261 N4257 0.985 . S
H4262 N4256 0.984 . S
H4263 N4256 0.984 . S
H4264 N4252 0.984 . S
H4265 N4252 0.985 . S
C4266 C4267 1.363 . S
C4266 C4272 1.379 . S
C4266 N4274 1.356 . S
C4267 C4266 1.363 . S
C4267 C4273 1.363 . S
C4268 C4269 1.363 . S
C4268 C4273 1.379 . S
C4268 N4275 1.356 . S
C4269 C4268 1.363 . S
C4269 C4272 1.363 . S
N4270 C4272 1.356 . S
N4270 H4282 0.984 . S
N4270 H4283 0.985 . S
N4271 C4273 1.356 . S
N4271 H4276 0.984 . S
N4271 H4277 0.985 . S
C4272 C4266 1.379 . S
C4272 C4269 1.363 . S
C4272 N4270 1.356 . S
C4273 C4267 1.363 . S
C4273 C4268 1.379 . S
C4273 N4271 1.356 . S
N4274 C4266 1.356 . S
N4274 H4280 0.984 . S
N4274 H4281 0.984 . S
N4275 C4268 1.356 . S
N4275 H4278 0.984 . S
N4275 H4279 0.985 . S
H4276 N4271 0.984 . S
H4277 N4271 0.985 . S
H4278 N4275 0.984 . S
H4279 N4275 0.985 . S
H4280 N4274 0.984 . S
H4281 N4274 0.984 . S
H4282 N4270 0.984 . S
H4283 N4270 0.985 . S
C4284 C4285 1.363 . S
C4284 C4290 1.379 . S
C4284 N4292 1.356 . S
C4285 C4284 1.363 . S
C4285 C4291 1.363 . S
C4286 C4287 1.363 . S
C4286 C4291 1.379 . S
C4286 N4293 1.356 . S
C4287 C4286 1.363 . S
C4287 C4290 1.363 . S
N4288 C4290 1.356 . S
N4288 H4300 0.984 . S
N4288 H4301 0.985 . S
N4289 C4291 1.356 . S
N4289 H4294 0.984 . S
N4289 H4295 0.985 . S
C4290 C4284 1.379 . S
C4290 C4287 1.363 . S
C4290 N4288 1.356 . S
C4291 C4285 1.363 . S
C4291 C4286 1.379 . S
C4291 N4289 1.356 . S
N4292 C4284 1.356 . S
N4292 H4298 0.984 . S
N4292 H4299 0.984 . S
N4293 C4286 1.356 . S
N4293 H4296 0.984 . S
N4293 H4297 0.985 . S
H4294 N4289 0.984 . S
H4295 N4289 0.985 . S
H4296 N4293 0.984 . S
H4297 N4293 0.985 . S
H4298 N4292 0.984 . S
H4299 N4292 0.984 . S
H4300 N4288 0.984 . S
H4301 N4288 0.985 . S
C4302 C4303 1.363 . S
C4302 C4308 1.379 . S
C4302 N4310 1.356 . S
C4303 C4302 1.363 . S
C4303 C4309 1.363 . S
C4304 C4305 1.363 . S
C4304 C4309 1.379 . S
C4304 N4311 1.356 . S
C4305 C4304 1.363 . S
C4305 C4308 1.363 . S
N4306 C4308 1.356 . S
N4306 H4318 0.984 . S
N4306 H4319 0.985 . S
N4307 C4309 1.356 . S
N4307 H4312 0.984 . S
N4307 H4313 0.985 . S
C4308 C4302 1.379 . S
C4308 C4305 1.363 . S
C4308 N4306 1.356 . S
C4309 C4303 1.363 . S
C4309 C4304 1.379 . S
C4309 N4307 1.356 . S
N4310 C4302 1.356 . S
N4310 H4316 0.984 . S
N4310 H4317 0.984 . S
N4311 C4304 1.356 . S
N4311 H4314 0.984 . S
N4311 H4315 0.985 . S
H4312 N4307 0.984 . S
H4313 N4307 0.985 . S
H4314 N4311 0.984 . S
H4315 N4311 0.985 . S
H4316 N4310 0.984 . S
H4317 N4310 0.984 . S
H4318 N4306 0.984 . S
H4319 N4306 0.985 . S
C4320 C4321 1.363 . S
C4320 C4326 1.379 . S
C4320 N4328 1.356 . S
C4321 C4320 1.363 . S
C4321 C4327 1.363 . S
C4322 C4323 1.363 . S
C4322 C4327 1.379 . S
C4322 N4329 1.356 . S
C4323 C4322 1.363 . S
C4323 C4326 1.363 . S
N4324 C4326 1.356 . S
N4324 H4336 0.984 . S
N4324 H4337 0.985 . S
N4325 C4327 1.356 . S
N4325 H4330 0.984 . S
N4325 H4331 0.985 . S
C4326 C4320 1.379 . S
C4326 C4323 1.363 . S
C4326 N4324 1.356 . S
C4327 C4321 1.363 . S
C4327 C4322 1.379 . S
C4327 N4325 1.356 . S
N4328 C4320 1.356 . S
N4328 H4334 0.984 . S
N4328 H4335 0.984 . S
N4329 C4322 1.356 . S
N4329 H4332 0.984 . S
N4329 H4333 0.985 . S
H4330 N4325 0.984 . S
H4331 N4325 0.985 . S
H4332 N4329 0.984 . S
H4333 N4329 0.985 . S
H4334 N4328 0.984 . S
H4335 N4328 0.984 . S
H4336 N4324 0.984 . S
H4337 N4324 0.985 . S
C4338 C4339 1.363 . S
C4338 C4344 1.379 . S
C4338 N4346 1.356 . S
C4339 C4338 1.363 . S
C4339 C4345 1.363 . S
C4340 C4341 1.363 . S
C4340 C4345 1.379 . S
C4340 N4347 1.356 . S
C4341 C4340 1.363 . S
C4341 C4344 1.363 . S
N4342 C4344 1.356 . S
N4342 H4354 0.984 . S
N4342 H4355 0.985 . S
N4343 C4345 1.356 . S
N4343 H4348 0.984 . S
N4343 H4349 0.985 . S
C4344 C4338 1.379 . S
C4344 C4341 1.363 . S
C4344 N4342 1.356 . S
C4345 C4339 1.363 . S
C4345 C4340 1.379 . S
C4345 N4343 1.356 . S
N4346 C4338 1.356 . S
N4346 H4352 0.984 . S
N4346 H4353 0.984 . S
N4347 C4340 1.356 . S
N4347 H4350 0.984 . S
N4347 H4351 0.985 . S
H4348 N4343 0.984 . S
H4349 N4343 0.985 . S
H4350 N4347 0.984 . S
H4351 N4347 0.985 . S
H4352 N4346 0.984 . S
H4353 N4346 0.984 . S
H4354 N4342 0.984 . S
H4355 N4342 0.985 . S
C4356 C4357 1.363 . S
C4356 C4362 1.379 . S
C4356 N4364 1.356 . S
C4357 C4356 1.363 . S
C4357 C4363 1.363 . S
C4358 C4359 1.363 . S
C4358 C4363 1.379 . S
C4358 N4365 1.356 . S
C4359 C4358 1.363 . S
C4359 C4362 1.363 . S
N4360 C4362 1.356 1_545 S
N4360 H4372 0.984 . S
N4360 H4373 0.985 . S
N4361 C4363 1.356 . S
N4361 H4366 0.984 . S
N4361 H4367 0.985 . S
C4362 C4356 1.379 . S
C4362 C4359 1.363 . S
C4362 N4360 1.356 1_565 S
C4363 C4357 1.363 . S
C4363 C4358 1.379 . S
C4363 N4361 1.356 . S
N4364 C4356 1.356 . S
N4364 H4370 0.984 . S
N4364 H4371 0.984 . S
N4365 C4358 1.356 . S
N4365 H4368 0.984 . S
N4365 H4369 0.985 . S
H4366 N4361 0.984 . S
H4367 N4361 0.985 . S
H4368 N4365 0.984 . S
H4369 N4365 0.985 . S
H4370 N4364 0.984 . S
H4371 N4364 0.984 . S
H4372 N4360 0.984 . S
H4373 N4360 0.985 . S
C4374 C4375 1.363 . S
C4374 C4380 1.379 . S
C4374 N4382 1.356 . S
C4375 C4374 1.363 . S
C4375 C4381 1.363 . S
C4376 C4377 1.363 . S
C4376 C4381 1.379 . S
C4376 N4383 1.356 . S
C4377 C4376 1.363 . S
C4377 C4380 1.363 . S
N4378 C4380 1.356 . S
N4378 H4390 0.984 . S
N4378 H4391 0.985 . S
N4379 C4381 1.356 . S
N4379 H4384 0.984 . S
N4379 H4385 0.985 . S
C4380 C4374 1.379 . S
C4380 C4377 1.363 . S
C4380 N4378 1.356 . S
C4381 C4375 1.363 . S
C4381 C4376 1.379 . S
C4381 N4379 1.356 . S
N4382 C4374 1.356 . S
N4382 H4388 0.984 . S
N4382 H4389 0.984 . S
N4383 C4376 1.356 . S
N4383 H4386 0.984 . S
N4383 H4387 0.985 . S
H4384 N4379 0.984 . S
H4385 N4379 0.985 . S
H4386 N4383 0.984 . S
H4387 N4383 0.985 . S
H4388 N4382 0.984 . S
H4389 N4382 0.984 . S
H4390 N4378 0.984 . S
H4391 N4378 0.985 . S
C4392 C4393 1.363 . S
C4392 C4398 1.379 . S
C4392 N4400 1.356 . S
C4393 C4392 1.363 . S
C4393 C4399 1.363 . S
C4394 C4395 1.363 . S
C4394 C4399 1.379 . S
C4394 N4401 1.356 . S
C4395 C4394 1.363 . S
C4395 C4398 1.363 . S
N4396 C4398 1.356 . S
N4396 H4408 0.984 . S
N4396 H4409 0.985 . S
N4397 C4399 1.356 . S
N4397 H4402 0.984 . S
N4397 H4403 0.985 . S
C4398 C4392 1.379 . S
C4398 C4395 1.363 . S
C4398 N4396 1.356 . S
C4399 C4393 1.363 . S
C4399 C4394 1.379 . S
C4399 N4397 1.356 . S
N4400 C4392 1.356 . S
N4400 H4406 0.984 . S
N4400 H4407 0.984 . S
N4401 C4394 1.356 . S
N4401 H4404 0.984 . S
N4401 H4405 0.985 . S
H4402 N4397 0.984 . S
H4403 N4397 0.985 . S
H4404 N4401 0.984 . S
H4405 N4401 0.985 . S
H4406 N4400 0.984 . S
H4407 N4400 0.984 . S
H4408 N4396 0.984 . S
H4409 N4396 0.985 . S
C4410 C4411 1.363 . S
C4410 C4416 1.379 . S
C4410 N4418 1.356 . S
C4411 C4410 1.363 . S
C4411 C4417 1.363 . S
C4412 C4413 1.363 . S
C4412 C4417 1.379 . S
C4412 N4419 1.356 . S
C4413 C4412 1.363 . S
C4413 C4416 1.363 . S
N4414 C4416 1.356 . S
N4414 H4426 0.984 . S
N4414 H4427 0.985 . S
N4415 C4417 1.356 . S
N4415 H4420 0.984 . S
N4415 H4421 0.985 . S
C4416 C4410 1.379 . S
C4416 C4413 1.363 . S
C4416 N4414 1.356 . S
C4417 C4411 1.363 . S
C4417 C4412 1.379 . S
C4417 N4415 1.356 . S
N4418 C4410 1.356 . S
N4418 H4424 0.984 . S
N4418 H4425 0.984 . S
N4419 C4412 1.356 . S
N4419 H4422 0.984 . S
N4419 H4423 0.985 . S
H4420 N4415 0.984 . S
H4421 N4415 0.985 . S
H4422 N4419 0.984 . S
H4423 N4419 0.985 . S
H4424 N4418 0.984 . S
H4425 N4418 0.984 . S
H4426 N4414 0.984 . S
H4427 N4414 0.985 . S
C4428 C4429 1.363 . S
C4428 C4434 1.379 . S
C4428 N4436 1.356 . S
C4429 C4428 1.363 . S
C4429 C4435 1.363 . S
C4430 C4431 1.363 . S
C4430 C4435 1.379 . S
C4430 N4437 1.356 . S
C4431 C4430 1.363 . S
C4431 C4434 1.363 . S
N4432 C4434 1.356 . S
N4432 H4444 0.984 . S
N4432 H4445 0.985 . S
N4433 C4435 1.356 . S
N4433 H4438 0.984 . S
N4433 H4439 1.006 . S
C4434 C4428 1.379 . S
C4434 C4431 1.363 . S
C4434 N4432 1.356 . S
C4435 C4429 1.363 . S
C4435 C4430 1.379 . S
C4435 N4433 1.356 . S
N4436 C4428 1.356 . S
N4436 H4442 0.984 . S
N4436 H4443 0.984 . S
N4437 C4430 1.356 . S
N4437 H4440 0.984 . S
N4437 H4441 0.985 . S
H4438 N4433 0.984 . S
H4439 N4433 1.006 . S
H4440 N4437 0.984 . S
H4441 N4437 0.985 . S
H4442 N4436 0.984 . S
H4443 N4436 0.984 . S
H4444 N4432 0.984 . S
H4445 N4432 0.985 . S
C4446 C4447 1.363 . S
C4446 C4452 1.379 . S
C4446 N4454 1.356 . S
C4447 C4446 1.363 . S
C4447 C4453 1.363 . S
C4448 C4449 1.363 . S
C4448 C4453 1.379 . S
C4448 N4455 1.356 . S
C4449 C4448 1.363 . S
C4449 C4452 1.363 . S
N4450 C4452 1.356 . S
N4450 H4462 0.984 . S
N4450 H4463 0.985 . S
N4451 C4453 1.356 . S
N4451 H4456 0.984 . S
N4451 H4457 0.985 . S
C4452 C4446 1.379 . S
C4452 C4449 1.363 . S
C4452 N4450 1.356 . S
C4453 C4447 1.363 . S
C4453 C4448 1.379 . S
C4453 N4451 1.356 . S
N4454 C4446 1.356 . S
N4454 H4460 0.984 . S
N4454 H4461 0.984 . S
N4455 C4448 1.356 . S
N4455 H4458 0.984 . S
N4455 H4459 0.985 . S
H4456 N4451 0.984 . S
H4457 N4451 0.985 . S
H4458 N4455 0.984 . S
H4459 N4455 0.985 . S
H4460 N4454 0.984 . S
H4461 N4454 0.984 . S
H4462 N4450 0.984 . S
H4463 N4450 0.985 . S
C4464 C4465 1.363 . S
C4464 C4470 1.379 . S
C4464 N4472 1.356 . S
C4465 C4464 1.363 . S
C4465 C4471 1.363 . S
C4466 C4467 1.363 . S
C4466 C4471 1.379 . S
C4466 N4473 1.356 1_554 S
C4467 C4466 1.363 . S
C4467 C4470 1.363 . S
N4468 C4470 1.356 . S
N4468 H4480 0.984 . S
N4468 H4481 0.985 . S
N4469 C4471 1.356 . S
N4469 H4474 0.984 . S
N4469 H4475 0.985 . S
C4470 C4464 1.379 . S
C4470 C4467 1.363 . S
C4470 N4468 1.356 . S
C4471 C4465 1.363 . S
C4471 C4466 1.379 . S
C4471 N4469 1.356 . S
N4472 C4464 1.356 . S
N4472 H4478 0.984 . S
N4472 H4479 0.984 . S
N4473 C4466 1.356 1_556 S
N4473 H4476 0.984 . S
N4473 H4477 0.985 . S
H4474 N4469 0.984 . S
H4475 N4469 0.985 . S
H4476 N4473 0.984 . S
H4477 N4473 0.985 . S
H4478 N4472 0.984 . S
H4479 N4472 0.984 . S
H4480 N4468 0.984 . S
H4481 N4468 0.985 . S
C4482 C4483 1.363 . S
C4482 C4488 1.379 . S
C4482 N4490 1.356 . S
C4483 C4482 1.363 . S
C4483 C4489 1.363 . S
C4484 C4485 1.363 . S
C4484 C4489 1.379 . S
C4484 N4491 1.356 . S
C4485 C4484 1.363 . S
C4485 C4488 1.363 . S
N4486 C4488 1.356 . S
N4486 H4498 0.984 . S
N4486 H4499 0.985 . S
N4487 C4489 1.356 . S
N4487 H4492 0.984 . S
N4487 H4493 0.985 . S
C4488 C4482 1.379 . S
C4488 C4485 1.363 . S
C4488 N4486 1.356 . S
C4489 C4483 1.363 . S
C4489 C4484 1.379 . S
C4489 N4487 1.356 . S
N4490 C4482 1.356 . S
N4490 H4496 0.984 . S
N4490 H4497 0.984 . S
N4491 C4484 1.356 . S
N4491 H4494 0.984 . S
N4491 H4495 0.985 . S
H4492 N4487 0.984 . S
H4493 N4487 0.985 . S
H4494 N4491 0.984 . S
H4495 N4491 0.985 . S
H4496 N4490 0.984 . S
H4497 N4490 0.984 . S
H4498 N4486 0.984 . S
H4499 N4486 0.985 . S
C4500 C4501 1.363 . S
C4500 C4506 1.379 . S
C4500 N4508 1.356 . S
C4501 C4500 1.363 . S
C4501 C4507 1.363 . S
C4502 C4503 1.363 . S
C4502 C4507 1.379 . S
C4502 N4509 1.356 . S
C4503 C4502 1.363 . S
C4503 C4506 1.363 . S
N4504 C4506 1.356 . S
N4504 H4516 0.984 . S
N4504 H4517 0.985 . S
N4505 C4507 1.356 . S
N4505 H4510 0.984 . S
N4505 H4511 0.985 . S
C4506 C4500 1.379 . S
C4506 C4503 1.363 . S
C4506 N4504 1.356 . S
C4507 C4501 1.363 . S
C4507 C4502 1.379 . S
C4507 N4505 1.356 . S
N4508 C4500 1.356 . S
N4508 H4514 0.984 . S
N4508 H4515 0.984 . S
N4509 C4502 1.356 . S
N4509 H4512 0.984 . S
N4509 H4513 0.985 . S
H4510 N4505 0.984 . S
H4511 N4505 0.985 . S
H4512 N4509 0.984 . S
H4513 N4509 0.985 . S
H4514 N4508 0.984 . S
H4515 N4508 0.984 . S
H4516 N4504 0.984 . S
H4517 N4504 0.985 . S
C4518 C4519 1.363 . S
C4518 C4524 1.379 . S
C4518 N4526 1.356 . S
C4519 C4518 1.363 . S
C4519 C4525 1.363 . S
C4520 C4521 1.363 . S
C4520 C4525 1.379 . S
C4520 N4527 1.356 . S
C4521 C4520 1.363 . S
C4521 C4524 1.363 . S
N4522 C4524 1.356 . S
N4522 H4534 0.984 . S
N4522 H4535 0.985 . S
N4523 C4525 1.356 . S
N4523 H4528 0.984 . S
N4523 H4529 0.985 . S
C4524 C4518 1.379 . S
C4524 C4521 1.363 . S
C4524 N4522 1.356 . S
C4525 C4519 1.363 . S
C4525 C4520 1.379 . S
C4525 N4523 1.356 . S
N4526 C4518 1.356 . S
N4526 H4532 0.984 . S
N4526 H4533 0.984 . S
N4527 C4520 1.356 . S
N4527 H4530 0.984 . S
N4527 H4531 0.985 . S
H4528 N4523 0.984 . S
H4529 N4523 0.985 . S
H4530 N4527 0.984 . S
H4531 N4527 0.985 . S
H4532 N4526 0.984 . S
H4533 N4526 0.984 . S
H4534 N4522 0.984 . S
H4535 N4522 0.985 . S
C4536 C4537 1.363 . S
C4536 C4542 1.379 . S
C4536 N4544 1.356 . S
C4537 C4536 1.363 . S
C4537 C4543 1.363 . S
C4538 C4539 1.363 . S
C4538 C4543 1.379 . S
C4538 N4545 1.356 . S
C4539 C4538 1.363 . S
C4539 C4542 1.363 . S
N4540 C4542 1.356 . S
N4540 H4552 0.984 . S
N4540 H4553 0.985 . S
N4541 C4543 1.356 . S
N4541 H4546 0.984 . S
N4541 H4547 0.985 . S
C4542 C4536 1.379 . S
C4542 C4539 1.363 . S
C4542 N4540 1.356 . S
C4543 C4537 1.363 . S
C4543 C4538 1.379 . S
C4543 N4541 1.356 . S
N4544 C4536 1.356 . S
N4544 H4550 0.984 . S
N4544 H4551 0.984 . S
N4545 C4538 1.356 . S
N4545 H4548 0.984 . S
N4545 H4549 0.985 . S
H4546 N4541 0.984 . S
H4547 N4541 0.985 . S
H4548 N4545 0.984 . S
H4549 N4545 0.985 . S
H4550 N4544 0.984 . S
H4551 N4544 0.984 . S
H4552 N4540 0.984 . S
H4553 N4540 0.985 . S
C4554 C4555 1.363 . S
C4554 C4560 1.379 . S
C4554 N4562 1.356 . S
C4555 C4554 1.363 . S
C4555 C4561 1.363 . S
C4556 C4557 1.363 . S
C4556 C4561 1.379 . S
C4556 N4563 1.356 . S
C4557 C4556 1.363 . S
C4557 C4560 1.363 . S
N4558 C4560 1.356 . S
N4558 H4570 0.984 . S
N4558 H4571 0.985 . S
N4559 C4561 1.356 . S
N4559 H4564 0.984 . S
N4559 H4565 0.985 . S
C4560 C4554 1.379 . S
C4560 C4557 1.363 . S
C4560 N4558 1.356 . S
C4561 C4555 1.363 . S
C4561 C4556 1.379 . S
C4561 N4559 1.356 . S
N4562 C4554 1.356 . S
N4562 H4568 0.984 . S
N4562 H4569 0.984 . S
N4563 C4556 1.356 . S
N4563 H4566 0.984 . S
N4563 H4567 0.985 . S
H4564 N4559 0.984 . S
H4565 N4559 0.985 . S
H4566 N4563 0.984 . S
H4567 N4563 0.985 . S
H4568 N4562 0.984 . S
H4569 N4562 0.984 . S
H4570 N4558 0.984 . S
H4571 N4558 0.985 . S
C4572 C4573 1.363 . S
C4572 C4578 1.379 . S
C4572 N4580 1.356 . S
C4573 C4572 1.363 . S
C4573 C4579 1.363 . S
C4574 C4575 1.363 . S
C4574 C4579 1.379 . S
C4574 N4581 1.356 . S
C4575 C4574 1.363 . S
C4575 C4578 1.363 . S
N4576 C4578 1.356 . S
N4576 H4588 0.984 . S
N4576 H4589 0.985 . S
N4577 C4579 1.356 . S
N4577 H4582 0.984 . S
N4577 H4583 0.985 . S
C4578 C4572 1.379 . S
C4578 C4575 1.363 . S
C4578 N4576 1.356 . S
C4579 C4573 1.363 . S
C4579 C4574 1.379 . S
C4579 N4577 1.356 . S
N4580 C4572 1.356 . S
N4580 H4586 0.984 . S
N4580 H4587 0.984 . S
N4581 C4574 1.356 . S
N4581 H4584 0.984 . S
N4581 H4585 0.985 . S
H4582 N4577 0.984 . S
H4583 N4577 0.985 . S
H4584 N4581 0.984 . S
H4585 N4581 0.985 . S
H4586 N4580 0.984 . S
H4587 N4580 0.984 . S
H4588 N4576 0.984 . S
H4589 N4576 0.985 . S
C4590 C4591 1.363 . S
C4590 C4596 1.379 . S
C4590 N4598 1.356 . S
C4591 C4590 1.363 . S
C4591 C4597 1.363 . S
C4592 C4593 1.363 . S
C4592 C4597 1.379 . S
C4592 N4599 1.356 . S
C4593 C4592 1.363 . S
C4593 C4596 1.363 . S
N4594 C4596 1.356 . S
N4594 H4606 0.984 . S
N4594 H4607 0.985 . S
N4595 C4597 1.356 . S
N4595 H4600 0.984 . S
N4595 H4601 0.985 . S
C4596 C4590 1.379 . S
C4596 C4593 1.363 . S
C4596 N4594 1.356 . S
C4597 C4591 1.363 . S
C4597 C4592 1.379 . S
C4597 N4595 1.356 . S
N4598 C4590 1.356 . S
N4598 H4604 0.984 . S
N4598 H4605 0.984 . S
N4599 C4592 1.356 . S
N4599 H4602 0.984 . S
N4599 H4603 0.985 . S
H4600 N4595 0.984 . S
H4601 N4595 0.985 . S
H4602 N4599 0.984 . S
H4603 N4599 0.985 . S
H4604 N4598 0.984 . S
H4605 N4598 0.984 . S
H4606 N4594 0.984 . S
H4607 N4594 0.985 . S
C4608 C4609 1.363 . S
C4608 C4614 1.379 . S
C4608 N4616 1.356 . S
C4609 C4608 1.363 . S
C4609 C4615 1.363 . S
C4610 C4611 1.363 . S
C4610 C4615 1.379 . S
C4610 N4617 1.356 . S
C4611 C4610 1.363 . S
C4611 C4614 1.363 . S
N4612 C4614 1.356 . S
N4612 H4624 0.984 . S
N4612 H4625 0.985 . S
N4613 C4615 1.356 . S
N4613 H4618 0.984 . S
N4613 H4619 0.985 . S
C4614 C4608 1.379 . S
C4614 C4611 1.363 . S
C4614 N4612 1.356 . S
C4615 C4609 1.363 . S
C4615 C4610 1.379 . S
C4615 N4613 1.356 . S
N4616 C4608 1.356 . S
N4616 H4622 0.984 . S
N4616 H4623 0.984 . S
N4617 C4610 1.356 . S
N4617 H4620 0.984 . S
N4617 H4621 0.985 . S
H4618 N4613 0.984 . S
H4619 N4613 0.985 . S
H4620 N4617 0.984 . S
H4621 N4617 0.985 . S
H4622 N4616 0.984 . S
H4623 N4616 0.984 . S
H4624 N4612 0.984 . S
H4625 N4612 0.985 . S
C4626 C4627 1.363 . S
C4626 C4632 1.379 . S
C4626 N4634 1.356 . S
C4627 C4626 1.363 . S
C4627 C4633 1.363 . S
C4628 C4629 1.363 . S
C4628 C4633 1.379 . S
C4628 N4635 1.356 . S
C4629 C4628 1.363 . S
C4629 C4632 1.363 . S
N4630 C4632 1.356 . S
N4630 H4642 0.984 . S
N4630 H4643 0.985 . S
N4631 C4633 1.356 . S
N4631 H4636 0.984 . S
N4631 H4637 0.985 . S
C4632 C4626 1.379 . S
C4632 C4629 1.363 . S
C4632 N4630 1.356 . S
C4633 C4627 1.363 . S
C4633 C4628 1.379 . S
C4633 N4631 1.356 . S
N4634 C4626 1.356 . S
N4634 H4640 0.984 . S
N4634 H4641 0.984 . S
N4635 C4628 1.356 . S
N4635 H4638 0.984 . S
N4635 H4639 0.985 . S
H4636 N4631 0.984 . S
H4637 N4631 0.985 . S
H4638 N4635 0.984 . S
H4639 N4635 0.985 . S
H4640 N4634 0.984 . S
H4641 N4634 0.984 . S
H4642 N4630 0.984 . S
H4643 N4630 0.985 . S
C4644 C4645 1.363 . S
C4644 C4650 1.379 . S
C4644 N4652 1.356 . S
C4645 C4644 1.363 . S
C4645 C4651 1.363 . S
C4646 C4647 1.363 . S
C4646 C4651 1.379 . S
C4646 N4653 1.356 . S
C4647 C4646 1.363 . S
C4647 C4650 1.363 . S
N4648 C4650 1.356 . S
N4648 H4660 0.984 . S
N4648 H4661 0.985 . S
N4649 C4651 1.356 . S
N4649 H4654 0.984 . S
N4649 H4655 0.985 . S
C4650 C4644 1.379 . S
C4650 C4647 1.363 . S
C4650 N4648 1.356 . S
C4651 C4645 1.363 . S
C4651 C4646 1.379 . S
C4651 N4649 1.356 . S
N4652 C4644 1.356 . S
N4652 H4658 0.984 . S
N4652 H4659 0.984 . S
N4653 C4646 1.356 . S
N4653 H4656 0.984 . S
N4653 H4657 0.985 . S
H4654 N4649 0.984 . S
H4655 N4649 0.985 . S
H4656 N4653 0.984 . S
H4657 N4653 0.985 . S
H4658 N4652 0.984 . S
H4659 N4652 0.984 . S
H4660 N4648 0.984 . S
H4661 N4648 0.985 . S
C4662 C4663 1.363 . S
C4662 C4668 1.379 . S
C4662 N4670 1.356 . S
C4663 C4662 1.363 . S
C4663 C4669 1.363 . S
C4664 C4665 1.363 . S
C4664 C4669 1.379 . S
C4664 N4671 1.356 . S
C4665 C4664 1.363 . S
C4665 C4668 1.363 . S
N4666 C4668 1.356 . S
N4666 H4678 0.984 . S
N4666 H4679 0.985 . S
N4667 C4669 1.356 . S
N4667 H4672 0.984 . S
N4667 H4673 0.985 . S
C4668 C4662 1.379 . S
C4668 C4665 1.363 . S
C4668 N4666 1.356 . S
C4669 C4663 1.363 . S
C4669 C4664 1.379 . S
C4669 N4667 1.356 . S
N4670 C4662 1.356 . S
N4670 H4676 0.984 . S
N4670 H4677 0.984 . S
N4671 C4664 1.356 . S
N4671 H4674 0.984 . S
N4671 H4675 0.985 . S
H4672 N4667 0.984 . S
H4673 N4667 0.985 . S
H4674 N4671 0.984 . S
H4675 N4671 0.985 . S
H4676 N4670 0.984 . S
H4677 N4670 0.984 . S
H4678 N4666 0.984 . S
H4679 N4666 0.985 . S
C4680 C4681 1.363 . S
C4680 C4686 1.379 . S
C4680 N4688 1.356 . S
C4681 C4680 1.363 . S
C4681 C4687 1.363 . S
C4682 C4683 1.363 . S
C4682 C4687 1.379 . S
C4682 N4689 1.356 . S
C4683 C4682 1.363 . S
C4683 C4686 1.363 . S
N4684 C4686 1.356 . S
N4684 H4696 0.984 . S
N4684 H4697 0.985 . S
N4685 C4687 1.356 . S
N4685 H4690 0.984 . S
N4685 H4691 0.985 . S
C4686 C4680 1.379 . S
C4686 C4683 1.363 . S
C4686 N4684 1.356 . S
C4687 C4681 1.363 . S
C4687 C4682 1.379 . S
C4687 N4685 1.356 . S
N4688 C4680 1.356 . S
N4688 H4694 0.984 . S
N4688 H4695 0.984 . S
N4689 C4682 1.356 . S
N4689 H4692 0.984 . S
N4689 H4693 0.985 . S
H4690 N4685 0.984 . S
H4691 N4685 0.985 . S
H4692 N4689 0.984 . S
H4693 N4689 0.985 . S
H4694 N4688 0.984 . S
H4695 N4688 0.984 . S
H4696 N4684 0.984 . S
H4697 N4684 0.985 . S
C4698 C4699 1.363 . S
C4698 C4704 1.379 . S
C4698 N4706 1.356 . S
C4699 C4698 1.363 . S
C4699 C4705 1.363 . S
C4700 C4701 1.363 . S
C4700 C4705 1.379 . S
C4700 N4707 1.356 . S
C4701 C4700 1.363 . S
C4701 C4704 1.363 . S
N4702 C4704 1.402 . S
N4702 H4714 0.955 1_655 S
N4702 H4715 0.971 1_655 S
N4703 C4705 1.356 . S
N4703 H4708 0.984 . S
N4703 H4709 0.985 . S
C4704 C4698 1.379 . S
C4704 C4701 1.363 . S
C4704 N4702 1.402 . S
C4705 C4699 1.363 . S
C4705 C4700 1.379 . S
C4705 N4703 1.356 . S
N4706 C4698 1.356 . S
N4706 H4712 0.984 . S
N4706 H4713 0.984 . S
N4707 C4700 1.356 . S
N4707 H4710 0.984 . S
N4707 H4711 0.985 . S
H4708 N4703 0.984 . S
H4709 N4703 0.985 . S
H4710 N4707 0.984 . S
H4711 N4707 0.985 . S
H4712 N4706 0.984 . S
H4713 N4706 0.984 . S
H4714 N4702 0.955 1_455 S
H4715 N4702 0.971 1_455 S
C4716 C4717 1.363 . S
C4716 C4722 1.379 . S
C4716 N4724 1.356 . S
C4717 C4716 1.363 . S
C4717 C4723 1.363 . S
C4718 C4719 1.363 . S
C4718 C4723 1.379 . S
C4718 N4725 1.356 . S
C4719 C4718 1.363 . S
C4719 C4722 1.363 . S
N4720 C4722 1.356 . S
N4720 H4732 0.984 . S
N4720 H4733 0.985 . S
N4721 C4723 1.356 . S
N4721 H4726 0.984 . S
N4721 H4727 0.985 . S
C4722 C4716 1.379 . S
C4722 C4719 1.363 . S
C4722 N4720 1.356 . S
C4723 C4717 1.363 . S
C4723 C4718 1.379 . S
C4723 N4721 1.356 . S
N4724 C4716 1.356 . S
N4724 H4730 0.984 . S
N4724 H4731 0.984 . S
N4725 C4718 1.356 . S
N4725 H4728 0.984 . S
N4725 H4729 0.985 . S
H4726 N4721 0.984 . S
H4727 N4721 0.985 . S
H4728 N4725 0.984 . S
H4729 N4725 0.985 . S
H4730 N4724 0.984 . S
H4731 N4724 0.984 . S
H4732 N4720 0.984 . S
H4733 N4720 0.985 . S
C4734 C4735 1.363 . S
C4734 C4740 1.379 . S
C4734 N4742 1.356 . S
C4735 C4734 1.363 . S
C4735 C4741 1.363 . S
C4736 C4737 1.363 . S
C4736 C4741 1.379 . S
C4736 N4743 1.356 . S
C4737 C4736 1.363 . S
C4737 C4740 1.363 . S
N4738 C4740 1.356 . S
N4738 H4750 0.984 . S
N4738 H4751 0.985 . S
N4739 C4741 1.356 . S
N4739 H4744 0.984 . S
N4739 H4745 0.985 . S
C4740 C4734 1.379 . S
C4740 C4737 1.363 . S
C4740 N4738 1.356 . S
C4741 C4735 1.363 . S
C4741 C4736 1.379 . S
C4741 N4739 1.356 . S
N4742 C4734 1.356 . S
N4742 H4748 0.984 . S
N4742 H4749 0.984 . S
N4743 C4736 1.356 . S
N4743 H4746 0.984 . S
N4743 H4747 0.985 . S
H4744 N4739 0.984 . S
H4745 N4739 0.985 . S
H4746 N4743 0.984 . S
H4747 N4743 0.985 . S
H4748 N4742 0.984 . S
H4749 N4742 0.984 . S
H4750 N4738 0.984 . S
H4751 N4738 0.985 . S
C4752 C4753 1.363 . S
C4752 C4758 1.379 . S
C4752 N4760 1.356 . S
C4753 C4752 1.363 . S
C4753 C4759 1.363 . S
C4754 C4755 1.363 . S
C4754 C4759 1.379 . S
C4754 N4761 1.356 1_545 S
C4755 C4754 1.363 . S
C4755 C4758 1.363 . S
N4756 C4758 1.356 . S
N4756 H4768 0.984 . S
N4756 H4769 0.985 . S
N4757 C4759 1.356 . S
N4757 H4762 0.984 . S
N4757 H4763 0.985 . S
C4758 C4752 1.379 . S
C4758 C4755 1.363 . S
C4758 N4756 1.356 . S
C4759 C4753 1.363 . S
C4759 C4754 1.379 . S
C4759 N4757 1.356 . S
N4760 C4752 1.356 . S
N4760 H4766 0.984 . S
N4760 H4767 0.984 . S
N4761 C4754 1.356 1_565 S
N4761 H4764 0.984 . S
N4761 H4765 0.985 . S
H4762 N4757 0.984 . S
H4763 N4757 0.985 . S
H4764 N4761 0.984 . S
H4765 N4761 0.985 . S
H4766 N4760 0.984 . S
H4767 N4760 0.984 . S
H4768 N4756 0.984 . S
H4769 N4756 0.985 . S
C4770 C4771 1.363 . S
C4770 C4776 1.379 . S
C4770 N4778 1.356 . S
C4771 C4770 1.363 . S
C4771 C4777 1.363 . S
C4772 C4773 1.363 . S
C4772 C4777 1.379 . S
C4772 N4779 1.356 . S
C4773 C4772 1.363 . S
C4773 C4776 1.363 . S
N4774 C4776 1.356 . S
N4774 H4786 0.984 . S
N4774 H4787 0.985 . S
N4775 C4777 1.356 . S
N4775 H4780 0.984 . S
N4775 H4781 0.985 . S
C4776 C4770 1.379 . S
C4776 C4773 1.363 . S
C4776 N4774 1.356 . S
C4777 C4771 1.363 . S
C4777 C4772 1.379 . S
C4777 N4775 1.356 . S
N4778 C4770 1.356 . S
N4778 H4784 0.984 . S
N4778 H4785 0.984 . S
N4779 C4772 1.356 . S
N4779 H4782 0.984 . S
N4779 H4783 0.985 . S
H4780 N4775 0.984 . S
H4781 N4775 0.985 . S
H4782 N4779 0.984 . S
H4783 N4779 0.985 . S
H4784 N4778 0.984 . S
H4785 N4778 0.984 . S
H4786 N4774 0.984 . S
H4787 N4774 0.985 . S
C4788 C4789 1.363 . S
C4788 C4794 1.379 . S
C4788 N4796 1.356 . S
C4789 C4788 1.363 . S
C4789 C4795 1.363 . S
C4790 C4791 1.363 . S
C4790 C4795 1.379 . S
C4790 N4797 1.356 . S
C4791 C4790 1.363 . S
C4791 C4794 1.363 . S
N4792 C4794 1.356 . S
N4792 H4804 0.984 . S
N4792 H4805 0.985 . S
N4793 C4795 1.356 . S
N4793 H4798 0.984 . S
N4793 H4799 0.985 . S
C4794 C4788 1.379 . S
C4794 C4791 1.363 . S
C4794 N4792 1.356 . S
C4795 C4789 1.363 . S
C4795 C4790 1.379 . S
C4795 N4793 1.356 . S
N4796 C4788 1.356 . S
N4796 H4802 0.984 . S
N4796 H4803 0.984 . S
N4797 C4790 1.356 . S
N4797 H4800 0.984 . S
N4797 H4801 0.985 . S
H4798 N4793 0.984 . S
H4799 N4793 0.985 . S
H4800 N4797 0.984 . S
H4801 N4797 0.985 . S
H4802 N4796 0.984 . S
H4803 N4796 0.984 . S
H4804 N4792 0.984 . S
H4805 N4792 0.985 . S
C4806 C4807 1.363 . S
C4806 C4812 1.379 . S
C4806 N4814 1.356 . S
C4807 C4806 1.363 . S
C4807 C4813 1.363 . S
C4808 C4809 1.363 . S
C4808 C4813 1.379 . S
C4808 N4815 1.356 . S
C4809 C4808 1.363 . S
C4809 C4812 1.363 . S
N4810 C4812 1.356 . S
N4810 H4822 0.984 . S
N4810 H4823 0.985 . S
N4811 C4813 1.356 . S
N4811 H4816 0.984 . S
N4811 H4817 0.985 . S
C4812 C4806 1.379 . S
C4812 C4809 1.363 . S
C4812 N4810 1.356 . S
C4813 C4807 1.363 . S
C4813 C4808 1.379 . S
C4813 N4811 1.356 . S
N4814 C4806 1.356 . S
N4814 H4820 0.984 . S
N4814 H4821 0.984 . S
N4815 C4808 1.356 . S
N4815 H4818 0.984 . S
N4815 H4819 0.985 . S
H4816 N4811 0.984 . S
H4817 N4811 0.985 . S
H4818 N4815 0.984 . S
H4819 N4815 0.985 . S
H4820 N4814 0.984 . S
H4821 N4814 0.984 . S
H4822 N4810 0.984 . S
H4823 N4810 0.985 . S
C4824 C4825 1.363 . S
C4824 C4830 1.379 . S
C4824 N4832 1.356 . S
C4825 C4824 1.363 . S
C4825 C4831 1.363 . S
C4826 C4827 1.363 . S
C4826 C4831 1.379 . S
C4826 N4833 1.356 . S
C4827 C4826 1.363 . S
C4827 C4830 1.363 . S
N4828 C4830 1.356 . S
N4828 H4840 0.984 . S
N4828 H4841 0.985 . S
N4829 C4831 1.356 . S
N4829 H4834 0.984 . S
N4829 H4835 0.985 . S
C4830 C4824 1.379 . S
C4830 C4827 1.363 . S
C4830 N4828 1.356 . S
C4831 C4825 1.363 . S
C4831 C4826 1.379 . S
C4831 N4829 1.356 . S
N4832 C4824 1.356 . S
N4832 H4838 0.979 1_565 S
N4832 H4839 0.984 . S
N4833 C4826 1.356 . S
N4833 H4836 0.984 . S
N4833 H4837 0.985 . S
H4834 N4829 0.984 . S
H4835 N4829 0.985 . S
H4836 N4833 0.984 . S
H4837 N4833 0.985 . S
H4838 N4832 0.979 1_545 S
H4839 N4832 0.984 . S
H4840 N4828 0.984 . S
H4841 N4828 0.985 . S
C4842 C4843 1.363 . S
C4842 C4848 1.379 . S
C4842 N4850 1.356 . S
C4843 C4842 1.363 . S
C4843 C4849 1.363 . S
C4844 C4845 1.363 . S
C4844 C4849 1.379 . S
C4844 N4851 1.356 . S
C4845 C4844 1.363 . S
C4845 C4848 1.363 . S
N4846 C4848 1.356 . S
N4846 H4858 0.984 . S
N4846 H4859 0.985 . S
N4847 C4849 1.356 . S
N4847 H4852 0.984 . S
N4847 H4853 0.985 . S
C4848 C4842 1.379 . S
C4848 C4845 1.363 . S
C4848 N4846 1.356 . S
C4849 C4843 1.363 . S
C4849 C4844 1.379 . S
C4849 N4847 1.356 . S
N4850 C4842 1.356 . S
N4850 H4856 0.984 . S
N4850 H4857 0.984 . S
N4851 C4844 1.356 . S
N4851 H4854 0.984 . S
N4851 H4855 0.985 . S
H4852 N4847 0.984 . S
H4853 N4847 0.985 . S
H4854 N4851 0.984 . S
H4855 N4851 0.985 . S
H4856 N4850 0.984 . S
H4857 N4850 0.984 . S
H4858 N4846 0.984 . S
H4859 N4846 0.985 . S
C4860 C4861 1.363 . S
C4860 C4866 1.379 . S
C4860 N4868 1.356 . S
C4861 C4860 1.363 . S
C4861 C4867 1.363 . S
C4862 C4863 1.363 . S
C4862 C4867 1.379 . S
C4862 N4869 1.356 . S
C4863 C4862 1.363 . S
C4863 C4866 1.363 . S
N4864 C4866 1.356 . S
N4864 H4876 0.984 . S
N4864 H4877 0.985 . S
N4865 C4867 1.356 . S
N4865 H4870 0.984 . S
N4865 H4871 0.985 . S
C4866 C4860 1.379 . S
C4866 C4863 1.363 . S
C4866 N4864 1.356 . S
C4867 C4861 1.363 . S
C4867 C4862 1.379 . S
C4867 N4865 1.356 . S
N4868 C4860 1.356 . S
N4868 H4874 0.984 . S
N4868 H4875 0.984 . S
N4869 C4862 1.356 . S
N4869 H4872 0.984 . S
N4869 H4873 0.985 . S
H4870 N4865 0.984 . S
H4871 N4865 0.985 . S
H4872 N4869 0.984 . S
H4873 N4869 0.985 . S
H4874 N4868 0.984 . S
H4875 N4868 0.984 . S
H4876 N4864 0.984 . S
H4877 N4864 0.985 . S
C4878 C4879 1.363 . S
C4878 C4884 1.379 . S
C4878 N4886 1.356 . S
C4879 C4878 1.363 . S
C4879 C4885 1.363 . S
C4880 C4881 1.363 . S
C4880 C4885 1.379 . S
C4880 N4887 1.356 . S
C4881 C4880 1.363 . S
C4881 C4884 1.363 . S
N4882 C4884 1.356 . S
N4882 H4894 0.984 . S
N4882 H4895 0.985 . S
N4883 C4885 1.356 . S
N4883 H4888 0.984 . S
N4883 H4889 0.985 . S
C4884 C4878 1.379 . S
C4884 C4881 1.363 . S
C4884 N4882 1.356 . S
C4885 C4879 1.363 . S
C4885 C4880 1.379 . S
C4885 N4883 1.356 . S
N4886 C4878 1.356 . S
N4886 H4892 0.984 . S
N4886 H4893 0.984 . S
N4887 C4880 1.356 . S
N4887 H4890 0.984 . S
N4887 H4891 0.985 . S
H4888 N4883 0.984 . S
H4889 N4883 0.985 . S
H4890 N4887 0.984 . S
H4891 N4887 0.985 . S
H4892 N4886 0.984 . S
H4893 N4886 0.984 . S
H4894 N4882 0.984 . S
H4895 N4882 0.985 . S
C4896 C4897 1.363 . S
C4896 C4902 1.379 . S
C4896 N4904 1.356 . S
C4897 C4896 1.363 . S
C4897 C4903 1.363 . S
C4898 C4899 1.363 . S
C4898 C4903 1.379 . S
C4898 N4905 1.356 . S
C4899 C4898 1.363 . S
C4899 C4902 1.363 . S
N4900 C4902 1.356 . S
N4900 H4912 0.984 . S
N4900 H4913 0.985 . S
N4901 C4903 1.356 . S
N4901 H4906 0.984 . S
N4901 H4907 0.985 . S
C4902 C4896 1.379 . S
C4902 C4899 1.363 . S
C4902 N4900 1.356 . S
C4903 C4897 1.363 . S
C4903 C4898 1.379 . S
C4903 N4901 1.356 . S
N4904 C4896 1.356 . S
N4904 H4910 0.984 . S
N4904 H4911 0.984 . S
N4905 C4898 1.356 . S
N4905 H4908 0.984 . S
N4905 H4909 0.985 . S
H4906 N4901 0.984 . S
H4907 N4901 0.985 . S
H4908 N4905 0.984 . S
H4909 N4905 0.985 . S
H4910 N4904 0.984 . S
H4911 N4904 0.984 . S
H4912 N4900 0.984 . S
H4913 N4900 0.985 . S
C4914 C4915 1.363 . S
C4914 C4920 1.379 . S
C4914 N4922 1.356 . S
C4915 C4914 1.363 . S
C4915 C4921 1.363 . S
C4916 C4917 1.363 . S
C4916 C4921 1.379 . S
C4916 N4923 1.356 . S
C4917 C4916 1.363 . S
C4917 C4920 1.363 . S
N4918 C4920 1.356 . S
N4918 H4930 0.984 . S
N4918 H4931 0.985 . S
N4919 C4921 1.356 . S
N4919 H4924 0.984 . S
N4919 H4925 0.985 . S
C4920 C4914 1.379 . S
C4920 C4917 1.363 . S
C4920 N4918 1.356 . S
C4921 C4915 1.363 . S
C4921 C4916 1.379 . S
C4921 N4919 1.356 . S
N4922 C4914 1.356 . S
N4922 H4928 0.984 . S
N4922 H4929 0.984 . S
N4923 C4916 1.356 . S
N4923 H4926 0.984 . S
N4923 H4927 0.985 . S
H4924 N4919 0.984 . S
H4925 N4919 0.985 . S
H4926 N4923 0.984 . S
H4927 N4923 0.985 . S
H4928 N4922 0.984 . S
H4929 N4922 0.984 . S
H4930 N4918 0.984 . S
H4931 N4918 0.985 . S
C4932 C4933 1.363 . S
C4932 C4938 1.379 . S
C4932 N4940 1.356 . S
C4933 C4932 1.363 . S
C4933 C4939 1.363 . S
C4934 C4935 1.363 . S
C4934 C4939 1.379 . S
C4934 N4941 1.356 . S
C4935 C4934 1.363 . S
C4935 C4938 1.363 . S
N4936 C4938 1.338 1_556 S
N4936 H4948 0.997 . S
N4936 H4949 0.990 . S
N4937 C4939 1.356 . S
N4937 H4942 0.984 . S
N4937 H4943 0.985 . S
C4938 C4932 1.379 . S
C4938 C4935 1.363 . S
C4938 N4936 1.338 1_554 S
C4939 C4933 1.363 . S
C4939 C4934 1.379 . S
C4939 N4937 1.356 . S
N4940 C4932 1.356 . S
N4940 H4946 0.984 . S
N4940 H4947 0.984 . S
N4941 C4934 1.356 . S
N4941 H4944 0.984 . S
N4941 H4945 0.985 . S
H4942 N4937 0.984 . S
H4943 N4937 0.985 . S
H4944 N4941 0.984 . S
H4945 N4941 0.985 . S
H4946 N4940 0.984 . S
H4947 N4940 0.984 . S
H4948 N4936 0.997 . S
H4949 N4936 0.990 . S
C4950 C4951 1.363 . S
C4950 C4956 1.379 . S
C4950 N4958 1.356 . S
C4951 C4950 1.363 . S
C4951 C4957 1.363 . S
C4952 C4953 1.363 . S
C4952 C4957 1.379 . S
C4952 N4959 1.356 . S
C4953 C4952 1.363 . S
C4953 C4956 1.363 . S
N4954 C4956 1.356 . S
N4954 H4966 0.984 . S
N4954 H4967 0.985 . S
N4955 C4957 1.356 . S
N4955 H4960 0.984 . S
N4955 H4961 0.985 . S
C4956 C4950 1.379 . S
C4956 C4953 1.363 . S
C4956 N4954 1.356 . S
C4957 C4951 1.363 . S
C4957 C4952 1.379 . S
C4957 N4955 1.356 . S
N4958 C4950 1.356 . S
N4958 H4964 0.984 . S
N4958 H4965 0.984 . S
N4959 C4952 1.356 . S
N4959 H4962 0.984 . S
N4959 H4963 0.985 . S
H4960 N4955 0.984 . S
H4961 N4955 0.985 . S
H4962 N4959 0.984 . S
H4963 N4959 0.985 . S
H4964 N4958 0.984 . S
H4965 N4958 0.984 . S
H4966 N4954 0.984 . S
H4967 N4954 0.985 . S
C4968 C4969 1.363 . S
C4968 C4974 1.379 . S
C4968 N4976 1.356 . S
C4969 C4968 1.363 . S
C4969 C4975 1.363 . S
C4970 C4971 1.363 . S
C4970 C4975 1.379 . S
C4970 N4977 1.356 . S
C4971 C4970 1.363 . S
C4971 C4974 1.363 . S
N4972 C4974 1.356 . S
N4972 H4984 0.984 . S
N4972 H4985 0.985 . S
N4973 C4975 1.356 . S
N4973 H4978 0.984 . S
N4973 H4979 0.985 . S
C4974 C4968 1.379 . S
C4974 C4971 1.363 . S
C4974 N4972 1.356 . S
C4975 C4969 1.363 . S
C4975 C4970 1.379 . S
C4975 N4973 1.356 . S
N4976 C4968 1.356 . S
N4976 H4982 0.984 . S
N4976 H4983 0.984 . S
N4977 C4970 1.356 . S
N4977 H4980 0.984 . S
N4977 H4981 0.985 . S
H4978 N4973 0.984 . S
H4979 N4973 0.985 . S
H4980 N4977 0.984 . S
H4981 N4977 0.985 . S
H4982 N4976 0.984 . S
H4983 N4976 0.984 . S
H4984 N4972 0.984 . S
H4985 N4972 0.985 . S
C4986 C4987 1.363 . S
C4986 C4992 1.379 . S
C4986 N4994 1.356 . S
C4987 C4986 1.363 . S
C4987 C4993 1.363 . S
C4988 C4989 1.363 . S
C4988 C4993 1.379 . S
C4988 N4995 1.356 . S
C4989 C4988 1.363 . S
C4989 C4992 1.363 . S
N4990 C4992 1.356 . S
N4990 H5002 0.984 . S
N4990 H5003 0.985 . S
N4991 C4993 1.356 . S
N4991 H4996 0.984 . S
N4991 H4997 0.985 . S
C4992 C4986 1.379 . S
C4992 C4989 1.363 . S
C4992 N4990 1.356 . S
C4993 C4987 1.363 . S
C4993 C4988 1.379 . S
C4993 N4991 1.356 . S
N4994 C4986 1.356 . S
N4994 H5000 0.984 . S
N4994 H5001 0.984 . S
N4995 C4988 1.356 . S
N4995 H4998 0.984 . S
N4995 H4999 0.985 . S
H4996 N4991 0.984 . S
H4997 N4991 0.985 . S
H4998 N4995 0.984 . S
H4999 N4995 0.985 . S
H5000 N4994 0.984 . S
H5001 N4994 0.984 . S
H5002 N4990 0.984 . S
H5003 N4990 0.985 . S
C5004 C5005 1.363 . S
C5004 C5010 1.379 . S
C5004 N5012 1.356 . S
C5005 C5004 1.363 . S
C5005 C5011 1.363 . S
C5006 C5007 1.363 . S
C5006 C5011 1.379 . S
C5006 N5013 1.356 . S
C5007 C5006 1.363 . S
C5007 C5010 1.363 . S
N5008 C5010 1.356 . S
N5008 H5020 0.984 . S
N5008 H5021 0.985 . S
N5009 C5011 1.356 . S
N5009 H5014 0.984 . S
N5009 H5015 0.985 . S
C5010 C5004 1.379 . S
C5010 C5007 1.363 . S
C5010 N5008 1.356 . S
C5011 C5005 1.363 . S
C5011 C5006 1.379 . S
C5011 N5009 1.356 . S
N5012 C5004 1.356 . S
N5012 H5018 0.984 . S
N5012 H5019 0.984 . S
N5013 C5006 1.356 . S
N5013 H5016 0.984 . S
N5013 H5017 0.985 . S
H5014 N5009 0.984 . S
H5015 N5009 0.985 . S
H5016 N5013 0.984 . S
H5017 N5013 0.985 . S
H5018 N5012 0.984 . S
H5019 N5012 0.984 . S
H5020 N5008 0.984 . S
H5021 N5008 0.985 . S
C5022 C5023 1.363 . S
C5022 C5028 1.379 . S
C5022 N5030 1.356 . S
C5023 C5022 1.363 . S
C5023 C5029 1.363 . S
C5024 C5025 1.363 . S
C5024 C5029 1.379 . S
C5024 N5031 1.356 . S
C5025 C5024 1.363 . S
C5025 C5028 1.363 . S
N5026 C5028 1.356 . S
N5026 H5038 0.984 . S
N5026 H5039 0.985 . S
N5027 C5029 1.356 . S
N5027 H5032 0.984 . S
N5027 H5033 0.985 . S
C5028 C5022 1.379 . S
C5028 C5025 1.363 . S
C5028 N5026 1.356 . S
C5029 C5023 1.363 . S
C5029 C5024 1.379 . S
C5029 N5027 1.356 . S
N5030 C5022 1.356 . S
N5030 H5036 0.984 . S
N5030 H5037 0.984 . S
N5031 C5024 1.356 . S
N5031 H5034 0.984 . S
N5031 H5035 0.985 . S
H5032 N5027 0.984 . S
H5033 N5027 0.985 . S
H5034 N5031 0.984 . S
H5035 N5031 0.985 . S
H5036 N5030 0.984 . S
H5037 N5030 0.984 . S
H5038 N5026 0.984 . S
H5039 N5026 0.985 . S
C5040 C5041 1.363 . S
C5040 C5046 1.379 . S
C5040 N5048 1.356 . S
C5041 C5040 1.363 . S
C5041 C5047 1.363 . S
C5042 C5043 1.363 . S
C5042 C5047 1.379 . S
C5042 N5049 1.356 . S
C5043 C5042 1.363 . S
C5043 C5046 1.363 . S
N5044 C5046 1.356 . S
N5044 H5056 0.984 1_455 S
N5044 H5057 0.990 . S
N5045 C5047 1.356 . S
N5045 H5050 0.984 . S
N5045 H5051 0.985 . S
C5046 C5040 1.379 . S
C5046 C5043 1.363 . S
C5046 N5044 1.356 . S
C5047 C5041 1.363 . S
C5047 C5042 1.379 . S
C5047 N5045 1.356 . S
N5048 C5040 1.356 . S
N5048 H5054 0.984 . S
N5048 H5055 0.984 . S
N5049 C5042 1.356 . S
N5049 H5052 0.984 . S
N5049 H5053 0.985 . S
H5050 N5045 0.984 . S
H5051 N5045 0.985 . S
H5052 N5049 0.984 . S
H5053 N5049 0.985 . S
H5054 N5048 0.984 . S
H5055 N5048 0.984 . S
H5056 N5044 0.984 1_655 S
H5057 N5044 0.990 . S
C5058 C5059 1.363 . S
C5058 C5064 1.379 . S
C5058 N5066 1.356 . S
C5059 C5058 1.363 . S
C5059 C5065 1.363 . S
C5060 C5061 1.363 . S
C5060 C5065 1.379 . S
C5060 N5067 1.356 . S
C5061 C5060 1.363 . S
C5061 C5064 1.363 . S
N5062 C5064 1.356 . S
N5062 H5074 0.984 . S
N5062 H5075 0.985 . S
N5063 C5065 1.356 . S
N5063 H5068 0.984 . S
N5063 H5069 0.985 . S
C5064 C5058 1.379 . S
C5064 C5061 1.363 . S
C5064 N5062 1.356 . S
C5065 C5059 1.363 . S
C5065 C5060 1.379 . S
C5065 N5063 1.356 . S
N5066 C5058 1.356 . S
N5066 H5072 0.984 . S
N5066 H5073 0.984 . S
N5067 C5060 1.356 . S
N5067 H5070 0.984 . S
N5067 H5071 0.985 . S
H5068 N5063 0.984 . S
H5069 N5063 0.985 . S
H5070 N5067 0.984 . S
H5071 N5067 0.985 . S
H5072 N5066 0.984 . S
H5073 N5066 0.984 . S
H5074 N5062 0.984 . S
H5075 N5062 0.985 . S
C5076 C5077 1.363 . S
C5076 C5082 1.379 . S
C5076 N5084 1.356 . S
C5077 C5076 1.363 . S
C5077 C5083 1.363 . S
C5078 C5079 1.363 . S
C5078 C5083 1.379 . S
C5078 N5085 1.356 . S
C5079 C5078 1.363 . S
C5079 C5082 1.363 . S
N5080 C5082 1.356 . S
N5080 H5092 0.984 . S
N5080 H5093 0.985 . S
N5081 C5083 1.356 . S
N5081 H5086 0.984 . S
N5081 H5087 0.985 . S
C5082 C5076 1.379 . S
C5082 C5079 1.363 . S
C5082 N5080 1.356 . S
C5083 C5077 1.363 . S
C5083 C5078 1.379 . S
C5083 N5081 1.356 . S
N5084 C5076 1.356 . S
N5084 H5090 0.984 . S
N5084 H5091 0.984 . S
N5085 C5078 1.356 . S
N5085 H5088 0.984 . S
N5085 H5089 0.985 . S
H5086 N5081 0.984 . S
H5087 N5081 0.985 . S
H5088 N5085 0.984 . S
H5089 N5085 0.985 . S
H5090 N5084 0.984 . S
H5091 N5084 0.984 . S
H5092 N5080 0.984 . S
H5093 N5080 0.985 . S
C5094 C5095 1.363 . S
C5094 C5100 1.379 . S
C5094 N5102 1.356 . S
C5095 C5094 1.363 . S
C5095 C5101 1.363 . S
C5096 C5097 1.363 . S
C5096 C5101 1.379 . S
C5096 N5103 1.356 . S
C5097 C5096 1.363 . S
C5097 C5100 1.363 . S
N5098 C5100 1.356 . S
N5098 H5110 0.984 . S
N5098 H5111 0.985 . S
N5099 C5101 1.356 . S
N5099 H5104 0.984 . S
N5099 H5105 0.985 . S
C5100 C5094 1.379 . S
C5100 C5097 1.363 . S
C5100 N5098 1.356 . S
C5101 C5095 1.363 . S
C5101 C5096 1.379 . S
C5101 N5099 1.356 . S
N5102 C5094 1.356 . S
N5102 H5108 0.984 . S
N5102 H5109 0.984 . S
N5103 C5096 1.356 . S
N5103 H5106 0.984 . S
N5103 H5107 0.985 . S
H5104 N5099 0.984 . S
H5105 N5099 0.985 . S
H5106 N5103 0.984 . S
H5107 N5103 0.985 . S
H5108 N5102 0.984 . S
H5109 N5102 0.984 . S
H5110 N5098 0.984 . S
H5111 N5098 0.985 . S
C5112 C5113 1.363 . S
C5112 C5118 1.379 . S
C5112 N5120 1.356 . S
C5113 C5112 1.363 . S
C5113 C5119 1.363 . S
C5114 C5115 1.363 . S
C5114 C5119 1.379 . S
C5114 N5121 1.356 . S
C5115 C5114 1.363 . S
C5115 C5118 1.363 . S
N5116 C5118 1.356 . S
N5116 H5128 0.984 . S
N5116 H5129 0.985 . S
N5117 C5119 1.356 . S
N5117 H5122 0.984 . S
N5117 H5123 0.985 . S
C5118 C5112 1.379 . S
C5118 C5115 1.363 . S
C5118 N5116 1.356 . S
C5119 C5113 1.363 . S
C5119 C5114 1.379 . S
C5119 N5117 1.356 . S
N5120 C5112 1.356 . S
N5120 H5126 0.984 . S
N5120 H5127 0.984 . S
N5121 C5114 1.356 . S
N5121 H5124 0.984 . S
N5121 H5125 0.985 . S
H5122 N5117 0.984 . S
H5123 N5117 0.985 . S
H5124 N5121 0.984 . S
H5125 N5121 0.985 . S
H5126 N5120 0.984 . S
H5127 N5120 0.984 . S
H5128 N5116 0.984 . S
H5129 N5116 0.985 . S
C5130 C5131 1.363 . S
C5130 C5136 1.379 . S
C5130 N5138 1.356 . S
C5131 C5130 1.363 . S
C5131 C5137 1.363 . S
C5132 C5133 1.363 . S
C5132 C5137 1.379 . S
C5132 N5139 1.356 . S
C5133 C5132 1.363 . S
C5133 C5136 1.363 . S
N5134 C5136 1.356 . S
N5134 H5146 0.984 . S
N5134 H5147 0.985 . S
N5135 C5137 1.356 . S
N5135 H5140 0.984 . S
N5135 H5141 0.985 . S
C5136 C5130 1.379 . S
C5136 C5133 1.363 . S
C5136 N5134 1.356 . S
C5137 C5131 1.363 . S
C5137 C5132 1.379 . S
C5137 N5135 1.356 . S
N5138 C5130 1.356 . S
N5138 H5144 0.984 . S
N5138 H5145 0.984 . S
N5139 C5132 1.356 . S
N5139 H5142 1.000 . S
N5139 H5143 0.966 1_655 S
H5140 N5135 0.984 . S
H5141 N5135 0.985 . S
H5142 N5139 1.000 . S
H5143 N5139 0.966 1_455 S
H5144 N5138 0.984 . S
H5145 N5138 0.984 . S
H5146 N5134 0.984 . S
H5147 N5134 0.985 . S
C5148 C5149 1.363 . S
C5148 C5154 1.379 . S
C5148 N5156 1.356 . S
C5149 C5148 1.363 . S
C5149 C5155 1.363 . S
C5150 C5151 1.363 . S
C5150 C5155 1.379 . S
C5150 N5157 1.356 . S
C5151 C5150 1.363 . S
C5151 C5154 1.363 . S
N5152 C5154 1.356 . S
N5152 H5164 0.984 . S
N5152 H5165 0.985 . S
N5153 C5155 1.356 . S
N5153 H5158 0.984 . S
N5153 H5159 0.985 . S
C5154 C5148 1.379 . S
C5154 C5151 1.363 . S
C5154 N5152 1.356 . S
C5155 C5149 1.363 . S
C5155 C5150 1.379 . S
C5155 N5153 1.356 . S
N5156 C5148 1.356 . S
N5156 H5162 0.984 . S
N5156 H5163 0.984 . S
N5157 C5150 1.356 . S
N5157 H5160 0.984 . S
N5157 H5161 0.985 . S
H5158 N5153 0.984 . S
H5159 N5153 0.985 . S
H5160 N5157 0.984 . S
H5161 N5157 0.985 . S
H5162 N5156 0.984 . S
H5163 N5156 0.984 . S
H5164 N5152 0.984 . S
H5165 N5152 0.985 . S
C5166 C5167 1.363 . S
C5166 C5172 1.379 . S
C5166 N5174 1.356 . S
C5167 C5166 1.363 . S
C5167 C5173 1.363 . S
C5168 C5169 1.363 . S
C5168 C5173 1.379 . S
C5168 N5175 1.356 . S
C5169 C5168 1.363 . S
C5169 C5172 1.363 . S
N5170 C5172 1.356 . S
N5170 H5182 0.984 . S
N5170 H5183 0.985 . S
N5171 C5173 1.356 . S
N5171 H5176 0.984 . S
N5171 H5177 0.985 . S
C5172 C5166 1.379 . S
C5172 C5169 1.363 . S
C5172 N5170 1.356 . S
C5173 C5167 1.363 . S
C5173 C5168 1.379 . S
C5173 N5171 1.356 . S
N5174 C5166 1.356 . S
N5174 H5180 0.984 . S
N5174 H5181 0.984 . S
N5175 C5168 1.356 . S
N5175 H5178 0.984 . S
N5175 H5179 0.985 . S
H5176 N5171 0.984 . S
H5177 N5171 0.985 . S
H5178 N5175 0.984 . S
H5179 N5175 0.985 . S
H5180 N5174 0.984 . S
H5181 N5174 0.984 . S
H5182 N5170 0.984 . S
H5183 N5170 0.985 . S
C5184 C5185 1.363 . S
C5184 C5190 1.379 . S
C5184 N5192 1.356 . S
C5185 C5184 1.363 . S
C5185 C5191 1.363 . S
C5186 C5187 1.363 . S
C5186 C5191 1.379 . S
C5186 N5193 1.356 . S
C5187 C5186 1.363 . S
C5187 C5190 1.363 . S
N5188 C5190 1.356 . S
N5188 H5200 0.984 . S
N5188 H5201 0.985 . S
N5189 C5191 1.356 . S
N5189 H5194 0.984 . S
N5189 H5195 0.985 . S
C5190 C5184 1.379 . S
C5190 C5187 1.363 . S
C5190 N5188 1.356 . S
C5191 C5185 1.363 . S
C5191 C5186 1.379 . S
C5191 N5189 1.356 . S
N5192 C5184 1.356 . S
N5192 H5198 0.984 . S
N5192 H5199 0.984 . S
N5193 C5186 1.356 . S
N5193 H5196 0.984 . S
N5193 H5197 0.985 . S
H5194 N5189 0.984 . S
H5195 N5189 0.985 . S
H5196 N5193 0.984 . S
H5197 N5193 0.985 . S
H5198 N5192 0.984 . S
H5199 N5192 0.984 . S
H5200 N5188 0.984 . S
H5201 N5188 0.985 . S
C5202 C5203 1.363 . S
C5202 C5208 1.379 . S
C5202 N5210 1.356 . S
C5203 C5202 1.363 . S
C5203 C5209 1.363 . S
C5204 C5205 1.363 . S
C5204 C5209 1.379 . S
C5204 N5211 1.356 . S
C5205 C5204 1.363 . S
C5205 C5208 1.363 . S
N5206 C5208 1.356 . S
N5206 H5218 0.984 . S
N5206 H5219 0.985 . S
N5207 C5209 1.356 . S
N5207 H5212 0.984 . S
N5207 H5213 0.985 . S
C5208 C5202 1.379 . S
C5208 C5205 1.363 . S
C5208 N5206 1.356 . S
C5209 C5203 1.363 . S
C5209 C5204 1.379 . S
C5209 N5207 1.356 . S
N5210 C5202 1.356 . S
N5210 H5216 0.984 . S
N5210 H5217 0.984 . S
N5211 C5204 1.356 . S
N5211 H5214 0.984 . S
N5211 H5215 0.985 . S
H5212 N5207 0.984 . S
H5213 N5207 0.985 . S
H5214 N5211 0.984 . S
H5215 N5211 0.985 . S
H5216 N5210 0.984 . S
H5217 N5210 0.984 . S
H5218 N5206 0.984 . S
H5219 N5206 0.985 . S
C5220 C5221 1.363 . S
C5220 C5226 1.379 . S
C5220 N5228 1.356 . S
C5221 C5220 1.363 . S
C5221 C5227 1.363 . S
C5222 C5223 1.363 . S
C5222 C5227 1.379 . S
C5222 N5229 1.356 . S
C5223 C5222 1.363 . S
C5223 C5226 1.363 . S
N5224 C5226 1.356 . S
N5224 H5236 0.984 . S
N5224 H5237 0.985 . S
N5225 C5227 1.356 . S
N5225 H5230 0.984 . S
N5225 H5231 0.985 . S
C5226 C5220 1.379 . S
C5226 C5223 1.363 . S
C5226 N5224 1.356 . S
C5227 C5221 1.363 . S
C5227 C5222 1.379 . S
C5227 N5225 1.356 . S
N5228 C5220 1.356 . S
N5228 H5234 0.984 . S
N5228 H5235 0.984 . S
N5229 C5222 1.356 . S
N5229 H5232 0.984 . S
N5229 H5233 0.985 . S
H5230 N5225 0.984 . S
H5231 N5225 0.985 . S
H5232 N5229 0.984 . S
H5233 N5229 0.985 . S
H5234 N5228 0.984 . S
H5235 N5228 0.984 . S
H5236 N5224 0.984 . S
H5237 N5224 0.985 . S
C5238 C5239 1.363 . S
C5238 C5244 1.379 . S
C5238 N5246 1.356 . S
C5239 C5238 1.363 . S
C5239 C5245 1.363 . S
C5240 C5241 1.363 . S
C5240 C5245 1.379 . S
C5240 N5247 1.356 . S
C5241 C5240 1.363 . S
C5241 C5244 1.363 . S
N5242 C5244 1.356 . S
N5242 H5254 0.984 . S
N5242 H5255 0.985 . S
N5243 C5245 1.356 . S
N5243 H5248 0.984 . S
N5243 H5249 0.985 . S
C5244 C5238 1.379 . S
C5244 C5241 1.363 . S
C5244 N5242 1.356 . S
C5245 C5239 1.363 . S
C5245 C5240 1.379 . S
C5245 N5243 1.356 . S
N5246 C5238 1.356 . S
N5246 H5252 0.984 . S
N5246 H5253 0.984 . S
N5247 C5240 1.356 . S
N5247 H5250 0.984 . S
N5247 H5251 0.985 . S
H5248 N5243 0.984 . S
H5249 N5243 0.985 . S
H5250 N5247 0.984 . S
H5251 N5247 0.985 . S
H5252 N5246 0.984 . S
H5253 N5246 0.984 . S
H5254 N5242 0.984 . S
H5255 N5242 0.985 . S
C5256 C5257 1.363 . S
C5256 C5262 1.379 . S
C5256 N5264 1.356 . S
C5257 C5256 1.363 . S
C5257 C5263 1.363 . S
C5258 C5259 1.363 . S
C5258 C5263 1.379 . S
C5258 N5265 1.356 . S
C5259 C5258 1.363 . S
C5259 C5262 1.363 . S
N5260 C5262 1.356 . S
N5260 H5272 0.984 . S
N5260 H5273 0.985 . S
N5261 C5263 1.356 . S
N5261 H5266 0.984 . S
N5261 H5267 0.985 . S
C5262 C5256 1.379 . S
C5262 C5259 1.363 . S
C5262 N5260 1.356 . S
C5263 C5257 1.363 . S
C5263 C5258 1.379 . S
C5263 N5261 1.356 . S
N5264 C5256 1.356 . S
N5264 H5270 0.984 . S
N5264 H5271 0.984 . S
N5265 C5258 1.356 . S
N5265 H5268 0.984 . S
N5265 H5269 0.985 . S
H5266 N5261 0.984 . S
H5267 N5261 0.985 . S
H5268 N5265 0.984 . S
H5269 N5265 0.985 . S
H5270 N5264 0.984 . S
H5271 N5264 0.984 . S
H5272 N5260 0.984 . S
H5273 N5260 0.985 . S
C5274 C5275 1.363 . S
C5274 C5280 1.379 . S
C5274 N5282 1.356 . S
C5275 C5274 1.363 . S
C5275 C5281 1.363 . S
C5276 C5277 1.363 . S
C5276 C5281 1.379 . S
C5276 N5283 1.356 . S
C5277 C5276 1.363 . S
C5277 C5280 1.363 . S
N5278 C5280 1.356 . S
N5278 H5290 0.984 . S
N5278 H5291 0.985 . S
N5279 C5281 1.356 . S
N5279 H5284 0.984 . S
N5279 H5285 0.985 . S
C5280 C5274 1.379 . S
C5280 C5277 1.363 . S
C5280 N5278 1.356 . S
C5281 C5275 1.363 . S
C5281 C5276 1.379 . S
C5281 N5279 1.356 . S
N5282 C5274 1.356 . S
N5282 H5288 0.984 . S
N5282 H5289 0.984 . S
N5283 C5276 1.356 . S
N5283 H5286 0.984 . S
N5283 H5287 0.985 . S
H5284 N5279 0.984 . S
H5285 N5279 0.985 . S
H5286 N5283 0.984 . S
H5287 N5283 0.985 . S
H5288 N5282 0.984 . S
H5289 N5282 0.984 . S
H5290 N5278 0.984 . S
H5291 N5278 0.985 . S
C5292 C5293 1.363 . S
C5292 C5298 1.379 . S
C5292 N5300 1.356 . S
C5293 C5292 1.363 . S
C5293 C5299 1.363 . S
C5294 C5295 1.363 . S
C5294 C5299 1.379 . S
C5294 N5301 1.356 . S
C5295 C5294 1.363 . S
C5295 C5298 1.363 . S
N5296 C5298 1.356 . S
N5296 H5308 0.984 . S
N5296 H5309 0.985 . S
N5297 C5299 1.356 . S
N5297 H5302 0.984 . S
N5297 H5303 0.985 . S
C5298 C5292 1.379 . S
C5298 C5295 1.363 . S
C5298 N5296 1.356 . S
C5299 C5293 1.363 . S
C5299 C5294 1.379 . S
C5299 N5297 1.356 . S
N5300 C5292 1.356 . S
N5300 H5306 0.984 . S
N5300 H5307 0.984 . S
N5301 C5294 1.356 . S
N5301 H5304 0.984 . S
N5301 H5305 0.985 . S
H5302 N5297 0.984 . S
H5303 N5297 0.985 . S
H5304 N5301 0.984 . S
H5305 N5301 0.985 . S
H5306 N5300 0.984 . S
H5307 N5300 0.984 . S
H5308 N5296 0.984 . S
H5309 N5296 0.985 . S
C5310 C5311 1.363 . S
C5310 C5316 1.379 . S
C5310 N5318 1.356 . S
C5311 C5310 1.363 . S
C5311 C5317 1.363 . S
C5312 C5313 1.363 . S
C5312 C5317 1.379 . S
C5312 N5319 1.356 . S
C5313 C5312 1.363 . S
C5313 C5316 1.363 . S
N5314 C5316 1.356 . S
N5314 H5326 0.984 . S
N5314 H5327 0.985 . S
N5315 C5317 1.356 . S
N5315 H5320 0.984 . S
N5315 H5321 0.985 . S
C5316 C5310 1.379 . S
C5316 C5313 1.363 . S
C5316 N5314 1.356 . S
C5317 C5311 1.363 . S
C5317 C5312 1.379 . S
C5317 N5315 1.356 . S
N5318 C5310 1.356 . S
N5318 H5324 0.984 . S
N5318 H5325 0.984 . S
N5319 C5312 1.356 . S
N5319 H5322 0.984 . S
N5319 H5323 0.985 . S
H5320 N5315 0.984 . S
H5321 N5315 0.985 . S
H5322 N5319 0.984 . S
H5323 N5319 0.985 . S
H5324 N5318 0.984 . S
H5325 N5318 0.984 . S
H5326 N5314 0.984 . S
H5327 N5314 0.985 . S
C5328 C5329 1.363 . S
C5328 C5334 1.379 . S
C5328 N5336 1.356 . S
C5329 C5328 1.363 . S
C5329 C5335 1.363 . S
C5330 C5331 1.363 . S
C5330 C5335 1.379 . S
C5330 N5337 1.356 . S
C5331 C5330 1.363 . S
C5331 C5334 1.363 . S
N5332 C5334 1.356 . S
N5332 H5344 0.984 . S
N5332 H5345 0.985 . S
N5333 C5335 1.356 . S
N5333 H5338 0.984 . S
N5333 H5339 0.985 . S
C5334 C5328 1.379 . S
C5334 C5331 1.363 . S
C5334 N5332 1.356 . S
C5335 C5329 1.363 . S
C5335 C5330 1.379 . S
C5335 N5333 1.356 . S
N5336 C5328 1.356 . S
N5336 H5342 0.984 . S
N5336 H5343 0.984 . S
N5337 C5330 1.356 . S
N5337 H5340 0.984 . S
N5337 H5341 0.985 . S
H5338 N5333 0.984 . S
H5339 N5333 0.985 . S
H5340 N5337 0.984 . S
H5341 N5337 0.985 . S
H5342 N5336 0.984 . S
H5343 N5336 0.984 . S
H5344 N5332 0.984 . S
H5345 N5332 0.985 . S
C5346 C5347 1.363 . S
C5346 C5352 1.379 . S
C5346 N5354 1.356 . S
C5347 C5346 1.363 . S
C5347 C5353 1.363 . S
C5348 C5349 1.363 . S
C5348 C5353 1.379 . S
C5348 N5355 1.356 . S
C5349 C5348 1.363 . S
C5349 C5352 1.363 . S
N5350 C5352 1.356 . S
N5350 H5362 0.984 . S
N5350 H5363 0.985 . S
N5351 C5353 1.356 . S
N5351 H5356 0.984 . S
N5351 H5357 0.985 . S
C5352 C5346 1.379 . S
C5352 C5349 1.363 . S
C5352 N5350 1.356 . S
C5353 C5347 1.363 . S
C5353 C5348 1.379 . S
C5353 N5351 1.356 . S
N5354 C5346 1.356 . S
N5354 H5360 0.984 . S
N5354 H5361 0.984 . S
N5355 C5348 1.356 . S
N5355 H5358 0.984 . S
N5355 H5359 0.985 . S
H5356 N5351 0.984 . S
H5357 N5351 0.985 . S
H5358 N5355 0.984 . S
H5359 N5355 0.985 . S
H5360 N5354 0.984 . S
H5361 N5354 0.984 . S
H5362 N5350 0.984 . S
H5363 N5350 0.985 . S
C5364 C5365 1.363 . S
C5364 C5370 1.379 . S
C5364 N5372 1.356 . S
C5365 C5364 1.363 . S
C5365 C5371 1.363 . S
C5366 C5367 1.363 . S
C5366 C5371 1.379 . S
C5366 N5373 1.356 . S
C5367 C5366 1.363 . S
C5367 C5370 1.363 . S
N5368 C5370 1.356 . S
N5368 H5380 0.984 . S
N5368 H5381 0.985 . S
N5369 C5371 1.356 . S
N5369 H5374 0.984 . S
N5369 H5375 0.985 . S
C5370 C5364 1.379 . S
C5370 C5367 1.363 . S
C5370 N5368 1.356 . S
C5371 C5365 1.363 . S
C5371 C5366 1.379 . S
C5371 N5369 1.356 . S
N5372 C5364 1.356 . S
N5372 H5378 0.984 . S
N5372 H5379 0.984 . S
N5373 C5366 1.356 . S
N5373 H5376 0.984 . S
N5373 H5377 0.985 . S
H5374 N5369 0.984 . S
H5375 N5369 0.985 . S
H5376 N5373 0.984 . S
H5377 N5373 0.985 . S
H5378 N5372 0.984 . S
H5379 N5372 0.984 . S
H5380 N5368 0.984 . S
H5381 N5368 0.985 . S
C5382 C5383 1.363 . S
C5382 C5388 1.379 . S
C5382 N5390 1.356 . S
C5383 C5382 1.363 . S
C5383 C5389 1.363 . S
C5384 C5385 1.363 . S
C5384 C5389 1.379 . S
C5384 N5391 1.356 . S
C5385 C5384 1.363 . S
C5385 C5388 1.363 . S
N5386 C5388 1.356 . S
N5386 H5398 0.984 . S
N5386 H5399 0.985 . S
N5387 C5389 1.356 . S
N5387 H5392 0.984 . S
N5387 H5393 0.985 . S
C5388 C5382 1.379 . S
C5388 C5385 1.363 . S
C5388 N5386 1.356 . S
C5389 C5383 1.363 . S
C5389 C5384 1.379 . S
C5389 N5387 1.356 . S
N5390 C5382 1.356 . S
N5390 H5396 0.984 . S
N5390 H5397 0.984 . S
N5391 C5384 1.356 . S
N5391 H5394 0.984 . S
N5391 H5395 0.985 . S
H5392 N5387 0.984 . S
H5393 N5387 0.985 . S
H5394 N5391 0.984 . S
H5395 N5391 0.985 . S
H5396 N5390 0.984 . S
H5397 N5390 0.984 . S
H5398 N5386 0.984 . S
H5399 N5386 0.985 . S
C5400 C5401 1.363 . S
C5400 C5406 1.379 . S
C5400 N5408 1.356 . S
C5401 C5400 1.363 . S
C5401 C5407 1.363 . S
C5402 C5403 1.363 . S
C5402 C5407 1.379 . S
C5402 N5409 1.356 . S
C5403 C5402 1.363 . S
C5403 C5406 1.363 . S
N5404 C5406 1.356 . S
N5404 H5416 0.984 . S
N5404 H5417 0.985 . S
N5405 C5407 1.356 . S
N5405 H5410 0.984 . S
N5405 H5411 0.985 . S
C5406 C5400 1.379 . S
C5406 C5403 1.363 . S
C5406 N5404 1.356 . S
C5407 C5401 1.363 . S
C5407 C5402 1.379 . S
C5407 N5405 1.356 . S
N5408 C5400 1.356 . S
N5408 H5414 0.984 . S
N5408 H5415 0.984 . S
N5409 C5402 1.356 . S
N5409 H5412 0.984 . S
N5409 H5413 0.985 . S
H5410 N5405 0.984 . S
H5411 N5405 0.985 . S
H5412 N5409 0.984 . S
H5413 N5409 0.985 . S
H5414 N5408 0.984 . S
H5415 N5408 0.984 . S
H5416 N5404 0.984 . S
H5417 N5404 0.985 . S
C5418 C5419 1.363 . S
C5418 C5424 1.379 . S
C5418 N5426 1.356 . S
C5419 C5418 1.363 . S
C5419 C5425 1.363 . S
C5420 C5421 1.363 . S
C5420 C5425 1.379 . S
C5420 N5427 1.356 . S
C5421 C5420 1.363 . S
C5421 C5424 1.363 . S
N5422 C5424 1.356 . S
N5422 H5434 0.984 . S
N5422 H5435 0.985 . S
N5423 C5425 1.356 . S
N5423 H5428 0.984 . S
N5423 H5429 1.011 . S
C5424 C5418 1.379 . S
C5424 C5421 1.363 . S
C5424 N5422 1.356 . S
C5425 C5419 1.363 . S
C5425 C5420 1.379 . S
C5425 N5423 1.356 . S
N5426 C5418 1.356 . S
N5426 H5432 0.984 . S
N5426 H5433 0.984 . S
N5427 C5420 1.356 . S
N5427 H5430 0.984 . S
N5427 H5431 0.985 . S
H5428 N5423 0.984 . S
H5429 N5423 1.011 . S
H5430 N5427 0.984 . S
H5431 N5427 0.985 . S
H5432 N5426 0.984 . S
H5433 N5426 0.984 . S
H5434 N5422 0.984 . S
H5435 N5422 0.985 . S
C5436 C5437 1.363 . S
C5436 C5442 1.379 . S
C5436 N5444 1.356 . S
C5437 C5436 1.363 . S
C5437 C5443 1.363 . S
C5438 C5439 1.363 . S
C5438 C5443 1.379 . S
C5438 N5445 1.356 . S
C5439 C5438 1.363 . S
C5439 C5442 1.363 . S
N5440 C5442 1.356 . S
N5440 H5452 0.984 . S
N5440 H5453 0.985 . S
N5441 C5443 1.356 . S
N5441 H5446 0.984 . S
N5441 H5447 0.985 . S
C5442 C5436 1.379 . S
C5442 C5439 1.363 . S
C5442 N5440 1.356 . S
C5443 C5437 1.363 . S
C5443 C5438 1.379 . S
C5443 N5441 1.356 . S
N5444 C5436 1.356 . S
N5444 H5450 0.984 . S
N5444 H5451 0.984 . S
N5445 C5438 1.356 . S
N5445 H5448 0.984 . S
N5445 H5449 0.985 . S
H5446 N5441 0.984 . S
H5447 N5441 0.985 . S
H5448 N5445 0.984 . S
H5449 N5445 0.985 . S
H5450 N5444 0.984 . S
H5451 N5444 0.984 . S
H5452 N5440 0.984 . S
H5453 N5440 0.985 . S
C5454 C5455 1.363 . S
C5454 C5460 1.379 . S
C5454 N5462 1.356 . S
C5455 C5454 1.363 . S
C5455 C5461 1.363 . S
C5456 C5457 1.363 . S
C5456 C5461 1.379 . S
C5456 N5463 1.356 . S
C5457 C5456 1.363 . S
C5457 C5460 1.363 . S
N5458 C5460 1.356 . S
N5458 H5470 0.984 . S
N5458 H5471 0.985 . S
N5459 C5461 1.356 . S
N5459 H5464 0.984 . S
N5459 H5465 0.985 . S
C5460 C5454 1.379 . S
C5460 C5457 1.363 . S
C5460 N5458 1.356 . S
C5461 C5455 1.363 . S
C5461 C5456 1.379 . S
C5461 N5459 1.356 . S
N5462 C5454 1.356 . S
N5462 H5468 0.984 . S
N5462 H5469 0.984 . S
N5463 C5456 1.356 . S
N5463 H5466 0.984 . S
N5463 H5467 0.985 . S
H5464 N5459 0.984 . S
H5465 N5459 0.985 . S
H5466 N5463 0.984 . S
H5467 N5463 0.985 . S
H5468 N5462 0.984 . S
H5469 N5462 0.984 . S
H5470 N5458 0.984 . S
H5471 N5458 0.985 . S
C5472 C5473 1.363 . S
C5472 C5478 1.379 . S
C5472 N5480 1.356 . S
C5473 C5472 1.363 . S
C5473 C5479 1.363 . S
C5474 C5475 1.363 . S
C5474 C5479 1.379 . S
C5474 N5481 1.356 . S
C5475 C5474 1.363 . S
C5475 C5478 1.363 . S
N5476 C5478 1.356 . S
N5476 H5488 0.984 . S
N5476 H5489 0.985 . S
N5477 C5479 1.356 . S
N5477 H5482 0.984 . S
N5477 H5483 0.985 . S
C5478 C5472 1.379 . S
C5478 C5475 1.363 . S
C5478 N5476 1.356 . S
C5479 C5473 1.363 . S
C5479 C5474 1.379 . S
C5479 N5477 1.356 . S
N5480 C5472 1.356 . S
N5480 H5486 0.984 . S
N5480 H5487 0.984 . S
N5481 C5474 1.356 . S
N5481 H5484 0.984 . S
N5481 H5485 0.985 1_455 S
H5482 N5477 0.984 . S
H5483 N5477 0.985 . S
H5484 N5481 0.984 . S
H5485 N5481 0.985 1_655 S
H5486 N5480 0.984 . S
H5487 N5480 0.984 . S
H5488 N5476 0.984 . S
H5489 N5476 0.985 . S
C5490 C5491 1.363 . S
C5490 C5496 1.379 . S
C5490 N5498 1.356 . S
C5491 C5490 1.363 . S
C5491 C5497 1.363 . S
C5492 C5493 1.363 . S
C5492 C5497 1.379 . S
C5492 N5499 1.356 . S
C5493 C5492 1.363 . S
C5493 C5496 1.363 . S
N5494 C5496 1.356 . S
N5494 H5506 0.984 . S
N5494 H5507 0.985 . S
N5495 C5497 1.356 . S
N5495 H5500 0.984 . S
N5495 H5501 0.985 . S
C5496 C5490 1.379 . S
C5496 C5493 1.363 . S
C5496 N5494 1.356 . S
C5497 C5491 1.363 . S
C5497 C5492 1.379 . S
C5497 N5495 1.356 . S
N5498 C5490 1.356 . S
N5498 H5504 0.984 . S
N5498 H5505 0.984 . S
N5499 C5492 1.356 . S
N5499 H5502 0.984 . S
N5499 H5503 0.985 . S
H5500 N5495 0.984 . S
H5501 N5495 0.985 . S
H5502 N5499 0.984 . S
H5503 N5499 0.985 . S
H5504 N5498 0.984 . S
H5505 N5498 0.984 . S
H5506 N5494 0.984 . S
H5507 N5494 0.985 . S
C5508 C5509 1.363 . S
C5508 C5514 1.379 . S
C5508 N5516 1.356 . S
C5509 C5508 1.363 . S
C5509 C5515 1.363 . S
C5510 C5511 1.363 . S
C5510 C5515 1.379 . S
C5510 N5517 1.356 . S
C5511 C5510 1.363 . S
C5511 C5514 1.363 . S
N5512 C5514 1.356 . S
N5512 H5524 0.984 . S
N5512 H5525 0.985 . S
N5513 C5515 1.356 . S
N5513 H5518 0.984 . S
N5513 H5519 0.985 . S
C5514 C5508 1.379 . S
C5514 C5511 1.363 . S
C5514 N5512 1.356 . S
C5515 C5509 1.363 . S
C5515 C5510 1.379 . S
C5515 N5513 1.356 . S
N5516 C5508 1.356 . S
N5516 H5522 0.984 . S
N5516 H5523 0.984 . S
N5517 C5510 1.356 . S
N5517 H5520 0.984 . S
N5517 H5521 0.985 . S
H5518 N5513 0.984 . S
H5519 N5513 0.985 . S
H5520 N5517 0.984 . S
H5521 N5517 0.985 . S
H5522 N5516 0.984 . S
H5523 N5516 0.984 . S
H5524 N5512 0.984 . S
H5525 N5512 0.985 . S
C5526 C5527 1.363 . S
C5526 C5532 1.379 . S
C5526 N5534 1.356 . S
C5527 C5526 1.363 . S
C5527 C5533 1.363 . S
C5528 C5529 1.363 . S
C5528 C5533 1.379 . S
C5528 N5535 1.356 . S
C5529 C5528 1.363 . S
C5529 C5532 1.363 . S
N5530 C5532 1.356 . S
N5530 H5542 0.984 . S
N5530 H5543 0.985 . S
N5531 C5533 1.356 . S
N5531 H5536 0.984 . S
N5531 H5537 0.985 . S
C5532 C5526 1.379 . S
C5532 C5529 1.363 . S
C5532 N5530 1.356 . S
C5533 C5527 1.363 . S
C5533 C5528 1.379 . S
C5533 N5531 1.356 . S
N5534 C5526 1.356 . S
N5534 H5540 0.984 . S
N5534 H5541 0.984 . S
N5535 C5528 1.356 . S
N5535 H5538 0.984 . S
N5535 H5539 0.985 . S
H5536 N5531 0.984 . S
H5537 N5531 0.985 . S
H5538 N5535 0.984 . S
H5539 N5535 0.985 . S
H5540 N5534 0.984 . S
H5541 N5534 0.984 . S
H5542 N5530 0.984 . S
H5543 N5530 0.985 . S
C5544 C5545 1.363 . S
C5544 C5550 1.379 . S
C5544 N5552 1.356 . S
C5545 C5544 1.363 . S
C5545 C5551 1.363 . S
C5546 C5547 1.363 . S
C5546 C5551 1.379 . S
C5546 N5553 1.356 . S
C5547 C5546 1.363 . S
C5547 C5550 1.363 . S
N5548 C5550 1.356 . S
N5548 H5560 0.984 . S
N5548 H5561 0.985 . S
N5549 C5551 1.356 . S
N5549 H5554 0.984 . S
N5549 H5555 0.985 . S
C5550 C5544 1.379 . S
C5550 C5547 1.363 . S
C5550 N5548 1.356 . S
C5551 C5545 1.363 . S
C5551 C5546 1.379 . S
C5551 N5549 1.356 . S
N5552 C5544 1.356 . S
N5552 H5558 0.984 . S
N5552 H5559 0.984 . S
N5553 C5546 1.356 . S
N5553 H5556 0.984 . S
N5553 H5557 0.985 . S
H5554 N5549 0.984 . S
H5555 N5549 0.985 . S
H5556 N5553 0.984 . S
H5557 N5553 0.985 . S
H5558 N5552 0.984 . S
H5559 N5552 0.984 . S
H5560 N5548 0.984 . S
H5561 N5548 0.985 . S
C5562 C5563 1.363 . S
C5562 C5568 1.379 . S
C5562 N5570 1.356 . S
C5563 C5562 1.363 . S
C5563 C5569 1.363 . S
C5564 C5565 1.363 . S
C5564 C5569 1.379 . S
C5564 N5571 1.356 . S
C5565 C5564 1.363 . S
C5565 C5568 1.363 . S
N5566 C5568 1.356 . S
N5566 H5578 0.984 . S
N5566 H5579 0.985 . S
N5567 C5569 1.356 . S
N5567 H5572 0.984 . S
N5567 H5573 0.985 . S
C5568 C5562 1.379 . S
C5568 C5565 1.363 . S
C5568 N5566 1.356 . S
C5569 C5563 1.363 . S
C5569 C5564 1.379 . S
C5569 N5567 1.356 . S
N5570 C5562 1.356 . S
N5570 H5576 0.984 . S
N5570 H5577 0.984 . S
N5571 C5564 1.356 . S
N5571 H5574 0.984 . S
N5571 H5575 0.985 . S
H5572 N5567 0.984 . S
H5573 N5567 0.985 . S
H5574 N5571 0.984 . S
H5575 N5571 0.985 . S
H5576 N5570 0.984 . S
H5577 N5570 0.984 . S
H5578 N5566 0.984 . S
H5579 N5566 0.985 . S
C5580 C5581 1.363 . S
C5580 C5586 1.379 . S
C5580 N5588 1.356 . S
C5581 C5580 1.363 . S
C5581 C5587 1.363 . S
C5582 C5583 1.363 . S
C5582 C5587 1.379 . S
C5582 N5589 1.356 . S
C5583 C5582 1.363 . S
C5583 C5586 1.363 . S
N5584 C5586 1.356 . S
N5584 H5596 0.984 . S
N5584 H5597 0.985 . S
N5585 C5587 1.356 . S
N5585 H5590 0.984 . S
N5585 H5591 0.985 . S
C5586 C5580 1.379 . S
C5586 C5583 1.363 . S
C5586 N5584 1.356 . S
C5587 C5581 1.363 . S
C5587 C5582 1.379 . S
C5587 N5585 1.356 . S
N5588 C5580 1.356 . S
N5588 H5594 0.984 . S
N5588 H5595 0.984 . S
N5589 C5582 1.356 . S
N5589 H5592 0.984 . S
N5589 H5593 0.985 . S
H5590 N5585 0.984 . S
H5591 N5585 0.985 . S
H5592 N5589 0.984 . S
H5593 N5589 0.985 . S
H5594 N5588 0.984 . S
H5595 N5588 0.984 . S
H5596 N5584 0.984 . S
H5597 N5584 0.985 . S
C5598 C5599 1.363 . S
C5598 C5604 1.379 . S
C5598 N5606 1.356 . S
C5599 C5598 1.363 . S
C5599 C5605 1.363 . S
C5600 C5601 1.363 . S
C5600 C5605 1.379 . S
C5600 N5607 1.356 . S
C5601 C5600 1.363 . S
C5601 C5604 1.363 . S
N5602 C5604 1.356 . S
N5602 H5614 0.984 . S
N5602 H5615 0.985 . S
N5603 C5605 1.356 . S
N5603 H5608 0.984 . S
N5603 H5609 0.985 . S
C5604 C5598 1.379 . S
C5604 C5601 1.363 . S
C5604 N5602 1.356 . S
C5605 C5599 1.363 . S
C5605 C5600 1.379 . S
C5605 N5603 1.356 . S
N5606 C5598 1.356 . S
N5606 H5612 0.984 . S
N5606 H5613 0.984 . S
N5607 C5600 1.356 . S
N5607 H5610 0.984 . S
N5607 H5611 0.985 . S
H5608 N5603 0.984 . S
H5609 N5603 0.985 . S
H5610 N5607 0.984 . S
H5611 N5607 0.985 . S
H5612 N5606 0.984 . S
H5613 N5606 0.984 . S
H5614 N5602 0.984 . S
H5615 N5602 0.985 . S
C5616 C5617 1.363 . S
C5616 C5622 1.379 . S
C5616 N5624 1.356 . S
C5617 C5616 1.363 . S
C5617 C5623 1.363 . S
C5618 C5619 1.363 . S
C5618 C5623 1.379 . S
C5618 N5625 1.356 . S
C5619 C5618 1.363 . S
C5619 C5622 1.363 . S
N5620 C5622 1.356 . S
N5620 H5632 0.984 . S
N5620 H5633 0.985 . S
N5621 C5623 1.356 . S
N5621 H5626 0.984 . S
N5621 H5627 0.985 . S
C5622 C5616 1.379 . S
C5622 C5619 1.363 . S
C5622 N5620 1.356 . S
C5623 C5617 1.363 . S
C5623 C5618 1.379 . S
C5623 N5621 1.356 . S
N5624 C5616 1.356 . S
N5624 H5630 0.984 . S
N5624 H5631 0.984 . S
N5625 C5618 1.356 . S
N5625 H5628 0.984 . S
N5625 H5629 0.985 . S
H5626 N5621 0.984 . S
H5627 N5621 0.985 . S
H5628 N5625 0.984 . S
H5629 N5625 0.985 . S
H5630 N5624 0.984 . S
H5631 N5624 0.984 . S
H5632 N5620 0.984 . S
H5633 N5620 0.985 . S
C5634 C5635 1.363 . S
C5634 C5640 1.379 . S
C5634 N5642 1.356 . S
C5635 C5634 1.363 . S
C5635 C5641 1.363 . S
C5636 C5637 1.363 . S
C5636 C5641 1.379 . S
C5636 N5643 1.356 . S
C5637 C5636 1.363 . S
C5637 C5640 1.363 . S
N5638 C5640 1.356 . S
N5638 H5650 0.984 . S
N5638 H5651 0.985 . S
N5639 C5641 1.356 . S
N5639 H5644 0.984 . S
N5639 H5645 0.985 . S
C5640 C5634 1.379 . S
C5640 C5637 1.363 . S
C5640 N5638 1.356 . S
C5641 C5635 1.363 . S
C5641 C5636 1.379 . S
C5641 N5639 1.356 . S
N5642 C5634 1.356 . S
N5642 H5648 0.984 . S
N5642 H5649 0.984 . S
N5643 C5636 1.356 . S
N5643 H5646 0.984 . S
N5643 H5647 0.985 . S
H5644 N5639 0.984 . S
H5645 N5639 0.985 . S
H5646 N5643 0.984 . S
H5647 N5643 0.985 . S
H5648 N5642 0.984 . S
H5649 N5642 0.984 . S
H5650 N5638 0.984 . S
H5651 N5638 0.985 . S
C5652 C5653 1.363 . S
C5652 C5658 1.379 . S
C5652 N5660 1.356 . S
C5653 C5652 1.363 . S
C5653 C5659 1.363 . S
C5654 C5655 1.363 . S
C5654 C5659 1.379 . S
C5654 N5661 1.356 . S
C5655 C5654 1.363 . S
C5655 C5658 1.363 . S
N5656 C5658 1.356 . S
N5656 H5668 0.984 . S
N5656 H5669 0.985 . S
N5657 C5659 1.356 . S
N5657 H5662 0.984 . S
N5657 H5663 0.985 . S
C5658 C5652 1.379 . S
C5658 C5655 1.363 . S
C5658 N5656 1.356 . S
C5659 C5653 1.363 . S
C5659 C5654 1.379 . S
C5659 N5657 1.356 . S
N5660 C5652 1.356 . S
N5660 H5666 0.984 . S
N5660 H5667 0.984 . S
N5661 C5654 1.356 . S
N5661 H5664 0.984 . S
N5661 H5665 0.985 . S
H5662 N5657 0.984 . S
H5663 N5657 0.985 . S
H5664 N5661 0.984 . S
H5665 N5661 0.985 . S
H5666 N5660 0.984 . S
H5667 N5660 0.984 . S
H5668 N5656 0.984 . S
H5669 N5656 0.985 . S
C5670 C5671 1.363 . S
C5670 C5676 1.379 . S
C5670 N5678 1.356 . S
C5671 C5670 1.363 . S
C5671 C5677 1.363 . S
C5672 C5673 1.363 . S
C5672 C5677 1.379 . S
C5672 N5679 1.356 . S
C5673 C5672 1.363 . S
C5673 C5676 1.363 . S
N5674 C5676 1.356 . S
N5674 H5686 0.984 . S
N5674 H5687 0.985 . S
N5675 C5677 1.356 . S
N5675 H5680 0.984 . S
N5675 H5681 0.985 . S
C5676 C5670 1.379 . S
C5676 C5673 1.363 . S
C5676 N5674 1.356 . S
C5677 C5671 1.363 . S
C5677 C5672 1.379 . S
C5677 N5675 1.356 . S
N5678 C5670 1.356 . S
N5678 H5684 0.984 . S
N5678 H5685 0.984 . S
N5679 C5672 1.356 . S
N5679 H5682 0.984 . S
N5679 H5683 0.985 . S
H5680 N5675 0.984 . S
H5681 N5675 0.985 . S
H5682 N5679 0.984 . S
H5683 N5679 0.985 . S
H5684 N5678 0.984 . S
H5685 N5678 0.984 . S
H5686 N5674 0.984 . S
H5687 N5674 0.985 . S
C5688 C5689 1.363 . S
C5688 C5694 1.379 . S
C5688 N5696 1.356 . S
C5689 C5688 1.363 . S
C5689 C5695 1.363 . S
C5690 C5691 1.363 . S
C5690 C5695 1.379 . S
C5690 N5697 1.356 . S
C5691 C5690 1.363 . S
C5691 C5694 1.363 . S
N5692 C5694 1.356 . S
N5692 H5704 0.984 . S
N5692 H5705 0.985 . S
N5693 C5695 1.356 . S
N5693 H5698 0.984 . S
N5693 H5699 0.985 . S
C5694 C5688 1.379 . S
C5694 C5691 1.363 . S
C5694 N5692 1.356 . S
C5695 C5689 1.363 . S
C5695 C5690 1.379 . S
C5695 N5693 1.356 . S
N5696 C5688 1.356 . S
N5696 H5702 0.984 . S
N5696 H5703 0.984 . S
N5697 C5690 1.356 . S
N5697 H5700 0.984 . S
N5697 H5701 0.985 . S
H5698 N5693 0.984 . S
H5699 N5693 0.985 . S
H5700 N5697 0.984 . S
H5701 N5697 0.985 . S
H5702 N5696 0.984 . S
H5703 N5696 0.984 . S
H5704 N5692 0.984 . S
H5705 N5692 0.985 . S
C5706 C5707 1.363 . S
C5706 C5712 1.379 . S
C5706 N5714 1.356 . S
C5707 C5706 1.363 . S
C5707 C5713 1.363 . S
C5708 C5709 1.363 . S
C5708 C5713 1.379 . S
C5708 N5715 1.356 . S
C5709 C5708 1.363 . S
C5709 C5712 1.363 . S
N5710 C5712 1.356 . S
N5710 H5722 0.984 . S
N5710 H5723 0.985 . S
N5711 C5713 1.356 . S
N5711 H5716 0.984 . S
N5711 H5717 0.985 . S
C5712 C5706 1.379 . S
C5712 C5709 1.363 . S
C5712 N5710 1.356 . S
C5713 C5707 1.363 . S
C5713 C5708 1.379 . S
C5713 N5711 1.356 . S
N5714 C5706 1.356 . S
N5714 H5720 0.984 . S
N5714 H5721 0.984 . S
N5715 C5708 1.356 . S
N5715 H5718 0.984 . S
N5715 H5719 0.985 . S
H5716 N5711 0.984 . S
H5717 N5711 0.985 . S
H5718 N5715 0.984 . S
H5719 N5715 0.985 . S
H5720 N5714 0.984 . S
H5721 N5714 0.984 . S
H5722 N5710 0.984 . S
H5723 N5710 0.985 . S
C5724 C5725 1.363 . S
C5724 C5730 1.379 . S
C5724 N5732 1.356 . S
C5725 C5724 1.363 . S
C5725 C5731 1.363 . S
C5726 C5727 1.363 . S
C5726 C5731 1.379 . S
C5726 N5733 1.356 . S
C5727 C5726 1.363 . S
C5727 C5730 1.363 . S
N5728 C5730 1.356 . S
N5728 H5740 0.984 . S
N5728 H5741 0.985 . S
N5729 C5731 1.356 . S
N5729 H5734 0.984 . S
N5729 H5735 0.985 . S
C5730 C5724 1.379 . S
C5730 C5727 1.363 . S
C5730 N5728 1.356 . S
C5731 C5725 1.363 . S
C5731 C5726 1.379 . S
C5731 N5729 1.356 . S
N5732 C5724 1.356 . S
N5732 H5738 0.984 . S
N5732 H5739 0.984 . S
N5733 C5726 1.356 . S
N5733 H5736 0.984 . S
N5733 H5737 0.985 . S
H5734 N5729 0.984 . S
H5735 N5729 0.985 . S
H5736 N5733 0.984 . S
H5737 N5733 0.985 . S
H5738 N5732 0.984 . S
H5739 N5732 0.984 . S
H5740 N5728 0.984 . S
H5741 N5728 0.985 . S
C5742 C5743 1.363 . S
C5742 C5748 1.379 . S
C5742 N5750 1.356 . S
C5743 C5742 1.363 . S
C5743 C5749 1.363 . S
C5744 C5745 1.363 . S
C5744 C5749 1.379 . S
C5744 N5751 1.356 . S
C5745 C5744 1.363 . S
C5745 C5748 1.363 . S
N5746 C5748 1.356 . S
N5746 H5758 0.984 . S
N5746 H5759 0.985 . S
N5747 C5749 1.356 . S
N5747 H5752 0.984 . S
N5747 H5753 0.985 . S
C5748 C5742 1.379 . S
C5748 C5745 1.363 . S
C5748 N5746 1.356 . S
C5749 C5743 1.363 . S
C5749 C5744 1.379 . S
C5749 N5747 1.356 . S
N5750 C5742 1.356 . S
N5750 H5756 0.984 . S
N5750 H5757 0.984 . S
N5751 C5744 1.356 . S
N5751 H5754 0.984 . S
N5751 H5755 0.985 . S
H5752 N5747 0.984 . S
H5753 N5747 0.985 . S
H5754 N5751 0.984 . S
H5755 N5751 0.985 . S
H5756 N5750 0.984 . S
H5757 N5750 0.984 . S
H5758 N5746 0.984 . S
H5759 N5746 0.985 . S
C5760 C5761 1.363 . S
C5760 C5766 1.379 . S
C5760 N5768 1.356 . S
C5761 C5760 1.363 . S
C5761 C5767 1.363 . S
C5762 C5763 1.363 . S
C5762 C5767 1.379 . S
C5762 N5769 1.356 . S
C5763 C5762 1.363 . S
C5763 C5766 1.363 . S
N5764 C5766 1.356 . S
N5764 H5776 0.984 . S
N5764 H5777 0.985 . S
N5765 C5767 1.356 . S
N5765 H5770 0.984 . S
N5765 H5771 0.985 . S
C5766 C5760 1.379 . S
C5766 C5763 1.363 . S
C5766 N5764 1.356 . S
C5767 C5761 1.363 . S
C5767 C5762 1.379 . S
C5767 N5765 1.356 . S
N5768 C5760 1.356 . S
N5768 H5774 0.984 . S
N5768 H5775 0.984 . S
N5769 C5762 1.356 . S
N5769 H5772 0.984 . S
N5769 H5773 0.985 . S
H5770 N5765 0.984 . S
H5771 N5765 0.985 . S
H5772 N5769 0.984 . S
H5773 N5769 0.985 . S
H5774 N5768 0.984 . S
H5775 N5768 0.984 . S
H5776 N5764 0.984 . S
H5777 N5764 0.985 . S
C5778 C5779 1.363 . S
C5778 C5784 1.379 . S
C5778 N5786 1.356 . S
C5779 C5778 1.363 . S
C5779 C5785 1.363 . S
C5780 C5781 1.363 . S
C5780 C5785 1.379 . S
C5780 N5787 1.356 . S
C5781 C5780 1.363 . S
C5781 C5784 1.363 . S
N5782 C5784 1.356 . S
N5782 H5794 0.984 . S
N5782 H5795 0.985 . S
N5783 C5785 1.356 . S
N5783 H5788 0.984 . S
N5783 H5789 0.985 1_455 S
C5784 C5778 1.379 . S
C5784 C5781 1.363 . S
C5784 N5782 1.356 . S
C5785 C5779 1.363 . S
C5785 C5780 1.379 . S
C5785 N5783 1.356 . S
N5786 C5778 1.356 . S
N5786 H5792 0.984 . S
N5786 H5793 0.984 . S
N5787 C5780 1.356 . S
N5787 H5790 0.984 . S
N5787 H5791 0.985 . S
H5788 N5783 0.984 . S
H5789 N5783 0.985 1_655 S
H5790 N5787 0.984 . S
H5791 N5787 0.985 . S
H5792 N5786 0.984 . S
H5793 N5786 0.984 . S
H5794 N5782 0.984 . S
H5795 N5782 0.985 . S
C5796 C5797 1.363 . S
C5796 C5802 1.379 . S
C5796 N5804 1.356 . S
C5797 C5796 1.363 . S
C5797 C5803 1.363 . S
C5798 C5799 1.363 . S
C5798 C5803 1.379 . S
C5798 N5805 1.356 . S
C5799 C5798 1.363 . S
C5799 C5802 1.363 . S
N5800 C5802 1.356 . S
N5800 H5812 0.984 . S
N5800 H5813 0.985 . S
N5801 C5803 1.356 . S
N5801 H5806 0.984 . S
N5801 H5807 0.985 . S
C5802 C5796 1.379 . S
C5802 C5799 1.363 . S
C5802 N5800 1.356 . S
C5803 C5797 1.363 . S
C5803 C5798 1.379 . S
C5803 N5801 1.356 . S
N5804 C5796 1.356 . S
N5804 H5810 0.984 . S
N5804 H5811 0.984 . S
N5805 C5798 1.356 . S
N5805 H5808 0.984 . S
N5805 H5809 0.985 . S
H5806 N5801 0.984 . S
H5807 N5801 0.985 . S
H5808 N5805 0.984 . S
H5809 N5805 0.985 . S
H5810 N5804 0.984 . S
H5811 N5804 0.984 . S
H5812 N5800 0.984 . S
H5813 N5800 0.985 . S
C5814 C5815 1.363 . S
C5814 C5820 1.379 . S
C5814 N5822 1.356 . S
C5815 C5814 1.363 . S
C5815 C5821 1.363 . S
C5816 C5817 1.363 . S
C5816 C5821 1.379 . S
C5816 N5823 1.356 . S
C5817 C5816 1.363 . S
C5817 C5820 1.363 . S
N5818 C5820 1.356 . S
N5818 H5830 0.984 . S
N5818 H5831 0.985 . S
N5819 C5821 1.356 . S
N5819 H5824 0.984 . S
N5819 H5825 0.985 . S
C5820 C5814 1.379 . S
C5820 C5817 1.363 . S
C5820 N5818 1.356 . S
C5821 C5815 1.363 . S
C5821 C5816 1.379 . S
C5821 N5819 1.356 . S
N5822 C5814 1.356 . S
N5822 H5828 0.984 . S
N5822 H5829 0.984 . S
N5823 C5816 1.356 . S
N5823 H5826 0.984 . S
N5823 H5827 0.985 . S
H5824 N5819 0.984 . S
H5825 N5819 0.985 . S
H5826 N5823 0.984 . S
H5827 N5823 0.985 . S
H5828 N5822 0.984 . S
H5829 N5822 0.984 . S
H5830 N5818 0.984 . S
H5831 N5818 0.985 . S
C5832 C5833 1.363 . S
C5832 C5838 1.379 . S
C5832 N5840 1.356 . S
C5833 C5832 1.363 . S
C5833 C5839 1.363 . S
C5834 C5835 1.363 . S
C5834 C5839 1.379 . S
C5834 N5841 1.356 . S
C5835 C5834 1.363 . S
C5835 C5838 1.363 . S
N5836 C5838 1.356 . S
N5836 H5848 0.984 . S
N5836 H5849 0.985 . S
N5837 C5839 1.356 . S
N5837 H5842 0.984 . S
N5837 H5843 0.985 . S
C5838 C5832 1.379 . S
C5838 C5835 1.363 . S
C5838 N5836 1.356 . S
C5839 C5833 1.363 . S
C5839 C5834 1.379 . S
C5839 N5837 1.356 . S
N5840 C5832 1.356 . S
N5840 H5846 0.984 . S
N5840 H5847 0.984 . S
N5841 C5834 1.356 . S
N5841 H5844 0.984 . S
N5841 H5845 0.985 . S
H5842 N5837 0.984 . S
H5843 N5837 0.985 . S
H5844 N5841 0.984 . S
H5845 N5841 0.985 . S
H5846 N5840 0.984 . S
H5847 N5840 0.984 . S
H5848 N5836 0.984 . S
H5849 N5836 0.985 . S
C5850 C5851 1.363 . S
C5850 C5856 1.379 . S
C5850 N5858 1.356 . S
C5851 C5850 1.363 . S
C5851 C5857 1.363 . S
C5852 C5853 1.363 . S
C5852 C5857 1.379 . S
C5852 N5859 1.356 . S
C5853 C5852 1.363 . S
C5853 C5856 1.363 . S
N5854 C5856 1.356 . S
N5854 H5866 0.984 . S
N5854 H5867 0.985 . S
N5855 C5857 1.356 . S
N5855 H5860 0.984 . S
N5855 H5861 0.985 . S
C5856 C5850 1.379 . S
C5856 C5853 1.363 . S
C5856 N5854 1.356 . S
C5857 C5851 1.363 . S
C5857 C5852 1.379 . S
C5857 N5855 1.356 . S
N5858 C5850 1.356 . S
N5858 H5864 0.984 . S
N5858 H5865 0.984 . S
N5859 C5852 1.356 . S
N5859 H5862 0.984 . S
N5859 H5863 0.985 . S
H5860 N5855 0.984 . S
H5861 N5855 0.985 . S
H5862 N5859 0.984 . S
H5863 N5859 0.985 . S
H5864 N5858 0.984 . S
H5865 N5858 0.984 . S
H5866 N5854 0.984 . S
H5867 N5854 0.985 . S
C5868 C5869 1.363 . S
C5868 C5874 1.379 . S
C5868 N5876 1.356 . S
C5869 C5868 1.363 . S
C5869 C5875 1.363 . S
C5870 C5871 1.363 . S
C5870 C5875 1.379 . S
C5870 N5877 1.356 . S
C5871 C5870 1.363 . S
C5871 C5874 1.363 . S
N5872 C5874 1.356 . S
N5872 H5884 0.984 . S
N5872 H5885 0.985 . S
N5873 C5875 1.356 . S
N5873 H5878 0.984 . S
N5873 H5879 0.985 . S
C5874 C5868 1.379 . S
C5874 C5871 1.363 . S
C5874 N5872 1.356 . S
C5875 C5869 1.363 . S
C5875 C5870 1.379 . S
C5875 N5873 1.356 . S
N5876 C5868 1.356 . S
N5876 H5882 0.984 . S
N5876 H5883 0.984 . S
N5877 C5870 1.356 . S
N5877 H5880 0.984 . S
N5877 H5881 0.985 . S
H5878 N5873 0.984 . S
H5879 N5873 0.985 . S
H5880 N5877 0.984 . S
H5881 N5877 0.985 . S
H5882 N5876 0.984 . S
H5883 N5876 0.984 . S
H5884 N5872 0.984 . S
H5885 N5872 0.985 . S
C5886 C5887 1.363 . S
C5886 C5892 1.379 . S
C5886 N5894 1.356 . S
C5887 C5886 1.363 . S
C5887 C5893 1.363 . S
C5888 C5889 1.363 . S
C5888 C5893 1.379 . S
C5888 N5895 1.356 . S
C5889 C5888 1.363 . S
C5889 C5892 1.363 . S
N5890 C5892 1.356 . S
N5890 H5902 0.984 . S
N5890 H5903 0.985 . S
N5891 C5893 1.356 . S
N5891 H5896 0.984 . S
N5891 H5897 0.985 . S
C5892 C5886 1.379 . S
C5892 C5889 1.363 . S
C5892 N5890 1.356 . S
C5893 C5887 1.363 . S
C5893 C5888 1.379 . S
C5893 N5891 1.356 . S
N5894 C5886 1.356 . S
N5894 H5900 0.984 . S
N5894 H5901 0.984 . S
N5895 C5888 1.356 . S
N5895 H5898 0.984 . S
N5895 H5899 0.985 . S
H5896 N5891 0.984 . S
H5897 N5891 0.985 . S
H5898 N5895 0.984 . S
H5899 N5895 0.985 . S
H5900 N5894 0.984 . S
H5901 N5894 0.984 . S
H5902 N5890 0.984 . S
H5903 N5890 0.985 . S
C5904 C5905 1.363 . S
C5904 C5910 1.379 . S
C5904 N5912 1.356 . S
C5905 C5904 1.363 . S
C5905 C5911 1.363 . S
C5906 C5907 1.363 . S
C5906 C5911 1.379 . S
C5906 N5913 1.356 . S
C5907 C5906 1.363 . S
C5907 C5910 1.363 . S
N5908 C5910 1.356 . S
N5908 H5920 0.984 . S
N5908 H5921 0.985 . S
N5909 C5911 1.356 . S
N5909 H5914 0.984 . S
N5909 H5915 0.985 . S
C5910 C5904 1.379 . S
C5910 C5907 1.363 . S
C5910 N5908 1.356 . S
C5911 C5905 1.363 . S
C5911 C5906 1.379 . S
C5911 N5909 1.356 . S
N5912 C5904 1.356 . S
N5912 H5918 0.984 . S
N5912 H5919 0.984 . S
N5913 C5906 1.356 . S
N5913 H5916 0.984 . S
N5913 H5917 0.985 . S
H5914 N5909 0.984 . S
H5915 N5909 0.985 . S
H5916 N5913 0.984 . S
H5917 N5913 0.985 . S
H5918 N5912 0.984 . S
H5919 N5912 0.984 . S
H5920 N5908 0.984 . S
H5921 N5908 0.985 . S
C5922 C5923 1.363 . S
C5922 C5928 1.379 . S
C5922 N5930 1.356 . S
C5923 C5922 1.363 . S
C5923 C5929 1.363 . S
C5924 C5925 1.363 . S
C5924 C5929 1.379 . S
C5924 N5931 1.356 . S
C5925 C5924 1.363 . S
C5925 C5928 1.363 . S
N5926 C5928 1.356 . S
N5926 H5938 0.984 . S
N5926 H5939 0.985 . S
N5927 C5929 1.356 . S
N5927 H5932 0.984 . S
N5927 H5933 0.985 . S
C5928 C5922 1.379 . S
C5928 C5925 1.363 . S
C5928 N5926 1.356 . S
C5929 C5923 1.363 . S
C5929 C5924 1.379 . S
C5929 N5927 1.356 . S
N5930 C5922 1.356 . S
N5930 H5936 0.984 . S
N5930 H5937 0.984 . S
N5931 C5924 1.356 . S
N5931 H5934 0.984 . S
N5931 H5935 0.985 . S
H5932 N5927 0.984 . S
H5933 N5927 0.985 . S
H5934 N5931 0.984 . S
H5935 N5931 0.985 . S
H5936 N5930 0.984 . S
H5937 N5930 0.984 . S
H5938 N5926 0.984 . S
H5939 N5926 0.985 . S
C5940 C5941 1.363 . S
C5940 C5946 1.379 . S
C5940 N5948 1.356 . S
C5941 C5940 1.363 . S
C5941 C5947 1.363 . S
C5942 C5943 1.363 . S
C5942 C5947 1.379 . S
C5942 N5949 1.356 . S
C5943 C5942 1.363 . S
C5943 C5946 1.363 . S
N5944 C5946 1.356 . S
N5944 H5956 0.984 . S
N5944 H5957 0.985 . S
N5945 C5947 1.356 . S
N5945 H5950 0.984 . S
N5945 H5951 0.985 . S
C5946 C5940 1.379 . S
C5946 C5943 1.363 . S
C5946 N5944 1.356 . S
C5947 C5941 1.363 . S
C5947 C5942 1.379 . S
C5947 N5945 1.356 . S
N5948 C5940 1.356 . S
N5948 H5954 0.984 . S
N5948 H5955 0.984 . S
N5949 C5942 1.356 . S
N5949 H5952 0.984 . S
N5949 H5953 0.985 . S
H5950 N5945 0.984 . S
H5951 N5945 0.985 . S
H5952 N5949 0.984 . S
H5953 N5949 0.985 . S
H5954 N5948 0.984 . S
H5955 N5948 0.984 . S
H5956 N5944 0.984 . S
H5957 N5944 0.985 . S
C5958 C5959 1.363 . S
C5958 C5964 1.379 . S
C5958 N5966 1.356 . S
C5959 C5958 1.363 . S
C5959 C5965 1.363 . S
C5960 C5961 1.363 . S
C5960 C5965 1.379 . S
C5960 N5967 1.356 . S
C5961 C5960 1.363 . S
C5961 C5964 1.363 . S
N5962 C5964 1.356 . S
N5962 H5974 0.984 1_655 S
N5962 H5975 0.985 . S
N5963 C5965 1.356 . S
N5963 H5968 0.984 . S
N5963 H5969 0.985 . S
C5964 C5958 1.379 . S
C5964 C5961 1.363 . S
C5964 N5962 1.356 . S
C5965 C5959 1.363 . S
C5965 C5960 1.379 . S
C5965 N5963 1.356 . S
N5966 C5958 1.356 . S
N5966 H5972 0.984 . S
N5966 H5973 0.984 . S
N5967 C5960 1.356 . S
N5967 H5970 0.984 . S
N5967 H5971 0.985 . S
H5968 N5963 0.984 . S
H5969 N5963 0.985 . S
H5970 N5967 0.984 . S
H5971 N5967 0.985 . S
H5972 N5966 0.984 . S
H5973 N5966 0.984 . S
H5974 N5962 0.984 1_455 S
H5975 N5962 0.985 . S
C5976 C5977 1.363 . S
C5976 C5982 1.379 . S
C5976 N5984 1.356 . S
C5977 C5976 1.363 . S
C5977 C5983 1.363 . S
C5978 C5979 1.363 . S
C5978 C5983 1.379 . S
C5978 N5985 1.356 . S
C5979 C5978 1.363 . S
C5979 C5982 1.363 . S
N5980 C5982 1.356 . S
N5980 H5992 0.984 . S
N5980 H5993 0.985 . S
N5981 C5983 1.356 . S
N5981 H5986 0.984 . S
N5981 H5987 0.985 . S
C5982 C5976 1.379 . S
C5982 C5979 1.363 . S
C5982 N5980 1.356 . S
C5983 C5977 1.363 . S
C5983 C5978 1.379 . S
C5983 N5981 1.356 . S
N5984 C5976 1.356 . S
N5984 H5990 0.984 . S
N5984 H5991 0.984 . S
N5985 C5978 1.356 . S
N5985 H5988 0.984 . S
N5985 H5989 0.985 . S
H5986 N5981 0.984 . S
H5987 N5981 0.985 . S
H5988 N5985 0.984 . S
H5989 N5985 0.985 . S
H5990 N5984 0.984 . S
H5991 N5984 0.984 . S
H5992 N5980 0.984 . S
H5993 N5980 0.985 . S
C5994 C5995 1.363 . S
C5994 C6000 1.379 . S
C5994 N6002 1.356 . S
C5995 C5994 1.363 . S
C5995 C6001 1.363 . S
C5996 C5997 1.363 . S
C5996 C6001 1.379 . S
C5996 N6003 1.356 . S
C5997 C5996 1.363 . S
C5997 C6000 1.363 . S
N5998 C6000 1.356 . S
N5998 H6010 0.984 . S
N5998 H6011 0.985 . S
N5999 C6001 1.356 . S
N5999 H6004 0.984 . S
N5999 H6005 0.985 . S
C6000 C5994 1.379 . S
C6000 C5997 1.363 . S
C6000 N5998 1.356 . S
C6001 C5995 1.363 . S
C6001 C5996 1.379 . S
C6001 N5999 1.356 . S
N6002 C5994 1.356 . S
N6002 H6008 0.984 . S
N6002 H6009 0.984 . S
N6003 C5996 1.356 . S
N6003 H6006 0.984 . S
N6003 H6007 0.985 1_554 S
H6004 N5999 0.984 . S
H6005 N5999 0.985 . S
H6006 N6003 0.984 . S
H6007 N6003 0.985 1_556 S
H6008 N6002 0.984 . S
H6009 N6002 0.984 . S
H6010 N5998 0.984 . S
H6011 N5998 0.985 . S
C6012 C6013 1.363 . S
C6012 C6018 1.379 . S
C6012 N6020 1.356 . S
C6013 C6012 1.363 . S
C6013 C6019 1.363 . S
C6014 C6015 1.363 . S
C6014 C6019 1.379 . S
C6014 N6021 1.356 . S
C6015 C6014 1.363 . S
C6015 C6018 1.363 . S
N6016 C6018 1.356 . S
N6016 H6028 0.984 . S
N6016 H6029 0.985 . S
N6017 C6019 1.356 . S
N6017 H6022 0.984 . S
N6017 H6023 0.985 . S
C6018 C6012 1.379 . S
C6018 C6015 1.363 . S
C6018 N6016 1.356 . S
C6019 C6013 1.363 . S
C6019 C6014 1.379 . S
C6019 N6017 1.356 . S
N6020 C6012 1.356 . S
N6020 H6026 0.984 . S
N6020 H6027 0.984 . S
N6021 C6014 1.356 . S
N6021 H6024 0.984 . S
N6021 H6025 0.985 . S
H6022 N6017 0.984 . S
H6023 N6017 0.985 . S
H6024 N6021 0.984 . S
H6025 N6021 0.985 . S
H6026 N6020 0.984 . S
H6027 N6020 0.984 . S
H6028 N6016 0.984 . S
H6029 N6016 0.985 . S
C6030 C6031 1.363 . S
C6030 C6036 1.379 . S
C6030 N6038 1.356 . S
C6031 C6030 1.363 . S
C6031 C6037 1.363 . S
C6032 C6033 1.363 . S
C6032 C6037 1.379 . S
C6032 N6039 1.356 . S
C6033 C6032 1.363 . S
C6033 C6036 1.363 . S
N6034 C6036 1.356 . S
N6034 H6046 0.984 . S
N6034 H6047 0.985 . S
N6035 C6037 1.356 . S
N6035 H6040 0.984 . S
N6035 H6041 0.985 . S
C6036 C6030 1.379 . S
C6036 C6033 1.363 . S
C6036 N6034 1.356 . S
C6037 C6031 1.363 . S
C6037 C6032 1.379 . S
C6037 N6035 1.356 . S
N6038 C6030 1.356 . S
N6038 H6044 0.984 . S
N6038 H6045 0.984 . S
N6039 C6032 1.356 . S
N6039 H6042 0.984 . S
N6039 H6043 0.985 . S
H6040 N6035 0.984 . S
H6041 N6035 0.985 . S
H6042 N6039 0.984 . S
H6043 N6039 0.985 . S
H6044 N6038 0.984 . S
H6045 N6038 0.984 . S
H6046 N6034 0.984 . S
H6047 N6034 0.985 . S
C6048 C6049 1.363 . S
C6048 C6054 1.379 1_655 S
C6048 N6056 1.356 . S
C6049 C6048 1.363 . S
C6049 C6055 1.363 . S
C6050 C6051 1.363 . S
C6050 C6055 1.379 1_455 S
C6050 N6057 1.356 . S
C6051 C6050 1.363 . S
C6051 C6054 1.363 . S
N6052 C6054 1.356 . S
N6052 H6064 0.984 . S
N6052 H6065 0.985 . S
N6053 C6055 1.356 . S
N6053 H6058 0.984 . S
N6053 H6059 0.985 . S
C6054 C6048 1.379 1_455 S
C6054 C6051 1.363 . S
C6054 N6052 1.356 . S
C6055 C6049 1.363 . S
C6055 C6050 1.379 1_655 S
C6055 N6053 1.356 . S
N6056 C6048 1.356 . S
N6056 H6062 0.984 . S
N6056 H6063 0.984 . S
N6057 C6050 1.356 . S
N6057 H6060 0.984 . S
N6057 H6061 0.985 . S
H6058 N6053 0.984 . S
H6059 N6053 0.985 . S
H6060 N6057 0.984 . S
H6061 N6057 0.985 . S
H6062 N6056 0.984 . S
H6063 N6056 0.984 . S
H6064 N6052 0.984 . S
H6065 N6052 0.985 . S
C6066 C6067 1.363 . S
C6066 C6072 1.379 . S
C6066 N6074 1.356 . S
C6067 C6066 1.363 . S
C6067 C6073 1.363 . S
C6068 C6069 1.363 . S
C6068 C6073 1.379 . S
C6068 N6075 1.356 . S
C6069 C6068 1.363 . S
C6069 C6072 1.363 . S
N6070 C6072 1.356 . S
N6070 H6082 0.984 . S
N6070 H6083 0.985 . S
N6071 C6073 1.356 . S
N6071 H6076 0.984 . S
N6071 H6077 0.985 . S
C6072 C6066 1.379 . S
C6072 C6069 1.363 . S
C6072 N6070 1.356 . S
C6073 C6067 1.363 . S
C6073 C6068 1.379 . S
C6073 N6071 1.356 . S
N6074 C6066 1.356 . S
N6074 H6080 0.984 . S
N6074 H6081 0.984 . S
N6075 C6068 1.356 . S
N6075 H6078 0.984 . S
N6075 H6079 0.985 . S
H6076 N6071 0.984 . S
H6077 N6071 0.985 . S
H6078 N6075 0.984 . S
H6079 N6075 0.985 . S
H6080 N6074 0.984 . S
H6081 N6074 0.984 . S
H6082 N6070 0.984 . S
H6083 N6070 0.985 . S
C6084 C6085 1.363 . S
C6084 C6090 1.379 1_655 S
C6084 N6092 1.356 . S
C6085 C6084 1.363 . S
C6085 C6091 1.363 1_545 S
C6086 C6087 1.363 . S
C6086 C6091 1.379 1_455 S
C6086 N6093 1.356 . S
C6087 C6086 1.363 . S
C6087 C6090 1.363 1_565 S
N6088 C6090 1.356 . S
N6088 H6100 0.984 . S
N6088 H6101 0.985 . S
N6089 C6091 1.356 . S
N6089 H6094 0.984 . S
N6089 H6095 0.985 . S
C6090 C6084 1.379 1_455 S
C6090 C6087 1.363 1_545 S
C6090 N6088 1.356 . S
C6091 C6085 1.363 1_565 S
C6091 C6086 1.379 1_655 S
C6091 N6089 1.356 . S
N6092 C6084 1.356 . S
N6092 H6098 0.984 . S
N6092 H6099 0.984 . S
N6093 C6086 1.356 . S
N6093 H6096 0.984 . S
N6093 H6097 0.985 . S
H6094 N6089 0.984 . S
H6095 N6089 0.985 . S
H6096 N6093 0.984 . S
H6097 N6093 0.985 . S
H6098 N6092 0.984 . S
H6099 N6092 0.984 . S
H6100 N6088 0.984 . S
H6101 N6088 0.985 . S
C6102 C6103 1.363 . S
C6102 C6108 1.379 . S
C6102 N6110 1.356 . S
C6103 C6102 1.363 . S
C6103 C6109 1.363 . S
C6104 C6105 1.363 . S
C6104 C6109 1.379 . S
C6104 N6111 1.356 . S
C6105 C6104 1.363 . S
C6105 C6108 1.363 . S
N6106 C6108 1.356 . S
N6106 H6118 0.984 . S
N6106 H6119 0.985 . S
N6107 C6109 1.356 . S
N6107 H6112 0.984 . S
N6107 H6113 0.985 . S
C6108 C6102 1.379 . S
C6108 C6105 1.363 . S
C6108 N6106 1.356 . S
C6109 C6103 1.363 . S
C6109 C6104 1.379 . S
C6109 N6107 1.356 . S
N6110 C6102 1.356 . S
N6110 H6116 0.984 . S
N6110 H6117 0.984 . S
N6111 C6104 1.356 . S
N6111 H6114 0.984 . S
N6111 H6115 0.985 . S
H6112 N6107 0.984 . S
H6113 N6107 0.985 . S
H6114 N6111 0.984 . S
H6115 N6111 0.985 . S
H6116 N6110 0.984 . S
H6117 N6110 0.984 . S
H6118 N6106 0.984 . S
H6119 N6106 0.985 . S
C6120 C6121 1.363 . S
C6120 C6126 1.379 1_455 S
C6120 N6128 1.356 . S
C6121 C6120 1.363 . S
C6121 C6127 1.363 . S
C6122 C6123 1.363 . S
C6122 C6127 1.379 1_655 S
C6122 N6129 1.356 . S
C6123 C6122 1.363 . S
C6123 C6126 1.363 . S
N6124 C6126 1.356 . S
N6124 H6136 0.984 . S
N6124 H6137 0.985 . S
N6125 C6127 1.356 . S
N6125 H6130 0.984 . S
N6125 H6131 0.985 . S
C6126 C6120 1.379 1_655 S
C6126 C6123 1.363 . S
C6126 N6124 1.356 . S
C6127 C6121 1.363 . S
C6127 C6122 1.379 1_455 S
C6127 N6125 1.356 . S
N6128 C6120 1.356 . S
N6128 H6134 0.984 . S
N6128 H6135 0.984 . S
N6129 C6122 1.356 . S
N6129 H6132 0.984 . S
N6129 H6133 0.985 . S
H6130 N6125 0.984 . S
H6131 N6125 0.985 . S
H6132 N6129 0.984 . S
H6133 N6129 0.985 . S
H6134 N6128 0.984 . S
H6135 N6128 0.984 . S
H6136 N6124 0.984 . S
H6137 N6124 0.985 . S
C6138 C6139 1.363 . S
C6138 C6144 1.379 . S
C6138 N6146 1.356 . S
C6139 C6138 1.363 . S
C6139 C6145 1.363 . S
C6140 C6141 1.363 . S
C6140 C6145 1.379 . S
C6140 N6147 1.356 . S
C6141 C6140 1.363 . S
C6141 C6144 1.363 . S
N6142 C6144 1.356 . S
N6142 H6154 0.984 . S
N6142 H6155 0.985 . S
N6143 C6145 1.356 . S
N6143 H6148 0.984 . S
N6143 H6149 0.985 . S
C6144 C6138 1.379 . S
C6144 C6141 1.363 . S
C6144 N6142 1.356 . S
C6145 C6139 1.363 . S
C6145 C6140 1.379 . S
C6145 N6143 1.356 . S
N6146 C6138 1.356 . S
N6146 H6152 0.984 . S
N6146 H6153 0.984 . S
N6147 C6140 1.356 . S
N6147 H6150 0.984 . S
N6147 H6151 0.985 . S
H6148 N6143 0.984 . S
H6149 N6143 0.985 . S
H6150 N6147 0.984 . S
H6151 N6147 0.985 . S
H6152 N6146 0.984 . S
H6153 N6146 0.984 . S
H6154 N6142 0.984 . S
H6155 N6142 0.985 . S
C6156 C6157 1.363 . S
C6156 C6162 1.379 1_655 S
C6156 N6164 1.356 . S
C6157 C6156 1.363 . S
C6157 C6163 1.363 1_565 S
C6158 C6159 1.363 . S
C6158 C6163 1.379 1_455 S
C6158 N6165 1.356 . S
C6159 C6158 1.363 . S
C6159 C6162 1.363 1_545 S
N6160 C6162 1.356 . S
N6160 H6172 0.984 . S
N6160 H6173 0.985 . S
N6161 C6163 1.356 . S
N6161 H6166 0.984 . S
N6161 H6167 0.985 . S
C6162 C6156 1.379 1_455 S
C6162 C6159 1.363 1_565 S
C6162 N6160 1.356 . S
C6163 C6157 1.363 1_545 S
C6163 C6158 1.379 1_655 S
C6163 N6161 1.356 . S
N6164 C6156 1.356 . S
N6164 H6170 0.984 . S
N6164 H6171 0.984 . S
N6165 C6158 1.356 . S
N6165 H6168 0.984 . S
N6165 H6169 0.985 . S
H6166 N6161 0.984 . S
H6167 N6161 0.985 . S
H6168 N6165 0.984 . S
H6169 N6165 0.985 . S
H6170 N6164 0.984 . S
H6171 N6164 0.984 . S
H6172 N6160 0.984 . S
H6173 N6160 0.985 . S
C6174 C6175 1.363 . S
C6174 C6180 1.379 . S
C6174 N6182 1.356 . S
C6175 C6174 1.363 . S
C6175 C6181 1.363 . S
C6176 C6177 1.363 . S
C6176 C6181 1.379 . S
C6176 N6183 1.356 . S
C6177 C6176 1.363 . S
C6177 C6180 1.363 . S
N6178 C6180 1.356 . S
N6178 H6190 0.984 . S
N6178 H6191 0.985 . S
N6179 C6181 1.356 . S
N6179 H6184 0.984 . S
N6179 H6185 0.985 . S
C6180 C6174 1.379 . S
C6180 C6177 1.363 . S
C6180 N6178 1.356 . S
C6181 C6175 1.363 . S
C6181 C6176 1.379 . S
C6181 N6179 1.356 . S
N6182 C6174 1.356 . S
N6182 H6188 0.984 . S
N6182 H6189 0.984 . S
N6183 C6176 1.356 . S
N6183 H6186 0.984 . S
N6183 H6187 0.985 . S
H6184 N6179 0.984 . S
H6185 N6179 0.985 . S
H6186 N6183 0.984 . S
H6187 N6183 0.985 . S
H6188 N6182 0.984 . S
H6189 N6182 0.984 . S
H6190 N6178 0.984 . S
H6191 N6178 0.985 . S
C6192 C6193 1.363 . S
C6192 C6198 1.379 1_545 S
C6192 N6200 1.356 . S
C6193 C6192 1.363 . S
C6193 C6199 1.363 . S
C6194 C6195 1.363 . S
C6194 C6199 1.379 1_565 S
C6194 N6201 1.356 . S
C6195 C6194 1.363 . S
C6195 C6198 1.363 . S
N6196 C6198 1.356 . S
N6196 H6208 0.984 . S
N6196 H6209 0.985 . S
N6197 C6199 1.356 . S
N6197 H6202 0.984 . S
N6197 H6203 0.985 . S
C6198 C6192 1.379 1_565 S
C6198 C6195 1.363 . S
C6198 N6196 1.356 . S
C6199 C6193 1.363 . S
C6199 C6194 1.379 1_545 S
C6199 N6197 1.356 . S
N6200 C6192 1.356 . S
N6200 H6206 0.984 . S
N6200 H6207 0.984 . S
N6201 C6194 1.356 . S
N6201 H6204 0.984 . S
N6201 H6205 0.985 . S
H6202 N6197 0.984 . S
H6203 N6197 0.985 . S
H6204 N6201 0.984 . S
H6205 N6201 0.985 . S
H6206 N6200 0.984 . S
H6207 N6200 0.984 . S
H6208 N6196 0.984 . S
H6209 N6196 0.985 . S
C6210 C6211 1.363 . S
C6210 C6216 1.379 . S
C6210 N6218 1.356 . S
C6211 C6210 1.363 . S
C6211 C6217 1.363 . S
C6212 C6213 1.363 . S
C6212 C6217 1.379 . S
C6212 N6219 1.356 . S
C6213 C6212 1.363 . S
C6213 C6216 1.363 . S
N6214 C6216 1.356 . S
N6214 H6226 0.984 . S
N6214 H6227 0.985 . S
N6215 C6217 1.356 . S
N6215 H6220 0.984 . S
N6215 H6221 0.985 . S
C6216 C6210 1.379 . S
C6216 C6213 1.363 . S
C6216 N6214 1.356 . S
C6217 C6211 1.363 . S
C6217 C6212 1.379 . S
C6217 N6215 1.356 . S
N6218 C6210 1.356 . S
N6218 H6224 0.984 . S
N6218 H6225 0.984 . S
N6219 C6212 1.356 . S
N6219 H6222 0.984 . S
N6219 H6223 0.985 . S
H6220 N6215 0.984 . S
H6221 N6215 0.985 . S
H6222 N6219 0.984 . S
H6223 N6219 0.985 . S
H6224 N6218 0.984 . S
H6225 N6218 0.984 . S
H6226 N6214 0.984 . S
H6227 N6214 0.985 . S
C6228 C6229 1.363 . S
C6228 C6234 1.379 . S
C6228 N6236 1.356 . S
C6229 C6228 1.363 . S
C6229 C6235 1.363 1_556 S
C6230 C6231 1.363 . S
C6230 C6235 1.379 . S
C6230 N6237 1.356 . S
C6231 C6230 1.363 . S
C6231 C6234 1.363 1_554 S
N6232 C6234 1.356 . S
N6232 H6244 0.984 . S
N6232 H6245 0.985 . S
N6233 C6235 1.356 . S
N6233 H6238 0.984 . S
N6233 H6239 0.985 . S
C6234 C6228 1.379 . S
C6234 C6231 1.363 1_556 S
C6234 N6232 1.356 . S
C6235 C6229 1.363 1_554 S
C6235 C6230 1.379 . S
C6235 N6233 1.356 . S
N6236 C6228 1.356 . S
N6236 H6242 0.984 . S
N6236 H6243 0.984 . S
N6237 C6230 1.356 . S
N6237 H6240 0.984 . S
N6237 H6241 0.985 . S
H6238 N6233 0.984 . S
H6239 N6233 0.985 . S
H6240 N6237 0.984 . S
H6241 N6237 0.985 . S
H6242 N6236 0.984 . S
H6243 N6236 0.984 . S
H6244 N6232 0.984 . S
H6245 N6232 0.985 . S
C6246 C6247 1.363 . S
C6246 C6252 1.379 . S
C6246 N6254 1.356 . S
C6247 C6246 1.363 . S
C6247 C6253 1.363 . S
C6248 C6249 1.363 . S
C6248 C6253 1.379 . S
C6248 N6255 1.356 . S
C6249 C6248 1.363 . S
C6249 C6252 1.363 . S
N6250 C6252 1.356 . S
N6250 H6262 0.984 . S
N6250 H6263 0.985 . S
N6251 C6253 1.356 . S
N6251 H6256 0.984 . S
N6251 H6257 0.985 . S
C6252 C6246 1.379 . S
C6252 C6249 1.363 . S
C6252 N6250 1.356 . S
C6253 C6247 1.363 . S
C6253 C6248 1.379 . S
C6253 N6251 1.356 . S
N6254 C6246 1.356 . S
N6254 H6260 0.984 . S
N6254 H6261 0.984 . S
N6255 C6248 1.356 . S
N6255 H6258 0.984 . S
N6255 H6259 0.985 . S
H6256 N6251 0.984 . S
H6257 N6251 0.985 . S
H6258 N6255 0.984 . S
H6259 N6255 0.985 . S
H6260 N6254 0.984 . S
H6261 N6254 0.984 . S
H6262 N6250 0.984 . S
H6263 N6250 0.985 . S
C6264 C6265 1.363 . S
C6264 C6270 1.379 1_554 S
C6264 N6272 1.356 . S
C6265 C6264 1.363 . S
C6265 C6271 1.363 . S
C6266 C6267 1.363 . S
C6266 C6271 1.379 1_556 S
C6266 N6273 1.356 . S
C6267 C6266 1.363 . S
C6267 C6270 1.363 . S
N6268 C6270 1.356 . S
N6268 H6280 0.984 . S
N6268 H6281 0.985 . S
N6269 C6271 1.356 . S
N6269 H6274 0.984 . S
N6269 H6275 0.985 . S
C6270 C6264 1.379 1_556 S
C6270 C6267 1.363 . S
C6270 N6268 1.356 . S
C6271 C6265 1.363 . S
C6271 C6266 1.379 1_554 S
C6271 N6269 1.356 . S
N6272 C6264 1.356 . S
N6272 H6278 0.984 . S
N6272 H6279 0.984 . S
N6273 C6266 1.356 . S
N6273 H6276 0.984 . S
N6273 H6277 0.985 . S
H6274 N6269 0.984 . S
H6275 N6269 0.985 . S
H6276 N6273 0.984 . S
H6277 N6273 0.985 . S
H6278 N6272 0.984 . S
H6279 N6272 0.984 . S
H6280 N6268 0.984 . S
H6281 N6268 0.985 . S
C6282 C6283 1.363 . S
C6282 C6288 1.379 . S
C6282 N6290 1.356 . S
C6283 C6282 1.363 . S
C6283 C6289 1.363 1_455 S
C6284 C6285 1.363 . S
C6284 C6289 1.379 . S
C6284 N6291 1.356 . S
C6285 C6284 1.363 . S
C6285 C6288 1.363 1_655 S
N6286 C6288 1.356 . S
N6286 H6298 0.984 . S
N6286 H6299 0.985 . S
N6287 C6289 1.356 . S
N6287 H6292 0.984 . S
N6287 H6293 0.985 . S
C6288 C6282 1.379 . S
C6288 C6285 1.363 1_455 S
C6288 N6286 1.356 . S
C6289 C6283 1.363 1_655 S
C6289 C6284 1.379 . S
C6289 N6287 1.356 . S
N6290 C6282 1.356 . S
N6290 H6296 0.984 . S
N6290 H6297 0.984 . S
N6291 C6284 1.356 . S
N6291 H6294 0.984 . S
N6291 H6295 0.985 . S
H6292 N6287 0.984 . S
H6293 N6287 0.985 . S
H6294 N6291 0.984 . S
H6295 N6291 0.985 . S
H6296 N6290 0.984 . S
H6297 N6290 0.984 . S
H6298 N6286 0.984 . S
H6299 N6286 0.985 . S
C6300 C6301 1.363 . S
C6300 C6306 1.379 . S
C6300 N6308 1.356 . S
C6301 C6300 1.363 . S
C6301 C6307 1.363 . S
C6302 C6303 1.363 . S
C6302 C6307 1.379 . S
C6302 N6309 1.356 . S
C6303 C6302 1.363 . S
C6303 C6306 1.363 . S
N6304 C6306 1.356 . S
N6304 H6316 0.984 . S
N6304 H6317 0.985 . S
N6305 C6307 1.356 . S
N6305 H6310 0.984 . S
N6305 H6311 0.985 . S
C6306 C6300 1.379 . S
C6306 C6303 1.363 . S
C6306 N6304 1.356 . S
C6307 C6301 1.363 . S
C6307 C6302 1.379 . S
C6307 N6305 1.356 . S
N6308 C6300 1.356 . S
N6308 H6314 0.984 . S
N6308 H6315 0.984 . S
N6309 C6302 1.356 . S
N6309 H6312 0.984 . S
N6309 H6313 0.985 . S
H6310 N6305 0.984 . S
H6311 N6305 0.985 . S
H6312 N6309 0.984 . S
H6313 N6309 0.985 . S
H6314 N6308 0.984 . S
H6315 N6308 0.984 . S
H6316 N6304 0.984 . S
H6317 N6304 0.985 . S
C6318 C6319 1.363 . S
C6318 C6324 1.379 1_554 S
C6318 N6326 1.356 . S
C6319 C6318 1.363 . S
C6319 C6325 1.363 1_655 S
C6320 C6321 1.363 . S
C6320 C6325 1.379 1_556 S
C6320 N6327 1.356 . S
C6321 C6320 1.363 . S
C6321 C6324 1.363 1_455 S
N6322 C6324 1.356 . S
N6322 H6334 0.984 . S
N6322 H6335 0.985 . S
N6323 C6325 1.356 . S
N6323 H6328 0.984 . S
N6323 H6329 0.985 . S
C6324 C6318 1.379 1_556 S
C6324 C6321 1.363 1_655 S
C6324 N6322 1.356 . S
C6325 C6319 1.363 1_455 S
C6325 C6320 1.379 1_554 S
C6325 N6323 1.356 . S
N6326 C6318 1.356 . S
N6326 H6332 0.984 . S
N6326 H6333 0.984 . S
N6327 C6320 1.356 . S
N6327 H6330 0.984 . S
N6327 H6331 0.985 . S
H6328 N6323 0.984 . S
H6329 N6323 0.985 . S
H6330 N6327 0.984 . S
H6331 N6327 0.985 . S
H6332 N6326 0.984 . S
H6333 N6326 0.984 . S
H6334 N6322 0.984 . S
H6335 N6322 0.985 . S
C6336 C6337 1.363 . S
C6336 C6342 1.379 . S
C6336 N6344 1.356 . S
C6337 C6336 1.363 . S
C6337 C6343 1.363 . S
C6338 C6339 1.363 . S
C6338 C6343 1.379 . S
C6338 N6345 1.356 . S
C6339 C6338 1.363 . S
C6339 C6342 1.363 . S
N6340 C6342 1.356 . S
N6340 H6352 0.984 . S
N6340 H6353 0.985 . S
N6341 C6343 1.356 . S
N6341 H6346 0.984 . S
N6341 H6347 0.985 . S
C6342 C6336 1.379 . S
C6342 C6339 1.363 . S
C6342 N6340 1.356 . S
C6343 C6337 1.363 . S
C6343 C6338 1.379 . S
C6343 N6341 1.356 . S
N6344 C6336 1.356 . S
N6344 H6350 0.984 . S
N6344 H6351 0.984 . S
N6345 C6338 1.356 . S
N6345 H6348 0.984 . S
N6345 H6349 0.985 . S
H6346 N6341 0.984 . S
H6347 N6341 0.985 . S
H6348 N6345 0.984 . S
H6349 N6345 0.985 . S
H6350 N6344 0.984 . S
H6351 N6344 0.984 . S
H6352 N6340 0.984 . S
H6353 N6340 0.985 . S
C6354 C6355 1.363 . S
C6354 C6360 1.379 1_554 S
C6354 N6362 1.356 . S
C6355 C6354 1.363 . S
C6355 C6361 1.363 . S
C6356 C6357 1.363 . S
C6356 C6361 1.379 1_556 S
C6356 N6363 1.356 . S
C6357 C6356 1.363 . S
C6357 C6360 1.363 . S
N6358 C6360 1.356 . S
N6358 H6370 0.984 . S
N6358 H6371 0.985 . S
N6359 C6361 1.356 . S
N6359 H6364 0.984 . S
N6359 H6365 0.985 . S
C6360 C6354 1.379 1_556 S
C6360 C6357 1.363 . S
C6360 N6358 1.356 . S
C6361 C6355 1.363 . S
C6361 C6356 1.379 1_554 S
C6361 N6359 1.356 . S
N6362 C6354 1.356 . S
N6362 H6368 0.984 . S
N6362 H6369 0.984 . S
N6363 C6356 1.356 . S
N6363 H6366 0.984 . S
N6363 H6367 0.985 . S
H6364 N6359 0.984 . S
H6365 N6359 0.985 . S
H6366 N6363 0.984 . S
H6367 N6363 0.985 . S
H6368 N6362 0.984 . S
H6369 N6362 0.984 . S
H6370 N6358 0.984 . S
H6371 N6358 0.985 . S
C6372 C6373 1.363 . S
C6372 C6378 1.379 . S
C6372 N6380 1.356 . S
C6373 C6372 1.363 . S
C6373 C6379 1.363 . S
C6374 C6375 1.363 . S
C6374 C6379 1.379 . S
C6374 N6381 1.356 . S
C6375 C6374 1.363 . S
C6375 C6378 1.363 . S
N6376 C6378 1.356 . S
N6376 H6388 0.984 . S
N6376 H6389 0.985 . S
N6377 C6379 1.356 . S
N6377 H6382 0.984 . S
N6377 H6383 0.985 . S
C6378 C6372 1.379 . S
C6378 C6375 1.363 . S
C6378 N6376 1.356 . S
C6379 C6373 1.363 . S
C6379 C6374 1.379 . S
C6379 N6377 1.356 . S
N6380 C6372 1.356 . S
N6380 H6386 0.984 . S
N6380 H6387 0.984 . S
N6381 C6374 1.356 . S
N6381 H6384 0.984 . S
N6381 H6385 0.985 . S
H6382 N6377 0.984 . S
H6383 N6377 0.985 . S
H6384 N6381 0.984 . S
H6385 N6381 0.985 . S
H6386 N6380 0.984 . S
H6387 N6380 0.984 . S
H6388 N6376 0.984 . S
H6389 N6376 0.985 . S
C6390 C6391 1.363 . S
C6390 C6396 1.379 . S
C6390 N6398 1.356 . S
C6391 C6390 1.363 . S
C6391 C6397 1.363 . S
C6392 C6393 1.363 . S
C6392 C6397 1.379 . S
C6392 N6399 1.356 . S
C6393 C6392 1.363 . S
C6393 C6396 1.363 . S
N6394 C6396 1.356 . S
N6394 H6406 0.984 . S
N6394 H6407 0.985 . S
N6395 C6397 1.356 . S
N6395 H6400 0.984 . S
N6395 H6401 0.985 . S
C6396 C6390 1.379 . S
C6396 C6393 1.363 . S
C6396 N6394 1.356 . S
C6397 C6391 1.363 . S
C6397 C6392 1.379 . S
C6397 N6395 1.356 . S
N6398 C6390 1.356 . S
N6398 H6404 0.984 . S
N6398 H6405 0.984 . S
N6399 C6392 1.356 . S
N6399 H6402 0.984 . S
N6399 H6403 0.985 . S
H6400 N6395 0.984 . S
H6401 N6395 0.985 . S
H6402 N6399 0.984 . S
H6403 N6399 0.985 . S
H6404 N6398 0.984 . S
H6405 N6398 0.984 . S
H6406 N6394 0.984 . S
H6407 N6394 0.985 . S
C6408 C6409 1.363 . S
C6408 C6414 1.379 . S
C6408 N6416 1.356 . S
C6409 C6408 1.363 . S
C6409 C6415 1.363 . S
C6410 C6411 1.363 . S
C6410 C6415 1.379 . S
C6410 N6417 1.356 . S
C6411 C6410 1.363 . S
C6411 C6414 1.363 . S
N6412 C6414 1.356 . S
N6412 H6424 0.984 . S
N6412 H6425 0.985 . S
N6413 C6415 1.356 . S
N6413 H6418 0.984 . S
N6413 H6419 0.985 . S
C6414 C6408 1.379 . S
C6414 C6411 1.363 . S
C6414 N6412 1.356 . S
C6415 C6409 1.363 . S
C6415 C6410 1.379 . S
C6415 N6413 1.356 . S
N6416 C6408 1.356 . S
N6416 H6422 0.984 . S
N6416 H6423 0.984 . S
N6417 C6410 1.356 . S
N6417 H6420 0.984 . S
N6417 H6421 0.985 . S
H6418 N6413 0.984 . S
H6419 N6413 0.985 . S
H6420 N6417 0.984 . S
H6421 N6417 0.985 . S
H6422 N6416 0.984 . S
H6423 N6416 0.984 . S
H6424 N6412 0.984 . S
H6425 N6412 0.985 . S
C6426 C6427 1.363 . S
C6426 C6432 1.379 . S
C6426 N6434 1.356 . S
C6427 C6426 1.363 . S
C6427 C6433 1.363 . S
C6428 C6429 1.363 . S
C6428 C6433 1.379 . S
C6428 N6435 1.356 . S
C6429 C6428 1.363 . S
C6429 C6432 1.363 . S
N6430 C6432 1.356 . S
N6430 H6442 0.984 . S
N6430 H6443 0.985 . S
N6431 C6433 1.356 . S
N6431 H6436 0.984 . S
N6431 H6437 0.985 . S
C6432 C6426 1.379 . S
C6432 C6429 1.363 . S
C6432 N6430 1.356 . S
C6433 C6427 1.363 . S
C6433 C6428 1.379 . S
C6433 N6431 1.356 . S
N6434 C6426 1.356 . S
N6434 H6440 0.984 . S
N6434 H6441 0.984 . S
N6435 C6428 1.356 . S
N6435 H6438 0.984 . S
N6435 H6439 0.985 . S
H6436 N6431 0.984 . S
H6437 N6431 0.985 . S
H6438 N6435 0.984 . S
H6439 N6435 0.985 . S
H6440 N6434 0.984 . S
H6441 N6434 0.984 . S
H6442 N6430 0.984 . S
H6443 N6430 0.985 . S
C6444 C6445 1.363 . S
C6444 C6450 1.379 . S
C6444 N6452 1.356 . S
C6445 C6444 1.363 . S
C6445 C6451 1.363 . S
C6446 C6447 1.363 . S
C6446 C6451 1.379 . S
C6446 N6453 1.356 . S
C6447 C6446 1.363 . S
C6447 C6450 1.363 . S
N6448 C6450 1.356 . S
N6448 H6460 0.984 . S
N6448 H6461 0.985 . S
N6449 C6451 1.356 . S
N6449 H6454 0.984 . S
N6449 H6455 0.985 . S
C6450 C6444 1.379 . S
C6450 C6447 1.363 . S
C6450 N6448 1.356 . S
C6451 C6445 1.363 . S
C6451 C6446 1.379 . S
C6451 N6449 1.356 . S
N6452 C6444 1.356 . S
N6452 H6458 0.984 . S
N6452 H6459 0.984 . S
N6453 C6446 1.356 . S
N6453 H6456 0.984 . S
N6453 H6457 0.985 . S
H6454 N6449 0.984 . S
H6455 N6449 0.985 . S
H6456 N6453 0.984 . S
H6457 N6453 0.985 . S
H6458 N6452 0.984 . S
H6459 N6452 0.984 . S
H6460 N6448 0.984 . S
H6461 N6448 0.985 . S
C6462 C6463 1.363 . S
C6462 C6468 1.379 . S
C6462 N6470 1.356 . S
C6463 C6462 1.363 . S
C6463 C6469 1.363 1_554 S
C6464 C6465 1.363 . S
C6464 C6469 1.379 . S
C6464 N6471 1.356 . S
C6465 C6464 1.363 . S
C6465 C6468 1.363 1_556 S
N6466 C6468 1.356 . S
N6466 H6478 0.984 . S
N6466 H6479 0.985 . S
N6467 C6469 1.356 . S
N6467 H6472 0.984 . S
N6467 H6473 0.985 . S
C6468 C6462 1.379 . S
C6468 C6465 1.363 1_554 S
C6468 N6466 1.356 . S
C6469 C6463 1.363 1_556 S
C6469 C6464 1.379 . S
C6469 N6467 1.356 . S
N6470 C6462 1.356 . S
N6470 H6476 0.984 . S
N6470 H6477 0.984 . S
N6471 C6464 1.356 . S
N6471 H6474 0.984 . S
N6471 H6475 0.985 . S
H6472 N6467 0.984 . S
H6473 N6467 0.985 . S
H6474 N6471 0.984 . S
H6475 N6471 0.985 . S
H6476 N6470 0.984 . S
H6477 N6470 0.984 . S
H6478 N6466 0.984 . S
H6479 N6466 0.985 . S
C6480 C6481 1.363 . S
C6480 C6486 1.379 . S
C6480 N6488 1.356 . S
C6481 C6480 1.363 . S
C6481 C6487 1.363 . S
C6482 C6483 1.363 . S
C6482 C6487 1.379 . S
C6482 N6489 1.356 . S
C6483 C6482 1.363 . S
C6483 C6486 1.363 . S
N6484 C6486 1.356 . S
N6484 H6496 0.984 . S
N6484 H6497 0.985 . S
N6485 C6487 1.356 . S
N6485 H6490 0.984 . S
N6485 H6491 0.985 . S
C6486 C6480 1.379 . S
C6486 C6483 1.363 . S
C6486 N6484 1.356 . S
C6487 C6481 1.363 . S
C6487 C6482 1.379 . S
C6487 N6485 1.356 . S
N6488 C6480 1.356 . S
N6488 H6494 0.984 . S
N6488 H6495 0.984 . S
N6489 C6482 1.356 . S
N6489 H6492 0.984 . S
N6489 H6493 0.985 . S
H6490 N6485 0.984 . S
H6491 N6485 0.985 . S
H6492 N6489 0.984 . S
H6493 N6489 0.985 . S
H6494 N6488 0.984 . S
H6495 N6488 0.984 . S
H6496 N6484 0.984 . S
H6497 N6484 0.985 . S
C6498 C6499 1.363 . S
C6498 C6504 1.379 1_545 S
C6498 N6506 1.356 . S
C6499 C6498 1.363 . S
C6499 C6505 1.363 . S
C6500 C6501 1.363 . S
C6500 C6505 1.379 1_565 S
C6500 N6507 1.356 . S
C6501 C6500 1.363 . S
C6501 C6504 1.363 . S
N6502 C6504 1.356 . S
N6502 H6514 0.984 . S
N6502 H6515 0.985 . S
N6503 C6505 1.356 . S
N6503 H6508 0.984 . S
N6503 H6509 0.985 . S
C6504 C6498 1.379 1_565 S
C6504 C6501 1.363 . S
C6504 N6502 1.356 . S
C6505 C6499 1.363 . S
C6505 C6500 1.379 1_545 S
C6505 N6503 1.356 . S
N6506 C6498 1.356 . S
N6506 H6512 0.984 . S
N6506 H6513 0.984 . S
N6507 C6500 1.356 . S
N6507 H6510 0.984 . S
N6507 H6511 0.985 . S
H6508 N6503 0.984 . S
H6509 N6503 0.985 . S
H6510 N6507 0.984 . S
H6511 N6507 0.985 . S
H6512 N6506 0.984 . S
H6513 N6506 0.984 . S
H6514 N6502 0.984 . S
H6515 N6502 0.985 . S
C6516 C6517 1.363 . S
C6516 C6522 1.379 . S
C6516 N6524 1.356 . S
C6517 C6516 1.363 . S
C6517 C6523 1.363 . S
C6518 C6519 1.363 . S
C6518 C6523 1.379 . S
C6518 N6525 1.356 . S
C6519 C6518 1.363 . S
C6519 C6522 1.363 . S
N6520 C6522 1.356 . S
N6520 H6532 0.984 . S
N6520 H6533 0.985 . S
N6521 C6523 1.356 . S
N6521 H6526 0.984 . S
N6521 H6527 0.985 . S
C6522 C6516 1.379 . S
C6522 C6519 1.363 . S
C6522 N6520 1.356 . S
C6523 C6517 1.363 . S
C6523 C6518 1.379 . S
C6523 N6521 1.356 . S
N6524 C6516 1.356 . S
N6524 H6530 0.984 . S
N6524 H6531 0.984 . S
N6525 C6518 1.356 . S
N6525 H6528 0.984 . S
N6525 H6529 0.985 . S
H6526 N6521 0.984 . S
H6527 N6521 0.985 . S
H6528 N6525 0.984 . S
H6529 N6525 0.985 . S
H6530 N6524 0.984 . S
H6531 N6524 0.984 . S
H6532 N6520 0.984 . S
H6533 N6520 0.985 . S
C6534 C6535 1.363 . S
C6534 C6540 1.379 . S
C6534 N6542 1.356 . S
C6535 C6534 1.363 . S
C6535 C6541 1.363 . S
C6536 C6537 1.363 . S
C6536 C6541 1.379 . S
C6536 N6543 1.356 . S
C6537 C6536 1.363 . S
C6537 C6540 1.363 . S
N6538 C6540 1.356 . S
N6538 H6550 0.984 . S
N6538 H6551 0.985 . S
N6539 C6541 1.356 . S
N6539 H6544 0.984 . S
N6539 H6545 0.985 . S
C6540 C6534 1.379 . S
C6540 C6537 1.363 . S
C6540 N6538 1.356 . S
C6541 C6535 1.363 . S
C6541 C6536 1.379 . S
C6541 N6539 1.356 . S
N6542 C6534 1.356 . S
N6542 H6548 0.984 . S
N6542 H6549 0.984 . S
N6543 C6536 1.356 . S
N6543 H6546 0.984 . S
N6543 H6547 0.985 . S
H6544 N6539 0.984 . S
H6545 N6539 0.985 . S
H6546 N6543 0.984 . S
H6547 N6543 0.985 . S
H6548 N6542 0.984 . S
H6549 N6542 0.984 . S
H6550 N6538 0.984 . S
H6551 N6538 0.985 . S
C6552 C6553 1.363 1_655 S
C6552 C6558 1.379 1_554 S
C6552 N6560 1.356 . S
C6553 C6552 1.363 1_455 S
C6553 C6559 1.363 . S
C6554 C6555 1.363 1_455 S
C6554 C6559 1.379 1_556 S
C6554 N6561 1.356 . S
C6555 C6554 1.363 1_655 S
C6555 C6558 1.363 . S
N6556 C6558 1.356 . S
N6556 H6568 0.984 . S
N6556 H6569 0.985 . S
N6557 C6559 1.356 . S
N6557 H6562 0.984 . S
N6557 H6563 0.985 . S
C6558 C6552 1.379 1_556 S
C6558 C6555 1.363 . S
C6558 N6556 1.356 . S
C6559 C6553 1.363 . S
C6559 C6554 1.379 1_554 S
C6559 N6557 1.356 . S
N6560 C6552 1.356 . S
N6560 H6566 0.984 . S
N6560 H6567 0.984 . S
N6561 C6554 1.356 . S
N6561 H6564 0.984 . S
N6561 H6565 0.985 . S
H6562 N6557 0.984 . S
H6563 N6557 0.985 . S
H6564 N6561 0.984 . S
H6565 N6561 0.985 . S
H6566 N6560 0.984 . S
H6567 N6560 0.984 . S
H6568 N6556 0.984 . S
H6569 N6556 0.985 . S
C6570 C6571 1.363 . S
C6570 C6576 1.379 . S
C6570 N6578 1.356 . S
C6571 C6570 1.363 . S
C6571 C6577 1.363 . S
C6572 C6573 1.363 . S
C6572 C6577 1.379 . S
C6572 N6579 1.356 . S
C6573 C6572 1.363 . S
C6573 C6576 1.363 . S
N6574 C6576 1.356 . S
N6574 H6586 0.984 . S
N6574 H6587 0.985 . S
N6575 C6577 1.356 . S
N6575 H6580 0.984 . S
N6575 H6581 0.985 . S
C6576 C6570 1.379 . S
C6576 C6573 1.363 . S
C6576 N6574 1.356 . S
C6577 C6571 1.363 . S
C6577 C6572 1.379 . S
C6577 N6575 1.356 . S
N6578 C6570 1.356 . S
N6578 H6584 0.984 . S
N6578 H6585 0.984 . S
N6579 C6572 1.356 . S
N6579 H6582 0.984 . S
N6579 H6583 0.985 . S
H6580 N6575 0.984 . S
H6581 N6575 0.985 . S
H6582 N6579 0.984 . S
H6583 N6579 0.985 . S
H6584 N6578 0.984 . S
H6585 N6578 0.984 . S
H6586 N6574 0.984 . S
H6587 N6574 0.985 . S
C6588 C6589 1.363 1_655 S
C6588 C6594 1.379 . S
C6588 N6596 1.356 . S
C6589 C6588 1.363 1_455 S
C6589 C6595 1.363 . S
C6590 C6591 1.363 1_455 S
C6590 C6595 1.379 . S
C6590 N6597 1.356 . S
C6591 C6590 1.363 1_655 S
C6591 C6594 1.363 . S
N6592 C6594 1.356 . S
N6592 H6604 0.984 . S
N6592 H6605 0.985 . S
N6593 C6595 1.356 . S
N6593 H6598 0.984 . S
N6593 H6599 0.985 . S
C6594 C6588 1.379 . S
C6594 C6591 1.363 . S
C6594 N6592 1.356 . S
C6595 C6589 1.363 . S
C6595 C6590 1.379 . S
C6595 N6593 1.356 . S
N6596 C6588 1.356 . S
N6596 H6602 0.984 . S
N6596 H6603 0.984 . S
N6597 C6590 1.356 . S
N6597 H6600 0.984 . S
N6597 H6601 0.985 . S
H6598 N6593 0.984 . S
H6599 N6593 0.985 . S
H6600 N6597 0.984 . S
H6601 N6597 0.985 . S
H6602 N6596 0.984 . S
H6603 N6596 0.984 . S
H6604 N6592 0.984 . S
H6605 N6592 0.985 . S
C6606 C6607 1.363 . S
C6606 C6612 1.379 . S
C6606 N6614 1.356 . S
C6607 C6606 1.363 . S
C6607 C6613 1.363 . S
C6608 C6609 1.363 . S
C6608 C6613 1.379 . S
C6608 N6615 1.356 . S
C6609 C6608 1.363 . S
C6609 C6612 1.363 . S
N6610 C6612 1.356 . S
N6610 H6622 0.984 . S
N6610 H6623 0.985 . S
N6611 C6613 1.356 . S
N6611 H6616 0.984 . S
N6611 H6617 0.985 . S
C6612 C6606 1.379 . S
C6612 C6609 1.363 . S
C6612 N6610 1.356 . S
C6613 C6607 1.363 . S
C6613 C6608 1.379 . S
C6613 N6611 1.356 . S
N6614 C6606 1.356 . S
N6614 H6620 0.984 . S
N6614 H6621 0.984 . S
N6615 C6608 1.356 . S
N6615 H6618 0.984 . S
N6615 H6619 0.985 . S
H6616 N6611 0.984 . S
H6617 N6611 0.985 . S
H6618 N6615 0.984 . S
H6619 N6615 0.985 . S
H6620 N6614 0.984 . S
H6621 N6614 0.984 . S
H6622 N6610 0.984 . S
H6623 N6610 0.985 . S
C6624 C6625 1.363 . S
C6624 C6630 1.379 . S
C6624 N6632 1.356 . S
C6625 C6624 1.363 . S
C6625 C6631 1.363 . S
C6626 C6627 1.363 . S
C6626 C6631 1.379 . S
C6626 N6633 1.356 . S
C6627 C6626 1.363 . S
C6627 C6630 1.363 . S
N6628 C6630 1.356 . S
N6628 H6640 0.984 . S
N6628 H6641 0.985 . S
N6629 C6631 1.356 . S
N6629 H6634 0.984 . S
N6629 H6635 0.985 . S
C6630 C6624 1.379 . S
C6630 C6627 1.363 . S
C6630 N6628 1.356 . S
C6631 C6625 1.363 . S
C6631 C6626 1.379 . S
C6631 N6629 1.356 . S
N6632 C6624 1.356 . S
N6632 H6638 0.984 . S
N6632 H6639 0.984 . S
N6633 C6626 1.356 . S
N6633 H6636 0.984 . S
N6633 H6637 0.985 . S
H6634 N6629 0.984 . S
H6635 N6629 0.985 . S
H6636 N6633 0.984 . S
H6637 N6633 0.985 . S
H6638 N6632 0.984 . S
H6639 N6632 0.984 . S
H6640 N6628 0.984 . S
H6641 N6628 0.985 . S
C6642 C6643 1.363 . S
C6642 C6648 1.379 . S
C6642 N6650 1.356 . S
C6643 C6642 1.363 . S
C6643 C6649 1.363 . S
C6644 C6645 1.363 . S
C6644 C6649 1.379 . S
C6644 N6651 1.356 . S
C6645 C6644 1.363 . S
C6645 C6648 1.363 . S
N6646 C6648 1.356 . S
N6646 H6658 0.984 . S
N6646 H6659 0.985 . S
N6647 C6649 1.356 . S
N6647 H6652 0.984 . S
N6647 H6653 0.985 . S
C6648 C6642 1.379 . S
C6648 C6645 1.363 . S
C6648 N6646 1.356 . S
C6649 C6643 1.363 . S
C6649 C6644 1.379 . S
C6649 N6647 1.356 . S
N6650 C6642 1.356 . S
N6650 H6656 0.984 . S
N6650 H6657 0.984 . S
N6651 C6644 1.356 . S
N6651 H6654 0.984 . S
N6651 H6655 0.985 . S
H6652 N6647 0.984 . S
H6653 N6647 0.985 . S
H6654 N6651 0.984 . S
H6655 N6651 0.985 . S
H6656 N6650 0.984 . S
H6657 N6650 0.984 . S
H6658 N6646 0.984 . S
H6659 N6646 0.985 . S
C6660 C6661 1.363 . S
C6660 C6666 1.379 . S
C6660 N6668 1.356 . S
C6661 C6660 1.363 . S
C6661 C6667 1.363 . S
C6662 C6663 1.363 . S
C6662 C6667 1.379 . S
C6662 N6669 1.356 . S
C6663 C6662 1.363 . S
C6663 C6666 1.363 . S
N6664 C6666 1.356 . S
N6664 H6676 0.984 . S
N6664 H6677 0.985 . S
N6665 C6667 1.356 . S
N6665 H6670 0.984 . S
N6665 H6671 0.985 . S
C6666 C6660 1.379 . S
C6666 C6663 1.363 . S
C6666 N6664 1.356 . S
C6667 C6661 1.363 . S
C6667 C6662 1.379 . S
C6667 N6665 1.356 . S
N6668 C6660 1.356 . S
N6668 H6674 0.984 . S
N6668 H6675 0.984 . S
N6669 C6662 1.356 . S
N6669 H6672 0.984 . S
N6669 H6673 0.985 . S
H6670 N6665 0.984 . S
H6671 N6665 0.985 . S
H6672 N6669 0.984 . S
H6673 N6669 0.985 . S
H6674 N6668 0.984 . S
H6675 N6668 0.984 . S
H6676 N6664 0.984 . S
H6677 N6664 0.985 . S
C6678 C6679 1.363 1_565 S
C6678 C6684 1.379 . S
C6678 N6686 1.356 . S
C6679 C6678 1.363 1_545 S
C6679 C6685 1.363 . S
C6680 C6681 1.363 1_545 S
C6680 C6685 1.379 . S
C6680 N6687 1.356 . S
C6681 C6680 1.363 1_565 S
C6681 C6684 1.363 . S
N6682 C6684 1.356 . S
N6682 H6694 0.984 . S
N6682 H6695 0.985 . S
N6683 C6685 1.356 . S
N6683 H6688 0.984 . S
N6683 H6689 0.985 . S
C6684 C6678 1.379 . S
C6684 C6681 1.363 . S
C6684 N6682 1.356 . S
C6685 C6679 1.363 . S
C6685 C6680 1.379 . S
C6685 N6683 1.356 . S
N6686 C6678 1.356 . S
N6686 H6692 0.984 . S
N6686 H6693 0.984 . S
N6687 C6680 1.356 . S
N6687 H6690 0.984 . S
N6687 H6691 0.985 . S
H6688 N6683 0.984 . S
H6689 N6683 0.985 . S
H6690 N6687 0.984 . S
H6691 N6687 0.985 . S
H6692 N6686 0.984 . S
H6693 N6686 0.984 . S
H6694 N6682 0.984 . S
H6695 N6682 0.985 . S
C6696 C6697 1.363 . S
C6696 C6702 1.379 . S
C6696 N6704 1.356 . S
C6697 C6696 1.363 . S
C6697 C6703 1.363 . S
C6698 C6699 1.363 . S
C6698 C6703 1.379 . S
C6698 N6705 1.356 . S
C6699 C6698 1.363 . S
C6699 C6702 1.363 . S
N6700 C6702 1.356 . S
N6700 H6712 0.984 . S
N6700 H6713 0.985 . S
N6701 C6703 1.356 . S
N6701 H6706 0.984 . S
N6701 H6707 0.985 . S
C6702 C6696 1.379 . S
C6702 C6699 1.363 . S
C6702 N6700 1.356 . S
C6703 C6697 1.363 . S
C6703 C6698 1.379 . S
C6703 N6701 1.356 . S
N6704 C6696 1.356 . S
N6704 H6710 0.984 . S
N6704 H6711 0.984 . S
N6705 C6698 1.356 . S
N6705 H6708 0.984 . S
N6705 H6709 0.985 . S
H6706 N6701 0.984 . S
H6707 N6701 0.985 . S
H6708 N6705 0.984 . S
H6709 N6705 0.985 . S
H6710 N6704 0.984 . S
H6711 N6704 0.984 . S
H6712 N6700 0.984 . S
H6713 N6700 0.985 . S
C6714 C6715 1.363 . S
C6714 C6720 1.379 . S
C6714 N6722 1.356 . S
C6715 C6714 1.363 . S
C6715 C6721 1.363 1_545 S
C6716 C6717 1.363 . S
C6716 C6721 1.379 . S
C6716 N6723 1.356 . S
C6717 C6716 1.363 . S
C6717 C6720 1.363 1_565 S
N6718 C6720 1.356 . S
N6718 H6730 0.984 . S
N6718 H6731 0.985 . S
N6719 C6721 1.356 . S
N6719 H6724 0.984 . S
N6719 H6725 0.985 . S
C6720 C6714 1.379 . S
C6720 C6717 1.363 1_545 S
C6720 N6718 1.356 . S
C6721 C6715 1.363 1_565 S
C6721 C6716 1.379 . S
C6721 N6719 1.356 . S
N6722 C6714 1.356 . S
N6722 H6728 0.984 . S
N6722 H6729 0.984 . S
N6723 C6716 1.356 . S
N6723 H6726 0.984 . S
N6723 H6727 0.985 . S
H6724 N6719 0.984 . S
H6725 N6719 0.985 . S
H6726 N6723 0.984 . S
H6727 N6723 0.985 . S
H6728 N6722 0.984 . S
H6729 N6722 0.984 . S
H6730 N6718 0.984 . S
H6731 N6718 0.985 . S
C6732 C6733 1.363 . S
C6732 C6738 1.379 1_565 S
C6732 N6740 1.356 . S
C6733 C6732 1.363 . S
C6733 C6739 1.363 1_554 S
C6734 C6735 1.363 . S
C6734 C6739 1.379 1_545 S
C6734 N6741 1.356 . S
C6735 C6734 1.363 . S
C6735 C6738 1.363 1_556 S
N6736 C6738 1.356 . S
N6736 H6748 0.984 . S
N6736 H6749 0.985 . S
N6737 C6739 1.356 . S
N6737 H6742 0.984 . S
N6737 H6743 0.985 . S
C6738 C6732 1.379 1_545 S
C6738 C6735 1.363 1_554 S
C6738 N6736 1.356 . S
C6739 C6733 1.363 1_556 S
C6739 C6734 1.379 1_565 S
C6739 N6737 1.356 . S
N6740 C6732 1.356 . S
N6740 H6746 0.984 . S
N6740 H6747 0.984 . S
N6741 C6734 1.356 . S
N6741 H6744 0.984 . S
N6741 H6745 0.985 . S
H6742 N6737 0.984 . S
H6743 N6737 0.985 . S
H6744 N6741 0.984 . S
H6745 N6741 0.985 . S
H6746 N6740 0.984 . S
H6747 N6740 0.984 . S
H6748 N6736 0.984 . S
H6749 N6736 0.985 . S
C6750 C6751 1.363 . S
C6750 C6756 1.379 . S
C6750 N6758 1.356 . S
C6751 C6750 1.363 . S
C6751 C6757 1.363 . S
C6752 C6753 1.363 . S
C6752 C6757 1.379 . S
C6752 N6759 1.356 . S
C6753 C6752 1.363 . S
C6753 C6756 1.363 . S
N6754 C6756 1.356 . S
N6754 H6766 0.984 . S
N6754 H6767 0.985 . S
N6755 C6757 1.356 . S
N6755 H6760 0.984 . S
N6755 H6761 0.985 . S
C6756 C6750 1.379 . S
C6756 C6753 1.363 . S
C6756 N6754 1.356 . S
C6757 C6751 1.363 . S
C6757 C6752 1.379 . S
C6757 N6755 1.356 . S
N6758 C6750 1.356 . S
N6758 H6764 0.984 . S
N6758 H6765 0.984 . S
N6759 C6752 1.356 . S
N6759 H6762 0.984 . S
N6759 H6763 0.985 . S
H6760 N6755 0.984 . S
H6761 N6755 0.985 . S
H6762 N6759 0.984 . S
H6763 N6759 0.985 . S
H6764 N6758 0.984 . S
H6765 N6758 0.984 . S
H6766 N6754 0.984 . S
H6767 N6754 0.985 . S
C6768 C6769 1.363 . S
C6768 C6774 1.379 . S
C6768 N6776 1.356 . S
C6769 C6768 1.363 . S
C6769 C6775 1.363 . S
C6770 C6771 1.363 . S
C6770 C6775 1.379 . S
C6770 N6777 1.356 . S
C6771 C6770 1.363 . S
C6771 C6774 1.363 . S
N6772 C6774 1.356 . S
N6772 H6784 0.984 . S
N6772 H6785 0.985 . S
N6773 C6775 1.356 . S
N6773 H6778 0.984 . S
N6773 H6779 0.985 . S
C6774 C6768 1.379 . S
C6774 C6771 1.363 . S
C6774 N6772 1.356 . S
C6775 C6769 1.363 . S
C6775 C6770 1.379 . S
C6775 N6773 1.356 . S
N6776 C6768 1.356 . S
N6776 H6782 0.984 . S
N6776 H6783 0.984 . S
N6777 C6770 1.356 . S
N6777 H6780 0.984 . S
N6777 H6781 0.985 . S
H6778 N6773 0.984 . S
H6779 N6773 0.985 . S
H6780 N6777 0.984 . S
H6781 N6777 0.985 . S
H6782 N6776 0.984 . S
H6783 N6776 0.984 . S
H6784 N6772 0.984 . S
H6785 N6772 0.985 . S
C6786 C6787 1.363 . S
C6786 C6792 1.379 . S
C6786 N6794 1.356 . S
C6787 C6786 1.363 . S
C6787 C6793 1.363 . S
C6788 C6789 1.363 . S
C6788 C6793 1.379 . S
C6788 N6795 1.356 . S
C6789 C6788 1.363 . S
C6789 C6792 1.363 . S
N6790 C6792 1.356 . S
N6790 H6802 0.984 . S
N6790 H6803 0.985 . S
N6791 C6793 1.356 . S
N6791 H6796 0.984 . S
N6791 H6797 0.985 . S
C6792 C6786 1.379 . S
C6792 C6789 1.363 . S
C6792 N6790 1.356 . S
C6793 C6787 1.363 . S
C6793 C6788 1.379 . S
C6793 N6791 1.356 . S
N6794 C6786 1.356 . S
N6794 H6800 0.984 . S
N6794 H6801 0.984 . S
N6795 C6788 1.356 . S
N6795 H6798 0.984 . S
N6795 H6799 0.985 . S
H6796 N6791 0.984 . S
H6797 N6791 0.985 . S
H6798 N6795 0.984 . S
H6799 N6795 0.985 . S
H6800 N6794 0.984 . S
H6801 N6794 0.984 . S
H6802 N6790 0.984 . S
H6803 N6790 0.985 . S
C6804 C6805 1.363 . S
C6804 C6810 1.379 . S
C6804 N6812 1.356 . S
C6805 C6804 1.363 . S
C6805 C6811 1.363 . S
C6806 C6807 1.363 . S
C6806 C6811 1.379 . S
C6806 N6813 1.356 . S
C6807 C6806 1.363 . S
C6807 C6810 1.363 . S
N6808 C6810 1.356 . S
N6808 H6820 0.984 . S
N6808 H6821 0.985 . S
N6809 C6811 1.356 . S
N6809 H6814 0.984 . S
N6809 H6815 0.985 . S
C6810 C6804 1.379 . S
C6810 C6807 1.363 . S
C6810 N6808 1.356 . S
C6811 C6805 1.363 . S
C6811 C6806 1.379 . S
C6811 N6809 1.356 . S
N6812 C6804 1.356 . S
N6812 H6818 0.984 . S
N6812 H6819 0.984 . S
N6813 C6806 1.356 . S
N6813 H6816 0.984 . S
N6813 H6817 0.985 . S
H6814 N6809 0.984 . S
H6815 N6809 0.985 . S
H6816 N6813 0.984 . S
H6817 N6813 0.985 . S
H6818 N6812 0.984 . S
H6819 N6812 0.984 . S
H6820 N6808 0.984 . S
H6821 N6808 0.985 . S
C6822 C6823 1.363 . S
C6822 C6828 1.379 . S
C6822 N6830 1.356 . S
C6823 C6822 1.363 . S
C6823 C6829 1.363 . S
C6824 C6825 1.363 . S
C6824 C6829 1.379 . S
C6824 N6831 1.356 . S
C6825 C6824 1.363 . S
C6825 C6828 1.363 . S
N6826 C6828 1.356 . S
N6826 H6838 0.984 . S
N6826 H6839 0.985 . S
N6827 C6829 1.356 . S
N6827 H6832 0.984 . S
N6827 H6833 0.985 . S
C6828 C6822 1.379 . S
C6828 C6825 1.363 . S
C6828 N6826 1.356 . S
C6829 C6823 1.363 . S
C6829 C6824 1.379 . S
C6829 N6827 1.356 . S
N6830 C6822 1.356 . S
N6830 H6836 0.984 . S
N6830 H6837 0.984 . S
N6831 C6824 1.356 . S
N6831 H6834 0.984 . S
N6831 H6835 0.985 . S
H6832 N6827 0.984 . S
H6833 N6827 0.985 . S
H6834 N6831 0.984 . S
H6835 N6831 0.985 . S
H6836 N6830 0.984 . S
H6837 N6830 0.984 . S
H6838 N6826 0.984 . S
H6839 N6826 0.985 . S
C6840 C6841 1.363 . S
C6840 C6846 1.379 . S
C6840 N6848 1.356 . S
C6841 C6840 1.363 . S
C6841 C6847 1.363 . S
C6842 C6843 1.363 . S
C6842 C6847 1.379 . S
C6842 N6849 1.356 . S
C6843 C6842 1.363 . S
C6843 C6846 1.363 . S
N6844 C6846 1.356 . S
N6844 H6856 0.984 . S
N6844 H6857 0.985 . S
N6845 C6847 1.356 . S
N6845 H6850 0.984 . S
N6845 H6851 0.985 . S
C6846 C6840 1.379 . S
C6846 C6843 1.363 . S
C6846 N6844 1.356 . S
C6847 C6841 1.363 . S
C6847 C6842 1.379 . S
C6847 N6845 1.356 . S
N6848 C6840 1.356 . S
N6848 H6854 0.984 . S
N6848 H6855 0.984 . S
N6849 C6842 1.356 . S
N6849 H6852 0.984 . S
N6849 H6853 0.985 . S
H6850 N6845 0.984 . S
H6851 N6845 0.985 . S
H6852 N6849 0.984 . S
H6853 N6849 0.985 . S
H6854 N6848 0.984 . S
H6855 N6848 0.984 . S
H6856 N6844 0.984 . S
H6857 N6844 0.985 . S
C6858 C6859 1.363 . S
C6858 C6864 1.379 1_565 S
C6858 N6866 1.356 . S
C6859 C6858 1.363 . S
C6859 C6865 1.363 1_556 S
C6860 C6861 1.363 . S
C6860 C6865 1.379 1_545 S
C6860 N6867 1.356 . S
C6861 C6860 1.363 . S
C6861 C6864 1.363 1_554 S
N6862 C6864 1.356 . S
N6862 H6874 0.984 . S
N6862 H6875 0.985 . S
N6863 C6865 1.356 . S
N6863 H6868 0.984 . S
N6863 H6869 0.985 . S
C6864 C6858 1.379 1_545 S
C6864 C6861 1.363 1_556 S
C6864 N6862 1.356 . S
C6865 C6859 1.363 1_554 S
C6865 C6860 1.379 1_565 S
C6865 N6863 1.356 . S
N6866 C6858 1.356 . S
N6866 H6872 0.984 . S
N6866 H6873 0.984 . S
N6867 C6860 1.356 . S
N6867 H6870 0.984 . S
N6867 H6871 0.985 . S
H6868 N6863 0.984 . S
H6869 N6863 0.985 . S
H6870 N6867 0.984 . S
H6871 N6867 0.985 . S
H6872 N6866 0.984 . S
H6873 N6866 0.984 . S
H6874 N6862 0.984 . S
H6875 N6862 0.985 . S
C6876 C6877 1.363 . S
C6876 C6882 1.379 . S
C6876 N6884 1.356 . S
C6877 C6876 1.363 . S
C6877 C6883 1.363 . S
C6878 C6879 1.363 . S
C6878 C6883 1.379 . S
C6878 N6885 1.356 . S
C6879 C6878 1.363 . S
C6879 C6882 1.363 . S
N6880 C6882 1.356 . S
N6880 H6892 0.984 . S
N6880 H6893 0.985 . S
N6881 C6883 1.356 . S
N6881 H6886 0.984 . S
N6881 H6887 0.985 . S
C6882 C6876 1.379 . S
C6882 C6879 1.363 . S
C6882 N6880 1.356 . S
C6883 C6877 1.363 . S
C6883 C6878 1.379 . S
C6883 N6881 1.356 . S
N6884 C6876 1.356 . S
N6884 H6890 0.984 . S
N6884 H6891 0.984 . S
N6885 C6878 1.356 . S
N6885 H6888 0.984 . S
N6885 H6889 0.985 . S
H6886 N6881 0.984 . S
H6887 N6881 0.985 . S
H6888 N6885 0.984 . S
H6889 N6885 0.985 . S
H6890 N6884 0.984 . S
H6891 N6884 0.984 . S
H6892 N6880 0.984 . S
H6893 N6880 0.985 . S
C6894 C6895 1.363 . S
C6894 C6900 1.379 . S
C6894 N6902 1.356 . S
C6895 C6894 1.363 . S
C6895 C6901 1.363 . S
C6896 C6897 1.363 . S
C6896 C6901 1.379 . S
C6896 N6903 1.356 . S
C6897 C6896 1.363 . S
C6897 C6900 1.363 . S
N6898 C6900 1.356 . S
N6898 H6910 0.984 . S
N6898 H6911 0.985 . S
N6899 C6901 1.356 . S
N6899 H6904 0.984 . S
N6899 H6905 0.985 . S
C6900 C6894 1.379 . S
C6900 C6897 1.363 . S
C6900 N6898 1.356 . S
C6901 C6895 1.363 . S
C6901 C6896 1.379 . S
C6901 N6899 1.356 . S
N6902 C6894 1.356 . S
N6902 H6908 0.984 . S
N6902 H6909 0.984 . S
N6903 C6896 1.356 . S
N6903 H6906 0.984 . S
N6903 H6907 0.985 . S
H6904 N6899 0.984 . S
H6905 N6899 0.985 . S
H6906 N6903 0.984 . S
H6907 N6903 0.985 . S
H6908 N6902 0.984 . S
H6909 N6902 0.984 . S
H6910 N6898 0.984 . S
H6911 N6898 0.985 . S
C3457 C4 1.251 . S
C3459 C1154 1.394 . S
C3475 C2054 1.394 . S
C3477 C40 1.251 . S
C3493 C1226 1.394 . S
C3495 C76 1.251 . S
C3511 C112 1.251 . S
C3513 C2126 1.394 . S
C3529 C148 1.251 . S
C3531 C1298 1.394 . S
C3547 C184 1.251 . S
C3549 C2198 1.394 . S
C3565 C220 1.251 . S
C3567 C1370 1.394 . S
C3583 C256 1.251 . S
C3585 C2270 1.394 . S
C3601 C2306 1.394 . S
C3603 C292 1.251 . S
C3619 C2558 1.394 . S
C3621 C328 1.251 . S
C3637 C364 1.251 . S
C3639 C3350 1.394 . S
C3655 C400 1.251 . S
C3657 C2522 1.394 . S
C3673 C614 1.394 . S
C3675 C436 1.251 . S
C3691 C472 1.251 . S
C3693 C650 1.394 . S
C3709 C508 1.251 . S
C3711 C686 1.394 . S
C3727 C3314 1.394 . S
C3729 C544 1.251 . S
C3745 C2594 1.394 . S
C3747 C580 1.251 . S
C3763 C616 1.251 . S
C3765 C1010 1.394 . S
C3781 C1910 1.394 . S
C3783 C652 1.251 . S
C3799 C688 1.251 . S
C3801 C1082 1.394 . S
C3817 C1118 1.394 . S
C3819 C724 1.251 . S
C3835 C1802 1.394 . S
C3837 C760 1.251 . S
C3853 C110 1.394 . S
C3855 C796 1.251 . S
C3871 C38 1.394 . S
C3873 C832 1.251 . S
C3889 C868 1.251 . S
C3891 C290 1.394 . S
C3907 C2918 1.394 . S
C3909 C904 1.251 . S
C3925 C362 1.394 . S
C3927 C940 1.251 . S
C3943 C976 1.251 . S
C3945 C2990 1.394 . S
C3961 C1012 1.251 . S
C3963 C434 1.394 . S
C3979 C3062 1.394 . S
C3981 C1048 1.251 . S
C3997 C1084 1.251 . S
C3999 C506 1.394 . S
C4015 C3134 1.394 . S
C4017 C1120 1.251 . S
C4033 C3170 1.394 . S
C4035 C1156 1.251 . S
C4051 C1192 1.251 . S
C4053 C3422 1.394 . S
C4069 C2486 1.394 . S
C4071 C1228 1.251 . S
C4087 C3386 1.394 . S
C4089 C1264 1.251 . S
C4105 C1300 1.251 . S
C4107 C1478 1.394 . S
C4123 C1514 1.394 . S
C4125 C1336 1.251 . S
C4141 C1550 1.394 . S
C4143 C1372 1.251 . S
C4159 C1408 1.251 . S
C4161 C2450 1.394 . S
C4177 C1730 1.394 . S
C4179 C1444 1.251 . S
C4195 C1480 1.251 . S
C4197 C146 1.394 . S
C4213 C2774 1.394 . S
C4215 C1516 1.251 . S
C4231 C218 1.394 . S
C4233 C1552 1.251 . S
C4249 C1588 1.251 . S
C4251 C254 1.394 . S
C4267 C2666 1.394 . S
C4269 C1624 1.251 . S
C4285 C974 1.394 . S
C4287 C1660 1.251 . S
C4303 C902 1.394 . S
C4305 C1696 1.251 . S
C4321 C2882 1.394 . S
C4323 C1732 1.251 . S
C4339 C326 1.394 . S
C4341 C1768 1.251 . S
C4357 C2954 1.394 . S
C4359 C1804 1.251 . S
C4375 C1840 1.251 . S
C4377 C398 1.394 . S
C4393 C3026 1.394 . S
C4395 C1876 1.251 . S
C4411 C1912 1.251 . S
C4413 C470 1.394 . S
C4429 C1948 1.251 . S
C4431 C3098 1.394 . S
C4447 C1984 1.251 . S
C4449 C542 1.394 . S
C4465 C578 1.394 . S
C4467 C2020 1.251 . S
C4483 C2056 1.251 . S
C4485 C830 1.394 . S
C4501 C2092 1.251 . S
C4503 C1622 1.394 . S
C4519 C794 1.394 . S
C4521 C2128 1.251 . S
C4537 C2164 1.251 . S
C4539 C2342 1.394 . S
C4555 C2378 1.394 . S
C4557 C2200 1.251 . S
C4573 C2414 1.394 . S
C4575 C2236 1.251 . S
C4591 C2272 1.251 . S
C4593 C1586 1.394 . S
C4609 C2308 1.251 . S
C4611 C866 1.394 . S
C4627 C2738 1.394 . S
C4629 C2344 1.251 . S
C4645 C2380 1.251 . S
C4647 C182 1.394 . S
C4663 C2416 1.251 . S
C4665 C2810 1.394 . S
C4681 C2846 1.394 . S
C4683 C2452 1.251 . S
C4699 C74 1.394 . S
C4701 C2488 1.251 . S
C4717 C2524 1.251 . S
C4719 C1838 1.394 . S
C4735 C2560 1.251 . S
C4737 C1766 1.394 . S
C4753 C2018 1.394 . S
C4755 C2596 1.251 . S
C4771 C1190 1.394 . S
C4773 C2632 1.251 . S
C4789 C2090 1.394 . S
C4791 C2668 1.251 . S
C4807 C2704 1.251 . S
C4809 C1262 1.394 . S
C4825 C2740 1.251 . S
C4827 C2162 1.394 . S
C4843 C1334 1.394 . S
C4845 C2776 1.251 . S
C4861 C2234 1.394 . S
C4863 C2812 1.251 . S
C4879 C1406 1.394 . S
C4881 C2848 1.251 . S
C4897 C2884 1.251 . S
C4899 C1442 1.394 . S
C4915 C1694 1.394 . S
C4917 C2920 1.251 . S
C4933 C758 1.394 . S
C4935 C2956 1.251 . S
C4951 C2992 1.251 . S
C4953 C1658 1.394 . S
C4969 C3206 1.394 . S
C4971 C3028 1.251 . S
C4987 C3242 1.394 . S
C4989 C3064 1.251 . S
C5005 C3100 1.251 . S
C5007 C3278 1.394 . S
C5023 C3136 1.251 . S
C5025 C722 1.394 . S
C5041 C2 1.394 . S
C5043 C3172 1.251 . S
C5059 C1874 1.394 . S
C5061 C3208 1.251 . S
C5077 C3244 1.251 . S
C5079 C1046 1.394 . S
C5095 C3280 1.251 . S
C5097 C1946 1.394 . S
C5113 C1982 1.394 . S
C5115 C3316 1.251 . S
C5131 C938 1.394 . S
C5133 C3352 1.251 . S
C5149 C2702 1.394 . S
C5151 C3388 1.251 . S
C5167 C2630 1.394 . S
C5169 C3424 1.251 . S
C5185 C3146 1.238 . S
C5187 C14 1.238 . S
C5203 C50 1.238 . S
C5205 C3038 1.238 . S
C5221 C86 1.238 . S
C5223 C3074 1.238 . S
C5239 C122 1.238 . S
C5241 C3110 1.238 . S
C5257 C338 1.238 . S
C5259 C158 1.238 . S
C5275 C194 1.238 . S
C5277 C374 1.238 . S
C5293 C230 1.238 . S
C5295 C410 1.238 . S
C5311 C266 1.238 . S
C5313 C302 1.238 . S
C5329 C446 1.238 . S
C5331 C2642 1.238 . S
C5347 C482 1.238 . S
C5349 C2678 1.238 . S
C5365 C518 1.238 . S
C5367 C2714 1.238 . S
C5383 C2606 1.238 . S
C5385 C554 1.238 . S
C5401 C3326 1.238 . S
C5403 C590 1.238 . S
C5419 C626 1.238 . S
C5421 C3434 1.238 . S
C5437 C662 1.238 . S
C5439 C1634 1.238 . S
C5455 C3398 1.238 . S
C5457 C698 1.238 . S
C5473 C734 1.238 . S
C5475 C3182 1.238 . S
C5491 C770 1.238 . S
C5493 C1526 1.238 . S
C5509 C806 1.238 . S
C5511 C3290 1.238 . S
C5527 C842 1.238 . S
C5529 C3218 1.238 . S
C5545 C2282 1.238 . S
C5547 C878 1.238 . S
C5563 C914 1.238 . S
C5565 C2174 1.238 . S
C5581 C2210 1.238 . S
C5583 C950 1.238 . S
C5599 C986 1.238 . S
C5601 C2246 1.238 . S
C5617 C1022 1.238 . S
C5619 C1202 1.238 . S
C5635 C1058 1.238 . S
C5637 C1238 1.238 . S
C5653 C1274 1.238 . S
C5655 C1094 1.238 . S
C5671 C1130 1.238 . S
C5673 C1166 1.238 . S
C5689 C1778 1.238 . S
C5691 C1310 1.238 . S
C5707 C1814 1.238 . S
C5709 C1346 1.238 . S
C5725 C1850 1.238 . S
C5727 C1382 1.238 . S
C5743 C1742 1.238 . S
C5745 C1418 1.238 . S
C5761 C1454 1.238 . S
C5763 C2462 1.238 . S
C5779 C1490 1.238 . S
C5781 C2570 1.238 . S
C5797 C2534 1.238 . S
C5799 C1562 1.238 . S
C5815 C1598 1.238 . S
C5817 C2318 1.238 . S
C5833 C1670 1.238 . S
C5835 C2426 1.238 . S
C5851 C1706 1.238 . S
C5853 C2354 1.238 . S
C5869 C1886 1.238 . S
C5871 C2066 1.238 . S
C5887 C1922 1.238 . S
C5889 C2102 1.238 . S
C5905 C1958 1.238 . S
C5907 C2138 1.238 . S
C5923 C1994 1.238 . S
C5925 C2030 1.238 . S
C5941 C3362 1.238 . S
C5943 C2390 1.238 . S
C5959 C3254 1.238 . S
C5961 C2498 1.238 . S
C5977 C2750 1.238 . S
C5979 C2930 1.238 . S
C5995 C2786 1.238 . S
C5997 C2966 1.238 . S
C6013 C3002 1.238 . S
C6015 C2822 1.238 . S
C6031 C2858 1.238 . S
C6033 C2894 1.238 . S
C6049 C939 1.720 . S
C6051 C3 1.720 . S
C6067 C39 1.720 . S
C6069 C1839 1.720 . S
C6085 C75 1.719 1_545 S
C6087 C867 1.719 1_565 S
C6103 C1767 1.720 . S
C6105 C111 1.720 . S
C6121 C147 1.720 . S
C6123 C1083 1.720 . S
C6139 C183 1.720 . S
C6141 C1983 1.720 . S
C6157 C219 1.719 1_565 S
C6159 C1011 1.719 1_545 S
C6175 C255 1.720 . S
C6177 C1911 1.720 . S
C6193 C291 1.720 . S
C6195 C435 1.720 . S
C6211 C471 1.720 . S
C6213 C327 1.720 . S
C6229 C363 1.719 1_556 S
C6231 C507 1.719 1_554 S
C6247 C399 1.720 . S
C6249 C543 1.720 . S
C6265 C579 1.720 . S
C6267 C3279 1.720 . S
C6283 C2487 1.719 1_455 S
C6285 C615 1.719 1_655 S
C6301 C795 1.720 . S
C6303 C651 1.720 . S
C6319 C3171 1.719 1_655 S
C6321 C687 1.719 1_455 S
C6337 C3423 1.720 . S
C6339 C723 1.720 . S
C6355 C759 1.720 . S
C6357 C2343 1.720 . S
C6373 C3315 1.720 . S
C6375 C831 1.720 . S
C6391 C903 1.720 . S
C6393 C2703 1.720 . S
C6409 C2631 1.720 . S
C6411 C975 1.720 . S
C6427 C1047 1.720 . S
C6429 C2847 1.720 . S
C6445 C1119 1.720 . S
C6447 C2775 1.720 . S
C6463 C1299 1.719 1_554 S
C6465 C1155 1.719 1_556 S
C6481 C1335 1.720 . S
C6483 C1191 1.720 . S
C6499 C1371 1.720 . S
C6501 C1227 1.720 . S
C6517 C1407 1.720 . S
C6519 C1263 1.720 . S
C6535 C2415 1.720 . S
C6537 C1443 1.720 . S
C6553 C3351 1.719 1_455 S
C6555 C1479 1.719 1_655 S
C6571 C1515 1.720 . S
C6573 C1659 1.720 . S
C6589 C1551 1.719 1_455 S
C6591 C2307 1.719 1_655 S
C6607 C1587 1.720 . S
C6609 C2559 1.720 . S
C6625 C1623 1.720 . S
C6627 C3207 1.720 . S
C6643 C1695 1.720 . S
C6645 C2451 1.720 . S
C6661 C2667 1.720 . S
C6663 C1731 1.720 . S
C6679 C1803 1.719 1_545 S
C6681 C2595 1.719 1_565 S
C6697 C2811 1.720 . S
C6699 C1875 1.720 . S
C6715 C2739 1.719 1_545 S
C6717 C1947 1.719 1_565 S
C6733 C2163 1.719 1_554 S
C6735 C2019 1.719 1_556 S
C6751 C2055 1.720 . S
C6753 C2199 1.720 . S
C6769 C2091 1.720 . S
C6771 C2235 1.720 . S
C6787 C2271 1.720 . S
C6789 C2127 1.720 . S
C6805 C2523 1.720 . S
C6807 C2379 1.720 . S
C6823 C2883 1.720 . S
C6825 C3027 1.720 . S
C6841 C2919 1.720 . S
C6843 C3063 1.720 . S
C6859 C2955 1.719 1_556 S
C6861 C3099 1.719 1_554 S
C6877 C3135 1.720 . S
C6879 C2991 1.720 . S
C6895 C3387 1.720 . S
C6897 C3243 1.720 . S
