# Generated by pormake.
# Topology gme, (4)-cn, num edge types: 1
# Building blocks:
#     Node 0, Type 0, BuildingBlock: KUFVIS_clean_sbu_0, # of connection points: 4
#     Node 1, Type 0, BuildingBlock: KUFVIS_clean_sbu_0, # of connection points: 4
#     Node 2, Type 0, BuildingBlock: KUFVIS_clean_sbu_0, # of connection points: 4
#     Node 3, Type 0, BuildingBlock: KUFVIS_clean_sbu_0, # of connection points: 4
#     Node 4, Type 0, BuildingBlock: KUFVIS_clean_sbu_0, # of connection points: 4
#     Node 5, Type 0, BuildingBlock: KUFVIS_clean_sbu_0, # of connection points: 4
#     Node 6, Type 0, BuildingBlock: KUFVIS_clean_sbu_0, # of connection points: 4
#     Node 7, Type 0, BuildingBlock: KUFVIS_clean_sbu_0, # of connection points: 4
#     Node 8, Type 0, BuildingBlock: KUFVIS_clean_sbu_0, # of connection points: 4
#     Node 9, Type 0, BuildingBlock: KUFVIS_clean_sbu_0, # of connection points: 4
#     Node 10, Type 0, BuildingBlock: KUFVIS_clean_sbu_0, # of connection points: 4
#     Node 11, Type 0, BuildingBlock: KUFVIS_clean_sbu_0, # of connection points: 4
#     Node 12, Type 0, BuildingBlock: KUFVIS_clean_sbu_0, # of connection points: 4
#     Node 13, Type 0, BuildingBlock: KUFVIS_clean_sbu_0, # of connection points: 4
#     Node 14, Type 0, BuildingBlock: KUFVIS_clean_sbu_0, # of connection points: 4
#     Node 15, Type 0, BuildingBlock: KUFVIS_clean_sbu_0, # of connection points: 4
#     Node 16, Type 0, BuildingBlock: KUFVIS_clean_sbu_0, # of connection points: 4
#     Node 17, Type 0, BuildingBlock: KUFVIS_clean_sbu_0, # of connection points: 4
#     Node 18, Type 0, BuildingBlock: KUFVIS_clean_sbu_0, # of connection points: 4
#     Node 19, Type 0, BuildingBlock: KUFVIS_clean_sbu_0, # of connection points: 4
#     Node 20, Type 0, BuildingBlock: KUFVIS_clean_sbu_0, # of connection points: 4
#     Node 21, Type 0, BuildingBlock: KUFVIS_clean_sbu_0, # of connection points: 4
#     Node 22, Type 0, BuildingBlock: KUFVIS_clean_sbu_0, # of connection points: 4
#     Node 23, Type 0, BuildingBlock: KUFVIS_clean_sbu_0, # of connection points: 4
#     Edge 24, Type (0, 0), BuildingBlock: MIFKUJ_clean_linker_0, # of connection points: 2
#     Edge 25, Type (0, 0), BuildingBlock: MIFKUJ_clean_linker_0, # of connection points: 2
#     Edge 26, Type (0, 0), BuildingBlock: MIFKUJ_clean_linker_0, # of connection points: 2
#     Edge 27, Type (0, 0), BuildingBlock: MIFKUJ_clean_linker_0, # of connection points: 2
#     Edge 28, Type (0, 0), BuildingBlock: MIFKUJ_clean_linker_0, # of connection points: 2
#     Edge 29, Type (0, 0), BuildingBlock: MIFKUJ_clean_linker_0, # of connection points: 2
#     Edge 30, Type (0, 0), BuildingBlock: MIFKUJ_clean_linker_0, # of connection points: 2
#     Edge 31, Type (0, 0), BuildingBlock: MIFKUJ_clean_linker_0, # of connection points: 2
#     Edge 32, Type (0, 0), BuildingBlock: MIFKUJ_clean_linker_0, # of connection points: 2
#     Edge 33, Type (0, 0), BuildingBlock: MIFKUJ_clean_linker_0, # of connection points: 2
#     Edge 34, Type (0, 0), BuildingBlock: MIFKUJ_clean_linker_0, # of connection points: 2
#     Edge 35, Type (0, 0), BuildingBlock: MIFKUJ_clean_linker_0, # of connection points: 2
#     Edge 36, Type (0, 0), BuildingBlock: MIFKUJ_clean_linker_0, # of connection points: 2
#     Edge 37, Type (0, 0), BuildingBlock: MIFKUJ_clean_linker_0, # of connection points: 2
#     Edge 38, Type (0, 0), BuildingBlock: MIFKUJ_clean_linker_0, # of connection points: 2
#     Edge 39, Type (0, 0), BuildingBlock: MIFKUJ_clean_linker_0, # of connection points: 2
#     Edge 40, Type (0, 0), BuildingBlock: MIFKUJ_clean_linker_0, # of connection points: 2
#     Edge 41, Type (0, 0), BuildingBlock: MIFKUJ_clean_linker_0, # of connection points: 2
#     Edge 42, Type (0, 0), BuildingBlock: MIFKUJ_clean_linker_0, # of connection points: 2
#     Edge 43, Type (0, 0), BuildingBlock: MIFKUJ_clean_linker_0, # of connection points: 2
#     Edge 44, Type (0, 0), BuildingBlock: MIFKUJ_clean_linker_0, # of connection points: 2
#     Edge 45, Type (0, 0), BuildingBlock: MIFKUJ_clean_linker_0, # of connection points: 2
#     Edge 46, Type (0, 0), BuildingBlock: MIFKUJ_clean_linker_0, # of connection points: 2
#     Edge 47, Type (0, 0), BuildingBlock: MIFKUJ_clean_linker_0, # of connection points: 2
#     Edge 48, Type (0, 0), BuildingBlock: MIFKUJ_clean_linker_0, # of connection points: 2
#     Edge 49, Type (0, 0), BuildingBlock: MIFKUJ_clean_linker_0, # of connection points: 2
#     Edge 50, Type (0, 0), BuildingBlock: MIFKUJ_clean_linker_0, # of connection points: 2
#     Edge 51, Type (0, 0), BuildingBlock: MIFKUJ_clean_linker_0, # of connection points: 2
#     Edge 52, Type (0, 0), BuildingBlock: MIFKUJ_clean_linker_0, # of connection points: 2
#     Edge 53, Type (0, 0), BuildingBlock: MIFKUJ_clean_linker_0, # of connection points: 2
#     Edge 54, Type (0, 0), BuildingBlock: MIFKUJ_clean_linker_0, # of connection points: 2
#     Edge 55, Type (0, 0), BuildingBlock: MIFKUJ_clean_linker_0, # of connection points: 2
#     Edge 56, Type (0, 0), BuildingBlock: MIFKUJ_clean_linker_0, # of connection points: 2
#     Edge 57, Type (0, 0), BuildingBlock: MIFKUJ_clean_linker_0, # of connection points: 2
#     Edge 58, Type (0, 0), BuildingBlock: MIFKUJ_clean_linker_0, # of connection points: 2
#     Edge 59, Type (0, 0), BuildingBlock: MIFKUJ_clean_linker_0, # of connection points: 2
#     Edge 60, Type (0, 0), BuildingBlock: MIFKUJ_clean_linker_0, # of connection points: 2
#     Edge 61, Type (0, 0), BuildingBlock: MIFKUJ_clean_linker_0, # of connection points: 2
#     Edge 62, Type (0, 0), BuildingBlock: MIFKUJ_clean_linker_0, # of connection points: 2
#     Edge 63, Type (0, 0), BuildingBlock: MIFKUJ_clean_linker_0, # of connection points: 2
#     Edge 64, Type (0, 0), BuildingBlock: MIFKUJ_clean_linker_0, # of connection points: 2
#     Edge 65, Type (0, 0), BuildingBlock: MIFKUJ_clean_linker_0, # of connection points: 2
#     Edge 66, Type (0, 0), BuildingBlock: MIFKUJ_clean_linker_0, # of connection points: 2
#     Edge 67, Type (0, 0), BuildingBlock: MIFKUJ_clean_linker_0, # of connection points: 2
#     Edge 68, Type (0, 0), BuildingBlock: MIFKUJ_clean_linker_0, # of connection points: 2
#     Edge 69, Type (0, 0), BuildingBlock: MIFKUJ_clean_linker_0, # of connection points: 2
#     Edge 70, Type (0, 0), BuildingBlock: MIFKUJ_clean_linker_0, # of connection points: 2
#     Edge 71, Type (0, 0), BuildingBlock: MIFKUJ_clean_linker_0, # of connection points: 2
# Relax obj value: 0.088
# Max RMSD: 0.121
# Mean RMSD: 0.121
data_MOF--net-gme--node1-KUFVIS_clean_sbu_0--edge1-MIFKUJ_clean_linker_0
_symmetry_space_group_name_H-M    P1
_symmetry_Int_Tables_number       1
_symmetry_cell_setting            triclinic
loop_
_symmetry_equiv_pos_as_xyz
'x, y, z'
_cell_length_a     71.921487
_cell_length_b     71.908962
_cell_length_c     73.129467
_cell_angle_alpha  90.000074
_cell_angle_beta   89.997646
_cell_angle_gamma 120.02148
loop_
_atom_site_label
_atom_site_type_symbol
_atom_site_fract_x
_atom_site_fract_y
_atom_site_fract_z
_atom_type_partial_charge
Mn0 Mn 0.4005 0.06406 0.11351 0.0
Mn1 Mn 0.44559 0.09769 0.13657 0.0
C2 C 0.42662 0.05476 0.11803 0.0
C3 C 0.38252 0.05421 0.08552 0.0
C4 C 0.40221 0.06991 0.15475 0.0
O5 O 0.40021 0.09227 0.114 0.0
O6 O 0.43292 0.11431 0.12599 0.0
C7 C 0.47316 0.12366 0.10587 0.0
N8 N 0.46976 0.11064 0.12051 0.0
C9 C 0.50436 0.11354 0.11676 0.0
C10 C 0.50828 0.12707 0.10169 0.0
C11 C 0.49258 0.1321 0.09619 0.0
C12 C 0.48472 0.10564 0.12588 0.0
H13 H 0.46111 0.12755 0.10163 0.0
C14 C 0.41523 0.11088 0.11875 0.0
O15 O 0.37197 0.04883 0.10086 0.0
O16 O 0.40324 0.06558 0.08654 0.0
N17 N 0.45953 0.0837 0.14752 0.0
C18 C 0.45264 0.06928 0.16155 0.0
C19 C 0.46623 0.06212 0.16837 0.0
C20 C 0.4868 0.07001 0.16087 0.0
C21 C 0.49353 0.08481 0.14644 0.0
C22 C 0.47935 0.09147 0.14027 0.0
H23 H 0.43691 0.06329 0.16747 0.0
O24 O 0.40717 0.04017 0.1139 0.0
O25 O 0.43022 0.07433 0.11908 0.0
O26 O 0.39191 0.05911 0.14069 0.0
O27 O 0.4218 0.08498 0.15436 0.0
C28 C 0.5136 0.09293 0.13773 0.0
C29 C 0.51898 0.10723 0.12286 0.0
H30 H 0.52321 0.13354 0.09414 0.0
H31 H 0.49546 0.14246 0.08453 0.0
H32 H 0.46087 0.05054 0.17939 0.0
H33 H 0.49725 0.0645 0.16623 0.0
H34 H 0.52485 0.088 0.14214 0.0
H35 H 0.5343 0.11307 0.11608 0.0
Mn36 Mn 0.3381 0.4081 0.61859 0.0
Mn37 Mn 0.33953 0.45095 0.63868 0.0
C38 C 0.37099 0.4373 0.62635 0.0
C39 C 0.33581 0.39069 0.59105 0.0
C40 C 0.32808 0.4095 0.65878 0.0
O41 O 0.30773 0.40274 0.61513 0.0
O42 O 0.31187 0.43398 0.62555 0.0
C43 C 0.34026 0.47464 0.60533 0.0
N44 N 0.34911 0.47408 0.62164 0.0
C45 C 0.3766 0.51115 0.61879 0.0
C46 C 0.36769 0.51219 0.60203 0.0
C47 C 0.34949 0.49382 0.59524 0.0
C48 C 0.3667 0.49158 0.62822 0.0
H49 H 0.32626 0.46054 0.60009 0.0
C50 C 0.30073 0.41562 0.61794 0.0
O51 O 0.32999 0.38005 0.60635 0.0
O52 O 0.34287 0.41112 0.59192 0.0
N53 N 0.36531 0.46921 0.65185 0.0
C54 C 0.37279 0.46509 0.66755 0.0
C55 C 0.39108 0.48174 0.67603 0.0
C56 C 0.4012 0.50244 0.66842 0.0
C57 C 0.39351 0.50619 0.65207 0.0
C58 C 0.37514 0.48906 0.64433 0.0
H59 H 0.36477 0.44928 0.67363 0.0
O60 O 0.3692 0.41881 0.6228 0.0
O61 O 0.35356 0.43842 0.62439 0.0
O62 O 0.33171 0.39985 0.64577 0.0
O63 O 0.32982 0.42803 0.65724 0.0
C64 C 0.40346 0.52621 0.64308 0.0
C65 C 0.39509 0.52865 0.62638 0.0
H66 H 0.37479 0.52695 0.59419 0.0
H67 H 0.34258 0.49446 0.58227 0.0
H68 H 0.39716 0.47872 0.68854 0.0
H69 H 0.41474 0.51544 0.67528 0.0
H70 H 0.41776 0.53973 0.64874 0.0
H71 H 0.40308 0.54401 0.61943 0.0
Mn72 Mn 0.92998 0.32981 0.11646 0.0
Mn73 Mn 0.89023 0.33216 0.13889 0.0
C74 C 0.93367 0.36301 0.1231 0.0
C75 C 0.94336 0.32618 0.0884 0.0
C76 C 0.92273 0.32323 0.15761 0.0
O77 O 0.905 0.29903 0.11491 0.0
O78 O 0.87907 0.30347 0.12763 0.0
C79 C 0.86367 0.329 0.10684 0.0
N80 N 0.8745 0.33952 0.12222 0.0
C81 C 0.86355 0.36592 0.11875 0.0
C82 C 0.85216 0.35531 0.10292 0.0
C83 C 0.8523 0.33682 0.0969 0.0
C84 C 0.87465 0.35742 0.12802 0.0
H85 H 0.86371 0.31475 0.10222 0.0
C86 C 0.88552 0.29192 0.1196 0.0
O87 O 0.94943 0.32152 0.10364 0.0
O88 O 0.92958 0.33271 0.08957 0.0
N89 N 0.89818 0.35888 0.15059 0.0
C90 C 0.91068 0.36767 0.16568 0.0
C91 C 0.91203 0.38609 0.17361 0.0
C92 C 0.90039 0.39511 0.16601 0.0
C93 C 0.88799 0.38605 0.1503 0.0
C94 C 0.88695 0.3675 0.14321 0.0
H95 H 0.91927 0.36049 0.17178 0.0
O96 O 0.95023 0.36127 0.11885 0.0
O97 O 0.91517 0.34529 0.1226 0.0
O98 O 0.93442 0.32548 0.14366 0.0
O99 O 0.90581 0.32482 0.15705 0.0
C100 C 0.87658 0.39467 0.14145 0.0
C101 C 0.8645 0.3847 0.12559 0.0
H102 H 0.84336 0.36129 0.09523 0.0
H103 H 0.84363 0.32859 0.08467 0.0
H104 H 0.92171 0.39311 0.18571 0.0
H105 H 0.90077 0.40879 0.17246 0.0
H106 H 0.87719 0.40909 0.1466 0.0
H107 H 0.85604 0.39163 0.11874 0.0
Mn108 Mn 0.59174 0.92625 0.61383 0.0
Mn109 Mn 0.55091 0.88656 0.63744 0.0
C110 C 0.56011 0.92696 0.61862 0.0
C111 C 0.60916 0.93973 0.58586 0.0
C112 C 0.59039 0.92272 0.65566 0.0
O113 O 0.5998 0.90272 0.61385 0.0
O114 O 0.57094 0.8772 0.6287 0.0
C115 C 0.53043 0.8555 0.60722 0.0
N116 N 0.52913 0.86769 0.62087 0.0
C117 C 0.49095 0.85124 0.61711 0.0
C118 C 0.49182 0.83846 0.60302 0.0
C119 C 0.5117 0.84078 0.59792 0.0
C120 C 0.51023 0.86615 0.62544 0.0
H121 H 0.54561 0.85685 0.60357 0.0
C122 C 0.58872 0.88375 0.62027 0.0
O123 O 0.61929 0.94674 0.60128 0.0
O124 O 0.58921 0.92474 0.58677 0.0
N125 N 0.52992 0.89299 0.64672 0.0
C126 C 0.53175 0.9062 0.66082 0.0
C127 C 0.51339 0.90629 0.66723 0.0
C128 C 0.49324 0.89224 0.65953 0.0
C129 C 0.49169 0.87834 0.6454 0.0
C130 C 0.51062 0.87947 0.63918 0.0
H131 H 0.54711 0.91663 0.6671 0.0
O132 O 0.57778 0.94438 0.61452 0.0
O133 O 0.5613 0.90956 0.61937 0.0
O134 O 0.60009 0.93274 0.64109 0.0
O135 O 0.57227 0.90535 0.65553 0.0
C136 C 0.47201 0.86288 0.6377 0.0
C137 C 0.47166 0.84935 0.62355 0.0
H138 H 0.47732 0.82676 0.5961 0.0
H139 H 0.51252 0.83097 0.58708 0.0
H140 H 0.51471 0.91691 0.67826 0.0
H141 H 0.47905 0.89205 0.66472 0.0
H142 H 0.45705 0.86108 0.64275 0.0
H143 H 0.45645 0.8373 0.61787 0.0
Mn144 Mn 0.66378 0.59173 0.11796 0.0
Mn145 Mn 0.65877 0.54918 0.1417 0.0
C146 C 0.62989 0.5633 0.12438 0.0
C147 C 0.66853 0.60879 0.08974 0.0
C148 C 0.66838 0.59113 0.15956 0.0
O149 O 0.69402 0.59608 0.117 0.0
O150 O 0.6883 0.56631 0.13185 0.0
C151 C 0.66332 0.52561 0.11044 0.0
N152 N 0.65198 0.52609 0.12516 0.0
C153 C 0.62519 0.48896 0.121 0.0
C154 C 0.63663 0.48801 0.10584 0.0
C155 C 0.65574 0.50645 0.10049 0.0
C156 C 0.63349 0.50853 0.13031 0.0
H157 H 0.67804 0.53974 0.10633 0.0
C158 C 0.70049 0.58376 0.12326 0.0
O159 O 0.67353 0.61964 0.10493 0.0
O160 O 0.66118 0.58832 0.09103 0.0
N161 N 0.63123 0.53075 0.15228 0.0
C162 C 0.62177 0.53459 0.1668 0.0
C163 C 0.60268 0.51772 0.17404 0.0
C164 C 0.59367 0.4971 0.16637 0.0
C165 C 0.60349 0.4936 0.15127 0.0
C166 C 0.62268 0.51092 0.14485 0.0
H167 H 0.62891 0.55033 0.17296 0.0
O168 O 0.63263 0.58194 0.11985 0.0
O169 O 0.64707 0.56153 0.12437 0.0
O170 O 0.66794 0.6009 0.14508 0.0
O171 O 0.66542 0.57206 0.15967 0.0
C172 C 0.59502 0.47361 0.14236 0.0
C173 C 0.60578 0.47133 0.12714 0.0
H174 H 0.63084 0.47325 0.09815 0.0
H175 H 0.66462 0.50587 0.08877 0.0
H176 H 0.59512 0.52052 0.18569 0.0
H177 H 0.57939 0.48394 0.1723 0.0
H178 H 0.58012 0.45995 0.14698 0.0
H179 H 0.59897 0.45597 0.12024 0.0
Mn180 Mn 0.07012 0.67017 0.61712 0.0
Mn181 Mn 0.11144 0.6761 0.64307 0.0
C182 C 0.07265 0.64032 0.62542 0.0
C183 C 0.05643 0.66985 0.58803 0.0
C184 C 0.07348 0.67846 0.65824 0.0
O185 O 0.09162 0.70238 0.61525 0.0
O186 O 0.11918 0.70361 0.63092 0.0
C187 C 0.1431 0.68387 0.61398 0.0
N188 N 0.13122 0.67215 0.62855 0.0
C189 C 0.14897 0.6514 0.62896 0.0
C190 C 0.16147 0.66324 0.61399 0.0
C191 C 0.15834 0.67938 0.60633 0.0
C192 C 0.1336 0.65613 0.63563 0.0
H193 H 0.14107 0.69663 0.60835 0.0
C194 C 0.11082 0.71246 0.62137 0.0
O195 O 0.0483 0.6734 0.60259 0.0
O196 O 0.07256 0.66681 0.59043 0.0
N197 N 0.10618 0.65065 0.65566 0.0
C198 C 0.09252 0.64044 0.66984 0.0
C199 C 0.09298 0.62328 0.67856 0.0
C200 C 0.10785 0.61719 0.67293 0.0
C201 C 0.12197 0.62819 0.6585 0.0
C202 C 0.12039 0.64478 0.65003 0.0
H203 H 0.08142 0.6454 0.6745 0.0
O204 O 0.05446 0.63818 0.62013 0.0
O205 O 0.08886 0.65978 0.62527 0.0
O206 O 0.06242 0.67387 0.64355 0.0
O207 O 0.09197 0.68018 0.65925 0.0
C208 C 0.13791 0.62371 0.65248 0.0
C209 C 0.15144 0.63537 0.63775 0.0
H210 H 0.1735 0.66006 0.60825 0.0
H211 H 0.16783 0.68849 0.59472 0.0
H212 H 0.08213 0.61498 0.68977 0.0
H213 H 0.10839 0.60415 0.67986 0.0
H214 H 0.14001 0.61149 0.65922 0.0
H215 H 0.16391 0.63211 0.6334 0.0
Mn216 Mn 0.93379 0.59238 0.3874 0.0
Mn217 Mn 0.89172 0.55084 0.36637 0.0
C218 C 0.93516 0.56161 0.38057 0.0
C219 C 0.95 0.60992 0.41472 0.0
C220 C 0.92512 0.59031 0.34607 0.0
O221 O 0.91014 0.59987 0.39041 0.0
O222 O 0.88334 0.57117 0.37644 0.0
C223 C 0.86548 0.53154 0.39959 0.0
N224 N 0.87511 0.52957 0.38425 0.0
C225 C 0.86092 0.49187 0.38974 0.0
C226 C 0.85074 0.49344 0.40554 0.0
C227 C 0.85311 0.51339 0.41052 0.0
C228 C 0.87315 0.51054 0.37946 0.0
H229 H 0.86722 0.54684 0.40342 0.0
C230 C 0.89079 0.58904 0.38493 0.0
O231 O 0.95518 0.62016 0.39921 0.0
O232 O 0.93537 0.58983 0.41425 0.0
N233 N 0.8967 0.52945 0.35574 0.0
C234 C 0.90804 0.53082 0.34039 0.0
C235 C 0.9071 0.51219 0.33338 0.0
C236 C 0.89434 0.49237 0.34213 0.0
C237 C 0.88301 0.4914 0.358 0.0
C238 C 0.88429 0.5104 0.36418 0.0
H239 H 0.9175 0.54595 0.33341 0.0
O240 O 0.95255 0.57964 0.38382 0.0
O241 O 0.9172 0.56183 0.38202 0.0
O242 O 0.93664 0.60048 0.35994 0.0
O243 O 0.90824 0.5718 0.34719 0.0
C244 C 0.87046 0.47229 0.36791 0.0
C245 C 0.85956 0.47256 0.38386 0.0
H246 H 0.84115 0.47947 0.41399 0.0
H247 H 0.84537 0.51476 0.42273 0.0
H248 H 0.9159 0.51305 0.3211 0.0
H249 H 0.89303 0.47791 0.33643 0.0
H250 H 0.86927 0.45735 0.36349 0.0
H251 H 0.85017 0.45784 0.39149 0.0
Mn252 Mn 0.33877 0.93704 0.88601 0.0
Mn253 Mn 0.34367 0.89801 0.86511 0.0
C254 C 0.37256 0.94121 0.88137 0.0
C255 C 0.33357 0.95046 0.91346 0.0
C256 C 0.33319 0.92876 0.84507 0.0
O257 O 0.30829 0.91113 0.88688 0.0
O258 O 0.31486 0.88552 0.87642 0.0
C259 C 0.34232 0.87266 0.89748 0.0
N260 N 0.35268 0.88406 0.88226 0.0
C261 C 0.38154 0.87673 0.88676 0.0
C262 C 0.37114 0.86483 0.90244 0.0
C263 C 0.3515 0.86288 0.90787 0.0
C264 C 0.37174 0.88633 0.87708 0.0
H265 H 0.32716 0.87102 0.90163 0.0
C266 C 0.30241 0.89151 0.88346 0.0
O267 O 0.32922 0.95607 0.89784 0.0
O268 O 0.3405 0.93697 0.91301 0.0
N269 N 0.37098 0.90788 0.85368 0.0
C270 C 0.37907 0.92012 0.83835 0.0
C271 C 0.3988 0.92388 0.83125 0.0
C272 C 0.40984 0.91475 0.83979 0.0
C273 C 0.40103 0.90191 0.85537 0.0
C274 C 0.38135 0.89879 0.86186 0.0
H275 H 0.37054 0.92696 0.83159 0.0
O276 O 0.37052 0.95781 0.88473 0.0
O277 O 0.35487 0.92287 0.88119 0.0
O278 O 0.33552 0.94107 0.85855 0.0
O279 O 0.33483 0.9119 0.84641 0.0
C280 C 0.41097 0.89205 0.86467 0.0
C281 C 0.40123 0.87947 0.88036 0.0
H282 H 0.37812 0.85717 0.91043 0.0
H283 H 0.34341 0.85377 0.91999 0.0
H284 H 0.40545 0.93373 0.81917 0.0
H285 H 0.42506 0.9177 0.83428 0.0
H286 H 0.42619 0.89417 0.85996 0.0
H287 H 0.40911 0.8721 0.88748 0.0
Mn288 Mn 0.39287 0.34198 0.38637 0.0
Mn289 Mn 0.43439 0.34566 0.36212 0.0
C290 C 0.42254 0.37539 0.38107 0.0
C291 C 0.37639 0.33626 0.41488 0.0
C292 C 0.39191 0.33638 0.34531 0.0
O293 O 0.38732 0.31129 0.38573 0.0
O294 O 0.41858 0.31683 0.37375 0.0
C295 C 0.4612 0.3439 0.39202 0.0
N296 N 0.45898 0.35424 0.37731 0.0
C297 C 0.49574 0.38271 0.37969 0.0
C298 C 0.49846 0.37229 0.39479 0.0
C299 C 0.4811 0.35283 0.40101 0.0
C300 C 0.47556 0.37299 0.37124 0.0
H301 H 0.44787 0.32898 0.39686 0.0
C302 C 0.40029 0.30479 0.38131 0.0
O303 O 0.36538 0.33271 0.39989 0.0
O304 O 0.39668 0.3429 0.41319 0.0
N305 N 0.45113 0.37288 0.35031 0.0
C306 C 0.44544 0.38159 0.33636 0.0
C307 C 0.4608 0.40141 0.32891 0.0
C308 C 0.48186 0.41199 0.33578 0.0
C309 C 0.48736 0.40269 0.3501 0.0
C310 C 0.47143 0.38283 0.35688 0.0
H311 H 0.42932 0.37351 0.33096 0.0
O312 O 0.40444 0.37375 0.38595 0.0
O313 O 0.42277 0.35748 0.37988 0.0
O314 O 0.3835 0.33945 0.35954 0.0
O315 O 0.41005 0.33717 0.34517 0.0
C316 C 0.50793 0.41255 0.35813 0.0
C317 C 0.5121 0.40258 0.37294 0.0
H318 H 0.51374 0.37919 0.40183 0.0
H319 H 0.48305 0.34476 0.41272 0.0
H320 H 0.45641 0.40851 0.31789 0.0
H321 H 0.49364 0.42729 0.33002 0.0
H322 H 0.52054 0.42796 0.35323 0.0
H323 H 0.52786 0.41049 0.37921 0.0
Mn324 Mn 0.05814 0.40051 0.8878 0.0
Mn325 Mn 0.09432 0.44615 0.8668 0.0
C326 C 0.04971 0.42706 0.88211 0.0
C327 C 0.04581 0.38193 0.91539 0.0
C328 C 0.06781 0.40342 0.84711 0.0
O329 O 0.08606 0.39981 0.88955 0.0
O330 O 0.10954 0.43292 0.87911 0.0
C331 C 0.1173 0.47263 0.89902 0.0
N332 N 0.10587 0.46984 0.88341 0.0
C333 C 0.10888 0.50454 0.88672 0.0
C334 C 0.1208 0.50785 0.90278 0.0
C335 C 0.12497 0.49179 0.90898 0.0
C336 C 0.1017 0.48515 0.87735 0.0
H337 H 0.12051 0.46031 0.90383 0.0
C338 C 0.10517 0.41497 0.88642 0.0
O339 O 0.04161 0.37168 0.89991 0.0
O340 O 0.05728 0.40266 0.91471 0.0
N341 N 0.08179 0.46073 0.85447 0.0
C342 C 0.06883 0.45443 0.83945 0.0
C343 C 0.06261 0.46842 0.83183 0.0
C344 C 0.06989 0.48876 0.83961 0.0
C345 C 0.08322 0.49491 0.85504 0.0
C346 C 0.08903 0.48037 0.86197 0.0
H347 H 0.06328 0.43887 0.83333 0.0
O348 O 0.03461 0.40756 0.88545 0.0
O349 O 0.06922 0.43043 0.88254 0.0
O350 O 0.05568 0.39274 0.86047 0.0
O351 O 0.08308 0.42288 0.84848 0.0
C352 C 0.09067 0.51474 0.86401 0.0
C353 C 0.10345 0.51953 0.87986 0.0
H354 H 0.12665 0.52256 0.91055 0.0
H355 H 0.13406 0.49418 0.92141 0.0
H356 H 0.05225 0.46356 0.81996 0.0
H357 H 0.06504 0.49949 0.83368 0.0
H358 H 0.08637 0.52628 0.85902 0.0
H359 H 0.10876 0.53467 0.88682 0.0
Mn360 Mn 0.65714 0.05845 0.38498 0.0
Mn361 Mn 0.65478 0.09926 0.3647 0.0
C362 C 0.62411 0.05589 0.37949 0.0
C363 C 0.65971 0.04313 0.41244 0.0
C364 C 0.66415 0.06808 0.34407 0.0
O365 O 0.68799 0.08347 0.38726 0.0
O366 O 0.68339 0.10996 0.37587 0.0
C367 C 0.65793 0.12466 0.3976 0.0
N368 N 0.64716 0.11397 0.38225 0.0
C369 C 0.62063 0.12458 0.38664 0.0
C370 C 0.63146 0.13577 0.40246 0.0
C371 C 0.65012 0.13569 0.40803 0.0
C372 C 0.62898 0.11359 0.37698 0.0
H373 H 0.67242 0.12484 0.40179 0.0
C374 C 0.69495 0.10322 0.38345 0.0
O375 O 0.66504 0.03812 0.39697 0.0
O376 O 0.65362 0.05726 0.41184 0.0
N377 N 0.62782 0.09128 0.3534 0.0
C378 C 0.61882 0.07905 0.3382 0.0
C379 C 0.59954 0.07675 0.33132 0.0
C380 C 0.59014 0.08759 0.33971 0.0
C381 C 0.59992 0.10038 0.35511 0.0
C382 C 0.6188 0.10167 0.36165 0.0
H383 H 0.6262 0.07098 0.33149 0.0
O384 O 0.62528 0.03871 0.38232 0.0
O385 O 0.64218 0.07385 0.38016 0.0
O386 O 0.66182 0.05558 0.35744 0.0
O387 O 0.66232 0.08481 0.34565 0.0
C388 C 0.59165 0.11192 0.36422 0.0
C389 C 0.60194 0.12395 0.38002 0.0
H390 H 0.62557 0.14444 0.41045 0.0
H391 H 0.65855 0.14425 0.42024 0.0
H392 H 0.59189 0.06666 0.31958 0.0
H393 H 0.57535 0.08588 0.33427 0.0
H394 H 0.57725 0.11141 0.35926 0.0
H395 H 0.59523 0.13249 0.38708 0.0
Mn396 Mn 0.60698 0.66059 0.88843 0.0
Mn397 Mn 0.56285 0.65283 0.8657 0.0
C398 C 0.57876 0.62607 0.88397 0.0
C399 C 0.62498 0.66718 0.91634 0.0
C400 C 0.60521 0.66465 0.8471 0.0
O401 O 0.61006 0.69037 0.88816 0.0
O402 O 0.57813 0.68237 0.87595 0.0
C403 C 0.53735 0.65451 0.89676 0.0
N404 N 0.5392 0.64388 0.8821 0.0
C405 C 0.50322 0.61442 0.88633 0.0
C406 C 0.50089 0.6251 0.90143 0.0
C407 C 0.51805 0.6452 0.9067 0.0
C408 C 0.52283 0.62449 0.87696 0.0
H409 H 0.55052 0.66996 0.90082 0.0
C410 C 0.59623 0.69558 0.88325 0.0
O411 O 0.63541 0.67165 0.90094 0.0
O412 O 0.60444 0.65945 0.91541 0.0
N413 N 0.54646 0.62489 0.85503 0.0
C414 C 0.55176 0.61619 0.84081 0.0
C415 C 0.53648 0.59593 0.83404 0.0
C416 C 0.51589 0.58492 0.84185 0.0
C417 C 0.5108 0.59419 0.85647 0.0
C418 C 0.52662 0.61451 0.86252 0.0
H419 H 0.5675 0.62466 0.83465 0.0
O420 O 0.59772 0.62931 0.88791 0.0
O421 O 0.57685 0.64309 0.88306 0.0
O422 O 0.61526 0.66366 0.86116 0.0
O423 O 0.58612 0.66158 0.84766 0.0
C424 C 0.49078 0.58394 0.86544 0.0
C425 C 0.48702 0.59401 0.88041 0.0
H426 H 0.48606 0.61795 0.90917 0.0
H427 H 0.5164 0.6535 0.91838 0.0
H428 H 0.54054 0.58886 0.82278 0.0
H429 H 0.50413 0.56935 0.83653 0.0
H430 H 0.47828 0.56817 0.86114 0.0
H431 H 0.47168 0.58582 0.88739 0.0
Mn432 Mn 0.59851 0.9322 0.88033 0.0
Mn433 Mn 0.55992 0.89511 0.85343 0.0
C434 C 0.56752 0.93377 0.87461 0.0
C435 C 0.61356 0.94239 0.90947 0.0
C436 C 0.60262 0.93092 0.83922 0.0
O437 O 0.60587 0.90812 0.87882 0.0
O438 O 0.57582 0.8824 0.86511 0.0
C439 C 0.53121 0.86295 0.88049 0.0
N440 N 0.53435 0.87716 0.86689 0.0
C441 C 0.49671 0.86574 0.86592 0.0
C442 C 0.49302 0.85091 0.87989 0.0
C443 C 0.51039 0.84967 0.88733 0.0
C444 C 0.51786 0.87893 0.86002 0.0
H445 H 0.54447 0.86162 0.88592 0.0
C446 C 0.59384 0.88883 0.87321 0.0
O447 O 0.62492 0.95105 0.89486 0.0
O448 O 0.59371 0.92758 0.90713 0.0
N449 N 0.54345 0.90567 0.84134 0.0
C450 C 0.54966 0.92061 0.82776 0.0
C451 C 0.5343 0.92434 0.8193 0.0
C452 C 0.51266 0.91234 0.82457 0.0
C453 C 0.5066 0.89674 0.83828 0.0
C454 C 0.52267 0.89401 0.84647 0.0
H455 H 0.56617 0.9296 0.82337 0.0
O456 O 0.58473 0.95057 0.88053 0.0
O457 O 0.56898 0.91664 0.87265 0.0
O458 O 0.60925 0.94165 0.85403 0.0
O459 O 0.58528 0.91286 0.83806 0.0
C460 C 0.48516 0.88339 0.8438 0.0
C461 C 0.48021 0.86767 0.85736 0.0
H462 H 0.47694 0.84038 0.88497 0.0
H463 H 0.50768 0.83828 0.89812 0.0
H464 H 0.5391 0.93628 0.8086 0.0
H465 H 0.50082 0.91509 0.81787 0.0
H466 H 0.47231 0.88484 0.83749 0.0
H467 H 0.4636 0.85695 0.8609 0.0
Mn468 Mn 0.66187 0.59476 0.38778 0.0
Mn469 Mn 0.66133 0.55325 0.36566 0.0
C470 C 0.62933 0.56476 0.38058 0.0
C471 C 0.66447 0.61222 0.4154 0.0
C472 C 0.66864 0.5937 0.34647 0.0
O473 O 0.69278 0.6014 0.39031 0.0
O474 O 0.69015 0.57252 0.37609 0.0
C475 C 0.66697 0.53224 0.3983 0.0
N476 N 0.65571 0.53118 0.38299 0.0
C477 C 0.63112 0.49353 0.38761 0.0
C478 C 0.64252 0.49415 0.40338 0.0
C479 C 0.66047 0.51362 0.40879 0.0
C480 C 0.63829 0.51262 0.37779 0.0
H481 H 0.68082 0.54717 0.40245 0.0
C482 C 0.70089 0.59025 0.3847 0.0
O483 O 0.66948 0.62261 0.39998 0.0
O484 O 0.65807 0.59189 0.41467 0.0
N485 N 0.63479 0.53284 0.35458 0.0
C486 C 0.62525 0.53513 0.33932 0.0
C487 C 0.60724 0.51708 0.33195 0.0
C488 C 0.59944 0.49689 0.34022 0.0
C489 C 0.60937 0.49497 0.35599 0.0
C490 C 0.62743 0.51343 0.36256 0.0
H491 H 0.6315 0.55055 0.33271 0.0
O492 O 0.63048 0.58289 0.38451 0.0
O493 O 0.64725 0.56439 0.38173 0.0
O494 O 0.66693 0.60335 0.36052 0.0
O495 O 0.66689 0.57512 0.34697 0.0
C496 C 0.60207 0.47544 0.36544 0.0
C497 C 0.61284 0.47476 0.38132 0.0
H498 H 0.63757 0.47982 0.41149 0.0
H499 H 0.66931 0.51426 0.42098 0.0
H500 H 0.59961 0.51864 0.31976 0.0
H501 H 0.58603 0.48286 0.33425 0.0
H502 H 0.58806 0.46091 0.3607 0.0
H503 H 0.60694 0.45972 0.3886 0.0
Mn504 Mn 0.06326 0.66089 0.88799 0.0
Mn505 Mn 0.10194 0.65742 0.86478 0.0
C506 C 0.05774 0.62737 0.87963 0.0
C507 C 0.04987 0.66398 0.91624 0.0
C508 C 0.07173 0.67035 0.84732 0.0
O509 O 0.08952 0.69079 0.89085 0.0
O510 O 0.11468 0.68515 0.87801 0.0
C511 C 0.12692 0.65556 0.89619 0.0
N512 N 0.11598 0.64695 0.88037 0.0
C513 C 0.12406 0.6183 0.88146 0.0
C514 C 0.13552 0.62691 0.89772 0.0
C515 C 0.13689 0.64558 0.90515 0.0
C516 C 0.11442 0.62892 0.87319 0.0
H517 H 0.12803 0.66993 0.90191 0.0
C518 C 0.10898 0.69693 0.88672 0.0
O519 O 0.04504 0.67034 0.90125 0.0
O520 O 0.06248 0.65604 0.91474 0.0
N521 N 0.09227 0.63142 0.85129 0.0
C522 C 0.07973 0.62461 0.83604 0.0
C523 C 0.0769 0.60626 0.8268 0.0
C524 C 0.08709 0.59525 0.83331 0.0
C525 C 0.09949 0.60224 0.84924 0.0
C526 C 0.10207 0.62084 0.85766 0.0
H527 H 0.07222 0.63329 0.83079 0.0
O528 O 0.0417 0.6299 0.88414 0.0
O529 O 0.07667 0.64444 0.88078 0.0
O530 O 0.05982 0.66739 0.86122 0.0
O531 O 0.08819 0.66797 0.84749 0.0
C532 C 0.10942 0.5915 0.85708 0.0
C533 C 0.12156 0.59944 0.87327 0.0
H534 H 0.14322 0.61925 0.90468 0.0
H535 H 0.14563 0.65228 0.91774 0.0
H536 H 0.0672 0.60083 0.81453 0.0
H537 H 0.08562 0.58167 0.82582 0.0
H538 H 0.1076 0.57699 0.8509 0.0
H539 H 0.12885 0.59087 0.87933 0.0
Mn540 Mn 0.40281 0.07349 0.38268 0.0
Mn541 Mn 0.44203 0.11557 0.36002 0.0
C542 C 0.43487 0.07436 0.37602 0.0
C543 C 0.38629 0.05854 0.41061 0.0
C544 C 0.40179 0.08042 0.34169 0.0
O545 O 0.3938 0.09629 0.38458 0.0
O546 O 0.42303 0.12428 0.37214 0.0
C547 C 0.46518 0.14394 0.39123 0.0
N548 N 0.46521 0.13298 0.37605 0.0
C549 C 0.5036 0.14946 0.37681 0.0
C550 C 0.50408 0.16115 0.39234 0.0
C551 C 0.48474 0.15813 0.39974 0.0
C552 C 0.4836 0.13504 0.36931 0.0
H553 H 0.45036 0.14198 0.39671 0.0
C554 C 0.40499 0.11616 0.38045 0.0
O555 O 0.3758 0.05198 0.39529 0.0
O556 O 0.40616 0.07373 0.40962 0.0
N557 N 0.46193 0.1096 0.34773 0.0
C558 C 0.45866 0.09693 0.33284 0.0
C559 C 0.4763 0.09708 0.32445 0.0
C560 C 0.49714 0.11079 0.33105 0.0
C561 C 0.50012 0.12404 0.34614 0.0
C562 C 0.48188 0.12265 0.35432 0.0
H563 H 0.44273 0.08681 0.3274 0.0
O564 O 0.41774 0.05636 0.38004 0.0
O565 O 0.43282 0.09127 0.37653 0.0
O566 O 0.39375 0.06827 0.35563 0.0
O567 O 0.41914 0.09856 0.34223 0.0
C568 C 0.52048 0.13908 0.35302 0.0
C569 C 0.52219 0.15194 0.36823 0.0
H570 H 0.5192 0.17242 0.3987 0.0
H571 H 0.48494 0.167 0.41177 0.0
H572 H 0.47387 0.08693 0.31272 0.0
H573 H 0.51075 0.11119 0.32433 0.0
H574 H 0.53492 0.14107 0.34657 0.0
H575 H 0.53786 0.16391 0.37313 0.0
Mn576 Mn 0.33887 0.41132 0.88976 0.0
Mn577 Mn 0.34317 0.45558 0.86981 0.0
C578 C 0.37255 0.43936 0.88194 0.0
C579 C 0.33607 0.39276 0.91674 0.0
C580 C 0.3288 0.4135 0.84971 0.0
O581 O 0.30935 0.40817 0.89384 0.0
O582 O 0.31559 0.44014 0.88322 0.0
C583 C 0.34617 0.48035 0.9031 0.0
N584 N 0.35438 0.47895 0.88672 0.0
C585 C 0.38359 0.51531 0.88917 0.0
C586 C 0.3754 0.51721 0.90604 0.0
C587 C 0.35665 0.49962 0.91306 0.0
C588 C 0.37248 0.49569 0.8799 0.0
H589 H 0.33174 0.46686 0.90852 0.0
C590 C 0.30361 0.42209 0.89106 0.0
O591 O 0.32913 0.38264 0.90129 0.0
O592 O 0.34424 0.41341 0.91644 0.0
N593 N 0.36907 0.47243 0.85633 0.0
C594 C 0.37544 0.46759 0.84035 0.0
C595 C 0.39383 0.48351 0.83142 0.0
C596 C 0.40535 0.5042 0.83898 0.0
C597 C 0.39878 0.50867 0.85561 0.0
C598 C 0.38012 0.49231 0.8637 0.0
H599 H 0.36638 0.45182 0.83432 0.0
O600 O 0.36956 0.42029 0.88505 0.0
O601 O 0.35582 0.44163 0.88412 0.0
O602 O 0.33171 0.40336 0.8627 0.0
O603 O 0.33182 0.43253 0.85126 0.0
C604 C 0.41001 0.52873 0.86447 0.0
C605 C 0.4025 0.53199 0.88131 0.0
H606 H 0.38345 0.53203 0.91376 0.0
H607 H 0.35028 0.50092 0.9261 0.0
H608 H 0.39893 0.47995 0.81861 0.0
H609 H 0.41903 0.51665 0.8318 0.0
H610 H 0.42457 0.54166 0.85856 0.0
H611 H 0.41144 0.54737 0.88814 0.0
Mn612 Mn 0.93574 0.33229 0.38889 0.0
Mn613 Mn 0.89964 0.33897 0.36467 0.0
C614 C 0.94163 0.36653 0.3838 0.0
C615 C 0.94608 0.32607 0.41746 0.0
C616 C 0.93124 0.32761 0.3476 0.0
O617 O 0.90936 0.30228 0.38828 0.0
O618 O 0.88529 0.30965 0.37541 0.0
C619 C 0.87131 0.33759 0.39461 0.0
N620 N 0.88428 0.34804 0.38014 0.0
C621 C 0.87747 0.37744 0.38317 0.0
C622 C 0.86395 0.36694 0.39806 0.0
C623 C 0.86091 0.34696 0.40383 0.0
C624 C 0.88736 0.36729 0.37449 0.0
H625 H 0.86896 0.32224 0.39907 0.0
C626 C 0.89032 0.29673 0.38309 0.0
O627 O 0.95291 0.32173 0.40249 0.0
O628 O 0.9331 0.33352 0.41572 0.0
N629 N 0.91139 0.36669 0.35354 0.0
C630 C 0.92612 0.37537 0.33982 0.0
C631 C 0.93145 0.39561 0.33276 0.0
C632 C 0.92147 0.40661 0.33976 0.0
C633 C 0.90642 0.39739 0.35392 0.0
C634 C 0.90162 0.37711 0.36032 0.0
H635 H 0.93372 0.36691 0.33428 0.0
O636 O 0.9574 0.36367 0.38849 0.0
O637 O 0.92288 0.34931 0.38257 0.0
O638 O 0.94217 0.32926 0.36191 0.0
O639 O 0.91482 0.33004 0.34751 0.0
C640 C 0.89629 0.40771 0.36219 0.0
C641 C 0.88187 0.39776 0.37683 0.0
H642 H 0.85597 0.37416 0.40526 0.0
H643 H 0.85057 0.33881 0.41536 0.0
H644 H 0.94314 0.40265 0.32188 0.0
H645 H 0.92557 0.42218 0.33424 0.0
H646 H 0.89976 0.42345 0.3576 0.0
H647 H 0.87447 0.40601 0.38328 0.0
Mn648 Mn 0.06234 0.40429 0.61807 0.0
Mn649 Mn 0.10338 0.44714 0.63838 0.0
C650 C 0.06006 0.43492 0.62355 0.0
C651 C 0.04729 0.38578 0.59089 0.0
C652 C 0.07232 0.40612 0.65859 0.0
O653 O 0.08728 0.39838 0.61605 0.0
O654 O 0.11438 0.43024 0.62574 0.0
C655 C 0.12816 0.4715 0.6059 0.0
N656 N 0.11756 0.47049 0.62163 0.0
C657 C 0.12775 0.50776 0.61926 0.0
C658 C 0.1389 0.50927 0.60308 0.0
C659 C 0.13895 0.49101 0.5963 0.0
C660 C 0.11698 0.48781 0.62804 0.0
H661 H 0.12841 0.45755 0.60076 0.0
C662 C 0.10723 0.41161 0.61861 0.0
O663 O 0.04205 0.37595 0.60657 0.0
O664 O 0.06127 0.40611 0.59111 0.0
N665 N 0.0949 0.46503 0.65098 0.0
C666 C 0.08267 0.46066 0.66633 0.0
C667 C 0.08021 0.477 0.67444 0.0
C668 C 0.09069 0.49776 0.6669 0.0
C669 C 0.10344 0.50193 0.65125 0.0
C670 C 0.10504 0.48494 0.64361 0.0
H671 H 0.07486 0.44484 0.67237 0.0
O672 O 0.04279 0.41668 0.6205 0.0
O673 O 0.07791 0.43461 0.62297 0.0
O674 O 0.05919 0.39678 0.64545 0.0
O675 O 0.08961 0.4242 0.6569 0.0
C676 C 0.11474 0.52232 0.643 0.0
C677 C 0.12692 0.52525 0.62702 0.0
H678 H 0.14739 0.52433 0.59573 0.0
H679 H 0.14744 0.49201 0.58379 0.0
H680 H 0.07039 0.47366 0.68656 0.0
H681 H 0.08886 0.51036 0.67325 0.0
H682 H 0.11399 0.53579 0.64874 0.0
H683 H 0.13531 0.54095 0.62066 0.0
Mn684 Mn 0.65578 0.05513 0.1124 0.0
Mn685 Mn 0.65572 0.09817 0.13063 0.0
C686 C 0.62327 0.05318 0.11904 0.0
C687 C 0.6575 0.03795 0.08587 0.0
C688 C 0.66539 0.0679 0.15252 0.0
O689 O 0.68667 0.07934 0.10873 0.0
O690 O 0.68325 0.10731 0.11788 0.0
C691 C 0.65628 0.12035 0.09636 0.0
N692 N 0.64714 0.1118 0.11281 0.0
C693 C 0.62105 0.12313 0.10908 0.0
C694 C 0.63026 0.13218 0.09213 0.0
C695 C 0.64789 0.13069 0.08571 0.0
C696 C 0.63005 0.11294 0.11903 0.0
H697 H 0.66988 0.11929 0.09142 0.0
C698 C 0.69409 0.09944 0.11085 0.0
O699 O 0.66273 0.03364 0.10168 0.0
O700 O 0.65145 0.05214 0.08555 0.0
N701 N 0.63016 0.09221 0.14344 0.0
C702 C 0.62261 0.08184 0.15968 0.0
C703 C 0.60522 0.08209 0.16814 0.0
C704 C 0.59591 0.09311 0.15986 0.0
C705 C 0.60362 0.10323 0.14297 0.0
C706 C 0.62124 0.10281 0.13537 0.0
H707 H 0.63005 0.07378 0.16629 0.0
O708 O 0.62433 0.03589 0.11648 0.0
O709 O 0.64119 0.07122 0.1169 0.0
O710 O 0.66159 0.0541 0.13991 0.0
O711 O 0.66438 0.08499 0.15005 0.0
C712 C 0.59457 0.11382 0.13342 0.0
C713 C 0.60317 0.1236 0.1164 0.0
H714 H 0.62384 0.14018 0.08388 0.0
H715 H 0.65503 0.13756 0.07261 0.0
H716 H 0.59924 0.07416 0.18116 0.0
H717 H 0.58309 0.09403 0.16669 0.0
H718 H 0.58083 0.1143 0.13894 0.0
H719 H 0.59589 0.13141 0.10905 0.0
Mn720 Mn 0.60596 0.65825 0.61956 0.0
Mn721 Mn 0.56305 0.65254 0.64304 0.0
C722 C 0.57781 0.62423 0.6261 0.0
C723 C 0.62242 0.66255 0.5911 0.0
C724 C 0.60625 0.66561 0.66061 0.0
O725 O 0.60903 0.68799 0.61802 0.0
O726 O 0.57784 0.68114 0.63105 0.0
C727 C 0.53607 0.65207 0.61229 0.0
N728 N 0.53864 0.64246 0.62737 0.0
C729 C 0.50253 0.61273 0.62483 0.0
C730 C 0.49947 0.62236 0.60933 0.0
C731 C 0.51633 0.64208 0.60301 0.0
C732 C 0.52254 0.62347 0.63354 0.0
H733 H 0.54901 0.66723 0.6074 0.0
C734 C 0.59543 0.69361 0.62267 0.0
O735 O 0.63371 0.6684 0.60607 0.0
O736 O 0.60193 0.6547 0.59277 0.0
N737 N 0.54716 0.62544 0.65522 0.0
C738 C 0.55317 0.61767 0.66967 0.0
C739 C 0.53831 0.59778 0.67735 0.0
C740 C 0.51742 0.58619 0.67021 0.0
C741 C 0.51159 0.59453 0.65537 0.0
C742 C 0.52702 0.6145 0.64836 0.0
H743 H 0.56917 0.62656 0.67529 0.0
O744 O 0.59655 0.62698 0.62193 0.0
O745 O 0.57616 0.6414 0.62613 0.0
O746 O 0.61563 0.66358 0.64652 0.0
O747 O 0.58715 0.66254 0.66039 0.0
C748 C 0.49118 0.58365 0.64706 0.0
C749 C 0.48668 0.59271 0.63177 0.0
H750 H 0.4843 0.61466 0.60207 0.0
H751 H 0.51411 0.64957 0.591 0.0
H752 H 0.54292 0.5914 0.68877 0.0
H753 H 0.50601 0.57087 0.67618 0.0
H754 H 0.47895 0.56815 0.65213 0.0
H755 H 0.47105 0.58403 0.62532 0.0
Mn756 Mn 0.94232 0.59626 0.11732 0.0
Mn757 Mn 0.90485 0.55096 0.13817 0.0
C758 C 0.94797 0.5675 0.1206 0.0
C759 C 0.95496 0.61581 0.09015 0.0
C760 C 0.93608 0.59136 0.15886 0.0
O761 O 0.91599 0.59983 0.11733 0.0
O762 O 0.8918 0.56827 0.12992 0.0
C763 C 0.87747 0.52938 0.10601 0.0
N764 N 0.88937 0.52912 0.12038 0.0
C765 C 0.88076 0.49295 0.11347 0.0
C766 C 0.8683 0.49278 0.09865 0.0
C767 C 0.8667 0.5111 0.09488 0.0
C768 C 0.89112 0.51164 0.12407 0.0
H769 H 0.87622 0.54344 0.10309 0.0
C770 C 0.89704 0.5865 0.12273 0.0
O771 O 0.96037 0.62537 0.10596 0.0
O772 O 0.94203 0.59526 0.09029 0.0
N773 N 0.91485 0.53245 0.14702 0.0
C774 C 0.92848 0.53569 0.16116 0.0
C775 C 0.9321 0.51902 0.16655 0.0
C776 C 0.92153 0.49915 0.15748 0.0
C777 C 0.90755 0.49618 0.14298 0.0
C778 C 0.90441 0.51331 0.13834 0.0
H779 H 0.93653 0.55086 0.16828 0.0
O780 O 0.964 0.58665 0.1177 0.0
O781 O 0.92905 0.56567 0.12127 0.0
O782 O 0.94649 0.60287 0.14507 0.0
O783 O 0.92028 0.57222 0.15742 0.0
C784 C 0.89692 0.47704 0.13275 0.0
C785 C 0.88361 0.47547 0.11795 0.0
H786 H 0.86002 0.47873 0.09 0.0
H787 H 0.85719 0.51111 0.08341 0.0
H788 H 0.94298 0.52145 0.17771 0.0
H789 H 0.92433 0.48633 0.16169 0.0
H790 H 0.89916 0.46358 0.13595 0.0
H791 H 0.8758 0.4608 0.10999 0.0
Mn792 Mn 0.3405 0.94738 0.61254 0.0
Mn793 Mn 0.34317 0.9071 0.63352 0.0
C794 C 0.37353 0.94967 0.6171 0.0
C795 C 0.3365 0.96152 0.58498 0.0
C796 C 0.33484 0.93922 0.65361 0.0
O797 O 0.30948 0.92249 0.61148 0.0
O798 O 0.3142 0.89604 0.62292 0.0
C799 C 0.33907 0.88039 0.60131 0.0
N800 N 0.35032 0.89176 0.61625 0.0
C801 C 0.37706 0.88148 0.61162 0.0
C802 C 0.36573 0.86958 0.59621 0.0
C803 C 0.34672 0.86915 0.59098 0.0
C804 C 0.36882 0.8926 0.62121 0.0
H805 H 0.32433 0.87986 0.59738 0.0
C806 C 0.30248 0.90283 0.61568 0.0
O807 O 0.33229 0.96739 0.60054 0.0
O808 O 0.34253 0.94734 0.58558 0.0
N809 N 0.37049 0.91563 0.64432 0.0
C810 C 0.37989 0.92848 0.65912 0.0
C811 C 0.39947 0.93126 0.66572 0.0
C812 C 0.40888 0.9204 0.65734 0.0
C813 C 0.39874 0.90704 0.64229 0.0
C814 C 0.37944 0.90515 0.63614 0.0
H815 H 0.37255 0.9366 0.66579 0.0
O816 O 0.37251 0.96688 0.61396 0.0
O817 O 0.3553 0.93186 0.61729 0.0
O818 O 0.33725 0.95153 0.64009 0.0
O819 O 0.33608 0.92216 0.65232 0.0
C820 C 0.40703 0.89553 0.63314 0.0
C821 C 0.39618 0.88273 0.61783 0.0
H822 H 0.37151 0.86078 0.58829 0.0
H823 H 0.33791 0.86005 0.57909 0.0
H824 H 0.40723 0.94165 0.67731 0.0
H825 H 0.42393 0.92251 0.66252 0.0
H826 H 0.42185 0.8966 0.6377 0.0
H827 H 0.4028 0.8741 0.61079 0.0
Mn828 Mn 0.39858 0.34008 0.11567 0.0
Mn829 Mn 0.4414 0.3509 0.14212 0.0
C830 C 0.42546 0.37524 0.12029 0.0
C831 C 0.38218 0.33235 0.08699 0.0
C832 C 0.39762 0.33891 0.15741 0.0
O833 O 0.39701 0.31104 0.1173 0.0
O834 O 0.42696 0.32056 0.13371 0.0
C835 C 0.46854 0.34685 0.11375 0.0
N836 N 0.46588 0.35863 0.12699 0.0
C837 C 0.50193 0.38797 0.12273 0.0
C838 C 0.50509 0.3761 0.10911 0.0
C839 C 0.4883 0.35548 0.10457 0.0
C840 C 0.48189 0.37853 0.1314 0.0
H841 H 0.45568 0.331 0.11023 0.0
C842 C 0.41038 0.30669 0.12487 0.0
O843 O 0.37088 0.32747 0.10191 0.0
O844 O 0.40278 0.34096 0.08883 0.0
N845 N 0.45715 0.37972 0.15117 0.0
C846 C 0.4512 0.38942 0.16405 0.0
C847 C 0.4661 0.41022 0.17003 0.0
C848 C 0.48701 0.42073 0.16286 0.0
C849 C 0.4928 0.41044 0.14964 0.0
C850 C 0.47733 0.38962 0.14435 0.0
H851 H 0.43524 0.38133 0.16977 0.0
O852 O 0.40647 0.37101 0.1152 0.0
O853 O 0.42819 0.35883 0.12246 0.0
O854 O 0.38811 0.33707 0.14223 0.0
O855 O 0.41721 0.34369 0.15885 0.0
C856 C 0.51323 0.42009 0.14136 0.0
C857 C 0.51775 0.4089 0.12785 0.0
H858 H 0.52028 0.38271 0.10197 0.0
H859 H 0.49059 0.34626 0.09402 0.0
H860 H 0.4615 0.41807 0.18023 0.0
H861 H 0.4985 0.43671 0.1676 0.0
H862 H 0.52546 0.43623 0.14507 0.0
H863 H 0.53341 0.41662 0.12139 0.0
H864 H 0.40347 0.10564 0.31345 0.0
H865 H 0.39115 0.09481 0.28223 0.0
H866 H 0.36483 0.02827 0.29719 0.0
H867 H 0.37725 0.03913 0.32882 0.0
H868 H 0.39158 0.03996 0.26705 0.0
H869 H 0.33073 0.04483 0.28446 0.0
H870 H 0.31113 0.06067 0.29934 0.0
H871 H 0.34272 0.11596 0.26446 0.0
H872 H 0.36277 0.10062 0.24954 0.0
H873 H 0.37534 0.03051 0.17004 0.0
H874 H 0.36302 0.02349 0.20205 0.0
H875 H 0.39297 0.09168 0.2117 0.0
H876 H 0.40551 0.09868 0.18009 0.0
H877 H 0.35323 0.06795 0.22981 0.0
H878 H 0.42106 0.06904 0.22128 0.0
H879 H 0.44384 0.0565 0.20697 0.0
H880 H 0.40068 0.99227 0.22546 0.0
H881 H 0.37756 0.0045 0.23983 0.0
C882 C 0.39473 0.08865 0.31023 0.0
C883 C 0.39138 0.07323 0.32359 0.0
C884 C 0.38755 0.08247 0.29237 0.0
C885 C 0.37688 0.06071 0.28738 0.0
C886 C 0.3729 0.04514 0.30079 0.0
C887 C 0.3799 0.05135 0.31884 0.0
C888 C 0.37204 0.05491 0.26777 0.0
C889 C 0.38252 0.04536 0.25898 0.0
C890 C 0.36058 0.06234 0.25718 0.0
C891 C 0.3483 0.07155 0.26589 0.0
C892 C 0.33358 0.06041 0.28 0.0
C893 C 0.32238 0.0693 0.28845 0.0
C894 C 0.32569 0.08931 0.28286 0.0
C895 C 0.34016 0.10044 0.26877 0.0
C896 C 0.35141 0.09163 0.26028 0.0
C897 C 0.37878 0.04391 0.17893 0.0
C898 C 0.39146 0.06512 0.17271 0.0
C899 C 0.37181 0.03991 0.19717 0.0
C900 C 0.37715 0.05709 0.20924 0.0
C901 C 0.38858 0.0782 0.20262 0.0
C902 C 0.39584 0.08218 0.1846 0.0
C903 C 0.3733 0.05365 0.22921 0.0
C904 C 0.36138 0.06163 0.238 0.0
C905 C 0.38358 0.04498 0.23983 0.0
C906 C 0.39748 0.0376 0.23139 0.0
C907 C 0.41637 0.05222 0.22218 0.0
C908 C 0.42935 0.04517 0.21407 0.0
C909 C 0.42366 0.02356 0.2152 0.0
C910 C 0.40503 0.00899 0.22454 0.0
C911 C 0.39199 0.01597 0.23269 0.0
H912 H 0.43372 0.01813 0.2089 0.0
H913 H 0.31703 0.09619 0.28944 0.0
H914 H 0.29609 0.40591 0.68042 0.0
H915 H 0.29154 0.39771 0.71307 0.0
H916 H 0.34379 0.3845 0.71155 0.0
H917 H 0.34784 0.39197 0.6785 0.0
H918 H 0.31209 0.35898 0.73751 0.0
H919 H 0.35549 0.43457 0.72233 0.0
H920 H 0.36341 0.46829 0.70698 0.0
H921 H 0.307 0.46444 0.73062 0.0
H922 H 0.29881 0.43077 0.7463 0.0
H923 H 0.34498 0.39166 0.83126 0.0
H924 H 0.34031 0.38258 0.79859 0.0
H925 H 0.29401 0.40392 0.79463 0.0
H926 H 0.29946 0.4139 0.8269 0.0
H927 H 0.32366 0.42387 0.7711 0.0
H928 H 0.28136 0.3497 0.78848 0.0
H929 H 0.27366 0.31645 0.80454 0.0
H930 H 0.32678 0.31686 0.77735 0.0
H931 H 0.33499 0.3503 0.7613 0.0
C932 C 0.30614 0.40058 0.68695 0.0
C933 C 0.32237 0.39965 0.67706 0.0
C934 C 0.30359 0.39597 0.70559 0.0
C935 C 0.31766 0.39099 0.71482 0.0
C936 C 0.33281 0.38837 0.7047 0.0
C937 C 0.3351 0.3926 0.68585 0.0
C938 C 0.31826 0.39143 0.73511 0.0
C939 C 0.3148 0.37318 0.74493 0.0
C940 C 0.32156 0.40988 0.74477 0.0
C941 C 0.32646 0.43009 0.73534 0.0
C942 C 0.34472 0.44086 0.72417 0.0
C943 C 0.34927 0.45996 0.71542 0.0
C944 C 0.33565 0.46841 0.71769 0.0
C945 C 0.31751 0.45785 0.72884 0.0
C946 C 0.31296 0.43881 0.73772 0.0
C947 C 0.33339 0.39382 0.82345 0.0
C948 C 0.32266 0.40358 0.83146 0.0
C949 C 0.33068 0.38858 0.80481 0.0
C950 C 0.31682 0.3926 0.79408 0.0
C951 C 0.30491 0.40082 0.80255 0.0
C952 C 0.30798 0.40648 0.82098 0.0
C953 C 0.31678 0.39115 0.77378 0.0
C954 C 0.32071 0.40946 0.76385 0.0
C955 C 0.31383 0.37273 0.7642 0.0
C956 C 0.30892 0.35263 0.77383 0.0
C957 C 0.29152 0.34281 0.78604 0.0
C958 C 0.28704 0.3239 0.79512 0.0
C959 C 0.29976 0.31458 0.79201 0.0
C960 C 0.31696 0.32412 0.77977 0.0
C961 C 0.32152 0.34303 0.77066 0.0
H962 H 0.29626 0.29994 0.79905 0.0
H963 H 0.33921 0.48319 0.71086 0.0
H964 H 0.96265 0.34294 0.17351 0.0
H965 H 0.9704 0.34163 0.20612 0.0
H966 H 0.90418 0.29325 0.21502 0.0
H967 H 0.89637 0.29508 0.18285 0.0
H968 H 0.91522 0.32608 0.23664 0.0
H969 H 0.94675 0.28315 0.21907 0.0
H970 H 0.97183 0.27542 0.20225 0.0
H971 H 0.02542 0.33057 0.22652 0.0
H972 H 0.00064 0.3388 0.24331 0.0
H973 H 0.90633 0.29455 0.32548 0.0
H974 H 0.91177 0.29183 0.29284 0.0
H975 H 0.9745 0.34841 0.29621 0.0
H976 H 0.96921 0.35087 0.32924 0.0
H977 H 0.96999 0.31543 0.26872 0.0
H978 H 0.93841 0.35894 0.28503 0.0
H979 H 0.91323 0.36687 0.30147 0.0
H980 H 0.85977 0.31002 0.27921 0.0
H981 H 0.88464 0.30186 0.26245 0.0
C982 C 0.94997 0.33161 0.18239 0.0
C983 C 0.9289 0.31919 0.17577 0.0
C984 C 0.95439 0.33087 0.201 0.0
C985 C 0.93783 0.31742 0.21307 0.0
C986 C 0.91718 0.30388 0.20604 0.0
C987 C 0.91273 0.30488 0.18765 0.0
C988 C 0.94092 0.31914 0.23325 0.0
C989 C 0.92709 0.3235 0.24356 0.0
C990 C 0.95695 0.31668 0.24236 0.0
C991 C 0.97184 0.31173 0.23228 0.0
C992 C 0.96388 0.29375 0.22069 0.0
C993 C 0.97804 0.28925 0.21119 0.0
C994 C 0.0002 0.30254 0.21327 0.0
C995 C 0.00825 0.32032 0.2249 0.0
C996 C 0.99415 0.32489 0.23442 0.0
C997 C 0.92163 0.30588 0.3194 0.0
C998 C 0.9374 0.32285 0.32978 0.0
C999 C 0.92471 0.30436 0.30077 0.0
C1000 C 0.94341 0.32008 0.29208 0.0
C1001 C 0.96 0.33607 0.30269 0.0
C1002 C 0.957 0.33744 0.32152 0.0
C1003 C 0.94375 0.32152 0.27184 0.0
C1004 C 0.95825 0.31804 0.26161 0.0
C1005 C 0.92835 0.32481 0.26263 0.0
C1006 C 0.91337 0.32972 0.27261 0.0
C1007 C 0.92129 0.34808 0.28373 0.0
C1008 C 0.90708 0.35262 0.29309 0.0
C1009 C 0.88493 0.33888 0.29153 0.0
C1010 C 0.87693 0.32063 0.28045 0.0
C1011 C 0.89107 0.31609 0.27094 0.0
H1012 H 0.87398 0.34241 0.29883 0.0
H1013 H 0.01114 0.29903 0.2059 0.0
H1014 H 0.5712 0.90855 0.68878 0.0
H1015 H 0.58519 0.92279 0.7188 0.0
H1016 H 0.64466 0.97125 0.69488 0.0
H1017 H 0.63059 0.95703 0.66417 0.0
H1018 H 0.64906 0.94908 0.72647 0.0
H1019 H 0.61561 0.98924 0.71091 0.0
H1020 H 0.58731 0.9951 0.69793 0.0
H1021 H 0.54226 0.95187 0.73745 0.0
H1022 H 0.57017 0.94546 0.75049 0.0
H1023 H 0.62128 0.97238 0.82677 0.0
H1024 H 0.63281 0.98441 0.79516 0.0
H1025 H 0.62087 0.92107 0.78117 0.0
H1026 H 0.60933 0.90913 0.8124 0.0
H1027 H 0.60541 0.96764 0.76704 0.0
H1028 H 0.65043 0.92164 0.7465 0.0
H1029 H 0.6785 0.91535 0.75929 0.0
H1030 H 0.70206 0.97226 0.79209 0.0
H1031 H 0.67434 0.97912 0.7793 0.0
C1032 C 0.58728 0.92225 0.68968 0.0
C1033 C 0.59973 0.93165 0.6739 0.0
C1034 C 0.59522 0.93044 0.70696 0.0
C1035 C 0.61583 0.94824 0.70906 0.0
C1036 C 0.62862 0.95757 0.6935 0.0
C1037 C 0.62055 0.94944 0.67599 0.0
C1038 C 0.6235 0.95634 0.7278 0.0
C1039 C 0.63986 0.95355 0.73535 0.0
C1040 C 0.61185 0.96279 0.73923 0.0
C1041 C 0.59504 0.96689 0.73169 0.0
C1042 C 0.59965 0.98092 0.7168 0.0
C1043 C 0.58367 0.98433 0.70942 0.0
C1044 C 0.56301 0.97387 0.71686 0.0
C1045 C 0.55829 0.96 0.73172 0.0
C1046 C 0.5742 0.95651 0.73914 0.0
C1047 C 0.6219 0.96133 0.81706 0.0
C1048 C 0.61441 0.93984 0.82196 0.0
C1049 C 0.62838 0.96816 0.79901 0.0
C1050 C 0.62786 0.9537 0.7858 0.0
C1051 C 0.62181 0.93267 0.79113 0.0
C1052 C 0.61508 0.9258 0.80898 0.0
C1053 C 0.63005 0.95897 0.76597 0.0
C1054 C 0.61534 0.96409 0.75818 0.0
C1055 C 0.64332 0.9548 0.75437 0.0
C1056 C 0.66023 0.95088 0.76193 0.0
C1057 C 0.66169 0.93294 0.75632 0.0
C1058 C 0.67753 0.92924 0.76361 0.0
C1059 C 0.69204 0.94339 0.77651 0.0
C1060 C 0.69077 0.96129 0.78213 0.0
C1061 C 0.67498 0.96507 0.77488 0.0
H1062 H 0.70428 0.94049 0.78214 0.0
H1063 H 0.55065 0.97651 0.71111 0.0
H1064 H 0.65188 0.61759 0.33236 0.0
H1065 H 0.6539 0.629 0.3003 0.0
H1066 H 0.69572 0.60379 0.28785 0.0
H1067 H 0.69352 0.59222 0.3195 0.0
H1068 H 0.70785 0.6425 0.26998 0.0
H1069 H 0.64409 0.57297 0.28155 0.0
H1070 H 0.60979 0.54901 0.29702 0.0
H1071 H 0.58383 0.58781 0.27791 0.0
H1072 H 0.61814 0.6122 0.26252 0.0
H1073 H 0.69227 0.58944 0.18727 0.0
H1074 H 0.69458 0.60221 0.21853 0.0
H1075 H 0.65437 0.62869 0.20419 0.0
H1076 H 0.65231 0.61613 0.17247 0.0
H1077 H 0.64012 0.60028 0.23518 0.0
H1078 H 0.70289 0.66332 0.21578 0.0
H1079 H 0.73743 0.68457 0.19978 0.0
H1080 H 0.76569 0.65611 0.23314 0.0
H1081 H 0.73125 0.63443 0.24916 0.0
C1082 C 0.66188 0.61499 0.32282 0.0
C1083 C 0.67245 0.60394 0.32832 0.0
C1084 C 0.66297 0.62143 0.30455 0.0
C1085 C 0.6749 0.61715 0.29171 0.0
C1086 C 0.6865 0.60733 0.29753 0.0
C1087 C 0.68513 0.60062 0.31559 0.0
C1088 C 0.67382 0.62066 0.27185 0.0
C1089 C 0.69303 0.63349 0.26234 0.0
C1090 C 0.65438 0.60924 0.26195 0.0
C1091 C 0.63375 0.59457 0.27112 0.0
C1092 C 0.63113 0.5765 0.28079 0.0
C1093 C 0.61168 0.56282 0.28952 0.0
C1094 C 0.59467 0.56692 0.28852 0.0
C1095 C 0.59705 0.58469 0.27873 0.0
C1096 C 0.61649 0.59845 0.27 0.0
C1097 C 0.68428 0.59838 0.19066 0.0
C1098 C 0.67215 0.60185 0.17749 0.0
C1099 C 0.68567 0.60573 0.20851 0.0
C1100 C 0.67475 0.6165 0.21365 0.0
C1101 C 0.66302 0.62053 0.20043 0.0
C1102 C 0.66196 0.61348 0.18235 0.0
C1103 C 0.67431 0.62156 0.23326 0.0
C1104 C 0.65482 0.61014 0.24276 0.0
C1105 C 0.69355 0.63408 0.24315 0.0
C1106 C 0.71442 0.6472 0.23366 0.0
C1107 C 0.71643 0.66149 0.21964 0.0
C1108 C 0.73601 0.67363 0.21057 0.0
C1109 C 0.75374 0.67169 0.21544 0.0
C1110 C 0.75195 0.65762 0.2294 0.0
C1111 C 0.7324 0.64543 0.23851 0.0
H1112 H 0.76888 0.6811 0.2084 0.0
H1113 H 0.57962 0.55631 0.29528 0.0
H1114 H 0.09072 0.71408 0.67907 0.0
H1115 H 0.08382 0.71578 0.71159 0.0
H1116 H 0.03154 0.65033 0.70963 0.0
H1117 H 0.03812 0.64884 0.67679 0.0
H1118 H 0.02545 0.6769 0.73605 0.0
H1119 H 0.0787 0.65688 0.71953 0.0
H1120 H 0.11106 0.6617 0.70356 0.0
H1121 H 0.14871 0.72367 0.72837 0.0
H1122 H 0.11663 0.7192 0.7446 0.0
H1123 H 0.03506 0.64652 0.82793 0.0
H1124 H 0.02951 0.65095 0.7955 0.0
H1125 H 0.09015 0.71044 0.7944 0.0
H1126 H 0.09614 0.70524 0.82645 0.0
H1127 H 0.09012 0.68689 0.76902 0.0
H1128 H 0.03816 0.70603 0.78822 0.0
H1129 H 0.00626 0.70169 0.80461 0.0
H1130 H 0.96634 0.6432 0.77532 0.0
H1131 H 0.99804 0.64704 0.75892 0.0
C1132 C 0.07714 0.70041 0.68541 0.0
C1133 C 0.06483 0.68139 0.67551 0.0
C1134 C 0.07328 0.70134 0.70399 0.0
C1135 C 0.05742 0.68306 0.71308 0.0
C1136 C 0.04382 0.66462 0.70286 0.0
C1137 C 0.04752 0.66379 0.68412 0.0
C1138 C 0.05754 0.68222 0.73336 0.0
C1139 C 0.03948 0.67892 0.74335 0.0
C1140 C 0.07597 0.68516 0.74283 0.0
C1141 C 0.09526 0.68779 0.73314 0.0
C1142 C 0.09386 0.67158 0.72149 0.0
C1143 C 0.11214 0.67424 0.7124 0.0
C1144 C 0.13187 0.69302 0.71483 0.0
C1145 C 0.13341 0.70915 0.72646 0.0
C1146 C 0.11521 0.70653 0.73566 0.0
C1147 C 0.04681 0.66084 0.82083 0.0
C1148 C 0.06594 0.67563 0.82958 0.0
C1149 C 0.04365 0.66341 0.8023 0.0
C1150 C 0.05938 0.6811 0.7924 0.0
C1151 C 0.07781 0.69661 0.80164 0.0
C1152 C 0.08119 0.69374 0.81997 0.0
C1153 C 0.05818 0.68212 0.77209 0.0
C1154 C 0.07606 0.68514 0.76195 0.0
C1155 C 0.03962 0.67905 0.76264 0.0
C1156 C 0.02052 0.67673 0.77246 0.0
C1157 C 0.02261 0.69215 0.78537 0.0
C1158 C 0.00455 0.6898 0.79465 0.0
C1159 C 0.9843 0.67215 0.79104 0.0
C1160 C 0.98204 0.65685 0.77811 0.0
C1161 C 5e-05 0.65912 0.76881 0.0
H1162 H 0.97034 0.67036 0.79824 0.0
H1163 H 0.14598 0.69504 0.70775 0.0
H1164 H 0.92045 0.56922 0.19057 0.0
H1165 H 0.92771 0.58258 0.2216 0.0
H1166 H 0.97266 0.64609 0.20212 0.0
H1167 H 0.96536 0.63278 0.17031 0.0
H1168 H 0.98192 0.62232 0.23787 0.0
H1169 H 0.93688 0.64923 0.21335 0.0
H1170 H 0.90682 0.64458 0.19388 0.0
H1171 H 0.86297 0.58948 0.22533 0.0
H1172 H 0.89279 0.59353 0.24475 0.0
H1173 H 0.96216 0.62708 0.33487 0.0
H1174 H 0.97214 0.64051 0.30336 0.0
H1175 H 0.91224 0.5878 0.28389 0.0
H1176 H 0.9021 0.57473 0.31475 0.0
H1177 H 0.91995 0.62294 0.267 0.0
H1178 H 0.96074 0.58737 0.28303 0.0
H1179 H 0.98771 0.58359 0.30099 0.0
H1180 H 0.03616 0.64728 0.28541 0.0
H1181 H 0.00937 0.65149 0.26751 0.0
C1182 C 0.932 0.58605 0.19265 0.0
C1183 C 0.94213 0.59997 0.17777 0.0
C1184 C 0.9362 0.59361 0.21051 0.0
C1185 C 0.95064 0.61527 0.21412 0.0
C1186 C 0.96149 0.62926 0.19953 0.0
C1187 C 0.95723 0.62165 0.18141 0.0
C1188 C 0.95259 0.62274 0.23326 0.0
C1189 C 0.96887 0.62337 0.24427 0.0
C1190 C 0.93522 0.62347 0.24157 0.0
C1191 C 0.9171 0.62171 0.2305 0.0
C1192 C 0.92083 0.63611 0.21609 0.0
C1193 C 0.90383 0.63356 0.20505 0.0
C1194 C 0.88301 0.61672 0.20836 0.0
C1195 C 0.8791 0.60252 0.2228 0.0
C1196 C 0.89604 0.60496 0.23385 0.0
C1197 C 0.95106 0.61854 0.32386 0.0
C1198 C 0.93136 0.59975 0.32743 0.0
C1199 C 0.95681 0.6262 0.30586 0.0
C1200 C 0.94295 0.61516 0.2912 0.0
C1201 C 0.92317 0.59675 0.2949 0.0
C1202 C 0.91745 0.58919 0.31268 0.0
C1203 C 0.9488 0.62157 0.27176 0.0
C1204 C 0.93378 0.62331 0.26069 0.0
C1205 C 0.967 0.62239 0.26346 0.0
C1206 C 0.98304 0.61986 0.27418 0.0
C1207 C 0.97711 0.60062 0.28356 0.0
C1208 C 0.99236 0.59839 0.2937 0.0
C1209 C 0.01362 0.61522 0.2944 0.0
C1210 C 0.01968 0.63429 0.2849 0.0
C1211 C 0.00448 0.6366 0.27477 0.0
H1212 H 0.02541 0.61346 0.30225 0.0
H1213 H 0.86989 0.61461 0.19973 0.0
H1214 H 0.35117 0.96845 0.82882 0.0
H1215 H 0.34949 0.97578 0.79621 0.0
H1216 H 0.30433 0.90855 0.78725 0.0
H1217 H 0.30668 0.90118 0.81944 0.0
H1218 H 0.336 0.92097 0.76501 0.0
H1219 H 0.29131 0.95 0.78374 0.0
H1220 H 0.28249 0.97403 0.80103 0.0
H1221 H 0.3363 0.02905 0.77684 0.0
H1222 H 0.3456 0.00535 0.75958 0.0
H1223 H 0.30323 0.9126 0.67628 0.0
H1224 H 0.30101 0.91693 0.70916 0.0
H1225 H 0.35559 0.98103 0.7061 0.0
H1226 H 0.35752 0.97685 0.6728 0.0
H1227 H 0.32289 0.97475 0.73405 0.0
H1228 H 0.36795 0.94526 0.71656 0.0
H1229 H 0.37661 0.92089 0.69966 0.0
H1230 H 0.3207 0.86628 0.72181 0.0
H1231 H 0.31184 0.89034 0.73908 0.0
C1232 C 0.34051 0.9554 0.81991 0.0
C1233 C 0.32916 0.93423 0.82657 0.0
C1234 C 0.33953 0.95958 0.80128 0.0
C1235 C 0.32683 0.9427 0.78918 0.0
C1236 C 0.3144 0.92183 0.79622 0.0
C1237 C 0.3157 0.91762 0.81463 0.0
C1238 C 0.32809 0.94593 0.76899 0.0
C1239 C 0.33285 0.9326 0.75835 0.0
C1240 C 0.32488 0.96166 0.76016 0.0
C1241 C 0.31929 0.97591 0.77053 0.0
C1242 C 0.30137 0.96723 0.78223 0.0
C1243 C 0.29626 0.98079 0.792 0.0
C1244 C 0.30887 0.00305 0.79008 0.0
C1245 C 0.32657 0.01181 0.77834 0.0
C1246 C 0.33176 0.99832 0.76855 0.0
C1247 C 0.31429 0.92789 0.68252 0.0
C1248 C 0.33055 0.94439 0.67208 0.0
C1249 C 0.31304 0.93034 0.7013 0.0
C1250 C 0.32834 0.94917 0.71012 0.0
C1251 C 0.34361 0.96639 0.69954 0.0
C1252 C 0.34468 0.96403 0.68055 0.0
C1253 C 0.32998 0.94924 0.73037 0.0
C1254 C 0.32604 0.96323 0.74091 0.0
C1255 C 0.33387 0.93408 0.73928 0.0
C1256 C 0.33917 0.91958 0.72898 0.0
C1257 C 0.35745 0.92805 0.71774 0.0
C1258 C 0.36241 0.9143 0.70811 0.0
C1259 C 0.34913 0.89206 0.70951 0.0
C1260 C 0.33095 0.88351 0.7207 0.0
C1261 C 0.32602 0.89719 0.73049 0.0
H1262 H 0.35298 0.88147 0.70198 0.0
H1263 H 0.30488 0.01352 0.79766 0.0
H1264 H 0.38665 0.36472 0.32465 0.0
H1265 H 0.37728 0.36084 0.29212 0.0
H1266 H 0.36372 0.29517 0.29364 0.0
H1267 H 0.37417 0.29954 0.3259 0.0
H1268 H 0.3904 0.31475 0.26825 0.0
H1269 H 0.32401 0.3102 0.28452 0.0
H1270 H 0.30019 0.3209 0.29971 0.0
H1271 H 0.33065 0.38084 0.27067 0.0
H1272 H 0.35486 0.37063 0.25549 0.0
H1273 H 0.37233 0.30099 0.17437 0.0
H1274 H 0.36033 0.29616 0.20634 0.0
H1275 H 0.3858 0.36449 0.21127 0.0
H1276 H 0.39755 0.36922 0.17927 0.0
H1277 H 0.34828 0.33985 0.23285 0.0
H1278 H 0.41757 0.34616 0.22078 0.0
H1279 H 0.44148 0.33575 0.20533 0.0
H1280 H 0.40477 0.27195 0.22715 0.0
H1281 H 0.38041 0.28192 0.24248 0.0
C1282 C 0.38091 0.34927 0.31812 0.0
C1283 C 0.38085 0.33234 0.32766 0.0
C1284 C 0.37552 0.34701 0.29954 0.0
C1285 C 0.36965 0.32764 0.29035 0.0
C1286 C 0.36822 0.31027 0.30035 0.0
C1287 C 0.37402 0.31269 0.31879 0.0
C1288 C 0.36804 0.32643 0.27003 0.0
C1289 C 0.38069 0.31971 0.26061 0.0
C1290 C 0.35594 0.33351 0.2599 0.0
C1291 C 0.34136 0.3397 0.26896 0.0
C1292 C 0.32574 0.32573 0.28147 0.0
C1293 C 0.31214 0.3317 0.29006 0.0
C1294 C 0.31393 0.35155 0.28618 0.0
C1295 C 0.32928 0.36546 0.27366 0.0
C1296 C 0.34293 0.35958 0.26504 0.0
C1297 C 0.37457 0.3148 0.18214 0.0
C1298 C 0.38573 0.33544 0.17454 0.0
C1299 C 0.36781 0.31207 0.20036 0.0
C1300 C 0.37239 0.33001 0.21121 0.0
C1301 C 0.38203 0.35045 0.20313 0.0
C1302 C 0.3888 0.35316 0.18491 0.0
C1303 C 0.37042 0.32801 0.23139 0.0
C1304 C 0.35744 0.33438 0.24068 0.0
C1305 C 0.38218 0.32059 0.24152 0.0
C1306 C 0.39704 0.31471 0.2326 0.0
C1307 C 0.41452 0.32988 0.22218 0.0
C1308 C 0.42815 0.32406 0.21345 0.0
C1309 C 0.42461 0.30318 0.21522 0.0
C1310 C 0.40747 0.2881 0.22577 0.0
C1311 C 0.39374 0.29382 0.23448 0.0
H1312 H 0.43518 0.2987 0.20845 0.0
H1313 H 0.30339 0.35615 0.29285 0.0
H1314 H 0.10038 0.41441 0.68647 0.0
H1315 H 0.09244 0.40188 0.71786 0.0
H1316 H 0.02518 0.36337 0.70459 0.0
H1317 H 0.03306 0.3761 0.67277 0.0
H1318 H 0.03196 0.3881 0.735 0.0
H1319 H 0.05277 0.33839 0.71573 0.0
H1320 H 0.07475 0.3258 0.69998 0.0
H1321 H 0.12863 0.36641 0.73407 0.0
H1322 H 0.1071 0.37952 0.74983 0.0
H1323 H 0.02975 0.37226 0.83208 0.0
H1324 H 0.02344 0.36057 0.79993 0.0
H1325 H 0.09099 0.40112 0.78866 0.0
H1326 H 0.09732 0.41273 0.82043 0.0
H1327 H 0.07416 0.36293 0.77022 0.0
H1328 H 0.05643 0.41928 0.78202 0.0
H1329 H 0.03585 0.43383 0.79729 0.0
H1330 H 0.977 0.38132 0.77676 0.0
H1331 H 0.99726 0.36631 0.76154 0.0
C1332 C 0.08389 0.40306 0.69008 0.0
C1333 C 0.06734 0.39632 0.67708 0.0
C1334 C 0.07939 0.39576 0.70807 0.0
C1335 C 0.05825 0.38147 0.71357 0.0
C1336 C 0.04165 0.37428 0.70059 0.0
C1337 C 0.04618 0.3815 0.68243 0.0
C1338 C 0.05375 0.3758 0.73325 0.0
C1339 C 0.04064 0.38192 0.74265 0.0
C1340 C 0.06524 0.36795 0.74328 0.0
C1341 C 0.07828 0.35997 0.73396 0.0
C1342 C 0.06933 0.34473 0.71981 0.0
C1343 C 0.08172 0.3375 0.71088 0.0
C1344 C 0.10307 0.3453 0.71602 0.0
C1345 C 0.11207 0.36035 0.73012 0.0
C1346 C 0.09977 0.36766 0.73908 0.0
C1347 C 0.04327 0.37827 0.8228 0.0
C1348 C 0.06399 0.39357 0.82872 0.0
C1349 C 0.03964 0.37166 0.80445 0.0
C1350 C 0.05673 0.38011 0.79186 0.0
C1351 C 0.07757 0.39434 0.79809 0.0
C1352 C 0.08114 0.40108 0.81626 0.0
C1353 C 0.05315 0.37611 0.7719 0.0
C1354 C 0.06481 0.36825 0.76248 0.0
C1355 C 0.04042 0.38245 0.76184 0.0
C1356 C 0.0283 0.39153 0.77087 0.0
C1357 C 0.03908 0.41076 0.78089 0.0
C1358 C 0.02749 0.4191 0.78952 0.0
C1359 C 0.00512 0.40847 0.78806 0.0
C1360 C 0.99432 0.3895 0.77792 0.0
C1361 C 0.00584 0.38107 0.76929 0.0
H1362 H 0.99618 0.41496 0.79475 0.0
H1363 H 0.11262 0.33966 0.70912 0.0
H1364 H 0.68687 0.09683 0.31762 0.0
H1365 H 0.6887 0.0899 0.2853 0.0
H1366 H 0.65289 0.0217 0.2953 0.0
H1367 H 0.65105 0.02858 0.32813 0.0
H1368 H 0.68887 0.03814 0.26621 0.0
H1369 H 0.62318 0.0371 0.28082 0.0
H1370 H 0.60058 0.04956 0.29552 0.0
H1371 H 0.63719 0.11109 0.26955 0.0
H1372 H 0.66002 0.09889 0.25464 0.0
H1373 H 0.65494 0.02926 0.16891 0.0
H1374 H 0.65714 0.02307 0.20177 0.0
H1375 H 0.68806 0.09126 0.2115 0.0
H1376 H 0.68606 0.09756 0.17909 0.0
H1377 H 0.64952 0.06655 0.2309 0.0
H1378 H 0.71582 0.06743 0.21677 0.0
H1379 H 0.73763 0.05436 0.20141 0.0
H1380 H 0.69924 0.99227 0.22594 0.0
H1381 H 0.67698 0.00489 0.24124 0.0
C1382 C 0.67972 0.08031 0.31308 0.0
C1383 C 0.66856 0.06324 0.32539 0.0
C1384 C 0.68087 0.07639 0.29458 0.0
C1385 C 0.67075 0.05531 0.28787 0.0
C1386 C 0.66086 0.03809 0.30025 0.0
C1387 C 0.65981 0.04204 0.31896 0.0
C1388 C 0.66838 0.05197 0.26778 0.0
C1389 C 0.6799 0.04388 0.25844 0.0
C1390 C 0.65682 0.0596 0.25765 0.0
C1391 C 0.64335 0.06713 0.26673 0.0
C1392 C 0.62651 0.05334 0.27837 0.0
C1393 C 0.61363 0.06035 0.28671 0.0
C1394 C 0.61749 0.08116 0.28354 0.0
C1395 C 0.63423 0.09498 0.272 0.0
C1396 C 0.64709 0.088 0.26355 0.0
C1397 C 0.66269 0.04293 0.17802 0.0
C1398 C 0.67001 0.06387 0.17143 0.0
C1399 C 0.66392 0.03937 0.19677 0.0
C1400 C 0.67259 0.05671 0.20907 0.0
C1401 C 0.68117 0.07765 0.20227 0.0
C1402 C 0.67994 0.08119 0.18371 0.0
C1403 C 0.67058 0.05341 0.22917 0.0
C1404 C 0.65816 0.06032 0.23857 0.0
C1405 C 0.6812 0.04457 0.23916 0.0
C1406 C 0.69456 0.03701 0.22995 0.0
C1407 C 0.71187 0.05092 0.21873 0.0
C1408 C 0.72435 0.04361 0.21007 0.0
C1409 C 0.71977 0.02248 0.21264 0.0
C1410 C 0.70274 0.00862 0.22392 0.0
C1411 C 0.69019 0.01585 0.2326 0.0
H1412 H 0.72946 0.01685 0.20593 0.0
H1413 H 0.60748 0.08658 0.28995 0.0
H1414 H 0.63619 0.65575 0.67383 0.0
H1415 H 0.64941 0.66029 0.70551 0.0
H1416 H 0.61387 0.69207 0.71929 0.0
H1417 H 0.60083 0.68769 0.68803 0.0
H1418 H 0.65227 0.71059 0.73679 0.0
H1419 H 0.59208 0.63826 0.72498 0.0
H1420 H 0.57502 0.60324 0.70924 0.0
H1421 H 0.62546 0.59236 0.72774 0.0
H1422 H 0.64298 0.62752 0.74339 0.0
H1423 H 0.59841 0.68506 0.81908 0.0
H1424 H 0.61186 0.68974 0.78796 0.0
H1425 H 0.64873 0.65955 0.80229 0.0
H1426 H 0.63518 0.6548 0.83391 0.0
H1427 H 0.62321 0.64207 0.77105 0.0
H1428 H 0.67563 0.71118 0.79149 0.0
H1429 H 0.68932 0.74546 0.80801 0.0
H1430 H 0.65151 0.7624 0.77387 0.0
H1431 H 0.63725 0.72806 0.75736 0.0
C1432 C 0.63167 0.66415 0.68356 0.0
C1433 C 0.61731 0.67117 0.67852 0.0
C1434 C 0.63914 0.66666 0.70164 0.0
C1435 C 0.63247 0.67637 0.71481 0.0
C1436 C 0.61929 0.68458 0.7094 0.0
C1437 C 0.61171 0.68192 0.69152 0.0
C1438 C 0.637 0.67619 0.73462 0.0
C1439 C 0.64616 0.69565 0.74431 0.0
C1440 C 0.62956 0.65673 0.7444 0.0
C1441 C 0.61898 0.6356 0.73512 0.0
C1442 C 0.59961 0.62846 0.72557 0.0
C1443 C 0.58985 0.60859 0.71668 0.0
C1444 C 0.59919 0.59561 0.71743 0.0
C1445 C 0.61828 0.60246 0.72712 0.0
C1446 C 0.62814 0.62236 0.736 0.0
C1447 C 0.6096 0.67964 0.81574 0.0
C1448 C 0.61568 0.66948 0.82893 0.0
C1449 C 0.61741 0.68247 0.79794 0.0
C1450 C 0.63147 0.6752 0.79281 0.0
C1451 C 0.63801 0.66542 0.80601 0.0
C1452 C 0.63035 0.6628 0.82404 0.0
C1453 C 0.63755 0.67641 0.77326 0.0
C1454 C 0.63028 0.65713 0.7636 0.0
C1455 C 0.64651 0.69604 0.76351 0.0
C1456 C 0.65535 0.71697 0.77317 0.0
C1457 C 0.67015 0.72216 0.78754 0.0
C1458 C 0.67801 0.74161 0.79692 0.0
C1459 C 0.67129 0.75609 0.79199 0.0
C1460 C 0.65674 0.75118 0.77765 0.0
C1461 C 0.64878 0.73173 0.76825 0.0
H1462 H 0.67736 0.77112 0.7993 0.0
H1463 H 0.5916 0.58022 0.71054 0.0
H1464 H 0.44211 0.15225 0.12955 0.0
H1465 H 0.43552 0.18227 0.12884 0.0
H1466 H 0.37434 0.14242 0.10281 0.0
H1467 H 0.3807 0.11191 0.10349 0.0
H1468 H 0.39941 0.18563 0.08794 0.0
H1469 H 0.37201 0.15014 0.145 0.0
H1470 H 0.3729 0.13269 0.17375 0.0
H1471 H 0.42753 0.19149 0.19182 0.0
H1472 H 0.42721 0.2092 0.16303 0.0
H1473 H 0.37779 0.27161 0.1072 0.0
H1474 H 0.37308 0.23548 0.10476 0.0
H1475 H 0.43074 0.25592 0.13637 0.0
H1476 H 0.43545 0.29167 0.13909 0.0
H1477 H 0.39937 0.21785 0.14796 0.0
H1478 H 0.43015 0.25137 0.0896 0.0
H1479 H 0.43089 0.26905 0.06049 0.0
H1480 H 0.37084 0.21432 0.04485 0.0
H1481 H 0.36962 0.19643 0.074 0.0
C1482 C 0.42728 0.14976 0.12352 0.0
C1483 C 0.41184 0.12952 0.11673 0.0
C1484 C 0.42355 0.16699 0.12316 0.0
C1485 C 0.40434 0.16446 0.11599 0.0
C1486 C 0.38923 0.14462 0.10847 0.0
C1487 C 0.39289 0.12723 0.10892 0.0
C1488 C 0.40003 0.18252 0.11718 0.0
C1489 C 0.3989 0.19244 0.10104 0.0
C1490 C 0.3996 0.19145 0.1343 0.0
C1491 C 0.39966 0.18096 0.15179 0.0
C1492 C 0.38431 0.15932 0.15505 0.0
C1493 C 0.3847 0.14938 0.17136 0.0
C1494 C 0.40028 0.16096 0.18459 0.0
C1495 C 0.41547 0.18253 0.18155 0.0
C1496 C 0.41517 0.19254 0.16525 0.0
C1497 C 0.38943 0.26838 0.11367 0.0
C1498 C 0.40701 0.28462 0.12334 0.0
C1499 C 0.38675 0.24774 0.11221 0.0
C1500 C 0.40162 0.24303 0.12032 0.0
C1501 C 0.41901 0.25915 0.13007 0.0
C1502 C 0.4217 0.27966 0.13155 0.0
C1503 C 0.39952 0.22148 0.1187 0.0
C1504 C 0.3994 0.21083 0.13483 0.0
C1505 C 0.39888 0.21197 0.10158 0.0
C1506 C 0.39965 0.22269 0.08406 0.0
C1507 C 0.41702 0.24319 0.08001 0.0
C1508 C 0.41754 0.25323 0.0635 0.0
C1509 C 0.40089 0.24285 0.05085 0.0
C1510 C 0.38371 0.22237 0.05467 0.0
C1511 C 0.38309 0.21227 0.07118 0.0
H1512 H 0.40132 0.25065 0.03807 0.0
H1513 H 0.40056 0.15324 0.19721 0.0
H1514 H 0.10175 0.37116 0.6135 0.0
H1515 H 0.12993 0.36224 0.60678 0.0
H1516 H 0.17696 0.42976 0.6045 0.0
H1517 H 0.14931 0.43872 0.61117 0.0
H1518 H 0.18272 0.40681 0.5771 0.0
H1519 H 0.16919 0.40178 0.64339 0.0
H1520 H 0.14592 0.38595 0.67039 0.0
H1521 H 0.13484 0.3235 0.65526 0.0
H1522 H 0.15787 0.33897 0.62804 0.0
H1523 H 0.28426 0.44175 0.61136 0.0
H1524 H 0.24715 0.4314 0.60476 0.0
H1525 H 0.22931 0.36453 0.60598 0.0
H1526 H 0.26679 0.37483 0.61254 0.0
H1527 H 0.20295 0.37446 0.62772 0.0
H1528 H 0.2264 0.38331 0.56638 0.0
H1529 H 0.25074 0.40044 0.54025 0.0
H1530 H 0.24369 0.45603 0.54591 0.0
H1531 H 0.21957 0.4394 0.57226 0.0
C1532 C 0.11807 0.38405 0.61132 0.0
C1533 C 0.12334 0.40564 0.61305 0.0
C1534 C 0.13411 0.37894 0.60751 0.0
C1535 C 0.15552 0.39536 0.60519 0.0
C1536 C 0.16054 0.41684 0.60616 0.0
C1537 C 0.14469 0.42192 0.61012 0.0
C1538 C 0.17336 0.39081 0.60315 0.0
C1539 C 0.18708 0.39954 0.58805 0.0
C1540 C 0.17863 0.38068 0.61716 0.0
C1541 C 0.16498 0.37146 0.63358 0.0
C1542 C 0.16166 0.38465 0.64576 0.0
C1543 C 0.14854 0.37575 0.66111 0.0
C1544 C 0.13884 0.35372 0.6645 0.0
C1545 C 0.14232 0.34056 0.65259 0.0
C1546 C 0.15539 0.34938 0.6372 0.0
C1547 C 0.27254 0.42483 0.61006 0.0
C1548 C 0.27847 0.40911 0.61252 0.0
C1549 C 0.25134 0.41894 0.60617 0.0
C1550 C 0.23553 0.39721 0.60472 0.0
C1551 C 0.24134 0.38139 0.60695 0.0
C1552 C 0.26272 0.38731 0.61062 0.0
C1553 C 0.21286 0.3915 0.6021 0.0
C1554 C 0.19824 0.3809 0.61635 0.0
C1555 C 0.20679 0.39998 0.58731 0.0
C1556 C 0.22117 0.41008 0.57134 0.0
C1557 C 0.23012 0.39923 0.56212 0.0
C1558 C 0.24388 0.40886 0.54726 0.0
C1559 C 0.24876 0.42931 0.54142 0.0
C1560 C 0.23987 0.44017 0.55043 0.0
C1561 C 0.22611 0.43063 0.56531 0.0
H1562 H 0.25942 0.43674 0.52992 0.0
H1563 H 0.12867 0.34685 0.67637 0.0
H1564 H 0.89122 0.26022 0.10371 0.0
H1565 H 0.86385 0.2223 0.09921 0.0
H1566 H 0.81604 0.23439 0.123 0.0
H1567 H 0.84284 0.27177 0.12757 0.0
H1568 H 0.81438 0.19884 0.13747 0.0
H1569 H 0.81992 0.23076 0.07716 0.0
H1570 H 0.83946 0.2492 0.04908 0.0
H1571 H 0.85345 0.1987 0.03863 0.0
H1572 H 0.83419 0.18009 0.0668 0.0
H1573 H 0.71175 0.14223 0.10476 0.0
H1574 H 0.74966 0.16886 0.10218 0.0
H1575 H 0.76594 0.11877 0.10324 0.0
H1576 H 0.72763 0.09163 0.10605 0.0
H1577 H 0.78971 0.16616 0.07612 0.0
H1578 H 0.77946 0.1323 0.13666 0.0
H1579 H 0.75677 0.11483 0.16367 0.0
H1580 H 0.7503 0.17029 0.17292 0.0
H1581 H 0.77268 0.18794 0.14578 0.0
C1582 C 0.87486 0.25477 0.10794 0.0
C1583 C 0.86931 0.2691 0.11608 0.0
C1584 C 0.85927 0.23312 0.10536 0.0
C1585 C 0.83795 0.22552 0.11088 0.0
C1586 C 0.83243 0.23984 0.11882 0.0
C1587 C 0.84784 0.26131 0.12135 0.0
C1588 C 0.82094 0.20278 0.10853 0.0
C1589 C 0.8093 0.19153 0.12408 0.0
C1590 C 0.81444 0.19305 0.0911 0.0
C1591 C 0.82589 0.2042 0.07418 0.0
C1592 C 0.82732 0.22369 0.06895 0.0
C1593 C 0.83831 0.23415 0.05301 0.0
C1594 C 0.84776 0.22517 0.04211 0.0
C1595 C 0.84617 0.20567 0.04711 0.0
C1596 C 0.83522 0.19515 0.06305 0.0
C1597 C 0.72327 0.13672 0.10414 0.0
C1598 C 0.71668 0.11481 0.10594 0.0
C1599 C 0.74493 0.15199 0.10251 0.0
C1600 C 0.76049 0.14574 0.1026 0.0
C1601 C 0.75405 0.12382 0.10308 0.0
C1602 C 0.73221 0.10839 0.10472 0.0
C1603 C 0.78315 0.1626 0.10502 0.0
C1604 C 0.7956 0.17294 0.08956 0.0
C1605 C 0.79049 0.1716 0.12252 0.0
C1606 C 0.77762 0.16135 0.13917 0.0
C1607 C 0.7731 0.14071 0.14442 0.0
C1608 C 0.7603 0.13078 0.15974 0.0
C1609 C 0.75206 0.14143 0.16999 0.0
C1610 C 0.75668 0.16206 0.16497 0.0
C1611 C 0.76945 0.17204 0.14964 0.0
H1612 H 0.74212 0.1337 0.18182 0.0
H1613 H 0.85626 0.23329 0.02978 0.0
H1614 H 0.57011 0.71088 0.63018 0.0
H1615 H 0.57663 0.74655 0.62298 0.0
H1616 H 0.63697 0.76234 0.59774 0.0
H1617 H 0.63069 0.72629 0.60514 0.0
H1618 H 0.63968 0.7953 0.62032 0.0
H1619 H 0.59759 0.75442 0.57012 0.0
H1620 H 0.56822 0.72312 0.55449 0.0
H1621 H 0.52175 0.7333 0.5828 0.0
H1622 H 0.55081 0.76445 0.59882 0.0
H1623 H 0.62465 0.88853 0.60196 0.0
H1624 H 0.63364 0.86024 0.5957 0.0
H1625 H 0.57717 0.81463 0.62524 0.0
H1626 H 0.56822 0.8422 0.63164 0.0
H1627 H 0.58125 0.80108 0.58961 0.0
H1628 H 0.62403 0.83512 0.64515 0.0
H1629 H 0.65333 0.86583 0.66148 0.0
H1630 H 0.69877 0.86864 0.62188 0.0
H1631 H 0.66965 0.83808 0.6052 0.0
C1632 C 0.58481 0.7218 0.62308 0.0
C1633 C 0.59983 0.71558 0.61818 0.0
C1634 C 0.58847 0.74223 0.6189 0.0
C1635 C 0.60711 0.75697 0.60955 0.0
C1636 C 0.62241 0.75112 0.60486 0.0
C1637 C 0.61876 0.73051 0.60906 0.0
C1638 C 0.61015 0.77843 0.60506 0.0
C1639 C 0.62726 0.79673 0.61312 0.0
C1640 C 0.59405 0.78033 0.59554 0.0
C1641 C 0.57644 0.76181 0.58568 0.0
C1642 C 0.58111 0.74995 0.57307 0.0
C1643 C 0.56451 0.73222 0.56414 0.0
C1644 C 0.54313 0.72623 0.56764 0.0
C1645 C 0.53832 0.73798 0.58007 0.0
C1646 C 0.55486 0.75571 0.58905 0.0
C1647 C 0.61429 0.8725 0.60723 0.0
C1648 C 0.59566 0.8677 0.61723 0.0
C1649 C 0.61942 0.85639 0.60361 0.0
C1650 C 0.60591 0.83534 0.60987 0.0
C1651 C 0.58767 0.83073 0.62012 0.0
C1652 C 0.58265 0.84665 0.62382 0.0
C1653 C 0.60996 0.8175 0.60586 0.0
C1654 C 0.59416 0.79985 0.59612 0.0
C1655 C 0.62726 0.81627 0.61374 0.0
C1656 C 0.64466 0.83455 0.62381 0.0
C1657 C 0.64024 0.84242 0.63984 0.0
C1658 C 0.65682 0.85977 0.64918 0.0
C1659 C 0.67789 0.86924 0.64268 0.0
C1660 C 0.68244 0.86133 0.62687 0.0
C1661 C 0.66591 0.84401 0.61747 0.0
H1662 H 0.6907 0.88266 0.64993 0.0
H1663 H 0.5303 0.71248 0.56073 0.0
H1664 H 0.73017 0.61171 0.09839 0.0
H1665 H 0.76784 0.62068 0.09518 0.0
H1666 H 0.75986 0.57883 0.1404 0.0
H1667 H 0.72259 0.56968 0.14358 0.0
H1668 H 0.7977 0.61956 0.14227 0.0
H1669 H 0.75695 0.56114 0.09871 0.0
H1670 H 0.73376 0.54556 0.07165 0.0
H1671 H 0.78032 0.59706 0.03836 0.0
H1672 H 0.80366 0.6131 0.06532 0.0
H1673 H 0.86085 0.57168 0.14324 0.0
H1674 H 0.83241 0.58057 0.14046 0.0
H1675 H 0.86588 0.62306 0.09548 0.0
H1676 H 0.89487 0.6145 0.09839 0.0
H1677 H 0.82078 0.59313 0.08914 0.0
H1678 H 0.86521 0.64662 0.13103 0.0
H1679 H 0.8885 0.66353 0.15777 0.0
H1680 H 0.83627 0.62399 0.19374 0.0
H1681 H 0.81274 0.60648 0.16722 0.0
C1682 C 0.73652 0.60452 0.10766 0.0
C1683 C 0.72335 0.58989 0.12117 0.0
C1684 C 0.75799 0.60963 0.1058 0.0
C1685 C 0.76658 0.60042 0.11758 0.0
C1686 C 0.75355 0.58617 0.13122 0.0
C1687 C 0.73218 0.58086 0.13293 0.0
C1688 C 0.78893 0.6048 0.11571 0.0
C1689 C 0.80284 0.61387 0.13065 0.0
C1690 C 0.79587 0.59817 0.10021 0.0
C1691 C 0.78189 0.58846 0.08405 0.0
C1692 C 0.76214 0.56924 0.08565 0.0
C1693 C 0.749 0.56031 0.07033 0.0
C1694 C 0.75553 0.57036 0.05331 0.0
C1695 C 0.77526 0.58932 0.05156 0.0
C1696 C 0.78845 0.59834 0.06685 0.0
C1697 C 0.86225 0.58297 0.13277 0.0
C1698 C 0.88009 0.59235 0.12101 0.0
C1699 C 0.84603 0.58813 0.13127 0.0
C1700 C 0.84714 0.60258 0.11785 0.0
C1701 C 0.86483 0.61195 0.10597 0.0
C1702 C 0.88135 0.60708 0.10768 0.0
C1703 C 0.82916 0.60695 0.11612 0.0
C1704 C 0.81602 0.59947 0.10055 0.0
C1705 C 0.82297 0.6152 0.13101 0.0
C1706 C 0.8372 0.62515 0.14708 0.0
C1707 C 0.85873 0.64132 0.14463 0.0
C1708 C 0.87197 0.65107 0.15975 0.0
C1709 C 0.86385 0.64489 0.17743 0.0
C1710 C 0.84251 0.62882 0.18003 0.0
C1711 C 0.82921 0.61897 0.16495 0.0
H1712 H 0.87409 0.65255 0.18913 0.0
H1713 H 0.74533 0.56342 0.04146 0.0
H1714 H 0.27293 0.90583 0.59342 0.0
H1715 H 0.23588 0.87723 0.5869 0.0
H1716 H 0.24384 0.83499 0.6239 0.0
H1717 H 0.28031 0.86288 0.63025 0.0
H1718 H 0.22791 0.81587 0.59157 0.0
H1719 H 0.21575 0.86058 0.6355 0.0
H1720 H 0.217 0.89416 0.64487 0.0
H1721 H 0.17965 0.89067 0.59782 0.0
H1722 H 0.17839 0.85718 0.58808 0.0
H1723 H 0.14451 0.74148 0.64139 0.0
H1724 H 0.17164 0.77765 0.63261 0.0
H1725 H 0.1368 0.77229 0.58309 0.0
H1726 H 0.10918 0.73552 0.59182 0.0
H1727 H 0.16223 0.81754 0.6095 0.0
H1728 H 0.16953 0.76742 0.5695 0.0
H1729 H 0.16842 0.73322 0.56297 0.0
H1730 H 0.21556 0.74696 0.6047 0.0
H1731 H 0.2167 0.78109 0.61167 0.0
C1732 C 0.26666 0.89046 0.60021 0.0
C1733 C 0.27969 0.88659 0.61221 0.0
C1734 C 0.24553 0.87416 0.59646 0.0
C1735 C 0.23718 0.85391 0.60479 0.0
C1736 C 0.25002 0.85037 0.6171 0.0
C1737 C 0.27095 0.86642 0.62074 0.0
C1738 C 0.21531 0.83582 0.60085 0.0
C1739 C 0.21351 0.81636 0.59515 0.0
C1740 C 0.19645 0.83653 0.60503 0.0
C1741 C 0.19722 0.85658 0.61094 0.0
C1742 C 0.20796 0.86709 0.62708 0.0
C1743 C 0.20864 0.88607 0.63247 0.0
C1744 C 0.19848 0.89459 0.62191 0.0
C1745 C 0.18756 0.88409 0.60596 0.0
C1746 C 0.18685 0.86511 0.60051 0.0
C1747 C 0.14233 0.74802 0.62875 0.0
C1748 C 0.12486 0.73552 0.61715 0.0
C1749 C 0.15779 0.76877 0.62384 0.0
C1750 C 0.15622 0.77752 0.60721 0.0
C1751 C 0.13815 0.76576 0.59604 0.0
C1752 C 0.12246 0.74481 0.60102 0.0
C1753 C 0.17516 0.79763 0.60098 0.0
C1754 C 0.17649 0.81735 0.60493 0.0
C1755 C 0.19373 0.79725 0.5953 0.0
C1756 C 0.19315 0.77677 0.59111 0.0
C1757 C 0.17953 0.76306 0.57737 0.0
C1758 C 0.17892 0.74371 0.57358 0.0
C1759 C 0.19194 0.73795 0.58339 0.0
C1760 C 0.20553 0.75147 0.59708 0.0
C1761 C 0.20618 0.77084 0.60094 0.0
H1762 H 0.1916 0.72307 0.58032 0.0
H1763 H 0.19902 0.90928 0.6261 0.0
H1764 H 0.85493 0.57901 0.36549 0.0
H1765 H 0.82949 0.5914 0.37024 0.0
H1766 H 0.86687 0.63017 0.41578 0.0
H1767 H 0.89295 0.61787 0.41097 0.0
H1768 H 0.82027 0.60273 0.42211 0.0
H1769 H 0.86774 0.65764 0.38222 0.0
H1770 H 0.89216 0.67355 0.35595 0.0
H1771 H 0.83994 0.63722 0.31895 0.0
H1772 H 0.81525 0.62082 0.34499 0.0
H1773 H 0.72778 0.61823 0.41105 0.0
H1774 H 0.76598 0.62979 0.41579 0.0
H1775 H 0.76407 0.59194 0.36931 0.0
H1776 H 0.72634 0.58026 0.36465 0.0
H1777 H 0.80056 0.63377 0.37009 0.0
H1778 H 0.75826 0.57146 0.41045 0.0
H1779 H 0.73339 0.55399 0.43625 0.0
H1780 H 0.7763 0.60471 0.47212 0.0
H1781 H 0.80131 0.62261 0.44643 0.0
C1782 C 0.85788 0.59021 0.37652 0.0
C1783 C 0.87595 0.59741 0.38789 0.0
C1784 C 0.84336 0.59738 0.37915 0.0
C1785 C 0.84642 0.61183 0.39325 0.0
C1786 C 0.86435 0.6191 0.40476 0.0
C1787 C 0.87921 0.61212 0.40196 0.0
C1788 C 0.83004 0.61831 0.39587 0.0
C1789 C 0.81634 0.61025 0.41106 0.0
C1790 C 0.82492 0.62806 0.38143 0.0
C1791 C 0.83962 0.63799 0.36561 0.0
C1792 C 0.86147 0.65295 0.36849 0.0
C1793 C 0.87536 0.66207 0.35363 0.0
C1794 C 0.8676 0.65641 0.33579 0.0
C1795 C 0.84592 0.64162 0.33278 0.0
C1796 C 0.83195 0.63244 0.34759 0.0
C1797 C 0.73562 0.61254 0.40181 0.0
C1798 C 0.72403 0.59821 0.38757 0.0
C1799 C 0.75738 0.61914 0.40453 0.0
C1800 C 0.76781 0.61176 0.39284 0.0
C1801 C 0.75635 0.59793 0.3784 0.0
C1802 C 0.73471 0.59112 0.37586 0.0
C1803 C 0.79031 0.61712 0.3958 0.0
C1804 C 0.80506 0.6273 0.38158 0.0
C1805 C 0.79638 0.60936 0.41112 0.0
C1806 C 0.78148 0.59849 0.42652 0.0
C1807 C 0.7623 0.57895 0.42382 0.0
C1808 C 0.7482 0.56896 0.43841 0.0
C1809 C 0.75323 0.57827 0.4558 0.0
C1810 C 0.77241 0.59755 0.45863 0.0
C1811 C 0.78654 0.60762 0.44407 0.0
H1812 H 0.74229 0.57052 0.46708 0.0
H1813 H 0.87839 0.66348 0.3243 0.0
H1814 H 0.10497 0.73121 0.89857 0.0
H1815 H 0.13415 0.76794 0.90482 0.0
H1816 H 0.18074 0.74865 0.89253 0.0
H1817 H 0.15207 0.7123 0.88652 0.0
H1818 H 0.1924 0.77423 0.92226 0.0
H1819 H 0.16486 0.77313 0.86057 0.0
H1820 H 0.13643 0.76836 0.83898 0.0
H1821 H 0.12933 0.81675 0.86733 0.0
H1822 H 0.15756 0.8216 0.88921 0.0
H1823 H 0.28622 0.84831 0.8816 0.0
H1824 H 0.25026 0.8198 0.88874 0.0
H1825 H 0.23174 0.86648 0.90293 0.0
H1826 H 0.2682 0.89566 0.8956 0.0
H1827 H 0.20153 0.8326 0.88048 0.0
H1828 H 0.23709 0.83978 0.93686 0.0
H1829 H 0.26674 0.84462 0.95691 0.0
H1830 H 0.25941 0.78472 0.93818 0.0
H1831 H 0.22993 0.77966 0.91781 0.0
C1832 C 0.12145 0.73479 0.8974 0.0
C1833 C 0.12615 0.71883 0.89187 0.0
C1834 C 0.13808 0.75578 0.90093 0.0
C1835 C 0.15963 0.76106 0.89903 0.0
C1836 C 0.16426 0.74496 0.89414 0.0
C1837 C 0.14778 0.72415 0.89057 0.0
C1838 C 0.1777 0.78339 0.90114 0.0
C1839 C 0.19434 0.78706 0.91324 0.0
C1840 C 0.17992 0.80038 0.88985 0.0
C1841 C 0.16309 0.79753 0.87664 0.0
C1842 C 0.15712 0.78263 0.86226 0.0
C1843 C 0.14106 0.77993 0.84997 0.0
C1844 C 0.13103 0.79219 0.85182 0.0
C1845 C 0.13708 0.80723 0.86594 0.0
C1846 C 0.1531 0.80996 0.87829 0.0
C1847 C 0.27465 0.85273 0.88624 0.0
C1848 C 0.28023 0.8744 0.88803 0.0
C1849 C 0.25404 0.8363 0.89043 0.0
C1850 C 0.23842 0.841 0.89664 0.0
C1851 C 0.24366 0.86255 0.89827 0.0
C1852 C 0.26448 0.87916 0.89411 0.0
C1853 C 0.21663 0.82297 0.90089 0.0
C1854 C 0.19931 0.82009 0.89002 0.0
C1855 C 0.21378 0.80663 0.91328 0.0
C1856 C 0.23127 0.80936 0.92579 0.0
C1857 C 0.24184 0.82767 0.93696 0.0
C1858 C 0.25863 0.83046 0.94839 0.0
C1859 C 0.26496 0.81499 0.94882 0.0
C1860 C 0.25447 0.79668 0.93786 0.0
C1861 C 0.23768 0.79382 0.9264 0.0
H1862 H 0.27798 0.81719 0.95765 0.0
H1863 H 0.1186 0.79008 0.84229 0.0
H1864 H 0.36364 0.10754 0.38739 0.0
H1865 H 0.35229 0.13405 0.39394 0.0
H1866 H 0.41843 0.18488 0.39211 0.0
H1867 H 0.42971 0.15903 0.38549 0.0
H1868 H 0.39596 0.18929 0.42103 0.0
H1869 H 0.38772 0.17315 0.35493 0.0
H1870 H 0.37106 0.14844 0.32889 0.0
H1871 H 0.3086 0.13466 0.3469 0.0
H1872 H 0.32493 0.15912 0.37319 0.0
H1873 H 0.42681 0.28805 0.3834 0.0
H1874 H 0.41718 0.25104 0.38955 0.0
H1875 H 0.35051 0.23312 0.39423 0.0
H1876 H 0.36005 0.27051 0.3882 0.0
H1877 H 0.35949 0.20541 0.37106 0.0
H1878 H 0.37165 0.23225 0.43168 0.0
H1879 H 0.39029 0.25849 0.45634 0.0
H1880 H 0.44642 0.25286 0.44836 0.0
H1881 H 0.42826 0.22685 0.42346 0.0
C1882 C 0.37569 0.12436 0.38861 0.0
C1883 C 0.39755 0.1312 0.38578 0.0
C1884 C 0.36921 0.13943 0.39233 0.0
C1885 C 0.38456 0.1614 0.39353 0.0
C1886 C 0.40634 0.16801 0.39137 0.0
C1887 C 0.41275 0.15316 0.38745 0.0
C1888 C 0.37857 0.1782 0.3957 0.0
C1889 C 0.38769 0.19269 0.41028 0.0
C1890 C 0.36723 0.18226 0.38194 0.0
C1891 C 0.35749 0.1677 0.36612 0.0
C1892 C 0.37042 0.16472 0.3534 0.0
C1893 C 0.36105 0.15079 0.33859 0.0
C1894 C 0.33877 0.13992 0.33628 0.0
C1895 C 0.32584 0.14303 0.34874 0.0
C1896 C 0.33514 0.15692 0.36359 0.0
C1897 C 0.41008 0.27633 0.38576 0.0
C1898 C 0.3942 0.28226 0.38531 0.0
C1899 C 0.40462 0.25518 0.38937 0.0
C1900 C 0.38317 0.23943 0.39251 0.0
C1901 C 0.36716 0.24512 0.39193 0.0
C1902 C 0.37266 0.26646 0.38854 0.0
C1903 C 0.37797 0.21704 0.39585 0.0
C1904 C 0.36682 0.20157 0.38231 0.0
C1905 C 0.38757 0.21212 0.41052 0.0
C1906 C 0.39856 0.22758 0.42567 0.0
C1907 C 0.388 0.23668 0.43512 0.0
C1908 C 0.39849 0.25152 0.44915 0.0
C1909 C 0.41952 0.25734 0.45392 0.0
C1910 C 0.43011 0.24831 0.44468 0.0
C1911 C 0.4197 0.23348 0.43062 0.0
H1912 H 0.42762 0.26884 0.46477 0.0
H1913 H 0.33154 0.12915 0.3248 0.0
H1914 H 0.28956 0.45056 0.89564 0.0
H1915 H 0.25308 0.44287 0.90112 0.0
H1916 H 0.23132 0.37511 0.90408 0.0
H1917 H 0.26814 0.3827 0.89837 0.0
H1918 H 0.20661 0.38352 0.88119 0.0
H1919 H 0.2304 0.40085 0.94229 0.0
H1920 H 0.25484 0.42121 0.96757 0.0
H1921 H 0.24935 0.47633 0.95386 0.0
H1922 H 0.22513 0.45643 0.92832 0.0
H1923 H 0.10431 0.37724 0.89473 0.0
H1924 H 0.13506 0.37241 0.90138 0.0
H1925 H 0.17781 0.44066 0.89597 0.0
H1926 H 0.14741 0.44567 0.88937 0.0
H1927 H 0.18773 0.42345 0.92578 0.0
H1928 H 0.17081 0.40796 0.861 0.0
H1929 H 0.147 0.38799 0.83524 0.0
H1930 H 0.1398 0.32904 0.85641 0.0
H1931 H 0.16337 0.34865 0.88245 0.0
C1932 C 0.27712 0.434 0.89765 0.0
C1933 C 0.28177 0.41722 0.89647 0.0
C1934 C 0.25625 0.42964 0.90094 0.0
C1935 C 0.23949 0.40843 0.9032 0.0
C1936 C 0.24406 0.39161 0.90247 0.0
C1937 C 0.2651 0.39598 0.89928 0.0
C1938 C 0.21712 0.40417 0.90484 0.0
C1939 C 0.20225 0.39174 0.89128 0.0
C1940 C 0.21149 0.41506 0.91789 0.0
C1941 C 0.22597 0.42713 0.93333 0.0
C1942 C 0.23449 0.41736 0.94459 0.0
C1943 C 0.2483 0.42882 0.95898 0.0
C1944 C 0.25366 0.45005 0.96231 0.0
C1945 C 0.24518 0.45987 0.95127 0.0
C1946 C 0.23137 0.44849 0.93685 0.0
C1947 C 0.12025 0.39124 0.8951 0.0
C1948 C 0.1234 0.41183 0.89137 0.0
C1949 C 0.13778 0.38843 0.89888 0.0
C1950 C 0.1587 0.40617 0.89909 0.0
C1951 C 0.16179 0.42676 0.89592 0.0
C1952 C 0.14437 0.42956 0.89201 0.0
C1953 C 0.17769 0.40354 0.90173 0.0
C1954 C 0.19189 0.4147 0.91608 0.0
C1955 C 0.18268 0.39146 0.88945 0.0
C1956 C 0.16859 0.37971 0.87378 0.0
C1957 C 0.16399 0.39071 0.86024 0.0
C1958 C 0.15058 0.37947 0.84558 0.0
C1959 C 0.14183 0.35725 0.84422 0.0
C1960 C 0.14654 0.34624 0.8575 0.0
C1961 C 0.15992 0.35741 0.87221 0.0
H1962 H 0.13145 0.34857 0.83285 0.0
H1963 H 0.26436 0.4589 0.97346 0.0
H1964 H 0.71329 0.14656 0.38031 0.0
H1965 H 0.75081 0.17361 0.38348 0.0
H1966 H 0.76621 0.12501 0.39881 0.0
H1967 H 0.72813 0.09721 0.39541 0.0
H1968 H 0.78629 0.17141 0.42017 0.0
H1969 H 0.78211 0.13646 0.36299 0.0
H1970 H 0.76455 0.11893 0.33402 0.0
H1971 H 0.76641 0.17676 0.31626 0.0
H1972 H 0.78365 0.19452 0.34527 0.0
H1973 H 0.89213 0.26397 0.40116 0.0
H1974 H 0.86336 0.22638 0.40399 0.0
H1975 H 0.82091 0.24079 0.37331 0.0
H1976 H 0.8492 0.278 0.37039 0.0
H1977 H 0.82032 0.20451 0.36086 0.0
H1978 H 0.81724 0.23631 0.41896 0.0
H1979 H 0.83232 0.25452 0.44833 0.0
H1980 H 0.84315 0.20329 0.46449 0.0
H1981 H 0.82836 0.18492 0.43508 0.0
C1982 C 0.72446 0.14141 0.38448 0.0
C1983 C 0.71763 0.11955 0.38734 0.0
C1984 C 0.74595 0.157 0.38636 0.0
C1985 C 0.7612 0.15126 0.39126 0.0
C1986 C 0.75455 0.12968 0.39503 0.0
C1987 C 0.73285 0.11386 0.39303 0.0
C1988 C 0.78409 0.16812 0.39087 0.0
C1989 C 0.79418 0.17829 0.40726 0.0
C1990 C 0.79407 0.17722 0.374 0.0
C1991 C 0.78409 0.16678 0.35635 0.0
C1992 C 0.77865 0.1454 0.35296 0.0
C1993 C 0.76876 0.13542 0.33652 0.0
C1994 C 0.76434 0.14672 0.32332 0.0
C1995 C 0.76985 0.16803 0.3265 0.0
C1996 C 0.77971 0.17807 0.34293 0.0
C1997 C 0.87665 0.25912 0.39504 0.0
C1998 C 0.87304 0.27407 0.38552 0.0
C1999 C 0.86025 0.23765 0.3967 0.0
C2000 C 0.84005 0.23081 0.3888 0.0
C2001 C 0.83643 0.2457 0.37939 0.0
C2002 C 0.85266 0.26705 0.37783 0.0
C2003 C 0.82231 0.20824 0.39015 0.0
C2004 C 0.81306 0.19715 0.37385 0.0
C2005 C 0.81317 0.19839 0.4071 0.0
C2006 C 0.82199 0.20941 0.42475 0.0
C2007 C 0.82302 0.22904 0.42871 0.0
C2008 C 0.83147 0.23936 0.44538 0.0
C2009 C 0.83877 0.23011 0.45824 0.0
C2010 C 0.83755 0.21047 0.45449 0.0
C2011 C 0.82913 0.20009 0.43784 0.0
H2012 H 0.8453 0.23812 0.47114 0.0
H2013 H 0.75666 0.13896 0.31061 0.0
H2014 H 0.57369 0.71373 0.86974 0.0
H2015 H 0.58311 0.7512 0.87081 0.0
H2016 H 0.6399 0.7668 0.90204 0.0
H2017 H 0.63072 0.72895 0.90094 0.0
H2018 H 0.61264 0.78585 0.91446 0.0
H2019 H 0.65096 0.78205 0.86266 0.0
H2020 H 0.65553 0.76568 0.83462 0.0
H2021 H 0.60532 0.77157 0.80838 0.0
H2022 H 0.6002 0.78765 0.83634 0.0
H2023 H 0.6268 0.89155 0.89467 0.0
H2024 H 0.63687 0.86376 0.89883 0.0
H2025 H 0.58646 0.82215 0.86173 0.0
H2026 H 0.57647 0.8494 0.85744 0.0
H2027 H 0.6236 0.8224 0.85459 0.0
H2028 H 0.57956 0.81677 0.9077 0.0
H2029 H 0.57198 0.83081 0.93579 0.0
H2030 H 0.63126 0.84156 0.95933 0.0
H2031 H 0.63929 0.82781 0.93125 0.0
C2032 C 0.58814 0.72497 0.87698 0.0
C2033 C 0.60151 0.71826 0.88517 0.0
C2034 C 0.59351 0.74643 0.87753 0.0
C2035 C 0.61228 0.76173 0.88634 0.0
C2036 C 0.62537 0.75517 0.89512 0.0
C2037 C 0.62012 0.73357 0.89443 0.0
C2038 C 0.61803 0.78456 0.88565 0.0
C2039 C 0.61572 0.79421 0.90149 0.0
C2040 C 0.62185 0.79529 0.86868 0.0
C2041 C 0.62516 0.78602 0.85165 0.0
C2042 C 0.64082 0.77976 0.85094 0.0
C2043 C 0.64351 0.77054 0.83506 0.0
C2044 C 0.6307 0.76757 0.81974 0.0
C2045 C 0.61523 0.77389 0.82026 0.0
C2046 C 0.61246 0.7831 0.83611 0.0
C2047 C 0.61797 0.87651 0.88735 0.0
C2048 C 0.60076 0.87271 0.87579 0.0
C2049 C 0.62372 0.86066 0.88976 0.0
C2050 C 0.61241 0.8409 0.88057 0.0
C2051 C 0.59551 0.83731 0.86887 0.0
C2052 C 0.58972 0.85294 0.86654 0.0
C2053 C 0.61723 0.82329 0.88326 0.0
C2054 C 0.62145 0.81455 0.86772 0.0
C2055 C 0.61503 0.81338 0.90048 0.0
C2056 C 0.61016 0.82156 0.91732 0.0
C2057 C 0.59105 0.8223 0.91881 0.0
C2058 C 0.58666 0.83017 0.93473 0.0
C2059 C 0.60117 0.83715 0.94931 0.0
C2060 C 0.62006 0.8362 0.94801 0.0
C2061 C 0.62455 0.82838 0.9321 0.0
H2062 H 0.59774 0.84323 0.96163 0.0
H2063 H 0.63274 0.76036 0.80748 0.0
H2064 H 0.33533 0.93629 0.94743 0.0
H2065 H 0.33775 0.95367 0.9766 0.0
H2066 H 0.3317 0.00337 0.94892 0.0
H2067 H 0.32892 0.98572 0.91946 0.0
H2068 H 0.36935 0.99182 0.98594 0.0
H2069 H 0.31111 0.02514 0.98054 0.0
H2070 H 0.27647 0.01572 0.96613 0.0
H2071 H 0.25833 0.94903 0.96647 0.0
H2072 H 0.29271 0.95801 0.9811 0.0
H2073 H 0.39926 0.07018 0.05208 0.0
H2074 H 0.38527 0.05349 0.02242 0.0
H2075 H 0.32843 0.00338 0.04851 0.0
H2076 H 0.34222 0.02034 0.07839 0.0
H2077 H 0.32034 0.01427 0.01299 0.0
H2078 H 0.36814 0.99468 0.04255 0.0
H2079 H 0.40174 0.00297 0.05834 0.0
H2080 H 0.43823 0.0376 0.01119 0.0
H2081 H 0.40484 0.0298 0.99523 0.0
C2082 C 0.33419 0.95075 0.94752 0.0
C2083 C 0.33212 0.95974 0.93111 0.0
C2084 C 0.3356 0.96069 0.96423 0.0
C2085 C 0.33502 0.97988 0.96498 0.0
C2086 C 0.33201 0.98846 0.94871 0.0
C2087 C 0.33047 0.9784 0.93188 0.0
C2088 C 0.33947 0.99164 0.98262 0.0
C2089 C 0.35857 0.99668 0.99179 0.0
C2090 C 0.32541 0.99792 0.99039 0.0
C2091 C 0.3046 0.9923 0.98173 0.0
C2092 C 0.2997 0.00846 0.97759 0.0
C2093 C 0.28011 0.0032 0.96938 0.0
C2094 C 0.26524 0.9818 0.96532 0.0
C2095 C 0.2699 0.96561 0.96954 0.0
C2096 C 0.28945 0.97078 0.97776 0.0
C2097 C 0.38355 0.05589 0.05149 0.0
C2098 C 0.37197 0.04637 0.06758 0.0
C2099 C 0.37555 0.04639 0.03452 0.0
C2100 C 0.356 0.027 0.03331 0.0
C2101 C 0.34357 0.01834 0.04916 0.0
C2102 C 0.35149 0.028 0.06621 0.0
C2103 C 0.35021 0.01446 0.01605 0.0
C2104 C 0.33102 0.00936 0.00701 0.0
C2105 C 0.36399 0.00775 0.00845 0.0
C2106 C 0.38402 0.01182 0.01777 0.0
C2107 C 0.38333 0.00413 0.03559 0.0
C2108 C 0.40233 0.00875 0.04456 0.0
C2109 C 0.42209 0.02087 0.03579 0.0
C2110 C 0.4229 0.02825 0.01797 0.0
C2111 C 0.40395 0.02372 0.00895 0.0
H2112 H 0.43678 0.02455 0.04281 0.0
H2113 H 0.25009 0.97776 0.95896 0.0
H2114 H 0.33833 0.33423 0.42385 0.0
H2115 H 0.32657 0.33751 0.45463 0.0
H2116 H 0.38134 0.33688 0.4779 0.0
H2117 H 0.39333 0.33401 0.44739 0.0
H2118 H 0.31765 0.31621 0.4891 0.0
H2119 H 0.40508 0.37857 0.50697 0.0
H2120 H 0.43894 0.40325 0.49113 0.0
H2121 H 0.40336 0.40797 0.44598 0.0
H2122 H 0.36933 0.3836 0.46166 0.0
H2123 H 0.32908 0.35007 0.58414 0.0
H2124 H 0.33127 0.33548 0.5543 0.0
H2125 H 0.34264 0.39402 0.52811 0.0
H2126 H 0.34081 0.40866 0.55756 0.0
H2127 H 0.37197 0.38433 0.51821 0.0
H2128 H 0.29501 0.34729 0.5233 0.0
H2129 H 0.26002 0.32356 0.53787 0.0
H2130 H 0.27219 0.27092 0.53553 0.0
H2131 H 0.3074 0.29443 0.52116 0.0
C2132 C 0.34757 0.33432 0.43558 0.0
C2133 C 0.36694 0.33427 0.43322 0.0
C2134 C 0.34079 0.33609 0.45314 0.0
C2135 C 0.35328 0.33776 0.46849 0.0
C2136 C 0.37163 0.33589 0.46621 0.0
C2137 C 0.37849 0.33432 0.44875 0.0
C2138 C 0.34894 0.34433 0.48648 0.0
C2139 C 0.3295 0.33105 0.49554 0.0
C2140 C 0.3643 0.36386 0.49471 0.0
C2141 C 0.38468 0.37909 0.48541 0.0
C2142 C 0.4045 0.38498 0.49371 0.0
C2143 C 0.42371 0.39889 0.48475 0.0
C2144 C 0.42328 0.4071 0.46753 0.0
C2145 C 0.40366 0.40154 0.45929 0.0
C2146 C 0.38441 0.38767 0.4682 0.0
C2147 C 0.33181 0.35967 0.57196 0.0
C2148 C 0.335 0.38058 0.57322 0.0
C2149 C 0.33299 0.35131 0.55493 0.0
C2150 C 0.33719 0.3637 0.53897 0.0
C2151 C 0.33956 0.38423 0.54023 0.0
C2152 C 0.3385 0.39258 0.55713 0.0
C2153 C 0.34064 0.35622 0.52104 0.0
C2154 C 0.36007 0.36939 0.51193 0.0
C2155 C 0.32509 0.33682 0.51272 0.0
C2156 C 0.30394 0.32268 0.52134 0.0
C2157 C 0.29031 0.3307 0.52604 0.0
C2158 C 0.27042 0.31728 0.53423 0.0
C2159 C 0.26392 0.29576 0.53767 0.0
C2160 C 0.27727 0.2876 0.53288 0.0
C2161 C 0.29718 0.30096 0.5247 0.0
H2162 H 0.24851 0.2854 0.54401 0.0
H2163 H 0.43815 0.41777 0.46059 0.0
H2164 H 0.01381 0.34026 0.92159 0.0
H2165 H 0.99588 0.32495 0.95092 0.0
H2166 H 0.04013 0.38391 0.97822 0.0
H2167 H 0.05786 0.39927 0.94924 0.0
H2168 H 0.00857 0.3192 0.98733 0.0
H2169 H 0.01036 0.39855 0.00348 0.0
H2170 H 0.01237 0.42944 0.98695 0.0
H2171 H 0.98204 0.3894 0.94023 0.0
H2172 H 0.97954 0.35823 0.95658 0.0
H2173 H 0.98064 0.32582 0.08093 0.0
H2174 H 0.99711 0.3294 0.05076 0.0
H2175 H 0.94214 0.3276 0.02521 0.0
H2176 H 0.92604 0.32467 0.05514 0.0
H2177 H 0.97668 0.36061 0.01353 0.0
H2178 H 0.95365 0.28596 0.02085 0.0
H2179 H 0.95036 0.25403 0.03641 0.0
H2180 H 0.01884 0.28148 0.03475 0.0
H2181 H 0.02256 0.31373 0.0194 0.0
C2182 C 0.01995 0.34975 0.93393 0.0
C2183 C 0.03702 0.37107 0.93308 0.0
C2184 C 0.00976 0.34097 0.95066 0.0
C2185 C 0.01653 0.35343 0.96667 0.0
C2186 C 0.03452 0.37413 0.96599 0.0
C2187 C 0.04459 0.38289 0.94938 0.0
C2188 C 0.00357 0.34607 0.98366 0.0
C2189 C 0.00151 0.32815 0.9931 0.0
C2190 C 0.9941 0.3576 0.99097 0.0
C2191 C 0.99495 0.37611 0.98121 0.0
C2192 C 0.00401 0.39632 0.98972 0.0
C2193 C 0.00525 0.41388 0.98038 0.0
C2194 C 0.99741 0.4114 0.96253 0.0
C2195 C 0.98818 0.39132 0.95403 0.0
C2196 C 0.98686 0.37371 0.96332 0.0
C2197 C 0.97196 0.32582 0.06882 0.0
C2198 C 0.95217 0.32519 0.07039 0.0
C2199 C 0.98133 0.32779 0.05159 0.0
C2200 C 0.97088 0.3288 0.03567 0.0
C2201 C 0.95061 0.32703 0.03726 0.0
C2202 C 0.94141 0.32534 0.0544 0.0
C2203 C 0.98172 0.33373 0.01753 0.0
C2204 C 0.98353 0.35142 0.00784 0.0
C2205 C 0.99059 0.32174 0.00995 0.0
C2206 C 0.98839 0.30234 0.01911 0.0
C2207 C 0.96802 0.28527 0.02393 0.0
C2208 C 0.96607 0.26709 0.03269 0.0
C2209 C 0.98438 0.26575 0.0366 0.0
C2210 C 0.00467 0.28255 0.03172 0.0
C2211 C 0.00671 0.30077 0.02297 0.0
H2212 H 0.98284 0.25167 0.04338 0.0
H2213 H 0.99845 0.42502 0.95531 0.0
H2214 H 0.67932 0.01972 0.42155 0.0
H2215 H 0.67754 0.00264 0.45117 0.0
H2216 H 0.63605 0.02509 0.47199 0.0
H2217 H 0.63863 0.04279 0.44312 0.0
H2218 H 0.66201 0.03007 0.49706 0.0
H2219 H 0.61818 0.97107 0.45576 0.0
H2220 H 0.61169 0.94842 0.42848 0.0
H2221 H 0.65956 0.93352 0.44658 0.0
H2222 H 0.66648 0.95628 0.47388 0.0
H2223 H 0.59063 0.92837 0.55222 0.0
H2224 H 0.60552 0.94573 0.52302 0.0
H2225 H 0.66552 0.98917 0.54941 0.0
H2226 H 0.65043 0.97209 0.57896 0.0
H2227 H 0.63711 0.95225 0.50127 0.0
H2228 H 0.68621 0.03849 0.52913 0.0
H2229 H 0.68703 0.05993 0.55581 0.0
H2230 H 0.61925 0.01832 0.56356 0.0
H2231 H 0.61801 0.99682 0.53681 0.0
C2232 C 0.66995 0.02104 0.43254 0.0
C2233 C 0.65917 0.03264 0.43002 0.0
C2234 C 0.66885 0.01122 0.44943 0.0
C2235 C 0.65653 0.01241 0.46389 0.0
C2236 C 0.64585 0.02404 0.46123 0.0
C2237 C 0.64728 0.03412 0.44461 0.0
C2238 C 0.65407 0.00139 0.48177 0.0
C2239 C 0.65679 0.01309 0.49793 0.0
C2240 C 0.64718 0.97921 0.48308 0.0
C2241 C 0.64302 0.96556 0.46671 0.0
C2242 C 0.62742 0.96307 0.45384 0.0
C2243 C 0.62365 0.9502 0.43839 0.0
C2244 C 0.63526 0.9396 0.43576 0.0
C2245 C 0.65062 0.94179 0.44861 0.0
C2246 C 0.65446 0.95466 0.46407 0.0
C2247 C 0.60707 0.9415 0.55185 0.0
C2248 C 0.61927 0.949 0.56797 0.0
C2249 C 0.61562 0.95134 0.53507 0.0
C2250 C 0.63658 0.96892 0.53398 0.0
C2251 C 0.6492 0.97582 0.54993 0.0
C2252 C 0.64058 0.96602 0.5668 0.0
C2253 C 0.64433 0.98081 0.51639 0.0
C2254 C 0.64277 0.96933 0.50036 0.0
C2255 C 0.65155 0.00304 0.5151 0.0
C2256 C 0.65211 0.0159 0.53116 0.0
C2257 C 0.6715 0.03395 0.53654 0.0
C2258 C 0.67203 0.04611 0.55166 0.0
C2259 C 0.65323 0.04043 0.56142 0.0
C2260 C 0.63383 0.02264 0.55604 0.0
C2261 C 0.63321 0.01045 0.54091 0.0
H2262 H 0.65368 0.04986 0.57313 0.0
H2263 H 0.63232 0.92964 0.4238 0.0
H2264 H 0.6633 0.59028 0.05633 0.0
H2265 H 0.66164 0.6048 0.02668 0.0
H2266 H 0.67446 0.66405 0.0524 0.0
H2267 H 0.67648 0.64963 0.0823 0.0
H2268 H 0.63291 0.615 0.01659 0.0
H2269 H 0.69809 0.70498 0.02005 0.0
H2270 H 0.7337 0.72797 0.03394 0.0
H2271 H 0.74503 0.67475 0.03482 0.0
H2272 H 0.70964 0.65153 0.02072 0.0
H2273 H 0.60926 0.66801 0.94986 0.0
H2274 H 0.62229 0.66363 0.97942 0.0
H2275 H 0.67645 0.66471 0.95305 0.0
H2276 H 0.66365 0.66955 0.92325 0.0
H2277 H 0.68652 0.68395 0.98816 0.0
H2278 H 0.63374 0.61797 0.95974 0.0
H2279 H 0.59914 0.59447 0.94448 0.0
H2280 H 0.56525 0.59705 0.99186 0.0
H2281 H 0.59967 0.62087 0.0073 0.0
C2282 C 0.66605 0.60651 0.05571 0.0
C2283 C 0.66988 0.61876 0.0717 0.0
C2284 C 0.66507 0.61479 0.03871 0.0
C2285 C 0.66788 0.6355 0.03727 0.0
C2286 C 0.67246 0.6481 0.05314 0.0
C2287 C 0.67354 0.63983 0.07022 0.0
C2288 C 0.66432 0.64302 0.01936 0.0
C2289 C 0.6447 0.63008 0.01043 0.0
C2290 C 0.67971 0.66261 0.01117 0.0
C2291 C 0.70111 0.67647 0.01951 0.0
C2292 C 0.70822 0.69821 0.02315 0.0
C2293 C 0.72836 0.71128 0.03107 0.0
C2294 C 0.74159 0.70281 0.03532 0.0
C2295 C 0.73473 0.68127 0.0316 0.0
C2296 C 0.71462 0.66813 0.02367 0.0
C2297 C 0.62421 0.6678 0.95036 0.0
C2298 C 0.63528 0.6688 0.93422 0.0
C2299 C 0.63164 0.66532 0.96728 0.0
C2300 C 0.6501 0.66343 0.96839 0.0
C2301 C 0.66214 0.66609 0.95248 0.0
C2302 C 0.65479 0.66881 0.93547 0.0
C2303 C 0.65509 0.65601 0.98568 0.0
C2304 C 0.67484 0.66891 0.99444 0.0
C2305 C 0.63999 0.63617 0.99365 0.0
C2306 C 0.61927 0.62135 0.98461 0.0
C2307 C 0.6189 0.6136 0.96687 0.0
C2308 C 0.59933 0.60024 0.95819 0.0
C2309 C 0.58002 0.59434 0.96718 0.0
C2310 C 0.58023 0.60167 0.98491 0.0
C2311 C 0.59976 0.61509 0.99364 0.0
H2312 H 0.5649 0.58409 0.9604 0.0
H2313 H 0.75717 0.71295 0.04145 0.0
H2314 H 0.07229 0.66523 0.55562 0.0
H2315 H 0.05621 0.65989 0.52534 0.0
H2316 H 0.00366 0.66508 0.54815 0.0
H2317 H 0.01994 0.6708 0.57859 0.0
H2318 H 0.0197 0.62771 0.5143 0.0
H2319 H 0.98286 0.68338 0.51474 0.0
H2320 H 0.99061 0.71822 0.52769 0.0
H2321 H 0.05776 0.73846 0.5302 0.0
H2322 H 0.05045 0.70388 0.51703 0.0
H2323 H 0.93892 0.59269 0.44877 0.0
H2324 H 0.9583 0.60721 0.4773 0.0
H2325 H 0.00501 0.66429 0.44908 0.0
H2326 H 0.98542 0.64987 0.42024 0.0
H2327 H 0.99502 0.67321 0.48383 0.0
H2328 H 0.01695 0.62646 0.45697 0.0
H2329 H 0.01141 0.59293 0.44282 0.0
H2330 H 0.97925 0.55778 0.49126 0.0
H2331 H 0.98432 0.59106 0.50561 0.0
C2332 C 0.05743 0.66548 0.55421 0.0
C2333 C 0.04734 0.66835 0.56955 0.0
C2334 C 0.04823 0.66238 0.53686 0.0
C2335 C 0.02874 0.66211 0.53441 0.0
C2336 C 0.01885 0.6655 0.54963 0.0
C2337 C 0.02812 0.66868 0.56705 0.0
C2338 C 0.01818 0.65683 0.51616 0.0
C2339 C 0.01438 0.63773 0.50767 0.0
C2340 C 0.01145 0.67 0.50731 0.0
C2341 C 0.01605 0.69094 0.51507 0.0
C2342 C 0.99928 0.6953 0.51799 0.0
C2343 C 0.0036 0.715 0.52538 0.0
C2344 C 0.02465 0.73051 0.52982 0.0
C2345 C 0.04144 0.72639 0.52683 0.0
C2346 C 0.03722 0.70673 0.51942 0.0
C2347 C 0.95319 0.60845 0.44859 0.0
C2348 C 0.96077 0.62004 0.43218 0.0
C2349 C 0.96426 0.61671 0.46495 0.0
C2350 C 0.98327 0.63667 0.46528 0.0
C2351 C 0.99038 0.64882 0.44911 0.0
C2352 C 0.97922 0.64054 0.43265 0.0
C2353 C 0.99629 0.64397 0.48229 0.0
C2354 C 0.00047 0.66332 0.49051 0.0
C2355 C 0.00374 0.63125 0.49081 0.0
C2356 C 0.00087 0.61123 0.48231 0.0
C2357 C 0.00858 0.61155 0.46456 0.0
C2358 C 0.00553 0.5926 0.45651 0.0
C2359 C 0.99495 0.57323 0.46612 0.0
C2360 C 0.98743 0.57279 0.48383 0.0
C2361 C 0.9904 0.5917 0.49193 0.0
H2362 H 0.9926 0.55857 0.45986 0.0
H2363 H 0.02796 0.74575 0.53555 0.0
H2364 H 0.60061 0.91971 0.94126 0.0
H2365 H 0.61202 0.93318 0.97232 0.0
H2366 H 0.65617 0.99601 0.95069 0.0
H2367 H 0.64572 0.98215 0.91956 0.0
H2368 H 0.67354 0.99078 0.9789 0.0
H2369 H 0.60343 0.98047 0.96742 0.0
H2370 H 0.56519 0.96058 0.95864 0.0
H2371 H 0.55182 0.91635 0.00287 0.0
H2372 H 0.59005 0.93583 0.01177 0.0
H2373 H 0.66384 0.05387 0.05141 0.0
H2374 H 0.6606 0.03494 0.02273 0.0
H2375 H 0.64716 0.97807 0.05293 0.0
H2376 H 0.65114 0.99726 0.08186 0.0
H2377 H 0.61526 0.97764 0.02241 0.0
H2378 H 0.68785 0.99379 0.03493 0.0
H2379 H 0.72584 0.01793 0.04297 0.0
H2380 H 0.73385 0.05644 0.99554 0.0
H2381 H 0.69579 0.0327 0.98736 0.0
C2382 C 0.61299 0.93631 0.94316 0.0
C2383 C 0.62217 0.94994 0.92803 0.0
C2384 C 0.6194 0.94406 0.96093 0.0
C2385 C 0.63453 0.96582 0.96398 0.0
C2386 C 0.64441 0.9792 0.94879 0.0
C2387 C 0.63841 0.97128 0.93098 0.0
C2388 C 0.63924 0.97489 0.98287 0.0
C2389 C 0.66074 0.98792 0.98834 0.0
C2390 C 0.62264 0.97116 0.9954 0.0
C2391 C 0.59963 0.95945 0.99012 0.0
C2392 C 0.59235 0.96641 0.97519 0.0
C2393 C 0.57068 0.95523 0.97021 0.0
C2394 C 0.5561 0.93717 0.98016 0.0
C2395 C 0.56314 0.93031 0.99515 0.0
C2396 C 0.58481 0.94142 1.00018 0.0
C2397 C 0.66054 0.03744 0.05196 0.0
C2398 C 0.65772 0.027 0.06884 0.0
C2399 C 0.65875 0.02669 0.03558 0.0
C2400 C 0.65369 0.00517 0.03576 0.0
C2401 C 0.6512 0.99474 0.05257 0.0
C2402 C 0.65353 0.0057 0.06904 0.0
C2403 C 0.64939 0.99335 0.01826 0.0
C2404 C 0.62796 0.98004 0.01302 0.0
C2405 C 0.666 0.99734 0.00581 0.0
C2406 C 0.68891 0.01157 0.01064 0.0
C2407 C 0.69765 0.00752 0.02631 0.0
C2408 C 0.71921 0.02111 0.03087 0.0
C2409 C 0.73224 0.03874 0.0198 0.0
C2410 C 0.72374 0.04278 0.00411 0.0
C2411 C 0.70218 0.02925 0.9995 0.0
H2412 H 0.74893 0.04924 0.02335 0.0
H2413 H 0.53933 0.92854 0.97628 0.0
H2414 H 0.6786 0.65487 0.42215 0.0
H2415 H 0.67964 0.67151 0.45175 0.0
H2416 H 0.65341 0.60966 0.47798 0.0
H2417 H 0.6528 0.59318 0.44878 0.0
H2418 H 0.64903 0.6661 0.47402 0.0
H2419 H 0.67039 0.61296 0.52035 0.0
H2420 H 0.69349 0.59671 0.51883 0.0
H2421 H 0.7336 0.64358 0.47901 0.0
H2422 H 0.71096 0.66034 0.48048 0.0
H2423 H 0.60103 0.64734 0.5591 0.0
H2424 H 0.61559 0.64697 0.52927 0.0
H2425 H 0.67981 0.6802 0.55141 0.0
H2426 H 0.6651 0.68 0.58182 0.0
H2427 H 0.67568 0.64916 0.53062 0.0
H2428 H 0.66167 0.70581 0.52161 0.0
H2429 H 0.6415 0.72519 0.52288 0.0
H2430 H 0.59305 0.67802 0.48771 0.0
H2431 H 0.61274 0.65817 0.48644 0.0
C2432 C 0.67324 0.6449 0.43428 0.0
C2433 C 0.66567 0.62273 0.43313 0.0
C2434 C 0.67384 0.65441 0.45118 0.0
C2435 C 0.66695 0.64192 0.46718 0.0
C2436 C 0.65934 0.61978 0.46595 0.0
C2437 C 0.65885 0.61033 0.44918 0.0
C2438 C 0.6664 0.65147 0.48508 0.0
C2439 C 0.65506 0.66261 0.48638 0.0
C2440 C 0.67495 0.64764 0.50117 0.0
C2441 C 0.68888 0.63785 0.50047 0.0
C2442 C 0.68423 0.61991 0.51136 0.0
C2443 C 0.69722 0.61058 0.51049 0.0
C2444 C 0.71498 0.61908 0.49881 0.0
C2445 C 0.71981 0.63698 0.48802 0.0
C2446 C 0.70689 0.64638 0.48885 0.0
C2447 C 0.61829 0.65477 0.55768 0.0
C2448 C 0.63192 0.66376 0.57286 0.0
C2449 C 0.62663 0.65469 0.54051 0.0
C2450 C 0.64886 0.66395 0.53792 0.0
C2451 C 0.66261 0.67309 0.55303 0.0
C2452 C 0.65421 0.67301 0.57037 0.0
C2453 C 0.65723 0.66266 0.51963 0.0
C2454 C 0.67006 0.65309 0.51825 0.0
C2455 C 0.65056 0.66848 0.50343 0.0
C2456 C 0.63869 0.68046 0.50398 0.0
C2457 C 0.64666 0.6995 0.51421 0.0
C2458 C 0.63531 0.71058 0.51493 0.0
C2459 C 0.616 0.70283 0.50539 0.0
C2460 C 0.60802 0.68401 0.49508 0.0
C2461 C 0.6193 0.67286 0.49433 0.0
H2462 H 0.60723 0.71142 0.50598 0.0
H2463 H 0.725 0.61182 0.49814 0.0
H2464 H 0.98489 0.65846 0.08443 0.0
H2465 H 0.00115 0.67566 0.05511 0.0
H2466 H 0.96179 0.61546 0.02731 0.0
H2467 H 0.94528 0.59856 0.05611 0.0
H2468 H 0.02496 0.66842 0.03288 0.0
H2469 H 0.95024 0.62077 0.98511 0.0
H2470 H 0.91141 0.60793 0.98578 0.0
H2471 H 0.92165 0.65583 0.02581 0.0
H2472 H 0.96059 0.66919 0.02519 0.0
H2473 H 0.05337 0.64685 0.94829 0.0
H2474 H 0.03833 0.64743 0.97791 0.0
H2475 H 0.01208 0.68478 0.95513 0.0
H2476 H 0.02664 0.68363 0.92504 0.0
H2477 H 0.98341 0.65524 0.97547 0.0
H2478 H 0.05558 0.7074 0.98559 0.0
H2479 H 0.095 0.72396 0.98512 0.0
H2480 H 0.09089 0.67455 0.02071 0.0
H2481 H 0.05142 0.65749 0.02118 0.0
C2482 C 0.97948 0.64905 0.07199 0.0
C2483 C 0.96379 0.62715 0.07261 0.0
C2484 C 0.98882 0.65887 0.05526 0.0
C2485 C 0.9825 0.64696 0.03891 0.0
C2486 C 0.9666 0.6252 0.03959 0.0
C2487 C 0.95726 0.61547 0.05617 0.0
C2488 C 0.99349 0.65641 0.02124 0.0
C2489 C 0.0159 0.66578 0.02035 0.0
C2490 C 0.9818 0.65372 0.00491 0.0
C2491 C 0.95838 0.64593 0.00515 0.0
C2492 C 0.94425 0.62868 0.99396 0.0
C2493 C 0.9222 0.62128 0.99436 0.0
C2494 C 0.91406 0.63103 0.00585 0.0
C2495 C 0.92797 0.64825 0.01695 0.0
C2496 C 0.95003 0.65572 0.01659 0.0
C2497 C 0.04454 0.65534 0.94955 0.0
C2498 C 0.04124 0.66523 0.9343 0.0
C2499 C 0.03607 0.65581 0.96659 0.0
C2500 C 0.02442 0.66654 0.96893 0.0
C2501 C 0.02112 0.67651 0.95372 0.0
C2502 C 0.02945 0.67586 0.93654 0.0
C2503 C 0.0147 0.66602 0.98705 0.0
C2504 C 0.99254 0.65835 0.98802 0.0
C2505 C 0.02671 0.67088 0.00348 0.0
C2506 C 0.05049 0.68112 0.00337 0.0
C2507 C 0.06306 0.69999 0.99324 0.0
C2508 C 0.08542 0.70947 0.99298 0.0
C2509 C 0.09544 0.7003 0.00287 0.0
C2510 C 0.08311 0.68164 0.01306 0.0
C2511 C 0.06074 0.67208 0.01336 0.0
H2512 H 0.11275 0.70766 0.00264 0.0
H2513 H 0.89698 0.62527 0.00615 0.0
H2514 H 0.32296 0.99057 0.57788 0.0
H2515 H 0.32325 0.00677 0.54818 0.0
H2516 H 0.34931 0.97058 0.52276 0.0
H2517 H 0.34842 0.95404 0.55188 0.0
H2518 H 0.3544 0.03195 0.52676 0.0
H2519 H 0.33528 0.9582 0.48009 0.0
H2520 H 0.31172 0.91887 0.48072 0.0
H2521 H 0.26954 0.92528 0.51847 0.0
H2522 H 0.29266 0.96467 0.51787 0.0
H2523 H 0.40667 0.06427 0.44317 0.0
H2524 H 0.39108 0.04835 0.47259 0.0
H2525 H 0.32789 0.01601 0.44835 0.0
H2526 H 0.34366 0.0314 0.41848 0.0
H2527 H 0.33113 0.98953 0.46936 0.0
H2528 H 0.34435 0.05982 0.47851 0.0
H2529 H 0.36426 0.09941 0.47796 0.0
H2530 H 0.41085 0.10034 0.51523 0.0
H2531 H 0.39141 0.06075 0.5158 0.0
C2532 C 0.32847 0.9859 0.56587 0.0
C2533 C 0.33555 0.97094 0.56723 0.0
C2534 C 0.32867 0.99519 0.54892 0.0
C2535 C 0.33594 0.98963 0.53311 0.0
C2536 C 0.34303 0.97472 0.53457 0.0
C2537 C 0.34266 0.96536 0.55134 0.0
C2538 C 0.33755 0.00017 0.51518 0.0
C2539 C 0.3491 0.02268 0.51422 0.0
C2540 C 0.32996 0.98815 0.49879 0.0
C2541 C 0.31579 0.96443 0.49899 0.0
C2542 C 0.3209 0.95125 0.48842 0.0
C2543 C 0.30764 0.92893 0.4888 0.0
C2544 C 0.28917 0.91958 0.49965 0.0
C2545 C 0.28389 0.93254 0.51011 0.0
C2546 C 0.29708 0.95486 0.50977 0.0
C2547 C 0.38942 0.05388 0.44407 0.0
C2548 C 0.37639 0.04913 0.42849 0.0
C2549 C 0.38048 0.0449 0.46099 0.0
C2550 C 0.35821 0.03131 0.46287 0.0
C2551 C 0.3451 0.02654 0.44731 0.0
C2552 C 0.35411 0.03533 0.43025 0.0
C2553 C 0.34904 0.02126 0.48092 0.0
C2554 C 0.33604 0.99884 0.48189 0.0
C2555 C 0.35469 0.03341 0.49731 0.0
C2556 C 0.36644 0.05727 0.49714 0.0
C2557 C 0.35891 0.06845 0.48651 0.0
C2558 C 0.37011 0.0909 0.4862 0.0
C2559 C 0.38881 0.10238 0.49654 0.0
C2560 C 0.39634 0.09143 0.50723 0.0
C2561 C 0.38522 0.06897 0.50758 0.0
H2562 H 0.39746 0.11976 0.49628 0.0
H2563 H 0.27894 0.90229 0.49993 0.0
H2564 H 0.40291 0.34376 0.05427 0.0
H2565 H 0.38846 0.34626 0.02488 0.0
H2566 H 0.32516 0.31874 0.04856 0.0
H2567 H 0.33975 0.31678 0.07834 0.0
H2568 H 0.36023 0.32157 1.00062 0.0
H2569 H 0.30016 0.34412 0.03019 0.0
H2570 H 0.29372 0.35872 0.05853 0.0
H2571 H 0.36127 0.39198 0.07033 0.0
H2572 H 0.36811 0.37779 0.04197 0.0
H2573 H 0.31793 0.34935 0.92298 0.0
H2574 H 0.31889 0.33181 0.9515 0.0
H2575 H 0.35475 0.39382 0.97744 0.0
H2576 H 0.35329 0.41122 0.94943 0.0
H2577 H 0.32673 0.36739 1.00035 0.0
H2578 H 0.37882 0.36551 0.95941 0.0
H2579 H 0.39057 0.35575 0.9311 0.0
H2580 H 0.34749 0.28889 0.94199 0.0
H2581 H 0.33532 0.2983 0.97028 0.0
C2582 C 0.38584 0.33793 0.05322 0.0
C2583 C 0.37252 0.33036 0.06871 0.0
C2584 C 0.37756 0.33927 0.03633 0.0
C2585 C 0.35578 0.33301 0.03453 0.0
C2586 C 0.34211 0.32401 0.04969 0.0
C2587 C 0.35044 0.32283 0.06668 0.0
C2588 C 0.34817 0.33794 0.01727 0.0
C2589 C 0.35262 0.33134 1.00056 0.0
C2590 C 0.33847 0.3509 0.01712 0.0
C2591 C 0.33458 0.35965 0.03412 0.0
C2592 C 0.31362 0.35457 0.03884 0.0
C2593 C 0.30991 0.36278 0.05489 0.0
C2594 C 0.32706 0.37619 0.06626 0.0
C2595 C 0.34799 0.38152 0.06155 0.0
C2596 C 0.35179 0.37338 0.0455 0.0
C2597 C 0.32586 0.35917 0.93484 0.0
C2598 C 0.3356 0.38167 0.93393 0.0
C2599 C 0.32646 0.34915 0.9511 0.0
C2600 C 0.33706 0.36149 0.96661 0.0
C2601 C 0.34637 0.3839 0.96574 0.0
C2602 C 0.34561 0.39386 0.94963 0.0
C2603 C 0.33935 0.35154 0.98367 0.0
C2604 C 0.33379 0.35713 1.00037 0.0
C2605 C 0.34869 0.33826 0.98379 0.0
C2606 C 0.35597 0.33261 0.9668 0.0
C2607 C 0.37174 0.34874 0.95568 0.0
C2608 C 0.3785 0.34327 0.93966 0.0
C2609 C 0.36972 0.32172 0.93471 0.0
C2610 C 0.35423 0.30558 0.94581 0.0
C2611 C 0.3474 0.31097 0.96184 0.0
H2612 H 0.37498 0.31752 0.92231 0.0
H2613 H 0.32415 0.38251 0.07869 0.0
H2614 H 0.05805 0.4025 0.55665 0.0
H2615 H 0.03959 0.38644 0.52806 0.0
H2616 H 0.99534 0.32855 0.55671 0.0
H2617 H 0.01396 0.34455 0.58562 0.0
H2618 H 0.00759 0.32086 0.52151 0.0
H2619 H 0.97948 0.36247 0.54877 0.0
H2620 H 0.98191 0.39465 0.56313 0.0
H2621 H 0.01238 0.43155 0.51495 0.0
H2622 H 0.01043 0.39966 0.50041 0.0
H2623 H 0.92717 0.32435 0.44995 0.0
H2624 H 0.94217 0.32768 0.48045 0.0
H2625 H 0.99764 0.32834 0.4572 0.0
H2626 H 0.98235 0.32448 0.42648 0.0
H2627 H 0.97694 0.36148 0.49156 0.0
H2628 H 0.02156 0.31299 0.49057 0.0
H2629 H 0.01731 0.2796 0.47716 0.0
H2630 H 0.94905 0.25334 0.47425 0.0
H2631 H 0.95285 0.28644 0.48786 0.0
C2632 C 0.04455 0.38624 0.55691 0.0
C2633 C 0.03729 0.37488 0.57346 0.0
C2634 C 0.03404 0.37708 0.54052 0.0
C2635 C 0.01595 0.35642 0.54031 0.0
C2636 C 0.00928 0.34453 0.55661 0.0
C2637 C 0.01986 0.35372 0.57311 0.0
C2638 C 0.00311 0.34825 0.52331 0.0
C2639 C 0.00081 0.32965 0.51493 0.0
C2640 C 0.99397 0.35955 0.51494 0.0
C2641 C 0.99496 0.37871 0.52357 0.0
C2642 C 0.98683 0.37749 0.54129 0.0
C2643 C 0.98811 0.39567 0.54946 0.0
C2644 C 0.99734 0.41514 0.53998 0.0
C2645 C 0.00526 0.41646 0.52229 0.0
C2646 C 0.00405 0.39833 0.51407 0.0
C2647 C 0.94237 0.32476 0.45133 0.0
C2648 C 0.95369 0.32435 0.43582 0.0
C2649 C 0.95094 0.32669 0.46879 0.0
C2650 C 0.97109 0.32839 0.47116 0.0
C2651 C 0.98196 0.32683 0.45576 0.0
C2652 C 0.97324 0.32467 0.43821 0.0
C2653 C 0.98154 0.33413 0.48944 0.0
C2654 C 0.98353 0.35248 0.49809 0.0
C2655 C 0.99003 0.32236 0.4981 0.0
C2656 C 0.98753 0.3023 0.49007 0.0
C2657 C 0.00564 0.30006 0.48713 0.0
C2658 C 0.00331 0.28119 0.47949 0.0
C2659 C 0.98293 0.26439 0.47481 0.0
C2660 C 0.96483 0.2664 0.47781 0.0
C2661 C 0.96707 0.28523 0.48546 0.0
H2662 H 0.98117 0.24979 0.46888 0.0
H2663 H 0.99832 0.4292 0.54633 0.0
H2664 H 0.46234 0.07387 0.09718 0.0
H2665 H 0.49217 0.06684 0.09696 0.0
H2666 H 0.45825 0.01497 0.13545 0.0
H2667 H 0.42886 0.02301 0.13636 0.0
H2668 H 0.49577 0.03627 0.1466 0.0
H2669 H 0.46879 0.00686 0.08875 0.0
H2670 H 0.45418 0.00376 0.05771 0.0
H2671 H 0.51259 0.05977 0.04094 0.0
H2672 H 0.52751 0.06331 0.07195 0.0
H2673 H 0.59017 0.02505 0.14027 0.0
H2674 H 0.55338 0.01826 0.14014 0.0
H2675 H 0.57181 0.07062 0.10219 0.0
H2676 H 0.60773 0.07511 0.10035 0.0
H2677 H 0.53716 0.03947 0.0914 0.0
H2678 H 0.54577 0.07265 0.15859 0.0
H2679 H 0.55574 0.07288 0.19102 0.0
H2680 H 0.52828 0.0044 0.18956 0.0
H2681 H 0.51786 0.00388 0.15729 0.0
C2682 C 0.46142 0.0611 0.10568 0.0
C2683 C 0.44394 0.0496 0.11741 0.0
C2684 C 0.47824 0.05673 0.10526 0.0
C2685 C 0.47751 0.04021 0.11609 0.0
C2686 C 0.45932 0.02788 0.12706 0.0
C2687 C 0.44257 0.03245 0.12761 0.0
C2688 C 0.49657 0.03732 0.11716 0.0
C2689 C 0.50465 0.03673 0.13447 0.0
C2690 C 0.50808 0.03742 0.10143 0.0
C2691 C 0.49923 0.03539 0.08272 0.0
C2692 C 0.47848 0.01859 0.07848 0.0
C2693 C 0.47016 0.01674 0.06088 0.0
C2694 C 0.48244 0.03158 0.04736 0.0
C2695 C 0.5031 0.04827 0.05142 0.0
C2696 C 0.51152 0.05017 0.06899 0.0
C2697 C 0.58636 0.03533 0.13219 0.0
C2698 C 0.60208 0.05147 0.1211 0.0
C2699 C 0.56534 0.03171 0.13239 0.0
C2700 C 0.55974 0.04452 0.12185 0.0
C2701 C 0.57561 0.06066 0.11073 0.0
C2702 C 0.59634 0.06364 0.10998 0.0
C2703 C 0.53718 0.04021 0.12089 0.0
C2704 C 0.52826 0.03908 0.10351 0.0
C2705 C 0.52463 0.03803 0.13655 0.0
C2706 C 0.53207 0.0384 0.1554 0.0
C2707 C 0.54231 0.05776 0.16515 0.0
C2708 C 0.54781 0.0579 0.18352 0.0
C2709 C 0.543 0.03872 0.19225 0.0
C2710 C 0.5323 0.0193 0.18273 0.0
C2711 C 0.52654 0.01907 0.16443 0.0
H2712 H 0.54733 0.03888 0.20645 0.0
H2713 H 0.47595 0.03013 0.03375 0.0
H2714 H 0.5714 0.58918 0.64563 0.0
H2715 H 0.53916 0.55331 0.64542 0.0
H2716 H 0.51004 0.57539 0.60568 0.0
H2717 H 0.54256 0.61046 0.60517 0.0
H2718 H 0.5019 0.54105 0.65615 0.0
H2719 H 0.47237 0.53805 0.58095 0.0
H2720 H 0.488 0.54789 0.55003 0.0
H2721 H 0.54306 0.54443 0.5679 0.0
H2722 H 0.52764 0.53426 0.59886 0.0
H2723 H 0.3891 0.47597 0.6092 0.0
H2724 H 0.4261 0.50549 0.61188 0.0
H2725 H 0.43982 0.46741 0.64921 0.0
H2726 H 0.40219 0.43922 0.64829 0.0
H2727 H 0.45927 0.50451 0.60095 0.0
H2728 H 0.47438 0.486 0.66727 0.0
H2729 H 0.46309 0.47712 0.6995 0.0
H2730 H 0.44272 0.52396 0.70004 0.0
H2731 H 0.45342 0.53263 0.66762 0.0
C2732 C 0.55811 0.5861 0.63674 0.0
C2733 C 0.55893 0.60259 0.62592 0.0
C2734 C 0.53973 0.56569 0.63661 0.0
C2735 C 0.52209 0.56147 0.62545 0.0
C2736 C 0.52348 0.57789 0.6141 0.0
C2737 C 0.54189 0.59811 0.61409 0.0
C2738 C 0.50158 0.54068 0.62668 0.0
C2739 C 0.49276 0.53294 0.64403 0.0
C2740 C 0.48962 0.5297 0.61096 0.0
C2741 C 0.49887 0.53548 0.59227 0.0
C2742 C 0.48774 0.53923 0.57826 0.0
C2743 C 0.49659 0.54491 0.56073 0.0
C2744 C 0.51652 0.54682 0.55701 0.0
C2745 C 0.52764 0.543 0.57081 0.0
C2746 C 0.51886 0.5373 0.58836 0.0
C2747 C 0.39974 0.47458 0.61885 0.0
C2748 C 0.39253 0.45596 0.62939 0.0
C2749 C 0.42103 0.49124 0.62013 0.0
C2750 C 0.43588 0.48916 0.63125 0.0
C2751 C 0.42871 0.4702 0.64141 0.0
C2752 C 0.40721 0.45387 0.64063 0.0
C2753 C 0.45907 0.50587 0.63039 0.0
C2754 C 0.4685 0.51266 0.61304 0.0
C2755 C 0.47182 0.51563 0.64609 0.0
C2756 C 0.46378 0.50926 0.66492 0.0
C2757 C 0.46704 0.49403 0.67419 0.0
C2758 C 0.4608 0.48907 0.69247 0.0
C2759 C 0.45188 0.49974 0.70173 0.0
C2760 C 0.44931 0.51546 0.69276 0.0
C2761 C 0.45526 0.52025 0.67439 0.0
H2762 H 0.44718 0.496 0.71592 0.0
H2763 H 0.52335 0.55124 0.54344 0.0
H2764 H 0.96464 0.39633 0.14223 0.0
H2765 H 0.97312 0.43367 0.14156 0.0
H2766 H 0.91743 0.4158 0.10784 0.0
H2767 H 0.91077 0.37898 0.10656 0.0
H2768 H 0.94983 0.44905 0.09439 0.0
H2769 H 0.92157 0.44691 0.16283 0.0
H2770 H 0.92241 0.43833 0.19549 0.0
H2771 H 0.98951 0.459 0.19102 0.0
H2772 H 0.98908 0.46821 0.15854 0.0
H2773 H 0.92639 0.53232 0.09929 0.0
H2774 H 0.92975 0.50023 0.09902 0.0
H2775 H 0.98282 0.53053 0.13695 0.0
H2776 H 0.97811 0.562 0.13824 0.0
H2777 H 0.95977 0.49436 0.14863 0.0
H2778 H 0.98699 0.51722 0.08926 0.0
H2779 H 0.98926 0.53078 0.0579 0.0
H2780 H 0.92979 0.47422 0.04417 0.0
H2781 H 0.927 0.46044 0.07552 0.0
C2782 C 0.95398 0.40038 0.13502 0.0
C2783 C 0.93634 0.38459 0.12524 0.0
C2784 C 0.95862 0.42173 0.13493 0.0
C2785 C 0.94541 0.42764 0.12538 0.0
C2786 C 0.9277 0.41172 0.11563 0.0
C2787 C 0.92357 0.39055 0.11519 0.0
C2788 C 0.951 0.45054 0.12383 0.0
C2789 C 0.95174 0.45888 0.10627 0.0
C2790 C 0.95498 0.46406 0.13916 0.0
C2791 C 0.95501 0.45715 0.15815 0.0
C2792 C 0.93636 0.4492 0.1688 0.0
C2793 C 0.93683 0.44448 0.1873 0.0
C2794 C 0.9559 0.44774 0.19524 0.0
C2795 C 0.97466 0.45615 0.1848 0.0
C2796 C 0.97432 0.46118 0.16638 0.0
C2797 C 0.93858 0.53192 0.1077 0.0
C2798 C 0.95123 0.54895 0.11952 0.0
C2799 C 0.94091 0.5138 0.1072 0.0
C2800 C 0.95664 0.51281 0.11792 0.0
C2801 C 0.97037 0.53068 0.12873 0.0
C2802 C 0.96772 0.54864 0.12947 0.0
C2803 C 0.95724 0.49244 0.11922 0.0
C2804 C 0.95789 0.48465 0.13667 0.0
C2805 C 0.9551 0.4797 0.10373 0.0
C2806 C 0.95675 0.48784 0.08479 0.0
C2807 C 0.97434 0.50772 0.07959 0.0
C2808 C 0.97572 0.51544 0.0618 0.0
C2809 C 0.95967 0.50338 0.04906 0.0
C2810 C 0.94222 0.48354 0.05406 0.0
C2811 C 0.94075 0.47574 0.07182 0.0
H2812 H 0.96077 0.5094 0.0353 0.0
H2813 H 0.9562 0.44399 0.20953 0.0
H2814 H 0.40952 0.96944 0.63839 0.0
H2815 H 0.44225 0.96726 0.63497 0.0
H2816 H 0.41698 0.93127 0.58487 0.0
H2817 H 0.38348 0.93131 0.58972 0.0
H2818 H 0.43195 0.91328 0.59952 0.0
H2819 H 0.46392 0.98724 0.58939 0.0
H2820 H 0.4733 0.02491 0.59405 0.0
H2821 H 0.50426 0.02673 0.64476 0.0
H2822 H 0.49481 0.98897 0.64054 0.0
H2823 H 0.52859 0.90715 0.59357 0.0
H2824 H 0.49831 0.91261 0.58845 0.0
H2825 H 0.51423 0.95067 0.6378 0.0
H2826 H 0.54657 0.94794 0.64103 0.0
H2827 H 0.50533 0.96983 0.61621 0.0
H2828 H 0.44638 0.88588 0.62634 0.0
H2829 H 0.42791 0.84783 0.61684 0.0
H2830 H 0.44771 0.8668 0.56134 0.0
H2831 H 0.46461 0.90495 0.57034 0.0
C2832 C 0.41111 0.96102 0.62675 0.0
C2833 C 0.39393 0.94994 0.61464 0.0
C2834 C 0.42999 0.96011 0.62454 0.0
C2835 C 0.43248 0.94926 0.60951 0.0
C2836 C 0.4156 0.93945 0.59677 0.0
C2837 C 0.39643 0.9395 0.59948 0.0
C2838 C 0.45152 0.94618 0.60799 0.0
C2839 C 0.44794 0.92575 0.60329 0.0
C2840 C 0.47275 0.96246 0.61209 0.0
C2841 C 0.47852 0.98521 0.6147 0.0
C2842 C 0.47261 0.99562 0.6016 0.0
C2843 C 0.47795 0.017 0.60415 0.0
C2844 C 0.48934 0.02819 0.6197 0.0
C2845 C 0.49544 0.01804 0.63272 0.0
C2846 C 0.49012 0.99665 0.63024 0.0
C2847 C 0.52531 0.91639 0.60343 0.0
C2848 C 0.53958 0.9268 0.61789 0.0
C2849 C 0.50759 0.91919 0.60071 0.0
C2850 C 0.50309 0.93155 0.61297 0.0
C2851 C 0.51711 0.94117 0.62792 0.0
C2852 C 0.53551 0.93943 0.62997 0.0
C2853 C 0.48516 0.93617 0.60977 0.0
C2854 C 0.48914 0.9572 0.61306 0.0
C2855 C 0.46424 0.92053 0.60401 0.0
C2856 C 0.4577 0.89817 0.59918 0.0
C2857 C 0.44714 0.88188 0.61219 0.0
C2858 C 0.43655 0.86033 0.60683 0.0
C2859 C 0.43709 0.85487 0.58858 0.0
C2860 C 0.44763 0.871 0.57554 0.0
C2861 C 0.45745 0.89258 0.58072 0.0
H2862 H 0.42911 0.83816 0.58452 0.0
H2863 H 0.49346 0.04474 0.62165 0.0
H2864 H 0.59662 0.56296 0.14197 0.0
H2865 H 0.55884 0.53528 0.14056 0.0
H2866 H 0.57558 0.49495 0.10915 0.0
H2867 H 0.61297 0.52396 0.1085 0.0
H2868 H 0.5437 0.495 0.09421 0.0
H2869 H 0.54291 0.47112 0.16356 0.0
H2870 H 0.55144 0.48189 0.19598 0.0
H2871 H 0.53177 0.52883 0.1889 0.0
H2872 H 0.5229 0.51802 0.15656 0.0
H2873 H 0.46213 0.38873 0.10135 0.0
H2874 H 0.49354 0.4246 0.10089 0.0
H2875 H 0.45981 0.44792 0.13414 0.0
H2876 H 0.42872 0.41137 0.1355 0.0
H2877 H 0.49591 0.46247 0.14769 0.0
H2878 H 0.47543 0.46376 0.08706 0.0
H2879 H 0.463 0.45102 0.0557 0.0
H2880 H 0.5202 0.44805 0.04525 0.0
H2881 H 0.53286 0.46046 0.07663 0.0
C2882 C 0.59219 0.54795 0.13511 0.0
C2883 C 0.60784 0.54507 0.12616 0.0
C2884 C 0.57057 0.53192 0.13458 0.0
C2885 C 0.5642 0.51245 0.12547 0.0
C2886 C 0.57998 0.50962 0.11657 0.0
C2887 C 0.60146 0.52599 0.11652 0.0
C2888 C 0.54111 0.49576 0.12354 0.0
C2889 C 0.53334 0.48769 0.10595 0.0
C2890 C 0.5269 0.48712 0.13859 0.0
C2891 C 0.53331 0.49453 0.15755 0.0
C2892 C 0.54087 0.48404 0.1689 0.0
C2893 C 0.54553 0.48997 0.18727 0.0
C2894 C 0.54249 0.50629 0.19442 0.0
C2895 C 0.53442 0.51642 0.18329 0.0
C2896 C 0.52954 0.51036 0.16497 0.0
C2897 C 0.46155 0.40155 0.10864 0.0
C2898 C 0.44357 0.3973 0.11914 0.0
C2899 C 0.47932 0.4222 0.10803 0.0
C2900 C 0.47912 0.4392 0.11734 0.0
C2901 C 0.46048 0.43511 0.12693 0.0
C2902 C 0.44276 0.4143 0.12773 0.0
C2903 C 0.49912 0.46046 0.11856 0.0
C2904 C 0.50619 0.46966 0.1359 0.0
C2905 C 0.5125 0.47033 0.10323 0.0
C2906 C 0.50507 0.463 0.08425 0.0
C2907 C 0.48532 0.46028 0.07811 0.0
C2908 C 0.47824 0.45313 0.06032 0.0
C2909 C 0.4908 0.44872 0.0485 0.0
C2910 C 0.5105 0.45149 0.05442 0.0
C2911 C 0.51766 0.45863 0.0722 0.0
H2912 H 0.48528 0.44317 0.03473 0.0
H2913 H 0.54617 0.51091 0.20862 0.0
H2914 H 0.03989 0.44935 0.64634 0.0
H2915 H 0.04107 0.48399 0.64466 0.0
H2916 H 0.07808 0.49876 0.59476 0.0
H2917 H 0.07848 0.46516 0.59754 0.0
H2918 H 0.09546 0.53068 0.61249 0.0
H2919 H 0.02232 0.48749 0.59839 0.0
H2920 H 0.98487 0.45803 0.60123 0.0
H2921 H 0.97903 0.48347 0.65266 0.0
H2922 H 0.01656 0.51293 0.65026 0.0
H2923 H 0.09647 0.63012 0.60353 0.0
H2924 H 0.09425 0.59536 0.60094 0.0
H2925 H 0.05289 0.57299 0.64838 0.0
H2926 H 0.05286 0.60696 0.64919 0.0
H2927 H 0.03616 0.54423 0.62678 0.0
H2928 H 0.11668 0.57133 0.64452 0.0
H2929 H 0.15604 0.59191 0.64051 0.0
H2930 H 0.14807 0.59469 0.58259 0.0
H2931 H 0.10873 0.57269 0.58619 0.0
C2932 C 0.04825 0.46014 0.63508 0.0
C2933 C 0.05958 0.45506 0.62234 0.0
C2934 C 0.04865 0.47978 0.63392 0.0
C2935 C 0.05946 0.49411 0.61943 0.0
C2936 C 0.06978 0.48826 0.60618 0.0
C2937 C 0.07004 0.46906 0.60775 0.0
C2938 C 0.06193 0.51601 0.619 0.0
C2939 C 0.08245 0.53352 0.61581 0.0
C2940 C 0.04494 0.52001 0.62271 0.0
C2941 C 0.02233 0.50234 0.6242 0.0
C2942 C 0.01311 0.48673 0.61037 0.0
C2943 C 0.99185 0.47003 0.61189 0.0
C2944 C 0.97959 0.46885 0.62713 0.0
C2945 C 0.98855 0.48439 0.64087 0.0
C2946 C 0.00981 0.50111 0.63942 0.0
C2947 C 0.08729 0.61784 0.6136 0.0
C2948 C 0.07508 0.62122 0.62673 0.0
C2949 C 0.08629 0.59793 0.61233 0.0
C2950 C 0.07381 0.58126 0.6247 0.0
C2951 C 0.06255 0.58529 0.63849 0.0
C2952 C 0.06267 0.60479 0.63913 0.0
C2953 C 0.07037 0.55904 0.62225 0.0
C2954 C 0.04939 0.54138 0.62429 0.0
C2955 C 0.087 0.55476 0.61759 0.0
C2956 C 0.10982 0.57131 0.61572 0.0
C2957 C 0.12336 0.57675 0.63099 0.0
C2958 C 0.14565 0.58818 0.62874 0.0
C2959 C 0.15455 0.5949 0.61134 0.0
C2960 C 0.14117 0.58976 0.5961 0.0
C2961 C 0.1189 0.5776 0.59821 0.0
H2962 H 0.17181 0.60396 0.60968 0.0
H2963 H 0.96313 0.45592 0.62828 0.0
H2964 H 0.96418 0.55691 0.36052 0.0
H2965 H 0.97041 0.52654 0.36071 0.0
H2966 H 0.91568 0.49171 0.39615 0.0
H2967 H 0.91134 0.5233 0.39784 0.0
H2968 H 0.94756 0.4889 0.40835 0.0
H2969 H 0.91449 0.46115 0.3416 0.0
H2970 H 0.9128 0.46995 0.30917 0.0
H2971 H 0.98044 0.51538 0.30977 0.0
H2972 H 0.98244 0.50643 0.34206 0.0
H2973 H 0.91926 0.38055 0.40345 0.0
H2974 H 0.92306 0.41624 0.40293 0.0
H2975 H 0.97647 0.43781 0.36555 0.0
H2976 H 0.97174 0.40154 0.36539 0.0
H2977 H 0.95239 0.45099 0.35359 0.0
H2978 H 0.98195 0.45511 0.41215 0.0
H2979 H 0.98461 0.44361 0.44333 0.0
H2980 H 0.92701 0.44364 0.45873 0.0
H2981 H 0.92382 0.45486 0.42756 0.0
C2982 C 0.95324 0.54255 0.36803 0.0
C2983 C 0.93654 0.54196 0.37842 0.0
C2984 C 0.95655 0.52497 0.36783 0.0
C2985 C 0.94292 0.50623 0.37768 0.0
C2986 C 0.92621 0.50574 0.38809 0.0
C2987 C 0.92342 0.52362 0.38881 0.0
C2988 C 0.9472 0.48801 0.37888 0.0
C2989 C 0.94836 0.48047 0.39635 0.0
C2990 C 0.94956 0.47761 0.36333 0.0
C2991 C 0.94834 0.48402 0.34441 0.0
C2992 C 0.92886 0.47334 0.33485 0.0
C2993 C 0.9279 0.47815 0.31647 0.0
C2994 C 0.94643 0.4935 0.3075 0.0
C2995 C 0.96603 0.50375 0.3168 0.0
C2996 C 0.96707 0.49879 0.33512 0.0
C2997 C 0.93164 0.39292 0.39501 0.0
C2998 C 0.9446 0.38826 0.38383 0.0
C2999 C 0.93414 0.41345 0.395 0.0
C3000 C 0.95019 0.42989 0.3843 0.0
C3001 C 0.96388 0.42541 0.37383 0.0
C3002 C 0.96121 0.40476 0.37371 0.0
C3003 C 0.9515 0.45116 0.38303 0.0
C3004 C 0.95161 0.45938 0.36562 0.0
C3005 C 0.95069 0.46235 0.39865 0.0
C3006 C 0.9526 0.45573 0.41747 0.0
C3007 C 0.96977 0.45255 0.42215 0.0
C3008 C 0.97138 0.44609 0.43983 0.0
C3009 C 0.95597 0.44287 0.45299 0.0
C3010 C 0.93894 0.44614 0.44851 0.0
C3011 C 0.93724 0.45259 0.43085 0.0
H3012 H 0.95724 0.43786 0.46667 0.0
H3013 H 0.94565 0.49726 0.29329 0.0
H3014 H 0.53887 0.91508 0.9017 0.0
H3015 H 0.50774 0.9186 0.90809 0.0
H3016 H 0.51709 0.95233 0.85694 0.0
H3017 H 0.55069 0.95218 0.8525 0.0
H3018 H 0.50738 0.97112 0.8783 0.0
H3019 H 0.45337 0.8838 0.87443 0.0
H3020 H 0.44202 0.84775 0.8872 0.0
H3021 H 0.4645 0.87543 0.94021 0.0
H3022 H 0.47491 0.91133 0.92794 0.0
H3023 H 0.40714 0.96158 0.8587 0.0
H3024 H 0.44122 0.96189 0.8612 0.0
H3025 H 0.42017 0.92771 0.91257 0.0
H3026 H 0.3853 0.92516 0.90865 0.0
H3027 H 0.4371 0.9114 0.89841 0.0
H3028 H 0.46385 0.98504 0.90586 0.0
H3029 H 0.46985 0.02143 0.90019 0.0
H3030 H 0.49947 0.02356 0.84866 0.0
H3031 H 0.49339 0.98705 0.85389 0.0
C3032 C 0.53398 0.92297 0.89174 0.0
C3033 C 0.5467 0.9328 0.87632 0.0
C3034 C 0.51571 0.92455 0.89519 0.0
C3035 C 0.50897 0.93492 0.88273 0.0
C3036 C 0.52162 0.94421 0.86695 0.0
C3037 C 0.54067 0.94384 0.86415 0.0
C3038 C 0.48999 0.93776 0.88637 0.0
C3039 C 0.49187 0.95779 0.88224 0.0
C3040 C 0.47 0.92129 0.89325 0.0
C3041 C 0.46614 0.90032 0.90003 0.0
C3042 C 0.45643 0.8822 0.88867 0.0
C3043 C 0.44988 0.86179 0.89587 0.0
C3044 C 0.45313 0.8594 0.91435 0.0
C3045 C 0.46237 0.87733 0.92582 0.0
C3046 C 0.46842 0.89765 0.91879 0.0
C3047 C 0.40994 0.95407 0.87041 0.0
C3048 C 0.3936 0.94279 0.88319 0.0
C3049 C 0.42958 0.9546 0.87208 0.0
C3050 C 0.4337 0.94506 0.88724 0.0
C3051 C 0.41756 0.93492 0.90057 0.0
C3052 C 0.39762 0.93351 0.8984 0.0
C3053 C 0.45389 0.94396 0.88843 0.0
C3054 C 0.45238 0.92455 0.89389 0.0
C3055 C 0.4743 0.96123 0.88346 0.0
C3056 C 0.47803 0.98322 0.88022 0.0
C3057 C 0.47152 0.9932 0.89326 0.0
C3058 C 0.47495 0.01387 0.89013 0.0
C3059 C 0.485 0.02479 0.87406 0.0
C3060 C 0.49168 0.01508 0.8611 0.0
C3061 C 0.48828 0.99441 0.86415 0.0
H3062 H 0.48763 0.04078 0.87166 0.0
H3063 H 0.44816 0.84362 0.91984 0.0
H3064 H 0.45848 0.38753 0.40086 0.0
H3065 H 0.49171 0.42216 0.40024 0.0
H3066 H 0.46286 0.44624 0.36213 0.0
H3067 H 0.4299 0.41097 0.36208 0.0
H3068 H 0.50012 0.45782 0.35074 0.0
H3069 H 0.47438 0.46332 0.40882 0.0
H3070 H 0.45932 0.45232 0.43981 0.0
H3071 H 0.51469 0.44863 0.45628 0.0
H3072 H 0.52998 0.45936 0.42532 0.0
H3073 H 0.5967 0.56214 0.36023 0.0
H3074 H 0.55961 0.53277 0.35952 0.0
H3075 H 0.57667 0.49494 0.39403 0.0
H3076 H 0.61317 0.52553 0.39664 0.0
H3077 H 0.54243 0.49401 0.4062 0.0
H3078 H 0.54745 0.4665 0.33877 0.0
H3079 H 0.5592 0.47647 0.30671 0.0
H3080 H 0.54025 0.52437 0.30855 0.0
H3081 H 0.52797 0.51423 0.34043 0.0
C3082 C 0.45941 0.40022 0.39223 0.0
C3083 C 0.44216 0.39651 0.38094 0.0
C3084 C 0.47822 0.42015 0.39215 0.0
C3085 C 0.47984 0.437 0.38125 0.0
C3086 C 0.46211 0.4335 0.37056 0.0
C3087 C 0.44332 0.41343 0.37053 0.0
C3088 C 0.50047 0.45771 0.38021 0.0
C3089 C 0.50919 0.46587 0.36292 0.0
C3090 C 0.51237 0.46845 0.39601 0.0
C3091 C 0.50328 0.46205 0.4147 0.0
C3092 C 0.48329 0.46004 0.41901 0.0
C3093 C 0.47472 0.45387 0.43658 0.0
C3094 C 0.48603 0.44976 0.45 0.0
C3095 C 0.50595 0.45183 0.44587 0.0
C3096 C 0.5146 0.458 0.42832 0.0
C3097 C 0.59256 0.54733 0.36732 0.0
C3098 C 0.60804 0.54563 0.37774 0.0
C3099 C 0.57138 0.53032 0.3666 0.0
C3100 C 0.56533 0.51104 0.37593 0.0
C3101 C 0.58092 0.50941 0.38634 0.0
C3102 C 0.6019 0.52672 0.38759 0.0
C3103 C 0.54248 0.49348 0.37673 0.0
C3104 C 0.53326 0.48597 0.39405 0.0
C3105 C 0.52987 0.48367 0.36097 0.0
C3106 C 0.53796 0.49044 0.34219 0.0
C3107 C 0.54618 0.47941 0.33237 0.0
C3108 C 0.55269 0.48491 0.31419 0.0
C3109 C 0.55084 0.50132 0.3057 0.0
C3110 C 0.54202 0.51191 0.31523 0.0
C3111 C 0.53526 0.50626 0.33333 0.0
H3112 H 0.55602 0.50567 0.29167 0.0
H3113 H 0.47938 0.445 0.4636 0.0
H3114 H 0.06736 0.46215 0.9037 0.0
H3115 H 0.06109 0.49244 0.90284 0.0
H3116 H 0.0124 0.46009 0.86145 0.0
H3117 H 0.01993 0.43033 0.86154 0.0
H3118 H 0.03426 0.49745 0.85117 0.0
H3119 H 0.00107 0.4702 0.90761 0.0
H3120 H 0.9957 0.45473 0.93853 0.0
H3121 H 0.05127 0.51205 0.95768 0.0
H3122 H 0.0571 0.52782 0.92681 0.0
H3123 H 0.0263 0.5952 0.85961 0.0
H3124 H 0.01685 0.55752 0.85906 0.0
H3125 H 0.07139 0.57249 0.89335 0.0
H3126 H 0.07904 0.60955 0.89579 0.0
H3127 H 0.03585 0.53897 0.90578 0.0
H3128 H 0.06911 0.5404 0.83674 0.0
H3129 H 0.06856 0.54829 0.80393 0.0
H3130 H 0.00359 0.53501 0.80908 0.0
H3131 H 0.00346 0.52594 0.84164 0.0
C3132 C 0.05548 0.46169 0.89432 0.0
C3133 C 0.04482 0.44457 0.88208 0.0
C3134 C 0.05149 0.47876 0.89412 0.0
C3135 C 0.03609 0.47862 0.88218 0.0
C3136 C 0.02449 0.46075 0.87068 0.0
C3137 C 0.02875 0.44377 0.87072 0.0
C3138 C 0.0337 0.49796 0.88062 0.0
C3139 C 0.03431 0.50634 0.86316 0.0
C3140 C 0.03309 0.5094 0.89614 0.0
C3141 C 0.02956 0.50017 0.91485 0.0
C3142 C 0.01221 0.47948 0.91839 0.0
C3143 C 0.00908 0.47066 0.93591 0.0
C3144 C 0.02317 0.48237 0.95006 0.0
C3145 C 0.04036 0.50299 0.94671 0.0
C3146 C 0.04355 0.51192 0.92921 0.0
C3147 C 0.0365 0.59043 0.86667 0.0
C3148 C 0.05414 0.60549 0.87694 0.0
C3149 C 0.03132 0.5689 0.86605 0.0
C3150 C 0.04398 0.56212 0.87537 0.0
C3151 C 0.0616 0.5773 0.88566 0.0
C3152 C 0.06627 0.5986 0.8868 0.0
C3153 C 0.03791 0.53906 0.87638 0.0
C3154 C 0.03559 0.52991 0.89382 0.0
C3155 C 0.03608 0.52651 0.86081 0.0
C3156 C 0.03673 0.53381 0.84184 0.0
C3157 C 0.05485 0.53953 0.83091 0.0
C3158 C 0.05454 0.54387 0.8123 0.0
C3159 C 0.03621 0.54261 0.80451 0.0
C3160 C 0.01795 0.53645 0.81521 0.0
C3161 C 0.01805 0.53166 0.83372 0.0
H3162 H 0.03606 0.54612 0.79014 0.0
H3163 H 0.02074 0.47548 0.96361 0.0
H3164 H 0.61223 0.07317 0.4064 0.0
H3165 H 0.5782 0.07251 0.40985 0.0
H3166 H 0.55607 0.03755 0.35893 0.0
H3167 H 0.58932 0.03612 0.35684 0.0
H3168 H 0.56414 0.09076 0.39394 0.0
H3169 H 0.50352 0.0156 0.35137 0.0
H3170 H 0.49456 0.97801 0.34695 0.0
H3171 H 0.52314 0.97903 0.39876 0.0
H3172 H 0.53202 0.01652 0.40362 0.0
H3173 H 0.44913 0.05535 0.35205 0.0
H3174 H 0.4821 0.0535 0.35427 0.0
H3175 H 0.4982 0.09038 0.4043 0.0
H3176 H 0.46695 0.09463 0.40047 0.0
H3177 H 0.49157 0.03407 0.37544 0.0
H3178 H 0.53413 0.1016 0.42123 0.0
H3179 H 0.55204 0.14041 0.42808 0.0
H3180 H 0.56705 0.15476 0.37119 0.0
H3181 H 0.54723 0.11607 0.36387 0.0
C3182 C 0.59986 0.06505 0.39615 0.0
C3183 C 0.6034 0.05514 0.38114 0.0
C3184 C 0.58038 0.06468 0.39807 0.0
C3185 C 0.56424 0.05498 0.38468 0.0
C3186 C 0.56775 0.04461 0.36982 0.0
C3187 C 0.58692 0.04412 0.36839 0.0
C3188 C 0.54505 0.05788 0.38531 0.0
C3189 C 0.54834 0.07825 0.38979 0.0
C3190 C 0.52407 0.04159 0.38049 0.0
C3191 C 0.51859 0.01895 0.37778 0.0
C3192 C 0.5078 0.00778 0.36187 0.0
C3193 C 0.50276 0.98649 0.35928 0.0
C3194 C 0.50833 0.97616 0.37255 0.0
C3195 C 0.5189 0.98707 0.38847 0.0
C3196 C 0.52397 0.00835 0.39113 0.0
C3197 C 0.46032 0.06379 0.36305 0.0
C3198 C 0.45591 0.07556 0.37582 0.0
C3199 C 0.47908 0.06257 0.3645 0.0
C3200 C 0.49323 0.07205 0.37938 0.0
C3201 C 0.4886 0.08383 0.39215 0.0
C3202 C 0.47041 0.08597 0.39014 0.0
C3203 C 0.51135 0.06768 0.38222 0.0
C3204 C 0.50762 0.04673 0.37894 0.0
C3205 C 0.53207 0.08343 0.38824 0.0
C3206 C 0.53861 0.10604 0.39194 0.0
C3207 C 0.54041 0.1131 0.41012 0.0
C3208 C 0.55084 0.13505 0.41408 0.0
C3209 C 0.56043 0.15007 0.40004 0.0
C3210 C 0.55925 0.14313 0.38201 0.0
C3211 C 0.54791 0.12122 0.37789 0.0
H3212 H 0.56894 0.16706 0.40314 0.0
H3213 H 0.50442 0.95969 0.37051 0.0
H3214 H 0.54333 0.61204 0.90488 0.0
H3215 H 0.5114 0.57646 0.90486 0.0
H3216 H 0.54185 0.55458 0.86628 0.0
H3217 H 0.57339 0.59085 0.86554 0.0
H3218 H 0.50499 0.54141 0.85496 0.0
H3219 H 0.5295 0.53581 0.91299 0.0
H3220 H 0.54419 0.5463 0.94414 0.0
H3221 H 0.48852 0.54949 0.96051 0.0
H3222 H 0.47357 0.53922 0.9294 0.0
H3223 H 0.40427 0.44055 0.86101 0.0
H3224 H 0.44223 0.46797 0.8612 0.0
H3225 H 0.42851 0.50627 0.89831 0.0
H3226 H 0.39121 0.47734 0.90007 0.0
H3227 H 0.46115 0.50544 0.90975 0.0
H3228 H 0.45727 0.5329 0.84198 0.0
H3229 H 0.44805 0.52408 0.80932 0.0
H3230 H 0.46799 0.47699 0.81209 0.0
H3231 H 0.4779 0.48606 0.84455 0.0
C3232 C 0.54304 0.59961 0.89631 0.0
C3233 C 0.5602 0.60423 0.88457 0.0
C3234 C 0.525 0.57912 0.8966 0.0
C3235 C 0.52414 0.56262 0.88566 0.0
C3236 C 0.54199 0.56702 0.87474 0.0
C3237 C 0.55997 0.58767 0.87429 0.0
C3238 C 0.50387 0.54159 0.8844 0.0
C3239 C 0.49555 0.53348 0.86701 0.0
C3240 C 0.49162 0.53072 0.90002 0.0
C3241 C 0.50045 0.53681 0.91882 0.0
C3242 C 0.52043 0.53885 0.9232 0.0
C3243 C 0.5288 0.54474 0.94086 0.0
C3244 C 0.51731 0.54859 0.95429 0.0
C3245 C 0.49739 0.54649 0.95009 0.0
C3246 C 0.48893 0.54057 0.93246 0.0
C3247 C 0.4094 0.45507 0.8689 0.0
C3248 C 0.39462 0.45745 0.87974 0.0
C3249 C 0.43111 0.47099 0.86874 0.0
C3250 C 0.43837 0.48985 0.87909 0.0
C3251 C 0.42343 0.49212 0.88991 0.0
C3252 C 0.40196 0.47582 0.89062 0.0
C3253 C 0.46161 0.50642 0.88027 0.0
C3254 C 0.47062 0.51349 0.89773 0.0
C3255 C 0.47475 0.51603 0.86473 0.0
C3256 C 0.4673 0.5094 0.8458 0.0
C3257 C 0.45928 0.52039 0.83565 0.0
C3258 C 0.45418 0.51553 0.81715 0.0
C3259 C 0.45705 0.49971 0.80873 0.0
C3260 C 0.46545 0.48902 0.81869 0.0
C3261 C 0.4709 0.49407 0.83709 0.0
H3262 H 0.453 0.49591 0.79444 0.0
H3263 H 0.52383 0.55317 0.96795 0.0
loop_
_geom_bond_atom_site_label_1
_geom_bond_atom_site_label_2
_geom_bond_distance
_geom_bond_site_symmetry_2
_ccdc_geom_bond_type
Mn0 O5 2.095 . S
Mn0 O15 2.162 . S
Mn0 O16 2.297 . S
Mn0 O24 2.385 . S
Mn0 O25 2.209 . S
Mn0 O26 2.094 . S
Mn1 O6 2.121 . S
Mn1 N8 2.257 . S
Mn1 N17 2.282 . S
Mn1 O25 2.215 . S
Mn1 O27 2.117 . S
C2 O24 1.234 . S
C2 O25 1.283 . S
C3 O15 1.281 . S
C3 O16 1.236 . S
C4 O26 1.240 . S
C4 O27 1.264 . S
O5 Mn0 2.095 . S
O5 C14 1.250 . S
O6 Mn1 2.121 . S
O6 C14 1.258 . S
C7 N8 1.326 . S
C7 C11 1.460 . S
C7 H13 0.929 . S
N8 Mn1 2.257 . S
N8 C7 1.326 . S
N8 C12 1.362 . S
C9 C10 1.258 . S
C9 C12 1.431 . S
C9 C29 1.449 . S
C10 C9 1.258 . S
C10 C11 1.477 . S
C10 H30 0.931 . S
C11 C7 1.460 . S
C11 C10 1.477 . S
C11 H31 0.930 . S
C12 N8 1.362 . S
C12 C9 1.431 . S
C12 C22 1.476 . S
H13 C7 0.929 . S
C14 O5 1.250 . S
C14 O6 1.258 . S
O15 Mn0 2.162 . S
O15 C3 1.281 . S
O16 Mn0 2.297 . S
O16 C3 1.236 . S
N17 Mn1 2.282 . S
N17 C18 1.328 . S
N17 C22 1.318 . S
C18 N17 1.328 . S
C18 C19 1.457 . S
C18 H23 0.929 . S
C19 C18 1.457 . S
C19 C20 1.291 . S
C19 H32 0.931 . S
C20 C19 1.291 . S
C20 C21 1.373 . S
C20 H33 0.929 . S
C21 C20 1.373 . S
C21 C22 1.396 . S
C21 C28 1.403 . S
C22 C12 1.476 . S
C22 N17 1.318 . S
C22 C21 1.396 . S
H23 C18 0.929 . S
O24 Mn0 2.385 . S
O24 C2 1.234 . S
O25 Mn0 2.209 . S
O25 Mn1 2.215 . S
O25 C2 1.283 . S
O26 Mn0 2.094 . S
O26 C4 1.240 . S
O27 Mn1 2.117 . S
O27 C4 1.264 . S
C28 C21 1.403 . S
C28 C29 1.399 . S
C28 H34 0.929 . S
C29 C9 1.449 . S
C29 C28 1.399 . S
C29 H35 0.930 . S
H30 C10 0.931 . S
H31 C11 0.930 . S
H32 C19 0.931 . S
H33 C20 0.929 . S
H34 C28 0.929 . S
H35 C29 0.930 . S
Mn36 O41 2.095 . S
Mn36 O51 2.162 . S
Mn36 O52 2.297 . S
Mn36 O60 2.385 . S
Mn36 O61 2.209 . S
Mn36 O62 2.094 . S
Mn37 O42 2.121 . S
Mn37 N44 2.257 . S
Mn37 N53 2.282 . S
Mn37 O61 2.215 . S
Mn37 O63 2.117 . S
C38 O60 1.234 . S
C38 O61 1.283 . S
C39 O51 1.281 . S
C39 O52 1.236 . S
C40 O62 1.240 . S
C40 O63 1.264 . S
O41 Mn36 2.095 . S
O41 C50 1.250 . S
O42 Mn37 2.121 . S
O42 C50 1.258 . S
C43 N44 1.326 . S
C43 C47 1.460 . S
C43 H49 0.929 . S
N44 Mn37 2.257 . S
N44 C43 1.326 . S
N44 C48 1.362 . S
C45 C46 1.258 . S
C45 C48 1.431 . S
C45 C65 1.449 . S
C46 C45 1.258 . S
C46 C47 1.477 . S
C46 H66 0.931 . S
C47 C43 1.460 . S
C47 C46 1.477 . S
C47 H67 0.930 . S
C48 N44 1.362 . S
C48 C45 1.431 . S
C48 C58 1.476 . S
H49 C43 0.929 . S
C50 O41 1.250 . S
C50 O42 1.258 . S
O51 Mn36 2.162 . S
O51 C39 1.281 . S
O52 Mn36 2.297 . S
O52 C39 1.236 . S
N53 Mn37 2.282 . S
N53 C54 1.328 . S
N53 C58 1.318 . S
C54 N53 1.328 . S
C54 C55 1.457 . S
C54 H59 0.929 . S
C55 C54 1.457 . S
C55 C56 1.291 . S
C55 H68 0.931 . S
C56 C55 1.291 . S
C56 C57 1.373 . S
C56 H69 0.929 . S
C57 C56 1.373 . S
C57 C58 1.396 . S
C57 C64 1.403 . S
C58 C48 1.476 . S
C58 N53 1.318 . S
C58 C57 1.396 . S
H59 C54 0.929 . S
O60 Mn36 2.385 . S
O60 C38 1.234 . S
O61 Mn36 2.209 . S
O61 Mn37 2.215 . S
O61 C38 1.283 . S
O62 Mn36 2.094 . S
O62 C40 1.240 . S
O63 Mn37 2.117 . S
O63 C40 1.264 . S
C64 C57 1.403 . S
C64 C65 1.399 . S
C64 H70 0.929 . S
C65 C45 1.449 . S
C65 C64 1.399 . S
C65 H71 0.930 . S
H66 C46 0.931 . S
H67 C47 0.930 . S
H68 C55 0.931 . S
H69 C56 0.929 . S
H70 C64 0.929 . S
H71 C65 0.930 . S
Mn72 O77 2.095 . S
Mn72 O87 2.162 . S
Mn72 O88 2.297 . S
Mn72 O96 2.385 . S
Mn72 O97 2.209 . S
Mn72 O98 2.094 . S
Mn73 O78 2.121 . S
Mn73 N80 2.257 . S
Mn73 N89 2.282 . S
Mn73 O97 2.215 . S
Mn73 O99 2.117 . S
C74 O96 1.234 . S
C74 O97 1.283 . S
C75 O87 1.281 . S
C75 O88 1.236 . S
C76 O98 1.240 . S
C76 O99 1.264 . S
O77 Mn72 2.095 . S
O77 C86 1.250 . S
O78 Mn73 2.121 . S
O78 C86 1.258 . S
C79 N80 1.326 . S
C79 C83 1.460 . S
C79 H85 0.929 . S
N80 Mn73 2.257 . S
N80 C79 1.326 . S
N80 C84 1.362 . S
C81 C82 1.258 . S
C81 C84 1.431 . S
C81 C101 1.449 . S
C82 C81 1.258 . S
C82 C83 1.477 . S
C82 H102 0.931 . S
C83 C79 1.460 . S
C83 C82 1.477 . S
C83 H103 0.930 . S
C84 N80 1.362 . S
C84 C81 1.431 . S
C84 C94 1.476 . S
H85 C79 0.929 . S
C86 O77 1.250 . S
C86 O78 1.258 . S
O87 Mn72 2.162 . S
O87 C75 1.281 . S
O88 Mn72 2.297 . S
O88 C75 1.236 . S
N89 Mn73 2.282 . S
N89 C90 1.328 . S
N89 C94 1.318 . S
C90 N89 1.328 . S
C90 C91 1.457 . S
C90 H95 0.929 . S
C91 C90 1.457 . S
C91 C92 1.291 . S
C91 H104 0.931 . S
C92 C91 1.291 . S
C92 C93 1.373 . S
C92 H105 0.929 . S
C93 C92 1.373 . S
C93 C94 1.396 . S
C93 C100 1.403 . S
C94 C84 1.476 . S
C94 N89 1.318 . S
C94 C93 1.396 . S
H95 C90 0.929 . S
O96 Mn72 2.385 . S
O96 C74 1.234 . S
O97 Mn72 2.209 . S
O97 Mn73 2.215 . S
O97 C74 1.283 . S
O98 Mn72 2.094 . S
O98 C76 1.240 . S
O99 Mn73 2.117 . S
O99 C76 1.264 . S
C100 C93 1.403 . S
C100 C101 1.399 . S
C100 H106 0.929 . S
C101 C81 1.449 . S
C101 C100 1.399 . S
C101 H107 0.930 . S
H102 C82 0.931 . S
H103 C83 0.930 . S
H104 C91 0.931 . S
H105 C92 0.929 . S
H106 C100 0.929 . S
H107 C101 0.930 . S
Mn108 O113 2.095 . S
Mn108 O123 2.162 . S
Mn108 O124 2.297 . S
Mn108 O132 2.385 . S
Mn108 O133 2.209 . S
Mn108 O134 2.094 . S
Mn109 O114 2.121 . S
Mn109 N116 2.257 . S
Mn109 N125 2.282 . S
Mn109 O133 2.215 . S
Mn109 O135 2.117 . S
C110 O132 1.234 . S
C110 O133 1.283 . S
C111 O123 1.281 . S
C111 O124 1.236 . S
C112 O134 1.240 . S
C112 O135 1.264 . S
O113 Mn108 2.095 . S
O113 C122 1.250 . S
O114 Mn109 2.121 . S
O114 C122 1.258 . S
C115 N116 1.326 . S
C115 C119 1.460 . S
C115 H121 0.929 . S
N116 Mn109 2.257 . S
N116 C115 1.326 . S
N116 C120 1.362 . S
C117 C118 1.258 . S
C117 C120 1.431 . S
C117 C137 1.449 . S
C118 C117 1.258 . S
C118 C119 1.477 . S
C118 H138 0.931 . S
C119 C115 1.460 . S
C119 C118 1.477 . S
C119 H139 0.930 . S
C120 N116 1.362 . S
C120 C117 1.431 . S
C120 C130 1.476 . S
H121 C115 0.929 . S
C122 O113 1.250 . S
C122 O114 1.258 . S
O123 Mn108 2.162 . S
O123 C111 1.281 . S
O124 Mn108 2.297 . S
O124 C111 1.236 . S
N125 Mn109 2.282 . S
N125 C126 1.328 . S
N125 C130 1.318 . S
C126 N125 1.328 . S
C126 C127 1.457 . S
C126 H131 0.929 . S
C127 C126 1.457 . S
C127 C128 1.291 . S
C127 H140 0.931 . S
C128 C127 1.291 . S
C128 C129 1.373 . S
C128 H141 0.929 . S
C129 C128 1.373 . S
C129 C130 1.396 . S
C129 C136 1.403 . S
C130 C120 1.476 . S
C130 N125 1.318 . S
C130 C129 1.396 . S
H131 C126 0.929 . S
O132 Mn108 2.385 . S
O132 C110 1.234 . S
O133 Mn108 2.209 . S
O133 Mn109 2.215 . S
O133 C110 1.283 . S
O134 Mn108 2.094 . S
O134 C112 1.240 . S
O135 Mn109 2.117 . S
O135 C112 1.264 . S
C136 C129 1.403 . S
C136 C137 1.399 . S
C136 H142 0.929 . S
C137 C117 1.449 . S
C137 C136 1.399 . S
C137 H143 0.930 . S
H138 C118 0.931 . S
H139 C119 0.930 . S
H140 C127 0.931 . S
H141 C128 0.929 . S
H142 C136 0.929 . S
H143 C137 0.930 . S
Mn144 O149 2.095 . S
Mn144 O159 2.162 . S
Mn144 O160 2.297 . S
Mn144 O168 2.385 . S
Mn144 O169 2.209 . S
Mn144 O170 2.094 . S
Mn145 O150 2.121 . S
Mn145 N152 2.257 . S
Mn145 N161 2.282 . S
Mn145 O169 2.215 . S
Mn145 O171 2.117 . S
C146 O168 1.234 . S
C146 O169 1.283 . S
C147 O159 1.281 . S
C147 O160 1.236 . S
C148 O170 1.240 . S
C148 O171 1.264 . S
O149 Mn144 2.095 . S
O149 C158 1.250 . S
O150 Mn145 2.121 . S
O150 C158 1.258 . S
C151 N152 1.326 . S
C151 C155 1.460 . S
C151 H157 0.929 . S
N152 Mn145 2.257 . S
N152 C151 1.326 . S
N152 C156 1.362 . S
C153 C154 1.258 . S
C153 C156 1.431 . S
C153 C173 1.449 . S
C154 C153 1.258 . S
C154 C155 1.477 . S
C154 H174 0.931 . S
C155 C151 1.460 . S
C155 C154 1.477 . S
C155 H175 0.930 . S
C156 N152 1.362 . S
C156 C153 1.431 . S
C156 C166 1.476 . S
H157 C151 0.929 . S
C158 O149 1.250 . S
C158 O150 1.258 . S
O159 Mn144 2.162 . S
O159 C147 1.281 . S
O160 Mn144 2.297 . S
O160 C147 1.236 . S
N161 Mn145 2.282 . S
N161 C162 1.328 . S
N161 C166 1.318 . S
C162 N161 1.328 . S
C162 C163 1.457 . S
C162 H167 0.929 . S
C163 C162 1.457 . S
C163 C164 1.291 . S
C163 H176 0.931 . S
C164 C163 1.291 . S
C164 C165 1.373 . S
C164 H177 0.929 . S
C165 C164 1.373 . S
C165 C166 1.396 . S
C165 C172 1.403 . S
C166 C156 1.476 . S
C166 N161 1.318 . S
C166 C165 1.396 . S
H167 C162 0.929 . S
O168 Mn144 2.385 . S
O168 C146 1.234 . S
O169 Mn144 2.209 . S
O169 Mn145 2.215 . S
O169 C146 1.283 . S
O170 Mn144 2.094 . S
O170 C148 1.240 . S
O171 Mn145 2.117 . S
O171 C148 1.264 . S
C172 C165 1.403 . S
C172 C173 1.399 . S
C172 H178 0.929 . S
C173 C153 1.449 . S
C173 C172 1.399 . S
C173 H179 0.930 . S
H174 C154 0.931 . S
H175 C155 0.930 . S
H176 C163 0.931 . S
H177 C164 0.929 . S
H178 C172 0.929 . S
H179 C173 0.930 . S
Mn180 O185 2.095 . S
Mn180 O195 2.162 . S
Mn180 O196 2.297 . S
Mn180 O204 2.385 . S
Mn180 O205 2.209 . S
Mn180 O206 2.094 . S
Mn181 O186 2.121 . S
Mn181 N188 2.257 . S
Mn181 N197 2.282 . S
Mn181 O205 2.215 . S
Mn181 O207 2.117 . S
C182 O204 1.234 . S
C182 O205 1.283 . S
C183 O195 1.281 . S
C183 O196 1.236 . S
C184 O206 1.240 . S
C184 O207 1.264 . S
O185 Mn180 2.095 . S
O185 C194 1.250 . S
O186 Mn181 2.121 . S
O186 C194 1.258 . S
C187 N188 1.326 . S
C187 C191 1.460 . S
C187 H193 0.929 . S
N188 Mn181 2.257 . S
N188 C187 1.326 . S
N188 C192 1.362 . S
C189 C190 1.258 . S
C189 C192 1.431 . S
C189 C209 1.449 . S
C190 C189 1.258 . S
C190 C191 1.477 . S
C190 H210 0.931 . S
C191 C187 1.460 . S
C191 C190 1.477 . S
C191 H211 0.930 . S
C192 N188 1.362 . S
C192 C189 1.431 . S
C192 C202 1.476 . S
H193 C187 0.929 . S
C194 O185 1.250 . S
C194 O186 1.258 . S
O195 Mn180 2.162 . S
O195 C183 1.281 . S
O196 Mn180 2.297 . S
O196 C183 1.236 . S
N197 Mn181 2.282 . S
N197 C198 1.328 . S
N197 C202 1.318 . S
C198 N197 1.328 . S
C198 C199 1.457 . S
C198 H203 0.929 . S
C199 C198 1.457 . S
C199 C200 1.291 . S
C199 H212 0.931 . S
C200 C199 1.291 . S
C200 C201 1.373 . S
C200 H213 0.929 . S
C201 C200 1.373 . S
C201 C202 1.396 . S
C201 C208 1.403 . S
C202 C192 1.476 . S
C202 N197 1.318 . S
C202 C201 1.396 . S
H203 C198 0.929 . S
O204 Mn180 2.385 . S
O204 C182 1.234 . S
O205 Mn180 2.209 . S
O205 Mn181 2.215 . S
O205 C182 1.283 . S
O206 Mn180 2.094 . S
O206 C184 1.240 . S
O207 Mn181 2.117 . S
O207 C184 1.264 . S
C208 C201 1.403 . S
C208 C209 1.399 . S
C208 H214 0.929 . S
C209 C189 1.449 . S
C209 C208 1.399 . S
C209 H215 0.930 . S
H210 C190 0.931 . S
H211 C191 0.930 . S
H212 C199 0.931 . S
H213 C200 0.929 . S
H214 C208 0.929 . S
H215 C209 0.930 . S
Mn216 O221 2.095 . S
Mn216 O231 2.162 . S
Mn216 O232 2.297 . S
Mn216 O240 2.385 . S
Mn216 O241 2.209 . S
Mn216 O242 2.094 . S
Mn217 O222 2.121 . S
Mn217 N224 2.257 . S
Mn217 N233 2.282 . S
Mn217 O241 2.215 . S
Mn217 O243 2.117 . S
C218 O240 1.234 . S
C218 O241 1.283 . S
C219 O231 1.281 . S
C219 O232 1.236 . S
C220 O242 1.240 . S
C220 O243 1.264 . S
O221 Mn216 2.095 . S
O221 C230 1.250 . S
O222 Mn217 2.121 . S
O222 C230 1.258 . S
C223 N224 1.326 . S
C223 C227 1.460 . S
C223 H229 0.929 . S
N224 Mn217 2.257 . S
N224 C223 1.326 . S
N224 C228 1.362 . S
C225 C226 1.258 . S
C225 C228 1.431 . S
C225 C245 1.449 . S
C226 C225 1.258 . S
C226 C227 1.477 . S
C226 H246 0.931 . S
C227 C223 1.460 . S
C227 C226 1.477 . S
C227 H247 0.930 . S
C228 N224 1.362 . S
C228 C225 1.431 . S
C228 C238 1.476 . S
H229 C223 0.929 . S
C230 O221 1.250 . S
C230 O222 1.258 . S
O231 Mn216 2.162 . S
O231 C219 1.281 . S
O232 Mn216 2.297 . S
O232 C219 1.236 . S
N233 Mn217 2.282 . S
N233 C234 1.328 . S
N233 C238 1.318 . S
C234 N233 1.328 . S
C234 C235 1.457 . S
C234 H239 0.929 . S
C235 C234 1.457 . S
C235 C236 1.291 . S
C235 H248 0.931 . S
C236 C235 1.291 . S
C236 C237 1.373 . S
C236 H249 0.929 . S
C237 C236 1.373 . S
C237 C238 1.396 . S
C237 C244 1.403 . S
C238 C228 1.476 . S
C238 N233 1.318 . S
C238 C237 1.396 . S
H239 C234 0.929 . S
O240 Mn216 2.385 . S
O240 C218 1.234 . S
O241 Mn216 2.209 . S
O241 Mn217 2.215 . S
O241 C218 1.283 . S
O242 Mn216 2.094 . S
O242 C220 1.240 . S
O243 Mn217 2.117 . S
O243 C220 1.264 . S
C244 C237 1.403 . S
C244 C245 1.399 . S
C244 H250 0.929 . S
C245 C225 1.449 . S
C245 C244 1.399 . S
C245 H251 0.930 . S
H246 C226 0.931 . S
H247 C227 0.930 . S
H248 C235 0.931 . S
H249 C236 0.929 . S
H250 C244 0.929 . S
H251 C245 0.930 . S
Mn252 O257 2.095 . S
Mn252 O267 2.162 . S
Mn252 O268 2.297 . S
Mn252 O276 2.385 . S
Mn252 O277 2.209 . S
Mn252 O278 2.094 . S
Mn253 O258 2.121 . S
Mn253 N260 2.257 . S
Mn253 N269 2.282 . S
Mn253 O277 2.215 . S
Mn253 O279 2.117 . S
C254 O276 1.234 . S
C254 O277 1.283 . S
C255 O267 1.281 . S
C255 O268 1.236 . S
C256 O278 1.240 . S
C256 O279 1.264 . S
O257 Mn252 2.095 . S
O257 C266 1.250 . S
O258 Mn253 2.121 . S
O258 C266 1.258 . S
C259 N260 1.326 . S
C259 C263 1.460 . S
C259 H265 0.929 . S
N260 Mn253 2.257 . S
N260 C259 1.326 . S
N260 C264 1.362 . S
C261 C262 1.258 . S
C261 C264 1.431 . S
C261 C281 1.449 . S
C262 C261 1.258 . S
C262 C263 1.477 . S
C262 H282 0.931 . S
C263 C259 1.460 . S
C263 C262 1.477 . S
C263 H283 0.930 . S
C264 N260 1.362 . S
C264 C261 1.431 . S
C264 C274 1.476 . S
H265 C259 0.929 . S
C266 O257 1.250 . S
C266 O258 1.258 . S
O267 Mn252 2.162 . S
O267 C255 1.281 . S
O268 Mn252 2.297 . S
O268 C255 1.236 . S
N269 Mn253 2.282 . S
N269 C270 1.328 . S
N269 C274 1.318 . S
C270 N269 1.328 . S
C270 C271 1.457 . S
C270 H275 0.929 . S
C271 C270 1.457 . S
C271 C272 1.291 . S
C271 H284 0.931 . S
C272 C271 1.291 . S
C272 C273 1.373 . S
C272 H285 0.929 . S
C273 C272 1.373 . S
C273 C274 1.396 . S
C273 C280 1.403 . S
C274 C264 1.476 . S
C274 N269 1.318 . S
C274 C273 1.396 . S
H275 C270 0.929 . S
O276 Mn252 2.385 . S
O276 C254 1.234 . S
O277 Mn252 2.209 . S
O277 Mn253 2.215 . S
O277 C254 1.283 . S
O278 Mn252 2.094 . S
O278 C256 1.240 . S
O279 Mn253 2.117 . S
O279 C256 1.264 . S
C280 C273 1.403 . S
C280 C281 1.399 . S
C280 H286 0.929 . S
C281 C261 1.449 . S
C281 C280 1.399 . S
C281 H287 0.930 . S
H282 C262 0.931 . S
H283 C263 0.930 . S
H284 C271 0.931 . S
H285 C272 0.929 . S
H286 C280 0.929 . S
H287 C281 0.930 . S
Mn288 O293 2.095 . S
Mn288 O303 2.162 . S
Mn288 O304 2.297 . S
Mn288 O312 2.385 . S
Mn288 O313 2.209 . S
Mn288 O314 2.094 . S
Mn289 O294 2.121 . S
Mn289 N296 2.257 . S
Mn289 N305 2.282 . S
Mn289 O313 2.215 . S
Mn289 O315 2.117 . S
C290 O312 1.234 . S
C290 O313 1.283 . S
C291 O303 1.281 . S
C291 O304 1.236 . S
C292 O314 1.240 . S
C292 O315 1.264 . S
O293 Mn288 2.095 . S
O293 C302 1.250 . S
O294 Mn289 2.121 . S
O294 C302 1.258 . S
C295 N296 1.326 . S
C295 C299 1.460 . S
C295 H301 0.929 . S
N296 Mn289 2.257 . S
N296 C295 1.326 . S
N296 C300 1.362 . S
C297 C298 1.258 . S
C297 C300 1.431 . S
C297 C317 1.449 . S
C298 C297 1.258 . S
C298 C299 1.477 . S
C298 H318 0.931 . S
C299 C295 1.460 . S
C299 C298 1.477 . S
C299 H319 0.930 . S
C300 N296 1.362 . S
C300 C297 1.431 . S
C300 C310 1.476 . S
H301 C295 0.929 . S
C302 O293 1.250 . S
C302 O294 1.258 . S
O303 Mn288 2.162 . S
O303 C291 1.281 . S
O304 Mn288 2.297 . S
O304 C291 1.236 . S
N305 Mn289 2.282 . S
N305 C306 1.328 . S
N305 C310 1.318 . S
C306 N305 1.328 . S
C306 C307 1.457 . S
C306 H311 0.929 . S
C307 C306 1.457 . S
C307 C308 1.291 . S
C307 H320 0.931 . S
C308 C307 1.291 . S
C308 C309 1.373 . S
C308 H321 0.929 . S
C309 C308 1.373 . S
C309 C310 1.396 . S
C309 C316 1.403 . S
C310 C300 1.476 . S
C310 N305 1.318 . S
C310 C309 1.396 . S
H311 C306 0.929 . S
O312 Mn288 2.385 . S
O312 C290 1.234 . S
O313 Mn288 2.209 . S
O313 Mn289 2.215 . S
O313 C290 1.283 . S
O314 Mn288 2.094 . S
O314 C292 1.240 . S
O315 Mn289 2.117 . S
O315 C292 1.264 . S
C316 C309 1.403 . S
C316 C317 1.399 . S
C316 H322 0.929 . S
C317 C297 1.449 . S
C317 C316 1.399 . S
C317 H323 0.930 . S
H318 C298 0.931 . S
H319 C299 0.930 . S
H320 C307 0.931 . S
H321 C308 0.929 . S
H322 C316 0.929 . S
H323 C317 0.930 . S
Mn324 O329 2.095 . S
Mn324 O339 2.162 . S
Mn324 O340 2.297 . S
Mn324 O348 2.385 . S
Mn324 O349 2.209 . S
Mn324 O350 2.094 . S
Mn325 O330 2.121 . S
Mn325 N332 2.257 . S
Mn325 N341 2.282 . S
Mn325 O349 2.215 . S
Mn325 O351 2.117 . S
C326 O348 1.234 . S
C326 O349 1.283 . S
C327 O339 1.281 . S
C327 O340 1.236 . S
C328 O350 1.240 . S
C328 O351 1.264 . S
O329 Mn324 2.095 . S
O329 C338 1.250 . S
O330 Mn325 2.121 . S
O330 C338 1.258 . S
C331 N332 1.326 . S
C331 C335 1.460 . S
C331 H337 0.929 . S
N332 Mn325 2.257 . S
N332 C331 1.326 . S
N332 C336 1.362 . S
C333 C334 1.258 . S
C333 C336 1.431 . S
C333 C353 1.449 . S
C334 C333 1.258 . S
C334 C335 1.477 . S
C334 H354 0.931 . S
C335 C331 1.460 . S
C335 C334 1.477 . S
C335 H355 0.930 . S
C336 N332 1.362 . S
C336 C333 1.431 . S
C336 C346 1.476 . S
H337 C331 0.929 . S
C338 O329 1.250 . S
C338 O330 1.258 . S
O339 Mn324 2.162 . S
O339 C327 1.281 . S
O340 Mn324 2.297 . S
O340 C327 1.236 . S
N341 Mn325 2.282 . S
N341 C342 1.328 . S
N341 C346 1.318 . S
C342 N341 1.328 . S
C342 C343 1.457 . S
C342 H347 0.929 . S
C343 C342 1.457 . S
C343 C344 1.291 . S
C343 H356 0.931 . S
C344 C343 1.291 . S
C344 C345 1.373 . S
C344 H357 0.929 . S
C345 C344 1.373 . S
C345 C346 1.396 . S
C345 C352 1.403 . S
C346 C336 1.476 . S
C346 N341 1.318 . S
C346 C345 1.396 . S
H347 C342 0.929 . S
O348 Mn324 2.385 . S
O348 C326 1.234 . S
O349 Mn324 2.209 . S
O349 Mn325 2.215 . S
O349 C326 1.283 . S
O350 Mn324 2.094 . S
O350 C328 1.240 . S
O351 Mn325 2.117 . S
O351 C328 1.264 . S
C352 C345 1.403 . S
C352 C353 1.399 . S
C352 H358 0.929 . S
C353 C333 1.449 . S
C353 C352 1.399 . S
C353 H359 0.930 . S
H354 C334 0.931 . S
H355 C335 0.930 . S
H356 C343 0.931 . S
H357 C344 0.929 . S
H358 C352 0.929 . S
H359 C353 0.930 . S
Mn360 O365 2.095 . S
Mn360 O375 2.162 . S
Mn360 O376 2.297 . S
Mn360 O384 2.385 . S
Mn360 O385 2.209 . S
Mn360 O386 2.094 . S
Mn361 O366 2.121 . S
Mn361 N368 2.257 . S
Mn361 N377 2.282 . S
Mn361 O385 2.215 . S
Mn361 O387 2.117 . S
C362 O384 1.234 . S
C362 O385 1.283 . S
C363 O375 1.281 . S
C363 O376 1.236 . S
C364 O386 1.240 . S
C364 O387 1.264 . S
O365 Mn360 2.095 . S
O365 C374 1.250 . S
O366 Mn361 2.121 . S
O366 C374 1.258 . S
C367 N368 1.326 . S
C367 C371 1.460 . S
C367 H373 0.929 . S
N368 Mn361 2.257 . S
N368 C367 1.326 . S
N368 C372 1.362 . S
C369 C370 1.258 . S
C369 C372 1.431 . S
C369 C389 1.449 . S
C370 C369 1.258 . S
C370 C371 1.477 . S
C370 H390 0.931 . S
C371 C367 1.460 . S
C371 C370 1.477 . S
C371 H391 0.930 . S
C372 N368 1.362 . S
C372 C369 1.431 . S
C372 C382 1.476 . S
H373 C367 0.929 . S
C374 O365 1.250 . S
C374 O366 1.258 . S
O375 Mn360 2.162 . S
O375 C363 1.281 . S
O376 Mn360 2.297 . S
O376 C363 1.236 . S
N377 Mn361 2.282 . S
N377 C378 1.328 . S
N377 C382 1.318 . S
C378 N377 1.328 . S
C378 C379 1.457 . S
C378 H383 0.929 . S
C379 C378 1.457 . S
C379 C380 1.291 . S
C379 H392 0.931 . S
C380 C379 1.291 . S
C380 C381 1.373 . S
C380 H393 0.929 . S
C381 C380 1.373 . S
C381 C382 1.396 . S
C381 C388 1.403 . S
C382 C372 1.476 . S
C382 N377 1.318 . S
C382 C381 1.396 . S
H383 C378 0.929 . S
O384 Mn360 2.385 . S
O384 C362 1.234 . S
O385 Mn360 2.209 . S
O385 Mn361 2.215 . S
O385 C362 1.283 . S
O386 Mn360 2.094 . S
O386 C364 1.240 . S
O387 Mn361 2.117 . S
O387 C364 1.264 . S
C388 C381 1.403 . S
C388 C389 1.399 . S
C388 H394 0.929 . S
C389 C369 1.449 . S
C389 C388 1.399 . S
C389 H395 0.930 . S
H390 C370 0.931 . S
H391 C371 0.930 . S
H392 C379 0.931 . S
H393 C380 0.929 . S
H394 C388 0.929 . S
H395 C389 0.930 . S
Mn396 O401 2.095 . S
Mn396 O411 2.162 . S
Mn396 O412 2.297 . S
Mn396 O420 2.385 . S
Mn396 O421 2.209 . S
Mn396 O422 2.094 . S
Mn397 O402 2.121 . S
Mn397 N404 2.257 . S
Mn397 N413 2.282 . S
Mn397 O421 2.215 . S
Mn397 O423 2.117 . S
C398 O420 1.234 . S
C398 O421 1.283 . S
C399 O411 1.281 . S
C399 O412 1.236 . S
C400 O422 1.240 . S
C400 O423 1.264 . S
O401 Mn396 2.095 . S
O401 C410 1.250 . S
O402 Mn397 2.121 . S
O402 C410 1.258 . S
C403 N404 1.326 . S
C403 C407 1.460 . S
C403 H409 0.929 . S
N404 Mn397 2.257 . S
N404 C403 1.326 . S
N404 C408 1.362 . S
C405 C406 1.258 . S
C405 C408 1.431 . S
C405 C425 1.449 . S
C406 C405 1.258 . S
C406 C407 1.477 . S
C406 H426 0.931 . S
C407 C403 1.460 . S
C407 C406 1.477 . S
C407 H427 0.930 . S
C408 N404 1.362 . S
C408 C405 1.431 . S
C408 C418 1.476 . S
H409 C403 0.929 . S
C410 O401 1.250 . S
C410 O402 1.258 . S
O411 Mn396 2.162 . S
O411 C399 1.281 . S
O412 Mn396 2.297 . S
O412 C399 1.236 . S
N413 Mn397 2.282 . S
N413 C414 1.328 . S
N413 C418 1.318 . S
C414 N413 1.328 . S
C414 C415 1.457 . S
C414 H419 0.929 . S
C415 C414 1.457 . S
C415 C416 1.291 . S
C415 H428 0.931 . S
C416 C415 1.291 . S
C416 C417 1.373 . S
C416 H429 0.929 . S
C417 C416 1.373 . S
C417 C418 1.396 . S
C417 C424 1.403 . S
C418 C408 1.476 . S
C418 N413 1.318 . S
C418 C417 1.396 . S
H419 C414 0.929 . S
O420 Mn396 2.385 . S
O420 C398 1.234 . S
O421 Mn396 2.209 . S
O421 Mn397 2.215 . S
O421 C398 1.283 . S
O422 Mn396 2.094 . S
O422 C400 1.240 . S
O423 Mn397 2.117 . S
O423 C400 1.264 . S
C424 C417 1.403 . S
C424 C425 1.399 . S
C424 H430 0.929 . S
C425 C405 1.449 . S
C425 C424 1.399 . S
C425 H431 0.930 . S
H426 C406 0.931 . S
H427 C407 0.930 . S
H428 C415 0.931 . S
H429 C416 0.929 . S
H430 C424 0.929 . S
H431 C425 0.930 . S
Mn432 O437 2.095 . S
Mn432 O447 2.162 . S
Mn432 O448 2.297 . S
Mn432 O456 2.385 . S
Mn432 O457 2.209 . S
Mn432 O458 2.094 . S
Mn433 O438 2.121 . S
Mn433 N440 2.257 . S
Mn433 N449 2.282 . S
Mn433 O457 2.215 . S
Mn433 O459 2.117 . S
C434 O456 1.234 . S
C434 O457 1.283 . S
C435 O447 1.281 . S
C435 O448 1.236 . S
C436 O458 1.240 . S
C436 O459 1.264 . S
O437 Mn432 2.095 . S
O437 C446 1.250 . S
O438 Mn433 2.121 . S
O438 C446 1.258 . S
C439 N440 1.326 . S
C439 C443 1.460 . S
C439 H445 0.929 . S
N440 Mn433 2.257 . S
N440 C439 1.326 . S
N440 C444 1.362 . S
C441 C442 1.258 . S
C441 C444 1.431 . S
C441 C461 1.449 . S
C442 C441 1.258 . S
C442 C443 1.477 . S
C442 H462 0.931 . S
C443 C439 1.460 . S
C443 C442 1.477 . S
C443 H463 0.930 . S
C444 N440 1.362 . S
C444 C441 1.431 . S
C444 C454 1.476 . S
H445 C439 0.929 . S
C446 O437 1.250 . S
C446 O438 1.258 . S
O447 Mn432 2.162 . S
O447 C435 1.281 . S
O448 Mn432 2.297 . S
O448 C435 1.236 . S
N449 Mn433 2.282 . S
N449 C450 1.328 . S
N449 C454 1.318 . S
C450 N449 1.328 . S
C450 C451 1.457 . S
C450 H455 0.929 . S
C451 C450 1.457 . S
C451 C452 1.291 . S
C451 H464 0.931 . S
C452 C451 1.291 . S
C452 C453 1.373 . S
C452 H465 0.929 . S
C453 C452 1.373 . S
C453 C454 1.396 . S
C453 C460 1.403 . S
C454 C444 1.476 . S
C454 N449 1.318 . S
C454 C453 1.396 . S
H455 C450 0.929 . S
O456 Mn432 2.385 . S
O456 C434 1.234 . S
O457 Mn432 2.209 . S
O457 Mn433 2.215 . S
O457 C434 1.283 . S
O458 Mn432 2.094 . S
O458 C436 1.240 . S
O459 Mn433 2.117 . S
O459 C436 1.264 . S
C460 C453 1.403 . S
C460 C461 1.399 . S
C460 H466 0.929 . S
C461 C441 1.449 . S
C461 C460 1.399 . S
C461 H467 0.930 . S
H462 C442 0.931 . S
H463 C443 0.930 . S
H464 C451 0.931 . S
H465 C452 0.929 . S
H466 C460 0.929 . S
H467 C461 0.930 . S
Mn468 O473 2.095 . S
Mn468 O483 2.162 . S
Mn468 O484 2.297 . S
Mn468 O492 2.385 . S
Mn468 O493 2.209 . S
Mn468 O494 2.094 . S
Mn469 O474 2.121 . S
Mn469 N476 2.257 . S
Mn469 N485 2.282 . S
Mn469 O493 2.215 . S
Mn469 O495 2.117 . S
C470 O492 1.234 . S
C470 O493 1.283 . S
C471 O483 1.281 . S
C471 O484 1.236 . S
C472 O494 1.240 . S
C472 O495 1.264 . S
O473 Mn468 2.095 . S
O473 C482 1.250 . S
O474 Mn469 2.121 . S
O474 C482 1.258 . S
C475 N476 1.326 . S
C475 C479 1.460 . S
C475 H481 0.929 . S
N476 Mn469 2.257 . S
N476 C475 1.326 . S
N476 C480 1.362 . S
C477 C478 1.258 . S
C477 C480 1.431 . S
C477 C497 1.449 . S
C478 C477 1.258 . S
C478 C479 1.477 . S
C478 H498 0.931 . S
C479 C475 1.460 . S
C479 C478 1.477 . S
C479 H499 0.930 . S
C480 N476 1.362 . S
C480 C477 1.431 . S
C480 C490 1.476 . S
H481 C475 0.929 . S
C482 O473 1.250 . S
C482 O474 1.258 . S
O483 Mn468 2.162 . S
O483 C471 1.281 . S
O484 Mn468 2.297 . S
O484 C471 1.236 . S
N485 Mn469 2.282 . S
N485 C486 1.328 . S
N485 C490 1.318 . S
C486 N485 1.328 . S
C486 C487 1.457 . S
C486 H491 0.929 . S
C487 C486 1.457 . S
C487 C488 1.291 . S
C487 H500 0.931 . S
C488 C487 1.291 . S
C488 C489 1.373 . S
C488 H501 0.929 . S
C489 C488 1.373 . S
C489 C490 1.396 . S
C489 C496 1.403 . S
C490 C480 1.476 . S
C490 N485 1.318 . S
C490 C489 1.396 . S
H491 C486 0.929 . S
O492 Mn468 2.385 . S
O492 C470 1.234 . S
O493 Mn468 2.209 . S
O493 Mn469 2.215 . S
O493 C470 1.283 . S
O494 Mn468 2.094 . S
O494 C472 1.240 . S
O495 Mn469 2.117 . S
O495 C472 1.264 . S
C496 C489 1.403 . S
C496 C497 1.399 . S
C496 H502 0.929 . S
C497 C477 1.449 . S
C497 C496 1.399 . S
C497 H503 0.930 . S
H498 C478 0.931 . S
H499 C479 0.930 . S
H500 C487 0.931 . S
H501 C488 0.929 . S
H502 C496 0.929 . S
H503 C497 0.930 . S
Mn504 O509 2.095 . S
Mn504 O519 2.162 . S
Mn504 O520 2.297 . S
Mn504 O528 2.385 . S
Mn504 O529 2.209 . S
Mn504 O530 2.094 . S
Mn505 O510 2.121 . S
Mn505 N512 2.257 . S
Mn505 N521 2.282 . S
Mn505 O529 2.215 . S
Mn505 O531 2.117 . S
C506 O528 1.234 . S
C506 O529 1.283 . S
C507 O519 1.281 . S
C507 O520 1.236 . S
C508 O530 1.240 . S
C508 O531 1.264 . S
O509 Mn504 2.095 . S
O509 C518 1.250 . S
O510 Mn505 2.121 . S
O510 C518 1.258 . S
C511 N512 1.326 . S
C511 C515 1.460 . S
C511 H517 0.929 . S
N512 Mn505 2.257 . S
N512 C511 1.326 . S
N512 C516 1.362 . S
C513 C514 1.258 . S
C513 C516 1.431 . S
C513 C533 1.449 . S
C514 C513 1.258 . S
C514 C515 1.477 . S
C514 H534 0.931 . S
C515 C511 1.460 . S
C515 C514 1.477 . S
C515 H535 0.930 . S
C516 N512 1.362 . S
C516 C513 1.431 . S
C516 C526 1.476 . S
H517 C511 0.929 . S
C518 O509 1.250 . S
C518 O510 1.258 . S
O519 Mn504 2.162 . S
O519 C507 1.281 . S
O520 Mn504 2.297 . S
O520 C507 1.236 . S
N521 Mn505 2.282 . S
N521 C522 1.328 . S
N521 C526 1.318 . S
C522 N521 1.328 . S
C522 C523 1.457 . S
C522 H527 0.929 . S
C523 C522 1.457 . S
C523 C524 1.291 . S
C523 H536 0.931 . S
C524 C523 1.291 . S
C524 C525 1.373 . S
C524 H537 0.929 . S
C525 C524 1.373 . S
C525 C526 1.396 . S
C525 C532 1.403 . S
C526 C516 1.476 . S
C526 N521 1.318 . S
C526 C525 1.396 . S
H527 C522 0.929 . S
O528 Mn504 2.385 . S
O528 C506 1.234 . S
O529 Mn504 2.209 . S
O529 Mn505 2.215 . S
O529 C506 1.283 . S
O530 Mn504 2.094 . S
O530 C508 1.240 . S
O531 Mn505 2.117 . S
O531 C508 1.264 . S
C532 C525 1.403 . S
C532 C533 1.399 . S
C532 H538 0.929 . S
C533 C513 1.449 . S
C533 C532 1.399 . S
C533 H539 0.930 . S
H534 C514 0.931 . S
H535 C515 0.930 . S
H536 C523 0.931 . S
H537 C524 0.929 . S
H538 C532 0.929 . S
H539 C533 0.930 . S
Mn540 O545 2.095 . S
Mn540 O555 2.162 . S
Mn540 O556 2.297 . S
Mn540 O564 2.385 . S
Mn540 O565 2.209 . S
Mn540 O566 2.094 . S
Mn541 O546 2.121 . S
Mn541 N548 2.257 . S
Mn541 N557 2.282 . S
Mn541 O565 2.215 . S
Mn541 O567 2.117 . S
C542 O564 1.234 . S
C542 O565 1.283 . S
C543 O555 1.281 . S
C543 O556 1.236 . S
C544 O566 1.240 . S
C544 O567 1.264 . S
O545 Mn540 2.095 . S
O545 C554 1.250 . S
O546 Mn541 2.121 . S
O546 C554 1.258 . S
C547 N548 1.326 . S
C547 C551 1.460 . S
C547 H553 0.929 . S
N548 Mn541 2.257 . S
N548 C547 1.326 . S
N548 C552 1.362 . S
C549 C550 1.258 . S
C549 C552 1.431 . S
C549 C569 1.449 . S
C550 C549 1.258 . S
C550 C551 1.477 . S
C550 H570 0.931 . S
C551 C547 1.460 . S
C551 C550 1.477 . S
C551 H571 0.930 . S
C552 N548 1.362 . S
C552 C549 1.431 . S
C552 C562 1.476 . S
H553 C547 0.929 . S
C554 O545 1.250 . S
C554 O546 1.258 . S
O555 Mn540 2.162 . S
O555 C543 1.281 . S
O556 Mn540 2.297 . S
O556 C543 1.236 . S
N557 Mn541 2.282 . S
N557 C558 1.328 . S
N557 C562 1.318 . S
C558 N557 1.328 . S
C558 C559 1.457 . S
C558 H563 0.929 . S
C559 C558 1.457 . S
C559 C560 1.291 . S
C559 H572 0.931 . S
C560 C559 1.291 . S
C560 C561 1.373 . S
C560 H573 0.929 . S
C561 C560 1.373 . S
C561 C562 1.396 . S
C561 C568 1.403 . S
C562 C552 1.476 . S
C562 N557 1.318 . S
C562 C561 1.396 . S
H563 C558 0.929 . S
O564 Mn540 2.385 . S
O564 C542 1.234 . S
O565 Mn540 2.209 . S
O565 Mn541 2.215 . S
O565 C542 1.283 . S
O566 Mn540 2.094 . S
O566 C544 1.240 . S
O567 Mn541 2.117 . S
O567 C544 1.264 . S
C568 C561 1.403 . S
C568 C569 1.399 . S
C568 H574 0.929 . S
C569 C549 1.449 . S
C569 C568 1.399 . S
C569 H575 0.930 . S
H570 C550 0.931 . S
H571 C551 0.930 . S
H572 C559 0.931 . S
H573 C560 0.929 . S
H574 C568 0.929 . S
H575 C569 0.930 . S
Mn576 O581 2.095 . S
Mn576 O591 2.162 . S
Mn576 O592 2.297 . S
Mn576 O600 2.385 . S
Mn576 O601 2.209 . S
Mn576 O602 2.094 . S
Mn577 O582 2.121 . S
Mn577 N584 2.257 . S
Mn577 N593 2.282 . S
Mn577 O601 2.215 . S
Mn577 O603 2.117 . S
C578 O600 1.234 . S
C578 O601 1.283 . S
C579 O591 1.281 . S
C579 O592 1.236 . S
C580 O602 1.240 . S
C580 O603 1.264 . S
O581 Mn576 2.095 . S
O581 C590 1.250 . S
O582 Mn577 2.121 . S
O582 C590 1.258 . S
C583 N584 1.326 . S
C583 C587 1.460 . S
C583 H589 0.929 . S
N584 Mn577 2.257 . S
N584 C583 1.326 . S
N584 C588 1.362 . S
C585 C586 1.258 . S
C585 C588 1.431 . S
C585 C605 1.449 . S
C586 C585 1.258 . S
C586 C587 1.477 . S
C586 H606 0.931 . S
C587 C583 1.460 . S
C587 C586 1.477 . S
C587 H607 0.930 . S
C588 N584 1.362 . S
C588 C585 1.431 . S
C588 C598 1.476 . S
H589 C583 0.929 . S
C590 O581 1.250 . S
C590 O582 1.258 . S
O591 Mn576 2.162 . S
O591 C579 1.281 . S
O592 Mn576 2.297 . S
O592 C579 1.236 . S
N593 Mn577 2.282 . S
N593 C594 1.328 . S
N593 C598 1.318 . S
C594 N593 1.328 . S
C594 C595 1.457 . S
C594 H599 0.929 . S
C595 C594 1.457 . S
C595 C596 1.291 . S
C595 H608 0.931 . S
C596 C595 1.291 . S
C596 C597 1.373 . S
C596 H609 0.929 . S
C597 C596 1.373 . S
C597 C598 1.396 . S
C597 C604 1.403 . S
C598 C588 1.476 . S
C598 N593 1.318 . S
C598 C597 1.396 . S
H599 C594 0.929 . S
O600 Mn576 2.385 . S
O600 C578 1.234 . S
O601 Mn576 2.209 . S
O601 Mn577 2.215 . S
O601 C578 1.283 . S
O602 Mn576 2.094 . S
O602 C580 1.240 . S
O603 Mn577 2.117 . S
O603 C580 1.264 . S
C604 C597 1.403 . S
C604 C605 1.399 . S
C604 H610 0.929 . S
C605 C585 1.449 . S
C605 C604 1.399 . S
C605 H611 0.930 . S
H606 C586 0.931 . S
H607 C587 0.930 . S
H608 C595 0.931 . S
H609 C596 0.929 . S
H610 C604 0.929 . S
H611 C605 0.930 . S
Mn612 O617 2.095 . S
Mn612 O627 2.162 . S
Mn612 O628 2.297 . S
Mn612 O636 2.385 . S
Mn612 O637 2.209 . S
Mn612 O638 2.094 . S
Mn613 O618 2.121 . S
Mn613 N620 2.257 . S
Mn613 N629 2.282 . S
Mn613 O637 2.215 . S
Mn613 O639 2.117 . S
C614 O636 1.234 . S
C614 O637 1.283 . S
C615 O627 1.281 . S
C615 O628 1.236 . S
C616 O638 1.240 . S
C616 O639 1.264 . S
O617 Mn612 2.095 . S
O617 C626 1.250 . S
O618 Mn613 2.121 . S
O618 C626 1.258 . S
C619 N620 1.326 . S
C619 C623 1.460 . S
C619 H625 0.929 . S
N620 Mn613 2.257 . S
N620 C619 1.326 . S
N620 C624 1.362 . S
C621 C622 1.258 . S
C621 C624 1.431 . S
C621 C641 1.449 . S
C622 C621 1.258 . S
C622 C623 1.477 . S
C622 H642 0.931 . S
C623 C619 1.460 . S
C623 C622 1.477 . S
C623 H643 0.930 . S
C624 N620 1.362 . S
C624 C621 1.431 . S
C624 C634 1.476 . S
H625 C619 0.929 . S
C626 O617 1.250 . S
C626 O618 1.258 . S
O627 Mn612 2.162 . S
O627 C615 1.281 . S
O628 Mn612 2.297 . S
O628 C615 1.236 . S
N629 Mn613 2.282 . S
N629 C630 1.328 . S
N629 C634 1.318 . S
C630 N629 1.328 . S
C630 C631 1.457 . S
C630 H635 0.929 . S
C631 C630 1.457 . S
C631 C632 1.291 . S
C631 H644 0.931 . S
C632 C631 1.291 . S
C632 C633 1.373 . S
C632 H645 0.929 . S
C633 C632 1.373 . S
C633 C634 1.396 . S
C633 C640 1.403 . S
C634 C624 1.476 . S
C634 N629 1.318 . S
C634 C633 1.396 . S
H635 C630 0.929 . S
O636 Mn612 2.385 . S
O636 C614 1.234 . S
O637 Mn612 2.209 . S
O637 Mn613 2.215 . S
O637 C614 1.283 . S
O638 Mn612 2.094 . S
O638 C616 1.240 . S
O639 Mn613 2.117 . S
O639 C616 1.264 . S
C640 C633 1.403 . S
C640 C641 1.399 . S
C640 H646 0.929 . S
C641 C621 1.449 . S
C641 C640 1.399 . S
C641 H647 0.930 . S
H642 C622 0.931 . S
H643 C623 0.930 . S
H644 C631 0.931 . S
H645 C632 0.929 . S
H646 C640 0.929 . S
H647 C641 0.930 . S
Mn648 O653 2.095 . S
Mn648 O663 2.162 . S
Mn648 O664 2.297 . S
Mn648 O672 2.385 . S
Mn648 O673 2.209 . S
Mn648 O674 2.094 . S
Mn649 O654 2.121 . S
Mn649 N656 2.257 . S
Mn649 N665 2.282 . S
Mn649 O673 2.215 . S
Mn649 O675 2.117 . S
C650 O672 1.234 . S
C650 O673 1.283 . S
C651 O663 1.281 . S
C651 O664 1.236 . S
C652 O674 1.240 . S
C652 O675 1.264 . S
O653 Mn648 2.095 . S
O653 C662 1.250 . S
O654 Mn649 2.121 . S
O654 C662 1.258 . S
C655 N656 1.326 . S
C655 C659 1.460 . S
C655 H661 0.929 . S
N656 Mn649 2.257 . S
N656 C655 1.326 . S
N656 C660 1.362 . S
C657 C658 1.258 . S
C657 C660 1.431 . S
C657 C677 1.449 . S
C658 C657 1.258 . S
C658 C659 1.477 . S
C658 H678 0.931 . S
C659 C655 1.460 . S
C659 C658 1.477 . S
C659 H679 0.930 . S
C660 N656 1.362 . S
C660 C657 1.431 . S
C660 C670 1.476 . S
H661 C655 0.929 . S
C662 O653 1.250 . S
C662 O654 1.258 . S
O663 Mn648 2.162 . S
O663 C651 1.281 . S
O664 Mn648 2.297 . S
O664 C651 1.236 . S
N665 Mn649 2.282 . S
N665 C666 1.328 . S
N665 C670 1.318 . S
C666 N665 1.328 . S
C666 C667 1.457 . S
C666 H671 0.929 . S
C667 C666 1.457 . S
C667 C668 1.291 . S
C667 H680 0.931 . S
C668 C667 1.291 . S
C668 C669 1.373 . S
C668 H681 0.929 . S
C669 C668 1.373 . S
C669 C670 1.396 . S
C669 C676 1.403 . S
C670 C660 1.476 . S
C670 N665 1.318 . S
C670 C669 1.396 . S
H671 C666 0.929 . S
O672 Mn648 2.385 . S
O672 C650 1.234 . S
O673 Mn648 2.209 . S
O673 Mn649 2.215 . S
O673 C650 1.283 . S
O674 Mn648 2.094 . S
O674 C652 1.240 . S
O675 Mn649 2.117 . S
O675 C652 1.264 . S
C676 C669 1.403 . S
C676 C677 1.399 . S
C676 H682 0.929 . S
C677 C657 1.449 . S
C677 C676 1.399 . S
C677 H683 0.930 . S
H678 C658 0.931 . S
H679 C659 0.930 . S
H680 C667 0.931 . S
H681 C668 0.929 . S
H682 C676 0.929 . S
H683 C677 0.930 . S
Mn684 O689 2.095 . S
Mn684 O699 2.162 . S
Mn684 O700 2.297 . S
Mn684 O708 2.385 . S
Mn684 O709 2.209 . S
Mn684 O710 2.094 . S
Mn685 O690 2.121 . S
Mn685 N692 2.257 . S
Mn685 N701 2.282 . S
Mn685 O709 2.215 . S
Mn685 O711 2.117 . S
C686 O708 1.234 . S
C686 O709 1.283 . S
C687 O699 1.281 . S
C687 O700 1.236 . S
C688 O710 1.240 . S
C688 O711 1.264 . S
O689 Mn684 2.095 . S
O689 C698 1.250 . S
O690 Mn685 2.121 . S
O690 C698 1.258 . S
C691 N692 1.326 . S
C691 C695 1.460 . S
C691 H697 0.929 . S
N692 Mn685 2.257 . S
N692 C691 1.326 . S
N692 C696 1.362 . S
C693 C694 1.258 . S
C693 C696 1.431 . S
C693 C713 1.449 . S
C694 C693 1.258 . S
C694 C695 1.477 . S
C694 H714 0.931 . S
C695 C691 1.460 . S
C695 C694 1.477 . S
C695 H715 0.930 . S
C696 N692 1.362 . S
C696 C693 1.431 . S
C696 C706 1.476 . S
H697 C691 0.929 . S
C698 O689 1.250 . S
C698 O690 1.258 . S
O699 Mn684 2.162 . S
O699 C687 1.281 . S
O700 Mn684 2.297 . S
O700 C687 1.236 . S
N701 Mn685 2.282 . S
N701 C702 1.328 . S
N701 C706 1.318 . S
C702 N701 1.328 . S
C702 C703 1.457 . S
C702 H707 0.929 . S
C703 C702 1.457 . S
C703 C704 1.291 . S
C703 H716 0.931 . S
C704 C703 1.291 . S
C704 C705 1.373 . S
C704 H717 0.929 . S
C705 C704 1.373 . S
C705 C706 1.396 . S
C705 C712 1.403 . S
C706 C696 1.476 . S
C706 N701 1.318 . S
C706 C705 1.396 . S
H707 C702 0.929 . S
O708 Mn684 2.385 . S
O708 C686 1.234 . S
O709 Mn684 2.209 . S
O709 Mn685 2.215 . S
O709 C686 1.283 . S
O710 Mn684 2.094 . S
O710 C688 1.240 . S
O711 Mn685 2.117 . S
O711 C688 1.264 . S
C712 C705 1.403 . S
C712 C713 1.399 . S
C712 H718 0.929 . S
C713 C693 1.449 . S
C713 C712 1.399 . S
C713 H719 0.930 . S
H714 C694 0.931 . S
H715 C695 0.930 . S
H716 C703 0.931 . S
H717 C704 0.929 . S
H718 C712 0.929 . S
H719 C713 0.930 . S
Mn720 O725 2.095 . S
Mn720 O735 2.162 . S
Mn720 O736 2.297 . S
Mn720 O744 2.385 . S
Mn720 O745 2.209 . S
Mn720 O746 2.094 . S
Mn721 O726 2.121 . S
Mn721 N728 2.257 . S
Mn721 N737 2.282 . S
Mn721 O745 2.215 . S
Mn721 O747 2.117 . S
C722 O744 1.234 . S
C722 O745 1.283 . S
C723 O735 1.281 . S
C723 O736 1.236 . S
C724 O746 1.240 . S
C724 O747 1.264 . S
O725 Mn720 2.095 . S
O725 C734 1.250 . S
O726 Mn721 2.121 . S
O726 C734 1.258 . S
C727 N728 1.326 . S
C727 C731 1.460 . S
C727 H733 0.929 . S
N728 Mn721 2.257 . S
N728 C727 1.326 . S
N728 C732 1.362 . S
C729 C730 1.258 . S
C729 C732 1.431 . S
C729 C749 1.449 . S
C730 C729 1.258 . S
C730 C731 1.477 . S
C730 H750 0.931 . S
C731 C727 1.460 . S
C731 C730 1.477 . S
C731 H751 0.930 . S
C732 N728 1.362 . S
C732 C729 1.431 . S
C732 C742 1.476 . S
H733 C727 0.929 . S
C734 O725 1.250 . S
C734 O726 1.258 . S
O735 Mn720 2.162 . S
O735 C723 1.281 . S
O736 Mn720 2.297 . S
O736 C723 1.236 . S
N737 Mn721 2.282 . S
N737 C738 1.328 . S
N737 C742 1.318 . S
C738 N737 1.328 . S
C738 C739 1.457 . S
C738 H743 0.929 . S
C739 C738 1.457 . S
C739 C740 1.291 . S
C739 H752 0.931 . S
C740 C739 1.291 . S
C740 C741 1.373 . S
C740 H753 0.929 . S
C741 C740 1.373 . S
C741 C742 1.396 . S
C741 C748 1.403 . S
C742 C732 1.476 . S
C742 N737 1.318 . S
C742 C741 1.396 . S
H743 C738 0.929 . S
O744 Mn720 2.385 . S
O744 C722 1.234 . S
O745 Mn720 2.209 . S
O745 Mn721 2.215 . S
O745 C722 1.283 . S
O746 Mn720 2.094 . S
O746 C724 1.240 . S
O747 Mn721 2.117 . S
O747 C724 1.264 . S
C748 C741 1.403 . S
C748 C749 1.399 . S
C748 H754 0.929 . S
C749 C729 1.449 . S
C749 C748 1.399 . S
C749 H755 0.930 . S
H750 C730 0.931 . S
H751 C731 0.930 . S
H752 C739 0.931 . S
H753 C740 0.929 . S
H754 C748 0.929 . S
H755 C749 0.930 . S
Mn756 O761 2.095 . S
Mn756 O771 2.162 . S
Mn756 O772 2.297 . S
Mn756 O780 2.385 . S
Mn756 O781 2.209 . S
Mn756 O782 2.094 . S
Mn757 O762 2.121 . S
Mn757 N764 2.257 . S
Mn757 N773 2.282 . S
Mn757 O781 2.215 . S
Mn757 O783 2.117 . S
C758 O780 1.234 . S
C758 O781 1.283 . S
C759 O771 1.281 . S
C759 O772 1.236 . S
C760 O782 1.240 . S
C760 O783 1.264 . S
O761 Mn756 2.095 . S
O761 C770 1.250 . S
O762 Mn757 2.121 . S
O762 C770 1.258 . S
C763 N764 1.326 . S
C763 C767 1.460 . S
C763 H769 0.929 . S
N764 Mn757 2.257 . S
N764 C763 1.326 . S
N764 C768 1.362 . S
C765 C766 1.258 . S
C765 C768 1.431 . S
C765 C785 1.449 . S
C766 C765 1.258 . S
C766 C767 1.477 . S
C766 H786 0.931 . S
C767 C763 1.460 . S
C767 C766 1.477 . S
C767 H787 0.930 . S
C768 N764 1.362 . S
C768 C765 1.431 . S
C768 C778 1.476 . S
H769 C763 0.929 . S
C770 O761 1.250 . S
C770 O762 1.258 . S
O771 Mn756 2.162 . S
O771 C759 1.281 . S
O772 Mn756 2.297 . S
O772 C759 1.236 . S
N773 Mn757 2.282 . S
N773 C774 1.328 . S
N773 C778 1.318 . S
C774 N773 1.328 . S
C774 C775 1.457 . S
C774 H779 0.929 . S
C775 C774 1.457 . S
C775 C776 1.291 . S
C775 H788 0.931 . S
C776 C775 1.291 . S
C776 C777 1.373 . S
C776 H789 0.929 . S
C777 C776 1.373 . S
C777 C778 1.396 . S
C777 C784 1.403 . S
C778 C768 1.476 . S
C778 N773 1.318 . S
C778 C777 1.396 . S
H779 C774 0.929 . S
O780 Mn756 2.385 . S
O780 C758 1.234 . S
O781 Mn756 2.209 . S
O781 Mn757 2.215 . S
O781 C758 1.283 . S
O782 Mn756 2.094 . S
O782 C760 1.240 . S
O783 Mn757 2.117 . S
O783 C760 1.264 . S
C784 C777 1.403 . S
C784 C785 1.399 . S
C784 H790 0.929 . S
C785 C765 1.449 . S
C785 C784 1.399 . S
C785 H791 0.930 . S
H786 C766 0.931 . S
H787 C767 0.930 . S
H788 C775 0.931 . S
H789 C776 0.929 . S
H790 C784 0.929 . S
H791 C785 0.930 . S
Mn792 O797 2.095 . S
Mn792 O807 2.162 . S
Mn792 O808 2.297 . S
Mn792 O816 2.385 . S
Mn792 O817 2.209 . S
Mn792 O818 2.094 . S
Mn793 O798 2.121 . S
Mn793 N800 2.257 . S
Mn793 N809 2.282 . S
Mn793 O817 2.215 . S
Mn793 O819 2.117 . S
C794 O816 1.234 . S
C794 O817 1.283 . S
C795 O807 1.281 . S
C795 O808 1.236 . S
C796 O818 1.240 . S
C796 O819 1.264 . S
O797 Mn792 2.095 . S
O797 C806 1.250 . S
O798 Mn793 2.121 . S
O798 C806 1.258 . S
C799 N800 1.326 . S
C799 C803 1.460 . S
C799 H805 0.929 . S
N800 Mn793 2.257 . S
N800 C799 1.326 . S
N800 C804 1.362 . S
C801 C802 1.258 . S
C801 C804 1.431 . S
C801 C821 1.449 . S
C802 C801 1.258 . S
C802 C803 1.477 . S
C802 H822 0.931 . S
C803 C799 1.460 . S
C803 C802 1.477 . S
C803 H823 0.930 . S
C804 N800 1.362 . S
C804 C801 1.431 . S
C804 C814 1.476 . S
H805 C799 0.929 . S
C806 O797 1.250 . S
C806 O798 1.258 . S
O807 Mn792 2.162 . S
O807 C795 1.281 . S
O808 Mn792 2.297 . S
O808 C795 1.236 . S
N809 Mn793 2.282 . S
N809 C810 1.328 . S
N809 C814 1.318 . S
C810 N809 1.328 . S
C810 C811 1.457 . S
C810 H815 0.929 . S
C811 C810 1.457 . S
C811 C812 1.291 . S
C811 H824 0.931 . S
C812 C811 1.291 . S
C812 C813 1.373 . S
C812 H825 0.929 . S
C813 C812 1.373 . S
C813 C814 1.396 . S
C813 C820 1.403 . S
C814 C804 1.476 . S
C814 N809 1.318 . S
C814 C813 1.396 . S
H815 C810 0.929 . S
O816 Mn792 2.385 . S
O816 C794 1.234 . S
O817 Mn792 2.209 . S
O817 Mn793 2.215 . S
O817 C794 1.283 . S
O818 Mn792 2.094 . S
O818 C796 1.240 . S
O819 Mn793 2.117 . S
O819 C796 1.264 . S
C820 C813 1.403 . S
C820 C821 1.399 . S
C820 H826 0.929 . S
C821 C801 1.449 . S
C821 C820 1.399 . S
C821 H827 0.930 . S
H822 C802 0.931 . S
H823 C803 0.930 . S
H824 C811 0.931 . S
H825 C812 0.929 . S
H826 C820 0.929 . S
H827 C821 0.930 . S
Mn828 O833 2.095 . S
Mn828 O843 2.162 . S
Mn828 O844 2.297 . S
Mn828 O852 2.385 . S
Mn828 O853 2.209 . S
Mn828 O854 2.094 . S
Mn829 O834 2.121 . S
Mn829 N836 2.257 . S
Mn829 N845 2.282 . S
Mn829 O853 2.215 . S
Mn829 O855 2.117 . S
C830 O852 1.234 . S
C830 O853 1.283 . S
C831 O843 1.281 . S
C831 O844 1.236 . S
C832 O854 1.240 . S
C832 O855 1.264 . S
O833 Mn828 2.095 . S
O833 C842 1.250 . S
O834 Mn829 2.121 . S
O834 C842 1.258 . S
C835 N836 1.326 . S
C835 C839 1.460 . S
C835 H841 0.929 . S
N836 Mn829 2.257 . S
N836 C835 1.326 . S
N836 C840 1.362 . S
C837 C838 1.258 . S
C837 C840 1.431 . S
C837 C857 1.449 . S
C838 C837 1.258 . S
C838 C839 1.477 . S
C838 H858 0.931 . S
C839 C835 1.460 . S
C839 C838 1.477 . S
C839 H859 0.930 . S
C840 N836 1.362 . S
C840 C837 1.431 . S
C840 C850 1.476 . S
H841 C835 0.929 . S
C842 O833 1.250 . S
C842 O834 1.258 . S
O843 Mn828 2.162 . S
O843 C831 1.281 . S
O844 Mn828 2.297 . S
O844 C831 1.236 . S
N845 Mn829 2.282 . S
N845 C846 1.328 . S
N845 C850 1.318 . S
C846 N845 1.328 . S
C846 C847 1.457 . S
C846 H851 0.929 . S
C847 C846 1.457 . S
C847 C848 1.291 . S
C847 H860 0.931 . S
C848 C847 1.291 . S
C848 C849 1.373 . S
C848 H861 0.929 . S
C849 C848 1.373 . S
C849 C850 1.396 . S
C849 C856 1.403 . S
C850 C840 1.476 . S
C850 N845 1.318 . S
C850 C849 1.396 . S
H851 C846 0.929 . S
O852 Mn828 2.385 . S
O852 C830 1.234 . S
O853 Mn828 2.209 . S
O853 Mn829 2.215 . S
O853 C830 1.283 . S
O854 Mn828 2.094 . S
O854 C832 1.240 . S
O855 Mn829 2.117 . S
O855 C832 1.264 . S
C856 C849 1.403 . S
C856 C857 1.399 . S
C856 H862 0.929 . S
C857 C837 1.449 . S
C857 C856 1.399 . S
C857 H863 0.930 . S
H858 C838 0.931 . S
H859 C839 0.930 . S
H860 C847 0.931 . S
H861 C848 0.929 . S
H862 C856 0.929 . S
H863 C857 0.930 . S
H864 C882 0.951 . S
H865 C884 0.951 . S
H866 C886 0.950 . S
H867 C887 0.950 . S
H868 C889 0.950 . S
H869 C892 0.950 . S
H870 C893 0.950 . S
H871 C895 0.926 . S
H872 C896 0.950 . S
H873 C897 0.951 . S
H874 C899 0.951 . S
H875 C901 0.950 . S
H876 C902 0.950 . S
H877 C904 0.950 . S
H878 C907 0.950 . S
H879 C908 0.950 . S
H880 C910 0.950 . S
H881 C911 0.950 . S
C882 H864 0.951 . S
C882 C883 1.366 . S
C882 C884 1.388 . S
C883 C882 1.366 . S
C883 C887 1.385 . S
C884 H865 0.951 . S
C884 C882 1.388 . S
C884 C885 1.366 . S
C885 C884 1.366 . S
C885 C886 1.414 . S
C885 C888 1.499 . S
C886 H866 0.950 . S
C886 C885 1.414 . S
C886 C887 1.374 . S
C887 H867 0.950 . S
C887 C883 1.385 . S
C887 C886 1.374 . S
C888 C885 1.499 . S
C888 C889 1.373 . S
C888 C890 1.389 . S
C889 H868 0.950 . S
C889 C888 1.373 . S
C889 C905 1.377 . S
C890 C888 1.389 . S
C890 C891 1.524 . S
C890 C904 1.377 . S
C891 C890 1.524 . S
C891 C892 1.397 . S
C891 C896 1.363 . S
C892 H869 0.950 . S
C892 C891 1.397 . S
C892 C893 1.334 1_545 S
C893 H870 0.950 . S
C893 C892 1.334 1_565 S
C893 C894 1.287 . S
C894 C893 1.287 . S
C894 C895 1.524 1_565 S
C894 H913 0.913 . S
C895 H871 0.926 . S
C895 C894 1.524 1_545 S
C895 C896 1.415 . S
C896 H872 0.950 . S
C896 C891 1.363 . S
C896 C895 1.415 . S
C897 H873 0.951 . S
C897 C898 1.366 . S
C897 C899 1.388 . S
C898 C897 1.366 . S
C898 C902 1.385 . S
C899 H874 0.951 . S
C899 C897 1.388 . S
C899 C900 1.366 . S
C900 C899 1.366 . S
C900 C901 1.414 . S
C900 C903 1.499 . S
C901 H875 0.950 . S
C901 C900 1.414 . S
C901 C902 1.374 . S
C902 H876 0.950 . S
C902 C898 1.385 . S
C902 C901 1.374 . S
C903 C900 1.499 . S
C903 C904 1.373 . S
C903 C905 1.389 . S
C904 H877 0.950 . S
C904 C890 1.377 . S
C904 C903 1.373 . S
C905 C889 1.377 . S
C905 C903 1.389 . S
C905 C906 1.524 . S
C906 C905 1.524 . S
C906 C907 1.397 . S
C906 C911 1.363 . S
C907 H878 0.950 . S
C907 C906 1.397 . S
C907 C908 1.334 . S
C908 H879 0.950 . S
C908 C907 1.334 . S
C908 C909 1.287 . S
C909 C908 1.287 . S
C909 C910 1.524 . S
C909 H912 0.999 . S
C910 H880 0.950 . S
C910 C909 1.524 . S
C910 C911 1.415 . S
C911 H881 0.950 . S
C911 C906 1.363 . S
C911 C910 1.415 . S
H912 C909 0.999 . S
H913 C894 0.913 . S
H914 C932 0.951 . S
H915 C934 0.951 . S
H916 C936 0.950 . S
H917 C937 0.950 . S
H918 C939 0.950 . S
H919 C942 0.950 . S
H920 C943 0.950 . S
H921 C945 0.950 . S
H922 C946 0.950 . S
H923 C947 0.951 . S
H924 C949 0.951 . S
H925 C951 0.950 . S
H926 C952 0.950 . S
H927 C954 0.950 . S
H928 C957 0.950 . S
H929 C958 0.950 . S
H930 C960 0.950 . S
H931 C961 0.950 . S
C932 H914 0.951 . S
C932 C933 1.366 . S
C932 C934 1.388 . S
C933 C932 1.366 . S
C933 C937 1.385 . S
C934 H915 0.951 . S
C934 C932 1.388 . S
C934 C935 1.366 . S
C935 C934 1.366 . S
C935 C936 1.414 . S
C935 C938 1.499 . S
C936 H916 0.950 . S
C936 C935 1.414 . S
C936 C937 1.374 . S
C937 H917 0.950 . S
C937 C933 1.385 . S
C937 C936 1.374 . S
C938 C935 1.499 . S
C938 C939 1.373 . S
C938 C940 1.389 . S
C939 H918 0.950 . S
C939 C938 1.373 . S
C939 C955 1.377 . S
C940 C938 1.389 . S
C940 C941 1.524 . S
C940 C954 1.377 . S
C941 C940 1.524 . S
C941 C942 1.397 . S
C941 C946 1.363 . S
C942 H919 0.950 . S
C942 C941 1.397 . S
C942 C943 1.334 . S
C943 H920 0.950 . S
C943 C942 1.334 . S
C943 C944 1.287 . S
C944 C943 1.287 . S
C944 C945 1.524 . S
C944 H963 0.913 . S
C945 H921 0.950 . S
C945 C944 1.524 . S
C945 C946 1.415 . S
C946 H922 0.950 . S
C946 C941 1.363 . S
C946 C945 1.415 . S
C947 H923 0.951 . S
C947 C948 1.366 . S
C947 C949 1.388 . S
C948 C947 1.366 . S
C948 C952 1.385 . S
C949 H924 0.951 . S
C949 C947 1.388 . S
C949 C950 1.366 . S
C950 C949 1.366 . S
C950 C951 1.414 . S
C950 C953 1.499 . S
C951 H925 0.950 . S
C951 C950 1.414 . S
C951 C952 1.374 . S
C952 H926 0.950 . S
C952 C948 1.385 . S
C952 C951 1.374 . S
C953 C950 1.499 . S
C953 C954 1.373 . S
C953 C955 1.389 . S
C954 H927 0.950 . S
C954 C940 1.377 . S
C954 C953 1.373 . S
C955 C939 1.377 . S
C955 C953 1.389 . S
C955 C956 1.524 . S
C956 C955 1.524 . S
C956 C957 1.397 . S
C956 C961 1.363 . S
C957 H928 0.950 . S
C957 C956 1.397 . S
C957 C958 1.334 . S
C958 H929 0.950 . S
C958 C957 1.334 . S
C958 C959 1.287 . S
C959 C958 1.287 . S
C959 C960 1.524 . S
C959 H962 0.999 . S
C960 H930 0.950 . S
C960 C959 1.524 . S
C960 C961 1.415 . S
C961 H931 0.950 . S
C961 C956 1.363 . S
C961 C960 1.415 . S
H962 C959 0.999 . S
H963 C944 0.913 . S
H964 C982 0.951 . S
H965 C984 0.951 . S
H966 C986 0.950 . S
H967 C987 0.950 . S
H968 C989 0.950 . S
H969 C992 0.950 . S
H970 C993 0.950 . S
H971 C995 0.950 . S
H972 C996 0.950 . S
H973 C997 0.951 . S
H974 C999 0.951 . S
H975 C1001 0.950 . S
H976 C1002 0.950 . S
H977 C1004 0.950 . S
H978 C1007 0.950 . S
H979 C1008 0.950 . S
H980 C1010 0.950 . S
H981 C1011 0.950 . S
C982 H964 0.951 . S
C982 C983 1.366 . S
C982 C984 1.388 . S
C983 C982 1.366 . S
C983 C987 1.385 . S
C984 H965 0.951 . S
C984 C982 1.388 . S
C984 C985 1.366 . S
C985 C984 1.366 . S
C985 C986 1.414 . S
C985 C988 1.499 . S
C986 H966 0.950 . S
C986 C985 1.414 . S
C986 C987 1.374 . S
C987 H967 0.950 . S
C987 C983 1.385 . S
C987 C986 1.374 . S
C988 C985 1.499 . S
C988 C989 1.373 . S
C988 C990 1.389 . S
C989 H968 0.950 . S
C989 C988 1.373 . S
C989 C1005 1.377 . S
C990 C988 1.389 . S
C990 C991 1.524 . S
C990 C1004 1.377 . S
C991 C990 1.524 . S
C991 C992 1.397 . S
C991 C996 1.363 1_655 S
C992 H969 0.950 . S
C992 C991 1.397 . S
C992 C993 1.334 . S
C993 H970 0.950 . S
C993 C992 1.334 . S
C993 C994 1.287 1_655 S
C994 C993 1.287 1_455 S
C994 C995 1.524 . S
C994 H1013 0.913 . S
C995 H971 0.950 . S
C995 C994 1.524 . S
C995 C996 1.415 . S
C996 H972 0.950 . S
C996 C991 1.363 1_455 S
C996 C995 1.415 . S
C997 H973 0.951 . S
C997 C998 1.366 . S
C997 C999 1.388 . S
C998 C997 1.366 . S
C998 C1002 1.385 . S
C999 H974 0.951 . S
C999 C997 1.388 . S
C999 C1000 1.366 . S
C1000 C999 1.366 . S
C1000 C1001 1.414 . S
C1000 C1003 1.499 . S
C1001 H975 0.950 . S
C1001 C1000 1.414 . S
C1001 C1002 1.374 . S
C1002 H976 0.950 . S
C1002 C998 1.385 . S
C1002 C1001 1.374 . S
C1003 C1000 1.499 . S
C1003 C1004 1.373 . S
C1003 C1005 1.389 . S
C1004 H977 0.950 . S
C1004 C990 1.377 . S
C1004 C1003 1.373 . S
C1005 C989 1.377 . S
C1005 C1003 1.389 . S
C1005 C1006 1.524 . S
C1006 C1005 1.524 . S
C1006 C1007 1.397 . S
C1006 C1011 1.363 . S
C1007 H978 0.950 . S
C1007 C1006 1.397 . S
C1007 C1008 1.334 . S
C1008 H979 0.950 . S
C1008 C1007 1.334 . S
C1008 C1009 1.287 . S
C1009 C1008 1.287 . S
C1009 C1010 1.524 . S
C1009 H1012 0.999 . S
C1010 H980 0.950 . S
C1010 C1009 1.524 . S
C1010 C1011 1.415 . S
C1011 H981 0.950 . S
C1011 C1006 1.363 . S
C1011 C1010 1.415 . S
H1012 C1009 0.999 . S
H1013 C994 0.913 . S
H1014 C1032 0.951 . S
H1015 C1034 0.951 . S
H1016 C1036 0.950 . S
H1017 C1037 0.950 . S
H1018 C1039 0.950 . S
H1019 C1042 0.950 . S
H1020 C1043 0.950 . S
H1021 C1045 0.950 . S
H1022 C1046 0.950 . S
H1023 C1047 0.951 . S
H1024 C1049 0.951 . S
H1025 C1051 0.950 . S
H1026 C1052 0.950 . S
H1027 C1054 0.950 . S
H1028 C1057 0.950 . S
H1029 C1058 0.950 . S
H1030 C1060 0.950 . S
H1031 C1061 0.950 . S
C1032 H1014 0.951 . S
C1032 C1033 1.366 . S
C1032 C1034 1.388 . S
C1033 C1032 1.366 . S
C1033 C1037 1.385 . S
C1034 H1015 0.951 . S
C1034 C1032 1.388 . S
C1034 C1035 1.366 . S
C1035 C1034 1.366 . S
C1035 C1036 1.414 . S
C1035 C1038 1.499 . S
C1036 H1016 0.950 . S
C1036 C1035 1.414 . S
C1036 C1037 1.374 . S
C1037 H1017 0.950 . S
C1037 C1033 1.385 . S
C1037 C1036 1.374 . S
C1038 C1035 1.499 . S
C1038 C1039 1.373 . S
C1038 C1040 1.389 . S
C1039 H1018 0.950 . S
C1039 C1038 1.373 . S
C1039 C1055 1.377 . S
C1040 C1038 1.389 . S
C1040 C1041 1.524 . S
C1040 C1054 1.377 . S
C1041 C1040 1.524 . S
C1041 C1042 1.397 . S
C1041 C1046 1.363 . S
C1042 H1019 0.950 . S
C1042 C1041 1.397 . S
C1042 C1043 1.334 . S
C1043 H1020 0.950 . S
C1043 C1042 1.334 . S
C1043 C1044 1.287 . S
C1044 C1043 1.287 . S
C1044 C1045 1.524 . S
C1044 H1063 0.913 . S
C1045 H1021 0.950 . S
C1045 C1044 1.524 . S
C1045 C1046 1.415 . S
C1046 H1022 0.950 . S
C1046 C1041 1.363 . S
C1046 C1045 1.415 . S
C1047 H1023 0.951 . S
C1047 C1048 1.366 . S
C1047 C1049 1.388 . S
C1048 C1047 1.366 . S
C1048 C1052 1.385 . S
C1049 H1024 0.951 . S
C1049 C1047 1.388 . S
C1049 C1050 1.366 . S
C1050 C1049 1.366 . S
C1050 C1051 1.414 . S
C1050 C1053 1.499 . S
C1051 H1025 0.950 . S
C1051 C1050 1.414 . S
C1051 C1052 1.374 . S
C1052 H1026 0.950 . S
C1052 C1048 1.385 . S
C1052 C1051 1.374 . S
C1053 C1050 1.499 . S
C1053 C1054 1.373 . S
C1053 C1055 1.389 . S
C1054 H1027 0.950 . S
C1054 C1040 1.377 . S
C1054 C1053 1.373 . S
C1055 C1039 1.377 . S
C1055 C1053 1.389 . S
C1055 C1056 1.524 . S
C1056 C1055 1.524 . S
C1056 C1057 1.397 . S
C1056 C1061 1.363 . S
C1057 H1028 0.950 . S
C1057 C1056 1.397 . S
C1057 C1058 1.334 . S
C1058 H1029 0.950 . S
C1058 C1057 1.334 . S
C1058 C1059 1.287 . S
C1059 C1058 1.287 . S
C1059 C1060 1.524 . S
C1059 H1062 0.999 . S
C1060 H1030 0.950 . S
C1060 C1059 1.524 . S
C1060 C1061 1.415 . S
C1061 H1031 0.950 . S
C1061 C1056 1.363 . S
C1061 C1060 1.415 . S
H1062 C1059 0.999 . S
H1063 C1044 0.913 . S
H1064 C1082 0.951 . S
H1065 C1084 0.951 . S
H1066 C1086 0.950 . S
H1067 C1087 0.950 . S
H1068 C1089 0.950 . S
H1069 C1092 0.950 . S
H1070 C1093 0.950 . S
H1071 C1095 0.950 . S
H1072 C1096 0.950 . S
H1073 C1097 0.951 . S
H1074 C1099 0.951 . S
H1075 C1101 0.950 . S
H1076 C1102 0.950 . S
H1077 C1104 0.950 . S
H1078 C1107 0.950 . S
H1079 C1108 0.950 . S
H1080 C1110 0.950 . S
H1081 C1111 0.950 . S
C1082 H1064 0.951 . S
C1082 C1083 1.366 . S
C1082 C1084 1.388 . S
C1083 C1082 1.366 . S
C1083 C1087 1.385 . S
C1084 H1065 0.951 . S
C1084 C1082 1.388 . S
C1084 C1085 1.366 . S
C1085 C1084 1.366 . S
C1085 C1086 1.414 . S
C1085 C1088 1.499 . S
C1086 H1066 0.950 . S
C1086 C1085 1.414 . S
C1086 C1087 1.374 . S
C1087 H1067 0.950 . S
C1087 C1083 1.385 . S
C1087 C1086 1.374 . S
C1088 C1085 1.499 . S
C1088 C1089 1.373 . S
C1088 C1090 1.389 . S
C1089 H1068 0.950 . S
C1089 C1088 1.373 . S
C1089 C1105 1.377 . S
C1090 C1088 1.389 . S
C1090 C1091 1.524 . S
C1090 C1104 1.377 . S
C1091 C1090 1.524 . S
C1091 C1092 1.397 . S
C1091 C1096 1.363 . S
C1092 H1069 0.950 . S
C1092 C1091 1.397 . S
C1092 C1093 1.334 . S
C1093 H1070 0.950 . S
C1093 C1092 1.334 . S
C1093 C1094 1.287 . S
C1094 C1093 1.287 . S
C1094 C1095 1.524 . S
C1094 H1113 0.913 . S
C1095 H1071 0.950 . S
C1095 C1094 1.524 . S
C1095 C1096 1.415 . S
C1096 H1072 0.950 . S
C1096 C1091 1.363 . S
C1096 C1095 1.415 . S
C1097 H1073 0.951 . S
C1097 C1098 1.366 . S
C1097 C1099 1.388 . S
C1098 C1097 1.366 . S
C1098 C1102 1.385 . S
C1099 H1074 0.951 . S
C1099 C1097 1.388 . S
C1099 C1100 1.366 . S
C1100 C1099 1.366 . S
C1100 C1101 1.414 . S
C1100 C1103 1.499 . S
C1101 H1075 0.950 . S
C1101 C1100 1.414 . S
C1101 C1102 1.374 . S
C1102 H1076 0.950 . S
C1102 C1098 1.385 . S
C1102 C1101 1.374 . S
C1103 C1100 1.499 . S
C1103 C1104 1.373 . S
C1103 C1105 1.389 . S
C1104 H1077 0.950 . S
C1104 C1090 1.377 . S
C1104 C1103 1.373 . S
C1105 C1089 1.377 . S
C1105 C1103 1.389 . S
C1105 C1106 1.524 . S
C1106 C1105 1.524 . S
C1106 C1107 1.397 . S
C1106 C1111 1.363 . S
C1107 H1078 0.950 . S
C1107 C1106 1.397 . S
C1107 C1108 1.334 . S
C1108 H1079 0.950 . S
C1108 C1107 1.334 . S
C1108 C1109 1.287 . S
C1109 C1108 1.287 . S
C1109 C1110 1.524 . S
C1109 H1112 0.999 . S
C1110 H1080 0.950 . S
C1110 C1109 1.524 . S
C1110 C1111 1.415 . S
C1111 H1081 0.950 . S
C1111 C1106 1.363 . S
C1111 C1110 1.415 . S
H1112 C1109 0.999 . S
H1113 C1094 0.913 . S
H1114 C1132 0.951 . S
H1115 C1134 0.951 . S
H1116 C1136 0.950 . S
H1117 C1137 0.950 . S
H1118 C1139 0.950 . S
H1119 C1142 0.950 . S
H1120 C1143 0.950 . S
H1121 C1145 0.950 . S
H1122 C1146 0.950 . S
H1123 C1147 0.951 . S
H1124 C1149 0.951 . S
H1125 C1151 0.950 . S
H1126 C1152 0.950 . S
H1127 C1154 0.950 . S
H1128 C1157 0.950 . S
H1129 C1158 0.951 1_455 S
H1130 C1160 0.950 . S
H1131 C1161 0.950 . S
C1132 H1114 0.951 . S
C1132 C1133 1.366 . S
C1132 C1134 1.388 . S
C1133 C1132 1.366 . S
C1133 C1137 1.385 . S
C1134 H1115 0.951 . S
C1134 C1132 1.388 . S
C1134 C1135 1.366 . S
C1135 C1134 1.366 . S
C1135 C1136 1.414 . S
C1135 C1138 1.499 . S
C1136 H1116 0.950 . S
C1136 C1135 1.414 . S
C1136 C1137 1.374 . S
C1137 H1117 0.950 . S
C1137 C1133 1.385 . S
C1137 C1136 1.374 . S
C1138 C1135 1.499 . S
C1138 C1139 1.373 . S
C1138 C1140 1.389 . S
C1139 H1118 0.950 . S
C1139 C1138 1.373 . S
C1139 C1155 1.377 . S
C1140 C1138 1.389 . S
C1140 C1141 1.524 . S
C1140 C1154 1.377 . S
C1141 C1140 1.524 . S
C1141 C1142 1.397 . S
C1141 C1146 1.363 . S
C1142 H1119 0.950 . S
C1142 C1141 1.397 . S
C1142 C1143 1.334 . S
C1143 H1120 0.950 . S
C1143 C1142 1.334 . S
C1143 C1144 1.287 . S
C1144 C1143 1.287 . S
C1144 C1145 1.524 . S
C1144 H1163 0.913 . S
C1145 H1121 0.950 . S
C1145 C1144 1.524 . S
C1145 C1146 1.415 . S
C1146 H1122 0.950 . S
C1146 C1141 1.363 . S
C1146 C1145 1.415 . S
C1147 H1123 0.951 . S
C1147 C1148 1.366 . S
C1147 C1149 1.388 . S
C1148 C1147 1.366 . S
C1148 C1152 1.385 . S
C1149 H1124 0.951 . S
C1149 C1147 1.388 . S
C1149 C1150 1.366 . S
C1150 C1149 1.366 . S
C1150 C1151 1.414 . S
C1150 C1153 1.499 . S
C1151 H1125 0.950 . S
C1151 C1150 1.414 . S
C1151 C1152 1.374 . S
C1152 H1126 0.950 . S
C1152 C1148 1.385 . S
C1152 C1151 1.374 . S
C1153 C1150 1.499 . S
C1153 C1154 1.373 . S
C1153 C1155 1.389 . S
C1154 H1127 0.950 . S
C1154 C1140 1.377 . S
C1154 C1153 1.373 . S
C1155 C1139 1.377 . S
C1155 C1153 1.389 . S
C1155 C1156 1.524 . S
C1156 C1155 1.524 . S
C1156 C1157 1.397 . S
C1156 C1161 1.363 1_455 S
C1157 H1128 0.950 . S
C1157 C1156 1.397 . S
C1157 C1158 1.334 1_455 S
C1158 H1129 0.951 1_655 S
C1158 C1157 1.334 1_655 S
C1158 C1159 1.287 . S
C1159 C1158 1.287 . S
C1159 C1160 1.524 . S
C1159 H1162 0.999 . S
C1160 H1130 0.950 . S
C1160 C1159 1.524 . S
C1160 C1161 1.415 . S
C1161 H1131 0.950 . S
C1161 C1156 1.363 1_655 S
C1161 C1160 1.415 . S
H1162 C1159 0.999 . S
H1163 C1144 0.913 . S
H1164 C1182 0.951 . S
H1165 C1184 0.951 . S
H1166 C1186 0.950 . S
H1167 C1187 0.950 . S
H1168 C1189 0.950 . S
H1169 C1192 0.950 . S
H1170 C1193 0.950 . S
H1171 C1195 0.950 . S
H1172 C1196 0.950 . S
H1173 C1197 0.951 . S
H1174 C1199 0.951 . S
H1175 C1201 0.950 . S
H1176 C1202 0.950 . S
H1177 C1204 0.950 . S
H1178 C1207 0.950 . S
H1179 C1208 0.950 . S
H1180 C1210 0.950 . S
H1181 C1211 0.950 . S
C1182 H1164 0.951 . S
C1182 C1183 1.366 . S
C1182 C1184 1.388 . S
C1183 C1182 1.366 . S
C1183 C1187 1.385 . S
C1184 H1165 0.951 . S
C1184 C1182 1.388 . S
C1184 C1185 1.366 . S
C1185 C1184 1.366 . S
C1185 C1186 1.414 . S
C1185 C1188 1.499 . S
C1186 H1166 0.950 . S
C1186 C1185 1.414 . S
C1186 C1187 1.374 . S
C1187 H1167 0.950 . S
C1187 C1183 1.385 . S
C1187 C1186 1.374 . S
C1188 C1185 1.499 . S
C1188 C1189 1.373 . S
C1188 C1190 1.389 . S
C1189 H1168 0.950 . S
C1189 C1188 1.373 . S
C1189 C1205 1.377 . S
C1190 C1188 1.389 . S
C1190 C1191 1.524 . S
C1190 C1204 1.377 . S
C1191 C1190 1.524 . S
C1191 C1192 1.397 . S
C1191 C1196 1.363 . S
C1192 H1169 0.950 . S
C1192 C1191 1.397 . S
C1192 C1193 1.334 . S
C1193 H1170 0.950 . S
C1193 C1192 1.334 . S
C1193 C1194 1.287 . S
C1194 C1193 1.287 . S
C1194 C1195 1.524 . S
C1194 H1213 0.913 . S
C1195 H1171 0.950 . S
C1195 C1194 1.524 . S
C1195 C1196 1.415 . S
C1196 H1172 0.950 . S
C1196 C1191 1.363 . S
C1196 C1195 1.415 . S
C1197 H1173 0.951 . S
C1197 C1198 1.366 . S
C1197 C1199 1.388 . S
C1198 C1197 1.366 . S
C1198 C1202 1.385 . S
C1199 H1174 0.951 . S
C1199 C1197 1.388 . S
C1199 C1200 1.366 . S
C1200 C1199 1.366 . S
C1200 C1201 1.414 . S
C1200 C1203 1.499 . S
C1201 H1175 0.950 . S
C1201 C1200 1.414 . S
C1201 C1202 1.374 . S
C1202 H1176 0.950 . S
C1202 C1198 1.385 . S
C1202 C1201 1.374 . S
C1203 C1200 1.499 . S
C1203 C1204 1.373 . S
C1203 C1205 1.389 . S
C1204 H1177 0.950 . S
C1204 C1190 1.377 . S
C1204 C1203 1.373 . S
C1205 C1189 1.377 . S
C1205 C1203 1.389 . S
C1205 C1206 1.524 . S
C1206 C1205 1.524 . S
C1206 C1207 1.397 . S
C1206 C1211 1.363 1_655 S
C1207 H1178 0.950 . S
C1207 C1206 1.397 . S
C1207 C1208 1.334 1_655 S
C1208 H1179 0.950 . S
C1208 C1207 1.334 1_455 S
C1208 C1209 1.287 . S
C1209 C1208 1.287 . S
C1209 C1210 1.524 . S
C1209 H1212 0.999 . S
C1210 H1180 0.950 . S
C1210 C1209 1.524 . S
C1210 C1211 1.415 . S
C1211 H1181 0.950 . S
C1211 C1206 1.363 1_455 S
C1211 C1210 1.415 . S
H1212 C1209 0.999 . S
H1213 C1194 0.913 . S
H1214 C1232 0.951 . S
H1215 C1234 0.951 . S
H1216 C1236 0.950 . S
H1217 C1237 0.950 . S
H1218 C1239 0.950 . S
H1219 C1242 0.950 . S
H1220 C1243 0.950 . S
H1221 C1245 0.950 . S
H1222 C1246 0.950 . S
H1223 C1247 0.951 . S
H1224 C1249 0.951 . S
H1225 C1251 0.950 . S
H1226 C1252 0.950 . S
H1227 C1254 0.950 . S
H1228 C1257 0.950 . S
H1229 C1258 0.950 . S
H1230 C1260 0.950 . S
H1231 C1261 0.950 . S
C1232 H1214 0.951 . S
C1232 C1233 1.366 . S
C1232 C1234 1.388 . S
C1233 C1232 1.366 . S
C1233 C1237 1.385 . S
C1234 H1215 0.951 . S
C1234 C1232 1.388 . S
C1234 C1235 1.366 . S
C1235 C1234 1.366 . S
C1235 C1236 1.414 . S
C1235 C1238 1.499 . S
C1236 H1216 0.950 . S
C1236 C1235 1.414 . S
C1236 C1237 1.374 . S
C1237 H1217 0.950 . S
C1237 C1233 1.385 . S
C1237 C1236 1.374 . S
C1238 C1235 1.499 . S
C1238 C1239 1.373 . S
C1238 C1240 1.389 . S
C1239 H1218 0.950 . S
C1239 C1238 1.373 . S
C1239 C1255 1.377 . S
C1240 C1238 1.389 . S
C1240 C1241 1.524 . S
C1240 C1254 1.377 . S
C1241 C1240 1.524 . S
C1241 C1242 1.397 . S
C1241 C1246 1.363 1_565 S
C1242 H1219 0.950 . S
C1242 C1241 1.397 . S
C1242 C1243 1.334 1_565 S
C1243 H1220 0.950 . S
C1243 C1242 1.334 1_545 S
C1243 C1244 1.287 . S
C1244 C1243 1.287 . S
C1244 C1245 1.524 . S
C1244 H1263 0.913 . S
C1245 H1221 0.950 . S
C1245 C1244 1.524 . S
C1245 C1246 1.415 . S
C1246 H1222 0.950 . S
C1246 C1241 1.363 1_545 S
C1246 C1245 1.415 . S
C1247 H1223 0.951 . S
C1247 C1248 1.366 . S
C1247 C1249 1.388 . S
C1248 C1247 1.366 . S
C1248 C1252 1.385 . S
C1249 H1224 0.951 . S
C1249 C1247 1.388 . S
C1249 C1250 1.366 . S
C1250 C1249 1.366 . S
C1250 C1251 1.414 . S
C1250 C1253 1.499 . S
C1251 H1225 0.950 . S
C1251 C1250 1.414 . S
C1251 C1252 1.374 . S
C1252 H1226 0.950 . S
C1252 C1248 1.385 . S
C1252 C1251 1.374 . S
C1253 C1250 1.499 . S
C1253 C1254 1.373 . S
C1253 C1255 1.389 . S
C1254 H1227 0.950 . S
C1254 C1240 1.377 . S
C1254 C1253 1.373 . S
C1255 C1239 1.377 . S
C1255 C1253 1.389 . S
C1255 C1256 1.524 . S
C1256 C1255 1.524 . S
C1256 C1257 1.397 . S
C1256 C1261 1.363 . S
C1257 H1228 0.950 . S
C1257 C1256 1.397 . S
C1257 C1258 1.334 . S
C1258 H1229 0.950 . S
C1258 C1257 1.334 . S
C1258 C1259 1.287 . S
C1259 C1258 1.287 . S
C1259 C1260 1.524 . S
C1259 H1262 0.999 . S
C1260 H1230 0.950 . S
C1260 C1259 1.524 . S
C1260 C1261 1.415 . S
C1261 H1231 0.950 . S
C1261 C1256 1.363 . S
C1261 C1260 1.415 . S
H1262 C1259 0.999 . S
H1263 C1244 0.913 . S
H1264 C1282 0.951 . S
H1265 C1284 0.951 . S
H1266 C1286 0.950 . S
H1267 C1287 0.950 . S
H1268 C1289 0.950 . S
H1269 C1292 0.950 . S
H1270 C1293 0.950 . S
H1271 C1295 0.950 . S
H1272 C1296 0.950 . S
H1273 C1297 0.951 . S
H1274 C1299 0.951 . S
H1275 C1301 0.950 . S
H1276 C1302 0.950 . S
H1277 C1304 0.950 . S
H1278 C1307 0.950 . S
H1279 C1308 0.950 . S
H1280 C1310 0.950 . S
H1281 C1311 0.950 . S
C1282 H1264 0.951 . S
C1282 C1283 1.366 . S
C1282 C1284 1.388 . S
C1283 C1282 1.366 . S
C1283 C1287 1.385 . S
C1284 H1265 0.951 . S
C1284 C1282 1.388 . S
C1284 C1285 1.366 . S
C1285 C1284 1.366 . S
C1285 C1286 1.414 . S
C1285 C1288 1.499 . S
C1286 H1266 0.950 . S
C1286 C1285 1.414 . S
C1286 C1287 1.374 . S
C1287 H1267 0.950 . S
C1287 C1283 1.385 . S
C1287 C1286 1.374 . S
C1288 C1285 1.499 . S
C1288 C1289 1.373 . S
C1288 C1290 1.389 . S
C1289 H1268 0.950 . S
C1289 C1288 1.373 . S
C1289 C1305 1.377 . S
C1290 C1288 1.389 . S
C1290 C1291 1.524 . S
C1290 C1304 1.377 . S
C1291 C1290 1.524 . S
C1291 C1292 1.397 . S
C1291 C1296 1.363 . S
C1292 H1269 0.950 . S
C1292 C1291 1.397 . S
C1292 C1293 1.334 . S
C1293 H1270 0.950 . S
C1293 C1292 1.334 . S
C1293 C1294 1.287 . S
C1294 C1293 1.287 . S
C1294 C1295 1.524 . S
C1294 H1313 0.913 . S
C1295 H1271 0.950 . S
C1295 C1294 1.524 . S
C1295 C1296 1.415 . S
C1296 H1272 0.950 . S
C1296 C1291 1.363 . S
C1296 C1295 1.415 . S
C1297 H1273 0.951 . S
C1297 C1298 1.366 . S
C1297 C1299 1.388 . S
C1298 C1297 1.366 . S
C1298 C1302 1.385 . S
C1299 H1274 0.951 . S
C1299 C1297 1.388 . S
C1299 C1300 1.366 . S
C1300 C1299 1.366 . S
C1300 C1301 1.414 . S
C1300 C1303 1.499 . S
C1301 H1275 0.950 . S
C1301 C1300 1.414 . S
C1301 C1302 1.374 . S
C1302 H1276 0.950 . S
C1302 C1298 1.385 . S
C1302 C1301 1.374 . S
C1303 C1300 1.499 . S
C1303 C1304 1.373 . S
C1303 C1305 1.389 . S
C1304 H1277 0.950 . S
C1304 C1290 1.377 . S
C1304 C1303 1.373 . S
C1305 C1289 1.377 . S
C1305 C1303 1.389 . S
C1305 C1306 1.524 . S
C1306 C1305 1.524 . S
C1306 C1307 1.397 . S
C1306 C1311 1.363 . S
C1307 H1278 0.950 . S
C1307 C1306 1.397 . S
C1307 C1308 1.334 . S
C1308 H1279 0.950 . S
C1308 C1307 1.334 . S
C1308 C1309 1.287 . S
C1309 C1308 1.287 . S
C1309 C1310 1.524 . S
C1309 H1312 0.999 . S
C1310 H1280 0.950 . S
C1310 C1309 1.524 . S
C1310 C1311 1.415 . S
C1311 H1281 0.950 . S
C1311 C1306 1.363 . S
C1311 C1310 1.415 . S
H1312 C1309 0.999 . S
H1313 C1294 0.913 . S
H1314 C1332 0.951 . S
H1315 C1334 0.951 . S
H1316 C1336 0.950 . S
H1317 C1337 0.950 . S
H1318 C1339 0.950 . S
H1319 C1342 0.950 . S
H1320 C1343 0.950 . S
H1321 C1345 0.950 . S
H1322 C1346 0.950 . S
H1323 C1347 0.951 . S
H1324 C1349 0.951 . S
H1325 C1351 0.950 . S
H1326 C1352 0.950 . S
H1327 C1354 0.950 . S
H1328 C1357 0.950 . S
H1329 C1358 0.950 . S
H1330 C1360 0.950 . S
H1331 C1361 0.950 1_455 S
C1332 H1314 0.951 . S
C1332 C1333 1.366 . S
C1332 C1334 1.388 . S
C1333 C1332 1.366 . S
C1333 C1337 1.385 . S
C1334 H1315 0.951 . S
C1334 C1332 1.388 . S
C1334 C1335 1.366 . S
C1335 C1334 1.366 . S
C1335 C1336 1.414 . S
C1335 C1338 1.499 . S
C1336 H1316 0.950 . S
C1336 C1335 1.414 . S
C1336 C1337 1.374 . S
C1337 H1317 0.950 . S
C1337 C1333 1.385 . S
C1337 C1336 1.374 . S
C1338 C1335 1.499 . S
C1338 C1339 1.373 . S
C1338 C1340 1.389 . S
C1339 H1318 0.950 . S
C1339 C1338 1.373 . S
C1339 C1355 1.377 . S
C1340 C1338 1.389 . S
C1340 C1341 1.524 . S
C1340 C1354 1.377 . S
C1341 C1340 1.524 . S
C1341 C1342 1.397 . S
C1341 C1346 1.363 . S
C1342 H1319 0.950 . S
C1342 C1341 1.397 . S
C1342 C1343 1.334 . S
C1343 H1320 0.950 . S
C1343 C1342 1.334 . S
C1343 C1344 1.287 . S
C1344 C1343 1.287 . S
C1344 C1345 1.524 . S
C1344 H1363 0.913 . S
C1345 H1321 0.950 . S
C1345 C1344 1.524 . S
C1345 C1346 1.415 . S
C1346 H1322 0.950 . S
C1346 C1341 1.363 . S
C1346 C1345 1.415 . S
C1347 H1323 0.951 . S
C1347 C1348 1.366 . S
C1347 C1349 1.388 . S
C1348 C1347 1.366 . S
C1348 C1352 1.385 . S
C1349 H1324 0.951 . S
C1349 C1347 1.388 . S
C1349 C1350 1.366 . S
C1350 C1349 1.366 . S
C1350 C1351 1.414 . S
C1350 C1353 1.499 . S
C1351 H1325 0.950 . S
C1351 C1350 1.414 . S
C1351 C1352 1.374 . S
C1352 H1326 0.950 . S
C1352 C1348 1.385 . S
C1352 C1351 1.374 . S
C1353 C1350 1.499 . S
C1353 C1354 1.373 . S
C1353 C1355 1.389 . S
C1354 H1327 0.950 . S
C1354 C1340 1.377 . S
C1354 C1353 1.373 . S
C1355 C1339 1.377 . S
C1355 C1353 1.389 . S
C1355 C1356 1.524 . S
C1356 C1355 1.524 . S
C1356 C1357 1.397 . S
C1356 C1361 1.363 1_455 S
C1357 H1328 0.950 . S
C1357 C1356 1.397 . S
C1357 C1358 1.334 1_455 S
C1358 H1329 0.950 . S
C1358 C1357 1.334 1_655 S
C1358 C1359 1.287 . S
C1359 C1358 1.287 . S
C1359 C1360 1.524 . S
C1359 H1362 0.999 . S
C1360 H1330 0.950 . S
C1360 C1359 1.524 . S
C1360 C1361 1.415 . S
C1361 H1331 0.950 1_655 S
C1361 C1356 1.363 1_655 S
C1361 C1360 1.415 . S
H1362 C1359 0.999 . S
H1363 C1344 0.913 . S
H1364 C1382 0.951 . S
H1365 C1384 0.951 . S
H1366 C1386 0.950 . S
H1367 C1387 0.950 . S
H1368 C1389 0.950 . S
H1369 C1392 0.950 . S
H1370 C1393 0.950 . S
H1371 C1395 0.950 . S
H1372 C1396 0.950 . S
H1373 C1397 0.951 . S
H1374 C1399 0.951 . S
H1375 C1401 0.950 . S
H1376 C1402 0.950 . S
H1377 C1404 0.950 . S
H1378 C1407 0.950 . S
H1379 C1408 0.950 . S
H1380 C1410 0.950 . S
H1381 C1411 0.950 1_565 S
C1382 H1364 0.951 . S
C1382 C1383 1.366 . S
C1382 C1384 1.388 . S
C1383 C1382 1.366 . S
C1383 C1387 1.385 . S
C1384 H1365 0.951 . S
C1384 C1382 1.388 . S
C1384 C1385 1.366 . S
C1385 C1384 1.366 . S
C1385 C1386 1.414 . S
C1385 C1388 1.499 . S
C1386 H1366 0.950 . S
C1386 C1385 1.414 . S
C1386 C1387 1.374 . S
C1387 H1367 0.950 . S
C1387 C1383 1.385 . S
C1387 C1386 1.374 . S
C1388 C1385 1.499 . S
C1388 C1389 1.373 . S
C1388 C1390 1.389 . S
C1389 H1368 0.950 . S
C1389 C1388 1.373 . S
C1389 C1405 1.377 . S
C1390 C1388 1.389 . S
C1390 C1391 1.524 . S
C1390 C1404 1.377 . S
C1391 C1390 1.524 . S
C1391 C1392 1.397 . S
C1391 C1396 1.363 . S
C1392 H1369 0.950 . S
C1392 C1391 1.397 . S
C1392 C1393 1.334 . S
C1393 H1370 0.950 . S
C1393 C1392 1.334 . S
C1393 C1394 1.287 . S
C1394 C1393 1.287 . S
C1394 C1395 1.524 . S
C1394 H1413 0.913 . S
C1395 H1371 0.950 . S
C1395 C1394 1.524 . S
C1395 C1396 1.415 . S
C1396 H1372 0.950 . S
C1396 C1391 1.363 . S
C1396 C1395 1.415 . S
C1397 H1373 0.951 . S
C1397 C1398 1.366 . S
C1397 C1399 1.388 . S
C1398 C1397 1.366 . S
C1398 C1402 1.385 . S
C1399 H1374 0.951 . S
C1399 C1397 1.388 . S
C1399 C1400 1.366 . S
C1400 C1399 1.366 . S
C1400 C1401 1.414 . S
C1400 C1403 1.499 . S
C1401 H1375 0.950 . S
C1401 C1400 1.414 . S
C1401 C1402 1.374 . S
C1402 H1376 0.950 . S
C1402 C1398 1.385 . S
C1402 C1401 1.374 . S
C1403 C1400 1.499 . S
C1403 C1404 1.373 . S
C1403 C1405 1.389 . S
C1404 H1377 0.950 . S
C1404 C1390 1.377 . S
C1404 C1403 1.373 . S
C1405 C1389 1.377 . S
C1405 C1403 1.389 . S
C1405 C1406 1.524 . S
C1406 C1405 1.524 . S
C1406 C1407 1.397 . S
C1406 C1411 1.363 . S
C1407 H1378 0.950 . S
C1407 C1406 1.397 . S
C1407 C1408 1.334 . S
C1408 H1379 0.950 . S
C1408 C1407 1.334 . S
C1408 C1409 1.287 . S
C1409 C1408 1.287 . S
C1409 C1410 1.524 1_545 S
C1409 H1412 0.999 . S
C1410 H1380 0.950 . S
C1410 C1409 1.524 1_565 S
C1410 C1411 1.415 1_565 S
C1411 H1381 0.950 1_545 S
C1411 C1406 1.363 . S
C1411 C1410 1.415 1_545 S
H1412 C1409 0.999 . S
H1413 C1394 0.913 . S
H1414 C1432 0.951 . S
H1415 C1434 0.951 . S
H1416 C1436 0.950 . S
H1417 C1437 0.950 . S
H1418 C1439 0.950 . S
H1419 C1442 0.950 . S
H1420 C1443 0.950 . S
H1421 C1445 0.950 . S
H1422 C1446 0.950 . S
H1423 C1447 0.951 . S
H1424 C1449 0.951 . S
H1425 C1451 0.950 . S
H1426 C1452 0.950 . S
H1427 C1454 0.950 . S
H1428 C1457 0.950 . S
H1429 C1458 0.950 . S
H1430 C1460 0.950 . S
H1431 C1461 0.950 . S
C1432 H1414 0.951 . S
C1432 C1433 1.366 . S
C1432 C1434 1.388 . S
C1433 C1432 1.366 . S
C1433 C1437 1.385 . S
C1434 H1415 0.951 . S
C1434 C1432 1.388 . S
C1434 C1435 1.366 . S
C1435 C1434 1.366 . S
C1435 C1436 1.414 . S
C1435 C1438 1.499 . S
C1436 H1416 0.950 . S
C1436 C1435 1.414 . S
C1436 C1437 1.374 . S
C1437 H1417 0.950 . S
C1437 C1433 1.385 . S
C1437 C1436 1.374 . S
C1438 C1435 1.499 . S
C1438 C1439 1.373 . S
C1438 C1440 1.389 . S
C1439 H1418 0.950 . S
C1439 C1438 1.373 . S
C1439 C1455 1.377 . S
C1440 C1438 1.389 . S
C1440 C1441 1.524 . S
C1440 C1454 1.377 . S
C1441 C1440 1.524 . S
C1441 C1442 1.397 . S
C1441 C1446 1.363 . S
C1442 H1419 0.950 . S
C1442 C1441 1.397 . S
C1442 C1443 1.334 . S
C1443 H1420 0.950 . S
C1443 C1442 1.334 . S
C1443 C1444 1.287 . S
C1444 C1443 1.287 . S
C1444 C1445 1.524 . S
C1444 H1463 0.913 . S
C1445 H1421 0.950 . S
C1445 C1444 1.524 . S
C1445 C1446 1.415 . S
C1446 H1422 0.950 . S
C1446 C1441 1.363 . S
C1446 C1445 1.415 . S
C1447 H1423 0.951 . S
C1447 C1448 1.366 . S
C1447 C1449 1.388 . S
C1448 C1447 1.366 . S
C1448 C1452 1.385 . S
C1449 H1424 0.951 . S
C1449 C1447 1.388 . S
C1449 C1450 1.366 . S
C1450 C1449 1.366 . S
C1450 C1451 1.414 . S
C1450 C1453 1.499 . S
C1451 H1425 0.950 . S
C1451 C1450 1.414 . S
C1451 C1452 1.374 . S
C1452 H1426 0.950 . S
C1452 C1448 1.385 . S
C1452 C1451 1.374 . S
C1453 C1450 1.499 . S
C1453 C1454 1.373 . S
C1453 C1455 1.389 . S
C1454 H1427 0.950 . S
C1454 C1440 1.377 . S
C1454 C1453 1.373 . S
C1455 C1439 1.377 . S
C1455 C1453 1.389 . S
C1455 C1456 1.524 . S
C1456 C1455 1.524 . S
C1456 C1457 1.397 . S
C1456 C1461 1.363 . S
C1457 H1428 0.950 . S
C1457 C1456 1.397 . S
C1457 C1458 1.334 . S
C1458 H1429 0.950 . S
C1458 C1457 1.334 . S
C1458 C1459 1.287 . S
C1459 C1458 1.287 . S
C1459 C1460 1.524 . S
C1459 H1462 0.999 . S
C1460 H1430 0.950 . S
C1460 C1459 1.524 . S
C1460 C1461 1.415 . S
C1461 H1431 0.950 . S
C1461 C1456 1.363 . S
C1461 C1460 1.415 . S
H1462 C1459 0.999 . S
H1463 C1444 0.913 . S
H1464 C1482 0.951 . S
H1465 C1484 0.951 . S
H1466 C1486 0.950 . S
H1467 C1487 0.950 . S
H1468 C1489 0.950 . S
H1469 C1492 0.950 . S
H1470 C1493 0.950 . S
H1471 C1495 0.950 . S
H1472 C1496 0.950 . S
H1473 C1497 0.951 . S
H1474 C1499 0.951 . S
H1475 C1501 0.950 . S
H1476 C1502 0.950 . S
H1477 C1504 0.950 . S
H1478 C1507 0.950 . S
H1479 C1508 0.950 . S
H1480 C1510 0.950 . S
H1481 C1511 0.950 . S
C1482 H1464 0.951 . S
C1482 C1483 1.366 . S
C1482 C1484 1.388 . S
C1483 C1482 1.366 . S
C1483 C1487 1.385 . S
C1484 H1465 0.951 . S
C1484 C1482 1.388 . S
C1484 C1485 1.366 . S
C1485 C1484 1.366 . S
C1485 C1486 1.414 . S
C1485 C1488 1.499 . S
C1486 H1466 0.950 . S
C1486 C1485 1.414 . S
C1486 C1487 1.374 . S
C1487 H1467 0.950 . S
C1487 C1483 1.385 . S
C1487 C1486 1.374 . S
C1488 C1485 1.499 . S
C1488 C1489 1.373 . S
C1488 C1490 1.389 . S
C1489 H1468 0.950 . S
C1489 C1488 1.373 . S
C1489 C1505 1.377 . S
C1490 C1488 1.389 . S
C1490 C1491 1.524 . S
C1490 C1504 1.377 . S
C1491 C1490 1.524 . S
C1491 C1492 1.397 . S
C1491 C1496 1.363 . S
C1492 H1469 0.950 . S
C1492 C1491 1.397 . S
C1492 C1493 1.334 . S
C1493 H1470 0.950 . S
C1493 C1492 1.334 . S
C1493 C1494 1.287 . S
C1494 C1493 1.287 . S
C1494 C1495 1.524 . S
C1494 H1513 0.913 . S
C1495 H1471 0.950 . S
C1495 C1494 1.524 . S
C1495 C1496 1.415 . S
C1496 H1472 0.950 . S
C1496 C1491 1.363 . S
C1496 C1495 1.415 . S
C1497 H1473 0.951 . S
C1497 C1498 1.366 . S
C1497 C1499 1.388 . S
C1498 C1497 1.366 . S
C1498 C1502 1.385 . S
C1499 H1474 0.951 . S
C1499 C1497 1.388 . S
C1499 C1500 1.366 . S
C1500 C1499 1.366 . S
C1500 C1501 1.414 . S
C1500 C1503 1.499 . S
C1501 H1475 0.950 . S
C1501 C1500 1.414 . S
C1501 C1502 1.374 . S
C1502 H1476 0.950 . S
C1502 C1498 1.385 . S
C1502 C1501 1.374 . S
C1503 C1500 1.499 . S
C1503 C1504 1.373 . S
C1503 C1505 1.389 . S
C1504 H1477 0.950 . S
C1504 C1490 1.377 . S
C1504 C1503 1.373 . S
C1505 C1489 1.377 . S
C1505 C1503 1.389 . S
C1505 C1506 1.524 . S
C1506 C1505 1.524 . S
C1506 C1507 1.397 . S
C1506 C1511 1.363 . S
C1507 H1478 0.950 . S
C1507 C1506 1.397 . S
C1507 C1508 1.334 . S
C1508 H1479 0.950 . S
C1508 C1507 1.334 . S
C1508 C1509 1.287 . S
C1509 C1508 1.287 . S
C1509 C1510 1.524 . S
C1509 H1512 0.999 . S
C1510 H1480 0.950 . S
C1510 C1509 1.524 . S
C1510 C1511 1.415 . S
C1511 H1481 0.950 . S
C1511 C1506 1.363 . S
C1511 C1510 1.415 . S
H1512 C1509 0.999 . S
H1513 C1494 0.913 . S
H1514 C1532 0.951 . S
H1515 C1534 0.951 . S
H1516 C1536 0.950 . S
H1517 C1537 0.950 . S
H1518 C1539 0.950 . S
H1519 C1542 0.950 . S
H1520 C1543 0.950 . S
H1521 C1545 0.950 . S
H1522 C1546 0.950 . S
H1523 C1547 0.951 . S
H1524 C1549 0.951 . S
H1525 C1551 0.950 . S
H1526 C1552 0.950 . S
H1527 C1554 0.950 . S
H1528 C1557 0.950 . S
H1529 C1558 0.950 . S
H1530 C1560 0.950 . S
H1531 C1561 0.950 . S
C1532 H1514 0.951 . S
C1532 C1533 1.366 . S
C1532 C1534 1.388 . S
C1533 C1532 1.366 . S
C1533 C1537 1.385 . S
C1534 H1515 0.951 . S
C1534 C1532 1.388 . S
C1534 C1535 1.366 . S
C1535 C1534 1.366 . S
C1535 C1536 1.414 . S
C1535 C1538 1.499 . S
C1536 H1516 0.950 . S
C1536 C1535 1.414 . S
C1536 C1537 1.374 . S
C1537 H1517 0.950 . S
C1537 C1533 1.385 . S
C1537 C1536 1.374 . S
C1538 C1535 1.499 . S
C1538 C1539 1.373 . S
C1538 C1540 1.389 . S
C1539 H1518 0.950 . S
C1539 C1538 1.373 . S
C1539 C1555 1.377 . S
C1540 C1538 1.389 . S
C1540 C1541 1.524 . S
C1540 C1554 1.377 . S
C1541 C1540 1.524 . S
C1541 C1542 1.397 . S
C1541 C1546 1.363 . S
C1542 H1519 0.950 . S
C1542 C1541 1.397 . S
C1542 C1543 1.334 . S
C1543 H1520 0.950 . S
C1543 C1542 1.334 . S
C1543 C1544 1.287 . S
C1544 C1543 1.287 . S
C1544 C1545 1.524 . S
C1544 H1563 0.913 . S
C1545 H1521 0.950 . S
C1545 C1544 1.524 . S
C1545 C1546 1.415 . S
C1546 H1522 0.950 . S
C1546 C1541 1.363 . S
C1546 C1545 1.415 . S
C1547 H1523 0.951 . S
C1547 C1548 1.366 . S
C1547 C1549 1.388 . S
C1548 C1547 1.366 . S
C1548 C1552 1.385 . S
C1549 H1524 0.951 . S
C1549 C1547 1.388 . S
C1549 C1550 1.366 . S
C1550 C1549 1.366 . S
C1550 C1551 1.414 . S
C1550 C1553 1.499 . S
C1551 H1525 0.950 . S
C1551 C1550 1.414 . S
C1551 C1552 1.374 . S
C1552 H1526 0.950 . S
C1552 C1548 1.385 . S
C1552 C1551 1.374 . S
C1553 C1550 1.499 . S
C1553 C1554 1.373 . S
C1553 C1555 1.389 . S
C1554 H1527 0.950 . S
C1554 C1540 1.377 . S
C1554 C1553 1.373 . S
C1555 C1539 1.377 . S
C1555 C1553 1.389 . S
C1555 C1556 1.524 . S
C1556 C1555 1.524 . S
C1556 C1557 1.397 . S
C1556 C1561 1.363 . S
C1557 H1528 0.950 . S
C1557 C1556 1.397 . S
C1557 C1558 1.334 . S
C1558 H1529 0.950 . S
C1558 C1557 1.334 . S
C1558 C1559 1.287 . S
C1559 C1558 1.287 . S
C1559 C1560 1.524 . S
C1559 H1562 0.999 . S
C1560 H1530 0.950 . S
C1560 C1559 1.524 . S
C1560 C1561 1.415 . S
C1561 H1531 0.950 . S
C1561 C1556 1.363 . S
C1561 C1560 1.415 . S
H1562 C1559 0.999 . S
H1563 C1544 0.913 . S
H1564 C1582 0.951 . S
H1565 C1584 0.951 . S
H1566 C1586 0.950 . S
H1567 C1587 0.950 . S
H1568 C1589 0.950 . S
H1569 C1592 0.950 . S
H1570 C1593 0.950 . S
H1571 C1595 0.950 . S
H1572 C1596 0.950 . S
H1573 C1597 0.951 . S
H1574 C1599 0.951 . S
H1575 C1601 0.950 . S
H1576 C1602 0.950 . S
H1577 C1604 0.950 . S
H1578 C1607 0.950 . S
H1579 C1608 0.950 . S
H1580 C1610 0.950 . S
H1581 C1611 0.950 . S
C1582 H1564 0.951 . S
C1582 C1583 1.366 . S
C1582 C1584 1.388 . S
C1583 C1582 1.366 . S
C1583 C1587 1.385 . S
C1584 H1565 0.951 . S
C1584 C1582 1.388 . S
C1584 C1585 1.366 . S
C1585 C1584 1.366 . S
C1585 C1586 1.414 . S
C1585 C1588 1.499 . S
C1586 H1566 0.950 . S
C1586 C1585 1.414 . S
C1586 C1587 1.374 . S
C1587 H1567 0.950 . S
C1587 C1583 1.385 . S
C1587 C1586 1.374 . S
C1588 C1585 1.499 . S
C1588 C1589 1.373 . S
C1588 C1590 1.389 . S
C1589 H1568 0.950 . S
C1589 C1588 1.373 . S
C1589 C1605 1.377 . S
C1590 C1588 1.389 . S
C1590 C1591 1.524 . S
C1590 C1604 1.377 . S
C1591 C1590 1.524 . S
C1591 C1592 1.397 . S
C1591 C1596 1.363 . S
C1592 H1569 0.950 . S
C1592 C1591 1.397 . S
C1592 C1593 1.334 . S
C1593 H1570 0.950 . S
C1593 C1592 1.334 . S
C1593 C1594 1.287 . S
C1594 C1593 1.287 . S
C1594 C1595 1.524 . S
C1594 H1613 0.913 . S
C1595 H1571 0.950 . S
C1595 C1594 1.524 . S
C1595 C1596 1.415 . S
C1596 H1572 0.950 . S
C1596 C1591 1.363 . S
C1596 C1595 1.415 . S
C1597 H1573 0.951 . S
C1597 C1598 1.366 . S
C1597 C1599 1.388 . S
C1598 C1597 1.366 . S
C1598 C1602 1.385 . S
C1599 H1574 0.951 . S
C1599 C1597 1.388 . S
C1599 C1600 1.366 . S
C1600 C1599 1.366 . S
C1600 C1601 1.414 . S
C1600 C1603 1.499 . S
C1601 H1575 0.950 . S
C1601 C1600 1.414 . S
C1601 C1602 1.374 . S
C1602 H1576 0.950 . S
C1602 C1598 1.385 . S
C1602 C1601 1.374 . S
C1603 C1600 1.499 . S
C1603 C1604 1.373 . S
C1603 C1605 1.389 . S
C1604 H1577 0.950 . S
C1604 C1590 1.377 . S
C1604 C1603 1.373 . S
C1605 C1589 1.377 . S
C1605 C1603 1.389 . S
C1605 C1606 1.524 . S
C1606 C1605 1.524 . S
C1606 C1607 1.397 . S
C1606 C1611 1.363 . S
C1607 H1578 0.950 . S
C1607 C1606 1.397 . S
C1607 C1608 1.334 . S
C1608 H1579 0.950 . S
C1608 C1607 1.334 . S
C1608 C1609 1.287 . S
C1609 C1608 1.287 . S
C1609 C1610 1.524 . S
C1609 H1612 0.999 . S
C1610 H1580 0.950 . S
C1610 C1609 1.524 . S
C1610 C1611 1.415 . S
C1611 H1581 0.950 . S
C1611 C1606 1.363 . S
C1611 C1610 1.415 . S
H1612 C1609 0.999 . S
H1613 C1594 0.913 . S
H1614 C1632 0.951 . S
H1615 C1634 0.951 . S
H1616 C1636 0.950 . S
H1617 C1637 0.950 . S
H1618 C1639 0.950 . S
H1619 C1642 0.950 . S
H1620 C1643 0.950 . S
H1621 C1645 0.950 . S
H1622 C1646 0.950 . S
H1623 C1647 0.951 . S
H1624 C1649 0.951 . S
H1625 C1651 0.950 . S
H1626 C1652 0.950 . S
H1627 C1654 0.950 . S
H1628 C1657 0.950 . S
H1629 C1658 0.950 . S
H1630 C1660 0.950 . S
H1631 C1661 0.950 . S
C1632 H1614 0.951 . S
C1632 C1633 1.366 . S
C1632 C1634 1.388 . S
C1633 C1632 1.366 . S
C1633 C1637 1.385 . S
C1634 H1615 0.951 . S
C1634 C1632 1.388 . S
C1634 C1635 1.366 . S
C1635 C1634 1.366 . S
C1635 C1636 1.414 . S
C1635 C1638 1.499 . S
C1636 H1616 0.950 . S
C1636 C1635 1.414 . S
C1636 C1637 1.374 . S
C1637 H1617 0.950 . S
C1637 C1633 1.385 . S
C1637 C1636 1.374 . S
C1638 C1635 1.499 . S
C1638 C1639 1.373 . S
C1638 C1640 1.389 . S
C1639 H1618 0.950 . S
C1639 C1638 1.373 . S
C1639 C1655 1.377 . S
C1640 C1638 1.389 . S
C1640 C1641 1.524 . S
C1640 C1654 1.377 . S
C1641 C1640 1.524 . S
C1641 C1642 1.397 . S
C1641 C1646 1.363 . S
C1642 H1619 0.950 . S
C1642 C1641 1.397 . S
C1642 C1643 1.334 . S
C1643 H1620 0.950 . S
C1643 C1642 1.334 . S
C1643 C1644 1.287 . S
C1644 C1643 1.287 . S
C1644 C1645 1.524 . S
C1644 H1663 0.913 . S
C1645 H1621 0.950 . S
C1645 C1644 1.524 . S
C1645 C1646 1.415 . S
C1646 H1622 0.950 . S
C1646 C1641 1.363 . S
C1646 C1645 1.415 . S
C1647 H1623 0.951 . S
C1647 C1648 1.366 . S
C1647 C1649 1.388 . S
C1648 C1647 1.366 . S
C1648 C1652 1.385 . S
C1649 H1624 0.951 . S
C1649 C1647 1.388 . S
C1649 C1650 1.366 . S
C1650 C1649 1.366 . S
C1650 C1651 1.414 . S
C1650 C1653 1.499 . S
C1651 H1625 0.950 . S
C1651 C1650 1.414 . S
C1651 C1652 1.374 . S
C1652 H1626 0.950 . S
C1652 C1648 1.385 . S
C1652 C1651 1.374 . S
C1653 C1650 1.499 . S
C1653 C1654 1.373 . S
C1653 C1655 1.389 . S
C1654 H1627 0.950 . S
C1654 C1640 1.377 . S
C1654 C1653 1.373 . S
C1655 C1639 1.377 . S
C1655 C1653 1.389 . S
C1655 C1656 1.524 . S
C1656 C1655 1.524 . S
C1656 C1657 1.397 . S
C1656 C1661 1.363 . S
C1657 H1628 0.950 . S
C1657 C1656 1.397 . S
C1657 C1658 1.334 . S
C1658 H1629 0.950 . S
C1658 C1657 1.334 . S
C1658 C1659 1.287 . S
C1659 C1658 1.287 . S
C1659 C1660 1.524 . S
C1659 H1662 0.999 . S
C1660 H1630 0.950 . S
C1660 C1659 1.524 . S
C1660 C1661 1.415 . S
C1661 H1631 0.950 . S
C1661 C1656 1.363 . S
C1661 C1660 1.415 . S
H1662 C1659 0.999 . S
H1663 C1644 0.913 . S
H1664 C1682 0.951 . S
H1665 C1684 0.951 . S
H1666 C1686 0.950 . S
H1667 C1687 0.950 . S
H1668 C1689 0.950 . S
H1669 C1692 0.950 . S
H1670 C1693 0.950 . S
H1671 C1695 0.950 . S
H1672 C1696 0.950 . S
H1673 C1697 0.951 . S
H1674 C1699 0.951 . S
H1675 C1701 0.950 . S
H1676 C1702 0.950 . S
H1677 C1704 0.950 . S
H1678 C1707 0.950 . S
H1679 C1708 0.950 . S
H1680 C1710 0.950 . S
H1681 C1711 0.950 . S
C1682 H1664 0.951 . S
C1682 C1683 1.366 . S
C1682 C1684 1.388 . S
C1683 C1682 1.366 . S
C1683 C1687 1.385 . S
C1684 H1665 0.951 . S
C1684 C1682 1.388 . S
C1684 C1685 1.366 . S
C1685 C1684 1.366 . S
C1685 C1686 1.414 . S
C1685 C1688 1.499 . S
C1686 H1666 0.950 . S
C1686 C1685 1.414 . S
C1686 C1687 1.374 . S
C1687 H1667 0.950 . S
C1687 C1683 1.385 . S
C1687 C1686 1.374 . S
C1688 C1685 1.499 . S
C1688 C1689 1.373 . S
C1688 C1690 1.389 . S
C1689 H1668 0.950 . S
C1689 C1688 1.373 . S
C1689 C1705 1.377 . S
C1690 C1688 1.389 . S
C1690 C1691 1.524 . S
C1690 C1704 1.377 . S
C1691 C1690 1.524 . S
C1691 C1692 1.397 . S
C1691 C1696 1.363 . S
C1692 H1669 0.950 . S
C1692 C1691 1.397 . S
C1692 C1693 1.334 . S
C1693 H1670 0.950 . S
C1693 C1692 1.334 . S
C1693 C1694 1.287 . S
C1694 C1693 1.287 . S
C1694 C1695 1.524 . S
C1694 H1713 0.913 . S
C1695 H1671 0.950 . S
C1695 C1694 1.524 . S
C1695 C1696 1.415 . S
C1696 H1672 0.950 . S
C1696 C1691 1.363 . S
C1696 C1695 1.415 . S
C1697 H1673 0.951 . S
C1697 C1698 1.366 . S
C1697 C1699 1.388 . S
C1698 C1697 1.366 . S
C1698 C1702 1.385 . S
C1699 H1674 0.951 . S
C1699 C1697 1.388 . S
C1699 C1700 1.366 . S
C1700 C1699 1.366 . S
C1700 C1701 1.414 . S
C1700 C1703 1.499 . S
C1701 H1675 0.950 . S
C1701 C1700 1.414 . S
C1701 C1702 1.374 . S
C1702 H1676 0.950 . S
C1702 C1698 1.385 . S
C1702 C1701 1.374 . S
C1703 C1700 1.499 . S
C1703 C1704 1.373 . S
C1703 C1705 1.389 . S
C1704 H1677 0.950 . S
C1704 C1690 1.377 . S
C1704 C1703 1.373 . S
C1705 C1689 1.377 . S
C1705 C1703 1.389 . S
C1705 C1706 1.524 . S
C1706 C1705 1.524 . S
C1706 C1707 1.397 . S
C1706 C1711 1.363 . S
C1707 H1678 0.950 . S
C1707 C1706 1.397 . S
C1707 C1708 1.334 . S
C1708 H1679 0.950 . S
C1708 C1707 1.334 . S
C1708 C1709 1.287 . S
C1709 C1708 1.287 . S
C1709 C1710 1.524 . S
C1709 H1712 0.999 . S
C1710 H1680 0.950 . S
C1710 C1709 1.524 . S
C1710 C1711 1.415 . S
C1711 H1681 0.950 . S
C1711 C1706 1.363 . S
C1711 C1710 1.415 . S
H1712 C1709 0.999 . S
H1713 C1694 0.913 . S
H1714 C1732 0.951 . S
H1715 C1734 0.951 . S
H1716 C1736 0.950 . S
H1717 C1737 0.950 . S
H1718 C1739 0.950 . S
H1719 C1742 0.950 . S
H1720 C1743 0.950 . S
H1721 C1745 0.950 . S
H1722 C1746 0.950 . S
H1723 C1747 0.951 . S
H1724 C1749 0.951 . S
H1725 C1751 0.950 . S
H1726 C1752 0.950 . S
H1727 C1754 0.950 . S
H1728 C1757 0.950 . S
H1729 C1758 0.950 . S
H1730 C1760 0.950 . S
H1731 C1761 0.950 . S
C1732 H1714 0.951 . S
C1732 C1733 1.366 . S
C1732 C1734 1.388 . S
C1733 C1732 1.366 . S
C1733 C1737 1.385 . S
C1734 H1715 0.951 . S
C1734 C1732 1.388 . S
C1734 C1735 1.366 . S
C1735 C1734 1.366 . S
C1735 C1736 1.414 . S
C1735 C1738 1.499 . S
C1736 H1716 0.950 . S
C1736 C1735 1.414 . S
C1736 C1737 1.374 . S
C1737 H1717 0.950 . S
C1737 C1733 1.385 . S
C1737 C1736 1.374 . S
C1738 C1735 1.499 . S
C1738 C1739 1.373 . S
C1738 C1740 1.389 . S
C1739 H1718 0.950 . S
C1739 C1738 1.373 . S
C1739 C1755 1.377 . S
C1740 C1738 1.389 . S
C1740 C1741 1.524 . S
C1740 C1754 1.377 . S
C1741 C1740 1.524 . S
C1741 C1742 1.397 . S
C1741 C1746 1.363 . S
C1742 H1719 0.950 . S
C1742 C1741 1.397 . S
C1742 C1743 1.334 . S
C1743 H1720 0.950 . S
C1743 C1742 1.334 . S
C1743 C1744 1.287 . S
C1744 C1743 1.287 . S
C1744 C1745 1.524 . S
C1744 H1763 0.913 . S
C1745 H1721 0.950 . S
C1745 C1744 1.524 . S
C1745 C1746 1.415 . S
C1746 H1722 0.950 . S
C1746 C1741 1.363 . S
C1746 C1745 1.415 . S
C1747 H1723 0.951 . S
C1747 C1748 1.366 . S
C1747 C1749 1.388 . S
C1748 C1747 1.366 . S
C1748 C1752 1.385 . S
C1749 H1724 0.951 . S
C1749 C1747 1.388 . S
C1749 C1750 1.366 . S
C1750 C1749 1.366 . S
C1750 C1751 1.414 . S
C1750 C1753 1.499 . S
C1751 H1725 0.950 . S
C1751 C1750 1.414 . S
C1751 C1752 1.374 . S
C1752 H1726 0.950 . S
C1752 C1748 1.385 . S
C1752 C1751 1.374 . S
C1753 C1750 1.499 . S
C1753 C1754 1.373 . S
C1753 C1755 1.389 . S
C1754 H1727 0.950 . S
C1754 C1740 1.377 . S
C1754 C1753 1.373 . S
C1755 C1739 1.377 . S
C1755 C1753 1.389 . S
C1755 C1756 1.524 . S
C1756 C1755 1.524 . S
C1756 C1757 1.397 . S
C1756 C1761 1.363 . S
C1757 H1728 0.950 . S
C1757 C1756 1.397 . S
C1757 C1758 1.334 . S
C1758 H1729 0.950 . S
C1758 C1757 1.334 . S
C1758 C1759 1.287 . S
C1759 C1758 1.287 . S
C1759 C1760 1.524 . S
C1759 H1762 0.999 . S
C1760 H1730 0.950 . S
C1760 C1759 1.524 . S
C1760 C1761 1.415 . S
C1761 H1731 0.950 . S
C1761 C1756 1.363 . S
C1761 C1760 1.415 . S
H1762 C1759 0.999 . S
H1763 C1744 0.913 . S
H1764 C1782 0.951 . S
H1765 C1784 0.951 . S
H1766 C1786 0.950 . S
H1767 C1787 0.950 . S
H1768 C1789 0.950 . S
H1769 C1792 0.950 . S
H1770 C1793 0.950 . S
H1771 C1795 0.950 . S
H1772 C1796 0.950 . S
H1773 C1797 0.951 . S
H1774 C1799 0.951 . S
H1775 C1801 0.950 . S
H1776 C1802 0.950 . S
H1777 C1804 0.950 . S
H1778 C1807 0.950 . S
H1779 C1808 0.950 . S
H1780 C1810 0.950 . S
H1781 C1811 0.950 . S
C1782 H1764 0.951 . S
C1782 C1783 1.366 . S
C1782 C1784 1.388 . S
C1783 C1782 1.366 . S
C1783 C1787 1.385 . S
C1784 H1765 0.951 . S
C1784 C1782 1.388 . S
C1784 C1785 1.366 . S
C1785 C1784 1.366 . S
C1785 C1786 1.414 . S
C1785 C1788 1.499 . S
C1786 H1766 0.950 . S
C1786 C1785 1.414 . S
C1786 C1787 1.374 . S
C1787 H1767 0.950 . S
C1787 C1783 1.385 . S
C1787 C1786 1.374 . S
C1788 C1785 1.499 . S
C1788 C1789 1.373 . S
C1788 C1790 1.389 . S
C1789 H1768 0.950 . S
C1789 C1788 1.373 . S
C1789 C1805 1.377 . S
C1790 C1788 1.389 . S
C1790 C1791 1.524 . S
C1790 C1804 1.377 . S
C1791 C1790 1.524 . S
C1791 C1792 1.397 . S
C1791 C1796 1.363 . S
C1792 H1769 0.950 . S
C1792 C1791 1.397 . S
C1792 C1793 1.334 . S
C1793 H1770 0.950 . S
C1793 C1792 1.334 . S
C1793 C1794 1.287 . S
C1794 C1793 1.287 . S
C1794 C1795 1.524 . S
C1794 H1813 0.913 . S
C1795 H1771 0.950 . S
C1795 C1794 1.524 . S
C1795 C1796 1.415 . S
C1796 H1772 0.950 . S
C1796 C1791 1.363 . S
C1796 C1795 1.415 . S
C1797 H1773 0.951 . S
C1797 C1798 1.366 . S
C1797 C1799 1.388 . S
C1798 C1797 1.366 . S
C1798 C1802 1.385 . S
C1799 H1774 0.951 . S
C1799 C1797 1.388 . S
C1799 C1800 1.366 . S
C1800 C1799 1.366 . S
C1800 C1801 1.414 . S
C1800 C1803 1.499 . S
C1801 H1775 0.950 . S
C1801 C1800 1.414 . S
C1801 C1802 1.374 . S
C1802 H1776 0.950 . S
C1802 C1798 1.385 . S
C1802 C1801 1.374 . S
C1803 C1800 1.499 . S
C1803 C1804 1.373 . S
C1803 C1805 1.389 . S
C1804 H1777 0.950 . S
C1804 C1790 1.377 . S
C1804 C1803 1.373 . S
C1805 C1789 1.377 . S
C1805 C1803 1.389 . S
C1805 C1806 1.524 . S
C1806 C1805 1.524 . S
C1806 C1807 1.397 . S
C1806 C1811 1.363 . S
C1807 H1778 0.950 . S
C1807 C1806 1.397 . S
C1807 C1808 1.334 . S
C1808 H1779 0.950 . S
C1808 C1807 1.334 . S
C1808 C1809 1.287 . S
C1809 C1808 1.287 . S
C1809 C1810 1.524 . S
C1809 H1812 0.999 . S
C1810 H1780 0.950 . S
C1810 C1809 1.524 . S
C1810 C1811 1.415 . S
C1811 H1781 0.950 . S
C1811 C1806 1.363 . S
C1811 C1810 1.415 . S
H1812 C1809 0.999 . S
H1813 C1794 0.913 . S
H1814 C1832 0.951 . S
H1815 C1834 0.951 . S
H1816 C1836 0.950 . S
H1817 C1837 0.950 . S
H1818 C1839 0.950 . S
H1819 C1842 0.950 . S
H1820 C1843 0.950 . S
H1821 C1845 0.950 . S
H1822 C1846 0.950 . S
H1823 C1847 0.951 . S
H1824 C1849 0.951 . S
H1825 C1851 0.950 . S
H1826 C1852 0.950 . S
H1827 C1854 0.950 . S
H1828 C1857 0.950 . S
H1829 C1858 0.950 . S
H1830 C1860 0.950 . S
H1831 C1861 0.950 . S
C1832 H1814 0.951 . S
C1832 C1833 1.366 . S
C1832 C1834 1.388 . S
C1833 C1832 1.366 . S
C1833 C1837 1.385 . S
C1834 H1815 0.951 . S
C1834 C1832 1.388 . S
C1834 C1835 1.366 . S
C1835 C1834 1.366 . S
C1835 C1836 1.414 . S
C1835 C1838 1.499 . S
C1836 H1816 0.950 . S
C1836 C1835 1.414 . S
C1836 C1837 1.374 . S
C1837 H1817 0.950 . S
C1837 C1833 1.385 . S
C1837 C1836 1.374 . S
C1838 C1835 1.499 . S
C1838 C1839 1.373 . S
C1838 C1840 1.389 . S
C1839 H1818 0.950 . S
C1839 C1838 1.373 . S
C1839 C1855 1.377 . S
C1840 C1838 1.389 . S
C1840 C1841 1.524 . S
C1840 C1854 1.377 . S
C1841 C1840 1.524 . S
C1841 C1842 1.397 . S
C1841 C1846 1.363 . S
C1842 H1819 0.950 . S
C1842 C1841 1.397 . S
C1842 C1843 1.334 . S
C1843 H1820 0.950 . S
C1843 C1842 1.334 . S
C1843 C1844 1.287 . S
C1844 C1843 1.287 . S
C1844 C1845 1.524 . S
C1844 H1863 0.913 . S
C1845 H1821 0.950 . S
C1845 C1844 1.524 . S
C1845 C1846 1.415 . S
C1846 H1822 0.950 . S
C1846 C1841 1.363 . S
C1846 C1845 1.415 . S
C1847 H1823 0.951 . S
C1847 C1848 1.366 . S
C1847 C1849 1.388 . S
C1848 C1847 1.366 . S
C1848 C1852 1.385 . S
C1849 H1824 0.951 . S
C1849 C1847 1.388 . S
C1849 C1850 1.366 . S
C1850 C1849 1.366 . S
C1850 C1851 1.414 . S
C1850 C1853 1.499 . S
C1851 H1825 0.950 . S
C1851 C1850 1.414 . S
C1851 C1852 1.374 . S
C1852 H1826 0.950 . S
C1852 C1848 1.385 . S
C1852 C1851 1.374 . S
C1853 C1850 1.499 . S
C1853 C1854 1.373 . S
C1853 C1855 1.389 . S
C1854 H1827 0.950 . S
C1854 C1840 1.377 . S
C1854 C1853 1.373 . S
C1855 C1839 1.377 . S
C1855 C1853 1.389 . S
C1855 C1856 1.524 . S
C1856 C1855 1.524 . S
C1856 C1857 1.397 . S
C1856 C1861 1.363 . S
C1857 H1828 0.950 . S
C1857 C1856 1.397 . S
C1857 C1858 1.334 . S
C1858 H1829 0.950 . S
C1858 C1857 1.334 . S
C1858 C1859 1.287 . S
C1859 C1858 1.287 . S
C1859 C1860 1.524 . S
C1859 H1862 0.999 . S
C1860 H1830 0.950 . S
C1860 C1859 1.524 . S
C1860 C1861 1.415 . S
C1861 H1831 0.950 . S
C1861 C1856 1.363 . S
C1861 C1860 1.415 . S
H1862 C1859 0.999 . S
H1863 C1844 0.913 . S
H1864 C1882 0.951 . S
H1865 C1884 0.951 . S
H1866 C1886 0.950 . S
H1867 C1887 0.950 . S
H1868 C1889 0.950 . S
H1869 C1892 0.950 . S
H1870 C1893 0.950 . S
H1871 C1895 0.950 . S
H1872 C1896 0.950 . S
H1873 C1897 0.951 . S
H1874 C1899 0.951 . S
H1875 C1901 0.950 . S
H1876 C1902 0.950 . S
H1877 C1904 0.950 . S
H1878 C1907 0.950 . S
H1879 C1908 0.950 . S
H1880 C1910 0.950 . S
H1881 C1911 0.950 . S
C1882 H1864 0.951 . S
C1882 C1883 1.366 . S
C1882 C1884 1.388 . S
C1883 C1882 1.366 . S
C1883 C1887 1.385 . S
C1884 H1865 0.951 . S
C1884 C1882 1.388 . S
C1884 C1885 1.366 . S
C1885 C1884 1.366 . S
C1885 C1886 1.414 . S
C1885 C1888 1.499 . S
C1886 H1866 0.950 . S
C1886 C1885 1.414 . S
C1886 C1887 1.374 . S
C1887 H1867 0.950 . S
C1887 C1883 1.385 . S
C1887 C1886 1.374 . S
C1888 C1885 1.499 . S
C1888 C1889 1.373 . S
C1888 C1890 1.389 . S
C1889 H1868 0.950 . S
C1889 C1888 1.373 . S
C1889 C1905 1.377 . S
C1890 C1888 1.389 . S
C1890 C1891 1.524 . S
C1890 C1904 1.377 . S
C1891 C1890 1.524 . S
C1891 C1892 1.397 . S
C1891 C1896 1.363 . S
C1892 H1869 0.950 . S
C1892 C1891 1.397 . S
C1892 C1893 1.334 . S
C1893 H1870 0.950 . S
C1893 C1892 1.334 . S
C1893 C1894 1.287 . S
C1894 C1893 1.287 . S
C1894 C1895 1.524 . S
C1894 H1913 0.913 . S
C1895 H1871 0.950 . S
C1895 C1894 1.524 . S
C1895 C1896 1.415 . S
C1896 H1872 0.950 . S
C1896 C1891 1.363 . S
C1896 C1895 1.415 . S
C1897 H1873 0.951 . S
C1897 C1898 1.366 . S
C1897 C1899 1.388 . S
C1898 C1897 1.366 . S
C1898 C1902 1.385 . S
C1899 H1874 0.951 . S
C1899 C1897 1.388 . S
C1899 C1900 1.366 . S
C1900 C1899 1.366 . S
C1900 C1901 1.414 . S
C1900 C1903 1.499 . S
C1901 H1875 0.950 . S
C1901 C1900 1.414 . S
C1901 C1902 1.374 . S
C1902 H1876 0.950 . S
C1902 C1898 1.385 . S
C1902 C1901 1.374 . S
C1903 C1900 1.499 . S
C1903 C1904 1.373 . S
C1903 C1905 1.389 . S
C1904 H1877 0.950 . S
C1904 C1890 1.377 . S
C1904 C1903 1.373 . S
C1905 C1889 1.377 . S
C1905 C1903 1.389 . S
C1905 C1906 1.524 . S
C1906 C1905 1.524 . S
C1906 C1907 1.397 . S
C1906 C1911 1.363 . S
C1907 H1878 0.950 . S
C1907 C1906 1.397 . S
C1907 C1908 1.334 . S
C1908 H1879 0.950 . S
C1908 C1907 1.334 . S
C1908 C1909 1.287 . S
C1909 C1908 1.287 . S
C1909 C1910 1.524 . S
C1909 H1912 0.999 . S
C1910 H1880 0.950 . S
C1910 C1909 1.524 . S
C1910 C1911 1.415 . S
C1911 H1881 0.950 . S
C1911 C1906 1.363 . S
C1911 C1910 1.415 . S
H1912 C1909 0.999 . S
H1913 C1894 0.913 . S
H1914 C1932 0.951 . S
H1915 C1934 0.951 . S
H1916 C1936 0.950 . S
H1917 C1937 0.950 . S
H1918 C1939 0.950 . S
H1919 C1942 0.950 . S
H1920 C1943 0.950 . S
H1921 C1945 0.950 . S
H1922 C1946 0.950 . S
H1923 C1947 0.951 . S
H1924 C1949 0.951 . S
H1925 C1951 0.950 . S
H1926 C1952 0.950 . S
H1927 C1954 0.950 . S
H1928 C1957 0.950 . S
H1929 C1958 0.950 . S
H1930 C1960 0.950 . S
H1931 C1961 0.950 . S
C1932 H1914 0.951 . S
C1932 C1933 1.366 . S
C1932 C1934 1.388 . S
C1933 C1932 1.366 . S
C1933 C1937 1.385 . S
C1934 H1915 0.951 . S
C1934 C1932 1.388 . S
C1934 C1935 1.366 . S
C1935 C1934 1.366 . S
C1935 C1936 1.414 . S
C1935 C1938 1.499 . S
C1936 H1916 0.950 . S
C1936 C1935 1.414 . S
C1936 C1937 1.374 . S
C1937 H1917 0.950 . S
C1937 C1933 1.385 . S
C1937 C1936 1.374 . S
C1938 C1935 1.499 . S
C1938 C1939 1.373 . S
C1938 C1940 1.389 . S
C1939 H1918 0.950 . S
C1939 C1938 1.373 . S
C1939 C1955 1.377 . S
C1940 C1938 1.389 . S
C1940 C1941 1.524 . S
C1940 C1954 1.377 . S
C1941 C1940 1.524 . S
C1941 C1942 1.397 . S
C1941 C1946 1.363 . S
C1942 H1919 0.950 . S
C1942 C1941 1.397 . S
C1942 C1943 1.334 . S
C1943 H1920 0.950 . S
C1943 C1942 1.334 . S
C1943 C1944 1.287 . S
C1944 C1943 1.287 . S
C1944 C1945 1.524 . S
C1944 H1963 0.913 . S
C1945 H1921 0.950 . S
C1945 C1944 1.524 . S
C1945 C1946 1.415 . S
C1946 H1922 0.950 . S
C1946 C1941 1.363 . S
C1946 C1945 1.415 . S
C1947 H1923 0.951 . S
C1947 C1948 1.366 . S
C1947 C1949 1.388 . S
C1948 C1947 1.366 . S
C1948 C1952 1.385 . S
C1949 H1924 0.951 . S
C1949 C1947 1.388 . S
C1949 C1950 1.366 . S
C1950 C1949 1.366 . S
C1950 C1951 1.414 . S
C1950 C1953 1.499 . S
C1951 H1925 0.950 . S
C1951 C1950 1.414 . S
C1951 C1952 1.374 . S
C1952 H1926 0.950 . S
C1952 C1948 1.385 . S
C1952 C1951 1.374 . S
C1953 C1950 1.499 . S
C1953 C1954 1.373 . S
C1953 C1955 1.389 . S
C1954 H1927 0.950 . S
C1954 C1940 1.377 . S
C1954 C1953 1.373 . S
C1955 C1939 1.377 . S
C1955 C1953 1.389 . S
C1955 C1956 1.524 . S
C1956 C1955 1.524 . S
C1956 C1957 1.397 . S
C1956 C1961 1.363 . S
C1957 H1928 0.950 . S
C1957 C1956 1.397 . S
C1957 C1958 1.334 . S
C1958 H1929 0.950 . S
C1958 C1957 1.334 . S
C1958 C1959 1.287 . S
C1959 C1958 1.287 . S
C1959 C1960 1.524 . S
C1959 H1962 0.999 . S
C1960 H1930 0.950 . S
C1960 C1959 1.524 . S
C1960 C1961 1.415 . S
C1961 H1931 0.950 . S
C1961 C1956 1.363 . S
C1961 C1960 1.415 . S
H1962 C1959 0.999 . S
H1963 C1944 0.913 . S
H1964 C1982 0.951 . S
H1965 C1984 0.951 . S
H1966 C1986 0.950 . S
H1967 C1987 0.950 . S
H1968 C1989 0.950 . S
H1969 C1992 0.950 . S
H1970 C1993 0.950 . S
H1971 C1995 0.950 . S
H1972 C1996 0.950 . S
H1973 C1997 0.951 . S
H1974 C1999 0.951 . S
H1975 C2001 0.950 . S
H1976 C2002 0.950 . S
H1977 C2004 0.950 . S
H1978 C2007 0.950 . S
H1979 C2008 0.950 . S
H1980 C2010 0.950 . S
H1981 C2011 0.950 . S
C1982 H1964 0.951 . S
C1982 C1983 1.366 . S
C1982 C1984 1.388 . S
C1983 C1982 1.366 . S
C1983 C1987 1.385 . S
C1984 H1965 0.951 . S
C1984 C1982 1.388 . S
C1984 C1985 1.366 . S
C1985 C1984 1.366 . S
C1985 C1986 1.414 . S
C1985 C1988 1.499 . S
C1986 H1966 0.950 . S
C1986 C1985 1.414 . S
C1986 C1987 1.374 . S
C1987 H1967 0.950 . S
C1987 C1983 1.385 . S
C1987 C1986 1.374 . S
C1988 C1985 1.499 . S
C1988 C1989 1.373 . S
C1988 C1990 1.389 . S
C1989 H1968 0.950 . S
C1989 C1988 1.373 . S
C1989 C2005 1.377 . S
C1990 C1988 1.389 . S
C1990 C1991 1.524 . S
C1990 C2004 1.377 . S
C1991 C1990 1.524 . S
C1991 C1992 1.397 . S
C1991 C1996 1.363 . S
C1992 H1969 0.950 . S
C1992 C1991 1.397 . S
C1992 C1993 1.334 . S
C1993 H1970 0.950 . S
C1993 C1992 1.334 . S
C1993 C1994 1.287 . S
C1994 C1993 1.287 . S
C1994 C1995 1.524 . S
C1994 H2013 0.913 . S
C1995 H1971 0.950 . S
C1995 C1994 1.524 . S
C1995 C1996 1.415 . S
C1996 H1972 0.950 . S
C1996 C1991 1.363 . S
C1996 C1995 1.415 . S
C1997 H1973 0.951 . S
C1997 C1998 1.366 . S
C1997 C1999 1.388 . S
C1998 C1997 1.366 . S
C1998 C2002 1.385 . S
C1999 H1974 0.951 . S
C1999 C1997 1.388 . S
C1999 C2000 1.366 . S
C2000 C1999 1.366 . S
C2000 C2001 1.414 . S
C2000 C2003 1.499 . S
C2001 H1975 0.950 . S
C2001 C2000 1.414 . S
C2001 C2002 1.374 . S
C2002 H1976 0.950 . S
C2002 C1998 1.385 . S
C2002 C2001 1.374 . S
C2003 C2000 1.499 . S
C2003 C2004 1.373 . S
C2003 C2005 1.389 . S
C2004 H1977 0.950 . S
C2004 C1990 1.377 . S
C2004 C2003 1.373 . S
C2005 C1989 1.377 . S
C2005 C2003 1.389 . S
C2005 C2006 1.524 . S
C2006 C2005 1.524 . S
C2006 C2007 1.397 . S
C2006 C2011 1.363 . S
C2007 H1978 0.950 . S
C2007 C2006 1.397 . S
C2007 C2008 1.334 . S
C2008 H1979 0.950 . S
C2008 C2007 1.334 . S
C2008 C2009 1.287 . S
C2009 C2008 1.287 . S
C2009 C2010 1.524 . S
C2009 H2012 0.999 . S
C2010 H1980 0.950 . S
C2010 C2009 1.524 . S
C2010 C2011 1.415 . S
C2011 H1981 0.950 . S
C2011 C2006 1.363 . S
C2011 C2010 1.415 . S
H2012 C2009 0.999 . S
H2013 C1994 0.913 . S
H2014 C2032 0.951 . S
H2015 C2034 0.951 . S
H2016 C2036 0.950 . S
H2017 C2037 0.950 . S
H2018 C2039 0.950 . S
H2019 C2042 0.950 . S
H2020 C2043 0.950 . S
H2021 C2045 0.950 . S
H2022 C2046 0.950 . S
H2023 C2047 0.951 . S
H2024 C2049 0.951 . S
H2025 C2051 0.950 . S
H2026 C2052 0.950 . S
H2027 C2054 0.950 . S
H2028 C2057 0.950 . S
H2029 C2058 0.950 . S
H2030 C2060 0.950 . S
H2031 C2061 0.950 . S
C2032 H2014 0.951 . S
C2032 C2033 1.366 . S
C2032 C2034 1.388 . S
C2033 C2032 1.366 . S
C2033 C2037 1.385 . S
C2034 H2015 0.951 . S
C2034 C2032 1.388 . S
C2034 C2035 1.366 . S
C2035 C2034 1.366 . S
C2035 C2036 1.414 . S
C2035 C2038 1.499 . S
C2036 H2016 0.950 . S
C2036 C2035 1.414 . S
C2036 C2037 1.374 . S
C2037 H2017 0.950 . S
C2037 C2033 1.385 . S
C2037 C2036 1.374 . S
C2038 C2035 1.499 . S
C2038 C2039 1.373 . S
C2038 C2040 1.389 . S
C2039 H2018 0.950 . S
C2039 C2038 1.373 . S
C2039 C2055 1.377 . S
C2040 C2038 1.389 . S
C2040 C2041 1.524 . S
C2040 C2054 1.377 . S
C2041 C2040 1.524 . S
C2041 C2042 1.397 . S
C2041 C2046 1.363 . S
C2042 H2019 0.950 . S
C2042 C2041 1.397 . S
C2042 C2043 1.334 . S
C2043 H2020 0.950 . S
C2043 C2042 1.334 . S
C2043 C2044 1.287 . S
C2044 C2043 1.287 . S
C2044 C2045 1.524 . S
C2044 H2063 0.913 . S
C2045 H2021 0.950 . S
C2045 C2044 1.524 . S
C2045 C2046 1.415 . S
C2046 H2022 0.950 . S
C2046 C2041 1.363 . S
C2046 C2045 1.415 . S
C2047 H2023 0.951 . S
C2047 C2048 1.366 . S
C2047 C2049 1.388 . S
C2048 C2047 1.366 . S
C2048 C2052 1.385 . S
C2049 H2024 0.951 . S
C2049 C2047 1.388 . S
C2049 C2050 1.366 . S
C2050 C2049 1.366 . S
C2050 C2051 1.414 . S
C2050 C2053 1.499 . S
C2051 H2025 0.950 . S
C2051 C2050 1.414 . S
C2051 C2052 1.374 . S
C2052 H2026 0.950 . S
C2052 C2048 1.385 . S
C2052 C2051 1.374 . S
C2053 C2050 1.499 . S
C2053 C2054 1.373 . S
C2053 C2055 1.389 . S
C2054 H2027 0.950 . S
C2054 C2040 1.377 . S
C2054 C2053 1.373 . S
C2055 C2039 1.377 . S
C2055 C2053 1.389 . S
C2055 C2056 1.524 . S
C2056 C2055 1.524 . S
C2056 C2057 1.397 . S
C2056 C2061 1.363 . S
C2057 H2028 0.950 . S
C2057 C2056 1.397 . S
C2057 C2058 1.334 . S
C2058 H2029 0.950 . S
C2058 C2057 1.334 . S
C2058 C2059 1.287 . S
C2059 C2058 1.287 . S
C2059 C2060 1.524 . S
C2059 H2062 0.999 . S
C2060 H2030 0.950 . S
C2060 C2059 1.524 . S
C2060 C2061 1.415 . S
C2061 H2031 0.950 . S
C2061 C2056 1.363 . S
C2061 C2060 1.415 . S
H2062 C2059 0.999 . S
H2063 C2044 0.913 . S
H2064 C2082 0.951 . S
H2065 C2084 0.951 . S
H2066 C2086 0.950 1_545 S
H2067 C2087 0.957 . S
H2068 C2089 0.950 . S
H2069 C2092 0.950 1_545 S
H2070 C2093 0.950 . S
H2071 C2095 0.950 . S
H2072 C2096 0.950 1_554 S
H2073 C2097 0.951 . S
H2074 C2099 0.951 . S
H2075 C2101 0.950 1_565 S
H2076 C2102 0.957 . S
H2077 C2104 0.950 . S
H2078 C2107 0.950 1_565 S
H2079 C2108 0.950 . S
H2080 C2110 0.950 . S
H2081 C2111 0.950 1_556 S
C2082 H2064 0.951 . S
C2082 C2083 1.366 . S
C2082 C2084 1.388 . S
C2083 C2082 1.366 . S
C2083 C2087 1.385 . S
C2084 H2065 0.951 . S
C2084 C2082 1.388 . S
C2084 C2085 1.366 . S
C2085 C2084 1.366 . S
C2085 C2086 1.414 . S
C2085 C2088 1.499 . S
C2086 H2066 0.950 1_565 S
C2086 C2085 1.414 . S
C2086 C2087 1.374 . S
C2087 H2067 0.957 . S
C2087 C2083 1.385 . S
C2087 C2086 1.374 . S
C2088 C2085 1.499 . S
C2088 C2089 1.373 1_565 S
C2088 C2090 1.389 . S
C2089 H2068 0.950 . S
C2089 C2088 1.373 1_545 S
C2089 C2105 1.377 1_556 S
C2090 C2088 1.389 . S
C2090 C2091 1.524 . S
C2090 C2104 1.377 1_556 S
C2091 C2090 1.524 . S
C2091 C2092 1.397 . S
C2091 C2096 1.363 . S
C2092 H2069 0.950 1_565 S
C2092 C2091 1.397 . S
C2092 C2093 1.334 . S
C2093 H2070 0.950 . S
C2093 C2092 1.334 . S
C2093 C2094 1.287 . S
C2094 C2093 1.287 . S
C2094 C2095 1.524 . S
C2094 H2113 0.913 . S
C2095 H2071 0.950 . S
C2095 C2094 1.524 . S
C2095 C2096 1.415 . S
C2096 H2072 0.950 1_556 S
C2096 C2091 1.363 . S
C2096 C2095 1.415 . S
C2097 H2073 0.951 . S
C2097 C2098 1.366 . S
C2097 C2099 1.388 . S
C2098 C2097 1.366 . S
C2098 C2102 1.385 . S
C2099 H2074 0.951 . S
C2099 C2097 1.388 . S
C2099 C2100 1.366 . S
C2100 C2099 1.366 . S
C2100 C2101 1.414 . S
C2100 C2103 1.499 . S
C2101 H2075 0.950 1_545 S
C2101 C2100 1.414 . S
C2101 C2102 1.374 . S
C2102 H2076 0.957 . S
C2102 C2098 1.385 . S
C2102 C2101 1.374 . S
C2103 C2100 1.499 . S
C2103 C2104 1.373 1_545 S
C2103 C2105 1.389 . S
C2104 H2077 0.950 . S
C2104 C2090 1.377 1_554 S
C2104 C2103 1.373 1_565 S
C2105 C2089 1.377 1_554 S
C2105 C2103 1.389 . S
C2105 C2106 1.524 . S
C2106 C2105 1.524 . S
C2106 C2107 1.397 . S
C2106 C2111 1.363 . S
C2107 H2078 0.950 1_545 S
C2107 C2106 1.397 . S
C2107 C2108 1.334 . S
C2108 H2079 0.950 . S
C2108 C2107 1.334 . S
C2108 C2109 1.287 . S
C2109 C2108 1.287 . S
C2109 C2110 1.524 . S
C2109 H2112 0.999 . S
C2110 H2080 0.950 . S
C2110 C2109 1.524 . S
C2110 C2111 1.415 . S
C2111 H2081 0.950 1_554 S
C2111 C2106 1.363 . S
C2111 C2110 1.415 . S
H2112 C2109 0.999 . S
H2113 C2094 0.913 . S
H2114 C2132 0.951 . S
H2115 C2134 0.951 . S
H2116 C2136 0.950 . S
H2117 C2137 0.950 . S
H2118 C2139 0.950 . S
H2119 C2142 0.950 . S
H2120 C2143 0.950 . S
H2121 C2145 0.950 . S
H2122 C2146 0.950 . S
H2123 C2147 0.951 . S
H2124 C2149 0.951 . S
H2125 C2151 0.950 . S
H2126 C2152 0.950 . S
H2127 C2154 0.950 . S
H2128 C2157 0.950 . S
H2129 C2158 0.950 . S
H2130 C2160 0.950 . S
H2131 C2161 0.950 . S
C2132 H2114 0.951 . S
C2132 C2133 1.366 . S
C2132 C2134 1.388 . S
C2133 C2132 1.366 . S
C2133 C2137 1.385 . S
C2134 H2115 0.951 . S
C2134 C2132 1.388 . S
C2134 C2135 1.366 . S
C2135 C2134 1.366 . S
C2135 C2136 1.414 . S
C2135 C2138 1.499 . S
C2136 H2116 0.950 . S
C2136 C2135 1.414 . S
C2136 C2137 1.374 . S
C2137 H2117 0.950 . S
C2137 C2133 1.385 . S
C2137 C2136 1.374 . S
C2138 C2135 1.499 . S
C2138 C2139 1.373 . S
C2138 C2140 1.389 . S
C2139 H2118 0.950 . S
C2139 C2138 1.373 . S
C2139 C2155 1.377 . S
C2140 C2138 1.389 . S
C2140 C2141 1.524 . S
C2140 C2154 1.377 . S
C2141 C2140 1.524 . S
C2141 C2142 1.397 . S
C2141 C2146 1.363 . S
C2142 H2119 0.950 . S
C2142 C2141 1.397 . S
C2142 C2143 1.334 . S
C2143 H2120 0.950 . S
C2143 C2142 1.334 . S
C2143 C2144 1.287 . S
C2144 C2143 1.287 . S
C2144 C2145 1.524 . S
C2144 H2163 0.913 . S
C2145 H2121 0.950 . S
C2145 C2144 1.524 . S
C2145 C2146 1.415 . S
C2146 H2122 0.950 . S
C2146 C2141 1.363 . S
C2146 C2145 1.415 . S
C2147 H2123 0.951 . S
C2147 C2148 1.366 . S
C2147 C2149 1.388 . S
C2148 C2147 1.366 . S
C2148 C2152 1.385 . S
C2149 H2124 0.951 . S
C2149 C2147 1.388 . S
C2149 C2150 1.366 . S
C2150 C2149 1.366 . S
C2150 C2151 1.414 . S
C2150 C2153 1.499 . S
C2151 H2125 0.950 . S
C2151 C2150 1.414 . S
C2151 C2152 1.374 . S
C2152 H2126 0.950 . S
C2152 C2148 1.385 . S
C2152 C2151 1.374 . S
C2153 C2150 1.499 . S
C2153 C2154 1.373 . S
C2153 C2155 1.389 . S
C2154 H2127 0.950 . S
C2154 C2140 1.377 . S
C2154 C2153 1.373 . S
C2155 C2139 1.377 . S
C2155 C2153 1.389 . S
C2155 C2156 1.524 . S
C2156 C2155 1.524 . S
C2156 C2157 1.397 . S
C2156 C2161 1.363 . S
C2157 H2128 0.950 . S
C2157 C2156 1.397 . S
C2157 C2158 1.334 . S
C2158 H2129 0.950 . S
C2158 C2157 1.334 . S
C2158 C2159 1.287 . S
C2159 C2158 1.287 . S
C2159 C2160 1.524 . S
C2159 H2162 0.999 . S
C2160 H2130 0.950 . S
C2160 C2159 1.524 . S
C2160 C2161 1.415 . S
C2161 H2131 0.950 . S
C2161 C2156 1.363 . S
C2161 C2160 1.415 . S
H2162 C2159 0.999 . S
H2163 C2144 0.913 . S
H2164 C2182 0.920 1_655 S
H2165 C2184 0.951 1_655 S
H2166 C2186 0.950 . S
H2167 C2187 0.950 . S
H2168 C2189 0.950 . S
H2169 C2192 0.950 1_455 S
H2170 C2193 0.950 1_455 S
H2171 C2195 0.950 . S
H2172 C2196 0.950 . S
H2173 C2197 0.921 1_455 S
H2174 C2199 0.951 1_455 S
H2175 C2201 0.950 . S
H2176 C2202 0.950 . S
H2177 C2204 0.950 . S
H2178 C2207 0.950 1_655 S
H2179 C2208 0.950 1_655 S
H2180 C2210 0.950 . S
H2181 C2211 0.950 . S
C2182 H2164 0.920 1_455 S
C2182 C2183 1.366 . S
C2182 C2184 1.388 . S
C2183 C2182 1.366 . S
C2183 C2187 1.385 . S
C2184 H2165 0.951 1_455 S
C2184 C2182 1.388 . S
C2184 C2185 1.366 . S
C2185 C2184 1.366 . S
C2185 C2186 1.414 . S
C2185 C2188 1.499 . S
C2186 H2166 0.950 . S
C2186 C2185 1.414 . S
C2186 C2187 1.374 . S
C2187 H2167 0.950 . S
C2187 C2183 1.385 . S
C2187 C2186 1.374 . S
C2188 C2185 1.499 . S
C2188 C2189 1.373 . S
C2188 C2190 1.389 1_455 S
C2189 H2168 0.950 . S
C2189 C2188 1.373 . S
C2189 C2205 1.377 1_556 S
C2190 C2188 1.389 1_655 S
C2190 C2191 1.524 . S
C2190 C2204 1.377 1_556 S
C2191 C2190 1.524 . S
C2191 C2192 1.397 . S
C2191 C2196 1.363 . S
C2192 H2169 0.950 1_655 S
C2192 C2191 1.397 . S
C2192 C2193 1.334 . S
C2193 H2170 0.950 1_655 S
C2193 C2192 1.334 . S
C2193 C2194 1.287 . S
C2194 C2193 1.287 . S
C2194 C2195 1.524 . S
C2194 H2213 0.913 . S
C2195 H2171 0.950 . S
C2195 C2194 1.524 . S
C2195 C2196 1.415 . S
C2196 H2172 0.950 . S
C2196 C2191 1.363 . S
C2196 C2195 1.415 . S
C2197 H2173 0.921 1_655 S
C2197 C2198 1.366 . S
C2197 C2199 1.388 . S
C2198 C2197 1.366 . S
C2198 C2202 1.385 . S
C2199 H2174 0.951 1_655 S
C2199 C2197 1.388 . S
C2199 C2200 1.366 . S
C2200 C2199 1.366 . S
C2200 C2201 1.414 . S
C2200 C2203 1.499 . S
C2201 H2175 0.950 . S
C2201 C2200 1.414 . S
C2201 C2202 1.374 . S
C2202 H2176 0.950 . S
C2202 C2198 1.385 . S
C2202 C2201 1.374 . S
C2203 C2200 1.499 . S
C2203 C2204 1.373 . S
C2203 C2205 1.389 1_655 S
C2204 H2177 0.950 . S
C2204 C2190 1.377 1_554 S
C2204 C2203 1.373 . S
C2205 C2189 1.377 1_554 S
C2205 C2203 1.389 1_455 S
C2205 C2206 1.524 . S
C2206 C2205 1.524 . S
C2206 C2207 1.397 . S
C2206 C2211 1.363 . S
C2207 H2178 0.950 1_455 S
C2207 C2206 1.397 . S
C2207 C2208 1.334 . S
C2208 H2179 0.950 1_455 S
C2208 C2207 1.334 . S
C2208 C2209 1.287 . S
C2209 C2208 1.287 . S
C2209 C2210 1.524 . S
C2209 H2212 0.999 . S
C2210 H2180 0.950 . S
C2210 C2209 1.524 . S
C2210 C2211 1.415 . S
C2211 H2181 0.950 . S
C2211 C2206 1.363 . S
C2211 C2210 1.415 . S
H2212 C2209 0.999 . S
H2213 C2194 0.913 . S
H2214 C2232 0.951 . S
H2215 C2234 0.951 . S
H2216 C2236 0.951 . S
H2217 C2237 0.950 . S
H2218 C2239 0.950 . S
H2219 C2242 0.950 . S
H2220 C2243 0.950 . S
H2221 C2245 0.950 . S
H2222 C2246 0.925 1_545 S
H2223 C2247 0.951 . S
H2224 C2249 0.951 . S
H2225 C2251 0.951 . S
H2226 C2252 0.950 . S
H2227 C2254 0.950 . S
H2228 C2257 0.950 . S
H2229 C2258 0.950 . S
H2230 C2260 0.950 . S
H2231 C2261 0.950 1_565 S
C2232 H2214 0.951 . S
C2232 C2233 1.366 . S
C2232 C2234 1.388 . S
C2233 C2232 1.366 . S
C2233 C2237 1.385 . S
C2234 H2215 0.951 . S
C2234 C2232 1.388 . S
C2234 C2235 1.366 . S
C2235 C2234 1.366 . S
C2235 C2236 1.414 . S
C2235 C2238 1.499 . S
C2236 H2216 0.951 . S
C2236 C2235 1.414 . S
C2236 C2237 1.374 . S
C2237 H2217 0.950 . S
C2237 C2233 1.385 . S
C2237 C2236 1.374 . S
C2238 C2235 1.499 . S
C2238 C2239 1.373 . S
C2238 C2240 1.389 1_545 S
C2239 H2218 0.950 . S
C2239 C2238 1.373 . S
C2239 C2255 1.377 . S
C2240 C2238 1.389 1_565 S
C2240 C2241 1.524 . S
C2240 C2254 1.377 . S
C2241 C2240 1.524 . S
C2241 C2242 1.397 . S
C2241 C2246 1.351 . S
C2242 H2219 0.950 . S
C2242 C2241 1.397 . S
C2242 C2243 1.334 . S
C2243 H2220 0.950 . S
C2243 C2242 1.334 . S
C2243 C2244 1.287 . S
C2244 C2243 1.287 . S
C2244 C2245 1.524 . S
C2244 H2263 0.913 . S
C2245 H2221 0.950 . S
C2245 C2244 1.524 . S
C2245 C2246 1.456 . S
C2246 H2222 0.925 1_565 S
C2246 C2241 1.351 . S
C2246 C2245 1.456 . S
C2247 H2223 0.951 . S
C2247 C2248 1.366 . S
C2247 C2249 1.388 . S
C2248 C2247 1.366 . S
C2248 C2252 1.385 . S
C2249 H2224 0.951 . S
C2249 C2247 1.388 . S
C2249 C2250 1.366 . S
C2250 C2249 1.366 . S
C2250 C2251 1.414 . S
C2250 C2253 1.499 . S
C2251 H2225 0.951 . S
C2251 C2250 1.414 . S
C2251 C2252 1.374 . S
C2252 H2226 0.950 . S
C2252 C2248 1.385 . S
C2252 C2251 1.374 . S
C2253 C2250 1.499 . S
C2253 C2254 1.373 . S
C2253 C2255 1.389 1_565 S
C2254 H2227 0.950 . S
C2254 C2240 1.377 . S
C2254 C2253 1.373 . S
C2255 C2239 1.377 . S
C2255 C2253 1.389 1_545 S
C2255 C2256 1.524 . S
C2256 C2255 1.524 . S
C2256 C2257 1.397 . S
C2256 C2261 1.363 . S
C2257 H2228 0.950 . S
C2257 C2256 1.397 . S
C2257 C2258 1.334 . S
C2258 H2229 0.950 . S
C2258 C2257 1.334 . S
C2258 C2259 1.287 . S
C2259 C2258 1.287 . S
C2259 C2260 1.524 . S
C2259 H2262 0.999 . S
C2260 H2230 0.950 . S
C2260 C2259 1.524 . S
C2260 C2261 1.415 . S
C2261 H2231 0.950 1_545 S
C2261 C2256 1.363 . S
C2261 C2260 1.415 . S
H2262 C2259 0.999 . S
H2263 C2244 0.913 . S
H2264 C2282 0.951 . S
H2265 C2284 0.951 . S
H2266 C2286 0.950 . S
H2267 C2287 0.950 . S
H2268 C2289 0.950 . S
H2269 C2292 0.950 . S
H2270 C2293 0.950 . S
H2271 C2295 0.950 . S
H2272 C2296 0.950 1_556 S
H2273 C2297 0.951 . S
H2274 C2299 0.951 . S
H2275 C2301 0.950 . S
H2276 C2302 0.950 . S
H2277 C2304 0.950 . S
H2278 C2307 0.950 . S
H2279 C2308 0.950 . S
H2280 C2310 0.950 . S
H2281 C2311 0.950 1_554 S
C2282 H2264 0.951 . S
C2282 C2283 1.366 . S
C2282 C2284 1.388 . S
C2283 C2282 1.366 . S
C2283 C2287 1.385 . S
C2284 H2265 0.951 . S
C2284 C2282 1.388 . S
C2284 C2285 1.366 . S
C2285 C2284 1.366 . S
C2285 C2286 1.414 . S
C2285 C2288 1.499 . S
C2286 H2266 0.950 . S
C2286 C2285 1.414 . S
C2286 C2287 1.374 . S
C2287 H2267 0.950 . S
C2287 C2283 1.385 . S
C2287 C2286 1.374 . S
C2288 C2285 1.499 . S
C2288 C2289 1.373 . S
C2288 C2290 1.389 . S
C2289 H2268 0.950 . S
C2289 C2288 1.373 . S
C2289 C2305 1.377 1_554 S
C2290 C2288 1.389 . S
C2290 C2291 1.524 . S
C2290 C2304 1.377 1_554 S
C2291 C2290 1.524 . S
C2291 C2292 1.397 . S
C2291 C2296 1.363 . S
C2292 H2269 0.950 . S
C2292 C2291 1.397 . S
C2292 C2293 1.334 . S
C2293 H2270 0.950 . S
C2293 C2292 1.334 . S
C2293 C2294 1.287 . S
C2294 C2293 1.287 . S
C2294 C2295 1.524 . S
C2294 H2313 0.913 . S
C2295 H2271 0.950 . S
C2295 C2294 1.524 . S
C2295 C2296 1.415 . S
C2296 H2272 0.950 1_554 S
C2296 C2291 1.363 . S
C2296 C2295 1.415 . S
C2297 H2273 0.951 . S
C2297 C2298 1.366 . S
C2297 C2299 1.388 . S
C2298 C2297 1.366 . S
C2298 C2302 1.385 . S
C2299 H2274 0.951 . S
C2299 C2297 1.388 . S
C2299 C2300 1.366 . S
C2300 C2299 1.366 . S
C2300 C2301 1.414 . S
C2300 C2303 1.499 . S
C2301 H2275 0.950 . S
C2301 C2300 1.414 . S
C2301 C2302 1.374 . S
C2302 H2276 0.950 . S
C2302 C2298 1.385 . S
C2302 C2301 1.374 . S
C2303 C2300 1.499 . S
C2303 C2304 1.373 . S
C2303 C2305 1.389 . S
C2304 H2277 0.950 . S
C2304 C2290 1.377 1_556 S
C2304 C2303 1.373 . S
C2305 C2289 1.377 1_556 S
C2305 C2303 1.389 . S
C2305 C2306 1.524 . S
C2306 C2305 1.524 . S
C2306 C2307 1.397 . S
C2306 C2311 1.363 . S
C2307 H2278 0.950 . S
C2307 C2306 1.397 . S
C2307 C2308 1.334 . S
C2308 H2279 0.950 . S
C2308 C2307 1.334 . S
C2308 C2309 1.287 . S
C2309 C2308 1.287 . S
C2309 C2310 1.524 . S
C2309 H2312 0.999 . S
C2310 H2280 0.950 . S
C2310 C2309 1.524 . S
C2310 C2311 1.415 . S
C2311 H2281 0.950 1_556 S
C2311 C2306 1.363 . S
C2311 C2310 1.415 . S
H2312 C2309 0.999 . S
H2313 C2294 0.913 . S
H2314 C2332 0.951 . S
H2315 C2334 0.951 . S
H2316 C2336 0.950 1_655 S
H2317 C2337 0.946 1_655 S
H2318 C2339 0.950 . S
H2319 C2342 0.967 . S
H2320 C2343 0.950 . S
H2321 C2345 0.950 . S
H2322 C2346 0.950 . S
H2323 C2347 0.951 . S
H2324 C2349 0.951 . S
H2325 C2351 0.950 1_455 S
H2326 C2352 0.945 1_455 S
H2327 C2354 0.950 . S
H2328 C2357 0.966 . S
H2329 C2358 0.950 . S
H2330 C2360 0.950 . S
H2331 C2361 0.950 . S
C2332 H2314 0.951 . S
C2332 C2333 1.366 . S
C2332 C2334 1.388 . S
C2333 C2332 1.366 . S
C2333 C2337 1.385 . S
C2334 H2315 0.951 . S
C2334 C2332 1.388 . S
C2334 C2335 1.366 . S
C2335 C2334 1.366 . S
C2335 C2336 1.414 . S
C2335 C2338 1.499 . S
C2336 H2316 0.950 1_455 S
C2336 C2335 1.414 . S
C2336 C2337 1.374 . S
C2337 H2317 0.946 1_455 S
C2337 C2333 1.385 . S
C2337 C2336 1.374 . S
C2338 C2335 1.499 . S
C2338 C2339 1.373 1_455 S
C2338 C2340 1.389 . S
C2339 H2318 0.950 . S
C2339 C2338 1.373 1_655 S
C2339 C2355 1.377 . S
C2340 C2338 1.389 . S
C2340 C2341 1.524 . S
C2340 C2354 1.377 . S
C2341 C2340 1.524 . S
C2341 C2342 1.397 . S
C2341 C2346 1.363 . S
C2342 H2319 0.967 . S
C2342 C2341 1.397 . S
C2342 C2343 1.334 . S
C2343 H2320 0.950 . S
C2343 C2342 1.334 . S
C2343 C2344 1.287 . S
C2344 C2343 1.287 . S
C2344 C2345 1.524 . S
C2344 H2363 0.913 . S
C2345 H2321 0.950 . S
C2345 C2344 1.524 . S
C2345 C2346 1.415 . S
C2346 H2322 0.950 . S
C2346 C2341 1.363 . S
C2346 C2345 1.415 . S
C2347 H2323 0.951 . S
C2347 C2348 1.366 . S
C2347 C2349 1.388 . S
C2348 C2347 1.366 . S
C2348 C2352 1.385 . S
C2349 H2324 0.951 . S
C2349 C2347 1.388 . S
C2349 C2350 1.366 . S
C2350 C2349 1.366 . S
C2350 C2351 1.414 . S
C2350 C2353 1.499 . S
C2351 H2325 0.950 1_655 S
C2351 C2350 1.414 . S
C2351 C2352 1.374 . S
C2352 H2326 0.945 1_655 S
C2352 C2348 1.385 . S
C2352 C2351 1.374 . S
C2353 C2350 1.499 . S
C2353 C2354 1.373 1_655 S
C2353 C2355 1.389 . S
C2354 H2327 0.950 . S
C2354 C2340 1.377 . S
C2354 C2353 1.373 1_455 S
C2355 C2339 1.377 . S
C2355 C2353 1.389 . S
C2355 C2356 1.524 . S
C2356 C2355 1.524 . S
C2356 C2357 1.397 . S
C2356 C2361 1.363 . S
C2357 H2328 0.966 . S
C2357 C2356 1.397 . S
C2357 C2358 1.334 . S
C2358 H2329 0.950 . S
C2358 C2357 1.334 . S
C2358 C2359 1.287 . S
C2359 C2358 1.287 . S
C2359 C2360 1.524 . S
C2359 H2362 0.999 . S
C2360 H2330 0.950 . S
C2360 C2359 1.524 . S
C2360 C2361 1.415 . S
C2361 H2331 0.950 . S
C2361 C2356 1.363 . S
C2361 C2360 1.415 . S
H2362 C2359 0.999 . S
H2363 C2344 0.913 . S
H2364 C2382 0.951 . S
H2365 C2384 0.951 . S
H2366 C2386 0.950 1_545 S
H2367 C2387 0.919 1_545 S
H2368 C2389 0.950 . S
H2369 C2392 0.950 . S
H2370 C2393 0.950 . S
H2371 C2395 0.924 1_554 S
H2372 C2396 0.950 . S
H2373 C2397 0.951 . S
H2374 C2399 0.951 . S
H2375 C2401 0.950 1_565 S
H2376 C2402 0.920 1_565 S
H2377 C2404 0.950 . S
H2378 C2407 0.950 . S
H2379 C2408 0.950 . S
H2380 C2410 0.924 1_556 S
H2381 C2411 0.950 . S
C2382 H2364 0.951 . S
C2382 C2383 1.366 . S
C2382 C2384 1.388 . S
C2383 C2382 1.366 . S
C2383 C2387 1.385 . S
C2384 H2365 0.951 . S
C2384 C2382 1.388 . S
C2384 C2385 1.366 . S
C2385 C2384 1.366 . S
C2385 C2386 1.414 . S
C2385 C2388 1.499 . S
C2386 H2366 0.950 1_565 S
C2386 C2385 1.414 . S
C2386 C2387 1.374 . S
C2387 H2367 0.919 1_565 S
C2387 C2383 1.385 . S
C2387 C2386 1.374 . S
C2388 C2385 1.499 . S
C2388 C2389 1.373 1_565 S
C2388 C2390 1.389 . S
C2389 H2368 0.950 . S
C2389 C2388 1.373 1_545 S
C2389 C2405 1.377 1_556 S
C2390 C2388 1.389 . S
C2390 C2391 1.524 . S
C2390 C2404 1.377 1_556 S
C2391 C2390 1.524 . S
C2391 C2392 1.397 . S
C2391 C2396 1.363 1_556 S
C2392 H2369 0.950 . S
C2392 C2391 1.397 . S
C2392 C2393 1.334 . S
C2393 H2370 0.950 . S
C2393 C2392 1.334 . S
C2393 C2394 1.287 . S
C2394 C2393 1.287 . S
C2394 C2395 1.564 . S
C2394 H2413 0.913 . S
C2395 H2371 0.924 1_556 S
C2395 C2394 1.564 . S
C2395 C2396 1.407 1_556 S
C2396 H2372 0.950 . S
C2396 C2391 1.363 1_554 S
C2396 C2395 1.407 1_554 S
C2397 H2373 0.951 . S
C2397 C2398 1.366 . S
C2397 C2399 1.388 . S
C2398 C2397 1.366 . S
C2398 C2402 1.385 . S
C2399 H2374 0.951 . S
C2399 C2397 1.388 . S
C2399 C2400 1.366 . S
C2400 C2399 1.366 . S
C2400 C2401 1.414 . S
C2400 C2403 1.499 . S
C2401 H2375 0.950 1_545 S
C2401 C2400 1.414 . S
C2401 C2402 1.374 . S
C2402 H2376 0.920 1_545 S
C2402 C2398 1.385 . S
C2402 C2401 1.374 . S
C2403 C2400 1.499 . S
C2403 C2404 1.373 1_545 S
C2403 C2405 1.389 . S
C2404 H2377 0.950 . S
C2404 C2390 1.377 1_554 S
C2404 C2403 1.373 1_565 S
C2405 C2389 1.377 1_554 S
C2405 C2403 1.389 . S
C2405 C2406 1.524 . S
C2406 C2405 1.524 . S
C2406 C2407 1.397 . S
C2406 C2411 1.363 1_554 S
C2407 H2378 0.950 . S
C2407 C2406 1.397 . S
C2407 C2408 1.334 . S
C2408 H2379 0.950 . S
C2408 C2407 1.334 . S
C2408 C2409 1.287 . S
C2409 C2408 1.287 . S
C2409 C2410 1.564 . S
C2409 H2412 0.999 . S
C2410 H2380 0.924 1_554 S
C2410 C2409 1.564 . S
C2410 C2411 1.407 1_554 S
C2411 H2381 0.950 . S
C2411 C2406 1.363 1_556 S
C2411 C2410 1.407 1_556 S
H2412 C2409 0.999 . S
H2413 C2394 0.913 . S
H2414 C2432 0.951 . S
H2415 C2434 0.951 . S
H2416 C2436 0.950 . S
H2417 C2437 0.950 . S
H2418 C2439 0.950 . S
H2419 C2442 0.950 . S
H2420 C2443 0.950 . S
H2421 C2445 0.950 . S
H2422 C2446 0.950 . S
H2423 C2447 0.951 . S
H2424 C2449 0.951 . S
H2425 C2451 0.950 . S
H2426 C2452 0.950 . S
H2427 C2454 0.950 . S
H2428 C2457 0.950 . S
H2429 C2458 0.950 . S
H2430 C2460 0.950 . S
H2431 C2461 0.950 . S
C2432 H2414 0.951 . S
C2432 C2433 1.366 . S
C2432 C2434 1.388 . S
C2433 C2432 1.366 . S
C2433 C2437 1.385 . S
C2434 H2415 0.951 . S
C2434 C2432 1.388 . S
C2434 C2435 1.366 . S
C2435 C2434 1.366 . S
C2435 C2436 1.414 . S
C2435 C2438 1.499 . S
C2436 H2416 0.950 . S
C2436 C2435 1.414 . S
C2436 C2437 1.374 . S
C2437 H2417 0.950 . S
C2437 C2433 1.385 . S
C2437 C2436 1.374 . S
C2438 C2435 1.499 . S
C2438 C2439 1.373 . S
C2438 C2440 1.389 . S
C2439 H2418 0.950 . S
C2439 C2438 1.373 . S
C2439 C2455 1.377 . S
C2440 C2438 1.389 . S
C2440 C2441 1.524 . S
C2440 C2454 1.377 . S
C2441 C2440 1.524 . S
C2441 C2442 1.397 . S
C2441 C2446 1.363 . S
C2442 H2419 0.950 . S
C2442 C2441 1.397 . S
C2442 C2443 1.334 . S
C2443 H2420 0.950 . S
C2443 C2442 1.334 . S
C2443 C2444 1.287 . S
C2444 C2443 1.287 . S
C2444 C2445 1.524 . S
C2444 H2463 0.913 . S
C2445 H2421 0.950 . S
C2445 C2444 1.524 . S
C2445 C2446 1.415 . S
C2446 H2422 0.950 . S
C2446 C2441 1.363 . S
C2446 C2445 1.415 . S
C2447 H2423 0.951 . S
C2447 C2448 1.366 . S
C2447 C2449 1.388 . S
C2448 C2447 1.366 . S
C2448 C2452 1.385 . S
C2449 H2424 0.951 . S
C2449 C2447 1.388 . S
C2449 C2450 1.366 . S
C2450 C2449 1.366 . S
C2450 C2451 1.414 . S
C2450 C2453 1.499 . S
C2451 H2425 0.950 . S
C2451 C2450 1.414 . S
C2451 C2452 1.374 . S
C2452 H2426 0.950 . S
C2452 C2448 1.385 . S
C2452 C2451 1.374 . S
C2453 C2450 1.499 . S
C2453 C2454 1.373 . S
C2453 C2455 1.389 . S
C2454 H2427 0.950 . S
C2454 C2440 1.377 . S
C2454 C2453 1.373 . S
C2455 C2439 1.377 . S
C2455 C2453 1.389 . S
C2455 C2456 1.524 . S
C2456 C2455 1.524 . S
C2456 C2457 1.397 . S
C2456 C2461 1.363 . S
C2457 H2428 0.950 . S
C2457 C2456 1.397 . S
C2457 C2458 1.334 . S
C2458 H2429 0.950 . S
C2458 C2457 1.334 . S
C2458 C2459 1.287 . S
C2459 C2458 1.287 . S
C2459 C2460 1.524 . S
C2459 H2462 0.999 . S
C2460 H2430 0.950 . S
C2460 C2459 1.524 . S
C2460 C2461 1.415 . S
C2461 H2431 0.950 . S
C2461 C2456 1.363 . S
C2461 C2460 1.415 . S
H2462 C2459 0.999 . S
H2463 C2444 0.913 . S
H2464 C2482 0.951 . S
H2465 C2484 0.951 . S
H2466 C2486 0.950 . S
H2467 C2487 0.950 . S
H2468 C2489 0.950 . S
H2469 C2492 0.950 . S
H2470 C2493 0.950 . S
H2471 C2495 0.950 . S
H2472 C2496 0.950 1_556 S
H2473 C2497 0.951 . S
H2474 C2499 0.951 . S
H2475 C2501 0.950 . S
H2476 C2502 0.950 . S
H2477 C2504 0.950 . S
H2478 C2507 0.950 . S
H2479 C2508 0.950 . S
H2480 C2510 0.950 . S
H2481 C2511 0.950 1_554 S
C2482 H2464 0.951 . S
C2482 C2483 1.366 . S
C2482 C2484 1.388 . S
C2483 C2482 1.366 . S
C2483 C2487 1.385 . S
C2484 H2465 0.951 . S
C2484 C2482 1.388 . S
C2484 C2485 1.366 . S
C2485 C2484 1.366 . S
C2485 C2486 1.414 . S
C2485 C2488 1.499 . S
C2486 H2466 0.950 . S
C2486 C2485 1.414 . S
C2486 C2487 1.374 . S
C2487 H2467 0.950 . S
C2487 C2483 1.385 . S
C2487 C2486 1.374 . S
C2488 C2485 1.499 . S
C2488 C2489 1.373 1_655 S
C2488 C2490 1.389 . S
C2489 H2468 0.950 . S
C2489 C2488 1.373 1_455 S
C2489 C2505 1.377 1_554 S
C2490 C2488 1.389 . S
C2490 C2491 1.524 . S
C2490 C2504 1.377 1_554 S
C2491 C2490 1.524 . S
C2491 C2492 1.397 . S
C2491 C2496 1.363 . S
C2492 H2469 0.950 . S
C2492 C2491 1.397 . S
C2492 C2493 1.334 . S
C2493 H2470 0.950 . S
C2493 C2492 1.334 . S
C2493 C2494 1.287 . S
C2494 C2493 1.287 . S
C2494 C2495 1.524 . S
C2494 H2513 0.913 . S
C2495 H2471 0.950 . S
C2495 C2494 1.524 . S
C2495 C2496 1.415 . S
C2496 H2472 0.950 1_554 S
C2496 C2491 1.363 . S
C2496 C2495 1.415 . S
C2497 H2473 0.951 . S
C2497 C2498 1.366 . S
C2497 C2499 1.388 . S
C2498 C2497 1.366 . S
C2498 C2502 1.385 . S
C2499 H2474 0.951 . S
C2499 C2497 1.388 . S
C2499 C2500 1.366 . S
C2500 C2499 1.366 . S
C2500 C2501 1.414 . S
C2500 C2503 1.499 . S
C2501 H2475 0.950 . S
C2501 C2500 1.414 . S
C2501 C2502 1.374 . S
C2502 H2476 0.950 . S
C2502 C2498 1.385 . S
C2502 C2501 1.374 . S
C2503 C2500 1.499 . S
C2503 C2504 1.373 1_455 S
C2503 C2505 1.389 . S
C2504 H2477 0.950 . S
C2504 C2490 1.377 1_556 S
C2504 C2503 1.373 1_655 S
C2505 C2489 1.377 1_556 S
C2505 C2503 1.389 . S
C2505 C2506 1.524 . S
C2506 C2505 1.524 . S
C2506 C2507 1.397 . S
C2506 C2511 1.363 . S
C2507 H2478 0.950 . S
C2507 C2506 1.397 . S
C2507 C2508 1.334 . S
C2508 H2479 0.950 . S
C2508 C2507 1.334 . S
C2508 C2509 1.287 . S
C2509 C2508 1.287 . S
C2509 C2510 1.524 . S
C2509 H2512 0.999 . S
C2510 H2480 0.950 . S
C2510 C2509 1.524 . S
C2510 C2511 1.415 . S
C2511 H2481 0.950 1_556 S
C2511 C2506 1.363 . S
C2511 C2510 1.415 . S
H2512 C2509 0.999 . S
H2513 C2494 0.913 . S
H2514 C2532 0.951 . S
H2515 C2534 0.951 . S
H2516 C2536 0.950 . S
H2517 C2537 0.950 . S
H2518 C2539 0.950 . S
H2519 C2542 0.950 . S
H2520 C2543 0.950 . S
H2521 C2545 0.950 . S
H2522 C2546 0.950 . S
H2523 C2547 0.951 . S
H2524 C2549 0.951 . S
H2525 C2551 0.950 . S
H2526 C2552 0.950 . S
H2527 C2554 0.950 . S
H2528 C2557 0.950 . S
H2529 C2558 0.950 . S
H2530 C2560 0.950 . S
H2531 C2561 0.950 . S
C2532 H2514 0.951 . S
C2532 C2533 1.366 . S
C2532 C2534 1.388 . S
C2533 C2532 1.366 . S
C2533 C2537 1.385 . S
C2534 H2515 0.951 . S
C2534 C2532 1.388 . S
C2534 C2535 1.366 . S
C2535 C2534 1.366 . S
C2535 C2536 1.414 . S
C2535 C2538 1.499 . S
C2536 H2516 0.950 . S
C2536 C2535 1.414 . S
C2536 C2537 1.374 . S
C2537 H2517 0.950 . S
C2537 C2533 1.385 . S
C2537 C2536 1.374 . S
C2538 C2535 1.499 . S
C2538 C2539 1.373 1_565 S
C2538 C2540 1.389 . S
C2539 H2518 0.950 . S
C2539 C2538 1.373 1_545 S
C2539 C2555 1.377 . S
C2540 C2538 1.389 . S
C2540 C2541 1.524 . S
C2540 C2554 1.377 . S
C2541 C2540 1.524 . S
C2541 C2542 1.397 . S
C2541 C2546 1.363 . S
C2542 H2519 0.950 . S
C2542 C2541 1.397 . S
C2542 C2543 1.334 . S
C2543 H2520 0.950 . S
C2543 C2542 1.334 . S
C2543 C2544 1.287 . S
C2544 C2543 1.287 . S
C2544 C2545 1.524 . S
C2544 H2563 0.913 . S
C2545 H2521 0.950 . S
C2545 C2544 1.524 . S
C2545 C2546 1.415 . S
C2546 H2522 0.950 . S
C2546 C2541 1.363 . S
C2546 C2545 1.415 . S
C2547 H2523 0.951 . S
C2547 C2548 1.366 . S
C2547 C2549 1.388 . S
C2548 C2547 1.366 . S
C2548 C2552 1.385 . S
C2549 H2524 0.951 . S
C2549 C2547 1.388 . S
C2549 C2550 1.366 . S
C2550 C2549 1.366 . S
C2550 C2551 1.414 . S
C2550 C2553 1.499 . S
C2551 H2525 0.950 . S
C2551 C2550 1.414 . S
C2551 C2552 1.374 . S
C2552 H2526 0.950 . S
C2552 C2548 1.385 . S
C2552 C2551 1.374 . S
C2553 C2550 1.499 . S
C2553 C2554 1.373 1_545 S
C2553 C2555 1.389 . S
C2554 H2527 0.950 . S
C2554 C2540 1.377 . S
C2554 C2553 1.373 1_565 S
C2555 C2539 1.377 . S
C2555 C2553 1.389 . S
C2555 C2556 1.524 . S
C2556 C2555 1.524 . S
C2556 C2557 1.397 . S
C2556 C2561 1.363 . S
C2557 H2528 0.950 . S
C2557 C2556 1.397 . S
C2557 C2558 1.334 . S
C2558 H2529 0.950 . S
C2558 C2557 1.334 . S
C2558 C2559 1.287 . S
C2559 C2558 1.287 . S
C2559 C2560 1.524 . S
C2559 H2562 0.999 . S
C2560 H2530 0.950 . S
C2560 C2559 1.524 . S
C2560 C2561 1.415 . S
C2561 H2531 0.950 . S
C2561 C2556 1.363 . S
C2561 C2560 1.415 . S
H2562 C2559 0.999 . S
H2563 C2544 0.913 . S
H2564 C2582 0.951 . S
H2565 C2584 0.951 . S
H2566 C2586 0.950 . S
H2567 C2587 0.950 . S
H2568 C2589 0.950 . S
H2569 C2592 0.950 . S
H2570 C2593 0.950 . S
H2571 C2595 0.950 . S
H2572 C2596 0.950 . S
H2573 C2597 0.951 . S
H2574 C2599 0.951 . S
H2575 C2601 0.950 . S
H2576 C2602 0.950 . S
H2577 C2604 0.950 . S
H2578 C2607 0.950 . S
H2579 C2608 0.950 . S
H2580 C2610 0.950 . S
H2581 C2611 0.950 . S
C2582 H2564 0.951 . S
C2582 C2583 1.366 . S
C2582 C2584 1.388 . S
C2583 C2582 1.366 . S
C2583 C2587 1.385 . S
C2584 H2565 0.951 . S
C2584 C2582 1.388 . S
C2584 C2585 1.366 . S
C2585 C2584 1.366 . S
C2585 C2586 1.414 . S
C2585 C2588 1.499 . S
C2586 H2566 0.950 . S
C2586 C2585 1.414 . S
C2586 C2587 1.374 . S
C2587 H2567 0.950 . S
C2587 C2583 1.385 . S
C2587 C2586 1.374 . S
C2588 C2585 1.499 . S
C2588 C2589 1.373 . S
C2588 C2590 1.389 . S
C2589 H2568 0.950 . S
C2589 C2588 1.373 . S
C2589 C2605 1.377 1_554 S
C2590 C2588 1.389 . S
C2590 C2591 1.524 . S
C2590 C2604 1.377 1_554 S
C2591 C2590 1.524 . S
C2591 C2592 1.397 . S
C2591 C2596 1.363 . S
C2592 H2569 0.950 . S
C2592 C2591 1.397 . S
C2592 C2593 1.334 . S
C2593 H2570 0.950 . S
C2593 C2592 1.334 . S
C2593 C2594 1.287 . S
C2594 C2593 1.287 . S
C2594 C2595 1.524 . S
C2594 H2613 0.913 . S
C2595 H2571 0.950 . S
C2595 C2594 1.524 . S
C2595 C2596 1.415 . S
C2596 H2572 0.950 . S
C2596 C2591 1.363 . S
C2596 C2595 1.415 . S
C2597 H2573 0.951 . S
C2597 C2598 1.366 . S
C2597 C2599 1.388 . S
C2598 C2597 1.366 . S
C2598 C2602 1.385 . S
C2599 H2574 0.951 . S
C2599 C2597 1.388 . S
C2599 C2600 1.366 . S
C2600 C2599 1.366 . S
C2600 C2601 1.414 . S
C2600 C2603 1.499 . S
C2601 H2575 0.950 . S
C2601 C2600 1.414 . S
C2601 C2602 1.374 . S
C2602 H2576 0.950 . S
C2602 C2598 1.385 . S
C2602 C2601 1.374 . S
C2603 C2600 1.499 . S
C2603 C2604 1.373 . S
C2603 C2605 1.389 . S
C2604 H2577 0.950 . S
C2604 C2590 1.377 1_556 S
C2604 C2603 1.373 . S
C2605 C2589 1.377 1_556 S
C2605 C2603 1.389 . S
C2605 C2606 1.524 . S
C2606 C2605 1.524 . S
C2606 C2607 1.397 . S
C2606 C2611 1.363 . S
C2607 H2578 0.950 . S
C2607 C2606 1.397 . S
C2607 C2608 1.334 . S
C2608 H2579 0.950 . S
C2608 C2607 1.334 . S
C2608 C2609 1.287 . S
C2609 C2608 1.287 . S
C2609 C2610 1.524 . S
C2609 H2612 0.999 . S
C2610 H2580 0.950 . S
C2610 C2609 1.524 . S
C2610 C2611 1.415 . S
C2611 H2581 0.950 . S
C2611 C2606 1.363 . S
C2611 C2610 1.415 . S
H2612 C2609 0.999 . S
H2613 C2594 0.913 . S
H2614 C2632 0.951 . S
H2615 C2634 0.951 . S
H2616 C2636 0.950 1_655 S
H2617 C2637 0.950 . S
H2618 C2639 0.950 . S
H2619 C2642 0.950 . S
H2620 C2643 0.950 . S
H2621 C2645 0.950 . S
H2622 C2646 0.950 . S
H2623 C2647 0.951 . S
H2624 C2649 0.951 . S
H2625 C2651 0.950 1_455 S
H2626 C2652 0.950 . S
H2627 C2654 0.950 . S
H2628 C2657 0.950 . S
H2629 C2658 0.950 . S
H2630 C2660 0.950 . S
H2631 C2661 0.950 . S
C2632 H2614 0.951 . S
C2632 C2633 1.366 . S
C2632 C2634 1.388 . S
C2633 C2632 1.366 . S
C2633 C2637 1.385 . S
C2634 H2615 0.951 . S
C2634 C2632 1.388 . S
C2634 C2635 1.366 . S
C2635 C2634 1.366 . S
C2635 C2636 1.414 . S
C2635 C2638 1.499 . S
C2636 H2616 0.950 1_455 S
C2636 C2635 1.414 . S
C2636 C2637 1.374 . S
C2637 H2617 0.950 . S
C2637 C2633 1.385 . S
C2637 C2636 1.374 . S
C2638 C2635 1.499 . S
C2638 C2639 1.373 . S
C2638 C2640 1.419 . S
C2639 H2618 0.950 . S
C2639 C2638 1.373 . S
C2639 C2655 1.367 1_455 S
C2640 C2638 1.419 . S
C2640 C2641 1.489 1_455 S
C2640 C2654 1.367 1_455 S
C2641 C2640 1.489 1_655 S
C2641 C2642 1.413 . S
C2641 C2646 1.364 1_655 S
C2642 H2619 0.950 . S
C2642 C2641 1.413 . S
C2642 C2643 1.334 . S
C2643 H2620 0.950 . S
C2643 C2642 1.334 . S
C2643 C2644 1.287 . S
C2644 C2643 1.287 . S
C2644 C2645 1.524 1_655 S
C2644 H2663 0.913 . S
C2645 H2621 0.950 . S
C2645 C2644 1.524 1_455 S
C2645 C2646 1.415 . S
C2646 H2622 0.950 . S
C2646 C2641 1.364 1_455 S
C2646 C2645 1.415 . S
C2647 H2623 0.951 . S
C2647 C2648 1.366 . S
C2647 C2649 1.388 . S
C2648 C2647 1.366 . S
C2648 C2652 1.385 . S
C2649 H2624 0.951 . S
C2649 C2647 1.388 . S
C2649 C2650 1.366 . S
C2650 C2649 1.366 . S
C2650 C2651 1.414 . S
C2650 C2653 1.499 . S
C2651 H2625 0.950 1_655 S
C2651 C2650 1.414 . S
C2651 C2652 1.374 . S
C2652 H2626 0.950 . S
C2652 C2648 1.385 . S
C2652 C2651 1.374 . S
C2653 C2650 1.499 . S
C2653 C2654 1.373 . S
C2653 C2655 1.420 . S
C2654 H2627 0.950 . S
C2654 C2640 1.367 1_655 S
C2654 C2653 1.373 . S
C2655 C2639 1.367 1_655 S
C2655 C2653 1.420 . S
C2655 C2656 1.489 1_655 S
C2656 C2655 1.489 1_455 S
C2656 C2657 1.412 . S
C2656 C2661 1.364 1_455 S
C2657 H2628 0.950 . S
C2657 C2656 1.412 . S
C2657 C2658 1.334 . S
C2658 H2629 0.950 . S
C2658 C2657 1.334 . S
C2658 C2659 1.287 . S
C2659 C2658 1.287 . S
C2659 C2660 1.524 1_455 S
C2659 H2662 0.999 . S
C2660 H2630 0.950 . S
C2660 C2659 1.524 1_655 S
C2660 C2661 1.415 . S
C2661 H2631 0.950 . S
C2661 C2656 1.364 1_655 S
C2661 C2660 1.415 . S
H2662 C2659 0.999 . S
H2663 C2644 0.913 . S
H2664 C2682 0.951 . S
H2665 C2684 0.951 . S
H2666 C2686 0.950 . S
H2667 C2687 0.950 . S
H2668 C2689 0.950 . S
H2669 C2692 0.950 . S
H2670 C2693 0.950 . S
H2671 C2695 0.950 . S
H2672 C2696 0.950 . S
H2673 C2697 0.951 . S
H2674 C2699 0.951 . S
H2675 C2701 0.950 . S
H2676 C2702 0.950 . S
H2677 C2704 0.950 . S
H2678 C2707 0.950 . S
H2679 C2708 0.950 . S
H2680 C2710 0.950 . S
H2681 C2711 0.950 . S
C2682 H2664 0.951 . S
C2682 C2683 1.366 . S
C2682 C2684 1.388 . S
C2683 C2682 1.366 . S
C2683 C2687 1.385 . S
C2684 H2665 0.951 . S
C2684 C2682 1.388 . S
C2684 C2685 1.366 . S
C2685 C2684 1.366 . S
C2685 C2686 1.414 . S
C2685 C2688 1.499 . S
C2686 H2666 0.950 . S
C2686 C2685 1.414 . S
C2686 C2687 1.374 . S
C2687 H2667 0.950 . S
C2687 C2683 1.385 . S
C2687 C2686 1.374 . S
C2688 C2685 1.499 . S
C2688 C2689 1.373 . S
C2688 C2690 1.389 . S
C2689 H2668 0.950 . S
C2689 C2688 1.373 . S
C2689 C2705 1.377 . S
C2690 C2688 1.389 . S
C2690 C2691 1.524 . S
C2690 C2704 1.377 . S
C2691 C2690 1.524 . S
C2691 C2692 1.397 . S
C2691 C2696 1.363 . S
C2692 H2669 0.950 . S
C2692 C2691 1.397 . S
C2692 C2693 1.334 . S
C2693 H2670 0.950 . S
C2693 C2692 1.334 . S
C2693 C2694 1.287 . S
C2694 C2693 1.287 . S
C2694 C2695 1.524 . S
C2694 H2713 0.913 . S
C2695 H2671 0.950 . S
C2695 C2694 1.524 . S
C2695 C2696 1.415 . S
C2696 H2672 0.950 . S
C2696 C2691 1.363 . S
C2696 C2695 1.415 . S
C2697 H2673 0.951 . S
C2697 C2698 1.366 . S
C2697 C2699 1.388 . S
C2698 C2697 1.366 . S
C2698 C2702 1.385 . S
C2699 H2674 0.951 . S
C2699 C2697 1.388 . S
C2699 C2700 1.366 . S
C2700 C2699 1.366 . S
C2700 C2701 1.414 . S
C2700 C2703 1.499 . S
C2701 H2675 0.950 . S
C2701 C2700 1.414 . S
C2701 C2702 1.374 . S
C2702 H2676 0.950 . S
C2702 C2698 1.385 . S
C2702 C2701 1.374 . S
C2703 C2700 1.499 . S
C2703 C2704 1.373 . S
C2703 C2705 1.389 . S
C2704 H2677 0.950 . S
C2704 C2690 1.377 . S
C2704 C2703 1.373 . S
C2705 C2689 1.377 . S
C2705 C2703 1.389 . S
C2705 C2706 1.524 . S
C2706 C2705 1.524 . S
C2706 C2707 1.397 . S
C2706 C2711 1.363 . S
C2707 H2678 0.950 . S
C2707 C2706 1.397 . S
C2707 C2708 1.334 . S
C2708 H2679 0.950 . S
C2708 C2707 1.334 . S
C2708 C2709 1.287 . S
C2709 C2708 1.287 . S
C2709 C2710 1.524 . S
C2709 H2712 0.999 . S
C2710 H2680 0.950 . S
C2710 C2709 1.524 . S
C2710 C2711 1.415 . S
C2711 H2681 0.950 . S
C2711 C2706 1.363 . S
C2711 C2710 1.415 . S
H2712 C2709 0.999 . S
H2713 C2694 0.913 . S
H2714 C2732 0.951 . S
H2715 C2734 0.951 . S
H2716 C2736 0.950 . S
H2717 C2737 0.950 . S
H2718 C2739 0.950 . S
H2719 C2742 0.950 . S
H2720 C2743 0.950 . S
H2721 C2745 0.950 . S
H2722 C2746 0.950 . S
H2723 C2747 0.951 . S
H2724 C2749 0.951 . S
H2725 C2751 0.950 . S
H2726 C2752 0.950 . S
H2727 C2754 0.950 . S
H2728 C2757 0.950 . S
H2729 C2758 0.950 . S
H2730 C2760 0.950 . S
H2731 C2761 0.950 . S
C2732 H2714 0.951 . S
C2732 C2733 1.366 . S
C2732 C2734 1.388 . S
C2733 C2732 1.366 . S
C2733 C2737 1.385 . S
C2734 H2715 0.951 . S
C2734 C2732 1.388 . S
C2734 C2735 1.366 . S
C2735 C2734 1.366 . S
C2735 C2736 1.414 . S
C2735 C2738 1.499 . S
C2736 H2716 0.950 . S
C2736 C2735 1.414 . S
C2736 C2737 1.374 . S
C2737 H2717 0.950 . S
C2737 C2733 1.385 . S
C2737 C2736 1.374 . S
C2738 C2735 1.499 . S
C2738 C2739 1.373 . S
C2738 C2740 1.389 . S
C2739 H2718 0.950 . S
C2739 C2738 1.373 . S
C2739 C2755 1.377 . S
C2740 C2738 1.389 . S
C2740 C2741 1.524 . S
C2740 C2754 1.377 . S
C2741 C2740 1.524 . S
C2741 C2742 1.397 . S
C2741 C2746 1.363 . S
C2742 H2719 0.950 . S
C2742 C2741 1.397 . S
C2742 C2743 1.334 . S
C2743 H2720 0.950 . S
C2743 C2742 1.334 . S
C2743 C2744 1.287 . S
C2744 C2743 1.287 . S
C2744 C2745 1.524 . S
C2744 H2763 0.913 . S
C2745 H2721 0.950 . S
C2745 C2744 1.524 . S
C2745 C2746 1.415 . S
C2746 H2722 0.950 . S
C2746 C2741 1.363 . S
C2746 C2745 1.415 . S
C2747 H2723 0.951 . S
C2747 C2748 1.366 . S
C2747 C2749 1.388 . S
C2748 C2747 1.366 . S
C2748 C2752 1.385 . S
C2749 H2724 0.951 . S
C2749 C2747 1.388 . S
C2749 C2750 1.366 . S
C2750 C2749 1.366 . S
C2750 C2751 1.414 . S
C2750 C2753 1.499 . S
C2751 H2725 0.950 . S
C2751 C2750 1.414 . S
C2751 C2752 1.374 . S
C2752 H2726 0.950 . S
C2752 C2748 1.385 . S
C2752 C2751 1.374 . S
C2753 C2750 1.499 . S
C2753 C2754 1.373 . S
C2753 C2755 1.389 . S
C2754 H2727 0.950 . S
C2754 C2740 1.377 . S
C2754 C2753 1.373 . S
C2755 C2739 1.377 . S
C2755 C2753 1.389 . S
C2755 C2756 1.524 . S
C2756 C2755 1.524 . S
C2756 C2757 1.397 . S
C2756 C2761 1.363 . S
C2757 H2728 0.950 . S
C2757 C2756 1.397 . S
C2757 C2758 1.334 . S
C2758 H2729 0.950 . S
C2758 C2757 1.334 . S
C2758 C2759 1.287 . S
C2759 C2758 1.287 . S
C2759 C2760 1.524 . S
C2759 H2762 0.999 . S
C2760 H2730 0.950 . S
C2760 C2759 1.524 . S
C2760 C2761 1.415 . S
C2761 H2731 0.950 . S
C2761 C2756 1.363 . S
C2761 C2760 1.415 . S
H2762 C2759 0.999 . S
H2763 C2744 0.913 . S
H2764 C2782 0.951 . S
H2765 C2784 0.951 . S
H2766 C2786 0.950 . S
H2767 C2787 0.950 . S
H2768 C2789 0.950 . S
H2769 C2792 0.950 . S
H2770 C2793 0.974 . S
H2771 C2795 0.950 . S
H2772 C2796 0.950 . S
H2773 C2797 0.951 . S
H2774 C2799 0.951 . S
H2775 C2801 0.950 . S
H2776 C2802 0.950 . S
H2777 C2804 0.950 . S
H2778 C2807 0.950 . S
H2779 C2808 0.950 . S
H2780 C2810 0.950 . S
H2781 C2811 0.950 . S
C2782 H2764 0.951 . S
C2782 C2783 1.366 . S
C2782 C2784 1.388 . S
C2783 C2782 1.366 . S
C2783 C2787 1.385 . S
C2784 H2765 0.951 . S
C2784 C2782 1.388 . S
C2784 C2785 1.366 . S
C2785 C2784 1.366 . S
C2785 C2786 1.414 . S
C2785 C2788 1.499 . S
C2786 H2766 0.950 . S
C2786 C2785 1.414 . S
C2786 C2787 1.374 . S
C2787 H2767 0.950 . S
C2787 C2783 1.385 . S
C2787 C2786 1.374 . S
C2788 C2785 1.499 . S
C2788 C2789 1.373 . S
C2788 C2790 1.389 . S
C2789 H2768 0.950 . S
C2789 C2788 1.373 . S
C2789 C2805 1.377 . S
C2790 C2788 1.389 . S
C2790 C2791 1.524 . S
C2790 C2804 1.377 . S
C2791 C2790 1.524 . S
C2791 C2792 1.397 . S
C2791 C2796 1.363 . S
C2792 H2769 0.950 . S
C2792 C2791 1.397 . S
C2792 C2793 1.334 . S
C2793 H2770 0.974 . S
C2793 C2792 1.334 . S
C2793 C2794 1.287 1_655 S
C2794 C2793 1.287 1_455 S
C2794 C2795 1.524 . S
C2794 H2813 0.913 . S
C2795 H2771 0.950 . S
C2795 C2794 1.524 . S
C2795 C2796 1.415 1_455 S
C2796 H2772 0.950 . S
C2796 C2791 1.363 . S
C2796 C2795 1.415 1_655 S
C2797 H2773 0.951 . S
C2797 C2798 1.366 . S
C2797 C2799 1.388 . S
C2798 C2797 1.366 . S
C2798 C2802 1.385 . S
C2799 H2774 0.951 . S
C2799 C2797 1.388 . S
C2799 C2800 1.366 . S
C2800 C2799 1.366 . S
C2800 C2801 1.414 . S
C2800 C2803 1.499 . S
C2801 H2775 0.950 . S
C2801 C2800 1.414 . S
C2801 C2802 1.374 . S
C2802 H2776 0.950 . S
C2802 C2798 1.385 . S
C2802 C2801 1.374 . S
C2803 C2800 1.499 . S
C2803 C2804 1.373 . S
C2803 C2805 1.389 . S
C2804 H2777 0.950 . S
C2804 C2790 1.377 . S
C2804 C2803 1.373 . S
C2805 C2789 1.377 . S
C2805 C2803 1.389 . S
C2805 C2806 1.524 . S
C2806 C2805 1.524 . S
C2806 C2807 1.397 . S
C2806 C2811 1.363 . S
C2807 H2778 0.950 . S
C2807 C2806 1.397 . S
C2807 C2808 1.334 . S
C2808 H2779 0.950 . S
C2808 C2807 1.334 . S
C2808 C2809 1.287 . S
C2809 C2808 1.287 . S
C2809 C2810 1.524 . S
C2809 H2812 0.999 . S
C2810 H2780 0.950 . S
C2810 C2809 1.524 . S
C2810 C2811 1.415 . S
C2811 H2781 0.950 . S
C2811 C2806 1.363 . S
C2811 C2810 1.415 . S
H2812 C2809 0.999 . S
H2813 C2794 0.913 . S
H2814 C2832 0.951 . S
H2815 C2834 0.951 . S
H2816 C2836 0.950 . S
H2817 C2837 0.950 . S
H2818 C2839 0.950 . S
H2819 C2842 0.950 . S
H2820 C2843 0.950 . S
H2821 C2845 0.950 . S
H2822 C2846 0.950 . S
H2823 C2847 0.951 . S
H2824 C2849 0.951 . S
H2825 C2851 0.950 . S
H2826 C2852 0.950 . S
H2827 C2854 0.950 . S
H2828 C2857 0.950 . S
H2829 C2858 0.950 . S
H2830 C2860 0.950 . S
H2831 C2861 0.950 . S
C2832 H2814 0.951 . S
C2832 C2833 1.366 . S
C2832 C2834 1.388 . S
C2833 C2832 1.366 . S
C2833 C2837 1.385 . S
C2834 H2815 0.951 . S
C2834 C2832 1.388 . S
C2834 C2835 1.366 . S
C2835 C2834 1.366 . S
C2835 C2836 1.414 . S
C2835 C2838 1.499 . S
C2836 H2816 0.950 . S
C2836 C2835 1.414 . S
C2836 C2837 1.374 . S
C2837 H2817 0.950 . S
C2837 C2833 1.385 . S
C2837 C2836 1.374 . S
C2838 C2835 1.499 . S
C2838 C2839 1.373 . S
C2838 C2840 1.389 . S
C2839 H2818 0.950 . S
C2839 C2838 1.373 . S
C2839 C2855 1.377 . S
C2840 C2838 1.389 . S
C2840 C2841 1.524 . S
C2840 C2854 1.377 . S
C2841 C2840 1.524 . S
C2841 C2842 1.397 . S
C2841 C2846 1.363 . S
C2842 H2819 0.950 . S
C2842 C2841 1.397 . S
C2842 C2843 1.334 . S
C2843 H2820 0.950 . S
C2843 C2842 1.334 . S
C2843 C2844 1.287 . S
C2844 C2843 1.287 . S
C2844 C2845 1.524 . S
C2844 H2863 0.913 . S
C2845 H2821 0.950 . S
C2845 C2844 1.524 . S
C2845 C2846 1.415 . S
C2846 H2822 0.950 . S
C2846 C2841 1.363 . S
C2846 C2845 1.415 . S
C2847 H2823 0.951 . S
C2847 C2848 1.366 . S
C2847 C2849 1.388 . S
C2848 C2847 1.366 . S
C2848 C2852 1.385 . S
C2849 H2824 0.951 . S
C2849 C2847 1.388 . S
C2849 C2850 1.366 . S
C2850 C2849 1.366 . S
C2850 C2851 1.414 . S
C2850 C2853 1.499 . S
C2851 H2825 0.950 . S
C2851 C2850 1.414 . S
C2851 C2852 1.374 . S
C2852 H2826 0.950 . S
C2852 C2848 1.385 . S
C2852 C2851 1.374 . S
C2853 C2850 1.499 . S
C2853 C2854 1.373 . S
C2853 C2855 1.389 . S
C2854 H2827 0.950 . S
C2854 C2840 1.377 . S
C2854 C2853 1.373 . S
C2855 C2839 1.377 . S
C2855 C2853 1.389 . S
C2855 C2856 1.524 . S
C2856 C2855 1.524 . S
C2856 C2857 1.397 . S
C2856 C2861 1.363 . S
C2857 H2828 0.950 . S
C2857 C2856 1.397 . S
C2857 C2858 1.334 . S
C2858 H2829 0.950 . S
C2858 C2857 1.334 . S
C2858 C2859 1.287 . S
C2859 C2858 1.287 . S
C2859 C2860 1.524 . S
C2859 H2862 0.999 . S
C2860 H2830 0.950 . S
C2860 C2859 1.524 . S
C2860 C2861 1.415 . S
C2861 H2831 0.950 . S
C2861 C2856 1.363 . S
C2861 C2860 1.415 . S
H2862 C2859 0.999 . S
H2863 C2844 0.913 . S
H2864 C2882 0.951 . S
H2865 C2884 0.951 . S
H2866 C2886 0.950 . S
H2867 C2887 0.950 . S
H2868 C2889 0.950 . S
H2869 C2892 0.950 . S
H2870 C2893 0.950 . S
H2871 C2895 0.950 . S
H2872 C2896 0.950 . S
H2873 C2897 0.951 . S
H2874 C2899 0.951 . S
H2875 C2901 0.950 . S
H2876 C2902 0.950 . S
H2877 C2904 0.950 . S
H2878 C2907 0.950 . S
H2879 C2908 0.950 . S
H2880 C2910 0.950 . S
H2881 C2911 0.950 . S
C2882 H2864 0.951 . S
C2882 C2883 1.366 . S
C2882 C2884 1.388 . S
C2883 C2882 1.366 . S
C2883 C2887 1.385 . S
C2884 H2865 0.951 . S
C2884 C2882 1.388 . S
C2884 C2885 1.366 . S
C2885 C2884 1.366 . S
C2885 C2886 1.414 . S
C2885 C2888 1.499 . S
C2886 H2866 0.950 . S
C2886 C2885 1.414 . S
C2886 C2887 1.374 . S
C2887 H2867 0.950 . S
C2887 C2883 1.385 . S
C2887 C2886 1.374 . S
C2888 C2885 1.499 . S
C2888 C2889 1.373 . S
C2888 C2890 1.389 . S
C2889 H2868 0.950 . S
C2889 C2888 1.373 . S
C2889 C2905 1.377 . S
C2890 C2888 1.389 . S
C2890 C2891 1.524 . S
C2890 C2904 1.377 . S
C2891 C2890 1.524 . S
C2891 C2892 1.397 . S
C2891 C2896 1.363 . S
C2892 H2869 0.950 . S
C2892 C2891 1.397 . S
C2892 C2893 1.334 . S
C2893 H2870 0.950 . S
C2893 C2892 1.334 . S
C2893 C2894 1.287 . S
C2894 C2893 1.287 . S
C2894 C2895 1.524 . S
C2894 H2913 0.913 . S
C2895 H2871 0.950 . S
C2895 C2894 1.524 . S
C2895 C2896 1.415 . S
C2896 H2872 0.950 . S
C2896 C2891 1.363 . S
C2896 C2895 1.415 . S
C2897 H2873 0.951 . S
C2897 C2898 1.366 . S
C2897 C2899 1.388 . S
C2898 C2897 1.366 . S
C2898 C2902 1.385 . S
C2899 H2874 0.951 . S
C2899 C2897 1.388 . S
C2899 C2900 1.366 . S
C2900 C2899 1.366 . S
C2900 C2901 1.414 . S
C2900 C2903 1.499 . S
C2901 H2875 0.950 . S
C2901 C2900 1.414 . S
C2901 C2902 1.374 . S
C2902 H2876 0.950 . S
C2902 C2898 1.385 . S
C2902 C2901 1.374 . S
C2903 C2900 1.499 . S
C2903 C2904 1.373 . S
C2903 C2905 1.389 . S
C2904 H2877 0.950 . S
C2904 C2890 1.377 . S
C2904 C2903 1.373 . S
C2905 C2889 1.377 . S
C2905 C2903 1.389 . S
C2905 C2906 1.524 . S
C2906 C2905 1.524 . S
C2906 C2907 1.397 . S
C2906 C2911 1.363 . S
C2907 H2878 0.950 . S
C2907 C2906 1.397 . S
C2907 C2908 1.334 . S
C2908 H2879 0.950 . S
C2908 C2907 1.334 . S
C2908 C2909 1.287 . S
C2909 C2908 1.287 . S
C2909 C2910 1.524 . S
C2909 H2912 0.999 . S
C2910 H2880 0.950 . S
C2910 C2909 1.524 . S
C2910 C2911 1.415 . S
C2911 H2881 0.950 . S
C2911 C2906 1.363 . S
C2911 C2910 1.415 . S
H2912 C2909 0.999 . S
H2913 C2894 0.913 . S
H2914 C2932 0.951 . S
H2915 C2934 0.951 . S
H2916 C2936 0.950 . S
H2917 C2937 0.950 . S
H2918 C2939 0.950 . S
H2919 C2942 0.950 . S
H2920 C2943 0.950 . S
H2921 C2945 0.950 . S
H2922 C2946 0.950 . S
H2923 C2947 0.951 . S
H2924 C2949 0.951 . S
H2925 C2951 0.950 . S
H2926 C2952 0.950 . S
H2927 C2954 0.950 . S
H2928 C2957 0.950 . S
H2929 C2958 0.950 . S
H2930 C2960 0.950 . S
H2931 C2961 0.950 . S
C2932 H2914 0.951 . S
C2932 C2933 1.366 . S
C2932 C2934 1.388 . S
C2933 C2932 1.366 . S
C2933 C2937 1.385 . S
C2934 H2915 0.951 . S
C2934 C2932 1.388 . S
C2934 C2935 1.366 . S
C2935 C2934 1.366 . S
C2935 C2936 1.414 . S
C2935 C2938 1.499 . S
C2936 H2916 0.950 . S
C2936 C2935 1.414 . S
C2936 C2937 1.374 . S
C2937 H2917 0.950 . S
C2937 C2933 1.385 . S
C2937 C2936 1.374 . S
C2938 C2935 1.499 . S
C2938 C2939 1.373 . S
C2938 C2940 1.389 . S
C2939 H2918 0.950 . S
C2939 C2938 1.373 . S
C2939 C2955 1.377 . S
C2940 C2938 1.389 . S
C2940 C2941 1.524 . S
C2940 C2954 1.377 . S
C2941 C2940 1.524 . S
C2941 C2942 1.397 . S
C2941 C2946 1.363 . S
C2942 H2919 0.950 . S
C2942 C2941 1.397 . S
C2942 C2943 1.334 . S
C2943 H2920 0.950 . S
C2943 C2942 1.334 . S
C2943 C2944 1.287 1_455 S
C2944 C2943 1.287 1_655 S
C2944 C2945 1.524 . S
C2944 H2963 0.913 . S
C2945 H2921 0.950 . S
C2945 C2944 1.524 . S
C2945 C2946 1.415 1_655 S
C2946 H2922 0.950 . S
C2946 C2941 1.363 . S
C2946 C2945 1.415 1_455 S
C2947 H2923 0.951 . S
C2947 C2948 1.366 . S
C2947 C2949 1.388 . S
C2948 C2947 1.366 . S
C2948 C2952 1.385 . S
C2949 H2924 0.951 . S
C2949 C2947 1.388 . S
C2949 C2950 1.366 . S
C2950 C2949 1.366 . S
C2950 C2951 1.414 . S
C2950 C2953 1.499 . S
C2951 H2925 0.950 . S
C2951 C2950 1.414 . S
C2951 C2952 1.374 . S
C2952 H2926 0.950 . S
C2952 C2948 1.385 . S
C2952 C2951 1.374 . S
C2953 C2950 1.499 . S
C2953 C2954 1.373 . S
C2953 C2955 1.389 . S
C2954 H2927 0.950 . S
C2954 C2940 1.377 . S
C2954 C2953 1.373 . S
C2955 C2939 1.377 . S
C2955 C2953 1.389 . S
C2955 C2956 1.524 . S
C2956 C2955 1.524 . S
C2956 C2957 1.397 . S
C2956 C2961 1.363 . S
C2957 H2928 0.950 . S
C2957 C2956 1.397 . S
C2957 C2958 1.334 . S
C2958 H2929 0.950 . S
C2958 C2957 1.334 . S
C2958 C2959 1.287 . S
C2959 C2958 1.287 . S
C2959 C2960 1.524 . S
C2959 H2962 0.999 . S
C2960 H2930 0.950 . S
C2960 C2959 1.524 . S
C2960 C2961 1.415 . S
C2961 H2931 0.950 . S
C2961 C2956 1.363 . S
C2961 C2960 1.415 . S
H2962 C2959 0.999 . S
H2963 C2944 0.913 . S
H2964 C2982 0.951 . S
H2965 C2984 0.951 . S
H2966 C2986 0.950 . S
H2967 C2987 0.950 . S
H2968 C2989 0.950 . S
H2969 C2992 0.950 . S
H2970 C2993 0.950 . S
H2971 C2995 0.950 . S
H2972 C2996 0.950 . S
H2973 C2997 0.951 . S
H2974 C2999 0.951 . S
H2975 C3001 0.950 . S
H2976 C3002 0.950 . S
H2977 C3004 0.950 . S
H2978 C3007 0.950 . S
H2979 C3008 0.950 . S
H2980 C3010 0.950 . S
H2981 C3011 0.950 . S
C2982 H2964 0.951 . S
C2982 C2983 1.366 . S
C2982 C2984 1.388 . S
C2983 C2982 1.366 . S
C2983 C2987 1.385 . S
C2984 H2965 0.951 . S
C2984 C2982 1.388 . S
C2984 C2985 1.366 . S
C2985 C2984 1.366 . S
C2985 C2986 1.414 . S
C2985 C2988 1.499 . S
C2986 H2966 0.950 . S
C2986 C2985 1.414 . S
C2986 C2987 1.374 . S
C2987 H2967 0.950 . S
C2987 C2983 1.385 . S
C2987 C2986 1.374 . S
C2988 C2985 1.499 . S
C2988 C2989 1.373 . S
C2988 C2990 1.389 . S
C2989 H2968 0.950 . S
C2989 C2988 1.373 . S
C2989 C3005 1.377 . S
C2990 C2988 1.389 . S
C2990 C2991 1.524 . S
C2990 C3004 1.377 . S
C2991 C2990 1.524 . S
C2991 C2992 1.397 . S
C2991 C2996 1.363 . S
C2992 H2969 0.950 . S
C2992 C2991 1.397 . S
C2992 C2993 1.334 . S
C2993 H2970 0.950 . S
C2993 C2992 1.334 . S
C2993 C2994 1.287 . S
C2994 C2993 1.287 . S
C2994 C2995 1.524 . S
C2994 H3013 0.913 . S
C2995 H2971 0.950 . S
C2995 C2994 1.524 . S
C2995 C2996 1.415 . S
C2996 H2972 0.950 . S
C2996 C2991 1.363 . S
C2996 C2995 1.415 . S
C2997 H2973 0.951 . S
C2997 C2998 1.366 . S
C2997 C2999 1.388 . S
C2998 C2997 1.366 . S
C2998 C3002 1.385 . S
C2999 H2974 0.951 . S
C2999 C2997 1.388 . S
C2999 C3000 1.366 . S
C3000 C2999 1.366 . S
C3000 C3001 1.414 . S
C3000 C3003 1.499 . S
C3001 H2975 0.950 . S
C3001 C3000 1.414 . S
C3001 C3002 1.374 . S
C3002 H2976 0.950 . S
C3002 C2998 1.385 . S
C3002 C3001 1.374 . S
C3003 C3000 1.499 . S
C3003 C3004 1.373 . S
C3003 C3005 1.389 . S
C3004 H2977 0.950 . S
C3004 C2990 1.377 . S
C3004 C3003 1.373 . S
C3005 C2989 1.377 . S
C3005 C3003 1.389 . S
C3005 C3006 1.524 . S
C3006 C3005 1.524 . S
C3006 C3007 1.397 . S
C3006 C3011 1.363 . S
C3007 H2978 0.950 . S
C3007 C3006 1.397 . S
C3007 C3008 1.334 . S
C3008 H2979 0.950 . S
C3008 C3007 1.334 . S
C3008 C3009 1.287 . S
C3009 C3008 1.287 . S
C3009 C3010 1.524 . S
C3009 H3012 0.999 . S
C3010 H2980 0.950 . S
C3010 C3009 1.524 . S
C3010 C3011 1.415 . S
C3011 H2981 0.950 . S
C3011 C3006 1.363 . S
C3011 C3010 1.415 . S
H3012 C3009 0.999 . S
H3013 C2994 0.913 . S
H3014 C3032 0.951 . S
H3015 C3034 0.951 . S
H3016 C3036 0.950 . S
H3017 C3037 0.950 . S
H3018 C3039 0.950 . S
H3019 C3042 0.950 . S
H3020 C3043 0.950 . S
H3021 C3045 0.950 . S
H3022 C3046 0.950 . S
H3023 C3047 0.951 . S
H3024 C3049 0.951 . S
H3025 C3051 0.950 . S
H3026 C3052 0.950 . S
H3027 C3054 0.950 . S
H3028 C3057 0.950 . S
H3029 C3058 0.906 1_545 S
H3030 C3060 0.950 . S
H3031 C3061 0.950 . S
C3032 H3014 0.951 . S
C3032 C3033 1.366 . S
C3032 C3034 1.388 . S
C3033 C3032 1.366 . S
C3033 C3037 1.385 . S
C3034 H3015 0.951 . S
C3034 C3032 1.388 . S
C3034 C3035 1.366 . S
C3035 C3034 1.366 . S
C3035 C3036 1.414 . S
C3035 C3038 1.499 . S
C3036 H3016 0.950 . S
C3036 C3035 1.414 . S
C3036 C3037 1.374 . S
C3037 H3017 0.950 . S
C3037 C3033 1.385 . S
C3037 C3036 1.374 . S
C3038 C3035 1.499 . S
C3038 C3039 1.373 . S
C3038 C3040 1.389 . S
C3039 H3018 0.950 . S
C3039 C3038 1.373 . S
C3039 C3055 1.377 . S
C3040 C3038 1.389 . S
C3040 C3041 1.524 . S
C3040 C3054 1.377 . S
C3041 C3040 1.524 . S
C3041 C3042 1.397 . S
C3041 C3046 1.363 . S
C3042 H3019 0.950 . S
C3042 C3041 1.397 . S
C3042 C3043 1.334 . S
C3043 H3020 0.950 . S
C3043 C3042 1.334 . S
C3043 C3044 1.287 . S
C3044 C3043 1.287 . S
C3044 C3045 1.524 . S
C3044 H3063 0.913 . S
C3045 H3021 0.950 . S
C3045 C3044 1.524 . S
C3045 C3046 1.415 . S
C3046 H3022 0.950 . S
C3046 C3041 1.363 . S
C3046 C3045 1.415 . S
C3047 H3023 0.951 . S
C3047 C3048 1.366 . S
C3047 C3049 1.388 . S
C3048 C3047 1.366 . S
C3048 C3052 1.385 . S
C3049 H3024 0.951 . S
C3049 C3047 1.388 . S
C3049 C3050 1.366 . S
C3050 C3049 1.366 . S
C3050 C3051 1.414 . S
C3050 C3053 1.499 . S
C3051 H3025 0.950 . S
C3051 C3050 1.414 . S
C3051 C3052 1.374 . S
C3052 H3026 0.950 . S
C3052 C3048 1.385 . S
C3052 C3051 1.374 . S
C3053 C3050 1.499 . S
C3053 C3054 1.373 . S
C3053 C3055 1.389 . S
C3054 H3027 0.950 . S
C3054 C3040 1.377 . S
C3054 C3053 1.373 . S
C3055 C3039 1.377 . S
C3055 C3053 1.389 . S
C3055 C3056 1.524 . S
C3056 C3055 1.524 . S
C3056 C3057 1.397 . S
C3056 C3061 1.363 . S
C3057 H3028 0.950 . S
C3057 C3056 1.397 . S
C3057 C3058 1.379 . S
C3058 H3029 0.906 1_565 S
C3058 C3057 1.379 . S
C3058 C3059 1.289 1_565 S
C3059 C3058 1.289 1_545 S
C3059 C3060 1.524 1_545 S
C3059 H3062 0.999 . S
C3060 H3030 0.950 . S
C3060 C3059 1.524 1_565 S
C3060 C3061 1.415 . S
C3061 H3031 0.950 . S
C3061 C3056 1.363 . S
C3061 C3060 1.415 . S
H3062 C3059 0.999 . S
H3063 C3044 0.913 . S
H3064 C3082 0.951 . S
H3065 C3084 0.951 . S
H3066 C3086 0.950 . S
H3067 C3087 0.950 . S
H3068 C3089 0.950 . S
H3069 C3092 0.950 . S
H3070 C3093 0.950 . S
H3071 C3095 0.950 . S
H3072 C3096 0.950 . S
H3073 C3097 0.951 . S
H3074 C3099 0.951 . S
H3075 C3101 0.950 . S
H3076 C3102 0.950 . S
H3077 C3104 0.950 . S
H3078 C3107 0.950 . S
H3079 C3108 0.950 . S
H3080 C3110 0.950 . S
H3081 C3111 0.950 . S
C3082 H3064 0.951 . S
C3082 C3083 1.366 . S
C3082 C3084 1.388 . S
C3083 C3082 1.366 . S
C3083 C3087 1.385 . S
C3084 H3065 0.951 . S
C3084 C3082 1.388 . S
C3084 C3085 1.366 . S
C3085 C3084 1.366 . S
C3085 C3086 1.414 . S
C3085 C3088 1.499 . S
C3086 H3066 0.950 . S
C3086 C3085 1.414 . S
C3086 C3087 1.374 . S
C3087 H3067 0.950 . S
C3087 C3083 1.385 . S
C3087 C3086 1.374 . S
C3088 C3085 1.499 . S
C3088 C3089 1.373 . S
C3088 C3090 1.389 . S
C3089 H3068 0.950 . S
C3089 C3088 1.373 . S
C3089 C3105 1.377 . S
C3090 C3088 1.389 . S
C3090 C3091 1.524 . S
C3090 C3104 1.377 . S
C3091 C3090 1.524 . S
C3091 C3092 1.397 . S
C3091 C3096 1.363 . S
C3092 H3069 0.950 . S
C3092 C3091 1.397 . S
C3092 C3093 1.334 . S
C3093 H3070 0.950 . S
C3093 C3092 1.334 . S
C3093 C3094 1.287 . S
C3094 C3093 1.287 . S
C3094 C3095 1.524 . S
C3094 H3113 0.913 . S
C3095 H3071 0.950 . S
C3095 C3094 1.524 . S
C3095 C3096 1.415 . S
C3096 H3072 0.950 . S
C3096 C3091 1.363 . S
C3096 C3095 1.415 . S
C3097 H3073 0.951 . S
C3097 C3098 1.366 . S
C3097 C3099 1.388 . S
C3098 C3097 1.366 . S
C3098 C3102 1.385 . S
C3099 H3074 0.951 . S
C3099 C3097 1.388 . S
C3099 C3100 1.366 . S
C3100 C3099 1.366 . S
C3100 C3101 1.414 . S
C3100 C3103 1.499 . S
C3101 H3075 0.950 . S
C3101 C3100 1.414 . S
C3101 C3102 1.374 . S
C3102 H3076 0.950 . S
C3102 C3098 1.385 . S
C3102 C3101 1.374 . S
C3103 C3100 1.499 . S
C3103 C3104 1.373 . S
C3103 C3105 1.389 . S
C3104 H3077 0.950 . S
C3104 C3090 1.377 . S
C3104 C3103 1.373 . S
C3105 C3089 1.377 . S
C3105 C3103 1.389 . S
C3105 C3106 1.524 . S
C3106 C3105 1.524 . S
C3106 C3107 1.397 . S
C3106 C3111 1.363 . S
C3107 H3078 0.950 . S
C3107 C3106 1.397 . S
C3107 C3108 1.334 . S
C3108 H3079 0.950 . S
C3108 C3107 1.334 . S
C3108 C3109 1.287 . S
C3109 C3108 1.287 . S
C3109 C3110 1.524 . S
C3109 H3112 0.999 . S
C3110 H3080 0.950 . S
C3110 C3109 1.524 . S
C3110 C3111 1.415 . S
C3111 H3081 0.950 . S
C3111 C3106 1.363 . S
C3111 C3110 1.415 . S
H3112 C3109 0.999 . S
H3113 C3094 0.913 . S
H3114 C3132 0.951 . S
H3115 C3134 0.951 . S
H3116 C3136 0.950 . S
H3117 C3137 0.950 . S
H3118 C3139 0.950 . S
H3119 C3142 0.950 . S
H3120 C3143 0.950 . S
H3121 C3145 0.950 . S
H3122 C3146 0.950 . S
H3123 C3147 0.951 . S
H3124 C3149 0.951 . S
H3125 C3151 0.950 . S
H3126 C3152 0.950 . S
H3127 C3154 0.950 . S
H3128 C3157 0.950 . S
H3129 C3158 0.950 . S
H3130 C3160 0.950 . S
H3131 C3161 0.950 . S
C3132 H3114 0.951 . S
C3132 C3133 1.366 . S
C3132 C3134 1.388 . S
C3133 C3132 1.366 . S
C3133 C3137 1.385 . S
C3134 H3115 0.951 . S
C3134 C3132 1.388 . S
C3134 C3135 1.366 . S
C3135 C3134 1.366 . S
C3135 C3136 1.414 . S
C3135 C3138 1.499 . S
C3136 H3116 0.950 . S
C3136 C3135 1.414 . S
C3136 C3137 1.374 . S
C3137 H3117 0.950 . S
C3137 C3133 1.385 . S
C3137 C3136 1.374 . S
C3138 C3135 1.499 . S
C3138 C3139 1.373 . S
C3138 C3140 1.389 . S
C3139 H3118 0.950 . S
C3139 C3138 1.373 . S
C3139 C3155 1.377 . S
C3140 C3138 1.389 . S
C3140 C3141 1.524 . S
C3140 C3154 1.377 . S
C3141 C3140 1.524 . S
C3141 C3142 1.397 . S
C3141 C3146 1.363 . S
C3142 H3119 0.950 . S
C3142 C3141 1.397 . S
C3142 C3143 1.334 . S
C3143 H3120 0.950 . S
C3143 C3142 1.334 . S
C3143 C3144 1.287 . S
C3144 C3143 1.287 . S
C3144 C3145 1.524 . S
C3144 H3163 0.913 . S
C3145 H3121 0.950 . S
C3145 C3144 1.524 . S
C3145 C3146 1.415 . S
C3146 H3122 0.950 . S
C3146 C3141 1.363 . S
C3146 C3145 1.415 . S
C3147 H3123 0.951 . S
C3147 C3148 1.366 . S
C3147 C3149 1.388 . S
C3148 C3147 1.366 . S
C3148 C3152 1.385 . S
C3149 H3124 0.951 . S
C3149 C3147 1.388 . S
C3149 C3150 1.366 . S
C3150 C3149 1.366 . S
C3150 C3151 1.414 . S
C3150 C3153 1.499 . S
C3151 H3125 0.950 . S
C3151 C3150 1.414 . S
C3151 C3152 1.374 . S
C3152 H3126 0.950 . S
C3152 C3148 1.385 . S
C3152 C3151 1.374 . S
C3153 C3150 1.499 . S
C3153 C3154 1.373 . S
C3153 C3155 1.389 . S
C3154 H3127 0.950 . S
C3154 C3140 1.377 . S
C3154 C3153 1.373 . S
C3155 C3139 1.377 . S
C3155 C3153 1.389 . S
C3155 C3156 1.524 . S
C3156 C3155 1.524 . S
C3156 C3157 1.397 . S
C3156 C3161 1.363 . S
C3157 H3128 0.950 . S
C3157 C3156 1.397 . S
C3157 C3158 1.334 . S
C3158 H3129 0.950 . S
C3158 C3157 1.334 . S
C3158 C3159 1.287 1_455 S
C3159 C3158 1.287 1_655 S
C3159 C3160 1.524 . S
C3159 H3162 0.999 . S
C3160 H3130 0.950 . S
C3160 C3159 1.524 . S
C3160 C3161 1.415 1_655 S
C3161 H3131 0.950 . S
C3161 C3156 1.363 . S
C3161 C3160 1.415 1_455 S
H3162 C3159 0.999 . S
H3163 C3144 0.913 . S
H3164 C3182 0.951 . S
H3165 C3184 0.951 . S
H3166 C3186 0.950 . S
H3167 C3187 0.950 . S
H3168 C3189 0.950 . S
H3169 C3192 0.950 . S
H3170 C3193 0.950 . S
H3171 C3195 0.950 . S
H3172 C3196 0.950 . S
H3173 C3197 0.951 . S
H3174 C3199 0.951 . S
H3175 C3201 0.950 . S
H3176 C3202 0.950 . S
H3177 C3204 0.950 . S
H3178 C3207 0.950 . S
H3179 C3208 0.950 . S
H3180 C3210 0.950 . S
H3181 C3211 0.950 . S
C3182 H3164 0.951 . S
C3182 C3183 1.366 . S
C3182 C3184 1.388 . S
C3183 C3182 1.366 . S
C3183 C3187 1.385 . S
C3184 H3165 0.951 . S
C3184 C3182 1.388 . S
C3184 C3185 1.366 . S
C3185 C3184 1.366 . S
C3185 C3186 1.414 . S
C3185 C3188 1.499 . S
C3186 H3166 0.950 . S
C3186 C3185 1.414 . S
C3186 C3187 1.374 . S
C3187 H3167 0.950 . S
C3187 C3183 1.385 . S
C3187 C3186 1.374 . S
C3188 C3185 1.499 . S
C3188 C3189 1.373 . S
C3188 C3190 1.389 . S
C3189 H3168 0.950 . S
C3189 C3188 1.373 . S
C3189 C3205 1.377 . S
C3190 C3188 1.389 . S
C3190 C3191 1.524 . S
C3190 C3204 1.377 . S
C3191 C3190 1.524 . S
C3191 C3192 1.397 . S
C3191 C3196 1.363 . S
C3192 H3169 0.950 . S
C3192 C3191 1.397 . S
C3192 C3193 1.334 1_545 S
C3193 H3170 0.950 . S
C3193 C3192 1.334 1_565 S
C3193 C3194 1.287 . S
C3194 C3193 1.287 . S
C3194 C3195 1.524 . S
C3194 H3213 0.913 . S
C3195 H3171 0.950 . S
C3195 C3194 1.524 . S
C3195 C3196 1.415 1_565 S
C3196 H3172 0.950 . S
C3196 C3191 1.363 . S
C3196 C3195 1.415 1_545 S
C3197 H3173 0.951 . S
C3197 C3198 1.366 . S
C3197 C3199 1.388 . S
C3198 C3197 1.366 . S
C3198 C3202 1.385 . S
C3199 H3174 0.951 . S
C3199 C3197 1.388 . S
C3199 C3200 1.366 . S
C3200 C3199 1.366 . S
C3200 C3201 1.414 . S
C3200 C3203 1.499 . S
C3201 H3175 0.950 . S
C3201 C3200 1.414 . S
C3201 C3202 1.374 . S
C3202 H3176 0.950 . S
C3202 C3198 1.385 . S
C3202 C3201 1.374 . S
C3203 C3200 1.499 . S
C3203 C3204 1.373 . S
C3203 C3205 1.389 . S
C3204 H3177 0.950 . S
C3204 C3190 1.377 . S
C3204 C3203 1.373 . S
C3205 C3189 1.377 . S
C3205 C3203 1.389 . S
C3205 C3206 1.524 . S
C3206 C3205 1.524 . S
C3206 C3207 1.397 . S
C3206 C3211 1.363 . S
C3207 H3178 0.950 . S
C3207 C3206 1.397 . S
C3207 C3208 1.334 . S
C3208 H3179 0.950 . S
C3208 C3207 1.334 . S
C3208 C3209 1.287 . S
C3209 C3208 1.287 . S
C3209 C3210 1.524 . S
C3209 H3212 0.999 . S
C3210 H3180 0.950 . S
C3210 C3209 1.524 . S
C3210 C3211 1.415 . S
C3211 H3181 0.950 . S
C3211 C3206 1.363 . S
C3211 C3210 1.415 . S
H3212 C3209 0.999 . S
H3213 C3194 0.913 . S
H3214 C3232 0.951 . S
H3215 C3234 0.951 . S
H3216 C3236 0.950 . S
H3217 C3237 0.950 . S
H3218 C3239 0.950 . S
H3219 C3242 0.950 . S
H3220 C3243 0.950 . S
H3221 C3245 0.950 . S
H3222 C3246 0.950 . S
H3223 C3247 0.951 . S
H3224 C3249 0.951 . S
H3225 C3251 0.950 . S
H3226 C3252 0.950 . S
H3227 C3254 0.950 . S
H3228 C3257 0.950 . S
H3229 C3258 0.950 . S
H3230 C3260 0.950 . S
H3231 C3261 0.950 . S
C3232 H3214 0.951 . S
C3232 C3233 1.366 . S
C3232 C3234 1.388 . S
C3233 C3232 1.366 . S
C3233 C3237 1.385 . S
C3234 H3215 0.951 . S
C3234 C3232 1.388 . S
C3234 C3235 1.366 . S
C3235 C3234 1.366 . S
C3235 C3236 1.414 . S
C3235 C3238 1.499 . S
C3236 H3216 0.950 . S
C3236 C3235 1.414 . S
C3236 C3237 1.374 . S
C3237 H3217 0.950 . S
C3237 C3233 1.385 . S
C3237 C3236 1.374 . S
C3238 C3235 1.499 . S
C3238 C3239 1.373 . S
C3238 C3240 1.389 . S
C3239 H3218 0.950 . S
C3239 C3238 1.373 . S
C3239 C3255 1.377 . S
C3240 C3238 1.389 . S
C3240 C3241 1.524 . S
C3240 C3254 1.377 . S
C3241 C3240 1.524 . S
C3241 C3242 1.397 . S
C3241 C3246 1.363 . S
C3242 H3219 0.950 . S
C3242 C3241 1.397 . S
C3242 C3243 1.334 . S
C3243 H3220 0.950 . S
C3243 C3242 1.334 . S
C3243 C3244 1.287 . S
C3244 C3243 1.287 . S
C3244 C3245 1.524 . S
C3244 H3263 0.913 . S
C3245 H3221 0.950 . S
C3245 C3244 1.524 . S
C3245 C3246 1.415 . S
C3246 H3222 0.950 . S
C3246 C3241 1.363 . S
C3246 C3245 1.415 . S
C3247 H3223 0.951 . S
C3247 C3248 1.366 . S
C3247 C3249 1.388 . S
C3248 C3247 1.366 . S
C3248 C3252 1.385 . S
C3249 H3224 0.951 . S
C3249 C3247 1.388 . S
C3249 C3250 1.366 . S
C3250 C3249 1.366 . S
C3250 C3251 1.414 . S
C3250 C3253 1.499 . S
C3251 H3225 0.950 . S
C3251 C3250 1.414 . S
C3251 C3252 1.374 . S
C3252 H3226 0.950 . S
C3252 C3248 1.385 . S
C3252 C3251 1.374 . S
C3253 C3250 1.499 . S
C3253 C3254 1.373 . S
C3253 C3255 1.389 . S
C3254 H3227 0.950 . S
C3254 C3240 1.377 . S
C3254 C3253 1.373 . S
C3255 C3239 1.377 . S
C3255 C3253 1.389 . S
C3255 C3256 1.524 . S
C3256 C3255 1.524 . S
C3256 C3257 1.397 . S
C3256 C3261 1.363 . S
C3257 H3228 0.950 . S
C3257 C3256 1.397 . S
C3257 C3258 1.334 . S
C3258 H3229 0.950 . S
C3258 C3257 1.334 . S
C3258 C3259 1.287 . S
C3259 C3258 1.287 . S
C3259 C3260 1.524 . S
C3259 H3262 0.999 . S
C3260 H3230 0.950 . S
C3260 C3259 1.524 . S
C3260 C3261 1.415 . S
C3261 H3231 0.950 . S
C3261 C3256 1.363 . S
C3261 C3260 1.415 . S
H3262 C3259 0.999 . S
H3263 C3244 0.913 . S
C883 C544 1.181 . S
C898 C4 1.182 . S
C933 C40 1.183 . S
C948 C580 1.181 . S
C983 C76 1.181 . S
C998 C616 1.182 . S
C1033 C112 1.182 . S
C1048 C436 1.182 . S
C1083 C472 1.182 . S
C1098 C148 1.182 . S
C1133 C184 1.182 . S
C1148 C508 1.181 . S
C1183 C760 1.182 . S
C1198 C220 1.182 . S
C1233 C256 1.181 . S
C1248 C796 1.182 . S
C1283 C292 1.181 . S
C1298 C832 1.183 . S
C1333 C652 1.182 . S
C1348 C328 1.181 . S
C1383 C364 1.182 . S
C1398 C688 1.181 . S
C1433 C724 1.182 . S
C1448 C400 1.182 . S
C1483 C14 1.419 . S
C1498 C842 1.418 . S
C1533 C662 1.419 . S
C1548 C50 1.418 . S
C1583 C86 1.417 . S
C1598 C698 1.419 . S
C1633 C734 1.419 . S
C1648 C122 1.418 . S
C1683 C158 1.418 . S
C1698 C770 1.418 . S
C1733 C806 1.418 . S
C1748 C194 1.418 . S
C1783 C230 1.418 . S
C1798 C482 1.419 . S
C1833 C518 1.417 . S
C1848 C266 1.418 . S
C1883 C554 1.419 . S
C1898 C302 1.418 . S
C1933 C590 1.418 . S
C1948 C338 1.419 . S
C1983 C374 1.418 . S
C1998 C626 1.418 . S
C2033 C410 1.419 . S
C2048 C446 1.418 . S
C2083 C255 1.094 . S
C2098 C3 1.094 . S
C2133 C291 1.094 . S
C2148 C39 1.094 . S
C2183 C327 1.094 . S
C2198 C75 1.094 . S
C2233 C363 1.094 . S
C2248 C111 1.094 . S
C2283 C147 1.094 . S
C2298 C399 1.094 . S
C2333 C183 1.094 . S
C2348 C219 1.094 . S
C2383 C435 1.094 . S
C2398 C687 1.094 . S
C2433 C471 1.094 . S
C2448 C723 1.095 . S
C2483 C759 1.094 . S
C2498 C507 1.094 . S
C2533 C795 1.094 . S
C2548 C543 1.094 . S
C2583 C831 1.094 . S
C2598 C579 1.094 . S
C2633 C651 1.094 . S
C2648 C615 1.094 . S
C2683 C2 1.549 . S
C2698 C686 1.549 . S
C2733 C722 1.549 . S
C2748 C38 1.549 . S
C2783 C74 1.549 . S
C2798 C758 1.549 . S
C2833 C794 1.549 . S
C2848 C110 1.549 . S
C2883 C146 1.549 . S
C2898 C830 1.549 . S
C2933 C650 1.549 . S
C2948 C182 1.549 . S
C2983 C218 1.549 . S
C2998 C614 1.549 . S
C3033 C434 1.549 . S
C3048 C254 1.549 . S
C3083 C290 1.549 . S
C3098 C470 1.549 . S
C3133 C326 1.549 . S
C3148 C506 1.549 . S
C3183 C362 1.549 . S
C3198 C542 1.549 . S
C3233 C398 1.549 . S
C3248 C578 1.549 . S
