# Generated by pormake.
# Topology wkw, (8)-cn, num edge types: 1
# Building blocks:
#     Node 0, Type 0, BuildingBlock: TAGTUT_clean_sbu_1, # of connection points: 8
#     Node 1, Type 0, BuildingBlock: TAGTUT_clean_sbu_1, # of connection points: 8
#     Node 2, Type 0, BuildingBlock: TAGTUT_clean_sbu_1, # of connection points: 8
#     Node 3, Type 0, BuildingBlock: TAGTUT_clean_sbu_1, # of connection points: 8
#     Node 4, Type 0, BuildingBlock: TAGTUT_clean_sbu_1, # of connection points: 8
#     Node 5, Type 0, BuildingBlock: TAGTUT_clean_sbu_1, # of connection points: 8
#     Edge 6, Type (0, 0), BuildingBlock: KIFKEQ_clean_linker_1, # of connection points: 2
#     Edge 7, Type (0, 0), BuildingBlock: KIFKEQ_clean_linker_1, # of connection points: 2
#     Edge 8, Type (0, 0), BuildingBlock: KIFKEQ_clean_linker_1, # of connection points: 2
#     Edge 9, Type (0, 0), BuildingBlock: KIFKEQ_clean_linker_1, # of connection points: 2
#     Edge 10, Type (0, 0), BuildingBlock: KIFKEQ_clean_linker_1, # of connection points: 2
#     Edge 11, Type (0, 0), BuildingBlock: KIFKEQ_clean_linker_1, # of connection points: 2
#     Edge 12, Type (0, 0), BuildingBlock: KIFKEQ_clean_linker_1, # of connection points: 2
#     Edge 13, Type (0, 0), BuildingBlock: KIFKEQ_clean_linker_1, # of connection points: 2
#     Edge 14, Type (0, 0), BuildingBlock: KIFKEQ_clean_linker_1, # of connection points: 2
#     Edge 15, Type (0, 0), BuildingBlock: KIFKEQ_clean_linker_1, # of connection points: 2
#     Edge 16, Type (0, 0), BuildingBlock: KIFKEQ_clean_linker_1, # of connection points: 2
#     Edge 17, Type (0, 0), BuildingBlock: KIFKEQ_clean_linker_1, # of connection points: 2
#     Edge 18, Type (0, 0), BuildingBlock: KIFKEQ_clean_linker_1, # of connection points: 2
#     Edge 19, Type (0, 0), BuildingBlock: KIFKEQ_clean_linker_1, # of connection points: 2
#     Edge 20, Type (0, 0), BuildingBlock: KIFKEQ_clean_linker_1, # of connection points: 2
#     Edge 21, Type (0, 0), BuildingBlock: KIFKEQ_clean_linker_1, # of connection points: 2
#     Edge 22, Type (0, 0), BuildingBlock: KIFKEQ_clean_linker_1, # of connection points: 2
#     Edge 23, Type (0, 0), BuildingBlock: KIFKEQ_clean_linker_1, # of connection points: 2
#     Edge 24, Type (0, 0), BuildingBlock: KIFKEQ_clean_linker_1, # of connection points: 2
#     Edge 25, Type (0, 0), BuildingBlock: KIFKEQ_clean_linker_1, # of connection points: 2
#     Edge 26, Type (0, 0), BuildingBlock: KIFKEQ_clean_linker_1, # of connection points: 2
#     Edge 27, Type (0, 0), BuildingBlock: KIFKEQ_clean_linker_1, # of connection points: 2
#     Edge 28, Type (0, 0), BuildingBlock: KIFKEQ_clean_linker_1, # of connection points: 2
#     Edge 29, Type (0, 0), BuildingBlock: KIFKEQ_clean_linker_1, # of connection points: 2
# Relax obj value: 0.240
# Max RMSD: 0.273
# Mean RMSD: 0.273
data_MOF--net-wkw--node1-TAGTUT_clean_sbu_1--edge1-KIFKEQ_clean_linker_1
_symmetry_space_group_name_H-M    P1
_symmetry_Int_Tables_number       1
_symmetry_cell_setting            triclinic
loop_
_symmetry_equiv_pos_as_xyz
'x, y, z'
_cell_length_a     39.923626
_cell_length_b     39.834434
_cell_length_c     19.288263
_cell_angle_alpha  90.341262
_cell_angle_beta   89.720782
_cell_angle_gamma 119.63666
loop_
_atom_site_label
_atom_site_type_symbol
_atom_site_fract_x
_atom_site_fract_y
_atom_site_fract_z
_atom_type_partial_charge
C0 C 0.76867 0.20744 0.83929 0.0
C1 C 0.87037 0.29788 0.75018 0.0
C2 C 0.94637 0.27354 0.96778 0.0
Mg3 Mg 0.81999 0.29322 0.87573 0.0
O4 O 0.84275 0.27143 0.93011 0.0
Mg5 Mg 0.86207 0.2394 0.88331 0.0
Mg6 Mg 0.88755 0.30482 -0.01192 0.0
O7 O 0.9329 0.33806 0.04833 0.0
Mg8 Mg 0.95571 0.31641 0.10581 0.0
Mg9 Mg 0.91334 0.37007 0.09368 0.0
C10 C 0.83709 0.34746 0.00972 0.0
C11 C 0.92352 0.39288 0.93116 0.0
O12 O 0.79803 0.20215 0.84204 0.0
O13 O 0.77032 0.23958 0.85417 0.0
O14 O 0.87668 0.27353 0.78197 0.0
O15 O 0.85074 0.31175 0.77807 0.0
O16 O 0.82186 0.33605 0.94941 0.0
O17 O 0.85431 0.33171 0.04087 0.0
C18 C 0.84834 0.21592 0.04489 0.0
O19 O 0.86253 0.25146 0.06321 0.0
O20 O 0.8466 0.20587 0.98166 0.0
O21 O 0.97512 0.40563 0.13138 0.0
O22 O 1.00711 0.37211 0.1276 0.0
O23 O 0.89714 0.33643 0.19739 0.0
C24 C 1.00602 0.40355 0.13742 0.0
O25 O 0.92495 0.29989 0.20202 0.0
O26 O 0.94081 0.26804 0.03307 0.0
C27 C 0.90458 0.31292 0.22956 0.0
O28 O 0.92394 0.28153 0.93214 0.0
O29 O 0.90902 0.35726 0.9134 0.0
O30 O 0.92876 0.40332 -0.00536 0.0
C31 C 0.55069 0.76511 0.02253 0.0
C32 C 0.57532 0.87142 0.92288 0.0
C33 C 0.68127 0.93898 0.14156 0.0
Mg34 Mg 0.52908 0.82728 0.05308 0.0
O35 O 0.57462 0.84791 0.10285 0.0
Mg36 Mg 0.62228 0.85711 0.05401 0.0
Mg37 Mg 0.59335 0.89437 0.16153 0.0
O38 O 0.61209 0.94117 0.22614 0.0
Mg39 Mg 0.65996 0.95237 0.28044 0.0
Mg40 Mg 0.55807 0.93179 0.26849 0.0
C41 C 0.50208 0.85515 0.18786 0.0
C42 C 0.54847 0.93939 0.10287 0.0
O43 O 0.58653 0.79131 0.01778 0.0
O44 O 0.52415 0.77259 0.04008 0.0
O45 O 0.60567 0.87561 0.95281 0.0
O46 O 0.54238 0.85407 0.9524 0.0
O47 O 0.49484 0.83764 0.129 0.0
O48 O 0.53595 0.8716 0.21525 0.0
C49 C 0.63043 0.8413 0.21506 0.0
O50 O 0.61452 0.861 0.23533 0.0
O51 O 0.63671 0.83801 0.15139 0.0
O52 O 0.62151 0.97536 0.24289 0.0
O53 O 0.67694 0.01397 0.28919 0.0
O54 O 0.57563 0.91631 0.37222 0.0
C55 C 0.64357 1.00813 0.27266 0.0
O56 O 0.6353 0.92423 0.37896 0.0
O57 O 0.67898 0.92545 0.20208 0.0
C58 C 0.60224 0.91434 0.40572 0.0
O59 O 0.65205 0.92119 0.10113 0.0
O60 O 0.56815 0.92265 0.08833 0.0
O61 O 0.54247 0.94593 0.16529 0.0
C62 C 0.81706 0.56593 0.15354 0.0
C63 C 0.72562 0.57575 0.05728 0.0
C64 C 0.74833 0.67828 0.27742 0.0
Mg65 Mg 0.73132 0.53308 0.18539 0.0
O66 O 0.75285 0.57841 0.23775 0.0
Mg67 Mg 0.78402 0.62849 0.18933 0.0
Mg68 Mg 0.71976 0.59021 0.29608 0.0
O69 O 0.68636 0.6024 0.35784 0.0
Mg70 Mg 0.70884 0.64634 0.418 0.0
Mg71 Mg 0.65475 0.55065 0.40143 0.0
C72 C 0.67894 0.49759 0.31957 0.0
C73 C 0.63199 0.5372 0.23907 0.0
O74 O 0.82259 0.60078 0.1528 0.0
O75 O 0.78458 0.53633 0.16762 0.0
O76 O 0.74943 0.60728 0.08735 0.0
O77 O 0.71307 0.54314 0.0869 0.0
O78 O 0.68961 0.49288 0.25907 0.0
O79 O 0.69426 0.5309 0.34934 0.0
C80 C 0.80883 0.64183 0.35025 0.0
O81 O 0.77385 0.61991 0.37034 0.0
O82 O 0.8176 0.64878 0.28645 0.0
O83 O 0.61883 0.57659 0.44034 0.0
O84 O 0.65272 0.64184 0.44161 0.0
O85 O 0.68783 0.56783 0.50403 0.0
C86 C 0.62112 0.60959 0.4492 0.0
O87 O 0.72659 0.63124 0.51322 0.0
O88 O 0.75578 0.67764 0.34164 0.0
C89 C 0.71213 0.59731 0.53823 0.0
O90 O 0.74143 0.64896 0.23867 0.0
O91 O 0.66746 0.55857 0.22189 0.0
O92 O 0.62141 0.53226 0.3024 0.0
C93 C 0.2611 0.81002 0.3637 0.0
C94 C 0.15995 0.72145 0.25924 0.0
C95 C 0.08162 0.74513 0.48383 0.0
Mg96 Mg 0.20682 0.72361 0.38809 0.0
O97 O 0.18238 0.74469 0.44007 0.0
Mg98 Mg 0.16627 0.77913 0.39459 0.0
Mg99 Mg 0.13729 0.71268 0.49718 0.0
O100 O 0.0913 0.68052 0.55844 0.0
Mg101 Mg 0.07273 0.70499 0.62102 0.0
Mg102 Mg 0.10886 0.646 0.59995 0.0
C103 C 0.18542 0.66724 0.5178 0.0
C104 C 0.0986 0.62512 0.43608 0.0
O105 O 0.23216 0.81602 0.36064 0.0
O106 O 0.25763 0.77701 0.37686 0.0
O107 O 0.1524 0.74545 0.29031 0.0
O108 O 0.17944 0.708 0.28839 0.0
O109 O 0.20203 0.67896 0.45868 0.0
O110 O 0.16826 0.68335 0.54845 0.0
C111 C 0.1796 0.80134 0.55668 0.0
O112 O 0.1649 0.76571 0.57407 0.0
O113 O 0.18101 0.81155 0.49393 0.0
O114 O 0.04705 0.6128 0.63801 0.0
O115 O 0.01944 0.6505 0.64169 0.0
O116 O 0.12637 0.67797 0.70495 0.0
C117 C 0.0178 0.61751 0.6473 0.0
O118 O 0.10551 0.72015 0.71563 0.0
O119 O 0.09216 0.75303 0.54694 0.0
C120 C 0.12311 0.7035 0.73996 0.0
O121 O 0.10294 0.7386 0.44142 0.0
O122 O 0.1142 0.66102 0.42057 0.0
O123 O 0.09257 0.61383 0.49894 0.0
C124 C 0.47589 0.25421 0.48371 0.0
C125 C 0.45674 0.14874 0.38653 0.0
C126 C 0.35333 0.07885 0.60909 0.0
Mg127 Mg 0.50288 0.19573 0.51359 0.0
O128 O 0.45775 0.17559 0.56569 0.0
Mg129 Mg 0.40817 0.16157 0.51919 0.0
Mg130 Mg 0.44241 0.13098 0.62546 0.0
O131 O 0.42666 0.08602 0.68943 0.0
Mg132 Mg 0.38366 0.07087 0.75018 0.0
Mg133 Mg 0.47791 0.1023 0.73235 0.0
C134 C 0.53492 0.1744 0.64648 0.0
C135 C 0.48696 0.08566 0.57046 0.0
O136 O 0.44033 0.22702 0.48212 0.0
O137 O 0.50394 0.24845 0.49771 0.0
O138 O 0.42618 0.14419 0.41674 0.0
O139 O 0.48958 0.16623 0.41598 0.0
O140 O 0.54095 0.18891 0.58541 0.0
O141 O 0.50208 0.16062 0.6769 0.0
C142 C 0.39937 0.17834 0.67991 0.0
O143 O 0.41829 0.16169 0.69934 0.0
O144 O 0.39183 0.18001 0.61652 0.0
O145 O 0.44698 0.04181 0.77613 0.0
O146 O 0.38237 0.017 0.77978 0.0
O147 O 0.46443 0.12377 0.83314 0.0
C148 C 0.41281 0.01401 0.78781 0.0
O149 O 0.4024 0.10629 0.84239 0.0
O150 O 0.355 0.0889 0.67259 0.0
C151 C 0.43648 0.12292 0.86688 0.0
O152 O 0.38282 0.09845 0.56952 0.0
O153 O 0.46875 0.10318 0.55204 0.0
O154 O 0.49195 0.08118 0.63429 0.0
C155 C 0.2157 0.45577 0.66672 0.0
C156 C 0.30317 0.44004 0.56624 0.0
C157 C 0.2804 0.3395 0.78241 0.0
Mg158 Mg 0.30203 0.48612 0.69387 0.0
O159 O 0.27864 0.44148 0.7481 0.0
Mg160 Mg 0.24518 0.39096 0.70145 0.0
Mg161 Mg 0.31125 0.42852 0.80469 0.0
O162 O 0.34429 0.41534 0.86393 0.0
Mg163 Mg 0.32264 0.37054 0.92068 0.0
Mg164 Mg 0.37653 0.46657 0.90952 0.0
C165 C 0.35397 0.52103 0.82972 0.0
C166 C 0.39904 0.47999 0.74642 0.0
O167 O 0.20834 0.42032 0.66766 0.0
O168 O 0.24923 0.48468 0.67756 0.0
O169 O 0.27803 0.41017 0.59842 0.0
O170 O 0.319 0.4734 0.59462 0.0
O171 O 0.34432 0.52591 0.76863 0.0
O172 O 0.33801 0.48769 0.85896 0.0
C173 C 0.22265 0.38016 0.86346 0.0
O174 O 0.25816 0.40079 0.88111 0.0
O175 O 0.21249 0.37261 0.8004 0.0
O176 O 0.41196 0.43944 0.94477 0.0
O177 O 0.37853 0.37423 0.93935 0.0
O178 O 0.3431 0.44885 0.01348 0.0
C179 C 0.40992 0.40636 0.94928 0.0
O180 O 0.30674 0.38485 0.01839 0.0
O181 O 0.27424 0.33955 0.84749 0.0
C182 C 0.31974 0.41815 0.04591 0.0
O183 O 0.28739 0.36951 0.74638 0.0
O184 O 0.36347 0.459 0.72949 0.0
O185 O 0.40966 0.48497 0.8097 0.0
H186 H 0.85323 0.32515 0.30624 0.0
H187 H 0.93841 0.28882 0.32385 0.0
H188 H 0.84659 0.3233 0.43239 0.0
H189 H 0.93385 0.28945 0.44856 0.0
H190 H 0.89255 0.25701 0.66723 0.0
H191 H 0.89755 0.25833 0.54278 0.0
H192 H 0.87618 0.35467 0.53654 0.0
H193 H 0.86861 0.35158 0.66266 0.0
C194 C 0.87027 0.31646 0.33696 0.0
C195 C 0.89595 0.30664 0.30477 0.0
C196 C 0.86697 0.31601 0.40942 0.0
C197 C 0.8898 0.30641 0.45138 0.0
C198 C 0.91507 0.29617 0.41865 0.0
C199 C 0.91773 0.2958 0.34658 0.0
C200 C 0.88941 0.27894 0.63978 0.0
C201 C 0.88018 0.30424 0.67532 0.0
C202 C 0.89242 0.27977 0.56777 0.0
C203 C 0.88725 0.30657 0.52875 0.0
C204 C 0.87954 0.33303 0.56445 0.0
C205 C 0.87575 0.33168 0.63692 0.0
H206 H 0.54268 0.90719 0.48654 0.0
H207 H 0.64766 0.90097 0.49521 0.0
H208 H 0.53602 0.90002 0.61139 0.0
H209 H 0.6401 0.89215 0.62037 0.0
H210 H 0.64023 0.91776 0.84794 0.0
H211 H 0.64547 0.92751 0.72308 0.0
H212 H 0.52174 0.85726 0.70473 0.0
H213 H 0.51644 0.84886 0.82984 0.0
C214 C 0.56402 0.90353 0.51487 0.0
C215 C 0.59582 0.90476 0.48059 0.0
C216 C 0.56011 0.89935 0.58677 0.0
C217 C 0.58767 0.89585 0.62639 0.0
C218 C 0.61877 0.89571 0.59183 0.0
C219 C 0.62291 0.9003 0.51986 0.0
C220 C 0.61409 0.9049 0.81736 0.0
C221 C 0.57794 0.88236 0.84893 0.0
C222 C 0.61712 0.91009 0.74556 0.0
C223 C 0.58412 0.89256 0.70337 0.0
C224 C 0.54781 0.8714 0.73538 0.0
C225 C 0.54474 0.86657 0.80732 0.0
H226 H 0.73376 0.63729 0.98154 0.0
H227 H 0.70187 0.51701 0.96327 0.0
H228 H 0.73141 0.6415 0.85584 0.0
H229 H 0.70165 0.5216 0.83801 0.0
H230 H 0.67145 0.53261 0.61623 0.0
H231 H 0.67143 0.52696 0.74088 0.0
H232 H 0.76575 0.64437 0.7552 0.0
H233 H 0.76418 0.65072 0.6297 0.0
C234 C 0.72594 0.61166 0.95067 0.0
C235 C 0.7179 0.57681 -0.0175 0.0
C236 C 0.72518 0.61419 0.87842 0.0
C237 C 0.717 0.5821 0.83611 0.0
C238 C 0.70766 0.5469 0.86838 0.0
C239 C 0.70774 0.5442 0.94058 0.0
C240 C 0.69264 0.55716 0.64563 0.0
C241 C 0.71778 0.59223 0.61265 0.0
C242 C 0.69265 0.55386 0.71762 0.0
C243 C 0.71831 0.58529 0.75886 0.0
C244 C 0.74482 0.61981 0.72555 0.0
C245 C 0.74437 0.62333 0.65336 0.0
H246 H 0.11151 0.73633 0.18132 0.0
H247 H 0.18926 0.69039 0.16684 0.0
H248 H 0.10442 0.73237 0.0557 0.0
H249 H 0.18382 0.68828 0.04152 0.0
H250 H 0.13954 0.65735 0.82024 0.0
H251 H 0.14576 0.65874 0.9453 0.0
H252 H 0.13802 0.76319 0.95416 0.0
H253 H 0.12977 0.76058 0.82875 0.0
C254 C 0.12691 0.72516 0.15139 0.0
C255 C 0.15097 0.71372 0.18431 0.0
C256 C 0.12329 0.72339 0.07913 0.0
C257 C 0.14405 0.71063 0.03784 0.0
C258 C 0.16705 0.69794 0.07118 0.0
C259 C 0.17021 0.69917 0.1434 0.0
C260 C 0.13975 0.68101 0.84863 0.0
C261 C 0.13406 0.70884 0.81428 0.0
C262 C 0.14333 0.6818 0.92073 0.0
C263 C 0.14196 0.71082 0.96051 0.0
C264 C 0.13816 0.73976 0.9257 0.0
C265 C 0.13398 0.73862 0.85355 0.0
H266 H 0.38649 0.12892 0.95808 0.0
H267 H 0.49958 0.13983 0.94491 0.0
H268 H 0.39232 0.13442 0.084 0.0
H269 H 0.50438 0.14281 0.06966 0.0
H270 H 0.51641 0.17882 0.29478 0.0
H271 H 0.5127 0.17728 0.16962 0.0
H272 H 0.38991 0.09841 0.18136 0.0
H273 H 0.39345 0.10201 0.30756 0.0
C274 C 0.41275 0.13294 0.9819 0.0
C275 C 0.4425 0.13392 0.94121 0.0
C276 C 0.41587 0.13543 0.05426 0.0
C277 C 0.44855 0.13836 0.08759 0.0
C278 C 0.47893 0.14102 0.04641 0.0
C279 C 0.47613 0.13928 0.97433 0.0
C280 C 0.48867 0.16056 0.27082 0.0
C281 C 0.4552 0.14056 0.31131 0.0
C282 C 0.4865 0.1597 0.19861 0.0
C283 C 0.4509 0.13808 0.16476 0.0
C284 C 0.41769 0.11631 0.20537 0.0
C285 C 0.41976 0.11781 0.27781 0.0
H286 H 0.33262 0.48217 0.12146 0.0
H287 H 0.2941 0.36045 0.14116 0.0
H288 H 0.33008 0.48752 0.24733 0.0
H289 H 0.29374 0.36608 0.26598 0.0
H290 H 0.26049 0.37772 0.48386 0.0
H291 H 0.26225 0.37327 0.3594 0.0
H292 H 0.36099 0.48837 0.35177 0.0
H293 H 0.3577 0.49365 0.47774 0.0
C294 C 0.32331 0.4565 0.15258 0.0
C295 C 0.31316 0.42081 0.12104 0.0
C296 C 0.32243 0.45966 0.22492 0.0
C297 C 0.31194 0.42732 0.26748 0.0
C298 C 0.30125 0.39157 0.23546 0.0
C299 C 0.30144 0.38829 0.16341 0.0
C300 C 0.28298 0.40205 0.45609 0.0
C301 C 0.30899 0.43609 0.49117 0.0
C302 C 0.28406 0.39942 0.38413 0.0
C303 C 0.31172 0.43043 0.34475 0.0
C304 C 0.33872 0.46412 0.37999 0.0
C305 C 0.33721 0.46702 0.45238 0.0
H306 H 0.55655 0.17917 0.78164 0.0
H307 H 0.57759 0.14933 0.57702 0.0
H308 H 0.60855 0.17062 0.82739 0.0
H309 H 0.62717 0.13718 0.62291 0.0
H310 H 0.75242 0.19363 0.70422 0.0
H311 H 0.6895 0.17361 0.65609 0.0
H312 H 0.63846 0.13672 0.85965 0.0
H313 H 0.70263 0.15986 0.90788 0.0
C314 C 0.57196 0.17007 0.74684 0.0
C315 C 0.56407 0.16614 0.6757 0.0
C316 C 0.60143 0.16447 0.77305 0.0
C317 C 0.6228 0.1536 0.72885 0.0
C318 C 0.61252 0.14681 0.65836 0.0
C319 C 0.58403 0.15372 0.63193 0.0
C320 C 0.72744 0.17934 0.73785 0.0
C321 C 0.73215 0.17811 0.80946 0.0
C322 C 0.69108 0.16798 0.71042 0.0
C323 C 0.6586 0.15459 0.75421 0.0
C324 C 0.66287 0.14826 0.82463 0.0
C325 C 0.69949 0.16057 0.85222 0.0
H326 H 0.50267 0.7033 0.09767 0.0
H327 H 0.56687 0.73596 0.90609 0.0
H328 H 0.46086 0.63924 0.05242 0.0
H329 H 0.5258 0.67056 0.86062 0.0
H330 H 0.38299 0.52597 0.96076 0.0
H331 H 0.44202 0.57819 0.00937 0.0
H332 H 0.46219 0.64266 0.8194 0.0
H333 H 0.40508 0.58938 0.76923 0.0
C334 C 0.5089 0.69599 0.0468 0.0
C335 C 0.53752 0.72453 0.00491 0.0
C336 C 0.48491 0.65908 0.02066 0.0
C337 C 0.48913 0.64982 0.95192 0.0
C338 C 0.52101 0.67708 0.91309 0.0
C339 C 0.54502 0.71432 0.93938 0.0
C340 C 0.40047 0.55089 0.92881 0.0
C341 C 0.38913 0.55331 0.86101 0.0
C342 C 0.43428 0.58107 0.95691 0.0
C343 C 0.45713 0.61488 0.91853 0.0
C344 C 0.44602 0.61692 0.85029 0.0
C345 C 0.41263 0.58652 0.82186 0.0
H346 H 0.82063 0.39716 0.94071 0.0
H347 H 0.86628 0.38421 0.13506 0.0
H348 H 0.83333 0.46039 0.97553 0.0
H349 H 0.88394 0.44987 0.16657 0.0
H350 H 0.84677 0.53638 0.24211 0.0
H351 H 0.86109 0.48675 0.20752 0.0
H352 H 0.87132 0.52407 -0.00585 0.0
H353 H 0.85285 0.57153 0.0297 0.0
C354 C 0.834 0.408 -0.0093 0.0
C355 C 0.84284 0.3854 0.03459 0.0
C356 C 0.84234 0.44511 0.01014 0.0
C357 C 0.86057 0.4614 0.07367 0.0
C358 C 0.86966 0.43877 0.11744 0.0
C359 C 0.86007 0.40102 0.09887 0.0
C360 C 0.85403 0.53521 0.18824 0.0
C361 C 0.84794 0.55714 0.13841 0.0
C362 C 0.86201 0.50625 0.16787 0.0
C363 C 0.86529 0.49948 0.09708 0.0
C364 C 0.86665 0.52668 0.04875 0.0
C365 C 0.85735 0.55493 0.06916 0.0
H366 H 0.49819 0.88178 0.31846 0.0
H367 H 0.43697 0.84466 0.12399 0.0
H368 H 0.44788 0.89332 0.3645 0.0
H369 H 0.38544 0.8525 0.1714 0.0
H370 H 0.28965 0.85787 0.25134 0.0
H371 H 0.35644 0.8864 0.21152 0.0
H372 H 0.38712 0.85538 0.40636 0.0
H373 H 0.32172 0.82976 0.44643 0.0
C374 C 0.47426 0.8764 0.2853 0.0
C375 C 0.47172 0.86214 0.21761 0.0
C376 C 0.44509 0.88266 0.3119 0.0
C377 C 0.41213 0.87372 0.27212 0.0
C378 C 0.41042 0.86061 0.20366 0.0
C379 C 0.43982 0.85516 0.17678 0.0
C380 C 0.31135 0.85937 0.28671 0.0
C381 C 0.3007 0.84109 0.35124 0.0
C382 C 0.3495 0.87495 0.2636 0.0
C383 C 0.37702 0.87157 0.30429 0.0
C384 C 0.36715 0.85843 0.37284 0.0
C385 C 0.3294 0.84355 0.39608 0.0
H386 H 0.46288 0.28475 0.367 0.0
H387 H 0.51615 0.31411 0.56851 0.0
H388 H 0.50488 0.35126 0.32887 0.0
H389 H 0.55951 0.37909 0.5305 0.0
H390 H 0.64655 0.49121 0.44877 0.0
H391 H 0.58445 0.44037 0.48971 0.0
H392 H 0.56878 0.3786 0.29643 0.0
H393 H 0.62854 0.4309 0.25352 0.0
C394 C 0.4824 0.30591 0.40393 0.0
C395 C 0.48682 0.29452 0.47019 0.0
C396 C 0.50709 0.34381 0.38189 0.0
C397 C 0.53692 0.37032 0.4255 0.0
C398 C 0.53733 0.35991 0.49488 0.0
C399 C 0.51237 0.32244 0.51698 0.0
C400 C 0.62935 0.46726 0.41441 0.0
C401 C 0.64262 0.46545 0.34767 0.0
C402 C 0.59377 0.43778 0.43814 0.0
C403 C 0.57114 0.40508 0.39656 0.0
C404 C 0.58451 0.40353 0.32967 0.0
C405 C 0.61954 0.43333 0.30549 0.0
H406 H 0.20088 0.61649 0.44883 0.0
H407 H 0.1564 0.63205 0.64378 0.0
H408 H 0.19058 0.55464 0.48689 0.0
H409 H 0.14208 0.56792 0.67943 0.0
H410 H 0.17488 0.44588 0.54791 0.0
H411 H 0.15282 0.49047 0.51225 0.0
H412 H 0.17354 0.53801 0.72021 0.0
H413 H 0.19235 0.49176 0.75555 0.0
C414 C 0.18831 0.6065 0.49964 0.0
C415 C 0.17943 0.62951 0.5431 0.0
C416 C 0.18145 0.57028 0.521 0.0
C417 C 0.16492 0.55549 0.58622 0.0
C418 C 0.15515 0.57817 0.62909 0.0
C419 C 0.16295 0.61496 0.6083 0.0
C420 C 0.17216 0.46422 0.58662 0.0
C421 C 0.18554 0.46579 0.65416 0.0
C422 C 0.16053 0.49056 0.56601 0.0
C423 C 0.16322 0.51941 0.61232 0.0
C424 C 0.17121 0.51679 0.68242 0.0
C425 C 0.18193 0.49 0.7031 0.0
H426 H 0.87333 0.1683 0.09067 0.0
H427 H 0.77707 0.18876 0.09869 0.0
H428 H 0.83114 0.1011 0.12326 0.0
H429 H 0.73438 0.12126 0.13112 0.0
H430 H 0.74736 0.98408 0.21082 0.0
H431 H 0.78772 0.054 0.20848 0.0
H432 H 0.7111 0.06102 0.05943 0.0
H433 H 0.67009 0.99061 0.06249 0.0
C434 C 0.84351 0.15888 0.10338 0.0
C435 C 0.82863 0.18389 0.09393 0.0
C436 C 0.81913 0.12022 0.1211 0.0
C437 C 0.77921 0.10562 0.12858 0.0
C438 C 0.76489 0.13149 0.12473 0.0
C439 C 0.78946 0.17035 0.10782 0.0
C440 C 0.73898 1.00049 0.1776 0.0
C441 C 0.70555 0.98165 0.13658 0.0
C442 C 0.76218 0.04061 0.17632 0.0
C443 C 0.75264 0.06317 0.13404 0.0
C444 C 0.71897 0.04449 0.09337 0.0
C445 C 0.69573 1.00411 0.09435 0.0
H446 H 0.58736 0.76561 0.23939 0.0
H447 H 0.69728 0.86491 0.28538 0.0
H448 H 0.61444 0.72357 0.25503 0.0
H449 H 0.72447 0.82284 0.30613 0.0
H450 H 0.77709 0.75135 0.2314 0.0
H451 H 0.74575 0.79059 0.23496 0.0
H452 H 0.64115 0.69188 0.30956 0.0
H453 H 0.67197 0.65245 0.2999 0.0
C454 C 0.61677 0.77818 0.25776 0.0
C455 C 0.64005 0.81847 0.2621 0.0
C456 C 0.63266 0.75404 0.26583 0.0
C457 C 0.67223 0.76963 0.27962 0.0
C458 C 0.69427 0.8097 0.29278 0.0
C459 C 0.67844 0.83389 0.28329 0.0
C460 C 0.74699 0.73793 0.24618 0.0
C461 C 0.72674 0.69877 0.26403 0.0
C462 C 0.72918 0.76062 0.25018 0.0
C463 C 0.6909 0.74495 0.27416 0.0
C464 C 0.67044 0.70526 0.29032 0.0
C465 C 0.68806 0.68245 0.28471 0.0
H466 H 0.02372 0.72114 0.5808 0.0
H467 H 0.04335 0.72703 0.35932 0.0
H468 H 0.9551 0.69436 0.5616 0.0
H469 H 0.97404 0.70156 0.34074 0.0
H470 H 0.86512 0.71573 0.35419 0.0
H471 H 0.93129 0.73793 0.39045 0.0
H472 H 0.89555 0.62747 0.48511 0.0
H473 H 0.82889 0.60458 0.4466 0.0
C474 C 1.01353 0.71624 0.52786 0.0
C475 C 0.03934 0.72597 0.47136 0.0
C476 C 0.97405 0.7009 0.51722 0.0
C477 C 0.95948 0.69598 0.44996 0.0
C478 C 0.98483 0.70513 0.39326 0.0
C479 C 0.02437 0.71959 0.40383 0.0
C480 C 0.87105 0.69667 0.38524 0.0
C481 C 0.84189 0.65851 0.39796 0.0
C482 C 0.90898 0.70918 0.40483 0.0
C483 C 0.91844 0.68401 0.43873 0.0
C484 C 0.88879 0.64718 0.45825 0.0
C485 C 0.85062 0.63435 0.43752 0.0
H486 H 0.1583 0.84839 0.6223 0.0
H487 H 0.25381 0.82878 0.58738 0.0
H488 H 0.20294 0.9168 0.64218 0.0
H489 H 0.29851 0.89707 0.60081 0.0
H490 H 0.37505 0.02508 0.63508 0.0
H491 H 0.33267 0.95614 0.64905 0.0
H492 H 0.23756 0.96818 0.57129 0.0
H493 H 0.27979 0.03782 0.56464 0.0
C494 C 0.18898 0.85849 0.62235 0.0
C495 C 0.20264 0.83326 0.6044 0.0
C496 C 0.21471 0.89801 0.63121 0.0
C497 C 0.2546 0.91327 0.62002 0.0
C498 C 0.26827 0.88706 0.60991 0.0
C499 C 0.24256 0.84747 0.60315 0.0
C500 C 0.34516 0.01285 0.62059 0.0
C501 C 0.33072 0.03673 0.59841 0.0
C502 C 0.32063 0.97308 0.62844 0.0
C503 C 0.28109 0.95596 0.61255 0.0
C504 C 0.26732 0.97998 0.58667 0.0
C505 C 0.29172 0.0199 0.58084 0.0
H506 H 0.33267 0.15346 0.75233 0.0
H507 H 0.44081 0.25438 0.70364 0.0
H508 H 0.30518 0.19444 0.78282 0.0
H509 H 0.41334 0.29543 0.72927 0.0
H510 H 0.35684 0.36443 0.79892 0.0
H511 H 0.38797 0.3251 0.79591 0.0
H512 H 0.28187 0.22811 0.72143 0.0
H513 H 0.25039 0.26715 0.73023 0.0
C514 C 0.35105 0.18455 0.75136 0.0
C515 C 0.3891 0.20083 0.72737 0.0
C516 C 0.33505 0.20814 0.7667 0.0
C517 C 0.3565 0.24847 0.75651 0.0
C518 C 0.39568 0.26475 0.73833 0.0
C519 C 0.41176 0.24119 0.72433 0.0
C520 C 0.34046 0.33483 0.78115 0.0
C521 C 0.30138 0.31891 0.76395 0.0
C522 C 0.35826 0.3121 0.7794 0.0
C523 C 0.33754 0.27294 0.75922 0.0
C524 C 0.2987 0.25766 0.73929 0.0
C525 C 0.28075 0.28025 0.74256 0.0
H526 H 1.00083 0.34739 -0.00392 0.0
H527 H 0.98458 0.24236 0.90097 0.0
H528 H 0.07036 0.37422 -0.00725 0.0
H529 H 0.05431 0.26999 0.89149 0.0
H530 H 0.17725 0.31 0.92166 0.0
H531 H 0.10966 0.28529 0.95178 0.0
H532 H 0.12571 0.40038 0.92935 0.0
H533 H 0.19344 0.42477 0.90458 0.0
C534 C 1.01238 0.33053 0.97258 0.0
C535 C 0.98748 0.29297 0.94838 0.0
C536 C 0.05236 0.34587 0.97048 0.0
C537 C 0.06856 0.32425 0.94279 0.0
C538 C 0.0433 0.28725 0.91534 0.0
C539 C 1.00324 0.27163 0.91899 0.0
C540 C 0.16666 0.3302 0.92762 0.0
C541 C 0.19073 0.3694 0.91248 0.0
C542 C 0.12756 0.31595 0.94262 0.0
C543 C 0.11142 0.34044 0.94071 0.0
C544 C 0.13657 0.38034 0.93178 0.0
C545 C 0.17579 0.39462 0.91841 0.0
H546 H 0.05505 0.41269 0.24311 0.0
H547 H 0.03157 0.4747 0.08576 0.0
H548 H 0.09038 0.47253 0.3099 0.0
H549 H 0.06543 0.53391 0.15274 0.0
H550 H 0.1218 0.63597 0.29921 0.0
H551 H 0.11665 0.58654 0.21698 0.0
H552 H 0.0554 0.49867 0.37137 0.0
H553 H 0.06106 0.54739 0.45267 0.0
C554 C 0.05914 0.43946 0.22125 0.0
C555 C 0.04013 0.4392 0.1603 0.0
C556 C 0.07882 0.47362 0.2598 0.0
C557 C 0.07934 0.50759 0.23779 0.0
C558 C 0.06535 0.50831 0.17157 0.0
C559 C 0.04589 0.47433 0.13312 0.0
C560 C 0.10719 0.60609 0.31525 0.0
C561 C 0.09184 0.59574 0.38247 0.0
C562 C 0.10454 0.57782 0.26845 0.0
C563 C 0.0865 0.53873 0.28819 0.0
C564 C 0.07075 0.52857 0.35507 0.0
C565 C 0.07336 0.55659 0.40143 0.0
H566 H 0.49764 0.10121 0.42991 0.0
H567 H 0.5233 0.04459 0.59518 0.0
H568 H 0.53942 0.08929 0.35172 0.0
H569 H 0.56443 0.03302 0.51803 0.0
H570 H 0.58123 0.01212 0.22951 0.0
H571 H 0.5431 0.03353 0.29631 0.0
H572 H 0.62773 0.07249 0.46001 0.0
H573 H 0.66543 0.05021 0.39356 0.0
C574 C 0.51171 0.08591 0.44936 0.0
C575 C 0.50721 0.07412 0.51899 0.0
C576 C 0.53579 0.07928 0.40476 0.0
C577 C 0.55595 0.06106 0.42931 0.0
C578 C 0.55024 0.04813 0.49807 0.0
C579 C 0.52618 0.05443 0.54212 0.0
C580 C 0.59189 0.02572 0.2794 0.0
C581 C 0.62587 0.02883 0.30695 0.0
C582 C 0.57021 0.03827 0.31736 0.0
C583 C 0.58207 0.05409 0.38386 0.0
C584 C 0.61754 0.05975 0.40931 0.0
C585 C 0.63933 0.04734 0.37109 0.0
H586 H 0.55005 0.56504 0.39735 0.0
H587 H 0.61191 0.64872 0.55776 0.0
H588 H 0.49124 0.53937 0.46486 0.0
H589 H 0.55229 0.6242 0.62497 0.0
H590 H 0.47633 0.52213 0.76646 0.0
H591 H 0.52526 0.56497 0.68661 0.0
H592 H 0.43874 0.53604 0.52837 0.0
H593 H 0.3894 0.49153 0.60876 0.0
C594 C 0.55046 0.57931 0.44565 0.0
C595 C 0.58551 0.60822 0.47328 0.0
C596 C 0.51665 0.56456 0.4845 0.0
C597 C 0.51733 0.57872 0.55159 0.0
C598 C 0.55119 0.61179 0.57435 0.0
C599 C 0.58523 0.62638 0.53547 0.0
C600 C 0.4675 0.52468 0.71465 0.0
C601 C 0.42872 0.50322 0.69408 0.0
C602 C 0.49564 0.54999 0.66904 0.0
C603 C 0.48599 0.55485 0.60135 0.0
C604 C 0.44722 0.5332 0.58028 0.0
C605 C 0.41891 0.50753 0.62618 0.0
H606 H 0.97246 0.61013 0.7588 0.0
H607 H 0.98597 0.54688 0.58902 0.0
H608 H 0.93635 0.54991 0.82333 0.0
H609 H 0.95142 0.48719 0.65366 0.0
H610 H 0.8962 0.38416 0.79741 0.0
H611 H 0.90138 0.43529 0.72059 0.0
H612 H 0.97079 0.52068 0.87441 0.0
H613 H 0.9652 0.47026 0.95026 0.0
C614 C 0.96592 0.58312 0.73389 0.0
C615 C 0.98247 0.583 0.66983 0.0
C616 C 0.94583 0.5487 0.77112 0.0
C617 C 0.9425 0.51408 0.74467 0.0
C618 C 0.95374 0.51328 0.67594 0.0
C619 C 0.97355 0.54754 0.63877 0.0
C620 C 0.91271 0.41385 0.8143 0.0
C621 C 0.93031 0.42303 0.87981 0.0
C622 C 0.91533 0.44312 0.77074 0.0
C623 C 0.9356 0.48205 0.79211 0.0
C624 C 0.95368 0.49101 0.85715 0.0
C625 C 0.95108 0.462 0.90026 0.0
H626 H 0.53192 0.90915 0.97148 0.0
H627 H 0.51302 0.9826 0.11238 0.0
H628 H 0.48445 0.90873 0.89214 0.0
H629 H 0.46752 0.98431 0.03221 0.0
H630 H 0.37802 0.97861 0.90848 0.0
H631 H 0.40533 0.94951 -0.01561 0.0
H632 H 0.47593 0.94829 0.81459 0.0
H633 H 0.44696 0.97503 0.73902 0.0
C634 C 0.51804 0.92556 -0.01497 0.0
C635 C 0.52606 0.94547 0.04843 0.0
C636 C 0.49064 0.92528 0.93973 0.0
C637 C 0.47119 0.94565 0.95637 0.0
C638 C 0.48055 0.96692 0.01863 0.0
C639 C 0.50742 0.96667 0.06411 0.0
C640 C 0.39741 0.96964 0.88659 0.0
C641 C 0.41103 0.97962 0.81858 0.0
C642 C 0.41387 0.95389 0.93036 0.0
C643 C 0.44435 0.94847 0.90652 0.0
C644 C 0.45301 0.95247 0.83534 0.0
C645 C 0.43616 0.96762 0.79162 0.0
H646 H 0.48023 0.45119 0.89466 0.0
H647 H 0.42029 0.36608 0.05311 0.0
H648 H 0.53972 0.47656 0.95943 0.0
H649 H 0.48059 0.39031 0.11746 0.0
H650 H 0.55497 0.49314 0.26029 0.0
H651 H 0.50652 0.44937 0.18078 0.0
H652 H 0.59302 0.48048 0.02075 0.0
H653 H 0.64196 0.52587 0.10097 0.0
C654 C 0.4804 0.43653 0.94171 0.0
C655 C 0.44571 0.40737 0.96997 0.0
C656 C 0.5146 0.45108 0.97898 0.0
C657 C 0.5146 0.43648 0.04502 0.0
C658 C 0.48113 0.40303 0.0677 0.0
C659 C 0.4467 0.38865 0.03046 0.0
C660 C 0.56392 0.49088 0.20817 0.0
C661 C 0.60254 0.51328 0.187 0.0
C662 C 0.53607 0.46501 0.16275 0.0
C663 C 0.54587 0.46055 0.09463 0.0
C664 C 0.58449 0.48302 0.07303 0.0
C665 C 0.61253 0.50922 0.11878 0.0
loop_
_geom_bond_atom_site_label_1
_geom_bond_atom_site_label_2
_geom_bond_distance
_geom_bond_site_symmetry_2
_ccdc_geom_bond_type
C0 O12 1.241 . S
C0 O13 1.280 . S
C1 O14 1.277 . S
C1 O15 1.245 . S
C2 O26 1.247 1_556 S
C2 O28 1.289 . S
Mg3 O4 1.926 . S
Mg3 O13 1.984 . S
Mg3 O15 1.988 . S
Mg3 O16 2.061 . S
O4 Mg3 1.926 . S
O4 Mg5 1.986 . S
O4 Mg6 1.914 1_556 S
Mg5 O4 1.986 . S
Mg5 O12 2.042 . S
Mg5 O14 2.041 . S
Mg5 O20 2.038 . S
Mg5 O28 2.238 . S
Mg6 O4 1.914 1_554 S
Mg6 O7 1.920 . S
Mg6 O17 2.109 . S
Mg6 O19 2.081 . S
Mg6 O28 2.104 1_554 S
Mg6 O29 2.076 1_554 S
O7 Mg6 1.920 . S
O7 Mg8 1.926 . S
O7 Mg9 1.986 . S
Mg8 O7 1.926 . S
Mg8 O22 1.984 . S
Mg8 O25 1.988 . S
Mg8 O26 2.061 . S
Mg9 O7 1.986 . S
Mg9 O17 2.238 . S
Mg9 O21 2.042 . S
Mg9 O23 2.041 . S
Mg9 O30 2.038 . S
C10 O16 1.247 1_554 S
C10 O17 1.289 . S
C11 O29 1.245 . S
C11 O30 1.274 1_556 S
O12 C0 1.241 . S
O12 Mg5 2.042 . S
O13 C0 1.280 . S
O13 Mg3 1.984 . S
O14 C1 1.277 . S
O14 Mg5 2.041 . S
O15 C1 1.245 . S
O15 Mg3 1.988 . S
O16 Mg3 2.061 . S
O16 C10 1.247 1_556 S
O17 Mg6 2.109 . S
O17 Mg9 2.238 . S
O17 C10 1.289 . S
C18 O19 1.245 . S
C18 O20 1.274 1_554 S
O19 Mg6 2.081 . S
O19 C18 1.245 . S
O20 Mg5 2.038 . S
O20 C18 1.274 1_556 S
O21 Mg9 2.042 . S
O21 C24 1.241 . S
O22 Mg8 1.984 . S
O22 C24 1.280 . S
O23 Mg9 2.041 . S
O23 C27 1.277 . S
C24 O21 1.241 . S
C24 O22 1.280 . S
O25 Mg8 1.988 . S
O25 C27 1.245 . S
O26 C2 1.247 1_554 S
O26 Mg8 2.061 . S
C27 O23 1.277 . S
C27 O25 1.245 . S
O28 C2 1.289 . S
O28 Mg5 2.238 . S
O28 Mg6 2.104 1_556 S
O29 Mg6 2.076 1_556 S
O29 C11 1.245 . S
O30 Mg9 2.038 . S
O30 C11 1.274 1_554 S
C31 O43 1.241 . S
C31 O44 1.280 . S
C32 O45 1.277 . S
C32 O46 1.245 . S
C33 O57 1.247 . S
C33 O59 1.289 . S
Mg34 O35 1.926 . S
Mg34 O44 1.984 . S
Mg34 O46 1.988 1_554 S
Mg34 O47 2.061 . S
O35 Mg34 1.926 . S
O35 Mg36 1.986 . S
O35 Mg37 1.917 . S
Mg36 O35 1.986 . S
Mg36 O43 2.042 . S
Mg36 O45 2.041 1_554 S
Mg36 O51 2.038 . S
Mg36 O59 2.238 . S
Mg37 O35 1.917 . S
Mg37 O38 1.917 . S
Mg37 O48 2.106 . S
Mg37 O50 2.079 . S
Mg37 O59 2.106 . S
Mg37 O60 2.079 . S
O38 Mg37 1.917 . S
O38 Mg39 1.926 . S
O38 Mg40 1.986 . S
Mg39 O38 1.926 . S
Mg39 O53 1.984 . S
Mg39 O56 1.988 . S
Mg39 O57 2.061 . S
Mg40 O38 1.986 . S
Mg40 O48 2.238 . S
Mg40 O52 2.042 . S
Mg40 O54 2.041 . S
Mg40 O61 2.038 . S
C41 O47 1.247 . S
C41 O48 1.289 . S
C42 O60 1.245 . S
C42 O61 1.274 . S
O43 C31 1.241 . S
O43 Mg36 2.042 . S
O44 C31 1.280 . S
O44 Mg34 1.984 . S
O45 C32 1.277 . S
O45 Mg36 2.041 1_556 S
O46 C32 1.245 . S
O46 Mg34 1.988 1_556 S
O47 Mg34 2.061 . S
O47 C41 1.247 . S
O48 Mg37 2.106 . S
O48 Mg40 2.238 . S
O48 C41 1.289 . S
C49 O50 1.245 . S
C49 O51 1.274 . S
O50 Mg37 2.079 . S
O50 C49 1.245 . S
O51 Mg36 2.038 . S
O51 C49 1.274 . S
O52 Mg40 2.042 . S
O52 C55 1.241 . S
O53 Mg39 1.984 . S
O53 C55 1.280 . S
O54 Mg40 2.041 . S
O54 C58 1.277 . S
C55 O52 1.241 . S
C55 O53 1.280 . S
O56 Mg39 1.988 . S
O56 C58 1.245 . S
O57 C33 1.247 . S
O57 Mg39 2.061 . S
C58 O54 1.277 . S
C58 O56 1.245 . S
O59 C33 1.289 . S
O59 Mg36 2.238 . S
O59 Mg37 2.106 . S
O60 Mg37 2.079 . S
O60 C42 1.245 . S
O61 Mg40 2.038 . S
O61 C42 1.274 . S
C62 O74 1.241 . S
C62 O75 1.280 . S
C63 O76 1.277 . S
C63 O77 1.245 . S
C64 O88 1.247 . S
C64 O90 1.289 . S
Mg65 O66 1.926 . S
Mg65 O75 1.984 . S
Mg65 O77 1.988 . S
Mg65 O78 2.061 . S
O66 Mg65 1.926 . S
O66 Mg67 1.986 . S
O66 Mg68 1.917 . S
Mg67 O66 1.986 . S
Mg67 O74 2.042 . S
Mg67 O76 2.041 . S
Mg67 O82 2.038 . S
Mg67 O90 2.238 . S
Mg68 O66 1.917 . S
Mg68 O69 1.917 . S
Mg68 O79 2.106 . S
Mg68 O81 2.079 . S
Mg68 O90 2.106 . S
Mg68 O91 2.079 . S
O69 Mg68 1.917 . S
O69 Mg70 1.926 . S
O69 Mg71 1.986 . S
Mg70 O69 1.926 . S
Mg70 O84 1.984 . S
Mg70 O87 1.988 . S
Mg70 O88 2.061 . S
Mg71 O69 1.986 . S
Mg71 O79 2.238 . S
Mg71 O83 2.042 . S
Mg71 O85 2.041 . S
Mg71 O92 2.038 . S
C72 O78 1.247 . S
C72 O79 1.289 . S
C73 O91 1.245 . S
C73 O92 1.274 . S
O74 C62 1.241 . S
O74 Mg67 2.042 . S
O75 C62 1.280 . S
O75 Mg65 1.984 . S
O76 C63 1.277 . S
O76 Mg67 2.041 . S
O77 C63 1.245 . S
O77 Mg65 1.988 . S
O78 Mg65 2.061 . S
O78 C72 1.247 . S
O79 Mg68 2.106 . S
O79 Mg71 2.238 . S
O79 C72 1.289 . S
C80 O81 1.245 . S
C80 O82 1.274 . S
O81 Mg68 2.079 . S
O81 C80 1.245 . S
O82 Mg67 2.038 . S
O82 C80 1.274 . S
O83 Mg71 2.042 . S
O83 C86 1.241 . S
O84 Mg70 1.984 . S
O84 C86 1.280 . S
O85 Mg71 2.041 . S
O85 C89 1.277 . S
C86 O83 1.241 . S
C86 O84 1.280 . S
O87 Mg70 1.988 . S
O87 C89 1.245 . S
O88 C64 1.247 . S
O88 Mg70 2.061 . S
C89 O85 1.277 . S
C89 O87 1.245 . S
O90 C64 1.289 . S
O90 Mg67 2.238 . S
O90 Mg68 2.106 . S
O91 Mg68 2.079 . S
O91 C73 1.245 . S
O92 Mg71 2.038 . S
O92 C73 1.274 . S
C93 O105 1.241 . S
C93 O106 1.280 . S
C94 O107 1.277 . S
C94 O108 1.245 . S
C95 O119 1.247 . S
C95 O121 1.289 . S
Mg96 O97 1.926 . S
Mg96 O106 1.984 . S
Mg96 O108 1.988 . S
Mg96 O109 2.061 . S
O97 Mg96 1.926 . S
O97 Mg98 1.986 . S
O97 Mg99 1.917 . S
Mg98 O97 1.986 . S
Mg98 O105 2.042 . S
Mg98 O107 2.041 . S
Mg98 O113 2.038 . S
Mg98 O121 2.238 . S
Mg99 O97 1.917 . S
Mg99 O100 1.917 . S
Mg99 O110 2.106 . S
Mg99 O112 2.079 . S
Mg99 O121 2.106 . S
Mg99 O122 2.079 . S
O100 Mg99 1.917 . S
O100 Mg101 1.926 . S
O100 Mg102 1.986 . S
Mg101 O100 1.926 . S
Mg101 O115 1.984 . S
Mg101 O118 1.988 . S
Mg101 O119 2.061 . S
Mg102 O100 1.986 . S
Mg102 O110 2.238 . S
Mg102 O114 2.042 . S
Mg102 O116 2.041 . S
Mg102 O123 2.038 . S
C103 O109 1.247 . S
C103 O110 1.289 . S
C104 O122 1.245 . S
C104 O123 1.274 . S
O105 C93 1.241 . S
O105 Mg98 2.042 . S
O106 C93 1.280 . S
O106 Mg96 1.984 . S
O107 C94 1.277 . S
O107 Mg98 2.041 . S
O108 C94 1.245 . S
O108 Mg96 1.988 . S
O109 Mg96 2.061 . S
O109 C103 1.247 . S
O110 Mg99 2.106 . S
O110 Mg102 2.238 . S
O110 C103 1.289 . S
C111 O112 1.245 . S
C111 O113 1.274 . S
O112 Mg99 2.079 . S
O112 C111 1.245 . S
O113 Mg98 2.038 . S
O113 C111 1.274 . S
O114 Mg102 2.042 . S
O114 C117 1.241 . S
O115 Mg101 1.984 . S
O115 C117 1.280 . S
O116 Mg102 2.041 . S
O116 C120 1.277 . S
C117 O114 1.241 . S
C117 O115 1.280 . S
O118 Mg101 1.988 . S
O118 C120 1.245 . S
O119 C95 1.247 . S
O119 Mg101 2.061 . S
C120 O116 1.277 . S
C120 O118 1.245 . S
O121 C95 1.289 . S
O121 Mg98 2.238 . S
O121 Mg99 2.106 . S
O122 Mg99 2.079 . S
O122 C104 1.245 . S
O123 Mg102 2.038 . S
O123 C104 1.274 . S
C124 O136 1.241 . S
C124 O137 1.280 . S
C125 O138 1.277 . S
C125 O139 1.245 . S
C126 O150 1.247 . S
C126 O152 1.289 . S
Mg127 O128 1.926 . S
Mg127 O137 1.984 . S
Mg127 O139 1.988 . S
Mg127 O140 2.061 . S
O128 Mg127 1.926 . S
O128 Mg129 1.986 . S
O128 Mg130 1.917 . S
Mg129 O128 1.986 . S
Mg129 O136 2.042 . S
Mg129 O138 2.041 . S
Mg129 O144 2.038 . S
Mg129 O152 2.238 . S
Mg130 O128 1.917 . S
Mg130 O131 1.917 . S
Mg130 O141 2.106 . S
Mg130 O143 2.079 . S
Mg130 O152 2.106 . S
Mg130 O153 2.079 . S
O131 Mg130 1.917 . S
O131 Mg132 1.926 . S
O131 Mg133 1.986 . S
Mg132 O131 1.926 . S
Mg132 O146 1.984 . S
Mg132 O149 1.988 . S
Mg132 O150 2.061 . S
Mg133 O131 1.986 . S
Mg133 O141 2.238 . S
Mg133 O145 2.042 . S
Mg133 O147 2.041 . S
Mg133 O154 2.038 . S
C134 O140 1.247 . S
C134 O141 1.289 . S
C135 O153 1.245 . S
C135 O154 1.274 . S
O136 C124 1.241 . S
O136 Mg129 2.042 . S
O137 C124 1.280 . S
O137 Mg127 1.984 . S
O138 C125 1.277 . S
O138 Mg129 2.041 . S
O139 C125 1.245 . S
O139 Mg127 1.988 . S
O140 Mg127 2.061 . S
O140 C134 1.247 . S
O141 Mg130 2.106 . S
O141 Mg133 2.238 . S
O141 C134 1.289 . S
C142 O143 1.245 . S
C142 O144 1.274 . S
O143 Mg130 2.079 . S
O143 C142 1.245 . S
O144 Mg129 2.038 . S
O144 C142 1.274 . S
O145 Mg133 2.042 . S
O145 C148 1.241 . S
O146 Mg132 1.984 . S
O146 C148 1.280 . S
O147 Mg133 2.041 . S
O147 C151 1.277 . S
C148 O145 1.241 . S
C148 O146 1.280 . S
O149 Mg132 1.988 . S
O149 C151 1.245 . S
O150 C126 1.247 . S
O150 Mg132 2.061 . S
C151 O147 1.277 . S
C151 O149 1.245 . S
O152 C126 1.289 . S
O152 Mg129 2.238 . S
O152 Mg130 2.106 . S
O153 Mg130 2.079 . S
O153 C135 1.245 . S
O154 Mg133 2.038 . S
O154 C135 1.274 . S
C155 O167 1.241 . S
C155 O168 1.280 . S
C156 O169 1.277 . S
C156 O170 1.245 . S
C157 O181 1.247 . S
C157 O183 1.289 . S
Mg158 O159 1.926 . S
Mg158 O168 1.984 . S
Mg158 O170 1.988 . S
Mg158 O171 2.061 . S
O159 Mg158 1.926 . S
O159 Mg160 1.986 . S
O159 Mg161 1.917 . S
Mg160 O159 1.986 . S
Mg160 O167 2.042 . S
Mg160 O169 2.041 . S
Mg160 O175 2.038 . S
Mg160 O183 2.238 . S
Mg161 O159 1.917 . S
Mg161 O162 1.917 . S
Mg161 O172 2.106 . S
Mg161 O174 2.079 . S
Mg161 O183 2.106 . S
Mg161 O184 2.079 . S
O162 Mg161 1.917 . S
O162 Mg163 1.926 . S
O162 Mg164 1.986 . S
Mg163 O162 1.926 . S
Mg163 O177 1.984 . S
Mg163 O180 1.988 1_556 S
Mg163 O181 2.061 . S
Mg164 O162 1.986 . S
Mg164 O172 2.238 . S
Mg164 O176 2.042 . S
Mg164 O178 2.041 1_556 S
Mg164 O185 2.038 . S
C165 O171 1.247 . S
C165 O172 1.289 . S
C166 O184 1.245 . S
C166 O185 1.274 . S
O167 C155 1.241 . S
O167 Mg160 2.042 . S
O168 C155 1.280 . S
O168 Mg158 1.984 . S
O169 C156 1.277 . S
O169 Mg160 2.041 . S
O170 C156 1.245 . S
O170 Mg158 1.988 . S
O171 Mg158 2.061 . S
O171 C165 1.247 . S
O172 Mg161 2.106 . S
O172 Mg164 2.238 . S
O172 C165 1.289 . S
C173 O174 1.245 . S
C173 O175 1.274 . S
O174 Mg161 2.079 . S
O174 C173 1.245 . S
O175 Mg160 2.038 . S
O175 C173 1.274 . S
O176 Mg164 2.042 . S
O176 C179 1.241 . S
O177 Mg163 1.984 . S
O177 C179 1.280 . S
O178 Mg164 2.041 1_554 S
O178 C182 1.277 . S
C179 O176 1.241 . S
C179 O177 1.280 . S
O180 Mg163 1.988 1_554 S
O180 C182 1.245 . S
O181 C157 1.247 . S
O181 Mg163 2.061 . S
C182 O178 1.277 . S
C182 O180 1.245 . S
O183 C157 1.289 . S
O183 Mg160 2.238 . S
O183 Mg161 2.106 . S
O184 Mg161 2.079 . S
O184 C166 1.245 . S
O185 Mg164 2.038 . S
O185 C166 1.274 . S
H186 C194 0.950 . S
H187 C199 0.950 . S
H188 C196 0.950 . S
H189 C198 0.950 . S
H190 C200 0.950 . S
H191 C202 0.950 . S
H192 C204 0.950 . S
H193 C205 0.950 . S
C194 H186 0.950 . S
C194 C195 1.386 . S
C194 C196 1.391 . S
C195 C194 1.386 . S
C195 C199 1.393 . S
C196 H188 0.950 . S
C196 C194 1.391 . S
C196 C197 1.400 . S
C197 C196 1.400 . S
C197 C198 1.398 . S
C197 C203 1.491 . S
C198 H189 0.950 . S
C198 C197 1.398 . S
C198 C199 1.391 . S
C199 H187 0.950 . S
C199 C195 1.393 . S
C199 C198 1.391 . S
C200 H190 0.950 . S
C200 C201 1.386 . S
C200 C202 1.391 . S
C201 C200 1.386 . S
C201 C205 1.393 . S
C202 H191 0.950 . S
C202 C200 1.391 . S
C202 C203 1.400 . S
C203 C197 1.491 . S
C203 C202 1.400 . S
C203 C204 1.398 . S
C204 H192 0.950 . S
C204 C203 1.398 . S
C204 C205 1.391 . S
C205 H193 0.950 . S
C205 C201 1.393 . S
C205 C204 1.391 . S
H206 C214 0.950 . S
H207 C219 0.950 . S
H208 C216 0.950 . S
H209 C218 0.950 . S
H210 C220 0.950 . S
H211 C222 0.950 . S
H212 C224 0.950 . S
H213 C225 0.950 . S
C214 H206 0.950 . S
C214 C215 1.386 . S
C214 C216 1.391 . S
C215 C214 1.386 . S
C215 C219 1.393 . S
C216 H208 0.950 . S
C216 C214 1.391 . S
C216 C217 1.400 . S
C217 C216 1.400 . S
C217 C218 1.398 . S
C217 C223 1.491 . S
C218 H209 0.950 . S
C218 C217 1.398 . S
C218 C219 1.391 . S
C219 H207 0.950 . S
C219 C215 1.393 . S
C219 C218 1.391 . S
C220 H210 0.950 . S
C220 C221 1.386 . S
C220 C222 1.391 . S
C221 C220 1.386 . S
C221 C225 1.393 . S
C222 H211 0.950 . S
C222 C220 1.391 . S
C222 C223 1.400 . S
C223 C217 1.491 . S
C223 C222 1.400 . S
C223 C224 1.398 . S
C224 H212 0.950 . S
C224 C223 1.398 . S
C224 C225 1.391 . S
C225 H213 0.950 . S
C225 C221 1.393 . S
C225 C224 1.391 . S
H226 C234 0.950 1_554 S
H227 C239 0.950 1_554 S
H228 C236 0.950 . S
H229 C238 0.950 . S
H230 C240 0.950 . S
H231 C242 0.950 . S
H232 C244 0.950 . S
H233 C245 0.950 . S
C234 H226 0.950 1_556 S
C234 C235 1.386 1_556 S
C234 C236 1.391 . S
C235 C234 1.386 1_554 S
C235 C239 1.393 1_554 S
C236 H228 0.950 . S
C236 C234 1.391 . S
C236 C237 1.400 . S
C237 C236 1.400 . S
C237 C238 1.398 . S
C237 C243 1.491 . S
C238 H229 0.950 . S
C238 C237 1.398 . S
C238 C239 1.391 . S
C239 H227 0.950 1_556 S
C239 C235 1.393 1_556 S
C239 C238 1.391 . S
C240 H230 0.950 . S
C240 C241 1.386 . S
C240 C242 1.391 . S
C241 C240 1.386 . S
C241 C245 1.393 . S
C242 H231 0.950 . S
C242 C240 1.391 . S
C242 C243 1.400 . S
C243 C237 1.491 . S
C243 C242 1.400 . S
C243 C244 1.398 . S
C244 H232 0.950 . S
C244 C243 1.398 . S
C244 C245 1.391 . S
C245 H233 0.950 . S
C245 C241 1.393 . S
C245 C244 1.391 . S
H246 C254 0.950 . S
H247 C259 0.950 . S
H248 C256 0.950 . S
H249 C258 0.950 . S
H250 C260 0.950 . S
H251 C262 0.950 . S
H252 C264 0.950 . S
H253 C265 0.950 . S
C254 H246 0.950 . S
C254 C255 1.386 . S
C254 C256 1.391 . S
C255 C254 1.386 . S
C255 C259 1.393 . S
C256 H248 0.950 . S
C256 C254 1.391 . S
C256 C257 1.400 . S
C257 C256 1.400 . S
C257 C258 1.398 . S
C257 C263 1.491 1_554 S
C258 H249 0.950 . S
C258 C257 1.398 . S
C258 C259 1.391 . S
C259 H247 0.950 . S
C259 C255 1.393 . S
C259 C258 1.391 . S
C260 H250 0.950 . S
C260 C261 1.386 . S
C260 C262 1.391 . S
C261 C260 1.386 . S
C261 C265 1.393 . S
C262 H251 0.950 . S
C262 C260 1.391 . S
C262 C263 1.400 . S
C263 C257 1.491 1_556 S
C263 C262 1.400 . S
C263 C264 1.398 . S
C264 H252 0.950 . S
C264 C263 1.398 . S
C264 C265 1.391 . S
C265 H253 0.950 . S
C265 C261 1.393 . S
C265 C264 1.391 . S
H266 C274 0.950 1_556 S
H267 C279 0.950 1_556 S
H268 C276 0.950 . S
H269 C278 0.950 . S
H270 C280 0.950 . S
H271 C282 0.950 . S
H272 C284 0.950 . S
H273 C285 0.950 . S
C274 H266 0.950 1_554 S
C274 C275 1.386 1_554 S
C274 C276 1.391 . S
C275 C274 1.386 1_556 S
C275 C279 1.393 1_556 S
C276 H268 0.950 . S
C276 C274 1.391 . S
C276 C277 1.400 . S
C277 C276 1.400 . S
C277 C278 1.398 . S
C277 C283 1.491 . S
C278 H269 0.950 . S
C278 C277 1.398 . S
C278 C279 1.391 . S
C279 H267 0.950 1_554 S
C279 C275 1.393 1_554 S
C279 C278 1.391 . S
C280 H270 0.950 . S
C280 C281 1.386 . S
C280 C282 1.391 . S
C281 C280 1.386 . S
C281 C285 1.393 . S
C282 H271 0.950 . S
C282 C280 1.391 . S
C282 C283 1.400 . S
C283 C277 1.491 . S
C283 C282 1.400 . S
C283 C284 1.398 . S
C284 H272 0.950 . S
C284 C283 1.398 . S
C284 C285 1.391 . S
C285 H273 0.950 . S
C285 C281 1.393 . S
C285 C284 1.391 . S
H286 C294 0.950 . S
H287 C299 0.950 . S
H288 C296 0.950 . S
H289 C298 0.950 . S
H290 C300 0.950 . S
H291 C302 0.950 . S
H292 C304 0.950 . S
H293 C305 0.950 . S
C294 H286 0.950 . S
C294 C295 1.386 . S
C294 C296 1.391 . S
C295 C294 1.386 . S
C295 C299 1.393 . S
C296 H288 0.950 . S
C296 C294 1.391 . S
C296 C297 1.400 . S
C297 C296 1.400 . S
C297 C298 1.398 . S
C297 C303 1.491 . S
C298 H289 0.950 . S
C298 C297 1.398 . S
C298 C299 1.391 . S
C299 H287 0.950 . S
C299 C295 1.393 . S
C299 C298 1.391 . S
C300 H290 0.950 . S
C300 C301 1.386 . S
C300 C302 1.391 . S
C301 C300 1.386 . S
C301 C305 1.393 . S
C302 H291 0.950 . S
C302 C300 1.391 . S
C302 C303 1.400 . S
C303 C297 1.491 . S
C303 C302 1.400 . S
C303 C304 1.398 . S
C304 H292 0.950 . S
C304 C303 1.398 . S
C304 C305 1.391 . S
C305 H293 0.950 . S
C305 C301 1.393 . S
C305 C304 1.391 . S
H306 C314 0.950 . S
H307 C319 0.950 . S
H308 C316 0.950 . S
H309 C318 0.950 . S
H310 C320 0.950 . S
H311 C322 0.950 . S
H312 C324 0.950 . S
H313 C325 0.950 . S
C314 H306 0.950 . S
C314 C315 1.386 . S
C314 C316 1.391 . S
C315 C314 1.386 . S
C315 C319 1.393 . S
C316 H308 0.950 . S
C316 C314 1.391 . S
C316 C317 1.400 . S
C317 C316 1.400 . S
C317 C318 1.398 . S
C317 C323 1.491 . S
C318 H309 0.950 . S
C318 C317 1.398 . S
C318 C319 1.391 . S
C319 H307 0.950 . S
C319 C315 1.393 . S
C319 C318 1.391 . S
C320 H310 0.950 . S
C320 C321 1.386 . S
C320 C322 1.391 . S
C321 C320 1.386 . S
C321 C325 1.393 . S
C322 H311 0.950 . S
C322 C320 1.391 . S
C322 C323 1.400 . S
C323 C317 1.491 . S
C323 C322 1.400 . S
C323 C324 1.398 . S
C324 H312 0.950 . S
C324 C323 1.398 . S
C324 C325 1.391 . S
C325 H313 0.950 . S
C325 C321 1.393 . S
C325 C324 1.391 . S
H326 C334 0.950 . S
H327 C339 0.950 . S
H328 C336 0.950 . S
H329 C338 0.950 . S
H330 C340 0.950 . S
H331 C342 0.950 . S
H332 C344 0.950 . S
H333 C345 0.950 . S
C334 H326 0.950 . S
C334 C335 1.386 . S
C334 C336 1.391 1_554 S
C335 C334 1.386 . S
C335 C339 1.393 1_554 S
C336 H328 0.950 . S
C336 C334 1.391 1_556 S
C336 C337 1.400 . S
C337 C336 1.400 . S
C337 C338 1.398 . S
C337 C343 1.491 . S
C338 H329 0.950 . S
C338 C337 1.398 . S
C338 C339 1.391 . S
C339 H327 0.950 . S
C339 C335 1.393 1_556 S
C339 C338 1.391 . S
C340 H330 0.950 . S
C340 C341 1.386 . S
C340 C342 1.391 . S
C341 C340 1.386 . S
C341 C345 1.393 . S
C342 H331 0.950 . S
C342 C340 1.391 . S
C342 C343 1.400 . S
C343 C337 1.491 . S
C343 C342 1.400 . S
C343 C344 1.398 . S
C344 H332 0.950 . S
C344 C343 1.398 . S
C344 C345 1.391 . S
C345 H333 0.950 . S
C345 C341 1.393 . S
C345 C344 1.391 . S
H346 C354 0.950 . S
H347 C359 0.950 . S
H348 C356 0.950 . S
H349 C358 0.950 . S
H350 C360 0.950 . S
H351 C362 0.950 . S
H352 C364 0.950 . S
H353 C365 0.950 . S
C354 H346 0.950 . S
C354 C355 1.386 . S
C354 C356 1.391 . S
C355 C354 1.386 . S
C355 C359 1.393 . S
C356 H348 0.950 . S
C356 C354 1.391 . S
C356 C357 1.400 . S
C357 C356 1.400 . S
C357 C358 1.398 . S
C357 C363 1.491 . S
C358 H349 0.950 . S
C358 C357 1.398 . S
C358 C359 1.391 . S
C359 H347 0.950 . S
C359 C355 1.393 . S
C359 C358 1.391 . S
C360 H350 0.950 . S
C360 C361 1.386 . S
C360 C362 1.391 . S
C361 C360 1.386 . S
C361 C365 1.393 . S
C362 H351 0.950 . S
C362 C360 1.391 . S
C362 C363 1.400 . S
C363 C357 1.491 . S
C363 C362 1.400 . S
C363 C364 1.398 . S
C364 H352 0.950 . S
C364 C363 1.398 . S
C364 C365 1.391 . S
C365 H353 0.950 . S
C365 C361 1.393 . S
C365 C364 1.391 . S
H366 C374 0.950 . S
H367 C379 0.950 . S
H368 C376 0.950 . S
H369 C378 0.950 . S
H370 C380 0.950 . S
H371 C382 0.950 . S
H372 C384 0.950 . S
H373 C385 0.950 . S
C374 H366 0.950 . S
C374 C375 1.386 . S
C374 C376 1.391 . S
C375 C374 1.386 . S
C375 C379 1.393 . S
C376 H368 0.950 . S
C376 C374 1.391 . S
C376 C377 1.400 . S
C377 C376 1.400 . S
C377 C378 1.398 . S
C377 C383 1.491 . S
C378 H369 0.950 . S
C378 C377 1.398 . S
C378 C379 1.391 . S
C379 H367 0.950 . S
C379 C375 1.393 . S
C379 C378 1.391 . S
C380 H370 0.950 . S
C380 C381 1.386 . S
C380 C382 1.391 . S
C381 C380 1.386 . S
C381 C385 1.393 . S
C382 H371 0.950 . S
C382 C380 1.391 . S
C382 C383 1.400 . S
C383 C377 1.491 . S
C383 C382 1.400 . S
C383 C384 1.398 . S
C384 H372 0.950 . S
C384 C383 1.398 . S
C384 C385 1.391 . S
C385 H373 0.950 . S
C385 C381 1.393 . S
C385 C384 1.391 . S
H386 C394 0.950 . S
H387 C399 0.950 . S
H388 C396 0.950 . S
H389 C398 0.950 . S
H390 C400 0.950 . S
H391 C402 0.950 . S
H392 C404 0.950 . S
H393 C405 0.950 . S
C394 H386 0.950 . S
C394 C395 1.386 . S
C394 C396 1.391 . S
C395 C394 1.386 . S
C395 C399 1.393 . S
C396 H388 0.950 . S
C396 C394 1.391 . S
C396 C397 1.400 . S
C397 C396 1.400 . S
C397 C398 1.398 . S
C397 C403 1.491 . S
C398 H389 0.950 . S
C398 C397 1.398 . S
C398 C399 1.391 . S
C399 H387 0.950 . S
C399 C395 1.393 . S
C399 C398 1.391 . S
C400 H390 0.950 . S
C400 C401 1.386 . S
C400 C402 1.391 . S
C401 C400 1.386 . S
C401 C405 1.393 . S
C402 H391 0.950 . S
C402 C400 1.391 . S
C402 C403 1.400 . S
C403 C397 1.491 . S
C403 C402 1.400 . S
C403 C404 1.398 . S
C404 H392 0.950 . S
C404 C403 1.398 . S
C404 C405 1.391 . S
C405 H393 0.950 . S
C405 C401 1.393 . S
C405 C404 1.391 . S
H406 C414 0.950 . S
H407 C419 0.950 . S
H408 C416 0.950 . S
H409 C418 0.950 . S
H410 C420 0.950 . S
H411 C422 0.950 . S
H412 C424 0.950 . S
H413 C425 0.950 . S
C414 H406 0.950 . S
C414 C415 1.386 . S
C414 C416 1.391 . S
C415 C414 1.386 . S
C415 C419 1.393 . S
C416 H408 0.950 . S
C416 C414 1.391 . S
C416 C417 1.400 . S
C417 C416 1.400 . S
C417 C418 1.398 . S
C417 C423 1.491 . S
C418 H409 0.950 . S
C418 C417 1.398 . S
C418 C419 1.391 . S
C419 H407 0.950 . S
C419 C415 1.393 . S
C419 C418 1.391 . S
C420 H410 0.950 . S
C420 C421 1.386 . S
C420 C422 1.391 . S
C421 C420 1.386 . S
C421 C425 1.393 . S
C422 H411 0.950 . S
C422 C420 1.391 . S
C422 C423 1.400 . S
C423 C417 1.491 . S
C423 C422 1.400 . S
C423 C424 1.398 . S
C424 H412 0.950 . S
C424 C423 1.398 . S
C424 C425 1.391 . S
C425 H413 0.950 . S
C425 C421 1.393 . S
C425 C424 1.391 . S
H426 C434 0.950 1_556 S
H427 C439 0.950 . S
H428 C436 0.950 1_556 S
H429 C438 0.950 . S
H430 C440 0.950 . S
H431 C442 0.950 . S
H432 C444 0.949 1_556 S
H433 C445 0.950 1_565 S
C434 H426 0.950 1_554 S
C434 C435 1.386 . S
C434 C436 1.391 . S
C435 C434 1.386 . S
C435 C439 1.393 . S
C436 H428 0.950 1_554 S
C436 C434 1.391 . S
C436 C437 1.400 . S
C437 C436 1.400 . S
C437 C438 1.398 . S
C437 C443 1.491 . S
C438 H429 0.950 . S
C438 C437 1.398 . S
C438 C439 1.391 . S
C439 H427 0.950 . S
C439 C435 1.393 . S
C439 C438 1.391 . S
C440 H430 0.950 . S
C440 C441 1.386 1_545 S
C440 C442 1.391 . S
C441 C440 1.386 1_565 S
C441 C445 1.393 1_565 S
C442 H431 0.950 . S
C442 C440 1.391 . S
C442 C443 1.400 . S
C443 C437 1.491 . S
C443 C442 1.400 . S
C443 C444 1.398 . S
C444 H432 0.949 1_554 S
C444 C443 1.398 . S
C444 C445 1.391 . S
C445 H433 0.950 1_545 S
C445 C441 1.393 1_545 S
C445 C444 1.391 . S
H446 C454 0.950 . S
H447 C459 0.950 . S
H448 C456 0.950 . S
H449 C458 0.950 . S
H450 C460 0.950 . S
H451 C462 0.950 . S
H452 C464 0.950 . S
H453 C465 0.950 . S
C454 H446 0.950 . S
C454 C455 1.386 . S
C454 C456 1.391 . S
C455 C454 1.386 . S
C455 C459 1.393 . S
C456 H448 0.950 . S
C456 C454 1.391 . S
C456 C457 1.400 . S
C457 C456 1.400 . S
C457 C458 1.398 . S
C457 C463 1.491 . S
C458 H449 0.950 . S
C458 C457 1.398 . S
C458 C459 1.391 . S
C459 H447 0.950 . S
C459 C455 1.393 . S
C459 C458 1.391 . S
C460 H450 0.950 . S
C460 C461 1.386 . S
C460 C462 1.391 . S
C461 C460 1.386 . S
C461 C465 1.393 . S
C462 H451 0.950 . S
C462 C460 1.391 . S
C462 C463 1.400 . S
C463 C457 1.491 . S
C463 C462 1.400 . S
C463 C464 1.398 . S
C464 H452 0.950 . S
C464 C463 1.398 . S
C464 C465 1.391 . S
C465 H453 0.950 . S
C465 C461 1.393 . S
C465 C464 1.391 . S
H466 C474 0.950 . S
H467 C479 0.950 1_455 S
H468 C476 0.950 . S
H469 C478 0.950 . S
H470 C480 0.950 . S
H471 C482 0.950 . S
H472 C484 0.950 . S
H473 C485 0.950 . S
C474 H466 0.950 . S
C474 C475 1.386 1_655 S
C474 C476 1.391 . S
C475 C474 1.386 1_455 S
C475 C479 1.393 1_455 S
C476 H468 0.950 . S
C476 C474 1.391 . S
C476 C477 1.400 . S
C477 C476 1.400 . S
C477 C478 1.398 . S
C477 C483 1.491 . S
C478 H469 0.950 . S
C478 C477 1.398 . S
C478 C479 1.391 . S
C479 H467 0.950 1_655 S
C479 C475 1.393 1_655 S
C479 C478 1.391 . S
C480 H470 0.950 . S
C480 C481 1.386 . S
C480 C482 1.391 . S
C481 C480 1.386 . S
C481 C485 1.393 . S
C482 H471 0.950 . S
C482 C480 1.391 . S
C482 C483 1.400 . S
C483 C477 1.491 . S
C483 C482 1.400 . S
C483 C484 1.398 . S
C484 H472 0.950 . S
C484 C483 1.398 . S
C484 C485 1.391 . S
C485 H473 0.950 . S
C485 C481 1.393 . S
C485 C484 1.391 . S
H486 C494 0.950 . S
H487 C499 0.950 . S
H488 C496 0.950 . S
H489 C498 0.950 . S
H490 C500 0.950 . S
H491 C502 0.950 . S
H492 C504 0.950 . S
H493 C505 0.950 1_545 S
C494 H486 0.950 . S
C494 C495 1.386 . S
C494 C496 1.391 . S
C495 C494 1.386 . S
C495 C499 1.393 . S
C496 H488 0.950 . S
C496 C494 1.391 . S
C496 C497 1.400 . S
C497 C496 1.400 . S
C497 C498 1.398 . S
C497 C503 1.491 . S
C498 H489 0.950 . S
C498 C497 1.398 . S
C498 C499 1.391 . S
C499 H487 0.950 . S
C499 C495 1.393 . S
C499 C498 1.391 . S
C500 H490 0.950 . S
C500 C501 1.386 1_565 S
C500 C502 1.391 . S
C501 C500 1.386 1_545 S
C501 C505 1.393 1_545 S
C502 H491 0.950 . S
C502 C500 1.391 . S
C502 C503 1.400 . S
C503 C497 1.491 . S
C503 C502 1.400 . S
C503 C504 1.398 . S
C504 H492 0.950 . S
C504 C503 1.398 . S
C504 C505 1.391 . S
C505 H493 0.950 1_565 S
C505 C501 1.393 1_565 S
C505 C504 1.391 . S
H506 C514 0.950 . S
H507 C519 0.950 . S
H508 C516 0.950 . S
H509 C518 0.950 . S
H510 C520 0.950 . S
H511 C522 0.950 . S
H512 C524 0.950 . S
H513 C525 0.950 . S
C514 H506 0.950 . S
C514 C515 1.386 . S
C514 C516 1.391 . S
C515 C514 1.386 . S
C515 C519 1.393 . S
C516 H508 0.950 . S
C516 C514 1.391 . S
C516 C517 1.400 . S
C517 C516 1.400 . S
C517 C518 1.398 . S
C517 C523 1.491 . S
C518 H509 0.950 . S
C518 C517 1.398 . S
C518 C519 1.391 . S
C519 H507 0.950 . S
C519 C515 1.393 . S
C519 C518 1.391 . S
C520 H510 0.950 . S
C520 C521 1.386 . S
C520 C522 1.391 . S
C521 C520 1.386 . S
C521 C525 1.393 . S
C522 H511 0.950 . S
C522 C520 1.391 . S
C522 C523 1.400 . S
C523 C517 1.491 . S
C523 C522 1.400 . S
C523 C524 1.398 . S
C524 H512 0.950 . S
C524 C523 1.398 . S
C524 C525 1.391 . S
C525 H513 0.950 . S
C525 C521 1.393 . S
C525 C524 1.391 . S
H526 C534 0.950 . S
H527 C539 0.950 1_655 S
H528 C536 0.950 . S
H529 C538 0.950 . S
H530 C540 0.950 . S
H531 C542 0.950 . S
H532 C544 0.950 . S
H533 C545 0.950 . S
C534 H526 0.950 . S
C534 C535 1.386 1_455 S
C534 C536 1.391 . S
C535 C534 1.386 1_655 S
C535 C539 1.393 1_655 S
C536 H528 0.950 . S
C536 C534 1.391 . S
C536 C537 1.400 . S
C537 C536 1.400 . S
C537 C538 1.398 . S
C537 C543 1.491 . S
C538 H529 0.950 . S
C538 C537 1.398 . S
C538 C539 1.391 . S
C539 H527 0.950 1_455 S
C539 C535 1.393 1_455 S
C539 C538 1.391 . S
C540 H530 0.950 . S
C540 C541 1.386 . S
C540 C542 1.391 . S
C541 C540 1.386 . S
C541 C545 1.393 . S
C542 H531 0.950 . S
C542 C540 1.391 . S
C542 C543 1.400 . S
C543 C537 1.491 . S
C543 C542 1.400 . S
C543 C544 1.398 . S
C544 H532 0.950 . S
C544 C543 1.398 . S
C544 C545 1.391 . S
C545 H533 0.950 . S
C545 C541 1.393 . S
C545 C544 1.391 . S
H546 C554 0.950 . S
H547 C559 0.950 . S
H548 C556 0.950 . S
H549 C558 0.950 . S
H550 C560 0.950 . S
H551 C562 0.950 . S
H552 C564 0.950 1_655 S
H553 C565 0.950 . S
C554 H546 0.950 . S
C554 C555 1.386 1_655 S
C554 C556 1.391 . S
C555 C554 1.386 1_455 S
C555 C559 1.393 . S
C556 H548 0.950 . S
C556 C554 1.391 . S
C556 C557 1.400 1_655 S
C557 C556 1.400 1_455 S
C557 C558 1.398 . S
C557 C563 1.491 . S
C558 H549 0.950 . S
C558 C557 1.398 . S
C558 C559 1.391 . S
C559 H547 0.950 . S
C559 C555 1.393 . S
C559 C558 1.391 . S
C560 H550 0.950 . S
C560 C561 1.386 . S
C560 C562 1.391 . S
C561 C560 1.386 . S
C561 C565 1.393 . S
C562 H551 0.950 . S
C562 C560 1.391 . S
C562 C563 1.400 . S
C563 C557 1.491 . S
C563 C562 1.400 . S
C563 C564 1.398 . S
C564 H552 0.950 1_455 S
C564 C563 1.398 . S
C564 C565 1.391 . S
C565 H553 0.950 . S
C565 C561 1.393 . S
C565 C564 1.391 . S
H566 C574 0.950 . S
H567 C579 0.950 . S
H568 C576 0.950 . S
H569 C578 0.950 1_565 S
H570 C580 0.950 . S
H571 C582 0.950 . S
H572 C584 0.950 . S
H573 C585 0.950 . S
C574 H566 0.950 . S
C574 C575 1.386 . S
C574 C576 1.391 . S
C575 C574 1.386 . S
C575 C579 1.393 . S
C576 H568 0.950 . S
C576 C574 1.391 . S
C576 C577 1.400 . S
C577 C576 1.400 . S
C577 C578 1.398 . S
C577 C583 1.491 . S
C578 H569 0.950 1_545 S
C578 C577 1.398 . S
C578 C579 1.391 . S
C579 H567 0.950 . S
C579 C575 1.393 . S
C579 C578 1.391 . S
C580 H570 0.950 . S
C580 C581 1.386 1_565 S
C580 C582 1.391 . S
C581 C580 1.386 1_545 S
C581 C585 1.393 . S
C582 H571 0.950 . S
C582 C580 1.391 . S
C582 C583 1.400 1_565 S
C583 C577 1.491 . S
C583 C582 1.400 1_545 S
C583 C584 1.398 . S
C584 H572 0.950 . S
C584 C583 1.398 . S
C584 C585 1.391 . S
C585 H573 0.950 . S
C585 C581 1.393 . S
C585 C584 1.391 . S
H586 C594 0.950 . S
H587 C599 0.950 . S
H588 C596 0.950 . S
H589 C598 0.950 . S
H590 C600 0.950 . S
H591 C602 0.950 . S
H592 C604 0.950 . S
H593 C605 0.950 . S
C594 H586 0.950 . S
C594 C595 1.386 . S
C594 C596 1.391 . S
C595 C594 1.386 . S
C595 C599 1.393 . S
C596 H588 0.950 . S
C596 C594 1.391 . S
C596 C597 1.400 . S
C597 C596 1.400 . S
C597 C598 1.398 . S
C597 C603 1.491 . S
C598 H589 0.950 . S
C598 C597 1.398 . S
C598 C599 1.391 . S
C599 H587 0.950 . S
C599 C595 1.393 . S
C599 C598 1.391 . S
C600 H590 0.950 . S
C600 C601 1.386 . S
C600 C602 1.391 . S
C601 C600 1.386 . S
C601 C605 1.393 . S
C602 H591 0.950 . S
C602 C600 1.391 . S
C602 C603 1.400 . S
C603 C597 1.491 . S
C603 C602 1.400 . S
C603 C604 1.398 . S
C604 H592 0.950 . S
C604 C603 1.398 . S
C604 C605 1.391 . S
C605 H593 0.950 . S
C605 C601 1.393 . S
C605 C604 1.391 . S
H606 C614 0.950 . S
H607 C619 0.950 . S
H608 C616 0.950 1_455 S
H609 C618 0.950 . S
H610 C620 0.950 . S
H611 C622 0.950 . S
H612 C624 0.950 . S
H613 C625 0.950 . S
C614 H606 0.950 . S
C614 C615 1.386 1_455 S
C614 C616 1.391 1_455 S
C615 C614 1.386 1_655 S
C615 C619 1.393 . S
C616 H608 0.950 1_655 S
C616 C614 1.391 1_655 S
C616 C617 1.400 . S
C617 C616 1.400 . S
C617 C618 1.398 . S
C617 C623 1.491 . S
C618 H609 0.950 . S
C618 C617 1.398 . S
C618 C619 1.391 . S
C619 H607 0.950 . S
C619 C615 1.393 . S
C619 C618 1.391 . S
C620 H610 0.950 . S
C620 C621 1.386 . S
C620 C622 1.391 . S
C621 C620 1.386 . S
C621 C625 1.393 . S
C622 H611 0.950 . S
C622 C620 1.391 . S
C622 C623 1.400 . S
C623 C617 1.491 . S
C623 C622 1.400 . S
C623 C624 1.398 . S
C624 H612 0.950 . S
C624 C623 1.398 . S
C624 C625 1.391 . S
C625 H613 0.950 . S
C625 C621 1.393 . S
C625 C624 1.391 . S
H626 C634 0.951 . S
H627 C639 0.950 . S
H628 C636 0.950 . S
H629 C638 0.950 . S
H630 C640 0.940 1_545 S
H631 C642 0.950 . S
H632 C644 0.950 . S
H633 C645 0.950 . S
C634 H626 0.951 . S
C634 C635 1.386 . S
C634 C636 1.391 1_554 S
C635 C634 1.386 . S
C635 C639 1.393 . S
C636 H628 0.950 . S
C636 C634 1.391 1_556 S
C636 C637 1.400 . S
C637 C636 1.400 . S
C637 C638 1.398 1_556 S
C637 C643 1.491 . S
C638 H629 0.950 . S
C638 C637 1.398 1_554 S
C638 C639 1.391 . S
C639 H627 0.950 . S
C639 C635 1.393 . S
C639 C638 1.391 . S
C640 H630 0.940 1_565 S
C640 C641 1.388 . S
C640 C642 1.398 . S
C641 C640 1.388 . S
C641 C645 1.393 . S
C642 H631 0.950 . S
C642 C640 1.398 . S
C642 C643 1.400 . S
C643 C637 1.491 . S
C643 C642 1.400 . S
C643 C644 1.398 . S
C644 H632 0.950 . S
C644 C643 1.398 . S
C644 C645 1.391 . S
C645 H633 0.950 . S
C645 C641 1.393 . S
C645 C644 1.391 . S
H646 C654 0.950 . S
H647 C659 0.950 . S
H648 C656 0.950 . S
H649 C658 0.950 . S
H650 C660 0.950 . S
H651 C662 0.950 . S
H652 C664 0.950 . S
H653 C665 0.950 . S
C654 H646 0.950 . S
C654 C655 1.386 . S
C654 C656 1.391 1_556 S
C655 C654 1.386 . S
C655 C659 1.393 1_556 S
C656 H648 0.950 . S
C656 C654 1.391 1_554 S
C656 C657 1.400 . S
C657 C656 1.400 . S
C657 C658 1.398 . S
C657 C663 1.491 . S
C658 H649 0.950 . S
C658 C657 1.398 . S
C658 C659 1.391 . S
C659 H647 0.950 . S
C659 C655 1.393 1_554 S
C659 C658 1.391 . S
C660 H650 0.950 . S
C660 C661 1.386 . S
C660 C662 1.391 . S
C661 C660 1.386 . S
C661 C665 1.393 . S
C662 H651 0.950 . S
C662 C660 1.391 . S
C662 C663 1.400 . S
C663 C657 1.491 . S
C663 C662 1.400 . S
C663 C664 1.398 . S
C664 H652 0.950 . S
C664 C663 1.398 . S
C664 C665 1.391 . S
C665 H653 0.950 . S
C665 C661 1.393 . S
C665 C664 1.391 . S
C195 C27 1.484 . S
C201 C1 1.484 . S
C215 C58 1.474 . S
C221 C32 1.474 . S
C235 C63 1.481 . S
C241 C89 1.481 . S
C255 C94 1.469 . S
C261 C120 1.469 . S
C275 C151 1.469 . S
C281 C125 1.469 . S
C295 C182 1.481 . S
C301 C156 1.481 . S
C315 C134 1.272 . S
C321 C0 1.271 . S
C335 C31 1.283 . S
C341 C165 1.288 . S
C355 C10 1.293 . S
C361 C62 1.293 . S
C375 C41 1.253 . S
C381 C93 1.272 . S
C395 C124 1.290 . S
C401 C72 1.292 . S
C415 C103 1.276 . S
C421 C155 1.273 . S
C435 C18 2.055 . S
C441 C33 2.045 . S
C455 C49 2.039 . S
C461 C64 2.030 . S
C475 C95 2.040 . S
C481 C80 2.046 . S
C495 C111 2.063 . S
C501 C126 2.055 . S
C515 C142 2.060 . S
C521 C157 2.053 . S
C535 C2 2.032 . S
C541 C173 2.039 . S
C555 C24 0.828 1_455 S
C561 C104 0.900 . S
C575 C135 0.883 . S
C581 C55 0.848 1_545 S
C595 C86 0.790 . S
C601 C166 0.880 . S
C615 C117 0.858 1_655 S
C621 C11 0.904 . S
C635 C42 0.872 . S
C641 C148 0.801 1_565 S
C655 C179 0.792 . S
C661 C73 0.874 . S
