# Generated by pormake.
# Topology und, (4)-cn, num edge types: 1
# Building blocks:
#     Node 0, Type 0, BuildingBlock: QUQFOY_clean_sbu_1, # of connection points: 4
#     Node 1, Type 0, BuildingBlock: QUQFOY_clean_sbu_1, # of connection points: 4
#     Node 2, Type 0, BuildingBlock: QUQFOY_clean_sbu_1, # of connection points: 4
#     Node 3, Type 0, BuildingBlock: QUQFOY_clean_sbu_1, # of connection points: 4
#     Node 4, Type 0, BuildingBlock: QUQFOY_clean_sbu_1, # of connection points: 4
#     Node 5, Type 0, BuildingBlock: QUQFOY_clean_sbu_1, # of connection points: 4
#     Node 6, Type 0, BuildingBlock: QUQFOY_clean_sbu_1, # of connection points: 4
#     Node 7, Type 0, BuildingBlock: QUQFOY_clean_sbu_1, # of connection points: 4
#     Node 8, Type 0, BuildingBlock: QUQFOY_clean_sbu_1, # of connection points: 4
#     Node 9, Type 0, BuildingBlock: QUQFOY_clean_sbu_1, # of connection points: 4
#     Node 10, Type 0, BuildingBlock: QUQFOY_clean_sbu_1, # of connection points: 4
#     Node 11, Type 0, BuildingBlock: QUQFOY_clean_sbu_1, # of connection points: 4
#     Node 12, Type 0, BuildingBlock: QUQFOY_clean_sbu_1, # of connection points: 4
#     Node 13, Type 0, BuildingBlock: QUQFOY_clean_sbu_1, # of connection points: 4
#     Node 14, Type 0, BuildingBlock: QUQFOY_clean_sbu_1, # of connection points: 4
#     Node 15, Type 0, BuildingBlock: QUQFOY_clean_sbu_1, # of connection points: 4
#     Edge 16, Type (0, 0), BuildingBlock: EZIPEK_clean_linker_0, # of connection points: 2
#     Edge 17, Type (0, 0), BuildingBlock: EZIPEK_clean_linker_0, # of connection points: 2
#     Edge 18, Type (0, 0), BuildingBlock: EZIPEK_clean_linker_0, # of connection points: 2
#     Edge 19, Type (0, 0), BuildingBlock: EZIPEK_clean_linker_0, # of connection points: 2
#     Edge 20, Type (0, 0), BuildingBlock: EZIPEK_clean_linker_0, # of connection points: 2
#     Edge 21, Type (0, 0), BuildingBlock: EZIPEK_clean_linker_0, # of connection points: 2
#     Edge 22, Type (0, 0), BuildingBlock: EZIPEK_clean_linker_0, # of connection points: 2
#     Edge 23, Type (0, 0), BuildingBlock: EZIPEK_clean_linker_0, # of connection points: 2
#     Edge 24, Type (0, 0), BuildingBlock: EZIPEK_clean_linker_0, # of connection points: 2
#     Edge 25, Type (0, 0), BuildingBlock: EZIPEK_clean_linker_0, # of connection points: 2
#     Edge 26, Type (0, 0), BuildingBlock: EZIPEK_clean_linker_0, # of connection points: 2
#     Edge 27, Type (0, 0), BuildingBlock: EZIPEK_clean_linker_0, # of connection points: 2
#     Edge 28, Type (0, 0), BuildingBlock: EZIPEK_clean_linker_0, # of connection points: 2
#     Edge 29, Type (0, 0), BuildingBlock: EZIPEK_clean_linker_0, # of connection points: 2
#     Edge 30, Type (0, 0), BuildingBlock: EZIPEK_clean_linker_0, # of connection points: 2
#     Edge 31, Type (0, 0), BuildingBlock: EZIPEK_clean_linker_0, # of connection points: 2
#     Edge 32, Type (0, 0), BuildingBlock: EZIPEK_clean_linker_0, # of connection points: 2
#     Edge 33, Type (0, 0), BuildingBlock: EZIPEK_clean_linker_0, # of connection points: 2
#     Edge 34, Type (0, 0), BuildingBlock: EZIPEK_clean_linker_0, # of connection points: 2
#     Edge 35, Type (0, 0), BuildingBlock: EZIPEK_clean_linker_0, # of connection points: 2
#     Edge 36, Type (0, 0), BuildingBlock: EZIPEK_clean_linker_0, # of connection points: 2
#     Edge 37, Type (0, 0), BuildingBlock: EZIPEK_clean_linker_0, # of connection points: 2
#     Edge 38, Type (0, 0), BuildingBlock: EZIPEK_clean_linker_0, # of connection points: 2
#     Edge 39, Type (0, 0), BuildingBlock: EZIPEK_clean_linker_0, # of connection points: 2
#     Edge 40, Type (0, 0), BuildingBlock: EZIPEK_clean_linker_0, # of connection points: 2
#     Edge 41, Type (0, 0), BuildingBlock: EZIPEK_clean_linker_0, # of connection points: 2
#     Edge 42, Type (0, 0), BuildingBlock: EZIPEK_clean_linker_0, # of connection points: 2
#     Edge 43, Type (0, 0), BuildingBlock: EZIPEK_clean_linker_0, # of connection points: 2
#     Edge 44, Type (0, 0), BuildingBlock: EZIPEK_clean_linker_0, # of connection points: 2
#     Edge 45, Type (0, 0), BuildingBlock: EZIPEK_clean_linker_0, # of connection points: 2
#     Edge 46, Type (0, 0), BuildingBlock: EZIPEK_clean_linker_0, # of connection points: 2
#     Edge 47, Type (0, 0), BuildingBlock: EZIPEK_clean_linker_0, # of connection points: 2
# Relax obj value: 0.055
# Max RMSD: 0.107
# Mean RMSD: 0.088
data_MOF--net-und--node1-QUQFOY_clean_sbu_1--edge1-EZIPEK_clean_linker_0
_symmetry_space_group_name_H-M    P1
_symmetry_Int_Tables_number       1
_symmetry_cell_setting            triclinic
loop_
_symmetry_equiv_pos_as_xyz
'x, y, z'
_cell_length_a     45.60306
_cell_length_b     45.80515
_cell_length_c     16.740174
_cell_angle_alpha  89.97234
_cell_angle_beta   89.982698
_cell_angle_gamma 93.449416
loop_
_atom_site_label
_atom_site_type_symbol
_atom_site_fract_x
_atom_site_fract_y
_atom_site_fract_z
_atom_type_partial_charge
O0 O 0.28379 0.36 0.90432 0.0
Cd1 Cd 0.28791 0.38485 0.00435 0.0
Cd2 Cd 0.24374 0.41124 0.94043 0.0
O3 O 0.23943 0.37299 0.87216 0.0
O4 O 0.3067 0.35897 0.08221 0.0
O5 O 0.26092 0.37255 0.09368 0.0
C6 C 0.28161 0.35675 0.11816 0.0
C7 C 0.20782 0.43092 0.0203 0.0
C8 C 0.26077 0.3566 0.86238 0.0
C9 C 0.30322 0.44327 0.93892 0.0
O10 O 0.27763 0.44096 0.90839 0.0
O11 O 0.31121 0.42446 0.98923 0.0
O12 O 0.20663 0.43278 0.94336 0.0
O13 O 0.22815 0.41617 0.0515 0.0
O14 O 0.89341 0.05286 0.35362 0.0
Cd15 Cd 0.92139 0.08765 0.31929 0.0
Cd16 Cd 0.94713 0.04549 0.24618 0.0
O17 O 0.90668 0.02295 0.2585 0.0
O18 O 0.8989 0.12404 0.311 0.0
O19 O 0.91681 0.10119 0.20668 0.0
C20 C 0.90151 0.12172 0.23438 0.0
C21 C 0.97645 0.05085 0.13365 0.0
C22 C 0.88976 0.02876 0.31621 0.0
C23 C 0.97627 0.0701 0.39102 0.0
O24 O 0.97201 0.04776 0.34711 0.0
O25 O 0.9604 0.09192 0.38387 0.0
O26 O 0.97269 0.02581 0.16878 0.0
O27 O 0.96148 0.07214 0.15796 0.0
O28 O 0.25696 0.76303 0.40723 0.0
Cd29 Cd 0.25236 0.73834 0.50742 0.0
Cd30 Cd 0.29678 0.71189 0.44539 0.0
O31 O 0.30149 0.75002 0.37685 0.0
O32 O 0.23312 0.76423 0.58442 0.0
O33 O 0.27903 0.75114 0.59684 0.0
C34 C 0.25818 0.76691 0.62047 0.0
C35 C 0.33224 0.69245 0.52733 0.0
C36 C 0.28016 0.76634 0.36597 0.0
C37 C 0.23725 0.6801 0.4409 0.0
O38 O 0.26302 0.68237 0.41151 0.0
O39 O 0.22908 0.69875 0.49143 0.0
O40 O 0.3339 0.69039 0.4505 0.0
O41 O 0.31162 0.70713 0.55729 0.0
O42 O 0.64817 0.07103 0.84954 0.0
Cd43 Cd 0.61965 0.03713 0.81227 0.0
Cd44 Cd 0.59718 0.0796 0.73619 0.0
O45 O 0.63885 0.09966 0.74766 0.0
O46 O 0.64058 0.99942 0.8094 0.0
O47 O 0.62732 0.02327 0.70144 0.0
C48 C 0.64061 1.00195 0.73244 0.0
C49 C 0.56869 0.07011 0.62379 0.0
C50 C 0.65405 0.09416 0.80917 0.0
C51 C 0.56487 0.05904 0.87685 0.0
O52 O 0.57223 0.08163 0.83624 0.0
O53 O 0.57844 0.03565 0.86784 0.0
O54 O 0.5735 0.09657 0.6494 0.0
O55 O 0.58219 0.04948 0.65744 0.0
O56 O 0.79459 0.76786 0.9105 0.0
Cd57 Cd 0.80429 0.73951 1.00016 0.0
Cd58 Cd 0.7472 0.73289 0.00262 0.0
O59 O 0.7491 0.75032 0.88855 0.0
O60 O 0.84515 0.72782 0.97857 0.0
O61 O 0.80571 0.69717 0.96972 0.0
C62 C 0.83366 0.70227 0.9599 0.0
C63 C 0.72114 0.69129 0.04867 0.0
C64 C 0.77121 0.76716 0.86934 0.0
C65 C 0.7759 0.76819 0.13251 0.0
O66 O 0.75304 0.76358 0.09032 0.0
O67 O 0.79981 0.75688 0.11381 0.0
O68 O 0.70776 0.71394 0.0263 0.0
O69 O 0.74921 0.69122 0.03832 0.0
O70 O 0.06561 0.03794 0.85336 0.0
Cd71 Cd 0.09334 0.02761 0.76276 0.0
Cd72 Cd 0.10062 0.08456 0.75943 0.0
O73 O 0.08345 0.08324 0.87384 0.0
O74 O 0.10419 0.98684 0.78647 0.0
O75 O 0.1361 0.02534 0.78972 0.0
C76 C 0.1303 0.99775 0.80236 0.0
C77 C 0.14195 0.111 0.71228 0.0
C78 C 0.06657 0.06133 0.894 0.0
C79 C 0.0642 0.05581 0.63111 0.0
O80 O 0.06953 0.07866 0.67244 0.0
O81 O 0.07513 0.0318 0.65001 0.0
O82 O 0.11902 0.12399 0.73476 0.0
O83 O 0.1425 0.08311 0.72312 0.0
O84 O 0.74491 0.35745 0.40919 0.0
Cd85 Cd 0.73681 0.38447 0.50241 0.0
Cd86 Cd 0.79477 0.39117 0.50309 0.0
O87 O 0.79256 0.36808 0.39627 0.0
O88 O 0.69561 0.39561 0.48346 0.0
O89 O 0.73438 0.42721 0.47751 0.0
C90 C 0.70653 0.42161 0.46746 0.0
C91 C 0.82081 0.43413 0.53801 0.0
C92 C 0.76908 0.35384 0.37413 0.0
C93 C 0.76708 0.35612 0.63597 0.0
O94 O 0.79041 0.36435 0.59929 0.0
O95 O 0.7422 0.36424 0.61273 0.0
O96 O 0.83427 0.41101 0.52013 0.0
O97 O 0.79277 0.43392 0.52668 0.0
O98 O 0.47294 0.08655 0.35506 0.0
Cd99 Cd 0.44695 0.0958 0.26005 0.0
Cd100 Cd 0.44182 0.03786 0.24954 0.0
O101 O 0.46595 0.03841 0.3544 0.0
O102 O 0.43552 0.13655 0.28165 0.0
O103 O 0.40368 0.09801 0.28115 0.0
C104 C 0.4092 0.12559 0.29442 0.0
C105 C 0.3993 1.01055 0.21578 0.0
C106 C 0.4783 0.06174 0.38341 0.0
C107 C 0.47664 0.06895 0.12184 0.0
O108 O 0.46803 0.04475 0.15291 0.0
O109 O 0.46878 0.09303 0.15079 0.0
O110 O 0.42347 0.99811 0.22904 0.0
O111 O 0.3984 0.0382 0.23024 0.0
O112 O 0.78601 0.86023 0.41612 0.0
Cd113 Cd 0.78842 0.8854 0.51622 0.0
Cd114 Cd 0.7454 0.91019 0.44627 0.0
O115 O 0.74105 0.87099 0.38312 0.0
O116 O 0.80785 0.86036 0.59504 0.0
O117 O 0.7613 0.87178 0.60422 0.0
C118 C 0.78256 0.85687 0.62957 0.0
C119 C 0.71026 0.93106 0.52626 0.0
C120 C 0.76311 0.85549 0.3743 0.0
C121 C 0.80427 0.94236 0.44475 0.0
O122 O 0.77972 0.93846 0.40909 0.0
O123 O 0.81083 0.92564 0.50205 0.0
O124 O 0.70836 0.93182 0.44924 0.0
O125 O 0.73096 0.91685 0.5577 0.0
O126 O 0.39191 0.55759 0.86269 0.0
Cd127 Cd 0.42104 0.5918 0.83046 0.0
Cd128 Cd 0.44844 0.54845 0.76518 0.0
O129 O 0.40867 0.52508 0.77927 0.0
O130 O 0.39876 0.62826 0.81995 0.0
O131 O 0.41746 0.60513 0.71725 0.0
C132 C 0.40189 0.62567 0.74359 0.0
C133 C 0.47775 0.55363 0.65288 0.0
C134 C 0.38989 0.53236 0.83076 0.0
C135 C 0.47588 0.57546 0.90883 0.0
O136 O 0.47291 0.55273 0.866 0.0
O137 O 0.45924 0.5966 0.89923 0.0
O138 O 0.47455 0.52879 0.68932 0.0
O139 O 0.46215 0.57467 0.67574 0.0
O140 O 0.75356 0.26212 0.92001 0.0
Cd141 Cd 0.75259 0.23644 0.01877 0.0
Cd142 Cd 0.7964 0.21351 0.94972 0.0
O143 O 0.79977 0.25429 0.8932 0.0
O144 O 0.73456 0.26063 0.10191 0.0
O145 O 0.78121 0.24913 0.1039 0.0
C146 C 0.76048 0.26386 0.13302 0.0
C147 C 0.83213 0.19197 0.02643 0.0
C148 C 0.77701 0.26865 0.88191 0.0
C149 C 0.73835 0.18001 0.94448 0.0
O150 O 0.7628 0.18505 0.90903 0.0
O151 O 0.73125 0.19584 0.00312 0.0
O152 O 0.83417 0.19287 0.94943 0.0
O153 O 0.8109 0.2048 0.05982 0.0
O154 O 0.14845 0.56716 0.35314 0.0
Cd155 Cd 0.11915 0.53334 0.31905 0.0
Cd156 Cd 0.09235 0.57738 0.2554 0.0
O157 O 0.13215 0.60051 0.27148 0.0
O158 O 0.14111 0.49668 0.30923 0.0
O159 O 0.12302 0.51998 0.20591 0.0
C160 C 0.13826 0.49925 0.23279 0.0
C161 C 0.06322 0.57277 0.14267 0.0
C162 C 0.15071 0.59268 0.3229 0.0
C163 C 0.06434 0.54969 0.39741 0.0
O164 O 0.0676 0.57268 0.35564 0.0
O165 O 0.0808 0.52847 0.38711 0.0
O166 O 0.06653 0.59748 0.17967 0.0
O167 O 0.07871 0.55158 0.16509 0.0
O168 O 0.29214 0.26911 0.40257 0.0
Cd169 Cd 0.30182 0.24043 0.49103 0.0
Cd170 Cd 0.24484 0.2327 0.4918 0.0
O171 O 0.24701 0.25099 0.37853 0.0
O172 O 0.34273 0.22932 0.46797 0.0
O173 O 0.30357 0.19828 0.45908 0.0
C174 C 0.33145 0.20373 0.44889 0.0
C175 C 0.2193 0.19023 0.53423 0.0
C176 C 0.26898 0.26822 0.36058 0.0
C177 C 0.27262 0.26795 0.62383 0.0
O178 O 0.24984 0.26272 0.58168 0.0
O179 O 0.29691 0.25745 0.60483 0.0
O180 O 0.2056 0.21283 0.51306 0.0
O181 O 0.2474 0.19067 0.52374 0.0
O182 O 0.56551 0.54214 0.36983 0.0
Cd183 Cd 0.59278 0.53187 0.27826 0.0
Cd184 Cd 0.6014 0.58863 0.27783 0.0
O185 O 0.58458 0.58684 0.39262 0.0
O186 O 0.60299 0.49076 0.30024 0.0
O187 O 0.63546 0.5288 0.3048 0.0
C188 C 0.62924 0.50122 0.31659 0.0
C189 C 0.64353 0.61389 0.23147 0.0
C190 C 0.56722 0.56519 0.41187 0.0
C191 C 0.56391 0.56172 0.14895 0.0
O192 O 0.56998 0.58421 0.19121 0.0
O193 O 0.57436 0.53732 0.16618 0.0
O194 O 0.62127 0.62762 0.25548 0.0
O195 O 0.64305 0.58587 0.24103 0.0
O196 O 0.24807 0.8546 0.90398 0.0
Cd197 Cd 0.23824 0.8825 0.99437 0.0
Cd198 Cd 0.29512 0.88986 0.99447 0.0
O199 O 0.29301 0.87316 0.87962 0.0
O200 O 0.19719 0.89333 0.97212 0.0
O201 O 0.236 0.92492 0.96563 0.0
C202 C 0.20818 0.91921 0.95497 0.0
C203 C 0.32075 0.93144 0.04195 0.0
C204 C 0.27109 0.85595 0.86132 0.0
C205 C 0.26757 0.85354 0.1241 0.0
O206 O 0.29008 0.85855 0.08076 0.0
O207 O 0.24343 0.86478 0.10735 0.0
O208 O 0.33438 0.90915 0.0181 0.0
O209 O 0.29263 0.93122 0.03228 0.0
O210 O 0.97587 0.58387 0.85672 0.0
Cd211 Cd 0.94771 0.59333 0.76645 0.0
Cd212 Cd 0.93979 0.53706 0.76857 0.0
O213 O 0.95593 0.53986 0.88405 0.0
O214 O 0.93702 0.6344 0.78634 0.0
O215 O 0.9054 0.59584 0.79781 0.0
C216 C 0.91123 0.62362 0.80638 0.0
C217 C 0.898 0.51206 0.71957 0.0
C218 C 0.9738 0.56139 0.90104 0.0
C219 C 0.97675 0.56319 0.63878 0.0
O220 O 0.97181 0.54119 0.68374 0.0
O221 O 0.96515 0.58724 0.65343 0.0
O222 O 0.91984 0.49816 0.74574 0.0
O223 O 0.89869 0.54013 0.7279 0.0
C224 C 0.27517 0.30405 0.15645 0.0
C225 C 0.2756 0.33395 0.17941 0.0
C226 C 0.26362 0.31952 0.31693 0.0
C227 C 0.26716 0.28991 0.29597 0.0
N228 N 0.27832 0.25362 0.19841 0.0
N229 N 0.27218 0.37071 0.28129 0.0
C230 C 0.27325 0.282 0.21627 0.0
C231 C 0.27004 0.34189 0.25952 0.0
N232 N 0.27567 0.29672 0.07726 0.0
N233 N 0.25384 0.32609 0.39168 0.0
H234 H 0.27669 0.38764 0.24056 0.0
H235 H 0.27161 0.37784 0.34026 0.0
H236 H 0.24883 0.31011 0.43486 0.0
H237 H 0.24824 0.34687 0.40886 0.0
H238 H 0.27226 0.27537 0.05646 0.0
H239 H 0.2769 0.31222 0.03152 0.0
H240 H 0.28647 0.24706 0.14359 0.0
H241 H 0.27605 0.23677 0.24033 0.0
C242 C 0.02862 0.07428 0.43477 0.0
C243 C 0.99853 0.06893 0.45453 0.0
C244 C 1.01175 0.05346 0.58921 0.0
C245 C 0.04188 0.05702 0.56777 0.0
N246 N 0.07953 0.06729 0.46935 0.0
N247 N 0.96099 0.05 0.5454 0.0
C248 C 0.05049 0.06641 0.49013 0.0
C249 C 0.98995 0.05765 0.53047 0.0
N250 N 0.03611 0.08741 0.36365 0.0
N251 N 1.00404 0.04682 0.66642 0.0
H252 H 0.94421 0.05387 0.5051 0.0
H253 H 0.95368 0.03827 0.59558 0.0
H254 H 1.01928 0.04202 0.71026 0.0
H255 H 0.98275 0.04767 0.68843 0.0
H256 H 0.05748 0.09429 0.34783 0.0
H257 H 1.02048 0.09353 0.32233 0.0
H258 H 0.08728 0.07154 0.41181 0.0
H259 H 0.09589 0.06147 0.50884 0.0
C260 C 0.27213 0.78264 0.75976 0.0
C261 C 0.26395 0.79006 0.68098 0.0
C262 C 0.26417 0.84193 0.71797 0.0
C263 C 0.27294 0.83455 0.79607 0.0
N264 N 0.2912 0.79953 0.88814 0.0
N265 N 0.25915 0.82708 0.57961 0.0
C266 C 0.2789 0.80536 0.8158 0.0
C267 C 0.26198 0.81983 0.6584 0.0
N268 N 0.27202 0.7539 0.782 0.0
N269 N 0.25703 0.86986 0.70149 0.0
H270 H 0.25787 0.81162 0.53384 0.0
H271 H 0.26075 0.84852 0.55866 0.0
H272 H 0.25979 0.88686 0.74279 0.0
H273 H 0.24688 0.87583 0.64873 0.0
H274 H 0.27465 0.74703 0.8407 0.0
H275 H 0.26698 0.73668 0.74261 0.0
H276 H 0.29861 0.77924 0.90369 0.0
H277 H 0.29643 0.81579 0.93033 0.0
C278 C 0.49329 0.07636 0.97981 0.0
C279 C 0.49958 0.06844 0.05945 0.0
C280 C 0.54939 0.05661 0.02017 0.0
C281 C 0.54205 0.06132 0.93916 0.0
N282 N 0.50634 0.07339 0.83978 0.0
N283 N 0.53246 0.04778 0.15507 0.0
C284 C 0.51385 0.07079 0.9184 0.0
C285 C 0.52725 0.05753 0.07941 0.0
N286 N 0.46765 0.0891 0.96291 0.0
N287 N 0.57795 0.0531 0.04143 0.0
H288 H 0.51791 0.04971 0.20241 0.0
H289 H 0.55049 0.03595 0.16989 0.0
H290 H 0.59517 0.05312 1.00047 0.0
H291 H 0.58519 0.05314 0.10043 0.0
H292 H 0.46311 0.09841 0.90789 0.0
H293 H 0.45155 0.09224 0.00578 0.0
H294 H 0.48518 0.07684 0.82014 0.0
H295 H 0.52085 0.07 0.7932 0.0
C296 C 0.26705 0.80129 0.16522 0.0
C297 C 0.2692 0.83128 0.18728 0.0
C298 C 0.28492 0.81836 0.32203 0.0
C299 C 0.2807 0.78836 0.30166 0.0
N300 N 0.26543 0.75059 0.20778 0.0
N301 N 0.27743 0.86887 0.28646 0.0
C302 C 0.27132 0.77962 0.22409 0.0
C303 C 0.27737 0.83999 0.26578 0.0
N304 N 0.26143 0.79362 0.08746 0.0
N305 N 0.29672 0.82598 0.39472 0.0
H306 H 0.27207 0.88511 0.24619 0.0
H307 H 0.2807 0.87665 0.34434 0.0
H308 H 0.30277 0.81049 0.43639 0.0
H309 H 0.30267 0.84736 0.41171 0.0
H310 H 0.26331 0.77262 0.06507 0.0
H311 H 0.25623 0.80867 0.04364 0.0
H312 H 0.25488 0.74285 0.15618 0.0
H313 H 0.26984 0.73402 0.24801 0.0
C314 C 0.49721 0.04661 0.51792 0.0
C315 C 0.50239 0.06037 0.44277 0.0
C316 C 0.55338 0.07441 0.48176 0.0
C317 C 0.54716 0.06357 0.55926 0.0
N318 N 0.51483 0.0374 0.65216 0.0
N319 N 0.53559 0.08639 0.35044 0.0
C320 C 0.51969 0.04861 0.57723 0.0
C321 C 0.53061 0.07385 0.42382 0.0
N322 N 0.47064 0.03213 0.53289 0.0
N323 N 0.58154 0.08408 0.46297 0.0
H324 H 0.521 0.08394 0.30284 0.0
H325 H 0.55384 0.1002 0.33668 0.0
H326 H 0.59873 0.08431 0.50413 0.0
H327 H 0.58868 0.08958 0.40563 0.0
H328 H 0.46612 0.01901 0.58256 0.0
H329 H 0.45284 0.03233 0.49395 0.0
H330 H 0.49453 0.02927 0.67344 0.0
H331 H 0.53128 0.03666 0.6951 0.0
C332 C 0.27757 0.32013 0.66603 0.0
C333 C 0.27126 0.29035 0.68678 0.0
C334 C 0.2523 0.30491 0.81703 0.0
C335 C 0.26053 0.33448 0.79838 0.0
N336 N 0.28316 0.37063 0.70967 0.0
N337 N 0.25537 0.25359 0.78259 0.0
C338 C 0.27366 0.34221 0.72394 0.0
C339 C 0.25932 0.2825 0.76253 0.0
N340 N 0.28641 0.32733 0.59001 0.0
N341 N 0.23747 0.2985 0.88648 0.0
H342 H 0.26058 0.23684 0.74381 0.0
H343 H 0.24907 0.24607 0.83903 0.0
H344 H 0.23206 0.31458 0.92717 0.0
H345 H 0.22864 0.27776 0.90148 0.0
H346 H 0.28774 0.34861 0.5679 0.0
H347 H 0.29088 0.31179 0.54684 0.0
H348 H 0.29641 0.37724 0.66152 0.0
H349 H 0.27891 0.38767 0.74848 0.0
C350 C 1.01573 0.06984 0.93808 0.0
C351 C 0.04489 0.06363 0.95867 0.0
C352 C 0.02966 0.05357 0.09651 0.0
C353 C 0.99989 0.05597 0.07337 0.0
N354 N 0.96391 0.06429 0.97176 0.0
N355 N 0.07992 0.04782 0.05451 0.0
C356 C 0.99272 0.06387 0.99419 0.0
C357 C 0.052 0.05518 0.03725 0.0
N358 N 1.01017 0.08154 0.86482 0.0
N359 N 0.03666 0.05081 0.17551 0.0
H360 H 0.09709 0.05012 0.01336 0.0
H361 H 0.0857 0.03795 0.10782 0.0
H362 H 0.02099 0.0498 0.22095 0.0
H363 H 0.05813 0.0521 0.19692 0.0
H364 H 0.98997 0.08913 0.84847 0.0
H365 H 0.02658 0.086 0.82229 0.0
H366 H 0.95709 0.06673 0.91293 0.0
H367 H 0.94651 0.05996 0.01131 0.0
C368 C 0.77761 0.78168 0.72615 0.0
C369 C 0.76919 0.78883 0.80473 0.0
C370 C 0.76913 0.84079 0.76899 0.0
C371 C 0.7771 0.83359 0.68989 0.0
N372 N 0.78228 0.79693 0.58792 0.0
N373 N 0.75132 0.8235 0.89841 0.0
C374 C 0.77941 0.80392 0.66687 0.0
C375 C 0.76307 0.81791 0.8252 0.0
N376 N 0.78474 0.75381 0.70891 0.0
N377 N 0.76871 0.86949 0.79121 0.0
H378 H 0.74674 0.80719 0.94092 0.0
H379 H 0.74379 0.84366 0.91474 0.0
H380 H 0.77304 0.88677 0.7515 0.0
H381 H 0.76623 0.87633 0.84996 0.0
H382 H 0.79464 0.74796 0.65569 0.0
H383 H 0.78217 0.7367 0.74997 0.0
H384 H 0.7809 0.77555 0.56649 0.0
H385 H 0.7835 0.81252 0.54246 0.0
C386 C 0.7825 0.33518 0.2378 0.0
C387 C 0.7699 0.32998 0.31429 0.0
C388 C 0.75272 0.28034 0.27325 0.0
C389 C 0.76636 0.28517 0.19819 0.0
N390 N 0.80015 0.31439 0.11518 0.0
N391 N 0.74986 0.29492 0.4114 0.0
C392 C 0.78333 0.31163 0.18265 0.0
C393 C 0.75697 0.30176 0.33396 0.0
N394 N 0.79197 0.36291 0.21579 0.0
N395 N 0.7355 0.25532 0.28655 0.0
H396 H 0.75295 0.30959 0.45848 0.0
H397 H 0.74356 0.27383 0.43048 0.0
H398 H 0.73362 0.23808 0.2458 0.0
H399 H 0.72179 0.25234 0.33604 0.0
H400 H 0.79822 0.36858 0.15771 0.0
H401 H 0.791 0.38092 0.25351 0.0
H402 H 0.81524 0.33198 0.105 0.0
H403 H 0.80108 0.29796 0.07246 0.0
C404 C 0.76836 0.32014 0.84106 0.0
C405 C 0.77641 0.29162 0.81991 0.0
C406 C 0.77973 0.30607 0.67944 0.0
C407 C 0.76926 0.33385 0.6995 0.0
N408 N 0.75114 0.36675 0.79764 0.0
N409 N 0.78337 0.25552 0.7177 0.0
C410 C 0.76268 0.34066 0.77985 0.0
C411 C 0.78056 0.28409 0.73886 0.0
N412 N 0.76714 0.32785 0.91983 0.0
N413 N 0.78906 0.30054 0.60357 0.0
H414 H 0.78359 0.23844 0.75881 0.0
H415 H 0.78265 0.24821 0.65879 0.0
H416 H 0.78732 0.31495 0.55605 0.0
H417 H 0.80056 0.28233 0.58874 0.0
H418 H 0.7645 0.34907 0.93961 0.0
H419 H 0.77112 0.3134 0.96607 0.0
H420 H 0.7427 0.37172 0.85345 0.0
H421 H 0.74829 0.38297 0.75508 0.0
C422 C 0.76633 0.78169 0.27434 0.0
C423 C 0.77504 0.79034 0.19618 0.0
C424 C 0.7746 0.842 0.23409 0.0
C425 C 0.76391 0.83335 0.31059 0.0
N426 N 0.74601 0.79581 0.40193 0.0
N427 N 0.78454 0.82814 0.09744 0.0
C428 C 0.75874 0.80337 0.3303 0.0
C429 C 0.77839 0.82036 0.17488 0.0
N430 N 0.76588 0.75279 0.29507 0.0
N431 N 0.78207 0.87086 0.21899 0.0
H432 H 0.7892 0.81303 0.05328 0.0
H433 H 0.78347 0.84934 0.07565 0.0
H434 H 0.77845 0.88753 0.25966 0.0
H435 H 0.79342 0.87824 0.1682 0.0
H436 H 0.76216 0.74505 0.35285 0.0
H437 H 0.77162 0.73658 0.25521 0.0
H438 H 0.73926 0.77449 0.41777 0.0
H439 H 0.74003 0.81132 0.44359 0.0
C440 C 0.51133 0.56336 0.10979 0.0
C441 C 0.54132 0.56382 0.08652 0.0
C442 C 0.52832 0.57844 0.95094 0.0
C443 C 0.4982 0.57578 0.97258 0.0
N444 N 0.46028 0.56284 0.06881 0.0
N445 N 0.57864 0.56874 0.98501 0.0
C446 C 0.48948 0.56767 0.0512 0.0
C447 C 0.54992 0.57048 0.00696 0.0
N448 N 0.50382 0.55917 0.18831 0.0
N449 N 0.53613 0.5892 0.87723 0.0
H450 H 0.59488 0.56308 0.02507 0.0
H451 H 0.58612 0.57069 0.92642 0.0
H452 H 0.52069 0.5956 0.83567 0.0
H453 H 0.55771 0.59406 0.85931 0.0
H454 H 0.48301 0.56237 0.21108 0.0
H455 H 0.51889 0.55391 0.23214 0.0
H456 H 0.45249 0.55327 0.1217 0.0
H457 H 0.44361 0.56694 0.02842 0.0
C458 C 0.05093 0.55675 0.54012 0.0
C459 C 0.04206 0.54925 0.46125 0.0
C460 C 0.99047 0.55502 0.49626 0.0
C461 C 0.99921 0.56113 0.576 0.0
N462 N 0.03684 0.56512 0.67748 0.0
N463 N 1.00397 0.53702 0.36549 0.0
C464 C 0.02921 0.56115 0.59899 0.0
C465 C 1.01192 0.54716 0.43969 0.0
N466 N 0.08019 0.56099 0.55769 0.0
N467 N 0.96175 0.55713 0.47473 0.0
H468 H 1.01929 0.53073 0.3235 0.0
H469 H 0.98234 0.53258 0.34741 0.0
H470 H 0.94557 0.56264 0.51519 0.0
H471 H 0.95419 0.55556 0.41618 0.0
H472 H 0.08818 0.57016 0.61084 0.0
H473 H 0.09676 0.55677 0.5171 0.0
H474 H 0.05757 0.56153 0.70012 0.0
H475 H 0.02196 0.57073 0.7214 0.0
C476 C 1.01016 0.57181 0.10349 0.0
C477 C 0.03986 0.56783 0.08199 0.0
C478 C 0.02388 0.55165 0.9487 0.0
C479 C 0.99505 0.55959 0.96688 0.0
N480 N 0.96073 0.57957 0.05813 0.0
N481 N 0.07567 0.55676 0.98216 0.0
C482 C 0.98812 0.57022 0.04346 0.0
C483 C 0.04692 0.5582 0.00422 0.0
N484 N 1.0028 0.57585 0.18175 0.0
N485 N 0.02912 0.53774 0.87831 0.0
H486 H 0.09316 0.56187 0.02082 0.0
H487 H 0.08235 0.55293 0.92382 0.0
H488 H 1.01265 0.53266 0.83646 0.0
H489 H 0.04901 0.52891 0.8645 0.0
H490 H 0.98119 0.57578 0.20189 0.0
H491 H 1.0181 0.57647 0.22807 0.0
H492 H 0.95543 0.59098 0.10944 0.0
H493 H 0.94369 0.57748 0.01653 0.0
C494 C 0.49397 0.56805 0.51429 0.0
C495 C 0.50113 0.5589 0.59245 0.0
C496 C 0.55306 0.55758 0.55488 0.0
C497 C 0.54597 0.5674 0.47757 0.0
N498 N 0.51157 0.58792 0.38741 0.0
N499 N 0.53812 0.55198 0.69308 0.0
C500 C 0.51698 0.57465 0.45865 0.0
C501 C 0.53089 0.55568 0.61457 0.0
N502 N 0.46519 0.56897 0.49207 0.0
N503 N 0.58078 0.54929 0.57052 0.0
H504 H 0.52266 0.55096 0.73902 0.0
H505 H 0.55968 0.55261 0.71377 0.0
H506 H 0.59789 0.55188 0.52926 0.0
H507 H 0.58639 0.53842 0.62246 0.0
H508 H 0.45846 0.5724 0.43357 0.0
H509 H 0.44774 0.56391 0.53094 0.0
H510 H 0.49151 0.59624 0.37279 0.0
H511 H 0.52803 0.59301 0.34546 0.0
C512 C 0.17771 0.49555 0.12984 0.0
C513 C 0.15517 0.48142 0.17699 0.0
C514 C 0.16762 0.43372 0.12332 0.0
C515 C 0.18868 0.44812 0.07193 0.0
N516 N 0.21186 0.49298 0.01962 0.0
N517 N 0.12586 0.43786 0.21219 0.0
C518 C 0.19294 0.47913 0.07278 0.0
C519 C 0.14942 0.45067 0.17223 0.0
N520 N 0.18591 0.5244 0.14319 0.0
N521 N 0.1652 0.40384 0.12569 0.0
H522 H 0.11215 0.44966 0.24829 0.0
H523 H 0.11848 0.41608 0.2051 0.0
H524 H 0.17691 0.3908 0.08755 0.0
H525 H 0.15287 0.3919 0.16816 0.0
H526 H 0.20442 0.53511 0.11783 0.0
H527 H 0.17588 0.53721 0.18546 0.0
H528 H 0.21284 0.51547 0.00974 0.0
H529 H 0.2255 0.48201 0.98144 0.0
C530 C 0.85451 0.95618 0.38995 0.0
C531 C 0.82634 0.96465 0.41352 0.0
C532 C 0.83825 1.01381 0.36009 0.0
C533 C 0.86757 1.00631 0.34606 0.0
N534 N 0.90525 0.97208 0.36757 0.0
N535 N 0.79337 1.00316 0.4348 0.0
C536 C 0.87622 0.97797 0.36644 0.0
C537 C 0.81872 0.99396 0.40237 0.0
N538 N 0.86031 0.92727 0.38634 0.0
N539 N 0.82875 0.03946 0.33086 0.0
H540 H 0.77915 0.98949 0.46878 0.0
H541 H 0.78805 0.02496 0.43509 0.0
H542 H 0.84217 0.05417 0.29763 0.0
H543 H 0.80685 0.04471 0.33261 0.0
H544 H 0.87957 0.92004 0.36165 0.0
H545 H 0.84479 0.91033 0.39969 0.0
H546 H 0.91266 0.9526 0.38997 0.0
H547 H 0.92222 0.98763 0.35471 0.0
C548 C 0.34736 0.64464 0.58201 0.0
C549 C 0.35132 0.67566 0.58022 0.0
C550 C 0.39029 0.67392 0.6816 0.0
C551 C 0.38485 0.64315 0.68718 0.0
N552 N 0.35465 0.59975 0.65407 0.0
N553 N 0.37416 0.72036 0.63311 0.0
C554 C 0.36258 0.62861 0.63999 0.0
C555 C 0.37205 0.69047 0.63167 0.0
N556 N 0.32876 0.6304 0.52882 0.0
N557 N 0.41358 0.68711 0.72174 0.0
H558 H 0.36242 0.73313 0.59427 0.0
H559 H 0.38623 0.73259 0.67548 0.0
H560 H 0.42727 0.67561 0.75864 0.0
H561 H 0.42076 0.70893 0.71412 0.0
H562 H 0.32802 0.60788 0.51971 0.0
H563 H 0.31518 0.64109 0.48985 0.0
H564 H 0.33634 0.58874 0.62861 0.0
H565 H 0.36469 0.58721 0.69701 0.0
C566 C 0.68903 0.16653 0.88441 0.0
C567 C 0.71675 0.15783 0.9109 0.0
C568 C 0.70504 0.10849 0.85841 0.0
C569 C 0.67611 0.11638 0.84056 0.0
N570 N 0.63859 0.15119 0.85549 0.0
N571 N 0.74951 0.11937 0.93498 0.0
C572 C 0.66752 0.14493 0.85865 0.0
C573 C 0.72436 0.12846 0.90107 0.0
N574 N 0.68352 0.19551 0.8804 0.0
N575 N 0.71434 0.08231 0.83256 0.0
H576 H 0.76379 0.13325 0.96818 0.0
H577 H 0.75478 0.09757 0.93671 0.0
H578 H 0.70093 0.06734 0.80022 0.0
H579 H 0.73606 0.07661 0.83663 0.0
H580 H 0.6648 0.20301 0.85344 0.0
H581 H 0.69889 0.2123 0.89615 0.0
H582 H 0.63099 0.17078 0.87643 0.0
H583 H 0.62172 0.13586 0.84021 0.0
C584 C 0.19248 0.62999 0.29878 0.0
C585 C 0.17367 0.61424 0.35308 0.0
C586 C 0.1997 0.63855 0.46534 0.0
C587 C 0.21586 0.65694 0.41087 0.0
N588 N 0.22242 0.67445 0.27513 0.0
N589 N 0.15507 0.60857 0.48806 0.0
C590 C 0.21092 0.65382 0.32728 0.0
C591 C 0.17611 0.61981 0.43651 0.0
N592 N 0.19339 0.62175 0.22042 0.0
N593 N 0.20736 0.63829 0.54423 0.0
H594 H 0.13652 0.59598 0.46949 0.0
H595 H 0.15436 0.6144 0.54813 0.0
H596 H 0.22501 0.65115 0.56734 0.0
H597 H 0.19812 0.62314 0.58492 0.0
H598 H 0.20888 0.6307 0.18012 0.0
H599 H 0.18074 0.60393 0.19766 0.0
H600 H 0.21704 0.67462 0.21467 0.0
H601 H 0.2347 0.69318 0.29336 0.0
C602 C 0.65261 0.95237 0.67876 0.0
C603 C 0.65826 0.9832 0.68075 0.0
C604 C 0.69537 0.97975 0.57521 0.0
C605 C 0.69136 0.94876 0.57733 0.0
N606 N 0.66877 0.9051 0.63707 0.0
N607 N 0.68945 0.02553 0.64379 0.0
C608 C 0.67083 0.93492 0.63123 0.0
C609 C 0.68075 0.99672 0.63217 0.0
N610 N 0.62905 0.93993 0.71942 0.0
N611 N 0.71334 0.99316 0.51901 0.0
H612 H 0.68004 0.03867 0.68638 0.0
H613 H 0.70796 0.03575 0.61708 0.0
H614 H 0.72603 0.98183 0.47924 0.0
H615 H 0.71411 0.01556 0.50788 0.0
H616 H 0.62179 0.91805 0.71389 0.0
H617 H 0.6152 0.95205 0.75418 0.0
H618 H 0.65685 0.89376 0.68148 0.0
H619 H 0.68045 0.89162 0.60006 0.0
C620 C 0.36392 0.50399 0.94135 0.0
C621 C 0.3668 0.5105 0.85852 0.0
C622 C 0.32983 0.47114 0.82822 0.0
C623 C 0.32453 0.46695 0.91135 0.0
N624 N 0.33209 0.48426 0.04638 0.0
N625 N 0.34768 0.5046 0.72477 0.0
C626 C 0.34025 0.48483 0.96782 0.0
C627 C 0.34829 0.49538 0.80237 0.0
N628 N 0.3846 0.51475 0.99452 0.0
N629 N 0.31869 0.45113 0.77395 0.0
H630 H 0.36035 0.52275 0.70397 0.0
H631 H 0.3324 0.49611 0.6833 0.0
H632 H 0.30642 0.43214 0.79018 0.0
H633 H 0.32437 0.45174 0.71366 0.0
H634 H 0.38501 0.50822 0.05412 0.0
H635 H 0.40316 0.52769 0.97768 0.0
H636 H 0.34103 0.49899 0.08851 0.0
H637 H 0.31429 0.47116 0.0678 0.0
C638 C 0.84892 0.14336 0.07054 0.0
C639 C 0.8518 0.17437 0.07536 0.0
C640 C 0.88971 0.17098 0.17907 0.0
C641 C 0.88484 0.14007 0.17917 0.0
N642 N 0.85586 0.09711 0.13594 0.0
N643 N 0.87273 0.21805 0.13862 0.0
C644 C 0.86356 0.1263 0.12736 0.0
C645 C 0.87153 0.18829 0.13113 0.0
N646 N 0.83191 0.13007 0.01217 0.0
N647 N 0.91246 0.18368 0.22239 0.0
H648 H 0.86114 0.23151 0.1013 0.0
H649 H 0.8839 0.22935 0.18442 0.0
H650 H 0.92629 0.17165 0.25748 0.0
H651 H 0.91919 0.20576 0.21869 0.0
H652 H 0.83196 0.10783 0.99929 0.0
H653 H 0.81922 0.14143 0.97241 0.0
H654 H 0.83809 0.08652 0.10674 0.0
H655 H 0.86532 0.08381 0.1781 0.0
C656 C 0.87564 0.66923 0.96625 0.0
C657 C 0.85199 0.68017 0.92271 0.0
C658 C 0.86475 0.65065 0.80626 0.0
C659 C 0.89015 0.64222 0.84691 0.0
N660 N 0.92104 0.64416 0.96414 0.0
N661 N 0.82599 0.68453 0.79801 0.0
C662 C 0.89596 0.65174 0.92655 0.0
C663 C 0.84685 0.67152 0.84203 0.0
N664 N 0.87796 0.67469 0.0464 0.0
N665 N 0.85773 0.63872 0.73338 0.0
H666 H 0.81257 0.70006 0.82141 0.0
H667 H 0.82347 0.68179 0.73663 0.0
H668 H 0.87099 0.62438 0.70393 0.0
H669 H 0.83781 0.64131 0.70466 0.0
H670 H 0.89278 0.66497 0.08378 0.0
H671 H 0.86326 0.68713 0.07734 0.0
H672 H 0.92849 0.65324 0.01794 0.0
H673 H 0.93547 0.62978 0.93959 0.0
C674 C 0.20911 0.1598 0.65763 0.0
C675 C 0.20311 0.16561 0.57583 0.0
C676 C 0.15869 0.13283 0.58198 0.0
C677 C 0.16467 0.12712 0.66364 0.0
N678 N 0.19835 0.12933 0.77419 0.0
N679 N 0.17667 0.15274 0.4554 0.0
C680 C 0.19093 0.1386 0.69967 0.0
C681 C 0.17924 0.15054 0.53654 0.0
N682 N 0.23088 0.17592 0.69671 0.0
N683 N 0.13294 0.12192 0.54853 0.0
H684 H 0.19171 0.16525 0.42063 0.0
H685 H 0.16142 0.14023 0.4217 0.0
H686 H 0.11803 0.10767 0.57859 0.0
H687 H 0.12553 0.12811 0.49258 0.0
H688 H 0.23392 0.17526 0.75831 0.0
H689 H 0.24477 0.19164 0.6687 0.0
H690 H 0.21864 0.13453 0.8007 0.0
H691 H 0.18507 0.1143 0.80688 0.0
C692 C 0.6771 0.46635 0.47326 0.0
C693 C 0.68817 0.4432 0.42842 0.0
C694 C 0.66137 0.45853 0.30947 0.0
C695 C 0.65091 0.48225 0.35349 0.0
N696 N 0.65071 0.51086 0.47472 0.0
N697 N 0.69531 0.41973 0.30162 0.0
C698 C 0.65955 0.48691 0.43454 0.0
C699 C 0.68152 0.43997 0.34586 0.0
N700 N 0.68243 0.46787 0.55362 0.0
N701 N 0.65179 0.45357 0.23297 0.0
H702 H 0.71002 0.40562 0.32612 0.0
H703 H 0.69405 0.41826 0.23969 0.0
H704 H 0.6388 0.46783 0.20229 0.0
H705 H 0.65541 0.43465 0.20095 0.0
H706 H 0.67249 0.48207 0.59225 0.0
H707 H 0.69568 0.45353 0.58316 0.0
H708 H 0.65882 0.51749 0.5303 0.0
H709 H 0.63621 0.52528 0.45093 0.0
C710 C 0.36726 1.00005 0.09578 0.0
C711 C 0.37453 0.99376 0.17645 0.0
C712 C 0.34361 0.94818 0.17103 0.0
C713 C 0.33655 0.95439 0.09032 0.0
N714 N 0.3356 0.98871 0.98177 0.0
N715 N 0.3649 0.96592 0.29632 0.0
C716 C 0.34628 0.98128 0.05481 0.0
C717 C 0.36116 0.96904 0.21579 0.0
N718 N 0.38185 0.02275 0.05649 0.0
N719 N 0.33409 0.92199 0.20414 0.0
H720 H 0.3774 0.98113 0.33045 0.0
H721 H 0.35368 0.94989 0.33054 0.0
H722 H 0.31988 0.90684 0.17482 0.0
H723 H 0.34127 0.91452 0.25906 0.0
H724 H 0.38014 0.02624 0.99526 0.0
H725 H 0.3974 0.03708 0.08369 0.0
H726 H 0.33943 1.00929 0.95608 0.0
H727 H 0.32076 0.97502 0.94969 0.0
C728 C 0.83097 0.46365 0.66253 0.0
C729 C 0.8369 0.45859 0.58029 0.0
C730 C 0.88116 0.49155 0.58784 0.0
C731 C 0.87522 0.49652 0.66992 0.0
N732 N 0.84163 0.4933 0.7806 0.0
N733 N 0.86333 0.47225 0.46042 0.0
C734 C 0.84906 0.48461 0.70556 0.0
C735 C 0.86069 0.47404 0.5416 0.0
N736 N 0.8094 0.44704 0.70104 0.0
N737 N 0.90686 0.50284 0.55488 0.0
H738 H 0.84842 0.45974 0.42529 0.0
H739 H 0.87854 0.48499 0.42715 0.0
H740 H 0.92177 0.5168 0.58583 0.0
H741 H 0.91424 0.49726 0.49839 0.0
H742 H 0.80642 0.44723 0.76269 0.0
H743 H 0.79565 0.43132 0.6725 0.0
H744 H 0.82139 0.48776 0.80706 0.0
H745 H 0.8548 0.50825 0.81379 0.0
C746 C 0.35831 0.18781 0.32714 0.0
C747 C 0.34958 0.18242 0.40768 0.0
C748 C 0.37746 0.13821 0.41078 0.0
C749 C 0.3868 0.14385 0.33075 0.0
N750 N 0.38704 0.17362 0.21226 0.0
N751 N 0.3459 0.15034 0.52153 0.0
C752 C 0.37735 0.16853 0.28867 0.0
C753 C 0.35758 0.15688 0.44794 0.0
N754 N 0.34723 0.21069 0.28664 0.0
N755 N 0.38927 0.11623 0.45329 0.0
H756 H 0.33238 0.16416 0.552 0.0
H757 H 0.34782 0.1304 0.55032 0.0
H758 H 0.40403 0.10214 0.42911 0.0
H759 H 0.38628 0.1131 0.51437 0.0
H760 H 0.35058 0.21497 0.22627 0.0
H761 H 0.33294 0.22493 0.31247 0.0
H762 H 0.38384 0.19255 0.17997 0.0
H763 H 0.39926 0.1589 0.18075 0.0
C764 C 0.68429 0.65282 0.22666 0.0
C765 C 0.66766 0.62998 0.1875 0.0
C766 C 0.69214 0.64319 0.06051 0.0
C767 C 0.70531 0.66846 0.09742 0.0
N768 N 0.71375 0.69846 0.2146 0.0
N769 N 0.6537 0.60434 0.06582 0.0
C770 C 0.70156 0.67346 0.18047 0.0
C771 C 0.67136 0.62505 0.10422 0.0
N772 N 0.6839 0.65434 0.30822 0.0
N773 N 0.69948 0.63665 0.9837 0.0
H774 H 0.63821 0.59055 0.09519 0.0
H775 H 0.65285 0.60212 0.00397 0.0
H776 H 0.71426 0.64989 0.95007 0.0
H777 H 0.69296 0.61702 0.95574 0.0
H778 H 0.69763 0.66872 0.3413 0.0
H779 H 0.67164 0.63927 0.34344 0.0
H780 H 0.70899 0.7052 0.27231 0.0
H781 H 0.7275 0.71353 0.18355 0.0
C782 C 0.17856 0.96381 0.95963 0.0
C783 C 0.18986 0.94066 0.91523 0.0
C784 C 0.16311 0.95557 0.79579 0.0
C785 C 0.15232 0.97922 0.83947 0.0
N786 N 0.15171 1.00804 0.96025 0.0
N787 N 0.19728 0.91694 0.78898 0.0
C788 C 0.16083 0.98412 0.92048 0.0
C789 C 0.18334 0.93723 0.83266 0.0
N790 N 0.18382 0.96556 0.03999 0.0
N791 N 0.15372 0.95047 0.71918 0.0
H792 H 0.21197 0.90291 0.81401 0.0
H793 H 0.19615 0.9153 0.72706 0.0
H794 H 0.14065 0.96458 0.68823 0.0
H795 H 0.15762 0.9316 0.68727 0.0
H796 H 0.17373 0.97974 0.07834 0.0
H797 H 0.1972 0.95142 0.06986 0.0
H798 H 0.15971 0.01486 0.01579 0.0
H799 H 0.13708 0.02228 0.93613 0.0
loop_
_geom_bond_atom_site_label_1
_geom_bond_atom_site_label_2
_geom_bond_distance
_geom_bond_site_symmetry_2
_ccdc_geom_bond_type
O0 Cd1 2.223 1_556 S
O0 C8 1.315 . S
Cd1 O0 2.223 1_554 S
Cd1 O4 2.297 . S
Cd1 O5 2.439 . S
Cd1 O11 2.240 . S
Cd2 O3 2.240 . S
Cd2 O10 2.223 . S
Cd2 O12 2.297 . S
Cd2 O13 2.439 1_556 S
O3 Cd2 2.240 . S
O3 C8 1.279 . S
O4 Cd1 2.297 . S
O4 C6 1.247 . S
O5 Cd1 2.439 . S
O5 C6 1.208 . S
C6 O4 1.247 . S
C6 O5 1.208 . S
C7 O12 1.247 1_554 S
C7 O13 1.208 . S
C8 O0 1.315 . S
C8 O3 1.279 . S
C9 O10 1.315 . S
C9 O11 1.279 1_556 S
O10 Cd2 2.223 . S
O10 C9 1.315 . S
O11 Cd1 2.240 . S
O11 C9 1.279 1_554 S
O12 Cd2 2.297 . S
O12 C7 1.247 1_556 S
O13 Cd2 2.439 1_554 S
O13 C7 1.208 . S
O14 Cd15 2.223 . S
O14 C22 1.315 . S
Cd15 O14 2.223 . S
Cd15 O18 2.297 . S
Cd15 O19 2.439 . S
Cd15 O25 2.240 . S
Cd16 O17 2.240 . S
Cd16 O24 2.224 . S
Cd16 O26 2.297 . S
Cd16 O27 2.438 . S
O17 Cd16 2.240 . S
O17 C22 1.279 . S
O18 Cd15 2.297 . S
O18 C20 1.247 . S
O19 Cd15 2.439 . S
O19 C20 1.208 . S
C20 O18 1.247 . S
C20 O19 1.208 . S
C21 O26 1.247 . S
C21 O27 1.208 . S
C22 O14 1.315 . S
C22 O17 1.279 . S
C23 O24 1.333 . S
C23 O25 1.279 . S
O24 Cd16 2.224 . S
O24 C23 1.333 . S
O25 Cd15 2.240 . S
O25 C23 1.279 . S
O26 Cd16 2.297 . S
O26 C21 1.247 . S
O27 Cd16 2.438 . S
O27 C21 1.208 . S
O28 Cd29 2.223 . S
O28 C36 1.315 . S
Cd29 O28 2.223 . S
Cd29 O32 2.297 . S
Cd29 O33 2.439 . S
Cd29 O39 2.240 . S
Cd30 O31 2.240 . S
Cd30 O38 2.223 . S
Cd30 O40 2.297 . S
Cd30 O41 2.439 . S
O31 Cd30 2.240 . S
O31 C36 1.279 . S
O32 Cd29 2.297 . S
O32 C34 1.247 . S
O33 Cd29 2.439 . S
O33 C34 1.208 . S
C34 O32 1.247 . S
C34 O33 1.208 . S
C35 O40 1.247 . S
C35 O41 1.208 . S
C36 O28 1.315 . S
C36 O31 1.279 . S
C37 O38 1.315 . S
C37 O39 1.279 . S
O38 Cd30 2.223 . S
O38 C37 1.315 . S
O39 Cd29 2.240 . S
O39 C37 1.279 . S
O40 Cd30 2.297 . S
O40 C35 1.247 . S
O41 Cd30 2.439 . S
O41 C35 1.208 . S
O42 Cd43 2.223 . S
O42 C50 1.315 . S
Cd43 O42 2.223 . S
Cd43 O46 2.297 . S
Cd43 O47 2.439 . S
Cd43 O53 2.240 . S
Cd44 O45 2.240 . S
Cd44 O52 2.223 . S
Cd44 O54 2.297 . S
Cd44 O55 2.439 . S
O45 Cd44 2.240 . S
O45 C50 1.279 . S
O46 Cd43 2.297 . S
O46 C48 1.247 . S
O47 Cd43 2.439 . S
O47 C48 1.208 . S
C48 O46 1.247 . S
C48 O47 1.208 . S
C49 O54 1.247 . S
C49 O55 1.208 . S
C50 O42 1.315 . S
C50 O45 1.279 . S
C51 O52 1.315 . S
C51 O53 1.279 . S
O52 Cd44 2.223 . S
O52 C51 1.315 . S
O53 Cd43 2.240 . S
O53 C51 1.279 . S
O54 Cd44 2.297 . S
O54 C49 1.247 . S
O55 Cd44 2.439 . S
O55 C49 1.208 . S
O56 Cd57 2.223 1_556 S
O56 C64 1.315 . S
Cd57 O56 2.223 1_554 S
Cd57 O60 2.297 1_554 S
Cd57 O61 2.439 1_554 S
Cd57 O67 2.240 . S
Cd58 O59 2.240 1_554 S
Cd58 O66 2.223 . S
Cd58 O68 2.297 . S
Cd58 O69 2.439 . S
O59 Cd58 2.240 1_556 S
O59 C64 1.279 . S
O60 Cd57 2.297 1_556 S
O60 C62 1.247 . S
O61 Cd57 2.439 1_556 S
O61 C62 1.208 . S
C62 O60 1.247 . S
C62 O61 1.208 . S
C63 O68 1.247 . S
C63 O69 1.208 . S
C64 O56 1.315 . S
C64 O59 1.279 . S
C65 O66 1.315 . S
C65 O67 1.279 . S
O66 Cd58 2.223 . S
O66 C65 1.315 . S
O67 Cd57 2.240 . S
O67 C65 1.279 . S
O68 Cd58 2.297 . S
O68 C63 1.247 . S
O69 Cd58 2.439 . S
O69 C63 1.208 . S
O70 Cd71 2.223 . S
O70 C78 1.315 1_565 S
Cd71 O70 2.223 . S
Cd71 O74 2.297 . S
Cd71 O75 2.439 . S
Cd71 O81 2.240 1_565 S
Cd72 O73 2.240 . S
Cd72 O80 2.223 . S
Cd72 O82 2.297 . S
Cd72 O83 2.439 . S
O73 Cd72 2.240 . S
O73 C78 1.279 . S
O74 Cd71 2.297 . S
O74 C76 1.247 . S
O75 Cd71 2.439 . S
O75 C76 1.208 . S
C76 O74 1.247 . S
C76 O75 1.208 . S
C77 O82 1.247 . S
C77 O83 1.208 . S
C78 O70 1.315 1_545 S
C78 O73 1.279 . S
C79 O80 1.315 . S
C79 O81 1.279 . S
O80 Cd72 2.223 . S
O80 C79 1.315 . S
O81 Cd71 2.240 1_545 S
O81 C79 1.279 . S
O82 Cd72 2.297 . S
O82 C77 1.247 . S
O83 Cd72 2.439 . S
O83 C77 1.208 . S
O84 Cd85 2.223 . S
O84 C92 1.315 . S
Cd85 O84 2.223 . S
Cd85 O88 2.297 . S
Cd85 O89 2.439 . S
Cd85 O95 2.240 . S
Cd86 O87 2.240 . S
Cd86 O94 2.223 . S
Cd86 O96 2.297 . S
Cd86 O97 2.439 . S
O87 Cd86 2.240 . S
O87 C92 1.279 . S
O88 Cd85 2.297 . S
O88 C90 1.247 . S
O89 Cd85 2.439 . S
O89 C90 1.208 . S
C90 O88 1.247 . S
C90 O89 1.208 . S
C91 O96 1.247 . S
C91 O97 1.208 . S
C92 O84 1.315 . S
C92 O87 1.279 . S
C93 O94 1.315 . S
C93 O95 1.279 . S
O94 Cd86 2.223 . S
O94 C93 1.315 . S
O95 Cd85 2.240 . S
O95 C93 1.279 . S
O96 Cd86 2.297 . S
O96 C91 1.247 . S
O97 Cd86 2.439 . S
O97 C91 1.208 . S
O98 Cd99 2.223 . S
O98 C106 1.315 . S
Cd99 O98 2.223 . S
Cd99 O102 2.297 . S
Cd99 O103 2.439 . S
Cd99 O109 2.240 . S
Cd100 O101 2.240 . S
Cd100 O108 2.223 . S
Cd100 O110 2.297 1_545 S
Cd100 O111 2.439 . S
O101 Cd100 2.240 . S
O101 C106 1.279 . S
O102 Cd99 2.297 . S
O102 C104 1.247 . S
O103 Cd99 2.439 . S
O103 C104 1.208 . S
C104 O102 1.247 . S
C104 O103 1.208 . S
C105 O110 1.247 1_545 S
C105 O111 1.208 . S
C106 O98 1.315 . S
C106 O101 1.279 . S
C107 O108 1.315 . S
C107 O109 1.279 . S
O108 Cd100 2.223 . S
O108 C107 1.315 . S
O109 Cd99 2.240 . S
O109 C107 1.279 . S
O110 Cd100 2.297 1_565 S
O110 C105 1.247 1_565 S
O111 Cd100 2.439 . S
O111 C105 1.208 . S
O112 Cd113 2.223 . S
O112 C120 1.315 . S
Cd113 O112 2.223 . S
Cd113 O116 2.297 . S
Cd113 O117 2.439 . S
Cd113 O123 2.240 . S
Cd114 O115 2.240 . S
Cd114 O122 2.223 . S
Cd114 O124 2.297 . S
Cd114 O125 2.439 . S
O115 Cd114 2.240 . S
O115 C120 1.279 . S
O116 Cd113 2.297 . S
O116 C118 1.247 . S
O117 Cd113 2.439 . S
O117 C118 1.208 . S
C118 O116 1.247 . S
C118 O117 1.208 . S
C119 O124 1.247 . S
C119 O125 1.208 . S
C120 O112 1.315 . S
C120 O115 1.279 . S
C121 O122 1.315 . S
C121 O123 1.279 . S
O122 Cd114 2.223 . S
O122 C121 1.315 . S
O123 Cd113 2.240 . S
O123 C121 1.279 . S
O124 Cd114 2.297 . S
O124 C119 1.247 . S
O125 Cd114 2.439 . S
O125 C119 1.208 . S
O126 Cd127 2.223 . S
O126 C134 1.315 . S
Cd127 O126 2.223 . S
Cd127 O130 2.297 . S
Cd127 O131 2.439 . S
Cd127 O137 2.240 . S
Cd128 O129 2.240 . S
Cd128 O136 2.223 . S
Cd128 O138 2.297 . S
Cd128 O139 2.439 . S
O129 Cd128 2.240 . S
O129 C134 1.279 . S
O130 Cd127 2.297 . S
O130 C132 1.247 . S
O131 Cd127 2.439 . S
O131 C132 1.208 . S
C132 O130 1.247 . S
C132 O131 1.208 . S
C133 O138 1.247 . S
C133 O139 1.208 . S
C134 O126 1.315 . S
C134 O129 1.279 . S
C135 O136 1.315 . S
C135 O137 1.279 . S
O136 Cd128 2.223 . S
O136 C135 1.315 . S
O137 Cd127 2.240 . S
O137 C135 1.279 . S
O138 Cd128 2.297 . S
O138 C133 1.247 . S
O139 Cd128 2.439 . S
O139 C133 1.208 . S
O140 Cd141 2.223 1_556 S
O140 C148 1.315 . S
Cd141 O140 2.223 1_554 S
Cd141 O144 2.297 . S
Cd141 O145 2.439 . S
Cd141 O151 2.240 . S
Cd142 O143 2.240 . S
Cd142 O150 2.223 . S
Cd142 O152 2.297 . S
Cd142 O153 2.439 1_556 S
O143 Cd142 2.240 . S
O143 C148 1.279 . S
O144 Cd141 2.297 . S
O144 C146 1.247 . S
O145 Cd141 2.439 . S
O145 C146 1.208 . S
C146 O144 1.247 . S
C146 O145 1.208 . S
C147 O152 1.247 1_554 S
C147 O153 1.208 . S
C148 O140 1.315 . S
C148 O143 1.279 . S
C149 O150 1.315 . S
C149 O151 1.279 1_556 S
O150 Cd142 2.223 . S
O150 C149 1.315 . S
O151 Cd141 2.240 . S
O151 C149 1.279 1_554 S
O152 Cd142 2.297 . S
O152 C147 1.247 1_556 S
O153 Cd142 2.439 1_554 S
O153 C147 1.208 . S
O154 Cd155 2.223 . S
O154 C162 1.315 . S
Cd155 O154 2.223 . S
Cd155 O158 2.297 . S
Cd155 O159 2.439 . S
Cd155 O165 2.240 . S
Cd156 O157 2.240 . S
Cd156 O164 2.223 . S
Cd156 O166 2.297 . S
Cd156 O167 2.439 . S
O157 Cd156 2.240 . S
O157 C162 1.279 . S
O158 Cd155 2.297 . S
O158 C160 1.247 . S
O159 Cd155 2.439 . S
O159 C160 1.208 . S
C160 O158 1.247 . S
C160 O159 1.208 . S
C161 O166 1.247 . S
C161 O167 1.208 . S
C162 O154 1.315 . S
C162 O157 1.279 . S
C163 O164 1.315 . S
C163 O165 1.279 . S
O164 Cd156 2.223 . S
O164 C163 1.315 . S
O165 Cd155 2.240 . S
O165 C163 1.279 . S
O166 Cd156 2.297 . S
O166 C161 1.247 . S
O167 Cd156 2.439 . S
O167 C161 1.208 . S
O168 Cd169 2.223 . S
O168 C176 1.315 . S
Cd169 O168 2.223 . S
Cd169 O172 2.297 . S
Cd169 O173 2.439 . S
Cd169 O179 2.240 . S
Cd170 O171 2.240 . S
Cd170 O178 2.223 . S
Cd170 O180 2.297 . S
Cd170 O181 2.439 . S
O171 Cd170 2.240 . S
O171 C176 1.279 . S
O172 Cd169 2.297 . S
O172 C174 1.247 . S
O173 Cd169 2.439 . S
O173 C174 1.208 . S
C174 O172 1.247 . S
C174 O173 1.208 . S
C175 O180 1.247 . S
C175 O181 1.208 . S
C176 O168 1.315 . S
C176 O171 1.279 . S
C177 O178 1.315 . S
C177 O179 1.279 . S
O178 Cd170 2.223 . S
O178 C177 1.315 . S
O179 Cd169 2.240 . S
O179 C177 1.279 . S
O180 Cd170 2.297 . S
O180 C175 1.247 . S
O181 Cd170 2.439 . S
O181 C175 1.208 . S
O182 Cd183 2.223 . S
O182 C190 1.315 . S
Cd183 O182 2.223 . S
Cd183 O186 2.297 . S
Cd183 O187 2.439 . S
Cd183 O193 2.240 . S
Cd184 O185 2.240 . S
Cd184 O192 2.223 . S
Cd184 O194 2.297 . S
Cd184 O195 2.439 . S
O185 Cd184 2.240 . S
O185 C190 1.279 . S
O186 Cd183 2.297 . S
O186 C188 1.247 . S
O187 Cd183 2.439 . S
O187 C188 1.208 . S
C188 O186 1.247 . S
C188 O187 1.208 . S
C189 O194 1.247 . S
C189 O195 1.208 . S
C190 O182 1.315 . S
C190 O185 1.279 . S
C191 O192 1.315 . S
C191 O193 1.279 . S
O192 Cd184 2.223 . S
O192 C191 1.315 . S
O193 Cd183 2.240 . S
O193 C191 1.279 . S
O194 Cd184 2.297 . S
O194 C189 1.247 . S
O195 Cd184 2.439 . S
O195 C189 1.208 . S
O196 Cd197 2.223 1_556 S
O196 C204 1.315 . S
Cd197 O196 2.223 1_554 S
Cd197 O200 2.297 1_554 S
Cd197 O201 2.439 1_554 S
Cd197 O207 2.240 . S
Cd198 O199 2.240 1_554 S
Cd198 O206 2.223 . S
Cd198 O208 2.297 . S
Cd198 O209 2.439 . S
O199 Cd198 2.240 1_556 S
O199 C204 1.279 . S
O200 Cd197 2.297 1_556 S
O200 C202 1.247 . S
O201 Cd197 2.439 1_556 S
O201 C202 1.208 . S
C202 O200 1.247 . S
C202 O201 1.208 . S
C203 O208 1.247 . S
C203 O209 1.208 . S
C204 O196 1.315 . S
C204 O199 1.279 . S
C205 O206 1.315 . S
C205 O207 1.279 . S
O206 Cd198 2.223 . S
O206 C205 1.315 . S
O207 Cd197 2.240 . S
O207 C205 1.279 . S
O208 Cd198 2.297 . S
O208 C203 1.247 . S
O209 Cd198 2.439 . S
O209 C203 1.208 . S
O210 Cd211 2.223 . S
O210 C218 1.315 . S
Cd211 O210 2.223 . S
Cd211 O214 2.297 . S
Cd211 O215 2.439 . S
Cd211 O221 2.240 . S
Cd212 O213 2.240 . S
Cd212 O220 2.223 . S
Cd212 O222 2.297 . S
Cd212 O223 2.439 . S
O213 Cd212 2.240 . S
O213 C218 1.279 . S
O214 Cd211 2.297 . S
O214 C216 1.247 . S
O215 Cd211 2.439 . S
O215 C216 1.208 . S
C216 O214 1.247 . S
C216 O215 1.208 . S
C217 O222 1.247 . S
C217 O223 1.208 . S
C218 O210 1.315 . S
C218 O213 1.279 . S
C219 O220 1.315 . S
C219 O221 1.279 . S
O220 Cd212 2.223 . S
O220 C219 1.315 . S
O221 Cd211 2.240 . S
O221 C219 1.279 . S
O222 Cd212 2.297 . S
O222 C217 1.247 . S
O223 Cd212 2.439 . S
O223 C217 1.208 . S
C224 C225 1.363 . S
C224 C230 1.379 . S
C224 N232 1.356 . S
C225 C224 1.363 . S
C225 C231 1.363 . S
C226 C227 1.363 . S
C226 C231 1.379 . S
C226 N233 1.356 . S
C227 C226 1.363 . S
C227 C230 1.363 . S
N228 C230 1.356 . S
N228 H240 0.984 . S
N228 H241 0.985 . S
N229 C231 1.356 . S
N229 H234 0.984 . S
N229 H235 0.985 . S
C230 C224 1.379 . S
C230 C227 1.363 . S
C230 N228 1.356 . S
C231 C225 1.363 . S
C231 C226 1.379 . S
C231 N229 1.356 . S
N232 C224 1.356 . S
N232 H238 0.984 . S
N232 H239 0.984 . S
N233 C226 1.356 . S
N233 H236 0.984 . S
N233 H237 0.985 . S
H234 N229 0.984 . S
H235 N229 0.985 . S
H236 N233 0.984 . S
H237 N233 0.985 . S
H238 N232 0.984 . S
H239 N232 0.984 . S
H240 N228 0.984 . S
H241 N228 0.985 . S
C242 C243 1.363 . S
C242 C248 1.379 1_655 S
C242 N250 1.356 . S
C243 C242 1.363 . S
C243 C249 1.363 . S
C244 C245 1.363 1_655 S
C244 C249 1.379 . S
C244 N251 1.356 1_545 S
C245 C244 1.363 1_455 S
C245 C248 1.363 . S
N246 C248 1.356 . S
N246 H258 0.984 . S
N246 H259 0.985 . S
N247 C249 1.356 1_565 S
N247 H252 0.984 . S
N247 H253 0.985 . S
C248 C242 1.379 1_455 S
C248 C245 1.363 . S
C248 N246 1.356 . S
C249 C243 1.363 . S
C249 C244 1.379 . S
C249 N247 1.356 1_545 S
N250 C242 1.356 . S
N250 H256 0.992 . S
N250 H257 0.984 . S
N251 C244 1.356 1_565 S
N251 H254 0.983 1_665 S
N251 H255 0.985 . S
H252 N247 0.984 . S
H253 N247 0.985 . S
H254 N251 0.983 1_445 S
H255 N251 0.985 . S
H256 N250 0.992 . S
H257 N250 0.984 . S
H258 N246 0.984 . S
H259 N246 0.985 . S
C260 C261 1.363 . S
C260 C266 1.379 . S
C260 N268 1.356 . S
C261 C260 1.363 . S
C261 C267 1.363 . S
C262 C263 1.363 . S
C262 C267 1.379 . S
C262 N269 1.356 . S
C263 C262 1.363 . S
C263 C266 1.363 . S
N264 C266 1.356 . S
N264 H276 0.984 . S
N264 H277 0.985 . S
N265 C267 1.356 . S
N265 H270 0.984 . S
N265 H271 0.985 . S
C266 C260 1.379 . S
C266 C263 1.363 . S
C266 N264 1.356 . S
C267 C261 1.363 . S
C267 C262 1.379 . S
C267 N265 1.356 . S
N268 C260 1.356 . S
N268 H274 0.984 . S
N268 H275 0.984 . S
N269 C262 1.356 . S
N269 H272 0.984 . S
N269 H273 0.985 . S
H270 N265 0.984 . S
H271 N265 0.985 . S
H272 N269 0.984 . S
H273 N269 0.985 . S
H274 N268 0.984 . S
H275 N268 0.984 . S
H276 N264 0.984 . S
H277 N264 0.985 . S
C278 C279 1.363 1_556 S
C278 C284 1.379 . S
C278 N286 1.356 1_556 S
C279 C278 1.363 1_554 S
C279 C285 1.363 . S
C280 C281 1.363 . S
C280 C285 1.379 1_556 S
C280 N287 1.356 . S
C281 C280 1.363 . S
C281 C284 1.363 . S
N282 C284 1.356 . S
N282 H294 0.984 . S
N282 H295 0.985 . S
N283 C285 1.356 . S
N283 H288 0.984 . S
N283 H289 0.985 . S
C284 C278 1.379 . S
C284 C281 1.363 . S
C284 N282 1.356 . S
C285 C279 1.363 . S
C285 C280 1.379 1_554 S
C285 N283 1.356 . S
N286 C278 1.356 1_554 S
N286 H292 0.984 1_554 S
N286 H293 0.984 . S
N287 C280 1.356 . S
N287 H290 0.984 . S
N287 H291 0.985 . S
H288 N283 0.984 . S
H289 N283 0.985 . S
H290 N287 0.984 . S
H291 N287 0.985 . S
H292 N286 0.984 1_556 S
H293 N286 0.984 . S
H294 N282 0.984 . S
H295 N282 0.985 . S
C296 C297 1.363 . S
C296 C302 1.379 . S
C296 N304 1.356 . S
C297 C296 1.363 . S
C297 C303 1.363 . S
C298 C299 1.363 . S
C298 C303 1.379 . S
C298 N305 1.356 . S
C299 C298 1.363 . S
C299 C302 1.363 . S
N300 C302 1.356 . S
N300 H312 0.984 . S
N300 H313 0.985 . S
N301 C303 1.356 . S
N301 H306 0.984 . S
N301 H307 0.985 . S
C302 C296 1.379 . S
C302 C299 1.363 . S
C302 N300 1.356 . S
C303 C297 1.363 . S
C303 C298 1.379 . S
C303 N301 1.356 . S
N304 C296 1.356 . S
N304 H310 0.984 . S
N304 H311 0.984 . S
N305 C298 1.356 . S
N305 H308 0.984 . S
N305 H309 0.985 . S
H306 N301 0.984 . S
H307 N301 0.985 . S
H308 N305 0.984 . S
H309 N305 0.985 . S
H310 N304 0.984 . S
H311 N304 0.984 . S
H312 N300 0.984 . S
H313 N300 0.985 . S
C314 C315 1.363 . S
C314 C320 1.379 . S
C314 N322 1.356 . S
C315 C314 1.363 . S
C315 C321 1.363 . S
C316 C317 1.363 . S
C316 C321 1.379 . S
C316 N323 1.356 . S
C317 C316 1.363 . S
C317 C320 1.363 . S
N318 C320 1.356 . S
N318 H330 0.984 . S
N318 H331 0.985 . S
N319 C321 1.356 . S
N319 H324 0.984 . S
N319 H325 0.985 . S
C320 C314 1.379 . S
C320 C317 1.363 . S
C320 N318 1.356 . S
C321 C315 1.363 . S
C321 C316 1.379 . S
C321 N319 1.356 . S
N322 C314 1.356 . S
N322 H328 0.984 . S
N322 H329 0.984 . S
N323 C316 1.356 . S
N323 H326 0.984 . S
N323 H327 0.985 . S
H324 N319 0.984 . S
H325 N319 0.985 . S
H326 N323 0.984 . S
H327 N323 0.985 . S
H328 N322 0.984 . S
H329 N322 0.984 . S
H330 N318 0.984 . S
H331 N318 0.985 . S
C332 C333 1.363 . S
C332 C338 1.379 . S
C332 N340 1.356 . S
C333 C332 1.363 . S
C333 C339 1.363 . S
C334 C335 1.363 . S
C334 C339 1.379 . S
C334 N341 1.356 . S
C335 C334 1.363 . S
C335 C338 1.363 . S
N336 C338 1.356 . S
N336 H348 0.984 . S
N336 H349 0.985 . S
N337 C339 1.356 . S
N337 H342 0.984 . S
N337 H343 0.985 . S
C338 C332 1.379 . S
C338 C335 1.363 . S
C338 N336 1.356 . S
C339 C333 1.363 . S
C339 C334 1.379 . S
C339 N337 1.356 . S
N340 C332 1.356 . S
N340 H346 0.984 . S
N340 H347 0.984 . S
N341 C334 1.356 . S
N341 H344 0.984 . S
N341 H345 0.985 . S
H342 N337 0.984 . S
H343 N337 0.985 . S
H344 N341 0.984 . S
H345 N341 0.985 . S
H346 N340 0.984 . S
H347 N340 0.984 . S
H348 N336 0.984 . S
H349 N336 0.985 . S
C350 C351 1.363 1_655 S
C350 C356 1.379 . S
C350 N358 1.356 . S
C351 C350 1.363 1_455 S
C351 C357 1.363 . S
C352 C353 1.363 1_455 S
C352 C357 1.379 1_554 S
C352 N359 1.356 . S
C353 C352 1.363 1_655 S
C353 C356 1.363 1_554 S
N354 C356 1.356 . S
N354 H366 0.984 . S
N354 H367 0.985 1_556 S
N355 C357 1.357 1_565 S
N355 H360 0.985 1_565 S
N355 H361 0.983 . S
C356 C350 1.379 . S
C356 C353 1.363 1_556 S
C356 N354 1.356 . S
C357 C351 1.363 . S
C357 C352 1.379 1_556 S
C357 N355 1.357 1_545 S
N358 C350 1.356 . S
N358 H364 0.984 . S
N358 H365 0.984 1_655 S
N359 C352 1.356 . S
N359 H362 0.984 1_455 S
N359 H363 0.985 1_545 S
H360 N355 0.985 1_545 S
H361 N355 0.983 . S
H362 N359 0.984 1_655 S
H363 N359 0.985 1_565 S
H364 N358 0.984 . S
H365 N358 0.984 1_455 S
H366 N354 0.984 . S
H367 N354 0.985 1_554 S
C368 C369 1.363 . S
C368 C374 1.379 . S
C368 N376 1.356 . S
C369 C368 1.363 . S
C369 C375 1.363 . S
C370 C371 1.363 . S
C370 C375 1.379 . S
C370 N377 1.356 . S
C371 C370 1.363 . S
C371 C374 1.363 . S
N372 C374 1.356 . S
N372 H384 0.984 . S
N372 H385 0.985 . S
N373 C375 1.356 . S
N373 H378 0.984 . S
N373 H379 0.985 . S
C374 C368 1.379 . S
C374 C371 1.363 . S
C374 N372 1.356 . S
C375 C369 1.363 . S
C375 C370 1.379 . S
C375 N373 1.356 . S
N376 C368 1.356 . S
N376 H382 0.984 . S
N376 H383 0.984 . S
N377 C370 1.356 . S
N377 H380 0.984 . S
N377 H381 0.985 . S
H378 N373 0.984 . S
H379 N373 0.985 . S
H380 N377 0.984 . S
H381 N377 0.985 . S
H382 N376 0.984 . S
H383 N376 0.984 . S
H384 N372 0.984 . S
H385 N372 0.985 . S
C386 C387 1.363 . S
C386 C392 1.379 . S
C386 N394 1.356 . S
C387 C386 1.363 . S
C387 C393 1.363 . S
C388 C389 1.363 . S
C388 C393 1.379 . S
C388 N395 1.356 . S
C389 C388 1.363 . S
C389 C392 1.363 . S
N390 C392 1.356 . S
N390 H402 0.984 . S
N390 H403 0.985 . S
N391 C393 1.356 . S
N391 H396 0.984 . S
N391 H397 0.985 . S
C392 C386 1.379 . S
C392 C389 1.363 . S
C392 N390 1.356 . S
C393 C387 1.363 . S
C393 C388 1.379 . S
C393 N391 1.356 . S
N394 C386 1.356 . S
N394 H400 0.984 . S
N394 H401 0.984 . S
N395 C388 1.356 . S
N395 H398 0.984 . S
N395 H399 0.985 . S
H396 N391 0.984 . S
H397 N391 0.985 . S
H398 N395 0.984 . S
H399 N395 0.985 . S
H400 N394 0.984 . S
H401 N394 0.984 . S
H402 N390 0.984 . S
H403 N390 0.985 . S
C404 C405 1.363 . S
C404 C410 1.379 . S
C404 N412 1.356 . S
C405 C404 1.363 . S
C405 C411 1.363 . S
C406 C407 1.363 . S
C406 C411 1.379 . S
C406 N413 1.356 . S
C407 C406 1.363 . S
C407 C410 1.363 . S
N408 C410 1.356 . S
N408 H420 0.984 . S
N408 H421 0.985 . S
N409 C411 1.356 . S
N409 H414 0.984 . S
N409 H415 0.985 . S
C410 C404 1.379 . S
C410 C407 1.363 . S
C410 N408 1.356 . S
C411 C405 1.363 . S
C411 C406 1.379 . S
C411 N409 1.356 . S
N412 C404 1.356 . S
N412 H418 0.984 . S
N412 H419 0.984 . S
N413 C406 1.356 . S
N413 H416 0.984 . S
N413 H417 0.985 . S
H414 N409 0.984 . S
H415 N409 0.985 . S
H416 N413 0.984 . S
H417 N413 0.985 . S
H418 N412 0.984 . S
H419 N412 0.984 . S
H420 N408 0.984 . S
H421 N408 0.985 . S
C422 C423 1.363 . S
C422 C428 1.379 . S
C422 N430 1.356 . S
C423 C422 1.363 . S
C423 C429 1.363 . S
C424 C425 1.363 . S
C424 C429 1.379 . S
C424 N431 1.356 . S
C425 C424 1.363 . S
C425 C428 1.363 . S
N426 C428 1.356 . S
N426 H438 0.984 . S
N426 H439 0.985 . S
N427 C429 1.356 . S
N427 H432 0.984 . S
N427 H433 0.985 . S
C428 C422 1.379 . S
C428 C425 1.363 . S
C428 N426 1.356 . S
C429 C423 1.363 . S
C429 C424 1.379 . S
C429 N427 1.356 . S
N430 C422 1.356 . S
N430 H436 0.984 . S
N430 H437 0.984 . S
N431 C424 1.356 . S
N431 H434 0.984 . S
N431 H435 0.985 . S
H432 N427 0.984 . S
H433 N427 0.985 . S
H434 N431 0.984 . S
H435 N431 0.985 . S
H436 N430 0.984 . S
H437 N430 0.984 . S
H438 N426 0.984 . S
H439 N426 0.985 . S
C440 C441 1.363 . S
C440 C446 1.379 1_554 S
C440 N448 1.356 . S
C441 C440 1.363 . S
C441 C447 1.363 1_554 S
C442 C443 1.363 . S
C442 C447 1.379 . S
C442 N449 1.356 . S
C443 C442 1.363 . S
C443 C446 1.363 . S
N444 C446 1.356 . S
N444 H456 0.984 . S
N444 H457 0.985 . S
N445 C447 1.356 1_554 S
N445 H450 0.984 . S
N445 H451 0.985 1_554 S
C446 C440 1.379 1_556 S
C446 C443 1.363 . S
C446 N444 1.356 . S
C447 C441 1.363 1_556 S
C447 C442 1.379 . S
C447 N445 1.356 1_556 S
N448 C440 1.356 . S
N448 H454 0.984 . S
N448 H455 0.984 . S
N449 C442 1.356 . S
N449 H452 0.984 . S
N449 H453 0.985 . S
H450 N445 0.984 . S
H451 N445 0.985 1_556 S
H452 N449 0.984 . S
H453 N449 0.985 . S
H454 N448 0.984 . S
H455 N448 0.984 . S
H456 N444 0.984 . S
H457 N444 0.985 . S
C458 C459 1.363 . S
C458 C464 1.379 . S
C458 N466 1.356 . S
C459 C458 1.363 . S
C459 C465 1.363 . S
C460 C461 1.363 . S
C460 C465 1.379 1_655 S
C460 N467 1.356 . S
C461 C460 1.363 . S
C461 C464 1.363 1_655 S
N462 C464 1.356 1_655 S
N462 H474 0.984 1_655 S
N462 H475 0.985 . S
N463 C465 1.356 . S
N463 H468 0.984 . S
N463 H469 0.985 . S
C464 C458 1.379 . S
C464 C461 1.363 1_455 S
C464 N462 1.356 1_455 S
C465 C459 1.363 . S
C465 C460 1.379 1_455 S
C465 N463 1.356 . S
N466 C458 1.356 . S
N466 H472 0.984 . S
N466 H473 0.984 . S
N467 C460 1.356 . S
N467 H470 0.984 . S
N467 H471 0.985 . S
H468 N463 0.984 . S
H469 N463 0.985 . S
H470 N467 0.984 . S
H471 N467 0.985 . S
H472 N466 0.984 . S
H473 N466 0.984 . S
H474 N462 0.984 1_455 S
H475 N462 0.985 . S
C476 C477 1.363 . S
C476 C482 1.379 1_454 S
C476 N484 1.356 . S
C477 C476 1.363 . S
C477 C483 1.363 1_554 S
C478 C479 1.347 1_455 S
C478 C483 1.395 . S
C478 N485 1.351 1_455 S
C479 C478 1.347 1_655 S
C479 C482 1.363 . S
N480 C482 1.356 . S
N480 H492 0.984 . S
N480 H493 0.985 . S
N481 C483 1.356 . S
N481 H486 0.984 1_556 S
N481 H487 0.985 . S
C482 C476 1.379 1_656 S
C482 C479 1.363 . S
C482 N480 1.356 . S
C483 C477 1.363 1_556 S
C483 C478 1.395 . S
C483 N481 1.356 . S
N484 C476 1.356 . S
N484 H490 0.984 . S
N484 H491 0.984 . S
N485 C478 1.351 1_655 S
N485 H488 0.984 . S
N485 H489 0.985 1_655 S
H486 N481 0.984 1_554 S
H487 N481 0.985 . S
H488 N485 0.984 . S
H489 N485 0.985 1_455 S
H490 N484 0.984 . S
H491 N484 0.984 . S
H492 N480 0.984 . S
H493 N480 0.985 . S
C494 C495 1.363 . S
C494 C500 1.379 . S
C494 N502 1.356 . S
C495 C494 1.363 . S
C495 C501 1.363 . S
C496 C497 1.363 . S
C496 C501 1.379 . S
C496 N503 1.356 . S
C497 C496 1.363 . S
C497 C500 1.363 . S
N498 C500 1.356 . S
N498 H510 0.984 . S
N498 H511 0.985 . S
N499 C501 1.356 . S
N499 H504 0.984 . S
N499 H505 0.985 . S
C500 C494 1.379 . S
C500 C497 1.363 . S
C500 N498 1.356 . S
C501 C495 1.363 . S
C501 C496 1.379 . S
C501 N499 1.356 . S
N502 C494 1.356 . S
N502 H508 0.984 . S
N502 H509 0.984 . S
N503 C496 1.356 . S
N503 H506 0.984 . S
N503 H507 0.985 . S
H504 N499 0.984 . S
H505 N499 0.985 . S
H506 N503 0.984 . S
H507 N503 0.985 . S
H508 N502 0.984 . S
H509 N502 0.984 . S
H510 N498 0.984 . S
H511 N498 0.985 . S
C512 C513 1.363 . S
C512 C518 1.379 . S
C512 N520 1.356 . S
C513 C512 1.363 . S
C513 C519 1.363 . S
C514 C515 1.363 . S
C514 C519 1.379 . S
C514 N521 1.356 . S
C515 C514 1.363 . S
C515 C518 1.363 . S
N516 C518 1.356 . S
N516 H528 0.984 . S
N516 H529 0.985 . S
N517 C519 1.356 . S
N517 H522 0.984 . S
N517 H523 0.985 . S
C518 C512 1.379 . S
C518 C515 1.363 . S
C518 N516 1.356 . S
C519 C513 1.363 . S
C519 C514 1.379 . S
C519 N517 1.356 . S
N520 C512 1.356 . S
N520 H526 0.984 . S
N520 H527 0.984 . S
N521 C514 1.356 . S
N521 H524 0.984 . S
N521 H525 0.985 . S
H522 N517 0.984 . S
H523 N517 0.985 . S
H524 N521 0.984 . S
H525 N521 0.985 . S
H526 N520 0.984 . S
H527 N520 0.984 . S
H528 N516 0.984 . S
H529 N516 0.985 . S
C530 C531 1.363 . S
C530 C536 1.379 . S
C530 N538 1.356 . S
C531 C530 1.363 . S
C531 C537 1.363 . S
C532 C533 1.363 . S
C532 C537 1.379 . S
C532 N539 1.356 1_565 S
C533 C532 1.363 . S
C533 C536 1.363 . S
N534 C536 1.356 . S
N534 H546 0.984 . S
N534 H547 0.985 . S
N535 C537 1.356 . S
N535 H540 0.984 . S
N535 H541 0.985 . S
C536 C530 1.379 . S
C536 C533 1.363 . S
C536 N534 1.356 . S
C537 C531 1.363 . S
C537 C532 1.379 . S
C537 N535 1.356 . S
N538 C530 1.356 . S
N538 H544 0.984 . S
N538 H545 0.984 . S
N539 C532 1.356 1_545 S
N539 H542 0.984 . S
N539 H543 0.985 . S
H540 N535 0.984 . S
H541 N535 0.985 . S
H542 N539 0.984 . S
H543 N539 0.985 . S
H544 N538 0.984 . S
H545 N538 0.984 . S
H546 N534 0.984 . S
H547 N534 0.985 . S
C548 C549 1.363 . S
C548 C554 1.379 . S
C548 N556 1.356 . S
C549 C548 1.363 . S
C549 C555 1.363 . S
C550 C551 1.363 . S
C550 C555 1.379 . S
C550 N557 1.356 . S
C551 C550 1.363 . S
C551 C554 1.363 . S
N552 C554 1.356 . S
N552 H564 0.984 . S
N552 H565 0.985 . S
N553 C555 1.356 . S
N553 H558 0.984 . S
N553 H559 0.985 . S
C554 C548 1.379 . S
C554 C551 1.363 . S
C554 N552 1.356 . S
C555 C549 1.363 . S
C555 C550 1.379 . S
C555 N553 1.356 . S
N556 C548 1.356 . S
N556 H562 0.984 . S
N556 H563 0.984 . S
N557 C550 1.356 . S
N557 H560 0.984 . S
N557 H561 0.985 . S
H558 N553 0.984 . S
H559 N553 0.985 . S
H560 N557 0.984 . S
H561 N557 0.985 . S
H562 N556 0.984 . S
H563 N556 0.984 . S
H564 N552 0.984 . S
H565 N552 0.985 . S
C566 C567 1.363 . S
C566 C572 1.379 . S
C566 N574 1.356 . S
C567 C566 1.363 . S
C567 C573 1.363 . S
C568 C569 1.363 . S
C568 C573 1.379 . S
C568 N575 1.356 . S
C569 C568 1.363 . S
C569 C572 1.363 . S
N570 C572 1.356 . S
N570 H582 0.984 . S
N570 H583 0.985 . S
N571 C573 1.356 . S
N571 H576 0.984 1_556 S
N571 H577 0.985 1_556 S
C572 C566 1.379 . S
C572 C569 1.363 . S
C572 N570 1.356 . S
C573 C567 1.363 . S
C573 C568 1.379 . S
C573 N571 1.356 . S
N574 C566 1.356 . S
N574 H580 0.984 . S
N574 H581 0.984 . S
N575 C568 1.356 . S
N575 H578 0.984 . S
N575 H579 0.985 . S
H576 N571 0.984 1_554 S
H577 N571 0.985 1_554 S
H578 N575 0.984 . S
H579 N575 0.985 . S
H580 N574 0.984 . S
H581 N574 0.984 . S
H582 N570 0.984 . S
H583 N570 0.985 . S
C584 C585 1.363 . S
C584 C590 1.379 . S
C584 N592 1.356 . S
C585 C584 1.363 . S
C585 C591 1.363 . S
C586 C587 1.363 . S
C586 C591 1.379 . S
C586 N593 1.356 . S
C587 C586 1.363 . S
C587 C590 1.363 . S
N588 C590 1.356 . S
N588 H600 0.984 . S
N588 H601 0.985 . S
N589 C591 1.356 . S
N589 H594 0.984 . S
N589 H595 0.985 . S
C590 C584 1.379 . S
C590 C587 1.363 . S
C590 N588 1.356 . S
C591 C585 1.363 . S
C591 C586 1.379 . S
C591 N589 1.356 . S
N592 C584 1.356 . S
N592 H598 0.984 . S
N592 H599 0.984 . S
N593 C586 1.356 . S
N593 H596 0.984 . S
N593 H597 0.985 . S
H594 N589 0.984 . S
H595 N589 0.985 . S
H596 N593 0.984 . S
H597 N593 0.985 . S
H598 N592 0.984 . S
H599 N592 0.984 . S
H600 N588 0.984 . S
H601 N588 0.985 . S
C602 C603 1.363 . S
C602 C608 1.379 . S
C602 N610 1.356 . S
C603 C602 1.363 . S
C603 C609 1.363 1_565 S
C604 C605 1.363 . S
C604 C609 1.379 1_565 S
C604 N611 1.356 . S
C605 C604 1.363 . S
C605 C608 1.363 . S
N606 C608 1.356 . S
N606 H618 0.984 . S
N606 H619 0.985 . S
N607 C609 1.356 . S
N607 H612 0.984 . S
N607 H613 0.985 . S
C608 C602 1.379 . S
C608 C605 1.363 . S
C608 N606 1.356 . S
C609 C603 1.363 1_545 S
C609 C604 1.379 1_545 S
C609 N607 1.356 . S
N610 C602 1.356 . S
N610 H616 0.984 . S
N610 H617 0.984 . S
N611 C604 1.356 . S
N611 H614 0.984 . S
N611 H615 0.985 1_565 S
H612 N607 0.984 . S
H613 N607 0.985 . S
H614 N611 0.984 . S
H615 N611 0.985 1_545 S
H616 N610 0.984 . S
H617 N610 0.984 . S
H618 N606 0.984 . S
H619 N606 0.985 . S
C620 C621 1.363 . S
C620 C626 1.379 . S
C620 N628 1.356 . S
C621 C620 1.363 . S
C621 C627 1.363 . S
C622 C623 1.363 . S
C622 C627 1.379 . S
C622 N629 1.356 . S
C623 C622 1.363 . S
C623 C626 1.363 . S
N624 C626 1.356 1_554 S
N624 H636 0.984 . S
N624 H637 0.985 . S
N625 C627 1.356 . S
N625 H630 0.984 . S
N625 H631 0.985 . S
C626 C620 1.379 . S
C626 C623 1.363 . S
C626 N624 1.356 1_556 S
C627 C621 1.363 . S
C627 C622 1.379 . S
C627 N625 1.356 . S
N628 C620 1.356 . S
N628 H634 0.984 1_556 S
N628 H635 0.984 . S
N629 C622 1.356 . S
N629 H632 0.984 . S
N629 H633 0.985 . S
H630 N625 0.984 . S
H631 N625 0.985 . S
H632 N629 0.984 . S
H633 N629 0.985 . S
H634 N628 0.984 1_554 S
H635 N628 0.984 . S
H636 N624 0.984 . S
H637 N624 0.985 . S
C638 C639 1.363 . S
C638 C644 1.379 . S
C638 N646 1.356 . S
C639 C638 1.363 . S
C639 C645 1.363 . S
C640 C641 1.363 . S
C640 C645 1.379 . S
C640 N647 1.356 . S
C641 C640 1.363 . S
C641 C644 1.363 . S
N642 C644 1.356 . S
N642 H654 0.984 . S
N642 H655 0.985 . S
N643 C645 1.356 . S
N643 H648 0.984 . S
N643 H649 0.985 . S
C644 C638 1.379 . S
C644 C641 1.363 . S
C644 N642 1.356 . S
C645 C639 1.363 . S
C645 C640 1.379 . S
C645 N643 1.356 . S
N646 C638 1.356 . S
N646 H652 0.984 1_554 S
N646 H653 0.984 . S
N647 C640 1.356 . S
N647 H650 0.984 . S
N647 H651 0.985 . S
H648 N643 0.984 . S
H649 N643 0.985 . S
H650 N647 0.984 . S
H651 N647 0.985 . S
H652 N646 0.984 1_556 S
H653 N646 0.984 . S
H654 N642 0.984 . S
H655 N642 0.985 . S
C656 C657 1.363 . S
C656 C662 1.379 . S
C656 N664 1.356 1_556 S
C657 C656 1.363 . S
C657 C663 1.363 . S
C658 C659 1.363 . S
C658 C663 1.379 . S
C658 N665 1.356 . S
C659 C658 1.363 . S
C659 C662 1.363 . S
N660 C662 1.356 . S
N660 H672 0.984 . S
N660 H673 0.985 . S
N661 C663 1.356 . S
N661 H666 0.984 . S
N661 H667 0.985 . S
C662 C656 1.379 . S
C662 C659 1.363 . S
C662 N660 1.356 . S
C663 C657 1.363 . S
C663 C658 1.379 . S
C663 N661 1.356 . S
N664 C656 1.356 1_554 S
N664 H670 0.984 . S
N664 H671 0.984 . S
N665 C658 1.356 . S
N665 H668 0.984 . S
N665 H669 0.985 . S
H666 N661 0.984 . S
H667 N661 0.985 . S
H668 N665 0.984 . S
H669 N665 0.985 . S
H670 N664 0.984 . S
H671 N664 0.984 . S
H672 N660 0.984 . S
H673 N660 0.985 . S
C674 C675 1.363 . S
C674 C680 1.379 . S
C674 N682 1.356 . S
C675 C674 1.363 . S
C675 C681 1.363 . S
C676 C677 1.363 . S
C676 C681 1.379 . S
C676 N683 1.356 . S
C677 C676 1.363 . S
C677 C680 1.363 . S
N678 C680 1.356 . S
N678 H690 0.984 . S
N678 H691 0.985 . S
N679 C681 1.356 . S
N679 H684 0.984 . S
N679 H685 0.985 . S
C680 C674 1.379 . S
C680 C677 1.363 . S
C680 N678 1.356 . S
C681 C675 1.363 . S
C681 C676 1.379 . S
C681 N679 1.356 . S
N682 C674 1.356 . S
N682 H688 0.984 . S
N682 H689 0.984 . S
N683 C676 1.356 . S
N683 H686 0.984 . S
N683 H687 0.985 . S
H684 N679 0.984 . S
H685 N679 0.985 . S
H686 N683 0.984 . S
H687 N683 0.985 . S
H688 N682 0.984 . S
H689 N682 0.984 . S
H690 N678 0.984 . S
H691 N678 0.985 . S
C692 C693 1.363 . S
C692 C698 1.379 . S
C692 N700 1.356 . S
C693 C692 1.363 . S
C693 C699 1.363 . S
C694 C695 1.363 . S
C694 C699 1.379 . S
C694 N701 1.356 . S
C695 C694 1.363 . S
C695 C698 1.363 . S
N696 C698 1.356 . S
N696 H708 0.984 . S
N696 H709 0.985 . S
N697 C699 1.356 . S
N697 H702 0.984 . S
N697 H703 0.985 . S
C698 C692 1.379 . S
C698 C695 1.363 . S
C698 N696 1.356 . S
C699 C693 1.363 . S
C699 C694 1.379 . S
C699 N697 1.356 . S
N700 C692 1.356 . S
N700 H706 0.984 . S
N700 H707 0.984 . S
N701 C694 1.356 . S
N701 H704 0.984 . S
N701 H705 0.985 . S
H702 N697 0.984 . S
H703 N697 0.985 . S
H704 N701 0.984 . S
H705 N701 0.985 . S
H706 N700 0.984 . S
H707 N700 0.984 . S
H708 N696 0.984 . S
H709 N696 0.985 . S
C710 C711 1.363 . S
C710 C716 1.379 . S
C710 N718 1.356 1_565 S
C711 C710 1.363 . S
C711 C717 1.363 . S
C712 C713 1.363 . S
C712 C717 1.379 . S
C712 N719 1.356 . S
C713 C712 1.363 . S
C713 C716 1.363 . S
N714 C716 1.356 . S
N714 H726 0.984 1_554 S
N714 H727 0.985 . S
N715 C717 1.356 . S
N715 H720 0.984 . S
N715 H721 0.985 . S
C716 C710 1.379 . S
C716 C713 1.363 . S
C716 N714 1.356 . S
C717 C711 1.363 . S
C717 C712 1.379 . S
C717 N715 1.356 . S
N718 C710 1.356 1_545 S
N718 H724 0.984 1_554 S
N718 H725 0.984 . S
N719 C712 1.356 . S
N719 H722 0.984 . S
N719 H723 0.985 . S
H720 N715 0.984 . S
H721 N715 0.985 . S
H722 N719 0.984 . S
H723 N719 0.985 . S
H724 N718 0.984 1_556 S
H725 N718 0.984 . S
H726 N714 0.984 1_556 S
H727 N714 0.985 . S
C728 C729 1.363 . S
C728 C734 1.379 . S
C728 N736 1.356 . S
C729 C728 1.363 . S
C729 C735 1.363 . S
C730 C731 1.363 . S
C730 C735 1.379 . S
C730 N737 1.356 . S
C731 C730 1.363 . S
C731 C734 1.363 . S
N732 C734 1.356 . S
N732 H744 0.984 . S
N732 H745 0.985 . S
N733 C735 1.356 . S
N733 H738 0.984 . S
N733 H739 0.985 . S
C734 C728 1.379 . S
C734 C731 1.363 . S
C734 N732 1.356 . S
C735 C729 1.363 . S
C735 C730 1.379 . S
C735 N733 1.356 . S
N736 C728 1.356 . S
N736 H742 0.984 . S
N736 H743 0.984 . S
N737 C730 1.356 . S
N737 H740 0.984 . S
N737 H741 0.985 . S
H738 N733 0.984 . S
H739 N733 0.985 . S
H740 N737 0.984 . S
H741 N737 0.985 . S
H742 N736 0.984 . S
H743 N736 0.984 . S
H744 N732 0.984 . S
H745 N732 0.985 . S
C746 C747 1.363 . S
C746 C752 1.379 . S
C746 N754 1.356 . S
C747 C746 1.363 . S
C747 C753 1.363 . S
C748 C749 1.363 . S
C748 C753 1.379 . S
C748 N755 1.356 . S
C749 C748 1.363 . S
C749 C752 1.363 . S
N750 C752 1.356 . S
N750 H762 0.984 . S
N750 H763 0.985 . S
N751 C753 1.356 . S
N751 H756 0.984 . S
N751 H757 0.985 . S
C752 C746 1.379 . S
C752 C749 1.363 . S
C752 N750 1.356 . S
C753 C747 1.363 . S
C753 C748 1.379 . S
C753 N751 1.356 . S
N754 C746 1.356 . S
N754 H760 0.984 . S
N754 H761 0.984 . S
N755 C748 1.356 . S
N755 H758 0.984 . S
N755 H759 0.985 . S
H756 N751 0.984 . S
H757 N751 0.985 . S
H758 N755 0.984 . S
H759 N755 0.985 . S
H760 N754 0.984 . S
H761 N754 0.984 . S
H762 N750 0.984 . S
H763 N750 0.985 . S
C764 C765 1.363 . S
C764 C770 1.379 . S
C764 N772 1.356 . S
C765 C764 1.363 . S
C765 C771 1.363 . S
C766 C767 1.363 . S
C766 C771 1.379 . S
C766 N773 1.356 . S
C767 C766 1.363 . S
C767 C770 1.363 . S
N768 C770 1.356 . S
N768 H780 0.984 . S
N768 H781 0.985 . S
N769 C771 1.356 . S
N769 H774 0.984 . S
N769 H775 0.985 1_554 S
C770 C764 1.379 . S
C770 C767 1.363 . S
C770 N768 1.356 . S
C771 C765 1.363 . S
C771 C766 1.379 . S
C771 N769 1.356 . S
N772 C764 1.356 . S
N772 H778 0.984 . S
N772 H779 0.984 . S
N773 C766 1.356 . S
N773 H776 0.984 . S
N773 H777 0.985 1_554 S
H774 N769 0.984 . S
H775 N769 0.985 1_556 S
H776 N773 0.984 . S
H777 N773 0.985 1_556 S
H778 N772 0.984 . S
H779 N772 0.984 . S
H780 N768 0.984 . S
H781 N768 0.985 . S
C782 C783 1.363 . S
C782 C788 1.379 . S
C782 N790 1.356 1_556 S
C783 C782 1.363 . S
C783 C789 1.363 . S
C784 C785 1.363 . S
C784 C789 1.379 . S
C784 N791 1.356 . S
C785 C784 1.363 . S
C785 C788 1.363 . S
N786 C788 1.356 . S
N786 H798 0.984 1_556 S
N786 H799 0.985 . S
N787 C789 1.356 . S
N787 H792 0.984 . S
N787 H793 0.985 . S
C788 C782 1.379 . S
C788 C785 1.363 . S
C788 N786 1.356 . S
C789 C783 1.363 . S
C789 C784 1.379 . S
C789 N787 1.356 . S
N790 C782 1.356 1_554 S
N790 H796 0.984 . S
N790 H797 0.984 . S
N791 C784 1.356 . S
N791 H794 0.984 . S
N791 H795 0.985 . S
H792 N787 0.984 . S
H793 N787 0.985 . S
H794 N791 0.984 . S
H795 N791 0.985 . S
H796 N790 0.984 . S
H797 N790 0.984 . S
H798 N786 0.984 1_554 S
H799 N786 0.985 . S
C225 C6 1.369 . S
C227 C176 1.384 . S
C243 C23 1.776 . S
C245 C79 1.775 . S
C261 C34 1.369 . S
C263 C204 1.384 . S
C279 C107 1.775 . S
C281 C51 1.776 . S
C297 C205 1.776 . S
C299 C36 1.776 . S
C315 C106 1.384 . S
C317 C49 1.369 . S
C333 C177 1.775 . S
C335 C8 1.776 . S
C351 C78 1.384 . S
C353 C21 1.369 . S
C369 C64 1.384 . S
C371 C118 1.369 . S
C387 C92 1.384 . S
C389 C146 1.369 . S
C405 C148 1.776 . S
C407 C93 1.776 . S
C423 C65 1.775 . S
C425 C120 1.776 . S
C441 C191 1.775 . S
C443 C135 1.776 . S
C459 C163 1.776 . S
C461 C219 1.775 . S
C477 C161 1.369 . S
C479 C218 1.384 . S
C495 C133 1.369 . S
C497 C190 1.384 . S
C513 C160 1.552 . S
C515 C7 1.552 . S
C531 C121 1.440 . S
C533 C22 1.440 1_565 S
C549 C35 1.552 . S
C551 C132 1.552 . S
C567 C149 1.440 . S
C569 C50 1.440 . S
C585 C162 1.440 . S
C587 C37 1.440 . S
C603 C48 1.552 1_565 S
C605 C119 1.552 . S
C621 C134 1.440 . S
C623 C9 1.440 . S
C639 C147 1.552 . S
C641 C20 1.552 . S
C657 C62 1.422 . S
C659 C216 1.422 . S
C675 C175 1.571 . S
C677 C77 1.571 . S
C693 C90 1.422 . S
C695 C188 1.422 . S
C711 C105 1.571 1_565 S
C713 C203 1.571 . S
C729 C91 1.571 . S
C731 C217 1.571 . S
C747 C174 1.422 . S
C749 C104 1.422 . S
C765 C189 1.571 . S
C767 C63 1.571 . S
C783 C202 1.422 . S
C785 C76 1.422 . S
