# Generated by pormake.
# Topology wjd, (6)-cn, num edge types: 1
# Building blocks:
#     Node 0, Type 0, BuildingBlock: FUNLAD_clean_sbu_0, # of connection points: 6
#     Node 1, Type 0, BuildingBlock: FUNLAD_clean_sbu_0, # of connection points: 6
#     Node 2, Type 0, BuildingBlock: FUNLAD_clean_sbu_0, # of connection points: 6
#     Node 3, Type 0, BuildingBlock: FUNLAD_clean_sbu_0, # of connection points: 6
#     Node 4, Type 0, BuildingBlock: FUNLAD_clean_sbu_0, # of connection points: 6
#     Node 5, Type 0, BuildingBlock: FUNLAD_clean_sbu_0, # of connection points: 6
#     Node 6, Type 0, BuildingBlock: FUNLAD_clean_sbu_0, # of connection points: 6
#     Node 7, Type 0, BuildingBlock: FUNLAD_clean_sbu_0, # of connection points: 6
#     Node 8, Type 0, BuildingBlock: FUNLAD_clean_sbu_0, # of connection points: 6
#     Node 9, Type 0, BuildingBlock: FUNLAD_clean_sbu_0, # of connection points: 6
#     Node 10, Type 0, BuildingBlock: FUNLAD_clean_sbu_0, # of connection points: 6
#     Node 11, Type 0, BuildingBlock: FUNLAD_clean_sbu_0, # of connection points: 6
#     Edge 12, Type (0, 0), BuildingBlock: OJICUG_clean_linker_0, # of connection points: 2
#     Edge 13, Type (0, 0), BuildingBlock: OJICUG_clean_linker_0, # of connection points: 2
#     Edge 14, Type (0, 0), BuildingBlock: OJICUG_clean_linker_0, # of connection points: 2
#     Edge 15, Type (0, 0), BuildingBlock: OJICUG_clean_linker_0, # of connection points: 2
#     Edge 16, Type (0, 0), BuildingBlock: OJICUG_clean_linker_0, # of connection points: 2
#     Edge 17, Type (0, 0), BuildingBlock: OJICUG_clean_linker_0, # of connection points: 2
#     Edge 18, Type (0, 0), BuildingBlock: OJICUG_clean_linker_0, # of connection points: 2
#     Edge 19, Type (0, 0), BuildingBlock: OJICUG_clean_linker_0, # of connection points: 2
#     Edge 20, Type (0, 0), BuildingBlock: OJICUG_clean_linker_0, # of connection points: 2
#     Edge 21, Type (0, 0), BuildingBlock: OJICUG_clean_linker_0, # of connection points: 2
#     Edge 22, Type (0, 0), BuildingBlock: OJICUG_clean_linker_0, # of connection points: 2
#     Edge 23, Type (0, 0), BuildingBlock: OJICUG_clean_linker_0, # of connection points: 2
#     Edge 24, Type (0, 0), BuildingBlock: OJICUG_clean_linker_0, # of connection points: 2
#     Edge 25, Type (0, 0), BuildingBlock: OJICUG_clean_linker_0, # of connection points: 2
#     Edge 26, Type (0, 0), BuildingBlock: OJICUG_clean_linker_0, # of connection points: 2
#     Edge 27, Type (0, 0), BuildingBlock: OJICUG_clean_linker_0, # of connection points: 2
#     Edge 28, Type (0, 0), BuildingBlock: OJICUG_clean_linker_0, # of connection points: 2
#     Edge 29, Type (0, 0), BuildingBlock: OJICUG_clean_linker_0, # of connection points: 2
#     Edge 30, Type (0, 0), BuildingBlock: OJICUG_clean_linker_0, # of connection points: 2
#     Edge 31, Type (0, 0), BuildingBlock: OJICUG_clean_linker_0, # of connection points: 2
#     Edge 32, Type (0, 0), BuildingBlock: OJICUG_clean_linker_0, # of connection points: 2
#     Edge 33, Type (0, 0), BuildingBlock: OJICUG_clean_linker_0, # of connection points: 2
#     Edge 34, Type (0, 0), BuildingBlock: OJICUG_clean_linker_0, # of connection points: 2
#     Edge 35, Type (0, 0), BuildingBlock: OJICUG_clean_linker_0, # of connection points: 2
#     Edge 36, Type (0, 0), BuildingBlock: OJICUG_clean_linker_0, # of connection points: 2
#     Edge 37, Type (0, 0), BuildingBlock: OJICUG_clean_linker_0, # of connection points: 2
#     Edge 38, Type (0, 0), BuildingBlock: OJICUG_clean_linker_0, # of connection points: 2
#     Edge 39, Type (0, 0), BuildingBlock: OJICUG_clean_linker_0, # of connection points: 2
#     Edge 40, Type (0, 0), BuildingBlock: OJICUG_clean_linker_0, # of connection points: 2
#     Edge 41, Type (0, 0), BuildingBlock: OJICUG_clean_linker_0, # of connection points: 2
#     Edge 42, Type (0, 0), BuildingBlock: OJICUG_clean_linker_0, # of connection points: 2
#     Edge 43, Type (0, 0), BuildingBlock: OJICUG_clean_linker_0, # of connection points: 2
#     Edge 44, Type (0, 0), BuildingBlock: OJICUG_clean_linker_0, # of connection points: 2
#     Edge 45, Type (0, 0), BuildingBlock: OJICUG_clean_linker_0, # of connection points: 2
#     Edge 46, Type (0, 0), BuildingBlock: OJICUG_clean_linker_0, # of connection points: 2
#     Edge 47, Type (0, 0), BuildingBlock: OJICUG_clean_linker_0, # of connection points: 2
# Relax obj value: 0.124
# Max RMSD: 0.208
# Mean RMSD: 0.208
data_MOF--net-wjd--node1-FUNLAD_clean_sbu_0--edge1-OJICUG_clean_linker_0
_symmetry_space_group_name_H-M    P1
_symmetry_Int_Tables_number       1
_symmetry_cell_setting            triclinic
loop_
_symmetry_equiv_pos_as_xyz
'x, y, z'
_cell_length_a     21.388259
_cell_length_b     21.364299
_cell_length_c     69.679091
_cell_angle_alpha  90.050097
_cell_angle_beta   89.958125
_cell_angle_gamma 120.02261
loop_
_atom_site_label
_atom_site_type_symbol
_atom_site_fract_x
_atom_site_fract_y
_atom_site_fract_z
_atom_type_partial_charge
C0 C 0.1814 0.94745 0.144 0.0
N1 N 0.27329 0.07037 0.09566 0.0
C2 C 0.28013 0.01336 0.08965 0.0
C3 C 0.26749 -0.00939 0.07063 0.0
C4 C 0.24612 0.02559 0.05741 0.0
C5 C 0.23864 0.084 0.06383 0.0
C6 C 0.25297 0.10593 0.08315 0.0
Zn7 Zn 0.28409 0.08765 0.1251 0.0
C8 C 0.18461 0.12872 0.14198 0.0
N9 N 0.29592 0.097 0.18673 0.0
C10 C 0.29801 0.04338 0.19672 0.0
C11 C 0.29663 0.15353 0.19598 0.0
C12 C 0.29853 0.157 0.21605 0.0
C13 C 0.29952 0.10169 0.22674 0.0
C14 C 0.29988 0.04468 0.21675 0.0
Zn15 Zn 0.28876 0.08901 0.15729 0.0
O16 O 0.20635 -0.02076 0.12816 0.0
C17 C 0.39594 0.05803 0.14058 0.0
O18 O 0.20868 -0.01922 0.15956 0.0
H19 H 0.2948 0.19558 0.1878 0.0
H20 H 0.29325 -0.01665 0.09975 0.0
H21 H 0.29764 -0.00099 0.18914 0.0
O22 O 0.36809 0.06459 0.12523 0.0
O23 O 0.3703 0.06227 0.15665 0.0
H24 H 0.24633 0.15016 0.08818 0.0
O25 O 0.36586 0.19773 0.15437 0.0
O26 O 0.36006 0.1977 0.12274 0.0
O27 O 0.20993 0.11876 0.1574 0.0
O28 O 0.20343 0.11548 0.12585 0.0
C29 C 0.38458 0.23156 0.1385 0.0
H30 H 0.27252 0.94449 0.06641 0.0
H31 H 0.2222 0.11241 0.05403 0.0
H32 H 0.29755 0.20166 0.22312 0.0
H33 H 0.30183 0.00147 0.22434 0.0
C34 C 0.78492 0.53934 0.3984 0.0
N35 N 0.7397 0.62832 0.35016 0.0
C36 C 0.79549 0.62759 0.34094 0.0
C37 C 0.79725 0.62586 0.32087 0.0
C38 C 0.74116 0.62506 0.31016 0.0
C39 C 0.68381 0.6247 0.32011 0.0
C40 C 0.68418 0.62639 0.34014 0.0
Zn41 Zn 0.73862 0.63537 0.3796 0.0
C42 C 0.60025 0.5284 0.3962 0.0
N43 N 0.73504 0.65076 0.4412 0.0
C44 C 0.79066 0.67074 0.45379 0.0
C45 C 0.67125 0.64409 0.44715 0.0
C46 C 0.66094 0.65656 0.46616 0.0
C47 C 0.71701 0.67757 0.47945 0.0
C48 C 0.78285 0.68489 0.4731 0.0
Zn49 Zn 0.74179 0.64006 0.41178 0.0
O50 O 0.76992 0.55808 0.38252 0.0
C51 C 0.88249 0.73939 0.39503 0.0
O52 O 0.77555 0.56387 0.41415 0.0
H53 H 0.62835 0.63123 0.437 0.0
H54 H 0.83922 0.6293 0.34915 0.0
H55 H 0.84148 0.67722 0.4488 0.0
O56 O 0.84728 0.71413 0.37957 0.0
O57 O 0.85031 0.72063 0.41113 0.0
H58 H 0.6402 0.62678 0.34769 0.0
O59 O 0.71147 0.718 0.4087 0.0
O60 O 0.71077 0.71559 0.3773 0.0
O61 O 0.63468 0.55619 0.41156 0.0
O62 O 0.63026 0.55391 0.38014 0.0
C63 C 0.70465 0.74288 0.39285 0.0
H64 H 0.84288 0.62683 0.31383 0.0
H65 H 0.63881 0.6229 0.31249 0.0
H66 H 0.60986 0.65167 0.47033 0.0
H67 H 0.82748 0.70106 0.48296 0.0
C68 C -0.02341 0.2195 0.14426 0.0
N69 N 0.85477 0.18968 0.09578 0.0
C70 C 0.9122 0.25337 0.08986 0.0
C71 C 0.93512 0.26351 0.07085 0.0
C72 C 0.89986 0.20737 0.05757 0.0
C73 C 0.84103 0.14163 0.06389 0.0
C74 C 0.81896 0.134 0.08319 0.0
Zn75 Zn 0.83697 0.18301 0.12518 0.0
C76 C 0.79489 0.04209 0.14193 0.0
N77 N 0.82651 0.18504 0.18678 0.0
C78 C 0.87959 0.24054 0.19697 0.0
C79 C 0.76938 0.12919 0.19581 0.0
C80 C 0.76446 0.12756 0.21585 0.0
C81 C 0.81874 0.18403 0.22675 0.0
C82 C 0.87676 0.24114 0.217 0.0
Zn83 Zn 0.83537 0.18622 0.15736 0.0
O84 O 0.94503 0.21289 0.1284 0.0
C85 C 0.86746 0.32486 0.14075 0.0
O86 O 0.94325 0.21363 0.15981 0.0
H87 H 0.72763 0.0856 0.18747 0.0
H88 H 0.94233 0.29631 0.10001 0.0
H89 H 0.92473 0.28429 0.18956 0.0
O90 O 0.86079 0.29037 0.12539 0.0
O91 O 0.86284 0.29483 0.15681 0.0
H92 H 0.77437 0.08325 0.08815 0.0
O93 O 0.72696 0.15534 0.15428 0.0
O94 O 0.72721 0.14967 0.12266 0.0
O95 O 0.80494 0.07738 0.15738 0.0
O96 O 0.80845 0.07428 0.12582 0.0
C97 C 0.6933 0.14047 0.13839 0.0
H98 H -0.01847 0.31452 0.06671 0.0
H99 H 0.8124 0.09695 0.05403 0.0
H100 H 0.71834 0.08283 0.22273 0.0
H101 H 0.92041 0.28529 0.22476 0.0
C102 C 0.38452 0.23115 0.39848 0.0
N103 N 0.29598 0.09664 0.35021 0.0
C104 C 0.29668 0.1532 0.34102 0.0
C105 C 0.29858 0.15676 0.32095 0.0
C106 C 0.29959 0.1015 0.31021 0.0
C107 C 0.29996 0.04446 0.32014 0.0
C108 C 0.29809 0.04307 0.34017 0.0
Zn109 Zn 0.28876 0.08855 0.37965 0.0
C110 C 0.39591 0.05764 0.39631 0.0
N111 N 0.27313 0.06988 0.44128 0.0
C112 C 0.25287 0.10544 0.45384 0.0
C113 C 0.27995 0.01284 0.44724 0.0
C114 C 0.26735 -0.00995 0.46625 0.0
C115 C 0.24604 0.02502 0.47952 0.0
C116 C 0.23858 0.08347 0.47315 0.0
Zn117 Zn 0.28399 0.08726 0.41185 0.0
O118 O 0.36581 0.19725 0.38261 0.0
C119 C 0.18454 0.12827 0.39501 0.0
O120 O 0.35998 0.19735 0.41423 0.0
H121 H 0.29303 -0.01716 0.43711 0.0
H122 H 0.29484 0.19521 0.34924 0.0
H123 H 0.24625 0.1497 0.44885 0.0
O124 O 0.20992 0.11826 0.37958 0.0
O125 O 0.20333 0.11509 0.41114 0.0
H126 H 0.29772 -0.00133 0.34771 0.0
O127 O 0.20623 -0.02116 0.40874 0.0
O128 O 0.20873 -0.01967 0.37733 0.0
O129 O 0.368 0.06421 0.41167 0.0
O130 O 0.37032 0.06184 0.38025 0.0
C131 C 0.18137 0.94703 0.39288 0.0
H132 H 0.29759 0.20144 0.31392 0.0
H133 H 0.30191 0.00128 0.31251 0.0
H134 H 0.27237 0.94391 0.47042 0.0
H135 H 0.22218 0.11187 0.48299 0.0
C136 C 0.70469 0.74331 0.14405 0.0
N137 N 0.73502 0.65103 0.09565 0.0
C138 C 0.67118 0.64427 0.08975 0.0
C139 C 0.66082 0.65681 0.07075 0.0
C140 C 0.7169 0.678 0.05744 0.0
C141 C 0.7828 0.68542 0.06375 0.0
C142 C 0.79066 0.6712 0.08305 0.0
Zn143 Zn 0.74185 0.64041 0.12508 0.0
C144 C 0.88253 0.73983 0.14181 0.0
N145 N 0.73979 0.62892 0.1867 0.0
C146 C 0.68429 0.62699 0.19676 0.0
C147 C 0.79557 0.62813 0.19588 0.0
C148 C 0.79733 0.62629 0.21595 0.0
C149 C 0.74124 0.62545 0.2267 0.0
C150 C 0.68392 0.6252 0.21679 0.0
Zn151 Zn 0.73865 0.63589 0.15727 0.0
O152 O 0.71151 0.71836 0.12819 0.0
C153 C 0.6003 0.52883 0.14071 0.0
O154 O 0.7108 0.71611 0.1596 0.0
H155 H 0.83928 0.62983 0.18765 0.0
H156 H 0.62827 0.6313 0.09991 0.0
H157 H 0.64031 0.62743 0.18923 0.0
O158 O 0.63473 0.5565 0.12533 0.0
O159 O 0.63031 0.55447 0.15675 0.0
H160 H 0.84153 0.6778 0.088 0.0
O161 O 0.76992 0.5586 0.15431 0.0
O162 O 0.77564 0.5642 0.12269 0.0
O163 O 0.84728 0.71463 0.15727 0.0
O164 O 0.85038 0.72101 0.12571 0.0
C165 C 0.78496 0.53976 0.13844 0.0
H166 H 0.6097 0.65184 0.06662 0.0
H167 H 0.82745 0.70174 0.05388 0.0
H168 H 0.84293 0.62719 0.22296 0.0
H169 H 0.63892 0.62337 0.22443 0.0
C170 C 0.69327 0.14008 0.39854 0.0
N171 N 0.82664 0.18454 0.35015 0.0
C172 C 0.7695 0.12875 0.3411 0.0
C173 C 0.76458 0.12722 0.32106 0.0
C174 C 0.81886 0.18373 0.31019 0.0
C175 C 0.87691 0.24076 0.31996 0.0
C176 C 0.87975 0.24006 0.33997 0.0
Zn177 Zn 0.83541 0.18575 0.37957 0.0
C178 C 0.86746 0.32446 0.39619 0.0
N179 N 0.85463 0.18938 0.44116 0.0
C180 C 0.81892 0.13364 0.45373 0.0
C181 C 0.91197 0.25311 0.4471 0.0
C182 C 0.93494 0.26323 0.46609 0.0
C183 C 0.89982 0.20701 0.47935 0.0
C184 C 0.84105 0.14125 0.47301 0.0
Zn185 Zn 0.83689 0.18267 0.41176 0.0
O186 O 0.727 0.15491 0.38265 0.0
C187 C 0.79486 0.04167 0.39498 0.0
O188 O 0.72711 0.14931 0.41427 0.0
H189 H 0.94204 0.29611 0.43696 0.0
H190 H 0.72773 0.08515 0.34943 0.0
H191 H 0.7744 0.08286 0.44875 0.0
O192 O 0.80494 0.0769 0.37953 0.0
O193 O 0.80838 0.07393 0.41109 0.0
H194 H 0.9249 0.28378 0.3474 0.0
O195 O 0.94495 0.21257 0.40854 0.0
O196 O 0.94328 0.2131 0.37713 0.0
O197 O 0.86069 0.29003 0.41156 0.0
O198 O 0.86292 0.29434 0.38014 0.0
C199 C -0.02343 0.21908 0.39268 0.0
H200 H 0.71843 0.08254 0.31418 0.0
H201 H 0.92056 0.28494 0.3122 0.0
H202 H -0.0187 0.31427 0.47025 0.0
H203 H 0.81251 0.09651 0.48285 0.0
C204 C 0.2146 0.39944 0.63847 0.0
N205 N 0.08016 0.31071 0.68671 0.0
C206 C 0.1367 0.31158 0.69593 0.0
C207 C 0.1402 0.31351 0.716 0.0
C208 C 0.08489 0.31438 0.72671 0.0
C209 C 0.02786 0.31457 0.71676 0.0
C210 C 0.02654 0.31268 0.69673 0.0
Zn211 Zn 0.07217 0.30345 0.65728 0.0
C212 C 0.04081 0.4103 0.64059 0.0
N213 N 0.05366 0.28774 0.59567 0.0
C214 C 0.08945 0.26782 0.58309 0.0
C215 C -0.00345 0.29436 0.5897 0.0
C216 C -0.02604 0.28194 0.57067 0.0
C217 C 0.0092 0.26102 0.5574 0.0
C218 C 0.06767 0.25371 0.56377 0.0
Zn219 Zn 0.07092 0.2986 0.62509 0.0
O220 O 0.18074 0.38077 0.65434 0.0
C221 C 0.11226 0.19941 0.64194 0.0
O222 O 0.18083 0.37481 0.62272 0.0
H223 H -0.03361 0.30718 0.59984 0.0
H224 H 0.17876 0.30984 0.68773 0.0
H225 H 0.13377 0.26137 0.58809 0.0
O226 O 0.10213 0.22474 0.65737 0.0
O227 O 0.09897 0.21807 0.62581 0.0
H228 H -0.01785 0.31218 0.68917 0.0
O229 O -0.03733 0.22061 0.62818 0.0
O230 O -0.03588 0.22318 0.65958 0.0
O231 O 0.0476 0.38246 0.62524 0.0
O232 O 0.04517 0.38486 0.65666 0.0
C233 C 0.93087 0.19579 0.64403 0.0
H234 H 0.18488 0.31266 0.72304 0.0
H235 H -0.01536 0.31642 0.72437 0.0
H236 H 0.9278 0.28683 0.5665 0.0
H237 H 0.09626 0.2376 0.55392 0.0
C238 C 0.20322 -0.00773 0.89263 0.0
N239 N 0.17272 0.8703 0.94115 0.0
C240 C 0.23656 0.92754 0.94705 0.0
C241 C 0.24693 0.95062 0.96605 0.0
C242 C 0.19086 0.91571 0.97936 0.0
C243 C 0.12497 0.85706 0.97306 0.0
C244 C 0.1171 0.83482 0.95376 0.0
Zn245 Zn 0.16583 0.85232 0.91175 0.0
C246 C 0.02518 0.81111 0.89502 0.0
N247 N 0.16752 0.84157 0.85013 0.0
C248 C 0.22321 0.8944 0.83994 0.0
C249 C 0.11146 0.78462 0.8411 0.0
C250 C 0.10982 0.77961 0.82106 0.0
C251 C 0.16649 0.83361 0.81016 0.0
C252 C 0.22379 0.89147 0.81991 0.0
Zn253 Zn 0.16886 0.85058 0.87956 0.0
O254 O 0.19644 0.96067 0.9085 0.0
C255 C 0.30712 0.88171 0.89614 0.0
O256 O 0.19705 0.95875 0.87709 0.0
H257 H 0.06773 0.74306 0.84944 0.0
H258 H 0.27948 0.95742 0.93688 0.0
H259 H 0.26713 0.93941 0.84734 0.0
O260 O 0.27284 0.87537 0.91152 0.0
O261 O 0.27713 0.87724 0.8801 0.0
H262 H 0.06624 0.79038 0.94882 0.0
O263 O 0.13724 0.74192 0.88266 0.0
O264 O 0.13179 0.74229 0.91429 0.0
O265 O 0.06032 0.82091 0.87956 0.0
O266 O 0.05738 0.82452 0.91112 0.0
C267 C 0.12228 0.70825 0.89855 0.0
H268 H 0.29806 -0.0031 0.97017 0.0
H269 H 0.08033 0.82869 0.98293 0.0
H270 H 0.06492 0.73361 0.81419 0.0
H271 H 0.26811 0.93492 0.81215 0.0
C272 C 0.52223 0.79869 0.63853 0.0
N273 N 0.61159 0.75394 0.68675 0.0
C274 C 0.61054 0.80964 0.69596 0.0
C275 C 0.60869 0.81138 0.71603 0.0
C276 C 0.60811 0.75535 0.72675 0.0
C277 C 0.6081 0.69809 0.71681 0.0
C278 C 0.6099 0.69848 0.69678 0.0
Zn279 Zn 0.61864 0.75289 0.65732 0.0
C280 C 0.51196 0.61424 0.64072 0.0
N281 N 0.63401 0.74939 0.59572 0.0
C282 C 0.65407 0.80518 0.58317 0.0
C283 C 0.6275 0.68562 0.58974 0.0
C284 C 0.64026 0.67552 0.57073 0.0
C285 C 0.66141 0.7318 0.55749 0.0
C286 C 0.66852 0.79759 0.56386 0.0
Zn287 Zn 0.62325 0.75603 0.62514 0.0
O288 O 0.54111 0.78382 0.6544 0.0
C289 C 0.72224 0.89698 0.6419 0.0
O290 O 0.54685 0.78948 0.62277 0.0
H291 H 0.61458 0.64258 0.59986 0.0
H292 H 0.61205 0.85332 0.68775 0.0
H293 H 0.66045 0.85599 0.58817 0.0
O294 O 0.69706 0.86174 0.65735 0.0
O295 O 0.70351 0.86474 0.62579 0.0
H296 H 0.61053 0.65457 0.68923 0.0
O297 O 0.70141 0.72605 0.6282 0.0
O298 O 0.69914 0.72545 0.6596 0.0
O299 O 0.53966 0.64869 0.62535 0.0
O300 O 0.53751 0.64431 0.65676 0.0
C301 C 0.72648 0.7195 0.64405 0.0
H302 H 0.6094 0.85694 0.72307 0.0
H303 H 0.60648 0.65313 0.72443 0.0
H304 H 0.63551 0.62445 0.56655 0.0
H305 H 0.68478 0.84238 0.55404 0.0
C306 C 0.93075 0.19642 0.89288 0.0
N307 N 0.05354 0.28855 0.94122 0.0
C308 C -0.00353 0.29522 0.94722 0.0
C309 C -0.02612 0.28274 0.96626 0.0
C310 C 0.00907 0.2617 0.97949 0.0
C311 C 0.0675 0.25436 0.97308 0.0
C312 C 0.08928 0.26853 0.95376 0.0
Zn313 Zn 0.07077 0.29932 0.9118 0.0
C314 C 0.11215 0.20006 0.89493 0.0
N315 N 0.0801 0.31117 0.85018 0.0
C316 C 0.02647 0.31307 0.84017 0.0
C317 C 0.13666 0.31201 0.84095 0.0
C318 C 0.14017 0.31384 0.82088 0.0
C319 C 0.08486 0.31464 0.81018 0.0
C320 C 0.02781 0.31487 0.82013 0.0
Zn321 Zn 0.07208 0.30402 0.87962 0.0
O322 O -0.03746 0.22135 0.90873 0.0
C323 C 0.04067 0.41094 0.89632 0.0
O324 O -0.03598 0.22371 0.87733 0.0
H325 H 0.17871 0.31032 0.84915 0.0
H326 H -0.03366 0.3081 0.93712 0.0
H327 H -0.01792 0.31259 0.84773 0.0
O328 O 0.04745 0.38317 0.91167 0.0
O329 O 0.04507 0.38541 0.88025 0.0
H330 H 0.13357 0.26204 0.94873 0.0
O331 O 0.18067 0.38138 0.88254 0.0
O332 O 0.18065 0.37552 0.91416 0.0
O333 O 0.10206 0.22532 0.8795 0.0
O334 O 0.09882 0.21878 0.91106 0.0
C335 C 0.21447 0.4001 0.89841 0.0
H336 H 0.92775 0.28766 0.97047 0.0
H337 H 0.09605 0.23816 0.98289 0.0
H338 H 0.18486 0.31296 0.81384 0.0
H339 H -0.0154 0.31666 0.81253 0.0
C340 C 0.1224 0.70761 0.63833 0.0
N341 N 0.16759 0.84117 0.68675 0.0
C342 C 0.11152 0.78425 0.69578 0.0
C343 C 0.10986 0.77934 0.71582 0.0
C344 C 0.16652 0.8334 0.72671 0.0
C345 C 0.22383 0.89122 0.71696 0.0
C346 C 0.22326 0.89405 0.69694 0.0
Zn347 Zn 0.16895 0.85004 0.65732 0.0
C348 C 0.30723 0.88106 0.64073 0.0
N349 N 0.17289 0.86949 0.59572 0.0
C350 C 0.11722 0.8341 0.58312 0.0
C351 C 0.23679 0.92663 0.58981 0.0
C352 C 0.24713 0.94971 0.57082 0.0
C353 C 0.19099 0.91493 0.55753 0.0
C354 C 0.12507 0.85636 0.56384 0.0
Zn355 Zn 0.16597 0.8516 0.62513 0.0
O356 O 0.13734 0.74137 0.65422 0.0
C357 C 0.0253 0.8105 0.64188 0.0
O358 O 0.13191 0.74155 0.62259 0.0
H359 H 0.27976 0.95646 0.59997 0.0
H360 H 0.0678 0.74266 0.68744 0.0
H361 H 0.06632 0.78975 0.58808 0.0
O362 O 0.06043 0.82037 0.65734 0.0
O363 O 0.05751 0.82382 0.62578 0.0
H364 H 0.26718 0.93903 0.68953 0.0
O365 O 0.19661 0.95997 0.62838 0.0
O366 O 0.19713 0.95822 0.65979 0.0
O367 O 0.273 0.87463 0.62535 0.0
O368 O 0.2772 0.87671 0.65677 0.0
C369 C 0.20335 -0.00834 0.64425 0.0
H370 H 0.06496 0.73337 0.7227 0.0
H371 H 0.26814 0.9347 0.72472 0.0
H372 H 0.2983 -0.00408 0.56669 0.0
H373 H 0.08037 0.82807 0.55398 0.0
C374 C 0.72637 0.72012 0.89291 0.0
N375 N 0.63379 0.75015 0.94127 0.0
C376 C 0.62718 0.68633 0.94721 0.0
C377 C 0.63994 0.67621 0.96621 0.0
C378 C 0.6612 0.7325 0.97948 0.0
C379 C 0.66843 0.79835 0.97313 0.0
C380 C 0.65398 0.80597 0.95384 0.0
Zn381 Zn 0.6231 0.75676 0.91184 0.0
C382 C 0.72215 0.89762 0.89508 0.0
N383 N 0.61161 0.75441 0.85021 0.0
C384 C 0.60993 0.69891 0.84018 0.0
C385 C 0.61058 0.81008 0.841 0.0
C386 C 0.60874 0.8117 0.82093 0.0
C387 C 0.60815 0.75562 0.81021 0.0
C388 C 0.60815 0.69841 0.82015 0.0
Zn389 Zn 0.61859 0.75346 0.87965 0.0
O390 O 0.70127 0.72674 0.90876 0.0
C391 C 0.51184 0.61491 0.89623 0.0
O392 O 0.69906 0.72601 0.87736 0.0
H393 H 0.61208 0.85379 0.84922 0.0
H394 H 0.6142 0.64328 0.93708 0.0
H395 H 0.61055 0.65503 0.84774 0.0
O396 O 0.53947 0.64941 0.91161 0.0
O397 O 0.53748 0.64491 0.88019 0.0
H398 H 0.66047 0.85682 0.94885 0.0
O399 O 0.54106 0.7844 0.88257 0.0
O400 O 0.54669 0.79025 0.9142 0.0
O401 O 0.69699 0.8623 0.87963 0.0
O402 O 0.70339 0.86548 0.91119 0.0
C403 C 0.52213 0.79937 0.89844 0.0
H404 H 0.63511 0.62511 0.97037 0.0
H405 H 0.68479 0.84316 0.98297 0.0
H406 H 0.60944 0.85723 0.8139 0.0
H407 H 0.60652 0.65341 0.81254 0.0
C408 C 0.07269 0.21072 0.12674 0.0
C409 C 0.04249 0.21448 0.14432 0.0
H410 H 0.13985 0.17853 0.11215 0.0
C411 C 0.0653 0.19701 0.16135 0.0
H412 H 0.05653 0.22436 0.11336 0.0
C413 C 0.11255 0.17006 0.16061 0.0
C414 C 0.13764 0.16033 0.14285 0.0
H415 H 0.043 0.19943 0.17512 0.0
H416 H 0.12719 0.15436 0.1739 0.0
C417 C 0.11951 0.18338 0.12599 0.0
C418 C 0.07631 0.85105 0.4104 0.0
C419 C 0.11047 0.88097 0.39282 0.0
H420 H -0.02324 0.7843 0.42493 0.0
C421 C 0.07036 0.85792 0.37576 0.0
H422 H 0.10599 0.8674 0.42379 0.0
C423 C -0.00388 0.81083 0.37646 0.0
C424 C -0.0389 0.78612 0.39421 0.0
H425 H 0.09524 0.87998 0.362 0.0
H426 H -0.03409 0.79605 0.36314 0.0
C427 C 0.00211 0.80438 0.4111 0.0
C428 C 0.74048 0.92235 0.12584 0.0
C429 C 0.76305 0.96343 0.14274 0.0
H430 H 0.70013 0.81844 0.11313 0.0
C431 C 0.75282 0.92845 0.16049 0.0
H432 H 0.74571 0.94768 0.11201 0.0
C433 C 0.726 0.85421 0.16118 0.0
C434 C 0.70921 0.81408 0.14411 0.0
H435 H 0.76811 0.95871 0.17381 0.0
H436 H 0.72326 0.82938 0.17494 0.0
C437 C 0.71329 0.84814 0.12653 0.0
C438 C 0.1126 0.16957 0.37636 0.0
C439 C 0.13759 0.15988 0.39413 0.0
H440 H 0.04316 0.19892 0.36184 0.0
C441 C 0.11936 0.18298 0.41098 0.0
H442 H 0.12732 0.15383 0.36308 0.0
C443 C 0.07256 0.21033 0.41023 0.0
C444 C 0.04247 0.21405 0.39263 0.0
H445 H 0.13962 0.17816 0.42482 0.0
H446 H 0.05632 0.22401 0.4236 0.0
C447 C 0.06537 0.19654 0.37561 0.0
C448 C 0.07641 0.85149 0.12646 0.0
C449 C 0.1105 0.8814 0.14405 0.0
H450 H -0.0231 0.78474 0.11191 0.0
C451 C 0.07033 0.85834 0.1611 0.0
H452 H 0.10614 0.86784 0.11307 0.0
C453 C -0.00391 0.81126 0.16039 0.0
C454 C -0.03887 0.78656 0.14264 0.0
H455 H 0.09516 0.88039 0.17487 0.0
H456 H -0.03416 0.79648 0.17371 0.0
C457 C 0.00221 0.80482 0.12575 0.0
C458 C 0.72601 0.85371 0.37573 0.0
C459 C 0.70918 0.81365 0.39279 0.0
H460 H 0.76814 0.95816 0.3631 0.0
C461 C 0.71322 0.84779 0.41038 0.0
H462 H 0.72329 0.82882 0.36197 0.0
C463 C 0.74041 0.922 0.41107 0.0
C464 C 0.76301 0.96301 0.39417 0.0
H465 H 0.70003 0.81813 0.42377 0.0
H466 H 0.74561 0.94738 0.4249 0.0
C467 C 0.75282 0.92795 0.37642 0.0
C468 C 0.18102 0.08061 0.66134 0.0
C469 C 0.19861 0.05778 0.64431 0.0
H470 H 0.13805 0.14234 0.67387 0.0
C471 C 0.19496 0.08799 0.62672 0.0
H472 H 0.18339 0.05834 0.6751 0.0
C473 C 0.16746 0.13468 0.62597 0.0
C474 C 0.14415 0.1527 0.64282 0.0
H475 H 0.20873 0.07183 0.61335 0.0
H476 H 0.16263 0.15497 0.61213 0.0
C477 C 0.15391 0.12775 0.66059 0.0
C478 C 0.90563 0.757 0.91113 0.0
C479 C 0.94661 0.77946 0.89422 0.0
H480 H 0.80183 0.71645 0.92385 0.0
C481 C 0.91158 0.76907 0.87648 0.0
H482 H 0.93098 0.76237 0.92496 0.0
C483 C 0.83739 0.74204 0.8758 0.0
C484 C 0.79731 0.72518 0.89287 0.0
H485 H 0.94176 0.78429 0.86316 0.0
H486 H 0.81251 0.73909 0.86204 0.0
C487 C 0.83147 0.7296 0.91045 0.0
C488 C 0.7876 0.01667 0.62582 0.0
C489 C 0.76911 -0.02436 0.64271 0.0
H490 H 0.85115 0.12052 0.61311 0.0
C491 C 0.79395 0.01069 0.66046 0.0
H492 H 0.76745 -0.0087 0.61199 0.0
C493 C 0.8414 0.08493 0.66115 0.0
C494 C 0.86467 0.125 0.64409 0.0
H495 H 0.77902 -0.01952 0.67378 0.0
H496 H 0.86353 0.1098 0.67491 0.0
C497 C 0.83464 0.09087 0.62651 0.0
C498 C 0.16732 0.13541 0.91089 0.0
C499 C 0.14404 0.15334 0.89405 0.0
H500 H 0.20856 0.07262 0.92352 0.0
C501 C 0.15381 0.12828 0.87628 0.0
H502 H 0.16248 0.15578 0.92473 0.0
C503 C 0.18092 0.08114 0.87553 0.0
C504 C 0.19848 0.0584 0.89256 0.0
H505 H 0.13797 0.1428 0.863 0.0
H506 H 0.18329 0.05877 0.86177 0.0
C507 C 0.19483 0.08871 0.91014 0.0
C508 C 0.91172 0.76861 0.66044 0.0
C509 C 0.94673 0.77885 0.64269 0.0
H510 H 0.81266 0.73875 0.67491 0.0
C511 C 0.90573 0.75623 0.62579 0.0
H512 H 0.94191 0.78394 0.67376 0.0
C513 C 0.83157 0.72883 0.6265 0.0
C514 C 0.79742 0.72456 0.64409 0.0
H515 H 0.93107 0.76148 0.61196 0.0
H516 H 0.80191 0.71556 0.6131 0.0
C517 C 0.83752 0.74158 0.66114 0.0
C518 C 0.84132 0.08543 0.87578 0.0
C519 C 0.86456 0.12563 0.89284 0.0
H520 H 0.77897 -0.01911 0.86318 0.0
C521 C 0.8345 0.09163 0.91043 0.0
H522 H 0.86346 0.11021 0.86202 0.0
C523 C 0.78748 0.01743 0.91113 0.0
C524 C 0.76902 -0.02372 0.89425 0.0
H525 H 0.85098 0.1214 0.92382 0.0
H526 H 0.76731 -0.00784 0.92497 0.0
C527 C 0.79388 0.01119 0.87649 0.0
C528 C 0.34015 0.16701 0.27854 0.0
C529 C 0.29899 0.10234 0.28882 0.0
H530 H 0.37351 0.21751 0.25097 0.0
C531 C 0.25721 0.03797 0.27848 0.0
H532 H 0.37354 0.21743 0.28604 0.0
C533 C 0.25719 0.03801 0.25843 0.0
C534 C 0.29895 0.10243 0.24813 0.0
H535 H 0.22368 -0.01258 0.2859 0.0
H536 H 0.22365 -0.0125 0.25099 0.0
C537 C 0.34013 0.16705 0.25844 0.0
C538 C 0.7659 0.58453 0.27845 0.0
C539 C 0.74268 0.62584 0.28877 0.0
H540 H 0.78273 0.5511 0.25083 0.0
C541 C 0.72039 0.66789 0.27849 0.0
H542 H 0.7827 0.55094 0.2859 0.0
C543 C 0.72042 0.66799 0.25844 0.0
C544 C 0.74273 0.62603 0.24809 0.0
H545 H 0.70362 0.70155 0.28595 0.0
H546 H 0.70366 0.70171 0.25104 0.0
C547 C 0.76592 0.58462 0.25834 0.0
C548 C 0.83704 0.24733 0.25847 0.0
C549 C 0.81573 0.18319 0.24812 0.0
H550 H 0.85348 0.29761 0.28601 0.0
C551 C 0.79323 0.1187 0.25839 0.0
H552 H 0.85343 0.29773 0.25104 0.0
C553 C 0.79326 0.11863 0.27848 0.0
C554 C 0.81579 0.18305 0.28881 0.0
H555 H 0.77738 0.06849 0.25091 0.0
H556 H 0.77743 0.06837 0.28592 0.0
C557 C 0.83707 0.24726 0.27854 0.0
C558 C 0.15021 0.35526 0.75839 0.0
C559 C 0.08568 0.31385 0.7481 0.0
H560 H 0.20056 0.38889 0.78597 0.0
C561 C 0.02138 0.27191 0.75842 0.0
H562 H 0.20057 0.38878 0.7509 0.0
C563 C 0.02137 0.27197 0.77848 0.0
C564 C 0.08566 0.31398 0.78879 0.0
H565 H -0.02906 0.23819 0.751 0.0
H566 H -0.02907 0.2383 0.78591 0.0
C567 C 0.1502 0.35532 0.77849 0.0
C568 C 0.22969 0.85126 0.77847 0.0
C569 C 0.16569 0.83048 0.78879 0.0
H570 H 0.27994 0.8672 0.75095 0.0
C571 C 0.10141 0.80841 0.77849 0.0
H572 H 0.27993 0.86729 0.78591 0.0
C573 C 0.10142 0.80835 0.7584 0.0
C574 C 0.16571 0.83037 0.74809 0.0
H575 H 0.05132 0.79297 0.78595 0.0
H576 H 0.05133 0.79288 0.75094 0.0
C577 C 0.2297 0.85121 0.7584 0.0
C578 C 0.65089 0.73479 0.75845 0.0
C579 C 0.60874 0.75685 0.74814 0.0
H580 H 0.68471 0.71829 0.78593 0.0
C581 C 0.56723 0.77987 0.75843 0.0
H582 H 0.68469 0.71817 0.75102 0.0
C583 C 0.56724 0.77994 0.77854 0.0
C584 C 0.60877 0.75699 0.78883 0.0
H585 H 0.53356 0.79648 0.75096 0.0
H586 H 0.53358 0.7966 0.78603 0.0
C587 C 0.6509 0.73485 0.77851 0.0
C588 C 0.15312 0.95592 1.00913 0.0
C589 C 0.20268 0.94171 0.99957 0.0
H590 H 0.1287 -0.0047 0.03486 0.0
C591 C 0.26671 0.95676 1.00904 0.0
H592 H 0.10371 0.94558 1.00209 0.0
C593 C 0.28098 -0.01483 0.0276 0.0
C594 C 0.23188 -0.00018 0.03718 0.0
H595 H 0.30587 0.94628 1.00208 0.0
H596 H 0.33081 -0.0041 0.03448 0.0
C597 C 0.16787 -0.01472 0.02773 0.0
C598 C 0.64128 0.64229 0.50916 0.0
C599 C 0.70523 0.69156 0.49967 0.0
H600 H 0.57713 0.61704 0.5346 0.0
C601 C 0.75462 0.7555 0.50921 0.0
H602 H 0.60224 0.59251 0.5022 0.0
C603 C 0.73975 0.77003 0.52781 0.0
C604 C 0.67581 0.7203 0.53727 0.0
H605 H 0.80395 0.7948 0.50216 0.0
H606 H 0.77877 0.81938 0.53493 0.0
C607 C 0.6269 0.65634 0.52771 0.0
C608 C -0.03111 0.18368 1.00921 0.0
C609 C -0.01649 0.24771 0.99973 0.0
H610 H 0.92926 0.1197 0.03489 0.0
C611 C -0.03092 0.29707 1.00928 0.0
H612 H -0.02125 0.14432 1.0021 0.0
C613 C 0.94082 0.28301 0.02785 0.0
C614 C 0.92568 0.21895 0.03735 0.0
H615 H -0.02014 0.34691 1.00237 0.0
H616 H 0.93053 0.32237 0.03479 0.0
C617 C 0.93967 0.16914 0.02782 0.0
C618 C 0.16791 -0.0153 0.50924 0.0
C619 C 0.23186 -0.00079 0.49974 0.0
H620 H 0.10385 0.94498 0.5349 0.0
C621 C 0.28096 -0.01553 0.50926 0.0
H622 H 0.12874 -0.00521 0.50216 0.0
C623 C 0.26673 0.95601 0.52781 0.0
C624 C 0.20276 0.94099 0.53733 0.0
H625 H 0.33074 -0.00483 0.50235 0.0
H626 H 0.3059 0.94546 0.53472 0.0
C627 C 0.15321 0.95529 0.52783 0.0
C628 C 0.6411 0.64288 0.02775 0.0
C629 C 0.70508 0.69209 0.03724 0.0
H630 H 0.5769 0.61773 1.00234 0.0
C631 C 0.75447 0.75605 0.02771 0.0
H632 H 0.60205 0.59309 0.03469 0.0
C633 C 0.73958 0.77064 1.00914 0.0
C634 C 0.67561 0.72097 0.99968 0.0
H635 H 0.80382 0.79531 0.03476 0.0
H636 H 0.77861 0.82 1.00203 0.0
C637 C 0.62669 0.657 1.00922 0.0
C638 C -0.03094 0.18316 0.52762 0.0
C639 C -0.01634 0.24714 0.53716 0.0
H640 H 0.92938 0.1193 0.50191 0.0
C641 C -0.03081 0.29653 0.52767 0.0
H642 H -0.02106 0.14378 0.53468 0.0
C643 C 0.94089 0.28254 0.50912 0.0
C644 C 0.92574 0.21853 0.49956 0.0
H645 H -0.02004 0.34632 0.53463 0.0
H646 H 0.93055 0.32192 0.50223 0.0
C647 C 0.93978 0.1687 0.50902 0.0
C648 C 0.57587 0.0973 0.12147 0.0
C649 C 0.61473 0.11007 0.13861 0.0
H650 H 0.47427 0.06803 0.10863 0.0
C651 C 0.57781 0.09322 0.15623 0.0
H652 H 0.60276 0.10835 0.10768 0.0
C653 C 0.5043 0.06933 0.1568 0.0
C654 C 0.46653 0.06227 0.13975 0.0
H655 H 0.60603 0.10072 0.16969 0.0
H656 H 0.47823 0.06072 0.17065 0.0
C657 C 0.50217 0.07342 0.12203 0.0
C658 C 0.50879 0.42258 0.41475 0.0
C659 C 0.53359 0.45799 0.39702 0.0
H660 H 0.4427 0.32213 0.42915 0.0
C661 C 0.50282 0.42006 0.37999 0.0
H662 H 0.5313 0.45063 0.42816 0.0
C663 C 0.45291 0.34654 0.38058 0.0
C664 C 0.43263 0.30979 0.39822 0.0
H665 H 0.52049 0.44598 0.36612 0.0
H666 H 0.43218 0.31814 0.36712 0.0
C667 C 0.4587 0.34887 0.41534 0.0
C668 C 0.85285 0.41611 0.12219 0.0
C669 C 0.86357 0.39146 0.13993 0.0
H670 H 0.8181 0.48179 0.10779 0.0
C671 C 0.85618 0.42212 0.15696 0.0
H672 H 0.85856 0.39369 0.10879 0.0
C673 C 0.83223 0.47173 0.15636 0.0
C674 C 0.81565 0.49182 0.13871 0.0
H675 H 0.86449 0.40456 0.17083 0.0
H676 H 0.82439 0.49236 0.16981 0.0
C677 C 0.82889 0.4659 0.12159 0.0
C678 C 0.50206 0.07305 0.41487 0.0
C679 C 0.4665 0.0619 0.39714 0.0
H680 H 0.60257 0.10796 0.42923 0.0
C681 C 0.50437 0.06898 0.3801 0.0
H682 H 0.47408 0.06763 0.42827 0.0
C683 C 0.57787 0.09286 0.38068 0.0
C684 C 0.61471 0.10969 0.39831 0.0
H685 H 0.47837 0.06037 0.36624 0.0
H686 H 0.60616 0.10037 0.36722 0.0
C687 C 0.57576 0.09692 0.41544 0.0
C688 C 0.45303 0.34707 0.15638 0.0
C689 C 0.4327 0.31021 0.13875 0.0
H690 H 0.52064 0.44661 0.17082 0.0
C691 C 0.45872 0.34917 0.12161 0.0
H692 H 0.43235 0.31875 0.16984 0.0
C693 C 0.5088 0.42288 0.12218 0.0
C694 C 0.53365 0.45841 0.13991 0.0
H695 H 0.44267 0.32234 0.10781 0.0
H696 H 0.53126 0.45084 0.10877 0.0
C697 C 0.50293 0.4206 0.15696 0.0
C698 C 0.82877 0.46561 0.41528 0.0
C699 C 0.81562 0.49141 0.39815 0.0
H700 H 0.85838 0.3935 0.42812 0.0
C701 C 0.83229 0.4712 0.38052 0.0
H702 H 0.81791 0.48159 0.42908 0.0
C703 C 0.85626 0.42161 0.37994 0.0
C704 C 0.86357 0.39106 0.39699 0.0
H705 H 0.82451 0.49174 0.36706 0.0
H706 H 0.86464 0.40395 0.36608 0.0
C707 C 0.85275 0.41583 0.41472 0.0
C708 C 0.07484 0.59207 0.65618 0.0
C709 C 0.09182 0.62895 0.63855 0.0
H710 H 0.04256 0.49253 0.67063 0.0
C711 C 0.07931 0.58999 0.62143 0.0
H712 H 0.08212 0.62037 0.66964 0.0
C713 C 0.05568 0.51626 0.62201 0.0
C714 C 0.04456 0.48073 0.63973 0.0
H715 H 0.09046 0.61684 0.60763 0.0
H716 H 0.05054 0.4883 0.60861 0.0
C717 C 0.05121 0.51854 0.65676 0.0
C718 C 0.40394 0.86988 0.87991 0.0
C719 C 0.37348 0.87749 0.89696 0.0
H720 H 0.47413 0.8381 0.86706 0.0
C721 C 0.39824 0.8669 0.91469 0.0
H722 H 0.38627 0.87805 0.86605 0.0
C723 C 0.44808 0.84305 0.91528 0.0
C724 C 0.47394 0.82975 0.89816 0.0
H725 H 0.37594 0.87274 0.92809 0.0
H726 H 0.46412 0.83245 0.92909 0.0
C727 C 0.4536 0.84603 0.88051 0.0
C728 C 0.4035 0.51718 0.65695 0.0
C729 C 0.44147 0.54767 0.63991 0.0
H730 H 0.30154 0.44711 0.66983 0.0
C731 C 0.40601 0.52289 0.62218 0.0
H732 H 0.42943 0.53485 0.67082 0.0
C733 C 0.33228 0.47313 0.6216 0.0
C734 C 0.2932 0.44737 0.63873 0.0
H735 H 0.43409 0.54518 0.60877 0.0
H736 H 0.30554 0.45712 0.6078 0.0
C737 C 0.32995 0.46761 0.65637 0.0
C738 C 0.07469 0.5926 0.88071 0.0
C739 C 0.0917 0.62959 0.89833 0.0
H740 H 0.0424 0.49296 0.86628 0.0
C741 C 0.07919 0.59074 0.91547 0.0
H742 H 0.08197 0.62081 0.86725 0.0
C743 C 0.05555 0.51701 0.9149 0.0
C744 C 0.04442 0.48136 0.89717 0.0
H745 H 0.09035 0.61768 0.92926 0.0
H746 H 0.05042 0.48914 0.9283 0.0
C747 C 0.05106 0.51906 0.88014 0.0
C748 C 0.39837 0.86605 0.62222 0.0
C749 C 0.37359 0.87683 0.63994 0.0
H750 H 0.46427 0.83144 0.60785 0.0
C751 C 0.40402 0.86941 0.65699 0.0
H752 H 0.37609 0.87174 0.60881 0.0
C753 C 0.45367 0.84554 0.65641 0.0
C754 C 0.47405 0.82907 0.63878 0.0
H755 H 0.38633 0.87773 0.67085 0.0
H756 H 0.47418 0.83776 0.66988 0.0
C757 C 0.44821 0.84218 0.62165 0.0
C758 C 0.40346 0.51781 0.87997 0.0
C759 C 0.44134 0.54835 0.89703 0.0
H760 H 0.30158 0.44769 0.86707 0.0
C761 C 0.40579 0.52361 0.91474 0.0
H762 H 0.42948 0.53544 0.86611 0.0
C763 C 0.33205 0.47385 0.91531 0.0
C764 C 0.29307 0.44804 0.89817 0.0
H765 H 0.43378 0.54595 0.92816 0.0
H766 H 0.30524 0.45789 0.9291 0.0
C767 C 0.32991 0.46823 0.88054 0.0
loop_
_geom_bond_atom_site_label_1
_geom_bond_atom_site_label_2
_geom_bond_distance
_geom_bond_site_symmetry_2
_ccdc_geom_bond_type
C0 O16 1.251 1_565 S
C0 O18 1.254 1_565 S
N1 C2 1.333 . S
N1 C6 1.307 . S
N1 Zn7 2.020 . S
C2 N1 1.333 . S
C2 C3 1.379 . S
C2 H20 0.952 . S
C3 C2 1.379 . S
C3 C4 1.390 . S
C3 H30 0.949 1_545 S
C4 C3 1.390 . S
C4 C5 1.357 . S
C5 C4 1.357 . S
C5 C6 1.370 . S
C5 H31 0.950 . S
C6 N1 1.307 . S
C6 C5 1.370 . S
C6 H24 0.948 . S
Zn7 N1 2.020 . S
Zn7 O16 2.039 . S
Zn7 O22 2.034 . S
Zn7 O26 2.025 . S
Zn7 O28 2.024 . S
C8 O27 1.246 . S
C8 O28 1.249 . S
N9 C10 1.307 . S
N9 C11 1.333 . S
N9 Zn15 2.020 . S
C10 N9 1.307 . S
C10 C14 1.370 . S
C10 H21 0.948 . S
C11 N9 1.333 . S
C11 C12 1.379 . S
C11 H19 0.952 . S
C12 C11 1.379 . S
C12 C13 1.390 . S
C12 H32 0.949 . S
C13 C12 1.390 . S
C13 C14 1.357 . S
C14 C10 1.370 . S
C14 C13 1.357 . S
C14 H33 0.950 . S
Zn15 N9 2.020 . S
Zn15 O18 2.025 . S
Zn15 O23 2.024 . S
Zn15 O25 2.039 . S
Zn15 O27 2.034 . S
O16 C0 1.251 1_545 S
O16 Zn7 2.039 . S
C17 O22 1.246 . S
C17 O23 1.249 . S
O18 C0 1.254 1_545 S
O18 Zn15 2.025 . S
H19 C11 0.952 . S
H20 C2 0.952 . S
H21 C10 0.948 . S
O22 Zn7 2.034 . S
O22 C17 1.246 . S
O23 Zn15 2.024 . S
O23 C17 1.249 . S
H24 C6 0.948 . S
O25 Zn15 2.039 . S
O25 C29 1.251 . S
O26 Zn7 2.025 . S
O26 C29 1.254 . S
O27 C8 1.246 . S
O27 Zn15 2.034 . S
O28 Zn7 2.024 . S
O28 C8 1.249 . S
C29 O25 1.251 . S
C29 O26 1.254 . S
H30 C3 0.949 1_565 S
H31 C5 0.950 . S
H32 C12 0.949 . S
H33 C14 0.950 . S
C34 O50 1.251 . S
C34 O52 1.254 . S
N35 C36 1.333 . S
N35 C40 1.307 . S
N35 Zn41 2.020 . S
C36 N35 1.333 . S
C36 C37 1.379 . S
C36 H54 0.952 . S
C37 C36 1.379 . S
C37 C38 1.390 . S
C37 H64 0.949 . S
C38 C37 1.390 . S
C38 C39 1.357 . S
C39 C38 1.357 . S
C39 C40 1.370 . S
C39 H65 0.950 . S
C40 N35 1.307 . S
C40 C39 1.370 . S
C40 H58 0.948 . S
Zn41 N35 2.020 . S
Zn41 O50 2.039 . S
Zn41 O56 2.034 . S
Zn41 O60 2.025 . S
Zn41 O62 2.024 . S
C42 O61 1.246 . S
C42 O62 1.249 . S
N43 C44 1.307 . S
N43 C45 1.333 . S
N43 Zn49 2.020 . S
C44 N43 1.307 . S
C44 C48 1.370 . S
C44 H55 0.948 . S
C45 N43 1.333 . S
C45 C46 1.379 . S
C45 H53 0.952 . S
C46 C45 1.379 . S
C46 C47 1.390 . S
C46 H66 0.949 . S
C47 C46 1.390 . S
C47 C48 1.357 . S
C48 C44 1.370 . S
C48 C47 1.357 . S
C48 H67 0.950 . S
Zn49 N43 2.020 . S
Zn49 O52 2.025 . S
Zn49 O57 2.024 . S
Zn49 O59 2.039 . S
Zn49 O61 2.034 . S
O50 C34 1.251 . S
O50 Zn41 2.039 . S
C51 O56 1.246 . S
C51 O57 1.249 . S
O52 C34 1.254 . S
O52 Zn49 2.025 . S
H53 C45 0.952 . S
H54 C36 0.952 . S
H55 C44 0.948 . S
O56 Zn41 2.034 . S
O56 C51 1.246 . S
O57 Zn49 2.024 . S
O57 C51 1.249 . S
H58 C40 0.948 . S
O59 Zn49 2.039 . S
O59 C63 1.251 . S
O60 Zn41 2.025 . S
O60 C63 1.254 . S
O61 C42 1.246 . S
O61 Zn49 2.034 . S
O62 Zn41 2.024 . S
O62 C42 1.249 . S
C63 O59 1.251 . S
C63 O60 1.254 . S
H64 C37 0.949 . S
H65 C39 0.950 . S
H66 C46 0.949 . S
H67 C48 0.950 . S
C68 O84 1.251 1_455 S
C68 O86 1.254 1_455 S
N69 C70 1.333 . S
N69 C74 1.307 . S
N69 Zn75 2.020 . S
C70 N69 1.333 . S
C70 C71 1.379 . S
C70 H88 0.952 . S
C71 C70 1.379 . S
C71 C72 1.390 . S
C71 H98 0.949 1_655 S
C72 C71 1.390 . S
C72 C73 1.357 . S
C73 C72 1.357 . S
C73 C74 1.370 . S
C73 H99 0.950 . S
C74 N69 1.307 . S
C74 C73 1.370 . S
C74 H92 0.948 . S
Zn75 N69 2.020 . S
Zn75 O84 2.039 . S
Zn75 O90 2.034 . S
Zn75 O94 2.025 . S
Zn75 O96 2.024 . S
C76 O95 1.246 . S
C76 O96 1.249 . S
N77 C78 1.307 . S
N77 C79 1.333 . S
N77 Zn83 2.020 . S
C78 N77 1.307 . S
C78 C82 1.370 . S
C78 H89 0.948 . S
C79 N77 1.333 . S
C79 C80 1.379 . S
C79 H87 0.952 . S
C80 C79 1.379 . S
C80 C81 1.390 . S
C80 H100 0.949 . S
C81 C80 1.390 . S
C81 C82 1.357 . S
C82 C78 1.370 . S
C82 C81 1.357 . S
C82 H101 0.950 . S
Zn83 N77 2.020 . S
Zn83 O86 2.025 . S
Zn83 O91 2.024 . S
Zn83 O93 2.039 . S
Zn83 O95 2.034 . S
O84 C68 1.251 1_655 S
O84 Zn75 2.039 . S
C85 O90 1.246 . S
C85 O91 1.249 . S
O86 C68 1.254 1_655 S
O86 Zn83 2.025 . S
H87 C79 0.952 . S
H88 C70 0.952 . S
H89 C78 0.948 . S
O90 Zn75 2.034 . S
O90 C85 1.246 . S
O91 Zn83 2.024 . S
O91 C85 1.249 . S
H92 C74 0.948 . S
O93 Zn83 2.039 . S
O93 C97 1.251 . S
O94 Zn75 2.025 . S
O94 C97 1.254 . S
O95 C76 1.246 . S
O95 Zn83 2.034 . S
O96 Zn75 2.024 . S
O96 C76 1.249 . S
C97 O93 1.251 . S
C97 O94 1.254 . S
H98 C71 0.949 1_455 S
H99 C73 0.950 . S
H100 C80 0.949 . S
H101 C82 0.950 . S
C102 O118 1.251 . S
C102 O120 1.254 . S
N103 C104 1.333 . S
N103 C108 1.307 . S
N103 Zn109 2.020 . S
C104 N103 1.333 . S
C104 C105 1.379 . S
C104 H122 0.952 . S
C105 C104 1.379 . S
C105 C106 1.390 . S
C105 H132 0.949 . S
C106 C105 1.390 . S
C106 C107 1.357 . S
C107 C106 1.357 . S
C107 C108 1.370 . S
C107 H133 0.950 . S
C108 N103 1.307 . S
C108 C107 1.370 . S
C108 H126 0.948 . S
Zn109 N103 2.020 . S
Zn109 O118 2.039 . S
Zn109 O124 2.034 . S
Zn109 O128 2.025 . S
Zn109 O130 2.024 . S
C110 O129 1.246 . S
C110 O130 1.249 . S
N111 C112 1.307 . S
N111 C113 1.333 . S
N111 Zn117 2.020 . S
C112 N111 1.307 . S
C112 C116 1.370 . S
C112 H123 0.948 . S
C113 N111 1.333 . S
C113 C114 1.379 . S
C113 H121 0.952 . S
C114 C113 1.379 . S
C114 C115 1.390 . S
C114 H134 0.949 1_545 S
C115 C114 1.390 . S
C115 C116 1.357 . S
C116 C112 1.370 . S
C116 C115 1.357 . S
C116 H135 0.950 . S
Zn117 N111 2.020 . S
Zn117 O120 2.025 . S
Zn117 O125 2.024 . S
Zn117 O127 2.039 . S
Zn117 O129 2.034 . S
O118 C102 1.251 . S
O118 Zn109 2.039 . S
C119 O124 1.246 . S
C119 O125 1.249 . S
O120 C102 1.254 . S
O120 Zn117 2.025 . S
H121 C113 0.952 . S
H122 C104 0.952 . S
H123 C112 0.948 . S
O124 Zn109 2.034 . S
O124 C119 1.246 . S
O125 Zn117 2.024 . S
O125 C119 1.249 . S
H126 C108 0.948 . S
O127 Zn117 2.039 . S
O127 C131 1.251 1_545 S
O128 Zn109 2.025 . S
O128 C131 1.254 1_545 S
O129 C110 1.246 . S
O129 Zn117 2.034 . S
O130 Zn109 2.024 . S
O130 C110 1.249 . S
C131 O127 1.251 1_565 S
C131 O128 1.254 1_565 S
H132 C105 0.949 . S
H133 C107 0.950 . S
H134 C114 0.949 1_565 S
H135 C116 0.950 . S
C136 O152 1.251 . S
C136 O154 1.254 . S
N137 C138 1.333 . S
N137 C142 1.307 . S
N137 Zn143 2.020 . S
C138 N137 1.333 . S
C138 C139 1.379 . S
C138 H156 0.952 . S
C139 C138 1.379 . S
C139 C140 1.390 . S
C139 H166 0.949 . S
C140 C139 1.390 . S
C140 C141 1.357 . S
C141 C140 1.357 . S
C141 C142 1.370 . S
C141 H167 0.950 . S
C142 N137 1.307 . S
C142 C141 1.370 . S
C142 H160 0.948 . S
Zn143 N137 2.020 . S
Zn143 O152 2.039 . S
Zn143 O158 2.034 . S
Zn143 O162 2.025 . S
Zn143 O164 2.024 . S
C144 O163 1.246 . S
C144 O164 1.249 . S
N145 C146 1.307 . S
N145 C147 1.333 . S
N145 Zn151 2.020 . S
C146 N145 1.307 . S
C146 C150 1.370 . S
C146 H157 0.948 . S
C147 N145 1.333 . S
C147 C148 1.379 . S
C147 H155 0.952 . S
C148 C147 1.379 . S
C148 C149 1.390 . S
C148 H168 0.949 . S
C149 C148 1.390 . S
C149 C150 1.357 . S
C150 C146 1.370 . S
C150 C149 1.357 . S
C150 H169 0.950 . S
Zn151 N145 2.020 . S
Zn151 O154 2.025 . S
Zn151 O159 2.024 . S
Zn151 O161 2.039 . S
Zn151 O163 2.034 . S
O152 C136 1.251 . S
O152 Zn143 2.039 . S
C153 O158 1.246 . S
C153 O159 1.249 . S
O154 C136 1.254 . S
O154 Zn151 2.025 . S
H155 C147 0.952 . S
H156 C138 0.952 . S
H157 C146 0.948 . S
O158 Zn143 2.034 . S
O158 C153 1.246 . S
O159 Zn151 2.024 . S
O159 C153 1.249 . S
H160 C142 0.948 . S
O161 Zn151 2.039 . S
O161 C165 1.251 . S
O162 Zn143 2.025 . S
O162 C165 1.254 . S
O163 C144 1.246 . S
O163 Zn151 2.034 . S
O164 Zn143 2.024 . S
O164 C144 1.249 . S
C165 O161 1.251 . S
C165 O162 1.254 . S
H166 C139 0.949 . S
H167 C141 0.950 . S
H168 C148 0.949 . S
H169 C150 0.950 . S
C170 O186 1.251 . S
C170 O188 1.254 . S
N171 C172 1.333 . S
N171 C176 1.307 . S
N171 Zn177 2.020 . S
C172 N171 1.333 . S
C172 C173 1.379 . S
C172 H190 0.952 . S
C173 C172 1.379 . S
C173 C174 1.390 . S
C173 H200 0.949 . S
C174 C173 1.390 . S
C174 C175 1.357 . S
C175 C174 1.357 . S
C175 C176 1.370 . S
C175 H201 0.950 . S
C176 N171 1.307 . S
C176 C175 1.370 . S
C176 H194 0.948 . S
Zn177 N171 2.020 . S
Zn177 O186 2.039 . S
Zn177 O192 2.034 . S
Zn177 O196 2.025 . S
Zn177 O198 2.024 . S
C178 O197 1.246 . S
C178 O198 1.249 . S
N179 C180 1.307 . S
N179 C181 1.333 . S
N179 Zn185 2.020 . S
C180 N179 1.307 . S
C180 C184 1.370 . S
C180 H191 0.948 . S
C181 N179 1.333 . S
C181 C182 1.379 . S
C181 H189 0.952 . S
C182 C181 1.379 . S
C182 C183 1.390 . S
C182 H202 0.949 1_655 S
C183 C182 1.390 . S
C183 C184 1.357 . S
C184 C180 1.370 . S
C184 C183 1.357 . S
C184 H203 0.950 . S
Zn185 N179 2.020 . S
Zn185 O188 2.025 . S
Zn185 O193 2.024 . S
Zn185 O195 2.039 . S
Zn185 O197 2.034 . S
O186 C170 1.251 . S
O186 Zn177 2.039 . S
C187 O192 1.246 . S
C187 O193 1.249 . S
O188 C170 1.254 . S
O188 Zn185 2.025 . S
H189 C181 0.952 . S
H190 C172 0.952 . S
H191 C180 0.948 . S
O192 Zn177 2.034 . S
O192 C187 1.246 . S
O193 Zn185 2.024 . S
O193 C187 1.249 . S
H194 C176 0.948 . S
O195 Zn185 2.039 . S
O195 C199 1.251 1_655 S
O196 Zn177 2.025 . S
O196 C199 1.254 1_655 S
O197 C178 1.246 . S
O197 Zn185 2.034 . S
O198 Zn177 2.024 . S
O198 C178 1.249 . S
C199 O195 1.251 1_455 S
C199 O196 1.254 1_455 S
H200 C173 0.949 . S
H201 C175 0.950 . S
H202 C182 0.949 1_455 S
H203 C184 0.950 . S
C204 O220 1.251 . S
C204 O222 1.254 . S
N205 C206 1.333 . S
N205 C210 1.307 . S
N205 Zn211 2.020 . S
C206 N205 1.333 . S
C206 C207 1.379 . S
C206 H224 0.952 . S
C207 C206 1.379 . S
C207 C208 1.390 . S
C207 H234 0.949 . S
C208 C207 1.390 . S
C208 C209 1.357 . S
C209 C208 1.357 . S
C209 C210 1.370 . S
C209 H235 0.950 . S
C210 N205 1.307 . S
C210 C209 1.370 . S
C210 H228 0.948 . S
Zn211 N205 2.020 . S
Zn211 O220 2.039 . S
Zn211 O226 2.034 . S
Zn211 O230 2.025 . S
Zn211 O232 2.024 . S
C212 O231 1.246 . S
C212 O232 1.249 . S
N213 C214 1.307 . S
N213 C215 1.333 . S
N213 Zn219 2.020 . S
C214 N213 1.307 . S
C214 C218 1.370 . S
C214 H225 0.948 . S
C215 N213 1.333 . S
C215 C216 1.379 . S
C215 H223 0.952 . S
C216 C215 1.379 . S
C216 C217 1.390 . S
C216 H236 0.949 1_455 S
C217 C216 1.390 . S
C217 C218 1.357 . S
C218 C214 1.370 . S
C218 C217 1.357 . S
C218 H237 0.950 . S
Zn219 N213 2.020 . S
Zn219 O222 2.025 . S
Zn219 O227 2.024 . S
Zn219 O229 2.039 . S
Zn219 O231 2.034 . S
O220 C204 1.251 . S
O220 Zn211 2.039 . S
C221 O226 1.246 . S
C221 O227 1.249 . S
O222 C204 1.254 . S
O222 Zn219 2.025 . S
H223 C215 0.952 . S
H224 C206 0.952 . S
H225 C214 0.948 . S
O226 Zn211 2.034 . S
O226 C221 1.246 . S
O227 Zn219 2.024 . S
O227 C221 1.249 . S
H228 C210 0.948 . S
O229 Zn219 2.039 . S
O229 C233 1.251 1_455 S
O230 Zn211 2.025 . S
O230 C233 1.254 1_455 S
O231 C212 1.246 . S
O231 Zn219 2.034 . S
O232 Zn211 2.024 . S
O232 C212 1.249 . S
C233 O229 1.251 1_655 S
C233 O230 1.254 1_655 S
H234 C207 0.949 . S
H235 C209 0.950 . S
H236 C216 0.949 1_655 S
H237 C218 0.950 . S
C238 O254 1.251 1_545 S
C238 O256 1.254 1_545 S
N239 C240 1.333 . S
N239 C244 1.307 . S
N239 Zn245 2.020 . S
C240 N239 1.333 . S
C240 C241 1.379 . S
C240 H258 0.952 . S
C241 C240 1.379 . S
C241 C242 1.390 . S
C241 H268 0.949 1_565 S
C242 C241 1.390 . S
C242 C243 1.357 . S
C243 C242 1.357 . S
C243 C244 1.370 . S
C243 H269 0.950 . S
C244 N239 1.307 . S
C244 C243 1.370 . S
C244 H262 0.948 . S
Zn245 N239 2.020 . S
Zn245 O254 2.039 . S
Zn245 O260 2.034 . S
Zn245 O264 2.025 . S
Zn245 O266 2.024 . S
C246 O265 1.246 . S
C246 O266 1.249 . S
N247 C248 1.307 . S
N247 C249 1.333 . S
N247 Zn253 2.020 . S
C248 N247 1.307 . S
C248 C252 1.370 . S
C248 H259 0.948 . S
C249 N247 1.333 . S
C249 C250 1.379 . S
C249 H257 0.952 . S
C250 C249 1.379 . S
C250 C251 1.390 . S
C250 H270 0.949 . S
C251 C250 1.390 . S
C251 C252 1.357 . S
C252 C248 1.370 . S
C252 C251 1.357 . S
C252 H271 0.950 . S
Zn253 N247 2.020 . S
Zn253 O256 2.025 . S
Zn253 O261 2.024 . S
Zn253 O263 2.039 . S
Zn253 O265 2.034 . S
O254 C238 1.251 1_565 S
O254 Zn245 2.039 . S
C255 O260 1.246 . S
C255 O261 1.249 . S
O256 C238 1.254 1_565 S
O256 Zn253 2.025 . S
H257 C249 0.952 . S
H258 C240 0.952 . S
H259 C248 0.948 . S
O260 Zn245 2.034 . S
O260 C255 1.246 . S
O261 Zn253 2.024 . S
O261 C255 1.249 . S
H262 C244 0.948 . S
O263 Zn253 2.039 . S
O263 C267 1.251 . S
O264 Zn245 2.025 . S
O264 C267 1.254 . S
O265 C246 1.246 . S
O265 Zn253 2.034 . S
O266 Zn245 2.024 . S
O266 C246 1.249 . S
C267 O263 1.251 . S
C267 O264 1.254 . S
H268 C241 0.949 1_545 S
H269 C243 0.950 . S
H270 C250 0.949 . S
H271 C252 0.950 . S
C272 O288 1.251 . S
C272 O290 1.254 . S
N273 C274 1.333 . S
N273 C278 1.307 . S
N273 Zn279 2.020 . S
C274 N273 1.333 . S
C274 C275 1.379 . S
C274 H292 0.952 . S
C275 C274 1.379 . S
C275 C276 1.390 . S
C275 H302 0.949 . S
C276 C275 1.390 . S
C276 C277 1.357 . S
C277 C276 1.357 . S
C277 C278 1.370 . S
C277 H303 0.950 . S
C278 N273 1.307 . S
C278 C277 1.370 . S
C278 H296 0.948 . S
Zn279 N273 2.020 . S
Zn279 O288 2.039 . S
Zn279 O294 2.034 . S
Zn279 O298 2.025 . S
Zn279 O300 2.024 . S
C280 O299 1.246 . S
C280 O300 1.249 . S
N281 C282 1.307 . S
N281 C283 1.333 . S
N281 Zn287 2.020 . S
C282 N281 1.307 . S
C282 C286 1.370 . S
C282 H293 0.948 . S
C283 N281 1.333 . S
C283 C284 1.379 . S
C283 H291 0.952 . S
C284 C283 1.379 . S
C284 C285 1.390 . S
C284 H304 0.949 . S
C285 C284 1.390 . S
C285 C286 1.357 . S
C286 C282 1.370 . S
C286 C285 1.357 . S
C286 H305 0.950 . S
Zn287 N281 2.020 . S
Zn287 O290 2.025 . S
Zn287 O295 2.024 . S
Zn287 O297 2.039 . S
Zn287 O299 2.034 . S
O288 C272 1.251 . S
O288 Zn279 2.039 . S
C289 O294 1.246 . S
C289 O295 1.249 . S
O290 C272 1.254 . S
O290 Zn287 2.025 . S
H291 C283 0.952 . S
H292 C274 0.952 . S
H293 C282 0.948 . S
O294 Zn279 2.034 . S
O294 C289 1.246 . S
O295 Zn287 2.024 . S
O295 C289 1.249 . S
H296 C278 0.948 . S
O297 Zn287 2.039 . S
O297 C301 1.251 . S
O298 Zn279 2.025 . S
O298 C301 1.254 . S
O299 C280 1.246 . S
O299 Zn287 2.034 . S
O300 Zn279 2.024 . S
O300 C280 1.249 . S
C301 O297 1.251 . S
C301 O298 1.254 . S
H302 C275 0.949 . S
H303 C277 0.950 . S
H304 C284 0.949 . S
H305 C286 0.950 . S
C306 O322 1.251 1_655 S
C306 O324 1.254 1_655 S
N307 C308 1.333 . S
N307 C312 1.307 . S
N307 Zn313 2.020 . S
C308 N307 1.333 . S
C308 C309 1.379 . S
C308 H326 0.952 . S
C309 C308 1.379 . S
C309 C310 1.390 . S
C309 H336 0.949 1_455 S
C310 C309 1.390 . S
C310 C311 1.357 . S
C311 C310 1.357 . S
C311 C312 1.370 . S
C311 H337 0.950 . S
C312 N307 1.307 . S
C312 C311 1.370 . S
C312 H330 0.948 . S
Zn313 N307 2.020 . S
Zn313 O322 2.039 . S
Zn313 O328 2.034 . S
Zn313 O332 2.025 . S
Zn313 O334 2.024 . S
C314 O333 1.246 . S
C314 O334 1.249 . S
N315 C316 1.307 . S
N315 C317 1.333 . S
N315 Zn321 2.020 . S
C316 N315 1.307 . S
C316 C320 1.370 . S
C316 H327 0.948 . S
C317 N315 1.333 . S
C317 C318 1.379 . S
C317 H325 0.952 . S
C318 C317 1.379 . S
C318 C319 1.390 . S
C318 H338 0.949 . S
C319 C318 1.390 . S
C319 C320 1.357 . S
C320 C316 1.370 . S
C320 C319 1.357 . S
C320 H339 0.950 . S
Zn321 N315 2.020 . S
Zn321 O324 2.025 . S
Zn321 O329 2.024 . S
Zn321 O331 2.039 . S
Zn321 O333 2.034 . S
O322 C306 1.251 1_455 S
O322 Zn313 2.039 . S
C323 O328 1.246 . S
C323 O329 1.249 . S
O324 C306 1.254 1_455 S
O324 Zn321 2.025 . S
H325 C317 0.952 . S
H326 C308 0.952 . S
H327 C316 0.948 . S
O328 Zn313 2.034 . S
O328 C323 1.246 . S
O329 Zn321 2.024 . S
O329 C323 1.249 . S
H330 C312 0.948 . S
O331 Zn321 2.039 . S
O331 C335 1.251 . S
O332 Zn313 2.025 . S
O332 C335 1.254 . S
O333 C314 1.246 . S
O333 Zn321 2.034 . S
O334 Zn313 2.024 . S
O334 C314 1.249 . S
C335 O331 1.251 . S
C335 O332 1.254 . S
H336 C309 0.949 1_655 S
H337 C311 0.950 . S
H338 C318 0.949 . S
H339 C320 0.950 . S
C340 O356 1.251 . S
C340 O358 1.254 . S
N341 C342 1.333 . S
N341 C346 1.307 . S
N341 Zn347 2.020 . S
C342 N341 1.333 . S
C342 C343 1.379 . S
C342 H360 0.952 . S
C343 C342 1.379 . S
C343 C344 1.390 . S
C343 H370 0.949 . S
C344 C343 1.390 . S
C344 C345 1.357 . S
C345 C344 1.357 . S
C345 C346 1.370 . S
C345 H371 0.950 . S
C346 N341 1.307 . S
C346 C345 1.370 . S
C346 H364 0.948 . S
Zn347 N341 2.020 . S
Zn347 O356 2.039 . S
Zn347 O362 2.034 . S
Zn347 O366 2.025 . S
Zn347 O368 2.024 . S
C348 O367 1.246 . S
C348 O368 1.249 . S
N349 C350 1.307 . S
N349 C351 1.333 . S
N349 Zn355 2.020 . S
C350 N349 1.307 . S
C350 C354 1.370 . S
C350 H361 0.948 . S
C351 N349 1.333 . S
C351 C352 1.379 . S
C351 H359 0.952 . S
C352 C351 1.379 . S
C352 C353 1.390 . S
C352 H372 0.949 1_565 S
C353 C352 1.390 . S
C353 C354 1.357 . S
C354 C350 1.370 . S
C354 C353 1.357 . S
C354 H373 0.950 . S
Zn355 N349 2.020 . S
Zn355 O358 2.025 . S
Zn355 O363 2.024 . S
Zn355 O365 2.039 . S
Zn355 O367 2.034 . S
O356 C340 1.251 . S
O356 Zn347 2.039 . S
C357 O362 1.246 . S
C357 O363 1.249 . S
O358 C340 1.254 . S
O358 Zn355 2.025 . S
H359 C351 0.952 . S
H360 C342 0.952 . S
H361 C350 0.948 . S
O362 Zn347 2.034 . S
O362 C357 1.246 . S
O363 Zn355 2.024 . S
O363 C357 1.249 . S
H364 C346 0.948 . S
O365 Zn355 2.039 . S
O365 C369 1.251 1_565 S
O366 Zn347 2.025 . S
O366 C369 1.254 1_565 S
O367 C348 1.246 . S
O367 Zn355 2.034 . S
O368 Zn347 2.024 . S
O368 C348 1.249 . S
C369 O365 1.251 1_545 S
C369 O366 1.254 1_545 S
H370 C343 0.949 . S
H371 C345 0.950 . S
H372 C352 0.949 1_545 S
H373 C354 0.950 . S
C374 O390 1.251 . S
C374 O392 1.254 . S
N375 C376 1.333 . S
N375 C380 1.307 . S
N375 Zn381 2.020 . S
C376 N375 1.333 . S
C376 C377 1.379 . S
C376 H394 0.952 . S
C377 C376 1.379 . S
C377 C378 1.390 . S
C377 H404 0.949 . S
C378 C377 1.390 . S
C378 C379 1.357 . S
C379 C378 1.357 . S
C379 C380 1.370 . S
C379 H405 0.950 . S
C380 N375 1.307 . S
C380 C379 1.370 . S
C380 H398 0.948 . S
Zn381 N375 2.020 . S
Zn381 O390 2.039 . S
Zn381 O396 2.034 . S
Zn381 O400 2.025 . S
Zn381 O402 2.024 . S
C382 O401 1.246 . S
C382 O402 1.249 . S
N383 C384 1.307 . S
N383 C385 1.333 . S
N383 Zn389 2.020 . S
C384 N383 1.307 . S
C384 C388 1.370 . S
C384 H395 0.948 . S
C385 N383 1.333 . S
C385 C386 1.379 . S
C385 H393 0.952 . S
C386 C385 1.379 . S
C386 C387 1.390 . S
C386 H406 0.949 . S
C387 C386 1.390 . S
C387 C388 1.357 . S
C388 C384 1.370 . S
C388 C387 1.357 . S
C388 H407 0.950 . S
Zn389 N383 2.020 . S
Zn389 O392 2.025 . S
Zn389 O397 2.024 . S
Zn389 O399 2.039 . S
Zn389 O401 2.034 . S
O390 C374 1.251 . S
O390 Zn381 2.039 . S
C391 O396 1.246 . S
C391 O397 1.249 . S
O392 C374 1.254 . S
O392 Zn389 2.025 . S
H393 C385 0.952 . S
H394 C376 0.952 . S
H395 C384 0.948 . S
O396 Zn381 2.034 . S
O396 C391 1.246 . S
O397 Zn389 2.024 . S
O397 C391 1.249 . S
H398 C380 0.948 . S
O399 Zn389 2.039 . S
O399 C403 1.251 . S
O400 Zn381 2.025 . S
O400 C403 1.254 . S
O401 C382 1.246 . S
O401 Zn389 2.034 . S
O402 Zn381 2.024 . S
O402 C382 1.249 . S
C403 O399 1.251 . S
C403 O400 1.254 . S
H404 C377 0.949 . S
H405 C379 0.950 . S
H406 C386 0.949 . S
H407 C388 0.950 . S
C408 C409 1.387 . S
C408 H412 0.950 . S
C408 C417 1.390 . S
C409 C408 1.387 . S
C409 C411 1.387 . S
H410 C417 0.950 . S
C411 C409 1.387 . S
C411 C413 1.390 . S
C411 H415 0.950 . S
H412 C408 0.950 . S
C413 C411 1.390 . S
C413 C414 1.387 . S
C413 H416 0.950 . S
C414 C413 1.387 . S
C414 C417 1.387 . S
H415 C411 0.950 . S
H416 C413 0.950 . S
C417 C408 1.390 . S
C417 H410 0.950 . S
C417 C414 1.387 . S
C418 C419 1.387 . S
C418 H422 0.950 . S
C418 C427 1.390 . S
C419 C418 1.387 . S
C419 C421 1.387 . S
H420 C427 0.950 . S
C421 C419 1.387 . S
C421 C423 1.390 . S
C421 H425 0.950 . S
H422 C418 0.950 . S
C423 C421 1.390 . S
C423 C424 1.387 . S
C423 H426 0.950 . S
C424 C423 1.387 . S
C424 C427 1.387 . S
H425 C421 0.950 . S
H426 C423 0.950 . S
C427 C418 1.390 . S
C427 H420 0.950 . S
C427 C424 1.387 . S
C428 C429 1.387 . S
C428 H432 0.950 . S
C428 C437 1.390 . S
C429 C428 1.387 . S
C429 C431 1.387 . S
H430 C437 0.950 . S
C431 C429 1.387 . S
C431 C433 1.390 . S
C431 H435 0.950 . S
H432 C428 0.950 . S
C433 C431 1.390 . S
C433 C434 1.387 . S
C433 H436 0.950 . S
C434 C433 1.387 . S
C434 C437 1.387 . S
H435 C431 0.950 . S
H436 C433 0.950 . S
C437 C428 1.390 . S
C437 H430 0.950 . S
C437 C434 1.387 . S
C438 C439 1.387 . S
C438 H442 0.950 . S
C438 C447 1.390 . S
C439 C438 1.387 . S
C439 C441 1.387 . S
H440 C447 0.950 . S
C441 C439 1.387 . S
C441 C443 1.390 . S
C441 H445 0.950 . S
H442 C438 0.950 . S
C443 C441 1.390 . S
C443 C444 1.387 . S
C443 H446 0.950 . S
C444 C443 1.387 . S
C444 C447 1.387 . S
H445 C441 0.950 . S
H446 C443 0.950 . S
C447 C438 1.390 . S
C447 H440 0.950 . S
C447 C444 1.387 . S
C448 C449 1.387 . S
C448 H452 0.950 . S
C448 C457 1.390 . S
C449 C448 1.387 . S
C449 C451 1.387 . S
H450 C457 0.950 . S
C451 C449 1.387 . S
C451 C453 1.390 . S
C451 H455 0.950 . S
H452 C448 0.950 . S
C453 C451 1.390 . S
C453 C454 1.387 . S
C453 H456 0.950 . S
C454 C453 1.387 . S
C454 C457 1.387 . S
H455 C451 0.950 . S
H456 C453 0.950 . S
C457 C448 1.390 . S
C457 H450 0.950 . S
C457 C454 1.387 . S
C458 C459 1.387 . S
C458 H462 0.950 . S
C458 C467 1.390 . S
C459 C458 1.387 . S
C459 C461 1.387 . S
H460 C467 0.950 . S
C461 C459 1.387 . S
C461 C463 1.390 . S
C461 H465 0.950 . S
H462 C458 0.950 . S
C463 C461 1.390 . S
C463 C464 1.387 . S
C463 H466 0.950 . S
C464 C463 1.387 . S
C464 C467 1.387 . S
H465 C461 0.950 . S
H466 C463 0.950 . S
C467 C458 1.390 . S
C467 H460 0.950 . S
C467 C464 1.387 . S
C468 C469 1.387 . S
C468 H472 0.950 . S
C468 C477 1.390 . S
C469 C468 1.387 . S
C469 C471 1.387 . S
H470 C477 0.950 . S
C471 C469 1.387 . S
C471 C473 1.390 . S
C471 H475 0.950 . S
H472 C468 0.950 . S
C473 C471 1.390 . S
C473 C474 1.387 . S
C473 H476 0.950 . S
C474 C473 1.387 . S
C474 C477 1.387 . S
H475 C471 0.950 . S
H476 C473 0.950 . S
C477 C468 1.390 . S
C477 H470 0.950 . S
C477 C474 1.387 . S
C478 C479 1.387 . S
C478 H482 0.950 . S
C478 C487 1.390 . S
C479 C478 1.387 . S
C479 C481 1.387 . S
H480 C487 0.950 . S
C481 C479 1.387 . S
C481 C483 1.390 . S
C481 H485 0.950 . S
H482 C478 0.950 . S
C483 C481 1.390 . S
C483 C484 1.387 . S
C483 H486 0.950 . S
C484 C483 1.387 . S
C484 C487 1.387 . S
H485 C481 0.950 . S
H486 C483 0.950 . S
C487 C478 1.390 . S
C487 H480 0.950 . S
C487 C484 1.387 . S
C488 C489 1.387 . S
C488 H492 0.950 . S
C488 C497 1.390 . S
C489 C488 1.387 . S
C489 C491 1.387 . S
H490 C497 0.950 . S
C491 C489 1.387 . S
C491 C493 1.390 . S
C491 H495 0.950 . S
H492 C488 0.950 . S
C493 C491 1.390 . S
C493 C494 1.387 . S
C493 H496 0.950 . S
C494 C493 1.387 . S
C494 C497 1.387 . S
H495 C491 0.950 . S
H496 C493 0.950 . S
C497 C488 1.390 . S
C497 H490 0.950 . S
C497 C494 1.387 . S
C498 C499 1.387 . S
C498 H502 0.950 . S
C498 C507 1.390 . S
C499 C498 1.387 . S
C499 C501 1.387 . S
H500 C507 0.950 . S
C501 C499 1.387 . S
C501 C503 1.390 . S
C501 H505 0.950 . S
H502 C498 0.950 . S
C503 C501 1.390 . S
C503 C504 1.387 . S
C503 H506 0.950 . S
C504 C503 1.387 . S
C504 C507 1.387 . S
H505 C501 0.950 . S
H506 C503 0.950 . S
C507 C498 1.390 . S
C507 H500 0.950 . S
C507 C504 1.387 . S
C508 C509 1.387 . S
C508 H512 0.950 . S
C508 C517 1.390 . S
C509 C508 1.387 . S
C509 C511 1.387 . S
H510 C517 0.950 . S
C511 C509 1.387 . S
C511 C513 1.390 . S
C511 H515 0.950 . S
H512 C508 0.950 . S
C513 C511 1.390 . S
C513 C514 1.387 . S
C513 H516 0.950 . S
C514 C513 1.387 . S
C514 C517 1.387 . S
H515 C511 0.950 . S
H516 C513 0.950 . S
C517 C508 1.390 . S
C517 H510 0.950 . S
C517 C514 1.387 . S
C518 C519 1.387 . S
C518 H522 0.950 . S
C518 C527 1.390 . S
C519 C518 1.387 . S
C519 C521 1.387 . S
H520 C527 0.950 . S
C521 C519 1.387 . S
C521 C523 1.390 . S
C521 H525 0.950 . S
H522 C518 0.950 . S
C523 C521 1.390 . S
C523 C524 1.387 . S
C523 H526 0.950 . S
C524 C523 1.387 . S
C524 C527 1.387 . S
H525 C521 0.950 . S
H526 C523 0.950 . S
C527 C518 1.390 . S
C527 H520 0.950 . S
C527 C524 1.387 . S
C528 C529 1.387 . S
C528 H532 0.950 . S
C528 C537 1.390 . S
C529 C528 1.387 . S
C529 C531 1.387 . S
H530 C537 0.950 . S
C531 C529 1.387 . S
C531 C533 1.390 . S
C531 H535 0.950 . S
H532 C528 0.950 . S
C533 C531 1.390 . S
C533 C534 1.387 . S
C533 H536 0.950 . S
C534 C533 1.387 . S
C534 C537 1.387 . S
H535 C531 0.950 . S
H536 C533 0.950 . S
C537 C528 1.390 . S
C537 H530 0.950 . S
C537 C534 1.387 . S
C538 C539 1.387 . S
C538 H542 0.950 . S
C538 C547 1.390 . S
C539 C538 1.387 . S
C539 C541 1.387 . S
H540 C547 0.950 . S
C541 C539 1.387 . S
C541 C543 1.390 . S
C541 H545 0.950 . S
H542 C538 0.950 . S
C543 C541 1.390 . S
C543 C544 1.387 . S
C543 H546 0.950 . S
C544 C543 1.387 . S
C544 C547 1.387 . S
H545 C541 0.950 . S
H546 C543 0.950 . S
C547 C538 1.390 . S
C547 H540 0.950 . S
C547 C544 1.387 . S
C548 C549 1.387 . S
C548 H552 0.950 . S
C548 C557 1.390 . S
C549 C548 1.387 . S
C549 C551 1.387 . S
H550 C557 0.950 . S
C551 C549 1.387 . S
C551 C553 1.390 . S
C551 H555 0.950 . S
H552 C548 0.950 . S
C553 C551 1.390 . S
C553 C554 1.387 . S
C553 H556 0.950 . S
C554 C553 1.387 . S
C554 C557 1.387 . S
H555 C551 0.950 . S
H556 C553 0.950 . S
C557 C548 1.390 . S
C557 H550 0.950 . S
C557 C554 1.387 . S
C558 C559 1.387 . S
C558 H562 0.950 . S
C558 C567 1.390 . S
C559 C558 1.387 . S
C559 C561 1.387 . S
H560 C567 0.950 . S
C561 C559 1.387 . S
C561 C563 1.390 . S
C561 H565 0.950 . S
H562 C558 0.950 . S
C563 C561 1.390 . S
C563 C564 1.387 . S
C563 H566 0.950 . S
C564 C563 1.387 . S
C564 C567 1.387 . S
H565 C561 0.950 . S
H566 C563 0.950 . S
C567 C558 1.390 . S
C567 H560 0.950 . S
C567 C564 1.387 . S
C568 C569 1.387 . S
C568 H572 0.950 . S
C568 C577 1.390 . S
C569 C568 1.387 . S
C569 C571 1.387 . S
H570 C577 0.950 . S
C571 C569 1.387 . S
C571 C573 1.390 . S
C571 H575 0.950 . S
H572 C568 0.950 . S
C573 C571 1.390 . S
C573 C574 1.387 . S
C573 H576 0.950 . S
C574 C573 1.387 . S
C574 C577 1.387 . S
H575 C571 0.950 . S
H576 C573 0.950 . S
C577 C568 1.390 . S
C577 H570 0.950 . S
C577 C574 1.387 . S
C578 C579 1.387 . S
C578 H582 0.950 . S
C578 C587 1.390 . S
C579 C578 1.387 . S
C579 C581 1.387 . S
H580 C587 0.950 . S
C581 C579 1.387 . S
C581 C583 1.390 . S
C581 H585 0.950 . S
H582 C578 0.950 . S
C583 C581 1.390 . S
C583 C584 1.387 . S
C583 H586 0.950 . S
C584 C583 1.387 . S
C584 C587 1.387 . S
H585 C581 0.950 . S
H586 C583 0.950 . S
C587 C578 1.390 . S
C587 H580 0.950 . S
C587 C584 1.387 . S
C588 C589 1.387 . S
C588 H592 0.950 . S
C588 C597 1.390 1_566 S
C589 C588 1.387 . S
C589 C591 1.387 . S
H590 C597 0.950 . S
C591 C589 1.387 . S
C591 C593 1.390 1_566 S
C591 H595 0.950 . S
H592 C588 0.950 . S
C593 C591 1.390 1_544 S
C593 C594 1.387 . S
C593 H596 0.950 . S
C594 C593 1.387 . S
C594 C597 1.387 . S
H595 C591 0.950 . S
H596 C593 0.950 . S
C597 C588 1.390 1_544 S
C597 H590 0.950 . S
C597 C594 1.387 . S
C598 C599 1.387 . S
C598 H602 0.950 . S
C598 C607 1.390 . S
C599 C598 1.387 . S
C599 C601 1.387 . S
H600 C607 0.950 . S
C601 C599 1.387 . S
C601 C603 1.390 . S
C601 H605 0.950 . S
H602 C598 0.950 . S
C603 C601 1.390 . S
C603 C604 1.387 . S
C603 H606 0.950 . S
C604 C603 1.387 . S
C604 C607 1.387 . S
H605 C601 0.950 . S
H606 C603 0.950 . S
C607 C598 1.390 . S
C607 H600 0.950 . S
C607 C604 1.387 . S
C608 C609 1.387 1_655 S
C608 H612 0.950 . S
C608 C617 1.395 1_556 S
C609 C608 1.387 1_455 S
C609 C611 1.383 . S
H610 C617 0.950 . S
C611 C609 1.383 . S
C611 C613 1.395 1_556 S
C611 H615 0.950 . S
H612 C608 0.950 . S
C613 C611 1.395 1_554 S
C613 C614 1.387 1_455 S
C613 H616 0.950 . S
C614 C613 1.387 1_655 S
C614 C617 1.383 . S
H615 C611 0.950 . S
H616 C613 0.950 . S
C617 C608 1.395 1_554 S
C617 H610 0.950 . S
C617 C614 1.383 . S
C618 C619 1.387 . S
C618 H622 0.950 . S
C618 C627 1.390 1_545 S
C619 C618 1.387 . S
C619 C621 1.387 . S
H620 C627 0.950 . S
C621 C619 1.387 . S
C621 C623 1.390 1_545 S
C621 H625 0.950 . S
H622 C618 0.950 . S
C623 C621 1.390 1_565 S
C623 C624 1.387 . S
C623 H626 0.950 . S
C624 C623 1.387 . S
C624 C627 1.387 . S
H625 C621 0.950 . S
H626 C623 0.950 . S
C627 C618 1.390 1_565 S
C627 H620 0.950 . S
C627 C624 1.387 . S
C628 C629 1.387 . S
C628 H632 0.950 . S
C628 C637 1.390 1_554 S
C629 C628 1.387 . S
C629 C631 1.387 . S
H630 C637 0.950 . S
C631 C629 1.387 . S
C631 C633 1.390 1_554 S
C631 H635 0.950 . S
H632 C628 0.950 . S
C633 C631 1.390 1_556 S
C633 C634 1.387 . S
C633 H636 0.950 . S
C634 C633 1.387 . S
C634 C637 1.387 . S
H635 C631 0.950 . S
H636 C633 0.950 . S
C637 C628 1.390 1_556 S
C637 H630 0.950 . S
C637 C634 1.387 . S
C638 C639 1.387 . S
C638 H642 0.950 . S
C638 C647 1.390 1_455 S
C639 C638 1.387 . S
C639 C641 1.387 . S
H640 C647 0.950 . S
C641 C639 1.387 . S
C641 C643 1.390 1_455 S
C641 H645 0.950 . S
H642 C638 0.950 . S
C643 C641 1.390 1_655 S
C643 C644 1.387 . S
C643 H646 0.950 . S
C644 C643 1.387 . S
C644 C647 1.387 . S
H645 C641 0.950 . S
H646 C643 0.950 . S
C647 C638 1.390 1_655 S
C647 H640 0.950 . S
C647 C644 1.387 . S
C648 C649 1.387 . S
C648 H652 0.950 . S
C648 C657 1.390 . S
C649 C648 1.387 . S
C649 C651 1.387 . S
H650 C657 0.950 . S
C651 C649 1.387 . S
C651 C653 1.390 . S
C651 H655 0.950 . S
H652 C648 0.950 . S
C653 C651 1.390 . S
C653 C654 1.387 . S
C653 H656 0.950 . S
C654 C653 1.387 . S
C654 C657 1.387 . S
H655 C651 0.950 . S
H656 C653 0.950 . S
C657 C648 1.390 . S
C657 H650 0.950 . S
C657 C654 1.387 . S
C658 C659 1.387 . S
C658 H662 0.950 . S
C658 C667 1.390 . S
C659 C658 1.387 . S
C659 C661 1.387 . S
H660 C667 0.950 . S
C661 C659 1.387 . S
C661 C663 1.390 . S
C661 H665 0.950 . S
H662 C658 0.950 . S
C663 C661 1.390 . S
C663 C664 1.387 . S
C663 H666 0.950 . S
C664 C663 1.387 . S
C664 C667 1.387 . S
H665 C661 0.950 . S
H666 C663 0.950 . S
C667 C658 1.390 . S
C667 H660 0.950 . S
C667 C664 1.387 . S
C668 C669 1.387 . S
C668 H672 0.950 . S
C668 C677 1.390 . S
C669 C668 1.387 . S
C669 C671 1.387 . S
H670 C677 0.950 . S
C671 C669 1.387 . S
C671 C673 1.390 . S
C671 H675 0.950 . S
H672 C668 0.950 . S
C673 C671 1.390 . S
C673 C674 1.387 . S
C673 H676 0.950 . S
C674 C673 1.387 . S
C674 C677 1.387 . S
H675 C671 0.950 . S
H676 C673 0.950 . S
C677 C668 1.390 . S
C677 H670 0.950 . S
C677 C674 1.387 . S
C678 C679 1.387 . S
C678 H682 0.950 . S
C678 C687 1.390 . S
C679 C678 1.387 . S
C679 C681 1.387 . S
H680 C687 0.950 . S
C681 C679 1.387 . S
C681 C683 1.390 . S
C681 H685 0.950 . S
H682 C678 0.950 . S
C683 C681 1.390 . S
C683 C684 1.387 . S
C683 H686 0.950 . S
C684 C683 1.387 . S
C684 C687 1.387 . S
H685 C681 0.950 . S
H686 C683 0.950 . S
C687 C678 1.390 . S
C687 H680 0.950 . S
C687 C684 1.387 . S
C688 C689 1.387 . S
C688 H692 0.950 . S
C688 C697 1.390 . S
C689 C688 1.387 . S
C689 C691 1.387 . S
H690 C697 0.950 . S
C691 C689 1.387 . S
C691 C693 1.390 . S
C691 H695 0.950 . S
H692 C688 0.950 . S
C693 C691 1.390 . S
C693 C694 1.387 . S
C693 H696 0.950 . S
C694 C693 1.387 . S
C694 C697 1.387 . S
H695 C691 0.950 . S
H696 C693 0.950 . S
C697 C688 1.390 . S
C697 H690 0.950 . S
C697 C694 1.387 . S
C698 C699 1.387 . S
C698 H702 0.950 . S
C698 C707 1.390 . S
C699 C698 1.387 . S
C699 C701 1.387 . S
H700 C707 0.950 . S
C701 C699 1.387 . S
C701 C703 1.390 . S
C701 H705 0.950 . S
H702 C698 0.950 . S
C703 C701 1.390 . S
C703 C704 1.387 . S
C703 H706 0.950 . S
C704 C703 1.387 . S
C704 C707 1.387 . S
H705 C701 0.950 . S
H706 C703 0.950 . S
C707 C698 1.390 . S
C707 H700 0.950 . S
C707 C704 1.387 . S
C708 C709 1.387 . S
C708 H712 0.950 . S
C708 C717 1.390 . S
C709 C708 1.387 . S
C709 C711 1.387 . S
H710 C717 0.950 . S
C711 C709 1.387 . S
C711 C713 1.390 . S
C711 H715 0.950 . S
H712 C708 0.950 . S
C713 C711 1.390 . S
C713 C714 1.387 . S
C713 H716 0.950 . S
C714 C713 1.387 . S
C714 C717 1.387 . S
H715 C711 0.950 . S
H716 C713 0.950 . S
C717 C708 1.390 . S
C717 H710 0.950 . S
C717 C714 1.387 . S
C718 C719 1.387 . S
C718 H722 0.950 . S
C718 C727 1.390 . S
C719 C718 1.387 . S
C719 C721 1.387 . S
H720 C727 0.950 . S
C721 C719 1.387 . S
C721 C723 1.390 . S
C721 H725 0.950 . S
H722 C718 0.950 . S
C723 C721 1.390 . S
C723 C724 1.387 . S
C723 H726 0.950 . S
C724 C723 1.387 . S
C724 C727 1.387 . S
H725 C721 0.950 . S
H726 C723 0.950 . S
C727 C718 1.390 . S
C727 H720 0.950 . S
C727 C724 1.387 . S
C728 C729 1.387 . S
C728 H732 0.950 . S
C728 C737 1.390 . S
C729 C728 1.387 . S
C729 C731 1.387 . S
H730 C737 0.950 . S
C731 C729 1.387 . S
C731 C733 1.390 . S
C731 H735 0.950 . S
H732 C728 0.950 . S
C733 C731 1.390 . S
C733 C734 1.387 . S
C733 H736 0.950 . S
C734 C733 1.387 . S
C734 C737 1.387 . S
H735 C731 0.950 . S
H736 C733 0.950 . S
C737 C728 1.390 . S
C737 H730 0.950 . S
C737 C734 1.387 . S
C738 C739 1.387 . S
C738 H742 0.950 . S
C738 C747 1.390 . S
C739 C738 1.387 . S
C739 C741 1.387 . S
H740 C747 0.950 . S
C741 C739 1.387 . S
C741 C743 1.390 . S
C741 H745 0.950 . S
H742 C738 0.950 . S
C743 C741 1.390 . S
C743 C744 1.387 . S
C743 H746 0.950 . S
C744 C743 1.387 . S
C744 C747 1.387 . S
H745 C741 0.950 . S
H746 C743 0.950 . S
C747 C738 1.390 . S
C747 H740 0.950 . S
C747 C744 1.387 . S
C748 C749 1.387 . S
C748 H752 0.950 . S
C748 C757 1.390 . S
C749 C748 1.387 . S
C749 C751 1.387 . S
H750 C757 0.950 . S
C751 C749 1.387 . S
C751 C753 1.390 . S
C751 H755 0.950 . S
H752 C748 0.950 . S
C753 C751 1.390 . S
C753 C754 1.387 . S
C753 H756 0.950 . S
C754 C753 1.387 . S
C754 C757 1.387 . S
H755 C751 0.950 . S
H756 C753 0.950 . S
C757 C748 1.390 . S
C757 H750 0.950 . S
C757 C754 1.387 . S
C758 C759 1.387 . S
C758 H762 0.950 . S
C758 C767 1.390 . S
C759 C758 1.387 . S
C759 C761 1.387 . S
H760 C767 0.950 . S
C761 C759 1.387 . S
C761 C763 1.390 . S
C761 H765 0.950 . S
H762 C758 0.950 . S
C763 C761 1.390 . S
C763 C764 1.387 . S
C763 H766 0.950 . S
C764 C763 1.387 . S
C764 C767 1.387 . S
H765 C761 0.950 . S
H766 C763 0.950 . S
C767 C758 1.390 . S
C767 H760 0.950 . S
C767 C764 1.387 . S
C409 C68 1.086 . S
C414 C8 1.109 . S
C419 C131 1.089 . S
C424 C51 1.110 1_455 S
C429 C76 1.108 1_565 S
C434 C136 1.086 . S
C439 C119 1.109 . S
C444 C199 1.086 . S
C449 C0 1.086 . S
C454 C144 1.109 1_455 S
C459 C63 1.086 . S
C464 C187 1.108 1_565 S
C469 C369 1.086 . S
C474 C221 1.109 . S
C479 C246 1.108 1_655 S
C484 C374 1.086 . S
C489 C289 1.110 1_545 S
C494 C233 1.089 . S
C499 C314 1.109 . S
C504 C238 1.086 . S
C509 C357 1.108 1_655 S
C514 C301 1.086 . S
C519 C306 1.090 . S
C524 C382 1.110 1_545 S
C529 C106 1.581 . S
C534 C13 1.581 . S
C539 C38 1.582 . S
C544 C149 1.581 . S
C549 C81 1.581 . S
C554 C174 1.582 . S
C559 C208 1.582 . S
C564 C319 1.581 . S
C569 C251 1.581 . S
C574 C344 1.582 . S
C579 C276 1.581 . S
C584 C387 1.582 . S
C589 C242 1.839 . S
C594 C4 1.839 . S
C599 C47 1.840 . S
C604 C285 1.840 . S
C609 C310 1.839 . S
C614 C72 1.839 . S
C619 C115 1.841 . S
C624 C353 1.841 . S
C629 C140 1.842 . S
C634 C378 1.842 . S
C639 C217 1.841 . S
C644 C183 1.841 . S
C649 C97 1.279 . S
C654 C17 1.262 . S
C659 C42 1.259 . S
C664 C102 1.279 . S
C669 C85 1.262 . S
C674 C165 1.280 . S
C679 C110 1.260 . S
C684 C170 1.279 . S
C689 C29 1.278 . S
C694 C153 1.259 . S
C699 C34 1.280 . S
C704 C178 1.260 . S
C709 C340 1.280 . S
C714 C212 1.262 . S
C719 C255 1.260 . S
C724 C403 1.280 . S
C729 C280 1.261 . S
C734 C204 1.279 . S
C739 C267 1.279 . S
C744 C323 1.259 . S
C749 C348 1.260 . S
C754 C272 1.280 . S
C759 C391 1.259 . S
C764 C335 1.278 . S
