# Generated by pormake.
# Topology wjd, (6)-cn, num edge types: 1
# Building blocks:
#     Node 0, Type 0, BuildingBlock: CUKXOW_clean_sbu_0, # of connection points: 6
#     Node 1, Type 0, BuildingBlock: CUKXOW_clean_sbu_0, # of connection points: 6
#     Node 2, Type 0, BuildingBlock: CUKXOW_clean_sbu_0, # of connection points: 6
#     Node 3, Type 0, BuildingBlock: CUKXOW_clean_sbu_0, # of connection points: 6
#     Node 4, Type 0, BuildingBlock: CUKXOW_clean_sbu_0, # of connection points: 6
#     Node 5, Type 0, BuildingBlock: CUKXOW_clean_sbu_0, # of connection points: 6
#     Node 6, Type 0, BuildingBlock: CUKXOW_clean_sbu_0, # of connection points: 6
#     Node 7, Type 0, BuildingBlock: CUKXOW_clean_sbu_0, # of connection points: 6
#     Node 8, Type 0, BuildingBlock: CUKXOW_clean_sbu_0, # of connection points: 6
#     Node 9, Type 0, BuildingBlock: CUKXOW_clean_sbu_0, # of connection points: 6
#     Node 10, Type 0, BuildingBlock: CUKXOW_clean_sbu_0, # of connection points: 6
#     Node 11, Type 0, BuildingBlock: CUKXOW_clean_sbu_0, # of connection points: 6
#     Edge 12, Type (0, 0), BuildingBlock: XIVTED_clean_linker_0, # of connection points: 2
#     Edge 13, Type (0, 0), BuildingBlock: XIVTED_clean_linker_0, # of connection points: 2
#     Edge 14, Type (0, 0), BuildingBlock: XIVTED_clean_linker_0, # of connection points: 2
#     Edge 15, Type (0, 0), BuildingBlock: XIVTED_clean_linker_0, # of connection points: 2
#     Edge 16, Type (0, 0), BuildingBlock: XIVTED_clean_linker_0, # of connection points: 2
#     Edge 17, Type (0, 0), BuildingBlock: XIVTED_clean_linker_0, # of connection points: 2
#     Edge 18, Type (0, 0), BuildingBlock: XIVTED_clean_linker_0, # of connection points: 2
#     Edge 19, Type (0, 0), BuildingBlock: XIVTED_clean_linker_0, # of connection points: 2
#     Edge 20, Type (0, 0), BuildingBlock: XIVTED_clean_linker_0, # of connection points: 2
#     Edge 21, Type (0, 0), BuildingBlock: XIVTED_clean_linker_0, # of connection points: 2
#     Edge 22, Type (0, 0), BuildingBlock: XIVTED_clean_linker_0, # of connection points: 2
#     Edge 23, Type (0, 0), BuildingBlock: XIVTED_clean_linker_0, # of connection points: 2
#     Edge 24, Type (0, 0), BuildingBlock: XIVTED_clean_linker_0, # of connection points: 2
#     Edge 25, Type (0, 0), BuildingBlock: XIVTED_clean_linker_0, # of connection points: 2
#     Edge 26, Type (0, 0), BuildingBlock: XIVTED_clean_linker_0, # of connection points: 2
#     Edge 27, Type (0, 0), BuildingBlock: XIVTED_clean_linker_0, # of connection points: 2
#     Edge 28, Type (0, 0), BuildingBlock: XIVTED_clean_linker_0, # of connection points: 2
#     Edge 29, Type (0, 0), BuildingBlock: XIVTED_clean_linker_0, # of connection points: 2
#     Edge 30, Type (0, 0), BuildingBlock: XIVTED_clean_linker_0, # of connection points: 2
#     Edge 31, Type (0, 0), BuildingBlock: XIVTED_clean_linker_0, # of connection points: 2
#     Edge 32, Type (0, 0), BuildingBlock: XIVTED_clean_linker_0, # of connection points: 2
#     Edge 33, Type (0, 0), BuildingBlock: XIVTED_clean_linker_0, # of connection points: 2
#     Edge 34, Type (0, 0), BuildingBlock: XIVTED_clean_linker_0, # of connection points: 2
#     Edge 35, Type (0, 0), BuildingBlock: XIVTED_clean_linker_0, # of connection points: 2
#     Edge 36, Type (0, 0), BuildingBlock: XIVTED_clean_linker_0, # of connection points: 2
#     Edge 37, Type (0, 0), BuildingBlock: XIVTED_clean_linker_0, # of connection points: 2
#     Edge 38, Type (0, 0), BuildingBlock: XIVTED_clean_linker_0, # of connection points: 2
#     Edge 39, Type (0, 0), BuildingBlock: XIVTED_clean_linker_0, # of connection points: 2
#     Edge 40, Type (0, 0), BuildingBlock: XIVTED_clean_linker_0, # of connection points: 2
#     Edge 41, Type (0, 0), BuildingBlock: XIVTED_clean_linker_0, # of connection points: 2
#     Edge 42, Type (0, 0), BuildingBlock: XIVTED_clean_linker_0, # of connection points: 2
#     Edge 43, Type (0, 0), BuildingBlock: XIVTED_clean_linker_0, # of connection points: 2
#     Edge 44, Type (0, 0), BuildingBlock: XIVTED_clean_linker_0, # of connection points: 2
#     Edge 45, Type (0, 0), BuildingBlock: XIVTED_clean_linker_0, # of connection points: 2
#     Edge 46, Type (0, 0), BuildingBlock: XIVTED_clean_linker_0, # of connection points: 2
#     Edge 47, Type (0, 0), BuildingBlock: XIVTED_clean_linker_0, # of connection points: 2
# Relax obj value: 0.060
# Max RMSD: 0.159
# Mean RMSD: 0.159
data_MOF--net-wjd--node1-CUKXOW_clean_sbu_0--edge1-XIVTED_clean_linker_0
_symmetry_space_group_name_H-M    P1
_symmetry_Int_Tables_number       1
_symmetry_cell_setting            triclinic
loop_
_symmetry_equiv_pos_as_xyz
'x, y, z'
_cell_length_a     32.188218
_cell_length_b     32.277965
_cell_length_c     57.31412
_cell_angle_alpha  89.942397
_cell_angle_beta   89.942484
_cell_angle_gamma 119.93294
loop_
_atom_site_label
_atom_site_type_symbol
_atom_site_fract_x
_atom_site_fract_y
_atom_site_fract_z
_atom_type_partial_charge
Tb0 Tb 0.38127 0.13435 0.12051 0.0
C1 C 0.32253 0.11409 0.07498 0.0
Tb2 Tb 0.29751 0.15373 0.12026 0.0
O3 O 0.33241 0.0576 0.11468 0.0
O4 O 0.30945 0.09895 0.1322 0.0
O5 O 0.36628 0.12988 0.08336 0.0
C6 C 0.21655 0.15674 0.11599 0.0
O7 O 0.28865 0.11614 0.08729 0.0
C8 C 0.38287 0.22964 0.11939 0.0
C9 C 0.34623 0.15777 0.16846 0.0
O10 O 0.25562 0.18249 0.10422 0.0
O11 O 0.22285 0.12884 0.13009 0.0
O12 O 0.3456 0.22807 0.12888 0.0
O13 O 0.37054 0.19075 0.10889 0.0
O14 O 0.30756 0.15348 0.1578 0.0
O15 O 0.3807 0.15448 0.15712 0.0
C16 C 0.4681 0.14246 0.12025 0.0
O17 O 0.4276 0.10266 0.12062 0.0
O18 O 0.45984 0.1779 0.12058 0.0
C19 C 0.29578 0.0583 0.12373 0.0
Tb20 Tb 0.88053 0.7212 0.38727 0.0
C21 C 0.83539 0.66753 0.33999 0.0
Tb22 Tb 0.77906 0.63671 0.38844 0.0
O23 O 0.91025 0.67492 0.38143 0.0
O24 O 0.84685 0.64944 0.40053 0.0
O25 O 0.86946 0.70697 0.35005 0.0
C26 C 0.70204 0.5493 0.38985 0.0
O27 O 0.79791 0.63413 0.35179 0.0
C28 C 0.78527 0.72041 0.38257 0.0
C29 C 0.81749 0.70006 0.43266 0.0
O30 O 0.70192 0.58906 0.39256 0.0
O31 O 0.74558 0.5586 0.38598 0.0
O32 O 0.74837 0.68396 0.39191 0.0
O33 O 0.81325 0.70702 0.37499 0.0
O34 O 0.79097 0.65532 0.42531 0.0
O35 O 0.8516 0.73353 0.41941 0.0
C36 C 0.96315 0.80362 0.38783 0.0
O37 O 0.94765 0.77191 0.40437 0.0
O38 O 0.93172 0.78944 0.37123 0.0
C39 C 0.87493 0.63771 0.391 0.0
Tb40 Tb 0.87844 0.24663 0.12387 0.0
C41 C 0.89774 0.20621 0.07752 0.0
Tb42 Tb 0.8519 0.14012 0.12118 0.0
O43 O 0.95482 0.27202 0.11805 0.0
O44 O 0.90998 0.20531 0.13309 0.0
O45 O 0.88458 0.23589 0.08655 0.0
C46 C 0.83859 0.05174 0.12506 0.0
O47 O 0.89254 0.16819 0.08902 0.0
C48 C 0.78642 0.16118 0.10691 0.0
C49 C 0.84882 0.18491 0.17048 0.0
O50 O 0.87901 0.08973 0.11991 0.0
O51 O 0.80605 0.0637 0.12826 0.0
O52 O 0.79136 0.12667 0.09838 0.0
O53 O 0.81554 0.17941 0.12336 0.0
O54 O 0.84793 0.14852 0.15898 0.0
O55 O 0.85708 0.22531 0.16008 0.0
C56 C 0.86924 0.32428 0.12361 0.0
O57 O 0.89771 0.31758 0.13727 0.0
O58 O 0.84628 0.28738 0.11012 0.0
C59 C 0.95134 0.23201 0.12502 0.0
Tb60 Tb 0.31263 0.16855 0.39327 0.0
C61 C 0.35545 0.16285 0.34356 0.0
Tb62 Tb 0.38905 0.13867 0.38972 0.0
O63 O 0.36234 0.23204 0.41277 0.0
O64 O 0.38747 0.20338 0.38747 0.0
O65 O 0.31896 0.16116 0.35538 0.0
C66 C 0.47326 0.14283 0.39451 0.0
O67 O 0.3911 0.16073 0.35394 0.0
C68 C 0.30098 0.07197 0.38078 0.0
C69 C 0.33643 0.12914 0.4387 0.0
O70 O 0.43265 0.10386 0.3911 0.0
O71 O 0.46629 0.17899 0.39525 0.0
O72 O 0.33805 0.07163 0.3718 0.0
O73 O 0.3153 0.10527 0.39524 0.0
O74 O 0.37437 0.13252 0.42751 0.0
O75 O 0.30518 0.13875 0.42829 0.0
C76 C 0.23676 0.18012 0.38778 0.0
O77 O 0.23495 0.14025 0.39333 0.0
O78 O 0.28115 0.21342 0.38562 0.0
C79 C 0.40018 0.23505 0.40298 0.0
Tb80 Tb 0.76768 0.62989 0.11914 0.0
C81 C 0.79992 0.69153 0.07368 0.0
Tb82 Tb 0.87009 0.71564 0.11727 0.0
O83 O 0.73639 0.67668 0.11562 0.0
O84 O 0.80343 0.70156 0.1308 0.0
O85 O 0.77064 0.64852 0.08249 0.0
C86 C 0.95377 0.79685 0.11287 0.0
O87 O 0.8384 0.72425 0.08504 0.0
C88 C 0.86361 0.63154 0.11621 0.0
C89 C 0.83097 0.66372 0.1653 0.0
O90 O 0.93954 0.75899 0.1001 0.0
O91 O 0.9205 0.78928 0.12789 0.0
O92 O 0.8997 0.66961 0.12468 0.0
O93 O 0.83511 0.64257 0.1066 0.0
O94 O 0.86169 0.70461 0.15488 0.0
O95 O 0.79513 0.62776 0.1539 0.0
C96 C 0.69183 0.54147 0.12088 0.0
O97 O 0.69691 0.57785 0.13286 0.0
O98 O 0.72952 0.55487 0.10793 0.0
C99 C 0.77433 0.71403 0.12371 0.0
Tb100 Tb 0.86132 0.14527 0.39565 0.0
C101 C 0.85368 0.18504 0.34561 0.0
Tb102 Tb 0.8873 0.25015 0.39014 0.0
O103 O 0.79629 0.12933 0.4146 0.0
O104 O 0.82356 0.18269 0.3895 0.0
O105 O 0.8572 0.15144 0.35753 0.0
C106 C 0.883 0.33067 0.39334 0.0
O107 O 0.85713 0.22361 0.3558 0.0
C108 C 0.95596 0.23135 0.38029 0.0
C109 C 0.90842 0.21524 0.43861 0.0
O110 O 0.91442 0.32546 0.3814 0.0
O111 O 0.85424 0.29062 0.40371 0.0
O112 O 0.95495 0.26834 0.37192 0.0
O113 O 0.92371 0.21215 0.39535 0.0
O114 O 0.90015 0.24693 0.42771 0.0
O115 O 0.90145 0.17544 0.42805 0.0
C116 C 0.85144 0.05792 0.39418 0.0
O117 O 0.82906 0.07162 0.40819 0.0
O118 O 0.8799 0.09359 0.38092 0.0
C119 C 0.79223 0.16356 0.40517 0.0
Tb120 Tb 0.17086 0.30556 0.62224 0.0
C121 C 0.16878 0.35319 0.67086 0.0
Tb122 Tb 0.14171 0.38344 0.62337 0.0
O123 O 0.2333 0.35329 0.60046 0.0
O124 O 0.2056 0.38065 0.62445 0.0
O125 O 0.17145 0.31821 0.65983 0.0
C126 C 0.15024 0.46953 0.62255 0.0
O127 O 0.15962 0.38421 0.66002 0.0
C128 C 0.07023 0.29535 0.62384 0.0
C129 C 0.12763 0.32507 0.57737 0.0
O130 O 0.11742 0.43295 0.63406 0.0
O131 O 0.17788 0.45745 0.61156 0.0
O132 O 0.06641 0.33117 0.616 0.0
O133 O 0.11095 0.31096 0.63286 0.0
O134 O 0.13966 0.3677 0.58615 0.0
O135 O 0.13269 0.29266 0.58935 0.0
C136 C 0.18253 0.23026 0.62891 0.0
O137 O 0.14509 0.22885 0.61958 0.0
O138 O 0.21347 0.27406 0.63434 0.0
C139 C 0.23635 0.3922 0.60867 0.0
Tb140 Tb 0.25235 0.8754 0.88874 0.0
C141 C 0.21466 0.89118 0.93813 0.0
Tb142 Tb 0.14621 0.84498 0.8947 0.0
O143 O 0.26843 0.94369 0.87186 0.0
O144 O 0.21202 0.90859 0.89488 0.0
O145 O 0.24891 0.88841 0.9263 0.0
C146 C 0.05803 0.83332 0.89304 0.0
O147 O 0.17255 0.87959 0.92852 0.0
C148 C 0.16966 0.78006 0.90481 0.0
C149 C 0.18709 0.84058 0.8445 0.0
O150 O 0.06863 0.801 0.89906 0.0
O151 O 0.0972 0.87253 0.88785 0.0
O152 O 0.13533 0.78326 0.91497 0.0
O153 O 0.18645 0.81014 0.88847 0.0
O154 O 0.15348 0.84404 0.85649 0.0
O155 O 0.22554 0.84363 0.85471 0.0
C156 C 0.33361 0.87352 0.89441 0.0
O157 O 0.32571 0.89646 0.87794 0.0
O158 O 0.2959 0.85175 0.90755 0.0
C159 C 0.23028 0.94216 0.88055 0.0
Tb160 Tb 0.72737 0.87182 0.61758 0.0
C161 C 0.67255 0.83182 0.66487 0.0
Tb162 Tb 0.6405 0.77045 0.6181 0.0
O163 O 0.68252 0.90276 0.62467 0.0
O164 O 0.65427 0.83861 0.60616 0.0
O165 O 0.71447 0.86198 0.65503 0.0
C166 C 0.55193 0.69501 0.61643 0.0
O167 O 0.63646 0.79728 0.65283 0.0
C168 C 0.72412 0.77582 0.62385 0.0
C169 C 0.70578 0.80356 0.57362 0.0
O170 O 0.58346 0.70258 0.63247 0.0
O171 O 0.57006 0.73008 0.60163 0.0
O172 O 0.68698 0.73834 0.61532 0.0
O173 O 0.71132 0.80463 0.63064 0.0
O174 O 0.66218 0.77437 0.58186 0.0
O175 O 0.73796 0.8415 0.5854 0.0
C176 C 0.80982 0.95423 0.61376 0.0
O177 O 0.77242 0.94075 0.60065 0.0
O178 O 0.80109 0.92093 0.62895 0.0
C179 C 0.64406 0.86761 0.6159 0.0
Tb180 Tb 0.14195 0.3766 0.89354 0.0
C181 C 0.11509 0.31119 0.93723 0.0
Tb182 Tb 0.15934 0.29189 0.8923 0.0
O183 O 0.06357 0.33013 0.89509 0.0
O184 O 0.10646 0.30645 0.87983 0.0
O185 O 0.13404 0.3563 0.93023 0.0
C186 C 0.16085 0.21019 0.89092 0.0
O187 O 0.11624 0.2781 0.92392 0.0
C188 C 0.23684 0.37566 0.89668 0.0
C189 C 0.16869 0.34725 0.84529 0.0
O190 O 0.17289 0.23849 0.90881 0.0
O191 O 0.14682 0.22721 0.87419 0.0
O192 O 0.23584 0.33861 0.88755 0.0
O193 O 0.19643 0.36324 0.90567 0.0
O194 O 0.16291 0.30747 0.85517 0.0
O195 O 0.16434 0.38032 0.85712 0.0
C196 C 0.15441 0.46475 0.89514 0.0
O197 O 0.18729 0.45439 0.8897 0.0
O198 O 0.11467 0.42561 0.89939 0.0
C199 C 0.06454 0.29336 0.88659 0.0
Tb200 Tb 0.15301 0.85728 0.619 0.0
C201 C 0.1906 0.84912 0.66942 0.0
Tb202 Tb 0.25825 0.88509 0.62557 0.0
O203 O 0.13909 0.79296 0.60023 0.0
O204 O 0.19141 0.82042 0.62548 0.0
O205 O 0.15729 0.85263 0.65718 0.0
C206 C 0.33898 0.88078 0.62197 0.0
O207 O 0.22996 0.8533 0.65958 0.0
C208 C 0.23751 0.95213 0.63556 0.0
C209 C 0.22527 0.90831 0.57699 0.0
O210 O 0.33304 0.90991 0.63537 0.0
O211 O 0.29973 0.85467 0.61049 0.0
O212 O 0.27483 0.95172 0.64404 0.0
O213 O 0.2193 0.92044 0.62025 0.0
O214 O 0.25712 0.90057 0.58813 0.0
O215 O 0.18424 0.89931 0.5871 0.0
C216 C 0.06425 0.84467 0.61911 0.0
O217 O 0.08016 0.8243 0.60511 0.0
O218 O 0.09851 0.8727 0.63313 0.0
C219 C 0.17354 0.7893 0.60972 0.0
Tb220 Tb 0.63509 0.76193 0.88582 0.0
C221 C 0.69432 0.80023 0.93249 0.0
Tb222 Tb 0.71556 0.86768 0.88946 0.0
O223 O 0.68508 0.73532 0.89115 0.0
O224 O 0.70839 0.80288 0.87677 0.0
O225 O 0.65159 0.77086 0.92325 0.0
C226 C 0.79077 0.95599 0.88591 0.0
O227 O 0.72748 0.83841 0.92123 0.0
C228 C 0.6289 0.84664 0.90365 0.0
C229 C 0.66798 0.82502 0.83979 0.0
O230 O 0.79304 0.91796 0.89109 0.0
O231 O 0.74634 0.94414 0.88257 0.0
O232 O 0.66825 0.88007 0.91281 0.0
O233 O 0.64015 0.82935 0.88692 0.0
O234 O 0.7034 0.8608 0.85162 0.0
O235 O 0.63569 0.78418 0.84978 0.0
C236 C 0.54764 0.68505 0.8855 0.0
O237 O 0.58343 0.69106 0.87246 0.0
O238 O 0.56117 0.72239 0.89865 0.0
C239 C 0.7222 0.77529 0.88458 0.0
H240 H 0.03218 0.27673 0.09857 0.0
H241 H 0.13336 0.10742 0.14086 0.0
H242 H 0.95512 0.15742 0.1453 0.0
H243 H 0.20355 0.21958 0.08974 0.0
H244 H 0.06615 0.12288 0.14181 0.0
H245 H 0.09445 0.25488 0.09443 0.0
C246 C 0.0285 0.24592 0.10797 0.0
C247 C 0.98873 0.21885 0.12233 0.0
C248 C 0.09609 0.14388 0.13026 0.0
C249 C 0.05957 0.19352 0.11772 0.0
C250 C 0.13435 0.135 0.1297 0.0
C251 C 0.17398 0.16245 0.11529 0.0
C252 C 0.09777 0.18065 0.1164 0.0
C253 C 0.17364 0.19772 0.10115 0.0
C254 C 0.06387 0.2333 0.10553 0.0
C255 C 0.98526 0.17903 0.13397 0.0
N256 N 0.13628 0.20604 0.10217 0.0
N257 N 0.02039 0.16766 0.13151 0.0
H258 H 0.25512 1.00388 0.34678 0.0
H259 H 0.02429 0.848 0.42379 0.0
H260 H 0.23363 0.05092 0.41386 0.0
H261 H 0.01206 0.85249 0.34901 0.0
H262 H 0.10715 0.91407 0.42113 0.0
H263 H 0.17067 0.93868 0.34762 0.0
C264 C 0.23269 1.0004 0.3616 0.0
C265 C 0.25106 0.03262 0.38023 0.0
C266 C 0.08618 0.90068 0.40533 0.0
C267 C 0.15604 0.95875 0.38149 0.0
C268 C 0.03908 0.86318 0.40685 0.0
C269 C 1.01156 0.84534 0.38661 0.0
C270 C 0.10606 0.91952 0.38338 0.0
C271 C 0.03225 0.86581 0.36502 0.0
C272 C 0.18477 0.9636 0.36203 0.0
C273 C 0.22078 0.02696 0.39907 0.0
N274 N 0.07864 0.90167 0.3639 0.0
N275 N 0.17492 0.99047 0.39932 0.0
H276 H 0.90476 0.02221 0.12735 0.0
H277 H 0.71757 0.74711 0.10577 0.0
H278 H 0.75259 0.96911 0.1238 0.0
H279 H 0.84887 0.79266 0.14367 0.0
H280 H 0.73302 0.82974 0.10649 0.0
H281 H 0.88878 0.93934 0.12747 0.0
C282 C 0.86804 0.99308 0.12662 0.0
C283 C 0.8299 1.00232 0.12566 0.0
C284 C 0.75848 0.82156 0.11457 0.0
C285 C 0.81147 0.90796 0.12536 0.0
C286 C 0.74972 0.77453 0.11415 0.0
C287 C 0.78246 0.7633 0.12436 0.0
C288 C 0.8006 0.85759 0.12496 0.0
C289 C 0.82348 0.80011 0.13504 0.0
C290 C 0.85895 0.94594 0.12674 0.0
C291 C 0.78297 0.96341 0.12469 0.0
N292 N 0.83165 0.8457 0.13491 0.0
N293 N 0.77506 0.9179 0.12436 0.0
H294 H 0.23663 0.25956 0.37169 0.0
H295 H 0.96083 0.15744 0.39969 0.0
H296 H 0.14263 0.11563 0.39582 0.0
H297 H 0.04161 0.28271 0.3569 0.0
H298 H 0.02787 0.14278 0.39905 0.0
H299 H 0.16704 0.27054 0.36692 0.0
C300 C 0.20127 0.23027 0.37593 0.0
C301 C 0.19518 0.18673 0.3843 0.0
C302 C 0.03092 0.17321 0.38955 0.0
C303 C 0.11579 0.19903 0.37897 0.0
C304 C 0.99251 0.18152 0.38983 0.0
C305 C 0.99558 0.22115 0.37817 0.0
C306 C 0.07326 0.20526 0.37787 0.0
C307 C 0.03785 0.25165 0.36604 0.0
C308 C 0.16164 0.23648 0.37311 0.0
C309 C 0.14877 0.14982 0.38942 0.0
N310 N 0.07539 0.24334 0.36638 0.0
N311 N 0.11085 0.15692 0.38684 0.0
H312 H 0.25898 0.98155 0.09443 0.0
H313 H 0.98928 0.87661 0.14015 0.0
H314 H 0.21832 0.04926 0.14744 0.0
H315 H 0.02902 0.81178 0.08524 0.0
H316 H 0.07245 0.94207 0.14198 0.0
H317 H 0.17461 0.91997 0.09009 0.0
C318 C 0.2322 0.98328 0.1052 0.0
C319 C 0.24537 0.02038 0.1213 0.0
C320 C 0.06296 0.91371 0.12942 0.0
C321 C 0.14898 0.95044 0.11641 0.0
C322 C 0.01549 0.87647 0.12833 0.0
C323 C 1.00246 0.83881 0.11257 0.0
C324 C 0.09764 0.91309 0.1147 0.0
C325 C 0.0377 0.8402 0.09766 0.0
C326 C 0.18407 0.94834 0.10264 0.0
C327 C 0.20943 0.02139 0.13468 0.0
N328 N 0.08376 0.87658 0.09918 0.0
N329 N 0.16285 0.98685 0.13199 0.0
H330 H 0.85557 0.79805 0.3596 0.0
H331 H 0.78876 0.98119 0.41987 0.0
H332 H 0.73864 0.75598 0.408 0.0
H333 H 0.89545 0.02304 0.36571 0.0
H334 H 0.77309 0.89917 0.41707 0.0
H335 H 0.87373 0.88122 0.3627 0.0
C336 C 0.83385 0.80644 0.37091 0.0
C337 C 0.79568 0.77032 0.38361 0.0
C338 C 0.79998 0.92619 0.40578 0.0
C339 C 0.81596 0.86503 0.38721 0.0
C340 C 0.80902 0.97306 0.40742 0.0
C341 C 0.84338 0.00881 0.39296 0.0
C342 C 0.82559 0.91489 0.38959 0.0
C343 C 0.8686 0.99639 0.37714 0.0
C344 C 0.84408 0.85381 0.37262 0.0
C345 C 0.76824 0.78282 0.39783 0.0
N346 N 0.85919 0.95037 0.37585 0.0
N347 N 0.77899 0.82915 0.39929 0.0
H348 H 0.16361 0.95656 0.61561 0.0
H349 H 0.25796 0.22855 0.64971 0.0
H350 H 0.28667 0.03659 0.6598 0.0
H351 H 0.12232 0.13793 0.61616 0.0
H352 H 0.26957 0.1594 0.65408 0.0
H353 H 0.14787 0.02274 0.61631 0.0
C354 C 0.18703 0.98794 0.62574 0.0
C355 C 0.22642 0.99107 0.63774 0.0
C356 C 0.23715 0.1546 0.6459 0.0
C357 C 0.20915 0.06775 0.63824 0.0
C358 C 0.23058 0.19401 0.64334 0.0
C359 C 0.18927 0.1888 0.63243 0.0
C360 C 0.20226 0.10986 0.63731 0.0
C361 C 0.15478 0.14342 0.62457 0.0
C362 C 0.1781 0.02587 0.62606 0.0
C363 C 0.25588 0.03282 0.65035 0.0
N364 N 0.16219 0.10576 0.62705 0.0
N365 N 0.24689 0.06983 0.65012 0.0
H366 H 0.9759 0.75438 0.90667 0.0
H367 H 0.80253 0.85258 0.86675 0.0
H368 H 0.02894 0.89535 0.87773 0.0
H369 H 0.75546 0.722 0.90547 0.0
H370 H 0.88544 0.86885 0.86948 0.0
H371 H 0.8945 0.74138 0.9051 0.0
C372 C 0.97031 0.78263 0.89999 0.0
C373 C 1.00904 0.82595 0.89229 0.0
C374 C 0.85698 0.83674 0.87745 0.0
C375 C 0.91589 0.81135 0.89035 0.0
C376 C 0.80977 0.82757 0.87596 0.0
C377 C 0.77231 0.78604 0.886 0.0
C378 C 0.86655 0.80387 0.88888 0.0
C379 C 0.78335 0.75437 0.89742 0.0
C380 C 0.92384 0.77525 0.89913 0.0
C381 C 0.9999 0.86142 0.88383 0.0
N382 N 0.82943 0.76388 0.89851 0.0
N383 N 0.95415 0.85329 0.883 0.0
H384 H 0.88939 0.98962 0.64157 0.0
H385 H 0.99228 0.25738 0.59544 0.0
H386 H 0.82671 0.02818 0.58512 0.0
H387 H 0.06654 0.21821 0.64556 0.0
H388 H 0.9319 0.173 0.59109 0.0
H389 H 0.95596 0.07239 0.6428 0.0
C390 C 0.88996 0.01544 0.62929 0.0
C391 C 0.85255 1.00229 0.61329 0.0
C392 C 0.96145 0.18272 0.60299 0.0
C393 C 0.92795 0.09679 0.61472 0.0
C394 C 0.99574 0.23089 0.60555 0.0
C395 C 0.03411 0.24455 0.62096 0.0
C396 C 0.96535 0.14801 0.61613 0.0
C397 C 0.03738 0.20894 0.63347 0.0
C398 C 0.92784 0.06263 0.63002 0.0
C399 C 0.85485 0.03696 0.59777 0.0
N400 N 1.00323 0.16223 0.6309 0.0
N401 N 0.8917 0.08269 0.59899 0.0
H402 H 0.16683 0.16856 0.85077 0.0
H403 H 0.18003 0.95835 0.91352 0.0
H404 H 0.17419 0.16043 0.92565 0.0
H405 H 0.2561 0.01533 0.84875 0.0
H406 H 0.16289 0.02336 0.91546 0.0
H407 H 0.18543 0.10368 0.84707 0.0
C408 C 0.17192 0.15274 0.86641 0.0
C409 C 0.1688 0.16941 0.88858 0.0
C410 C 0.18336 0.02171 0.90082 0.0
C411 C 0.18965 0.09576 0.88443 0.0
C412 C 0.19302 0.98446 0.89959 0.0
C413 C 0.2197 0.98154 0.88093 0.0
C414 C 0.19961 0.05598 0.88306 0.0
C415 C 0.23562 0.01658 0.86345 0.0
C416 C 0.18293 0.11622 0.86425 0.0
C417 C 0.17617 0.14834 0.90829 0.0
N418 N 0.225 0.05246 0.86483 0.0
N419 N 0.18588 0.11222 0.90576 0.0
H420 H 0.98993 0.78184 0.59218 0.0
H421 H 0.7997 0.84428 0.6482 0.0
H422 H 0.02536 0.88571 0.64692 0.0
H423 H 0.76154 0.72913 0.59953 0.0
H424 H 0.88307 0.86227 0.64691 0.0
H425 H 0.90686 0.76449 0.59343 0.0
C426 C 0.98016 0.8011 0.60444 0.0
C427 C 0.01443 0.83523 0.61949 0.0
C428 C 0.85653 0.83301 0.63653 0.0
C429 C 0.91939 0.81553 0.62105 0.0
C430 C 0.80902 0.82289 0.63718 0.0
C431 C 0.77393 0.78537 0.62385 0.0
C432 C 0.86906 0.80544 0.62236 0.0
C433 C 0.7876 0.75825 0.61014 0.0
C434 C 0.93271 0.79108 0.60518 0.0
C435 C 0.99994 0.8591 0.63503 0.0
N436 N 0.83417 0.76893 0.60968 0.0
N437 N 0.95346 0.84882 0.63541 0.0
H438 H 0.97256 0.26155 0.90088 0.0
H439 H 0.88648 0.98511 0.88525 0.0
H440 H 0.06312 0.21331 0.87012 0.0
H441 H 0.78768 0.03871 0.88504 0.0
H442 H 0.95358 0.06784 0.88477 0.0
H443 H 0.90543 0.17905 0.90019 0.0
C444 C 0.97831 0.23356 0.894 0.0
C445 C 0.02353 0.24408 0.88571 0.0
C446 C 0.91718 0.0614 0.88475 0.0
C447 C 0.94734 0.14985 0.88516 0.0
C448 C 0.879 0.01433 0.88508 0.0
C449 C 0.83164 1.00528 0.88513 0.0
C450 C 0.90779 0.0995 0.88492 0.0
C451 C 0.82375 0.04427 0.88491 0.0
C452 C 0.94006 0.18659 0.89359 0.0
C453 C 0.02908 0.20655 0.87699 0.0
N454 N 0.86144 0.08972 0.885 0.0
N455 N 0.99155 0.16099 0.87709 0.0
H456 H 0.42476 0.16942 0.31356 0.0
H457 H 0.28177 0.16236 0.19813 0.0
H458 H 0.28773 0.16355 0.31456 0.0
H459 H 0.4172 0.16488 0.1976 0.0
H460 H 0.28518 0.16687 0.24063 0.0
H461 H 0.42422 0.17172 0.2711 0.0
C462 C 0.39454 0.16875 0.30489 0.0
C463 C 0.3561 0.16611 0.31775 0.0
C464 C 0.31423 0.1666 0.23122 0.0
C465 C 0.35533 0.16867 0.26889 0.0
C466 C 0.31237 0.16406 0.2069 0.0
C467 C 0.34917 0.16297 0.19419 0.0
C468 C 0.35316 0.16807 0.243 0.0
C469 C 0.38791 0.16542 0.20661 0.0
C470 C 0.39431 0.17007 0.28058 0.0
C471 C 0.31811 0.1655 0.30543 0.0
N472 N 0.38878 0.16769 0.2303 0.0
N473 N 0.31862 0.16661 0.2817 0.0
H474 H 0.90672 0.72783 0.31034 0.0
H475 H 0.76942 0.5907 0.19421 0.0
H476 H 0.76967 0.59735 0.31101 0.0
H477 H 0.90021 0.72737 0.19489 0.0
H478 H 0.77253 0.58803 0.23678 0.0
H479 H 0.9083 0.72355 0.26802 0.0
C480 C 0.87696 0.69808 0.30163 0.0
C481 C 0.83776 0.66309 0.31434 0.0
C482 C 0.80067 0.61844 0.22758 0.0
C483 C 0.83942 0.65808 0.26558 0.0
C484 C 0.79903 0.61998 0.20325 0.0
C485 C 0.83445 0.65952 0.19089 0.0
C486 C 0.83806 0.65664 0.23968 0.0
C487 C 0.87192 0.6963 0.20361 0.0
C488 C 0.87793 0.6957 0.27738 0.0
C489 C 0.80052 0.62527 0.30196 0.0
N490 N 0.8726 0.69404 0.22727 0.0
N491 N 0.80214 0.62391 0.27825 0.0
H492 H 0.84191 0.2478 0.20014 0.0
H493 H 0.84952 0.11479 0.31678 0.0
H494 H 0.84313 0.11461 0.19977 0.0
H495 H 0.84155 0.24443 0.31577 0.0
H496 H 0.84333 0.11148 0.27414 0.0
H497 H 0.83798 0.24461 0.2426 0.0
C498 C 0.84111 0.2177 0.20894 0.0
C499 C 0.84311 0.18154 0.19625 0.0
C500 C 0.84262 0.14045 0.2833 0.0
C501 C 0.83881 0.17779 0.24516 0.0
C502 C 0.84608 0.14234 0.30767 0.0
C503 C 0.84628 0.18006 0.31997 0.0
C504 C 0.83946 0.17661 0.27112 0.0
C505 C 0.84178 0.21474 0.30714 0.0
C506 C 0.83885 0.2159 0.23327 0.0
C507 C 0.84173 0.14337 0.20876 0.0
N508 N 0.83881 0.21228 0.28349 0.0
N509 N 0.83997 0.14265 0.2325 0.0
H510 H 0.16628 0.41907 0.70017 0.0
H511 H 0.18445 0.29022 0.81566 0.0
H512 H 0.18409 0.29496 0.70014 0.0
H513 H 0.16874 0.41554 0.81657 0.0
H514 H 0.1896 0.29489 0.7733 0.0
H515 H 0.17192 0.42151 0.74266 0.0
C516 C 0.17155 0.39241 0.70905 0.0
C517 C 0.17436 0.35652 0.69651 0.0
C518 C 0.18528 0.32155 0.78274 0.0
C519 C 0.18084 0.35919 0.74521 0.0
C520 C 0.1823 0.31892 0.80698 0.0
C521 C 0.17568 0.3523 0.81973 0.0
C522 C 0.18143 0.35771 0.77105 0.0
C523 C 0.17361 0.3889 0.80747 0.0
C524 C 0.17481 0.39389 0.73334 0.0
C525 C 0.18147 0.32315 0.70902 0.0
N526 N 0.17612 0.39042 0.78377 0.0
N527 N 0.18422 0.32518 0.73266 0.0
H528 H 0.24379 0.82386 0.81484 0.0
H529 H 0.12099 0.84798 0.69793 0.0
H530 H 0.12067 0.84366 0.81528 0.0
H531 H 0.24636 0.83195 0.69949 0.0
H532 H 0.11583 0.84036 0.74055 0.0
H533 H 0.24064 0.82044 0.77242 0.0
C534 C 0.21582 0.82719 0.80605 0.0
C535 C 0.18258 0.83432 0.81876 0.0
C536 C 0.14425 0.83821 0.73151 0.0
C537 C 0.17897 0.83071 0.76983 0.0
C538 C 0.14717 0.84244 0.70715 0.0
C539 C 0.18432 0.84084 0.69501 0.0
C540 C 0.17867 0.83228 0.74384 0.0
C541 C 0.21723 0.83369 0.70799 0.0
C542 C 0.21408 0.82527 0.78174 0.0
C543 C 0.14708 0.83815 0.80626 0.0
N544 N 0.21371 0.82989 0.73161 0.0
N545 N 0.1464 0.83662 0.78249 0.0
H546 H 0.59749 0.77043 0.69292 0.0
H547 H 0.73132 0.89847 0.81161 0.0
H548 H 0.73628 0.89859 0.69542 0.0
H549 H 0.59978 0.76256 0.80924 0.0
H550 H 0.72951 0.90325 0.76913 0.0
H551 H 0.59351 0.77142 0.7355 0.0
C552 C 0.62696 0.79904 0.70236 0.0
C553 C 0.66745 0.8343 0.69049 0.0
C554 C 0.70092 0.87248 0.77791 0.0
C555 C 0.66315 0.83548 0.73935 0.0
C556 C 0.70186 0.86973 0.80222 0.0
C557 C 0.66581 0.82988 0.81411 0.0
C558 C 0.66361 0.83518 0.76531 0.0
C559 C 0.62855 0.79386 0.80089 0.0
C560 C 0.6247 0.79948 0.72671 0.0
C561 C 0.70446 0.87046 0.70376 0.0
N562 N 0.62853 0.79729 0.77723 0.0
N563 N 0.70151 0.86997 0.72743 0.0
H564 H 0.15898 0.91368 0.96571 0.0
H565 H 0.37826 0.09276 0.04671 0.0
H566 H 0.30111 0.93198 0.96094 0.0
H567 H 0.23424 0.06851 0.05405 0.0
H568 H 0.35113 0.03568 0.01453 0.0
H569 H 0.1856 0.96945 0.9984 0.0
C570 C 0.19559 0.92879 0.97173 0.0
C571 C 0.22784 0.91808 0.96042 0.0
C572 C 0.32553 0.04307 0.02309 0.0
C573 C 0.25884 0.9829 0.99768 0.0
C574 C 0.3411 0.07605 0.04137 0.0
C575 C 0.30857 0.08567 0.05315 0.0
C576 C 0.27704 0.01943 0.0165 0.0
C577 C 0.26074 0.06247 0.04548 0.0
C578 C 0.21087 0.96099 0.99032 0.0
C579 C 0.27491 0.93908 0.96903 0.0
N580 N 0.24643 0.03034 0.02773 0.0
N581 N 0.28904 0.9707 0.987 0.0
H582 H 0.8651 0.78693 0.45479 0.0
H583 H 0.65505 0.72223 0.54748 0.0
H584 H 0.73925 0.64714 0.46076 0.0
H585 H 0.7918 0.85276 0.55028 0.0
H586 H 0.68352 0.6965 0.51408 0.0
H587 H 0.83799 0.8131 0.48866 0.0
C588 C 0.83204 0.76151 0.46335 0.0
C589 C 0.80454 0.71463 0.45486 0.0
C590 C 0.70727 0.73084 0.52194 0.0
C591 C 0.77282 0.74479 0.49352 0.0
C592 C 0.6909 0.74581 0.54096 0.0
C593 C 0.72097 0.7899 0.55179 0.0
C594 C 0.75404 0.76017 0.51349 0.0
C595 C 0.76723 0.81856 0.54253 0.0
C596 C 0.81649 0.7766 0.48267 0.0
C597 C 0.76185 0.68351 0.46669 0.0
N598 N 0.78231 0.80321 0.52395 0.0
N599 N 0.7472 0.69923 0.48527 0.0
H600 H 0.07348 0.22333 0.95866 0.0
H601 H 0.9291 0.28843 0.05179 0.0
H602 H 0.08959 0.36384 0.9653 0.0
H603 H 0.93138 0.15582 0.053 0.0
H604 H 0.98328 0.31434 0.01827 0.0
H605 H 0.01873 0.19657 0.99201 0.0
C606 C 0.06598 0.24876 0.96725 0.0
C607 C 0.08645 0.29603 0.95912 0.0
C608 C 0.97173 0.27946 0.02579 0.0
C609 C 0.02289 0.26523 0.99718 0.0
C610 C 0.94039 0.26441 0.04486 0.0
C611 C 0.9254 0.21973 0.05531 0.0
C612 C 0.98822 0.24964 0.01696 0.0
C613 C 0.94177 0.19049 0.04556 0.0
C614 C 0.03449 0.23334 0.98627 0.0
C615 C 0.07501 0.32716 0.97097 0.0
N616 N 0.97229 0.20597 0.027 0.0
N617 N 0.04384 0.31115 0.98926 0.0
H618 H 0.25427 0.10041 0.46432 0.0
H619 H 0.30959 0.94125 0.55265 0.0
H620 H 0.38707 0.09771 0.46463 0.0
H621 H 0.17669 0.94371 0.55229 0.0
H622 H 0.33848 0.99845 0.5204 0.0
H623 H 0.22663 0.04569 0.49756 0.0
C624 C 0.27805 0.08909 0.47159 0.0
C625 C 0.32312 0.10377 0.46151 0.0
C626 C 0.30291 0.98631 0.5273 0.0
C627 C 0.29108 0.04007 0.49941 0.0
C628 C 0.28619 0.95331 0.54565 0.0
C629 C 0.24056 0.93751 0.55531 0.0
C630 C 0.2739 1.00386 0.51849 0.0
C631 C 0.21206 0.9547 0.54545 0.0
C632 C 0.26199 0.0574 0.49049 0.0
C633 C 0.35204 0.08743 0.47171 0.0
N634 N 0.22927 0.98704 0.5277 0.0
N635 N 0.3354 0.05626 0.48995 0.0
H636 H 0.71949 0.63853 0.04703 0.0
H637 H 0.77683 0.8518 0.95775 0.0
H638 H 0.84704 0.77755 0.05054 0.0
H639 H 0.64398 0.71704 0.95772 0.0
H640 H 0.80325 0.82502 0.99153 0.0
H641 H 0.69255 0.66566 0.01353 0.0
C642 C 0.74216 0.6746 0.04065 0.0
C643 C 0.78575 0.70571 0.05172 0.0
C644 C 0.76818 0.80139 0.98425 0.0
C645 C 0.75461 0.73724 0.01337 0.0
C646 C 0.7529 0.81676 0.96497 0.0
C647 C 0.70797 0.7867 0.95479 0.0
C648 C 0.73855 0.75545 0.99344 0.0
C649 C 0.67877 0.7416 0.96498 0.0
C650 C 0.72653 0.69017 0.02157 0.0
C651 C 0.81327 0.75216 0.04262 0.0
N652 N 0.69467 0.72727 0.98362 0.0
N653 N 0.79721 0.76649 0.02406 0.0
H654 H 0.09032 0.23863 0.55505 0.0
H655 H 0.94095 0.29909 0.46292 0.0
H656 H 0.09968 0.37654 0.54983 0.0
H657 H 0.94021 0.16495 0.46446 0.0
H658 H 0.99606 0.32659 0.49598 0.0
H659 H 0.0347 0.2107 0.52223 0.0
C660 C 0.08134 0.26336 0.54681 0.0
C661 C 0.09999 0.31016 0.55526 0.0
C662 C 0.98365 0.29104 0.48916 0.0
C663 C 0.03532 0.2779 0.51783 0.0
C664 C 0.95182 0.27511 0.47036 0.0
C665 C 0.93591 0.22961 0.46076 0.0
C666 C 0.99976 0.2613 0.49852 0.0
C667 C 0.95147 0.20031 0.4712 0.0
C668 C 0.04921 0.24719 0.52814 0.0
C669 C 0.08649 0.34025 0.54392 0.0
N670 N 0.98266 0.21674 0.48941 0.0
N671 N 0.05483 0.32353 0.52591 0.0
H672 H 0.76657 0.22404 0.12893 0.0
H673 H 0.48707 0.0719 0.10855 0.0
H674 H 0.70427 0.1025 0.08272 0.0
H675 H 0.55646 0.22213 0.12502 0.0
H676 H 0.56586 0.07935 0.10243 0.0
H677 H 0.68987 0.22225 0.13035 0.0
C678 C 0.73706 0.19765 0.11863 0.0
C679 C 0.74197 0.16375 0.10542 0.0
C680 C 0.56382 0.1107 0.10731 0.0
C681 C 0.65353 0.16025 0.10782 0.0
C682 C 0.51897 0.1064 0.11099 0.0
C683 C 0.51546 0.14645 0.11741 0.0
C684 C 0.60542 0.15517 0.11049 0.0
C685 C 0.55778 0.1904 0.12016 0.0
C686 C 0.69318 0.19644 0.11962 0.0
C687 C 0.70206 0.12946 0.093 0.0
N688 N 0.60113 0.19354 0.11688 0.0
N689 N 0.65925 0.12816 0.09475 0.0
H690 H 0.69284 0.46289 0.37806 0.0
H691 H 0.4291 0.31225 0.43129 0.0
H692 H 0.61542 0.52732 0.40777 0.0
H693 H 0.47853 0.25768 0.3756 0.0
H694 H 0.50484 0.38806 0.42929 0.0
H695 H 0.62103 0.38367 0.38297 0.0
C696 C 0.66075 0.46027 0.38562 0.0
C697 C 0.65969 0.50145 0.39239 0.0
C698 C 0.49924 0.35925 0.41769 0.0
C699 C 0.57846 0.41168 0.39844 0.0
C700 C 0.45618 0.31599 0.41888 0.0
C701 C 0.44768 0.27864 0.40366 0.0
C702 C 0.53418 0.365 0.40131 0.0
C703 C 0.48393 0.28537 0.38788 0.0
C704 C 0.61996 0.41525 0.3884 0.0
C705 C 0.61748 0.49636 0.40218 0.0
N706 N 0.5257 0.32783 0.38708 0.0
N707 N 0.57858 0.45225 0.40502 0.0
H708 H 0.81101 0.34201 0.09563 0.0
H709 H 0.91025 0.60565 0.14655 0.0
H710 H 0.91561 0.40405 0.15064 0.0
H711 H 0.8061 0.54891 0.09113 0.0
H712 H 0.90821 0.52958 0.14939 0.0
H713 H 0.80471 0.41474 0.09461 0.0
C714 C 0.83255 0.37094 0.10753 0.0
C715 C 0.86408 0.36724 0.12318 0.0
C716 C 0.8855 0.53337 0.13665 0.0
C717 C 0.857 0.45027 0.12214 0.0
C718 C 0.88666 0.57691 0.13501 0.0
C719 C 0.85836 0.58359 0.11853 0.0
C720 C 0.85606 0.4959 0.12156 0.0
C721 C 0.82821 0.54503 0.10417 0.0
C722 C 0.8289 0.41236 0.10694 0.0
C723 C 0.89101 0.40553 0.13825 0.0
N724 N 0.82809 0.50278 0.10589 0.0
N725 N 0.88694 0.44542 0.1373 0.0
H726 H 0.49212 0.07073 0.40326 0.0
H727 H 0.77197 0.22621 0.38266 0.0
H728 H 0.56077 0.22278 0.3913 0.0
H729 H 0.71011 0.1034 0.42834 0.0
H730 H 0.69414 0.2228 0.38117 0.0
H731 H 0.57143 0.0781 0.40755 0.0
C732 C 0.52393 0.10557 0.40151 0.0
C733 C 0.52023 0.14621 0.39697 0.0
C734 C 0.6979 0.19696 0.39168 0.0
C735 C 0.61036 0.15483 0.40157 0.0
C736 C 0.74221 0.199 0.39261 0.0
C737 C 0.74738 0.16518 0.40573 0.0
C738 C 0.65848 0.16019 0.40351 0.0
C739 C 0.70758 0.13019 0.41804 0.0
C740 C 0.56899 0.10981 0.40406 0.0
C741 C 0.56233 0.19064 0.39487 0.0
N742 N 0.66458 0.12821 0.41641 0.0
N743 N 0.60582 0.19376 0.397 0.0
H744 H 0.41146 0.30355 0.14895 0.0
H745 H 0.67423 0.46315 0.09475 0.0
H746 H 0.4639 0.25288 0.09291 0.0
H747 H 0.61245 0.51011 0.14805 0.0
H748 H 0.60104 0.38418 0.09506 0.0
H749 H 0.4882 0.37702 0.15034 0.0
C750 C 0.43937 0.30788 0.13694 0.0
C751 C 0.43124 0.27218 0.1207 0.0
C752 C 0.60365 0.41174 0.10673 0.0
C753 C 0.5198 0.35698 0.12207 0.0
C754 C 0.64533 0.45672 0.10657 0.0
C755 C 0.64917 0.49316 0.12134 0.0
C756 C 0.56576 0.4033 0.12182 0.0
C757 C 0.6109 0.48309 0.13633 0.0
C758 C 0.48333 0.34998 0.13774 0.0
C759 C 0.46885 0.27959 0.10571 0.0
N760 N 0.57087 0.43924 0.13614 0.0
N761 N 0.51158 0.32144 0.10664 0.0
H762 H 0.93017 0.61266 0.36653 0.0
H763 H 0.81747 0.34629 0.41677 0.0
H764 H 0.81407 0.55576 0.41634 0.0
H765 H 0.9404 0.41479 0.37125 0.0
H766 H 0.81231 0.41991 0.41654 0.0
H767 H 0.93052 0.53784 0.36737 0.0
C768 C 0.90457 0.58422 0.3777 0.0
C769 C 0.87216 0.59057 0.39147 0.0
C770 C 0.8404 0.41876 0.40666 0.0
C771 C 0.8724 0.5039 0.39258 0.0
C772 C 0.84341 0.37687 0.4068 0.0
C773 C 0.87952 0.37461 0.39404 0.0
C774 C 0.87367 0.45842 0.39358 0.0
C775 C 0.91207 0.415 0.38136 0.0
C776 C 0.90481 0.54132 0.37818 0.0
C777 C 0.8396 0.55224 0.40543 0.0
N778 N 0.90832 0.45506 0.38144 0.0
N779 N 0.84061 0.51039 0.4057 0.0
H780 H 0.09533 0.70519 0.62111 0.0
H781 H 0.2232 0.55005 0.60326 0.0
H782 H 0.24465 0.76742 0.60306 0.0
H783 H 0.08853 0.49728 0.63946 0.0
H784 H 0.23005 0.6289 0.60058 0.0
H785 H 0.09001 0.62719 0.62525 0.0
C786 C 0.12698 0.70227 0.61799 0.0
C787 C 0.17059 0.74258 0.61184 0.0
C788 C 0.19911 0.60015 0.6092 0.0
C789 C 0.16486 0.65384 0.61645 0.0
C790 C 0.19513 0.55519 0.61068 0.0
C791 C 0.15518 0.5173 0.62155 0.0
C792 C 0.16259 0.60702 0.61843 0.0
C793 C 0.11987 0.52569 0.63094 0.0
C794 C 0.12402 0.65792 0.62047 0.0
C795 C 0.21065 0.73729 0.60813 0.0
N796 N 0.12425 0.56967 0.62904 0.0
N797 N 0.2068 0.69356 0.61036 0.0
H798 H 0.36709 0.85416 0.93423 0.0
H799 H 0.55787 0.80903 0.87142 0.0
H800 H 0.39916 0.88558 0.86111 0.0
H801 H 0.5951 0.88276 0.93751 0.0
H802 H 0.48595 0.81637 0.87004 0.0
H803 H 0.43908 0.84637 0.93828 0.0
C804 C 0.38936 0.85946 0.91907 0.0
C805 C 0.37752 0.87062 0.8973 0.0
C806 C 0.50974 0.8306 0.8849 0.0
C807 C 0.45831 0.86051 0.90171 0.0
C808 C 0.55057 0.8262 0.88583 0.0
C809 C 0.58263 0.8457 0.90456 0.0
C810 C 0.50019 0.85356 0.9031 0.0
C811 C 0.57131 0.86749 0.92274 0.0
C812 C 0.43027 0.85515 0.92143 0.0
C813 C 0.40734 0.87718 0.87819 0.0
N814 N 0.53072 0.87073 0.92162 0.0
N815 N 0.44609 0.87137 0.88076 0.0
H816 H 0.49887 0.65853 0.577 0.0
H817 H 0.26462 0.4637 0.64036 0.0
H818 H 0.4971 0.63386 0.65104 0.0
H819 H 0.30808 0.42822 0.57565 0.0
H820 H 0.34114 0.53865 0.64172 0.0
H821 H 0.42032 0.58524 0.5736 0.0
C822 C 0.48173 0.63782 0.59253 0.0
C823 C 0.50426 0.65199 0.61434 0.0
C824 C 0.33369 0.51455 0.62717 0.0
C825 C 0.4147 0.5694 0.6106 0.0
C826 C 0.29003 0.47196 0.62626 0.0
C827 C 0.28023 0.43959 0.60791 0.0
C828 C 0.36734 0.5255 0.60931 0.0
C829 C 0.31447 0.45218 0.59013 0.0
C830 C 0.43724 0.59609 0.59054 0.0
C831 C 0.48085 0.62395 0.63392 0.0
N832 N 0.35663 0.49442 0.5912 0.0
N833 N 0.437 0.58417 0.63164 0.0
H834 H 0.12022 0.70334 0.93315 0.0
H835 H 0.23197 0.54996 0.88183 0.0
H836 H 0.22979 0.75918 0.87992 0.0
H837 H 0.09225 0.48914 0.91381 0.0
H838 H 0.24124 0.63005 0.8861 0.0
H839 H 0.12048 0.62792 0.93223 0.0
C840 C 0.14473 0.69985 0.92144 0.0
C841 C 0.17459 0.73719 0.90638 0.0
C842 C 0.20866 0.59908 0.89218 0.0
C843 C 0.17497 0.65098 0.90517 0.0
C844 C 0.20337 0.55356 0.88975 0.0
C845 C 0.16118 0.51312 0.89737 0.0
C846 C 0.1718 0.60388 0.90264 0.0
C847 C 0.12521 0.51945 0.90759 0.0
C848 C 0.14469 0.65674 0.92083 0.0
C849 C 0.20593 0.73095 0.89167 0.0
N850 N 0.13141 0.56398 0.91 0.0
N851 N 0.20514 0.6884 0.89132 0.0
H852 H 0.35389 0.81853 0.59564 0.0
H853 H 0.62154 0.92141 0.64307 0.0
H854 H 0.42297 0.93301 0.64547 0.0
H855 H 0.55961 0.80866 0.59194 0.0
H856 H 0.54701 0.92283 0.64473 0.0
H857 H 0.42656 0.81167 0.5943 0.0
C858 C 0.38442 0.84228 0.60625 0.0
C859 C 0.38259 0.87655 0.62064 0.0
C860 C 0.54931 0.89758 0.63314 0.0
C861 C 0.4655 0.86874 0.61928 0.0
C862 C 0.59203 0.89672 0.63217 0.0
C863 C 0.59689 0.86497 0.61726 0.0
C864 C 0.51067 0.86655 0.619 0.0
C865 C 0.55726 0.83358 0.60372 0.0
C866 C 0.42579 0.83826 0.60551 0.0
C867 C 0.42291 0.90622 0.6341 0.0
N868 N 0.51572 0.8353 0.60482 0.0
N869 N 0.4626 0.90163 0.63307 0.0
H870 H 0.51567 0.60539 0.85873 0.0
H871 H 0.25759 0.45873 0.92065 0.0
H872 H 0.47087 0.66618 0.91345 0.0
H873 H 0.31252 0.40259 0.86831 0.0
H874 H 0.33187 0.537 0.9171 0.0
H875 H 0.43783 0.5325 0.86067 0.0
C876 C 0.48928 0.60338 0.87112 0.0
C877 C 0.49973 0.64168 0.88601 0.0
C878 C 0.32737 0.50745 0.90637 0.0
C879 C 0.41022 0.55805 0.88851 0.0
C880 C 0.28501 0.46298 0.90834 0.0
C881 C 0.27905 0.42418 0.89482 0.0
C882 C 0.36356 0.51275 0.89074 0.0
C883 C 0.31569 0.43139 0.87923 0.0
C884 C 0.44474 0.56171 0.87227 0.0
C885 C 0.46415 0.63725 0.90171 0.0
N886 N 0.35616 0.47454 0.87767 0.0
N887 N 0.42095 0.59605 0.90264 0.0
loop_
_geom_bond_atom_site_label_1
_geom_bond_atom_site_label_2
_geom_bond_distance
_geom_bond_site_symmetry_2
_ccdc_geom_bond_type
Tb0 O3 2.453 . S
Tb0 O4 2.596 . S
Tb0 O5 2.374 . S
Tb0 O13 2.343 . S
Tb0 O15 2.353 . S
Tb0 O17 2.427 . S
Tb0 O18 2.513 . S
C1 O5 1.251 . S
C1 O7 1.263 . S
Tb2 O4 2.343 . S
Tb2 O7 2.353 . S
Tb2 O10 2.427 . S
Tb2 O11 2.513 . S
Tb2 O12 2.453 . S
Tb2 O13 2.596 . S
Tb2 O14 2.374 . S
O3 Tb0 2.453 . S
O3 C19 1.245 . S
O4 Tb0 2.596 . S
O4 Tb2 2.343 . S
O4 C19 1.259 . S
O5 Tb0 2.374 . S
O5 C1 1.251 . S
C6 O10 1.275 . S
C6 O11 1.246 . S
O7 C1 1.263 . S
O7 Tb2 2.353 . S
C8 O12 1.245 . S
C8 O13 1.259 . S
C9 O14 1.250 . S
C9 O15 1.263 . S
O10 Tb2 2.427 . S
O10 C6 1.275 . S
O11 Tb2 2.513 . S
O11 C6 1.246 . S
O12 Tb2 2.453 . S
O12 C8 1.245 . S
O13 Tb0 2.343 . S
O13 Tb2 2.596 . S
O13 C8 1.259 . S
O14 Tb2 2.374 . S
O14 C9 1.250 . S
O15 Tb0 2.353 . S
O15 C9 1.263 . S
C16 O17 1.275 . S
C16 O18 1.246 . S
O17 Tb0 2.427 . S
O17 C16 1.275 . S
O18 Tb0 2.513 . S
O18 C16 1.246 . S
C19 O3 1.245 . S
C19 O4 1.259 . S
Tb20 O23 2.453 . S
Tb20 O24 2.596 . S
Tb20 O25 2.374 . S
Tb20 O33 2.343 . S
Tb20 O35 2.353 . S
Tb20 O37 2.427 . S
Tb20 O38 2.513 . S
C21 O25 1.251 . S
C21 O27 1.263 . S
Tb22 O24 2.343 . S
Tb22 O27 2.353 . S
Tb22 O30 2.427 . S
Tb22 O31 2.513 . S
Tb22 O32 2.453 . S
Tb22 O33 2.596 . S
Tb22 O34 2.374 . S
O23 Tb20 2.453 . S
O23 C39 1.245 . S
O24 Tb20 2.596 . S
O24 Tb22 2.343 . S
O24 C39 1.259 . S
O25 Tb20 2.374 . S
O25 C21 1.251 . S
C26 O30 1.275 . S
C26 O31 1.246 . S
O27 C21 1.263 . S
O27 Tb22 2.353 . S
C28 O32 1.245 . S
C28 O33 1.259 . S
C29 O34 1.250 . S
C29 O35 1.263 . S
O30 Tb22 2.427 . S
O30 C26 1.275 . S
O31 Tb22 2.513 . S
O31 C26 1.246 . S
O32 Tb22 2.453 . S
O32 C28 1.245 . S
O33 Tb20 2.343 . S
O33 Tb22 2.596 . S
O33 C28 1.259 . S
O34 Tb22 2.374 . S
O34 C29 1.250 . S
O35 Tb20 2.353 . S
O35 C29 1.263 . S
C36 O37 1.275 . S
C36 O38 1.246 . S
O37 Tb20 2.427 . S
O37 C36 1.275 . S
O38 Tb20 2.513 . S
O38 C36 1.246 . S
C39 O23 1.245 . S
C39 O24 1.259 . S
Tb40 O43 2.453 . S
Tb40 O44 2.596 . S
Tb40 O45 2.374 . S
Tb40 O53 2.343 . S
Tb40 O55 2.353 . S
Tb40 O57 2.427 . S
Tb40 O58 2.513 . S
C41 O45 1.251 . S
C41 O47 1.263 . S
Tb42 O44 2.343 . S
Tb42 O47 2.353 . S
Tb42 O50 2.427 . S
Tb42 O51 2.513 . S
Tb42 O52 2.453 . S
Tb42 O53 2.596 . S
Tb42 O54 2.374 . S
O43 Tb40 2.453 . S
O43 C59 1.245 . S
O44 Tb40 2.596 . S
O44 Tb42 2.343 . S
O44 C59 1.259 . S
O45 Tb40 2.374 . S
O45 C41 1.251 . S
C46 O50 1.275 . S
C46 O51 1.246 . S
O47 C41 1.263 . S
O47 Tb42 2.353 . S
C48 O52 1.245 . S
C48 O53 1.259 . S
C49 O54 1.250 . S
C49 O55 1.263 . S
O50 Tb42 2.427 . S
O50 C46 1.275 . S
O51 Tb42 2.513 . S
O51 C46 1.246 . S
O52 Tb42 2.453 . S
O52 C48 1.245 . S
O53 Tb40 2.343 . S
O53 Tb42 2.596 . S
O53 C48 1.259 . S
O54 Tb42 2.374 . S
O54 C49 1.250 . S
O55 Tb40 2.353 . S
O55 C49 1.263 . S
C56 O57 1.275 . S
C56 O58 1.246 . S
O57 Tb40 2.427 . S
O57 C56 1.275 . S
O58 Tb40 2.513 . S
O58 C56 1.246 . S
C59 O43 1.245 . S
C59 O44 1.259 . S
Tb60 O63 2.453 . S
Tb60 O64 2.596 . S
Tb60 O65 2.374 . S
Tb60 O73 2.343 . S
Tb60 O75 2.353 . S
Tb60 O77 2.427 . S
Tb60 O78 2.513 . S
C61 O65 1.251 . S
C61 O67 1.263 . S
Tb62 O64 2.343 . S
Tb62 O67 2.353 . S
Tb62 O70 2.427 . S
Tb62 O71 2.513 . S
Tb62 O72 2.453 . S
Tb62 O73 2.596 . S
Tb62 O74 2.374 . S
O63 Tb60 2.453 . S
O63 C79 1.245 . S
O64 Tb60 2.596 . S
O64 Tb62 2.343 . S
O64 C79 1.259 . S
O65 Tb60 2.374 . S
O65 C61 1.251 . S
C66 O70 1.275 . S
C66 O71 1.246 . S
O67 C61 1.263 . S
O67 Tb62 2.353 . S
C68 O72 1.245 . S
C68 O73 1.259 . S
C69 O74 1.250 . S
C69 O75 1.263 . S
O70 Tb62 2.427 . S
O70 C66 1.275 . S
O71 Tb62 2.513 . S
O71 C66 1.246 . S
O72 Tb62 2.453 . S
O72 C68 1.245 . S
O73 Tb60 2.343 . S
O73 Tb62 2.596 . S
O73 C68 1.259 . S
O74 Tb62 2.374 . S
O74 C69 1.250 . S
O75 Tb60 2.353 . S
O75 C69 1.263 . S
C76 O77 1.275 . S
C76 O78 1.246 . S
O77 Tb60 2.427 . S
O77 C76 1.275 . S
O78 Tb60 2.513 . S
O78 C76 1.246 . S
C79 O63 1.245 . S
C79 O64 1.259 . S
Tb80 O83 2.453 . S
Tb80 O84 2.596 . S
Tb80 O85 2.374 . S
Tb80 O93 2.343 . S
Tb80 O95 2.353 . S
Tb80 O97 2.427 . S
Tb80 O98 2.513 . S
C81 O85 1.251 . S
C81 O87 1.263 . S
Tb82 O84 2.343 . S
Tb82 O87 2.353 . S
Tb82 O90 2.427 . S
Tb82 O91 2.513 . S
Tb82 O92 2.453 . S
Tb82 O93 2.596 . S
Tb82 O94 2.374 . S
O83 Tb80 2.453 . S
O83 C99 1.245 . S
O84 Tb80 2.596 . S
O84 Tb82 2.343 . S
O84 C99 1.259 . S
O85 Tb80 2.374 . S
O85 C81 1.251 . S
C86 O90 1.275 . S
C86 O91 1.246 . S
O87 C81 1.263 . S
O87 Tb82 2.353 . S
C88 O92 1.245 . S
C88 O93 1.259 . S
C89 O94 1.250 . S
C89 O95 1.263 . S
O90 Tb82 2.427 . S
O90 C86 1.275 . S
O91 Tb82 2.513 . S
O91 C86 1.246 . S
O92 Tb82 2.453 . S
O92 C88 1.245 . S
O93 Tb80 2.343 . S
O93 Tb82 2.596 . S
O93 C88 1.259 . S
O94 Tb82 2.374 . S
O94 C89 1.250 . S
O95 Tb80 2.353 . S
O95 C89 1.263 . S
C96 O97 1.275 . S
C96 O98 1.246 . S
O97 Tb80 2.427 . S
O97 C96 1.275 . S
O98 Tb80 2.513 . S
O98 C96 1.246 . S
C99 O83 1.245 . S
C99 O84 1.259 . S
Tb100 O103 2.453 . S
Tb100 O104 2.596 . S
Tb100 O105 2.374 . S
Tb100 O113 2.343 . S
Tb100 O115 2.353 . S
Tb100 O117 2.427 . S
Tb100 O118 2.513 . S
C101 O105 1.251 . S
C101 O107 1.263 . S
Tb102 O104 2.343 . S
Tb102 O107 2.353 . S
Tb102 O110 2.427 . S
Tb102 O111 2.513 . S
Tb102 O112 2.453 . S
Tb102 O113 2.596 . S
Tb102 O114 2.374 . S
O103 Tb100 2.453 . S
O103 C119 1.245 . S
O104 Tb100 2.596 . S
O104 Tb102 2.343 . S
O104 C119 1.259 . S
O105 Tb100 2.374 . S
O105 C101 1.251 . S
C106 O110 1.275 . S
C106 O111 1.246 . S
O107 C101 1.263 . S
O107 Tb102 2.353 . S
C108 O112 1.245 . S
C108 O113 1.259 . S
C109 O114 1.250 . S
C109 O115 1.263 . S
O110 Tb102 2.427 . S
O110 C106 1.275 . S
O111 Tb102 2.513 . S
O111 C106 1.246 . S
O112 Tb102 2.453 . S
O112 C108 1.245 . S
O113 Tb100 2.343 . S
O113 Tb102 2.596 . S
O113 C108 1.259 . S
O114 Tb102 2.374 . S
O114 C109 1.250 . S
O115 Tb100 2.353 . S
O115 C109 1.263 . S
C116 O117 1.275 . S
C116 O118 1.246 . S
O117 Tb100 2.427 . S
O117 C116 1.275 . S
O118 Tb100 2.513 . S
O118 C116 1.246 . S
C119 O103 1.245 . S
C119 O104 1.259 . S
Tb120 O123 2.453 . S
Tb120 O124 2.596 . S
Tb120 O125 2.374 . S
Tb120 O133 2.343 . S
Tb120 O135 2.353 . S
Tb120 O137 2.427 . S
Tb120 O138 2.513 . S
C121 O125 1.251 . S
C121 O127 1.263 . S
Tb122 O124 2.343 . S
Tb122 O127 2.353 . S
Tb122 O130 2.427 . S
Tb122 O131 2.513 . S
Tb122 O132 2.453 . S
Tb122 O133 2.596 . S
Tb122 O134 2.374 . S
O123 Tb120 2.453 . S
O123 C139 1.245 . S
O124 Tb120 2.596 . S
O124 Tb122 2.343 . S
O124 C139 1.259 . S
O125 Tb120 2.374 . S
O125 C121 1.251 . S
C126 O130 1.275 . S
C126 O131 1.246 . S
O127 C121 1.263 . S
O127 Tb122 2.353 . S
C128 O132 1.245 . S
C128 O133 1.259 . S
C129 O134 1.250 . S
C129 O135 1.263 . S
O130 Tb122 2.427 . S
O130 C126 1.275 . S
O131 Tb122 2.513 . S
O131 C126 1.246 . S
O132 Tb122 2.453 . S
O132 C128 1.245 . S
O133 Tb120 2.343 . S
O133 Tb122 2.596 . S
O133 C128 1.259 . S
O134 Tb122 2.374 . S
O134 C129 1.250 . S
O135 Tb120 2.353 . S
O135 C129 1.263 . S
C136 O137 1.275 . S
C136 O138 1.246 . S
O137 Tb120 2.427 . S
O137 C136 1.275 . S
O138 Tb120 2.513 . S
O138 C136 1.246 . S
C139 O123 1.245 . S
C139 O124 1.259 . S
Tb140 O143 2.453 . S
Tb140 O144 2.596 . S
Tb140 O145 2.374 . S
Tb140 O153 2.343 . S
Tb140 O155 2.353 . S
Tb140 O157 2.427 . S
Tb140 O158 2.513 . S
C141 O145 1.251 . S
C141 O147 1.263 . S
Tb142 O144 2.343 . S
Tb142 O147 2.353 . S
Tb142 O150 2.427 . S
Tb142 O151 2.513 . S
Tb142 O152 2.453 . S
Tb142 O153 2.596 . S
Tb142 O154 2.374 . S
O143 Tb140 2.453 . S
O143 C159 1.245 . S
O144 Tb140 2.596 . S
O144 Tb142 2.343 . S
O144 C159 1.259 . S
O145 Tb140 2.374 . S
O145 C141 1.251 . S
C146 O150 1.275 . S
C146 O151 1.246 . S
O147 C141 1.263 . S
O147 Tb142 2.353 . S
C148 O152 1.245 . S
C148 O153 1.259 . S
C149 O154 1.250 . S
C149 O155 1.263 . S
O150 Tb142 2.427 . S
O150 C146 1.275 . S
O151 Tb142 2.513 . S
O151 C146 1.246 . S
O152 Tb142 2.453 . S
O152 C148 1.245 . S
O153 Tb140 2.343 . S
O153 Tb142 2.596 . S
O153 C148 1.259 . S
O154 Tb142 2.374 . S
O154 C149 1.250 . S
O155 Tb140 2.353 . S
O155 C149 1.263 . S
C156 O157 1.275 . S
C156 O158 1.246 . S
O157 Tb140 2.427 . S
O157 C156 1.275 . S
O158 Tb140 2.513 . S
O158 C156 1.246 . S
C159 O143 1.245 . S
C159 O144 1.259 . S
Tb160 O163 2.453 . S
Tb160 O164 2.596 . S
Tb160 O165 2.374 . S
Tb160 O173 2.343 . S
Tb160 O175 2.353 . S
Tb160 O177 2.427 . S
Tb160 O178 2.513 . S
C161 O165 1.251 . S
C161 O167 1.263 . S
Tb162 O164 2.343 . S
Tb162 O167 2.353 . S
Tb162 O170 2.427 . S
Tb162 O171 2.513 . S
Tb162 O172 2.453 . S
Tb162 O173 2.596 . S
Tb162 O174 2.374 . S
O163 Tb160 2.453 . S
O163 C179 1.245 . S
O164 Tb160 2.596 . S
O164 Tb162 2.343 . S
O164 C179 1.259 . S
O165 Tb160 2.374 . S
O165 C161 1.251 . S
C166 O170 1.275 . S
C166 O171 1.246 . S
O167 C161 1.263 . S
O167 Tb162 2.353 . S
C168 O172 1.245 . S
C168 O173 1.259 . S
C169 O174 1.250 . S
C169 O175 1.263 . S
O170 Tb162 2.427 . S
O170 C166 1.275 . S
O171 Tb162 2.513 . S
O171 C166 1.246 . S
O172 Tb162 2.453 . S
O172 C168 1.245 . S
O173 Tb160 2.343 . S
O173 Tb162 2.596 . S
O173 C168 1.259 . S
O174 Tb162 2.374 . S
O174 C169 1.250 . S
O175 Tb160 2.353 . S
O175 C169 1.263 . S
C176 O177 1.275 . S
C176 O178 1.246 . S
O177 Tb160 2.427 . S
O177 C176 1.275 . S
O178 Tb160 2.513 . S
O178 C176 1.246 . S
C179 O163 1.245 . S
C179 O164 1.259 . S
Tb180 O183 2.453 . S
Tb180 O184 2.596 . S
Tb180 O185 2.374 . S
Tb180 O193 2.343 . S
Tb180 O195 2.353 . S
Tb180 O197 2.427 . S
Tb180 O198 2.513 . S
C181 O185 1.251 . S
C181 O187 1.263 . S
Tb182 O184 2.343 . S
Tb182 O187 2.353 . S
Tb182 O190 2.427 . S
Tb182 O191 2.513 . S
Tb182 O192 2.453 . S
Tb182 O193 2.596 . S
Tb182 O194 2.374 . S
O183 Tb180 2.453 . S
O183 C199 1.245 . S
O184 Tb180 2.596 . S
O184 Tb182 2.343 . S
O184 C199 1.259 . S
O185 Tb180 2.374 . S
O185 C181 1.251 . S
C186 O190 1.275 . S
C186 O191 1.246 . S
O187 C181 1.263 . S
O187 Tb182 2.353 . S
C188 O192 1.245 . S
C188 O193 1.259 . S
C189 O194 1.250 . S
C189 O195 1.263 . S
O190 Tb182 2.427 . S
O190 C186 1.275 . S
O191 Tb182 2.513 . S
O191 C186 1.246 . S
O192 Tb182 2.453 . S
O192 C188 1.245 . S
O193 Tb180 2.343 . S
O193 Tb182 2.596 . S
O193 C188 1.259 . S
O194 Tb182 2.374 . S
O194 C189 1.250 . S
O195 Tb180 2.353 . S
O195 C189 1.263 . S
C196 O197 1.275 . S
C196 O198 1.246 . S
O197 Tb180 2.427 . S
O197 C196 1.275 . S
O198 Tb180 2.513 . S
O198 C196 1.246 . S
C199 O183 1.245 . S
C199 O184 1.259 . S
Tb200 O203 2.453 . S
Tb200 O204 2.596 . S
Tb200 O205 2.374 . S
Tb200 O213 2.343 . S
Tb200 O215 2.353 . S
Tb200 O217 2.427 . S
Tb200 O218 2.513 . S
C201 O205 1.251 . S
C201 O207 1.263 . S
Tb202 O204 2.343 . S
Tb202 O207 2.353 . S
Tb202 O210 2.427 . S
Tb202 O211 2.513 . S
Tb202 O212 2.453 . S
Tb202 O213 2.596 . S
Tb202 O214 2.374 . S
O203 Tb200 2.453 . S
O203 C219 1.245 . S
O204 Tb200 2.596 . S
O204 Tb202 2.343 . S
O204 C219 1.259 . S
O205 Tb200 2.374 . S
O205 C201 1.251 . S
C206 O210 1.275 . S
C206 O211 1.246 . S
O207 C201 1.263 . S
O207 Tb202 2.353 . S
C208 O212 1.245 . S
C208 O213 1.259 . S
C209 O214 1.250 . S
C209 O215 1.263 . S
O210 Tb202 2.427 . S
O210 C206 1.275 . S
O211 Tb202 2.513 . S
O211 C206 1.246 . S
O212 Tb202 2.453 . S
O212 C208 1.245 . S
O213 Tb200 2.343 . S
O213 Tb202 2.596 . S
O213 C208 1.259 . S
O214 Tb202 2.374 . S
O214 C209 1.250 . S
O215 Tb200 2.353 . S
O215 C209 1.263 . S
C216 O217 1.275 . S
C216 O218 1.246 . S
O217 Tb200 2.427 . S
O217 C216 1.275 . S
O218 Tb200 2.513 . S
O218 C216 1.246 . S
C219 O203 1.245 . S
C219 O204 1.259 . S
Tb220 O223 2.453 . S
Tb220 O224 2.596 . S
Tb220 O225 2.374 . S
Tb220 O233 2.343 . S
Tb220 O235 2.353 . S
Tb220 O237 2.427 . S
Tb220 O238 2.513 . S
C221 O225 1.251 . S
C221 O227 1.263 . S
Tb222 O224 2.343 . S
Tb222 O227 2.353 . S
Tb222 O230 2.427 . S
Tb222 O231 2.513 . S
Tb222 O232 2.453 . S
Tb222 O233 2.596 . S
Tb222 O234 2.374 . S
O223 Tb220 2.453 . S
O223 C239 1.245 . S
O224 Tb220 2.596 . S
O224 Tb222 2.343 . S
O224 C239 1.259 . S
O225 Tb220 2.374 . S
O225 C221 1.251 . S
C226 O230 1.275 . S
C226 O231 1.246 . S
O227 C221 1.263 . S
O227 Tb222 2.353 . S
C228 O232 1.245 . S
C228 O233 1.259 . S
C229 O234 1.250 . S
C229 O235 1.263 . S
O230 Tb222 2.427 . S
O230 C226 1.275 . S
O231 Tb222 2.513 . S
O231 C226 1.246 . S
O232 Tb222 2.453 . S
O232 C228 1.245 . S
O233 Tb220 2.343 . S
O233 Tb222 2.596 . S
O233 C228 1.259 . S
O234 Tb222 2.374 . S
O234 C229 1.250 . S
O235 Tb220 2.353 . S
O235 C229 1.263 . S
C236 O237 1.275 . S
C236 O238 1.246 . S
O237 Tb220 2.427 . S
O237 C236 1.275 . S
O238 Tb220 2.513 . S
O238 C236 1.246 . S
C239 O223 1.245 . S
C239 O224 1.259 . S
H240 C246 0.930 . S
H241 C250 0.930 . S
H242 C255 0.929 . S
H243 C253 0.929 . S
H244 C248 0.929 . S
H245 C254 0.929 . S
C246 H240 0.930 . S
C246 C247 1.367 1_455 S
C246 C254 1.378 . S
C247 C246 1.367 1_655 S
C247 C255 1.433 . S
C248 H244 0.929 . S
C248 C250 1.378 . S
C248 C252 1.350 . S
C249 C252 1.463 . S
C249 C254 1.350 . S
C249 N257 1.427 1_455 S
C250 H241 0.930 . S
C250 C248 1.378 . S
C250 C251 1.367 . S
C251 C250 1.367 . S
C251 C253 1.433 . S
C252 C248 1.350 . S
C252 C249 1.463 . S
C252 N256 1.427 . S
C253 H243 0.929 . S
C253 C251 1.433 . S
C253 N256 1.384 . S
C254 H245 0.929 . S
C254 C246 1.378 . S
C254 C249 1.350 . S
C255 H242 0.929 . S
C255 C247 1.433 . S
C255 N257 1.384 . S
N256 C252 1.427 . S
N256 C253 1.384 . S
N257 C249 1.427 1_655 S
N257 C255 1.384 . S
H258 C264 0.930 . S
H259 C268 0.930 . S
H260 C273 0.929 . S
H261 C271 0.929 . S
H262 C266 0.929 . S
H263 C272 0.929 . S
C264 H258 0.930 . S
C264 C265 1.367 . S
C264 C272 1.378 1_545 S
C265 C264 1.367 . S
C265 C273 1.433 . S
C266 H262 0.929 . S
C266 C268 1.378 1_455 S
C266 C270 1.350 . S
C267 C270 1.463 . S
C267 C272 1.350 . S
C267 N275 1.427 . S
C268 H259 0.930 . S
C268 C266 1.378 1_655 S
C268 C269 1.367 . S
C269 C268 1.367 . S
C269 C271 1.433 1_655 S
C270 C266 1.350 . S
C270 C267 1.463 . S
C270 N274 1.427 . S
C271 H261 0.929 . S
C271 C269 1.433 1_455 S
C271 N274 1.384 . S
C272 H263 0.929 . S
C272 C264 1.378 1_565 S
C272 C267 1.350 . S
C273 H260 0.929 . S
C273 C265 1.433 . S
C273 N275 1.384 1_545 S
N274 C270 1.427 . S
N274 C271 1.384 . S
N275 C267 1.427 . S
N275 C273 1.384 1_565 S
H276 C282 0.930 . S
H277 C286 0.930 . S
H278 C291 0.929 . S
H279 C289 0.929 . S
H280 C284 0.929 . S
H281 C290 0.929 . S
C282 H276 0.930 . S
C282 C283 1.367 . S
C282 C290 1.378 1_545 S
C283 C282 1.367 . S
C283 C291 1.433 1_545 S
C284 H280 0.929 . S
C284 C286 1.378 . S
C284 C288 1.350 . S
C285 C288 1.463 . S
C285 C290 1.350 . S
C285 N293 1.427 . S
C286 H277 0.930 . S
C286 C284 1.378 . S
C286 C287 1.367 . S
C287 C286 1.367 . S
C287 C289 1.433 . S
C288 C284 1.350 . S
C288 C285 1.463 . S
C288 N292 1.427 . S
C289 H279 0.929 . S
C289 C287 1.433 . S
C289 N292 1.384 . S
C290 H281 0.929 . S
C290 C282 1.378 1_565 S
C290 C285 1.350 . S
C291 H278 0.929 . S
C291 C283 1.433 1_565 S
C291 N293 1.384 . S
N292 C288 1.427 . S
N292 C289 1.384 . S
N293 C285 1.427 . S
N293 C291 1.384 . S
H294 C300 0.930 . S
H295 C304 0.930 . S
H296 C309 0.929 . S
H297 C307 0.923 1_655 S
H298 C302 0.929 . S
H299 C308 0.929 . S
C300 H294 0.930 . S
C300 C301 1.367 . S
C300 C308 1.378 . S
C301 C300 1.367 . S
C301 C309 1.433 . S
C302 H298 0.929 . S
C302 C304 1.378 1_455 S
C302 C306 1.350 . S
C303 C306 1.463 . S
C303 C308 1.350 . S
C303 N311 1.427 . S
C304 H295 0.930 . S
C304 C302 1.378 1_655 S
C304 C305 1.367 . S
C305 C304 1.367 . S
C305 C307 1.425 1_655 S
C306 C302 1.350 . S
C306 C303 1.463 . S
C306 N310 1.427 . S
C307 H297 0.923 1_455 S
C307 C305 1.425 1_455 S
C307 N310 1.399 . S
C308 H299 0.929 . S
C308 C300 1.378 . S
C308 C303 1.350 . S
C309 H296 0.929 . S
C309 C301 1.433 . S
C309 N311 1.384 . S
N310 C306 1.427 . S
N310 C307 1.399 . S
N311 C303 1.427 . S
N311 C309 1.384 . S
H312 C318 0.930 . S
H313 C322 0.930 . S
H314 C327 0.929 . S
H315 C325 0.929 . S
H316 C320 0.929 . S
H317 C326 0.929 . S
C318 H312 0.930 . S
C318 C319 1.367 1_565 S
C318 C326 1.378 . S
C319 C318 1.367 1_545 S
C319 C327 1.433 . S
C320 H316 0.929 . S
C320 C322 1.378 1_455 S
C320 C324 1.350 . S
C321 C324 1.463 . S
C321 C326 1.350 . S
C321 N329 1.408 1_565 S
C322 H313 0.930 . S
C322 C320 1.378 1_655 S
C322 C323 1.367 . S
C323 C322 1.367 . S
C323 C325 1.433 1_655 S
C324 C320 1.350 . S
C324 C321 1.463 . S
C324 N328 1.427 . S
C325 H315 0.929 . S
C325 C323 1.433 1_455 S
C325 N328 1.384 . S
C326 H317 0.929 . S
C326 C318 1.378 . S
C326 C321 1.350 . S
C327 H314 0.929 . S
C327 C319 1.433 . S
C327 N329 1.392 . S
N328 C324 1.427 . S
N328 C325 1.384 . S
N329 C321 1.408 1_545 S
N329 C327 1.392 . S
H330 C336 0.930 . S
H331 C340 0.930 1_545 S
H332 C345 0.929 . S
H333 C343 0.929 1_545 S
H334 C338 0.929 . S
H335 C344 0.929 . S
C336 H330 0.930 . S
C336 C337 1.367 . S
C336 C344 1.378 . S
C337 C336 1.367 . S
C337 C345 1.433 . S
C338 H334 0.929 . S
C338 C340 1.378 . S
C338 C342 1.350 . S
C339 C342 1.463 . S
C339 C344 1.350 . S
C339 N347 1.427 . S
C340 H331 0.930 1_565 S
C340 C338 1.378 . S
C340 C341 1.367 1_565 S
C341 C340 1.367 1_545 S
C341 C343 1.433 1_545 S
C342 C338 1.350 . S
C342 C339 1.463 . S
C342 N346 1.427 . S
C343 H333 0.929 1_565 S
C343 C341 1.433 1_565 S
C343 N346 1.384 . S
C344 H335 0.929 . S
C344 C336 1.378 . S
C344 C339 1.350 . S
C345 H332 0.929 . S
C345 C337 1.433 . S
C345 N347 1.384 . S
N346 C342 1.427 . S
N346 C343 1.384 . S
N347 C339 1.427 . S
N347 C345 1.384 . S
H348 C354 0.930 . S
H349 C358 0.930 . S
H350 C363 0.937 . S
H351 C361 0.929 . S
H352 C356 0.929 . S
H353 C362 0.929 . S
C354 H348 0.930 . S
C354 C355 1.367 . S
C354 C362 1.378 1_565 S
C355 C354 1.367 . S
C355 C363 1.433 1_565 S
C356 H352 0.929 . S
C356 C358 1.378 . S
C356 C360 1.350 . S
C357 C360 1.463 . S
C357 C362 1.350 . S
C357 N365 1.427 . S
C358 H349 0.930 . S
C358 C356 1.378 . S
C358 C359 1.367 . S
C359 C358 1.367 . S
C359 C361 1.433 . S
C360 C356 1.350 . S
C360 C357 1.463 . S
C360 N364 1.427 . S
C361 H351 0.929 . S
C361 C359 1.433 . S
C361 N364 1.384 . S
C362 H353 0.929 . S
C362 C354 1.378 1_545 S
C362 C357 1.350 . S
C363 H350 0.937 . S
C363 C355 1.433 1_545 S
C363 N365 1.384 . S
N364 C360 1.427 . S
N364 C361 1.384 . S
N365 C357 1.427 . S
N365 C363 1.384 . S
H366 C372 0.930 . S
H367 C376 0.930 . S
H368 C381 0.929 . S
H369 C379 0.929 . S
H370 C374 0.929 . S
H371 C380 0.929 . S
C372 H366 0.930 . S
C372 C373 1.367 1_655 S
C372 C380 1.378 . S
C373 C372 1.367 1_455 S
C373 C381 1.433 . S
C374 H370 0.929 . S
C374 C376 1.378 . S
C374 C378 1.350 . S
C375 C378 1.463 . S
C375 C380 1.350 . S
C375 N383 1.427 . S
C376 H367 0.930 . S
C376 C374 1.378 . S
C376 C377 1.367 . S
C377 C376 1.367 . S
C377 C379 1.433 . S
C378 C374 1.350 . S
C378 C375 1.463 . S
C378 N382 1.427 . S
C379 H369 0.929 . S
C379 C377 1.433 . S
C379 N382 1.384 . S
C380 H371 0.929 . S
C380 C372 1.378 . S
C380 C375 1.350 . S
C381 H368 0.929 . S
C381 C373 1.433 . S
C381 N383 1.384 1_455 S
N382 C378 1.427 . S
N382 C379 1.384 . S
N383 C375 1.427 . S
N383 C381 1.384 1_655 S
H384 C390 0.930 . S
H385 C394 0.930 . S
H386 C399 0.929 . S
H387 C397 0.929 . S
H388 C392 0.929 . S
H389 C398 0.929 . S
C390 H384 0.930 . S
C390 C391 1.367 . S
C390 C398 1.378 1_565 S
C391 C390 1.367 . S
C391 C399 1.433 1_565 S
C392 H388 0.929 . S
C392 C394 1.378 . S
C392 C396 1.350 . S
C393 C396 1.463 . S
C393 C398 1.350 . S
C393 N401 1.427 . S
C394 H385 0.930 . S
C394 C392 1.378 . S
C394 C395 1.367 1_655 S
C395 C394 1.367 1_455 S
C395 C397 1.433 . S
C396 C392 1.350 . S
C396 C393 1.463 . S
C396 N400 1.427 1_655 S
C397 H387 0.929 . S
C397 C395 1.433 . S
C397 N400 1.384 . S
C398 H389 0.929 . S
C398 C390 1.378 1_545 S
C398 C393 1.350 . S
C399 H386 0.929 . S
C399 C391 1.433 1_545 S
C399 N401 1.384 . S
N400 C396 1.427 1_455 S
N400 C397 1.384 . S
N401 C393 1.427 . S
N401 C399 1.384 . S
H402 C408 0.930 . S
H403 C412 0.930 . S
H404 C417 0.929 . S
H405 C415 0.929 . S
H406 C410 0.929 . S
H407 C416 0.929 . S
C408 H402 0.930 . S
C408 C409 1.367 . S
C408 C416 1.378 . S
C409 C408 1.367 . S
C409 C417 1.433 . S
C410 H406 0.929 . S
C410 C412 1.378 1_545 S
C410 C414 1.350 . S
C411 C414 1.463 . S
C411 C416 1.350 . S
C411 N419 1.427 . S
C412 H403 0.930 . S
C412 C410 1.378 1_565 S
C412 C413 1.367 . S
C413 C412 1.367 . S
C413 C415 1.433 . S
C414 C410 1.350 . S
C414 C411 1.463 . S
C414 N418 1.427 . S
C415 H405 0.929 . S
C415 C413 1.433 . S
C415 N418 1.384 1_565 S
C416 H407 0.929 . S
C416 C408 1.378 . S
C416 C411 1.350 . S
C417 H404 0.929 . S
C417 C409 1.433 . S
C417 N419 1.384 . S
N418 C414 1.427 . S
N418 C415 1.384 1_545 S
N419 C411 1.427 . S
N419 C417 1.384 . S
H420 C426 0.930 . S
H421 C430 0.930 . S
H422 C435 0.929 . S
H423 C433 0.929 . S
H424 C428 0.929 . S
H425 C434 0.929 . S
C426 H420 0.930 . S
C426 C427 1.367 1_655 S
C426 C434 1.378 . S
C427 C426 1.367 1_455 S
C427 C435 1.433 . S
C428 H424 0.929 . S
C428 C430 1.378 . S
C428 C432 1.350 . S
C429 C432 1.463 . S
C429 C434 1.350 . S
C429 N437 1.427 . S
C430 H421 0.930 . S
C430 C428 1.378 . S
C430 C431 1.367 . S
C431 C430 1.367 . S
C431 C433 1.433 . S
C432 C428 1.350 . S
C432 C429 1.463 . S
C432 N436 1.427 . S
C433 H423 0.929 . S
C433 C431 1.433 . S
C433 N436 1.384 . S
C434 H425 0.929 . S
C434 C426 1.378 . S
C434 C429 1.350 . S
C435 H422 0.929 . S
C435 C427 1.433 . S
C435 N437 1.384 1_455 S
N436 C432 1.427 . S
N436 C433 1.384 . S
N437 C429 1.427 . S
N437 C435 1.384 1_655 S
H438 C444 0.930 . S
H439 C448 0.930 . S
H440 C453 0.929 . S
H441 C451 0.929 . S
H442 C446 0.929 . S
H443 C452 0.929 . S
C444 H438 0.930 . S
C444 C445 1.367 1_655 S
C444 C452 1.378 . S
C445 C444 1.367 1_455 S
C445 C453 1.433 . S
C446 H442 0.929 . S
C446 C448 1.378 1_545 S
C446 C450 1.350 . S
C447 C450 1.463 . S
C447 C452 1.350 . S
C447 N455 1.427 1_655 S
C448 H439 0.930 . S
C448 C446 1.378 1_565 S
C448 C449 1.367 . S
C449 C448 1.367 . S
C449 C451 1.433 1_565 S
C450 C446 1.350 . S
C450 C447 1.463 . S
C450 N454 1.427 . S
C451 H441 0.929 . S
C451 C449 1.433 1_545 S
C451 N454 1.384 . S
C452 H443 0.929 . S
C452 C444 1.378 . S
C452 C447 1.350 . S
C453 H440 0.929 . S
C453 C445 1.433 . S
C453 N455 1.384 . S
N454 C450 1.427 . S
N454 C451 1.384 . S
N455 C447 1.427 1_455 S
N455 C453 1.384 . S
H456 C462 0.930 . S
H457 C466 0.930 . S
H458 C471 0.929 . S
H459 C469 0.929 . S
H460 C464 0.929 . S
H461 C470 0.929 . S
C462 H456 0.930 . S
C462 C463 1.367 . S
C462 C470 1.378 . S
C463 C462 1.367 . S
C463 C471 1.433 . S
C464 H460 0.929 . S
C464 C466 1.378 . S
C464 C468 1.350 . S
C465 C468 1.463 . S
C465 C470 1.350 . S
C465 N473 1.427 . S
C466 H457 0.930 . S
C466 C464 1.378 . S
C466 C467 1.367 . S
C467 C466 1.367 . S
C467 C469 1.433 . S
C468 C464 1.350 . S
C468 C465 1.463 . S
C468 N472 1.427 . S
C469 H459 0.929 . S
C469 C467 1.433 . S
C469 N472 1.384 . S
C470 H461 0.929 . S
C470 C462 1.378 . S
C470 C465 1.350 . S
C471 H458 0.929 . S
C471 C463 1.433 . S
C471 N473 1.384 . S
N472 C468 1.427 . S
N472 C469 1.384 . S
N473 C465 1.427 . S
N473 C471 1.384 . S
H474 C480 0.930 . S
H475 C484 0.930 . S
H476 C489 0.929 . S
H477 C487 0.929 . S
H478 C482 0.929 . S
H479 C488 0.929 . S
C480 H474 0.930 . S
C480 C481 1.367 . S
C480 C488 1.378 . S
C481 C480 1.367 . S
C481 C489 1.433 . S
C482 H478 0.929 . S
C482 C484 1.378 . S
C482 C486 1.350 . S
C483 C486 1.463 . S
C483 C488 1.350 . S
C483 N491 1.427 . S
C484 H475 0.930 . S
C484 C482 1.378 . S
C484 C485 1.367 . S
C485 C484 1.367 . S
C485 C487 1.433 . S
C486 C482 1.350 . S
C486 C483 1.463 . S
C486 N490 1.427 . S
C487 H477 0.929 . S
C487 C485 1.433 . S
C487 N490 1.384 . S
C488 H479 0.929 . S
C488 C480 1.378 . S
C488 C483 1.350 . S
C489 H476 0.929 . S
C489 C481 1.433 . S
C489 N491 1.384 . S
N490 C486 1.427 . S
N490 C487 1.384 . S
N491 C483 1.427 . S
N491 C489 1.384 . S
H492 C498 0.930 . S
H493 C502 0.930 . S
H494 C507 0.929 . S
H495 C505 0.929 . S
H496 C500 0.929 . S
H497 C506 0.929 . S
C498 H492 0.930 . S
C498 C499 1.367 . S
C498 C506 1.378 . S
C499 C498 1.367 . S
C499 C507 1.433 . S
C500 H496 0.929 . S
C500 C502 1.378 . S
C500 C504 1.350 . S
C501 C504 1.463 . S
C501 C506 1.350 . S
C501 N509 1.427 . S
C502 H493 0.930 . S
C502 C500 1.378 . S
C502 C503 1.367 . S
C503 C502 1.367 . S
C503 C505 1.433 . S
C504 C500 1.350 . S
C504 C501 1.463 . S
C504 N508 1.427 . S
C505 H495 0.929 . S
C505 C503 1.433 . S
C505 N508 1.384 . S
C506 H497 0.929 . S
C506 C498 1.378 . S
C506 C501 1.350 . S
C507 H494 0.929 . S
C507 C499 1.433 . S
C507 N509 1.384 . S
N508 C504 1.427 . S
N508 C505 1.384 . S
N509 C501 1.427 . S
N509 C507 1.384 . S
H510 C516 0.930 . S
H511 C520 0.930 . S
H512 C525 0.929 . S
H513 C523 0.929 . S
H514 C518 0.929 . S
H515 C524 0.929 . S
C516 H510 0.930 . S
C516 C517 1.367 . S
C516 C524 1.378 . S
C517 C516 1.367 . S
C517 C525 1.433 . S
C518 H514 0.929 . S
C518 C520 1.378 . S
C518 C522 1.350 . S
C519 C522 1.463 . S
C519 C524 1.350 . S
C519 N527 1.427 . S
C520 H511 0.930 . S
C520 C518 1.378 . S
C520 C521 1.367 . S
C521 C520 1.367 . S
C521 C523 1.433 . S
C522 C518 1.350 . S
C522 C519 1.463 . S
C522 N526 1.427 . S
C523 H513 0.929 . S
C523 C521 1.433 . S
C523 N526 1.384 . S
C524 H515 0.929 . S
C524 C516 1.378 . S
C524 C519 1.350 . S
C525 H512 0.929 . S
C525 C517 1.433 . S
C525 N527 1.384 . S
N526 C522 1.427 . S
N526 C523 1.384 . S
N527 C519 1.427 . S
N527 C525 1.384 . S
H528 C534 0.930 . S
H529 C538 0.930 . S
H530 C543 0.929 . S
H531 C541 0.929 . S
H532 C536 0.929 . S
H533 C542 0.929 . S
C534 H528 0.930 . S
C534 C535 1.367 . S
C534 C542 1.378 . S
C535 C534 1.367 . S
C535 C543 1.433 . S
C536 H532 0.929 . S
C536 C538 1.378 . S
C536 C540 1.350 . S
C537 C540 1.463 . S
C537 C542 1.350 . S
C537 N545 1.427 . S
C538 H529 0.930 . S
C538 C536 1.378 . S
C538 C539 1.367 . S
C539 C538 1.367 . S
C539 C541 1.433 . S
C540 C536 1.350 . S
C540 C537 1.463 . S
C540 N544 1.427 . S
C541 H531 0.929 . S
C541 C539 1.433 . S
C541 N544 1.384 . S
C542 H533 0.929 . S
C542 C534 1.378 . S
C542 C537 1.350 . S
C543 H530 0.929 . S
C543 C535 1.433 . S
C543 N545 1.384 . S
N544 C540 1.427 . S
N544 C541 1.384 . S
N545 C537 1.427 . S
N545 C543 1.384 . S
H546 C552 0.930 . S
H547 C556 0.930 . S
H548 C561 0.929 . S
H549 C559 0.929 . S
H550 C554 0.929 . S
H551 C560 0.929 . S
C552 H546 0.930 . S
C552 C553 1.367 . S
C552 C560 1.378 . S
C553 C552 1.367 . S
C553 C561 1.433 . S
C554 H550 0.929 . S
C554 C556 1.378 . S
C554 C558 1.350 . S
C555 C558 1.463 . S
C555 C560 1.350 . S
C555 N563 1.427 . S
C556 H547 0.930 . S
C556 C554 1.378 . S
C556 C557 1.367 . S
C557 C556 1.367 . S
C557 C559 1.433 . S
C558 C554 1.350 . S
C558 C555 1.463 . S
C558 N562 1.427 . S
C559 H549 0.929 . S
C559 C557 1.433 . S
C559 N562 1.384 . S
C560 H551 0.929 . S
C560 C552 1.378 . S
C560 C555 1.350 . S
C561 H548 0.929 . S
C561 C553 1.433 . S
C561 N563 1.384 . S
N562 C558 1.427 . S
N562 C559 1.384 . S
N563 C555 1.427 . S
N563 C561 1.384 . S
H564 C570 0.930 . S
H565 C574 0.930 . S
H566 C579 0.929 . S
H567 C577 0.929 . S
H568 C572 0.929 1_565 S
H569 C578 0.929 1_545 S
C570 H564 0.930 . S
C570 C571 1.367 . S
C570 C578 1.378 . S
C571 C570 1.367 . S
C571 C579 1.433 . S
C572 H568 0.929 1_545 S
C572 C574 1.378 . S
C572 C576 1.350 . S
C573 C576 1.463 1_566 S
C573 C578 1.350 . S
C573 N581 1.427 . S
C574 H565 0.930 . S
C574 C572 1.378 . S
C574 C575 1.367 . S
C575 C574 1.367 . S
C575 C577 1.433 . S
C576 C572 1.350 . S
C576 C573 1.463 1_544 S
C576 N580 1.427 . S
C577 H567 0.929 . S
C577 C575 1.433 . S
C577 N580 1.384 . S
C578 H569 0.929 1_565 S
C578 C570 1.378 . S
C578 C573 1.350 . S
C579 H566 0.929 . S
C579 C571 1.433 . S
C579 N581 1.384 . S
N580 C576 1.427 . S
N580 C577 1.384 . S
N581 C573 1.427 . S
N581 C579 1.384 . S
H582 C588 0.930 . S
H583 C592 0.930 . S
H584 C597 0.929 . S
H585 C595 0.929 . S
H586 C590 0.929 . S
H587 C596 0.929 . S
C588 H582 0.930 . S
C588 C589 1.367 . S
C588 C596 1.378 . S
C589 C588 1.367 . S
C589 C597 1.433 . S
C590 H586 0.929 . S
C590 C592 1.378 . S
C590 C594 1.350 . S
C591 C594 1.463 . S
C591 C596 1.350 . S
C591 N599 1.427 . S
C592 H583 0.930 . S
C592 C590 1.378 . S
C592 C593 1.367 . S
C593 C592 1.367 . S
C593 C595 1.433 . S
C594 C590 1.350 . S
C594 C591 1.463 . S
C594 N598 1.427 . S
C595 H585 0.929 . S
C595 C593 1.433 . S
C595 N598 1.384 . S
C596 H587 0.929 . S
C596 C588 1.378 . S
C596 C591 1.350 . S
C597 H584 0.929 . S
C597 C589 1.433 . S
C597 N599 1.384 . S
N598 C594 1.427 . S
N598 C595 1.384 . S
N599 C591 1.427 . S
N599 C597 1.384 . S
H600 C606 0.930 . S
H601 C610 0.930 . S
H602 C615 0.929 . S
H603 C613 0.929 . S
H604 C608 0.929 . S
H605 C614 0.929 . S
C606 H600 0.930 . S
C606 C607 1.367 . S
C606 C614 1.378 . S
C607 C606 1.367 . S
C607 C615 1.433 . S
C608 H604 0.929 . S
C608 C610 1.378 . S
C608 C612 1.350 . S
C609 C612 1.463 1_456 S
C609 C614 1.350 . S
C609 N617 1.427 . S
C610 H601 0.930 . S
C610 C608 1.378 . S
C610 C611 1.367 . S
C611 C610 1.367 . S
C611 C613 1.433 . S
C612 C608 1.350 . S
C612 C609 1.463 1_654 S
C612 N616 1.427 . S
C613 H603 0.929 . S
C613 C611 1.433 . S
C613 N616 1.384 . S
C614 H605 0.929 . S
C614 C606 1.378 . S
C614 C609 1.350 . S
C615 H602 0.929 . S
C615 C607 1.433 . S
C615 N617 1.384 . S
N616 C612 1.427 . S
N616 C613 1.384 . S
N617 C609 1.427 . S
N617 C615 1.384 . S
H618 C624 0.930 . S
H619 C628 0.930 . S
H620 C633 0.929 . S
H621 C631 0.929 . S
H622 C626 0.929 . S
H623 C632 0.929 . S
C624 H618 0.930 . S
C624 C625 1.367 . S
C624 C632 1.378 . S
C625 C624 1.367 . S
C625 C633 1.433 . S
C626 H622 0.929 . S
C626 C628 1.378 . S
C626 C630 1.350 . S
C627 C630 1.463 1_545 S
C627 C632 1.350 . S
C627 N635 1.427 . S
C628 H619 0.930 . S
C628 C626 1.378 . S
C628 C629 1.367 . S
C629 C628 1.367 . S
C629 C631 1.433 . S
C630 C626 1.350 . S
C630 C627 1.463 1_565 S
C630 N634 1.427 . S
C631 H621 0.929 . S
C631 C629 1.433 . S
C631 N634 1.384 . S
C632 H623 0.929 . S
C632 C624 1.378 . S
C632 C627 1.350 . S
C633 H620 0.929 . S
C633 C625 1.433 . S
C633 N635 1.384 . S
N634 C630 1.427 . S
N634 C631 1.384 . S
N635 C627 1.427 . S
N635 C633 1.384 . S
H636 C642 0.930 . S
H637 C646 0.930 . S
H638 C651 0.929 . S
H639 C649 0.929 . S
H640 C644 0.929 . S
H641 C650 0.929 . S
C642 H636 0.930 . S
C642 C643 1.367 . S
C642 C650 1.378 . S
C643 C642 1.367 . S
C643 C651 1.433 . S
C644 H640 0.929 . S
C644 C646 1.378 . S
C644 C648 1.350 . S
C645 C648 1.463 1_554 S
C645 C650 1.350 . S
C645 N653 1.427 . S
C646 H637 0.930 . S
C646 C644 1.378 . S
C646 C647 1.367 . S
C647 C646 1.367 . S
C647 C649 1.433 . S
C648 C644 1.350 . S
C648 C645 1.463 1_556 S
C648 N652 1.427 . S
C649 H639 0.929 . S
C649 C647 1.433 . S
C649 N652 1.384 . S
C650 H641 0.929 . S
C650 C642 1.378 . S
C650 C645 1.350 . S
C651 H638 0.929 . S
C651 C643 1.433 . S
C651 N653 1.384 . S
N652 C648 1.427 . S
N652 C649 1.384 . S
N653 C645 1.427 . S
N653 C651 1.384 . S
H654 C660 0.930 . S
H655 C664 0.930 . S
H656 C669 0.929 . S
H657 C667 0.929 . S
H658 C662 0.929 . S
H659 C668 0.929 . S
C660 H654 0.930 . S
C660 C661 1.367 . S
C660 C668 1.378 . S
C661 C660 1.367 . S
C661 C669 1.433 . S
C662 H658 0.929 . S
C662 C664 1.378 . S
C662 C666 1.350 . S
C663 C666 1.463 1_455 S
C663 C668 1.350 . S
C663 N671 1.427 . S
C664 H655 0.930 . S
C664 C662 1.378 . S
C664 C665 1.367 . S
C665 C664 1.367 . S
C665 C667 1.433 . S
C666 C662 1.350 . S
C666 C663 1.463 1_655 S
C666 N670 1.427 . S
C667 H657 0.929 . S
C667 C665 1.433 . S
C667 N670 1.384 . S
C668 H659 0.929 . S
C668 C660 1.378 . S
C668 C663 1.350 . S
C669 H656 0.929 . S
C669 C661 1.433 . S
C669 N671 1.384 . S
N670 C666 1.427 . S
N670 C667 1.384 . S
N671 C663 1.427 . S
N671 C669 1.384 . S
H672 C678 0.930 . S
H673 C682 0.930 . S
H674 C687 0.929 . S
H675 C685 0.929 . S
H676 C680 0.929 . S
H677 C686 0.929 . S
C678 H672 0.930 . S
C678 C679 1.367 . S
C678 C686 1.378 . S
C679 C678 1.367 . S
C679 C687 1.433 . S
C680 H676 0.929 . S
C680 C682 1.378 . S
C680 C684 1.350 . S
C681 C684 1.463 . S
C681 C686 1.350 . S
C681 N689 1.427 . S
C682 H673 0.930 . S
C682 C680 1.378 . S
C682 C683 1.367 . S
C683 C682 1.367 . S
C683 C685 1.433 . S
C684 C680 1.350 . S
C684 C681 1.463 . S
C684 N688 1.427 . S
C685 H675 0.929 . S
C685 C683 1.433 . S
C685 N688 1.384 . S
C686 H677 0.929 . S
C686 C678 1.378 . S
C686 C681 1.350 . S
C687 H674 0.929 . S
C687 C679 1.433 . S
C687 N689 1.384 . S
N688 C684 1.427 . S
N688 C685 1.384 . S
N689 C681 1.427 . S
N689 C687 1.384 . S
H690 C696 0.930 . S
H691 C700 0.930 . S
H692 C705 0.929 . S
H693 C703 0.929 . S
H694 C698 0.929 . S
H695 C704 0.929 . S
C696 H690 0.930 . S
C696 C697 1.367 . S
C696 C704 1.378 . S
C697 C696 1.367 . S
C697 C705 1.433 . S
C698 H694 0.929 . S
C698 C700 1.378 . S
C698 C702 1.350 . S
C699 C702 1.463 . S
C699 C704 1.350 . S
C699 N707 1.427 . S
C700 H691 0.930 . S
C700 C698 1.378 . S
C700 C701 1.367 . S
C701 C700 1.367 . S
C701 C703 1.433 . S
C702 C698 1.350 . S
C702 C699 1.463 . S
C702 N706 1.427 . S
C703 H693 0.929 . S
C703 C701 1.433 . S
C703 N706 1.384 . S
C704 H695 0.929 . S
C704 C696 1.378 . S
C704 C699 1.350 . S
C705 H692 0.929 . S
C705 C697 1.433 . S
C705 N707 1.384 . S
N706 C702 1.427 . S
N706 C703 1.384 . S
N707 C699 1.427 . S
N707 C705 1.384 . S
H708 C714 0.930 . S
H709 C718 0.930 . S
H710 C723 0.929 . S
H711 C721 0.929 . S
H712 C716 0.929 . S
H713 C722 0.929 . S
C714 H708 0.930 . S
C714 C715 1.367 . S
C714 C722 1.378 . S
C715 C714 1.367 . S
C715 C723 1.433 . S
C716 H712 0.929 . S
C716 C718 1.378 . S
C716 C720 1.350 . S
C717 C720 1.463 . S
C717 C722 1.350 . S
C717 N725 1.427 . S
C718 H709 0.930 . S
C718 C716 1.378 . S
C718 C719 1.367 . S
C719 C718 1.367 . S
C719 C721 1.433 . S
C720 C716 1.350 . S
C720 C717 1.463 . S
C720 N724 1.427 . S
C721 H711 0.929 . S
C721 C719 1.433 . S
C721 N724 1.384 . S
C722 H713 0.929 . S
C722 C714 1.378 . S
C722 C717 1.350 . S
C723 H710 0.929 . S
C723 C715 1.433 . S
C723 N725 1.384 . S
N724 C720 1.427 . S
N724 C721 1.384 . S
N725 C717 1.427 . S
N725 C723 1.384 . S
H726 C732 0.930 . S
H727 C736 0.930 . S
H728 C741 0.929 . S
H729 C739 0.929 . S
H730 C734 0.929 . S
H731 C740 0.929 . S
C732 H726 0.930 . S
C732 C733 1.367 . S
C732 C740 1.378 . S
C733 C732 1.367 . S
C733 C741 1.433 . S
C734 H730 0.929 . S
C734 C736 1.378 . S
C734 C738 1.350 . S
C735 C738 1.463 . S
C735 C740 1.350 . S
C735 N743 1.427 . S
C736 H727 0.930 . S
C736 C734 1.378 . S
C736 C737 1.367 . S
C737 C736 1.367 . S
C737 C739 1.433 . S
C738 C734 1.350 . S
C738 C735 1.463 . S
C738 N742 1.427 . S
C739 H729 0.929 . S
C739 C737 1.433 . S
C739 N742 1.384 . S
C740 H731 0.929 . S
C740 C732 1.378 . S
C740 C735 1.350 . S
C741 H728 0.929 . S
C741 C733 1.433 . S
C741 N743 1.384 . S
N742 C738 1.427 . S
N742 C739 1.384 . S
N743 C735 1.427 . S
N743 C741 1.384 . S
H744 C750 0.930 . S
H745 C754 0.930 . S
H746 C759 0.929 . S
H747 C757 0.929 . S
H748 C752 0.929 . S
H749 C758 0.929 . S
C750 H744 0.930 . S
C750 C751 1.367 . S
C750 C758 1.378 . S
C751 C750 1.367 . S
C751 C759 1.433 . S
C752 H748 0.929 . S
C752 C754 1.378 . S
C752 C756 1.350 . S
C753 C756 1.463 . S
C753 C758 1.350 . S
C753 N761 1.427 . S
C754 H745 0.930 . S
C754 C752 1.378 . S
C754 C755 1.367 . S
C755 C754 1.367 . S
C755 C757 1.433 . S
C756 C752 1.350 . S
C756 C753 1.463 . S
C756 N760 1.427 . S
C757 H747 0.929 . S
C757 C755 1.433 . S
C757 N760 1.384 . S
C758 H749 0.929 . S
C758 C750 1.378 . S
C758 C753 1.350 . S
C759 H746 0.929 . S
C759 C751 1.433 . S
C759 N761 1.384 . S
N760 C756 1.427 . S
N760 C757 1.384 . S
N761 C753 1.427 . S
N761 C759 1.384 . S
H762 C768 0.930 . S
H763 C772 0.930 . S
H764 C777 0.929 . S
H765 C775 0.929 . S
H766 C770 0.929 . S
H767 C776 0.929 . S
C768 H762 0.930 . S
C768 C769 1.367 . S
C768 C776 1.378 . S
C769 C768 1.367 . S
C769 C777 1.433 . S
C770 H766 0.929 . S
C770 C772 1.378 . S
C770 C774 1.350 . S
C771 C774 1.463 . S
C771 C776 1.350 . S
C771 N779 1.427 . S
C772 H763 0.930 . S
C772 C770 1.378 . S
C772 C773 1.367 . S
C773 C772 1.367 . S
C773 C775 1.433 . S
C774 C770 1.350 . S
C774 C771 1.463 . S
C774 N778 1.427 . S
C775 H765 0.929 . S
C775 C773 1.433 . S
C775 N778 1.384 . S
C776 H767 0.929 . S
C776 C768 1.378 . S
C776 C771 1.350 . S
C777 H764 0.929 . S
C777 C769 1.433 . S
C777 N779 1.384 . S
N778 C774 1.427 . S
N778 C775 1.384 . S
N779 C771 1.427 . S
N779 C777 1.384 . S
H780 C786 0.930 . S
H781 C790 0.930 . S
H782 C795 0.929 . S
H783 C793 0.929 . S
H784 C788 0.929 . S
H785 C794 0.929 . S
C786 H780 0.930 . S
C786 C787 1.367 . S
C786 C794 1.378 . S
C787 C786 1.367 . S
C787 C795 1.433 . S
C788 H784 0.929 . S
C788 C790 1.378 . S
C788 C792 1.350 . S
C789 C792 1.463 . S
C789 C794 1.350 . S
C789 N797 1.427 . S
C790 H781 0.930 . S
C790 C788 1.378 . S
C790 C791 1.367 . S
C791 C790 1.367 . S
C791 C793 1.433 . S
C792 C788 1.350 . S
C792 C789 1.463 . S
C792 N796 1.427 . S
C793 H783 0.929 . S
C793 C791 1.433 . S
C793 N796 1.384 . S
C794 H785 0.929 . S
C794 C786 1.378 . S
C794 C789 1.350 . S
C795 H782 0.929 . S
C795 C787 1.433 . S
C795 N797 1.384 . S
N796 C792 1.427 . S
N796 C793 1.384 . S
N797 C789 1.427 . S
N797 C795 1.384 . S
H798 C804 0.930 . S
H799 C808 0.930 . S
H800 C813 0.929 . S
H801 C811 0.929 . S
H802 C806 0.929 . S
H803 C812 0.929 . S
C804 H798 0.930 . S
C804 C805 1.367 . S
C804 C812 1.378 . S
C805 C804 1.367 . S
C805 C813 1.433 . S
C806 H802 0.929 . S
C806 C808 1.378 . S
C806 C810 1.350 . S
C807 C810 1.463 . S
C807 C812 1.350 . S
C807 N815 1.427 . S
C808 H799 0.930 . S
C808 C806 1.378 . S
C808 C809 1.367 . S
C809 C808 1.367 . S
C809 C811 1.433 . S
C810 C806 1.350 . S
C810 C807 1.463 . S
C810 N814 1.427 . S
C811 H801 0.929 . S
C811 C809 1.433 . S
C811 N814 1.384 . S
C812 H803 0.929 . S
C812 C804 1.378 . S
C812 C807 1.350 . S
C813 H800 0.929 . S
C813 C805 1.433 . S
C813 N815 1.384 . S
N814 C810 1.427 . S
N814 C811 1.384 . S
N815 C807 1.427 . S
N815 C813 1.384 . S
H816 C822 0.930 . S
H817 C826 0.930 . S
H818 C831 0.929 . S
H819 C829 0.929 . S
H820 C824 0.929 . S
H821 C830 0.929 . S
C822 H816 0.930 . S
C822 C823 1.367 . S
C822 C830 1.378 . S
C823 C822 1.367 . S
C823 C831 1.433 . S
C824 H820 0.929 . S
C824 C826 1.378 . S
C824 C828 1.350 . S
C825 C828 1.463 . S
C825 C830 1.350 . S
C825 N833 1.427 . S
C826 H817 0.930 . S
C826 C824 1.378 . S
C826 C827 1.367 . S
C827 C826 1.367 . S
C827 C829 1.433 . S
C828 C824 1.350 . S
C828 C825 1.463 . S
C828 N832 1.427 . S
C829 H819 0.929 . S
C829 C827 1.433 . S
C829 N832 1.384 . S
C830 H821 0.929 . S
C830 C822 1.378 . S
C830 C825 1.350 . S
C831 H818 0.929 . S
C831 C823 1.433 . S
C831 N833 1.384 . S
N832 C828 1.427 . S
N832 C829 1.384 . S
N833 C825 1.427 . S
N833 C831 1.384 . S
H834 C840 0.930 . S
H835 C844 0.930 . S
H836 C849 0.929 . S
H837 C847 0.929 . S
H838 C842 0.929 . S
H839 C848 0.929 . S
C840 H834 0.930 . S
C840 C841 1.367 . S
C840 C848 1.378 . S
C841 C840 1.367 . S
C841 C849 1.433 . S
C842 H838 0.929 . S
C842 C844 1.378 . S
C842 C846 1.350 . S
C843 C846 1.463 . S
C843 C848 1.350 . S
C843 N851 1.427 . S
C844 H835 0.930 . S
C844 C842 1.378 . S
C844 C845 1.367 . S
C845 C844 1.367 . S
C845 C847 1.433 . S
C846 C842 1.350 . S
C846 C843 1.463 . S
C846 N850 1.427 . S
C847 H837 0.929 . S
C847 C845 1.433 . S
C847 N850 1.384 . S
C848 H839 0.929 . S
C848 C840 1.378 . S
C848 C843 1.350 . S
C849 H836 0.929 . S
C849 C841 1.433 . S
C849 N851 1.384 . S
N850 C846 1.427 . S
N850 C847 1.384 . S
N851 C843 1.427 . S
N851 C849 1.384 . S
H852 C858 0.930 . S
H853 C862 0.930 . S
H854 C867 0.929 . S
H855 C865 0.929 . S
H856 C860 0.929 . S
H857 C866 0.929 . S
C858 H852 0.930 . S
C858 C859 1.367 . S
C858 C866 1.378 . S
C859 C858 1.367 . S
C859 C867 1.433 . S
C860 H856 0.929 . S
C860 C862 1.378 . S
C860 C864 1.350 . S
C861 C864 1.463 . S
C861 C866 1.350 . S
C861 N869 1.427 . S
C862 H853 0.930 . S
C862 C860 1.378 . S
C862 C863 1.367 . S
C863 C862 1.367 . S
C863 C865 1.433 . S
C864 C860 1.350 . S
C864 C861 1.463 . S
C864 N868 1.427 . S
C865 H855 0.929 . S
C865 C863 1.433 . S
C865 N868 1.384 . S
C866 H857 0.929 . S
C866 C858 1.378 . S
C866 C861 1.350 . S
C867 H854 0.929 . S
C867 C859 1.433 . S
C867 N869 1.384 . S
N868 C864 1.427 . S
N868 C865 1.384 . S
N869 C861 1.427 . S
N869 C867 1.384 . S
H870 C876 0.930 . S
H871 C880 0.930 . S
H872 C885 0.929 . S
H873 C883 0.929 . S
H874 C878 0.929 . S
H875 C884 0.929 . S
C876 H870 0.930 . S
C876 C877 1.367 . S
C876 C884 1.378 . S
C877 C876 1.367 . S
C877 C885 1.433 . S
C878 H874 0.929 . S
C878 C880 1.378 . S
C878 C882 1.350 . S
C879 C882 1.463 . S
C879 C884 1.350 . S
C879 N887 1.427 . S
C880 H871 0.930 . S
C880 C878 1.378 . S
C880 C881 1.367 . S
C881 C880 1.367 . S
C881 C883 1.433 . S
C882 C878 1.350 . S
C882 C879 1.463 . S
C882 N886 1.427 . S
C883 H873 0.929 . S
C883 C881 1.433 . S
C883 N886 1.384 . S
C884 H875 0.929 . S
C884 C876 1.378 . S
C884 C879 1.350 . S
C885 H872 0.929 . S
C885 C877 1.433 . S
C885 N887 1.384 . S
N886 C882 1.427 . S
N886 C883 1.384 . S
N887 C879 1.427 . S
N887 C885 1.384 . S
C247 C59 1.364 . S
C251 C6 1.366 . S
C265 C68 1.364 . S
C269 C36 1.363 . S
C283 C46 1.365 . S
C287 C99 1.363 . S
C301 C76 1.353 . S
C305 C108 1.376 . S
C319 C19 1.363 . S
C323 C86 1.365 . S
C337 C28 1.365 . S
C341 C116 1.361 . S
C355 C208 1.376 . S
C359 C136 1.352 . S
C373 C146 1.355 . S
C377 C239 1.369 . S
C391 C176 1.365 . S
C395 C128 1.363 . S
C409 C186 1.356 . S
C413 C159 1.375 . S
C427 C216 1.355 . S
C431 C168 1.370 . S
C445 C199 1.363 . S
C449 C226 1.366 . S
C463 C61 1.761 . S
C467 C9 1.751 . S
C481 C21 1.750 . S
C485 C89 1.762 . S
C499 C49 1.760 . S
C503 C101 1.752 . S
C517 C121 1.754 . S
C521 C189 1.758 . S
C535 C149 1.753 . S
C539 C201 1.759 . S
C553 C161 1.752 . S
C557 C229 1.760 . S
C571 C141 1.937 . S
C575 C1 1.933 . S
C589 C29 1.941 . S
C593 C169 1.939 . S
C607 C181 1.939 . S
C611 C41 1.935 . S
C625 C69 1.941 . S
C629 C209 1.937 . S
C643 C81 1.936 . S
C647 C221 1.940 . S
C661 C129 1.941 . S
C665 C109 1.939 . S
C679 C48 1.505 . S
C683 C16 1.562 . S
C697 C26 1.570 . S
C701 C79 1.489 . S
C715 C56 1.567 . S
C719 C88 1.496 . S
C733 C66 1.562 . S
C737 C119 1.506 . S
C751 C8 1.497 . S
C755 C96 1.566 . S
C769 C39 1.496 . S
C773 C106 1.567 . S
C787 C219 1.491 . S
C791 C126 1.569 . S
C805 C156 1.562 . S
C809 C228 1.505 . S
C823 C166 1.562 . S
C827 C139 1.505 . S
C841 C148 1.489 . S
C845 C196 1.569 . S
C859 C206 1.570 . S
C863 C179 1.488 . S
C877 C236 1.566 . S
C881 C188 1.495 . S
