# Generated by pormake.
# Topology can, (4)-cn, num edge types: 1
# Building blocks:
#     Node 0, Type 0, BuildingBlock: QUQFOY_clean_sbu_1, # of connection points: 4
#     Node 1, Type 0, BuildingBlock: QUQFOY_clean_sbu_1, # of connection points: 4
#     Node 2, Type 0, BuildingBlock: QUQFOY_clean_sbu_1, # of connection points: 4
#     Node 3, Type 0, BuildingBlock: QUQFOY_clean_sbu_1, # of connection points: 4
#     Node 4, Type 0, BuildingBlock: QUQFOY_clean_sbu_1, # of connection points: 4
#     Node 5, Type 0, BuildingBlock: QUQFOY_clean_sbu_1, # of connection points: 4
#     Node 6, Type 0, BuildingBlock: QUQFOY_clean_sbu_1, # of connection points: 4
#     Node 7, Type 0, BuildingBlock: QUQFOY_clean_sbu_1, # of connection points: 4
#     Node 8, Type 0, BuildingBlock: QUQFOY_clean_sbu_1, # of connection points: 4
#     Node 9, Type 0, BuildingBlock: QUQFOY_clean_sbu_1, # of connection points: 4
#     Node 10, Type 0, BuildingBlock: QUQFOY_clean_sbu_1, # of connection points: 4
#     Node 11, Type 0, BuildingBlock: QUQFOY_clean_sbu_1, # of connection points: 4
#     Edge 12, Type (0, 0), BuildingBlock: XIVTED_clean_linker_0, # of connection points: 2
#     Edge 13, Type (0, 0), BuildingBlock: XIVTED_clean_linker_0, # of connection points: 2
#     Edge 14, Type (0, 0), BuildingBlock: XIVTED_clean_linker_0, # of connection points: 2
#     Edge 15, Type (0, 0), BuildingBlock: XIVTED_clean_linker_0, # of connection points: 2
#     Edge 16, Type (0, 0), BuildingBlock: XIVTED_clean_linker_0, # of connection points: 2
#     Edge 17, Type (0, 0), BuildingBlock: XIVTED_clean_linker_0, # of connection points: 2
#     Edge 18, Type (0, 0), BuildingBlock: XIVTED_clean_linker_0, # of connection points: 2
#     Edge 19, Type (0, 0), BuildingBlock: XIVTED_clean_linker_0, # of connection points: 2
#     Edge 20, Type (0, 0), BuildingBlock: XIVTED_clean_linker_0, # of connection points: 2
#     Edge 21, Type (0, 0), BuildingBlock: XIVTED_clean_linker_0, # of connection points: 2
#     Edge 22, Type (0, 0), BuildingBlock: XIVTED_clean_linker_0, # of connection points: 2
#     Edge 23, Type (0, 0), BuildingBlock: XIVTED_clean_linker_0, # of connection points: 2
#     Edge 24, Type (0, 0), BuildingBlock: XIVTED_clean_linker_0, # of connection points: 2
#     Edge 25, Type (0, 0), BuildingBlock: XIVTED_clean_linker_0, # of connection points: 2
#     Edge 26, Type (0, 0), BuildingBlock: XIVTED_clean_linker_0, # of connection points: 2
#     Edge 27, Type (0, 0), BuildingBlock: XIVTED_clean_linker_0, # of connection points: 2
#     Edge 28, Type (0, 0), BuildingBlock: XIVTED_clean_linker_0, # of connection points: 2
#     Edge 29, Type (0, 0), BuildingBlock: XIVTED_clean_linker_0, # of connection points: 2
#     Edge 30, Type (0, 0), BuildingBlock: XIVTED_clean_linker_0, # of connection points: 2
#     Edge 31, Type (0, 0), BuildingBlock: XIVTED_clean_linker_0, # of connection points: 2
#     Edge 32, Type (0, 0), BuildingBlock: XIVTED_clean_linker_0, # of connection points: 2
#     Edge 33, Type (0, 0), BuildingBlock: XIVTED_clean_linker_0, # of connection points: 2
#     Edge 34, Type (0, 0), BuildingBlock: XIVTED_clean_linker_0, # of connection points: 2
#     Edge 35, Type (0, 0), BuildingBlock: XIVTED_clean_linker_0, # of connection points: 2
# Relax obj value: 0.074
# Max RMSD: 0.097
# Mean RMSD: 0.097
data_MOF--net-can--node1-QUQFOY_clean_sbu_1--edge1-XIVTED_clean_linker_0
_symmetry_space_group_name_H-M    P1
_symmetry_Int_Tables_number       1
_symmetry_cell_setting            triclinic
loop_
_symmetry_equiv_pos_as_xyz
'x, y, z'
_cell_length_a     57.935565
_cell_length_b     57.991592
_cell_length_c     28.716462
_cell_angle_alpha  90.081503
_cell_angle_beta   89.899378
_cell_angle_gamma 120.01924
loop_
_atom_site_label
_atom_site_type_symbol
_atom_site_fract_x
_atom_site_fract_y
_atom_site_fract_z
_atom_type_partial_charge
O0 O 0.05757 0.38353 0.18032 0.0
Cd1 Cd 0.07809 0.40651 0.23678 0.0
Cd2 Cd 0.0278 0.38106 0.2722 0.0
O3 O 0.01761 0.35919 0.21101 0.0
O4 O 0.11555 0.4203 0.21631 0.0
O5 O 0.09839 0.39503 0.2787 0.0
C6 C 0.11833 0.40773 0.25076 0.0
C7 C 0.0185 0.36194 0.3463 0.0
C8 C 0.03348 0.36504 0.17667 0.0
C9 C 0.05424 0.4404 0.2609 0.0
O10 O 0.03264 0.41878 0.26858 0.0
O11 O 0.07539 0.44004 0.25045 0.0
O12 O -4e-05 0.3613 0.3205 0.0
O13 O 0.04225 0.37235 0.32897 0.0
O14 O 0.6723 0.05493 0.67819 0.0
Cd15 Cd 0.66969 0.07627 0.73323 0.0
Cd16 Cd 0.6448 0.02663 0.77123 0.0
O17 O 0.65593 0.0154 0.71071 0.0
O18 O 0.69364 0.11347 0.71199 0.0
O19 O 0.70114 0.0969 0.77575 0.0
C20 C 0.70866 0.11658 0.74719 0.0
C21 C 0.6545 0.017 0.84506 0.0
C22 C 0.66623 0.03067 0.67583 0.0
C23 C 0.6119 0.05293 0.7573 0.0
O24 O 0.612 0.03162 0.76727 0.0
O25 O 0.63334 0.07372 0.7453 0.0
O26 O 0.63631 0.99872 0.81929 0.0
O27 O 0.66806 0.04076 0.82801 0.0
O28 O 0.61285 0.67106 0.18167 0.0
Cd29 Cd 0.59208 0.66966 0.24089 0.0
Cd30 Cd 0.61841 0.64583 0.27381 0.0
O31 O 0.63916 0.65766 0.21168 0.0
O32 O 0.57544 0.69129 0.22391 0.0
O33 O 0.60608 0.70333 0.27884 0.0
C34 C 0.59037 0.70841 0.25469 0.0
C35 C 0.63858 0.65729 0.34677 0.0
C36 C 0.63196 0.66638 0.17732 0.0
C37 C 0.55934 0.6121 0.26774 0.0
O38 O 0.58119 0.61215 0.27207 0.0
O39 O 0.55942 0.63362 0.25907 0.0
O40 O 0.63966 0.63948 0.3213 0.0
O41 O 0.6271 0.66962 0.32962 0.0
O42 O 0.93855 0.61189 0.68062 0.0
Cd43 Cd 0.91983 0.59163 0.74052 0.0
Cd44 Cd 0.97017 0.61862 0.77236 0.0
O45 O 0.97821 0.63914 0.71005 0.0
O46 O 0.8813 0.57513 0.72532 0.0
O47 O 0.901 0.60626 0.77923 0.0
C48 C 0.87978 0.59051 0.75602 0.0
C49 C 0.97966 0.63883 0.84544 0.0
C50 C 0.96211 0.63136 0.67585 0.0
C51 C 0.94539 0.55959 0.7668 0.0
O52 O 0.96707 0.58161 0.77033 0.0
O53 O 0.92366 0.55929 0.75889 0.0
O54 O 0.99833 0.64017 0.81897 0.0
O55 O 0.95562 0.62716 0.8292 0.0
O56 O 0.32475 0.94295 0.17989 0.0
Cd57 Cd 0.32755 0.92179 0.2349 0.0
Cd58 Cd 0.35199 0.97168 0.27273 0.0
O59 O 0.34082 0.98259 0.21199 0.0
O60 O 0.30428 0.8846 0.21292 0.0
O61 O 0.29586 0.9005 0.27674 0.0
C62 C 0.28886 0.88104 0.2478 0.0
C63 C 0.34207 0.98123 0.34662 0.0
C64 C 0.33061 0.96714 0.17727 0.0
C65 C 0.38541 0.94586 0.25913 0.0
O66 O 0.38502 0.96705 0.26892 0.0
O67 O 0.36413 0.92489 0.24719 0.0
O68 O 0.36016 -0.00041 0.32079 0.0
O69 O 0.32869 0.95745 0.32955 0.0
O70 O 0.38495 0.32611 0.67837 0.0
Cd71 Cd 0.40594 0.32825 0.73753 0.0
Cd72 Cd 0.37958 0.352 0.76998 0.0
O73 O 0.35826 0.33903 0.70857 0.0
O74 O 0.42224 0.3061 0.72189 0.0
O75 O 0.39181 0.2952 0.77706 0.0
C76 C 0.40727 0.28952 0.75332 0.0
C77 C 0.36016 0.3412 0.84366 0.0
C78 C 0.3655 0.33026 0.67423 0.0
C79 C 0.43855 0.38611 0.76208 0.0
O80 O 0.41663 0.38591 0.76658 0.0
O81 O 0.4386 0.36456 0.75425 0.0
O82 O 0.35854 0.35855 0.81785 0.0
O83 O 0.37175 0.32895 0.8265 0.0
O84 O 0.61157 0.93946 0.34986 0.0
Cd85 Cd 0.59111 0.92031 0.29039 0.0
Cd86 Cd 0.6174 0.97044 0.25777 0.0
O87 O 0.63843 0.97894 0.31952 0.0
O88 O 0.57502 0.88196 0.30634 0.0
O89 O 0.60582 0.90152 0.25178 0.0
C90 C 0.59031 0.88041 0.27545 0.0
C91 C 0.63737 0.98007 0.18448 0.0
C92 C 0.63099 0.96308 0.35402 0.0
C93 C 0.55828 0.94501 0.26431 0.0
O94 O 0.58014 0.96685 0.26048 0.0
O95 O 0.55836 0.9235 0.27226 0.0
O96 O 0.63848 0.99862 0.21093 0.0
O97 O 0.626 0.95607 0.20079 0.0
O98 O 0.67073 0.61345 0.85079 0.0
Cd99 Cd 0.66889 0.59236 0.79182 0.0
Cd100 Cd 0.6455 0.61904 0.75857 0.0
O101 O 0.65754 0.63987 0.82058 0.0
O102 O 0.69044 0.57558 0.80856 0.0
O103 O 0.70236 0.606 0.75329 0.0
C104 C 0.70747 0.59033 0.77748 0.0
C105 C 0.65706 0.63902 0.68545 0.0
C106 C 0.66623 0.63267 0.85499 0.0
C107 C 0.6111 0.56012 0.76567 0.0
O108 O 0.61151 0.58208 0.76067 0.0
O109 O 0.63249 0.55992 0.77451 0.0
O110 O 0.6394 0.64038 0.71095 0.0
O111 O 0.66919 0.62735 0.70264 0.0
O112 O 0.0551 0.67256 0.35122 0.0
Cd113 Cd 0.07625 0.6702 0.29555 0.0
Cd114 Cd 0.0262 0.64573 0.25829 0.0
O115 O 0.01537 0.65666 0.31952 0.0
O116 O 0.1135 0.69347 0.31727 0.0
O117 O 0.09732 0.70212 0.25421 0.0
C118 C 0.1169 0.70903 0.28281 0.0
C119 C 0.01648 0.65584 0.18484 0.0
C120 C 0.03089 0.66669 0.35421 0.0
C121 C 0.05239 0.61258 0.26996 0.0
O122 O 0.03104 0.61285 0.26107 0.0
O123 O 0.07337 0.63386 0.28186 0.0
O124 O 0.99816 0.63765 0.21061 0.0
O125 O 0.0403 0.66922 0.20176 0.0
O126 O 0.38588 0.059 0.85109 0.0
Cd127 Cd 0.40621 0.07759 0.79116 0.0
Cd128 Cd 0.37903 0.02718 0.75947 0.0
O129 O 0.35846 0.01936 0.82178 0.0
O130 O 0.42322 0.11607 0.80685 0.0
O131 O 0.39199 0.09691 0.75297 0.0
C132 C 0.408 0.11796 0.77635 0.0
C133 C 0.3589 0.01776 0.68637 0.0
C134 C 0.3663 0.03552 0.85593 0.0
C135 C 0.43807 0.05179 0.76467 0.0
O136 O 0.416 0.03012 0.76145 0.0
O137 O 0.43843 0.07354 0.77243 0.0
O138 O 0.35742 -0.00093 0.71281 0.0
O139 O 0.37066 0.04179 0.70266 0.0
O140 O 0.32552 0.38054 0.35003 0.0
Cd141 Cd 0.32855 0.40466 0.29515 0.0
Cd142 Cd 0.35286 0.3794 0.25728 0.0
O143 O 0.34135 0.35686 0.31748 0.0
O144 O 0.30497 0.41834 0.31659 0.0
O145 O 0.29716 0.39422 0.2527 0.0
C146 C 0.28985 0.40651 0.28143 0.0
C147 C 0.34256 0.3605 0.1831 0.0
C148 C 0.33116 0.36205 0.35234 0.0
C149 C 0.38646 0.43848 0.27159 0.0
O150 O 0.38605 0.4169 0.26167 0.0
O151 O 0.36514 0.43818 0.28333 0.0
O152 O 0.36064 0.35984 0.20829 0.0
O153 O 0.32943 0.371 0.20096 0.0
O154 O 0.94088 0.32513 0.85186 0.0
Cd155 Cd 0.92039 0.32798 0.79581 0.0
Cd156 Cd 0.97062 0.35299 0.76023 0.0
O157 O 0.9809 0.3412 0.82112 0.0
O158 O 0.8829 0.30417 0.81597 0.0
O159 O 0.90012 0.29654 0.75305 0.0
C160 C 0.88015 0.28909 0.78102 0.0
C161 C 0.97979 0.34317 0.68593 0.0
C162 C 0.96503 0.33089 0.85537 0.0
C163 C 0.94427 0.3859 0.77306 0.0
O164 O 0.96581 0.38588 0.76454 0.0
O165 O 0.92318 0.36436 0.78356 0.0
O166 O 0.99837 0.36107 0.71171 0.0
O167 O 0.95606 0.32987 0.70335 0.0
H168 H 0.0629 0.37008 0.09886 0.0
H169 H 0.9357 0.30608 0.93299 0.0
H170 H 0.98173 0.33163 0.14884 0.0
H171 H 0.01685 0.34956 0.88306 0.0
H172 H 0.95227 0.30801 1.01168 0.0
H173 H 0.04641 0.3555 0.02009 0.0
C174 C 0.04158 0.35825 0.09342 0.0
C175 C 0.02365 0.35243 0.13055 0.0
C176 C 0.96647 0.31685 0.98347 0.0
C177 C 0.00463 0.33581 0.04004 0.0
C178 C 0.95704 0.31573 0.93841 0.0
C179 C 0.97493 0.32805 0.90134 0.0
C180 C 0.99403 0.33049 0.99176 0.0
C181 C 0.00232 0.33998 0.91056 0.0
C182 C 0.03218 0.34995 0.04832 0.0
C183 C 0.99628 0.33677 0.12131 0.0
N184 N 0.01104 0.34121 0.95495 0.0
N185 N 0.9876 0.32931 0.07688 0.0
H186 H 0.66871 0.01377 0.38011 0.0
H187 H 0.64663 0.97835 0.65095 0.0
H188 H 0.62104 0.93399 0.43401 0.0
H189 H 0.69071 0.05841 0.59674 0.0
H190 H 0.644 0.96114 0.57216 0.0
H191 H 0.68366 0.02975 0.45927 0.0
C192 C 0.66167 -0.00045 0.40845 0.0
C193 C 0.64326 0.97256 0.40043 0.0
C194 C 0.65456 0.98248 0.57763 0.0
C195 C 0.66016 0.99074 0.4912 0.0
C196 C 0.65616 0.99231 0.62268 0.0
C197 C 0.66852 0.01986 0.6304 0.0
C198 C 0.66535 0.00032 0.54009 0.0
C199 C 0.68062 0.03701 0.59238 0.0
C200 C 0.67018 0.00869 0.45369 0.0
C201 C 0.63496 0.95504 0.43855 0.0
N202 N 0.67844 0.02696 0.54885 0.0
N203 N 0.64322 0.96447 0.48229 0.0
H204 H 0.62471 0.68873 0.09892 0.0
H205 H 0.68872 0.62556 0.93334 0.0
H206 H 0.66641 0.64946 0.1493 0.0
H207 H 0.64922 0.66703 0.88294 0.0
H208 H 0.68654 0.63988 1.01227 0.0
H209 H 0.63921 0.68675 0.02002 0.0
C210 C 0.6372 0.67997 0.09351 0.0
C211 C 0.64402 0.66887 0.13078 0.0
C212 C 0.67865 0.64615 0.98392 0.0
C213 C 0.66053 0.66637 0.04022 0.0
C214 C 0.67988 0.63798 0.93875 0.0
C215 C 0.66876 0.64477 0.90148 0.0
C216 C 0.66601 0.66106 0.99206 0.0
C217 C 0.65785 0.66114 0.91062 0.0
C218 C 0.64548 0.67886 0.04836 0.0
C219 C 0.66049 0.65806 0.12163 0.0
N220 N 0.65641 0.66842 0.95509 0.0
N221 N 0.66788 0.65676 0.07718 0.0
H222 H 0.0594 0.69226 0.432 0.0
H223 H 0.9321 0.62191 0.59717 0.0
H224 H 0.97869 0.64612 0.38127 0.0
H225 H 0.01293 0.66765 0.64756 0.0
H226 H 0.94818 0.63649 0.51813 0.0
H227 H 0.04218 0.68955 0.51051 0.0
C228 C 0.03801 0.68185 0.43723 0.0
C229 C 0.02046 0.66903 0.40001 0.0
C230 C 0.96238 0.64361 0.5465 0.0
C231 C 0.00061 0.66564 0.49019 0.0
C232 C 0.95322 0.63529 0.59173 0.0
C233 C 0.97125 0.64325 0.62908 0.0
C234 C 0.98981 0.65989 0.53835 0.0
C235 C 0.99833 0.66082 0.61986 0.0
C236 C 0.0282 0.68029 0.48217 0.0
C237 C 0.99296 0.65612 0.40892 0.0
N238 N 0.00682 0.66827 0.57535 0.0
N239 N 0.98389 0.65443 0.45322 0.0
H240 H 0.37607 0.06567 0.93462 0.0
H241 H 0.30442 0.93877 0.09975 0.0
H242 H 0.32954 0.98493 0.88427 0.0
H243 H 0.3516 0.01934 0.15044 0.0
H244 H 0.30719 0.95599 0.02134 0.0
H245 H 0.36132 0.04979 1.01367 0.0
C246 C 0.36248 0.04461 0.94006 0.0
C247 C 0.35436 0.02654 0.90273 0.0
C248 C 0.31665 0.96995 0.04965 0.0
C249 C 0.3375 0.00821 0.99347 0.0
C250 C 0.31506 0.96013 0.09454 0.0
C251 C 0.32816 0.97763 0.1317 0.0
C252 C 0.33163 0.99748 0.04164 0.0
C253 C 0.34136 0.0051 0.12284 0.0
C254 C 0.35406 0.03557 0.98531 0.0
C255 C 0.33651 -0.00044 0.91197 0.0
N256 N 0.34309 0.01417 0.07858 0.0
N257 N 0.32896 0.99117 0.95648 0.0
H258 H 0.35019 0.32891 0.37749 0.0
H259 H 0.32785 0.34325 0.64786 0.0
H260 H 0.30641 0.36546 0.43099 0.0
H261 H 0.375 0.31028 0.59471 0.0
H262 H 0.31288 0.34394 0.56862 0.0
H263 H 0.35234 0.31423 0.45635 0.0
C264 C 0.34061 0.33344 0.40562 0.0
C265 C 0.3285 0.34884 0.3977 0.0
C266 C 0.32624 0.33624 0.57439 0.0
C267 C 0.33111 0.33234 0.48808 0.0
C268 C 0.33476 0.3358 0.61968 0.0
C269 C 0.35306 0.32711 0.62791 0.0
C270 C 0.33615 0.32801 0.53705 0.0
C271 C 0.36118 0.31752 0.58999 0.0
C272 C 0.34193 0.32514 0.4507 0.0
C273 C 0.31633 0.354 0.43553 0.0
N274 N 0.35293 0.31853 0.5462 0.0
N275 N 0.31824 0.34608 0.4791 0.0
H276 H 0.0284 0.66804 0.88712 0.0
H277 H 0.96769 0.63511 0.14304 0.0
H278 H 0.94407 0.63023 0.91569 0.0
H279 H 0.05183 0.68432 0.11517 0.0
H280 H 0.95858 0.63613 0.06032 0.0
H281 H 0.03741 0.67734 0.97015 0.0
C282 C 0.01177 0.66201 0.91077 0.0
C283 C 0.98541 0.64812 0.89441 0.0
C284 C 0.97902 0.647 0.0723 0.0
C285 C 0.99561 0.65842 0.9898 0.0
C286 C 0.98426 0.64642 0.1196 0.0
C287 C 0.0106 0.65947 0.13606 0.0
C288 C 0.00029 0.66045 0.04096 0.0
C289 C 0.03122 0.67391 0.10404 0.0
C290 C 0.01694 0.66732 0.95825 0.0
C291 C 0.96469 0.64091 0.92671 0.0
N292 N 0.02566 0.67372 0.05796 0.0
N293 N 0.97022 0.64582 0.9729 0.0
H294 H 0.3628 0.02991 0.38878 0.0
H295 H 0.32973 0.96908 0.64447 0.0
H296 H 0.31372 0.94581 0.41625 0.0
H297 H 0.36764 0.05334 0.61629 0.0
H298 H 0.32054 0.96011 0.5614 0.0
H299 H 0.36179 0.03894 0.4716 0.0
C300 C 0.35153 0.01333 0.41216 0.0
C301 C 0.3385 0.98703 0.39555 0.0
C302 C 0.33055 0.98056 0.5734 0.0
C303 C 0.33752 0.99724 0.49076 0.0
C304 C 0.3358 0.98571 0.6209 0.0
C305 C 0.34968 0.01203 0.63738 0.0
C306 C 0.33951 0.00188 0.54195 0.0
C307 C 0.35696 0.03274 0.60517 0.0
C308 C 0.35095 0.01852 0.45952 0.0
C309 C 0.32411 0.96639 0.42749 0.0
N310 N 0.3521 0.02724 0.55897 0.0
N311 N 0.32429 0.97191 0.47363 0.0
H312 H 0.36825 0.31295 0.9119 0.0
H313 H 0.31334 0.36756 0.11527 0.0
H314 H 0.33202 0.36126 0.88774 0.0
H315 H 0.36338 0.33319 0.13877 0.0
H316 H 0.31238 0.3577 0.03211 0.0
H317 H 0.35887 0.31248 0.99513 0.0
C318 C 0.35795 0.32311 0.92396 0.0
C319 C 0.35116 0.33739 0.89282 0.0
C320 C 0.32333 0.35206 0.05557 0.0
C321 C 0.34049 0.33706 0.98811 0.0
C322 C 0.32379 0.35759 0.10309 0.0
C323 C 0.33868 0.35144 0.13399 0.0
C324 C 0.33776 0.34019 0.03886 0.0
C325 C 0.35184 0.33852 0.11618 0.0
C326 C 0.35271 0.32293 0.97153 0.0
C327 C 0.33784 0.35018 0.9105 0.0
N328 N 0.35122 0.3335 0.06981 0.0
N329 N 0.33313 0.34988 0.95697 0.0
H330 H 0.94385 0.31461 0.61714 0.0
H331 H 0.05437 0.36932 0.41515 0.0
H332 H 0.0282 0.36438 0.64218 0.0
H333 H 0.97005 0.33493 0.38999 0.0
H334 H 0.04502 0.36 0.49834 0.0
H335 H 0.95316 0.31431 0.53398 0.0
C336 C 0.96435 0.32515 0.6053 0.0
C337 C 0.98526 0.33974 0.63668 0.0
C338 C 0.02855 0.35424 0.47452 0.0
C339 C 0.99604 0.33955 0.54148 0.0
C340 C 0.03386 0.35944 0.42697 0.0
C341 C 0.01299 0.35312 0.39555 0.0
C342 C 0.00216 0.34249 0.49078 0.0
C343 C 0.9868 0.34036 0.41296 0.0
C344 C 0.96964 0.32506 0.55777 0.0
C345 C 0.01144 0.35304 0.61924 0.0
N346 N 0.98215 0.33563 0.45937 0.0
N347 N 0.01606 0.35276 0.57285 0.0
H348 H 0.63368 0.96828 0.88694 0.0
H349 H 0.6662 0.02882 0.1428 0.0
H350 H 0.68286 0.05235 0.91475 0.0
H351 H 0.62907 0.94463 0.11424 0.0
H352 H 0.67549 0.0379 0.05977 0.0
H353 H 0.63464 0.95918 0.96968 0.0
C354 C 0.64496 0.98483 0.91038 0.0
C355 C 0.65803 0.01115 0.8939 0.0
C356 C 0.66563 0.01745 0.07168 0.0
C357 C 0.65895 0.00086 0.98899 0.0
C358 C 0.66031 0.01224 0.11914 0.0
C359 C 0.64662 0.9859 0.1355 0.0
C360 C 0.65692 0.99617 0.04014 0.0
C361 C 0.63959 0.96524 0.10321 0.0
C362 C 0.64552 0.97961 0.95768 0.0
C363 C 0.67243 0.03176 0.92591 0.0
N364 N 0.6445 0.9708 0.05703 0.0
N365 N 0.67222 0.0262 0.97199 0.0
H366 H 0.63151 0.68648 0.41477 0.0
H367 H 0.6858 0.63128 0.61736 0.0
H368 H 0.66672 0.63723 0.39044 0.0
H369 H 0.63751 0.66758 0.64171 0.0
H370 H 0.68683 0.64113 0.53427 0.0
H371 H 0.64146 0.68751 0.4978 0.0
C372 C 0.64171 0.67624 0.42673 0.0
C373 C 0.64803 0.66151 0.39563 0.0
C374 C 0.67627 0.64722 0.5579 0.0
C375 C 0.65935 0.66248 0.49068 0.0
C376 C 0.67577 0.6417 0.60539 0.0
C377 C 0.66131 0.64837 0.63651 0.0
C378 C 0.66228 0.65956 0.54141 0.0
C379 C 0.64871 0.66186 0.61895 0.0
C380 C 0.64729 0.67673 0.47419 0.0
C381 C 0.66126 0.64863 0.41318 0.0
N382 N 0.64931 0.66681 0.57257 0.0
N383 N 0.66627 0.64924 0.45953 0.0
H384 H 0.0099 0.56231 0.25792 0.0
H385 H 0.09751 0.4909 0.25692 0.0
H386 H 0.09531 0.60486 0.27665 0.0
H387 H 0.01171 0.44848 0.26941 0.0
H388 H 0.09733 0.53298 0.25864 0.0
H389 H 0.01046 0.52051 0.25599 0.0
C390 C 0.0288 0.5629 0.26148 0.0
C391 C 0.0526 0.58717 0.26752 0.0
C392 C 0.07857 0.51445 0.26113 0.0
C393 C 0.05334 0.53929 0.26532 0.0
C394 C 0.07863 0.49041 0.26008 0.0
C395 C 0.05458 0.46609 0.26304 0.0
C396 C 0.05426 0.51419 0.26473 0.0
C397 C 0.03075 0.46672 0.26715 0.0
C398 C 0.02908 0.53899 0.26055 0.0
C399 C 0.07647 0.58664 0.27205 0.0
N400 N 0.03119 0.49036 0.26768 0.0
N401 N 0.07623 0.56308 0.27076 0.0
H402 H 0.44533 0.00862 0.75946 0.0
H403 H 0.60448 0.09578 0.74668 0.0
H404 H 0.48883 0.09461 0.76223 0.0
H405 H 0.56141 0.01084 0.77021 0.0
H406 H 0.5622 0.09559 0.7469 0.0
H407 H 0.48762 0.0089 0.75724 0.0
C408 C 0.46375 0.02757 0.75937 0.0
C409 C 0.46349 0.05163 0.76115 0.0
C410 C 0.56202 0.07701 0.7521 0.0
C411 C 0.51201 0.05207 0.75869 0.0
C412 C 0.58616 0.07709 0.75195 0.0
C413 C 0.58653 0.05329 0.75849 0.0
C414 C 0.53803 0.05293 0.75848 0.0
C415 C 0.56213 0.02968 0.76517 0.0
C416 C 0.4879 0.0277 0.75829 0.0
C417 C 0.48803 0.07557 0.76104 0.0
N418 N 0.53888 0.0301 0.76485 0.0
N419 N 0.51128 0.07517 0.75983 0.0
H420 H 0.50889 0.60501 0.26904 0.0
H421 H 0.4367 0.44611 0.25906 0.0
H422 H 0.55123 0.56136 0.27291 0.0
H423 H 0.39462 0.48904 0.28229 0.0
H424 H 0.47877 0.48831 0.25961 0.0
H425 H 0.46675 0.56285 0.27026 0.0
C426 C 0.50935 0.58657 0.27032 0.0
C427 C 0.53367 0.58675 0.27082 0.0
C428 C 0.46033 0.48849 0.26463 0.0
C429 C 0.48544 0.53839 0.27188 0.0
C430 C 0.43627 0.4644 0.26414 0.0
C431 C 0.41204 0.46399 0.27065 0.0
C432 C 0.46022 0.51243 0.27135 0.0
C433 C 0.41279 0.48836 0.27721 0.0
C434 C 0.48526 0.5625 0.27103 0.0
C435 C 0.53299 0.56222 0.27255 0.0
N436 N 0.43648 0.51159 0.27729 0.0
N437 N 0.50927 0.53904 0.27278 0.0
H438 H 0.98855 0.55233 0.7731 0.0
H439 H 0.9012 0.39323 0.78143 0.0
H440 H 0.90252 0.50884 0.76762 0.0
H441 H 0.98662 0.43648 0.76254 0.0
H442 H 0.90137 0.43545 0.78139 0.0
H443 H 0.98829 0.51009 0.77496 0.0
C444 C 0.96959 0.53392 0.77251 0.0
C445 C 0.94551 0.53417 0.7701 0.0
C446 C 0.92007 0.43568 0.77717 0.0
C447 C 0.94511 0.4857 0.77213 0.0
C448 C 0.92 0.41158 0.77721 0.0
C449 C 0.94394 0.41127 0.77194 0.0
C450 C 0.94426 0.45971 0.77215 0.0
C451 C 0.96767 0.43571 0.76659 0.0
C452 C 0.96947 0.50979 0.7734 0.0
C453 C 0.92157 0.50964 0.76935 0.0
N454 N 0.96723 0.45892 0.76696 0.0
N455 N 0.92198 0.48642 0.77036 0.0
H456 H 0.43557 0.98833 0.27279 0.0
H457 H 0.50784 0.90165 0.26215 0.0
H458 H 0.3936 0.90347 0.24816 0.0
H459 H 0.55014 0.98764 0.2602 0.0
H460 H 0.46568 0.90166 0.26075 0.0
H461 H 0.47761 0.98815 0.2728 0.0
C462 C 0.43516 0.96962 0.26752 0.0
C463 C 0.41097 0.94587 0.26044 0.0
C464 C 0.48419 0.92052 0.26045 0.0
C465 C 0.45914 0.94556 0.26037 0.0
C466 C 0.50829 0.92055 0.26128 0.0
C467 C 0.53261 0.9447 0.26133 0.0
C468 C 0.48436 0.94482 0.26007 0.0
C469 C 0.53191 0.96855 0.26011 0.0
C470 C 0.45921 0.96957 0.26735 0.0
C471 C 0.41174 0.92227 0.25367 0.0
N472 N 0.50819 0.968 0.25976 0.0
N473 N 0.43543 0.92271 0.2539 0.0
H474 H 0.56069 0.55273 0.7569 0.0
H475 H 0.48913 0.39361 0.7604 0.0
H476 H 0.60309 0.50941 0.76927 0.0
H477 H 0.44636 0.43677 0.76776 0.0
H478 H 0.53108 0.43588 0.76032 0.0
H479 H 0.51862 0.51045 0.75659 0.0
C480 C 0.56119 0.53435 0.75933 0.0
C481 C 0.5855 0.53466 0.76318 0.0
C482 C 0.51253 0.43611 0.76208 0.0
C483 C 0.53736 0.48617 0.76299 0.0
C484 C 0.48853 0.41196 0.76215 0.0
C485 C 0.46413 0.4116 0.76409 0.0
C486 C 0.5122 0.46015 0.76368 0.0
C487 C 0.46467 0.43606 0.76632 0.0
C488 C 0.53714 0.51021 0.75933 0.0
C489 C 0.58486 0.51018 0.76632 0.0
N490 N 0.48831 0.45933 0.76589 0.0
N491 N 0.5612 0.48696 0.76615 0.0
H492 H 0.13742 0.39611 0.32936 0.0
H493 H 0.25988 0.3966 0.20224 0.0
H494 H 0.15598 0.4178 0.18476 0.0
H495 H 0.26195 0.41573 0.34804 0.0
H496 H 0.21753 0.39639 0.19483 0.0
H497 H 0.17926 0.39531 0.33678 0.0
C498 C 0.15027 0.40066 0.29925 0.0
C499 C 0.14337 0.40721 0.2565 0.0
C500 C 0.22736 0.40066 0.22836 0.0
C501 C 0.19073 0.40586 0.26449 0.0
C502 C 0.25141 0.40072 0.23262 0.0
C503 C 0.26447 0.40637 0.27571 0.0
C504 C 0.21609 0.40569 0.2677 0.0
C505 C 0.25264 0.41152 0.31406 0.0
C506 C 0.17409 0.40027 0.30351 0.0
C507 C 0.16068 0.4129 0.21848 0.0
N508 N 0.22902 0.41089 0.30924 0.0
N509 N 0.18349 0.41192 0.22327 0.0
H510 H 0.86123 0.25887 0.70172 0.0
H511 H 0.73844 0.13628 0.82668 0.0
H512 H 0.84232 0.26113 0.84649 0.0
H513 H 0.73686 0.15386 0.68112 0.0
H514 H 0.78078 0.17836 0.83481 0.0
H515 H 0.81943 0.21627 0.69345 0.0
C516 C 0.84832 0.25039 0.73169 0.0
C517 C 0.85511 0.26357 0.77474 0.0
C518 C 0.77107 0.17292 0.80116 0.0
C519 C 0.80779 0.21491 0.76578 0.0
C520 C 0.74702 0.14896 0.79649 0.0
C521 C 0.7341 0.14172 0.75326 0.0
C522 C 0.78246 0.18937 0.7621 0.0
C523 C 0.74606 0.15883 0.71519 0.0
C524 C 0.82451 0.22619 0.72695 0.0
C525 C 0.83771 0.25173 0.81255 0.0
N526 N 0.76967 0.18179 0.72041 0.0
N527 N 0.81493 0.22797 0.80729 0.0
H528 H 0.54863 0.71637 0.23942 0.0
H529 H 0.6317 0.8737 0.2469 0.0
H530 H 0.63117 0.75726 0.28135 0.0
H531 H 0.5495 0.83018 0.29094 0.0
H532 H 0.63214 0.8315 0.2435 0.0
H533 H 0.54871 0.7586 0.24336 0.0
C534 C 0.56673 0.73426 0.24965 0.0
C535 C 0.58989 0.73341 0.26036 0.0
C536 C 0.61406 0.83132 0.25374 0.0
C537 C 0.59029 0.78168 0.26366 0.0
C538 C 0.61371 0.85524 0.25526 0.0
C539 C 0.59052 0.8553 0.26919 0.0
C540 C 0.59087 0.8074 0.26507 0.0
C541 C 0.56779 0.83095 0.28016 0.0
C542 C 0.56675 0.75826 0.25188 0.0
C543 C 0.61285 0.75712 0.27331 0.0
N544 N 0.56846 0.80792 0.27753 0.0
N545 N 0.61259 0.78045 0.27409 0.0
H546 H 0.87296 0.63186 0.7841 0.0
H547 H 0.71548 0.54866 0.79312 0.0
H548 H 0.82948 0.54952 0.74139 0.0
H549 H 0.75627 0.63094 0.75004 0.0
H550 H 0.75776 0.54875 0.78902 0.0
H551 H 0.83065 0.63217 0.78765 0.0
C552 C 0.85449 0.6138 0.77608 0.0
C553 C 0.85459 0.59062 0.76247 0.0
C554 C 0.75738 0.56672 0.78028 0.0
C555 C 0.80656 0.59082 0.76674 0.0
C556 C 0.73335 0.5667 0.78259 0.0
C557 C 0.73246 0.58979 0.77162 0.0
C558 C 0.78079 0.5902 0.76816 0.0
C559 C 0.75615 0.61267 0.7583 0.0
C560 C 0.83051 0.61408 0.77767 0.0
C561 C 0.83021 0.56781 0.75192 0.0
N562 N 0.77952 0.61242 0.75746 0.0
N563 N 0.80712 0.56841 0.75461 0.0
H564 H 0.26173 0.84413 0.1806 0.0
H565 H 0.15406 0.7359 0.34975 0.0
H566 H 0.25826 0.8604 0.32636 0.0
H567 H 0.13722 0.73996 0.20461 0.0
H568 H 0.19578 0.77823 0.34171 0.0
H569 H 0.2194 0.80242 0.18869 0.0
C570 C 0.25211 0.83886 0.21439 0.0
C571 C 0.26352 0.85569 0.25296 0.0
C572 C 0.18291 0.76985 0.31169 0.0
C573 C 0.21529 0.80797 0.26236 0.0
C574 C 0.15921 0.74565 0.31611 0.0
C575 C 0.14222 0.73441 0.2777 0.0
C576 C 0.18994 0.78263 0.26834 0.0
C577 C 0.14976 0.74798 0.23506 0.0
C578 C 0.22791 0.81516 0.21884 0.0
C579 C 0.2501 0.84799 0.29578 0.0
N580 N 0.17324 0.77133 0.23139 0.0
N581 N 0.22676 0.82452 0.29946 0.0
H582 H 0.36629 0.24163 0.78339 0.0
H583 H 0.44986 0.16783 0.78998 0.0
H584 H 0.44814 0.2802 0.73732 0.0
H585 H 0.36694 0.12572 0.75039 0.0
H586 H 0.44964 0.2099 0.78555 0.0
H587 H 0.36609 0.19913 0.78738 0.0
C588 C 0.38427 0.24118 0.77471 0.0
C589 C 0.40728 0.26435 0.76003 0.0
C590 C 0.43156 0.19144 0.77764 0.0
C591 C 0.4072 0.21625 0.76479 0.0
C592 C 0.43165 0.16749 0.78015 0.0
C593 C 0.40842 0.14338 0.77024 0.0
C594 C 0.40788 0.19116 0.76642 0.0
C595 C 0.38531 0.14397 0.7578 0.0
C596 C 0.38405 0.21699 0.77656 0.0
C597 C 0.42999 0.26273 0.74868 0.0
N598 N 0.38552 0.16754 0.75675 0.0
N599 N 0.42945 0.23911 0.75163 0.0
loop_
_geom_bond_atom_site_label_1
_geom_bond_atom_site_label_2
_geom_bond_distance
_geom_bond_site_symmetry_2
_ccdc_geom_bond_type
O0 Cd1 2.223 . S
O0 C8 1.315 . S
Cd1 O0 2.223 . S
Cd1 O4 2.297 . S
Cd1 O5 2.439 . S
Cd1 O11 2.240 . S
Cd2 O3 2.240 . S
Cd2 O10 2.223 . S
Cd2 O12 2.297 1_455 S
Cd2 O13 2.439 . S
O3 Cd2 2.240 . S
O3 C8 1.279 . S
O4 Cd1 2.297 . S
O4 C6 1.247 . S
O5 Cd1 2.439 . S
O5 C6 1.208 . S
C6 O4 1.247 . S
C6 O5 1.208 . S
C7 O12 1.247 1_455 S
C7 O13 1.208 . S
C8 O0 1.315 . S
C8 O3 1.279 . S
C9 O10 1.315 . S
C9 O11 1.279 . S
O10 Cd2 2.223 . S
O10 C9 1.315 . S
O11 Cd1 2.240 . S
O11 C9 1.279 . S
O12 Cd2 2.297 1_655 S
O12 C7 1.247 1_655 S
O13 Cd2 2.439 . S
O13 C7 1.208 . S
O14 Cd15 2.223 . S
O14 C22 1.315 . S
Cd15 O14 2.223 . S
Cd15 O18 2.297 . S
Cd15 O19 2.439 . S
Cd15 O25 2.240 . S
Cd16 O17 2.240 . S
Cd16 O24 2.223 . S
Cd16 O26 2.297 1_545 S
Cd16 O27 2.439 . S
O17 Cd16 2.240 . S
O17 C22 1.279 . S
O18 Cd15 2.297 . S
O18 C20 1.247 . S
O19 Cd15 2.439 . S
O19 C20 1.208 . S
C20 O18 1.247 . S
C20 O19 1.208 . S
C21 O26 1.247 1_545 S
C21 O27 1.208 . S
C22 O14 1.315 . S
C22 O17 1.279 . S
C23 O24 1.315 . S
C23 O25 1.279 . S
O24 Cd16 2.223 . S
O24 C23 1.315 . S
O25 Cd15 2.240 . S
O25 C23 1.279 . S
O26 Cd16 2.297 1_565 S
O26 C21 1.247 1_565 S
O27 Cd16 2.439 . S
O27 C21 1.208 . S
O28 Cd29 2.223 . S
O28 C36 1.315 . S
Cd29 O28 2.223 . S
Cd29 O32 2.297 . S
Cd29 O33 2.439 . S
Cd29 O39 2.240 . S
Cd30 O31 2.240 . S
Cd30 O38 2.223 . S
Cd30 O40 2.297 . S
Cd30 O41 2.439 . S
O31 Cd30 2.240 . S
O31 C36 1.279 . S
O32 Cd29 2.297 . S
O32 C34 1.247 . S
O33 Cd29 2.439 . S
O33 C34 1.208 . S
C34 O32 1.247 . S
C34 O33 1.208 . S
C35 O40 1.247 . S
C35 O41 1.208 . S
C36 O28 1.315 . S
C36 O31 1.279 . S
C37 O38 1.315 . S
C37 O39 1.279 . S
O38 Cd30 2.223 . S
O38 C37 1.315 . S
O39 Cd29 2.240 . S
O39 C37 1.279 . S
O40 Cd30 2.297 . S
O40 C35 1.247 . S
O41 Cd30 2.439 . S
O41 C35 1.208 . S
O42 Cd43 2.223 . S
O42 C50 1.315 . S
Cd43 O42 2.223 . S
Cd43 O46 2.297 . S
Cd43 O47 2.439 . S
Cd43 O53 2.240 . S
Cd44 O45 2.240 . S
Cd44 O52 2.223 . S
Cd44 O54 2.297 1_655 S
Cd44 O55 2.439 . S
O45 Cd44 2.240 . S
O45 C50 1.279 . S
O46 Cd43 2.297 . S
O46 C48 1.247 . S
O47 Cd43 2.439 . S
O47 C48 1.208 . S
C48 O46 1.247 . S
C48 O47 1.208 . S
C49 O54 1.247 1_655 S
C49 O55 1.208 . S
C50 O42 1.315 . S
C50 O45 1.279 . S
C51 O52 1.315 . S
C51 O53 1.279 . S
O52 Cd44 2.223 . S
O52 C51 1.315 . S
O53 Cd43 2.240 . S
O53 C51 1.279 . S
O54 Cd44 2.297 1_455 S
O54 C49 1.247 1_455 S
O55 Cd44 2.439 . S
O55 C49 1.208 . S
O56 Cd57 2.223 . S
O56 C64 1.315 . S
Cd57 O56 2.223 . S
Cd57 O60 2.297 . S
Cd57 O61 2.439 . S
Cd57 O67 2.240 . S
Cd58 O59 2.240 . S
Cd58 O66 2.223 . S
Cd58 O68 2.297 1_565 S
Cd58 O69 2.439 . S
O59 Cd58 2.240 . S
O59 C64 1.279 . S
O60 Cd57 2.297 . S
O60 C62 1.247 . S
O61 Cd57 2.439 . S
O61 C62 1.208 . S
C62 O60 1.247 . S
C62 O61 1.208 . S
C63 O68 1.247 1_565 S
C63 O69 1.208 . S
C64 O56 1.315 . S
C64 O59 1.279 . S
C65 O66 1.315 . S
C65 O67 1.279 . S
O66 Cd58 2.223 . S
O66 C65 1.315 . S
O67 Cd57 2.240 . S
O67 C65 1.279 . S
O68 Cd58 2.297 1_545 S
O68 C63 1.247 1_545 S
O69 Cd58 2.439 . S
O69 C63 1.208 . S
O70 Cd71 2.223 . S
O70 C78 1.315 . S
Cd71 O70 2.223 . S
Cd71 O74 2.297 . S
Cd71 O75 2.439 . S
Cd71 O81 2.240 . S
Cd72 O73 2.240 . S
Cd72 O80 2.223 . S
Cd72 O82 2.297 . S
Cd72 O83 2.439 . S
O73 Cd72 2.240 . S
O73 C78 1.279 . S
O74 Cd71 2.297 . S
O74 C76 1.247 . S
O75 Cd71 2.439 . S
O75 C76 1.208 . S
C76 O74 1.247 . S
C76 O75 1.208 . S
C77 O82 1.247 . S
C77 O83 1.208 . S
C78 O70 1.315 . S
C78 O73 1.279 . S
C79 O80 1.315 . S
C79 O81 1.279 . S
O80 Cd72 2.223 . S
O80 C79 1.315 . S
O81 Cd71 2.240 . S
O81 C79 1.279 . S
O82 Cd72 2.297 . S
O82 C77 1.247 . S
O83 Cd72 2.439 . S
O83 C77 1.208 . S
O84 Cd85 2.223 . S
O84 C92 1.315 . S
Cd85 O84 2.223 . S
Cd85 O88 2.297 . S
Cd85 O89 2.439 . S
Cd85 O95 2.240 . S
Cd86 O87 2.240 . S
Cd86 O94 2.223 . S
Cd86 O96 2.297 1_565 S
Cd86 O97 2.439 . S
O87 Cd86 2.240 . S
O87 C92 1.279 . S
O88 Cd85 2.297 . S
O88 C90 1.247 . S
O89 Cd85 2.439 . S
O89 C90 1.208 . S
C90 O88 1.247 . S
C90 O89 1.208 . S
C91 O96 1.247 1_565 S
C91 O97 1.208 . S
C92 O84 1.315 . S
C92 O87 1.279 . S
C93 O94 1.315 . S
C93 O95 1.279 . S
O94 Cd86 2.223 . S
O94 C93 1.315 . S
O95 Cd85 2.240 . S
O95 C93 1.279 . S
O96 Cd86 2.297 1_545 S
O96 C91 1.247 1_545 S
O97 Cd86 2.439 . S
O97 C91 1.208 . S
O98 Cd99 2.223 . S
O98 C106 1.315 . S
Cd99 O98 2.223 . S
Cd99 O102 2.297 . S
Cd99 O103 2.439 . S
Cd99 O109 2.240 . S
Cd100 O101 2.240 . S
Cd100 O108 2.223 . S
Cd100 O110 2.297 . S
Cd100 O111 2.439 . S
O101 Cd100 2.240 . S
O101 C106 1.279 . S
O102 Cd99 2.297 . S
O102 C104 1.247 . S
O103 Cd99 2.439 . S
O103 C104 1.208 . S
C104 O102 1.247 . S
C104 O103 1.208 . S
C105 O110 1.247 . S
C105 O111 1.208 . S
C106 O98 1.315 . S
C106 O101 1.279 . S
C107 O108 1.315 . S
C107 O109 1.279 . S
O108 Cd100 2.223 . S
O108 C107 1.315 . S
O109 Cd99 2.240 . S
O109 C107 1.279 . S
O110 Cd100 2.297 . S
O110 C105 1.247 . S
O111 Cd100 2.439 . S
O111 C105 1.208 . S
O112 Cd113 2.223 . S
O112 C120 1.315 . S
Cd113 O112 2.223 . S
Cd113 O116 2.297 . S
Cd113 O117 2.439 . S
Cd113 O123 2.240 . S
Cd114 O115 2.240 . S
Cd114 O122 2.223 . S
Cd114 O124 2.297 1_455 S
Cd114 O125 2.439 . S
O115 Cd114 2.240 . S
O115 C120 1.279 . S
O116 Cd113 2.297 . S
O116 C118 1.247 . S
O117 Cd113 2.439 . S
O117 C118 1.208 . S
C118 O116 1.247 . S
C118 O117 1.208 . S
C119 O124 1.247 1_455 S
C119 O125 1.208 . S
C120 O112 1.315 . S
C120 O115 1.279 . S
C121 O122 1.315 . S
C121 O123 1.279 . S
O122 Cd114 2.223 . S
O122 C121 1.315 . S
O123 Cd113 2.240 . S
O123 C121 1.279 . S
O124 Cd114 2.297 1_655 S
O124 C119 1.247 1_655 S
O125 Cd114 2.439 . S
O125 C119 1.208 . S
O126 Cd127 2.223 . S
O126 C134 1.315 . S
Cd127 O126 2.223 . S
Cd127 O130 2.297 . S
Cd127 O131 2.439 . S
Cd127 O137 2.240 . S
Cd128 O129 2.240 . S
Cd128 O136 2.223 . S
Cd128 O138 2.297 1_545 S
Cd128 O139 2.439 . S
O129 Cd128 2.240 . S
O129 C134 1.279 . S
O130 Cd127 2.297 . S
O130 C132 1.247 . S
O131 Cd127 2.439 . S
O131 C132 1.208 . S
C132 O130 1.247 . S
C132 O131 1.208 . S
C133 O138 1.247 1_545 S
C133 O139 1.208 . S
C134 O126 1.315 . S
C134 O129 1.279 . S
C135 O136 1.315 . S
C135 O137 1.279 . S
O136 Cd128 2.223 . S
O136 C135 1.315 . S
O137 Cd127 2.240 . S
O137 C135 1.279 . S
O138 Cd128 2.297 1_565 S
O138 C133 1.247 1_565 S
O139 Cd128 2.439 . S
O139 C133 1.208 . S
O140 Cd141 2.223 . S
O140 C148 1.315 . S
Cd141 O140 2.223 . S
Cd141 O144 2.297 . S
Cd141 O145 2.439 . S
Cd141 O151 2.240 . S
Cd142 O143 2.240 . S
Cd142 O150 2.223 . S
Cd142 O152 2.297 . S
Cd142 O153 2.439 . S
O143 Cd142 2.240 . S
O143 C148 1.279 . S
O144 Cd141 2.297 . S
O144 C146 1.247 . S
O145 Cd141 2.439 . S
O145 C146 1.208 . S
C146 O144 1.247 . S
C146 O145 1.208 . S
C147 O152 1.247 . S
C147 O153 1.208 . S
C148 O140 1.315 . S
C148 O143 1.279 . S
C149 O150 1.315 . S
C149 O151 1.279 . S
O150 Cd142 2.223 . S
O150 C149 1.315 . S
O151 Cd141 2.240 . S
O151 C149 1.279 . S
O152 Cd142 2.297 . S
O152 C147 1.247 . S
O153 Cd142 2.439 . S
O153 C147 1.208 . S
O154 Cd155 2.223 . S
O154 C162 1.315 . S
Cd155 O154 2.223 . S
Cd155 O158 2.297 . S
Cd155 O159 2.439 . S
Cd155 O165 2.240 . S
Cd156 O157 2.240 . S
Cd156 O164 2.223 . S
Cd156 O166 2.297 1_655 S
Cd156 O167 2.439 . S
O157 Cd156 2.240 . S
O157 C162 1.279 . S
O158 Cd155 2.297 . S
O158 C160 1.247 . S
O159 Cd155 2.439 . S
O159 C160 1.208 . S
C160 O158 1.247 . S
C160 O159 1.208 . S
C161 O166 1.247 1_655 S
C161 O167 1.208 . S
C162 O154 1.315 . S
C162 O157 1.279 . S
C163 O164 1.315 . S
C163 O165 1.279 . S
O164 Cd156 2.223 . S
O164 C163 1.315 . S
O165 Cd155 2.240 . S
O165 C163 1.279 . S
O166 Cd156 2.297 1_455 S
O166 C161 1.247 1_455 S
O167 Cd156 2.439 . S
O167 C161 1.208 . S
H168 C174 0.930 . S
H169 C178 0.930 . S
H170 C183 0.929 . S
H171 C181 0.929 . S
H172 C176 0.929 . S
H173 C182 0.929 . S
C174 H168 0.930 . S
C174 C175 1.367 . S
C174 C182 1.378 . S
C175 C174 1.367 . S
C175 C183 1.433 1_455 S
C176 H172 0.929 . S
C176 C178 1.378 . S
C176 C180 1.350 . S
C177 C180 1.463 1_454 S
C177 C182 1.350 . S
C177 N185 1.427 1_455 S
C178 H169 0.930 . S
C178 C176 1.378 . S
C178 C179 1.367 . S
C179 C178 1.367 . S
C179 C181 1.433 1_655 S
C180 C176 1.350 . S
C180 C177 1.463 1_656 S
C180 N184 1.427 1_655 S
C181 H171 0.929 . S
C181 C179 1.433 1_455 S
C181 N184 1.384 . S
C182 H173 0.929 . S
C182 C174 1.378 . S
C182 C177 1.350 . S
C183 H170 0.929 . S
C183 C175 1.433 1_655 S
C183 N185 1.384 . S
N184 C180 1.427 1_455 S
N184 C181 1.384 . S
N185 C177 1.427 1_655 S
N185 C183 1.384 . S
H186 C192 0.922 1_545 S
H187 C196 0.922 1_565 S
H188 C201 0.929 . S
H189 C199 0.929 . S
H190 C194 0.929 . S
H191 C200 0.929 . S
C192 H186 0.922 1_565 S
C192 C193 1.378 . S
C192 C200 1.374 1_565 S
C193 C192 1.378 . S
C193 C201 1.433 . S
C194 H190 0.929 . S
C194 C196 1.374 1_565 S
C194 C198 1.350 1_565 S
C195 C198 1.463 1_565 S
C195 C200 1.350 1_565 S
C195 N203 1.427 . S
C196 H187 0.922 1_545 S
C196 C194 1.374 1_545 S
C196 C197 1.378 . S
C197 C196 1.378 . S
C197 C199 1.433 . S
C198 C194 1.350 1_545 S
C198 C195 1.463 1_545 S
C198 N202 1.427 . S
C199 H189 0.929 . S
C199 C197 1.433 . S
C199 N202 1.384 . S
C200 H191 0.929 . S
C200 C192 1.374 1_545 S
C200 C195 1.350 1_545 S
C201 H188 0.929 . S
C201 C193 1.433 . S
C201 N203 1.384 . S
N202 C198 1.427 . S
N202 C199 1.384 . S
N203 C195 1.427 . S
N203 C201 1.384 . S
H204 C210 0.930 . S
H205 C214 0.930 . S
H206 C219 0.929 . S
H207 C217 0.929 . S
H208 C212 0.929 . S
H209 C218 0.929 . S
C210 H204 0.930 . S
C210 C211 1.367 . S
C210 C218 1.378 . S
C211 C210 1.367 . S
C211 C219 1.433 . S
C212 H208 0.929 . S
C212 C214 1.378 . S
C212 C216 1.350 . S
C213 C216 1.463 1_554 S
C213 C218 1.350 . S
C213 N221 1.427 . S
C214 H205 0.930 . S
C214 C212 1.378 . S
C214 C215 1.367 . S
C215 C214 1.367 . S
C215 C217 1.433 . S
C216 C212 1.350 . S
C216 C213 1.463 1_556 S
C216 N220 1.427 . S
C217 H207 0.929 . S
C217 C215 1.433 . S
C217 N220 1.384 . S
C218 H209 0.929 . S
C218 C210 1.378 . S
C218 C213 1.350 . S
C219 H206 0.929 . S
C219 C211 1.433 . S
C219 N221 1.384 . S
N220 C216 1.427 . S
N220 C217 1.384 . S
N221 C213 1.427 . S
N221 C219 1.384 . S
H222 C228 0.930 . S
H223 C232 0.930 . S
H224 C237 0.929 . S
H225 C235 0.929 . S
H226 C230 0.929 . S
H227 C236 0.929 . S
C228 H222 0.930 . S
C228 C229 1.367 . S
C228 C236 1.378 . S
C229 C228 1.367 . S
C229 C237 1.433 . S
C230 H226 0.929 . S
C230 C232 1.378 . S
C230 C234 1.350 . S
C231 C234 1.463 1_455 S
C231 C236 1.350 . S
C231 N239 1.427 . S
C232 H223 0.930 . S
C232 C230 1.378 . S
C232 C233 1.367 . S
C233 C232 1.367 . S
C233 C235 1.433 . S
C234 C230 1.350 . S
C234 C231 1.463 1_655 S
C234 N238 1.427 . S
C235 H225 0.929 . S
C235 C233 1.433 . S
C235 N238 1.384 . S
C236 H227 0.929 . S
C236 C228 1.378 . S
C236 C231 1.350 . S
C237 H224 0.929 . S
C237 C229 1.433 . S
C237 N239 1.384 . S
N238 C234 1.427 . S
N238 C235 1.384 . S
N239 C231 1.427 . S
N239 C237 1.384 . S
H240 C246 0.930 . S
H241 C250 0.930 . S
H242 C255 0.929 . S
H243 C253 0.929 . S
H244 C248 0.929 . S
H245 C254 0.929 . S
C246 H240 0.930 . S
C246 C247 1.367 . S
C246 C254 1.378 . S
C247 C246 1.367 . S
C247 C255 1.433 1_545 S
C248 H244 0.929 . S
C248 C250 1.378 . S
C248 C252 1.350 . S
C249 C252 1.463 1_546 S
C249 C254 1.350 . S
C249 N257 1.427 1_545 S
C250 H241 0.930 . S
C250 C248 1.378 . S
C250 C251 1.367 . S
C251 C250 1.367 . S
C251 C253 1.433 1_565 S
C252 C248 1.350 . S
C252 C249 1.463 1_564 S
C252 N256 1.427 1_565 S
C253 H243 0.929 . S
C253 C251 1.433 1_545 S
C253 N256 1.384 . S
C254 H245 0.929 . S
C254 C246 1.378 . S
C254 C249 1.350 . S
C255 H242 0.929 . S
C255 C247 1.433 1_565 S
C255 N257 1.384 . S
N256 C252 1.427 1_545 S
N256 C253 1.384 . S
N257 C249 1.427 1_565 S
N257 C255 1.384 . S
H258 C264 0.930 . S
H259 C268 0.930 . S
H260 C273 0.929 . S
H261 C271 0.929 . S
H262 C266 0.929 . S
H263 C272 0.929 . S
C264 H258 0.930 . S
C264 C265 1.367 . S
C264 C272 1.378 . S
C265 C264 1.367 . S
C265 C273 1.433 . S
C266 H262 0.929 . S
C266 C268 1.378 . S
C266 C270 1.350 . S
C267 C270 1.463 . S
C267 C272 1.350 . S
C267 N275 1.427 . S
C268 H259 0.930 . S
C268 C266 1.378 . S
C268 C269 1.367 . S
C269 C268 1.367 . S
C269 C271 1.433 . S
C270 C266 1.350 . S
C270 C267 1.463 . S
C270 N274 1.427 . S
C271 H261 0.929 . S
C271 C269 1.433 . S
C271 N274 1.384 . S
C272 H263 0.929 . S
C272 C264 1.378 . S
C272 C267 1.350 . S
C273 H260 0.929 . S
C273 C265 1.433 . S
C273 N275 1.384 . S
N274 C270 1.427 . S
N274 C271 1.384 . S
N275 C267 1.427 . S
N275 C273 1.384 . S
H276 C282 0.930 . S
H277 C286 0.930 . S
H278 C291 0.929 . S
H279 C289 0.929 . S
H280 C284 0.929 . S
H281 C290 0.929 . S
C282 H276 0.930 . S
C282 C283 1.367 1_455 S
C282 C290 1.378 . S
C283 C282 1.367 1_655 S
C283 C291 1.433 . S
C284 H280 0.929 . S
C284 C286 1.378 . S
C284 C288 1.350 1_655 S
C285 C288 1.463 1_656 S
C285 C290 1.350 1_655 S
C285 N293 1.427 . S
C286 H277 0.930 . S
C286 C284 1.378 . S
C286 C287 1.367 1_655 S
C287 C286 1.367 1_455 S
C287 C289 1.433 . S
C288 C284 1.350 1_455 S
C288 C285 1.463 1_454 S
C288 N292 1.427 . S
C289 H279 0.929 . S
C289 C287 1.433 . S
C289 N292 1.384 . S
C290 H281 0.929 . S
C290 C282 1.378 . S
C290 C285 1.350 1_455 S
C291 H278 0.929 . S
C291 C283 1.433 . S
C291 N293 1.384 . S
N292 C288 1.427 . S
N292 C289 1.384 . S
N293 C285 1.427 . S
N293 C291 1.384 . S
H294 C300 0.930 . S
H295 C304 0.930 . S
H296 C309 0.929 . S
H297 C307 0.929 . S
H298 C302 0.929 . S
H299 C308 0.929 . S
C300 H294 0.930 . S
C300 C301 1.367 1_545 S
C300 C308 1.378 . S
C301 C300 1.367 1_565 S
C301 C309 1.433 . S
C302 H298 0.929 . S
C302 C304 1.378 . S
C302 C306 1.350 1_565 S
C303 C306 1.463 1_565 S
C303 C308 1.350 1_565 S
C303 N311 1.427 . S
C304 H295 0.930 . S
C304 C302 1.378 . S
C304 C305 1.367 1_565 S
C305 C304 1.367 1_545 S
C305 C307 1.433 . S
C306 C302 1.350 1_545 S
C306 C303 1.463 1_545 S
C306 N310 1.427 . S
C307 H297 0.929 . S
C307 C305 1.433 . S
C307 N310 1.384 . S
C308 H299 0.929 . S
C308 C300 1.378 . S
C308 C303 1.350 1_545 S
C309 H296 0.929 . S
C309 C301 1.433 . S
C309 N311 1.384 . S
N310 C306 1.427 . S
N310 C307 1.384 . S
N311 C303 1.427 . S
N311 C309 1.384 . S
H312 C318 0.930 . S
H313 C322 0.930 . S
H314 C327 0.929 . S
H315 C325 0.929 . S
H316 C320 0.929 . S
H317 C326 0.929 . S
C318 H312 0.930 . S
C318 C319 1.367 . S
C318 C326 1.378 . S
C319 C318 1.367 . S
C319 C327 1.433 . S
C320 H316 0.929 . S
C320 C322 1.378 . S
C320 C324 1.350 . S
C321 C324 1.463 1_556 S
C321 C326 1.350 . S
C321 N329 1.427 . S
C322 H313 0.930 . S
C322 C320 1.378 . S
C322 C323 1.367 . S
C323 C322 1.367 . S
C323 C325 1.433 . S
C324 C320 1.350 . S
C324 C321 1.463 1_554 S
C324 N328 1.427 . S
C325 H315 0.929 . S
C325 C323 1.433 . S
C325 N328 1.384 . S
C326 H317 0.929 . S
C326 C318 1.378 . S
C326 C321 1.350 . S
C327 H314 0.929 . S
C327 C319 1.433 . S
C327 N329 1.384 . S
N328 C324 1.427 . S
N328 C325 1.384 . S
N329 C321 1.427 . S
N329 C327 1.384 . S
H330 C336 0.930 . S
H331 C340 0.930 . S
H332 C345 0.929 . S
H333 C343 0.929 . S
H334 C338 0.929 . S
H335 C344 0.929 . S
C336 H330 0.930 . S
C336 C337 1.367 . S
C336 C344 1.378 . S
C337 C336 1.367 . S
C337 C345 1.433 1_655 S
C338 H334 0.929 . S
C338 C340 1.378 . S
C338 C342 1.350 . S
C339 C342 1.463 1_655 S
C339 C344 1.350 . S
C339 N347 1.427 1_655 S
C340 H331 0.930 . S
C340 C338 1.378 . S
C340 C341 1.367 . S
C341 C340 1.367 . S
C341 C343 1.433 1_455 S
C342 C338 1.350 . S
C342 C339 1.463 1_455 S
C342 N346 1.427 1_455 S
C343 H333 0.929 . S
C343 C341 1.433 1_655 S
C343 N346 1.384 . S
C344 H335 0.929 . S
C344 C336 1.378 . S
C344 C339 1.350 . S
C345 H332 0.929 . S
C345 C337 1.433 1_455 S
C345 N347 1.384 . S
N346 C342 1.427 1_655 S
N346 C343 1.384 . S
N347 C339 1.427 1_455 S
N347 C345 1.384 . S
H348 C354 0.930 . S
H349 C358 0.930 . S
H350 C363 0.929 . S
H351 C361 0.929 . S
H352 C356 0.929 . S
H353 C362 0.929 . S
C354 H348 0.930 . S
C354 C355 1.367 1_565 S
C354 C362 1.378 . S
C355 C354 1.367 1_545 S
C355 C363 1.433 . S
C356 H352 0.929 . S
C356 C358 1.378 . S
C356 C360 1.350 1_545 S
C357 C360 1.463 1_546 S
C357 C362 1.350 1_545 S
C357 N365 1.427 . S
C358 H349 0.930 . S
C358 C356 1.378 . S
C358 C359 1.367 1_545 S
C359 C358 1.367 1_565 S
C359 C361 1.433 . S
C360 C356 1.350 1_565 S
C360 C357 1.463 1_564 S
C360 N364 1.427 . S
C361 H351 0.929 . S
C361 C359 1.433 . S
C361 N364 1.384 . S
C362 H353 0.929 . S
C362 C354 1.378 . S
C362 C357 1.350 1_565 S
C363 H350 0.929 . S
C363 C355 1.433 . S
C363 N365 1.384 . S
N364 C360 1.427 . S
N364 C361 1.384 . S
N365 C357 1.427 . S
N365 C363 1.384 . S
H366 C372 0.930 . S
H367 C376 0.930 . S
H368 C381 0.929 . S
H369 C379 0.929 . S
H370 C374 0.929 . S
H371 C380 0.929 . S
C372 H366 0.930 . S
C372 C373 1.367 . S
C372 C380 1.378 . S
C373 C372 1.367 . S
C373 C381 1.433 . S
C374 H370 0.929 . S
C374 C376 1.378 . S
C374 C378 1.350 . S
C375 C378 1.463 . S
C375 C380 1.350 . S
C375 N383 1.427 . S
C376 H367 0.930 . S
C376 C374 1.378 . S
C376 C377 1.367 . S
C377 C376 1.367 . S
C377 C379 1.433 . S
C378 C374 1.350 . S
C378 C375 1.463 . S
C378 N382 1.427 . S
C379 H369 0.929 . S
C379 C377 1.433 . S
C379 N382 1.384 . S
C380 H371 0.929 . S
C380 C372 1.378 . S
C380 C375 1.350 . S
C381 H368 0.929 . S
C381 C373 1.433 . S
C381 N383 1.384 . S
N382 C378 1.427 . S
N382 C379 1.384 . S
N383 C375 1.427 . S
N383 C381 1.384 . S
H384 C390 0.930 . S
H385 C394 0.930 . S
H386 C399 0.929 . S
H387 C397 0.929 . S
H388 C392 0.929 . S
H389 C398 0.929 . S
C390 H384 0.930 . S
C390 C391 1.367 . S
C390 C398 1.378 . S
C391 C390 1.367 . S
C391 C399 1.433 . S
C392 H388 0.929 . S
C392 C394 1.378 . S
C392 C396 1.350 . S
C393 C396 1.463 . S
C393 C398 1.350 . S
C393 N401 1.427 . S
C394 H385 0.930 . S
C394 C392 1.378 . S
C394 C395 1.367 . S
C395 C394 1.367 . S
C395 C397 1.433 . S
C396 C392 1.350 . S
C396 C393 1.463 . S
C396 N400 1.427 . S
C397 H387 0.929 . S
C397 C395 1.433 . S
C397 N400 1.384 . S
C398 H389 0.929 . S
C398 C390 1.378 . S
C398 C393 1.350 . S
C399 H386 0.929 . S
C399 C391 1.433 . S
C399 N401 1.384 . S
N400 C396 1.427 . S
N400 C397 1.384 . S
N401 C393 1.427 . S
N401 C399 1.384 . S
H402 C408 0.921 1_565 S
H403 C412 0.930 . S
H404 C417 0.929 . S
H405 C415 0.890 1_565 S
H406 C410 0.929 . S
H407 C416 0.910 1_565 S
C408 H402 0.921 1_545 S
C408 C409 1.367 . S
C408 C416 1.378 . S
C409 C408 1.367 . S
C409 C417 1.433 . S
C410 H406 0.929 . S
C410 C412 1.378 . S
C410 C414 1.350 . S
C411 C414 1.463 . S
C411 C416 1.350 . S
C411 N419 1.427 . S
C412 H403 0.930 . S
C412 C410 1.378 . S
C412 C413 1.367 . S
C413 C412 1.367 . S
C413 C415 1.433 . S
C414 C410 1.350 . S
C414 C411 1.463 . S
C414 N418 1.427 . S
C415 H405 0.890 1_545 S
C415 C413 1.433 . S
C415 N418 1.384 . S
C416 H407 0.910 1_545 S
C416 C408 1.378 . S
C416 C411 1.350 . S
C417 H404 0.929 . S
C417 C409 1.433 . S
C417 N419 1.384 . S
N418 C414 1.427 . S
N418 C415 1.384 . S
N419 C411 1.427 . S
N419 C417 1.384 . S
H420 C426 0.930 . S
H421 C430 0.930 . S
H422 C435 0.929 . S
H423 C433 0.929 . S
H424 C428 0.929 . S
H425 C434 0.929 . S
C426 H420 0.930 . S
C426 C427 1.367 . S
C426 C434 1.378 . S
C427 C426 1.367 . S
C427 C435 1.433 . S
C428 H424 0.929 . S
C428 C430 1.378 . S
C428 C432 1.350 . S
C429 C432 1.463 . S
C429 C434 1.350 . S
C429 N437 1.427 . S
C430 H421 0.930 . S
C430 C428 1.378 . S
C430 C431 1.367 . S
C431 C430 1.367 . S
C431 C433 1.433 . S
C432 C428 1.350 . S
C432 C429 1.463 . S
C432 N436 1.427 . S
C433 H423 0.929 . S
C433 C431 1.433 . S
C433 N436 1.384 . S
C434 H425 0.929 . S
C434 C426 1.378 . S
C434 C429 1.350 . S
C435 H422 0.929 . S
C435 C427 1.433 . S
C435 N437 1.384 . S
N436 C432 1.427 . S
N436 C433 1.384 . S
N437 C429 1.427 . S
N437 C435 1.384 . S
H438 C444 0.930 . S
H439 C448 0.930 . S
H440 C453 0.929 . S
H441 C451 0.929 . S
H442 C446 0.929 . S
H443 C452 0.929 . S
C444 H438 0.930 . S
C444 C445 1.367 . S
C444 C452 1.378 . S
C445 C444 1.367 . S
C445 C453 1.433 . S
C446 H442 0.929 . S
C446 C448 1.378 . S
C446 C450 1.350 . S
C447 C450 1.463 . S
C447 C452 1.350 . S
C447 N455 1.427 . S
C448 H439 0.930 . S
C448 C446 1.378 . S
C448 C449 1.367 . S
C449 C448 1.367 . S
C449 C451 1.433 . S
C450 C446 1.350 . S
C450 C447 1.463 . S
C450 N454 1.427 . S
C451 H441 0.929 . S
C451 C449 1.433 . S
C451 N454 1.384 . S
C452 H443 0.929 . S
C452 C444 1.378 . S
C452 C447 1.350 . S
C453 H440 0.929 . S
C453 C445 1.433 . S
C453 N455 1.384 . S
N454 C450 1.427 . S
N454 C451 1.384 . S
N455 C447 1.427 . S
N455 C453 1.384 . S
H456 C462 0.930 . S
H457 C466 0.930 . S
H458 C471 0.929 . S
H459 C469 0.929 . S
H460 C464 0.929 . S
H461 C470 0.929 . S
C462 H456 0.930 . S
C462 C463 1.367 . S
C462 C470 1.378 . S
C463 C462 1.367 . S
C463 C471 1.433 . S
C464 H460 0.929 . S
C464 C466 1.378 . S
C464 C468 1.350 . S
C465 C468 1.463 . S
C465 C470 1.350 . S
C465 N473 1.427 . S
C466 H457 0.930 . S
C466 C464 1.378 . S
C466 C467 1.367 . S
C467 C466 1.367 . S
C467 C469 1.433 . S
C468 C464 1.350 . S
C468 C465 1.463 . S
C468 N472 1.427 . S
C469 H459 0.929 . S
C469 C467 1.433 . S
C469 N472 1.384 . S
C470 H461 0.929 . S
C470 C462 1.378 . S
C470 C465 1.350 . S
C471 H458 0.929 . S
C471 C463 1.433 . S
C471 N473 1.384 . S
N472 C468 1.427 . S
N472 C469 1.384 . S
N473 C465 1.427 . S
N473 C471 1.384 . S
H474 C480 0.930 . S
H475 C484 0.930 . S
H476 C489 0.929 . S
H477 C487 0.929 . S
H478 C482 0.929 . S
H479 C488 0.929 . S
C480 H474 0.930 . S
C480 C481 1.367 . S
C480 C488 1.378 . S
C481 C480 1.367 . S
C481 C489 1.433 . S
C482 H478 0.929 . S
C482 C484 1.378 . S
C482 C486 1.350 . S
C483 C486 1.463 . S
C483 C488 1.350 . S
C483 N491 1.427 . S
C484 H475 0.930 . S
C484 C482 1.378 . S
C484 C485 1.367 . S
C485 C484 1.367 . S
C485 C487 1.433 . S
C486 C482 1.350 . S
C486 C483 1.463 . S
C486 N490 1.427 . S
C487 H477 0.929 . S
C487 C485 1.433 . S
C487 N490 1.384 . S
C488 H479 0.929 . S
C488 C480 1.378 . S
C488 C483 1.350 . S
C489 H476 0.929 . S
C489 C481 1.433 . S
C489 N491 1.384 . S
N490 C486 1.427 . S
N490 C487 1.384 . S
N491 C483 1.427 . S
N491 C489 1.384 . S
H492 C498 0.930 . S
H493 C502 0.930 . S
H494 C507 0.929 . S
H495 C505 0.929 . S
H496 C500 0.929 . S
H497 C506 0.929 . S
C498 H492 0.930 . S
C498 C499 1.367 . S
C498 C506 1.378 . S
C499 C498 1.367 . S
C499 C507 1.433 . S
C500 H496 0.929 . S
C500 C502 1.378 . S
C500 C504 1.350 . S
C501 C504 1.463 . S
C501 C506 1.350 . S
C501 N509 1.427 . S
C502 H493 0.930 . S
C502 C500 1.378 . S
C502 C503 1.367 . S
C503 C502 1.367 . S
C503 C505 1.433 . S
C504 C500 1.350 . S
C504 C501 1.463 . S
C504 N508 1.427 . S
C505 H495 0.929 . S
C505 C503 1.433 . S
C505 N508 1.384 . S
C506 H497 0.929 . S
C506 C498 1.378 . S
C506 C501 1.350 . S
C507 H494 0.929 . S
C507 C499 1.433 . S
C507 N509 1.384 . S
N508 C504 1.427 . S
N508 C505 1.384 . S
N509 C501 1.427 . S
N509 C507 1.384 . S
H510 C516 0.930 . S
H511 C520 0.930 . S
H512 C525 0.929 . S
H513 C523 0.929 . S
H514 C518 0.929 . S
H515 C524 0.929 . S
C516 H510 0.930 . S
C516 C517 1.367 . S
C516 C524 1.378 . S
C517 C516 1.367 . S
C517 C525 1.433 . S
C518 H514 0.929 . S
C518 C520 1.378 . S
C518 C522 1.350 . S
C519 C522 1.463 . S
C519 C524 1.350 . S
C519 N527 1.427 . S
C520 H511 0.930 . S
C520 C518 1.378 . S
C520 C521 1.367 . S
C521 C520 1.367 . S
C521 C523 1.433 . S
C522 C518 1.350 . S
C522 C519 1.463 . S
C522 N526 1.427 . S
C523 H513 0.929 . S
C523 C521 1.433 . S
C523 N526 1.384 . S
C524 H515 0.929 . S
C524 C516 1.378 . S
C524 C519 1.350 . S
C525 H512 0.929 . S
C525 C517 1.433 . S
C525 N527 1.384 . S
N526 C522 1.427 . S
N526 C523 1.384 . S
N527 C519 1.427 . S
N527 C525 1.384 . S
H528 C534 0.930 . S
H529 C538 0.930 . S
H530 C543 0.929 . S
H531 C541 0.929 . S
H532 C536 0.929 . S
H533 C542 0.929 . S
C534 H528 0.930 . S
C534 C535 1.367 . S
C534 C542 1.378 . S
C535 C534 1.367 . S
C535 C543 1.433 . S
C536 H532 0.929 . S
C536 C538 1.378 . S
C536 C540 1.350 . S
C537 C540 1.463 . S
C537 C542 1.350 . S
C537 N545 1.427 . S
C538 H529 0.930 . S
C538 C536 1.378 . S
C538 C539 1.367 . S
C539 C538 1.367 . S
C539 C541 1.433 . S
C540 C536 1.350 . S
C540 C537 1.463 . S
C540 N544 1.427 . S
C541 H531 0.929 . S
C541 C539 1.433 . S
C541 N544 1.384 . S
C542 H533 0.929 . S
C542 C534 1.378 . S
C542 C537 1.350 . S
C543 H530 0.929 . S
C543 C535 1.433 . S
C543 N545 1.384 . S
N544 C540 1.427 . S
N544 C541 1.384 . S
N545 C537 1.427 . S
N545 C543 1.384 . S
H546 C552 0.930 . S
H547 C556 0.930 . S
H548 C561 0.929 . S
H549 C559 0.929 . S
H550 C554 0.929 . S
H551 C560 0.929 . S
C552 H546 0.930 . S
C552 C553 1.367 . S
C552 C560 1.378 . S
C553 C552 1.367 . S
C553 C561 1.433 . S
C554 H550 0.929 . S
C554 C556 1.378 . S
C554 C558 1.350 . S
C555 C558 1.463 . S
C555 C560 1.350 . S
C555 N563 1.427 . S
C556 H547 0.930 . S
C556 C554 1.378 . S
C556 C557 1.367 . S
C557 C556 1.367 . S
C557 C559 1.433 . S
C558 C554 1.350 . S
C558 C555 1.463 . S
C558 N562 1.427 . S
C559 H549 0.929 . S
C559 C557 1.433 . S
C559 N562 1.384 . S
C560 H551 0.929 . S
C560 C552 1.378 . S
C560 C555 1.350 . S
C561 H548 0.929 . S
C561 C553 1.433 . S
C561 N563 1.384 . S
N562 C558 1.427 . S
N562 C559 1.384 . S
N563 C555 1.427 . S
N563 C561 1.384 . S
H564 C570 0.930 . S
H565 C574 0.930 . S
H566 C579 0.929 . S
H567 C577 0.929 . S
H568 C572 0.929 . S
H569 C578 0.929 . S
C570 H564 0.930 . S
C570 C571 1.367 . S
C570 C578 1.378 . S
C571 C570 1.367 . S
C571 C579 1.433 . S
C572 H568 0.929 . S
C572 C574 1.378 . S
C572 C576 1.350 . S
C573 C576 1.463 . S
C573 C578 1.350 . S
C573 N581 1.427 . S
C574 H565 0.930 . S
C574 C572 1.378 . S
C574 C575 1.367 . S
C575 C574 1.367 . S
C575 C577 1.433 . S
C576 C572 1.350 . S
C576 C573 1.463 . S
C576 N580 1.427 . S
C577 H567 0.929 . S
C577 C575 1.433 . S
C577 N580 1.384 . S
C578 H569 0.929 . S
C578 C570 1.378 . S
C578 C573 1.350 . S
C579 H566 0.929 . S
C579 C571 1.433 . S
C579 N581 1.384 . S
N580 C576 1.427 . S
N580 C577 1.384 . S
N581 C573 1.427 . S
N581 C579 1.384 . S
H582 C588 0.930 . S
H583 C592 0.930 . S
H584 C597 0.929 . S
H585 C595 0.929 . S
H586 C590 0.929 . S
H587 C596 0.929 . S
C588 H582 0.930 . S
C588 C589 1.367 . S
C588 C596 1.378 . S
C589 C588 1.367 . S
C589 C597 1.433 . S
C590 H586 0.929 . S
C590 C592 1.378 . S
C590 C594 1.350 . S
C591 C594 1.463 . S
C591 C596 1.350 . S
C591 N599 1.427 . S
C592 H583 0.930 . S
C592 C590 1.378 . S
C592 C593 1.367 . S
C593 C592 1.367 . S
C593 C595 1.433 . S
C594 C590 1.350 . S
C594 C591 1.463 . S
C594 N598 1.427 . S
C595 H585 0.929 . S
C595 C593 1.433 . S
C595 N598 1.384 . S
C596 H587 0.929 . S
C596 C588 1.378 . S
C596 C591 1.350 . S
C597 H584 0.929 . S
C597 C589 1.433 . S
C597 N599 1.384 . S
N598 C594 1.427 . S
N598 C595 1.384 . S
N599 C591 1.427 . S
N599 C597 1.384 . S
C175 C8 1.861 . S
C179 C162 1.862 . S
C193 C92 1.868 . S
C197 C22 1.869 . S
C211 C36 1.863 . S
C215 C106 1.865 . S
C229 C120 1.864 . S
C233 C50 1.866 . S
C247 C134 1.862 . S
C251 C64 1.861 . S
C265 C148 1.870 . S
C269 C78 1.869 . S
C283 C49 0.967 . S
C287 C119 0.971 . S
C301 C63 0.971 . S
C305 C133 0.967 . S
C319 C77 0.976 . S
C323 C147 0.973 . S
C337 C161 0.973 . S
C341 C7 0.976 . S
C355 C21 0.970 . S
C359 C91 0.967 . S
C373 C35 0.976 . S
C377 C105 0.973 . S
C391 C121 1.775 . S
C395 C9 1.777 . S
C409 C135 1.771 . S
C413 C23 1.776 . S
C427 C37 1.772 . S
C431 C149 1.769 . S
C445 C51 1.775 . S
C449 C163 1.777 . S
C463 C65 1.770 . S
C467 C93 1.770 . S
C481 C107 1.769 . S
C485 C79 1.772 . S
C499 C6 1.714 . S
C503 C146 1.706 . S
C517 C160 1.713 . S
C521 C20 1.708 . S
C535 C34 1.705 . S
C539 C90 1.716 . S
C553 C48 1.716 . S
C557 C104 1.705 . S
C571 C62 1.709 . S
C575 C118 1.712 . S
C589 C76 1.715 . S
C593 C132 1.706 . S
