# Generated by pormake.
# Topology bto, (3)-cn, num edge types: 1
# Building blocks:
#     Node 0, Type 0, BuildingBlock: OLANEW_clean_sbu_2, # of connection points: 3
#     Node 1, Type 0, BuildingBlock: OLANEW_clean_sbu_2, # of connection points: 3
#     Node 2, Type 0, BuildingBlock: OLANEW_clean_sbu_2, # of connection points: 3
#     Node 3, Type 0, BuildingBlock: OLANEW_clean_sbu_2, # of connection points: 3
#     Node 4, Type 0, BuildingBlock: OLANEW_clean_sbu_2, # of connection points: 3
#     Node 5, Type 0, BuildingBlock: OLANEW_clean_sbu_2, # of connection points: 3
#     Edge 6, Type (0, 0), BuildingBlock: FUNLAD_clean_linker_0, # of connection points: 2
#     Edge 7, Type (0, 0), BuildingBlock: FUNLAD_clean_linker_0, # of connection points: 2
#     Edge 8, Type (0, 0), BuildingBlock: FUNLAD_clean_linker_0, # of connection points: 2
#     Edge 9, Type (0, 0), BuildingBlock: FUNLAD_clean_linker_0, # of connection points: 2
#     Edge 10, Type (0, 0), BuildingBlock: FUNLAD_clean_linker_0, # of connection points: 2
#     Edge 11, Type (0, 0), BuildingBlock: FUNLAD_clean_linker_0, # of connection points: 2
#     Edge 12, Type (0, 0), BuildingBlock: FUNLAD_clean_linker_0, # of connection points: 2
#     Edge 13, Type (0, 0), BuildingBlock: FUNLAD_clean_linker_0, # of connection points: 2
#     Edge 14, Type (0, 0), BuildingBlock: FUNLAD_clean_linker_0, # of connection points: 2
# Relax obj value: 0.000
# Max RMSD: 0.059
# Mean RMSD: 0.059
data_MOF--net-bto--node1-OLANEW_clean_sbu_2--edge1-FUNLAD_clean_linker_0
_symmetry_space_group_name_H-M    P1
_symmetry_Int_Tables_number       1
_symmetry_cell_setting            triclinic
loop_
_symmetry_equiv_pos_as_xyz
'x, y, z'
_cell_length_a     36.535739
_cell_length_b     36.609242
_cell_length_c     66.536961
_cell_angle_alpha  81.874159
_cell_angle_beta   90.057404
_cell_angle_gamma 120.10519
loop_
_atom_site_label
_atom_site_type_symbol
_atom_site_fract_x
_atom_site_fract_y
_atom_site_fract_z
_atom_type_partial_charge
O0 O 0.11388 0.6758 0.05803 0.0
Cd1 Cd 0.11686 0.66286 0.02326 0.0
O2 O 0.052 0.61687 0.06619 0.0
Cd3 Cd 0.03815 0.60525 0.03508 0.0
O4 O 0.98786 0.59988 0.0158 0.0
C5 C 0.97226 0.6225 0.01977 0.0
O6 O 0.98899 0.64739 0.0336 0.0
C7 C 0.08384 0.64948 0.07132 0.0
C8 C 0.18988 0.65947 0.0152 0.0
O9 O 0.18978 0.69469 0.01106 0.0
O10 O 0.15528 0.62576 0.02295 0.0
O11 O 0.52516 0.20993 0.40297 0.0
Cd12 Cd 0.51483 0.23836 0.36938 0.0
O13 O 0.53812 0.16372 0.39151 0.0
Cd14 Cd 0.51484 0.17151 0.36199 0.0
O15 O 0.45634 0.13179 0.34838 0.0
C16 C 0.42597 0.10606 0.36165 0.0
O17 O 0.43247 0.10797 0.381 0.0
C18 C 0.53581 0.18156 0.40613 0.0
C19 C 0.58678 0.31698 0.35471 0.0
O20 O 0.55602 0.31493 0.36504 0.0
O21 O 0.5832 0.28187 0.35114 0.0
O22 O 0.52401 0.4837 0.72886 0.0
Cd23 Cd 0.51354 0.46433 0.69496 0.0
O24 O 0.47275 0.49774 0.72452 0.0
Cd25 Cd 0.43376 0.5249 0.73129 0.0
O26 O 0.40805 0.56754 0.72708 0.0
C27 C 0.43496 0.60723 0.72244 0.0
O28 O 0.47558 0.61968 0.72151 0.0
C29 C 0.50031 0.49605 0.73567 0.0
C30 C 0.48527 0.37779 0.6968 0.0
O31 O 0.52498 0.40579 0.69463 0.0
O32 O 0.4588 0.39082 0.69802 0.0
O33 O 0.39884 0.97454 0.5825 0.0
Cd34 Cd 0.35834 0.95201 0.61573 0.0
O35 O 0.46001 0.01949 0.59314 0.0
Cd36 Cd 0.43269 0.01192 0.62348 0.0
O37 O 0.41519 0.03432 0.64832 0.0
C38 C 0.38563 0.04287 0.64601 0.0
O39 O 0.36469 0.03435 0.62962 0.0
C40 C 0.43841 0.00125 0.57891 0.0
C41 C 0.36903 0.89117 0.64117 0.0
O42 O 0.34044 0.87984 0.62845 0.0
O43 O 0.39231 0.93114 0.64192 0.0
O44 O 0.54732 0.56754 0.92165 0.0
Cd45 Cd 0.55331 0.5762 0.95743 0.0
O46 O 0.58266 0.63682 0.91046 0.0
Cd47 Cd 0.57175 0.64975 0.94019 0.0
O48 O 0.52512 0.64908 0.96093 0.0
C49 C 0.48752 0.61773 0.96127 0.0
O50 O 0.4805 0.588 0.9503 0.0
C51 C 0.5652 0.59859 0.90694 0.0
C52 C 0.6332 0.59179 0.96804 0.0
O53 O 0.60144 0.55354 0.96999 0.0
O54 O 0.62697 0.62268 0.96142 0.0
O55 O 0.07391 0.72633 0.25593 0.0
Cd56 Cd 0.0523 0.72921 0.29008 0.0
O57 O 0.03014 0.74539 0.24203 0.0
Cd58 Cd 0.99362 0.73058 0.2709 0.0
O59 O 0.93609 0.67689 0.28762 0.0
C60 C 0.91633 0.64689 0.2773 0.0
O61 O 0.9319 0.65174 0.25867 0.0
C62 C 0.05986 0.73728 0.24012 0.0
C63 C 0.11558 0.80357 0.30248 0.0
O64 O 0.11483 0.76799 0.3071 0.0
O65 O 0.08585 0.8038 0.29232 0.0
C66 C 0.11859 0.69405 0.0986 0.0
C67 C 0.0839 0.6583 0.09237 0.0
C68 C 0.11646 0.70455 0.11783 0.0
C69 C 0.07948 0.67946 0.13114 0.0
C70 C 0.04541 0.6432 0.12509 0.0
C71 C 0.04766 0.63252 0.10602 0.0
C72 C 0.0737 0.69166 0.15069 0.0
C73 C 0.10564 0.71532 0.16169 0.0
C74 C 0.09694 0.72563 0.18124 0.0
C75 C 0.11989 0.72408 0.19792 0.0
C76 C 0.10888 0.72929 0.21702 0.0
C77 C 0.0752 0.73693 0.21961 0.0
H78 H 0.04746 0.73825 0.17081 0.0
C79 C 0.05414 0.7412 0.20255 0.0
C80 C 0.06483 0.73554 0.18358 0.0
H81 H 0.02835 0.74749 0.20393 0.0
H82 H 0.14693 0.71462 0.08842 0.0
H83 H 0.14304 0.73319 0.12184 0.0
H84 H 0.01654 0.62341 0.13504 0.0
H85 H 0.02032 0.60478 0.10175 0.0
H86 H 0.04118 0.6791 0.15669 0.0
H87 H 0.13807 0.72454 0.15715 0.0
H88 H 0.14511 0.717 0.19639 0.0
H89 H 0.12598 0.7262 0.22984 0.0
C90 C 0.50019 0.04908 0.55325 0.0
C91 C 0.45851 0.01428 0.55785 0.0
C92 C 0.51717 0.06545 0.53305 0.0
C93 C 0.4928 0.04728 0.51703 0.0
C94 C 0.45237 0.01071 0.52167 0.0
C95 C 0.43522 0.99452 0.54187 0.0
C96 C 0.5075 0.06694 0.49538 0.0
C97 C 0.53154 0.10961 0.48945 0.0
C98 C 0.53838 0.13004 0.46784 0.0
C99 C 0.54082 0.16986 0.46331 0.0
C100 C 0.54181 0.18762 0.44316 0.0
C101 C 0.54112 0.16619 0.42711 0.0
H102 H 0.5398 0.07972 0.4547 0.0
C103 C 0.54173 0.12778 0.43157 0.0
C104 C 0.54027 0.10981 0.45174 0.0
H105 H 0.54158 0.11063 0.41954 0.0
H106 H 0.51923 0.06477 0.5652 0.0
H107 H 0.54902 0.0928 0.53002 0.0
H108 H 0.43316 0.99581 0.5096 0.0
H109 H 0.4032 0.96742 0.54489 0.0
H110 H 0.49354 0.0463 0.48399 0.0
H111 H 0.54179 0.13057 0.50085 0.0
H112 H 0.53991 0.18634 0.47545 0.0
H113 H 0.54176 0.21746 0.44023 0.0
C114 C 0.53787 0.54859 0.88147 0.0
C115 C 0.56399 0.59017 0.88578 0.0
C116 C 0.53482 0.54085 0.86141 0.0
C117 C 0.55794 0.57455 0.84521 0.0
C118 C 0.5851 0.61581 0.84955 0.0
C119 C 0.58783 0.62367 0.86961 0.0
C120 C 0.55498 0.56732 0.82375 0.0
C121 C 0.51905 0.53749 0.81704 0.0
C122 C 0.51552 0.52931 0.79572 0.0
C123 C 0.47546 0.51137 0.78795 0.0
C124 C 0.47056 0.50141 0.76825 0.0
C125 C 0.50563 0.50883 0.75601 0.0
H126 H 0.58179 0.54925 0.7891 0.0
C127 C 0.54568 0.52641 0.76381 0.0
C128 C 0.55066 0.53671 0.78344 0.0
H129 H 0.57316 0.53198 0.75476 0.0
H130 H 0.51928 0.52201 0.89357 0.0
H131 H 0.51462 0.50837 0.85867 0.0
H132 H 0.60364 0.64219 0.83734 0.0
H133 H 0.60847 0.65602 0.87243 0.0
H134 H 0.58243 0.58865 0.81307 0.0
H135 H 0.49046 0.5193 0.82737 0.0
H136 H 0.44776 0.50471 0.79722 0.0
H137 H 0.43908 0.48649 0.76292 0.0
C138 C 0.22966 0.61992 0.01743 0.0
C139 C 0.2288 0.65778 0.0112 0.0
C140 C 0.26631 0.6182 0.01353 0.0
C141 C 0.30286 0.65427 0.00305 0.0
C142 C 0.30217 0.69231 0.99723 0.0
C143 C 0.26558 0.69407 0.00122 0.0
C144 C 0.34218 0.6537 0.99783 0.0
C145 C 0.34289 0.6176 0.99662 0.0
C146 C 0.38115 0.61744 0.98914 0.0
C147 C 0.37541 0.58228 0.98051 0.0
C148 C 0.4101 0.5819 0.972 0.0
C149 C 0.45148 0.61659 0.97208 0.0
H150 H 0.42869 0.67834 0.99727 0.0
C151 C 0.45754 0.65093 0.98159 0.0
C152 C 0.42275 0.65136 0.99009 0.0
H153 H 0.48909 0.67793 0.98212 0.0
H154 H 0.20202 0.59156 0.02542 0.0
H155 H 0.26576 0.58866 0.01895 0.0
H156 H 0.32988 0.7207 0.9893 0.0
H157 H 0.26608 0.72383 0.99632 0.0
H158 H 0.37081 0.6845 0.99328 0.0
H159 H 0.31357 0.58696 -0.00056 0.0
H160 H 0.34382 0.55547 0.9798 0.0
H161 H 0.40429 0.55473 0.96496 0.0
C162 C 0.65969 0.36013 0.33679 0.0
C163 C 0.62549 0.35858 0.3473 0.0
C164 C 0.69642 0.39928 0.3299 0.0
C165 C 0.69962 0.43792 0.33318 0.0
C166 C 0.66569 0.43628 0.34397 0.0
C167 C 0.62894 0.39708 0.35089 0.0
C168 C 0.73811 0.48024 0.32596 0.0
C169 C 0.76446 0.48723 0.30987 0.0
C170 C 0.80277 0.52923 0.30203 0.0
C171 C 0.81976 0.53598 0.28205 0.0
C172 C 0.85631 0.57429 0.27406 0.0
C173 C 0.87706 0.60682 0.28591 0.0
H174 H 0.81223 0.55748 0.32963 0.0
C175 C 0.86026 0.60023 0.30596 0.0
C176 C 0.82353 0.56176 0.31398 0.0
H177 H 0.87571 0.62457 0.31553 0.0
H178 H 0.65829 0.33102 0.334 0.0
H179 H 0.72239 0.3989 0.32233 0.0
H180 H 0.66744 0.46547 0.34689 0.0
H181 H 0.60325 0.39698 0.35905 0.0
H182 H 0.74336 0.50671 0.3335 0.0
H183 H 0.75672 0.46149 0.30128 0.0
H184 H 0.80467 0.51146 0.27253 0.0
H185 H 0.86839 0.57821 0.25857 0.0
C186 C 0.35283 0.81588 0.65216 0.0
C187 C 0.37578 0.85926 0.65428 0.0
C188 C 0.36095 0.78616 0.66378 0.0
C189 C 0.39198 0.79921 0.67796 0.0
C190 C 0.41437 0.84249 0.68026 0.0
C191 C 0.40634 0.87218 0.6686 0.0
C192 C 0.40433 0.76966 0.68944 0.0
C193 C 0.3802 0.72665 0.69211 0.0
C194 C 0.39503 0.69752 0.70153 0.0
C195 C 0.36488 0.65451 0.70881 0.0
C196 C 0.37769 0.62532 0.7162 0.0
C197 C 0.42104 0.63853 0.71635 0.0
H198 H 0.46288 0.74323 0.69601 0.0
C199 C 0.45122 0.68171 0.70946 0.0
C200 C 0.43844 0.71083 0.70203 0.0
H201 H 0.48488 0.69291 0.70922 0.0
H202 H 0.32925 0.80496 0.64116 0.0
H203 H 0.34375 0.75347 0.66103 0.0
H204 H 0.43865 0.85356 0.69093 0.0
H205 H 0.42458 0.90538 0.67062 0.0
H206 H 0.43472 0.78436 0.69598 0.0
H207 H 0.34818 0.71179 0.68729 0.0
H208 H 0.33125 0.64326 0.70847 0.0
H209 H 0.35361 0.59223 0.72138 0.0
C210 C 0.91636 0.64266 0.01586 0.0
C211 C 0.9338 0.61847 0.01049 0.0
C212 C 0.87834 0.6369 0.0085 0.0
C213 C 0.85694 0.60701 0.99538 0.0
C214 C 0.87469 0.58322 0.9898 0.0
C215 C 0.91281 0.58898 0.99719 0.0
C216 C 0.8149 0.5979 0.98838 0.0
C217 C 0.80081 0.62573 0.98776 0.0
C218 C 0.75771 0.61584 0.9822 0.0
C219 C 0.75075 0.64988 0.97567 0.0
C220 C 0.71039 0.64211 0.97105 0.0
C221 C 0.67591 0.60002 0.97304 0.0
H222 H 0.72672 0.54652 0.98994 0.0
C223 C 0.68271 0.56588 0.97973 0.0
C224 C 0.72312 0.57365 0.98432 0.0
H225 H 0.65676 0.53307 0.98154 0.0
H226 H 0.93151 0.66544 0.0262 0.0
H227 H 0.86529 0.65497 0.01376 0.0
H228 H 0.85876 0.55973 0.97985 0.0
H229 H 0.92532 0.56971 0.99282 0.0
H230 H 0.79536 0.56741 0.98328 0.0
H231 H 0.82194 0.65774 0.99098 0.0
H232 H 0.77667 0.68269 0.97412 0.0
H233 H 0.70624 0.66915 0.96597 0.0
C234 C 0.37817 0.0682 0.33522 0.0
C235 C 0.38543 0.07186 0.35578 0.0
C236 C 0.34115 0.03361 0.32996 0.0
C237 C 0.31072 0.00205 0.34522 0.0
C238 C 0.31771 0.00629 0.3657 0.0
C239 C 0.35445 0.04089 0.37094 0.0
C240 C 0.27305 0.9627 0.34053 0.0
C241 C 0.25501 0.96009 0.32275 0.0
C242 C 0.21861 0.91954 0.31827 0.0
C243 C 0.18918 0.92107 0.30514 0.0
C244 C 0.15517 0.88336 0.30031 0.0
C245 C 0.1504 0.84339 0.30826 0.0
H246 H 0.2366 0.87715 0.33592 0.0
C247 C 0.18008 0.84189 0.32128 0.0
C248 C 0.21381 0.87952 0.32624 0.0
H249 H 0.17749 0.81164 0.32753 0.0
H250 H 0.40152 0.09144 0.32319 0.0
H251 H 0.33738 0.03094 0.31401 0.0
H252 H 0.29491 0.98237 0.37775 0.0
H253 H 0.35899 0.04267 0.38693 0.0
H254 H 0.25902 0.93497 0.35254 0.0
H255 H 0.26604 0.98863 0.3114 0.0
H256 H 0.19241 0.95151 0.29864 0.0
H257 H 0.133 0.88561 0.29011 0.0
C258 C 0.4051 0.08091 0.67617 0.0
C259 C 0.38077 0.06949 0.65935 0.0
C260 C 0.40693 0.11258 0.68635 0.0
C261 C 0.3848 0.13375 0.67973 0.0
C262 C 0.3574 0.11945 0.66419 0.0
C263 C 0.35544 0.08767 0.65406 0.0
C264 C 0.39233 0.17311 0.68725 0.0
C265 C 0.43008 0.20073 0.69353 0.0
C266 C 0.44271 0.24509 0.69617 0.0
C267 C 0.48621 0.27555 0.69484 0.0
C268 C 0.49998 0.31846 0.69538 0.0
C269 C 0.47051 0.33191 0.69741 0.0
H270 H 0.37936 0.2356 0.70085 0.0
C271 C 0.42695 0.30124 0.69961 0.0
C272 C 0.41313 0.2582 0.69908 0.0
H273 H 0.40345 0.31053 0.7015 0.0
H274 H 0.42426 0.06679 0.68092 0.0
H275 H 0.42686 0.12133 0.69891 0.0
H276 H 0.33942 0.13469 0.65902 0.0
H277 H 0.3359 0.07919 0.64133 0.0
H278 H 0.36849 0.18227 0.68468 0.0
H279 H 0.45495 0.1927 0.69439 0.0
H280 H 0.50974 0.26637 0.69276 0.0
H281 H 0.53378 0.3412 0.69383 0.0
loop_
_geom_bond_atom_site_label_1
_geom_bond_atom_site_label_2
_geom_bond_distance
_geom_bond_site_symmetry_2
_ccdc_geom_bond_type
O0 Cd1 2.300 . S
O0 C7 1.275 . S
Cd1 O0 2.300 . S
Cd1 O9 2.381 . S
Cd1 O10 2.378 . S
O2 Cd3 2.385 1_455 S
O2 C7 1.255 . S
Cd3 O2 2.385 1_655 S
Cd3 O4 2.317 1_655 S
O4 Cd3 2.317 1_455 S
O4 C5 1.232 1_455 S
C5 O4 1.232 1_655 S
C5 O6 1.218 . S
O6 C5 1.218 . S
C7 O0 1.275 . S
C7 O2 1.255 . S
C8 O9 1.258 . S
C8 O10 1.256 . S
O9 Cd1 2.381 . S
O9 C8 1.258 . S
O10 Cd1 2.378 . S
O10 C8 1.256 . S
O11 Cd12 2.300 . S
O11 C18 1.275 . S
Cd12 O11 2.300 . S
Cd12 O20 2.381 . S
Cd12 O21 2.378 . S
O13 Cd14 2.385 . S
O13 C18 1.255 . S
Cd14 O13 2.385 . S
Cd14 O15 2.317 . S
O15 Cd14 2.317 . S
O15 C16 1.232 . S
C16 O15 1.232 . S
C16 O17 1.218 . S
O17 C16 1.218 . S
C18 O11 1.275 . S
C18 O13 1.255 . S
C19 O20 1.258 . S
C19 O21 1.256 . S
O20 Cd12 2.381 . S
O20 C19 1.258 . S
O21 Cd12 2.378 . S
O21 C19 1.256 . S
O22 Cd23 2.300 . S
O22 C29 1.275 . S
Cd23 O22 2.300 . S
Cd23 O31 2.381 . S
Cd23 O32 2.378 . S
O24 Cd25 2.385 . S
O24 C29 1.255 . S
Cd25 O24 2.385 . S
Cd25 O26 2.317 . S
O26 Cd25 2.317 . S
O26 C27 1.232 . S
C27 O26 1.232 . S
C27 O28 1.218 . S
O28 C27 1.218 . S
C29 O22 1.275 . S
C29 O24 1.255 . S
C30 O31 1.258 . S
C30 O32 1.256 . S
O31 Cd23 2.381 . S
O31 C30 1.258 . S
O32 Cd23 2.378 . S
O32 C30 1.256 . S
O33 Cd34 2.300 . S
O33 C40 1.275 1_565 S
Cd34 O33 2.300 . S
Cd34 O42 2.381 . S
Cd34 O43 2.378 . S
O35 Cd36 2.385 . S
O35 C40 1.255 . S
Cd36 O35 2.385 . S
Cd36 O37 2.317 . S
O37 Cd36 2.317 . S
O37 C38 1.232 . S
C38 O37 1.232 . S
C38 O39 1.218 . S
O39 C38 1.218 . S
C40 O33 1.275 1_545 S
C40 O35 1.255 . S
C41 O42 1.258 . S
C41 O43 1.256 . S
O42 Cd34 2.381 . S
O42 C41 1.258 . S
O43 Cd34 2.378 . S
O43 C41 1.256 . S
O44 Cd45 2.300 . S
O44 C51 1.275 . S
Cd45 O44 2.300 . S
Cd45 O53 2.381 . S
Cd45 O54 2.378 . S
O46 Cd47 2.385 . S
O46 C51 1.255 . S
Cd47 O46 2.385 . S
Cd47 O48 2.317 . S
O48 Cd47 2.317 . S
O48 C49 1.232 . S
C49 O48 1.232 . S
C49 O50 1.218 . S
O50 C49 1.218 . S
C51 O44 1.275 . S
C51 O46 1.255 . S
C52 O53 1.258 . S
C52 O54 1.256 . S
O53 Cd45 2.381 . S
O53 C52 1.258 . S
O54 Cd45 2.378 . S
O54 C52 1.256 . S
O55 Cd56 2.300 . S
O55 C62 1.275 . S
Cd56 O55 2.300 . S
Cd56 O64 2.381 . S
Cd56 O65 2.378 . S
O57 Cd58 2.385 1_455 S
O57 C62 1.255 . S
Cd58 O57 2.385 1_655 S
Cd58 O59 2.317 . S
O59 Cd58 2.317 . S
O59 C60 1.232 . S
C60 O59 1.232 . S
C60 O61 1.218 . S
O61 C60 1.218 . S
C62 O55 1.275 . S
C62 O57 1.255 . S
C63 O64 1.258 . S
C63 O65 1.256 . S
O64 Cd56 2.381 . S
O64 C63 1.258 . S
O65 Cd56 2.378 . S
O65 C63 1.256 . S
C66 C67 1.386 . S
C66 C68 1.383 . S
C66 H82 0.951 . S
C67 C66 1.386 . S
C67 C71 1.383 . S
C68 C66 1.383 . S
C68 C69 1.402 . S
C68 H83 0.951 . S
C69 C68 1.402 . S
C69 C70 1.375 . S
C69 C72 1.481 . S
C70 C69 1.375 . S
C70 C71 1.367 . S
C70 H84 0.951 . S
C71 C67 1.383 . S
C71 C70 1.367 . S
C71 H85 0.950 . S
C72 C69 1.481 . S
C72 C73 1.297 . S
C72 H86 0.950 . S
C73 C72 1.297 . S
C73 C74 1.479 . S
C73 H87 0.950 . S
C74 C73 1.479 . S
C74 C75 1.375 . S
C74 C80 1.404 . S
C75 C74 1.375 . S
C75 C76 1.369 . S
C75 H88 0.950 . S
C76 C75 1.369 . S
C76 C77 1.392 . S
C76 H89 0.951 . S
C77 C76 1.392 . S
C77 C79 1.384 . S
H78 C80 0.949 . S
C79 C77 1.384 . S
C79 C80 1.385 . S
C79 H81 0.950 . S
C80 C74 1.404 . S
C80 H78 0.949 . S
C80 C79 1.385 . S
H81 C79 0.950 . S
H82 C66 0.951 . S
H83 C68 0.951 . S
H84 C70 0.951 . S
H85 C71 0.950 . S
H86 C72 0.950 . S
H87 C73 0.950 . S
H88 C75 0.950 . S
H89 C76 0.951 . S
C90 C91 1.386 . S
C90 C92 1.383 . S
C90 H106 0.951 . S
C91 C90 1.386 . S
C91 C95 1.383 . S
C92 C90 1.383 . S
C92 C93 1.402 . S
C92 H107 0.951 . S
C93 C92 1.402 . S
C93 C94 1.375 . S
C93 C96 1.481 . S
C94 C93 1.375 . S
C94 C95 1.367 . S
C94 H108 0.951 . S
C95 C91 1.383 . S
C95 C94 1.367 . S
C95 H109 0.950 1_545 S
C96 C93 1.481 . S
C96 C97 1.297 . S
C96 H110 0.950 . S
C97 C96 1.297 . S
C97 C98 1.479 . S
C97 H111 0.950 . S
C98 C97 1.479 . S
C98 C99 1.375 . S
C98 C104 1.404 . S
C99 C98 1.375 . S
C99 C100 1.369 . S
C99 H112 0.950 . S
C100 C99 1.369 . S
C100 C101 1.392 . S
C100 H113 0.951 . S
C101 C100 1.392 . S
C101 C103 1.384 . S
H102 C104 0.949 . S
C103 C101 1.384 . S
C103 C104 1.385 . S
C103 H105 0.950 . S
C104 C98 1.404 . S
C104 H102 0.949 . S
C104 C103 1.385 . S
H105 C103 0.950 . S
H106 C90 0.951 . S
H107 C92 0.951 . S
H108 C94 0.951 . S
H109 C95 0.950 1_565 S
H110 C96 0.950 . S
H111 C97 0.950 . S
H112 C99 0.950 . S
H113 C100 0.951 . S
C114 C115 1.386 . S
C114 C116 1.383 . S
C114 H130 0.951 . S
C115 C114 1.386 . S
C115 C119 1.383 . S
C116 C114 1.383 . S
C116 C117 1.402 . S
C116 H131 0.951 . S
C117 C116 1.402 . S
C117 C118 1.375 . S
C117 C120 1.481 . S
C118 C117 1.375 . S
C118 C119 1.367 . S
C118 H132 0.951 . S
C119 C115 1.383 . S
C119 C118 1.367 . S
C119 H133 0.950 . S
C120 C117 1.481 . S
C120 C121 1.297 . S
C120 H134 0.950 . S
C121 C120 1.297 . S
C121 C122 1.479 . S
C121 H135 0.950 . S
C122 C121 1.479 . S
C122 C123 1.375 . S
C122 C128 1.404 . S
C123 C122 1.375 . S
C123 C124 1.369 . S
C123 H136 0.950 . S
C124 C123 1.369 . S
C124 C125 1.392 . S
C124 H137 0.951 . S
C125 C124 1.392 . S
C125 C127 1.384 . S
H126 C128 0.949 . S
C127 C125 1.384 . S
C127 C128 1.385 . S
C127 H129 0.950 . S
C128 C122 1.404 . S
C128 H126 0.949 . S
C128 C127 1.385 . S
H129 C127 0.950 . S
H130 C114 0.951 . S
H131 C116 0.951 . S
H132 C118 0.951 . S
H133 C119 0.950 . S
H134 C120 0.950 . S
H135 C121 0.950 . S
H136 C123 0.950 . S
H137 C124 0.951 . S
C138 C139 1.386 . S
C138 C140 1.383 1_554 S
C138 H154 0.951 1_554 S
C139 C138 1.386 . S
C139 C143 1.383 . S
C140 C138 1.383 1_556 S
C140 C141 1.402 1_556 S
C140 H155 0.951 . S
C141 C140 1.402 1_554 S
C141 C142 1.375 . S
C141 C144 1.481 . S
C142 C141 1.375 . S
C142 C143 1.367 . S
C142 H156 0.951 . S
C143 C139 1.383 . S
C143 C142 1.367 . S
C143 H157 0.950 . S
C144 C141 1.481 . S
C144 C145 1.297 1_554 S
C144 H158 0.950 . S
C145 C144 1.297 1_556 S
C145 C146 1.479 . S
C145 H159 0.950 . S
C146 C145 1.479 . S
C146 C147 1.375 . S
C146 C152 1.404 . S
C147 C146 1.375 . S
C147 C148 1.369 . S
C147 H160 0.950 . S
C148 C147 1.369 . S
C148 C149 1.392 . S
C148 H161 0.951 . S
C149 C148 1.392 . S
C149 C151 1.384 . S
H150 C152 0.949 1_554 S
C151 C149 1.384 . S
C151 C152 1.385 . S
C151 H153 0.950 . S
C152 C146 1.404 . S
C152 H150 0.949 1_556 S
C152 C151 1.385 . S
H153 C151 0.950 . S
H154 C138 0.951 1_556 S
H155 C140 0.951 . S
H156 C142 0.951 . S
H157 C143 0.950 . S
H158 C144 0.950 . S
H159 C145 0.950 . S
H160 C147 0.950 . S
H161 C148 0.951 . S
C162 C163 1.386 . S
C162 C164 1.383 . S
C162 H178 0.951 . S
C163 C162 1.386 . S
C163 C167 1.383 . S
C164 C162 1.383 . S
C164 C165 1.402 . S
C164 H179 0.951 . S
C165 C164 1.402 . S
C165 C166 1.375 . S
C165 C168 1.481 . S
C166 C165 1.375 . S
C166 C167 1.367 . S
C166 H180 0.951 . S
C167 C163 1.383 . S
C167 C166 1.367 . S
C167 H181 0.950 . S
C168 C165 1.481 . S
C168 C169 1.297 . S
C168 H182 0.950 . S
C169 C168 1.297 . S
C169 C170 1.479 . S
C169 H183 0.950 . S
C170 C169 1.479 . S
C170 C171 1.375 . S
C170 C176 1.404 . S
C171 C170 1.375 . S
C171 C172 1.369 . S
C171 H184 0.950 . S
C172 C171 1.369 . S
C172 C173 1.392 . S
C172 H185 0.951 . S
C173 C172 1.392 . S
C173 C175 1.384 . S
H174 C176 0.949 . S
C175 C173 1.384 . S
C175 C176 1.385 . S
C175 H177 0.950 . S
C176 C170 1.404 . S
C176 H174 0.949 . S
C176 C175 1.385 . S
H177 C175 0.950 . S
H178 C162 0.951 . S
H179 C164 0.951 . S
H180 C166 0.951 . S
H181 C167 0.950 . S
H182 C168 0.950 . S
H183 C169 0.950 . S
H184 C171 0.950 . S
H185 C172 0.951 . S
C186 C187 1.386 . S
C186 C188 1.383 . S
C186 H202 0.951 . S
C187 C186 1.386 . S
C187 C191 1.383 . S
C188 C186 1.383 . S
C188 C189 1.402 . S
C188 H203 0.951 . S
C189 C188 1.402 . S
C189 C190 1.375 . S
C189 C192 1.481 . S
C190 C189 1.375 . S
C190 C191 1.367 . S
C190 H204 0.951 . S
C191 C187 1.383 . S
C191 C190 1.367 . S
C191 H205 0.950 . S
C192 C189 1.481 . S
C192 C193 1.297 . S
C192 H206 0.950 . S
C193 C192 1.297 . S
C193 C194 1.479 . S
C193 H207 0.950 . S
C194 C193 1.479 . S
C194 C195 1.375 . S
C194 C200 1.404 . S
C195 C194 1.375 . S
C195 C196 1.369 . S
C195 H208 0.950 . S
C196 C195 1.369 . S
C196 C197 1.392 . S
C196 H209 0.951 . S
C197 C196 1.392 . S
C197 C199 1.384 . S
H198 C200 0.949 . S
C199 C197 1.384 . S
C199 C200 1.385 . S
C199 H201 0.950 . S
C200 C194 1.404 . S
C200 H198 0.949 . S
C200 C199 1.385 . S
H201 C199 0.950 . S
H202 C186 0.951 . S
H203 C188 0.951 . S
H204 C190 0.951 . S
H205 C191 0.950 . S
H206 C192 0.950 . S
H207 C193 0.950 . S
H208 C195 0.950 . S
H209 C196 0.951 . S
C210 C211 1.386 . S
C210 C212 1.383 . S
C210 H226 0.951 . S
C211 C210 1.386 . S
C211 C215 1.383 . S
C212 C210 1.383 . S
C212 C213 1.402 . S
C212 H227 0.951 . S
C213 C212 1.402 . S
C213 C214 1.375 1_554 S
C213 C216 1.481 1_554 S
C214 C213 1.375 1_556 S
C214 C215 1.367 1_556 S
C214 H228 0.951 . S
C215 C211 1.383 . S
C215 C214 1.367 1_554 S
C215 H229 0.972 . S
C216 C213 1.481 1_556 S
C216 C217 1.297 . S
C216 H230 0.950 . S
C217 C216 1.297 . S
C217 C218 1.479 . S
C217 H231 0.950 1_556 S
C218 C217 1.479 . S
C218 C219 1.375 . S
C218 C224 1.404 . S
C219 C218 1.375 . S
C219 C220 1.369 . S
C219 H232 0.950 1_556 S
C220 C219 1.369 . S
C220 C221 1.392 . S
C220 H233 0.934 1_556 S
C221 C220 1.392 . S
C221 C223 1.384 . S
H222 C224 0.949 . S
C223 C221 1.384 . S
C223 C224 1.385 . S
C223 H225 0.950 . S
C224 C218 1.404 . S
C224 H222 0.949 . S
C224 C223 1.385 . S
H225 C223 0.950 . S
H226 C210 0.951 . S
H227 C212 0.951 . S
H228 C214 0.951 . S
H229 C215 0.972 . S
H230 C216 0.950 . S
H231 C217 0.950 1_554 S
H232 C219 0.950 1_554 S
H233 C220 0.934 1_554 S
C234 C235 1.386 . S
C234 C236 1.383 . S
C234 H250 0.951 . S
C235 C234 1.386 . S
C235 C239 1.383 . S
C236 C234 1.383 . S
C236 C237 1.402 . S
C236 H251 0.951 . S
C237 C236 1.402 . S
C237 C238 1.375 . S
C237 C240 1.481 1_545 S
C238 C237 1.375 . S
C238 C239 1.367 . S
C238 H252 0.945 1_545 S
C239 C235 1.383 . S
C239 C238 1.367 . S
C239 H253 0.950 . S
C240 C237 1.481 1_565 S
C240 C241 1.297 . S
C240 H254 0.950 . S
C241 C240 1.297 . S
C241 C242 1.479 . S
C241 H255 0.950 . S
C242 C241 1.479 . S
C242 C243 1.375 . S
C242 C248 1.404 . S
C243 C242 1.375 . S
C243 C244 1.369 . S
C243 H256 0.950 . S
C244 C243 1.369 . S
C244 C245 1.392 . S
C244 H257 0.951 . S
C245 C244 1.392 . S
C245 C247 1.384 . S
H246 C248 0.949 . S
C247 C245 1.384 . S
C247 C248 1.385 . S
C247 H249 0.950 . S
C248 C242 1.404 . S
C248 H246 0.949 . S
C248 C247 1.385 . S
H249 C247 0.950 . S
H250 C234 0.951 . S
H251 C236 0.951 . S
H252 C238 0.945 1_565 S
H253 C239 0.950 . S
H254 C240 0.950 . S
H255 C241 0.950 . S
H256 C243 0.950 . S
H257 C244 0.951 . S
C258 C259 1.386 . S
C258 C260 1.383 . S
C258 H274 0.951 . S
C259 C258 1.386 . S
C259 C263 1.383 . S
C260 C258 1.383 . S
C260 C261 1.402 . S
C260 H275 0.951 . S
C261 C260 1.402 . S
C261 C262 1.375 . S
C261 C264 1.481 . S
C262 C261 1.375 . S
C262 C263 1.367 . S
C262 H276 0.951 . S
C263 C259 1.383 . S
C263 C262 1.367 . S
C263 H277 0.950 . S
C264 C261 1.481 . S
C264 C265 1.297 . S
C264 H278 0.950 . S
C265 C264 1.297 . S
C265 C266 1.479 . S
C265 H279 0.950 . S
C266 C265 1.479 . S
C266 C267 1.375 . S
C266 C272 1.404 . S
C267 C266 1.375 . S
C267 C268 1.369 . S
C267 H280 0.950 . S
C268 C267 1.369 . S
C268 C269 1.392 . S
C268 H281 0.951 . S
C269 C268 1.392 . S
C269 C271 1.384 . S
H270 C272 0.949 . S
C271 C269 1.384 . S
C271 C272 1.385 . S
C271 H273 0.950 . S
C272 C266 1.404 . S
C272 H270 0.949 . S
C272 C271 1.385 . S
H273 C271 0.950 . S
H274 C258 0.951 . S
H275 C260 0.951 . S
H276 C262 0.951 . S
H277 C263 0.950 . S
H278 C264 0.950 . S
H279 C265 0.950 . S
H280 C267 0.950 . S
H281 C268 0.951 . S
C67 C7 1.494 . S
C77 C62 1.434 . S
C91 C40 1.462 . S
C101 C18 1.421 . S
C115 C51 1.452 . S
C125 C29 1.490 . S
C139 C8 1.494 . S
C149 C49 1.209 . S
C163 C19 1.503 . S
C173 C60 1.266 . S
C187 C41 1.492 . S
C197 C27 1.322 . S
C211 C5 1.341 . S
C221 C52 1.464 . S
C235 C16 1.243 . S
C245 C63 1.511 . S
C259 C38 1.307 . S
C269 C30 1.517 . S
