# Generated by pormake.
# Topology bcs, (6)-cn, num edge types: 1
# Building blocks:
#     Node 0, Type 0, BuildingBlock: VOLQOD_clean_sbu_1, # of connection points: 6
#     Node 1, Type 0, BuildingBlock: VOLQOD_clean_sbu_1, # of connection points: 6
#     Node 2, Type 0, BuildingBlock: VOLQOD_clean_sbu_1, # of connection points: 6
#     Node 3, Type 0, BuildingBlock: VOLQOD_clean_sbu_1, # of connection points: 6
#     Node 4, Type 0, BuildingBlock: VOLQOD_clean_sbu_1, # of connection points: 6
#     Node 5, Type 0, BuildingBlock: VOLQOD_clean_sbu_1, # of connection points: 6
#     Node 6, Type 0, BuildingBlock: VOLQOD_clean_sbu_1, # of connection points: 6
#     Node 7, Type 0, BuildingBlock: VOLQOD_clean_sbu_1, # of connection points: 6
#     Node 8, Type 0, BuildingBlock: VOLQOD_clean_sbu_1, # of connection points: 6
#     Node 9, Type 0, BuildingBlock: VOLQOD_clean_sbu_1, # of connection points: 6
#     Node 10, Type 0, BuildingBlock: VOLQOD_clean_sbu_1, # of connection points: 6
#     Node 11, Type 0, BuildingBlock: VOLQOD_clean_sbu_1, # of connection points: 6
#     Node 12, Type 0, BuildingBlock: VOLQOD_clean_sbu_1, # of connection points: 6
#     Node 13, Type 0, BuildingBlock: VOLQOD_clean_sbu_1, # of connection points: 6
#     Node 14, Type 0, BuildingBlock: VOLQOD_clean_sbu_1, # of connection points: 6
#     Node 15, Type 0, BuildingBlock: VOLQOD_clean_sbu_1, # of connection points: 6
#     Edge 16, Type (0, 0), BuildingBlock: UVAHIK_clean_linker_0, # of connection points: 2
#     Edge 17, Type (0, 0), BuildingBlock: UVAHIK_clean_linker_0, # of connection points: 2
#     Edge 18, Type (0, 0), BuildingBlock: UVAHIK_clean_linker_0, # of connection points: 2
#     Edge 19, Type (0, 0), BuildingBlock: UVAHIK_clean_linker_0, # of connection points: 2
#     Edge 20, Type (0, 0), BuildingBlock: UVAHIK_clean_linker_0, # of connection points: 2
#     Edge 21, Type (0, 0), BuildingBlock: UVAHIK_clean_linker_0, # of connection points: 2
#     Edge 22, Type (0, 0), BuildingBlock: UVAHIK_clean_linker_0, # of connection points: 2
#     Edge 23, Type (0, 0), BuildingBlock: UVAHIK_clean_linker_0, # of connection points: 2
#     Edge 24, Type (0, 0), BuildingBlock: UVAHIK_clean_linker_0, # of connection points: 2
#     Edge 25, Type (0, 0), BuildingBlock: UVAHIK_clean_linker_0, # of connection points: 2
#     Edge 26, Type (0, 0), BuildingBlock: UVAHIK_clean_linker_0, # of connection points: 2
#     Edge 27, Type (0, 0), BuildingBlock: UVAHIK_clean_linker_0, # of connection points: 2
#     Edge 28, Type (0, 0), BuildingBlock: UVAHIK_clean_linker_0, # of connection points: 2
#     Edge 29, Type (0, 0), BuildingBlock: UVAHIK_clean_linker_0, # of connection points: 2
#     Edge 30, Type (0, 0), BuildingBlock: UVAHIK_clean_linker_0, # of connection points: 2
#     Edge 31, Type (0, 0), BuildingBlock: UVAHIK_clean_linker_0, # of connection points: 2
#     Edge 32, Type (0, 0), BuildingBlock: UVAHIK_clean_linker_0, # of connection points: 2
#     Edge 33, Type (0, 0), BuildingBlock: UVAHIK_clean_linker_0, # of connection points: 2
#     Edge 34, Type (0, 0), BuildingBlock: UVAHIK_clean_linker_0, # of connection points: 2
#     Edge 35, Type (0, 0), BuildingBlock: UVAHIK_clean_linker_0, # of connection points: 2
#     Edge 36, Type (0, 0), BuildingBlock: UVAHIK_clean_linker_0, # of connection points: 2
#     Edge 37, Type (0, 0), BuildingBlock: UVAHIK_clean_linker_0, # of connection points: 2
#     Edge 38, Type (0, 0), BuildingBlock: UVAHIK_clean_linker_0, # of connection points: 2
#     Edge 39, Type (0, 0), BuildingBlock: UVAHIK_clean_linker_0, # of connection points: 2
#     Edge 40, Type (0, 0), BuildingBlock: UVAHIK_clean_linker_0, # of connection points: 2
#     Edge 41, Type (0, 0), BuildingBlock: UVAHIK_clean_linker_0, # of connection points: 2
#     Edge 42, Type (0, 0), BuildingBlock: UVAHIK_clean_linker_0, # of connection points: 2
#     Edge 43, Type (0, 0), BuildingBlock: UVAHIK_clean_linker_0, # of connection points: 2
#     Edge 44, Type (0, 0), BuildingBlock: UVAHIK_clean_linker_0, # of connection points: 2
#     Edge 45, Type (0, 0), BuildingBlock: UVAHIK_clean_linker_0, # of connection points: 2
#     Edge 46, Type (0, 0), BuildingBlock: UVAHIK_clean_linker_0, # of connection points: 2
#     Edge 47, Type (0, 0), BuildingBlock: UVAHIK_clean_linker_0, # of connection points: 2
#     Edge 48, Type (0, 0), BuildingBlock: UVAHIK_clean_linker_0, # of connection points: 2
#     Edge 49, Type (0, 0), BuildingBlock: UVAHIK_clean_linker_0, # of connection points: 2
#     Edge 50, Type (0, 0), BuildingBlock: UVAHIK_clean_linker_0, # of connection points: 2
#     Edge 51, Type (0, 0), BuildingBlock: UVAHIK_clean_linker_0, # of connection points: 2
#     Edge 52, Type (0, 0), BuildingBlock: UVAHIK_clean_linker_0, # of connection points: 2
#     Edge 53, Type (0, 0), BuildingBlock: UVAHIK_clean_linker_0, # of connection points: 2
#     Edge 54, Type (0, 0), BuildingBlock: UVAHIK_clean_linker_0, # of connection points: 2
#     Edge 55, Type (0, 0), BuildingBlock: UVAHIK_clean_linker_0, # of connection points: 2
#     Edge 56, Type (0, 0), BuildingBlock: UVAHIK_clean_linker_0, # of connection points: 2
#     Edge 57, Type (0, 0), BuildingBlock: UVAHIK_clean_linker_0, # of connection points: 2
#     Edge 58, Type (0, 0), BuildingBlock: UVAHIK_clean_linker_0, # of connection points: 2
#     Edge 59, Type (0, 0), BuildingBlock: UVAHIK_clean_linker_0, # of connection points: 2
#     Edge 60, Type (0, 0), BuildingBlock: UVAHIK_clean_linker_0, # of connection points: 2
#     Edge 61, Type (0, 0), BuildingBlock: UVAHIK_clean_linker_0, # of connection points: 2
#     Edge 62, Type (0, 0), BuildingBlock: UVAHIK_clean_linker_0, # of connection points: 2
#     Edge 63, Type (0, 0), BuildingBlock: UVAHIK_clean_linker_0, # of connection points: 2
# Relax obj value: 0.389
# Max RMSD: 0.284
# Mean RMSD: 0.278
data_MOF--net-bcs--node1-VOLQOD_clean_sbu_1--edge1-UVAHIK_clean_linker_0
_symmetry_space_group_name_H-M    P1
_symmetry_Int_Tables_number       1
_symmetry_cell_setting            triclinic
loop_
_symmetry_equiv_pos_as_xyz
'x, y, z'
_cell_length_a     45.890279
_cell_length_b     46.161428
_cell_length_c     45.999065
_cell_angle_alpha  89.910817
_cell_angle_beta   89.592158
_cell_angle_gamma 89.445864
loop_
_atom_site_label
_atom_site_type_symbol
_atom_site_fract_x
_atom_site_fract_y
_atom_site_fract_z
_atom_type_partial_charge
O0 O 0.02857 0.01811 0.96868 0.0
Zn1 Zn 0.00825 0.00085 0.00213 0.0
O2 O 0.97755 0.9751 0.98995 0.0
Zn3 Zn 0.94066 0.98951 0.00615 0.0
Zn4 Zn 0.97666 0.97421 0.9473 0.0
Zn5 Zn 0.98544 0.93644 0.00507 0.0
O6 O 0.92182 0.96033 0.03243 0.0
O7 O 0.95313 0.92344 0.03125 0.0
O8 O 0.99384 0.03295 0.02724 0.0
O9 O 0.94657 0.02469 0.03148 0.0
O10 O 0.91348 0.00061 0.97403 0.0
O11 O 0.93889 0.9922 0.93342 0.0
O12 O 0.9807 0.93304 0.93256 0.0
O13 O 0.03809 0.98044 0.02579 0.0
O14 O 0.99045 0.90785 0.97261 0.0
O15 O 0.02151 0.93567 0.02992 0.0
C16 C 0.02812 0.01435 0.9414 0.0
C17 C 0.92964 0.9351 0.04058 0.0
C18 C 0.91586 0.00114 0.94643 0.0
C19 C 0.96897 0.03945 0.03768 0.0
C20 C 0.98717 0.90922 0.94516 0.0
C21 C 0.0403 0.95488 0.03579 0.0
O22 O 0.01027 -0.00282 0.92941 0.0
O23 O 0.26773 0.77311 0.24582 0.0
Zn24 Zn 0.28698 0.79234 0.27933 0.0
O25 O 0.25934 0.81485 0.30215 0.0
Zn26 Zn 0.26996 0.85561 0.30016 0.0
Zn27 Zn 0.22086 0.80966 0.28618 0.0
Zn28 Zn 0.25923 0.801 0.34226 0.0
O29 O 0.27683 0.87063 0.34036 0.0
O30 O 0.27599 0.83137 0.36852 0.0
O31 O 0.31924 0.81627 0.26316 0.0
O32 O 0.30717 0.86069 0.27739 0.0
O33 O 0.23944 0.87994 0.27953 0.0
O34 O 0.20698 0.84635 0.26867 0.0
O35 O 0.19152 0.80056 0.31692 0.0
O36 O 0.3034 0.76 0.30267 0.0
O37 O 0.21815 0.79512 0.35664 0.0
O38 O 0.28142 0.76282 0.34576 0.0
C39 C 0.24124 0.76849 0.2396 0.0
C40 C 0.27997 0.85847 0.36506 0.0
C41 C 0.2156 0.87241 0.26788 0.0
C42 C 0.32421 0.84329 0.26395 0.0
C43 C 0.19353 0.79594 0.34408 0.0
C44 C 0.29857 0.74991 0.32795 0.0
O45 O 0.22054 0.77966 0.25452 0.0
O46 O 0.4951 9e-05 0.54428 0.0
Zn47 Zn 0.53279 0.01104 0.56244 0.0
O48 O 0.55633 0.03493 0.5367 0.0
Zn49 Zn 0.59488 0.01718 0.53303 0.0
Zn50 Zn 0.53753 0.03799 0.4988 0.0
Zn51 Zn 0.56005 0.07338 0.55335 0.0
O52 O 0.62711 0.04474 0.54286 0.0
O53 O 0.60191 0.08398 0.55584 0.0
O54 O 0.55385 0.97531 0.57548 0.0
O55 O 0.59884 0.98257 0.55942 0.0
O56 O 0.60111 0.00373 0.49234 0.0
O57 O 0.56109 0.01643 0.46803 0.0
O58 O 0.53208 0.08004 0.48717 0.0
O59 O 0.52381 0.03194 0.59932 0.0
O60 O 0.54229 0.10375 0.5278 0.0
O61 O 0.54296 0.07557 0.59394 0.0
C62 C 0.48387 0.00574 0.5197 0.0
C63 C 0.62604 0.07099 0.55119 0.0
C64 C 0.58624 0.00455 0.46913 0.0
C65 C 0.58054 0.96783 0.57404 0.0
C66 C 0.53369 0.10357 0.50156 0.0
C67 C 0.52938 0.05695 0.60923 0.0
O68 O 0.49758 0.02025 0.50048 0.0
O69 O 0.3488 0.23727 0.88676 0.0
Zn70 Zn 0.32629 0.21178 0.85891 0.0
O71 O 0.30879 0.23603 0.82807 0.0
Zn72 Zn 0.26665 0.23334 0.82837 0.0
Zn73 Zn 0.31867 0.27671 0.83252 0.0
Zn74 Zn 0.3231 0.22241 0.7909 0.0
O75 O 0.25179 0.21619 0.79138 0.0
O76 O 0.2919 0.20415 0.76695 0.0
O77 O 0.29485 0.18845 0.8796 0.0
O78 O 0.25437 0.20703 0.86024 0.0
O79 O 0.24647 0.27177 0.8335 0.0
O80 O 0.2834 0.30168 0.83934 0.0
O81 O 0.33728 0.29321 0.79624 0.0
O82 O 0.3567 0.18379 0.84282 0.0
O83 O 0.33819 0.25484 0.7673 0.0
O84 O 0.35629 0.19516 0.79587 0.0
C85 C 0.35471 0.26422 0.8861 0.0
C86 C 0.26426 0.2048 0.76936 0.0
C87 C 0.25618 0.29705 0.83803 0.0
C88 C 0.26713 0.19005 0.87797 0.0
C89 C 0.343 0.28148 0.77182 0.0
C90 C 0.3669 0.18117 0.81717 0.0
O91 O 0.34501 0.28108 0.86642 0.0
O92 O 0.08705 0.94535 0.44768 0.0
Zn93 Zn 0.10935 0.9789 0.46474 0.0
O94 O 0.08658 -0.0026 0.49611 0.0
Zn95 Zn 0.08512 0.03914 0.49175 0.0
Zn96 Zn 0.04684 0.98363 0.4956 0.0
Zn97 Zn 0.10401 0.98805 0.53328 0.0
O98 O 0.10291 0.06037 0.52557 0.0
O99 O 0.11743 0.02365 0.55313 0.0
O100 O 0.1222 0.00871 0.43466 0.0
O101 O 0.10714 0.04949 0.45604 0.0
O102 O 0.04425 0.0538 0.48599 0.0
O103 O 0.01841 0.01376 0.48127 0.0
O104 O 0.03407 0.97328 0.53604 0.0
O105 O 0.14548 0.95972 0.4804 0.0
O106 O 0.07509 0.97089 0.56122 0.0
O107 O 0.13912 0.96257 0.52828 0.0
C108 C 0.06166 0.93568 0.45309 0.0
C109 C 0.11524 0.05069 0.54835 0.0
C110 C 0.02032 0.04123 0.48062 0.0
C111 C 0.12005 0.03631 0.43528 0.0
C112 C 0.04757 0.9682 0.55962 0.0
C113 C 0.1537 0.95412 0.50617 0.0
O114 O 0.04435 0.94826 0.47088 0.0
O115 O 0.23937 0.68787 0.78588 0.0
Zn116 Zn 0.25676 0.72572 0.79788 0.0
O117 O 0.27661 0.74475 0.76574 0.0
Zn118 Zn 0.31819 0.74905 0.7722 0.0
Zn119 Zn 0.27096 0.72218 0.73129 0.0
Zn120 Zn 0.25988 0.78275 0.76019 0.0
O121 O 0.32962 0.7913 0.77309 0.0
O122 O 0.28626 0.81292 0.77621 0.0
O123 O 0.28416 0.71999 0.83143 0.0
O124 O 0.32631 0.73511 0.8126 0.0
O125 O 0.343 0.72582 0.74301 0.0
O126 O 0.30781 0.70262 0.72008 0.0
O127 O 0.26102 0.74746 0.69712 0.0
O128 O 0.22127 0.74872 0.81005 0.0
O129 O 0.25642 0.79079 0.7176 0.0
O130 O 0.22068 0.78635 0.77984 0.0
C131 C 0.23253 0.67881 0.76075 0.0
C132 C 0.31392 0.81379 0.77776 0.0
C133 C 0.33469 0.70688 0.72472 0.0
C134 C 0.31133 0.72494 0.83365 0.0
C135 C 0.25715 0.77473 0.69512 0.0
C136 C 0.2089 0.77135 0.79992 0.0
O137 O 0.24133 0.69144 0.73772 0.0
O138 O 0.51499 0.08052 0.0649 0.0
Zn139 Zn 0.50314 0.05495 0.03231 0.0
O140 O 0.47776 0.0746 0.00536 0.0
Zn141 Zn 0.43847 0.05881 0.00847 0.0
Zn142 Zn 0.47802 0.11495 0.01564 0.0
Zn143 Zn 0.49329 0.07065 0.96614 0.0
O144 O 0.4265 0.04266 0.96933 0.0
O145 O 0.46789 0.04383 0.94371 0.0
O146 O 0.48463 0.02024 0.04973 0.0
O147 O 0.43844 0.02478 0.0363 0.0
O148 O 0.40958 0.08903 0.02446 0.0
O149 O 0.43951 0.12598 0.0314 0.0
O150 O 0.48328 0.13998 0.98099 0.0
O151 O 0.54067 0.04404 0.01301 0.0
O152 O 0.49264 0.10912 0.94515 0.0
O153 O 0.5351 0.05584 0.96656 0.0
C154 C 0.51891 0.10771 0.0653 0.0
C155 C 0.4414 0.0362 0.94663 0.0
C156 C 0.41433 0.11485 0.033 0.0
C157 C 0.45844 0.01156 0.05031 0.0
C158 C 0.48824 0.13483 0.95429 0.0
C159 C 0.55075 0.04617 0.98729 0.0
O160 O 0.50854 0.1241 0.04555 0.0
O161 O 0.35484 0.3996 0.33154 0.0
Zn162 Zn 0.33425 0.36592 0.35079 0.0
O163 O 0.31671 0.34088 0.32142 0.0
Zn164 Zn 0.27563 0.33477 0.32936 0.0
Zn165 Zn 0.3199 0.35843 0.28327 0.0
Zn166 Zn 0.33712 0.30379 0.32129 0.0
O167 O 0.2677 0.29272 0.33551 0.0
O168 O 0.31142 0.27152 0.33608 0.0
O169 O 0.30288 0.38188 0.37778 0.0
O170 O 0.26337 0.35788 0.36421 0.0
O171 O 0.24999 0.34725 0.29609 0.0
O172 O 0.2813 0.36934 0.26697 0.0
O173 O 0.33514 0.32979 0.25398 0.0
O174 O 0.36565 0.34448 0.3734 0.0
O175 O 0.34752 0.2916 0.28065 0.0
O176 O 0.37318 0.30576 0.34535 0.0
C177 C 0.3566 0.40766 0.3051 0.0
C178 C 0.2838 0.27036 0.33851 0.0
C179 C 0.25548 0.36168 0.27317 0.0
C180 C 0.27586 0.3761 0.38063 0.0
C181 C 0.34477 0.30395 0.25608 0.0
C182 C 0.38053 0.32211 0.36626 0.0
O183 O 0.34446 0.39381 0.28467 0.0
O184 O 0.55733 0.48918 0.98197 0.0
Zn185 Zn 0.58683 0.5187 -0.00422 0.0
O186 O 0.56981 0.54216 0.02724 0.0
Zn187 Zn 0.57299 0.58296 0.01897 0.0
Zn188 Zn 0.52901 0.53423 0.03205 0.0
Zn189 Zn 0.58967 0.53336 0.06329 0.0
O190 O 0.60052 0.60239 0.04618 0.0
O191 O 0.61666 0.56577 0.07322 0.0
O192 O 0.60259 0.54402 0.96305 0.0
O193 O 0.59037 0.58775 0.97965 0.0
O194 O 0.53442 0.60369 0.01871 0.0
O195 O 0.50365 0.56699 0.01858 0.0
O196 O 0.51921 0.52939 0.07409 0.0
O197 O 0.62026 0.49454 0.01073 0.0
O198 O 0.56162 0.52829 0.09698 0.0
O199 O 0.61415 0.49762 0.05869 0.0
C200 C 0.53174 0.48314 0.99105 0.0
C201 C 0.61758 0.59223 0.06544 0.0
C202 C 0.50867 0.59397 0.01662 0.0
C203 C 0.60158 0.5715 0.96019 0.0
C204 C 0.53389 0.52765 0.09738 0.0
C205 C 0.62639 0.48639 0.03643 0.0
O206 O 0.51895 0.49833 0.01049 0.0
O207 O 0.76093 0.19736 0.25457 0.0
Zn208 Zn 0.77456 0.22757 0.28281 0.0
O209 O 0.79819 0.25696 0.26304 0.0
Zn210 Zn 0.83564 0.26139 0.28223 0.0
Zn211 Zn 0.80496 0.24539 0.22319 0.0
Zn212 Zn 0.77752 0.29379 0.26281 0.0
O213 O 0.84183 0.3028 0.29484 0.0
O214 O 0.79857 0.32297 0.28631 0.0
O215 O 0.79676 0.20892 0.31597 0.0
O216 O 0.8363 0.23643 0.31777 0.0
O217 O 0.86944 0.24767 0.25681 0.0
O218 O 0.84638 0.23515 0.21645 0.0
O219 O 0.79572 0.27687 0.19508 0.0
O220 O 0.73688 0.24514 0.298 0.0
O221 O 0.77476 0.31064 0.22251 0.0
O222 O 0.73743 0.2897 0.27968 0.0
C223 C 0.76363 0.19506 0.2271 0.0
C224 C 0.82427 0.32432 0.29631 0.0
C225 C 0.86964 0.23769 0.231 0.0
C226 C 0.82059 0.21615 0.32795 0.0
C227 C 0.78352 0.30151 0.19783 0.0
C228 C 0.7246 0.26963 0.29366 0.0
O229 O 0.77965 0.21227 0.21264 0.0
O230 O 0.01202 0.56395 0.59103 0.0
Zn231 Zn -0.00019 0.54702 0.55365 0.0
O232 O 0.97533 0.57356 0.53255 0.0
Zn233 Zn 0.93493 0.55996 0.53448 0.0
Zn234 Zn 0.97849 0.61162 0.5501 0.0
Zn235 Zn 0.98969 0.57501 0.49276 0.0
O236 O 0.92148 0.55033 0.49405 0.0
O237 O 0.96083 0.55671 0.46626 0.0
O238 O 0.97899 0.51125 0.56396 0.0
O239 O 0.93235 0.52248 0.55767 0.0
O240 O 0.90767 0.5903 0.55232 0.0
O241 O 0.93896 0.62575 0.56058 0.0
O242 O 0.99385 0.64099 0.52181 0.0
O243 O 0.03577 0.53603 0.53178 0.0
O244 O -0.00466 0.61622 0.48045 0.0
O245 O 0.02866 0.55432 0.48784 0.0
C246 C 0.0123 0.58938 0.60146 0.0
C247 C 0.93444 0.54895 0.46947 0.0
C248 C 0.91319 0.61592 0.56085 0.0
C249 C 0.95221 0.50498 0.56625 0.0
C250 C -0.00241 0.6399 0.49438 0.0
C251 C 0.04429 0.5401 0.50577 0.0
O252 O 0.00182 0.61085 0.58742 0.0
O253 O 0.86024 0.71534 0.39393 0.0
Zn254 Zn 0.83645 0.70182 0.35956 0.0
O255 O 0.8279 0.73514 0.33461 0.0
Zn256 Zn 0.78777 0.73658 0.32322 0.0
Zn257 Zn 0.83592 0.77163 0.35362 0.0
Zn258 Zn 0.85193 0.73121 0.30033 0.0
O259 O 0.78358 0.73465 0.28015 0.0
O260 O 0.82797 0.72204 0.26502 0.0
O261 O 0.79916 0.68043 0.36969 0.0
O262 O 0.7677 0.70242 0.34013 0.0
O263 O 0.76705 0.77231 0.33726 0.0
O264 O 0.79934 0.79281 0.36617 0.0
O265 O 0.85639 0.79884 0.32557 0.0
O266 O 0.86339 0.67284 0.33953 0.0
O267 O 0.87142 0.76818 0.29135 0.0
O268 O 0.8819 0.70026 0.30445 0.0
C269 C 0.86917 0.74038 0.40129 0.0
C270 C 0.80114 0.72694 0.26005 0.0
C271 C 0.77388 0.79181 0.3554 0.0
C272 C 0.77386 0.68256 0.35837 0.0
C273 C 0.87033 0.7935 0.3021 0.0
C274 C 0.88214 0.67716 0.31949 0.0
O275 O 0.8616 0.76327 0.38762 0.0
O276 O 0.76713 0.26628 0.74595 0.0
Zn277 Zn 0.78023 0.28571 0.7821 0.0
O278 O 0.75102 0.31234 0.79713 0.0
Zn279 Zn 0.76455 0.3517 0.79198 0.0
Zn280 Zn 0.71579 0.3067 0.77515 0.0
Zn281 Zn 0.74354 0.30449 0.83833 0.0
O282 O 0.7666 0.37159 0.83046 0.0
O283 O 0.75964 0.33668 0.86315 0.0
O284 O 0.81765 0.30505 0.77167 0.0
O285 O 0.80502 0.35145 0.77534 0.0
O286 O 0.73932 0.37482 0.76433 0.0
O287 O 0.70596 0.34224 0.75291 0.0
O288 O 0.68189 0.30079 0.80127 0.0
O289 O 0.78618 0.25343 0.8101 0.0
O290 O 0.70004 0.30257 0.84586 0.0
O291 O 0.76109 0.26558 0.84993 0.0
C292 C 0.74197 0.26164 0.73576 0.0
C293 C 0.76597 0.36277 0.85672 0.0
C294 C 0.71656 0.36746 0.75065 0.0
C295 C 0.82359 0.33177 0.76895 0.0
C296 C 0.67843 0.30079 0.82869 0.0
C297 C 0.77719 0.24787 0.83569 0.0
O298 O 0.71934 0.27384 0.74648 0.0
O299 O 0.86852 0.91225 0.82815 0.0
Zn300 Zn 0.84785 0.88524 0.85641 0.0
O301 O 0.82225 0.85847 0.83533 0.0
Zn302 Zn 0.78313 0.8585 0.85142 0.0
Zn303 Zn 0.81928 0.87043 0.79529 0.0
Zn304 Zn 0.8382 0.81936 0.83654 0.0
O305 O 0.77254 0.81932 0.86633 0.0
O306 O 0.81181 0.79198 0.85849 0.0
O307 O 0.82413 0.90888 0.88576 0.0
O308 O 0.7811 0.88693 0.88386 0.0
O309 O 0.75235 0.86968 0.8218 0.0
O310 O 0.78006 0.88517 0.78553 0.0
O311 O 0.82557 0.8371 0.768 0.0
O312 O 0.88068 0.86314 0.87631 0.0
O313 O 0.84154 0.80189 0.79673 0.0
O314 O 0.87754 0.82005 0.85473 0.0
C315 C 0.8657 0.91575 0.80083 0.0
C316 C 0.78579 0.79504 0.86791 0.0
C317 C 0.75509 0.88139 0.79687 0.0
C318 C 0.79794 0.90578 0.8947 0.0
C319 C 0.83462 0.81125 0.77168 0.0
C320 C 0.8909 0.83795 0.87077 0.0
O321 O 0.84774 0.90105 0.78618 0.0
O322 O 0.53311 0.50434 0.45138 0.0
Zn323 Zn 0.5051 0.4926 0.48182 0.0
O324 O 0.47859 0.4641 0.46661 0.0
Zn325 Zn 0.43934 0.47626 0.47731 0.0
Zn326 Zn 0.48259 0.4618 0.42421 0.0
Zn327 Zn 0.48787 0.42656 0.48385 0.0
O328 O 0.41956 0.44658 0.50218 0.0
O329 O 0.45393 0.41278 0.50743 0.0
O330 O 0.4855 0.52723 0.49983 0.0
O331 O 0.43952 0.51312 0.50078 0.0
O332 O 0.41606 0.48504 0.44176 0.0
O333 O 0.44728 0.47965 0.40495 0.0
O334 O 0.48728 0.41998 0.41148 0.0
O335 O 0.52971 0.47583 0.51274 0.0
O336 O 0.49589 0.39686 0.45301 0.0
O337 O 0.52238 0.42849 0.51115 0.0
C338 C 0.53663 0.49889 0.42454 0.0
C339 C 0.42844 0.42261 0.51274 0.0
C340 C 0.42217 0.48686 0.41477 0.0
C341 C 0.45906 0.53136 0.50727 0.0
C342 C 0.49362 0.39689 0.42544 0.0
C343 C 0.53559 0.45034 0.52139 0.0
O344 O 0.51897 0.4831 0.4105 0.0
O345 O -0.00469 0.50037 0.0242 0.0
Zn346 Zn 0.03171 0.51047 0.04571 0.0
O347 O 0.05532 0.53787 0.0238 0.0
Zn348 Zn 0.09499 0.52296 0.02025 0.0
Zn349 Zn 0.03884 0.54381 0.9855 0.0
Zn350 Zn 0.0554 0.57486 0.04362 0.0
O351 O 0.12488 0.55136 0.03434 0.0
O352 O 0.09626 0.58774 0.04894 0.0
O353 O 0.05438 0.47457 0.05615 0.0
O354 O 0.09947 0.48623 0.04322 0.0
O355 O 0.10391 0.51341 0.97877 0.0
O356 O 0.06336 0.52404 0.95464 0.0
O357 O 0.03593 0.58644 0.97618 0.0
O358 O 0.01966 0.5274 0.08408 0.0
O359 O 0.03706 0.60658 0.01998 0.0
O360 O 0.0367 0.57222 0.08322 0.0
C361 C 0.98458 0.50975 0.00049 0.0
C362 C 0.12139 0.57671 0.04461 0.0
C363 C 0.08932 0.51407 0.95535 0.0
C364 C 0.08158 0.46893 0.05523 0.0
C365 C 0.0336 0.60855 0.99262 0.0
C366 C 0.02346 0.55178 0.09625 0.0
O367 O -0.00149 0.52718 0.98412 0.0
C368 C 0.25534 0.13983 0.89391 0.0
C369 C 0.24863 0.16958 0.89395 0.0
C370 C 0.23392 0.11967 0.90137 0.0
C371 C 0.16085 0.11211 0.93495 0.0
H372 H 0.14733 0.05566 0.87417 0.0
C373 C 0.05031 0.0601 0.92596 0.0
C374 C 0.05016 0.02981 0.92447 0.0
C375 C 0.07576 0.07525 0.92 0.0
C376 C 0.15101 0.07111 0.89143 0.0
H377 H 0.21549 0.20181 0.90392 0.0
H378 H 0.17852 0.16691 0.91771 0.0
H379 H 0.19201 0.08428 0.8734 0.0
H380 H 0.07556 0.99148 0.91394 0.0
H381 H 0.12043 0.01806 0.9033 0.0
H382 H 0.11978 0.09951 0.95272 0.0
C383 C 0.20004 0.15895 0.91178 0.0
C384 C 0.17664 0.08731 0.89114 0.0
C385 C 0.22118 0.17897 0.9039 0.0
C386 C 0.07511 0.01494 0.91456 0.0
C387 C 0.10079 0.03013 0.90876 0.0
C388 C 0.13534 0.09599 0.93523 0.0
C389 C 0.20579 0.1291 0.90946 0.0
C390 C 0.18142 0.10848 0.91252 0.0
C391 C 0.10167 0.06029 0.91293 0.0
C392 C 0.12975 0.0759 0.91305 0.0
H393 H 0.27628 0.13211 0.88593 0.0
H394 H 0.23895 0.09676 0.89964 0.0
H395 H 0.16416 0.12797 0.95191 0.0
H396 H 0.03135 0.07188 0.93396 0.0
H397 H 0.07561 0.09857 0.92267 0.0
C398 C 0.05858 0.92729 0.07868 0.0
C399 C 0.06292 0.94891 0.05764 0.0
C400 C 0.07702 0.92523 0.10257 0.0
C401 C 0.14842 0.94034 0.13056 0.0
H402 H 0.10898 0.94129 0.20545 0.0
C403 C 0.21133 0.91564 0.23515 0.0
C404 C 0.19811 0.89327 0.25103 0.0
C405 C 0.19541 0.93087 0.21413 0.0
C406 C 0.12035 0.9411 0.18473 0.0
H407 H 0.09106 0.984 0.04397 0.0
H408 H 0.12391 0.97966 0.08549 0.0
H409 H 0.08089 0.94818 0.16111 0.0
H410 H 0.15749 0.87113 0.25962 0.0
H411 H 0.12997 0.8973 0.22328 0.0
H412 H 0.18762 0.93136 0.15392 0.0
C413 C 0.1059 0.96478 0.08363 0.0
C414 C 0.10427 0.94497 0.15943 0.0
C415 C 0.08715 0.96719 0.05995 0.0
C416 C 0.16827 0.88812 0.24746 0.0
C417 C 0.15242 0.90336 0.22675 0.0
C418 C 0.16452 0.93602 0.15591 0.0
C419 C 0.10038 0.9444 0.10555 0.0
C420 C 0.11806 0.9437 0.13215 0.0
C421 C 0.16604 0.9241 0.20903 0.0
C422 C 0.15045 0.93533 0.18319 0.0
H423 H 0.04005 0.91298 0.07755 0.0
H424 H 0.07267 0.90906 0.1191 0.0
H425 H 0.15945 0.93943 0.10967 0.0
H426 H 0.23434 0.91998 0.23753 0.0
H427 H 0.20637 0.947 0.20101 0.0
C428 C 0.43993 0.00366 0.48796 0.0
C429 C 0.45464 0.99451 0.51307 0.0
C430 C 0.41324 0.99154 0.48065 0.0
C431 C 0.35157 0.96904 0.47522 0.0
H432 H 0.35694 0.88535 0.46972 0.0
C433 C 0.29287 0.86386 0.41769 0.0
C434 C 0.28978 0.8761 0.38986 0.0
C435 C 0.305 0.87988 0.44026 0.0
C436 C 0.35451 0.90862 0.4718 0.0
H437 H 0.45228 0.96637 0.5509 0.0
H438 H 0.40581 0.94491 0.53775 0.0
H439 H 0.39367 0.9116 0.49642 0.0
H440 H 0.29529 0.91537 0.36443 0.0
H441 H 0.31708 0.94283 0.40325 0.0
H442 H 0.313 0.96612 0.44959 0.0
C443 C 0.41499 0.96149 0.52383 0.0
C444 C 0.37567 0.92368 0.48708 0.0
C445 C 0.44157 0.97379 0.53131 0.0
C446 C 0.29752 0.90517 0.38553 0.0
C447 C 0.30975 0.92108 0.40797 0.0
C448 C 0.33024 0.95396 0.46014 0.0
C449 C 0.40084 0.96991 0.49819 0.0
C450 C 0.37509 0.95408 0.48781 0.0
C451 C 0.31437 0.9084 0.43537 0.0
C452 C 0.33228 0.92369 0.45711 0.0
H453 H 0.4493 0.01972 0.47358 0.0
H454 H 0.40299 -0.00184 0.46053 0.0
H455 H 0.3504 0.99248 0.47591 0.0
H456 H 0.28672 0.84163 0.42187 0.0
H457 H 0.30788 0.86966 0.46126 0.0
C458 C 0.41566 0.17538 0.79521 0.0
C459 C 0.39294 0.16336 0.81159 0.0
C460 C 0.43825 0.15794 0.78477 0.0
C461 C 0.4455 0.08664 0.75604 0.0
H462 H 0.52352 0.11323 0.73812 0.0
C463 C 0.50867 0.04227 0.65744 0.0
C464 C 0.52042 0.06392 0.63938 0.0
C465 C 0.49949 0.04876 0.68568 0.0
C466 C 0.50186 0.1054 0.74303 0.0
H467 H 0.37664 0.12435 0.83184 0.0
H468 H 0.41611 0.09318 0.81263 0.0
H469 H 0.49654 0.13453 0.77891 0.0
H470 H 0.53261 0.10915 0.63721 0.0
H471 H 0.51585 0.12069 0.68623 0.0
H472 H 0.44982 0.05903 0.71906 0.0
C473 C 0.41654 0.11623 0.80822 0.0
C474 C 0.48654 0.11741 0.76649 0.0
C475 C 0.39407 0.13395 0.8192 0.0
C476 C 0.52355 0.09202 0.6505 0.0
C477 C 0.51425 0.09853 0.67874 0.0
C478 C 0.46078 0.07466 0.73258 0.0
C479 C 0.43828 0.12798 0.79007 0.0
C480 C 0.45765 0.10921 0.77224 0.0
C481 C 0.50175 0.07706 0.6965 0.0
C482 C 0.48855 0.08496 0.72496 0.0
H483 H 0.41519 0.19811 0.78926 0.0
H484 H 0.45438 0.16763 0.77057 0.0
H485 H 0.42318 0.08006 0.75973 0.0
H486 H 0.50631 0.02027 0.64972 0.0
H487 H 0.49024 0.03169 0.69892 0.0
C488 C 0.18611 0.91255 0.4922 0.0
C489 C 0.17966 0.93588 0.51084 0.0
C490 C 0.20702 0.89181 0.50014 0.0
C491 C 0.26339 0.8742 0.55519 0.0
H492 H 0.21803 0.80484 0.5681 0.0
C493 C 0.25819 0.81866 0.66361 0.0
C494 C 0.2561 0.78843 0.66609 0.0
C495 C 0.25883 0.83183 0.63639 0.0
C496 C 0.23155 0.82354 0.56405 0.0
H497 H 0.19183 0.95772 0.5505 0.0
H498 H 0.22846 0.922 0.56414 0.0
H499 H 0.20321 0.83919 0.53077 0.0
H500 H 0.25323 0.74825 0.64184 0.0
H501 H 0.25352 0.77162 0.59397 0.0
H502 H 0.29026 0.85968 0.59023 0.0
C503 C 0.21747 0.91943 0.54355 0.0
C504 C 0.22312 0.84322 0.54255 0.0
C505 C 0.19626 0.93974 0.53595 0.0
C506 C 0.25469 0.77163 0.64064 0.0
C507 C 0.25503 0.78492 0.61327 0.0
C508 C 0.27185 0.85451 0.57663 0.0
C509 C 0.22211 0.89458 0.52644 0.0
C510 C 0.23773 0.86968 0.53947 0.0
C511 C 0.25723 0.81516 0.61094 0.0
C512 C 0.25473 0.8301 0.58259 0.0
H513 H 0.17354 0.9092 0.47267 0.0
H514 H 0.21019 0.8728 0.48665 0.0
H515 H 0.27526 0.89426 0.55287 0.0
H516 H 0.25949 0.83227 0.6827 0.0
H517 H 0.25976 0.85525 0.63533 0.0
C518 C 0.35816 0.84419 0.78577 0.0
C519 C 0.32781 0.84083 0.78753 0.0
C520 C 0.37134 0.86855 0.79774 0.0
C521 C 0.35525 0.94153 0.82975 0.0
H522 H 0.42643 0.92609 0.8722 0.0
C523 C 0.39831 0.0123 0.9238 0.0
C524 C 0.42833 0.0181 0.92373 0.0
C525 C 0.38655 0.99355 0.90322 0.0
C526 C 0.40676 0.93082 0.86014 0.0
H527 H 0.2874 0.86087 0.80241 0.0
H528 H 0.31034 0.9026 0.82408 0.0
H529 H 0.40534 0.88801 0.84285 0.0
H530 H 0.46937 0.00938 0.90142 0.0
H531 H 0.44883 0.97639 0.86592 0.0
H532 H 0.35618 0.98405 0.84846 0.0
C533 C 0.32404 0.88693 0.81287 0.0
C534 C 0.3947 0.90904 0.84315 0.0
C535 C 0.31085 0.86281 0.80058 0.0
C536 C 0.44616 0.00536 0.90217 0.0
C537 C 0.43447 0.98639 0.88188 0.0
C538 C 0.36712 0.96319 0.8471 0.0
C539 C 0.3545 0.88988 0.81209 0.0
C540 C 0.36861 0.91398 0.82798 0.0
C541 C 0.40465 0.98002 0.88245 0.0
C542 C 0.39284 0.95791 0.86264 0.0
H543 H 0.3718 0.82777 0.77559 0.0
H544 H 0.3948 0.8704 0.79617 0.0
H545 H 0.33544 0.9463 0.81796 0.0
H546 H 0.38396 0.02185 0.94003 0.0
H547 H 0.36349 0.98882 0.9042 0.0
C548 C 0.37164 0.12056 0.06688 0.0
C549 C 0.39132 0.13258 0.04687 0.0
C550 C 0.35611 0.13863 0.08609 0.0
C551 C 0.3526 0.17763 0.13883 0.0
H552 H 0.33865 0.25922 0.12393 0.0
C553 C 0.36571 0.2613 0.22952 0.0
C554 C 0.34812 0.28631 0.22953 0.0
C555 C 0.36548 0.24235 0.20588 0.0
C556 C 0.34191 0.23645 0.12868 0.0
H557 H 0.4077 0.17262 0.02869 0.0
H558 H 0.38149 0.20379 0.06198 0.0
H559 H 0.34133 0.22565 0.08356 0.0
H560 H 0.31649 0.3112 0.20483 0.0
H561 H 0.3152 0.27776 0.16419 0.0
H562 H 0.35228 0.18824 0.18397 0.0
C563 C 0.37753 0.18074 0.06324 0.0
C564 C 0.34377 0.21716 0.10538 0.0
C565 C 0.39285 0.1628 0.04419 0.0
C566 C 0.33071 0.29232 0.20521 0.0
C567 C 0.32995 0.27305 0.18187 0.0
C568 C 0.35009 0.19681 0.16217 0.0
C569 C 0.36013 0.16889 0.08546 0.0
C570 C 0.35052 0.18773 0.11005 0.0
C571 C 0.34706 0.24759 0.18201 0.0
C572 C 0.34597 0.22669 0.15737 0.0
H573 H 0.37006 0.09728 0.0693 0.0
H574 H 0.34236 0.12881 0.10251 0.0
H575 H 0.35791 0.1552 0.14344 0.0
H576 H 0.37935 0.25616 0.24798 0.0
H577 H 0.37968 0.2235 0.20648 0.0
C578 C 0.15883 0.04415 0.39722 0.0
C579 C 0.13442 0.05428 0.41292 0.0
C580 C 0.17537 0.06338 0.38039 0.0
C581 C 0.2174 0.11319 0.36924 0.0
H582 H 0.18193 0.18197 0.33592 0.0
C583 C 0.27854 0.22155 0.36166 0.0
C584 C 0.26966 0.24206 0.34099 0.0
C585 C 0.26376 0.19526 0.36425 0.0
C586 C 0.19257 0.16277 0.34443 0.0
H587 H 0.10683 0.09179 0.42148 0.0
H588 H 0.13552 0.125 0.39301 0.0
H589 H 0.15193 0.14091 0.34756 0.0
H590 H 0.24028 0.25075 0.30538 0.0
H591 H 0.21587 0.20443 0.30839 0.0
H592 H 0.25824 0.13484 0.36536 0.0
C593 C 0.14207 0.10241 0.39319 0.0
C594 C 0.17512 0.13925 0.35156 0.0
C595 C 0.12569 0.08334 0.40985 0.0
C596 C 0.24698 0.23543 0.32197 0.0
C597 C 0.23291 0.20889 0.32386 0.0
C598 C 0.23505 0.13656 0.36148 0.0
C599 C 0.16759 0.09294 0.3789 0.0
C600 C 0.18707 0.11471 0.36526 0.0
C601 C 0.24046 0.18871 0.34557 0.0
C602 C 0.2227 0.16213 0.34998 0.0
H603 H 0.16605 0.02182 0.39919 0.0
H604 H 0.19472 0.05534 0.36934 0.0
H605 H 0.22739 0.09466 0.3798 0.0
H606 H 0.29614 0.22628 0.37643 0.0
H607 H 0.27005 0.18059 0.38152 0.0
C608 C 0.90115 0.23154 0.18771 0.0
C609 C 0.89673 0.22695 0.21754 0.0
C610 C 0.92158 0.21499 0.17242 0.0
C611 C 0.96645 0.1767 0.14308 0.0
H612 H 0.94381 0.0975 0.15903 0.0
C613 C 0.99092 0.08085 0.06468 0.0
C614 C 0.96678 0.0631 0.05924 0.0
C615 C 0.98979 0.10159 0.08674 0.0
C616 C 0.95051 0.11948 0.15441 0.0
H617 H 0.91189 0.20376 0.25555 0.0
H618 H 0.94764 0.17421 0.2286 0.0
H619 H 0.93302 0.1351 0.1946 0.0
H620 H 0.92239 0.0536 0.07239 0.0
H621 H 0.92038 0.08995 0.11072 0.0
H622 H 0.98222 0.16119 0.10197 0.0
C623 C 0.93533 0.19069 0.21709 0.0
C624 C 0.94478 0.14097 0.17499 0.0
C625 C 0.91506 0.20765 0.23252 0.0
C626 C 0.94134 0.06691 0.07598 0.0
C627 C 0.94031 0.08749 0.09815 0.0
C628 C 0.97229 0.15514 0.12251 0.0
C629 C 0.93765 0.19321 0.18665 0.0
C630 C 0.95151 0.17001 0.16899 0.0
C631 C 0.96462 0.10481 0.10395 0.0
C632 C 0.96318 0.12658 0.1275 0.0
H633 H 0.88727 0.24644 0.17579 0.0
H634 H 0.92264 0.21738 0.14901 0.0
H635 H 0.97203 0.1989 0.13798 0.0
H636 H 0.01088 0.07849 0.05216 0.0
H637 H 0.00881 0.11469 0.09072 0.0
C638 C 0.01437 0.66459 0.4491 0.0
C639 C 0.00582 0.6664 0.4784 0.0
C640 C 0.02523 0.68876 0.43471 0.0
C641 C 0.06435 0.75512 0.45193 0.0
H642 H 0.06663 0.75912 0.3678 0.0
C643 C 0.1678 0.78042 0.38948 0.0
C644 C 0.16661 0.7921 0.36135 0.0
C645 C 0.1422 0.77537 0.40513 0.0
C646 C 0.06591 0.75898 0.39133 0.0
H647 H -0.00048 0.69564 0.51486 0.0
H648 H 0.01819 0.7381 0.48951 0.0
H649 H 0.02864 0.73167 0.39174 0.0
H650 H 0.13783 0.80967 0.32831 0.0
H651 H 0.09316 0.80127 0.35585 0.0
H652 H 0.10183 0.78226 0.45143 0.0
C653 C 0.01715 0.71777 0.47789 0.0
C654 C 0.04434 0.74279 0.40507 0.0
C655 C 0.00647 0.69343 0.49241 0.0
C656 C 0.13941 0.80005 0.34975 0.0
C657 C 0.11381 0.79533 0.36554 0.0
C658 C 0.08575 0.77158 0.43819 0.0
C659 C 0.02756 0.71548 0.44915 0.0
C660 C 0.04445 0.73917 0.43541 0.0
C661 C 0.11486 0.78223 0.39311 0.0
C662 C 0.08785 0.77217 0.40771 0.0
H663 H 0.01395 0.64416 0.43755 0.0
H664 H 0.03341 0.68589 0.41277 0.0
H665 H 0.06505 0.75308 0.47536 0.0
H666 H 0.18844 0.7742 0.39906 0.0
H667 H 0.14388 0.76476 0.42607 0.0
C668 C 0.62089 0.93676 0.5933 0.0
C669 C 0.5912 0.94439 0.59328 0.0
C670 C 0.63232 0.91981 0.61567 0.0
C671 C 0.61896 0.90897 0.69269 0.0
H672 H 0.68952 0.86264 0.68546 0.0
C673 C 0.70181 0.87584 0.78555 0.0
C674 C 0.72936 0.88721 0.77855 0.0
C675 C 0.67924 0.87688 0.76517 0.0
C676 C 0.66951 0.8751 0.68782 0.0
H677 H 0.54966 0.93769 0.61511 0.0
H678 H 0.56974 0.90799 0.65413 0.0
H679 H 0.65929 0.87105 0.64275 0.0
H680 H 0.75404 0.9105 0.74562 0.0
H681 H 0.71499 0.91192 0.71041 0.0
H682 H 0.63023 0.91405 0.73762 0.0
C683 C 0.5842 0.91556 0.63709 0.0
C684 C 0.65231 0.88002 0.66343 0.0
C685 C 0.57272 0.93247 0.61463 0.0
C686 C 0.73328 0.90117 0.75164 0.0
C687 C 0.71101 0.90188 0.73137 0.0
C688 C 0.6361 0.90381 0.7172 0.0
C689 C 0.6143 0.91009 0.63848 0.0
C690 C 0.6277 0.89826 0.66528 0.0
C691 C 0.68418 0.88902 0.73761 0.0
C692 C 0.66219 0.88801 0.71452 0.0
H693 H 0.63569 0.94537 0.57707 0.0
H694 H 0.65567 0.9162 0.61615 0.0
H695 H 0.60024 0.92329 0.69482 0.0
H696 H 0.69812 0.86497 0.80611 0.0
H697 H 0.65846 0.86715 0.7704 0.0
C698 C 0.53297 0.43371 0.96813 0.0
C699 C 0.51708 0.4567 0.98081 0.0
C700 C 0.5193 0.40745 0.96192 0.0
C701 C 0.4801 0.36036 0.93672 0.0
H702 H 0.41804 0.33637 0.98895 0.0
C703 C 0.40355 0.26591 0.90923 0.0
C704 C 0.37485 0.27653 0.90726 0.0
C705 C 0.42469 0.28206 0.92365 0.0
C706 C 0.43557 0.34258 0.97439 0.0
H707 H 0.47417 0.47066 -0.00448 0.0
H708 H 0.45034 0.42554 0.98394 0.0
H709 H 0.44883 0.37694 0.00221 0.0
H710 H 0.34507 0.31089 0.92 0.0
H711 H 0.38154 0.33842 0.94626 0.0
H712 H 0.46618 0.32625 0.90862 0.0
C713 C 0.47351 0.42725 0.97972 0.0
C714 C 0.45302 0.36596 0.98179 0.0
C715 C 0.48713 0.45329 0.98607 0.0
C716 C 0.36704 0.30223 0.92159 0.0
C717 C 0.38789 0.31791 0.93659 0.0
C718 C 0.46277 0.33671 0.92945 0.0
C719 C 0.4895 0.40378 0.96817 0.0
C720 C 0.47462 0.37594 0.96246 0.0
C721 C 0.41711 0.30853 0.93686 0.0
C722 C 0.43961 0.32842 0.9477 0.0
H723 H 0.55613 0.43564 0.96399 0.0
H724 H 0.53222 0.38979 0.95298 0.0
H725 H 0.49653 0.36746 0.92136 0.0
H726 H 0.41006 0.24632 0.89787 0.0
H727 H 0.44711 0.27452 0.92349 0.0
C728 C 0.89609 0.76709 0.43914 0.0
C729 C 0.8941 0.74282 0.421 0.0
C730 C 0.92325 0.77637 0.44867 0.0
C731 C 0.98712 0.7902 0.46495 0.0
H732 H 0.01539 0.81702 0.38993 0.0
C733 C 0.07139 0.88295 0.44657 0.0
C734 C 0.05315 0.90718 0.44207 0.0
C735 C 0.06045 0.85491 0.44342 0.0
C736 C 0.0084 0.809 0.41097 0.0
H737 H 0.91826 0.70738 0.40112 0.0
H738 H 0.96597 0.72439 0.41685 0.0
H739 H 0.97968 0.77805 0.39227 0.0
H740 H 0.01016 0.92149 0.42899 0.0
H741 H 0.9915 0.87253 0.42201 0.0
H742 H 0.01455 0.82259 0.48346 0.0
C743 C 0.94652 0.73576 0.42422 0.0
C744 C 0.98806 0.78675 0.41238 0.0
C745 C 0.91922 0.72601 0.41537 0.0
C746 C 0.02464 0.90311 0.43226 0.0
C747 C 0.01401 0.87522 0.42835 0.0
C748 C 0.00795 0.81207 0.46356 0.0
C749 C 0.94876 0.76191 0.4395 0.0
C750 C 0.97631 0.7781 0.43929 0.0
C751 C 0.03148 0.85101 0.43493 0.0
C752 C 0.01764 0.82247 0.4365 0.0
H753 H 0.87704 0.78047 0.44356 0.0
H754 H 0.92449 0.79673 0.46027 0.0
H755 H 0.97806 0.7841 0.48586 0.0
H756 H 0.0933 0.88565 0.45469 0.0
H757 H 0.07408 0.83642 0.44882 0.0
C758 C 0.42188 0.56251 0.53251 0.0
C759 C 0.45122 0.55652 0.52579 0.0
C760 C 0.41448 0.58418 0.5524 0.0
C761 C 0.44305 0.62184 0.61586 0.0
H762 H 0.37187 0.66682 0.60705 0.0
C763 C 0.38397 0.7012 0.70047 0.0
C764 C 0.3558 0.69076 0.70626 0.0
C765 C 0.40129 0.68833 0.67864 0.0
C766 C 0.39204 0.65471 0.60961 0.0
H767 H 0.49581 0.56936 0.53403 0.0
H768 H 0.48273 0.60735 0.56885 0.0
H769 H 0.39127 0.6395 0.56578 0.0
H770 H 0.32478 0.65722 0.69548 0.0
H771 H 0.3547 0.63532 0.65763 0.0
H772 H 0.44295 0.63654 0.66022 0.0
C773 C 0.46553 0.59506 0.55879 0.0
C774 C 0.40303 0.63893 0.58611 0.0
C775 C 0.47297 0.57342 0.53871 0.0
C776 C 0.34616 0.66614 0.69129 0.0
C777 C 0.36323 0.65356 0.66958 0.0
C778 C 0.43208 0.63786 0.63943 0.0
C779 C 0.43621 0.6004 0.56612 0.0
C780 C 0.42798 0.62138 0.58928 0.0
C781 C 0.39047 0.66506 0.66244 0.0
C782 C 0.40591 0.65352 0.63667 0.0
H783 H 0.40458 0.54994 0.52299 0.0
H784 H 0.39168 0.58743 0.55786 0.0
H785 H 0.46226 0.60841 0.61902 0.0
H786 H 0.39196 0.72014 0.71165 0.0
H787 H 0.42239 0.69737 0.67345 0.0
C788 C 0.50575 0.15656 0.90768 0.0
C789 C 0.49081 0.1596 0.9342 0.0
C790 C 0.51309 0.18102 0.89148 0.0
C791 C 0.52737 0.23556 0.85923 0.0
H792 H 0.56397 0.28843 0.91295 0.0
C793 C 0.6245 0.30184 0.8221 0.0
C794 C 0.64861 0.29783 0.84043 0.0
C795 C 0.59643 0.29565 0.83193 0.0
C796 C 0.55366 0.27409 0.8976 0.0
H797 H 0.46848 0.19009 0.96275 0.0
H798 H 0.481 0.23273 0.93426 0.0
H799 H 0.52716 0.25533 0.93068 0.0
H800 H 0.66206 0.28623 0.88402 0.0
H801 H 0.61328 0.27451 0.90097 0.0
H802 H 0.55605 0.25229 0.82677 0.0
C803 C 0.48779 0.21162 0.92636 0.0
C804 C 0.5322 0.25531 0.90765 0.0
C805 C 0.48069 0.18718 0.9427 0.0
C806 C 0.64393 0.28937 0.86936 0.0
C807 C 0.61587 0.28295 0.87913 0.0
C808 C 0.54904 0.25414 0.84923 0.0
C809 C 0.50537 0.20894 0.90139 0.0
C810 C 0.52019 0.23457 0.88893 0.0
C811 C 0.59193 0.28512 0.86022 0.0
C812 C 0.56364 0.27231 0.86873 0.0
H813 H 0.51359 0.13555 0.90044 0.0
H814 H 0.52686 0.17806 0.87248 0.0
H815 H 0.51795 0.22036 0.84412 0.0
H816 H 0.62736 0.30893 0.7998 0.0
H817 H 0.5784 0.29801 0.81701 0.0
C818 C 0.12293 0.43688 0.07024 0.0
C819 C 0.09314 0.44398 0.07187 0.0
C820 C 0.1353 0.41783 0.0903 0.0
C821 C 0.1245 0.39841 0.16596 0.0
H822 H 0.19463 0.35294 0.15186 0.0
C823 C 0.20318 0.35948 0.25734 0.0
C824 C 0.23231 0.36697 0.25157 0.0
C825 C 0.18209 0.36213 0.23562 0.0
C826 C 0.17492 0.36537 0.15611 0.0
H827 H 0.0524 0.43447 0.09405 0.0
H828 H 0.07412 0.40106 0.12909 0.0
H829 H 0.16368 0.3667 0.11108 0.0
H830 H 0.26195 0.38353 0.21858 0.0
H831 H 0.22535 0.38808 0.18107 0.0
H832 H 0.13652 0.39807 0.2109 0.0
C833 C 0.08793 0.41062 0.11254 0.0
C834 C 0.15722 0.37323 0.13282 0.0
C835 C 0.0755 0.42964 0.09236 0.0
C836 C 0.23977 0.37756 0.22386 0.0
C837 C 0.21887 0.37986 0.2022 0.0
C838 C 0.14215 0.39039 0.18931 0.0
C839 C 0.11815 0.40546 0.11243 0.0
C840 C 0.13257 0.39096 0.13733 0.0
C841 C 0.18993 0.37188 0.20773 0.0
C842 C 0.16817 0.37494 0.18437 0.0
H843 H 0.13708 0.44732 0.05455 0.0
H844 H 0.15869 0.41451 0.08968 0.0
H845 H 0.10579 0.41228 0.17018 0.0
H846 H 0.19676 0.3512 0.27845 0.0
H847 H 0.15983 0.35604 0.24042 0.0
C848 C 0.64653 0.57746 0.93014 0.0
C849 C 0.61777 0.58607 0.93673 0.0
C850 C 0.66572 0.59712 0.9171 0.0
C851 C 0.67578 0.67366 0.92297 0.0
H852 H 0.73481 0.66786 0.86254 0.0
C853 C 0.73995 0.77259 0.88628 0.0
C854 C 0.76934 0.76943 0.87802 0.0
C855 C 0.7231 0.74842 0.89254 0.0
C856 C 0.71872 0.66958 0.87979 0.0
H857 H 0.58536 0.62002 0.93144 0.0
H858 H 0.61857 0.65395 0.90821 0.0
H859 H 0.70115 0.62753 0.87062 0.0
H860 H 0.80431 0.73822 0.87072 0.0
H861 H 0.77487 0.69583 0.88248 0.0
H862 H 0.69335 0.71502 0.93292 0.0
C863 C 0.62652 0.63245 0.91365 0.0
C864 C 0.69938 0.64662 0.8842 0.0
C865 C 0.60749 0.61299 0.92673 0.0
C866 C 0.78173 0.74144 0.87706 0.0
C867 C 0.76481 0.71713 0.8835 0.0
C868 C 0.69518 0.69628 0.91886 0.0
C869 C 0.65619 0.62537 0.91049 0.0
C870 C 0.67737 0.64882 0.90544 0.0
C871 C 0.7352 0.72037 0.89102 0.0
C872 C 0.71651 0.69486 0.89685 0.0
H873 H 0.65501 0.55688 0.93786 0.0
H874 H 0.68851 0.59117 0.91478 0.0
H875 H 0.65954 0.67552 0.9401 0.0
H876 H 0.72957 0.79375 0.8871 0.0
H877 H 0.70027 0.75176 0.89776 0.0
C878 C 0.78005 0.30673 0.14386 0.0
C879 C 0.7786 0.31934 0.17166 0.0
C880 C 0.7726 0.32288 0.11929 0.0
C881 C 0.72732 0.35511 0.0828 0.0
H882 H 0.74404 0.43671 0.07235 0.0
C883 C 0.64382 0.44315 0.06326 0.0
C884 C 0.64801 0.46322 0.04078 0.0
C885 C 0.66497 0.42217 0.06897 0.0
C886 C 0.73973 0.41375 0.07438 0.0
H887 H 0.77026 0.35918 0.19535 0.0
H888 H 0.75732 0.38738 0.15244 0.0
H889 H 0.77577 0.40681 0.10302 0.0
H890 H 0.67706 0.47707 0.0062 0.0
H891 H 0.71515 0.44085 0.01735 0.0
H892 H 0.68968 0.36275 0.05651 0.0
C893 C 0.76424 0.36504 0.14966 0.0
C894 C 0.75769 0.39676 0.09202 0.0
C895 C 0.77128 0.34882 0.17425 0.0
C896 C 0.67343 0.46165 0.0236 0.0
C897 C 0.69507 0.44106 0.02988 0.0
C898 C 0.70915 0.37219 0.06553 0.0
C899 C 0.76407 0.35201 0.12208 0.0
C900 C 0.75076 0.36767 0.09747 0.0
C901 C 0.69095 0.42133 0.05272 0.0
C902 C 0.7145 0.40188 0.06237 0.0
H903 H 0.78576 0.28406 0.14116 0.0
H904 H 0.77255 0.31239 0.09823 0.0
H905 H 0.72141 0.33279 0.08679 0.0
H906 H 0.62431 0.44389 0.07666 0.0
H907 H 0.6616 0.40738 0.08698 0.0
C908 C 0.93606 0.5225 0.42228 0.0
C909 C 0.91959 0.53502 0.44492 0.0
C910 C 0.92276 0.50496 0.40172 0.0
C911 C 0.85791 0.45903 0.39587 0.0
H912 H 0.88926 0.44452 0.31866 0.0
C913 C 0.81255 0.3718 0.31962 0.0
C914 C 0.83356 0.35155 0.30999 0.0
C915 C 0.82102 0.39743 0.33297 0.0
C916 C 0.88031 0.44848 0.34017 0.0
H917 H 0.87594 0.54133 0.46224 0.0
H918 H 0.85244 0.51172 0.42557 0.0
H919 H 0.90612 0.48627 0.34625 0.0
H920 H 0.87991 0.34258 0.30609 0.0
H921 H 0.89473 0.38782 0.32918 0.0
H922 H 0.83199 0.42131 0.38955 0.0
C923 C 0.87583 0.51443 0.42437 0.0
C924 C 0.88998 0.47227 0.35602 0.0
C925 C 0.88923 0.53155 0.44528 0.0
C926 C 0.86325 0.35771 0.31345 0.0
C927 C 0.87173 0.38363 0.3264 0.0
C928 C 0.84791 0.43562 0.37981 0.0
C929 C 0.89259 0.49996 0.40305 0.0
C930 C 0.87941 0.47742 0.38438 0.0
C931 C 0.85064 0.40351 0.33649 0.0
C932 C 0.85949 0.4298 0.35214 0.0
H933 H 0.95953 0.52475 0.42143 0.0
H934 H 0.9365 0.49401 0.3859 0.0
H935 H 0.84966 0.46184 0.4178 0.0
H936 H 0.78949 0.36765 0.3173 0.0
H937 H 0.80442 0.4125 0.34059 0.0
C938 C 0.58997 0.50383 0.42506 0.0
C939 C 0.56353 0.50927 0.41089 0.0
C940 C 0.61527 0.51773 0.41616 0.0
C941 C 0.64797 0.5647 0.35925 0.0
H942 H 0.69049 0.59521 0.42495 0.0
C943 C 0.72457 0.66189 0.3501 0.0
C944 C 0.7514 0.6606 0.36472 0.0
C945 C 0.70377 0.6405 0.3543 0.0
C946 C 0.67917 0.58648 0.40637 0.0
H947 H 0.54267 0.53207 0.37549 0.0
H948 H 0.587 0.55741 0.36021 0.0
H949 H 0.65036 0.56223 0.43335 0.0
H950 H 0.77722 0.63581 0.39547 0.0
H951 H 0.74045 0.59843 0.4031 0.0
H952 H 0.67637 0.58998 0.33239 0.0
C953 C 0.58834 0.54191 0.37785 0.0
C954 C 0.65618 0.5675 0.41113 0.0
C955 C 0.56298 0.52751 0.38653 0.0
C956 C 0.75675 0.63752 0.38398 0.0
C957 C 0.73575 0.61613 0.38832 0.0
C958 C 0.67092 0.58385 0.3545 0.0
C959 C 0.61452 0.53791 0.3933 0.0
C960 C 0.64013 0.55656 0.38766 0.0
C961 C 0.70916 0.61734 0.37332 0.0
C962 C 0.68651 0.59518 0.37806 0.0
H963 H 0.59081 0.48958 0.4438 0.0
H964 H 0.6352 0.51351 0.42798 0.0
H965 H 0.63629 0.5564 0.34071 0.0
H966 H 0.71961 0.67932 0.33509 0.0
H967 H 0.68327 0.64231 0.34287 0.0
C968 C 0.77699 0.41262 0.8738 0.0
C969 C 0.77599 0.38274 0.87951 0.0
C970 C 0.79206 0.43101 0.89224 0.0
C971 C 0.83181 0.43663 0.96194 0.0
H972 H 0.88687 0.4792 0.91437 0.0
C973 C 0.94342 0.47467 0.00347 0.0
C974 C 0.95549 0.49993 0.99153 0.0
C975 C 0.91679 0.46436 0.99349 0.0
C976 C 0.87133 0.4681 0.92815 0.0
H977 H 0.78751 0.3491 0.91043 0.0
H978 H 0.81442 0.38124 0.94243 0.0
H979 H 0.84683 0.45464 0.89149 0.0
H980 H 0.94828 0.53524 0.96118 0.0
H981 H 0.90149 0.51774 0.94437 0.0
H982 H 0.857 0.4497 -0.00137 0.0
C983 C 0.80336 0.39046 0.92381 0.0
C984 C 0.8483 0.45395 0.91497 0.0
C985 C 0.78804 0.37202 0.90542 0.0
C986 C 0.93978 0.51542 0.97043 0.0
C987 C 0.91299 0.50534 0.96076 0.0
C988 C 0.85486 0.45104 0.97524 0.0
C989 C 0.80664 0.41986 0.91661 0.0
C990 C 0.82856 0.43768 0.93162 0.0
C991 C 0.90152 0.4793 0.97162 0.0
C992 C 0.87518 0.46652 0.95838 0.0
H993 H 0.76741 0.42161 0.85427 0.0
H994 H 0.79369 0.45372 0.88653 0.0
H995 H 0.81681 0.42434 0.97529 0.0
H996 H 0.95503 0.46228 0.01981 0.0
H997 H 0.90882 0.44405 0.00209 0.0
C998 C 0.90318 0.81119 0.26329 0.0
C999 C 0.88094 0.8172 0.28355 0.0
C1000 C 0.90652 0.82853 0.23877 0.0
C1001 C 0.88997 0.89492 0.20044 0.0
H1002 H 0.87944 0.84337 0.13477 0.0
C1003 C 0.89456 0.93696 0.08251 0.0
C1004 C 0.91392 0.92095 0.06478 0.0
C1005 C 0.88491 0.92563 0.10904 0.0
C1006 C 0.88244 0.85806 0.15283 0.0
H1007 H 0.8471 0.84794 0.29606 0.0
H1008 H 0.8533 0.8787 0.25295 0.0
H1009 H 0.87797 0.82403 0.18403 0.0
H1010 H 0.9363 0.87962 0.05977 0.0
H1011 H 0.91965 0.86 0.10579 0.0
H1012 H 0.89578 0.92878 0.1691 0.0
C1013 C 0.86789 0.86039 0.25609 0.0
C1014 C 0.88163 0.84699 0.18097 0.0
C1015 C 0.86451 0.84292 0.28079 0.0
C1016 C 0.92153 0.89258 0.07298 0.0
C1017 C 0.91184 0.88127 0.09937 0.0
C1018 C 0.89112 0.90602 0.17212 0.0
C1019 C 0.88774 0.85222 0.23418 0.0
C1020 C 0.88618 0.86516 0.20492 0.0
C1021 C 0.89425 0.89803 0.11815 0.0
C1022 C 0.88815 0.8875 0.14801 0.0
H1023 H 0.9163 0.79163 0.26508 0.0
H1024 H 0.92234 0.8222 0.22231 0.0
H1025 H 0.89332 0.90928 0.21869 0.0
H1026 H 0.88823 0.95889 0.07677 0.0
H1027 H 0.87098 0.93885 0.12288 0.0
C1028 C 0.79236 0.21467 0.87609 0.0
C1029 C 0.78327 0.21883 0.84738 0.0
C1030 C 0.8002 0.18691 0.88577 0.0
C1031 C 0.80754 0.12467 0.90534 0.0
H1032 H 0.84626 0.07562 0.84834 0.0
C1033 C 0.86498 0.02032 0.94155 0.0
C1034 C 0.89303 0.01632 0.9297 0.0
C1035 C 0.84536 0.03975 0.92876 0.0
C1036 C 0.8356 0.08903 0.86461 0.0
H1037 H 0.77297 0.1975 0.80688 0.0
H1038 H 0.78477 0.1491 0.82408 0.0
H1039 H 0.82509 0.12128 0.83321 0.0
H1040 H 0.92182 0.02787 0.89405 0.0
H1041 H 0.88838 0.06245 0.87248 0.0
H1042 H 0.82045 0.09351 0.93716 0.0
C1043 C 0.78751 0.16709 0.83884 0.0
C1044 C 0.82295 0.11516 0.85584 0.0
C1045 C 0.78055 0.19481 0.829 0.0
C1046 C 0.90032 0.03044 0.90366 0.0
C1047 C 0.88097 0.05026 0.8912 0.0
C1048 C 0.82076 0.09877 0.91422 0.0
C1049 C 0.79829 0.16278 0.86707 0.0
C1050 C 0.80923 0.13367 0.87617 0.0
C1051 C 0.85364 0.05599 0.9042 0.0
C1052 C 0.8356 0.08095 0.89406 0.0
H1053 H 0.79456 0.23297 0.8906 0.0
H1054 H 0.80873 0.18464 0.90753 0.0
H1055 H 0.7966 0.13793 0.92154 0.0
H1056 H 0.85863 0.00935 0.96142 0.0
H1057 H 0.82418 0.04291 0.93886 0.0
C1058 C 0.71289 0.22576 0.70811 0.0
C1059 C 0.73914 0.24055 0.71199 0.0
C1060 C 0.7109 0.20427 0.68699 0.0
C1061 C 0.73584 0.18161 0.6173 0.0
H1062 H 0.70492 0.10718 0.64081 0.0
C1063 C 0.67656 0.07192 0.5709 0.0
C1064 C 0.65299 0.08646 0.55792 0.0
C1065 C 0.6988 0.08774 0.58387 0.0
C1066 C 0.71436 0.12748 0.63383 0.0
H1067 H 0.78359 0.24521 0.69629 0.0
H1068 H 0.77958 0.2081 0.65849 0.0
H1069 H 0.7199 0.14168 0.6777 0.0
H1070 H 0.63577 0.12836 0.54497 0.0
H1071 H 0.67458 0.15589 0.56721 0.0
H1072 H 0.72804 0.16827 0.57343 0.0
C1073 C 0.7609 0.21288 0.67227 0.0
C1074 C 0.7226 0.14729 0.65496 0.0
C1075 C 0.76312 0.23401 0.69382 0.0
C1076 C 0.65359 0.11672 0.5552 0.0
C1077 C 0.67598 0.13245 0.56767 0.0
C1078 C 0.72718 0.16189 0.59609 0.0
C1079 C 0.73492 0.19758 0.66907 0.0
C1080 C 0.73223 0.17489 0.64685 0.0
C1081 C 0.69791 0.11819 0.58349 0.0
C1082 C 0.71521 0.13515 0.60427 0.0
H1083 H 0.69414 0.23027 0.72186 0.0
H1084 H 0.69051 0.19291 0.68455 0.0
H1085 H 0.74328 0.20284 0.61067 0.0
H1086 H 0.67657 0.04856 0.57317 0.0
H1087 H 0.71556 0.0763 0.59589 0.0
C1088 C 0.58839 0.96041 0.43905 0.0
C1089 C 0.5979 0.98866 0.4441 0.0
C1090 C 0.60504 0.9416 0.42178 0.0
C1091 C 0.6824 0.9323 0.40142 0.0
H1092 H 0.65351 0.8627 0.36506 0.0
C1093 C 0.75578 0.83209 0.38733 0.0
C1094 C 0.75232 0.81469 0.36264 0.0
C1095 C 0.73601 0.85451 0.39333 0.0
C1096 C 0.66206 0.88219 0.37472 0.0
H1097 H 0.63056 0.02052 0.43366 0.0
H1098 H 0.65879 0.9884 0.40182 0.0
H1099 H 0.61961 0.9015 0.37782 0.0
H1100 H 0.72553 0.80722 0.32473 0.0
H1101 H 0.69168 0.84689 0.33463 0.0
H1102 H 0.72488 0.91347 0.39759 0.0
C1103 C 0.63915 0.98021 0.41194 0.0
C1104 C 0.64251 0.90436 0.38237 0.0
C1105 C 0.62281 -0.00122 0.42975 0.0
C1106 C 0.72863 0.82009 0.34412 0.0
C1107 C 0.70913 0.84281 0.34985 0.0
C1108 C 0.70194 0.9104 0.39335 0.0
C1109 C 0.63137 0.95091 0.40906 0.0
C1110 C 0.65232 0.92939 0.39654 0.0
C1111 C 0.71262 0.8604 0.37448 0.0
C1112 C 0.69197 0.88471 0.38065 0.0
H1113 H 0.56947 0.95213 0.45046 0.0
H1114 H 0.59838 0.91922 0.42042 0.0
H1115 H 0.69091 0.95096 0.41264 0.0
H1116 H 0.7737 0.82831 0.4021 0.0
H1117 H 0.73902 0.8671 0.4129 0.0
C1118 C 0.8513 0.2127 0.3721 0.0
C1119 C 0.83197 0.19948 0.35281 0.0
C1120 C 0.86666 0.19615 0.39227 0.0
C1121 C 0.87543 0.12313 0.42537 0.0
H1122 H 0.95722 0.14339 0.42213 0.0
C1123 C 0.97012 0.04635 0.45979 0.0
C1124 C 0.99465 0.05902 0.47257 0.0
C1125 C 0.94706 0.06369 0.4499 0.0
C1126 C 0.93442 0.13769 0.42379 0.0
H1127 H 0.81183 0.15897 0.34088 0.0
H1128 H 0.83942 0.12973 0.37575 0.0
H1129 H 0.92181 0.17351 0.39734 0.0
H1130 H 0.01331 0.09958 0.48681 0.0
H1131 H 0.973 0.12963 0.47006 0.0
H1132 H 0.88856 0.08669 0.45136 0.0
C1133 C 0.84237 0.15297 0.37554 0.0
C1134 C 0.91405 0.15501 0.40957 0.0
C1135 C 0.82663 0.16968 0.35553 0.0
C1136 C 0.99497 0.08917 0.47661 0.0
C1137 C 0.97189 0.10641 0.46695 0.0
C1138 C 0.89595 0.10568 0.4397 0.0
C1139 C 0.86342 0.16593 0.39327 0.0
C1140 C 0.88433 0.14798 0.41011 0.0
C1141 C 0.94805 0.09398 0.45277 0.0
C1142 C 0.92569 0.1128 0.43897 0.0
H1143 H 0.85544 0.23574 0.3708 0.0
H1144 H 0.88212 0.20688 0.40621 0.0
H1145 H 0.85266 0.11721 0.42622 0.0
H1146 H 0.96918 0.02316 0.45646 0.0
H1147 H 0.92909 0.05347 0.43889 0.0
C1148 C 0.74098 0.17929 0.18073 0.0
C1149 C 0.74329 0.17635 0.21108 0.0
C1150 C 0.71673 0.1687 0.1663 0.0
C1151 C 0.65521 0.12102 0.16641 0.0
H1152 H 0.6127 0.18611 0.13327 0.0
C1153 C 0.54406 0.10438 0.11301 0.0
C1154 C 0.53928 0.11931 0.08684 0.0
C1155 C 0.56714 0.1119 0.13099 0.0
C1156 C 0.62439 0.16762 0.14204 0.0
H1157 H 0.72373 0.15691 0.24946 0.0
H1158 H 0.6816 0.13769 0.2238 0.0
H1159 H 0.6592 0.19414 0.157 0.0
H1160 H 0.55392 0.15463 0.05951 0.0
H1161 H 0.59476 0.16718 0.09019 0.0
H1162 H 0.62126 0.09419 0.15042 0.0
C1163 C 0.69838 0.14876 0.21152 0.0
C1164 C 0.65094 0.17227 0.15569 0.0
C1165 C 0.72249 0.15974 0.22612 0.0
C1166 C 0.55697 0.14292 0.07971 0.0
C1167 C 0.58039 0.15011 0.0974 0.0
C1168 C 0.62887 0.11623 0.15223 0.0
C1169 C 0.69471 0.15448 0.18182 0.0
C1170 C 0.66661 0.149 0.16774 0.0
C1171 C 0.58625 0.13416 0.12286 0.0
C1172 C 0.61321 0.13948 0.13969 0.0
H1173 H 0.75669 0.19171 0.16836 0.0
H1174 H 0.71439 0.17297 0.14325 0.0
H1175 H 0.66704 0.10284 0.17566 0.0
H1176 H 0.53053 0.08622 0.11913 0.0
H1177 H 0.57045 0.0997 0.15083 0.0
C1178 C 0.763 0.91566 0.93473 0.0
C1179 C 0.78512 0.92579 0.91626 0.0
C1180 C 0.74513 0.93505 0.9498 0.0
C1181 C 0.71401 0.00619 0.93773 0.0
H1182 H 0.67209 0.98675 0.00844 0.0
C1183 C 0.60101 0.03672 0.0057 0.0
C1184 C 0.58174 0.03858 0.98212 0.0
C1185 C 0.63027 0.02943 0.00131 0.0
C1186 C 0.68375 0.99304 0.98892 0.0
H1187 H 0.80777 0.96393 0.90101 0.0
H1188 H 0.77619 -0.00179 0.9275 0.0
H1189 H 0.71866 0.96348 -0.00191 0.0
H1190 H 0.57823 0.03483 0.93533 0.0
H1191 H 0.62912 0.02087 0.92768 0.0
H1192 H 0.67884 0.03545 0.92834 0.0
C1193 C 0.77262 0.97519 0.9301 0.0
C1194 C 0.71042 0.97949 0.98291 0.0
C1195 C 0.79083 0.95562 0.91516 0.0
C1196 C 0.59253 0.03351 0.95393 0.0
C1197 C 0.6218 0.02581 0.94956 0.0
C1198 C 0.68739 0.01994 0.94386 0.0
C1199 C 0.74881 0.96507 0.94658 0.0
C1200 C 0.72519 0.98493 0.95664 0.0
C1201 C 0.64098 0.02341 0.97325 0.0
C1202 C 0.67137 0.01263 0.96894 0.0
H1203 H 0.75829 0.89273 0.93605 0.0
H1204 H 0.72692 0.92643 0.96206 0.0
H1205 H 0.72475 0.01081 0.91723 0.0
H1206 H 0.59353 0.04103 0.02768 0.0
H1207 H 0.64447 0.02835 0.01999 0.0
C1208 C -1e-05 0.96352 0.58578 0.0
C1209 C 0.03057 0.96211 0.58635 0.0
C1210 C 0.9838 0.96106 0.61137 0.0
C1211 C 0.9535 0.94019 0.66516 0.0
H1212 H 0.97866 0.97829 0.73572 0.0
C1213 C 0.91595 0.93259 0.78945 0.0
C1214 C 0.88583 0.93423 0.78437 0.0
C1215 C 0.93561 0.94155 0.76788 0.0
C1216 C 0.9715 0.96758 0.71613 0.0
H1217 H 0.06811 0.95618 0.61428 0.0
H1218 H 0.03963 0.95104 0.65901 0.0
H1219 H 0.00948 0.98003 0.69192 0.0
H1220 H 0.85249 0.94987 0.75503 0.0
H1221 H 0.88669 0.96611 0.71783 0.0
H1222 H 0.91551 0.92803 0.689 0.0
C1223 C 0.02829 0.95471 0.63875 0.0
C1224 C 0.98915 0.96835 0.69117 0.0
C1225 C 0.04456 0.95735 0.61308 0.0
C1226 C 0.87565 0.94817 0.75925 0.0
C1227 C 0.89519 0.95728 0.73794 0.0
C1228 C 0.93586 0.93969 0.68985 0.0
C1229 C -0.00228 0.95682 0.63819 0.0
C1230 C 0.98014 0.95488 0.66532 0.0
C1231 C 0.9252 0.95231 0.74127 0.0
C1232 C 0.94448 0.95365 0.71545 0.0
H1233 H 0.98847 0.96741 0.56565 0.0
H1234 H 0.96032 0.96325 0.61018 0.0
H1235 H 0.94625 0.92894 0.64592 0.0
H1236 H 0.92425 0.92175 0.80863 0.0
H1237 H 0.95869 0.93759 0.77095 0.0
C1238 C 0.17021 0.80851 0.80993 0.0
C1239 C 0.17964 0.77956 0.81079 0.0
C1240 C 0.14249 0.81623 0.82013 0.0
C1241 C 0.082 0.78923 0.86694 0.0
H1242 H 0.04585 0.85975 0.83834 0.0
C1243 C 0.98952 0.88311 0.89738 0.0
C1244 C -0.00462 0.88375 0.9273 0.0
C1245 C 0.00323 0.86257 0.87949 0.0
C1246 C 0.05494 0.83955 0.84628 0.0
H1247 H 0.16717 0.73573 0.82197 0.0
H1248 H 0.11831 0.74892 0.83859 0.0
H1249 H 0.08712 0.83928 0.81261 0.0
H1250 H 0.01751 0.86131 0.96239 0.0
H1251 H 0.04228 0.82679 0.93148 0.0
H1252 H 0.04909 0.78897 0.90003 0.0
C1253 C 0.13258 0.76594 0.83107 0.0
C1254 C 0.07925 0.82812 0.83179 0.0
C1255 C 0.16059 0.75834 0.82148 0.0
C1256 C 0.01278 0.86169 0.93935 0.0
C1257 C 0.02692 0.84159 0.92146 0.0
C1258 C 0.05718 0.80025 0.88101 0.0
C1259 C 0.12318 0.79506 0.83077 0.0
C1260 C 0.0941 0.80374 0.84283 0.0
C1261 C 0.02351 0.84266 0.89109 0.0
C1262 C 0.04433 0.8265 0.87187 0.0
H1263 H 0.18451 0.82532 0.80192 0.0
H1264 H 0.13656 0.83898 0.82023 0.0
H1265 H 0.09254 0.77028 0.87611 0.0
H1266 H 0.97558 0.89941 0.88754 0.0
H1267 H -0.00091 0.86334 0.85636 0.0
C1268 C 0.91537 0.47068 0.58704 0.0
C1269 C 0.94456 0.47795 0.58163 0.0
C1270 C 0.90868 0.44721 0.60504 0.0
C1271 C 0.90214 0.38898 0.63656 0.0
H1272 H 0.93784 0.39689 0.71239 0.0
C1273 C 0.86271 0.32155 0.73248 0.0
C1274 C 0.85037 0.3402 0.75344 0.0
C1275 C 0.88252 0.33218 0.71201 0.0
C1276 C 0.92816 0.39408 0.69117 0.0
H1277 H 0.9896 0.46503 0.58928 0.0
H1278 H 0.97773 0.42455 0.6209 0.0
H1279 H 0.95462 0.4269 0.67187 0.0
H1280 H 0.85153 0.38343 0.7717 0.0
H1281 H 0.88662 0.40179 0.73636 0.0
H1282 H 0.87478 0.35711 0.65621 0.0
C1283 C 0.96014 0.43708 0.61135 0.0
C1284 C 0.93774 0.41114 0.66802 0.0
C1285 C 0.96684 0.46028 0.59321 0.0
C1286 C 0.86057 0.36868 0.75563 0.0
C1287 C 0.88074 0.37913 0.73549 0.0
C1288 C 0.89286 0.37162 0.65961 0.0
C1289 C 0.93106 0.43082 0.61802 0.0
C1290 C 0.92413 0.40939 0.6408 0.0
C1291 C 0.89068 0.36138 0.71266 0.0
C1292 C 0.90513 0.37475 0.68732 0.0
H1293 H 0.89774 0.48376 0.57836 0.0
H1294 H 0.88603 0.44287 0.61005 0.0
H1295 H 0.89147 0.3872 0.61572 0.0
H1296 H 0.85524 0.29948 0.73028 0.0
H1297 H 0.89008 0.3181 0.69465 0.0
C1298 C 0.53353 0.15783 0.50047 0.0
C1299 C 0.52574 0.13141 0.4876 0.0
C1300 C 0.52568 0.18418 0.48761 0.0
C1301 C 0.49761 0.2159 0.4186 0.0
H1302 H 0.46746 0.27642 0.46916 0.0
C1303 C 0.40354 0.30718 0.4127 0.0
C1304 C 0.40627 0.31367 0.38309 0.0
C1305 C 0.42589 0.29221 0.42696 0.0
C1306 C 0.4758 0.25978 0.45469 0.0
H1307 H 0.50379 0.11196 0.45102 0.0
H1308 H 0.48924 0.15776 0.4291 0.0
H1309 H 0.49043 0.23367 0.49022 0.0
H1310 H 0.43523 0.31303 0.34578 0.0
H1311 H 0.47508 0.28859 0.37101 0.0
H1312 H 0.48094 0.24052 0.38322 0.0
C1313 C 0.50212 0.15825 0.44872 0.0
C1314 C 0.48934 0.23536 0.46678 0.0
C1315 C 0.51022 0.13191 0.46142 0.0
C1316 C 0.43265 0.3078 0.36863 0.0
C1317 C 0.45531 0.29359 0.38305 0.0
C1318 C 0.48373 0.24004 0.40656 0.0
C1319 C 0.50965 0.18474 0.4617 0.0
C1320 C 0.49944 0.21263 0.44889 0.0
C1321 C 0.45154 0.284 0.41188 0.0
C1322 C 0.47166 0.26184 0.42448 0.0
H1323 H 0.54578 0.1582 0.52051 0.0
H1324 H 0.53221 0.20411 0.49799 0.0
H1325 H 0.50589 0.19923 0.40412 0.0
H1326 H 0.38325 0.31147 0.42415 0.0
H1327 H 0.42193 0.28514 0.44906 0.0
C1328 C 0.63595 0.64161 0.07741 0.0
C1329 C 0.63947 0.61134 0.07843 0.0
C1330 C 0.65647 0.65958 0.09028 0.0
C1331 C 0.73156 0.66315 0.11621 0.0
H1332 H 0.69985 0.7115 0.17775 0.0
C1333 C 0.79842 0.69767 0.21477 0.0
C1334 C 0.78933 0.72185 0.23096 0.0
C1335 C 0.7833 0.6898 0.18979 0.0
C1336 C 0.70927 0.69891 0.16015 0.0
H1337 H 0.66776 0.57619 0.09258 0.0
H1338 H 0.70372 0.60767 0.11479 0.0
H1339 H 0.66707 0.6871 0.14502 0.0
H1340 H 0.75964 0.75855 0.2325 0.0
H1341 H 0.73435 0.74595 0.18798 0.0
H1342 H 0.77381 0.67474 0.13137 0.0
C1343 C 0.68506 0.6174 0.10411 0.0
C1344 C 0.69035 0.68478 0.14149 0.0
C1345 C 0.66432 0.59942 0.09172 0.0
C1346 C 0.76666 0.73949 0.22053 0.0
C1347 C 0.75208 0.73211 0.19516 0.0
C1348 C 0.75059 0.67775 0.13456 0.0
C1349 C 0.6811 0.64758 0.10382 0.0
C1350 C 0.70131 0.66609 0.12001 0.0
C1351 C 0.75925 0.70639 0.18026 0.0
C1352 C 0.73965 0.69504 0.15741 0.0
H1353 H 0.61704 0.65139 0.06724 0.0
H1354 H 0.65299 0.68282 0.08991 0.0
H1355 H 0.74044 0.64899 0.09954 0.0
H1356 H 0.81585 0.68373 0.2225 0.0
H1357 H 0.78938 0.66971 0.17917 0.0
C1358 C 0.25941 0.18095 0.72079 0.0
C1359 C 0.24625 0.19286 0.7458 0.0
C1360 C 0.24236 0.16995 0.69844 0.0
C1361 C 0.20096 0.16105 0.6481 0.0
H1362 H 0.13786 0.11019 0.67047 0.0
C1363 C 0.12962 0.10061 0.56436 0.0
C1364 C 0.12688 0.07085 0.57022 0.0
C1365 C 0.14123 0.11915 0.58527 0.0
C1366 C 0.15533 0.12447 0.66391 0.0
H1367 H 0.20479 0.20294 0.7667 0.0
H1368 H 0.17512 0.18374 0.72763 0.0
H1369 H 0.16457 0.13592 0.70784 0.0
H1370 H 0.13369 0.03735 0.60278 0.0
H1371 H 0.15382 0.06951 0.63889 0.0
H1372 H 0.19239 0.14854 0.60417 0.0
C1373 C 0.19863 0.18272 0.72547 0.0
C1374 C 0.17045 0.13939 0.68527 0.0
C1375 C 0.21566 0.19374 0.74783 0.0
C1376 C 0.13556 0.06013 0.59747 0.0
C1377 C 0.14686 0.0786 0.61832 0.0
C1378 C 0.18574 0.14616 0.62669 0.0
C1379 C 0.21181 0.1706 0.70061 0.0
C1380 C 0.19387 0.15731 0.67765 0.0
C1381 C 0.14992 0.10825 0.61245 0.0
C1382 C 0.16327 0.12717 0.63449 0.0
H1383 H 0.2829 0.17996 0.71849 0.0
H1384 H 0.25315 0.16033 0.67973 0.0
H1385 H 0.21866 0.17505 0.64158 0.0
H1386 H 0.12311 0.10951 0.54357 0.0
H1387 H 0.14331 0.14197 0.58026 0.0
C1388 C 0.67637 0.25173 0.31239 0.0
C1389 C 0.69445 0.27483 0.30416 0.0
C1390 C 0.64744 0.25694 0.32098 0.0
C1391 C 0.58993 0.31462 0.31908 0.0
H1392 H 0.55924 0.27558 0.38714 0.0
C1393 C 0.51951 0.34918 0.42268 0.0
C1394 C 0.50234 0.37055 0.40914 0.0
C1395 C 0.53403 0.32819 0.40614 0.0
C1396 C 0.56743 0.28673 0.36809 0.0
H1397 H 0.69654 0.32149 0.29914 0.0
H1398 H 0.6469 0.33064 0.31499 0.0
H1399 H 0.60489 0.25883 0.36541 0.0
H1400 H 0.48303 0.38383 0.36831 0.0
H1401 H 0.50726 0.34633 0.33952 0.0
H1402 H 0.55447 0.34425 0.32313 0.0
C1403 C 0.65449 0.30838 0.31388 0.0
C1404 C 0.59349 0.27685 0.35538 0.0
C1405 C 0.68316 0.30317 0.30507 0.0
C1406 C 0.49688 0.36819 0.37924 0.0
C1407 C 0.51095 0.34676 0.36273 0.0
C1408 C 0.56432 0.32483 0.33206 0.0
C1409 C 0.63611 0.28536 0.32167 0.0
C1410 C 0.60577 0.29164 0.33159 0.0
C1411 C 0.53134 0.32779 0.37567 0.0
C1412 C 0.55345 0.31194 0.35764 0.0
H1413 H 0.6844 0.2296 0.31173 0.0
H1414 H 0.6339 0.2387 0.32675 0.0
H1415 H 0.59819 0.32586 0.3001 0.0
H1416 H 0.52382 0.35008 0.44579 0.0
H1417 H 0.54934 0.31408 0.41718 0.0
C1418 C 0.472 0.97498 0.08814 0.0
C1419 C 0.45093 0.98691 0.0694 0.0
C1420 C 0.46429 0.95401 0.10857 0.0
C1421 C 0.43465 0.93103 0.16315 0.0
H1422 H 0.38053 0.86904 0.14768 0.0
C1423 C 0.35486 0.8847 0.24724 0.0
C1424 C 0.34832 0.85505 0.24621 0.0
C1425 C 0.37414 0.89671 0.22709 0.0
C1426 C 0.39606 0.88592 0.1523 0.0
H1427 H 0.40564 0.98498 0.05636 0.0
H1428 H 0.39223 0.9483 0.09209 0.0
H1429 H 0.40103 0.89661 0.10722 0.0
H1430 H 0.35855 0.81436 0.22457 0.0
H1431 H 0.39207 0.83551 0.18928 0.0
H1432 H 0.42884 0.92103 0.2083 0.0
C1433 C 0.4147 0.9552 0.09088 0.0
C1434 C 0.40754 0.90184 0.12917 0.0
C1435 C 0.42234 0.97634 0.07054 0.0
C1436 C 0.36295 0.83733 0.22585 0.0
C1437 C 0.38205 0.8494 0.20556 0.0
C1438 C 0.42299 0.91526 0.18629 0.0
C1439 C 0.43546 0.94436 0.11052 0.0
C1440 C 0.42639 0.92497 0.13445 0.0
C1441 C 0.38712 0.87933 0.20545 0.0
C1442 C 0.40307 0.89301 0.1811 0.0
H1443 H 0.49428 0.9825 0.08774 0.0
H1444 H 0.48075 0.94577 0.12328 0.0
H1445 H 0.44899 0.9489 0.16785 0.0
H1446 H 0.34411 0.8989 0.26277 0.0
H1447 H 0.37751 0.9199 0.22739 0.0
C1448 C 0.01721 0.66028 -0.00325 0.0
C1449 C 0.02792 0.6373 0.97962 0.0
C1450 C 0.0115 0.68735 0.98429 0.0
C1451 C 0.9944 0.71909 0.91304 0.0
H1452 H -0.00225 0.79162 0.95532 0.0
C1453 C 0.93973 0.8161 0.86403 0.0
C1454 C 0.91896 0.82857 0.88277 0.0
C1455 C 0.96283 0.79991 0.87519 0.0
C1456 C -0.00309 0.77157 0.94318 0.0
H1457 H 0.04264 0.6251 0.93641 0.0
H1458 H 0.03347 0.67243 0.91484 0.0
H1459 H 0.01969 0.7478 0.97617 0.0
H1460 H 0.90734 0.83683 0.92766 0.0
H1461 H 0.94722 0.80741 0.94745 0.0
H1462 H 0.97091 0.74215 0.88061 0.0
C1463 C 0.02857 0.66938 0.9377 0.0
C1464 C 0.00932 0.74644 0.95516 0.0
C1465 C 0.03382 0.64222 0.95004 0.0
C1466 C 0.92319 0.82725 0.91289 0.0
C1467 C 0.94609 0.81049 0.92414 0.0
C1468 C 0.98228 0.74407 0.90106 0.0
C1469 C 0.01676 0.69213 0.95451 0.0
C1470 C 0.00748 0.71974 0.94052 0.0
C1471 C 0.96502 0.7952 0.90529 0.0
C1472 C 0.98271 0.77047 0.91625 0.0
H1473 H 0.01255 0.65716 0.01965 0.0
H1474 H 0.002 0.70418 -0.00217 0.0
H1475 H 0.99197 0.69894 0.90134 0.0
H1476 H 0.93704 0.81733 0.84067 0.0
H1477 H 0.97769 0.78923 0.86016 0.0
C1478 C 0.48923 0.53586 0.1272 0.0
C1479 C 0.51796 0.52531 0.12524 0.0
C1480 C 0.47284 0.5317 0.1524 0.0
C1481 C 0.4372 0.49735 0.19409 0.0
H1482 H 0.46424 0.49671 0.27377 0.0
C1483 C 0.40429 0.43257 0.30196 0.0
C1484 C 0.37415 0.43281 0.29713 0.0
C1485 C 0.42218 0.452 0.28696 0.0
C1486 C 0.4564 0.49689 0.25162 0.0
H1487 H 0.55272 0.50363 0.14865 0.0
H1488 H 0.5235 0.49525 0.19262 0.0
H1489 H 0.49609 0.51507 0.23493 0.0
H1490 H 0.33844 0.45524 0.27618 0.0
H1491 H 0.36933 0.49023 0.2513 0.0
H1492 H 0.39827 0.47824 0.20996 0.0
C1493 C 0.51388 0.50722 0.17478 0.0
C1494 C 0.47463 0.50731 0.22942 0.0
C1495 C 0.53053 0.51181 0.14957 0.0
C1496 C 0.36173 0.45462 0.27991 0.0
C1497 C 0.37945 0.47444 0.26556 0.0
C1498 C 0.41916 0.48701 0.21606 0.0
C1499 C 0.48457 0.5164 0.17608 0.0
C1500 C 0.46521 0.50743 0.20038 0.0
C1501 C 0.40997 0.47205 0.2673 0.0
C1502 C 0.42851 0.48642 0.24508 0.0
H1503 H 0.47918 0.54696 0.10902 0.0
H1504 H 0.45057 0.5397 0.15299 0.0
H1505 H 0.4295 0.49634 0.17191 0.0
H1506 H 0.41421 0.41575 0.31514 0.0
H1507 H 0.44559 0.44957 0.28883 0.0
C1508 C 0.48979 0.64387 0.00607 0.0
C1509 C 0.48449 0.61416 0.00988 0.0
C1510 C 0.46788 0.66225 -0.00423 0.0
C1511 C 0.38928 0.66792 0.9779 0.0
H1512 H 0.41833 0.70712 0.90916 0.0
C1513 C 0.31799 0.69599 0.87911 0.0
C1514 C 0.32616 0.71927 0.86131 0.0
C1515 C 0.33449 0.6889 0.90358 0.0
C1516 C 0.40974 0.69707 0.92865 0.0
H1517 H 0.45136 0.58093 0.00823 0.0
H1518 H 0.41335 0.61295 0.98975 0.0
H1519 H 0.45239 0.68492 0.94239 0.0
H1520 H 0.35595 0.75511 0.85637 0.0
H1521 H 0.38394 0.74359 0.89963 0.0
H1522 H 0.34642 0.67947 0.96348 0.0
C1523 C 0.43435 0.62206 -0.00509 0.0
C1524 C 0.42938 0.68427 0.94775 0.0
C1525 C 0.45625 0.60366 0.00523 0.0
C1526 C 0.34966 0.73662 0.86943 0.0
C1527 C 0.3657 0.72996 0.89417 0.0
C1528 C 0.36952 0.68101 0.95883 0.0
C1529 C 0.44029 0.65129 0.98908 0.0
C1530 C 0.41936 0.66892 0.97214 0.0
C1531 C 0.35905 0.70535 0.91089 0.0
C1532 C 0.37955 0.69508 0.93357 0.0
H1533 H 0.51118 0.65276 0.00988 0.0
H1534 H 0.47289 0.68481 0.99182 0.0
H1535 H 0.38103 0.65636 -0.00331 0.0
H1536 H 0.29985 0.68239 0.87328 0.0
H1537 H 0.32887 0.66965 0.91579 0.0
C1538 C 0.0323 0.56943 0.64766 0.0
C1539 C 0.02618 0.59359 0.62996 0.0
C1540 C 0.04884 0.57238 0.67273 0.0
C1541 C 0.10574 0.58181 0.70343 0.0
H1542 H 0.10867 0.65101 0.75085 0.0
C1543 C 0.20886 0.64011 0.73212 0.0
C1544 C 0.21064 0.65592 0.75803 0.0
C1545 C 0.1843 0.62367 0.72635 0.0
C1546 C 0.10782 0.63113 0.73842 0.0
H1547 H 0.03068 0.64011 0.62584 0.0
H1548 H 0.06023 0.64523 0.66936 0.0
H1549 H 0.06516 0.6412 0.72251 0.0
H1550 H 0.18947 0.66503 0.79939 0.0
H1551 H 0.14608 0.63661 0.78895 0.0
H1552 H 0.14905 0.57265 0.71801 0.0
C1553 C 0.05192 0.62403 0.66402 0.0
C1554 C 0.08305 0.62572 0.72193 0.0
C1555 C 0.03519 0.6211 0.63895 0.0
C1556 C 0.18863 0.653 0.77922 0.0
C1557 C 0.16377 0.63687 0.77324 0.0
C1558 C 0.13051 0.58727 0.71983 0.0
C1559 C 0.05973 0.59952 0.68059 0.0
C1560 C 0.08236 0.60174 0.70323 0.0
C1561 C 0.16092 0.62308 0.74624 0.0
C1562 C 0.13231 0.6127 0.73633 0.0
H1563 H 0.02514 0.54798 0.64164 0.0
H1564 H 0.05411 0.55321 0.68533 0.0
H1565 H 0.10597 0.56317 0.68916 0.0
H1566 H 0.22564 0.64187 0.71553 0.0
H1567 H 0.18262 0.61346 0.70524 0.0
C1568 C 0.36709 0.28566 0.72358 0.0
C1569 C 0.35276 0.29916 0.74704 0.0
C1570 C 0.37194 0.30071 0.69782 0.0
C1571 C 0.37379 0.37319 0.66446 0.0
H1572 H 0.3611 0.32894 0.59403 0.0
C1573 C 0.38962 0.42311 0.55101 0.0
C1574 C 0.41041 0.40759 0.53453 0.0
C1575 C 0.37682 0.41049 0.5755 0.0
C1576 C 0.36454 0.34156 0.61353 0.0
H1577 H 0.33356 0.33938 0.76261 0.0
H1578 H 0.34179 0.36579 0.71717 0.0
H1579 H 0.35194 0.30668 0.64127 0.0
H1580 H 0.4323 0.36607 0.5292 0.0
H1581 H 0.40957 0.34391 0.57164 0.0
H1582 H 0.38671 0.40797 0.63651 0.0
C1583 C 0.34943 0.34359 0.71885 0.0
C1584 C 0.35955 0.32881 0.64055 0.0
C1585 C 0.3448 0.32853 0.74486 0.0
C1586 C 0.41647 0.37857 0.54162 0.0
C1587 C 0.40337 0.36585 0.56581 0.0
C1588 C 0.37856 0.38603 0.63736 0.0
C1589 C 0.36227 0.3295 0.69481 0.0
C1590 C 0.36494 0.3442 0.6663 0.0
C1591 C 0.38424 0.38203 0.58352 0.0
C1592 C 0.37467 0.37006 0.61172 0.0
H1593 H 0.3738 0.26312 0.72483 0.0
H1594 H 0.38276 0.28955 0.68001 0.0
H1595 H 0.37821 0.38554 0.6839 0.0
H1596 H 0.38456 0.44555 0.54608 0.0
H1597 H 0.36192 0.42326 0.58875 0.0
C1598 C 0.20556 0.74313 0.20791 0.0
C1599 C 0.23455 0.74978 0.21455 0.0
C1600 C 0.19927 0.72543 0.18431 0.0
C1601 C 0.19071 0.70157 0.12434 0.0
H1602 H 0.23419 0.6301 0.11216 0.0
C1603 C 0.1492 0.62212 0.042 0.0
C1604 C 0.14657 0.59392 0.05289 0.0
C1605 C 0.1681 0.64153 0.05505 0.0
C1606 C 0.22193 0.65004 0.1152 0.0
H1607 H 0.27971 0.74305 0.2015 0.0
H1608 H 0.26858 0.71233 0.16006 0.0
H1609 H 0.24953 0.66389 0.14976 0.0
H1610 H 0.1627 0.56285 0.08424 0.0
H1611 H 0.19481 0.5971 0.10819 0.0
H1612 H 0.16197 0.68723 0.09143 0.0
C1613 C 0.2508 0.72062 0.17334 0.0
C1614 C 0.23085 0.6695 0.13656 0.0
C1615 C 0.25712 0.73831 0.19702 0.0
C1616 C 0.16469 0.58454 0.07546 0.0
C1617 C 0.18312 0.60419 0.08905 0.0
C1618 C 0.18171 0.68214 0.10321 0.0
C1619 C 0.2218 0.71406 0.16671 0.0
C1620 C 0.21478 0.69506 0.14187 0.0
C1621 C 0.18386 0.63333 0.0799 0.0
C1622 C 0.19675 0.65578 0.09883 0.0
H1623 H 0.18768 0.75146 0.22104 0.0
H1624 H 0.17671 0.7203 0.18009 0.0
H1625 H 0.17823 0.72137 0.12753 0.0
H1626 H 0.13541 0.62961 0.02444 0.0
H1627 H 0.16883 0.66353 0.04689 0.0
C1628 C 0.67161 0.38914 0.73056 0.0
C1629 C 0.70213 0.3878 0.73084 0.0
C1630 C 0.65717 0.40383 0.70841 0.0
C1631 C 0.63274 0.44506 0.66271 0.0
H1632 H 0.65175 0.41042 0.58803 0.0
C1633 C 0.56828 0.47108 0.55892 0.0
C1634 C 0.55806 0.44666 0.54396 0.0
C1635 C 0.58909 0.46809 0.58063 0.0
C1636 C 0.64638 0.42038 0.60871 0.0
H1637 H 0.74175 0.40159 0.70928 0.0
H1638 H 0.71624 0.42678 0.66959 0.0
H1639 H 0.68325 0.40113 0.62983 0.0
H1640 H 0.56218 0.40003 0.53963 0.0
H1641 H 0.59887 0.39483 0.57773 0.0
H1642 H 0.59536 0.46351 0.64192 0.0
C1643 C 0.70364 0.41683 0.68686 0.0
C1644 C 0.66453 0.41539 0.63247 0.0
C1645 C 0.71815 0.40265 0.70952 0.0
C1646 C 0.56953 0.4192 0.55085 0.0
C1647 C 0.59066 0.41626 0.57243 0.0
C1648 C 0.61483 0.45037 0.63889 0.0
C1649 C 0.67304 0.41688 0.68583 0.0
C1650 C 0.65739 0.42705 0.65981 0.0
C1651 C 0.60037 0.44068 0.58767 0.0
C1652 C 0.62108 0.43744 0.6119 0.0
H1653 H 0.6589 0.37774 0.74682 0.0
H1654 H 0.63357 0.40333 0.70793 0.0
H1655 H 0.62679 0.45415 0.68365 0.0
H1656 H 0.55993 0.49259 0.55417 0.0
H1657 H 0.59635 0.48724 0.59197 0.0
C1658 C 0.89632 0.62503 0.313 0.0
C1659 C 0.90353 0.6545 0.31161 0.0
C1660 C 0.91419 0.60432 0.29932 0.0
C1661 C 0.98508 0.59451 0.25996 0.0
H1662 H 0.93777 0.556 0.20249 0.0
C1663 C 0.02053 0.58112 0.14188 0.0
C1664 C 0.01316 0.55601 0.1265 0.0
C1665 C 0.01099 0.58505 0.17047 0.0
C1666 C 0.95142 0.56595 0.21872 0.0
H1667 H 0.93631 0.68519 0.29786 0.0
H1668 H 0.96734 0.64942 0.27427 0.0
H1669 H 0.91474 0.5763 0.24572 0.0
H1670 H 0.9904 0.51504 0.12931 0.0
H1671 H 0.97341 0.52222 0.17922 0.0
H1672 H 0.02147 0.58586 0.2318 0.0
C1673 C 0.94806 0.64201 0.28567 0.0
C1674 C 0.93822 0.57749 0.24362 0.0
C1675 C 0.93011 0.66261 0.29893 0.0
C1676 C -0.00366 0.53473 0.1405 0.0
C1677 C 0.98663 0.53877 0.16907 0.0
C1678 C -0.00174 0.58306 0.23501 0.0
C1679 C 0.93965 0.61285 0.28452 0.0
C1680 C 0.9547 0.59321 0.26372 0.0
C1681 C 0.99376 0.56404 0.18429 0.0
C1682 C 0.9813 0.56996 0.21349 0.0
H1683 H 0.87592 0.61826 0.32274 0.0
H1684 H 0.90731 0.58195 0.29895 0.0
H1685 H -0.00161 0.60609 0.27536 0.0
H1686 H 0.03356 0.59787 0.13183 0.0
H1687 H 0.01637 0.60502 0.18146 0.0
C1688 C 0.89386 0.66492 0.57202 0.0
C1689 C 0.89011 0.6348 0.57305 0.0
C1690 C 0.87637 0.6832 0.5888 0.0
C1691 C 0.83908 0.68039 0.65866 0.0
H1692 H 0.82999 0.76242 0.64254 0.0
C1693 C 0.81782 0.79684 0.72219 0.0
C1694 C 0.83481 0.791 0.74686 0.0
C1695 C 0.81631 0.77674 0.69959 0.0
C1696 C 0.83174 0.73953 0.64748 0.0
H1697 H 0.86332 0.60028 0.59014 0.0
H1698 H 0.83225 0.63247 0.61962 0.0
H1699 H 0.83737 0.72878 0.6026 0.0
H1700 H 0.86389 0.75974 0.76701 0.0
H1701 H 0.86247 0.72536 0.72711 0.0
H1702 H 0.83335 0.6911 0.70351 0.0
C1703 C 0.84913 0.64186 0.60611 0.0
C1704 C 0.83627 0.72023 0.62452 0.0
C1705 C 0.86672 0.62344 0.5891 0.0
C1706 C 0.85054 0.76482 0.74832 0.0
C1707 C 0.84938 0.74493 0.72556 0.0
C1708 C 0.8341 0.69963 0.68158 0.0
C1709 C 0.85463 0.67182 0.60707 0.0
C1710 C 0.84154 0.69066 0.62996 0.0
C1711 C 0.83209 0.75051 0.70098 0.0
C1712 C 0.83184 0.72961 0.6764 0.0
H1713 H 0.91152 0.6743 0.55952 0.0
H1714 H 0.88156 0.70603 0.58906 0.0
H1715 H 0.84306 0.6578 0.66376 0.0
H1716 H 0.8051 0.81668 0.72061 0.0
H1717 H 0.80252 0.78167 0.6812 0.0
C1718 C 0.37499 0.51303 0.4074 0.0
C1719 C 0.40153 0.50266 0.39579 0.0
C1720 C 0.3596 0.5351 0.39339 0.0
C1721 C 0.37899 0.59728 0.34933 0.0
H1722 H 0.2968 0.61628 0.35682 0.0
C1723 C 0.33198 0.7085 0.31646 0.0
C1724 C 0.31104 0.72114 0.33511 0.0
C1725 C 0.3414 0.68005 0.32071 0.0
C1726 C 0.31983 0.61128 0.35478 0.0
H1727 H 0.43027 0.50404 0.35813 0.0
H1728 H 0.40301 0.54227 0.3334 0.0
H1729 H 0.31353 0.56659 0.36554 0.0
H1730 H 0.28415 0.71397 0.37337 0.0
H1731 H 0.3011 0.66417 0.38113 0.0
H1732 H 0.38548 0.64197 0.33934 0.0
C1733 C 0.39472 0.53405 0.35389 0.0
C1734 C 0.32937 0.58283 0.35956 0.0
C1735 C 0.41024 0.51201 0.36798 0.0
C1736 C 0.30037 0.7049 0.35869 0.0
C1737 C 0.30979 0.67629 0.3629 0.0
C1738 C 0.36946 0.62563 0.3445 0.0
C1739 C 0.37031 0.54706 0.36738 0.0
C1740 C 0.35915 0.57564 0.35741 0.0
C1741 C 0.33015 0.6635 0.34372 0.0
C1742 C 0.33987 0.63305 0.34767 0.0
H1743 H 0.36733 0.50591 0.42854 0.0
H1744 H 0.34081 0.54447 0.40437 0.0
H1745 H 0.40217 0.59272 0.34815 0.0
H1746 H 0.34068 0.72036 0.29805 0.0
H1747 H 0.35697 0.67077 0.30547 0.0
C1748 C 0.20592 0.31848 0.83433 0.0
C1749 C 0.23561 0.32175 0.84077 0.0
C1750 C 0.18668 0.34205 0.83652 0.0
C1751 C 0.1846 0.42246 0.84426 0.0
H1752 H 0.11249 0.40808 0.88601 0.0
C1753 C 0.13267 0.49916 0.92617 0.0
C1754 C 0.10225 0.50045 0.92931 0.0
C1755 C 0.14546 0.48158 0.90497 0.0
C1756 C 0.13213 0.41246 0.87362 0.0
H1757 H 0.26841 0.35235 0.85436 0.0
H1758 H 0.23486 0.39303 0.8591 0.0
H1759 H 0.14204 0.36739 0.86922 0.0
H1760 H 0.06121 0.48613 0.91154 0.0
H1761 H 0.08376 0.45461 0.87472 0.0
H1762 H 0.17554 0.46762 0.85071 0.0
C1763 C 0.22647 0.37254 0.85157 0.0
C1764 C 0.14914 0.3891 0.86402 0.0
C1765 C 0.24569 0.34908 0.8492 0.0
C1766 C 0.08475 0.4855 0.90952 0.0
C1767 C 0.0976 0.46744 0.88856 0.0
C1768 C 0.1677 0.44581 0.85411 0.0
C1769 C 0.19672 0.36931 0.84536 0.0
C1770 C 0.17615 0.39385 0.85031 0.0
C1771 C 0.12807 0.46462 0.8868 0.0
C1772 C 0.14191 0.44096 0.86988 0.0
H1773 H 0.19751 0.29776 0.82746 0.0
H1774 H 0.16395 0.33889 0.83135 0.0
H1775 H 0.20494 0.42683 0.83307 0.0
H1776 H 0.14663 0.51066 0.94104 0.0
H1777 H 0.16901 0.47964 0.9043 0.0
C1778 C 0.22981 0.3826 0.4091 0.0
C1779 C 0.2576 0.39272 0.40144 0.0
C1780 C 0.21061 0.39995 0.42516 0.0
C1781 C 0.19288 0.47588 0.43752 0.0
H1782 H 0.14028 0.44468 0.49574 0.0
C1783 C 0.0903 0.51289 0.51674 0.0
C1784 C 0.0725 0.52724 0.49639 0.0
C1785 C 0.11601 0.49905 0.50794 0.0
C1786 C 0.15502 0.45389 0.4798 0.0
H1787 H 0.28757 0.4285 0.40574 0.0
H1788 H 0.25376 0.45899 0.43385 0.0
H1789 H 0.18053 0.4149 0.47754 0.0
H1790 H 0.06841 0.53914 0.45095 0.0
H1791 H 0.11328 0.51458 0.43551 0.0
H1792 H 0.16701 0.51475 0.43948 0.0
C1793 C 0.24692 0.43761 0.42724 0.0
C1794 C 0.17793 0.43674 0.46923 0.0
C1795 C 0.26631 0.42008 0.41137 0.0
C1796 C 0.08157 0.52824 0.46716 0.0
C1797 C 0.10737 0.51432 0.45835 0.0
C1798 C 0.16984 0.49303 0.44802 0.0
C1799 C 0.21868 0.42791 0.43378 0.0
C1800 C 0.19678 0.44736 0.44762 0.0
C1801 C 0.12458 0.49916 0.47859 0.0
C1802 C 0.15041 0.48204 0.46895 0.0
H1803 H 0.22248 0.36158 0.40187 0.0
H1804 H 0.18892 0.39196 0.42965 0.0
H1805 H 0.20692 0.48455 0.42067 0.0
H1806 H 0.08419 0.51194 0.5395 0.0
H1807 H 0.12904 0.48795 0.52413 0.0
loop_
_geom_bond_atom_site_label_1
_geom_bond_atom_site_label_2
_geom_bond_distance
_geom_bond_site_symmetry_2
_ccdc_geom_bond_type
O0 Zn1 1.954 . S
O0 C16 1.223 1_554 S
Zn1 O0 1.954 . S
Zn1 O2 1.953 1_545 S
Zn1 O8 1.919 1_455 S
Zn1 O13 1.924 . S
O2 Zn1 1.953 1_565 S
O2 Zn3 1.893 1_465 S
O2 Zn4 1.955 1_564 S
O2 Zn5 1.966 . S
Zn3 O2 1.893 1_645 S
Zn3 O6 1.933 1_545 S
Zn3 O9 1.941 . S
Zn3 O10 1.965 1_554 S
Zn4 O2 1.955 1_546 S
Zn4 O11 1.938 1_455 S
Zn4 O12 1.906 1_545 S
Zn4 O22 1.953 . S
Zn5 O2 1.966 . S
Zn5 O7 1.932 1_455 S
Zn5 O14 1.977 1_554 S
Zn5 O15 1.910 . S
O6 Zn3 1.933 1_565 S
O6 C17 1.226 . S
O7 Zn5 1.932 1_655 S
O7 C17 1.307 . S
O8 Zn1 1.919 1_655 S
O8 C19 1.253 . S
O9 Zn3 1.941 . S
O9 C19 1.283 . S
O10 Zn3 1.965 1_556 S
O10 C18 1.303 . S
O11 Zn4 1.938 1_655 S
O11 C18 1.247 . S
O12 Zn4 1.906 1_565 S
O12 C20 1.304 . S
O13 Zn1 1.924 . S
O13 C21 1.311 1_545 S
O14 Zn5 1.977 1_556 S
O14 C20 1.272 . S
O15 Zn5 1.910 . S
O15 C21 1.231 . S
C16 O0 1.223 1_556 S
C16 O22 1.298 . S
C17 O6 1.226 . S
C17 O7 1.307 . S
C18 O10 1.303 . S
C18 O11 1.247 . S
C19 O8 1.253 . S
C19 O9 1.283 . S
C20 O12 1.304 . S
C20 O14 1.272 . S
C21 O13 1.311 1_565 S
C21 O15 1.231 . S
O22 Zn4 1.953 . S
O22 C16 1.298 . S
O23 Zn24 1.953 . S
O23 C39 1.225 . S
Zn24 O23 1.953 . S
Zn24 O25 1.949 . S
Zn24 O31 1.919 . S
Zn24 O36 1.924 . S
O25 Zn24 1.949 . S
O25 Zn26 1.923 . S
O25 Zn27 1.950 . S
O25 Zn28 1.945 . S
Zn26 O25 1.923 . S
Zn26 O29 1.933 . S
Zn26 O32 1.941 . S
Zn26 O33 1.965 . S
Zn27 O25 1.950 . S
Zn27 O34 1.938 . S
Zn27 O35 1.906 . S
Zn27 O45 1.953 . S
Zn28 O25 1.945 . S
Zn28 O30 1.932 . S
Zn28 O37 1.977 . S
Zn28 O38 1.910 . S
O29 Zn26 1.933 . S
O29 C40 1.226 . S
O30 Zn28 1.932 . S
O30 C40 1.307 . S
O31 Zn24 1.919 . S
O31 C42 1.253 . S
O32 Zn26 1.941 . S
O32 C42 1.283 . S
O33 Zn26 1.965 . S
O33 C41 1.303 . S
O34 Zn27 1.938 . S
O34 C41 1.247 . S
O35 Zn27 1.906 . S
O35 C43 1.304 . S
O36 Zn24 1.924 . S
O36 C44 1.311 . S
O37 Zn28 1.977 . S
O37 C43 1.272 . S
O38 Zn28 1.910 . S
O38 C44 1.231 . S
C39 O23 1.225 . S
C39 O45 1.298 . S
C40 O29 1.226 . S
C40 O30 1.307 . S
C41 O33 1.303 . S
C41 O34 1.247 . S
C42 O31 1.253 . S
C42 O32 1.283 . S
C43 O35 1.304 . S
C43 O37 1.272 . S
C44 O36 1.311 . S
C44 O38 1.231 . S
O45 Zn27 1.953 . S
O45 C39 1.298 . S
O46 Zn47 1.932 1_565 S
O46 C62 1.223 1_565 S
Zn47 O46 1.932 1_545 S
Zn47 O48 1.949 . S
Zn47 O54 1.919 . S
Zn47 O59 1.924 . S
O48 Zn47 1.949 . S
O48 Zn49 1.923 . S
O48 Zn50 1.950 . S
O48 Zn51 1.945 . S
Zn49 O48 1.923 . S
Zn49 O52 1.933 . S
Zn49 O55 1.941 . S
Zn49 O56 1.965 . S
Zn50 O48 1.950 . S
Zn50 O57 1.938 . S
Zn50 O58 1.906 . S
Zn50 O68 1.953 . S
Zn51 O48 1.945 . S
Zn51 O53 1.932 . S
Zn51 O60 1.977 . S
Zn51 O61 1.910 . S
O52 Zn49 1.933 . S
O52 C63 1.226 . S
O53 Zn51 1.932 . S
O53 C63 1.307 . S
O54 Zn47 1.919 . S
O54 C65 1.253 . S
O55 Zn49 1.941 . S
O55 C65 1.283 . S
O56 Zn49 1.965 . S
O56 C64 1.303 . S
O57 Zn50 1.938 . S
O57 C64 1.247 . S
O58 Zn50 1.906 . S
O58 C66 1.304 . S
O59 Zn47 1.924 . S
O59 C67 1.311 . S
O60 Zn51 1.977 . S
O60 C66 1.272 . S
O61 Zn51 1.910 . S
O61 C67 1.231 . S
C62 O46 1.223 1_545 S
C62 O68 1.298 . S
C63 O52 1.226 . S
C63 O53 1.307 . S
C64 O56 1.303 . S
C64 O57 1.247 . S
C65 O54 1.253 . S
C65 O55 1.283 . S
C66 O58 1.304 . S
C66 O60 1.272 . S
C67 O59 1.311 . S
C67 O61 1.231 . S
O68 Zn50 1.953 . S
O68 C62 1.298 . S
O69 Zn70 1.953 . S
O69 C85 1.225 . S
Zn70 O69 1.953 . S
Zn70 O71 1.949 . S
Zn70 O77 1.919 . S
Zn70 O82 1.924 . S
O71 Zn70 1.949 . S
O71 Zn72 1.923 . S
O71 Zn73 1.950 . S
O71 Zn74 1.945 . S
Zn72 O71 1.923 . S
Zn72 O75 1.933 . S
Zn72 O78 1.941 . S
Zn72 O79 1.965 . S
Zn73 O71 1.950 . S
Zn73 O80 1.938 . S
Zn73 O81 1.906 . S
Zn73 O91 1.953 . S
Zn74 O71 1.945 . S
Zn74 O76 1.932 . S
Zn74 O83 1.977 . S
Zn74 O84 1.910 . S
O75 Zn72 1.933 . S
O75 C86 1.226 . S
O76 Zn74 1.932 . S
O76 C86 1.307 . S
O77 Zn70 1.919 . S
O77 C88 1.253 . S
O78 Zn72 1.941 . S
O78 C88 1.283 . S
O79 Zn72 1.965 . S
O79 C87 1.303 . S
O80 Zn73 1.938 . S
O80 C87 1.247 . S
O81 Zn73 1.906 . S
O81 C89 1.304 . S
O82 Zn70 1.924 . S
O82 C90 1.311 . S
O83 Zn74 1.977 . S
O83 C89 1.272 . S
O84 Zn74 1.910 . S
O84 C90 1.231 . S
C85 O69 1.225 . S
C85 O91 1.298 . S
C86 O75 1.226 . S
C86 O76 1.307 . S
C87 O79 1.303 . S
C87 O80 1.247 . S
C88 O77 1.253 . S
C88 O78 1.283 . S
C89 O81 1.304 . S
C89 O83 1.272 . S
C90 O82 1.311 . S
C90 O84 1.231 . S
O91 Zn73 1.953 . S
O91 C85 1.298 . S
O92 Zn93 1.953 1_565 S
O92 C108 1.225 . S
Zn93 O92 1.953 1_545 S
Zn93 O94 1.949 . S
Zn93 O100 1.919 . S
Zn93 O105 1.924 1_545 S
O94 Zn93 1.949 . S
O94 Zn95 1.923 . S
O94 Zn96 1.950 . S
O94 Zn97 1.945 . S
Zn95 O94 1.923 . S
Zn95 O98 1.933 . S
Zn95 O101 1.941 . S
Zn95 O102 1.965 . S
Zn96 O94 1.950 . S
Zn96 O103 1.938 1_455 S
Zn96 O104 1.906 1_455 S
Zn96 O114 1.953 1_545 S
Zn97 O94 1.945 . S
Zn97 O99 1.932 . S
Zn97 O106 1.977 . S
Zn97 O107 1.910 1_545 S
O98 Zn95 1.933 . S
O98 C109 1.226 . S
O99 Zn97 1.932 . S
O99 C109 1.307 . S
O100 Zn93 1.919 . S
O100 C111 1.253 . S
O101 Zn95 1.941 . S
O101 C111 1.283 . S
O102 Zn95 1.965 . S
O102 C110 1.303 1_455 S
O103 Zn96 1.938 1_655 S
O103 C110 1.247 . S
O104 Zn96 1.906 1_655 S
O104 C112 1.304 1_655 S
O105 Zn93 1.924 1_565 S
O105 C113 1.311 . S
O106 Zn97 1.977 . S
O106 C112 1.272 . S
O107 Zn97 1.910 1_565 S
O107 C113 1.231 . S
C108 O92 1.225 . S
C108 O114 1.298 . S
C109 O98 1.226 . S
C109 O99 1.307 . S
C110 O102 1.303 1_655 S
C110 O103 1.247 . S
C111 O100 1.253 . S
C111 O101 1.283 . S
C112 O104 1.304 1_455 S
C112 O106 1.272 . S
C113 O105 1.311 . S
C113 O107 1.231 . S
O114 Zn96 1.953 1_565 S
O114 C108 1.298 . S
O115 Zn116 1.953 . S
O115 C131 1.225 . S
Zn116 O115 1.953 . S
Zn116 O117 1.949 . S
Zn116 O123 1.919 . S
Zn116 O128 1.924 . S
O117 Zn116 1.949 . S
O117 Zn118 1.923 . S
O117 Zn119 1.950 . S
O117 Zn120 1.945 . S
Zn118 O117 1.923 . S
Zn118 O121 1.933 . S
Zn118 O124 1.941 . S
Zn118 O125 1.965 . S
Zn119 O117 1.950 . S
Zn119 O126 1.938 . S
Zn119 O127 1.906 . S
Zn119 O137 1.953 . S
Zn120 O117 1.945 . S
Zn120 O122 1.932 . S
Zn120 O129 1.977 . S
Zn120 O130 1.910 . S
O121 Zn118 1.933 . S
O121 C132 1.226 . S
O122 Zn120 1.932 . S
O122 C132 1.307 . S
O123 Zn116 1.919 . S
O123 C134 1.253 . S
O124 Zn118 1.941 . S
O124 C134 1.283 . S
O125 Zn118 1.965 . S
O125 C133 1.303 . S
O126 Zn119 1.938 . S
O126 C133 1.247 . S
O127 Zn119 1.906 . S
O127 C135 1.304 . S
O128 Zn116 1.924 . S
O128 C136 1.311 . S
O129 Zn120 1.977 . S
O129 C135 1.272 . S
O130 Zn120 1.910 . S
O130 C136 1.231 . S
C131 O115 1.225 . S
C131 O137 1.298 . S
C132 O121 1.226 . S
C132 O122 1.307 . S
C133 O125 1.303 . S
C133 O126 1.247 . S
C134 O123 1.253 . S
C134 O124 1.283 . S
C135 O127 1.304 . S
C135 O129 1.272 . S
C136 O128 1.311 . S
C136 O130 1.231 . S
O137 Zn119 1.953 . S
O137 C131 1.298 . S
O138 Zn139 1.953 . S
O138 C154 1.225 . S
Zn139 O138 1.953 . S
Zn139 O140 1.949 . S
Zn139 O146 1.919 1_545 S
Zn139 O151 1.924 1_545 S
O140 Zn139 1.949 . S
O140 Zn141 1.923 . S
O140 Zn142 1.950 . S
O140 Zn143 1.945 . S
Zn141 O140 1.923 . S
Zn141 O144 1.933 . S
Zn141 O147 1.941 . S
Zn141 O148 1.965 . S
Zn142 O140 1.950 . S
Zn142 O149 1.938 . S
Zn142 O150 1.906 . S
Zn142 O160 1.953 . S
Zn143 O140 1.945 . S
Zn143 O145 1.932 1_554 S
Zn143 O152 1.977 1_554 S
Zn143 O153 1.932 . S
O144 Zn141 1.933 . S
O144 C155 1.226 1_554 S
O145 Zn143 1.932 1_556 S
O145 C155 1.307 . S
O146 Zn139 1.919 1_565 S
O146 C157 1.253 . S
O147 Zn141 1.941 . S
O147 C157 1.283 1_545 S
O148 Zn141 1.965 . S
O148 C156 1.303 . S
O149 Zn142 1.938 . S
O149 C156 1.247 . S
O150 Zn142 1.906 . S
O150 C158 1.304 1_554 S
O151 Zn139 1.924 1_565 S
O151 C159 1.311 . S
O152 Zn143 1.977 1_556 S
O152 C158 1.272 . S
O153 Zn143 1.932 . S
O153 C159 1.221 1_545 S
C154 O138 1.225 . S
C154 O160 1.298 . S
C155 O144 1.226 1_556 S
C155 O145 1.307 . S
C156 O148 1.303 . S
C156 O149 1.247 . S
C157 O146 1.253 . S
C157 O147 1.283 1_565 S
C158 O150 1.304 1_556 S
C158 O152 1.272 . S
C159 O151 1.311 . S
C159 O153 1.221 1_565 S
O160 Zn142 1.953 . S
O160 C154 1.298 . S
O161 Zn162 1.953 . S
O161 C177 1.225 . S
Zn162 O161 1.953 . S
Zn162 O163 1.949 . S
Zn162 O169 1.919 . S
Zn162 O174 1.924 . S
O163 Zn162 1.949 . S
O163 Zn164 1.923 . S
O163 Zn165 1.950 . S
O163 Zn166 1.945 . S
Zn164 O163 1.923 . S
Zn164 O167 1.933 . S
Zn164 O170 1.941 . S
Zn164 O171 1.965 . S
Zn165 O163 1.950 . S
Zn165 O172 1.938 . S
Zn165 O173 1.906 . S
Zn165 O183 1.953 . S
Zn166 O163 1.945 . S
Zn166 O168 1.932 . S
Zn166 O175 1.977 . S
Zn166 O176 1.910 . S
O167 Zn164 1.933 . S
O167 C178 1.226 . S
O168 Zn166 1.932 . S
O168 C178 1.307 . S
O169 Zn162 1.919 . S
O169 C180 1.253 . S
O170 Zn164 1.941 . S
O170 C180 1.283 . S
O171 Zn164 1.965 . S
O171 C179 1.303 . S
O172 Zn165 1.938 . S
O172 C179 1.247 . S
O173 Zn165 1.906 . S
O173 C181 1.304 . S
O174 Zn162 1.924 . S
O174 C182 1.311 . S
O175 Zn166 1.977 . S
O175 C181 1.272 . S
O176 Zn166 1.910 . S
O176 C182 1.231 . S
C177 O161 1.225 . S
C177 O183 1.298 . S
C178 O167 1.226 . S
C178 O168 1.307 . S
C179 O171 1.303 . S
C179 O172 1.247 . S
C180 O169 1.253 . S
C180 O170 1.283 . S
C181 O173 1.304 . S
C181 O175 1.272 . S
C182 O174 1.311 . S
C182 O176 1.231 . S
O183 Zn165 1.953 . S
O183 C177 1.298 . S
O184 Zn185 1.953 1_556 S
O184 C200 1.225 . S
Zn185 O184 1.953 1_554 S
Zn185 O186 1.949 . S
Zn185 O192 1.919 1_554 S
Zn185 O197 1.924 . S
O186 Zn185 1.949 . S
O186 Zn187 1.923 . S
O186 Zn188 1.950 . S
O186 Zn189 1.945 . S
Zn187 O186 1.923 . S
Zn187 O190 1.933 . S
Zn187 O193 1.941 . S
Zn187 O194 1.965 . S
Zn188 O186 1.950 . S
Zn188 O195 1.938 . S
Zn188 O196 1.906 . S
Zn188 O206 1.953 . S
Zn189 O186 1.945 . S
Zn189 O191 1.932 . S
Zn189 O198 1.977 . S
Zn189 O199 1.910 . S
O190 Zn187 1.933 . S
O190 C201 1.226 . S
O191 Zn189 1.932 . S
O191 C201 1.307 . S
O192 Zn185 1.919 1_556 S
O192 C203 1.253 . S
O193 Zn187 1.941 . S
O193 C203 1.283 1_554 S
O194 Zn187 1.965 . S
O194 C202 1.303 . S
O195 Zn188 1.938 . S
O195 C202 1.247 . S
O196 Zn188 1.906 . S
O196 C204 1.304 . S
O197 Zn185 1.924 . S
O197 C205 1.311 . S
O198 Zn189 1.977 . S
O198 C204 1.272 . S
O199 Zn189 1.910 . S
O199 C205 1.231 . S
C200 O184 1.225 . S
C200 O206 1.298 1_556 S
C201 O190 1.226 . S
C201 O191 1.307 . S
C202 O194 1.303 . S
C202 O195 1.247 . S
C203 O192 1.253 . S
C203 O193 1.283 1_556 S
C204 O196 1.304 . S
C204 O198 1.272 . S
C205 O197 1.311 . S
C205 O199 1.231 . S
O206 Zn188 1.953 . S
O206 C200 1.298 1_554 S
O207 Zn208 1.953 . S
O207 C223 1.225 . S
Zn208 O207 1.953 . S
Zn208 O209 1.949 . S
Zn208 O215 1.919 . S
Zn208 O220 1.924 . S
O209 Zn208 1.949 . S
O209 Zn210 1.923 . S
O209 Zn211 1.950 . S
O209 Zn212 1.945 . S
Zn210 O209 1.923 . S
Zn210 O213 1.933 . S
Zn210 O216 1.941 . S
Zn210 O217 1.965 . S
Zn211 O209 1.950 . S
Zn211 O218 1.938 . S
Zn211 O219 1.906 . S
Zn211 O229 1.953 . S
Zn212 O209 1.945 . S
Zn212 O214 1.932 . S
Zn212 O221 1.977 . S
Zn212 O222 1.910 . S
O213 Zn210 1.933 . S
O213 C224 1.226 . S
O214 Zn212 1.932 . S
O214 C224 1.307 . S
O215 Zn208 1.919 . S
O215 C226 1.253 . S
O216 Zn210 1.941 . S
O216 C226 1.283 . S
O217 Zn210 1.965 . S
O217 C225 1.303 . S
O218 Zn211 1.938 . S
O218 C225 1.247 . S
O219 Zn211 1.906 . S
O219 C227 1.304 . S
O220 Zn208 1.924 . S
O220 C228 1.311 . S
O221 Zn212 1.977 . S
O221 C227 1.272 . S
O222 Zn212 1.910 . S
O222 C228 1.231 . S
C223 O207 1.225 . S
C223 O229 1.298 . S
C224 O213 1.226 . S
C224 O214 1.307 . S
C225 O217 1.303 . S
C225 O218 1.247 . S
C226 O215 1.253 . S
C226 O216 1.283 . S
C227 O219 1.304 . S
C227 O221 1.272 . S
C228 O220 1.311 . S
C228 O222 1.231 . S
O229 Zn211 1.953 . S
O229 C223 1.298 . S
O230 Zn231 1.953 . S
O230 C246 1.225 . S
Zn231 O230 1.953 . S
Zn231 O232 1.949 . S
Zn231 O238 1.919 . S
Zn231 O243 1.924 . S
O232 Zn231 1.949 . S
O232 Zn233 1.923 1_455 S
O232 Zn234 1.950 . S
O232 Zn235 1.945 . S
Zn233 O232 1.923 1_655 S
Zn233 O236 1.933 . S
Zn233 O239 1.941 . S
Zn233 O240 1.965 . S
Zn234 O232 1.950 . S
Zn234 O241 1.938 . S
Zn234 O242 1.906 . S
Zn234 O252 1.953 . S
Zn235 O232 1.945 . S
Zn235 O237 1.932 . S
Zn235 O244 1.977 . S
Zn235 O245 1.910 . S
O236 Zn233 1.933 . S
O236 C247 1.226 . S
O237 Zn235 1.932 . S
O237 C247 1.307 1_455 S
O238 Zn231 1.919 . S
O238 C249 1.262 . S
O239 Zn233 1.941 . S
O239 C249 1.278 1_655 S
O240 Zn233 1.965 . S
O240 C248 1.303 . S
O241 Zn234 1.938 . S
O241 C248 1.247 1_455 S
O242 Zn234 1.906 . S
O242 C250 1.304 . S
O243 Zn231 1.924 . S
O243 C251 1.311 . S
O244 Zn235 1.977 . S
O244 C250 1.272 . S
O245 Zn235 1.910 . S
O245 C251 1.231 . S
C246 O230 1.225 . S
C246 O252 1.298 . S
C247 O236 1.226 . S
C247 O237 1.307 1_655 S
C248 O240 1.303 . S
C248 O241 1.247 1_655 S
C249 O238 1.262 . S
C249 O239 1.278 1_455 S
C250 O242 1.304 . S
C250 O244 1.272 . S
C251 O243 1.311 . S
C251 O245 1.231 . S
O252 Zn234 1.953 . S
O252 C246 1.298 . S
O253 Zn254 1.953 . S
O253 C269 1.225 . S
Zn254 O253 1.953 . S
Zn254 O255 1.949 . S
Zn254 O261 1.919 . S
Zn254 O266 1.924 . S
O255 Zn254 1.949 . S
O255 Zn256 1.923 . S
O255 Zn257 1.950 . S
O255 Zn258 1.945 . S
Zn256 O255 1.923 . S
Zn256 O259 1.933 . S
Zn256 O262 1.941 . S
Zn256 O263 1.965 . S
Zn257 O255 1.950 . S
Zn257 O264 1.938 . S
Zn257 O265 1.906 . S
Zn257 O275 1.953 . S
Zn258 O255 1.945 . S
Zn258 O260 1.932 . S
Zn258 O267 1.977 . S
Zn258 O268 1.910 . S
O259 Zn256 1.933 . S
O259 C270 1.226 . S
O260 Zn258 1.932 . S
O260 C270 1.307 . S
O261 Zn254 1.919 . S
O261 C272 1.253 . S
O262 Zn256 1.941 . S
O262 C272 1.283 . S
O263 Zn256 1.965 . S
O263 C271 1.303 . S
O264 Zn257 1.938 . S
O264 C271 1.247 . S
O265 Zn257 1.906 . S
O265 C273 1.304 . S
O266 Zn254 1.924 . S
O266 C274 1.311 . S
O267 Zn258 1.977 . S
O267 C273 1.272 . S
O268 Zn258 1.910 . S
O268 C274 1.231 . S
C269 O253 1.225 . S
C269 O275 1.298 . S
C270 O259 1.226 . S
C270 O260 1.307 . S
C271 O263 1.303 . S
C271 O264 1.247 . S
C272 O261 1.253 . S
C272 O262 1.283 . S
C273 O265 1.304 . S
C273 O267 1.272 . S
C274 O266 1.311 . S
C274 O268 1.231 . S
O275 Zn257 1.953 . S
O275 C269 1.298 . S
O276 Zn277 1.953 . S
O276 C292 1.225 . S
Zn277 O276 1.953 . S
Zn277 O278 1.949 . S
Zn277 O284 1.919 . S
Zn277 O289 1.924 . S
O278 Zn277 1.949 . S
O278 Zn279 1.923 . S
O278 Zn280 1.950 . S
O278 Zn281 1.945 . S
Zn279 O278 1.923 . S
Zn279 O282 1.933 . S
Zn279 O285 1.941 . S
Zn279 O286 1.965 . S
Zn280 O278 1.950 . S
Zn280 O287 1.938 . S
Zn280 O288 1.906 . S
Zn280 O298 1.953 . S
Zn281 O278 1.945 . S
Zn281 O283 1.932 . S
Zn281 O290 1.977 . S
Zn281 O291 1.910 . S
O282 Zn279 1.933 . S
O282 C293 1.226 . S
O283 Zn281 1.932 . S
O283 C293 1.307 . S
O284 Zn277 1.919 . S
O284 C295 1.253 . S
O285 Zn279 1.941 . S
O285 C295 1.283 . S
O286 Zn279 1.965 . S
O286 C294 1.303 . S
O287 Zn280 1.938 . S
O287 C294 1.247 . S
O288 Zn280 1.906 . S
O288 C296 1.304 . S
O289 Zn277 1.924 . S
O289 C297 1.311 . S
O290 Zn281 1.977 . S
O290 C296 1.272 . S
O291 Zn281 1.910 . S
O291 C297 1.231 . S
C292 O276 1.225 . S
C292 O298 1.298 . S
C293 O282 1.226 . S
C293 O283 1.307 . S
C294 O286 1.303 . S
C294 O287 1.247 . S
C295 O284 1.253 . S
C295 O285 1.283 . S
C296 O288 1.304 . S
C296 O290 1.272 . S
C297 O289 1.311 . S
C297 O291 1.231 . S
O298 Zn280 1.953 . S
O298 C292 1.298 . S
O299 Zn300 1.953 . S
O299 C315 1.225 . S
Zn300 O299 1.953 . S
Zn300 O301 1.949 . S
Zn300 O307 1.919 . S
Zn300 O312 1.924 . S
O301 Zn300 1.949 . S
O301 Zn302 1.923 . S
O301 Zn303 1.950 . S
O301 Zn304 1.945 . S
Zn302 O301 1.923 . S
Zn302 O305 1.933 . S
Zn302 O308 1.941 . S
Zn302 O309 1.965 . S
Zn303 O301 1.950 . S
Zn303 O310 1.938 . S
Zn303 O311 1.906 . S
Zn303 O321 1.953 . S
Zn304 O301 1.945 . S
Zn304 O306 1.932 . S
Zn304 O313 1.977 . S
Zn304 O314 1.910 . S
O305 Zn302 1.933 . S
O305 C316 1.226 . S
O306 Zn304 1.932 . S
O306 C316 1.307 . S
O307 Zn300 1.919 . S
O307 C318 1.253 . S
O308 Zn302 1.941 . S
O308 C318 1.283 . S
O309 Zn302 1.965 . S
O309 C317 1.303 . S
O310 Zn303 1.938 . S
O310 C317 1.247 . S
O311 Zn303 1.906 . S
O311 C319 1.304 . S
O312 Zn300 1.924 . S
O312 C320 1.311 . S
O313 Zn304 1.977 . S
O313 C319 1.272 . S
O314 Zn304 1.910 . S
O314 C320 1.231 . S
C315 O299 1.225 . S
C315 O321 1.298 . S
C316 O305 1.226 . S
C316 O306 1.307 . S
C317 O309 1.303 . S
C317 O310 1.247 . S
C318 O307 1.253 . S
C318 O308 1.283 . S
C319 O311 1.304 . S
C319 O313 1.272 . S
C320 O312 1.311 . S
C320 O314 1.231 . S
O321 Zn303 1.953 . S
O321 C315 1.298 . S
O322 Zn323 1.953 . S
O322 C338 1.225 . S
Zn323 O322 1.953 . S
Zn323 O324 1.949 . S
Zn323 O330 1.919 . S
Zn323 O335 1.924 . S
O324 Zn323 1.949 . S
O324 Zn325 1.923 . S
O324 Zn326 1.950 . S
O324 Zn327 1.945 . S
Zn325 O324 1.923 . S
Zn325 O328 1.933 . S
Zn325 O331 1.941 . S
Zn325 O332 1.965 . S
Zn326 O324 1.950 . S
Zn326 O333 1.938 . S
Zn326 O334 1.906 . S
Zn326 O344 1.953 . S
Zn327 O324 1.945 . S
Zn327 O329 1.932 . S
Zn327 O336 1.977 . S
Zn327 O337 1.910 . S
O328 Zn325 1.933 . S
O328 C339 1.226 . S
O329 Zn327 1.932 . S
O329 C339 1.307 . S
O330 Zn323 1.919 . S
O330 C341 1.253 . S
O331 Zn325 1.941 . S
O331 C341 1.283 . S
O332 Zn325 1.965 . S
O332 C340 1.303 . S
O333 Zn326 1.938 . S
O333 C340 1.247 . S
O334 Zn326 1.906 . S
O334 C342 1.304 . S
O335 Zn323 1.924 . S
O335 C343 1.311 . S
O336 Zn327 1.977 . S
O336 C342 1.272 . S
O337 Zn327 1.910 . S
O337 C343 1.231 . S
C338 O322 1.225 . S
C338 O344 1.298 . S
C339 O328 1.226 . S
C339 O329 1.307 . S
C340 O332 1.303 . S
C340 O333 1.247 . S
C341 O330 1.253 . S
C341 O331 1.283 . S
C342 O334 1.304 . S
C342 O336 1.272 . S
C343 O335 1.311 . S
C343 O337 1.231 . S
O344 Zn326 1.953 . S
O344 C338 1.298 . S
O345 Zn346 1.953 . S
O345 C361 1.225 . S
Zn346 O345 1.953 . S
Zn346 O347 1.949 . S
Zn346 O353 1.919 . S
Zn346 O358 1.924 . S
O347 Zn346 1.949 . S
O347 Zn348 1.923 . S
O347 Zn349 1.950 1_554 S
O347 Zn350 1.945 . S
Zn348 O347 1.923 . S
Zn348 O351 1.933 . S
Zn348 O354 1.941 . S
Zn348 O355 1.988 . S
Zn349 O347 1.950 1_556 S
Zn349 O356 1.938 . S
Zn349 O357 1.906 . S
Zn349 O367 1.953 . S
Zn350 O347 1.945 . S
Zn350 O352 1.932 . S
Zn350 O359 1.977 . S
Zn350 O360 1.910 . S
O351 Zn348 1.933 . S
O351 C362 1.226 . S
O352 Zn350 1.932 . S
O352 C362 1.307 . S
O353 Zn346 1.919 . S
O353 C364 1.253 . S
O354 Zn348 1.941 . S
O354 C364 1.283 . S
O355 Zn348 1.988 . S
O355 C363 1.284 1_554 S
O356 Zn349 1.938 . S
O356 C363 1.247 . S
O357 Zn349 1.906 . S
O357 C365 1.304 . S
O358 Zn346 1.924 . S
O358 C366 1.311 . S
O359 Zn350 1.977 . S
O359 C365 1.272 1_554 S
O360 Zn350 1.910 . S
O360 C366 1.231 . S
C361 O345 1.225 . S
C361 O367 1.298 1_554 S
C362 O351 1.226 . S
C362 O352 1.307 . S
C363 O355 1.284 1_556 S
C363 O356 1.247 . S
C364 O353 1.253 . S
C364 O354 1.283 . S
C365 O357 1.304 . S
C365 O359 1.272 1_556 S
C366 O358 1.311 . S
C366 O360 1.231 . S
O367 Zn349 1.953 . S
O367 C361 1.298 1_556 S
C368 C369 1.349 . S
C368 C370 1.327 . S
C368 H393 0.950 . S
C369 C368 1.349 . S
C369 C385 1.349 . S
C370 C368 1.327 . S
C370 C389 1.429 . S
C370 H394 0.950 . S
C371 C388 1.574 . S
C371 C390 1.368 . S
C371 H395 0.949 . S
H372 C376 0.949 . S
C373 C374 1.349 . S
C373 C375 1.327 . S
C373 H396 0.950 . S
C374 C373 1.349 . S
C374 C386 1.349 . S
C375 C373 1.327 . S
C375 C391 1.429 . S
C375 H397 0.950 . S
C376 H372 0.949 . S
C376 C384 1.574 . S
C376 C392 1.368 . S
H377 C385 0.950 . S
H378 C383 0.950 . S
H379 C384 0.949 . S
H380 C386 0.950 . S
H381 C387 0.950 . S
H382 C388 0.949 . S
C383 H378 0.950 . S
C383 C385 1.327 . S
C383 C389 1.429 . S
C384 C376 1.574 . S
C384 H379 0.949 . S
C384 C390 1.368 . S
C385 C369 1.349 . S
C385 H377 0.950 . S
C385 C383 1.327 . S
C386 C374 1.349 . S
C386 H380 0.950 . S
C386 C387 1.327 . S
C387 H381 0.950 . S
C387 C386 1.327 . S
C387 C391 1.429 . S
C388 C371 1.574 . S
C388 H382 0.949 . S
C388 C392 1.368 . S
C389 C370 1.429 . S
C389 C383 1.429 . S
C389 C390 1.523 . S
C390 C371 1.368 . S
C390 C384 1.368 . S
C390 C389 1.523 . S
C391 C375 1.429 . S
C391 C387 1.429 . S
C391 C392 1.523 . S
C392 C376 1.368 . S
C392 C388 1.368 . S
C392 C391 1.523 . S
H393 C368 0.950 . S
H394 C370 0.950 . S
H395 C371 0.949 . S
H396 C373 0.950 . S
H397 C375 0.950 . S
C398 C399 1.349 . S
C398 C400 1.327 . S
C398 H423 0.950 . S
C399 C398 1.349 . S
C399 C415 1.349 . S
C400 C398 1.327 . S
C400 C419 1.429 . S
C400 H424 0.950 . S
C401 C418 1.574 . S
C401 C420 1.368 . S
C401 H425 0.949 . S
H402 C406 0.949 . S
C403 C404 1.349 . S
C403 C405 1.327 . S
C403 H426 0.950 . S
C404 C403 1.349 . S
C404 C416 1.349 . S
C405 C403 1.327 . S
C405 C421 1.429 . S
C405 H427 0.950 . S
C406 H402 0.949 . S
C406 C414 1.574 . S
C406 C422 1.368 . S
H407 C415 0.950 1_545 S
H408 C413 0.950 . S
H409 C414 0.949 . S
H410 C416 0.950 . S
H411 C417 0.950 . S
H412 C418 0.949 . S
C413 H408 0.950 . S
C413 C415 1.327 . S
C413 C419 1.429 . S
C414 C406 1.574 . S
C414 H409 0.949 . S
C414 C420 1.368 . S
C415 C399 1.349 . S
C415 H407 0.950 1_565 S
C415 C413 1.327 . S
C416 C404 1.349 . S
C416 H410 0.950 . S
C416 C417 1.327 . S
C417 H411 0.950 . S
C417 C416 1.327 . S
C417 C421 1.429 . S
C418 C401 1.574 . S
C418 H412 0.949 . S
C418 C422 1.368 . S
C419 C400 1.429 . S
C419 C413 1.429 . S
C419 C420 1.523 . S
C420 C401 1.368 . S
C420 C414 1.368 . S
C420 C419 1.523 . S
C421 C405 1.429 . S
C421 C417 1.429 . S
C421 C422 1.523 . S
C422 C406 1.368 . S
C422 C418 1.368 . S
C422 C421 1.523 . S
H423 C398 0.950 . S
H424 C400 0.950 . S
H425 C401 0.949 . S
H426 C403 0.950 . S
H427 C405 0.950 . S
C428 C429 1.349 . S
C428 C430 1.327 . S
C428 H453 0.950 . S
C429 C428 1.349 . S
C429 C445 1.349 . S
C430 C428 1.327 . S
C430 C449 1.429 . S
C430 H454 0.950 . S
C431 C448 1.574 . S
C431 C450 1.368 . S
C431 H455 0.949 . S
H432 C436 0.949 . S
C433 C434 1.349 . S
C433 C435 1.327 . S
C433 H456 0.950 . S
C434 C433 1.349 . S
C434 C446 1.349 . S
C435 C433 1.327 . S
C435 C451 1.429 . S
C435 H457 0.950 . S
C436 H432 0.949 . S
C436 C444 1.574 . S
C436 C452 1.368 . S
H437 C445 0.950 . S
H438 C443 0.950 . S
H439 C444 0.949 . S
H440 C446 0.950 . S
H441 C447 0.950 . S
H442 C448 0.949 . S
C443 H438 0.950 . S
C443 C445 1.327 . S
C443 C449 1.429 . S
C444 C436 1.574 . S
C444 H439 0.949 . S
C444 C450 1.368 . S
C445 C429 1.349 . S
C445 H437 0.950 . S
C445 C443 1.327 . S
C446 C434 1.349 . S
C446 H440 0.950 . S
C446 C447 1.327 . S
C447 H441 0.950 . S
C447 C446 1.327 . S
C447 C451 1.429 . S
C448 C431 1.574 . S
C448 H442 0.949 . S
C448 C452 1.368 . S
C449 C430 1.429 . S
C449 C443 1.429 . S
C449 C450 1.523 . S
C450 C431 1.368 . S
C450 C444 1.368 . S
C450 C449 1.523 . S
C451 C435 1.429 . S
C451 C447 1.429 . S
C451 C452 1.523 . S
C452 C436 1.368 . S
C452 C448 1.368 . S
C452 C451 1.523 . S
H453 C428 0.950 . S
H454 C430 0.950 . S
H455 C431 0.949 . S
H456 C433 0.950 . S
H457 C435 0.950 . S
C458 C459 1.349 . S
C458 C460 1.327 . S
C458 H483 0.950 . S
C459 C458 1.349 . S
C459 C475 1.349 . S
C460 C458 1.327 . S
C460 C479 1.429 . S
C460 H484 0.950 . S
C461 C478 1.574 . S
C461 C480 1.368 . S
C461 H485 0.949 . S
H462 C466 0.949 . S
C463 C464 1.349 . S
C463 C465 1.327 . S
C463 H486 0.950 . S
C464 C463 1.349 . S
C464 C476 1.349 . S
C465 C463 1.327 . S
C465 C481 1.429 . S
C465 H487 0.950 . S
C466 H462 0.949 . S
C466 C474 1.574 . S
C466 C482 1.368 . S
H467 C475 0.950 . S
H468 C473 0.950 . S
H469 C474 0.949 . S
H470 C476 0.950 . S
H471 C477 0.950 . S
H472 C478 0.949 . S
C473 H468 0.950 . S
C473 C475 1.327 . S
C473 C479 1.429 . S
C474 C466 1.574 . S
C474 H469 0.949 . S
C474 C480 1.368 . S
C475 C459 1.349 . S
C475 H467 0.950 . S
C475 C473 1.327 . S
C476 C464 1.349 . S
C476 H470 0.950 . S
C476 C477 1.327 . S
C477 H471 0.950 . S
C477 C476 1.327 . S
C477 C481 1.429 . S
C478 C461 1.574 . S
C478 H472 0.949 . S
C478 C482 1.368 . S
C479 C460 1.429 . S
C479 C473 1.429 . S
C479 C480 1.523 . S
C480 C461 1.368 . S
C480 C474 1.368 . S
C480 C479 1.523 . S
C481 C465 1.429 . S
C481 C477 1.429 . S
C481 C482 1.523 . S
C482 C466 1.368 . S
C482 C478 1.368 . S
C482 C481 1.523 . S
H483 C458 0.950 . S
H484 C460 0.950 . S
H485 C461 0.949 . S
H486 C463 0.950 . S
H487 C465 0.950 . S
C488 C489 1.349 . S
C488 C490 1.327 . S
C488 H513 0.950 . S
C489 C488 1.349 . S
C489 C505 1.349 . S
C490 C488 1.327 . S
C490 C509 1.429 . S
C490 H514 0.950 . S
C491 C508 1.574 . S
C491 C510 1.368 . S
C491 H515 0.949 . S
H492 C496 0.949 . S
C493 C494 1.349 . S
C493 C495 1.327 . S
C493 H516 0.950 . S
C494 C493 1.349 . S
C494 C506 1.349 . S
C495 C493 1.327 . S
C495 C511 1.429 . S
C495 H517 0.950 . S
C496 H492 0.949 . S
C496 C504 1.574 . S
C496 C512 1.368 . S
H497 C505 0.950 . S
H498 C503 0.950 . S
H499 C504 0.949 . S
H500 C506 0.950 . S
H501 C507 0.950 . S
H502 C508 0.949 . S
C503 H498 0.950 . S
C503 C505 1.327 . S
C503 C509 1.429 . S
C504 C496 1.574 . S
C504 H499 0.949 . S
C504 C510 1.368 . S
C505 C489 1.349 . S
C505 H497 0.950 . S
C505 C503 1.327 . S
C506 C494 1.349 . S
C506 H500 0.950 . S
C506 C507 1.327 . S
C507 H501 0.950 . S
C507 C506 1.327 . S
C507 C511 1.429 . S
C508 C491 1.574 . S
C508 H502 0.949 . S
C508 C512 1.368 . S
C509 C490 1.429 . S
C509 C503 1.429 . S
C509 C510 1.523 . S
C510 C491 1.368 . S
C510 C504 1.368 . S
C510 C509 1.523 . S
C511 C495 1.429 . S
C511 C507 1.429 . S
C511 C512 1.523 . S
C512 C496 1.368 . S
C512 C508 1.368 . S
C512 C511 1.523 . S
H513 C488 0.950 . S
H514 C490 0.950 . S
H515 C491 0.949 . S
H516 C493 0.950 . S
H517 C495 0.950 . S
C518 C519 1.349 . S
C518 C520 1.327 . S
C518 H543 0.950 . S
C519 C518 1.349 . S
C519 C535 1.349 . S
C520 C518 1.327 . S
C520 C539 1.429 . S
C520 H544 0.950 . S
C521 C538 1.574 . S
C521 C540 1.368 . S
C521 H545 0.949 . S
H522 C526 0.949 . S
C523 C524 1.349 1_545 S
C523 C525 1.327 1_545 S
C523 H546 0.950 . S
C524 C523 1.349 1_565 S
C524 C536 1.349 . S
C525 C523 1.327 1_565 S
C525 C541 1.429 . S
C525 H547 0.950 . S
C526 H522 0.949 . S
C526 C534 1.574 . S
C526 C542 1.368 . S
H527 C535 0.950 . S
H528 C533 0.950 . S
H529 C534 0.949 . S
H530 C536 0.950 . S
H531 C537 0.950 . S
H532 C538 0.949 . S
C533 H528 0.950 . S
C533 C535 1.327 . S
C533 C539 1.429 . S
C534 C526 1.574 . S
C534 H529 0.949 . S
C534 C540 1.368 . S
C535 C519 1.349 . S
C535 H527 0.950 . S
C535 C533 1.327 . S
C536 C524 1.349 . S
C536 H530 0.950 . S
C536 C537 1.327 . S
C537 H531 0.950 . S
C537 C536 1.327 . S
C537 C541 1.429 . S
C538 C521 1.574 . S
C538 H532 0.949 . S
C538 C542 1.368 . S
C539 C520 1.429 . S
C539 C533 1.429 . S
C539 C540 1.523 . S
C540 C521 1.368 . S
C540 C534 1.368 . S
C540 C539 1.523 . S
C541 C525 1.429 . S
C541 C537 1.429 . S
C541 C542 1.523 . S
C542 C526 1.368 . S
C542 C538 1.368 . S
C542 C541 1.523 . S
H543 C518 0.950 . S
H544 C520 0.950 . S
H545 C521 0.949 . S
H546 C523 0.950 . S
H547 C525 0.950 . S
C548 C549 1.349 . S
C548 C550 1.327 . S
C548 H573 0.950 . S
C549 C548 1.349 . S
C549 C565 1.349 . S
C550 C548 1.327 . S
C550 C569 1.429 . S
C550 H574 0.950 . S
C551 C568 1.574 . S
C551 C570 1.368 . S
C551 H575 0.949 . S
H552 C556 0.949 . S
C553 C554 1.349 . S
C553 C555 1.327 . S
C553 H576 0.950 . S
C554 C553 1.349 . S
C554 C566 1.349 . S
C555 C553 1.327 . S
C555 C571 1.429 . S
C555 H577 0.950 . S
C556 H552 0.949 . S
C556 C564 1.574 . S
C556 C572 1.368 . S
H557 C565 0.950 . S
H558 C563 0.950 . S
H559 C564 0.949 . S
H560 C566 0.950 . S
H561 C567 0.950 . S
H562 C568 0.949 . S
C563 H558 0.950 . S
C563 C565 1.327 . S
C563 C569 1.429 . S
C564 C556 1.574 . S
C564 H559 0.949 . S
C564 C570 1.368 . S
C565 C549 1.349 . S
C565 H557 0.950 . S
C565 C563 1.327 . S
C566 C554 1.349 . S
C566 H560 0.950 . S
C566 C567 1.327 . S
C567 H561 0.950 . S
C567 C566 1.327 . S
C567 C571 1.429 . S
C568 C551 1.574 . S
C568 H562 0.949 . S
C568 C572 1.368 . S
C569 C550 1.429 . S
C569 C563 1.429 . S
C569 C570 1.523 . S
C570 C551 1.368 . S
C570 C564 1.368 . S
C570 C569 1.523 . S
C571 C555 1.429 . S
C571 C567 1.429 . S
C571 C572 1.523 . S
C572 C556 1.368 . S
C572 C568 1.368 . S
C572 C571 1.523 . S
H573 C548 0.950 . S
H574 C550 0.950 . S
H575 C551 0.949 . S
H576 C553 0.950 . S
H577 C555 0.950 . S
C578 C579 1.349 . S
C578 C580 1.327 . S
C578 H603 0.950 . S
C579 C578 1.349 . S
C579 C595 1.349 . S
C580 C578 1.327 . S
C580 C599 1.429 . S
C580 H604 0.950 . S
C581 C598 1.574 . S
C581 C600 1.368 . S
C581 H605 0.949 . S
H582 C586 0.949 . S
C583 C584 1.349 . S
C583 C585 1.327 . S
C583 H606 0.950 . S
C584 C583 1.349 . S
C584 C596 1.349 . S
C585 C583 1.327 . S
C585 C601 1.429 . S
C585 H607 0.950 . S
C586 H582 0.949 . S
C586 C594 1.574 . S
C586 C602 1.368 . S
H587 C595 0.950 . S
H588 C593 0.950 . S
H589 C594 0.949 . S
H590 C596 0.950 . S
H591 C597 0.950 . S
H592 C598 0.949 . S
C593 H588 0.950 . S
C593 C595 1.327 . S
C593 C599 1.429 . S
C594 C586 1.574 . S
C594 H589 0.949 . S
C594 C600 1.368 . S
C595 C579 1.349 . S
C595 H587 0.950 . S
C595 C593 1.327 . S
C596 C584 1.349 . S
C596 H590 0.950 . S
C596 C597 1.327 . S
C597 H591 0.950 . S
C597 C596 1.327 . S
C597 C601 1.429 . S
C598 C581 1.574 . S
C598 H592 0.949 . S
C598 C602 1.368 . S
C599 C580 1.429 . S
C599 C593 1.429 . S
C599 C600 1.523 . S
C600 C581 1.368 . S
C600 C594 1.368 . S
C600 C599 1.523 . S
C601 C585 1.429 . S
C601 C597 1.429 . S
C601 C602 1.523 . S
C602 C586 1.368 . S
C602 C598 1.368 . S
C602 C601 1.523 . S
H603 C578 0.950 . S
H604 C580 0.950 . S
H605 C581 0.949 . S
H606 C583 0.950 . S
H607 C585 0.950 . S
C608 C609 1.349 . S
C608 C610 1.327 . S
C608 H633 0.950 . S
C609 C608 1.349 . S
C609 C625 1.349 . S
C610 C608 1.327 . S
C610 C629 1.429 . S
C610 H634 0.950 . S
C611 C628 1.574 . S
C611 C630 1.368 . S
C611 H635 0.949 . S
H612 C616 0.949 . S
C613 C614 1.349 . S
C613 C615 1.327 . S
C613 H636 0.950 . S
C614 C613 1.349 . S
C614 C626 1.349 . S
C615 C613 1.327 . S
C615 C631 1.429 . S
C615 H637 0.950 . S
C616 H612 0.949 . S
C616 C624 1.574 . S
C616 C632 1.368 . S
H617 C625 0.950 . S
H618 C623 0.950 . S
H619 C624 0.949 . S
H620 C626 0.950 . S
H621 C627 0.950 . S
H622 C628 0.949 . S
C623 H618 0.950 . S
C623 C625 1.327 . S
C623 C629 1.429 . S
C624 C616 1.574 . S
C624 H619 0.949 . S
C624 C630 1.368 . S
C625 C609 1.349 . S
C625 H617 0.950 . S
C625 C623 1.327 . S
C626 C614 1.349 . S
C626 H620 0.950 . S
C626 C627 1.327 . S
C627 H621 0.950 . S
C627 C626 1.327 . S
C627 C631 1.429 . S
C628 C611 1.574 . S
C628 H622 0.949 . S
C628 C632 1.368 . S
C629 C610 1.429 . S
C629 C623 1.429 . S
C629 C630 1.523 . S
C630 C611 1.368 . S
C630 C624 1.368 . S
C630 C629 1.523 . S
C631 C615 1.429 . S
C631 C627 1.429 . S
C631 C632 1.523 . S
C632 C616 1.368 . S
C632 C628 1.368 . S
C632 C631 1.523 . S
H633 C608 0.950 . S
H634 C610 0.950 . S
H635 C611 0.949 . S
H636 C613 0.950 . S
H637 C615 0.950 . S
C638 C639 1.349 . S
C638 C640 1.327 . S
C638 H663 0.950 . S
C639 C638 1.349 . S
C639 C655 1.349 . S
C640 C638 1.327 . S
C640 C659 1.429 . S
C640 H664 0.950 . S
C641 C658 1.574 . S
C641 C660 1.368 . S
C641 H665 0.949 . S
H642 C646 0.949 . S
C643 C644 1.349 . S
C643 C645 1.327 . S
C643 H666 0.950 . S
C644 C643 1.349 . S
C644 C656 1.349 . S
C645 C643 1.327 . S
C645 C661 1.429 . S
C645 H667 0.950 . S
C646 H642 0.949 . S
C646 C654 1.574 . S
C646 C662 1.368 . S
H647 C655 0.950 . S
H648 C653 0.950 . S
H649 C654 0.949 . S
H650 C656 0.950 . S
H651 C657 0.950 . S
H652 C658 0.949 . S
C653 H648 0.950 . S
C653 C655 1.327 . S
C653 C659 1.429 . S
C654 C646 1.574 . S
C654 H649 0.949 . S
C654 C660 1.368 . S
C655 C639 1.349 . S
C655 H647 0.950 . S
C655 C653 1.327 . S
C656 C644 1.349 . S
C656 H650 0.950 . S
C656 C657 1.327 . S
C657 H651 0.950 . S
C657 C656 1.327 . S
C657 C661 1.429 . S
C658 C641 1.574 . S
C658 H652 0.949 . S
C658 C662 1.368 . S
C659 C640 1.429 . S
C659 C653 1.429 . S
C659 C660 1.523 . S
C660 C641 1.368 . S
C660 C654 1.368 . S
C660 C659 1.523 . S
C661 C645 1.429 . S
C661 C657 1.429 . S
C661 C662 1.523 . S
C662 C646 1.368 . S
C662 C658 1.368 . S
C662 C661 1.523 . S
H663 C638 0.950 . S
H664 C640 0.950 . S
H665 C641 0.949 . S
H666 C643 0.950 . S
H667 C645 0.950 . S
C668 C669 1.349 . S
C668 C670 1.327 . S
C668 H693 0.950 . S
C669 C668 1.349 . S
C669 C685 1.349 1_565 S
C670 C668 1.327 . S
C670 C689 1.429 . S
C670 H694 0.950 . S
C671 C688 1.574 . S
C671 C690 1.368 . S
C671 H695 0.949 . S
H672 C676 0.949 . S
C673 C674 1.349 . S
C673 C675 1.327 . S
C673 H696 0.950 . S
C674 C673 1.349 . S
C674 C686 1.349 . S
C675 C673 1.327 . S
C675 C691 1.429 . S
C675 H697 0.950 . S
C676 H672 0.949 . S
C676 C684 1.574 . S
C676 C692 1.368 . S
H677 C685 0.950 . S
H678 C683 0.955 . S
H679 C684 0.949 . S
H680 C686 0.950 . S
H681 C687 0.950 . S
H682 C688 0.949 . S
C683 H678 0.955 . S
C683 C685 1.327 1_565 S
C683 C689 1.429 . S
C684 C676 1.574 . S
C684 H679 0.949 . S
C684 C690 1.368 . S
C685 C669 1.349 1_545 S
C685 H677 0.950 . S
C685 C683 1.327 1_545 S
C686 C674 1.349 . S
C686 H680 0.950 . S
C686 C687 1.327 . S
C687 H681 0.950 . S
C687 C686 1.327 . S
C687 C691 1.429 . S
C688 C671 1.574 . S
C688 H682 0.949 . S
C688 C692 1.368 . S
C689 C670 1.429 . S
C689 C683 1.429 . S
C689 C690 1.523 . S
C690 C671 1.368 . S
C690 C684 1.368 . S
C690 C689 1.523 . S
C691 C675 1.429 . S
C691 C687 1.429 . S
C691 C692 1.523 . S
C692 C676 1.368 . S
C692 C688 1.368 . S
C692 C691 1.523 . S
H693 C668 0.950 . S
H694 C670 0.950 . S
H695 C671 0.949 . S
H696 C673 0.950 . S
H697 C675 0.950 . S
C698 C699 1.349 . S
C698 C700 1.327 . S
C698 H723 0.950 1_556 S
C699 C698 1.349 . S
C699 C715 1.349 . S
C700 C698 1.327 . S
C700 C719 1.429 . S
C700 H724 0.950 . S
C701 C718 1.574 . S
C701 C720 1.368 . S
C701 H725 0.949 . S
H702 C706 0.949 . S
C703 C704 1.349 . S
C703 C705 1.327 . S
C703 H726 0.950 . S
C704 C703 1.349 . S
C704 C716 1.349 . S
C705 C703 1.327 . S
C705 C721 1.429 . S
C705 H727 0.950 . S
C706 H702 0.949 . S
C706 C714 1.574 . S
C706 C722 1.368 . S
H707 C715 0.950 . S
H708 C713 0.950 . S
H709 C714 0.949 . S
H710 C716 0.950 . S
H711 C717 0.950 . S
H712 C718 0.949 . S
C713 H708 0.950 . S
C713 C715 1.327 . S
C713 C719 1.429 . S
C714 C706 1.574 . S
C714 H709 0.949 . S
C714 C720 1.368 . S
C715 C699 1.349 . S
C715 H707 0.950 . S
C715 C713 1.327 . S
C716 C704 1.349 . S
C716 H710 0.950 . S
C716 C717 1.327 . S
C717 H711 0.950 . S
C717 C716 1.327 . S
C717 C721 1.429 . S
C718 C701 1.574 . S
C718 H712 0.949 . S
C718 C722 1.368 . S
C719 C700 1.429 . S
C719 C713 1.429 . S
C719 C720 1.523 . S
C720 C701 1.368 . S
C720 C714 1.368 . S
C720 C719 1.523 . S
C721 C705 1.429 . S
C721 C717 1.429 . S
C721 C722 1.523 . S
C722 C706 1.368 . S
C722 C718 1.368 . S
C722 C721 1.523 . S
H723 C698 0.950 1_554 S
H724 C700 0.950 . S
H725 C701 0.949 . S
H726 C703 0.950 . S
H727 C705 0.950 . S
C728 C729 1.349 . S
C728 C730 1.327 . S
C728 H753 0.950 . S
C729 C728 1.349 . S
C729 C745 1.349 . S
C730 C728 1.327 . S
C730 C749 1.429 . S
C730 H754 0.950 . S
C731 C748 1.574 . S
C731 C750 1.368 . S
C731 H755 0.949 . S
H732 C736 0.949 . S
C733 C734 1.349 . S
C733 C735 1.327 1_455 S
C733 H756 0.950 . S
C734 C733 1.349 . S
C734 C746 1.349 1_455 S
C735 C733 1.327 1_655 S
C735 C751 1.429 . S
C735 H757 0.950 . S
C736 H732 0.949 . S
C736 C744 1.574 . S
C736 C752 1.368 . S
H737 C745 0.950 . S
H738 C743 0.950 . S
H739 C744 0.949 . S
H740 C746 0.954 . S
H741 C747 0.950 . S
H742 C748 0.949 . S
C743 H738 0.950 . S
C743 C745 1.327 . S
C743 C749 1.429 . S
C744 C736 1.574 . S
C744 H739 0.949 . S
C744 C750 1.368 . S
C745 C729 1.349 . S
C745 H737 0.950 . S
C745 C743 1.327 . S
C746 C734 1.349 1_655 S
C746 H740 0.954 . S
C746 C747 1.327 . S
C747 H741 0.950 . S
C747 C746 1.327 . S
C747 C751 1.429 . S
C748 C731 1.574 . S
C748 H742 0.949 . S
C748 C752 1.368 . S
C749 C730 1.429 . S
C749 C743 1.429 . S
C749 C750 1.523 . S
C750 C731 1.368 . S
C750 C744 1.368 . S
C750 C749 1.523 . S
C751 C735 1.429 . S
C751 C747 1.429 . S
C751 C752 1.523 . S
C752 C736 1.368 . S
C752 C748 1.368 . S
C752 C751 1.523 . S
H753 C728 0.950 . S
H754 C730 0.950 . S
H755 C731 0.949 . S
H756 C733 0.950 . S
H757 C735 0.950 . S
C758 C759 1.349 . S
C758 C760 1.327 . S
C758 H783 0.950 . S
C759 C758 1.349 . S
C759 C775 1.349 . S
C760 C758 1.327 . S
C760 C779 1.429 . S
C760 H784 0.950 . S
C761 C778 1.574 . S
C761 C780 1.368 . S
C761 H785 0.949 . S
H762 C766 0.949 . S
C763 C764 1.349 . S
C763 C765 1.327 . S
C763 H786 0.950 . S
C764 C763 1.349 . S
C764 C776 1.349 . S
C765 C763 1.327 . S
C765 C781 1.429 . S
C765 H787 0.950 . S
C766 H762 0.949 . S
C766 C774 1.574 . S
C766 C782 1.368 . S
H767 C775 0.950 . S
H768 C773 0.950 . S
H769 C774 0.949 . S
H770 C776 0.950 . S
H771 C777 0.950 . S
H772 C778 0.949 . S
C773 H768 0.950 . S
C773 C775 1.327 . S
C773 C779 1.429 . S
C774 C766 1.574 . S
C774 H769 0.949 . S
C774 C780 1.368 . S
C775 C759 1.349 . S
C775 H767 0.950 . S
C775 C773 1.327 . S
C776 C764 1.349 . S
C776 H770 0.950 . S
C776 C777 1.327 . S
C777 H771 0.950 . S
C777 C776 1.327 . S
C777 C781 1.429 . S
C778 C761 1.574 . S
C778 H772 0.949 . S
C778 C782 1.368 . S
C779 C760 1.429 . S
C779 C773 1.429 . S
C779 C780 1.523 . S
C780 C761 1.368 . S
C780 C774 1.368 . S
C780 C779 1.523 . S
C781 C765 1.429 . S
C781 C777 1.429 . S
C781 C782 1.523 . S
C782 C766 1.368 . S
C782 C778 1.368 . S
C782 C781 1.523 . S
H783 C758 0.950 . S
H784 C760 0.950 . S
H785 C761 0.949 . S
H786 C763 0.950 . S
H787 C765 0.950 . S
C788 C789 1.349 . S
C788 C790 1.327 . S
C788 H813 0.950 1_556 S
C789 C788 1.349 . S
C789 C805 1.349 . S
C790 C788 1.327 . S
C790 C809 1.429 . S
C790 H814 0.950 . S
C791 C808 1.574 . S
C791 C810 1.368 . S
C791 H815 0.949 . S
H792 C796 0.949 . S
C793 C794 1.349 . S
C793 C795 1.327 . S
C793 H816 0.950 . S
C794 C793 1.349 . S
C794 C806 1.349 . S
C795 C793 1.327 . S
C795 C811 1.429 . S
C795 H817 0.950 . S
C796 H792 0.949 . S
C796 C804 1.574 . S
C796 C812 1.368 . S
H797 C805 0.950 . S
H798 C803 0.950 . S
H799 C804 0.949 . S
H800 C806 0.950 . S
H801 C807 0.950 . S
H802 C808 0.949 . S
C803 H798 0.950 . S
C803 C805 1.327 . S
C803 C809 1.429 . S
C804 C796 1.574 . S
C804 H799 0.949 . S
C804 C810 1.368 . S
C805 C789 1.349 . S
C805 H797 0.950 . S
C805 C803 1.327 . S
C806 C794 1.349 . S
C806 H800 0.950 . S
C806 C807 1.327 . S
C807 H801 0.950 . S
C807 C806 1.327 . S
C807 C811 1.429 . S
C808 C791 1.574 . S
C808 H802 0.949 . S
C808 C812 1.368 . S
C809 C790 1.429 . S
C809 C803 1.429 . S
C809 C810 1.523 . S
C810 C791 1.368 . S
C810 C804 1.368 . S
C810 C809 1.523 . S
C811 C795 1.429 . S
C811 C807 1.429 . S
C811 C812 1.523 . S
C812 C796 1.368 . S
C812 C808 1.368 . S
C812 C811 1.523 . S
H813 C788 0.950 1_554 S
H814 C790 0.950 . S
H815 C791 0.949 . S
H816 C793 0.950 . S
H817 C795 0.950 . S
C818 C819 1.349 . S
C818 C820 1.327 . S
C818 H843 0.950 . S
C819 C818 1.349 . S
C819 C835 1.349 . S
C820 C818 1.327 . S
C820 C839 1.429 . S
C820 H844 0.950 . S
C821 C838 1.574 . S
C821 C840 1.368 . S
C821 H845 0.949 . S
H822 C826 0.949 . S
C823 C824 1.349 . S
C823 C825 1.327 . S
C823 H846 0.950 . S
C824 C823 1.349 . S
C824 C836 1.349 . S
C825 C823 1.327 . S
C825 C841 1.429 . S
C825 H847 0.950 . S
C826 H822 0.949 . S
C826 C834 1.574 . S
C826 C842 1.368 . S
H827 C835 0.950 . S
H828 C833 0.950 . S
H829 C834 0.949 . S
H830 C836 0.950 . S
H831 C837 0.950 . S
H832 C838 0.949 . S
C833 H828 0.950 . S
C833 C835 1.327 . S
C833 C839 1.429 . S
C834 C826 1.574 . S
C834 H829 0.949 . S
C834 C840 1.368 . S
C835 C819 1.349 . S
C835 H827 0.950 . S
C835 C833 1.327 . S
C836 C824 1.349 . S
C836 H830 0.950 . S
C836 C837 1.327 . S
C837 H831 0.950 . S
C837 C836 1.327 . S
C837 C841 1.429 . S
C838 C821 1.574 . S
C838 H832 0.949 . S
C838 C842 1.368 . S
C839 C820 1.429 . S
C839 C833 1.429 . S
C839 C840 1.523 . S
C840 C821 1.368 . S
C840 C834 1.368 . S
C840 C839 1.523 . S
C841 C825 1.429 . S
C841 C837 1.429 . S
C841 C842 1.523 . S
C842 C826 1.368 . S
C842 C838 1.368 . S
C842 C841 1.523 . S
H843 C818 0.950 . S
H844 C820 0.950 . S
H845 C821 0.949 . S
H846 C823 0.950 . S
H847 C825 0.950 . S
C848 C849 1.349 . S
C848 C850 1.327 . S
C848 H873 0.950 1_556 S
C849 C848 1.349 . S
C849 C865 1.349 . S
C850 C848 1.327 . S
C850 C869 1.429 . S
C850 H874 0.950 . S
C851 C868 1.574 . S
C851 C870 1.368 . S
C851 H875 0.949 . S
H852 C856 0.949 . S
C853 C854 1.349 . S
C853 C855 1.327 . S
C853 H876 0.950 . S
C854 C853 1.349 . S
C854 C866 1.349 . S
C855 C853 1.327 . S
C855 C871 1.429 . S
C855 H877 0.950 . S
C856 H852 0.949 . S
C856 C864 1.574 . S
C856 C872 1.368 . S
H857 C865 0.950 . S
H858 C863 0.950 . S
H859 C864 0.949 . S
H860 C866 0.950 . S
H861 C867 0.950 . S
H862 C868 0.949 . S
C863 H858 0.950 . S
C863 C865 1.327 . S
C863 C869 1.429 . S
C864 C856 1.574 . S
C864 H859 0.949 . S
C864 C870 1.368 . S
C865 C849 1.349 . S
C865 H857 0.950 . S
C865 C863 1.327 . S
C866 C854 1.349 . S
C866 H860 0.950 . S
C866 C867 1.327 . S
C867 H861 0.950 . S
C867 C866 1.327 . S
C867 C871 1.429 . S
C868 C851 1.574 . S
C868 H862 0.949 . S
C868 C872 1.368 . S
C869 C850 1.429 . S
C869 C863 1.429 . S
C869 C870 1.523 . S
C870 C851 1.368 . S
C870 C864 1.368 . S
C870 C869 1.523 . S
C871 C855 1.429 . S
C871 C867 1.429 . S
C871 C872 1.523 . S
C872 C856 1.368 . S
C872 C868 1.368 . S
C872 C871 1.523 . S
H873 C848 0.950 1_554 S
H874 C850 0.950 . S
H875 C851 0.949 . S
H876 C853 0.950 . S
H877 C855 0.950 . S
C878 C879 1.349 . S
C878 C880 1.327 . S
C878 H903 0.950 . S
C879 C878 1.349 . S
C879 C895 1.349 . S
C880 C878 1.327 . S
C880 C899 1.429 . S
C880 H904 0.950 . S
C881 C898 1.574 . S
C881 C900 1.368 . S
C881 H905 0.949 . S
H882 C886 0.949 . S
C883 C884 1.349 . S
C883 C885 1.327 . S
C883 H906 0.950 . S
C884 C883 1.349 . S
C884 C896 1.349 . S
C885 C883 1.327 . S
C885 C901 1.429 . S
C885 H907 0.950 . S
C886 H882 0.949 . S
C886 C894 1.574 . S
C886 C902 1.368 . S
H887 C895 0.950 . S
H888 C893 0.950 . S
H889 C894 0.949 . S
H890 C896 0.950 . S
H891 C897 0.950 . S
H892 C898 0.949 . S
C893 H888 0.950 . S
C893 C895 1.327 . S
C893 C899 1.429 . S
C894 C886 1.574 . S
C894 H889 0.949 . S
C894 C900 1.368 . S
C895 C879 1.349 . S
C895 H887 0.950 . S
C895 C893 1.327 . S
C896 C884 1.349 . S
C896 H890 0.950 . S
C896 C897 1.327 . S
C897 H891 0.950 . S
C897 C896 1.327 . S
C897 C901 1.429 . S
C898 C881 1.574 . S
C898 H892 0.949 . S
C898 C902 1.368 . S
C899 C880 1.429 . S
C899 C893 1.429 . S
C899 C900 1.523 . S
C900 C881 1.368 . S
C900 C894 1.368 . S
C900 C899 1.523 . S
C901 C885 1.429 . S
C901 C897 1.429 . S
C901 C902 1.523 . S
C902 C886 1.368 . S
C902 C898 1.368 . S
C902 C901 1.523 . S
H903 C878 0.950 . S
H904 C880 0.950 . S
H905 C881 0.949 . S
H906 C883 0.950 . S
H907 C885 0.950 . S
C908 C909 1.349 . S
C908 C910 1.327 . S
C908 H933 0.950 . S
C909 C908 1.349 . S
C909 C925 1.349 . S
C910 C908 1.327 . S
C910 C929 1.429 . S
C910 H934 0.950 . S
C911 C928 1.574 . S
C911 C930 1.368 . S
C911 H935 0.949 . S
H912 C916 0.949 . S
C913 C914 1.349 . S
C913 C915 1.327 . S
C913 H936 0.950 . S
C914 C913 1.349 . S
C914 C926 1.349 . S
C915 C913 1.327 . S
C915 C931 1.429 . S
C915 H937 0.950 . S
C916 H912 0.949 . S
C916 C924 1.574 . S
C916 C932 1.368 . S
H917 C925 0.950 . S
H918 C923 0.950 . S
H919 C924 0.949 . S
H920 C926 0.950 . S
H921 C927 0.950 . S
H922 C928 0.949 . S
C923 H918 0.950 . S
C923 C925 1.327 . S
C923 C929 1.429 . S
C924 C916 1.574 . S
C924 H919 0.949 . S
C924 C930 1.368 . S
C925 C909 1.349 . S
C925 H917 0.950 . S
C925 C923 1.327 . S
C926 C914 1.349 . S
C926 H920 0.950 . S
C926 C927 1.327 . S
C927 H921 0.950 . S
C927 C926 1.327 . S
C927 C931 1.429 . S
C928 C911 1.574 . S
C928 H922 0.949 . S
C928 C932 1.368 . S
C929 C910 1.429 . S
C929 C923 1.429 . S
C929 C930 1.523 . S
C930 C911 1.368 . S
C930 C924 1.368 . S
C930 C929 1.523 . S
C931 C915 1.429 . S
C931 C927 1.429 . S
C931 C932 1.523 . S
C932 C916 1.368 . S
C932 C928 1.368 . S
C932 C931 1.523 . S
H933 C908 0.950 . S
H934 C910 0.950 . S
H935 C911 0.949 . S
H936 C913 0.950 . S
H937 C915 0.950 . S
C938 C939 1.349 . S
C938 C940 1.327 . S
C938 H963 0.950 . S
C939 C938 1.349 . S
C939 C955 1.349 . S
C940 C938 1.327 . S
C940 C959 1.429 . S
C940 H964 0.950 . S
C941 C958 1.574 . S
C941 C960 1.368 . S
C941 H965 0.949 . S
H942 C946 0.949 . S
C943 C944 1.349 . S
C943 C945 1.327 . S
C943 H966 0.950 . S
C944 C943 1.349 . S
C944 C956 1.349 . S
C945 C943 1.327 . S
C945 C961 1.429 . S
C945 H967 0.950 . S
C946 H942 0.949 . S
C946 C954 1.574 . S
C946 C962 1.368 . S
H947 C955 0.950 . S
H948 C953 0.950 . S
H949 C954 0.949 . S
H950 C956 0.950 . S
H951 C957 0.950 . S
H952 C958 0.949 . S
C953 H948 0.950 . S
C953 C955 1.327 . S
C953 C959 1.429 . S
C954 C946 1.574 . S
C954 H949 0.949 . S
C954 C960 1.368 . S
C955 C939 1.349 . S
C955 H947 0.950 . S
C955 C953 1.327 . S
C956 C944 1.349 . S
C956 H950 0.950 . S
C956 C957 1.327 . S
C957 H951 0.950 . S
C957 C956 1.327 . S
C957 C961 1.429 . S
C958 C941 1.574 . S
C958 H952 0.949 . S
C958 C962 1.368 . S
C959 C940 1.429 . S
C959 C953 1.429 . S
C959 C960 1.523 . S
C960 C941 1.368 . S
C960 C954 1.368 . S
C960 C959 1.523 . S
C961 C945 1.429 . S
C961 C957 1.429 . S
C961 C962 1.523 . S
C962 C946 1.368 . S
C962 C958 1.368 . S
C962 C961 1.523 . S
H963 C938 0.950 . S
H964 C940 0.950 . S
H965 C941 0.949 . S
H966 C943 0.950 . S
H967 C945 0.950 . S
C968 C969 1.349 . S
C968 C970 1.327 . S
C968 H993 0.950 . S
C969 C968 1.349 . S
C969 C985 1.349 . S
C970 C968 1.327 . S
C970 C989 1.429 . S
C970 H994 0.950 . S
C971 C988 1.574 . S
C971 C990 1.368 . S
C971 H995 0.949 . S
H972 C976 0.949 . S
C973 C974 1.349 . S
C973 C975 1.327 . S
C973 H996 0.950 1_656 S
C974 C973 1.349 . S
C974 C986 1.349 . S
C975 C973 1.327 . S
C975 C991 1.429 . S
C975 H997 0.950 . S
C976 H972 0.949 . S
C976 C984 1.574 . S
C976 C992 1.368 . S
H977 C985 0.950 . S
H978 C983 0.950 . S
H979 C984 0.949 . S
H980 C986 0.950 . S
H981 C987 0.950 . S
H982 C988 0.949 . S
C983 H978 0.950 . S
C983 C985 1.327 . S
C983 C989 1.429 . S
C984 C976 1.574 . S
C984 H979 0.949 . S
C984 C990 1.368 . S
C985 C969 1.349 . S
C985 H977 0.950 . S
C985 C983 1.327 . S
C986 C974 1.349 . S
C986 H980 0.950 . S
C986 C987 1.327 . S
C987 H981 0.950 . S
C987 C986 1.327 . S
C987 C991 1.429 . S
C988 C971 1.574 . S
C988 H982 0.949 . S
C988 C992 1.368 . S
C989 C970 1.429 . S
C989 C983 1.429 . S
C989 C990 1.523 . S
C990 C971 1.368 . S
C990 C984 1.368 . S
C990 C989 1.523 . S
C991 C975 1.429 . S
C991 C987 1.429 . S
C991 C992 1.523 . S
C992 C976 1.368 . S
C992 C988 1.368 . S
C992 C991 1.523 . S
H993 C968 0.950 . S
H994 C970 0.950 . S
H995 C971 0.949 . S
H996 C973 0.950 1_454 S
H997 C975 0.950 . S
C998 C999 1.349 . S
C998 C1000 1.327 . S
C998 H1023 0.950 . S
C999 C998 1.349 . S
C999 C1015 1.349 . S
C1000 C998 1.327 . S
C1000 C1019 1.429 . S
C1000 H1024 0.950 . S
C1001 C1018 1.574 . S
C1001 C1020 1.368 . S
C1001 H1025 0.949 . S
H1002 C1006 0.949 . S
C1003 C1004 1.349 . S
C1003 C1005 1.327 . S
C1003 H1026 0.950 . S
C1004 C1003 1.349 . S
C1004 C1016 1.349 . S
C1005 C1003 1.327 . S
C1005 C1021 1.429 . S
C1005 H1027 0.950 . S
C1006 H1002 0.949 . S
C1006 C1014 1.574 . S
C1006 C1022 1.368 . S
H1007 C1015 0.950 . S
H1008 C1013 0.950 . S
H1009 C1014 0.949 . S
H1010 C1016 0.950 . S
H1011 C1017 0.950 . S
H1012 C1018 0.949 . S
C1013 H1008 0.950 . S
C1013 C1015 1.327 . S
C1013 C1019 1.429 . S
C1014 C1006 1.574 . S
C1014 H1009 0.949 . S
C1014 C1020 1.368 . S
C1015 C999 1.349 . S
C1015 H1007 0.950 . S
C1015 C1013 1.327 . S
C1016 C1004 1.349 . S
C1016 H1010 0.950 . S
C1016 C1017 1.327 . S
C1017 H1011 0.950 . S
C1017 C1016 1.327 . S
C1017 C1021 1.429 . S
C1018 C1001 1.574 . S
C1018 H1012 0.949 . S
C1018 C1022 1.368 . S
C1019 C1000 1.429 . S
C1019 C1013 1.429 . S
C1019 C1020 1.523 . S
C1020 C1001 1.368 . S
C1020 C1014 1.368 . S
C1020 C1019 1.523 . S
C1021 C1005 1.429 . S
C1021 C1017 1.429 . S
C1021 C1022 1.523 . S
C1022 C1006 1.368 . S
C1022 C1018 1.368 . S
C1022 C1021 1.523 . S
H1023 C998 0.950 . S
H1024 C1000 0.950 . S
H1025 C1001 0.949 . S
H1026 C1003 0.950 . S
H1027 C1005 0.950 . S
C1028 C1029 1.349 . S
C1028 C1030 1.327 . S
C1028 H1053 0.950 . S
C1029 C1028 1.349 . S
C1029 C1045 1.349 . S
C1030 C1028 1.327 . S
C1030 C1049 1.429 . S
C1030 H1054 0.950 . S
C1031 C1048 1.574 . S
C1031 C1050 1.368 . S
C1031 H1055 0.949 . S
H1032 C1036 0.949 . S
C1033 C1034 1.349 . S
C1033 C1035 1.327 . S
C1033 H1056 0.950 . S
C1034 C1033 1.349 . S
C1034 C1046 1.349 . S
C1035 C1033 1.327 . S
C1035 C1051 1.429 . S
C1035 H1057 0.950 . S
C1036 H1032 0.949 . S
C1036 C1044 1.574 . S
C1036 C1052 1.368 . S
H1037 C1045 0.950 . S
H1038 C1043 0.950 . S
H1039 C1044 0.949 . S
H1040 C1046 0.950 . S
H1041 C1047 0.950 . S
H1042 C1048 0.949 . S
C1043 H1038 0.950 . S
C1043 C1045 1.327 . S
C1043 C1049 1.429 . S
C1044 C1036 1.574 . S
C1044 H1039 0.949 . S
C1044 C1050 1.368 . S
C1045 C1029 1.349 . S
C1045 H1037 0.950 . S
C1045 C1043 1.327 . S
C1046 C1034 1.349 . S
C1046 H1040 0.950 . S
C1046 C1047 1.327 . S
C1047 H1041 0.950 . S
C1047 C1046 1.327 . S
C1047 C1051 1.429 . S
C1048 C1031 1.574 . S
C1048 H1042 0.949 . S
C1048 C1052 1.368 . S
C1049 C1030 1.429 . S
C1049 C1043 1.429 . S
C1049 C1050 1.523 . S
C1050 C1031 1.368 . S
C1050 C1044 1.368 . S
C1050 C1049 1.523 . S
C1051 C1035 1.429 . S
C1051 C1047 1.429 . S
C1051 C1052 1.523 . S
C1052 C1036 1.368 . S
C1052 C1048 1.368 . S
C1052 C1051 1.523 . S
H1053 C1028 0.950 . S
H1054 C1030 0.950 . S
H1055 C1031 0.949 . S
H1056 C1033 0.950 . S
H1057 C1035 0.950 . S
C1058 C1059 1.349 . S
C1058 C1060 1.327 . S
C1058 H1083 0.950 . S
C1059 C1058 1.349 . S
C1059 C1075 1.349 . S
C1060 C1058 1.327 . S
C1060 C1079 1.429 . S
C1060 H1084 0.950 . S
C1061 C1078 1.574 . S
C1061 C1080 1.368 . S
C1061 H1085 0.949 . S
H1062 C1066 0.949 . S
C1063 C1064 1.349 . S
C1063 C1065 1.327 . S
C1063 H1086 0.950 . S
C1064 C1063 1.349 . S
C1064 C1076 1.349 . S
C1065 C1063 1.327 . S
C1065 C1081 1.429 . S
C1065 H1087 0.950 . S
C1066 H1062 0.949 . S
C1066 C1074 1.574 . S
C1066 C1082 1.368 . S
H1067 C1075 0.950 . S
H1068 C1073 0.950 . S
H1069 C1074 0.949 . S
H1070 C1076 0.950 . S
H1071 C1077 0.950 . S
H1072 C1078 0.949 . S
C1073 H1068 0.950 . S
C1073 C1075 1.327 . S
C1073 C1079 1.429 . S
C1074 C1066 1.574 . S
C1074 H1069 0.949 . S
C1074 C1080 1.368 . S
C1075 C1059 1.349 . S
C1075 H1067 0.950 . S
C1075 C1073 1.327 . S
C1076 C1064 1.349 . S
C1076 H1070 0.950 . S
C1076 C1077 1.327 . S
C1077 H1071 0.950 . S
C1077 C1076 1.327 . S
C1077 C1081 1.429 . S
C1078 C1061 1.574 . S
C1078 H1072 0.949 . S
C1078 C1082 1.368 . S
C1079 C1060 1.429 . S
C1079 C1073 1.429 . S
C1079 C1080 1.523 . S
C1080 C1061 1.368 . S
C1080 C1074 1.368 . S
C1080 C1079 1.523 . S
C1081 C1065 1.429 . S
C1081 C1077 1.429 . S
C1081 C1082 1.523 . S
C1082 C1066 1.368 . S
C1082 C1078 1.368 . S
C1082 C1081 1.523 . S
H1083 C1058 0.950 . S
H1084 C1060 0.950 . S
H1085 C1061 0.949 . S
H1086 C1063 0.950 . S
H1087 C1065 0.950 . S
C1088 C1089 1.349 . S
C1088 C1090 1.327 1_545 S
C1088 H1113 0.950 . S
C1089 C1088 1.349 . S
C1089 C1105 1.349 1_545 S
C1090 C1088 1.327 1_565 S
C1090 C1109 1.429 . S
C1090 H1114 0.944 1_565 S
C1091 C1108 1.574 . S
C1091 C1110 1.368 . S
C1091 H1115 0.949 . S
H1092 C1096 0.949 . S
C1093 C1094 1.349 . S
C1093 C1095 1.327 . S
C1093 H1116 0.950 . S
C1094 C1093 1.349 . S
C1094 C1106 1.349 . S
C1095 C1093 1.327 . S
C1095 C1111 1.429 . S
C1095 H1117 0.950 . S
C1096 H1092 0.949 . S
C1096 C1104 1.574 . S
C1096 C1112 1.368 . S
H1097 C1105 0.950 . S
H1098 C1103 0.950 . S
H1099 C1104 0.949 . S
H1100 C1106 0.950 . S
H1101 C1107 0.950 . S
H1102 C1108 0.949 . S
C1103 H1098 0.950 . S
C1103 C1105 1.327 . S
C1103 C1109 1.429 . S
C1104 C1096 1.574 . S
C1104 H1099 0.949 . S
C1104 C1110 1.368 . S
C1105 C1089 1.349 1_565 S
C1105 H1097 0.950 . S
C1105 C1103 1.327 . S
C1106 C1094 1.349 . S
C1106 H1100 0.950 . S
C1106 C1107 1.327 . S
C1107 H1101 0.950 . S
C1107 C1106 1.327 . S
C1107 C1111 1.429 . S
C1108 C1091 1.574 . S
C1108 H1102 0.949 . S
C1108 C1112 1.368 . S
C1109 C1090 1.429 . S
C1109 C1103 1.429 . S
C1109 C1110 1.523 . S
C1110 C1091 1.368 . S
C1110 C1104 1.368 . S
C1110 C1109 1.523 . S
C1111 C1095 1.429 . S
C1111 C1107 1.429 . S
C1111 C1112 1.523 . S
C1112 C1096 1.368 . S
C1112 C1108 1.368 . S
C1112 C1111 1.523 . S
H1113 C1088 0.950 . S
H1114 C1090 0.944 1_545 S
H1115 C1091 0.949 . S
H1116 C1093 0.950 . S
H1117 C1095 0.950 . S
C1118 C1119 1.349 . S
C1118 C1120 1.327 . S
C1118 H1143 0.950 . S
C1119 C1118 1.349 . S
C1119 C1135 1.349 . S
C1120 C1118 1.327 . S
C1120 C1139 1.429 . S
C1120 H1144 0.950 . S
C1121 C1138 1.574 . S
C1121 C1140 1.368 . S
C1121 H1145 0.949 . S
H1122 C1126 0.949 . S
C1123 C1124 1.349 . S
C1123 C1125 1.327 . S
C1123 H1146 0.950 . S
C1124 C1123 1.349 . S
C1124 C1136 1.349 . S
C1125 C1123 1.327 . S
C1125 C1141 1.429 . S
C1125 H1147 0.950 . S
C1126 H1122 0.949 . S
C1126 C1134 1.574 . S
C1126 C1142 1.368 . S
H1127 C1135 0.950 . S
H1128 C1133 0.950 . S
H1129 C1134 0.949 . S
H1130 C1136 0.950 . S
H1131 C1137 0.950 . S
H1132 C1138 0.949 . S
C1133 H1128 0.950 . S
C1133 C1135 1.327 . S
C1133 C1139 1.429 . S
C1134 C1126 1.574 . S
C1134 H1129 0.949 . S
C1134 C1140 1.368 . S
C1135 C1119 1.349 . S
C1135 H1127 0.950 . S
C1135 C1133 1.327 . S
C1136 C1124 1.349 . S
C1136 H1130 0.950 . S
C1136 C1137 1.327 . S
C1137 H1131 0.950 . S
C1137 C1136 1.327 . S
C1137 C1141 1.429 . S
C1138 C1121 1.574 . S
C1138 H1132 0.949 . S
C1138 C1142 1.368 . S
C1139 C1120 1.429 . S
C1139 C1133 1.429 . S
C1139 C1140 1.523 . S
C1140 C1121 1.368 . S
C1140 C1134 1.368 . S
C1140 C1139 1.523 . S
C1141 C1125 1.429 . S
C1141 C1137 1.429 . S
C1141 C1142 1.523 . S
C1142 C1126 1.368 . S
C1142 C1138 1.368 . S
C1142 C1141 1.523 . S
H1143 C1118 0.950 . S
H1144 C1120 0.950 . S
H1145 C1121 0.949 . S
H1146 C1123 0.950 . S
H1147 C1125 0.950 . S
C1148 C1149 1.349 . S
C1148 C1150 1.327 . S
C1148 H1173 0.950 . S
C1149 C1148 1.349 . S
C1149 C1165 1.349 . S
C1150 C1148 1.327 . S
C1150 C1169 1.429 . S
C1150 H1174 0.950 . S
C1151 C1168 1.574 . S
C1151 C1170 1.368 . S
C1151 H1175 0.949 . S
H1152 C1156 0.949 . S
C1153 C1154 1.349 . S
C1153 C1155 1.327 . S
C1153 H1176 0.950 . S
C1154 C1153 1.349 . S
C1154 C1166 1.349 . S
C1155 C1153 1.327 . S
C1155 C1171 1.429 . S
C1155 H1177 0.950 . S
C1156 H1152 0.949 . S
C1156 C1164 1.574 . S
C1156 C1172 1.368 . S
H1157 C1165 0.950 . S
H1158 C1163 0.950 . S
H1159 C1164 0.949 . S
H1160 C1166 0.950 . S
H1161 C1167 0.950 . S
H1162 C1168 0.949 . S
C1163 H1158 0.950 . S
C1163 C1165 1.327 . S
C1163 C1169 1.429 . S
C1164 C1156 1.574 . S
C1164 H1159 0.949 . S
C1164 C1170 1.368 . S
C1165 C1149 1.349 . S
C1165 H1157 0.950 . S
C1165 C1163 1.327 . S
C1166 C1154 1.349 . S
C1166 H1160 0.950 . S
C1166 C1167 1.327 . S
C1167 H1161 0.950 . S
C1167 C1166 1.327 . S
C1167 C1171 1.429 . S
C1168 C1151 1.574 . S
C1168 H1162 0.949 . S
C1168 C1172 1.368 . S
C1169 C1150 1.429 . S
C1169 C1163 1.429 . S
C1169 C1170 1.523 . S
C1170 C1151 1.368 . S
C1170 C1164 1.368 . S
C1170 C1169 1.523 . S
C1171 C1155 1.429 . S
C1171 C1167 1.429 . S
C1171 C1172 1.523 . S
C1172 C1156 1.368 . S
C1172 C1168 1.368 . S
C1172 C1171 1.523 . S
H1173 C1148 0.950 . S
H1174 C1150 0.950 . S
H1175 C1151 0.949 . S
H1176 C1153 0.950 . S
H1177 C1155 0.950 . S
C1178 C1179 1.349 . S
C1178 C1180 1.327 . S
C1178 H1203 0.950 . S
C1179 C1178 1.349 . S
C1179 C1195 1.349 . S
C1180 C1178 1.327 . S
C1180 C1199 1.429 . S
C1180 H1204 0.950 . S
C1181 C1198 1.574 . S
C1181 C1200 1.368 . S
C1181 H1205 0.949 . S
H1182 C1186 0.949 . S
C1183 C1184 1.349 . S
C1183 C1185 1.327 . S
C1183 H1206 0.950 . S
C1184 C1183 1.349 . S
C1184 C1196 1.349 1_554 S
C1185 C1183 1.327 . S
C1185 C1201 1.429 1_554 S
C1185 H1207 0.950 . S
C1186 H1182 0.949 . S
C1186 C1194 1.574 . S
C1186 C1202 1.368 . S
H1187 C1195 0.950 . S
H1188 C1193 0.950 . S
H1189 C1194 0.949 . S
H1190 C1196 0.950 1_545 S
H1191 C1197 0.950 . S
H1192 C1198 0.949 1_554 S
C1193 H1188 0.950 . S
C1193 C1195 1.327 . S
C1193 C1199 1.429 . S
C1194 C1186 1.574 . S
C1194 H1189 0.949 . S
C1194 C1200 1.368 . S
C1195 C1179 1.349 . S
C1195 H1187 0.950 . S
C1195 C1193 1.327 . S
C1196 C1184 1.349 1_556 S
C1196 H1190 0.950 1_565 S
C1196 C1197 1.327 . S
C1197 H1191 0.950 . S
C1197 C1196 1.327 . S
C1197 C1201 1.429 . S
C1198 C1181 1.574 . S
C1198 H1192 0.949 1_556 S
C1198 C1202 1.368 . S
C1199 C1180 1.429 . S
C1199 C1193 1.429 . S
C1199 C1200 1.523 . S
C1200 C1181 1.368 . S
C1200 C1194 1.368 . S
C1200 C1199 1.523 . S
C1201 C1185 1.429 1_556 S
C1201 C1197 1.429 . S
C1201 C1202 1.523 . S
C1202 C1186 1.368 . S
C1202 C1198 1.368 . S
C1202 C1201 1.523 . S
H1203 C1178 0.950 . S
H1204 C1180 0.950 . S
H1205 C1181 0.949 . S
H1206 C1183 0.950 . S
H1207 C1185 0.950 . S
C1208 C1209 1.349 . S
C1208 C1210 1.327 . S
C1208 H1233 0.950 . S
C1209 C1208 1.349 . S
C1209 C1225 1.349 1_645 S
C1210 C1208 1.327 . S
C1210 C1229 1.429 1_545 S
C1210 H1234 0.950 . S
C1211 C1228 1.574 . S
C1211 C1230 1.368 . S
C1211 H1235 0.949 . S
H1212 C1216 0.949 . S
C1213 C1214 1.349 . S
C1213 C1215 1.327 . S
C1213 H1236 0.950 . S
C1214 C1213 1.349 . S
C1214 C1226 1.349 . S
C1215 C1213 1.327 . S
C1215 C1231 1.429 . S
C1215 H1237 0.950 . S
C1216 H1212 0.949 . S
C1216 C1224 1.574 . S
C1216 C1232 1.368 . S
H1217 C1225 0.950 . S
H1218 C1223 0.950 . S
H1219 C1224 0.949 1_545 S
H1220 C1226 0.950 . S
H1221 C1227 0.950 . S
H1222 C1228 0.949 . S
C1223 H1218 0.950 . S
C1223 C1225 1.327 1_655 S
C1223 C1229 1.429 . S
C1224 C1216 1.574 . S
C1224 H1219 0.949 1_565 S
C1224 C1230 1.368 . S
C1225 C1209 1.349 1_465 S
C1225 H1217 0.950 . S
C1225 C1223 1.327 1_455 S
C1226 C1214 1.349 . S
C1226 H1220 0.950 . S
C1226 C1227 1.327 . S
C1227 H1221 0.950 . S
C1227 C1226 1.327 . S
C1227 C1231 1.429 . S
C1228 C1211 1.574 . S
C1228 H1222 0.949 . S
C1228 C1232 1.368 . S
C1229 C1210 1.429 1_565 S
C1229 C1223 1.429 . S
C1229 C1230 1.523 . S
C1230 C1211 1.368 . S
C1230 C1224 1.368 . S
C1230 C1229 1.523 . S
C1231 C1215 1.429 . S
C1231 C1227 1.429 . S
C1231 C1232 1.523 . S
C1232 C1216 1.368 . S
C1232 C1228 1.368 . S
C1232 C1231 1.523 . S
H1233 C1208 0.950 . S
H1234 C1210 0.950 . S
H1235 C1211 0.949 . S
H1236 C1213 0.950 . S
H1237 C1215 0.950 . S
C1238 C1239 1.349 . S
C1238 C1240 1.327 . S
C1238 H1263 0.950 . S
C1239 C1238 1.349 . S
C1239 C1255 1.349 . S
C1240 C1238 1.327 . S
C1240 C1259 1.429 . S
C1240 H1264 0.950 . S
C1241 C1258 1.574 . S
C1241 C1260 1.368 . S
C1241 H1265 0.949 . S
H1242 C1246 0.949 . S
C1243 C1244 1.349 . S
C1243 C1245 1.327 . S
C1243 H1266 0.976 . S
C1244 C1243 1.349 . S
C1244 C1256 1.349 . S
C1245 C1243 1.327 . S
C1245 C1261 1.429 . S
C1245 H1267 0.950 . S
C1246 H1242 0.949 . S
C1246 C1254 1.574 . S
C1246 C1262 1.368 . S
H1247 C1255 0.950 . S
H1248 C1253 0.950 . S
H1249 C1254 0.949 . S
H1250 C1256 0.950 . S
H1251 C1257 0.950 . S
H1252 C1258 0.949 . S
C1253 H1248 0.950 . S
C1253 C1255 1.327 . S
C1253 C1259 1.429 . S
C1254 C1246 1.574 . S
C1254 H1249 0.949 . S
C1254 C1260 1.368 . S
C1255 C1239 1.349 . S
C1255 H1247 0.950 . S
C1255 C1253 1.327 . S
C1256 C1244 1.349 . S
C1256 H1250 0.950 . S
C1256 C1257 1.327 . S
C1257 H1251 0.950 . S
C1257 C1256 1.327 . S
C1257 C1261 1.429 . S
C1258 C1241 1.574 . S
C1258 H1252 0.949 . S
C1258 C1262 1.368 . S
C1259 C1240 1.429 . S
C1259 C1253 1.429 . S
C1259 C1260 1.523 . S
C1260 C1241 1.368 . S
C1260 C1254 1.368 . S
C1260 C1259 1.523 . S
C1261 C1245 1.429 . S
C1261 C1257 1.429 . S
C1261 C1262 1.523 . S
C1262 C1246 1.368 . S
C1262 C1258 1.368 . S
C1262 C1261 1.523 . S
H1263 C1238 0.950 . S
H1264 C1240 0.950 . S
H1265 C1241 0.949 . S
H1266 C1243 0.976 . S
H1267 C1245 0.950 . S
C1268 C1269 1.349 1_455 S
C1268 C1270 1.327 1_455 S
C1268 H1293 0.950 . S
C1269 C1268 1.349 1_655 S
C1269 C1285 1.349 . S
C1270 C1268 1.327 1_655 S
C1270 C1289 1.429 . S
C1270 H1294 0.950 . S
C1271 C1288 1.574 . S
C1271 C1290 1.368 . S
C1271 H1295 0.949 . S
H1272 C1276 0.949 . S
C1273 C1274 1.349 . S
C1273 C1275 1.327 . S
C1273 H1296 0.950 . S
C1274 C1273 1.349 . S
C1274 C1286 1.349 . S
C1275 C1273 1.327 . S
C1275 C1291 1.429 . S
C1275 H1297 0.950 . S
C1276 H1272 0.949 . S
C1276 C1284 1.574 . S
C1276 C1292 1.368 . S
H1277 C1285 0.950 . S
H1278 C1283 0.950 . S
H1279 C1284 0.949 . S
H1280 C1286 0.950 . S
H1281 C1287 0.950 . S
H1282 C1288 0.949 . S
C1283 H1278 0.950 . S
C1283 C1285 1.327 . S
C1283 C1289 1.429 . S
C1284 C1276 1.574 . S
C1284 H1279 0.949 . S
C1284 C1290 1.368 . S
C1285 C1269 1.349 . S
C1285 H1277 0.950 . S
C1285 C1283 1.327 . S
C1286 C1274 1.349 . S
C1286 H1280 0.950 . S
C1286 C1287 1.327 . S
C1287 H1281 0.950 . S
C1287 C1286 1.327 . S
C1287 C1291 1.429 . S
C1288 C1271 1.574 . S
C1288 H1282 0.949 . S
C1288 C1292 1.368 . S
C1289 C1270 1.429 . S
C1289 C1283 1.429 . S
C1289 C1290 1.523 . S
C1290 C1271 1.368 . S
C1290 C1284 1.368 . S
C1290 C1289 1.523 . S
C1291 C1275 1.429 . S
C1291 C1287 1.429 . S
C1291 C1292 1.523 . S
C1292 C1276 1.368 . S
C1292 C1288 1.368 . S
C1292 C1291 1.523 . S
H1293 C1268 0.950 . S
H1294 C1270 0.950 . S
H1295 C1271 0.949 . S
H1296 C1273 0.950 . S
H1297 C1275 0.950 . S
C1298 C1299 1.349 . S
C1298 C1300 1.327 . S
C1298 H1323 0.950 . S
C1299 C1298 1.349 . S
C1299 C1315 1.349 . S
C1300 C1298 1.327 . S
C1300 C1319 1.429 . S
C1300 H1324 0.950 . S
C1301 C1318 1.574 . S
C1301 C1320 1.368 . S
C1301 H1325 0.949 . S
H1302 C1306 0.949 . S
C1303 C1304 1.349 . S
C1303 C1305 1.327 . S
C1303 H1326 0.950 . S
C1304 C1303 1.349 . S
C1304 C1316 1.349 . S
C1305 C1303 1.327 . S
C1305 C1321 1.429 . S
C1305 H1327 0.950 . S
C1306 H1302 0.949 . S
C1306 C1314 1.574 . S
C1306 C1322 1.368 . S
H1307 C1315 0.950 . S
H1308 C1313 0.950 . S
H1309 C1314 0.949 . S
H1310 C1316 0.950 . S
H1311 C1317 0.950 . S
H1312 C1318 0.949 . S
C1313 H1308 0.950 . S
C1313 C1315 1.327 . S
C1313 C1319 1.429 . S
C1314 C1306 1.574 . S
C1314 H1309 0.949 . S
C1314 C1320 1.368 . S
C1315 C1299 1.349 . S
C1315 H1307 0.950 . S
C1315 C1313 1.327 . S
C1316 C1304 1.349 . S
C1316 H1310 0.950 . S
C1316 C1317 1.327 . S
C1317 H1311 0.950 . S
C1317 C1316 1.327 . S
C1317 C1321 1.429 . S
C1318 C1301 1.574 . S
C1318 H1312 0.949 . S
C1318 C1322 1.368 . S
C1319 C1300 1.429 . S
C1319 C1313 1.429 . S
C1319 C1320 1.523 . S
C1320 C1301 1.368 . S
C1320 C1314 1.368 . S
C1320 C1319 1.523 . S
C1321 C1305 1.429 . S
C1321 C1317 1.429 . S
C1321 C1322 1.523 . S
C1322 C1306 1.368 . S
C1322 C1318 1.368 . S
C1322 C1321 1.523 . S
H1323 C1298 0.950 . S
H1324 C1300 0.950 . S
H1325 C1301 0.949 . S
H1326 C1303 0.950 . S
H1327 C1305 0.950 . S
C1328 C1329 1.349 . S
C1328 C1330 1.327 . S
C1328 H1353 0.950 . S
C1329 C1328 1.349 . S
C1329 C1345 1.349 . S
C1330 C1328 1.327 . S
C1330 C1349 1.429 . S
C1330 H1354 0.950 . S
C1331 C1348 1.574 . S
C1331 C1350 1.368 . S
C1331 H1355 0.949 . S
H1332 C1336 0.949 . S
C1333 C1334 1.349 . S
C1333 C1335 1.327 . S
C1333 H1356 0.950 . S
C1334 C1333 1.349 . S
C1334 C1346 1.349 . S
C1335 C1333 1.327 . S
C1335 C1351 1.429 . S
C1335 H1357 0.950 . S
C1336 H1332 0.949 . S
C1336 C1344 1.574 . S
C1336 C1352 1.368 . S
H1337 C1345 0.950 . S
H1338 C1343 0.950 . S
H1339 C1344 0.949 . S
H1340 C1346 0.950 . S
H1341 C1347 0.950 . S
H1342 C1348 0.949 . S
C1343 H1338 0.950 . S
C1343 C1345 1.327 . S
C1343 C1349 1.429 . S
C1344 C1336 1.574 . S
C1344 H1339 0.949 . S
C1344 C1350 1.368 . S
C1345 C1329 1.349 . S
C1345 H1337 0.950 . S
C1345 C1343 1.327 . S
C1346 C1334 1.349 . S
C1346 H1340 0.950 . S
C1346 C1347 1.327 . S
C1347 H1341 0.950 . S
C1347 C1346 1.327 . S
C1347 C1351 1.429 . S
C1348 C1331 1.574 . S
C1348 H1342 0.949 . S
C1348 C1352 1.368 . S
C1349 C1330 1.429 . S
C1349 C1343 1.429 . S
C1349 C1350 1.523 . S
C1350 C1331 1.368 . S
C1350 C1344 1.368 . S
C1350 C1349 1.523 . S
C1351 C1335 1.429 . S
C1351 C1347 1.429 . S
C1351 C1352 1.523 . S
C1352 C1336 1.368 . S
C1352 C1348 1.368 . S
C1352 C1351 1.523 . S
H1353 C1328 0.950 . S
H1354 C1330 0.950 . S
H1355 C1331 0.949 . S
H1356 C1333 0.950 . S
H1357 C1335 0.950 . S
C1358 C1359 1.349 . S
C1358 C1360 1.327 . S
C1358 H1383 0.950 . S
C1359 C1358 1.349 . S
C1359 C1375 1.349 . S
C1360 C1358 1.327 . S
C1360 C1379 1.429 . S
C1360 H1384 0.950 . S
C1361 C1378 1.574 . S
C1361 C1380 1.368 . S
C1361 H1385 0.949 . S
H1362 C1366 0.949 . S
C1363 C1364 1.349 . S
C1363 C1365 1.327 . S
C1363 H1386 0.950 . S
C1364 C1363 1.349 . S
C1364 C1376 1.349 . S
C1365 C1363 1.327 . S
C1365 C1381 1.429 . S
C1365 H1387 0.950 . S
C1366 H1362 0.949 . S
C1366 C1374 1.574 . S
C1366 C1382 1.368 . S
H1367 C1375 0.950 . S
H1368 C1373 0.950 . S
H1369 C1374 0.949 . S
H1370 C1376 0.950 . S
H1371 C1377 0.950 . S
H1372 C1378 0.949 . S
C1373 H1368 0.950 . S
C1373 C1375 1.327 . S
C1373 C1379 1.429 . S
C1374 C1366 1.574 . S
C1374 H1369 0.949 . S
C1374 C1380 1.368 . S
C1375 C1359 1.349 . S
C1375 H1367 0.950 . S
C1375 C1373 1.327 . S
C1376 C1364 1.349 . S
C1376 H1370 0.950 . S
C1376 C1377 1.327 . S
C1377 H1371 0.950 . S
C1377 C1376 1.327 . S
C1377 C1381 1.429 . S
C1378 C1361 1.574 . S
C1378 H1372 0.949 . S
C1378 C1382 1.368 . S
C1379 C1360 1.429 . S
C1379 C1373 1.429 . S
C1379 C1380 1.523 . S
C1380 C1361 1.368 . S
C1380 C1374 1.368 . S
C1380 C1379 1.523 . S
C1381 C1365 1.429 . S
C1381 C1377 1.429 . S
C1381 C1382 1.523 . S
C1382 C1366 1.368 . S
C1382 C1378 1.368 . S
C1382 C1381 1.523 . S
H1383 C1358 0.950 . S
H1384 C1360 0.950 . S
H1385 C1361 0.949 . S
H1386 C1363 0.950 . S
H1387 C1365 0.950 . S
C1388 C1389 1.349 . S
C1388 C1390 1.327 . S
C1388 H1413 0.950 . S
C1389 C1388 1.349 . S
C1389 C1405 1.349 . S
C1390 C1388 1.327 . S
C1390 C1409 1.429 . S
C1390 H1414 0.950 . S
C1391 C1408 1.574 . S
C1391 C1410 1.368 . S
C1391 H1415 0.949 . S
H1392 C1396 0.949 . S
C1393 C1394 1.349 . S
C1393 C1395 1.327 . S
C1393 H1416 0.950 . S
C1394 C1393 1.349 . S
C1394 C1406 1.349 . S
C1395 C1393 1.327 . S
C1395 C1411 1.429 . S
C1395 H1417 0.950 . S
C1396 H1392 0.949 . S
C1396 C1404 1.574 . S
C1396 C1412 1.368 . S
H1397 C1405 0.950 . S
H1398 C1403 0.950 . S
H1399 C1404 0.949 . S
H1400 C1406 0.950 . S
H1401 C1407 0.950 . S
H1402 C1408 0.949 . S
C1403 H1398 0.950 . S
C1403 C1405 1.327 . S
C1403 C1409 1.429 . S
C1404 C1396 1.574 . S
C1404 H1399 0.949 . S
C1404 C1410 1.368 . S
C1405 C1389 1.349 . S
C1405 H1397 0.950 . S
C1405 C1403 1.327 . S
C1406 C1394 1.349 . S
C1406 H1400 0.950 . S
C1406 C1407 1.327 . S
C1407 H1401 0.950 . S
C1407 C1406 1.327 . S
C1407 C1411 1.429 . S
C1408 C1391 1.574 . S
C1408 H1402 0.949 . S
C1408 C1412 1.368 . S
C1409 C1390 1.429 . S
C1409 C1403 1.429 . S
C1409 C1410 1.523 . S
C1410 C1391 1.368 . S
C1410 C1404 1.368 . S
C1410 C1409 1.523 . S
C1411 C1395 1.429 . S
C1411 C1407 1.429 . S
C1411 C1412 1.523 . S
C1412 C1396 1.368 . S
C1412 C1408 1.368 . S
C1412 C1411 1.523 . S
H1413 C1388 0.950 . S
H1414 C1390 0.950 . S
H1415 C1391 0.949 . S
H1416 C1393 0.950 . S
H1417 C1395 0.950 . S
C1418 C1419 1.349 . S
C1418 C1420 1.327 . S
C1418 H1443 0.950 . S
C1419 C1418 1.349 . S
C1419 C1435 1.349 . S
C1420 C1418 1.327 . S
C1420 C1439 1.429 . S
C1420 H1444 0.950 . S
C1421 C1438 1.574 . S
C1421 C1440 1.368 . S
C1421 H1445 0.949 . S
H1422 C1426 0.949 . S
C1423 C1424 1.349 . S
C1423 C1425 1.327 . S
C1423 H1446 0.950 . S
C1424 C1423 1.349 . S
C1424 C1436 1.349 . S
C1425 C1423 1.327 . S
C1425 C1441 1.429 . S
C1425 H1447 0.950 . S
C1426 H1422 0.949 . S
C1426 C1434 1.574 . S
C1426 C1442 1.368 . S
H1427 C1435 0.950 1_545 S
H1428 C1433 0.950 . S
H1429 C1434 0.949 . S
H1430 C1436 0.950 . S
H1431 C1437 0.950 . S
H1432 C1438 0.949 . S
C1433 H1428 0.950 . S
C1433 C1435 1.327 . S
C1433 C1439 1.429 . S
C1434 C1426 1.574 . S
C1434 H1429 0.949 . S
C1434 C1440 1.368 . S
C1435 C1419 1.349 . S
C1435 H1427 0.950 1_565 S
C1435 C1433 1.327 . S
C1436 C1424 1.349 . S
C1436 H1430 0.950 . S
C1436 C1437 1.327 . S
C1437 H1431 0.950 . S
C1437 C1436 1.327 . S
C1437 C1441 1.429 . S
C1438 C1421 1.574 . S
C1438 H1432 0.949 . S
C1438 C1442 1.368 . S
C1439 C1420 1.429 . S
C1439 C1433 1.429 . S
C1439 C1440 1.523 . S
C1440 C1421 1.368 . S
C1440 C1434 1.368 . S
C1440 C1439 1.523 . S
C1441 C1425 1.429 . S
C1441 C1437 1.429 . S
C1441 C1442 1.523 . S
C1442 C1426 1.368 . S
C1442 C1438 1.368 . S
C1442 C1441 1.523 . S
H1443 C1418 0.950 . S
H1444 C1420 0.950 . S
H1445 C1421 0.949 . S
H1446 C1423 0.950 . S
H1447 C1425 0.950 . S
C1448 C1449 1.349 . S
C1448 C1450 1.327 . S
C1448 H1473 0.973 . S
C1449 C1448 1.349 . S
C1449 C1465 1.349 . S
C1450 C1448 1.327 . S
C1450 C1469 1.429 . S
C1450 H1474 0.950 . S
C1451 C1468 1.574 . S
C1451 C1470 1.368 . S
C1451 H1475 0.949 . S
H1452 C1456 0.949 . S
C1453 C1454 1.349 . S
C1453 C1455 1.327 . S
C1453 H1476 0.950 . S
C1454 C1453 1.349 . S
C1454 C1466 1.349 . S
C1455 C1453 1.327 . S
C1455 C1471 1.429 . S
C1455 H1477 0.950 . S
C1456 H1452 0.949 . S
C1456 C1464 1.574 . S
C1456 C1472 1.368 . S
H1457 C1465 0.950 . S
H1458 C1463 0.950 1_655 S
H1459 C1464 0.949 1_455 S
H1460 C1466 0.950 . S
H1461 C1467 0.950 . S
H1462 C1468 0.949 . S
C1463 H1458 0.950 1_455 S
C1463 C1465 1.327 . S
C1463 C1469 1.429 . S
C1464 C1456 1.574 . S
C1464 H1459 0.949 1_655 S
C1464 C1470 1.368 . S
C1465 C1449 1.349 . S
C1465 H1457 0.950 . S
C1465 C1463 1.327 . S
C1466 C1454 1.349 . S
C1466 H1460 0.950 . S
C1466 C1467 1.327 . S
C1467 H1461 0.950 . S
C1467 C1466 1.327 . S
C1467 C1471 1.429 . S
C1468 C1451 1.574 . S
C1468 H1462 0.949 . S
C1468 C1472 1.368 . S
C1469 C1450 1.429 . S
C1469 C1463 1.429 . S
C1469 C1470 1.523 1_455 S
C1470 C1451 1.368 . S
C1470 C1464 1.368 . S
C1470 C1469 1.523 1_655 S
C1471 C1455 1.429 . S
C1471 C1467 1.429 . S
C1471 C1472 1.523 . S
C1472 C1456 1.368 . S
C1472 C1468 1.368 . S
C1472 C1471 1.523 . S
H1473 C1448 0.973 . S
H1474 C1450 0.950 . S
H1475 C1451 0.949 . S
H1476 C1453 0.950 . S
H1477 C1455 0.950 . S
C1478 C1479 1.349 . S
C1478 C1480 1.327 . S
C1478 H1503 0.950 . S
C1479 C1478 1.349 . S
C1479 C1495 1.349 . S
C1480 C1478 1.327 . S
C1480 C1499 1.429 . S
C1480 H1504 0.950 . S
C1481 C1498 1.574 . S
C1481 C1500 1.368 . S
C1481 H1505 0.949 . S
H1482 C1486 0.949 . S
C1483 C1484 1.349 . S
C1483 C1485 1.327 . S
C1483 H1506 0.950 . S
C1484 C1483 1.349 . S
C1484 C1496 1.349 . S
C1485 C1483 1.327 . S
C1485 C1501 1.429 . S
C1485 H1507 0.950 . S
C1486 H1482 0.949 . S
C1486 C1494 1.574 . S
C1486 C1502 1.368 . S
H1487 C1495 0.950 . S
H1488 C1493 0.950 . S
H1489 C1494 0.949 . S
H1490 C1496 0.950 . S
H1491 C1497 0.950 . S
H1492 C1498 0.949 . S
C1493 H1488 0.950 . S
C1493 C1495 1.327 . S
C1493 C1499 1.429 . S
C1494 C1486 1.574 . S
C1494 H1489 0.949 . S
C1494 C1500 1.368 . S
C1495 C1479 1.349 . S
C1495 H1487 0.950 . S
C1495 C1493 1.327 . S
C1496 C1484 1.349 . S
C1496 H1490 0.950 . S
C1496 C1497 1.327 . S
C1497 H1491 0.950 . S
C1497 C1496 1.327 . S
C1497 C1501 1.429 . S
C1498 C1481 1.574 . S
C1498 H1492 0.949 . S
C1498 C1502 1.368 . S
C1499 C1480 1.429 . S
C1499 C1493 1.429 . S
C1499 C1500 1.523 . S
C1500 C1481 1.368 . S
C1500 C1494 1.368 . S
C1500 C1499 1.523 . S
C1501 C1485 1.429 . S
C1501 C1497 1.429 . S
C1501 C1502 1.523 . S
C1502 C1486 1.368 . S
C1502 C1498 1.368 . S
C1502 C1501 1.523 . S
H1503 C1478 0.950 . S
H1504 C1480 0.950 . S
H1505 C1481 0.949 . S
H1506 C1483 0.950 . S
H1507 C1485 0.950 . S
C1508 C1509 1.349 . S
C1508 C1510 1.327 . S
C1508 H1533 0.950 1_556 S
C1509 C1508 1.349 . S
C1509 C1525 1.349 . S
C1510 C1508 1.327 . S
C1510 C1529 1.429 . S
C1510 H1534 0.950 . S
C1511 C1528 1.574 . S
C1511 C1530 1.368 . S
C1511 H1535 0.949 . S
H1512 C1516 0.949 . S
C1513 C1514 1.349 . S
C1513 C1515 1.327 . S
C1513 H1536 0.950 . S
C1514 C1513 1.349 . S
C1514 C1526 1.349 . S
C1515 C1513 1.327 . S
C1515 C1531 1.429 . S
C1515 H1537 0.950 . S
C1516 H1512 0.949 . S
C1516 C1524 1.574 . S
C1516 C1532 1.368 . S
H1517 C1525 0.950 . S
H1518 C1523 0.950 . S
H1519 C1524 0.949 . S
H1520 C1526 0.950 . S
H1521 C1527 0.950 . S
H1522 C1528 0.949 . S
C1523 H1518 0.950 . S
C1523 C1525 1.327 . S
C1523 C1529 1.429 . S
C1524 C1516 1.574 . S
C1524 H1519 0.949 . S
C1524 C1530 1.368 . S
C1525 C1509 1.349 . S
C1525 H1517 0.950 . S
C1525 C1523 1.327 . S
C1526 C1514 1.349 . S
C1526 H1520 0.950 . S
C1526 C1527 1.327 . S
C1527 H1521 0.950 . S
C1527 C1526 1.327 . S
C1527 C1531 1.429 . S
C1528 C1511 1.574 . S
C1528 H1522 0.949 . S
C1528 C1532 1.368 . S
C1529 C1510 1.429 . S
C1529 C1523 1.429 . S
C1529 C1530 1.523 . S
C1530 C1511 1.368 . S
C1530 C1524 1.368 . S
C1530 C1529 1.523 . S
C1531 C1515 1.429 . S
C1531 C1527 1.429 . S
C1531 C1532 1.523 . S
C1532 C1516 1.368 . S
C1532 C1528 1.368 . S
C1532 C1531 1.523 . S
H1533 C1508 0.950 1_554 S
H1534 C1510 0.950 . S
H1535 C1511 0.949 . S
H1536 C1513 0.950 . S
H1537 C1515 0.950 . S
C1538 C1539 1.349 . S
C1538 C1540 1.327 . S
C1538 H1563 0.950 . S
C1539 C1538 1.349 . S
C1539 C1555 1.349 . S
C1540 C1538 1.327 . S
C1540 C1559 1.429 . S
C1540 H1564 0.950 . S
C1541 C1558 1.574 . S
C1541 C1560 1.368 . S
C1541 H1565 0.949 . S
H1542 C1546 0.949 . S
C1543 C1544 1.349 . S
C1543 C1545 1.327 . S
C1543 H1566 0.950 . S
C1544 C1543 1.349 . S
C1544 C1556 1.349 . S
C1545 C1543 1.327 . S
C1545 C1561 1.429 . S
C1545 H1567 0.950 . S
C1546 H1542 0.949 . S
C1546 C1554 1.574 . S
C1546 C1562 1.368 . S
H1547 C1555 0.950 . S
H1548 C1553 0.950 . S
H1549 C1554 0.949 . S
H1550 C1556 0.950 . S
H1551 C1557 0.950 . S
H1552 C1558 0.949 . S
C1553 H1548 0.950 . S
C1553 C1555 1.327 . S
C1553 C1559 1.429 . S
C1554 C1546 1.574 . S
C1554 H1549 0.949 . S
C1554 C1560 1.368 . S
C1555 C1539 1.349 . S
C1555 H1547 0.950 . S
C1555 C1553 1.327 . S
C1556 C1544 1.349 . S
C1556 H1550 0.950 . S
C1556 C1557 1.327 . S
C1557 H1551 0.950 . S
C1557 C1556 1.327 . S
C1557 C1561 1.429 . S
C1558 C1541 1.574 . S
C1558 H1552 0.949 . S
C1558 C1562 1.368 . S
C1559 C1540 1.429 . S
C1559 C1553 1.429 . S
C1559 C1560 1.523 . S
C1560 C1541 1.368 . S
C1560 C1554 1.368 . S
C1560 C1559 1.523 . S
C1561 C1545 1.429 . S
C1561 C1557 1.429 . S
C1561 C1562 1.523 . S
C1562 C1546 1.368 . S
C1562 C1558 1.368 . S
C1562 C1561 1.523 . S
H1563 C1538 0.950 . S
H1564 C1540 0.950 . S
H1565 C1541 0.949 . S
H1566 C1543 0.950 . S
H1567 C1545 0.950 . S
C1568 C1569 1.349 . S
C1568 C1570 1.327 . S
C1568 H1593 0.950 . S
C1569 C1568 1.349 . S
C1569 C1585 1.349 . S
C1570 C1568 1.327 . S
C1570 C1589 1.429 . S
C1570 H1594 0.950 . S
C1571 C1588 1.574 . S
C1571 C1590 1.368 . S
C1571 H1595 0.949 . S
H1572 C1576 0.949 . S
C1573 C1574 1.349 . S
C1573 C1575 1.327 . S
C1573 H1596 0.950 . S
C1574 C1573 1.349 . S
C1574 C1586 1.349 . S
C1575 C1573 1.327 . S
C1575 C1591 1.429 . S
C1575 H1597 0.950 . S
C1576 H1572 0.949 . S
C1576 C1584 1.574 . S
C1576 C1592 1.368 . S
H1577 C1585 0.950 . S
H1578 C1583 0.950 . S
H1579 C1584 0.949 . S
H1580 C1586 0.950 . S
H1581 C1587 0.950 . S
H1582 C1588 0.949 . S
C1583 H1578 0.950 . S
C1583 C1585 1.327 . S
C1583 C1589 1.429 . S
C1584 C1576 1.574 . S
C1584 H1579 0.949 . S
C1584 C1590 1.368 . S
C1585 C1569 1.349 . S
C1585 H1577 0.950 . S
C1585 C1583 1.327 . S
C1586 C1574 1.349 . S
C1586 H1580 0.950 . S
C1586 C1587 1.327 . S
C1587 H1581 0.950 . S
C1587 C1586 1.327 . S
C1587 C1591 1.429 . S
C1588 C1571 1.574 . S
C1588 H1582 0.949 . S
C1588 C1592 1.368 . S
C1589 C1570 1.429 . S
C1589 C1583 1.429 . S
C1589 C1590 1.523 . S
C1590 C1571 1.368 . S
C1590 C1584 1.368 . S
C1590 C1589 1.523 . S
C1591 C1575 1.429 . S
C1591 C1587 1.429 . S
C1591 C1592 1.523 . S
C1592 C1576 1.368 . S
C1592 C1588 1.368 . S
C1592 C1591 1.523 . S
H1593 C1568 0.950 . S
H1594 C1570 0.950 . S
H1595 C1571 0.949 . S
H1596 C1573 0.950 . S
H1597 C1575 0.950 . S
C1598 C1599 1.349 . S
C1598 C1600 1.327 . S
C1598 H1623 0.950 . S
C1599 C1598 1.349 . S
C1599 C1615 1.349 . S
C1600 C1598 1.327 . S
C1600 C1619 1.429 . S
C1600 H1624 0.950 . S
C1601 C1618 1.574 . S
C1601 C1620 1.368 . S
C1601 H1625 0.949 . S
H1602 C1606 0.949 . S
C1603 C1604 1.349 . S
C1603 C1605 1.327 . S
C1603 H1626 0.950 . S
C1604 C1603 1.349 . S
C1604 C1616 1.349 . S
C1605 C1603 1.327 . S
C1605 C1621 1.429 . S
C1605 H1627 0.950 . S
C1606 H1602 0.949 . S
C1606 C1614 1.574 . S
C1606 C1622 1.368 . S
H1607 C1615 0.950 . S
H1608 C1613 0.950 . S
H1609 C1614 0.949 . S
H1610 C1616 0.950 . S
H1611 C1617 0.950 . S
H1612 C1618 0.949 . S
C1613 H1608 0.950 . S
C1613 C1615 1.327 . S
C1613 C1619 1.429 . S
C1614 C1606 1.574 . S
C1614 H1609 0.949 . S
C1614 C1620 1.368 . S
C1615 C1599 1.349 . S
C1615 H1607 0.950 . S
C1615 C1613 1.327 . S
C1616 C1604 1.349 . S
C1616 H1610 0.950 . S
C1616 C1617 1.327 . S
C1617 H1611 0.950 . S
C1617 C1616 1.327 . S
C1617 C1621 1.429 . S
C1618 C1601 1.574 . S
C1618 H1612 0.949 . S
C1618 C1622 1.368 . S
C1619 C1600 1.429 . S
C1619 C1613 1.429 . S
C1619 C1620 1.523 . S
C1620 C1601 1.368 . S
C1620 C1614 1.368 . S
C1620 C1619 1.523 . S
C1621 C1605 1.429 . S
C1621 C1617 1.429 . S
C1621 C1622 1.523 . S
C1622 C1606 1.368 . S
C1622 C1618 1.368 . S
C1622 C1621 1.523 . S
H1623 C1598 0.950 . S
H1624 C1600 0.950 . S
H1625 C1601 0.949 . S
H1626 C1603 0.950 . S
H1627 C1605 0.950 . S
C1628 C1629 1.349 . S
C1628 C1630 1.327 . S
C1628 H1653 0.950 . S
C1629 C1628 1.349 . S
C1629 C1645 1.349 . S
C1630 C1628 1.327 . S
C1630 C1649 1.429 . S
C1630 H1654 0.950 . S
C1631 C1648 1.574 . S
C1631 C1650 1.368 . S
C1631 H1655 0.949 . S
H1632 C1636 0.949 . S
C1633 C1634 1.349 . S
C1633 C1635 1.327 . S
C1633 H1656 0.950 . S
C1634 C1633 1.349 . S
C1634 C1646 1.349 . S
C1635 C1633 1.327 . S
C1635 C1651 1.429 . S
C1635 H1657 0.950 . S
C1636 H1632 0.949 . S
C1636 C1644 1.574 . S
C1636 C1652 1.368 . S
H1637 C1645 0.950 . S
H1638 C1643 0.950 . S
H1639 C1644 0.949 . S
H1640 C1646 0.950 . S
H1641 C1647 0.950 . S
H1642 C1648 0.949 . S
C1643 H1638 0.950 . S
C1643 C1645 1.327 . S
C1643 C1649 1.429 . S
C1644 C1636 1.574 . S
C1644 H1639 0.949 . S
C1644 C1650 1.368 . S
C1645 C1629 1.349 . S
C1645 H1637 0.950 . S
C1645 C1643 1.327 . S
C1646 C1634 1.349 . S
C1646 H1640 0.950 . S
C1646 C1647 1.327 . S
C1647 H1641 0.950 . S
C1647 C1646 1.327 . S
C1647 C1651 1.429 . S
C1648 C1631 1.574 . S
C1648 H1642 0.949 . S
C1648 C1652 1.368 . S
C1649 C1630 1.429 . S
C1649 C1643 1.429 . S
C1649 C1650 1.523 . S
C1650 C1631 1.368 . S
C1650 C1644 1.368 . S
C1650 C1649 1.523 . S
C1651 C1635 1.429 . S
C1651 C1647 1.429 . S
C1651 C1652 1.523 . S
C1652 C1636 1.368 . S
C1652 C1648 1.368 . S
C1652 C1651 1.523 . S
H1653 C1628 0.950 . S
H1654 C1630 0.950 . S
H1655 C1631 0.949 . S
H1656 C1633 0.950 . S
H1657 C1635 0.950 . S
C1658 C1659 1.349 . S
C1658 C1660 1.327 . S
C1658 H1683 0.950 . S
C1659 C1658 1.349 . S
C1659 C1675 1.349 . S
C1660 C1658 1.327 . S
C1660 C1679 1.429 . S
C1660 H1684 0.950 . S
C1661 C1678 1.574 . S
C1661 C1680 1.368 . S
C1661 H1685 0.949 . S
H1662 C1666 0.949 . S
C1663 C1664 1.349 . S
C1663 C1665 1.327 . S
C1663 H1686 0.950 1_655 S
C1664 C1663 1.349 . S
C1664 C1676 1.349 . S
C1665 C1663 1.327 . S
C1665 C1681 1.429 . S
C1665 H1687 0.950 . S
C1666 H1662 0.949 . S
C1666 C1674 1.574 . S
C1666 C1682 1.368 . S
H1667 C1675 0.950 . S
H1668 C1673 0.950 . S
H1669 C1674 0.949 . S
H1670 C1676 0.950 . S
H1671 C1677 0.950 . S
H1672 C1678 0.949 . S
C1673 H1668 0.950 . S
C1673 C1675 1.327 . S
C1673 C1679 1.429 . S
C1674 C1666 1.574 . S
C1674 H1669 0.949 . S
C1674 C1680 1.368 . S
C1675 C1659 1.349 . S
C1675 H1667 0.950 . S
C1675 C1673 1.327 . S
C1676 C1664 1.349 . S
C1676 H1670 0.950 . S
C1676 C1677 1.327 . S
C1677 H1671 0.950 . S
C1677 C1676 1.327 . S
C1677 C1681 1.429 . S
C1678 C1661 1.574 . S
C1678 H1672 0.949 . S
C1678 C1682 1.368 . S
C1679 C1660 1.429 . S
C1679 C1673 1.429 . S
C1679 C1680 1.523 . S
C1680 C1661 1.368 . S
C1680 C1674 1.368 . S
C1680 C1679 1.523 . S
C1681 C1665 1.429 . S
C1681 C1677 1.429 . S
C1681 C1682 1.523 . S
C1682 C1666 1.368 . S
C1682 C1678 1.368 . S
C1682 C1681 1.523 . S
H1683 C1658 0.950 . S
H1684 C1660 0.950 . S
H1685 C1661 0.949 . S
H1686 C1663 0.950 1_455 S
H1687 C1665 0.950 . S
C1688 C1689 1.349 . S
C1688 C1690 1.327 . S
C1688 H1713 0.950 1_655 S
C1689 C1688 1.349 . S
C1689 C1705 1.349 . S
C1690 C1688 1.327 . S
C1690 C1709 1.429 . S
C1690 H1714 0.950 . S
C1691 C1708 1.574 . S
C1691 C1710 1.368 . S
C1691 H1715 0.949 . S
H1692 C1696 0.949 . S
C1693 C1694 1.349 . S
C1693 C1695 1.327 . S
C1693 H1716 0.950 . S
C1694 C1693 1.349 . S
C1694 C1706 1.349 . S
C1695 C1693 1.327 . S
C1695 C1711 1.429 . S
C1695 H1717 0.950 . S
C1696 H1692 0.949 . S
C1696 C1704 1.574 . S
C1696 C1712 1.368 . S
H1697 C1705 0.950 . S
H1698 C1703 0.950 . S
H1699 C1704 0.949 . S
H1700 C1706 0.950 . S
H1701 C1707 0.950 . S
H1702 C1708 0.949 . S
C1703 H1698 0.950 . S
C1703 C1705 1.327 . S
C1703 C1709 1.429 . S
C1704 C1696 1.574 . S
C1704 H1699 0.949 . S
C1704 C1710 1.368 . S
C1705 C1689 1.349 . S
C1705 H1697 0.950 . S
C1705 C1703 1.327 . S
C1706 C1694 1.349 . S
C1706 H1700 0.950 . S
C1706 C1707 1.327 . S
C1707 H1701 0.950 . S
C1707 C1706 1.327 . S
C1707 C1711 1.429 . S
C1708 C1691 1.574 . S
C1708 H1702 0.949 . S
C1708 C1712 1.368 . S
C1709 C1690 1.429 . S
C1709 C1703 1.429 . S
C1709 C1710 1.523 . S
C1710 C1691 1.368 . S
C1710 C1704 1.368 . S
C1710 C1709 1.523 . S
C1711 C1695 1.429 . S
C1711 C1707 1.429 . S
C1711 C1712 1.523 . S
C1712 C1696 1.368 . S
C1712 C1708 1.368 . S
C1712 C1711 1.523 . S
H1713 C1688 0.950 1_455 S
H1714 C1690 0.950 . S
H1715 C1691 0.949 . S
H1716 C1693 0.950 . S
H1717 C1695 0.950 . S
C1718 C1719 1.349 . S
C1718 C1720 1.327 . S
C1718 H1743 0.950 . S
C1719 C1718 1.349 . S
C1719 C1735 1.349 . S
C1720 C1718 1.327 . S
C1720 C1739 1.429 . S
C1720 H1744 0.950 . S
C1721 C1738 1.574 . S
C1721 C1740 1.368 . S
C1721 H1745 0.949 . S
H1722 C1726 0.949 . S
C1723 C1724 1.349 . S
C1723 C1725 1.327 . S
C1723 H1746 0.950 . S
C1724 C1723 1.349 . S
C1724 C1736 1.349 . S
C1725 C1723 1.327 . S
C1725 C1741 1.429 . S
C1725 H1747 0.950 . S
C1726 H1722 0.949 . S
C1726 C1734 1.574 . S
C1726 C1742 1.368 . S
H1727 C1735 0.950 . S
H1728 C1733 0.950 . S
H1729 C1734 0.949 . S
H1730 C1736 0.950 . S
H1731 C1737 0.950 . S
H1732 C1738 0.949 . S
C1733 H1728 0.950 . S
C1733 C1735 1.327 . S
C1733 C1739 1.429 . S
C1734 C1726 1.574 . S
C1734 H1729 0.949 . S
C1734 C1740 1.368 . S
C1735 C1719 1.349 . S
C1735 H1727 0.950 . S
C1735 C1733 1.327 . S
C1736 C1724 1.349 . S
C1736 H1730 0.950 . S
C1736 C1737 1.327 . S
C1737 H1731 0.950 . S
C1737 C1736 1.327 . S
C1737 C1741 1.429 . S
C1738 C1721 1.574 . S
C1738 H1732 0.949 . S
C1738 C1742 1.368 . S
C1739 C1720 1.429 . S
C1739 C1733 1.429 . S
C1739 C1740 1.523 . S
C1740 C1721 1.368 . S
C1740 C1734 1.368 . S
C1740 C1739 1.523 . S
C1741 C1725 1.429 . S
C1741 C1737 1.429 . S
C1741 C1742 1.523 . S
C1742 C1726 1.368 . S
C1742 C1738 1.368 . S
C1742 C1741 1.523 . S
H1743 C1718 0.950 . S
H1744 C1720 0.950 . S
H1745 C1721 0.949 . S
H1746 C1723 0.950 . S
H1747 C1725 0.950 . S
C1748 C1749 1.349 . S
C1748 C1750 1.327 . S
C1748 H1773 0.950 . S
C1749 C1748 1.349 . S
C1749 C1765 1.349 . S
C1750 C1748 1.327 . S
C1750 C1769 1.429 . S
C1750 H1774 0.950 . S
C1751 C1768 1.574 . S
C1751 C1770 1.368 . S
C1751 H1775 0.949 . S
H1752 C1756 0.949 . S
C1753 C1754 1.349 . S
C1753 C1755 1.327 . S
C1753 H1776 0.950 . S
C1754 C1753 1.349 . S
C1754 C1766 1.349 . S
C1755 C1753 1.327 . S
C1755 C1771 1.429 . S
C1755 H1777 0.950 . S
C1756 H1752 0.949 . S
C1756 C1764 1.574 . S
C1756 C1772 1.368 . S
H1757 C1765 0.950 . S
H1758 C1763 0.950 . S
H1759 C1764 0.949 . S
H1760 C1766 0.950 . S
H1761 C1767 0.950 . S
H1762 C1768 0.949 . S
C1763 H1758 0.950 . S
C1763 C1765 1.327 . S
C1763 C1769 1.429 . S
C1764 C1756 1.574 . S
C1764 H1759 0.949 . S
C1764 C1770 1.368 . S
C1765 C1749 1.349 . S
C1765 H1757 0.950 . S
C1765 C1763 1.327 . S
C1766 C1754 1.349 . S
C1766 H1760 0.950 . S
C1766 C1767 1.327 . S
C1767 H1761 0.950 . S
C1767 C1766 1.327 . S
C1767 C1771 1.429 . S
C1768 C1751 1.574 . S
C1768 H1762 0.949 . S
C1768 C1772 1.368 . S
C1769 C1750 1.429 . S
C1769 C1763 1.429 . S
C1769 C1770 1.523 . S
C1770 C1751 1.368 . S
C1770 C1764 1.368 . S
C1770 C1769 1.523 . S
C1771 C1755 1.429 . S
C1771 C1767 1.429 . S
C1771 C1772 1.523 . S
C1772 C1756 1.368 . S
C1772 C1768 1.368 . S
C1772 C1771 1.523 . S
H1773 C1748 0.950 . S
H1774 C1750 0.950 . S
H1775 C1751 0.949 . S
H1776 C1753 0.950 . S
H1777 C1755 0.950 . S
C1778 C1779 1.349 . S
C1778 C1780 1.327 . S
C1778 H1803 0.950 . S
C1779 C1778 1.349 . S
C1779 C1795 1.349 . S
C1780 C1778 1.327 . S
C1780 C1799 1.429 . S
C1780 H1804 0.950 . S
C1781 C1798 1.574 . S
C1781 C1800 1.368 . S
C1781 H1805 0.949 . S
H1782 C1786 0.949 . S
C1783 C1784 1.349 . S
C1783 C1785 1.327 . S
C1783 H1806 0.950 . S
C1784 C1783 1.349 . S
C1784 C1796 1.349 . S
C1785 C1783 1.327 . S
C1785 C1801 1.429 . S
C1785 H1807 0.950 . S
C1786 H1782 0.949 . S
C1786 C1794 1.574 . S
C1786 C1802 1.368 . S
H1787 C1795 0.950 . S
H1788 C1793 0.950 . S
H1789 C1794 0.949 . S
H1790 C1796 0.950 . S
H1791 C1797 0.950 . S
H1792 C1798 0.949 . S
C1793 H1788 0.950 . S
C1793 C1795 1.327 . S
C1793 C1799 1.429 . S
C1794 C1786 1.574 . S
C1794 H1789 0.949 . S
C1794 C1800 1.368 . S
C1795 C1779 1.349 . S
C1795 H1787 0.950 . S
C1795 C1793 1.327 . S
C1796 C1784 1.349 . S
C1796 H1790 0.950 . S
C1796 C1797 1.327 . S
C1797 H1791 0.950 . S
C1797 C1796 1.327 . S
C1797 C1801 1.429 . S
C1798 C1781 1.574 . S
C1798 H1792 0.949 . S
C1798 C1802 1.368 . S
C1799 C1780 1.429 . S
C1799 C1793 1.429 . S
C1799 C1800 1.523 . S
C1800 C1781 1.368 . S
C1800 C1794 1.368 . S
C1800 C1799 1.523 . S
C1801 C1785 1.429 . S
C1801 C1797 1.429 . S
C1801 C1802 1.523 . S
C1802 C1786 1.368 . S
C1802 C1798 1.368 . S
C1802 C1801 1.523 . S
H1803 C1778 0.950 . S
H1804 C1780 0.950 . S
H1805 C1781 0.949 . S
H1806 C1783 0.950 . S
H1807 C1785 0.950 . S
C369 C88 1.244 . S
C374 C16 1.266 . S
C399 C21 1.196 . S
C404 C41 1.252 . S
C429 C62 1.570 1_565 S
C434 C40 1.567 . S
C459 C90 1.015 . S
C464 C67 1.021 . S
C489 C113 0.974 . S
C494 C135 0.977 . S
C519 C132 1.554 . S
C524 C155 1.548 1_565 S
C549 C156 1.204 . S
C554 C181 1.150 . S
C579 C111 1.229 . S
C584 C178 1.251 . S
C609 C225 1.270 . S
C614 C19 1.241 . S
C639 C250 1.321 . S
C644 C43 1.320 . S
C669 C65 1.251 1_565 S
C674 C317 1.256 . S
C699 C200 1.423 . S
C704 C85 1.423 . S
C729 C269 1.423 . S
C734 C108 1.423 . S
C759 C341 1.243 . S
C764 C133 1.270 . S
C789 C158 1.321 . S
C794 C296 1.320 . S
C819 C364 1.251 . S
C824 C179 1.256 . S
C849 C203 1.229 . S
C854 C316 1.251 . S
C879 C227 0.977 . S
C884 C205 0.974 . S
C909 C247 1.548 . S
C914 C224 1.554 . S
C939 C338 1.265 . S
C944 C272 1.243 . S
C969 C293 1.567 . S
C974 C361 1.570 1_656 S
C999 C273 0.707 . S
C1004 C17 0.699 . S
C1029 C297 0.814 . S
C1034 C18 0.823 . S
C1059 C292 0.298 . S
C1064 C63 0.309 . S
C1089 C64 0.960 . S
C1094 C271 0.956 . S
C1119 C226 0.960 . S
C1124 C110 0.967 . S
C1149 C223 0.337 . S
C1154 C154 0.317 . S
C1179 C318 0.824 . S
C1184 C159 0.820 . S
C1209 C112 0.725 1_655 S
C1214 C315 0.721 . S
C1239 C136 0.796 . S
C1244 C20 0.787 . S
C1269 C249 0.600 1_655 S
C1274 C295 0.604 . S
C1299 C66 0.785 . S
C1304 C182 0.785 . S
C1329 C201 0.406 . S
C1334 C270 0.407 . S
C1359 C86 0.407 . S
C1364 C109 0.406 . S
C1389 C228 0.796 . S
C1394 C342 0.786 . S
C1419 C157 0.604 . S
C1424 C42 0.604 . S
C1449 C365 0.785 . S
C1454 C320 0.785 . S
C1479 C204 0.725 . S
C1484 C177 0.721 . S
C1509 C202 0.967 1_556 S
C1514 C134 0.960 . S
C1539 C246 0.317 . S
C1544 C131 0.337 . S
C1569 C89 0.707 . S
C1574 C339 0.700 . S
C1599 C39 0.298 . S
C1604 C362 0.309 . S
C1629 C294 1.254 . S
C1634 C343 1.196 . S
C1659 C274 1.015 . S
C1664 C366 1.021 1_655 S
C1689 C248 1.204 . S
C1694 C319 1.150 . S
C1719 C340 0.822 . S
C1724 C44 0.814 . S
C1749 C87 0.956 . S
C1754 C363 0.960 . S
C1779 C180 0.824 . S
C1784 C251 0.820 . S
