# Generated by pormake.
# Topology cab, (5)-cn, num edge types: 1
# Building blocks:
#     Node 0, Type 0, BuildingBlock: BEQFEK_clean_sbu_0, # of connection points: 5
#     Node 1, Type 0, BuildingBlock: BEQFEK_clean_sbu_0, # of connection points: 5
#     Node 2, Type 0, BuildingBlock: BEQFEK_clean_sbu_0, # of connection points: 5
#     Node 3, Type 0, BuildingBlock: BEQFEK_clean_sbu_0, # of connection points: 5
#     Node 4, Type 0, BuildingBlock: BEQFEK_clean_sbu_0, # of connection points: 5
#     Node 5, Type 0, BuildingBlock: BEQFEK_clean_sbu_0, # of connection points: 5
#     Edge 6, Type (0, 0), BuildingBlock: OJICUG_clean_linker_0, # of connection points: 2
#     Edge 7, Type (0, 0), BuildingBlock: OJICUG_clean_linker_0, # of connection points: 2
#     Edge 8, Type (0, 0), BuildingBlock: OJICUG_clean_linker_0, # of connection points: 2
#     Edge 9, Type (0, 0), BuildingBlock: OJICUG_clean_linker_0, # of connection points: 2
#     Edge 10, Type (0, 0), BuildingBlock: OJICUG_clean_linker_0, # of connection points: 2
#     Edge 11, Type (0, 0), BuildingBlock: OJICUG_clean_linker_0, # of connection points: 2
#     Edge 12, Type (0, 0), BuildingBlock: OJICUG_clean_linker_0, # of connection points: 2
#     Edge 13, Type (0, 0), BuildingBlock: OJICUG_clean_linker_0, # of connection points: 2
#     Edge 14, Type (0, 0), BuildingBlock: OJICUG_clean_linker_0, # of connection points: 2
#     Edge 15, Type (0, 0), BuildingBlock: OJICUG_clean_linker_0, # of connection points: 2
#     Edge 16, Type (0, 0), BuildingBlock: OJICUG_clean_linker_0, # of connection points: 2
#     Edge 17, Type (0, 0), BuildingBlock: OJICUG_clean_linker_0, # of connection points: 2
#     Edge 18, Type (0, 0), BuildingBlock: OJICUG_clean_linker_0, # of connection points: 2
#     Edge 19, Type (0, 0), BuildingBlock: OJICUG_clean_linker_0, # of connection points: 2
#     Edge 20, Type (0, 0), BuildingBlock: OJICUG_clean_linker_0, # of connection points: 2
# Relax obj value: 1.290
# Max RMSD: 0.231
# Mean RMSD: 0.209
data_MOF--net-cab--node1-BEQFEK_clean_sbu_0--edge1-OJICUG_clean_linker_0
_symmetry_space_group_name_H-M    P1
_symmetry_Int_Tables_number       1
_symmetry_cell_setting            triclinic
loop_
_symmetry_equiv_pos_as_xyz
'x, y, z'
_cell_length_a     23.671455
_cell_length_b     22.854546
_cell_length_c     24.316369
_cell_angle_alpha  111.92249
_cell_angle_beta   97.76915
_cell_angle_gamma 129.94955
loop_
_atom_site_label
_atom_site_type_symbol
_atom_site_fract_x
_atom_site_fract_y
_atom_site_fract_z
_atom_type_partial_charge
Co0 Co 0.37111 0.49942 0.68923 0.0
Co1 Co 0.19445 0.42988 0.64162 0.0
C2 C 0.20073 0.2978 0.56795 0.0
O3 O 0.28271 0.36257 0.60565 0.0
O4 O 0.16147 0.31631 0.57858 0.0
C5 C 0.48376 0.53255 0.64785 0.0
O6 O 0.41914 0.496 0.59471 0.0
C7 C 0.03902 0.33108 0.53129 0.0
C8 C 0.96095 0.32158 0.57622 0.0
C9 C 0.95853 0.29011 0.51402 0.0
N10 N 0.08787 0.38371 0.60055 0.0
N11 N 0.04096 0.3778 0.62754 0.0
C12 C 0.06791 0.31808 0.48134 0.0
H13 H 0.1383 0.3665 0.50911 0.0
H14 H 0.05294 0.33229 0.44624 0.0
H15 H 0.03097 0.24251 0.44786 0.0
C16 C 0.41747 0.64191 0.6678 0.0
N17 N 0.36078 0.5677 0.66924 0.0
N18 N 0.28567 0.53441 0.64308 0.0
C19 C 0.29246 0.5847 0.62192 0.0
C20 C 0.37604 0.65331 0.63544 0.0
C21 C 0.51193 0.7061 0.70044 0.0
H22 H 0.53373 0.70124 0.73999 0.0
H23 H 0.52609 0.68714 0.66014 0.0
H24 H 0.54805 0.78073 0.72511 0.0
O25 O 0.34978 0.49819 0.76591 0.0
O26 O 0.23748 0.4665 0.73693 0.0
H27 H 0.17087 0.53093 0.60005 0.0
H28 H 0.24339 0.6306 0.59773 0.0
C29 C 0.21924 0.56389 0.58503 0.0
H30 H 0.18784 0.51448 0.52789 0.0
H31 H 0.06226 0.40904 0.6803 0.0
O32 O 0.48217 0.54659 0.70319 0.0
C33 C 0.27211 0.44498 0.75219 0.0
Co34 Co 0.14235 0.06403 0.70597 0.0
Co35 Co 0.96321 0.98586 0.67698 0.0
C36 C 0.13187 0.19054 0.7894 0.0
O37 O 0.17191 0.17537 0.77277 0.0
O38 O 0.04972 0.12309 0.75733 0.0
C39 C 0.29241 0.16224 0.80626 0.0
O40 O 0.24537 0.152 0.83371 0.0
C41 C 0.85219 0.94833 0.72982 0.0
C42 C 0.72076 0.83988 0.63867 0.0
C43 C 0.76707 0.89178 0.71046 0.0
N44 N 0.85701 0.93016 0.67248 0.0
N45 N 0.77825 0.86571 0.61787 0.0
C46 C 0.92819 0.01724 0.80216 0.0
H47 H 0.96011 0.09009 0.82507 0.0
H48 H 0.97612 0.01941 0.80079 0.0
H49 H 0.90784 0.99784 0.83636 0.0
C50 C 0.06762 0.91337 0.72663 0.0
N51 N 0.0636 0.96137 0.71003 0.0
N52 N 0.98783 0.92611 0.69434 0.0
C53 C 0.94176 0.85424 0.70017 0.0
C54 C 0.99097 0.84498 0.7221 0.0
C55 C 0.14517 0.93608 0.75046 0.0
H56 H 0.1797 0.96107 0.72397 0.0
H57 H 0.18977 0.99334 0.80764 0.0
H58 H 0.12617 0.8724 0.73945 0.0
O59 O 0.0808 0.01694 0.61011 0.0
O60 O 0.96954 0.98611 0.59537 0.0
H61 H 0.81298 0.77879 0.63919 0.0
H62 H 0.81988 0.72432 0.67337 0.0
C63 C 0.85126 0.79328 0.68467 0.0
H64 H 0.85234 0.83011 0.73074 0.0
H65 H 0.76336 0.83785 0.5665 0.0
O66 O 0.25799 0.11855 0.74069 0.0
C67 C 0.04336 0.0376 0.60087 0.0
Co68 Co 0.53351 0.37445 0.17712 0.0
Co69 Co 0.59363 0.41463 0.32282 0.0
C70 C 0.41022 0.30079 0.22422 0.0
O71 O 0.42563 0.31071 0.17829 0.0
O72 O 0.46865 0.33615 0.27963 0.0
C73 C 0.54756 0.35365 0.05694 0.0
O74 O 0.5943 0.34478 0.07719 0.0
C75 C 0.59831 0.44946 0.45358 0.0
C76 C 0.73596 0.55416 0.53017 0.0
C77 C 0.65687 0.50854 0.5241 0.0
N78 N 0.63976 0.45951 0.4189 0.0
N79 N 0.72187 0.51969 0.465 0.0
C80 C 0.50575 0.39256 0.42125 0.0
H81 H 0.46505 0.3188 0.37566 0.0
H82 H 0.49856 0.42715 0.40401 0.0
H83 H 0.48333 0.38818 0.45831 0.0
C84 C 0.65334 0.57938 0.26536 0.0
N85 N 0.62679 0.50286 0.25811 0.0
N86 N 0.65312 0.52215 0.31978 0.0
C87 C 0.69811 0.61302 0.36858 0.0
C88 C 0.69925 0.65236 0.33585 0.0
C89 C 0.61404 0.57194 0.20559 0.0
H90 H 0.54326 0.51942 0.18394 0.0
H91 H 0.64289 0.64147 0.22092 0.0
H92 H 0.62297 0.54497 0.16361 0.0
O93 O 0.54834 0.29672 0.16602 0.0
O94 O 0.5952 0.32442 0.26735 0.0
H95 H 0.77429 0.66224 0.46808 0.0
H96 H 0.75584 0.72831 0.47309 0.0
C97 C 0.72572 0.65569 0.44368 0.0
H98 H 0.6689 0.60826 0.4475 0.0
H99 H 0.76972 0.54306 0.45278 0.0
O100 O 0.51718 0.36775 0.09237 0.0
C101 C 0.57098 0.28046 0.20297 0.0
Co102 Co 0.44381 0.82075 0.3745 0.0
Co103 Co 0.40831 0.73537 0.22071 0.0
C104 C 0.28938 0.61127 0.25216 0.0
O105 O 0.33575 0.68319 0.31493 0.0
O106 O 0.31001 0.61908 0.208 0.0
C107 C 0.45749 0.78414 0.46639 0.0
O108 O 0.45372 0.73252 0.41419 0.0
C109 C 0.3682 0.60591 0.09063 0.0
C110 C 0.33345 0.63328 0.02255 0.0
C111 C 0.33037 0.5703 0.02166 0.0
N112 N 0.39275 0.68641 0.13062 0.0
N113 N 0.37335 0.70351 0.08976 0.0
C114 C 0.36596 0.55472 0.11648 0.0
H115 H 0.39472 0.59655 0.17371 0.0
H116 H 0.40326 0.54382 0.10423 0.0
H117 H 0.29799 0.483 0.08972 0.0
C118 C 0.60588 0.88158 0.40174 0.0
N119 N 0.53292 0.84677 0.35927 0.0
N120 N 0.5174 0.80869 0.29527 0.0
C121 C 0.57999 0.81813 0.29581 0.0
C122 C 0.63585 0.85996 0.36262 0.0
C123 C 0.64518 0.93099 0.47868 0.0
H124 H 0.62546 0.96274 0.49982 0.0
H125 H 0.62464 0.87967 0.48984 0.0
H126 H 0.71696 0.98825 0.50542 0.0
O127 O 0.40675 0.86756 0.34497 0.0
O128 O 0.38244 0.80436 0.23729 0.0
H129 H 0.54616 0.7702 0.19024 0.0
H130 H 0.64966 0.82675 0.24514 0.0
C131 C 0.58169 0.77801 0.23224 0.0
H132 H 0.55309 0.70762 0.21397 0.0
H133 H 0.38003 0.75795 0.10695 0.0
O134 O 0.46242 0.84342 0.46694 0.0
C135 C 0.3798 0.84921 0.28521 0.0
Co136 Co 0.78047 0.1383 0.12255 0.0
Co137 Co 0.62867 0.9281 0.07426 0.0
C138 C 0.77031 0.09473 0.22419 0.0
O139 O 0.80585 0.15156 0.2085 0.0
O140 O 0.70353 0.00511 0.1773 0.0
C141 C 0.95341 0.28623 0.18317 0.0
O142 O 0.94273 0.23109 0.19768 0.0
C143 C 0.61306 0.79195 0.0664 0.0
C144 C 0.48069 0.64783 0.98215 0.0
C145 C 0.56038 0.69553 0.03032 0.0
N146 N 0.56685 0.80176 0.04332 0.0
N147 N 0.48719 0.71503 0.99272 0.0
C148 C 0.71017 0.8735 0.11288 0.0
H149 H 0.72818 0.90007 0.16758 0.0
H150 H 0.73925 0.93328 0.10991 0.0
H151 H 0.73823 0.85022 0.09793 0.0
C152 C 0.77624 0.04286 -0.00068 0.0
N153 N 0.75255 0.04164 0.04661 0.0
N154 N 0.685 0.95261 0.02252 0.0
C155 C 0.66305 0.89378 0.95822 0.0
C156 C 0.71989 0.94928 0.94131 0.0
C157 C 0.84943 0.13235 0.00832 0.0
H158 H 0.83838 0.17452 0.01673 0.0
H159 H 0.91061 0.17602 0.05456 0.0
H160 H 0.85783 0.11739 0.96321 0.0
O161 O 0.68108 0.11222 0.09959 0.0
O162 O 0.5714 0.9667 0.07316 0.0
H163 H 0.52679 0.76942 0.90998 0.0
H164 H 0.56938 0.75593 0.85646 0.0
C165 C 0.58292 0.78729 0.9104 0.0
H166 H 0.59134 0.75495 0.92971 0.0
H167 H 0.43897 0.7017 0.96279 0.0
O168 O 0.88756 0.26151 0.14846 0.0
C169 C 0.60423 0.04525 0.08542 0.0
Co170 Co 0.02591 0.85186 0.21224 0.0
Co171 Co 0.99349 0.76805 0.06256 0.0
C172 C 0.09262 0.96746 0.15523 0.0
O173 O 0.08542 0.95858 0.20333 0.0
O174 O 0.05725 0.89684 0.09529 0.0
C175 C 0.01433 0.94526 0.31321 0.0
O176 O 0.97129 0.93178 0.26046 0.0
C177 C -0.00034 0.74112 0.9385 0.0
C178 C 0.86685 0.59966 0.85281 0.0
C179 C 0.94447 0.68144 0.86706 0.0
N180 N 0.95679 0.69879 0.96571 0.0
N181 N 0.87824 0.61193 0.91362 0.0
C182 C 0.08989 0.84151 0.98063 0.0
H183 H 0.08711 0.88953 0.98533 0.0
H184 H 0.12494 0.84538 0.95339 0.0
H185 H 0.12558 0.86603 0.0333 0.0
C186 C 0.83714 0.69987 0.13655 0.0
N187 N 0.90966 0.73679 0.13631 0.0
N188 N 0.89634 0.71495 0.07446 0.0
C189 C 0.81799 0.67352 0.03581 0.0
C190 C 0.77615 0.66088 0.07346 0.0
C191 C 0.82583 0.69689 0.19497 0.0
H192 H 0.86572 0.69423 0.22084 0.0
H193 H 0.8478 0.76205 0.23503 0.0
H194 H 0.75681 0.63312 0.17476 0.0
O195 O 0.09634 0.83588 0.22202 0.0
O196 O 0.08035 0.78241 0.11758 0.0
H197 H 0.74335 0.59456 0.92543 0.0
H198 H 0.77017 0.69853 0.97698 0.0
C199 C 0.79474 0.66996 0.97324 0.0
H200 H 0.85214 0.71349 0.96887 0.0
H201 H 0.82997 0.56454 0.92005 0.0
O202 O 0.03685 0.90654 0.30265 0.0
C203 C 0.11596 0.81145 0.18004 0.0
C204 C 0.45148 0.70462 0.51626 0.0
C205 C 0.44695 0.76346 0.51757 0.0
H206 H 0.42962 0.62178 0.54986 0.0
C207 C 0.42333 0.79135 0.56178 0.0
H208 H 0.46945 0.68155 0.48305 0.0
C209 C 0.40171 0.75778 0.60183 0.0
C210 C 0.40337 0.69593 0.59796 0.0
H211 H 0.41883 0.83625 0.56369 0.0
H212 H 0.38296 0.77925 0.63506 0.0
C213 C 0.42927 0.67075 0.55521 0.0
C214 C 0.79859 0.08737 0.32357 0.0
C215 C 0.80431 0.13638 0.29872 0.0
H216 H 0.84377 0.09926 0.4142 0.0
C217 C 0.84647 0.22934 0.34644 0.0
H218 H 0.76579 0.01541 0.28781 0.0
C219 C 0.888 0.27548 0.4179 0.0
C220 C 0.88875 0.22985 0.44291 0.0
H221 H 0.85034 0.26811 0.32863 0.0
H222 H 0.92562 0.34968 0.45366 0.0
C223 C 0.84182 0.13457 0.39555 0.0
C224 C 0.18911 0.17463 0.49544 0.0
C225 C 0.14934 0.19995 0.5089 0.0
H226 H 0.17578 0.07128 0.42275 0.0
C227 C 0.06014 0.13246 0.46253 0.0
H228 H 0.25722 0.22425 0.53079 0.0
C229 C 0.01405 0.04586 0.40029 0.0
C230 C 0.05559 0.02388 0.38456 0.0
H231 H 0.02667 0.14827 0.47248 0.0
H232 H 0.94699 0.99791 0.3632 0.0
C233 C 0.14227 0.08672 0.43393 0.0
C234 C 0.61421 0.49966 0.61194 0.0
C235 C 0.6422 0.54251 0.57841 0.0
H236 H 0.54305 0.46584 0.66353 0.0
C237 C 0.63338 0.59866 0.58192 0.0
H238 H 0.6187 0.45424 0.60837 0.0
C239 C 0.5894 0.60392 0.61202 0.0
C240 C 0.55437 0.55424 0.64011 0.0
H241 H 0.65278 0.63056 0.55508 0.0
H242 H 0.57637 0.64002 0.6077 0.0
C243 C 0.57105 0.50629 0.64338 0.0
C244 C 0.95022 0.7817 0.84495 0.0
C245 C 0.95161 0.71685 0.82571 0.0
H246 H 0.96327 0.87385 0.82784 0.0
C247 C 0.96382 0.69135 0.77037 0.0
H248 H 0.94066 0.80211 0.88745 0.0
C249 C 0.97634 0.73228 0.73566 0.0
C250 C 0.9766 0.79873 0.75618 0.0
H251 H 0.96504 0.64134 0.75487 0.0
H252 H 0.98567 0.71209 0.69301 0.0
C253 C 0.96286 0.82241 0.81076 0.0
C254 C 0.47122 0.23519 0.92938 0.0
C255 C 0.51114 0.32332 0.98584 0.0
H256 H 0.36728 0.11226 0.82318 0.0
C257 C 0.49652 0.36889 0.97357 0.0
H258 H 0.48148 0.19872 0.938 0.0
C259 C 0.43354 0.32083 0.90758 0.0
C260 C 0.38315 0.22597 0.85403 0.0
H261 H 0.52695 0.43702 0.01648 0.0
H262 H 0.41618 0.35269 0.90121 0.0
C263 C 0.40648 0.186 0.8635 0.0
C264 C 0.14675 0.31942 0.85176 0.0
C265 C 0.18283 0.28869 0.8471 0.0
H266 H 0.16677 0.43467 0.91045 0.0
C267 C 0.26915 0.353 0.89826 0.0
H268 H 0.08069 0.27157 0.81251 0.0
C269 C 0.31758 0.44513 0.95431 0.0
C270 C 0.28129 0.47548 0.95964 0.0
H271 H 0.29876 0.33142 0.89587 0.0
H272 H 0.38354 0.49261 0.9934 0.0
C273 C 0.19609 0.41268 0.90726 0.0
C274 C 0.71219 0.95703 0.84108 0.0
C275 C 0.71472 0.91844 0.87353 0.0
H276 H 0.72627 0.97774 0.76268 0.0
C277 C 0.72128 0.85868 0.84472 0.0
H278 H 0.70601 0.00235 0.86193 0.0
C279 C 0.73126 0.84331 0.78724 0.0
C280 C 0.73449 0.88727 0.7579 0.0
H281 H 0.7234 0.82827 0.8689 0.0
H282 H 0.74144 0.80166 0.76819 0.0
C283 C 0.72286 0.94233 0.78408 0.0
C284 C 0.64606 0.71158 0.38311 0.0
C285 C 0.70343 0.72575 0.36189 0.0
H286 H 0.57999 0.74306 0.39974 0.0
C287 C 0.75074 0.79787 0.35299 0.0
H288 H 0.60738 0.65517 0.38888 0.0
C289 C 0.73516 0.84926 0.35952 0.0
C290 C 0.67231 0.82913 0.3752 0.0
H291 H 0.79485 0.8094 0.33602 0.0
H292 H 0.7681 0.90013 0.34808 0.0
C293 C 0.63062 0.76252 0.3896 0.0
C294 C 0.2505 0.15749 0.13773 0.0
C295 C 0.31958 0.23221 0.20758 0.0
H296 H 0.12013 0.01509 0.0662 0.0
C297 C 0.30215 0.22902 0.26004 0.0
H298 H 0.2606 0.15875 0.09586 0.0
C299 C 0.2225 0.1454 0.24301 0.0
C300 C 0.15857 0.06437 0.17297 0.0
H301 H 0.35202 0.28792 0.31431 0.0
H302 H 0.21466 0.1415 0.28483 0.0
C303 C 0.17015 0.07451 0.12065 0.0
C304 C 0.11326 0.41673 0.25788 0.0
C305 C 0.03931 0.36812 0.1995 0.0
H306 H 0.25195 0.53327 0.32039 0.0
C307 C 0.04832 0.39497 0.15524 0.0
H308 H 0.10753 0.39663 0.29243 0.0
C309 C 0.13066 0.47031 0.16963 0.0
C310 C 0.2045 0.52111 0.2295 0.0
H311 H 0.99193 0.3575 0.10944 0.0
H312 H 0.13666 0.49183 0.13596 0.0
C313 C 0.19545 0.49382 0.27343 0.0
C314 C 0.63466 0.58816 0.99221 0.0
C315 C 0.70153 0.64425 0.06042 0.0
H316 H 0.53618 0.56045 0.92811 0.0
C317 C 0.70314 0.6958 0.11657 0.0
H318 H 0.62805 0.54357 0.94742 0.0
C319 C 0.64678 0.69972 0.10528 0.0
C320 C 0.59049 0.6571 0.03789 0.0
H321 H 0.75267 0.74114 0.16992 0.0
H322 H 0.65441 0.74558 0.15013 0.0
C323 C 0.58045 0.59584 0.98092 0.0
C324 C 0.19122 0.20842 0.66637 0.0
C325 C 0.10102 0.14136 0.63696 0.0
H326 H 0.31581 0.35582 0.72853 0.0
C327 C 0.06775 0.17541 0.64603 0.0
H328 H 0.21947 0.18524 0.66031 0.0
C329 C 0.12336 0.27388 0.68479 0.0
C330 C 0.21365 0.34089 0.715 0.0
H331 H 0.99877 0.1261 0.624 0.0
H332 H 0.09542 0.29745 0.69065 0.0
C333 C 0.24682 0.30675 0.70613 0.0
C334 C 0.55391 0.10749 0.0687 0.0
C335 C 0.56525 0.07458 0.10223 0.0
H336 H 0.54675 0.19756 0.07392 0.0
C337 C 0.571 0.10315 0.16693 0.0
H338 H 0.55216 0.08905 0.01998 0.0
C339 C 0.57175 0.16907 0.19981 0.0
C340 C 0.56572 0.20662 0.16804 0.0
H341 H 0.58291 0.08138 0.195 0.0
H342 H 0.58005 0.19302 0.25096 0.0
C343 C 0.55303 0.17169 0.10074 0.0
C344 C 0.22194 0.8147 0.16825 0.0
C345 C 0.18719 0.82606 0.20776 0.0
H346 H 0.31287 0.81735 0.16286 0.0
C347 C 0.22492 0.85773 0.27671 0.0
H348 H 0.19593 0.79254 0.11568 0.0
C349 C 0.29283 0.87334 0.3043 0.0
C350 C 0.32484 0.8575 0.26368 0.0
H351 H 0.20097 0.86893 0.30935 0.0
H352 H 0.31714 0.89317 0.35625 0.0
C353 C 0.29004 0.83046 0.19591 0.0
loop_
_geom_bond_atom_site_label_1
_geom_bond_atom_site_label_2
_geom_bond_distance
_geom_bond_site_symmetry_2
_ccdc_geom_bond_type
Co0 O3 1.970 . S
Co0 N17 1.989 . S
Co0 O25 1.967 . S
Co0 O32 1.920 . S
Co1 O4 1.966 . S
Co1 N10 2.022 . S
Co1 N18 1.993 . S
Co1 O26 1.941 . S
C2 O3 1.258 . S
C2 O4 1.263 . S
O3 Co0 1.970 . S
O3 C2 1.258 . S
O4 Co1 1.966 . S
O4 C2 1.263 . S
C5 O6 1.235 . S
C5 O32 1.289 . S
O6 C5 1.235 . S
C7 C9 1.400 1_455 S
C7 N10 1.351 . S
C7 C12 1.501 1_455 S
C8 C9 1.387 . S
C8 N11 1.341 1_655 S
C9 C7 1.400 1_655 S
C9 C8 1.387 . S
N10 Co1 2.022 . S
N10 C7 1.351 . S
N10 N11 1.365 . S
N11 C8 1.341 1_455 S
N11 N10 1.365 . S
N11 H31 0.862 . S
C12 C7 1.501 1_655 S
C12 H13 0.961 1_655 S
C12 H14 0.961 . S
C12 H15 0.960 . S
H13 C12 0.961 1_455 S
H14 C12 0.961 . S
H15 C12 0.960 . S
C16 N17 1.342 . S
C16 C20 1.401 . S
C16 C21 1.499 . S
N17 Co0 1.989 . S
N17 C16 1.342 . S
N17 N18 1.388 . S
N18 Co1 1.993 . S
N18 N17 1.388 . S
N18 C19 1.346 . S
C19 N18 1.346 . S
C19 C20 1.396 . S
C19 C29 1.510 . S
C20 C16 1.401 . S
C20 C19 1.396 . S
C21 C16 1.499 . S
C21 H22 0.959 . S
C21 H23 0.960 . S
C21 H24 0.961 . S
H22 C21 0.959 . S
H23 C21 0.960 . S
H24 C21 0.961 . S
O25 Co0 1.967 . S
O25 C33 1.258 . S
O26 Co1 1.941 . S
O26 C33 1.266 . S
H27 C29 0.959 . S
H28 C29 0.961 . S
C29 C19 1.510 . S
C29 H27 0.959 . S
C29 H28 0.961 . S
C29 H30 0.960 . S
H30 C29 0.960 . S
H31 N11 0.862 . S
O32 Co0 1.920 . S
O32 C5 1.289 . S
C33 O25 1.258 . S
C33 O26 1.266 . S
Co34 O37 1.970 . S
Co34 N51 1.989 1_545 S
Co34 O59 1.967 . S
Co34 O66 1.920 . S
Co35 O38 1.966 1_665 S
Co35 N44 2.022 . S
Co35 N52 1.993 . S
Co35 O60 1.941 . S
C36 O37 1.258 . S
C36 O38 1.263 . S
O37 Co34 1.970 . S
O37 C36 1.258 . S
O38 Co35 1.966 1_445 S
O38 C36 1.263 . S
C39 O40 1.235 . S
C39 O66 1.289 . S
O40 C39 1.235 . S
C41 C43 1.400 . S
C41 N44 1.351 . S
C41 C46 1.501 1_565 S
C42 C43 1.387 . S
C42 N45 1.341 . S
C43 C41 1.400 . S
C43 C42 1.387 . S
N44 Co35 2.022 . S
N44 C41 1.351 . S
N44 N45 1.365 . S
N45 C42 1.341 . S
N45 N44 1.365 . S
N45 H65 0.862 . S
C46 C41 1.501 1_545 S
C46 H47 0.961 . S
C46 H48 0.961 . S
C46 H49 0.960 . S
H47 C46 0.961 . S
H48 C46 0.961 . S
H49 C46 0.960 . S
C50 N51 1.342 . S
C50 C54 1.401 1_455 S
C50 C55 1.499 . S
N51 Co34 1.989 1_565 S
N51 C50 1.342 . S
N51 N52 1.388 1_455 S
N52 Co35 1.993 . S
N52 N51 1.388 1_655 S
N52 C53 1.346 . S
C53 N52 1.346 . S
C53 C54 1.396 . S
C53 C63 1.510 . S
C54 C50 1.401 1_655 S
C54 C53 1.396 . S
C55 C50 1.499 . S
C55 H56 0.959 . S
C55 H57 0.960 . S
C55 H58 0.961 . S
H56 C55 0.959 . S
H57 C55 0.960 . S
H58 C55 0.961 . S
O59 Co34 1.967 . S
O59 C67 1.258 . S
O60 Co35 1.941 . S
O60 C67 1.266 1_665 S
H61 C63 0.959 . S
H62 C63 0.961 . S
C63 C53 1.510 . S
C63 H61 0.959 . S
C63 H62 0.961 . S
C63 H64 0.960 . S
H64 C63 0.960 . S
H65 N45 0.862 . S
O66 Co34 1.920 . S
O66 C39 1.289 . S
C67 O59 1.258 . S
C67 O60 1.266 1_445 S
Co68 O71 1.970 . S
Co68 N85 1.989 . S
Co68 O93 1.967 . S
Co68 O100 1.920 . S
Co69 O72 1.966 . S
Co69 N78 2.022 . S
Co69 N86 1.993 . S
Co69 O94 1.941 . S
C70 O71 1.258 . S
C70 O72 1.263 . S
O71 Co68 1.970 . S
O71 C70 1.258 . S
O72 Co69 1.966 . S
O72 C70 1.263 . S
C73 O74 1.235 . S
C73 O100 1.289 . S
O74 C73 1.235 . S
C75 C77 1.400 . S
C75 N78 1.351 . S
C75 C80 1.501 . S
C76 C77 1.387 . S
C76 N79 1.341 . S
C77 C75 1.400 . S
C77 C76 1.387 . S
N78 Co69 2.022 . S
N78 C75 1.351 . S
N78 N79 1.365 . S
N79 C76 1.341 . S
N79 N78 1.365 . S
N79 H99 0.862 . S
C80 C75 1.501 . S
C80 H81 0.961 . S
C80 H82 0.961 . S
C80 H83 0.960 . S
H81 C80 0.961 . S
H82 C80 0.961 . S
H83 C80 0.960 . S
C84 N85 1.342 . S
C84 C88 1.401 . S
C84 C89 1.499 . S
N85 Co68 1.989 . S
N85 C84 1.342 . S
N85 N86 1.388 . S
N86 Co69 1.993 . S
N86 N85 1.388 . S
N86 C87 1.346 . S
C87 N86 1.346 . S
C87 C88 1.396 . S
C87 C97 1.510 . S
C88 C84 1.401 . S
C88 C87 1.396 . S
C89 C84 1.499 . S
C89 H90 0.959 . S
C89 H91 0.960 . S
C89 H92 0.961 . S
H90 C89 0.959 . S
H91 C89 0.960 . S
H92 C89 0.961 . S
O93 Co68 1.967 . S
O93 C101 1.258 . S
O94 Co69 1.941 . S
O94 C101 1.266 . S
H95 C97 0.959 . S
H96 C97 0.961 . S
C97 C87 1.510 . S
C97 H95 0.959 . S
C97 H96 0.961 . S
C97 H98 0.960 . S
H98 C97 0.960 . S
H99 N79 0.862 . S
O100 Co68 1.920 . S
O100 C73 1.289 . S
C101 O93 1.258 . S
C101 O94 1.266 . S
Co102 O105 1.970 . S
Co102 N119 1.989 . S
Co102 O127 1.967 . S
Co102 O134 1.920 . S
Co103 O106 1.966 . S
Co103 N112 2.022 . S
Co103 N120 1.993 . S
Co103 O128 1.941 . S
C104 O105 1.258 . S
C104 O106 1.263 . S
O105 Co102 1.970 . S
O105 C104 1.258 . S
O106 Co103 1.966 . S
O106 C104 1.263 . S
C107 O108 1.235 . S
C107 O134 1.289 . S
O108 C107 1.235 . S
C109 C111 1.400 1_554 S
C109 N112 1.351 . S
C109 C114 1.501 . S
C110 C111 1.387 1_554 S
C110 N113 1.341 . S
C111 C109 1.400 1_556 S
C111 C110 1.387 1_556 S
N112 Co103 2.022 . S
N112 C109 1.351 . S
N112 N113 1.365 . S
N113 C110 1.341 . S
N113 N112 1.365 . S
N113 H133 0.862 . S
C114 C109 1.501 . S
C114 H115 0.961 . S
C114 H116 0.961 . S
C114 H117 0.960 1_554 S
H115 C114 0.961 . S
H116 C114 0.961 . S
H117 C114 0.960 1_556 S
C118 N119 1.342 . S
C118 C122 1.401 . S
C118 C123 1.499 . S
N119 Co102 1.989 . S
N119 C118 1.342 . S
N119 N120 1.388 . S
N120 Co103 1.993 . S
N120 N119 1.388 . S
N120 C121 1.346 . S
C121 N120 1.346 . S
C121 C122 1.396 . S
C121 C131 1.510 . S
C122 C118 1.401 . S
C122 C121 1.396 . S
C123 C118 1.499 . S
C123 H124 0.959 . S
C123 H125 0.960 . S
C123 H126 0.961 . S
H124 C123 0.959 . S
H125 C123 0.960 . S
H126 C123 0.961 . S
O127 Co102 1.967 . S
O127 C135 1.258 . S
O128 Co103 1.941 . S
O128 C135 1.266 . S
H129 C131 0.959 . S
H130 C131 0.961 . S
C131 C121 1.510 . S
C131 H129 0.959 . S
C131 H130 0.961 . S
C131 H132 0.960 . S
H132 C131 0.960 . S
H133 N113 0.862 . S
O134 Co102 1.920 . S
O134 C107 1.289 . S
C135 O127 1.258 . S
C135 O128 1.266 . S
Co136 O139 1.970 . S
Co136 N153 1.989 1_554 S
Co136 O161 1.967 . S
Co136 O168 1.920 . S
Co137 O140 1.966 1_565 S
Co137 N146 2.022 . S
Co137 N154 1.993 1_554 S
Co137 O162 1.941 . S
C138 O139 1.258 . S
C138 O140 1.263 . S
O139 Co136 1.970 . S
O139 C138 1.258 . S
O140 Co137 1.966 1_545 S
O140 C138 1.263 . S
C141 O142 1.235 . S
C141 O168 1.289 . S
O142 C141 1.235 . S
C143 C145 1.400 1_554 S
C143 N146 1.351 . S
C143 C148 1.501 . S
C144 C145 1.387 . S
C144 N147 1.341 . S
C145 C143 1.400 1_556 S
C145 C144 1.387 . S
N146 Co137 2.022 . S
N146 C143 1.351 . S
N146 N147 1.365 1_554 S
N147 C144 1.341 . S
N147 N146 1.365 1_556 S
N147 H167 0.862 . S
C148 C143 1.501 . S
C148 H149 0.961 . S
C148 H150 0.961 . S
C148 H151 0.960 . S
H149 C148 0.961 . S
H150 C148 0.961 . S
H151 C148 0.960 . S
C152 N153 1.342 . S
C152 C156 1.401 1_545 S
C152 C157 1.499 . S
N153 Co136 1.989 1_556 S
N153 C152 1.342 . S
N153 N154 1.388 1_545 S
N154 Co137 1.993 1_556 S
N154 N153 1.388 1_565 S
N154 C155 1.346 . S
C155 N154 1.346 . S
C155 C156 1.396 . S
C155 C165 1.510 . S
C156 C152 1.401 1_565 S
C156 C155 1.396 . S
C157 C152 1.499 . S
C157 H158 0.959 . S
C157 H159 0.960 . S
C157 H160 0.961 . S
H158 C157 0.959 . S
H159 C157 0.960 . S
H160 C157 0.961 . S
O161 Co136 1.967 . S
O161 C169 1.258 . S
O162 Co137 1.941 . S
O162 C169 1.266 1_565 S
H163 C165 0.959 . S
H164 C165 0.961 . S
C165 C155 1.510 . S
C165 H163 0.959 . S
C165 H164 0.961 . S
C165 H166 0.960 . S
H166 C165 0.960 . S
H167 N147 0.862 . S
O168 Co136 1.920 . S
O168 C141 1.289 . S
C169 O161 1.258 . S
C169 O162 1.266 1_545 S
Co170 O173 1.970 . S
Co170 N187 1.989 1_455 S
Co170 O195 1.967 . S
Co170 O202 1.920 . S
Co171 O174 1.966 1_655 S
Co171 N180 2.022 1_554 S
Co171 N188 1.993 . S
Co171 O196 1.941 . S
C172 O173 1.258 . S
C172 O174 1.263 . S
O173 Co170 1.970 . S
O173 C172 1.258 . S
O174 Co171 1.966 1_455 S
O174 C172 1.263 . S
C175 O176 1.218 1_565 S
C175 O202 1.289 . S
O176 C175 1.218 1_545 S
C177 C179 1.400 . S
C177 N180 1.351 . S
C177 C182 1.501 1_655 S
C178 C179 1.387 . S
C178 N181 1.341 . S
C179 C177 1.400 . S
C179 C178 1.387 . S
N180 Co171 2.022 1_556 S
N180 C177 1.351 . S
N180 N181 1.365 . S
N181 C178 1.341 . S
N181 N180 1.365 . S
N181 H201 0.862 . S
C182 C177 1.501 1_455 S
C182 H183 0.961 1_556 S
C182 H184 0.961 . S
C182 H185 0.960 . S
H183 C182 0.961 1_554 S
H184 C182 0.961 . S
H185 C182 0.960 . S
C186 N187 1.342 . S
C186 C190 1.401 . S
C186 C191 1.499 . S
N187 Co170 1.989 1_655 S
N187 C186 1.342 . S
N187 N188 1.388 . S
N188 Co171 1.993 . S
N188 N187 1.388 . S
N188 C189 1.346 . S
C189 N188 1.346 . S
C189 C190 1.396 . S
C189 C199 1.510 1_554 S
C190 C186 1.401 . S
C190 C189 1.396 . S
C191 C186 1.499 . S
C191 H192 0.959 . S
C191 H193 0.960 . S
C191 H194 0.961 . S
H192 C191 0.959 . S
H193 C191 0.960 . S
H194 C191 0.961 . S
O195 Co170 1.967 . S
O195 C203 1.258 . S
O196 Co171 1.941 . S
O196 C203 1.266 1_655 S
H197 C199 0.959 . S
H198 C199 0.961 . S
C199 C189 1.510 1_556 S
C199 H197 0.959 . S
C199 H198 0.961 . S
C199 H200 0.960 . S
H200 C199 0.960 . S
H201 N181 0.862 . S
O202 Co170 1.920 . S
O202 C175 1.289 . S
C203 O195 1.258 . S
C203 O196 1.266 1_455 S
C204 C205 1.387 . S
C204 H208 0.950 . S
C204 C213 1.390 . S
C205 C204 1.387 . S
C205 C207 1.387 . S
H206 C213 0.950 . S
C207 C205 1.387 . S
C207 C209 1.390 . S
C207 H211 0.950 . S
H208 C204 0.950 . S
C209 C207 1.390 . S
C209 C210 1.387 . S
C209 H212 0.950 . S
C210 C209 1.387 . S
C210 C213 1.387 . S
H211 C207 0.950 . S
H212 C209 0.950 . S
C213 C204 1.390 . S
C213 H206 0.950 . S
C213 C210 1.387 . S
C214 C215 1.387 . S
C214 H218 0.950 . S
C214 C223 1.390 . S
C215 C214 1.387 . S
C215 C217 1.387 . S
H216 C223 0.950 . S
C217 C215 1.387 . S
C217 C219 1.390 . S
C217 H221 0.950 . S
H218 C214 0.950 . S
C219 C217 1.390 . S
C219 C220 1.387 . S
C219 H222 0.950 . S
C220 C219 1.387 . S
C220 C223 1.387 . S
H221 C217 0.950 . S
H222 C219 0.950 . S
C223 C214 1.390 . S
C223 H216 0.950 . S
C223 C220 1.387 . S
C224 C225 1.387 . S
C224 H228 0.950 . S
C224 C233 1.390 . S
C225 C224 1.387 . S
C225 C227 1.387 . S
H226 C233 0.950 . S
C227 C225 1.387 . S
C227 C229 1.390 . S
C227 H231 0.950 . S
H228 C224 0.950 . S
C229 C227 1.390 . S
C229 C230 1.387 . S
C229 H232 0.950 1_545 S
C230 C229 1.387 . S
C230 C233 1.387 . S
H231 C227 0.950 . S
H232 C229 0.950 1_565 S
C233 C224 1.390 . S
C233 H226 0.950 . S
C233 C230 1.387 . S
C234 C235 1.387 . S
C234 H238 0.950 . S
C234 C243 1.390 . S
C235 C234 1.387 . S
C235 C237 1.387 . S
H236 C243 0.950 . S
C237 C235 1.387 . S
C237 C239 1.390 . S
C237 H241 0.950 . S
H238 C234 0.950 . S
C239 C237 1.390 . S
C239 C240 1.387 . S
C239 H242 0.950 . S
C240 C239 1.387 . S
C240 C243 1.387 . S
H241 C237 0.950 . S
H242 C239 0.950 . S
C243 C234 1.390 . S
C243 H236 0.950 . S
C243 C240 1.387 . S
C244 C245 1.387 . S
C244 H248 0.950 . S
C244 C253 1.390 . S
C245 C244 1.387 . S
C245 C247 1.387 . S
H246 C253 0.950 . S
C247 C245 1.387 . S
C247 C249 1.390 1_655 S
C247 H251 0.950 1_655 S
H248 C244 0.950 . S
C249 C247 1.390 1_455 S
C249 C250 1.387 1_455 S
C249 H252 0.950 . S
C250 C249 1.387 1_655 S
C250 C253 1.387 . S
H251 C247 0.950 1_455 S
H252 C249 0.950 . S
C253 C244 1.390 . S
C253 H246 0.950 . S
C253 C250 1.387 . S
C254 C255 1.387 1_556 S
C254 H258 0.950 . S
C254 C263 1.390 . S
C255 C254 1.387 1_554 S
C255 C257 1.387 . S
H256 C263 0.950 . S
C257 C255 1.387 . S
C257 C259 1.390 1_554 S
C257 H261 0.950 . S
H258 C254 0.950 . S
C259 C257 1.390 1_556 S
C259 C260 1.387 . S
C259 H262 0.950 . S
C260 C259 1.387 . S
C260 C263 1.387 . S
H261 C257 0.950 . S
H262 C259 0.950 . S
C263 C254 1.390 . S
C263 H256 0.950 . S
C263 C260 1.387 . S
C264 C265 1.387 . S
C264 H268 0.950 . S
C264 C273 1.390 . S
C265 C264 1.387 . S
C265 C267 1.387 . S
H266 C273 0.950 . S
C267 C265 1.387 . S
C267 C269 1.390 . S
C267 H271 0.950 . S
H268 C264 0.950 . S
C269 C267 1.390 . S
C269 C270 1.387 . S
C269 H272 0.950 . S
C270 C269 1.387 . S
C270 C273 1.387 . S
H271 C267 0.950 . S
H272 C269 0.950 . S
C273 C264 1.390 . S
C273 H266 0.950 . S
C273 C270 1.387 . S
C274 C275 1.387 . S
C274 H278 0.950 . S
C274 C283 1.390 . S
C275 C274 1.387 . S
C275 C277 1.387 . S
H276 C283 0.950 . S
C277 C275 1.387 . S
C277 C279 1.390 . S
C277 H281 0.950 1_565 S
H278 C274 0.950 . S
C279 C277 1.390 . S
C279 C280 1.387 . S
C279 H282 0.950 . S
C280 C279 1.387 . S
C280 C283 1.387 . S
H281 C277 0.950 1_545 S
H282 C279 0.950 . S
C283 C274 1.390 . S
C283 H276 0.950 . S
C283 C280 1.387 . S
C284 C285 1.387 . S
C284 H288 0.950 . S
C284 C293 1.390 . S
C285 C284 1.387 . S
C285 C287 1.387 . S
H286 C293 0.950 . S
C287 C285 1.387 . S
C287 C289 1.390 . S
C287 H291 0.950 . S
H288 C284 0.950 . S
C289 C287 1.390 . S
C289 C290 1.387 . S
C289 H292 0.950 . S
C290 C289 1.387 . S
C290 C293 1.387 . S
H291 C287 0.950 . S
H292 C289 0.950 . S
C293 C284 1.390 . S
C293 H286 0.950 . S
C293 C290 1.387 . S
C294 C295 1.387 . S
C294 H298 0.950 . S
C294 C303 1.390 . S
C295 C294 1.387 . S
C295 C297 1.387 . S
H296 C303 0.950 1_565 S
C297 C295 1.387 . S
C297 C299 1.390 . S
C297 H301 0.950 . S
H298 C294 0.950 . S
C299 C297 1.390 . S
C299 C300 1.387 . S
C299 H302 0.950 . S
C300 C299 1.387 . S
C300 C303 1.387 . S
H301 C297 0.950 . S
H302 C299 0.950 . S
C303 C294 1.390 . S
C303 H296 0.950 1_545 S
C303 C300 1.387 . S
C304 C305 1.387 . S
C304 H308 0.950 . S
C304 C313 1.390 1_655 S
C305 C304 1.387 . S
C305 C307 1.387 . S
H306 C313 0.950 . S
C307 C305 1.387 . S
C307 C309 1.390 1_655 S
C307 H311 0.950 . S
H308 C304 0.950 . S
C309 C307 1.390 1_455 S
C309 C310 1.387 . S
C309 H312 0.950 . S
C310 C309 1.387 . S
C310 C313 1.387 . S
H311 C307 0.950 . S
H312 C309 0.950 . S
C313 C304 1.390 1_455 S
C313 H306 0.950 . S
C313 C310 1.387 . S
C314 C315 1.388 . S
C314 H318 0.949 1_554 S
C314 C323 1.390 1_554 S
C315 C314 1.388 . S
C315 C317 1.387 . S
H316 C323 0.950 . S
C317 C315 1.387 . S
C317 C319 1.390 . S
C317 H321 0.950 . S
H318 C314 0.949 1_556 S
C319 C317 1.390 . S
C319 C320 1.387 . S
C319 H322 0.950 . S
C320 C319 1.387 . S
C320 C323 1.387 1_554 S
H321 C317 0.950 . S
H322 C319 0.950 . S
C323 C314 1.390 1_556 S
C323 H316 0.950 . S
C323 C320 1.387 1_556 S
C324 C325 1.387 . S
C324 H328 0.950 . S
C324 C333 1.390 . S
C325 C324 1.387 . S
C325 C327 1.387 . S
H326 C333 0.950 . S
C327 C325 1.387 . S
C327 C329 1.390 . S
C327 H331 0.950 . S
H328 C324 0.950 . S
C329 C327 1.390 . S
C329 C330 1.387 . S
C329 H332 0.950 . S
C330 C329 1.387 . S
C330 C333 1.387 . S
H331 C327 0.950 . S
H332 C329 0.950 . S
C333 C324 1.390 . S
C333 H326 0.950 . S
C333 C330 1.387 . S
C334 C335 1.387 . S
C334 H338 0.950 . S
C334 C343 1.390 . S
C335 C334 1.387 . S
C335 C337 1.387 . S
H336 C343 0.950 . S
C337 C335 1.387 . S
C337 C339 1.390 . S
C337 H341 0.950 . S
H338 C334 0.950 . S
C339 C337 1.390 . S
C339 C340 1.387 . S
C339 H342 0.950 . S
C340 C339 1.387 . S
C340 C343 1.387 . S
H341 C337 0.950 . S
H342 C339 0.950 . S
C343 C334 1.390 . S
C343 H336 0.950 . S
C343 C340 1.387 . S
C344 C345 1.387 . S
C344 H348 0.950 . S
C344 C353 1.390 . S
C345 C344 1.387 . S
C345 C347 1.387 . S
H346 C353 0.950 . S
C347 C345 1.387 . S
C347 C349 1.390 . S
C347 H351 0.950 . S
H348 C344 0.950 . S
C349 C347 1.390 . S
C349 C350 1.387 . S
C349 H352 0.950 . S
C350 C349 1.387 . S
C350 C353 1.387 . S
H351 C347 0.950 . S
H352 C349 0.950 . S
C353 C344 1.390 . S
C353 H346 0.950 . S
C353 C350 1.387 . S
C205 C107 1.659 . S
C210 C20 1.726 . S
C215 C138 1.817 . S
C220 C9 1.748 . S
C225 C2 1.767 . S
C230 C175 1.438 1_545 S
C235 C77 1.658 . S
C240 C5 1.547 . S
C245 C179 1.524 . S
C250 C54 1.414 . S
C255 C73 1.379 . S
C260 C39 1.172 . S
C265 C36 1.481 . S
C270 C111 1.447 . S
C275 C156 1.741 . S
C280 C43 1.713 . S
C285 C88 1.769 . S
C290 C122 1.792 . S
C295 C70 1.846 . S
C300 C172 1.874 1_545 S
C305 C141 1.285 . S
C310 C104 1.555 . S
C315 C190 2.106 . S
C320 C145 1.976 1_554 S
C325 C67 2.184 . S
C330 C33 2.174 . S
C335 C169 2.085 . S
C340 C101 2.077 . S
C345 C203 1.715 . S
C350 C135 1.701 . S
