# Generated by pormake.
# Topology wjb, (6)-cn, num edge types: 1
# Building blocks:
#     Node 0, Type 0, BuildingBlock: OJICUG_clean_sbu_0, # of connection points: 6
#     Node 1, Type 0, BuildingBlock: OJICUG_clean_sbu_0, # of connection points: 6
#     Node 2, Type 0, BuildingBlock: OJICUG_clean_sbu_0, # of connection points: 6
#     Node 3, Type 0, BuildingBlock: OJICUG_clean_sbu_0, # of connection points: 6
#     Node 4, Type 0, BuildingBlock: OJICUG_clean_sbu_0, # of connection points: 6
#     Node 5, Type 0, BuildingBlock: OJICUG_clean_sbu_0, # of connection points: 6
#     Node 6, Type 0, BuildingBlock: OJICUG_clean_sbu_0, # of connection points: 6
#     Node 7, Type 0, BuildingBlock: OJICUG_clean_sbu_0, # of connection points: 6
#     Node 8, Type 0, BuildingBlock: OJICUG_clean_sbu_0, # of connection points: 6
#     Node 9, Type 0, BuildingBlock: OJICUG_clean_sbu_0, # of connection points: 6
#     Node 10, Type 0, BuildingBlock: OJICUG_clean_sbu_0, # of connection points: 6
#     Node 11, Type 0, BuildingBlock: OJICUG_clean_sbu_0, # of connection points: 6
#     Node 12, Type 0, BuildingBlock: OJICUG_clean_sbu_0, # of connection points: 6
#     Node 13, Type 0, BuildingBlock: OJICUG_clean_sbu_0, # of connection points: 6
#     Node 14, Type 0, BuildingBlock: OJICUG_clean_sbu_0, # of connection points: 6
#     Node 15, Type 0, BuildingBlock: OJICUG_clean_sbu_0, # of connection points: 6
#     Node 16, Type 0, BuildingBlock: OJICUG_clean_sbu_0, # of connection points: 6
#     Node 17, Type 0, BuildingBlock: OJICUG_clean_sbu_0, # of connection points: 6
#     Node 18, Type 0, BuildingBlock: OJICUG_clean_sbu_0, # of connection points: 6
#     Node 19, Type 0, BuildingBlock: OJICUG_clean_sbu_0, # of connection points: 6
#     Node 20, Type 0, BuildingBlock: OJICUG_clean_sbu_0, # of connection points: 6
#     Node 21, Type 0, BuildingBlock: OJICUG_clean_sbu_0, # of connection points: 6
#     Node 22, Type 0, BuildingBlock: OJICUG_clean_sbu_0, # of connection points: 6
#     Node 23, Type 0, BuildingBlock: OJICUG_clean_sbu_0, # of connection points: 6
#     Edge 24, Type (0, 0), BuildingBlock: AJUNOK_clean_linker_0, # of connection points: 2
#     Edge 25, Type (0, 0), BuildingBlock: AJUNOK_clean_linker_0, # of connection points: 2
#     Edge 26, Type (0, 0), BuildingBlock: AJUNOK_clean_linker_0, # of connection points: 2
#     Edge 27, Type (0, 0), BuildingBlock: AJUNOK_clean_linker_0, # of connection points: 2
#     Edge 28, Type (0, 0), BuildingBlock: AJUNOK_clean_linker_0, # of connection points: 2
#     Edge 29, Type (0, 0), BuildingBlock: AJUNOK_clean_linker_0, # of connection points: 2
#     Edge 30, Type (0, 0), BuildingBlock: AJUNOK_clean_linker_0, # of connection points: 2
#     Edge 31, Type (0, 0), BuildingBlock: AJUNOK_clean_linker_0, # of connection points: 2
#     Edge 32, Type (0, 0), BuildingBlock: AJUNOK_clean_linker_0, # of connection points: 2
#     Edge 33, Type (0, 0), BuildingBlock: AJUNOK_clean_linker_0, # of connection points: 2
#     Edge 34, Type (0, 0), BuildingBlock: AJUNOK_clean_linker_0, # of connection points: 2
#     Edge 35, Type (0, 0), BuildingBlock: AJUNOK_clean_linker_0, # of connection points: 2
#     Edge 36, Type (0, 0), BuildingBlock: AJUNOK_clean_linker_0, # of connection points: 2
#     Edge 37, Type (0, 0), BuildingBlock: AJUNOK_clean_linker_0, # of connection points: 2
#     Edge 38, Type (0, 0), BuildingBlock: AJUNOK_clean_linker_0, # of connection points: 2
#     Edge 39, Type (0, 0), BuildingBlock: AJUNOK_clean_linker_0, # of connection points: 2
#     Edge 40, Type (0, 0), BuildingBlock: AJUNOK_clean_linker_0, # of connection points: 2
#     Edge 41, Type (0, 0), BuildingBlock: AJUNOK_clean_linker_0, # of connection points: 2
#     Edge 42, Type (0, 0), BuildingBlock: AJUNOK_clean_linker_0, # of connection points: 2
#     Edge 43, Type (0, 0), BuildingBlock: AJUNOK_clean_linker_0, # of connection points: 2
#     Edge 44, Type (0, 0), BuildingBlock: AJUNOK_clean_linker_0, # of connection points: 2
#     Edge 45, Type (0, 0), BuildingBlock: AJUNOK_clean_linker_0, # of connection points: 2
#     Edge 46, Type (0, 0), BuildingBlock: AJUNOK_clean_linker_0, # of connection points: 2
#     Edge 47, Type (0, 0), BuildingBlock: AJUNOK_clean_linker_0, # of connection points: 2
#     Edge 48, Type (0, 0), BuildingBlock: AJUNOK_clean_linker_0, # of connection points: 2
#     Edge 49, Type (0, 0), BuildingBlock: AJUNOK_clean_linker_0, # of connection points: 2
#     Edge 50, Type (0, 0), BuildingBlock: AJUNOK_clean_linker_0, # of connection points: 2
#     Edge 51, Type (0, 0), BuildingBlock: AJUNOK_clean_linker_0, # of connection points: 2
#     Edge 52, Type (0, 0), BuildingBlock: AJUNOK_clean_linker_0, # of connection points: 2
#     Edge 53, Type (0, 0), BuildingBlock: AJUNOK_clean_linker_0, # of connection points: 2
#     Edge 54, Type (0, 0), BuildingBlock: AJUNOK_clean_linker_0, # of connection points: 2
#     Edge 55, Type (0, 0), BuildingBlock: AJUNOK_clean_linker_0, # of connection points: 2
#     Edge 56, Type (0, 0), BuildingBlock: AJUNOK_clean_linker_0, # of connection points: 2
#     Edge 57, Type (0, 0), BuildingBlock: AJUNOK_clean_linker_0, # of connection points: 2
#     Edge 58, Type (0, 0), BuildingBlock: AJUNOK_clean_linker_0, # of connection points: 2
#     Edge 59, Type (0, 0), BuildingBlock: AJUNOK_clean_linker_0, # of connection points: 2
#     Edge 60, Type (0, 0), BuildingBlock: AJUNOK_clean_linker_0, # of connection points: 2
#     Edge 61, Type (0, 0), BuildingBlock: AJUNOK_clean_linker_0, # of connection points: 2
#     Edge 62, Type (0, 0), BuildingBlock: AJUNOK_clean_linker_0, # of connection points: 2
#     Edge 63, Type (0, 0), BuildingBlock: AJUNOK_clean_linker_0, # of connection points: 2
#     Edge 64, Type (0, 0), BuildingBlock: AJUNOK_clean_linker_0, # of connection points: 2
#     Edge 65, Type (0, 0), BuildingBlock: AJUNOK_clean_linker_0, # of connection points: 2
#     Edge 66, Type (0, 0), BuildingBlock: AJUNOK_clean_linker_0, # of connection points: 2
#     Edge 67, Type (0, 0), BuildingBlock: AJUNOK_clean_linker_0, # of connection points: 2
#     Edge 68, Type (0, 0), BuildingBlock: AJUNOK_clean_linker_0, # of connection points: 2
#     Edge 69, Type (0, 0), BuildingBlock: AJUNOK_clean_linker_0, # of connection points: 2
#     Edge 70, Type (0, 0), BuildingBlock: AJUNOK_clean_linker_0, # of connection points: 2
#     Edge 71, Type (0, 0), BuildingBlock: AJUNOK_clean_linker_0, # of connection points: 2
#     Edge 72, Type (0, 0), BuildingBlock: AJUNOK_clean_linker_0, # of connection points: 2
#     Edge 73, Type (0, 0), BuildingBlock: AJUNOK_clean_linker_0, # of connection points: 2
#     Edge 74, Type (0, 0), BuildingBlock: AJUNOK_clean_linker_0, # of connection points: 2
#     Edge 75, Type (0, 0), BuildingBlock: AJUNOK_clean_linker_0, # of connection points: 2
#     Edge 76, Type (0, 0), BuildingBlock: AJUNOK_clean_linker_0, # of connection points: 2
#     Edge 77, Type (0, 0), BuildingBlock: AJUNOK_clean_linker_0, # of connection points: 2
#     Edge 78, Type (0, 0), BuildingBlock: AJUNOK_clean_linker_0, # of connection points: 2
#     Edge 79, Type (0, 0), BuildingBlock: AJUNOK_clean_linker_0, # of connection points: 2
#     Edge 80, Type (0, 0), BuildingBlock: AJUNOK_clean_linker_0, # of connection points: 2
#     Edge 81, Type (0, 0), BuildingBlock: AJUNOK_clean_linker_0, # of connection points: 2
#     Edge 82, Type (0, 0), BuildingBlock: AJUNOK_clean_linker_0, # of connection points: 2
#     Edge 83, Type (0, 0), BuildingBlock: AJUNOK_clean_linker_0, # of connection points: 2
#     Edge 84, Type (0, 0), BuildingBlock: AJUNOK_clean_linker_0, # of connection points: 2
#     Edge 85, Type (0, 0), BuildingBlock: AJUNOK_clean_linker_0, # of connection points: 2
#     Edge 86, Type (0, 0), BuildingBlock: AJUNOK_clean_linker_0, # of connection points: 2
#     Edge 87, Type (0, 0), BuildingBlock: AJUNOK_clean_linker_0, # of connection points: 2
#     Edge 88, Type (0, 0), BuildingBlock: AJUNOK_clean_linker_0, # of connection points: 2
#     Edge 89, Type (0, 0), BuildingBlock: AJUNOK_clean_linker_0, # of connection points: 2
#     Edge 90, Type (0, 0), BuildingBlock: AJUNOK_clean_linker_0, # of connection points: 2
#     Edge 91, Type (0, 0), BuildingBlock: AJUNOK_clean_linker_0, # of connection points: 2
#     Edge 92, Type (0, 0), BuildingBlock: AJUNOK_clean_linker_0, # of connection points: 2
#     Edge 93, Type (0, 0), BuildingBlock: AJUNOK_clean_linker_0, # of connection points: 2
#     Edge 94, Type (0, 0), BuildingBlock: AJUNOK_clean_linker_0, # of connection points: 2
#     Edge 95, Type (0, 0), BuildingBlock: AJUNOK_clean_linker_0, # of connection points: 2
# Relax obj value: 0.482
# Max RMSD: 0.212
# Mean RMSD: 0.212
data_MOF--net-wjb--node1-OJICUG_clean_sbu_0--edge1-AJUNOK_clean_linker_0
_symmetry_space_group_name_H-M    P1
_symmetry_Int_Tables_number       1
_symmetry_cell_setting            triclinic
loop_
_symmetry_equiv_pos_as_xyz
'x, y, z'
_cell_length_a     39.726023
_cell_length_b     39.711998
_cell_length_c     43.736122
_cell_angle_alpha  89.995564
_cell_angle_beta   90.061944
_cell_angle_gamma 119.97287
loop_
_atom_site_label
_atom_site_type_symbol
_atom_site_fract_x
_atom_site_fract_y
_atom_site_fract_z
_atom_type_partial_charge
Sc0 Sc 0.10625 0.49217 0.12082 0.0
Sc1 Sc 0.15981 0.44211 0.12096 0.0
Sc2 Sc 0.18868 0.52544 0.07565 0.0
O3 O 0.15175 0.4866 0.10603 0.0
C4 C 0.10909 0.51409 0.05045 0.0
C5 C 0.06925 0.40151 0.10823 0.0
C6 C 0.18318 0.44678 0.05164 0.0
C7 C 0.13151 0.46501 0.18128 0.0
C8 C 0.17164 0.57981 0.11993 0.0
C9 C 0.24611 0.51465 0.11999 0.0
O10 O 0.09331 0.50745 0.07664 0.0
O11 O 0.09931 0.39915 0.11423 0.0
O12 O 0.19166 0.48193 0.04886 0.0
O13 O 0.11308 0.47861 0.16704 0.0
O14 O 0.19004 0.57411 0.09869 0.0
O15 O 0.22164 0.48006 0.128 0.0
O16 O 0.14128 0.55277 0.13236 0.0
O17 O 0.15051 0.45147 0.16781 0.0
O18 O 0.23789 0.53503 0.1024 0.0
O19 O 0.06798 0.4328 0.10952 0.0
O20 O 0.14269 0.51872 0.04597 0.0
O21 O 0.17068 0.42752 0.07616 0.0
Sc22 Sc 0.61972 0.12129 0.61777 0.0
Sc23 Sc 0.72231 0.1648 0.62002 0.0
Sc24 Sc 0.67844 0.20929 0.58098 0.0
O25 O 0.67335 0.1649 0.60626 0.0
C26 C 0.60688 0.13969 0.54841 0.0
C27 C 0.66443 0.07583 0.6047 0.0
C28 C 0.74411 0.19434 0.553 0.0
C29 C 0.67011 0.13682 0.67909 0.0
C30 C 0.60723 0.19276 0.62473 0.0
C31 C 0.74608 0.2536 0.62823 0.0
O32 O 0.59477 0.11969 0.57289 0.0
O33 O 0.69703 0.10292 0.61409 0.0
O34 O 0.72508 0.21218 0.55429 0.0
O35 O 0.63817 0.11896 0.66432 0.0
O36 O 0.63264 0.21174 0.60453 0.0
O37 O 0.75511 0.22707 0.62897 0.0
O38 O 0.59981 0.15953 0.6342 0.0
O39 O 0.70298 0.15689 0.66629 0.0
O40 O 0.71707 0.25032 0.61359 0.0
O41 O 0.63444 0.07927 0.60198 0.0
O42 O 0.63892 0.17144 0.54674 0.0
O43 O 0.74397 0.17222 0.574 0.0
Sc44 Sc 0.49691 0.61084 0.11909 0.0
Sc45 Sc 0.54746 0.71476 0.12079 0.0
Sc46 Sc 0.46821 0.66222 0.07147 0.0
O47 O 0.50423 0.66266 0.10398 0.0
C48 C 0.47632 0.59111 0.04846 0.0
C49 C 0.58841 0.66443 0.10979 0.0
C50 C 0.5486 0.7339 0.05006 0.0
C51 C 0.52278 0.66176 0.18051 0.0
C52 C 0.41032 0.59327 0.11616 0.0
C53 C 0.47646 0.72985 0.11604 0.0
O54 O 0.48345 0.58256 0.07473 0.0
O55 O 0.59034 0.69698 0.11449 0.0
O56 O 0.5149 0.70549 0.04482 0.0
O57 O 0.50823 0.6299 0.16592 0.0
O58 O 0.41791 0.61851 0.09537 0.0
O59 O 0.50855 0.73758 0.12841 0.0
O60 O 0.4357 0.58673 0.12809 0.0
O61 O 0.5371 0.69449 0.16725 0.0
O62 O 0.46015 0.70441 0.09529 0.0
O63 O 0.55712 0.63172 0.11051 0.0
O64 O 0.47194 0.62009 0.04367 0.0
O65 O 0.56373 0.74248 0.07652 0.0
Sc66 Sc 0.87388 0.49753 0.61827 0.0
Sc67 Sc 0.8226 0.54841 0.62271 0.0
Sc68 Sc 0.77612 0.4527 0.59838 0.0
O69 O 0.82455 0.49944 0.61295 0.0
C70 C 0.84078 0.45183 0.55557 0.0
C71 C 0.90927 0.58528 0.6004 0.0
C72 C 0.78003 0.52455 0.56083 0.0
C73 C 0.86299 0.53601 0.67999 0.0
C74 C 0.81223 0.4119 0.63903 0.0
C75 C 0.73696 0.48402 0.64139 0.0
O76 O 0.86918 0.47141 0.57367 0.0
O77 O 0.88249 0.58855 0.61305 0.0
O78 O 0.76333 0.4888 0.56873 0.0
O79 O 0.88064 0.52262 0.66387 0.0
O80 O 0.78407 0.41247 0.62582 0.0
O81 O 0.76143 0.51876 0.63425 0.0
O82 O 0.84667 0.44053 0.63881 0.0
O83 O 0.83828 0.54439 0.6689 0.0
O84 O 0.74265 0.45614 0.6353 0.0
O85 O 0.90769 0.55289 0.59692 0.0
O86 O 0.80606 0.44369 0.56112 0.0
O87 O 0.8074 0.55185 0.57607 0.0
Sc88 Sc 0.37395 0.87777 0.12096 0.0
Sc89 Sc 0.27032 0.83184 0.11978 0.0
Sc90 Sc 0.31936 0.79664 0.07484 0.0
O91 O 0.32114 0.8354 0.10535 0.0
C92 C 0.39296 0.87305 0.05061 0.0
C93 C 0.32666 0.92209 0.10874 0.0
C94 C 0.25138 0.80969 0.04983 0.0
C95 C 0.32101 0.85631 0.181 0.0
C96 C 0.38768 0.80626 0.11965 0.0
C97 C 0.24877 0.74316 0.11897 0.0
O98 O 0.40208 0.88964 0.07658 0.0
O99 O 0.29273 0.89319 0.11245 0.0
O100 O 0.27709 0.79995 0.04693 0.0
O101 O 0.35371 0.87127 0.16755 0.0
O102 O 0.3619 0.7891 0.09919 0.0
O103 O 0.24232 0.76981 0.12814 0.0
O104 O 0.39528 0.8386 0.13133 0.0
O105 O 0.289 0.84111 0.16658 0.0
O106 O 0.27548 0.74879 0.10025 0.0
O107 O 0.3577 0.92044 0.1111 0.0
O108 O 0.36278 0.84034 0.04617 0.0
O109 O 0.24454 0.82138 0.0748 0.0
Sc110 Sc 0.48824 0.38203 0.61889 0.0
Sc111 Sc 0.44653 0.27872 0.61752 0.0
Sc112 Sc 0.53524 0.34066 0.58059 0.0
O113 O 0.4898 0.33367 0.60576 0.0
C114 C 0.52011 0.40537 0.55128 0.0
C115 C 0.39957 0.32214 0.60339 0.0
C116 C 0.46329 0.26912 0.54779 0.0
C117 C 0.45989 0.32785 0.67865 0.0
C118 C 0.57741 0.40944 0.62853 0.0
C119 C 0.52194 0.2706 0.62373 0.0
O120 O 0.50232 0.40896 0.57404 0.0
O121 O 0.40046 0.29104 0.60789 0.0
O122 O 0.49762 0.2979 0.54867 0.0
O123 O 0.4736 0.3602 0.66474 0.0
O124 O 0.57675 0.38414 0.61049 0.0
O125 O 0.48626 0.25816 0.62927 0.0
O126 O 0.54835 0.41389 0.63327 0.0
O127 O 0.44873 0.29566 0.66489 0.0
O128 O 0.54212 0.29955 0.6067 0.0
O129 O 0.4288 0.35591 0.60625 0.0
O130 O 0.53393 0.38275 0.55105 0.0
O131 O 0.44066 0.25734 0.57084 0.0
Sc132 Sc 0.47111 0.79627 0.92175 0.0
Sc133 Sc 0.55314 0.83071 0.87446 0.0
Sc134 Sc 0.49483 0.87617 0.87537 0.0
O135 O 0.50648 0.83441 0.89033 0.0
C136 C 0.41045 0.80405 0.87797 0.0
C137 C 0.48508 0.7425 0.87523 0.0
C138 C 0.52583 0.85612 0.8143 0.0
C139 C 0.55281 0.80888 0.94424 0.0
C140 C 0.47445 0.87238 0.94655 0.0
C141 C 0.58667 0.92081 0.88669 0.0
O142 O 0.41999 0.78861 0.89919 0.0
O143 O 0.51813 0.76869 0.8655 0.0
O144 O 0.50798 0.87048 0.82842 0.0
O145 O 0.51763 0.79948 0.94811 0.0
O146 O 0.47907 0.88767 0.92021 0.0
O147 O 0.59196 0.89212 0.88218 0.0
O148 O 0.47351 0.84041 0.95101 0.0
O149 O 0.57013 0.81993 0.91876 0.0
O150 O 0.55382 0.91901 0.8849 0.0
O151 O 0.46558 0.74865 0.89519 0.0
O152 O 0.43444 0.83592 0.86526 0.0
O153 O 0.54278 0.84058 0.82805 0.0
Sc154 Sc 0.6464 0.44998 0.40839 0.0
Sc155 Sc 0.7082 0.54053 0.37436 0.0
Sc156 Sc 0.60478 0.49677 0.36952 0.0
O157 O 0.65321 0.49598 0.38399 0.0
C158 C 0.57904 0.40801 0.3593 0.0
C159 C 0.71804 0.46619 0.36627 0.0
C160 C 0.66172 0.52943 0.3118 0.0
C161 C 0.71616 0.52088 0.44358 0.0
C162 C 0.58026 0.46354 0.43682 0.0
C163 C 0.66255 0.58549 0.38724 0.0
O164 O 0.60397 0.40903 0.37789 0.0
O165 O 0.7303 0.50218 0.3623 0.0
O166 O 0.62826 0.5134 0.32416 0.0
O167 O 0.68814 0.48631 0.44134 0.0
O168 O 0.57652 0.481 0.41384 0.0
O169 O 0.6942 0.58524 0.38453 0.0
O170 O 0.6036 0.45055 0.43757 0.0
O171 O 0.72799 0.5449 0.42142 0.0
O172 O 0.62926 0.55605 0.38278 0.0
O173 O 0.68831 0.44439 0.38207 0.0
O174 O 0.57423 0.43681 0.35425 0.0
O175 O 0.693 0.54024 0.32685 0.0
Sc176 Sc 0.18484 0.65866 0.92273 0.0
Sc177 Sc 0.16073 0.71351 0.87361 0.0
Sc178 Sc 0.10452 0.60988 0.87536 0.0
O179 O 0.15017 0.66081 0.89028 0.0
C180 C 0.17019 0.58802 0.87829 0.0
C181 C 0.24524 0.72377 0.87733 0.0
C182 C 0.12939 0.66082 0.81411 0.0
C183 C 0.18061 0.73316 0.94385 0.0
C184 C 0.10501 0.59048 0.94615 0.0
C185 C 0.06969 0.66581 0.88611 0.0
O186 O 0.1875 0.61173 0.90009 0.0
O187 O 0.22207 0.73389 0.86595 0.0
O188 O 0.111 0.62914 0.82873 0.0
O189 O 0.18546 0.70443 0.94879 0.0
O190 O 0.09021 0.58123 0.9196 0.0
O191 O 0.10056 0.69774 0.88032 0.0
O192 O 0.13801 0.61983 0.95115 0.0
O193 O 0.1731 0.7415 0.91769 0.0
O194 O 0.06719 0.63258 0.88547 0.0
O195 O 0.23526 0.69794 0.89784 0.0
O196 O 0.14017 0.58456 0.86496 0.0
O197 O 0.14992 0.69334 0.82723 0.0
Sc198 Sc 0.53001 0.20622 0.39771 0.0
Sc199 Sc 0.4362 0.16193 0.36919 0.0
Sc200 Sc 0.48714 0.11038 0.37297 0.0
O201 O 0.48449 0.15919 0.37994 0.0
C202 C 0.57289 0.17259 0.35607 0.0
C203 C 0.50336 0.24773 0.35257 0.0
C204 C 0.44926 0.12265 0.31146 0.0
C205 C 0.45701 0.20324 0.4317 0.0
C206 C 0.52725 0.13916 0.43883 0.0
C207 C 0.39915 0.07463 0.39064 0.0
O208 O 0.57216 0.19849 0.37262 0.0
O209 O 0.46784 0.22336 0.35771 0.0
O210 O 0.46272 0.10473 0.32716 0.0
O211 O 0.49302 0.21981 0.42504 0.0
O212 O 0.51315 0.1135 0.41773 0.0
O213 O 0.39588 0.10182 0.37859 0.0
O214 O 0.53287 0.17345 0.43568 0.0
O215 O 0.43058 0.1762 0.41571 0.0
O216 O 0.43144 0.07576 0.39361 0.0
O217 O 0.53045 0.24163 0.36078 0.0
O218 O 0.54372 0.13902 0.3523 0.0
O219 O 0.44094 0.14712 0.32295 0.0
Sc220 Sc 0.32653 0.5257 0.91709 0.0
Sc221 Sc 0.27311 0.4391 0.87543 0.0
Sc222 Sc 0.3769 0.49209 0.87297 0.0
O223 O 0.32546 0.48563 0.88833 0.0
C224 C 0.39602 0.5795 0.87163 0.0
C225 C 0.25478 0.50867 0.8745 0.0
C226 C 0.32234 0.46223 0.81369 0.0
C227 C 0.25769 0.44702 0.94507 0.0
C228 C 0.39684 0.51692 0.94276 0.0
C229 C 0.32577 0.40116 0.88654 0.0
O230 O 0.3698 0.57353 0.89099 0.0
O231 O 0.24649 0.47439 0.86714 0.0
O232 O 0.35549 0.47887 0.82662 0.0
O233 O 0.28383 0.48254 0.94651 0.0
O234 O 0.40457 0.50634 0.91756 0.0
O235 O 0.29252 0.39784 0.8832 0.0
O236 O 0.36941 0.52427 0.94586 0.0
O237 O 0.24969 0.42671 0.92096 0.0
O238 O 0.35756 0.43277 0.88317 0.0
O239 O 0.28322 0.53074 0.89156 0.0
O240 O 0.40246 0.55301 0.8622 0.0
O241 O 0.29056 0.44666 0.82844 0.0
Sc242 Sc 0.772 0.3042 0.40584 0.0
Sc243 Sc 0.8196 0.26332 0.36786 0.0
Sc244 Sc 0.86374 0.36512 0.37644 0.0
O245 O 0.81859 0.31109 0.38322 0.0
C246 C 0.79432 0.37993 0.36565 0.0
C247 C 0.7316 0.24067 0.35609 0.0
C248 C 0.85417 0.32011 0.31256 0.0
C249 C 0.78519 0.23688 0.43274 0.0
C250 C 0.83799 0.37109 0.44498 0.0
C251 C 0.90675 0.3185 0.38909 0.0
O252 O 0.77277 0.35287 0.38397 0.0
O253 O 0.75744 0.23066 0.3572 0.0
O254 O 0.87078 0.35013 0.32978 0.0
O255 O 0.76566 0.25421 0.43043 0.0
O256 O 0.86091 0.38582 0.42224 0.0
O257 O 0.88125 0.2881 0.37555 0.0
O258 O 0.80609 0.33923 0.44312 0.0
O259 O 0.81006 0.23986 0.41317 0.0
O260 O 0.90258 0.34761 0.39444 0.0
O261 O 0.73508 0.27018 0.36991 0.0
O262 O 0.82838 0.38762 0.35845 0.0
O263 O 0.83084 0.28617 0.32258 0.0
Sc264 Sc 0.87928 0.50132 0.87502 0.0
Sc265 Sc 0.8267 0.55139 0.87037 0.0
Sc266 Sc 0.7845 0.4593 0.90218 0.0
O267 O 0.83043 0.50395 0.88234 0.0
C268 C 0.81645 0.41438 0.86136 0.0
C269 C 0.86485 0.53636 0.81275 0.0
C270 C 0.74117 0.48208 0.85527 0.0
C271 C 0.91464 0.59015 0.89087 0.0
C272 C 0.85415 0.46638 0.94248 0.0
C273 C 0.78853 0.53336 0.9345 0.0
O274 O 0.84992 0.44324 0.85645 0.0
O275 O 0.84094 0.54541 0.82429 0.0
O276 O 0.7473 0.45599 0.86591 0.0
O277 O 0.91435 0.55823 0.89343 0.0
O278 O 0.81949 0.45961 0.93934 0.0
O279 O 0.81382 0.55875 0.91681 0.0
O280 O 0.87899 0.47909 0.92081 0.0
O281 O 0.8869 0.59285 0.87923 0.0
O282 O 0.77147 0.49702 0.92916 0.0
O283 O 0.88289 0.52318 0.82859 0.0
O284 O 0.79134 0.41607 0.87816 0.0
O285 O 0.76501 0.51815 0.85902 0.0
Sc286 Sc 0.37469 0.88107 0.37474 0.0
Sc287 Sc 0.27085 0.82737 0.37563 0.0
Sc288 Sc 0.32548 0.80144 0.42312 0.0
O289 O 0.32361 0.83663 0.39098 0.0
C290 C 0.39343 0.81297 0.37738 0.0
C291 C 0.32149 0.85532 0.31457 0.0
C292 C 0.25774 0.7419 0.3789 0.0
C293 C 0.32079 0.91838 0.38639 0.0
C294 C 0.39586 0.88154 0.4454 0.0
C295 C 0.25307 0.80755 0.44611 0.0
O296 O 0.39924 0.84448 0.3652 0.0
O297 O 0.2896 0.83821 0.329 0.0
O298 O 0.28363 0.75098 0.39927 0.0
O299 O 0.35345 0.91997 0.3837 0.0
O300 O 0.36735 0.84799 0.4505 0.0
O301 O 0.24393 0.81454 0.42006 0.0
O302 O 0.40383 0.89684 0.41895 0.0
O303 O 0.28802 0.88762 0.38308 0.0
O304 O 0.28216 0.80323 0.45066 0.0
O305 O 0.35421 0.87222 0.32806 0.0
O306 O 0.36906 0.79577 0.39869 0.0
O307 O 0.24907 0.76603 0.36733 0.0
Sc308 Sc 0.49462 0.37746 0.87276 0.0
Sc309 Sc 0.44261 0.27378 0.87165 0.0
Sc310 Sc 0.53828 0.32685 0.89972 0.0
O311 O 0.49147 0.32585 0.88142 0.0
C312 C 0.58027 0.39656 0.85439 0.0
C313 C 0.45809 0.3261 0.81205 0.0
C314 C 0.50809 0.25292 0.8567 0.0
C315 C 0.40547 0.32486 0.89116 0.0
C316 C 0.53814 0.39729 0.93551 0.0
C317 C 0.46668 0.26349 0.93894 0.0
O318 O 0.55445 0.40634 0.85715 0.0
O319 O 0.44339 0.29289 0.82508 0.0
O320 O 0.53376 0.28116 0.87184 0.0
O321 O 0.4366 0.35694 0.88768 0.0
O322 O 0.55073 0.37421 0.92986 0.0
O323 O 0.44063 0.25346 0.91827 0.0
O324 O 0.51358 0.39999 0.91855 0.0
O325 O 0.40241 0.29225 0.88539 0.0
O326 O 0.50241 0.28823 0.93482 0.0
O327 O 0.47609 0.3582 0.82658 0.0
O328 O 0.57666 0.36561 0.86587 0.0
O329 O 0.47304 0.24492 0.85537 0.0
Sc330 Sc 0.10651 0.49135 0.37502 0.0
Sc331 Sc 0.15612 0.43711 0.37435 0.0
Sc332 Sc 0.18451 0.51605 0.42395 0.0
O333 O 0.14907 0.48154 0.39086 0.0
C334 C 0.17889 0.57673 0.37937 0.0
C335 C 0.1319 0.46536 0.31424 0.0
C336 C 0.24314 0.50237 0.38243 0.0
C337 C 0.06513 0.39925 0.38347 0.0
C338 C 0.10591 0.51201 0.44488 0.0
C339 C 0.17134 0.43481 0.44576 0.0
O340 O 0.1454 0.55285 0.36885 0.0
O341 O 0.14618 0.44702 0.32773 0.0
O342 O 0.23428 0.51808 0.40379 0.0
O343 O 0.06515 0.43115 0.38086 0.0
O344 O 0.13996 0.5182 0.44938 0.0
O345 O 0.16786 0.42138 0.41884 0.0
O346 O 0.08907 0.50203 0.41914 0.0
O347 O 0.09525 0.39589 0.38134 0.0
O348 O 0.17435 0.46751 0.45152 0.0
O349 O 0.1173 0.48276 0.32854 0.0
O350 O 0.19686 0.56735 0.39863 0.0
O351 O 0.21801 0.47414 0.36653 0.0
Sc352 Sc 0.61495 0.11652 0.87128 0.0
Sc353 Sc 0.71778 0.16746 0.87241 0.0
Sc354 Sc 0.66682 0.21147 0.89814 0.0
O355 O 0.66613 0.16463 0.88089 0.0
C356 C 0.59335 0.18024 0.8538 0.0
C357 C 0.66891 0.13346 0.81192 0.0
C358 C 0.73757 0.25354 0.85556 0.0
C359 C 0.6652 0.07895 0.89093 0.0
C360 C 0.59986 0.1431 0.93658 0.0
C361 C 0.73478 0.20736 0.93513 0.0
O362 O 0.58791 0.1462 0.85066 0.0
O363 O 0.701 0.15523 0.82555 0.0
O364 O 0.70409 0.24734 0.8626 0.0
O365 O 0.63399 0.08016 0.89137 0.0
O366 O 0.62775 0.1779 0.93408 0.0
O367 O 0.73494 0.18039 0.91956 0.0
O368 O 0.59036 0.11743 0.91568 0.0
O369 O 0.69704 0.10658 0.88106 0.0
O370 O 0.71516 0.22354 0.92772 0.0
O371 O 0.63636 0.11397 0.82581 0.0
O372 O 0.61961 0.20563 0.87078 0.0
O373 O 0.74887 0.22957 0.86212 0.0
Sc374 Sc 0.49443 0.61248 0.37587 0.0
Sc375 Sc 0.54689 0.7158 0.37302 0.0
Sc376 Sc 0.46695 0.66537 0.42153 0.0
O377 O 0.50287 0.66476 0.38983 0.0
C378 C 0.40845 0.59083 0.38154 0.0
C379 C 0.52149 0.66248 0.31394 0.0
C380 C 0.47419 0.72955 0.37517 0.0
C381 C 0.58573 0.66388 0.38523 0.0
C382 C 0.47563 0.59745 0.44758 0.0
C383 C 0.54686 0.7398 0.44136 0.0
O384 O 0.4338 0.58951 0.36469 0.0
O385 O 0.53367 0.69523 0.32679 0.0
O386 O 0.45408 0.70089 0.39276 0.0
O387 O 0.55377 0.63189 0.38693 0.0
O388 O 0.4781 0.63015 0.45222 0.0
O389 O 0.56581 0.74308 0.4172 0.0
O390 O 0.47749 0.58562 0.4209 0.0
O391 O 0.58854 0.69607 0.37744 0.0
O392 O 0.51124 0.71502 0.44463 0.0
O393 O 0.50892 0.63105 0.32896 0.0
O394 O 0.41723 0.6148 0.40343 0.0
O395 O 0.50915 0.74041 0.3676 0.0
Sc396 Sc 0.53698 0.21322 0.09344 0.0
Sc397 Sc 0.44371 0.16853 0.12171 0.0
Sc398 Sc 0.49526 0.11761 0.11791 0.0
O399 O 0.49201 0.16603 0.11117 0.0
C400 C 0.53248 0.14644 0.05129 0.0
C401 C 0.464 0.2098 0.05955 0.0
C402 C 0.40708 0.08064 0.1011 0.0
C403 C 0.51128 0.25407 0.13898 0.0
C404 C 0.5811 0.18026 0.1341 0.0
C405 C 0.45636 0.12899 0.17933 0.0
O406 O 0.53817 0.18067 0.05496 0.0
O407 O 0.43789 0.18171 0.07489 0.0
O408 O 0.43962 0.08258 0.09743 0.0
O409 O 0.53793 0.24709 0.13149 0.0
O410 O 0.55212 0.14675 0.13858 0.0
O411 O 0.44856 0.15397 0.16802 0.0
O412 O 0.57982 0.20548 0.11714 0.0
O413 O 0.47576 0.23071 0.13252 0.0
O414 O 0.47048 0.11161 0.16369 0.0
O415 O 0.49974 0.22767 0.06719 0.0
O416 O 0.52027 0.121 0.07261 0.0
O417 O 0.4036 0.10782 0.11302 0.0
Sc418 Sc 0.31587 0.51546 0.57273 0.0
Sc419 Sc 0.26638 0.4341 0.62054 0.0
Sc420 Sc 0.37005 0.48976 0.62002 0.0
O421 O 0.31736 0.47974 0.6046 0.0
C422 C 0.38913 0.51175 0.54941 0.0
C423 C 0.2461 0.43397 0.55045 0.0
C424 C 0.32064 0.39792 0.60923 0.0
C425 C 0.24713 0.50251 0.61785 0.0
C426 C 0.38443 0.57509 0.61716 0.0
C427 C 0.31841 0.46064 0.68072 0.0
O428 O 0.35838 0.51297 0.54413 0.0
O429 O 0.23927 0.41716 0.57619 0.0
O430 O 0.35239 0.43026 0.61023 0.0
O431 O 0.27307 0.52185 0.59802 0.0
O432 O 0.39144 0.55053 0.63007 0.0
O433 O 0.28597 0.44497 0.66698 0.0
O434 O 0.35951 0.5661 0.5959 0.0
O435 O 0.24029 0.46979 0.62818 0.0
O436 O 0.35069 0.47646 0.66671 0.0
O437 O 0.27252 0.46887 0.54613 0.0
O438 O 0.3984 0.50598 0.57588 0.0
O439 O 0.28734 0.39398 0.61413 0.0
Sc440 Sc 0.78629 0.33166 0.09387 0.0
Sc441 Sc 0.82657 0.27596 0.12033 0.0
Sc442 Sc 0.88087 0.37951 0.11968 0.0
O443 O 0.83141 0.32874 0.11123 0.0
C444 C 0.85783 0.40062 0.05775 0.0
C445 C 0.79195 0.2676 0.05345 0.0
C446 C 0.91495 0.32457 0.10138 0.0
C447 C 0.74047 0.25624 0.1352 0.0
C448 C 0.81654 0.40113 0.13902 0.0
C449 C 0.86495 0.3281 0.18008 0.0
O450 O 0.82212 0.3799 0.06456 0.0
O451 O 0.8069 0.25617 0.07396 0.0
O452 O 0.91721 0.35712 0.10578 0.0
O453 O 0.74374 0.28513 0.12056 0.0
O454 O 0.85174 0.41068 0.13421 0.0
O455 O 0.84627 0.29518 0.16656 0.0
O456 O 0.78823 0.36961 0.12923 0.0
O457 O 0.76744 0.24814 0.13685 0.0
O458 O 0.87921 0.36063 0.16615 0.0
O459 O 0.78259 0.2936 0.05779 0.0
O460 O 0.88482 0.4008 0.07349 0.0
O461 O 0.88444 0.29238 0.10595 0.0
Sc462 Sc 0.46201 0.80061 0.57252 0.0
Sc463 Sc 0.54304 0.82634 0.61937 0.0
Sc464 Sc 0.49302 0.88032 0.62113 0.0
O465 O 0.49938 0.83576 0.60458 0.0
C466 C 0.47177 0.88121 0.55083 0.0
C467 C 0.54084 0.80853 0.54825 0.0
C468 C 0.58421 0.91772 0.60985 0.0
C469 C 0.47118 0.74058 0.61565 0.0
C470 C 0.40596 0.81212 0.61878 0.0
C471 C 0.5209 0.85429 0.68087 0.0
O472 O 0.46489 0.84694 0.54607 0.0
O473 O 0.55665 0.81408 0.57439 0.0
O474 O 0.55318 0.91921 0.61307 0.0
O475 O 0.455 0.75006 0.59505 0.0
O476 O 0.43177 0.84432 0.62993 0.0
O477 O 0.53587 0.83743 0.66624 0.0
O478 O 0.41276 0.79373 0.59815 0.0
O479 O 0.50355 0.76469 0.62786 0.0
O480 O 0.50403 0.87036 0.66767 0.0
O481 O 0.50743 0.80446 0.54403 0.0
O482 O 0.48084 0.8973 0.57697 0.0
O483 O 0.58616 0.88677 0.61201 0.0
Sc484 Sc 0.67362 0.4602 0.09043 0.0
Sc485 Sc 0.72284 0.55324 0.12076 0.0
Sc486 Sc 0.62016 0.50172 0.11689 0.0
O487 O 0.67186 0.50503 0.1094 0.0
C488 C 0.60949 0.46515 0.05007 0.0
C489 C 0.74109 0.53472 0.05614 0.0
C490 C 0.6717 0.59078 0.10226 0.0
C491 C 0.74176 0.48628 0.1361 0.0
C492 C 0.59747 0.41513 0.13174 0.0
C493 C 0.67046 0.53645 0.17898 0.0
O494 O 0.63682 0.45766 0.05382 0.0
O495 O 0.74178 0.56039 0.07395 0.0
O496 O 0.64077 0.55852 0.09887 0.0
O497 O 0.70953 0.45934 0.12625 0.0
O498 O 0.59172 0.44355 0.13509 0.0
O499 O 0.70347 0.54633 0.16715 0.0
O500 O 0.62512 0.41698 0.11597 0.0
O501 O 0.75342 0.52193 0.13108 0.0
O502 O 0.63904 0.5233 0.16334 0.0
O503 O 0.72243 0.49841 0.06189 0.0
O504 O 0.59824 0.4796 0.07109 0.0
O505 O 0.70257 0.59383 0.11329 0.0
Sc506 Sc 0.18708 0.66016 0.57673 0.0
Sc507 Sc 0.15557 0.71293 0.62129 0.0
Sc508 Sc 0.10297 0.60923 0.6201 0.0
O509 O 0.14864 0.66085 0.60625 0.0
C510 C 0.10871 0.59132 0.54986 0.0
C511 C 0.17934 0.73166 0.55193 0.0
C512 C 0.06536 0.66242 0.60775 0.0
C513 C 0.24236 0.72858 0.62177 0.0
C514 C 0.17005 0.58886 0.62074 0.0
C515 C 0.12597 0.66068 0.68114 0.0
O516 O 0.14284 0.6198 0.54658 0.0
O517 O 0.16722 0.73876 0.57654 0.0
O518 O 0.06438 0.63001 0.60899 0.0
O519 O 0.23522 0.70077 0.60371 0.0
O520 O 0.13804 0.58355 0.63137 0.0
O521 O 0.14502 0.69334 0.66783 0.0
O522 O 0.18975 0.61433 0.60072 0.0
O523 O 0.21713 0.73764 0.62975 0.0
O524 O 0.10868 0.62861 0.66676 0.0
O525 O 0.18823 0.70525 0.54931 0.0
O526 O 0.09105 0.58233 0.57534 0.0
O527 O 0.09524 0.69491 0.61372 0.0
C528 C 0.08834 0.57786 0.00098 0.0
C529 C 0.08809 0.56302 0.97172 0.0
C530 C 0.08968 0.5585 0.02733 0.0
C531 C 0.09168 0.52427 0.02503 0.0
H532 H 0.09155 0.60649 0.0034 0.0
H533 H 0.09373 0.57274 0.04927 0.0
S534 S 0.08372 0.4697 0.95427 0.0
N535 N 0.08289 0.50874 0.94231 0.0
N536 N 0.087 0.47309 0.99193 0.0
C537 C 0.08689 0.50691 0.99624 0.0
C538 C 0.08451 0.52611 0.96947 0.0
C539 C 0.58808 0.11846 0.49415 0.0
C540 C 0.58016 0.13022 0.52227 0.0
C541 C 0.56815 0.118 0.46736 0.0
C542 C 0.54068 0.13054 0.4678 0.0
H543 H 0.61103 0.11133 0.4926 0.0
H544 H 0.57633 0.11054 0.44586 0.0
S545 S 0.50909 0.16314 0.5359 0.0
N546 N 0.54185 0.15287 0.54925 0.0
N547 N 0.50557 0.15351 0.4989 0.0
C548 C 0.53164 0.14102 0.49602 0.0
C549 C 0.55114 0.14052 0.52328 0.0
C550 C 0.40599 0.512 -0.00171 0.0
C551 C 0.42266 0.52539 0.96931 0.0
C552 C 0.4266 0.53012 0.02501 0.0
C553 C 0.46409 0.56272 0.02344 0.0
H554 H 0.3757 0.4897 0.00021 0.0
H555 H 0.4114 0.52151 0.04669 0.0
S556 S 0.52288 0.60434 0.95353 0.0
N557 N 0.48084 0.56887 0.94083 0.0
N558 N 0.51905 0.60411 0.99116 0.0
C559 C 0.48247 0.57366 0.99487 0.0
C560 C 0.46183 0.5546 0.96768 0.0
C561 C 0.82404 0.39205 0.52683 0.0
C562 C 0.84646 0.43265 0.52884 0.0
C563 C 0.82401 0.3724 0.50034 0.0
C564 C 0.84586 0.3926 0.47441 0.0
H565 H 0.80545 0.37534 0.54566 0.0
H566 H 0.80525 0.34112 0.49983 0.0
S567 S 0.91227 0.49934 0.46941 0.0
N568 N 0.89363 0.49252 0.50415 0.0
N569 N 0.89308 0.45578 0.45361 0.0
C570 C 0.8703 0.43323 0.47684 0.0
C571 C 0.87063 0.45324 0.50422 0.0
C572 C 0.4292 0.89097 0.9698 0.0
C573 C 0.46278 0.88781 0.97256 0.0
C574 C 0.40836 0.89053 0.99584 0.0
C575 C 0.42115 0.88811 0.02533 0.0
H576 H 0.41664 0.88942 0.94748 0.0
H577 H 0.38048 0.88883 0.9928 0.0
S578 S 0.51065 0.88558 0.04467 0.0
N579 N 0.51023 0.88664 0.00691 0.0
N580 N 0.47182 0.88728 0.05587 0.0
C581 C 0.45698 0.88945 0.0284 0.0
C582 C 0.47766 0.88894 0.00193 0.0
C583 C 0.57714 0.47778 0.49128 0.0
C584 C 0.5574 0.45781 0.46465 0.0
C585 C 0.56179 0.46333 0.52032 0.0
C586 C 0.52641 0.42841 0.52346 0.0
H587 H 0.6063 0.50253 0.4897 0.0
H588 H 0.57962 0.47725 0.54025 0.0
S589 S 0.46162 0.36785 0.46085 0.0
N590 N 0.49907 0.40382 0.44316 0.0
N591 N 0.47027 0.37642 0.49783 0.0
C592 C 0.50477 0.41028 0.49706 0.0
C593 C 0.5203 0.42509 0.46752 0.0
C594 C 0.84529 0.46165 -0.00136 0.0
C595 C 0.86437 0.45779 0.97293 0.0
C596 C 0.84636 0.4458 0.02683 0.0
C597 C 0.86672 0.42563 0.03059 0.0
H598 H 0.82748 0.47514 0.99657 0.0
H599 H 0.82921 0.44743 0.04544 0.0
S600 S 0.92584 0.41179 0.97185 0.0
N601 N 0.90769 0.43582 0.95387 0.0
N602 N 0.90977 0.40598 0.0074 0.0
C603 C 0.8888 0.42444 0.00598 0.0
C604 C 0.88764 0.4406 0.97697 0.0
C605 C 0.42905 0.90214 0.52662 0.0
C606 C 0.46305 0.89963 0.52519 0.0
C607 C 0.40935 0.90158 0.49979 0.0
C608 C 0.42359 0.8994 0.47083 0.0
H609 H 0.41505 0.8996 0.54844 0.0
H610 H 0.38091 0.89887 0.5018 0.0
S611 S 0.51501 0.89916 0.45508 0.0
N612 N 0.51273 0.89995 0.49277 0.0
N613 N 0.47638 0.90021 0.44233 0.0
C614 C 0.46007 0.90197 0.46915 0.0
C615 C 0.47968 0.90174 0.49642 0.0
C616 C 0.61291 0.45672 0.99427 0.0
C617 C 0.59061 0.45575 0.01959 0.0
C618 C 0.59559 0.44054 0.96628 0.0
C619 C 0.55523 0.42278 0.9623 0.0
H620 H 0.64393 0.46824 0.9965 0.0
H621 H 0.61378 0.43999 0.94804 0.0
S622 S 0.48409 0.41693 0.01975 0.0
N623 N 0.52628 0.43911 0.03788 0.0
N624 N 0.49358 0.40851 0.98468 0.0
C625 C 0.53275 0.42442 0.9864 0.0
C626 C 0.55051 0.44099 0.01523 0.0
C627 C 0.0917 0.56 0.46789 0.0
C628 C 0.08909 0.52346 0.46981 0.0
C629 C 0.09367 0.58067 0.49445 0.0
C630 C 0.09212 0.56493 0.52356 0.0
H631 H 0.09693 0.57462 0.44602 0.0
H632 H 0.09988 0.61042 0.49224 0.0
S633 S 0.07896 0.46766 0.54034 0.0
N634 N 0.08059 0.47055 0.50263 0.0
N635 N 0.08262 0.50871 0.55262 0.0
C636 C 0.08476 0.52655 0.52559 0.0
C637 C 0.08367 0.50592 0.4986 0.0
C638 C 0.58019 0.11713 0.98969 0.0
C639 C 0.57493 0.1347 0.96361 0.0
C640 C 0.56367 0.11812 0.01795 0.0
C641 C 0.54206 0.13728 0.02083 0.0
H642 H 0.59904 0.10473 0.98869 0.0
H643 H 0.57016 0.10633 0.03798 0.0
S644 S 0.51633 0.18341 0.95813 0.0
N645 N 0.54379 0.16829 0.94162 0.0
N646 N 0.51294 0.17038 0.99436 0.0
C647 C 0.53459 0.15255 0.9943 0.0
C648 C 0.55107 0.15127 0.96575 0.0
C649 C 0.45135 0.56362 0.5289 0.0
C650 C 0.41863 0.52654 0.52513 0.0
C651 C 0.47283 0.58522 0.50357 0.0
C652 C 0.46268 0.57013 0.47373 0.0
H653 H 0.45801 0.57758 0.55112 0.0
H654 H 0.49552 0.61508 0.50714 0.0
S655 S 0.38483 0.47066 0.45299 0.0
N656 N 0.38052 0.47323 0.49037 0.0
N657 N 0.42203 0.51299 0.44269 0.0
C658 C 0.43309 0.53113 0.47024 0.0
C659 C 0.41058 0.50956 0.496 0.0
C660 C 0.30695 0.51109 0.12068 0.0
C661 C 0.28727 0.53119 0.12825 0.0
C662 C 0.34776 0.53062 0.11949 0.0
C663 C 0.36965 0.57056 0.12604 0.0
H664 H 0.29079 0.48114 0.11305 0.0
H665 H 0.362 0.51525 0.11105 0.0
S666 S 0.33206 0.63369 0.15319 0.0
N667 N 0.2927 0.59135 0.14663 0.0
N668 N 0.36929 0.6277 0.14499 0.0
C669 C 0.35037 0.58972 0.13656 0.0
C670 C 0.3091 0.57008 0.13755 0.0
C671 C 0.82407 0.35731 0.63073 0.0
C672 C 0.80564 0.37341 0.64796 0.0
C673 C 0.80716 0.31688 0.62765 0.0
C674 C 0.7717 0.29178 0.64198 0.0
H675 H 0.84888 0.37585 0.61655 0.0
H676 H 0.81945 0.30556 0.61126 0.0
S677 S 0.71873 0.31952 0.69677 0.0
N678 N 0.75493 0.36139 0.6845 0.0
N679 N 0.72346 0.28529 0.67916 0.0
C680 C 0.75623 0.30748 0.66267 0.0
C681 C 0.77319 0.34849 0.66559 0.0
C682 C 0.41486 0.729 0.1252 0.0
C683 C 0.45566 0.7502 0.12553 0.0
C684 C 0.39296 0.74748 0.12663 0.0
C685 C 0.41103 0.78814 0.12787 0.0
H686 H 0.3997 0.69795 0.12161 0.0
H687 H 0.36165 0.72987 0.12448 0.0
S688 S 0.51707 0.8571 0.13237 0.0
N689 N 0.51344 0.81385 0.13019 0.0
N690 N 0.47209 0.84921 0.13219 0.0
C691 C 0.45177 0.80977 0.13072 0.0
C692 C 0.47421 0.79065 0.12962 0.0
C693 C 0.67927 0.49081 0.6313 0.0
C694 C 0.69682 0.4739 0.6487 0.0
C695 C 0.6388 0.47198 0.62802 0.0
C696 C 0.61502 0.43617 0.64237 0.0
H697 H 0.69684 0.51615 0.61729 0.0
H698 H 0.62649 0.48328 0.6116 0.0
S699 S 0.64612 0.3862 0.69737 0.0
N700 N 0.68709 0.42397 0.68548 0.0
N701 N 0.61082 0.38873 0.6794 0.0
C702 C 0.63184 0.42193 0.66309 0.0
C703 C 0.67295 0.44089 0.66631 0.0
C704 C 0.16974 0.64006 0.11019 0.0
C705 C 0.18422 0.62033 0.12759 0.0
C706 C 0.18856 0.68076 0.11028 0.0
C707 C 0.22237 0.70269 0.12769 0.0
H708 H 0.1456 0.62411 0.09464 0.0
H709 H 0.17861 0.69514 0.09467 0.0
S710 S 0.26808 0.66452 0.18055 0.0
N711 N 0.23132 0.62523 0.1653 0.0
N712 N 0.26697 0.702 0.16525 0.0
C713 C 0.23519 0.6832 0.147 0.0
C714 C 0.21599 0.6418 0.147 0.0
C715 C 0.54351 0.18911 0.63378 0.0
C716 C 0.58432 0.21013 0.63554 0.0
C717 C 0.52212 0.2086 0.63344 0.0
C718 C 0.54122 0.24944 0.63487 0.0
H719 H 0.52844 0.15807 0.62957 0.0
H720 H 0.49117 0.192 0.62901 0.0
S721 S 0.64683 0.31643 0.64558 0.0
N722 N 0.64224 0.27285 0.6433 0.0
N723 N 0.60232 0.30938 0.6431 0.0
C724 C 0.58147 0.27002 0.64031 0.0
C725 C 0.60302 0.25035 0.6405 0.0
C726 C 0.40544 0.64312 0.85504 0.0
C727 C 0.42193 0.62006 0.86234 0.0
C728 C 0.42792 0.68363 0.85544 0.0
C729 C 0.46734 0.7024 0.86376 0.0
H730 H 0.37443 0.62981 0.85112 0.0
H731 H 0.41373 0.70044 0.85154 0.0
S732 S 0.52544 0.65517 0.8803 0.0
N733 N 0.48105 0.61863 0.87406 0.0
N734 N 0.52316 0.69529 0.87561 0.0
C735 C 0.4851 0.67985 0.86804 0.0
C736 C 0.46228 0.63839 0.86722 0.0
C737 C 0.78075 0.46665 0.36098 0.0
C738 C 0.74063 0.44857 0.35503 0.0
C739 C 0.79988 0.44495 0.36083 0.0
C740 C 0.77922 0.40481 0.35474 0.0
H741 H 0.79646 0.49652 0.36882 0.0
H742 H 0.82978 0.45872 0.36855 0.0
S743 S 0.67631 0.34647 0.33065 0.0
N744 N 0.68287 0.39029 0.33733 0.0
N745 N 0.71872 0.34961 0.33732 0.0
C746 C 0.74044 0.38776 0.34512 0.0
C747 C 0.72112 0.4097 0.34516 0.0
C748 C 0.30796 0.78405 0.86427 0.0
C749 C 0.28651 0.74347 0.86826 0.0
C750 C 0.34888 0.80393 0.8646 0.0
C751 C 0.36911 0.78361 0.86907 0.0
H752 H 0.29322 0.80077 0.86343 0.0
H753 H 0.36454 0.83541 0.8639 0.0
S754 S 0.32628 0.67679 0.8749 0.0
N755 N 0.28858 0.68341 0.87204 0.0
N756 N 0.36484 0.72062 0.87319 0.0
C757 C 0.34787 0.74286 0.87002 0.0
C758 C 0.30667 0.72279 0.86945 0.0
C759 C 0.57042 0.35107 0.33061 0.0
C760 C 0.55322 0.37006 0.34543 0.0
C761 C 0.55149 0.31051 0.32929 0.0
C762 C 0.51489 0.28773 0.34298 0.0
H763 H 0.60029 0.3675 0.3229 0.0
H764 H 0.5673 0.29699 0.32028 0.0
S765 S 0.45487 0.3242 0.37932 0.0
N766 N 0.49557 0.36388 0.36972 0.0
N767 N 0.45957 0.28732 0.36733 0.0
C768 C 0.49532 0.30654 0.3542 0.0
C769 C 0.51471 0.34797 0.35547 0.0
C770 C 0.17236 0.52745 0.88595 0.0
C771 C 0.1851 0.56222 0.86969 0.0
C772 C 0.19309 0.50746 0.88464 0.0
C773 C 0.22732 0.52204 0.86731 0.0
H774 H 0.14792 0.51719 0.90144 0.0
H775 H 0.18418 0.48239 0.89928 0.0
S776 S 0.26904 0.60849 0.817 0.0
N777 N 0.23089 0.60772 0.83285 0.0
N778 N 0.27054 0.57059 0.83097 0.0
C779 C 0.23863 0.55513 0.84922 0.0
C780 C 0.21728 0.57519 0.85028 0.0
C781 C 0.63407 0.21632 0.32917 0.0
C782 C 0.61096 0.18104 0.34441 0.0
C783 C 0.67443 0.23281 0.32819 0.0
C784 C 0.69287 0.21498 0.34313 0.0
H785 H 0.62129 0.23304 0.32062 0.0
H786 H 0.69155 0.26199 0.31911 0.0
S787 S 0.64444 0.11904 0.38139 0.0
N788 N 0.60841 0.12572 0.37033 0.0
N789 N 0.68473 0.15747 0.36931 0.0
C790 C 0.66975 0.17737 0.35487 0.0
C791 C 0.62848 0.16025 0.35548 0.0
C792 C 0.64137 0.41071 0.82862 0.0
C793 C 0.61922 0.42483 0.84294 0.0
C794 C 0.68195 0.43233 0.82888 0.0
C795 C 0.70164 0.46868 0.84357 0.0
H796 H 0.62741 0.38119 0.81997 0.0
H797 H 0.69794 0.41876 0.82036 0.0
S798 S 0.6568 0.52176 0.87866 0.0
N799 N 0.61958 0.47996 0.86746 0.0
N800 N 0.69613 0.52065 0.86806 0.0
C801 C 0.67986 0.48537 0.85412 0.0
C802 C 0.6384 0.46333 0.85378 0.0
C803 C 0.25718 0.68053 0.36861 0.0
C804 C 0.23646 0.70066 0.36999 0.0
C805 C 0.23793 0.64 0.36915 0.0
C806 C 0.19725 0.61811 0.37094 0.0
H807 H 0.28866 0.69628 0.36917 0.0
H808 H 0.25515 0.62577 0.36996 0.0
S809 S 0.12946 0.65684 0.37148 0.0
N810 N 0.17311 0.69594 0.37031 0.0
N811 N 0.13657 0.61924 0.37108 0.0
C812 C 0.17597 0.63771 0.36955 0.0
C813 C 0.19572 0.67923 0.3691 0.0
C814 C 0.50485 0.18919 0.85404 0.0
C815 C 0.5203 0.2272 0.84279 0.0
C816 C 0.52702 0.17062 0.85328 0.0
C817 C 0.56498 0.18989 0.84139 0.0
H818 H 0.47795 0.17585 0.86689 0.0
H819 H 0.51644 0.14346 0.86552 0.0
S820 S 0.61373 0.28517 0.80226 0.0
N821 N 0.57181 0.27988 0.81388 0.0
N822 N 0.61371 0.24523 0.81289 0.0
C823 C 0.57813 0.22533 0.8262 0.0
C824 C 0.55557 0.24397 0.82675 0.0
C825 C 0.30508 0.53179 0.35193 0.0
C826 C 0.28481 0.51577 0.37935 0.0
C827 C 0.34603 0.55401 0.3518 0.0
C828 C 0.36722 0.56071 0.37913 0.0
H829 H 0.28925 0.52959 0.33114 0.0
H830 H 0.36087 0.56823 0.33086 0.0
S831 S 0.3275 0.52046 0.45574 0.0
N832 N 0.289 0.5043 0.4334 0.0
N833 N 0.3652 0.54613 0.43329 0.0
C834 C 0.34717 0.54215 0.40596 0.0
C835 C 0.30608 0.51959 0.40603 0.0
C836 C 0.82112 0.35461 0.86394 0.0
C837 C 0.80617 0.37593 0.84941 0.0
C838 C 0.80128 0.31385 0.86229 0.0
C839 C 0.76588 0.2936 0.84631 0.0
H840 H 0.84577 0.36909 0.87926 0.0
H841 H 0.8113 0.29822 0.87646 0.0
S842 S 0.7204 0.33712 0.79851 0.0
N843 N 0.75838 0.37475 0.81425 0.0
N844 N 0.72112 0.29817 0.81091 0.0
C845 C 0.75369 0.31503 0.82851 0.0
C846 C 0.77381 0.35632 0.83024 0.0
C847 C 0.39594 0.75438 0.36281 0.0
C848 C 0.41583 0.79477 0.36733 0.0
C849 C 0.41588 0.73379 0.36209 0.0
C850 C 0.45639 0.75287 0.36609 0.0
H851 H 0.36447 0.73825 0.36196 0.0
H852 H 0.39914 0.70235 0.36066 0.0
S853 S 0.52222 0.85907 0.37476 0.0
N854 N 0.47832 0.85383 0.37247 0.0
N855 N 0.51619 0.81494 0.37136 0.0
C856 C 0.47703 0.79372 0.36767 0.0
C857 C 0.45658 0.81478 0.36828 0.0
C858 C 0.5103 0.31547 0.13107 0.0
C859 C 0.52417 0.29456 0.14773 0.0
C860 C 0.53244 0.35613 0.12887 0.0
C861 C 0.56878 0.37672 0.14342 0.0
H862 H 0.48462 0.30024 0.11687 0.0
H863 H 0.52304 0.37097 0.11323 0.0
S864 S 0.61249 0.33642 0.19613 0.0
N865 N 0.57231 0.29802 0.18383 0.0
N866 N 0.61402 0.37444 0.17942 0.0
C867 C 0.58039 0.35665 0.16314 0.0
C868 C 0.55789 0.31545 0.16549 0.0
C869 C 0.18645 0.50463 0.61155 0.0
C870 C 0.22197 0.51795 0.62685 0.0
C871 C 0.16721 0.52609 0.61241 0.0
C872 C 0.18312 0.56138 0.6285 0.0
H873 H 0.17514 0.47926 0.59689 0.0
H874 H 0.14155 0.51673 0.59837 0.0
S875 S 0.27146 0.6046 0.67675 0.0
N876 N 0.26946 0.56537 0.66185 0.0
N877 N 0.23336 0.60604 0.66317 0.0
C878 C 0.21679 0.57318 0.64593 0.0
C879 C 0.23627 0.5513 0.64517 0.0
C880 C 0.68015 0.19221 0.13364 0.0
C881 C 0.7016 0.22918 0.14708 0.0
C882 C 0.63936 0.1729 0.13322 0.0
C883 C 0.61937 0.19022 0.14627 0.0
H884 H 0.6948 0.18041 0.12025 0.0
H885 H 0.62379 0.14674 0.11959 0.0
S886 S 0.66225 0.28156 0.19077 0.0
N887 N 0.70004 0.27854 0.17872 0.0
N888 N 0.62339 0.2423 0.17783 0.0
C889 C 0.6404 0.22444 0.16325 0.0
C890 C 0.68168 0.24396 0.16373 0.0
C891 C 0.46876 0.67743 0.62814 0.0
C892 C 0.44991 0.69928 0.62499 0.0
C893 C 0.44718 0.63644 0.62854 0.0
C894 C 0.40637 0.61655 0.62578 0.0
H895 H 0.5002 0.69183 0.62778 0.0
H896 H 0.46262 0.62038 0.62848 0.0
S897 S 0.34349 0.66074 0.62201 0.0
N898 N 0.38817 0.69801 0.62317 0.0
N899 N 0.34807 0.62174 0.62385 0.0
C900 C 0.38738 0.63829 0.62557 0.0
C901 C 0.40907 0.6795 0.6252 0.0
C902 C 0.82424 0.46677 0.13489 0.0
C903 C 0.80723 0.43056 0.14982 0.0
C904 C 0.80515 0.48843 0.13399 0.0
C905 C 0.76876 0.4743 0.14806 0.0
H906 H 0.84977 0.47607 0.12075 0.0
H907 H 0.81662 0.51369 0.11923 0.0
S908 S 0.71881 0.38767 0.19782 0.0
N909 N 0.75707 0.3863 0.18465 0.0
N910 N 0.72121 0.4271 0.18308 0.0
C911 C 0.75473 0.44136 0.16684 0.0
C912 C 0.77404 0.41939 0.1677 0.0
C913 C 0.34539 0.75667 0.63849 0.0
C914 C 0.36549 0.79547 0.62871 0.0
C915 C 0.30482 0.73587 0.63926 0.0
C916 C 0.28318 0.75351 0.63066 0.0
H917 H 0.36113 0.74173 0.64376 0.0
H918 H 0.29026 0.7051 0.64458 0.0
S919 S 0.32248 0.85599 0.607 0.0
N920 N 0.36138 0.85199 0.61317 0.0
N921 N 0.28471 0.81301 0.61507 0.0
C922 C 0.30302 0.79339 0.62377 0.0
C923 C 0.34445 0.81447 0.62271 0.0
C924 C 0.13999 0.44061 0.23174 0.0
C925 C 0.13141 0.46569 0.21508 0.0
C926 C 0.14019 0.4408 0.26373 0.0
C927 C 0.13194 0.46618 0.28036 0.0
H928 H 0.14625 0.42034 0.22 0.0
H929 H 0.14657 0.4206 0.27544 0.0
S930 S 0.11046 0.53976 0.24749 0.0
N931 N 0.11626 0.51795 0.21753 0.0
N932 N 0.1167 0.51843 0.27758 0.0
C933 C 0.12388 0.49188 0.26394 0.0
C934 C 0.12359 0.4916 0.23136 0.0
C935 C 0.64185 0.10186 0.76103 0.0
C936 C 0.66932 0.13399 0.77808 0.0
C937 C 0.64188 0.10283 0.72889 0.0
C938 C 0.66936 0.13597 0.71286 0.0
H939 H 0.62045 0.07572 0.77256 0.0
H940 H 0.62065 0.07734 0.71654 0.0
S941 S 0.74369 0.22967 0.74684 0.0
N942 N 0.72223 0.20116 0.77644 0.0
N943 N 0.72227 0.20284 0.71643 0.0
C944 C 0.69614 0.16863 0.7297 0.0
C945 C 0.69613 0.16768 0.7622 0.0
C946 C 0.5303 0.69435 0.23103 0.0
C947 C 0.52259 0.66085 0.21448 0.0
C948 C 0.52989 0.69448 0.26301 0.0
C949 C 0.52181 0.66112 0.27997 0.0
H950 H 0.53637 0.7208 0.21925 0.0
H951 H 0.53574 0.72106 0.27445 0.0
S952 S 0.50139 0.56612 0.24775 0.0
N953 N 0.50773 0.59355 0.21754 0.0
N954 N 0.50699 0.59378 0.27765 0.0
C955 C 0.5144 0.62742 0.26375 0.0
C956 C 0.51478 0.62729 0.23108 0.0
C957 C 0.8557 0.56073 0.73055 0.0
C958 C 0.86938 0.53991 0.71359 0.0
C959 C 0.85606 0.56071 0.76248 0.0
C960 C 0.87011 0.53986 0.77904 0.0
H961 H 0.8435 0.57642 0.71914 0.0
H962 H 0.84415 0.57644 0.77422 0.0
S963 S 0.91294 0.48367 0.74571 0.0
N964 N 0.90031 0.50023 0.71579 0.0
N965 N 0.90096 0.5002 0.77598 0.0
C966 C 0.88601 0.5207 0.76246 0.0
C967 C 0.88566 0.52073 0.72974 0.0
C968 C 0.35485 0.87764 0.26379 0.0
C969 C 0.32042 0.85534 0.28055 0.0
C970 C 0.35472 0.87793 0.23175 0.0
C971 C 0.32016 0.85597 0.21501 0.0
H972 H 0.38228 0.89516 0.27545 0.0
H973 H 0.38206 0.89565 0.22006 0.0
S974 S 0.22204 0.79164 0.24775 0.0
N975 N 0.2507 0.81007 0.27776 0.0
N976 N 0.2505 0.81062 0.21775 0.0
C977 C 0.28546 0.83345 0.23145 0.0
C978 C 0.28558 0.83313 0.26409 0.0
C979 C 0.43402 0.29405 0.72893 0.0
C980 C 0.45836 0.32827 0.71257 0.0
C981 C 0.43327 0.29377 0.76102 0.0
C982 C 0.45689 0.32768 0.77808 0.0
H983 H 0.41546 0.26718 0.71688 0.0
H984 H 0.41429 0.26659 0.7725 0.0
S985 S 0.52704 0.42475 0.74613 0.0
N986 N 0.50733 0.39687 0.71592 0.0
N987 N 0.50595 0.39645 0.77587 0.0
C988 C 0.4812 0.36221 0.76192 0.0
C989 C 0.48194 0.36246 0.72931 0.0
C990 C 0.50053 0.86519 0.76419 0.0
C991 C 0.52607 0.85662 0.78029 0.0
C992 C 0.4992 0.86457 0.73215 0.0
C993 C 0.52332 0.85531 0.71481 0.0
H994 H 0.48091 0.87194 0.77638 0.0
H995 H 0.47868 0.87094 0.72095 0.0
S996 S 0.59747 0.83334 0.74567 0.0
N997 N 0.5775 0.84042 0.77623 0.0
N998 N 0.575 0.83926 0.7162 0.0
C999 C 0.54953 0.84737 0.73058 0.0
C1000 C 0.55091 0.84803 0.76321 0.0
C1001 C 0.699 0.53999 0.23063 0.0
C1002 C 0.66842 0.53787 0.21281 0.0
C1003 C 0.69695 0.53823 0.26255 0.0
C1004 C 0.66419 0.53421 0.2781 0.0
H1005 H 0.72446 0.54191 0.21988 0.0
H1006 H 0.72084 0.53891 0.27503 0.0
S1007 S 0.57817 0.53211 0.24251 0.0
N1008 N 0.6057 0.53484 0.21331 0.0
N1009 N 0.60179 0.53154 0.2734 0.0
C1010 C 0.63399 0.5336 0.2607 0.0
C1011 C 0.63611 0.53542 0.22808 0.0
C1012 C 0.15471 0.69208 0.76335 0.0
C1013 C 0.12714 0.65996 0.78027 0.0
C1014 C 0.15374 0.69213 0.73141 0.0
C1015 C 0.12519 0.66005 0.71499 0.0
H1016 H 0.17764 0.71734 0.77481 0.0
H1017 H 0.17604 0.71739 0.71953 0.0
S1018 S 0.0444 0.56975 0.74833 0.0
N1019 N 0.06912 0.59586 0.77818 0.0
N1020 N 0.06738 0.59599 0.71806 0.0
C1021 C 0.09698 0.62794 0.73156 0.0
C1022 C 0.09794 0.62788 0.76418 0.0
C1023 C 0.47246 0.1101 0.26174 0.0
C1024 C 0.44616 0.11754 0.27781 0.0
C1025 C 0.4744 0.11192 0.22966 0.0
C1026 C 0.45013 0.12128 0.2126 0.0
H1027 H 0.49312 0.10489 0.27403 0.0
H1028 H 0.49638 0.10791 0.21831 0.0
S1029 S 0.37127 0.13578 0.24349 0.0
N1030 N 0.3918 0.12928 0.27404 0.0
N1031 N 0.39538 0.13266 0.21395 0.0
C1032 C 0.42183 0.12594 0.22832 0.0
C1033 C 0.41986 0.12408 0.26086 0.0
C1034 C 0.35173 0.46628 0.73062 0.0
C1035 C 0.31862 0.46079 0.71458 0.0
C1036 C 0.35268 0.46664 0.76264 0.0
C1037 C 0.32056 0.46152 0.77986 0.0
H1038 H 0.37708 0.47002 0.7184 0.0
H1039 H 0.37872 0.47067 0.77393 0.0
S1040 S 0.22789 0.44914 0.74889 0.0
N1041 N 0.25359 0.45208 0.71837 0.0
N1042 N 0.25536 0.45277 0.77843 0.0
C1043 C 0.28742 0.4565 0.7641 0.0
C1044 C 0.28646 0.45613 0.73152 0.0
C1045 C 0.85559 0.29328 0.22967 0.0
C1046 C 0.86734 0.32834 0.21398 0.0
C1047 C 0.85267 0.29135 0.26153 0.0
C1048 C 0.86146 0.3244 0.27918 0.0
H1049 H 0.84756 0.2667 0.21727 0.0
H1050 H 0.84271 0.2634 0.27233 0.0
S1051 S 0.89579 0.42397 0.24966 0.0
N1052 N 0.88971 0.39758 0.21882 0.0
N1053 N 0.8842 0.39375 0.27878 0.0
C1054 C 0.87488 0.36007 0.26401 0.0
C1055 C 0.87783 0.36209 0.23143 0.0
C1056 C 0.97028 0.3189 0.11946 0.0
C1057 C 0.95153 0.32573 0.09495 0.0
C1058 C 0.01092 0.33955 0.12165 0.0
C1059 C 0.03315 0.36691 0.0992 0.0
H1060 H 0.95364 0.30219 0.13906 0.0
H1061 H 0.02439 0.33806 0.14278 0.0
S1062 S -0.00223 0.3865 0.02679 0.0
N1063 N 0.95797 0.35493 0.04504 0.0
N1064 N 0.03443 0.39322 0.04883 0.0
C1065 C 0.01489 0.36866 0.07227 0.0
C1066 C 0.97376 0.34802 0.07018 0.0
C1067 C 0.61756 0.97417 0.57651 0.0
C1068 C 0.61886 0.95473 0.60292 0.0
C1069 C 0.63705 0.01471 0.5755 0.0
C1070 C 0.6587 0.03671 0.60073 0.0
H1071 H 0.59752 0.9581 0.55817 0.0
H1072 H 0.63188 0.02875 0.55627 0.0
S1073 S 0.67733 -0.00076 0.67251 0.0
N1074 N 0.64797 0.95986 0.65271 0.0
N1075 N 0.68564 0.03654 0.65063 0.0
C1076 C 0.6647 0.01765 0.6254 0.0
C1077 C 0.64444 0.97627 0.62653 0.0
C1078 C 0.64707 0.62717 0.07361 0.0
C1079 C 0.66772 0.62531 0.09901 0.0
C1080 C 0.62528 0.64583 0.07578 0.0
C1081 C 0.62377 0.66312 0.10333 0.0
H1082 H 0.64382 0.61005 0.05336 0.0
H1083 H 0.60596 0.64268 0.05709 0.0
S1084 S 0.67906 0.67303 0.17404 0.0
N1085 N 0.69078 0.64791 0.15058 0.0
N1086 N 0.64942 0.68302 0.1546 0.0
C1087 C 0.64863 0.66634 0.12728 0.0
C1088 C 0.67098 0.64742 0.12507 0.0
C1089 C 0.01023 0.6402 0.57289 0.0
C1090 C 0.02891 0.66062 0.59961 0.0
C1091 C 0.96979 0.62004 0.57092 0.0
C1092 C 0.94727 0.61996 0.59564 0.0
H1093 H 0.02663 0.63566 0.55518 0.0
H1094 H 0.95616 0.60059 0.55173 0.0
S1095 S 0.98321 0.67736 0.66704 0.0
N1096 N 0.02294 0.68621 0.64837 0.0
N1097 N 0.94642 0.64849 0.64467 0.0
C1098 C 0.96582 0.64558 0.62015 0.0
C1099 C 0.00709 0.66597 0.62219 0.0
C1100 C 0.37284 0.01911 0.07259 0.0
C1101 C 0.37276 0.04207 0.09697 0.0
C1102 C 0.35264 0.97864 0.07479 0.0
C1103 C 0.33167 0.96018 0.10132 0.0
H1104 H 0.39219 0.03248 0.05334 0.0
H1105 H 0.35692 0.96197 0.05715 0.0
S1106 S 0.3158 0.00695 0.16856 0.0
N1107 N 0.34476 0.04348 0.14607 0.0
N1108 N 0.3066 0.96694 0.15007 0.0
C1109 C 0.32687 0.98244 0.12388 0.0
C1110 C 0.34747 0.02377 0.12167 0.0
C1111 C 0.36097 0.34174 0.57296 0.0
C1112 C 0.36272 0.32093 0.59828 0.0
C1113 C 0.34197 0.36319 0.57516 0.0
C1114 C 0.32375 0.36361 0.6025 0.0
H1115 H 0.37915 0.34619 0.55317 0.0
H1116 H 0.34545 0.383 0.55678 0.0
S1117 S 0.31182 0.30589 0.6721 0.0
N1118 N 0.33841 0.29571 0.64897 0.0
N1119 N 0.3019 0.33576 0.65293 0.0
C1120 C 0.31982 0.33791 0.62597 0.0
C1121 C 0.33939 0.31621 0.62377 0.0
C1122 C 0.64705 0.98055 0.87174 0.0
C1123 C 0.61967 0.95889 0.89437 0.0
C1124 C 0.66779 0.02131 0.87318 0.0
C1125 C 0.66114 0.04086 0.89717 0.0
H1126 H 0.64899 0.96639 0.85118 0.0
H1127 H 0.68495 0.03737 0.85356 0.0
S1128 S 0.59966 -0.00361 0.96541 0.0
N1129 N 0.59272 0.95912 0.94409 0.0
N1130 N 0.63149 0.03566 0.94674 0.0
C1131 C 0.63822 0.01919 0.92197 0.0
C1132 C 0.61733 0.97799 0.92053 0.0
C1133 C 0.62254 0.64343 0.41781 0.0
C1134 C 0.62085 0.66169 0.39083 0.0
C1135 C 0.64348 0.62381 0.41874 0.0
C1136 C 0.66295 0.62191 0.39264 0.0
H1137 H 0.60377 0.64018 0.43691 0.0
H1138 H 0.63987 0.60562 0.43836 0.0
S1139 S 0.67429 0.67232 0.31902 0.0
N1140 N 0.64594 0.68291 0.3396 0.0
N1141 N 0.68536 0.64563 0.34131 0.0
C1142 C 0.66645 0.64512 0.36733 0.0
C1143 C 0.64513 0.66518 0.36638 0.0
C1144 C 0.97145 0.64916 0.87109 0.0
C1145 C 0.95206 0.62527 0.89627 0.0
C1146 C 0.01214 0.66906 0.86969 0.0
C1147 C 0.03382 0.66561 0.8936 0.0
H1148 H 0.95536 0.64798 0.8507 0.0
H1149 H 0.02616 0.6825 0.8483 0.0
S1150 S -0.0034 0.61605 0.96776 0.0
N1151 N 0.95727 0.60639 0.94805 0.0
N1152 N 0.03381 0.64428 0.94559 0.0
C1153 C 0.01486 0.64749 0.92084 0.0
C1154 C 0.97368 0.62707 0.92216 0.0
C1155 C 0.34317 0.97449 0.4201 0.0
C1156 C 0.32261 0.95507 0.39363 0.0
C1157 C 0.36392 0.01501 0.42117 0.0
C1158 C 0.36434 0.03688 0.39583 0.0
H1159 H 0.34743 0.95849 0.43834 0.0
H1160 H 0.38343 0.02909 0.44024 0.0
S1161 S 0.30722 -0.0008 0.32449 0.0
N1162 N 0.29765 0.95991 0.34421 0.0
N1163 N 0.33637 0.03656 0.34626 0.0
C1164 C 0.33878 0.01778 0.37141 0.0
C1165 C 0.31785 0.97643 0.37028 0.0
C1166 C 0.32332 0.33967 0.87301 0.0
C1167 C 0.32924 0.36754 0.89528 0.0
C1168 C 0.34389 0.31952 0.87452 0.0
C1169 C 0.37086 0.32735 0.89815 0.0
H1170 H 0.30692 0.33719 0.85249 0.0
H1171 H 0.34279 0.30213 0.85504 0.0
S1172 S 0.3888 0.39045 0.96549 0.0
N1173 N 0.35729 0.39597 0.94451 0.0
N1174 N 0.39641 0.35853 0.94708 0.0
C1175 C 0.37223 0.35054 0.92276 0.0
C1176 C 0.3512 0.3707 0.92135 0.0
C1177 C 0.96508 0.31913 0.36871 0.0
C1178 C 0.94583 0.32432 0.39369 0.0
C1179 C 0.00577 0.33976 0.36714 0.0
C1180 C 0.02768 0.36536 0.3907 0.0
H1181 H 0.94884 0.30314 0.34871 0.0
H1182 H 0.01971 0.33921 0.34601 0.0
S1183 S 0.99108 0.38096 0.46402 0.0
N1184 N 0.95157 0.35063 0.44479 0.0
N1185 N 0.02807 0.38909 0.4419 0.0
C1186 C 0.00889 0.36613 0.41757 0.0
C1187 C 0.96773 0.34552 0.41908 0.0
C1188 C 0.25063 0.43485 0.00058 0.0
C1189 C 0.23294 0.43104 0.972 0.0
C1190 C 0.2314 0.43421 0.02751 0.0
C1191 C 0.19443 0.43058 0.02636 0.0
H1192 H 0.2807 0.44189 0.00194 0.0
H1193 H 0.24721 0.44092 0.04894 0.0
S1194 S 0.13394 0.41421 0.95756 0.0
N1195 N 0.17472 0.41825 0.9443 0.0
N1196 N 0.13904 0.4186 0.9951 0.0
C1197 C 0.17505 0.42299 -0.00175 0.0
C1198 C 0.19427 0.42276 0.97089 0.0
C1199 C 0.7503 0.18326 0.46955 0.0
C1200 C 0.78328 0.2188 0.46221 0.0
C1201 C 0.7406 0.17232 0.50014 0.0
C1202 C 0.7633 0.19705 0.52396 0.0
H1203 H 0.73015 0.16563 0.45176 0.0
H1204 H 0.71302 0.14657 0.50515 0.0
S1205 S 0.85406 0.29154 0.51622 0.0
N1206 N 0.84046 0.27688 0.48068 0.0
N1207 N 0.82146 0.25679 0.53831 0.0
C1208 C 0.79798 0.231 0.5168 0.0
C1209 C 0.80818 0.24182 0.48574 0.0
C1210 C 0.57013 0.79735 0.02566 0.0
C1211 C 0.5676 0.76082 0.0246 0.0
C1212 C 0.57144 0.81681 -0.00141 0.0
C1213 C 0.57115 0.80058 0.96995 0.0
H1214 H 0.56614 0.80855 0.04713 0.0
H1215 H 0.56823 0.84231 -2e-05 0.0
S1216 S 0.5736 0.71007 0.95567 0.0
N1217 N 0.57112 0.71225 0.99326 0.0
N1218 N 0.575 0.74966 0.94231 0.0
C1219 C 0.57431 0.767 0.9689 0.0
C1220 C 0.57206 0.74675 0.99637 0.0
C1221 C 0.7259 0.51719 0.52853 0.0
C1222 C 0.76608 0.5336 0.53261 0.0
C1223 C 0.71041 0.51671 0.4998 0.0
C1224 C 0.73451 0.53215 0.474 0.0
H1225 H 0.70615 0.50272 0.54737 0.0
H1226 H 0.67906 0.50189 0.49741 0.0
S1227 S 0.84202 0.58173 0.47337 0.0
N1228 N 0.8301 0.56878 0.50942 0.0
N1229 N 0.80073 0.56733 0.45486 0.0
C1230 C 0.77496 0.5514 0.47818 0.0
C1231 C 0.79084 0.55216 0.50771 0.0
C1232 C 0.22253 0.79673 0.96822 0.0
C1233 C 0.18889 0.75997 0.96941 0.0
C1234 C 0.2406 0.81648 0.99523 0.0
C1235 C 0.22488 0.80033 0.02391 0.0
H1236 H 0.23744 0.80801 0.94668 0.0
H1237 H 0.26902 0.84233 0.99378 0.0
S1238 S 0.13326 0.70851 0.03851 0.0
N1239 N 0.13765 0.71079 0.00089 0.0
N1240 N 0.17093 0.74868 0.05171 0.0
C1241 C 0.18857 0.76623 0.02508 0.0
C1242 C 0.17069 0.74571 -0.00231 0.0
C1243 C 0.46328 0.27306 0.4915 0.0
C1244 C 0.45046 0.2497 0.51788 0.0
C1245 C 0.46166 0.25697 0.46282 0.0
C1246 C 0.44685 0.2169 0.45946 0.0
H1247 H 0.47721 0.30441 0.49333 0.0
H1248 H 0.47452 0.27632 0.44347 0.0
S1249 S 0.40516 0.14251 0.5205 0.0
N1250 N 0.41892 0.18407 0.5384 0.0
N1251 N 0.41563 0.15357 0.484 0.0
C1252 C 0.43067 0.19269 0.48504 0.0
C1253 C 0.43246 0.20919 0.51447 0.0
C1254 C 0.73242 0.53966 0.00091 0.0
C1255 C 0.75772 0.54579 0.02545 0.0
C1256 C 0.74378 0.53897 0.97073 0.0
C1257 C 0.78102 0.54513 0.96428 0.0
H1258 H 0.70278 0.53269 0.00526 0.0
H1259 H 0.72261 0.53129 0.95255 0.0
S1260 S 0.85855 0.56437 0.02037 0.0
N1261 N 0.82183 0.55947 0.04144 0.0
N1262 N 0.84377 0.55936 0.98446 0.0
C1263 C 0.80741 0.55378 0.98845 0.0
C1264 C 0.7956 0.55383 0.01922 0.0
C1265 C 0.22042 0.79475 0.52699 0.0
C1266 C 0.18781 0.75729 0.52563 0.0
C1267 C 0.23941 0.81404 0.50014 0.0
C1268 C 0.22561 0.79663 0.47144 0.0
H1269 H 0.2339 0.80717 0.54881 0.0
H1270 H 0.26701 0.84083 0.50195 0.0
S1271 S 0.13769 0.70172 0.45605 0.0
N1272 N 0.13986 0.70551 0.49371 0.0
N1273 N 0.1748 0.74244 0.44308 0.0
C1274 C 0.19035 0.76141 0.4698 0.0
C1275 C 0.17158 0.74143 0.49708 0.0
C1276 C 0.43602 0.1956 0.00682 0.0
C1277 C 0.45406 0.22221 0.03092 0.0
C1278 C 0.43693 0.20878 0.97677 0.0
C1279 C 0.45589 0.24879 0.97037 0.0
H1280 H 0.42413 0.16476 0.01071 0.0
H1281 H 0.42561 0.18782 0.9583 0.0
S1282 S 0.50122 0.32944 0.02653 0.0
N1283 N 0.48667 0.28967 0.04709 0.0
N1284 N 0.4881 0.31444 0.99101 0.0
C1285 C 0.47067 0.27527 0.99481 0.0
C1286 C 0.46985 0.26196 0.02507 0.0
C1287 C 0.16406 0.41539 0.50008 0.0
C1288 C 0.18 0.41626 0.47121 0.0
C1289 C 0.18303 0.41461 0.52682 0.0
C1290 C 0.21876 0.41552 0.52524 0.0
H1291 H 0.13916 0.41953 0.50204 0.0
H1292 H 0.17231 0.41838 0.5486 0.0
S1293 S 0.26822 0.40985 0.45545 0.0
N1294 N 0.22954 0.41078 0.44266 0.0
N1295 N 0.2661 0.41105 0.49313 0.0
C1296 C 0.23236 0.41152 0.49669 0.0
C1297 C 0.21258 0.41134 0.46949 0.0
C1298 C 0.76557 0.21128 0.01716 0.0
C1299 C 0.78594 0.25163 0.02233 0.0
C1300 C 0.75172 0.19639 0.98777 0.0
C1301 C 0.7581 0.22162 0.9631 0.0
H1302 H 0.75781 0.19129 0.03619 0.0
H1303 H 0.73346 0.16527 0.98485 0.0
S1304 S 0.81627 0.32917 0.96391 0.0
N1305 N 0.81678 0.3162 -0.00029 0.0
N1306 N 0.79054 0.28822 0.94479 0.0
C1307 C 0.78147 0.26177 0.96759 0.0
C1308 C 0.79551 0.27682 -0.0028 0.0
C1309 C 0.56098 0.80076 0.466 0.0
C1310 C 0.56463 0.7674 0.46648 0.0
C1311 C 0.5579 0.81738 0.49331 0.0
C1312 C 0.55901 0.80138 0.52172 0.0
H1313 H 0.55557 0.81104 0.44461 0.0
H1314 H 0.55086 0.84044 0.49214 0.0
S1315 S 0.57491 0.71825 0.53476 0.0
N1316 N 0.57423 0.72203 0.49717 0.0
N1317 N 0.56964 0.75401 0.54871 0.0
C1318 C 0.56773 0.77123 0.52242 0.0
C1319 C 0.57025 0.75397 0.4946 0.0
loop_
_geom_bond_atom_site_label_1
_geom_bond_atom_site_label_2
_geom_bond_distance
_geom_bond_site_symmetry_2
_ccdc_geom_bond_type
Sc0 O3 2.025 . S
Sc0 O10 2.105 . S
Sc0 O13 2.105 . S
Sc0 O16 2.105 . S
Sc0 O19 2.105 . S
Sc1 O3 2.025 . S
Sc1 O11 2.105 . S
Sc1 O15 2.105 . S
Sc1 O17 2.105 . S
Sc1 O21 2.105 . S
Sc2 O3 2.025 . S
Sc2 O12 2.105 . S
Sc2 O14 2.105 . S
Sc2 O18 2.105 . S
Sc2 O20 2.105 . S
O3 Sc0 2.025 . S
O3 Sc1 2.025 . S
O3 Sc2 2.025 . S
C4 O10 1.268 . S
C4 O20 1.268 . S
C5 O11 1.268 . S
C5 O19 1.268 . S
C6 O12 1.268 . S
C6 O21 1.268 . S
C7 O13 1.268 . S
C7 O17 1.268 . S
C8 O14 1.268 . S
C8 O16 1.268 . S
C9 O15 1.268 . S
C9 O18 1.268 . S
O10 Sc0 2.105 . S
O10 C4 1.268 . S
O11 Sc1 2.105 . S
O11 C5 1.268 . S
O12 Sc2 2.105 . S
O12 C6 1.268 . S
O13 Sc0 2.105 . S
O13 C7 1.268 . S
O14 Sc2 2.105 . S
O14 C8 1.268 . S
O15 Sc1 2.105 . S
O15 C9 1.268 . S
O16 Sc0 2.105 . S
O16 C8 1.268 . S
O17 Sc1 2.105 . S
O17 C7 1.268 . S
O18 Sc2 2.105 . S
O18 C9 1.268 . S
O19 Sc0 2.105 . S
O19 C5 1.268 . S
O20 Sc2 2.105 . S
O20 C4 1.268 . S
O21 Sc1 2.105 . S
O21 C6 1.268 . S
Sc22 O25 2.025 . S
Sc22 O32 2.105 . S
Sc22 O35 2.105 . S
Sc22 O38 2.105 . S
Sc22 O41 2.105 . S
Sc23 O25 2.025 . S
Sc23 O33 2.105 . S
Sc23 O37 2.105 . S
Sc23 O39 2.105 . S
Sc23 O43 2.105 . S
Sc24 O25 2.025 . S
Sc24 O34 2.105 . S
Sc24 O36 2.105 . S
Sc24 O40 2.105 . S
Sc24 O42 2.105 . S
O25 Sc22 2.025 . S
O25 Sc23 2.025 . S
O25 Sc24 2.025 . S
C26 O32 1.268 . S
C26 O42 1.268 . S
C27 O33 1.268 . S
C27 O41 1.268 . S
C28 O34 1.268 . S
C28 O43 1.268 . S
C29 O35 1.268 . S
C29 O39 1.268 . S
C30 O36 1.268 . S
C30 O38 1.268 . S
C31 O37 1.268 . S
C31 O40 1.268 . S
O32 Sc22 2.105 . S
O32 C26 1.268 . S
O33 Sc23 2.105 . S
O33 C27 1.268 . S
O34 Sc24 2.105 . S
O34 C28 1.268 . S
O35 Sc22 2.105 . S
O35 C29 1.268 . S
O36 Sc24 2.105 . S
O36 C30 1.268 . S
O37 Sc23 2.105 . S
O37 C31 1.268 . S
O38 Sc22 2.105 . S
O38 C30 1.268 . S
O39 Sc23 2.105 . S
O39 C29 1.268 . S
O40 Sc24 2.105 . S
O40 C31 1.268 . S
O41 Sc22 2.105 . S
O41 C27 1.268 . S
O42 Sc24 2.105 . S
O42 C26 1.268 . S
O43 Sc23 2.105 . S
O43 C28 1.268 . S
Sc44 O47 2.025 . S
Sc44 O54 2.105 . S
Sc44 O57 2.105 . S
Sc44 O60 2.105 . S
Sc44 O63 2.105 . S
Sc45 O47 2.025 . S
Sc45 O55 2.105 . S
Sc45 O59 2.105 . S
Sc45 O61 2.105 . S
Sc45 O65 2.105 . S
Sc46 O47 2.025 . S
Sc46 O56 2.105 . S
Sc46 O58 2.105 . S
Sc46 O62 2.105 . S
Sc46 O64 2.105 . S
O47 Sc44 2.025 . S
O47 Sc45 2.025 . S
O47 Sc46 2.025 . S
C48 O54 1.268 . S
C48 O64 1.268 . S
C49 O55 1.268 . S
C49 O63 1.268 . S
C50 O56 1.268 . S
C50 O65 1.268 . S
C51 O57 1.268 . S
C51 O61 1.268 . S
C52 O58 1.268 . S
C52 O60 1.268 . S
C53 O59 1.268 . S
C53 O62 1.268 . S
O54 Sc44 2.105 . S
O54 C48 1.268 . S
O55 Sc45 2.105 . S
O55 C49 1.268 . S
O56 Sc46 2.105 . S
O56 C50 1.268 . S
O57 Sc44 2.105 . S
O57 C51 1.268 . S
O58 Sc46 2.105 . S
O58 C52 1.268 . S
O59 Sc45 2.105 . S
O59 C53 1.268 . S
O60 Sc44 2.105 . S
O60 C52 1.268 . S
O61 Sc45 2.105 . S
O61 C51 1.268 . S
O62 Sc46 2.105 . S
O62 C53 1.268 . S
O63 Sc44 2.105 . S
O63 C49 1.268 . S
O64 Sc46 2.105 . S
O64 C48 1.268 . S
O65 Sc45 2.105 . S
O65 C50 1.268 . S
Sc66 O69 2.025 . S
Sc66 O76 2.105 . S
Sc66 O79 2.105 . S
Sc66 O82 2.105 . S
Sc66 O85 2.105 . S
Sc67 O69 2.025 . S
Sc67 O77 2.105 . S
Sc67 O81 2.105 . S
Sc67 O83 2.105 . S
Sc67 O87 2.105 . S
Sc68 O69 2.025 . S
Sc68 O78 2.105 . S
Sc68 O80 2.105 . S
Sc68 O84 2.105 . S
Sc68 O86 2.105 . S
O69 Sc66 2.025 . S
O69 Sc67 2.025 . S
O69 Sc68 2.025 . S
C70 O76 1.268 . S
C70 O86 1.268 . S
C71 O77 1.268 . S
C71 O85 1.268 . S
C72 O78 1.268 . S
C72 O87 1.268 . S
C73 O79 1.268 . S
C73 O83 1.268 . S
C74 O80 1.268 . S
C74 O82 1.268 . S
C75 O81 1.268 . S
C75 O84 1.268 . S
O76 Sc66 2.105 . S
O76 C70 1.268 . S
O77 Sc67 2.105 . S
O77 C71 1.268 . S
O78 Sc68 2.105 . S
O78 C72 1.268 . S
O79 Sc66 2.105 . S
O79 C73 1.268 . S
O80 Sc68 2.105 . S
O80 C74 1.268 . S
O81 Sc67 2.105 . S
O81 C75 1.268 . S
O82 Sc66 2.105 . S
O82 C74 1.268 . S
O83 Sc67 2.105 . S
O83 C73 1.268 . S
O84 Sc68 2.105 . S
O84 C75 1.268 . S
O85 Sc66 2.105 . S
O85 C71 1.268 . S
O86 Sc68 2.105 . S
O86 C70 1.268 . S
O87 Sc67 2.105 . S
O87 C72 1.268 . S
Sc88 O91 2.025 . S
Sc88 O98 2.105 . S
Sc88 O101 2.105 . S
Sc88 O104 2.105 . S
Sc88 O107 2.105 . S
Sc89 O91 2.025 . S
Sc89 O99 2.105 . S
Sc89 O103 2.105 . S
Sc89 O105 2.105 . S
Sc89 O109 2.105 . S
Sc90 O91 2.025 . S
Sc90 O100 2.105 . S
Sc90 O102 2.105 . S
Sc90 O106 2.105 . S
Sc90 O108 2.105 . S
O91 Sc88 2.025 . S
O91 Sc89 2.025 . S
O91 Sc90 2.025 . S
C92 O98 1.268 . S
C92 O108 1.268 . S
C93 O99 1.268 . S
C93 O107 1.268 . S
C94 O100 1.268 . S
C94 O109 1.268 . S
C95 O101 1.268 . S
C95 O105 1.268 . S
C96 O102 1.268 . S
C96 O104 1.268 . S
C97 O103 1.268 . S
C97 O106 1.268 . S
O98 Sc88 2.105 . S
O98 C92 1.268 . S
O99 Sc89 2.105 . S
O99 C93 1.268 . S
O100 Sc90 2.105 . S
O100 C94 1.268 . S
O101 Sc88 2.105 . S
O101 C95 1.268 . S
O102 Sc90 2.105 . S
O102 C96 1.268 . S
O103 Sc89 2.105 . S
O103 C97 1.268 . S
O104 Sc88 2.105 . S
O104 C96 1.268 . S
O105 Sc89 2.105 . S
O105 C95 1.268 . S
O106 Sc90 2.105 . S
O106 C97 1.268 . S
O107 Sc88 2.105 . S
O107 C93 1.268 . S
O108 Sc90 2.105 . S
O108 C92 1.268 . S
O109 Sc89 2.105 . S
O109 C94 1.268 . S
Sc110 O113 2.025 . S
Sc110 O120 2.105 . S
Sc110 O123 2.105 . S
Sc110 O126 2.105 . S
Sc110 O129 2.105 . S
Sc111 O113 2.025 . S
Sc111 O121 2.105 . S
Sc111 O125 2.105 . S
Sc111 O127 2.105 . S
Sc111 O131 2.105 . S
Sc112 O113 2.025 . S
Sc112 O122 2.105 . S
Sc112 O124 2.105 . S
Sc112 O128 2.105 . S
Sc112 O130 2.105 . S
O113 Sc110 2.025 . S
O113 Sc111 2.025 . S
O113 Sc112 2.025 . S
C114 O120 1.268 . S
C114 O130 1.268 . S
C115 O121 1.268 . S
C115 O129 1.268 . S
C116 O122 1.268 . S
C116 O131 1.268 . S
C117 O123 1.268 . S
C117 O127 1.268 . S
C118 O124 1.268 . S
C118 O126 1.268 . S
C119 O125 1.268 . S
C119 O128 1.268 . S
O120 Sc110 2.105 . S
O120 C114 1.268 . S
O121 Sc111 2.105 . S
O121 C115 1.268 . S
O122 Sc112 2.105 . S
O122 C116 1.268 . S
O123 Sc110 2.105 . S
O123 C117 1.268 . S
O124 Sc112 2.105 . S
O124 C118 1.268 . S
O125 Sc111 2.105 . S
O125 C119 1.268 . S
O126 Sc110 2.105 . S
O126 C118 1.268 . S
O127 Sc111 2.105 . S
O127 C117 1.268 . S
O128 Sc112 2.105 . S
O128 C119 1.268 . S
O129 Sc110 2.105 . S
O129 C115 1.268 . S
O130 Sc112 2.105 . S
O130 C114 1.268 . S
O131 Sc111 2.105 . S
O131 C116 1.268 . S
Sc132 O135 2.025 . S
Sc132 O142 2.105 . S
Sc132 O145 2.105 . S
Sc132 O148 2.105 . S
Sc132 O151 2.105 . S
Sc133 O135 2.025 . S
Sc133 O143 2.105 . S
Sc133 O147 2.105 . S
Sc133 O149 2.105 . S
Sc133 O153 2.105 . S
Sc134 O135 2.025 . S
Sc134 O144 2.105 . S
Sc134 O146 2.105 . S
Sc134 O150 2.105 . S
Sc134 O152 2.105 . S
O135 Sc132 2.025 . S
O135 Sc133 2.025 . S
O135 Sc134 2.025 . S
C136 O142 1.268 . S
C136 O152 1.268 . S
C137 O143 1.268 . S
C137 O151 1.268 . S
C138 O144 1.268 . S
C138 O153 1.268 . S
C139 O145 1.268 . S
C139 O149 1.268 . S
C140 O146 1.268 . S
C140 O148 1.268 . S
C141 O147 1.268 . S
C141 O150 1.268 . S
O142 Sc132 2.105 . S
O142 C136 1.268 . S
O143 Sc133 2.105 . S
O143 C137 1.268 . S
O144 Sc134 2.105 . S
O144 C138 1.268 . S
O145 Sc132 2.105 . S
O145 C139 1.268 . S
O146 Sc134 2.105 . S
O146 C140 1.268 . S
O147 Sc133 2.105 . S
O147 C141 1.268 . S
O148 Sc132 2.105 . S
O148 C140 1.268 . S
O149 Sc133 2.105 . S
O149 C139 1.268 . S
O150 Sc134 2.105 . S
O150 C141 1.268 . S
O151 Sc132 2.105 . S
O151 C137 1.268 . S
O152 Sc134 2.105 . S
O152 C136 1.268 . S
O153 Sc133 2.105 . S
O153 C138 1.268 . S
Sc154 O157 2.025 . S
Sc154 O164 2.105 . S
Sc154 O167 2.105 . S
Sc154 O170 2.105 . S
Sc154 O173 2.105 . S
Sc155 O157 2.025 . S
Sc155 O165 2.105 . S
Sc155 O169 2.105 . S
Sc155 O171 2.105 . S
Sc155 O175 2.105 . S
Sc156 O157 2.025 . S
Sc156 O166 2.105 . S
Sc156 O168 2.105 . S
Sc156 O172 2.105 . S
Sc156 O174 2.105 . S
O157 Sc154 2.025 . S
O157 Sc155 2.025 . S
O157 Sc156 2.025 . S
C158 O164 1.268 . S
C158 O174 1.268 . S
C159 O165 1.268 . S
C159 O173 1.268 . S
C160 O166 1.268 . S
C160 O175 1.268 . S
C161 O167 1.268 . S
C161 O171 1.268 . S
C162 O168 1.268 . S
C162 O170 1.268 . S
C163 O169 1.268 . S
C163 O172 1.268 . S
O164 Sc154 2.105 . S
O164 C158 1.268 . S
O165 Sc155 2.105 . S
O165 C159 1.268 . S
O166 Sc156 2.105 . S
O166 C160 1.268 . S
O167 Sc154 2.105 . S
O167 C161 1.268 . S
O168 Sc156 2.105 . S
O168 C162 1.268 . S
O169 Sc155 2.105 . S
O169 C163 1.268 . S
O170 Sc154 2.105 . S
O170 C162 1.268 . S
O171 Sc155 2.105 . S
O171 C161 1.268 . S
O172 Sc156 2.105 . S
O172 C163 1.268 . S
O173 Sc154 2.105 . S
O173 C159 1.268 . S
O174 Sc156 2.105 . S
O174 C158 1.268 . S
O175 Sc155 2.105 . S
O175 C160 1.268 . S
Sc176 O179 2.025 . S
Sc176 O186 2.105 . S
Sc176 O189 2.105 . S
Sc176 O192 2.105 . S
Sc176 O195 2.105 . S
Sc177 O179 2.025 . S
Sc177 O187 2.105 . S
Sc177 O191 2.105 . S
Sc177 O193 2.105 . S
Sc177 O197 2.105 . S
Sc178 O179 2.025 . S
Sc178 O188 2.105 . S
Sc178 O190 2.105 . S
Sc178 O194 2.105 . S
Sc178 O196 2.105 . S
O179 Sc176 2.025 . S
O179 Sc177 2.025 . S
O179 Sc178 2.025 . S
C180 O186 1.268 . S
C180 O196 1.268 . S
C181 O187 1.268 . S
C181 O195 1.268 . S
C182 O188 1.268 . S
C182 O197 1.268 . S
C183 O189 1.268 . S
C183 O193 1.268 . S
C184 O190 1.268 . S
C184 O192 1.268 . S
C185 O191 1.268 . S
C185 O194 1.268 . S
O186 Sc176 2.105 . S
O186 C180 1.268 . S
O187 Sc177 2.105 . S
O187 C181 1.268 . S
O188 Sc178 2.105 . S
O188 C182 1.268 . S
O189 Sc176 2.105 . S
O189 C183 1.268 . S
O190 Sc178 2.105 . S
O190 C184 1.268 . S
O191 Sc177 2.105 . S
O191 C185 1.268 . S
O192 Sc176 2.105 . S
O192 C184 1.268 . S
O193 Sc177 2.105 . S
O193 C183 1.268 . S
O194 Sc178 2.105 . S
O194 C185 1.268 . S
O195 Sc176 2.105 . S
O195 C181 1.268 . S
O196 Sc178 2.105 . S
O196 C180 1.268 . S
O197 Sc177 2.105 . S
O197 C182 1.268 . S
Sc198 O201 2.025 . S
Sc198 O208 2.105 . S
Sc198 O211 2.105 . S
Sc198 O214 2.105 . S
Sc198 O217 2.105 . S
Sc199 O201 2.025 . S
Sc199 O209 2.105 . S
Sc199 O213 2.105 . S
Sc199 O215 2.105 . S
Sc199 O219 2.105 . S
Sc200 O201 2.025 . S
Sc200 O210 2.105 . S
Sc200 O212 2.105 . S
Sc200 O216 2.105 . S
Sc200 O218 2.105 . S
O201 Sc198 2.025 . S
O201 Sc199 2.025 . S
O201 Sc200 2.025 . S
C202 O208 1.268 . S
C202 O218 1.268 . S
C203 O209 1.268 . S
C203 O217 1.268 . S
C204 O210 1.268 . S
C204 O219 1.268 . S
C205 O211 1.268 . S
C205 O215 1.268 . S
C206 O212 1.268 . S
C206 O214 1.268 . S
C207 O213 1.268 . S
C207 O216 1.268 . S
O208 Sc198 2.105 . S
O208 C202 1.268 . S
O209 Sc199 2.105 . S
O209 C203 1.268 . S
O210 Sc200 2.105 . S
O210 C204 1.268 . S
O211 Sc198 2.105 . S
O211 C205 1.268 . S
O212 Sc200 2.105 . S
O212 C206 1.268 . S
O213 Sc199 2.105 . S
O213 C207 1.268 . S
O214 Sc198 2.105 . S
O214 C206 1.268 . S
O215 Sc199 2.105 . S
O215 C205 1.268 . S
O216 Sc200 2.105 . S
O216 C207 1.268 . S
O217 Sc198 2.105 . S
O217 C203 1.268 . S
O218 Sc200 2.105 . S
O218 C202 1.268 . S
O219 Sc199 2.105 . S
O219 C204 1.268 . S
Sc220 O223 2.025 . S
Sc220 O230 2.105 . S
Sc220 O233 2.105 . S
Sc220 O236 2.105 . S
Sc220 O239 2.105 . S
Sc221 O223 2.025 . S
Sc221 O231 2.105 . S
Sc221 O235 2.105 . S
Sc221 O237 2.105 . S
Sc221 O241 2.105 . S
Sc222 O223 2.025 . S
Sc222 O232 2.105 . S
Sc222 O234 2.105 . S
Sc222 O238 2.105 . S
Sc222 O240 2.105 . S
O223 Sc220 2.025 . S
O223 Sc221 2.025 . S
O223 Sc222 2.025 . S
C224 O230 1.268 . S
C224 O240 1.268 . S
C225 O231 1.268 . S
C225 O239 1.268 . S
C226 O232 1.268 . S
C226 O241 1.268 . S
C227 O233 1.268 . S
C227 O237 1.268 . S
C228 O234 1.268 . S
C228 O236 1.268 . S
C229 O235 1.268 . S
C229 O238 1.268 . S
O230 Sc220 2.105 . S
O230 C224 1.268 . S
O231 Sc221 2.105 . S
O231 C225 1.268 . S
O232 Sc222 2.105 . S
O232 C226 1.268 . S
O233 Sc220 2.105 . S
O233 C227 1.268 . S
O234 Sc222 2.105 . S
O234 C228 1.268 . S
O235 Sc221 2.105 . S
O235 C229 1.268 . S
O236 Sc220 2.105 . S
O236 C228 1.268 . S
O237 Sc221 2.105 . S
O237 C227 1.268 . S
O238 Sc222 2.105 . S
O238 C229 1.268 . S
O239 Sc220 2.105 . S
O239 C225 1.268 . S
O240 Sc222 2.105 . S
O240 C224 1.268 . S
O241 Sc221 2.105 . S
O241 C226 1.268 . S
Sc242 O245 2.025 . S
Sc242 O252 2.105 . S
Sc242 O255 2.105 . S
Sc242 O258 2.105 . S
Sc242 O261 2.105 . S
Sc243 O245 2.025 . S
Sc243 O253 2.105 . S
Sc243 O257 2.105 . S
Sc243 O259 2.105 . S
Sc243 O263 2.105 . S
Sc244 O245 2.025 . S
Sc244 O254 2.105 . S
Sc244 O256 2.105 . S
Sc244 O260 2.105 . S
Sc244 O262 2.105 . S
O245 Sc242 2.025 . S
O245 Sc243 2.025 . S
O245 Sc244 2.025 . S
C246 O252 1.268 . S
C246 O262 1.268 . S
C247 O253 1.268 . S
C247 O261 1.268 . S
C248 O254 1.268 . S
C248 O263 1.268 . S
C249 O255 1.268 . S
C249 O259 1.268 . S
C250 O256 1.268 . S
C250 O258 1.268 . S
C251 O257 1.268 . S
C251 O260 1.268 . S
O252 Sc242 2.105 . S
O252 C246 1.268 . S
O253 Sc243 2.105 . S
O253 C247 1.268 . S
O254 Sc244 2.105 . S
O254 C248 1.268 . S
O255 Sc242 2.105 . S
O255 C249 1.268 . S
O256 Sc244 2.105 . S
O256 C250 1.268 . S
O257 Sc243 2.105 . S
O257 C251 1.268 . S
O258 Sc242 2.105 . S
O258 C250 1.268 . S
O259 Sc243 2.105 . S
O259 C249 1.268 . S
O260 Sc244 2.105 . S
O260 C251 1.268 . S
O261 Sc242 2.105 . S
O261 C247 1.268 . S
O262 Sc244 2.105 . S
O262 C246 1.268 . S
O263 Sc243 2.105 . S
O263 C248 1.268 . S
Sc264 O267 2.025 . S
Sc264 O274 2.105 . S
Sc264 O277 2.105 . S
Sc264 O280 2.105 . S
Sc264 O283 2.105 . S
Sc265 O267 2.025 . S
Sc265 O275 2.105 . S
Sc265 O279 2.105 . S
Sc265 O281 2.105 . S
Sc265 O285 2.105 . S
Sc266 O267 2.025 . S
Sc266 O276 2.105 . S
Sc266 O278 2.105 . S
Sc266 O282 2.105 . S
Sc266 O284 2.105 . S
O267 Sc264 2.025 . S
O267 Sc265 2.025 . S
O267 Sc266 2.025 . S
C268 O274 1.268 . S
C268 O284 1.268 . S
C269 O275 1.268 . S
C269 O283 1.268 . S
C270 O276 1.268 . S
C270 O285 1.268 . S
C271 O277 1.268 . S
C271 O281 1.268 . S
C272 O278 1.268 . S
C272 O280 1.268 . S
C273 O279 1.268 . S
C273 O282 1.268 . S
O274 Sc264 2.105 . S
O274 C268 1.268 . S
O275 Sc265 2.105 . S
O275 C269 1.268 . S
O276 Sc266 2.105 . S
O276 C270 1.268 . S
O277 Sc264 2.105 . S
O277 C271 1.268 . S
O278 Sc266 2.105 . S
O278 C272 1.268 . S
O279 Sc265 2.105 . S
O279 C273 1.268 . S
O280 Sc264 2.105 . S
O280 C272 1.268 . S
O281 Sc265 2.105 . S
O281 C271 1.268 . S
O282 Sc266 2.105 . S
O282 C273 1.268 . S
O283 Sc264 2.105 . S
O283 C269 1.268 . S
O284 Sc266 2.105 . S
O284 C268 1.268 . S
O285 Sc265 2.105 . S
O285 C270 1.268 . S
Sc286 O289 2.025 . S
Sc286 O296 2.105 . S
Sc286 O299 2.105 . S
Sc286 O302 2.105 . S
Sc286 O305 2.105 . S
Sc287 O289 2.025 . S
Sc287 O297 2.105 . S
Sc287 O301 2.105 . S
Sc287 O303 2.105 . S
Sc287 O307 2.105 . S
Sc288 O289 2.025 . S
Sc288 O298 2.105 . S
Sc288 O300 2.105 . S
Sc288 O304 2.105 . S
Sc288 O306 2.105 . S
O289 Sc286 2.025 . S
O289 Sc287 2.025 . S
O289 Sc288 2.025 . S
C290 O296 1.268 . S
C290 O306 1.268 . S
C291 O297 1.268 . S
C291 O305 1.268 . S
C292 O298 1.268 . S
C292 O307 1.268 . S
C293 O299 1.268 . S
C293 O303 1.268 . S
C294 O300 1.268 . S
C294 O302 1.268 . S
C295 O301 1.268 . S
C295 O304 1.268 . S
O296 Sc286 2.105 . S
O296 C290 1.268 . S
O297 Sc287 2.105 . S
O297 C291 1.268 . S
O298 Sc288 2.105 . S
O298 C292 1.268 . S
O299 Sc286 2.105 . S
O299 C293 1.268 . S
O300 Sc288 2.105 . S
O300 C294 1.268 . S
O301 Sc287 2.105 . S
O301 C295 1.268 . S
O302 Sc286 2.105 . S
O302 C294 1.268 . S
O303 Sc287 2.105 . S
O303 C293 1.268 . S
O304 Sc288 2.105 . S
O304 C295 1.268 . S
O305 Sc286 2.105 . S
O305 C291 1.268 . S
O306 Sc288 2.105 . S
O306 C290 1.268 . S
O307 Sc287 2.105 . S
O307 C292 1.268 . S
Sc308 O311 2.025 . S
Sc308 O318 2.105 . S
Sc308 O321 2.105 . S
Sc308 O324 2.105 . S
Sc308 O327 2.105 . S
Sc309 O311 2.025 . S
Sc309 O319 2.105 . S
Sc309 O323 2.105 . S
Sc309 O325 2.105 . S
Sc309 O329 2.105 . S
Sc310 O311 2.025 . S
Sc310 O320 2.105 . S
Sc310 O322 2.105 . S
Sc310 O326 2.105 . S
Sc310 O328 2.105 . S
O311 Sc308 2.025 . S
O311 Sc309 2.025 . S
O311 Sc310 2.025 . S
C312 O318 1.268 . S
C312 O328 1.268 . S
C313 O319 1.268 . S
C313 O327 1.268 . S
C314 O320 1.268 . S
C314 O329 1.268 . S
C315 O321 1.268 . S
C315 O325 1.268 . S
C316 O322 1.268 . S
C316 O324 1.268 . S
C317 O323 1.268 . S
C317 O326 1.268 . S
O318 Sc308 2.105 . S
O318 C312 1.268 . S
O319 Sc309 2.105 . S
O319 C313 1.268 . S
O320 Sc310 2.105 . S
O320 C314 1.268 . S
O321 Sc308 2.105 . S
O321 C315 1.268 . S
O322 Sc310 2.105 . S
O322 C316 1.268 . S
O323 Sc309 2.105 . S
O323 C317 1.268 . S
O324 Sc308 2.105 . S
O324 C316 1.268 . S
O325 Sc309 2.105 . S
O325 C315 1.268 . S
O326 Sc310 2.105 . S
O326 C317 1.268 . S
O327 Sc308 2.105 . S
O327 C313 1.268 . S
O328 Sc310 2.105 . S
O328 C312 1.268 . S
O329 Sc309 2.105 . S
O329 C314 1.268 . S
Sc330 O333 2.025 . S
Sc330 O340 2.105 . S
Sc330 O343 2.105 . S
Sc330 O346 2.105 . S
Sc330 O349 2.105 . S
Sc331 O333 2.025 . S
Sc331 O341 2.105 . S
Sc331 O345 2.105 . S
Sc331 O347 2.105 . S
Sc331 O351 2.105 . S
Sc332 O333 2.025 . S
Sc332 O342 2.105 . S
Sc332 O344 2.105 . S
Sc332 O348 2.105 . S
Sc332 O350 2.105 . S
O333 Sc330 2.025 . S
O333 Sc331 2.025 . S
O333 Sc332 2.025 . S
C334 O340 1.268 . S
C334 O350 1.268 . S
C335 O341 1.268 . S
C335 O349 1.268 . S
C336 O342 1.268 . S
C336 O351 1.268 . S
C337 O343 1.268 . S
C337 O347 1.268 . S
C338 O344 1.268 . S
C338 O346 1.268 . S
C339 O345 1.268 . S
C339 O348 1.268 . S
O340 Sc330 2.105 . S
O340 C334 1.268 . S
O341 Sc331 2.105 . S
O341 C335 1.268 . S
O342 Sc332 2.105 . S
O342 C336 1.268 . S
O343 Sc330 2.105 . S
O343 C337 1.268 . S
O344 Sc332 2.105 . S
O344 C338 1.268 . S
O345 Sc331 2.105 . S
O345 C339 1.268 . S
O346 Sc330 2.105 . S
O346 C338 1.268 . S
O347 Sc331 2.105 . S
O347 C337 1.268 . S
O348 Sc332 2.105 . S
O348 C339 1.268 . S
O349 Sc330 2.105 . S
O349 C335 1.268 . S
O350 Sc332 2.105 . S
O350 C334 1.268 . S
O351 Sc331 2.105 . S
O351 C336 1.268 . S
Sc352 O355 2.025 . S
Sc352 O362 2.105 . S
Sc352 O365 2.105 . S
Sc352 O368 2.105 . S
Sc352 O371 2.105 . S
Sc353 O355 2.025 . S
Sc353 O363 2.105 . S
Sc353 O367 2.105 . S
Sc353 O369 2.105 . S
Sc353 O373 2.105 . S
Sc354 O355 2.025 . S
Sc354 O364 2.105 . S
Sc354 O366 2.105 . S
Sc354 O370 2.105 . S
Sc354 O372 2.105 . S
O355 Sc352 2.025 . S
O355 Sc353 2.025 . S
O355 Sc354 2.025 . S
C356 O362 1.268 . S
C356 O372 1.268 . S
C357 O363 1.268 . S
C357 O371 1.268 . S
C358 O364 1.268 . S
C358 O373 1.268 . S
C359 O365 1.268 . S
C359 O369 1.268 . S
C360 O366 1.268 . S
C360 O368 1.268 . S
C361 O367 1.268 . S
C361 O370 1.268 . S
O362 Sc352 2.105 . S
O362 C356 1.268 . S
O363 Sc353 2.105 . S
O363 C357 1.268 . S
O364 Sc354 2.105 . S
O364 C358 1.268 . S
O365 Sc352 2.105 . S
O365 C359 1.268 . S
O366 Sc354 2.105 . S
O366 C360 1.268 . S
O367 Sc353 2.105 . S
O367 C361 1.268 . S
O368 Sc352 2.105 . S
O368 C360 1.268 . S
O369 Sc353 2.105 . S
O369 C359 1.268 . S
O370 Sc354 2.105 . S
O370 C361 1.268 . S
O371 Sc352 2.105 . S
O371 C357 1.268 . S
O372 Sc354 2.105 . S
O372 C356 1.268 . S
O373 Sc353 2.105 . S
O373 C358 1.268 . S
Sc374 O377 2.025 . S
Sc374 O384 2.105 . S
Sc374 O387 2.105 . S
Sc374 O390 2.105 . S
Sc374 O393 2.105 . S
Sc375 O377 2.025 . S
Sc375 O385 2.105 . S
Sc375 O389 2.105 . S
Sc375 O391 2.105 . S
Sc375 O395 2.105 . S
Sc376 O377 2.025 . S
Sc376 O386 2.105 . S
Sc376 O388 2.105 . S
Sc376 O392 2.105 . S
Sc376 O394 2.105 . S
O377 Sc374 2.025 . S
O377 Sc375 2.025 . S
O377 Sc376 2.025 . S
C378 O384 1.268 . S
C378 O394 1.268 . S
C379 O385 1.268 . S
C379 O393 1.268 . S
C380 O386 1.268 . S
C380 O395 1.268 . S
C381 O387 1.268 . S
C381 O391 1.268 . S
C382 O388 1.268 . S
C382 O390 1.268 . S
C383 O389 1.268 . S
C383 O392 1.268 . S
O384 Sc374 2.105 . S
O384 C378 1.268 . S
O385 Sc375 2.105 . S
O385 C379 1.268 . S
O386 Sc376 2.105 . S
O386 C380 1.268 . S
O387 Sc374 2.105 . S
O387 C381 1.268 . S
O388 Sc376 2.105 . S
O388 C382 1.268 . S
O389 Sc375 2.105 . S
O389 C383 1.268 . S
O390 Sc374 2.105 . S
O390 C382 1.268 . S
O391 Sc375 2.105 . S
O391 C381 1.268 . S
O392 Sc376 2.105 . S
O392 C383 1.268 . S
O393 Sc374 2.105 . S
O393 C379 1.268 . S
O394 Sc376 2.105 . S
O394 C378 1.268 . S
O395 Sc375 2.105 . S
O395 C380 1.268 . S
Sc396 O399 2.025 . S
Sc396 O406 2.105 . S
Sc396 O409 2.105 . S
Sc396 O412 2.105 . S
Sc396 O415 2.105 . S
Sc397 O399 2.025 . S
Sc397 O407 2.105 . S
Sc397 O411 2.105 . S
Sc397 O413 2.105 . S
Sc397 O417 2.105 . S
Sc398 O399 2.025 . S
Sc398 O408 2.105 . S
Sc398 O410 2.105 . S
Sc398 O414 2.105 . S
Sc398 O416 2.105 . S
O399 Sc396 2.025 . S
O399 Sc397 2.025 . S
O399 Sc398 2.025 . S
C400 O406 1.268 . S
C400 O416 1.268 . S
C401 O407 1.268 . S
C401 O415 1.268 . S
C402 O408 1.268 . S
C402 O417 1.268 . S
C403 O409 1.268 . S
C403 O413 1.268 . S
C404 O410 1.268 . S
C404 O412 1.268 . S
C405 O411 1.268 . S
C405 O414 1.268 . S
O406 Sc396 2.105 . S
O406 C400 1.268 . S
O407 Sc397 2.105 . S
O407 C401 1.268 . S
O408 Sc398 2.105 . S
O408 C402 1.268 . S
O409 Sc396 2.105 . S
O409 C403 1.268 . S
O410 Sc398 2.105 . S
O410 C404 1.268 . S
O411 Sc397 2.105 . S
O411 C405 1.268 . S
O412 Sc396 2.105 . S
O412 C404 1.268 . S
O413 Sc397 2.105 . S
O413 C403 1.268 . S
O414 Sc398 2.105 . S
O414 C405 1.268 . S
O415 Sc396 2.105 . S
O415 C401 1.268 . S
O416 Sc398 2.105 . S
O416 C400 1.268 . S
O417 Sc397 2.105 . S
O417 C402 1.268 . S
Sc418 O421 2.025 . S
Sc418 O428 2.105 . S
Sc418 O431 2.105 . S
Sc418 O434 2.105 . S
Sc418 O437 2.105 . S
Sc419 O421 2.025 . S
Sc419 O429 2.105 . S
Sc419 O433 2.105 . S
Sc419 O435 2.105 . S
Sc419 O439 2.105 . S
Sc420 O421 2.025 . S
Sc420 O430 2.105 . S
Sc420 O432 2.105 . S
Sc420 O436 2.105 . S
Sc420 O438 2.105 . S
O421 Sc418 2.025 . S
O421 Sc419 2.025 . S
O421 Sc420 2.025 . S
C422 O428 1.268 . S
C422 O438 1.268 . S
C423 O429 1.268 . S
C423 O437 1.268 . S
C424 O430 1.268 . S
C424 O439 1.268 . S
C425 O431 1.268 . S
C425 O435 1.268 . S
C426 O432 1.268 . S
C426 O434 1.268 . S
C427 O433 1.268 . S
C427 O436 1.268 . S
O428 Sc418 2.105 . S
O428 C422 1.268 . S
O429 Sc419 2.105 . S
O429 C423 1.268 . S
O430 Sc420 2.105 . S
O430 C424 1.268 . S
O431 Sc418 2.105 . S
O431 C425 1.268 . S
O432 Sc420 2.105 . S
O432 C426 1.268 . S
O433 Sc419 2.105 . S
O433 C427 1.268 . S
O434 Sc418 2.105 . S
O434 C426 1.268 . S
O435 Sc419 2.105 . S
O435 C425 1.268 . S
O436 Sc420 2.105 . S
O436 C427 1.268 . S
O437 Sc418 2.105 . S
O437 C423 1.268 . S
O438 Sc420 2.105 . S
O438 C422 1.268 . S
O439 Sc419 2.105 . S
O439 C424 1.268 . S
Sc440 O443 2.025 . S
Sc440 O450 2.105 . S
Sc440 O453 2.105 . S
Sc440 O456 2.105 . S
Sc440 O459 2.105 . S
Sc441 O443 2.025 . S
Sc441 O451 2.105 . S
Sc441 O455 2.105 . S
Sc441 O457 2.105 . S
Sc441 O461 2.105 . S
Sc442 O443 2.025 . S
Sc442 O452 2.105 . S
Sc442 O454 2.105 . S
Sc442 O458 2.105 . S
Sc442 O460 2.105 . S
O443 Sc440 2.025 . S
O443 Sc441 2.025 . S
O443 Sc442 2.025 . S
C444 O450 1.268 . S
C444 O460 1.268 . S
C445 O451 1.268 . S
C445 O459 1.268 . S
C446 O452 1.268 . S
C446 O461 1.268 . S
C447 O453 1.268 . S
C447 O457 1.268 . S
C448 O454 1.268 . S
C448 O456 1.268 . S
C449 O455 1.268 . S
C449 O458 1.268 . S
O450 Sc440 2.105 . S
O450 C444 1.268 . S
O451 Sc441 2.105 . S
O451 C445 1.268 . S
O452 Sc442 2.105 . S
O452 C446 1.268 . S
O453 Sc440 2.105 . S
O453 C447 1.268 . S
O454 Sc442 2.105 . S
O454 C448 1.268 . S
O455 Sc441 2.105 . S
O455 C449 1.268 . S
O456 Sc440 2.105 . S
O456 C448 1.268 . S
O457 Sc441 2.105 . S
O457 C447 1.268 . S
O458 Sc442 2.105 . S
O458 C449 1.268 . S
O459 Sc440 2.105 . S
O459 C445 1.268 . S
O460 Sc442 2.105 . S
O460 C444 1.268 . S
O461 Sc441 2.105 . S
O461 C446 1.268 . S
Sc462 O465 2.025 . S
Sc462 O472 2.105 . S
Sc462 O475 2.105 . S
Sc462 O478 2.105 . S
Sc462 O481 2.105 . S
Sc463 O465 2.025 . S
Sc463 O473 2.105 . S
Sc463 O477 2.105 . S
Sc463 O479 2.105 . S
Sc463 O483 2.105 . S
Sc464 O465 2.025 . S
Sc464 O474 2.105 . S
Sc464 O476 2.105 . S
Sc464 O480 2.105 . S
Sc464 O482 2.105 . S
O465 Sc462 2.025 . S
O465 Sc463 2.025 . S
O465 Sc464 2.025 . S
C466 O472 1.268 . S
C466 O482 1.268 . S
C467 O473 1.268 . S
C467 O481 1.268 . S
C468 O474 1.268 . S
C468 O483 1.268 . S
C469 O475 1.268 . S
C469 O479 1.268 . S
C470 O476 1.268 . S
C470 O478 1.268 . S
C471 O477 1.268 . S
C471 O480 1.268 . S
O472 Sc462 2.105 . S
O472 C466 1.268 . S
O473 Sc463 2.105 . S
O473 C467 1.268 . S
O474 Sc464 2.105 . S
O474 C468 1.268 . S
O475 Sc462 2.105 . S
O475 C469 1.268 . S
O476 Sc464 2.105 . S
O476 C470 1.268 . S
O477 Sc463 2.105 . S
O477 C471 1.268 . S
O478 Sc462 2.105 . S
O478 C470 1.268 . S
O479 Sc463 2.105 . S
O479 C469 1.268 . S
O480 Sc464 2.105 . S
O480 C471 1.268 . S
O481 Sc462 2.105 . S
O481 C467 1.268 . S
O482 Sc464 2.105 . S
O482 C466 1.268 . S
O483 Sc463 2.105 . S
O483 C468 1.268 . S
Sc484 O487 2.025 . S
Sc484 O494 2.105 . S
Sc484 O497 2.105 . S
Sc484 O500 2.105 . S
Sc484 O503 2.105 . S
Sc485 O487 2.025 . S
Sc485 O495 2.105 . S
Sc485 O499 2.105 . S
Sc485 O501 2.105 . S
Sc485 O505 2.105 . S
Sc486 O487 2.025 . S
Sc486 O496 2.105 . S
Sc486 O498 2.105 . S
Sc486 O502 2.105 . S
Sc486 O504 2.105 . S
O487 Sc484 2.025 . S
O487 Sc485 2.025 . S
O487 Sc486 2.025 . S
C488 O494 1.268 . S
C488 O504 1.268 . S
C489 O495 1.268 . S
C489 O503 1.268 . S
C490 O496 1.268 . S
C490 O505 1.268 . S
C491 O497 1.268 . S
C491 O501 1.268 . S
C492 O498 1.268 . S
C492 O500 1.268 . S
C493 O499 1.268 . S
C493 O502 1.268 . S
O494 Sc484 2.105 . S
O494 C488 1.268 . S
O495 Sc485 2.105 . S
O495 C489 1.268 . S
O496 Sc486 2.105 . S
O496 C490 1.268 . S
O497 Sc484 2.105 . S
O497 C491 1.268 . S
O498 Sc486 2.105 . S
O498 C492 1.268 . S
O499 Sc485 2.105 . S
O499 C493 1.268 . S
O500 Sc484 2.105 . S
O500 C492 1.268 . S
O501 Sc485 2.105 . S
O501 C491 1.268 . S
O502 Sc486 2.105 . S
O502 C493 1.268 . S
O503 Sc484 2.105 . S
O503 C489 1.268 . S
O504 Sc486 2.105 . S
O504 C488 1.268 . S
O505 Sc485 2.105 . S
O505 C490 1.268 . S
Sc506 O509 2.025 . S
Sc506 O516 2.105 . S
Sc506 O519 2.105 . S
Sc506 O522 2.105 . S
Sc506 O525 2.105 . S
Sc507 O509 2.025 . S
Sc507 O517 2.105 . S
Sc507 O521 2.105 . S
Sc507 O523 2.105 . S
Sc507 O527 2.105 . S
Sc508 O509 2.025 . S
Sc508 O518 2.105 . S
Sc508 O520 2.105 . S
Sc508 O524 2.105 . S
Sc508 O526 2.105 . S
O509 Sc506 2.025 . S
O509 Sc507 2.025 . S
O509 Sc508 2.025 . S
C510 O516 1.268 . S
C510 O526 1.268 . S
C511 O517 1.268 . S
C511 O525 1.268 . S
C512 O518 1.268 . S
C512 O527 1.268 . S
C513 O519 1.268 . S
C513 O523 1.268 . S
C514 O520 1.268 . S
C514 O522 1.268 . S
C515 O521 1.268 . S
C515 O524 1.268 . S
O516 Sc506 2.105 . S
O516 C510 1.268 . S
O517 Sc507 2.105 . S
O517 C511 1.268 . S
O518 Sc508 2.105 . S
O518 C512 1.268 . S
O519 Sc506 2.105 . S
O519 C513 1.268 . S
O520 Sc508 2.105 . S
O520 C514 1.268 . S
O521 Sc507 2.105 . S
O521 C515 1.268 . S
O522 Sc506 2.105 . S
O522 C514 1.268 . S
O523 Sc507 2.105 . S
O523 C513 1.268 . S
O524 Sc508 2.105 . S
O524 C515 1.268 . S
O525 Sc506 2.105 . S
O525 C511 1.268 . S
O526 Sc508 2.105 . S
O526 C510 1.268 . S
O527 Sc507 2.105 . S
O527 C512 1.268 . S
C528 C529 1.369 . S
C528 C530 1.419 1_556 S
C528 H532 0.930 . S
C529 C528 1.369 . S
C529 C538 1.429 . S
C530 C528 1.419 1_554 S
C530 C531 1.363 . S
C530 H533 0.929 . S
C531 C530 1.363 . S
C531 C537 1.428 . S
H532 C528 0.930 . S
H533 C530 0.929 . S
S534 N535 1.613 . S
S534 N536 1.610 1_556 S
N535 S534 1.613 . S
N535 C538 1.350 . S
N536 S534 1.610 1_554 S
N536 C537 1.351 . S
C537 C531 1.428 . S
C537 N536 1.351 . S
C537 C538 1.434 1_554 S
C538 C529 1.429 . S
C538 N535 1.350 . S
C538 C537 1.434 1_556 S
C539 C540 1.369 . S
C539 C541 1.419 . S
C539 H543 0.930 . S
C540 C539 1.369 . S
C540 C549 1.429 . S
C541 C539 1.419 . S
C541 C542 1.363 . S
C541 H544 0.929 . S
C542 C541 1.363 . S
C542 C548 1.428 . S
H543 C539 0.930 . S
H544 C541 0.929 . S
S545 N546 1.613 . S
S545 N547 1.610 . S
N546 S545 1.613 . S
N546 C549 1.350 . S
N547 S545 1.610 . S
N547 C548 1.351 . S
C548 C542 1.428 . S
C548 N547 1.351 . S
C548 C549 1.434 . S
C549 C540 1.429 . S
C549 N546 1.350 . S
C549 C548 1.434 . S
C550 C551 1.352 1_554 S
C550 C552 1.434 . S
C550 H554 0.932 . S
C551 C550 1.352 1_556 S
C551 C560 1.429 . S
C552 C550 1.434 . S
C552 C553 1.363 . S
C552 H555 0.929 . S
C553 C552 1.363 . S
C553 C559 1.428 1_554 S
H554 C550 0.932 . S
H555 C552 0.929 . S
S556 N557 1.613 . S
S556 N558 1.610 . S
N557 S556 1.613 . S
N557 C560 1.350 . S
N558 S556 1.610 . S
N558 C559 1.351 . S
C559 C553 1.428 1_556 S
C559 N558 1.351 . S
C559 C560 1.434 . S
C560 C551 1.429 . S
C560 N557 1.350 . S
C560 C559 1.434 . S
C561 C562 1.369 . S
C561 C563 1.419 . S
C561 H565 0.930 . S
C562 C561 1.369 . S
C562 C571 1.429 . S
C563 C561 1.419 . S
C563 C564 1.363 . S
C563 H566 0.929 . S
C564 C563 1.363 . S
C564 C570 1.428 . S
H565 C561 0.930 . S
H566 C563 0.929 . S
S567 N568 1.613 . S
S567 N569 1.610 . S
N568 S567 1.613 . S
N568 C571 1.350 . S
N569 S567 1.610 . S
N569 C570 1.351 . S
C570 C564 1.428 . S
C570 N569 1.351 . S
C570 C571 1.434 . S
C571 C562 1.429 . S
C571 N568 1.350 . S
C571 C570 1.434 . S
C572 C573 1.369 . S
C572 C574 1.419 1_556 S
C572 H576 0.930 . S
C573 C572 1.369 . S
C573 C582 1.429 . S
C574 C572 1.419 1_554 S
C574 C575 1.363 . S
C574 H577 0.929 . S
C575 C574 1.363 . S
C575 C581 1.428 . S
H576 C572 0.930 . S
H577 C574 0.929 . S
S578 N579 1.613 1_554 S
S578 N580 1.610 . S
N579 S578 1.613 1_556 S
N579 C582 1.350 . S
N580 S578 1.610 . S
N580 C581 1.351 . S
C581 C575 1.428 . S
C581 N580 1.351 . S
C581 C582 1.434 1_554 S
C582 C573 1.429 . S
C582 N579 1.350 . S
C582 C581 1.434 1_556 S
C583 C584 1.369 . S
C583 C585 1.419 . S
C583 H587 0.930 . S
C584 C583 1.369 . S
C584 C593 1.429 . S
C585 C583 1.419 . S
C585 C586 1.363 . S
C585 H588 0.929 . S
C586 C585 1.363 . S
C586 C592 1.428 . S
H587 C583 0.930 . S
H588 C585 0.929 . S
S589 N590 1.613 . S
S589 N591 1.610 . S
N590 S589 1.613 . S
N590 C593 1.350 . S
N591 S589 1.610 . S
N591 C592 1.351 . S
C592 C586 1.428 . S
C592 N591 1.351 . S
C592 C593 1.434 . S
C593 C584 1.429 . S
C593 N590 1.350 . S
C593 C592 1.434 . S
C594 C595 1.389 . S
C594 C596 1.400 1_556 S
C594 H598 0.929 1_556 S
C595 C594 1.389 . S
C595 C604 1.429 . S
C596 C594 1.400 1_554 S
C596 C597 1.363 . S
C596 H599 0.929 . S
C597 C596 1.363 . S
C597 C603 1.413 1_554 S
H598 C594 0.929 1_554 S
H599 C596 0.929 . S
S600 N601 1.613 . S
S600 N602 1.610 . S
N601 S600 1.613 . S
N601 C604 1.350 . S
N602 S600 1.610 . S
N602 C603 1.354 . S
C603 C597 1.413 1_556 S
C603 N602 1.354 . S
C603 C604 1.449 . S
C604 C595 1.429 . S
C604 N601 1.350 . S
C604 C603 1.449 . S
C605 C606 1.369 . S
C605 C607 1.419 . S
C605 H609 0.930 . S
C606 C605 1.369 . S
C606 C615 1.429 . S
C607 C605 1.419 . S
C607 C608 1.363 . S
C607 H610 0.929 . S
C608 C607 1.363 . S
C608 C614 1.428 . S
H609 C605 0.930 . S
H610 C607 0.929 . S
S611 N612 1.613 . S
S611 N613 1.610 . S
N612 S611 1.613 . S
N612 C615 1.350 . S
N613 S611 1.610 . S
N613 C614 1.351 . S
C614 C608 1.428 . S
C614 N613 1.351 . S
C614 C615 1.434 . S
C615 C606 1.429 . S
C615 N612 1.350 . S
C615 C614 1.434 . S
C616 C617 1.369 . S
C616 C618 1.419 1_554 S
C616 H620 0.930 . S
C617 C616 1.369 . S
C617 C626 1.429 . S
C618 C616 1.419 1_556 S
C618 C619 1.363 . S
C618 H621 0.929 . S
C619 C618 1.363 . S
C619 C625 1.428 . S
H620 C616 0.930 . S
H621 C618 0.929 . S
S622 N623 1.613 . S
S622 N624 1.610 1_554 S
N623 S622 1.613 . S
N623 C626 1.350 . S
N624 S622 1.610 1_556 S
N624 C625 1.351 . S
C625 C619 1.428 . S
C625 N624 1.351 . S
C625 C626 1.434 1_556 S
C626 C617 1.429 . S
C626 N623 1.350 . S
C626 C625 1.434 1_554 S
C627 C628 1.369 . S
C627 C629 1.419 . S
C627 H631 0.930 . S
C628 C627 1.369 . S
C628 C637 1.429 . S
C629 C627 1.419 . S
C629 C630 1.363 . S
C629 H632 0.929 . S
C630 C629 1.363 . S
C630 C636 1.428 . S
H631 C627 0.930 . S
H632 C629 0.929 . S
S633 N634 1.613 . S
S633 N635 1.610 . S
N634 S633 1.613 . S
N634 C637 1.350 . S
N635 S633 1.610 . S
N635 C636 1.351 . S
C636 C630 1.428 . S
C636 N635 1.351 . S
C636 C637 1.434 . S
C637 C628 1.429 . S
C637 N634 1.350 . S
C637 C636 1.434 . S
C638 C639 1.369 . S
C638 C640 1.419 1_556 S
C638 H642 0.930 . S
C639 C638 1.369 . S
C639 C648 1.429 . S
C640 C638 1.419 1_554 S
C640 C641 1.363 . S
C640 H643 0.929 . S
C641 C640 1.363 . S
C641 C647 1.428 . S
H642 C638 0.930 . S
H643 C640 0.929 . S
S644 N645 1.613 . S
S644 N646 1.610 1_556 S
N645 S644 1.613 . S
N645 C648 1.350 . S
N646 S644 1.610 1_554 S
N646 C647 1.351 . S
C647 C641 1.428 . S
C647 N646 1.351 . S
C647 C648 1.434 1_554 S
C648 C639 1.429 . S
C648 N645 1.350 . S
C648 C647 1.434 1_556 S
C649 C650 1.369 . S
C649 C651 1.419 . S
C649 H653 0.930 . S
C650 C649 1.369 . S
C650 C659 1.429 . S
C651 C649 1.419 . S
C651 C652 1.363 . S
C651 H654 0.929 . S
C652 C651 1.363 . S
C652 C658 1.428 . S
H653 C649 0.930 . S
H654 C651 0.929 . S
S655 N656 1.613 . S
S655 N657 1.610 . S
N656 S655 1.613 . S
N656 C659 1.350 . S
N657 S655 1.610 . S
N657 C658 1.351 . S
C658 C652 1.428 . S
C658 N657 1.351 . S
C658 C659 1.434 . S
C659 C650 1.429 . S
C659 N656 1.350 . S
C659 C658 1.434 . S
C660 C661 1.369 . S
C660 C662 1.419 . S
C660 H664 0.930 . S
C661 C660 1.369 . S
C661 C670 1.429 . S
C662 C660 1.419 . S
C662 C663 1.363 . S
C662 H665 0.929 . S
C663 C662 1.363 . S
C663 C669 1.428 . S
H664 C660 0.930 . S
H665 C662 0.929 . S
S666 N667 1.613 . S
S666 N668 1.610 . S
N667 S666 1.613 . S
N667 C670 1.350 . S
N668 S666 1.610 . S
N668 C669 1.351 . S
C669 C663 1.428 . S
C669 N668 1.351 . S
C669 C670 1.434 . S
C670 C661 1.429 . S
C670 N667 1.350 . S
C670 C669 1.434 . S
C671 C672 1.369 . S
C671 C673 1.419 . S
C671 H675 0.930 . S
C672 C671 1.369 . S
C672 C681 1.429 . S
C673 C671 1.419 . S
C673 C674 1.363 . S
C673 H676 0.929 . S
C674 C673 1.363 . S
C674 C680 1.428 . S
H675 C671 0.930 . S
H676 C673 0.929 . S
S677 N678 1.613 . S
S677 N679 1.610 . S
N678 S677 1.613 . S
N678 C681 1.350 . S
N679 S677 1.610 . S
N679 C680 1.351 . S
C680 C674 1.428 . S
C680 N679 1.351 . S
C680 C681 1.434 . S
C681 C672 1.429 . S
C681 N678 1.350 . S
C681 C680 1.434 . S
C682 C683 1.369 . S
C682 C684 1.419 . S
C682 H686 0.930 . S
C683 C682 1.369 . S
C683 C692 1.429 . S
C684 C682 1.419 . S
C684 C685 1.363 . S
C684 H687 0.929 . S
C685 C684 1.363 . S
C685 C691 1.428 . S
H686 C682 0.930 . S
H687 C684 0.929 . S
S688 N689 1.613 . S
S688 N690 1.610 . S
N689 S688 1.613 . S
N689 C692 1.350 . S
N690 S688 1.610 . S
N690 C691 1.351 . S
C691 C685 1.428 . S
C691 N690 1.351 . S
C691 C692 1.434 . S
C692 C683 1.429 . S
C692 N689 1.350 . S
C692 C691 1.434 . S
C693 C694 1.369 . S
C693 C695 1.419 . S
C693 H697 0.930 . S
C694 C693 1.369 . S
C694 C703 1.429 . S
C695 C693 1.419 . S
C695 C696 1.363 . S
C695 H698 0.929 . S
C696 C695 1.363 . S
C696 C702 1.428 . S
H697 C693 0.930 . S
H698 C695 0.929 . S
S699 N700 1.613 . S
S699 N701 1.610 . S
N700 S699 1.613 . S
N700 C703 1.350 . S
N701 S699 1.610 . S
N701 C702 1.351 . S
C702 C696 1.428 . S
C702 N701 1.351 . S
C702 C703 1.434 . S
C703 C694 1.429 . S
C703 N700 1.350 . S
C703 C702 1.434 . S
C704 C705 1.369 . S
C704 C706 1.419 . S
C704 H708 0.930 . S
C705 C704 1.369 . S
C705 C714 1.429 . S
C706 C704 1.419 . S
C706 C707 1.363 . S
C706 H709 0.929 . S
C707 C706 1.363 . S
C707 C713 1.428 . S
H708 C704 0.930 . S
H709 C706 0.929 . S
S710 N711 1.613 . S
S710 N712 1.610 . S
N711 S710 1.613 . S
N711 C714 1.350 . S
N712 S710 1.610 . S
N712 C713 1.351 . S
C713 C707 1.428 . S
C713 N712 1.351 . S
C713 C714 1.434 . S
C714 C705 1.429 . S
C714 N711 1.350 . S
C714 C713 1.434 . S
C715 C716 1.369 . S
C715 C717 1.419 . S
C715 H719 0.930 . S
C716 C715 1.369 . S
C716 C725 1.429 . S
C717 C715 1.419 . S
C717 C718 1.363 . S
C717 H720 0.929 . S
C718 C717 1.363 . S
C718 C724 1.428 . S
H719 C715 0.930 . S
H720 C717 0.929 . S
S721 N722 1.613 . S
S721 N723 1.610 . S
N722 S721 1.613 . S
N722 C725 1.350 . S
N723 S721 1.610 . S
N723 C724 1.351 . S
C724 C718 1.428 . S
C724 N723 1.351 . S
C724 C725 1.434 . S
C725 C716 1.429 . S
C725 N722 1.350 . S
C725 C724 1.434 . S
C726 C727 1.369 . S
C726 C728 1.419 . S
C726 H730 0.930 . S
C727 C726 1.369 . S
C727 C736 1.429 . S
C728 C726 1.419 . S
C728 C729 1.363 . S
C728 H731 0.929 . S
C729 C728 1.363 . S
C729 C735 1.428 . S
H730 C726 0.930 . S
H731 C728 0.929 . S
S732 N733 1.613 . S
S732 N734 1.610 . S
N733 S732 1.613 . S
N733 C736 1.350 . S
N734 S732 1.610 . S
N734 C735 1.351 . S
C735 C729 1.428 . S
C735 N734 1.351 . S
C735 C736 1.434 . S
C736 C727 1.429 . S
C736 N733 1.350 . S
C736 C735 1.434 . S
C737 C738 1.369 . S
C737 C739 1.419 . S
C737 H741 0.930 . S
C738 C737 1.369 . S
C738 C747 1.429 . S
C739 C737 1.419 . S
C739 C740 1.363 . S
C739 H742 0.929 . S
C740 C739 1.363 . S
C740 C746 1.428 . S
H741 C737 0.930 . S
H742 C739 0.929 . S
S743 N744 1.613 . S
S743 N745 1.610 . S
N744 S743 1.613 . S
N744 C747 1.350 . S
N745 S743 1.610 . S
N745 C746 1.351 . S
C746 C740 1.428 . S
C746 N745 1.351 . S
C746 C747 1.434 . S
C747 C738 1.429 . S
C747 N744 1.350 . S
C747 C746 1.434 . S
C748 C749 1.369 . S
C748 C750 1.419 . S
C748 H752 0.930 . S
C749 C748 1.369 . S
C749 C758 1.429 . S
C750 C748 1.419 . S
C750 C751 1.363 . S
C750 H753 0.929 . S
C751 C750 1.363 . S
C751 C757 1.428 . S
H752 C748 0.930 . S
H753 C750 0.929 . S
S754 N755 1.613 . S
S754 N756 1.610 . S
N755 S754 1.613 . S
N755 C758 1.350 . S
N756 S754 1.610 . S
N756 C757 1.351 . S
C757 C751 1.428 . S
C757 N756 1.351 . S
C757 C758 1.434 . S
C758 C749 1.429 . S
C758 N755 1.350 . S
C758 C757 1.434 . S
C759 C760 1.369 . S
C759 C761 1.419 . S
C759 H763 0.930 . S
C760 C759 1.369 . S
C760 C769 1.429 . S
C761 C759 1.419 . S
C761 C762 1.363 . S
C761 H764 0.929 . S
C762 C761 1.363 . S
C762 C768 1.428 . S
H763 C759 0.930 . S
H764 C761 0.929 . S
S765 N766 1.613 . S
S765 N767 1.610 . S
N766 S765 1.613 . S
N766 C769 1.350 . S
N767 S765 1.610 . S
N767 C768 1.351 . S
C768 C762 1.428 . S
C768 N767 1.351 . S
C768 C769 1.434 . S
C769 C760 1.429 . S
C769 N766 1.350 . S
C769 C768 1.434 . S
C770 C771 1.369 . S
C770 C772 1.419 . S
C770 H774 0.930 . S
C771 C770 1.369 . S
C771 C780 1.429 . S
C772 C770 1.419 . S
C772 C773 1.363 . S
C772 H775 0.929 . S
C773 C772 1.363 . S
C773 C779 1.428 . S
H774 C770 0.930 . S
H775 C772 0.929 . S
S776 N777 1.613 . S
S776 N778 1.610 . S
N777 S776 1.613 . S
N777 C780 1.350 . S
N778 S776 1.610 . S
N778 C779 1.351 . S
C779 C773 1.428 . S
C779 N778 1.351 . S
C779 C780 1.434 . S
C780 C771 1.429 . S
C780 N777 1.350 . S
C780 C779 1.434 . S
C781 C782 1.369 . S
C781 C783 1.419 . S
C781 H785 0.930 . S
C782 C781 1.369 . S
C782 C791 1.429 . S
C783 C781 1.419 . S
C783 C784 1.363 . S
C783 H786 0.929 . S
C784 C783 1.363 . S
C784 C790 1.428 . S
H785 C781 0.930 . S
H786 C783 0.929 . S
S787 N788 1.613 . S
S787 N789 1.610 . S
N788 S787 1.613 . S
N788 C791 1.350 . S
N789 S787 1.610 . S
N789 C790 1.351 . S
C790 C784 1.428 . S
C790 N789 1.351 . S
C790 C791 1.434 . S
C791 C782 1.429 . S
C791 N788 1.350 . S
C791 C790 1.434 . S
C792 C793 1.369 . S
C792 C794 1.419 . S
C792 H796 0.930 . S
C793 C792 1.369 . S
C793 C802 1.429 . S
C794 C792 1.419 . S
C794 C795 1.363 . S
C794 H797 0.929 . S
C795 C794 1.363 . S
C795 C801 1.428 . S
H796 C792 0.930 . S
H797 C794 0.929 . S
S798 N799 1.613 . S
S798 N800 1.610 . S
N799 S798 1.613 . S
N799 C802 1.350 . S
N800 S798 1.610 . S
N800 C801 1.351 . S
C801 C795 1.428 . S
C801 N800 1.351 . S
C801 C802 1.434 . S
C802 C793 1.429 . S
C802 N799 1.350 . S
C802 C801 1.434 . S
C803 C804 1.369 . S
C803 C805 1.419 . S
C803 H807 0.930 . S
C804 C803 1.369 . S
C804 C813 1.429 . S
C805 C803 1.419 . S
C805 C806 1.363 . S
C805 H808 0.929 . S
C806 C805 1.363 . S
C806 C812 1.428 . S
H807 C803 0.930 . S
H808 C805 0.929 . S
S809 N810 1.613 . S
S809 N811 1.610 . S
N810 S809 1.613 . S
N810 C813 1.350 . S
N811 S809 1.610 . S
N811 C812 1.351 . S
C812 C806 1.428 . S
C812 N811 1.351 . S
C812 C813 1.434 . S
C813 C804 1.429 . S
C813 N810 1.350 . S
C813 C812 1.434 . S
C814 C815 1.369 . S
C814 C816 1.419 . S
C814 H818 0.930 . S
C815 C814 1.369 . S
C815 C824 1.429 . S
C816 C814 1.419 . S
C816 C817 1.363 . S
C816 H819 0.929 . S
C817 C816 1.363 . S
C817 C823 1.428 . S
H818 C814 0.930 . S
H819 C816 0.929 . S
S820 N821 1.613 . S
S820 N822 1.610 . S
N821 S820 1.613 . S
N821 C824 1.350 . S
N822 S820 1.610 . S
N822 C823 1.351 . S
C823 C817 1.428 . S
C823 N822 1.351 . S
C823 C824 1.434 . S
C824 C815 1.429 . S
C824 N821 1.350 . S
C824 C823 1.434 . S
C825 C826 1.369 . S
C825 C827 1.419 . S
C825 H829 0.930 . S
C826 C825 1.369 . S
C826 C835 1.429 . S
C827 C825 1.419 . S
C827 C828 1.363 . S
C827 H830 0.929 . S
C828 C827 1.363 . S
C828 C834 1.428 . S
H829 C825 0.930 . S
H830 C827 0.929 . S
S831 N832 1.613 . S
S831 N833 1.610 . S
N832 S831 1.613 . S
N832 C835 1.350 . S
N833 S831 1.610 . S
N833 C834 1.351 . S
C834 C828 1.428 . S
C834 N833 1.351 . S
C834 C835 1.434 . S
C835 C826 1.429 . S
C835 N832 1.350 . S
C835 C834 1.434 . S
C836 C837 1.369 . S
C836 C838 1.419 . S
C836 H840 0.930 . S
C837 C836 1.369 . S
C837 C846 1.429 . S
C838 C836 1.419 . S
C838 C839 1.363 . S
C838 H841 0.929 . S
C839 C838 1.363 . S
C839 C845 1.428 . S
H840 C836 0.930 . S
H841 C838 0.929 . S
S842 N843 1.613 . S
S842 N844 1.610 . S
N843 S842 1.613 . S
N843 C846 1.350 . S
N844 S842 1.610 . S
N844 C845 1.351 . S
C845 C839 1.428 . S
C845 N844 1.351 . S
C845 C846 1.434 . S
C846 C837 1.429 . S
C846 N843 1.350 . S
C846 C845 1.434 . S
C847 C848 1.369 . S
C847 C849 1.419 . S
C847 H851 0.930 . S
C848 C847 1.369 . S
C848 C857 1.429 . S
C849 C847 1.419 . S
C849 C850 1.363 . S
C849 H852 0.929 . S
C850 C849 1.363 . S
C850 C856 1.428 . S
H851 C847 0.930 . S
H852 C849 0.929 . S
S853 N854 1.613 . S
S853 N855 1.610 . S
N854 S853 1.613 . S
N854 C857 1.350 . S
N855 S853 1.610 . S
N855 C856 1.351 . S
C856 C850 1.428 . S
C856 N855 1.351 . S
C856 C857 1.434 . S
C857 C848 1.429 . S
C857 N854 1.350 . S
C857 C856 1.434 . S
C858 C859 1.369 . S
C858 C860 1.419 . S
C858 H862 0.930 . S
C859 C858 1.369 . S
C859 C868 1.429 . S
C860 C858 1.419 . S
C860 C861 1.363 . S
C860 H863 0.929 . S
C861 C860 1.363 . S
C861 C867 1.428 . S
H862 C858 0.930 . S
H863 C860 0.929 . S
S864 N865 1.613 . S
S864 N866 1.610 . S
N865 S864 1.613 . S
N865 C868 1.350 . S
N866 S864 1.610 . S
N866 C867 1.351 . S
C867 C861 1.428 . S
C867 N866 1.351 . S
C867 C868 1.434 . S
C868 C859 1.429 . S
C868 N865 1.350 . S
C868 C867 1.434 . S
C869 C870 1.369 . S
C869 C871 1.419 . S
C869 H873 0.930 . S
C870 C869 1.369 . S
C870 C879 1.429 . S
C871 C869 1.419 . S
C871 C872 1.363 . S
C871 H874 0.929 . S
C872 C871 1.363 . S
C872 C878 1.428 . S
H873 C869 0.930 . S
H874 C871 0.929 . S
S875 N876 1.613 . S
S875 N877 1.610 . S
N876 S875 1.613 . S
N876 C879 1.350 . S
N877 S875 1.610 . S
N877 C878 1.351 . S
C878 C872 1.428 . S
C878 N877 1.351 . S
C878 C879 1.434 . S
C879 C870 1.429 . S
C879 N876 1.350 . S
C879 C878 1.434 . S
C880 C881 1.369 . S
C880 C882 1.419 . S
C880 H884 0.930 . S
C881 C880 1.369 . S
C881 C890 1.429 . S
C882 C880 1.419 . S
C882 C883 1.363 . S
C882 H885 0.929 . S
C883 C882 1.363 . S
C883 C889 1.428 . S
H884 C880 0.930 . S
H885 C882 0.929 . S
S886 N887 1.613 . S
S886 N888 1.610 . S
N887 S886 1.613 . S
N887 C890 1.350 . S
N888 S886 1.610 . S
N888 C889 1.351 . S
C889 C883 1.428 . S
C889 N888 1.351 . S
C889 C890 1.434 . S
C890 C881 1.429 . S
C890 N887 1.350 . S
C890 C889 1.434 . S
C891 C892 1.369 . S
C891 C893 1.419 . S
C891 H895 0.930 . S
C892 C891 1.369 . S
C892 C901 1.429 . S
C893 C891 1.419 . S
C893 C894 1.363 . S
C893 H896 0.929 . S
C894 C893 1.363 . S
C894 C900 1.428 . S
H895 C891 0.930 . S
H896 C893 0.929 . S
S897 N898 1.613 . S
S897 N899 1.610 . S
N898 S897 1.613 . S
N898 C901 1.350 . S
N899 S897 1.610 . S
N899 C900 1.351 . S
C900 C894 1.428 . S
C900 N899 1.351 . S
C900 C901 1.434 . S
C901 C892 1.429 . S
C901 N898 1.350 . S
C901 C900 1.434 . S
C902 C903 1.369 . S
C902 C904 1.419 . S
C902 H906 0.930 . S
C903 C902 1.369 . S
C903 C912 1.429 . S
C904 C902 1.419 . S
C904 C905 1.363 . S
C904 H907 0.929 . S
C905 C904 1.363 . S
C905 C911 1.428 . S
H906 C902 0.930 . S
H907 C904 0.929 . S
S908 N909 1.613 . S
S908 N910 1.610 . S
N909 S908 1.613 . S
N909 C912 1.350 . S
N910 S908 1.610 . S
N910 C911 1.351 . S
C911 C905 1.428 . S
C911 N910 1.351 . S
C911 C912 1.434 . S
C912 C903 1.429 . S
C912 N909 1.350 . S
C912 C911 1.434 . S
C913 C914 1.369 . S
C913 C915 1.419 . S
C913 H917 0.930 . S
C914 C913 1.369 . S
C914 C923 1.429 . S
C915 C913 1.419 . S
C915 C916 1.363 . S
C915 H918 0.929 . S
C916 C915 1.363 . S
C916 C922 1.428 . S
H917 C913 0.930 . S
H918 C915 0.929 . S
S919 N920 1.613 . S
S919 N921 1.610 . S
N920 S919 1.613 . S
N920 C923 1.350 . S
N921 S919 1.610 . S
N921 C922 1.351 . S
C922 C916 1.428 . S
C922 N921 1.351 . S
C922 C923 1.434 . S
C923 C914 1.429 . S
C923 N920 1.350 . S
C923 C922 1.434 . S
C924 C925 1.369 . S
C924 C926 1.419 . S
C924 H928 0.930 . S
C925 C924 1.369 . S
C925 C934 1.429 . S
C926 C924 1.419 . S
C926 C927 1.363 . S
C926 H929 0.929 . S
C927 C926 1.363 . S
C927 C933 1.428 . S
H928 C924 0.930 . S
H929 C926 0.929 . S
S930 N931 1.613 . S
S930 N932 1.610 . S
N931 S930 1.613 . S
N931 C934 1.350 . S
N932 S930 1.610 . S
N932 C933 1.351 . S
C933 C927 1.428 . S
C933 N932 1.351 . S
C933 C934 1.434 . S
C934 C925 1.429 . S
C934 N931 1.350 . S
C934 C933 1.434 . S
C935 C936 1.369 . S
C935 C937 1.419 . S
C935 H939 0.930 . S
C936 C935 1.369 . S
C936 C945 1.429 . S
C937 C935 1.419 . S
C937 C938 1.363 . S
C937 H940 0.929 . S
C938 C937 1.363 . S
C938 C944 1.428 . S
H939 C935 0.930 . S
H940 C937 0.929 . S
S941 N942 1.613 . S
S941 N943 1.610 . S
N942 S941 1.613 . S
N942 C945 1.350 . S
N943 S941 1.610 . S
N943 C944 1.351 . S
C944 C938 1.428 . S
C944 N943 1.351 . S
C944 C945 1.434 . S
C945 C936 1.429 . S
C945 N942 1.350 . S
C945 C944 1.434 . S
C946 C947 1.369 . S
C946 C948 1.419 . S
C946 H950 0.930 . S
C947 C946 1.369 . S
C947 C956 1.429 . S
C948 C946 1.419 . S
C948 C949 1.363 . S
C948 H951 0.929 . S
C949 C948 1.363 . S
C949 C955 1.428 . S
H950 C946 0.930 . S
H951 C948 0.929 . S
S952 N953 1.613 . S
S952 N954 1.610 . S
N953 S952 1.613 . S
N953 C956 1.350 . S
N954 S952 1.610 . S
N954 C955 1.351 . S
C955 C949 1.428 . S
C955 N954 1.351 . S
C955 C956 1.434 . S
C956 C947 1.429 . S
C956 N953 1.350 . S
C956 C955 1.434 . S
C957 C958 1.369 . S
C957 C959 1.419 . S
C957 H961 0.930 . S
C958 C957 1.369 . S
C958 C967 1.429 . S
C959 C957 1.419 . S
C959 C960 1.363 . S
C959 H962 0.929 . S
C960 C959 1.363 . S
C960 C966 1.428 . S
H961 C957 0.930 . S
H962 C959 0.929 . S
S963 N964 1.613 . S
S963 N965 1.610 . S
N964 S963 1.613 . S
N964 C967 1.350 . S
N965 S963 1.610 . S
N965 C966 1.351 . S
C966 C960 1.428 . S
C966 N965 1.351 . S
C966 C967 1.434 . S
C967 C958 1.429 . S
C967 N964 1.350 . S
C967 C966 1.434 . S
C968 C969 1.369 . S
C968 C970 1.419 . S
C968 H972 0.930 . S
C969 C968 1.369 . S
C969 C978 1.429 . S
C970 C968 1.419 . S
C970 C971 1.363 . S
C970 H973 0.929 . S
C971 C970 1.363 . S
C971 C977 1.428 . S
H972 C968 0.930 . S
H973 C970 0.929 . S
S974 N975 1.613 . S
S974 N976 1.610 . S
N975 S974 1.613 . S
N975 C978 1.350 . S
N976 S974 1.610 . S
N976 C977 1.351 . S
C977 C971 1.428 . S
C977 N976 1.351 . S
C977 C978 1.434 . S
C978 C969 1.429 . S
C978 N975 1.350 . S
C978 C977 1.434 . S
C979 C980 1.369 . S
C979 C981 1.419 . S
C979 H983 0.930 . S
C980 C979 1.369 . S
C980 C989 1.429 . S
C981 C979 1.419 . S
C981 C982 1.363 . S
C981 H984 0.929 . S
C982 C981 1.363 . S
C982 C988 1.428 . S
H983 C979 0.930 . S
H984 C981 0.929 . S
S985 N986 1.613 . S
S985 N987 1.610 . S
N986 S985 1.613 . S
N986 C989 1.350 . S
N987 S985 1.610 . S
N987 C988 1.351 . S
C988 C982 1.428 . S
C988 N987 1.351 . S
C988 C989 1.434 . S
C989 C980 1.429 . S
C989 N986 1.350 . S
C989 C988 1.434 . S
C990 C991 1.369 . S
C990 C992 1.419 . S
C990 H994 0.930 . S
C991 C990 1.369 . S
C991 C1000 1.429 . S
C992 C990 1.419 . S
C992 C993 1.363 . S
C992 H995 0.929 . S
C993 C992 1.363 . S
C993 C999 1.428 . S
H994 C990 0.930 . S
H995 C992 0.929 . S
S996 N997 1.613 . S
S996 N998 1.610 . S
N997 S996 1.613 . S
N997 C1000 1.350 . S
N998 S996 1.610 . S
N998 C999 1.351 . S
C999 C993 1.428 . S
C999 N998 1.351 . S
C999 C1000 1.434 . S
C1000 C991 1.429 . S
C1000 N997 1.350 . S
C1000 C999 1.434 . S
C1001 C1002 1.369 . S
C1001 C1003 1.419 . S
C1001 H1005 0.930 . S
C1002 C1001 1.369 . S
C1002 C1011 1.429 . S
C1003 C1001 1.419 . S
C1003 C1004 1.363 . S
C1003 H1006 0.929 . S
C1004 C1003 1.363 . S
C1004 C1010 1.428 . S
H1005 C1001 0.930 . S
H1006 C1003 0.929 . S
S1007 N1008 1.613 . S
S1007 N1009 1.610 . S
N1008 S1007 1.613 . S
N1008 C1011 1.350 . S
N1009 S1007 1.610 . S
N1009 C1010 1.351 . S
C1010 C1004 1.428 . S
C1010 N1009 1.351 . S
C1010 C1011 1.434 . S
C1011 C1002 1.429 . S
C1011 N1008 1.350 . S
C1011 C1010 1.434 . S
C1012 C1013 1.369 . S
C1012 C1014 1.419 . S
C1012 H1016 0.930 . S
C1013 C1012 1.369 . S
C1013 C1022 1.429 . S
C1014 C1012 1.419 . S
C1014 C1015 1.363 . S
C1014 H1017 0.929 . S
C1015 C1014 1.363 . S
C1015 C1021 1.428 . S
H1016 C1012 0.930 . S
H1017 C1014 0.929 . S
S1018 N1019 1.613 . S
S1018 N1020 1.610 . S
N1019 S1018 1.613 . S
N1019 C1022 1.350 . S
N1020 S1018 1.610 . S
N1020 C1021 1.351 . S
C1021 C1015 1.428 . S
C1021 N1020 1.351 . S
C1021 C1022 1.434 . S
C1022 C1013 1.429 . S
C1022 N1019 1.350 . S
C1022 C1021 1.434 . S
C1023 C1024 1.369 . S
C1023 C1025 1.419 . S
C1023 H1027 0.930 . S
C1024 C1023 1.369 . S
C1024 C1033 1.429 . S
C1025 C1023 1.419 . S
C1025 C1026 1.363 . S
C1025 H1028 0.929 . S
C1026 C1025 1.363 . S
C1026 C1032 1.428 . S
H1027 C1023 0.930 . S
H1028 C1025 0.929 . S
S1029 N1030 1.613 . S
S1029 N1031 1.610 . S
N1030 S1029 1.613 . S
N1030 C1033 1.350 . S
N1031 S1029 1.610 . S
N1031 C1032 1.351 . S
C1032 C1026 1.428 . S
C1032 N1031 1.351 . S
C1032 C1033 1.434 . S
C1033 C1024 1.429 . S
C1033 N1030 1.350 . S
C1033 C1032 1.434 . S
C1034 C1035 1.369 . S
C1034 C1036 1.419 . S
C1034 H1038 0.930 . S
C1035 C1034 1.369 . S
C1035 C1044 1.429 . S
C1036 C1034 1.419 . S
C1036 C1037 1.363 . S
C1036 H1039 0.929 . S
C1037 C1036 1.363 . S
C1037 C1043 1.428 . S
H1038 C1034 0.930 . S
H1039 C1036 0.929 . S
S1040 N1041 1.613 . S
S1040 N1042 1.610 . S
N1041 S1040 1.613 . S
N1041 C1044 1.350 . S
N1042 S1040 1.610 . S
N1042 C1043 1.351 . S
C1043 C1037 1.428 . S
C1043 N1042 1.351 . S
C1043 C1044 1.434 . S
C1044 C1035 1.429 . S
C1044 N1041 1.350 . S
C1044 C1043 1.434 . S
C1045 C1046 1.369 . S
C1045 C1047 1.419 . S
C1045 H1049 0.930 . S
C1046 C1045 1.369 . S
C1046 C1055 1.429 . S
C1047 C1045 1.419 . S
C1047 C1048 1.363 . S
C1047 H1050 0.929 . S
C1048 C1047 1.363 . S
C1048 C1054 1.428 . S
H1049 C1045 0.930 . S
H1050 C1047 0.929 . S
S1051 N1052 1.613 . S
S1051 N1053 1.610 . S
N1052 S1051 1.613 . S
N1052 C1055 1.350 . S
N1053 S1051 1.610 . S
N1053 C1054 1.351 . S
C1054 C1048 1.428 . S
C1054 N1053 1.351 . S
C1054 C1055 1.434 . S
C1055 C1046 1.429 . S
C1055 N1052 1.350 . S
C1055 C1054 1.434 . S
C1056 C1057 1.369 . S
C1056 C1058 1.419 1_655 S
C1056 H1060 0.930 . S
C1057 C1056 1.369 . S
C1057 C1066 1.429 . S
C1058 C1056 1.419 1_455 S
C1058 C1059 1.363 . S
C1058 H1061 0.929 . S
C1059 C1058 1.363 . S
C1059 C1065 1.428 . S
H1060 C1056 0.930 . S
H1061 C1058 0.929 . S
S1062 N1063 1.615 1_455 S
S1062 N1064 1.607 . S
N1063 S1062 1.615 1_655 S
N1063 C1066 1.350 . S
N1064 S1062 1.607 . S
N1064 C1065 1.351 . S
C1065 C1059 1.428 . S
C1065 N1064 1.351 . S
C1065 C1066 1.434 1_455 S
C1066 C1057 1.429 . S
C1066 N1063 1.350 . S
C1066 C1065 1.434 1_655 S
C1067 C1068 1.369 . S
C1067 C1069 1.419 1_565 S
C1067 H1071 0.930 . S
C1068 C1067 1.369 . S
C1068 C1077 1.429 . S
C1069 C1067 1.419 1_545 S
C1069 C1070 1.363 . S
C1069 H1072 0.929 . S
C1070 C1069 1.363 . S
C1070 C1076 1.428 . S
H1071 C1067 0.930 . S
H1072 C1069 0.929 . S
S1073 N1074 1.615 1_545 S
S1073 N1075 1.607 . S
N1074 S1073 1.615 1_565 S
N1074 C1077 1.350 . S
N1075 S1073 1.607 . S
N1075 C1076 1.351 . S
C1076 C1070 1.428 . S
C1076 N1075 1.351 . S
C1076 C1077 1.434 1_545 S
C1077 C1068 1.429 . S
C1077 N1074 1.350 . S
C1077 C1076 1.434 1_565 S
C1078 C1079 1.369 . S
C1078 C1080 1.419 . S
C1078 H1082 0.930 . S
C1079 C1078 1.369 . S
C1079 C1088 1.429 . S
C1080 C1078 1.419 . S
C1080 C1081 1.363 . S
C1080 H1083 0.929 . S
C1081 C1080 1.363 . S
C1081 C1087 1.428 . S
H1082 C1078 0.930 . S
H1083 C1080 0.929 . S
S1084 N1085 1.613 . S
S1084 N1086 1.610 . S
N1085 S1084 1.613 . S
N1085 C1088 1.350 . S
N1086 S1084 1.610 . S
N1086 C1087 1.351 . S
C1087 C1081 1.428 . S
C1087 N1086 1.351 . S
C1087 C1088 1.434 . S
C1088 C1079 1.429 . S
C1088 N1085 1.350 . S
C1088 C1087 1.434 . S
C1089 C1090 1.369 . S
C1089 C1091 1.419 1_455 S
C1089 H1093 0.930 . S
C1090 C1089 1.369 . S
C1090 C1099 1.429 . S
C1091 C1089 1.419 1_655 S
C1091 C1092 1.363 . S
C1091 H1094 0.929 . S
C1092 C1091 1.363 . S
C1092 C1098 1.428 . S
H1093 C1089 0.930 . S
H1094 C1091 0.929 . S
S1095 N1096 1.614 1_655 S
S1095 N1097 1.610 . S
N1096 S1095 1.614 1_455 S
N1096 C1099 1.350 . S
N1097 S1095 1.610 . S
N1097 C1098 1.351 . S
C1098 C1092 1.428 . S
C1098 N1097 1.351 . S
C1098 C1099 1.434 1_655 S
C1099 C1090 1.429 . S
C1099 N1096 1.350 . S
C1099 C1098 1.434 1_455 S
C1100 C1101 1.369 . S
C1100 C1102 1.419 1_545 S
C1100 H1104 0.930 . S
C1101 C1100 1.369 . S
C1101 C1110 1.429 . S
C1102 C1100 1.419 1_565 S
C1102 C1103 1.363 . S
C1102 H1105 0.929 . S
C1103 C1102 1.363 . S
C1103 C1109 1.428 . S
H1104 C1100 0.930 . S
H1105 C1102 0.929 . S
S1106 N1107 1.612 . S
S1106 N1108 1.614 1_545 S
N1107 S1106 1.612 . S
N1107 C1110 1.350 . S
N1108 S1106 1.614 1_565 S
N1108 C1109 1.351 . S
C1109 C1103 1.428 . S
C1109 N1108 1.351 . S
C1109 C1110 1.434 1_565 S
C1110 C1101 1.429 . S
C1110 N1107 1.350 . S
C1110 C1109 1.434 1_545 S
C1111 C1112 1.369 . S
C1111 C1113 1.419 . S
C1111 H1115 0.930 . S
C1112 C1111 1.369 . S
C1112 C1121 1.429 . S
C1113 C1111 1.419 . S
C1113 C1114 1.363 . S
C1113 H1116 0.929 . S
C1114 C1113 1.363 . S
C1114 C1120 1.428 . S
H1115 C1111 0.930 . S
H1116 C1113 0.929 . S
S1117 N1118 1.613 . S
S1117 N1119 1.610 . S
N1118 S1117 1.613 . S
N1118 C1121 1.350 . S
N1119 S1117 1.610 . S
N1119 C1120 1.351 . S
C1120 C1114 1.428 . S
C1120 N1119 1.351 . S
C1120 C1121 1.434 . S
C1121 C1112 1.429 . S
C1121 N1118 1.350 . S
C1121 C1120 1.434 . S
C1122 C1123 1.369 . S
C1122 C1124 1.419 1_565 S
C1122 H1126 0.930 . S
C1123 C1122 1.369 . S
C1123 C1132 1.429 . S
C1124 C1122 1.419 1_545 S
C1124 C1125 1.363 . S
C1124 H1127 0.929 . S
C1125 C1124 1.363 . S
C1125 C1131 1.428 . S
H1126 C1122 0.930 . S
H1127 C1124 0.929 . S
S1128 N1129 1.615 1_545 S
S1128 N1130 1.609 . S
N1129 S1128 1.615 1_565 S
N1129 C1132 1.350 . S
N1130 S1128 1.609 . S
N1130 C1131 1.351 . S
C1131 C1125 1.428 . S
C1131 N1130 1.351 . S
C1131 C1132 1.434 1_545 S
C1132 C1123 1.429 . S
C1132 N1129 1.350 . S
C1132 C1131 1.434 1_565 S
C1133 C1134 1.369 . S
C1133 C1135 1.419 . S
C1133 H1137 0.930 . S
C1134 C1133 1.369 . S
C1134 C1143 1.429 . S
C1135 C1133 1.419 . S
C1135 C1136 1.363 . S
C1135 H1138 0.929 . S
C1136 C1135 1.363 . S
C1136 C1142 1.428 . S
H1137 C1133 0.930 . S
H1138 C1135 0.929 . S
S1139 N1140 1.613 . S
S1139 N1141 1.610 . S
N1140 S1139 1.613 . S
N1140 C1143 1.350 . S
N1141 S1139 1.610 . S
N1141 C1142 1.351 . S
C1142 C1136 1.428 . S
C1142 N1141 1.351 . S
C1142 C1143 1.434 . S
C1143 C1134 1.429 . S
C1143 N1140 1.350 . S
C1143 C1142 1.434 . S
C1144 C1145 1.369 . S
C1144 C1146 1.419 1_655 S
C1144 H1148 0.930 . S
C1145 C1144 1.369 . S
C1145 C1154 1.429 . S
C1146 C1144 1.419 1_455 S
C1146 C1147 1.363 . S
C1146 H1149 0.929 . S
C1147 C1146 1.363 . S
C1147 C1153 1.428 . S
H1148 C1144 0.930 . S
H1149 C1146 0.929 . S
S1150 N1151 1.612 . S
S1150 N1152 1.614 1_655 S
N1151 S1150 1.612 . S
N1151 C1154 1.350 . S
N1152 S1150 1.614 1_455 S
N1152 C1153 1.351 . S
C1153 C1147 1.428 . S
C1153 N1152 1.351 . S
C1153 C1154 1.434 1_455 S
C1154 C1145 1.429 . S
C1154 N1151 1.350 . S
C1154 C1153 1.434 1_655 S
C1155 C1156 1.369 . S
C1155 C1157 1.419 1_565 S
C1155 H1159 0.930 . S
C1156 C1155 1.369 . S
C1156 C1165 1.429 . S
C1157 C1155 1.419 1_545 S
C1157 C1158 1.363 . S
C1157 H1160 0.929 . S
C1158 C1157 1.363 . S
C1158 C1164 1.428 . S
H1159 C1155 0.930 . S
H1160 C1157 0.929 . S
S1161 N1162 1.614 1_545 S
S1161 N1163 1.610 . S
N1162 S1161 1.614 1_565 S
N1162 C1165 1.350 . S
N1163 S1161 1.610 . S
N1163 C1164 1.351 . S
C1164 C1158 1.428 . S
C1164 N1163 1.351 . S
C1164 C1165 1.434 1_545 S
C1165 C1156 1.429 . S
C1165 N1162 1.350 . S
C1165 C1164 1.434 1_565 S
C1166 C1167 1.369 . S
C1166 C1168 1.419 . S
C1166 H1170 0.930 . S
C1167 C1166 1.369 . S
C1167 C1176 1.429 . S
C1168 C1166 1.419 . S
C1168 C1169 1.363 . S
C1168 H1171 0.929 . S
C1169 C1168 1.363 . S
C1169 C1175 1.428 . S
H1170 C1166 0.930 . S
H1171 C1168 0.929 . S
S1172 N1173 1.613 . S
S1172 N1174 1.610 . S
N1173 S1172 1.613 . S
N1173 C1176 1.350 . S
N1174 S1172 1.610 . S
N1174 C1175 1.351 . S
C1175 C1169 1.428 . S
C1175 N1174 1.351 . S
C1175 C1176 1.434 . S
C1176 C1167 1.429 . S
C1176 N1173 1.350 . S
C1176 C1175 1.434 . S
C1177 C1178 1.369 . S
C1177 C1179 1.419 1_655 S
C1177 H1181 0.930 . S
C1178 C1177 1.369 . S
C1178 C1187 1.429 . S
C1179 C1177 1.419 1_455 S
C1179 C1180 1.363 . S
C1179 H1182 0.929 . S
C1180 C1179 1.363 . S
C1180 C1186 1.428 . S
H1181 C1177 0.930 . S
H1182 C1179 0.929 . S
S1183 N1184 1.615 1_455 S
S1183 N1185 1.607 . S
N1184 S1183 1.615 1_655 S
N1184 C1187 1.350 . S
N1185 S1183 1.607 . S
N1185 C1186 1.351 . S
C1186 C1180 1.428 . S
C1186 N1185 1.351 . S
C1186 C1187 1.434 1_455 S
C1187 C1178 1.429 . S
C1187 N1184 1.350 . S
C1187 C1186 1.434 1_655 S
C1188 C1189 1.361 1_554 S
C1188 C1190 1.426 . S
C1188 H1192 0.931 . S
C1189 C1188 1.361 1_556 S
C1189 C1198 1.429 . S
C1190 C1188 1.426 . S
C1190 C1191 1.363 . S
C1190 H1193 0.929 . S
C1191 C1190 1.363 . S
C1191 C1197 1.428 1_554 S
H1192 C1188 0.931 . S
H1193 C1190 0.929 . S
S1194 N1195 1.613 . S
S1194 N1196 1.610 . S
N1195 S1194 1.613 . S
N1195 C1198 1.350 . S
N1196 S1194 1.610 . S
N1196 C1197 1.351 . S
C1197 C1191 1.428 1_556 S
C1197 N1196 1.351 . S
C1197 C1198 1.434 . S
C1198 C1189 1.429 . S
C1198 N1195 1.350 . S
C1198 C1197 1.434 . S
C1199 C1200 1.369 . S
C1199 C1201 1.419 . S
C1199 H1203 0.930 . S
C1200 C1199 1.369 . S
C1200 C1209 1.429 . S
C1201 C1199 1.419 . S
C1201 C1202 1.363 . S
C1201 H1204 0.929 . S
C1202 C1201 1.363 . S
C1202 C1208 1.428 . S
H1203 C1199 0.930 . S
H1204 C1201 0.929 . S
S1205 N1206 1.613 . S
S1205 N1207 1.610 . S
N1206 S1205 1.613 . S
N1206 C1209 1.350 . S
N1207 S1205 1.610 . S
N1207 C1208 1.351 . S
C1208 C1202 1.428 . S
C1208 N1207 1.351 . S
C1208 C1209 1.434 . S
C1209 C1200 1.429 . S
C1209 N1206 1.350 . S
C1209 C1208 1.434 . S
C1210 C1211 1.369 . S
C1210 C1212 1.419 1_554 S
C1210 H1214 0.930 . S
C1211 C1210 1.369 . S
C1211 C1220 1.429 . S
C1212 C1210 1.419 1_556 S
C1212 C1213 1.363 . S
C1212 H1215 0.929 . S
C1213 C1212 1.363 . S
C1213 C1219 1.428 . S
H1214 C1210 0.930 . S
H1215 C1212 0.929 . S
S1216 N1217 1.613 1_556 S
S1216 N1218 1.610 . S
N1217 S1216 1.613 1_554 S
N1217 C1220 1.350 . S
N1218 S1216 1.610 . S
N1218 C1219 1.351 . S
C1219 C1213 1.428 . S
C1219 N1218 1.351 . S
C1219 C1220 1.434 1_556 S
C1220 C1211 1.429 . S
C1220 N1217 1.350 . S
C1220 C1219 1.434 1_554 S
C1221 C1222 1.369 . S
C1221 C1223 1.419 . S
C1221 H1225 0.930 . S
C1222 C1221 1.369 . S
C1222 C1231 1.429 . S
C1223 C1221 1.419 . S
C1223 C1224 1.363 . S
C1223 H1226 0.929 . S
C1224 C1223 1.363 . S
C1224 C1230 1.428 . S
H1225 C1221 0.930 . S
H1226 C1223 0.929 . S
S1227 N1228 1.613 . S
S1227 N1229 1.610 . S
N1228 S1227 1.613 . S
N1228 C1231 1.350 . S
N1229 S1227 1.610 . S
N1229 C1230 1.351 . S
C1230 C1224 1.428 . S
C1230 N1229 1.351 . S
C1230 C1231 1.434 . S
C1231 C1222 1.429 . S
C1231 N1228 1.350 . S
C1231 C1230 1.434 . S
C1232 C1233 1.369 . S
C1232 C1234 1.419 1_556 S
C1232 H1236 0.930 . S
C1233 C1232 1.369 . S
C1233 C1242 1.429 . S
C1234 C1232 1.419 1_554 S
C1234 C1235 1.363 . S
C1234 H1237 0.929 . S
C1235 C1234 1.363 . S
C1235 C1241 1.428 . S
H1236 C1232 0.930 . S
H1237 C1234 0.929 . S
S1238 N1239 1.613 1_554 S
S1238 N1240 1.610 . S
N1239 S1238 1.613 1_556 S
N1239 C1242 1.350 . S
N1240 S1238 1.610 . S
N1240 C1241 1.351 . S
C1241 C1235 1.428 . S
C1241 N1240 1.351 . S
C1241 C1242 1.434 1_554 S
C1242 C1233 1.429 . S
C1242 N1239 1.350 . S
C1242 C1241 1.434 1_556 S
C1243 C1244 1.369 . S
C1243 C1245 1.419 . S
C1243 H1247 0.930 . S
C1244 C1243 1.369 . S
C1244 C1253 1.429 . S
C1245 C1243 1.419 . S
C1245 C1246 1.363 . S
C1245 H1248 0.929 . S
C1246 C1245 1.363 . S
C1246 C1252 1.428 . S
H1247 C1243 0.930 . S
H1248 C1245 0.929 . S
S1249 N1250 1.613 . S
S1249 N1251 1.610 . S
N1250 S1249 1.613 . S
N1250 C1253 1.350 . S
N1251 S1249 1.610 . S
N1251 C1252 1.351 . S
C1252 C1246 1.428 . S
C1252 N1251 1.351 . S
C1252 C1253 1.434 . S
C1253 C1244 1.429 . S
C1253 N1250 1.350 . S
C1253 C1252 1.434 . S
C1254 C1255 1.399 . S
C1254 C1256 1.390 1_554 S
C1254 H1258 0.930 . S
C1255 C1254 1.399 . S
C1255 C1264 1.429 . S
C1256 C1254 1.390 1_556 S
C1256 C1257 1.363 . S
C1256 H1259 0.929 . S
C1257 C1256 1.363 . S
C1257 C1263 1.425 1_556 S
H1258 C1254 0.930 . S
H1259 C1256 0.929 . S
S1260 N1261 1.613 . S
S1260 N1262 1.610 . S
N1261 S1260 1.613 . S
N1261 C1264 1.350 . S
N1262 S1260 1.610 . S
N1262 C1263 1.352 . S
C1263 C1257 1.425 1_554 S
C1263 N1262 1.352 . S
C1263 C1264 1.438 . S
C1264 C1255 1.429 . S
C1264 N1261 1.350 . S
C1264 C1263 1.438 . S
C1265 C1266 1.369 . S
C1265 C1267 1.419 . S
C1265 H1269 0.930 . S
C1266 C1265 1.369 . S
C1266 C1275 1.429 . S
C1267 C1265 1.419 . S
C1267 C1268 1.363 . S
C1267 H1270 0.929 . S
C1268 C1267 1.363 . S
C1268 C1274 1.428 . S
H1269 C1265 0.930 . S
H1270 C1267 0.929 . S
S1271 N1272 1.613 . S
S1271 N1273 1.610 . S
N1272 S1271 1.613 . S
N1272 C1275 1.350 . S
N1273 S1271 1.610 . S
N1273 C1274 1.351 . S
C1274 C1268 1.428 . S
C1274 N1273 1.351 . S
C1274 C1275 1.434 . S
C1275 C1266 1.429 . S
C1275 N1272 1.350 . S
C1275 C1274 1.434 . S
C1276 C1277 1.369 . S
C1276 C1278 1.419 1_554 S
C1276 H1280 0.930 . S
C1277 C1276 1.369 . S
C1277 C1286 1.429 . S
C1278 C1276 1.419 1_556 S
C1278 C1279 1.363 . S
C1278 H1281 0.929 . S
C1279 C1278 1.363 . S
C1279 C1285 1.428 . S
H1280 C1276 0.930 . S
H1281 C1278 0.929 . S
S1282 N1283 1.613 . S
S1282 N1284 1.610 1_554 S
N1283 S1282 1.613 . S
N1283 C1286 1.350 . S
N1284 S1282 1.610 1_556 S
N1284 C1285 1.351 . S
C1285 C1279 1.428 . S
C1285 N1284 1.351 . S
C1285 C1286 1.434 1_556 S
C1286 C1277 1.429 . S
C1286 N1283 1.350 . S
C1286 C1285 1.434 1_554 S
C1287 C1288 1.369 . S
C1287 C1289 1.419 . S
C1287 H1291 0.930 . S
C1288 C1287 1.369 . S
C1288 C1297 1.429 . S
C1289 C1287 1.419 . S
C1289 C1290 1.363 . S
C1289 H1292 0.929 . S
C1290 C1289 1.363 . S
C1290 C1296 1.428 . S
H1291 C1287 0.930 . S
H1292 C1289 0.929 . S
S1293 N1294 1.613 . S
S1293 N1295 1.610 . S
N1294 S1293 1.613 . S
N1294 C1297 1.350 . S
N1295 S1293 1.610 . S
N1295 C1296 1.351 . S
C1296 C1290 1.428 . S
C1296 N1295 1.351 . S
C1296 C1297 1.434 . S
C1297 C1288 1.429 . S
C1297 N1294 1.350 . S
C1297 C1296 1.434 . S
C1298 C1299 1.369 . S
C1298 C1300 1.419 . S
C1298 H1302 0.930 . S
C1299 C1298 1.369 . S
C1299 C1308 1.429 1_554 S
C1300 C1298 1.419 . S
C1300 C1301 1.363 1_554 S
C1300 H1303 0.929 . S
C1301 C1300 1.363 1_556 S
C1301 C1307 1.428 . S
H1302 C1298 0.930 . S
H1303 C1300 0.929 . S
S1304 N1305 1.613 . S
S1304 N1306 1.610 . S
N1305 S1304 1.613 . S
N1305 C1308 1.350 . S
N1306 S1304 1.610 . S
N1306 C1307 1.351 . S
C1307 C1301 1.428 . S
C1307 N1306 1.351 . S
C1307 C1308 1.434 . S
C1308 C1299 1.429 1_556 S
C1308 N1305 1.350 . S
C1308 C1307 1.434 . S
C1309 C1310 1.369 . S
C1309 C1311 1.419 . S
C1309 H1313 0.930 . S
C1310 C1309 1.369 . S
C1310 C1319 1.429 . S
C1311 C1309 1.419 . S
C1311 C1312 1.363 . S
C1311 H1314 0.929 . S
C1312 C1311 1.363 . S
C1312 C1318 1.428 . S
H1313 C1309 0.930 . S
H1314 C1311 0.929 . S
S1315 N1316 1.613 . S
S1315 N1317 1.610 . S
N1316 S1315 1.613 . S
N1316 C1319 1.350 . S
N1317 S1315 1.610 . S
N1317 C1318 1.351 . S
C1318 C1312 1.428 . S
C1318 N1317 1.351 . S
C1318 C1319 1.434 . S
C1319 C1310 1.429 . S
C1319 N1316 1.350 . S
C1319 C1318 1.434 . S
C529 C184 1.308 . S
C531 C4 1.309 . S
C540 C26 1.299 . S
C542 C206 1.302 . S
C551 C228 1.306 . S
C553 C48 1.309 . S
C562 C70 1.310 . S
C564 C250 1.307 . S
C573 C140 1.300 . S
C575 C92 1.300 . S
C584 C162 1.301 . S
C586 C114 1.306 . S
C595 C272 1.303 . S
C597 C444 1.308 . S
C606 C466 1.308 . S
C608 C294 1.309 . S
C617 C488 1.307 . S
C619 C316 1.309 . S
C628 C338 1.310 . S
C630 C510 1.304 . S
C639 C360 1.299 . S
C641 C400 1.301 . S
C650 C422 1.305 . S
C652 C382 1.301 . S
C661 C9 1.168 . S
C663 C52 1.178 . S
C672 C74 1.181 . S
C674 C31 1.181 . S
C683 C53 1.182 . S
C685 C96 1.182 . S
C694 C75 1.169 . S
C696 C118 1.182 . S
C705 C8 1.186 . S
C707 C97 1.178 . S
C716 C30 1.177 . S
C718 C119 1.170 . S
C727 C224 1.173 . S
C729 C137 1.175 . S
C738 C159 1.169 . S
C740 C246 1.182 . S
C749 C181 1.168 . S
C751 C136 1.179 . S
C760 C158 1.172 . S
C762 C203 1.174 . S
C771 C180 1.181 . S
C773 C225 1.181 . S
C782 C202 1.177 . S
C784 C247 1.170 . S
C793 C312 1.179 . S
C795 C270 1.180 . S
C804 C292 1.173 . S
C806 C334 1.174 . S
C815 C314 1.180 . S
C817 C356 1.185 . S
C826 C336 1.168 . S
C828 C378 1.176 . S
C837 C268 1.179 . S
C839 C358 1.170 . S
C848 C290 1.174 . S
C850 C380 1.176 . S
C859 C403 1.178 . S
C861 C492 1.185 . S
C870 C425 1.172 . S
C872 C514 1.183 . S
C881 C447 1.182 . S
C883 C404 1.181 . S
C892 C469 1.170 . S
C894 C426 1.182 . S
C903 C448 1.178 . S
C905 C491 1.170 . S
C914 C470 1.179 . S
C916 C513 1.180 . S
C925 C7 1.473 . S
C927 C335 1.473 . S
C936 C357 1.474 . S
C938 C29 1.473 . S
C947 C51 1.472 . S
C949 C379 1.472 . S
C958 C73 1.472 . S
C960 C269 1.472 . S
C969 C291 1.473 . S
C971 C95 1.473 . S
C980 C117 1.474 . S
C982 C313 1.474 . S
C991 C138 1.471 . S
C993 C471 1.472 . S
C1002 C493 1.471 . S
C1004 C160 1.471 . S
C1013 C182 1.472 . S
C1015 C515 1.472 . S
C1024 C204 1.471 . S
C1026 C405 1.471 . S
C1035 C427 1.474 . S
C1037 C226 1.474 . S
C1046 C449 1.474 . S
C1048 C248 1.473 . S
C1057 C446 1.393 . S
C1059 C5 1.392 . S
C1068 C468 1.389 . S
C1070 C27 1.390 . S
C1079 C490 1.390 . S
C1081 C49 1.391 . S
C1090 C512 1.391 . S
C1092 C71 1.392 . S
C1101 C402 1.391 . S
C1103 C93 1.392 . S
C1112 C115 1.394 . S
C1114 C424 1.393 . S
C1123 C141 1.389 . S
C1125 C359 1.390 . S
C1134 C381 1.392 . S
C1136 C163 1.392 . S
C1145 C271 1.396 . S
C1147 C185 1.395 . S
C1156 C293 1.394 . S
C1158 C207 1.394 . S
C1167 C229 1.396 . S
C1169 C315 1.395 . S
C1178 C251 1.387 . S
C1180 C337 1.388 . S
C1189 C227 1.350 . S
C1191 C6 1.357 . S
C1200 C249 1.358 . S
C1202 C28 1.351 . S
C1211 C50 1.357 . S
C1213 C139 1.357 . S
C1222 C72 1.359 . S
C1224 C161 1.352 . S
C1233 C183 1.351 . S
C1235 C94 1.348 . S
C1244 C116 1.347 . S
C1246 C205 1.349 . S
C1255 C489 1.348 . S
C1257 C273 1.354 . S
C1266 C511 1.347 . S
C1268 C295 1.349 . S
C1277 C401 1.346 . S
C1279 C317 1.350 . S
C1288 C339 1.357 . S
C1290 C423 1.358 . S
C1299 C445 1.353 . S
C1301 C361 1.348 . S
C1310 C383 1.349 . S
C1312 C467 1.348 . S
