# Generated by pormake.
# Topology dia, (4)-cn, num edge types: 1
# Building blocks:
#     Node 0, Type 0, BuildingBlock: QUQFOY_clean_sbu_3, # of connection points: 4
#     Node 1, Type 0, BuildingBlock: QUQFOY_clean_sbu_3, # of connection points: 4
#     Node 2, Type 0, BuildingBlock: QUQFOY_clean_sbu_3, # of connection points: 4
#     Node 3, Type 0, BuildingBlock: QUQFOY_clean_sbu_3, # of connection points: 4
#     Node 4, Type 0, BuildingBlock: QUQFOY_clean_sbu_3, # of connection points: 4
#     Node 5, Type 0, BuildingBlock: QUQFOY_clean_sbu_3, # of connection points: 4
#     Node 6, Type 0, BuildingBlock: QUQFOY_clean_sbu_3, # of connection points: 4
#     Node 7, Type 0, BuildingBlock: QUQFOY_clean_sbu_3, # of connection points: 4
#     Edge 8, Type (0, 0), BuildingBlock: XIVTED_clean_linker_0, # of connection points: 2
#     Edge 9, Type (0, 0), BuildingBlock: XIVTED_clean_linker_0, # of connection points: 2
#     Edge 10, Type (0, 0), BuildingBlock: XIVTED_clean_linker_0, # of connection points: 2
#     Edge 11, Type (0, 0), BuildingBlock: XIVTED_clean_linker_0, # of connection points: 2
#     Edge 12, Type (0, 0), BuildingBlock: XIVTED_clean_linker_0, # of connection points: 2
#     Edge 13, Type (0, 0), BuildingBlock: XIVTED_clean_linker_0, # of connection points: 2
#     Edge 14, Type (0, 0), BuildingBlock: XIVTED_clean_linker_0, # of connection points: 2
#     Edge 15, Type (0, 0), BuildingBlock: XIVTED_clean_linker_0, # of connection points: 2
#     Edge 16, Type (0, 0), BuildingBlock: XIVTED_clean_linker_0, # of connection points: 2
#     Edge 17, Type (0, 0), BuildingBlock: XIVTED_clean_linker_0, # of connection points: 2
#     Edge 18, Type (0, 0), BuildingBlock: XIVTED_clean_linker_0, # of connection points: 2
#     Edge 19, Type (0, 0), BuildingBlock: XIVTED_clean_linker_0, # of connection points: 2
#     Edge 20, Type (0, 0), BuildingBlock: XIVTED_clean_linker_0, # of connection points: 2
#     Edge 21, Type (0, 0), BuildingBlock: XIVTED_clean_linker_0, # of connection points: 2
#     Edge 22, Type (0, 0), BuildingBlock: XIVTED_clean_linker_0, # of connection points: 2
#     Edge 23, Type (0, 0), BuildingBlock: XIVTED_clean_linker_0, # of connection points: 2
# Relax obj value: 0.120
# Max RMSD: 0.163
# Mean RMSD: 0.163
data_MOF--net-dia--node1-QUQFOY_clean_sbu_3--edge1-XIVTED_clean_linker_0
_symmetry_space_group_name_H-M    P1
_symmetry_Int_Tables_number       1
_symmetry_cell_setting            triclinic
loop_
_symmetry_equiv_pos_as_xyz
'x, y, z'
_cell_length_a     34.601372
_cell_length_b     34.555604
_cell_length_c     41.041449
_cell_angle_alpha  89.811276
_cell_angle_beta   89.597169
_cell_angle_gamma 92.550037
loop_
_atom_site_label
_atom_site_type_symbol
_atom_site_fract_x
_atom_site_fract_y
_atom_site_fract_z
_atom_type_partial_charge
C0 C 0.04346 0.16434 0.62826 0.0
O1 O 0.02803 0.16401 0.60023 0.0
Cd2 Cd 0.04412 0.12332 0.55542 0.0
O3 O 0.07177 0.14308 0.63453 0.0
Cd4 Cd 0.11244 0.09637 0.60477 0.0
C5 C 0.1369 0.15851 0.54193 0.0
O6 O 0.05635 0.06377 0.58166 0.0
O7 O 0.10999 0.04039 0.56664 0.0
O8 O 0.12302 0.06812 0.65859 0.0
C9 C 0.07343 0.03887 0.56512 0.0
O10 O 0.10279 0.15261 0.53103 0.0
C11 C 0.15858 0.06226 0.65373 0.0
O12 O 0.1468 0.14422 0.56915 0.0
O13 O 0.17281 0.07297 0.62639 0.0
C14 C 0.81235 0.43614 0.82186 0.0
O15 O 0.81469 0.45463 0.84854 0.0
Cd16 Cd 0.84741 0.43487 0.89621 0.0
O17 O 0.82949 0.40443 0.81795 0.0
Cd18 Cd 0.87498 0.36281 0.84859 0.0
C19 C 0.807 0.34206 0.90763 0.0
O20 O 0.90725 0.41794 0.87306 0.0
O21 O 0.92898 0.36376 0.88855 0.0
O22 O 0.90557 0.35462 0.79542 0.0
C23 C 0.93068 0.40035 0.89058 0.0
O24 O 0.81047 0.37744 0.91624 0.0
C25 C 0.91073 0.31869 0.79881 0.0
O26 O 0.82622 0.32937 0.88362 0.0
O27 O 0.89857 0.30295 0.82518 0.0
C28 C 0.53576 0.15711 0.12442 0.0
O29 O 0.52012 0.15526 0.09656 0.0
Cd30 Cd 0.54315 0.11824 0.05216 0.0
O31 O 0.56627 0.13892 0.13029 0.0
Cd32 Cd 0.61054 0.09636 0.09958 0.0
C33 C 0.63271 0.16217 0.03957 0.0
O34 O 0.56011 0.0567 0.07394 0.0
O35 O 0.61763 0.05044 0.05448 0.0
O36 O 0.62074 0.05097 0.14418 0.0
C37 C 0.5824 0.03865 0.05533 0.0
O38 O 0.59817 0.15629 0.02969 0.0
C39 C 0.65604 0.06093 0.14851 0.0
O40 O 0.64457 0.14528 0.06502 0.0
O41 O 0.67033 0.08779 0.13033 0.0
C42 C 0.80559 0.93436 0.32422 0.0
O43 O 0.80845 0.95232 0.35113 0.0
Cd44 Cd 0.84343 0.93228 0.39782 0.0
O45 O 0.82266 0.90277 0.31966 0.0
Cd46 Cd 0.86763 0.86061 0.34984 0.0
C47 C 0.80171 0.84054 0.41035 0.0
O48 O 0.90237 0.91505 0.37353 0.0
O49 O 0.92085 0.86016 0.39053 0.0
O50 O 0.89792 0.85211 0.29668 0.0
C51 C 0.92488 0.89675 0.39139 0.0
O52 O 0.80866 0.87497 0.42044 0.0
C53 C 0.90334 0.81625 0.30021 0.0
O54 O 0.81706 0.82858 0.38411 0.0
O55 O 0.89111 0.80053 0.32658 0.0
C56 C 0.04256 0.66559 0.13111 0.0
O57 O 0.02663 0.66486 0.10329 0.0
Cd58 Cd 0.04382 0.62711 0.05737 0.0
O59 O 0.07185 0.64542 0.13698 0.0
Cd60 Cd 0.11393 0.59931 0.10717 0.0
C61 C 0.13695 0.66452 0.04578 0.0
O62 O 0.0585 0.56772 0.08272 0.0
O63 O 0.11204 0.54291 0.06941 0.0
O64 O 0.12361 0.57039 0.16094 0.0
C65 C 0.07564 0.54263 0.06645 0.0
O66 O 0.10197 0.66102 0.03641 0.0
C67 C 0.15941 0.56522 0.15669 0.0
O68 O 0.14844 0.64655 0.07087 0.0
O69 O 0.17418 0.57662 0.12972 0.0
C70 C 0.31404 0.43248 0.32638 0.0
O71 O 0.31668 0.44723 0.35461 0.0
Cd72 Cd 0.35766 0.42403 0.39658 0.0
O73 O 0.33263 0.40259 0.31915 0.0
Cd74 Cd 0.37667 0.3586 0.34783 0.0
C75 C 0.31435 0.33479 0.40926 0.0
O76 O 0.41825 0.40981 0.37153 0.0
O77 O 0.42562 0.3525 0.39047 0.0
O78 O 0.40677 0.34871 0.29454 0.0
C79 C 0.43742 0.38769 0.38925 0.0
O80 O 0.3246 0.36737 0.42161 0.0
C81 C 0.40932 0.31238 0.29784 0.0
O82 O 0.32582 0.32563 0.38086 0.0
O83 O 0.39599 0.29739 0.32409 0.0
C84 C 0.31557 0.93353 0.82389 0.0
O85 O 0.31884 0.94984 0.85146 0.0
Cd86 Cd 0.35712 0.92756 0.89512 0.0
O87 O 0.33301 0.90254 0.81783 0.0
Cd88 Cd 0.37619 0.85825 0.84773 0.0
C89 C 0.31288 0.83845 0.91011 0.0
O90 O 0.41718 0.90893 0.87167 0.0
O91 O 0.42352 0.85176 0.89168 0.0
O92 O 0.41964 0.84631 0.80204 0.0
C93 C 0.43548 0.88695 0.89022 0.0
O94 O 0.31955 0.87326 0.91926 0.0
C95 C 0.40933 0.8109 0.79861 0.0
O96 O 0.32846 0.82567 0.88431 0.0
O97 O 0.38307 0.79733 0.81775 0.0
C98 C 0.53068 0.64865 0.62744 0.0
O99 O 0.51298 0.64309 0.60076 0.0
Cd100 Cd 0.5393 0.60971 0.55513 0.0
O101 O 0.56392 0.63508 0.63188 0.0
Cd102 Cd 0.60921 0.59433 0.60099 0.0
C103 C 0.62558 0.66054 0.5412 0.0
O104 O 0.56218 0.55021 0.57551 0.0
O105 O 0.61918 0.55195 0.55381 0.0
O106 O 0.62181 0.5503 0.64586 0.0
C107 C 0.58552 0.53593 0.55544 0.0
O108 O 0.59229 0.64982 0.53059 0.0
C109 C 0.65731 0.56035 0.6487 0.0
O110 O 0.63797 0.64728 0.56799 0.0
O111 O 0.67061 0.58688 0.6297 0.0
H112 H 0.26936 0.27338 0.38686 0.0
H113 H 0.20278 0.19744 0.56311 0.0
H114 H 0.30233 0.3334 0.47517 0.0
H115 H 0.13506 0.17465 0.47678 0.0
H116 H 0.24741 0.23938 0.53066 0.0
H117 H 0.22738 0.22874 0.41918 0.0
C118 C 0.26788 0.27708 0.41303 0.0
C119 C 0.2892 0.30727 0.42834 0.0
C120 C 0.22278 0.22509 0.5189 0.0
C121 C 0.24173 0.25613 0.46536 0.0
C122 C 0.19744 0.20106 0.53733 0.0
C123 C 0.16506 0.18271 0.52264 0.0
C124 C 0.21605 0.23019 0.48549 0.0
C125 C 0.15948 0.18849 0.48914 0.0
C126 C 0.24386 0.25171 0.4314 0.0
C127 C 0.28615 0.31073 0.46234 0.0
N128 N 0.1848 0.2116 0.47166 0.0
N129 N 0.26299 0.28535 0.47974 0.0
H130 H 0.72429 0.58956 0.67593 0.0
H131 H 0.77397 0.39825 0.77211 0.0
H132 H 0.64625 0.48863 0.67612 0.0
H133 H 0.80192 0.51237 0.80995 0.0
H134 H 0.73694 0.42793 0.7283 0.0
H135 H 0.76368 0.55831 0.71709 0.0
C136 C 0.71561 0.56077 0.6845 0.0
C137 C 0.68189 0.54171 0.67285 0.0
C138 C 0.75132 0.4463 0.74625 0.0
C139 C 0.72698 0.50573 0.7192 0.0
C140 C 0.77249 0.42947 0.77107 0.0
C141 C 0.79073 0.45292 0.79475 0.0
C142 C 0.74941 0.48678 0.74472 0.0
C143 C 0.78793 0.49324 0.79236 0.0
C144 C 0.73796 0.54307 0.70797 0.0
C145 C 0.67188 0.50442 0.68474 0.0
N146 N 0.76788 0.50893 0.76767 0.0
N147 N 0.69448 0.48749 0.70716 0.0
H148 H 0.51994 -0.01081 0.06417 0.0
H149 H 0.48476 0.9495 0.88087 0.0
H150 H 0.60846 0.02321 -0.00607 0.0
H151 H 0.4504 0.86219 0.95197 0.0
H152 H 0.52698 0.98107 0.92155 0.0
H153 H 0.48981 0.94585 0.02353 0.0
C154 C 0.53318 -0.01281 0.04026 0.0
C155 C 0.56656 0.00975 0.03222 0.0
C156 C 0.51063 0.95466 0.92802 0.0
C157 C 0.532 0.96117 -0.01426 0.0
C158 C 0.4865 0.9368 0.90496 0.0
C159 C 0.46413 0.90336 0.91324 0.0
C160 C 0.51137 0.93958 0.95976 0.0
C161 C 0.46734 0.8879 0.94469 0.0
C162 C 0.51615 0.9624 0.01723 0.0
C163 C 0.58275 0.00615 0.00101 0.0
N164 N 0.48998 0.90662 0.96711 0.0
N165 N 0.56484 0.98283 -0.02141 0.0
H166 H 0.91979 0.83788 0.23744 0.0
H167 H 0.04914 0.65791 0.19755 0.0
H168 H 0.93476 0.74514 0.30626 0.0
H169 H -0.00335 0.72697 0.12354 0.0
H170 H 0.01588 0.69491 0.23948 0.0
H171 H 0.95599 0.80236 0.19683 0.0
C172 C 0.93065 0.81 0.24399 0.0
C173 C 0.9241 0.79434 0.27521 0.0
C174 C 0.01183 0.70193 0.21403 0.0
C175 C 0.966 0.7538 0.229 0.0
C176 C 0.03098 0.68106 0.19014 0.0
C177 C 0.02553 0.68928 0.15702 0.0
C178 C -0.01235 0.73157 0.20466 0.0
C179 C 0.00149 0.71945 0.14878 0.0
C180 C 0.95128 0.78975 0.2208 0.0
C181 C 0.93892 0.75812 0.28238 0.0
N182 N 0.98354 0.73952 0.1724 0.0
N183 N 0.95938 0.73912 0.25948 0.0
H184 H 0.25859 0.9845 0.83317 0.0
H185 H 0.22877 0.03011 0.64527 0.0
H186 H 0.31757 0.9231 0.75756 0.0
H187 H 0.14173 0.05051 0.7183 0.0
H188 H 0.26659 -0.00274 0.68644 0.0
H189 H 0.22008 0.01532 0.79163 0.0
C190 C 0.26344 0.97747 0.8078 0.0
C191 C 0.29137 0.95118 0.79879 0.0
C192 C 0.23918 0.00888 0.69337 0.0
C193 C 0.24759 -0.01328 0.75114 0.0
C194 C 0.2177 0.02781 0.66999 0.0
C195 C 0.18208 0.04308 0.67843 0.0
C196 C 0.22523 0.00581 0.72551 0.0
C197 C 0.169 0.0391 0.71075 0.0
C198 C 0.24133 -0.00501 0.78414 0.0
C199 C 0.29624 0.94307 0.76556 0.0
N200 N 0.1907 0.02106 0.73318 0.0
N201 N 0.27477 0.96105 0.74287 0.0
H202 H 0.92378 0.47451 0.91093 0.0
H203 H 0.10143 0.48023 0.03267 0.0
H204 H -0.01004 0.37332 0.92724 0.0
H205 H 0.00321 0.55204 0.04332 0.0
H206 H 0.06707 0.44422 -0.01074 0.0
H207 H 0.95969 0.50789 0.95415 0.0
C208 C 0.94606 0.45937 0.92349 0.0
C209 C 0.95385 0.42104 0.9156 0.0
C210 C 0.05312 0.46775 0.00131 0.0
C211 C -0.00491 0.45917 0.96506 0.0
C212 C 0.07265 0.4883 0.02596 0.0
C213 C 0.0551 0.51914 0.04154 0.0
C214 C 0.01624 0.47875 -0.00807 0.0
C215 C 0.01779 0.52842 0.03201 0.0
C216 C 0.96637 0.47838 0.94828 0.0
C217 C 0.983 0.40283 0.93273 0.0
N218 N -0.00025 0.50853 0.00763 0.0
N219 N 0.00276 0.42215 0.95668 0.0
H220 H 0.43633 0.23953 0.30411 0.0
H221 H 0.48702 0.2162 0.11629 0.0
H222 H 0.42455 0.33186 0.23431 0.0
H223 H 0.54392 0.15163 0.19079 0.0
H224 H 0.45646 0.25408 0.15867 0.0
H225 H 0.46838 0.20178 0.26215 0.0
C226 C 0.44032 0.25176 0.27993 0.0
C227 C 0.42776 0.28885 0.27263 0.0
C228 C 0.47573 0.2317 0.16572 0.0
C229 C 0.46405 0.24583 0.22466 0.0
C230 C 0.49307 0.20996 0.14159 0.0
C231 C 0.51806 0.1807 0.15005 0.0
C232 C 0.48282 0.22371 0.19861 0.0
C233 C 0.52498 0.17404 0.18322 0.0
C234 C 0.45879 0.23032 0.25611 0.0
C235 C 0.43386 0.30342 0.24097 0.0
N236 N 0.50717 0.19518 0.20636 0.0
N237 N 0.45135 0.28176 0.21808 0.0
H238 H 0.78406 0.84546 0.4751 0.0
H239 H 0.62178 0.67551 0.47584 0.0
H240 H 0.7601 0.77572 0.38993 0.0
H241 H 0.6865 0.70721 0.56198 0.0
H242 H 0.66481 0.7192 0.44359 0.0
H243 H 0.7409 0.80182 0.50708 0.0
C244 C 0.76962 0.82103 0.46309 0.0
C245 C 0.77569 0.81417 0.42979 0.0
C246 C 0.66951 0.71652 0.46955 0.0
C247 C 0.72601 0.7645 0.4662 0.0
C248 C 0.64487 0.69183 0.488 0.0
C249 C 0.65059 0.68773 0.52165 0.0
C250 C 0.69956 0.73783 0.48496 0.0
C251 C 0.68115 0.70939 0.53609 0.0
C252 C 0.74517 0.79609 0.4814 0.0
C253 C 0.75638 0.78195 0.41556 0.0
N254 N 0.70434 0.73373 0.5177 0.0
N255 N 0.73212 0.75843 0.43381 0.0
H256 H 0.23031 0.53436 0.14906 0.0
H257 H 0.25613 0.48252 0.33647 0.0
H258 H 0.14113 0.55188 0.22087 0.0
H259 H 0.3172 0.42478 0.25994 0.0
H260 H 0.21813 0.51469 0.29518 0.0
H261 H 0.26743 0.50088 0.19028 0.0
C262 C 0.21862 0.53132 0.17354 0.0
C263 C 0.18258 0.54591 0.18158 0.0
C264 C 0.23974 0.49485 0.28747 0.0
C265 C 0.22496 0.50788 0.22878 0.0
C266 C 0.26152 0.47656 0.31098 0.0
C267 C 0.28989 0.4509 0.30163 0.0
C268 C 0.24681 0.488 0.25432 0.0
C269 C 0.29551 0.4442 0.26824 0.0
C270 C 0.23971 0.51203 0.19696 0.0
C271 C 0.16875 0.54098 0.21363 0.0
N272 N 0.27438 0.4629 0.24576 0.0
N273 N 0.19007 0.52258 0.23613 0.0
H274 H 0.74085 0.35944 0.93983 0.0
H275 H 0.71146 0.15988 0.03342 0.0
H276 H 0.81354 0.26437 0.91839 0.0
H277 H 0.61409 0.22462 0.00308 0.0
H278 H 0.7543 0.2033 0.00036 0.0
H279 H 0.69833 0.31537 0.97223 0.0
C280 C 0.74784 0.32929 0.94197 0.0
C281 C 0.78062 0.31542 0.92635 0.0
C282 C 0.72353 0.20786 0.00105 0.0
C283 C 0.73272 0.26532 0.96381 0.0
C284 C 0.69919 0.18337 0.02 0.0
C285 C 0.65923 0.18871 0.02089 0.0
C286 C 0.70786 0.23842 -0.01633 0.0
C287 C 0.64472 0.21941 0.0029 0.0
C288 C 0.72356 0.30423 0.96034 0.0
C289 C 0.78835 0.27609 0.92986 0.0
N290 N 0.66908 0.24336 -0.01475 0.0
N291 N 0.76476 0.25241 0.94855 0.0
H292 H 0.76814 0.89743 0.27356 0.0
H293 H 0.72124 0.08998 0.17859 0.0
H294 H 0.79367 0.01075 0.31399 0.0
H295 H 0.64363 -0.01114 0.17506 0.0
H296 H 0.75842 0.05836 0.22102 0.0
H297 H 0.73188 0.9278 0.22966 0.0
C298 C 0.7662 0.92863 0.27313 0.0
C299 C 0.78367 0.95163 0.2975 0.0
C300 C 0.73327 0.04317 0.21084 0.0
C301 C 0.74325 0.9863 0.24732 0.0
C302 C 0.71219 0.06107 0.18663 0.0
C303 C 0.67925 0.04204 0.1735 0.0
C304 C 0.72185 0.00567 0.22136 0.0
C305 C 0.6687 0.00461 0.18478 0.0
C306 C 0.74549 0.94584 0.24823 0.0
C307 C 0.78031 -0.00807 0.29585 0.0
N308 N 0.69012 -0.01253 0.20794 0.0
N309 N 0.76077 0.00804 0.27104 0.0
H310 H 0.92068 0.97156 0.41069 0.0
H311 H 0.0989 0.97645 0.53108 0.0
H312 H 0.98317 0.86826 0.42846 0.0
H313 H 0.00012 0.04711 0.54368 0.0
H314 H 0.06368 0.94003 0.48829 0.0
H315 H 0.9575 0.00446 0.45361 0.0
C316 C 0.94237 0.95585 0.42349 0.0
C317 C 0.94881 0.91707 0.41613 0.0
C318 C 0.04982 0.96338 0.50068 0.0
C319 C -0.0089 0.95468 0.46522 0.0
C320 C 0.06982 0.98415 0.52495 0.0
C321 C 0.05237 0.01483 0.54086 0.0
C322 C 0.01261 0.97407 0.49195 0.0
C323 C 0.01465 0.02364 0.5321 0.0
C324 C 0.96318 0.97459 0.44811 0.0
C325 C 0.97724 0.89814 0.43357 0.0
N326 N -0.00379 0.00362 0.50802 0.0
N327 N -0.00242 0.91723 0.45733 0.0
H328 H 0.92623 0.3401 0.73576 0.0
H329 H 0.05119 0.15753 0.69454 0.0
H330 H 0.94126 0.2472 0.80442 0.0
H331 H -0.00222 0.22615 0.62073 0.0
H332 H 0.01962 0.19559 0.7366 0.0
H333 H 0.96055 0.30365 0.69449 0.0
C334 C 0.93675 0.31203 0.74215 0.0
C335 C 0.93076 0.29657 0.77352 0.0
C336 C 0.01496 0.20229 0.71117 0.0
C337 C 0.97045 0.255 0.72656 0.0
C338 C 0.03314 0.1808 0.68718 0.0
C339 C 0.027 0.1886 0.65407 0.0
C340 C -0.00899 0.23216 0.70195 0.0
C341 C 0.00315 0.21897 0.64594 0.0
C342 C 0.95628 0.29125 0.71858 0.0
C343 C 0.94505 0.26007 0.78046 0.0
N344 N -0.01388 0.23968 0.6697 0.0
N345 N 0.96443 0.24057 0.7572 0.0
H346 H 0.4536 0.65773 0.63799 0.0
H347 H 0.48018 0.82281 0.76985 0.0
H348 H 0.56623 0.69107 0.67581 0.0
H349 H 0.37998 0.74388 0.7711 0.0
H350 H 0.51028 0.78205 0.72892 0.0
H351 H 0.42385 0.69639 0.68057 0.0
C352 C 0.47205 0.67322 0.65524 0.0
C353 C 0.51244 0.67122 0.65342 0.0
C354 C 0.48175 0.77369 0.73826 0.0
C355 C 0.47865 0.7158 0.70167 0.0
C356 C 0.46448 0.79697 0.76141 0.0
C357 C 0.42756 0.78663 0.77382 0.0
C358 C 0.46155 0.74038 0.72689 0.0
C359 C 0.40855 0.75276 0.76221 0.0
C360 C 0.45505 0.69507 0.67955 0.0
C361 C 0.53498 0.6917 0.67647 0.0
N362 N 0.42562 0.73099 0.7391 0.0
N363 N 0.51779 0.71353 0.69946 0.0
H364 H 0.21483 0.6571 0.03632 0.0
H365 H 0.2518 0.85892 0.9475 0.0
H366 H 0.12092 0.72994 0.0124 0.0
H367 H 0.31513 0.75984 0.91832 0.0
H368 H 0.20942 0.81633 -0.01872 0.0
H369 H 0.25857 0.69915 0.00271 0.0
C370 C 0.20355 0.68207 0.02423 0.0
C371 C 0.16427 0.6901 0.02702 0.0
C372 C 0.23261 0.804 0.96744 0.0
C373 C 0.21389 0.73819 -0.01073 0.0
C374 C 0.2568 0.82821 0.94827 0.0
C375 C 0.28684 0.81278 0.93001 0.0
C376 C 0.23914 0.76429 0.96904 0.0
C377 C 0.29205 0.77277 0.93184 0.0
C378 C 0.22836 0.70578 0.00496 0.0
C379 C 0.15098 0.72264 0.0107 0.0
N380 N 0.26862 0.74985 0.95131 0.0
N381 N 0.17581 0.74572 -0.00725 0.0
H382 H 0.45745 0.35811 0.44823 0.0
H383 H 0.60931 0.52979 0.49209 0.0
H384 H 0.48286 0.45376 0.38252 0.0
H385 H 0.52911 0.47932 0.56289 0.0
H386 H 0.57887 0.48857 0.44989 0.0
H387 H 0.50006 0.38948 0.4888 0.0
C388 C 0.47255 0.38534 0.44214 0.0
C389 C 0.46647 0.40366 0.41218 0.0
C390 C 0.56847 0.48623 0.4748 0.0
C391 C 0.51536 0.43904 0.45801 0.0
C392 C 0.58585 0.50947 0.49883 0.0
C393 C 0.5714 0.50797 0.53084 0.0
C394 C 0.53721 0.4608 0.48318 0.0
C395 C 0.5408 0.48143 0.53837 0.0
C396 C 0.49664 0.40319 0.46528 0.0
C397 C 0.48657 0.43897 0.40551 0.0
N398 N 0.52467 0.4588 0.51467 0.0
N399 N 0.51019 0.4556 0.4283 0.0
loop_
_geom_bond_atom_site_label_1
_geom_bond_atom_site_label_2
_geom_bond_distance
_geom_bond_site_symmetry_2
_ccdc_geom_bond_type
C0 O1 1.306 . S
C0 O3 1.160 . S
O1 C0 1.306 . S
O1 Cd2 2.228 . S
Cd2 O1 2.228 . S
Cd2 O6 2.273 . S
Cd2 O10 2.277 . S
O3 C0 1.160 . S
O3 Cd4 2.203 . S
Cd4 O3 2.203 . S
Cd4 O6 2.411 . S
Cd4 O7 2.333 . S
Cd4 O8 2.352 . S
Cd4 O12 2.277 . S
Cd4 O13 2.356 . S
C5 O10 1.209 . S
C5 O12 1.226 . S
O6 Cd2 2.273 . S
O6 Cd4 2.411 . S
O6 C9 1.320 . S
O7 Cd4 2.333 . S
O7 C9 1.214 . S
O8 Cd4 2.352 . S
O8 C11 1.258 . S
C9 O6 1.320 . S
C9 O7 1.214 . S
O10 Cd2 2.277 . S
O10 C5 1.209 . S
C11 O8 1.258 . S
C11 O13 1.282 . S
O12 Cd4 2.277 . S
O12 C5 1.226 . S
O13 Cd4 2.356 . S
O13 C11 1.282 . S
C14 O15 1.306 . S
C14 O17 1.160 . S
O15 C14 1.306 . S
O15 Cd16 2.228 . S
Cd16 O15 2.228 . S
Cd16 O20 2.273 . S
Cd16 O24 2.277 . S
O17 C14 1.160 . S
O17 Cd18 2.203 . S
Cd18 O17 2.203 . S
Cd18 O20 2.411 . S
Cd18 O21 2.333 . S
Cd18 O22 2.352 . S
Cd18 O26 2.277 . S
Cd18 O27 2.356 . S
C19 O24 1.209 . S
C19 O26 1.226 . S
O20 Cd16 2.273 . S
O20 Cd18 2.411 . S
O20 C23 1.320 . S
O21 Cd18 2.333 . S
O21 C23 1.214 . S
O22 Cd18 2.352 . S
O22 C25 1.258 . S
C23 O20 1.320 . S
C23 O21 1.214 . S
O24 Cd16 2.277 . S
O24 C19 1.209 . S
C25 O22 1.258 . S
C25 O27 1.282 . S
O26 Cd18 2.277 . S
O26 C19 1.226 . S
O27 Cd18 2.356 . S
O27 C25 1.282 . S
C28 O29 1.306 . S
C28 O31 1.160 . S
O29 C28 1.306 . S
O29 Cd30 2.228 . S
Cd30 O29 2.228 . S
Cd30 O34 2.273 . S
Cd30 O38 2.277 . S
O31 C28 1.160 . S
O31 Cd32 2.203 . S
Cd32 O31 2.203 . S
Cd32 O34 2.411 . S
Cd32 O35 2.333 . S
Cd32 O36 2.352 . S
Cd32 O40 2.277 . S
Cd32 O41 2.356 . S
C33 O38 1.209 . S
C33 O40 1.226 . S
O34 Cd30 2.273 . S
O34 Cd32 2.411 . S
O34 C37 1.320 . S
O35 Cd32 2.333 . S
O35 C37 1.214 . S
O36 Cd32 2.352 . S
O36 C39 1.258 . S
C37 O34 1.320 . S
C37 O35 1.214 . S
O38 Cd30 2.277 . S
O38 C33 1.209 . S
C39 O36 1.258 . S
C39 O41 1.282 . S
O40 Cd32 2.277 . S
O40 C33 1.226 . S
O41 Cd32 2.356 . S
O41 C39 1.282 . S
C42 O43 1.306 . S
C42 O45 1.160 . S
O43 C42 1.306 . S
O43 Cd44 2.228 . S
Cd44 O43 2.228 . S
Cd44 O48 2.273 . S
Cd44 O52 2.277 . S
O45 C42 1.160 . S
O45 Cd46 2.203 . S
Cd46 O45 2.203 . S
Cd46 O48 2.411 . S
Cd46 O49 2.333 . S
Cd46 O50 2.352 . S
Cd46 O54 2.277 . S
Cd46 O55 2.356 . S
C47 O52 1.209 . S
C47 O54 1.226 . S
O48 Cd44 2.273 . S
O48 Cd46 2.411 . S
O48 C51 1.320 . S
O49 Cd46 2.333 . S
O49 C51 1.214 . S
O50 Cd46 2.352 . S
O50 C53 1.258 . S
C51 O48 1.320 . S
C51 O49 1.214 . S
O52 Cd44 2.277 . S
O52 C47 1.209 . S
C53 O50 1.258 . S
C53 O55 1.282 . S
O54 Cd46 2.277 . S
O54 C47 1.226 . S
O55 Cd46 2.356 . S
O55 C53 1.282 . S
C56 O57 1.306 . S
C56 O59 1.160 . S
O57 C56 1.306 . S
O57 Cd58 2.228 . S
Cd58 O57 2.228 . S
Cd58 O62 2.273 . S
Cd58 O66 2.277 . S
O59 C56 1.160 . S
O59 Cd60 2.203 . S
Cd60 O59 2.203 . S
Cd60 O62 2.411 . S
Cd60 O63 2.333 . S
Cd60 O64 2.352 . S
Cd60 O68 2.277 . S
Cd60 O69 2.356 . S
C61 O66 1.209 . S
C61 O68 1.226 . S
O62 Cd58 2.273 . S
O62 Cd60 2.411 . S
O62 C65 1.320 . S
O63 Cd60 2.333 . S
O63 C65 1.214 . S
O64 Cd60 2.352 . S
O64 C67 1.258 . S
C65 O62 1.320 . S
C65 O63 1.214 . S
O66 Cd58 2.277 . S
O66 C61 1.209 . S
C67 O64 1.258 . S
C67 O69 1.282 . S
O68 Cd60 2.277 . S
O68 C61 1.226 . S
O69 Cd60 2.356 . S
O69 C67 1.282 . S
C70 O71 1.306 . S
C70 O73 1.160 . S
O71 C70 1.306 . S
O71 Cd72 2.228 . S
Cd72 O71 2.228 . S
Cd72 O76 2.273 . S
Cd72 O80 2.277 . S
O73 C70 1.160 . S
O73 Cd74 2.203 . S
Cd74 O73 2.203 . S
Cd74 O76 2.411 . S
Cd74 O77 2.333 . S
Cd74 O78 2.352 . S
Cd74 O82 2.277 . S
Cd74 O83 2.356 . S
C75 O80 1.209 . S
C75 O82 1.226 . S
O76 Cd72 2.273 . S
O76 Cd74 2.411 . S
O76 C79 1.320 . S
O77 Cd74 2.333 . S
O77 C79 1.214 . S
O78 Cd74 2.352 . S
O78 C81 1.258 . S
C79 O76 1.320 . S
C79 O77 1.214 . S
O80 Cd72 2.277 . S
O80 C75 1.209 . S
C81 O78 1.258 . S
C81 O83 1.282 . S
O82 Cd74 2.277 . S
O82 C75 1.226 . S
O83 Cd74 2.356 . S
O83 C81 1.282 . S
C84 O85 1.306 . S
C84 O87 1.160 . S
O85 C84 1.306 . S
O85 Cd86 2.228 . S
Cd86 O85 2.228 . S
Cd86 O90 2.273 . S
Cd86 O94 2.277 . S
O87 C84 1.160 . S
O87 Cd88 2.203 . S
Cd88 O87 2.203 . S
Cd88 O90 2.411 . S
Cd88 O91 2.333 . S
Cd88 O92 2.352 . S
Cd88 O96 2.277 . S
Cd88 O97 2.356 . S
C89 O94 1.209 . S
C89 O96 1.226 . S
O90 Cd86 2.273 . S
O90 Cd88 2.411 . S
O90 C93 1.320 . S
O91 Cd88 2.333 . S
O91 C93 1.214 . S
O92 Cd88 2.352 . S
O92 C95 1.258 . S
C93 O90 1.320 . S
C93 O91 1.214 . S
O94 Cd86 2.277 . S
O94 C89 1.209 . S
C95 O92 1.258 . S
C95 O97 1.282 . S
O96 Cd88 2.277 . S
O96 C89 1.226 . S
O97 Cd88 2.356 . S
O97 C95 1.282 . S
C98 O99 1.306 . S
C98 O101 1.160 . S
O99 C98 1.306 . S
O99 Cd100 2.228 . S
Cd100 O99 2.228 . S
Cd100 O104 2.273 . S
Cd100 O108 2.277 . S
O101 C98 1.160 . S
O101 Cd102 2.203 . S
Cd102 O101 2.203 . S
Cd102 O104 2.411 . S
Cd102 O105 2.333 . S
Cd102 O106 2.352 . S
Cd102 O110 2.277 . S
Cd102 O111 2.356 . S
C103 O108 1.209 . S
C103 O110 1.226 . S
O104 Cd100 2.273 . S
O104 Cd102 2.411 . S
O104 C107 1.320 . S
O105 Cd102 2.333 . S
O105 C107 1.214 . S
O106 Cd102 2.352 . S
O106 C109 1.258 . S
C107 O104 1.320 . S
C107 O105 1.214 . S
O108 Cd100 2.277 . S
O108 C103 1.209 . S
C109 O106 1.258 . S
C109 O111 1.282 . S
O110 Cd102 2.277 . S
O110 C103 1.226 . S
O111 Cd102 2.356 . S
O111 C109 1.282 . S
H112 C118 0.930 . S
H113 C122 0.930 . S
H114 C127 0.929 . S
H115 C125 0.929 . S
H116 C120 0.929 . S
H117 C126 0.929 . S
C118 H112 0.930 . S
C118 C119 1.367 . S
C118 C126 1.378 . S
C119 C118 1.367 . S
C119 C127 1.433 . S
C120 H116 0.929 . S
C120 C122 1.378 . S
C120 C124 1.350 . S
C121 C124 1.463 . S
C121 C126 1.350 . S
C121 N129 1.427 . S
C122 H113 0.930 . S
C122 C120 1.378 . S
C122 C123 1.367 . S
C123 C122 1.367 . S
C123 C125 1.433 . S
C124 C120 1.350 . S
C124 C121 1.463 . S
C124 N128 1.427 . S
C125 H115 0.929 . S
C125 C123 1.433 . S
C125 N128 1.384 . S
C126 H117 0.929 . S
C126 C118 1.378 . S
C126 C121 1.350 . S
C127 H114 0.929 . S
C127 C119 1.433 . S
C127 N129 1.384 . S
N128 C124 1.427 . S
N128 C125 1.384 . S
N129 C121 1.427 . S
N129 C127 1.384 . S
H130 C136 0.930 . S
H131 C140 0.930 . S
H132 C145 0.929 . S
H133 C143 0.929 . S
H134 C138 0.929 . S
H135 C144 0.929 . S
C136 H130 0.930 . S
C136 C137 1.367 . S
C136 C144 1.378 . S
C137 C136 1.367 . S
C137 C145 1.433 . S
C138 H134 0.929 . S
C138 C140 1.378 . S
C138 C142 1.350 . S
C139 C142 1.463 . S
C139 C144 1.350 . S
C139 N147 1.427 . S
C140 H131 0.930 . S
C140 C138 1.378 . S
C140 C141 1.367 . S
C141 C140 1.367 . S
C141 C143 1.433 . S
C142 C138 1.350 . S
C142 C139 1.463 . S
C142 N146 1.427 . S
C143 H133 0.929 . S
C143 C141 1.433 . S
C143 N146 1.384 . S
C144 H135 0.929 . S
C144 C136 1.378 . S
C144 C139 1.350 . S
C145 H132 0.929 . S
C145 C137 1.433 . S
C145 N147 1.384 . S
N146 C142 1.427 . S
N146 C143 1.384 . S
N147 C139 1.427 . S
N147 C145 1.384 . S
H148 C154 0.930 . S
H149 C158 0.930 . S
H150 C163 0.929 . S
H151 C161 0.929 . S
H152 C156 0.929 . S
H153 C162 0.929 . S
C154 H148 0.930 . S
C154 C155 1.367 . S
C154 C162 1.378 . S
C155 C154 1.367 . S
C155 C163 1.433 . S
C156 H152 0.929 . S
C156 C158 1.378 . S
C156 C160 1.350 . S
C157 C160 1.463 1_544 S
C157 C162 1.350 . S
C157 N165 1.427 . S
C158 H149 0.930 . S
C158 C156 1.378 . S
C158 C159 1.367 . S
C159 C158 1.367 . S
C159 C161 1.433 . S
C160 C156 1.350 . S
C160 C157 1.463 1_566 S
C160 N164 1.427 . S
C161 H151 0.929 . S
C161 C159 1.433 . S
C161 N164 1.384 . S
C162 H153 0.929 . S
C162 C154 1.378 . S
C162 C157 1.350 . S
C163 H150 0.929 . S
C163 C155 1.433 . S
C163 N165 1.384 . S
N164 C160 1.427 . S
N164 C161 1.384 . S
N165 C157 1.427 . S
N165 C163 1.384 . S
H166 C172 0.928 1_455 S
H167 C176 0.930 . S
H168 C181 0.929 . S
H169 C179 0.929 . S
H170 C174 0.929 1_655 S
H171 C180 0.929 . S
C172 H166 0.928 1_655 S
C172 C173 1.367 . S
C172 C180 1.378 1_655 S
C173 C172 1.367 . S
C173 C181 1.433 . S
C174 H170 0.929 1_455 S
C174 C176 1.378 . S
C174 C178 1.350 . S
C175 C178 1.463 . S
C175 C180 1.350 . S
C175 N183 1.427 1_455 S
C176 H167 0.930 . S
C176 C174 1.378 . S
C176 C177 1.367 . S
C177 C176 1.367 . S
C177 C179 1.433 . S
C178 C174 1.350 . S
C178 C175 1.463 . S
C178 N182 1.427 . S
C179 H169 0.929 . S
C179 C177 1.433 . S
C179 N182 1.384 . S
C180 H171 0.929 . S
C180 C172 1.378 1_455 S
C180 C175 1.350 . S
C181 H168 0.929 . S
C181 C173 1.433 . S
C181 N183 1.384 . S
N182 C178 1.427 . S
N182 C179 1.384 . S
N183 C175 1.427 1_655 S
N183 C181 1.384 . S
H184 C190 0.930 . S
H185 C194 0.930 1_565 S
H186 C199 0.929 . S
H187 C197 0.929 . S
H188 C192 0.929 . S
H189 C198 0.929 1_545 S
C190 H184 0.930 . S
C190 C191 1.367 . S
C190 C198 1.378 . S
C191 C190 1.367 . S
C191 C199 1.433 . S
C192 H188 0.929 . S
C192 C194 1.378 1_565 S
C192 C196 1.350 . S
C193 C196 1.463 . S
C193 C198 1.350 . S
C193 N201 1.427 . S
C194 H185 0.930 1_545 S
C194 C192 1.378 1_545 S
C194 C195 1.367 . S
C195 C194 1.367 . S
C195 C197 1.433 . S
C196 C192 1.350 . S
C196 C193 1.463 . S
C196 N200 1.427 1_565 S
C197 H187 0.929 . S
C197 C195 1.433 . S
C197 N200 1.384 . S
C198 H189 0.929 1_565 S
C198 C190 1.378 . S
C198 C193 1.350 . S
C199 H186 0.929 . S
C199 C191 1.433 . S
C199 N201 1.384 . S
N200 C196 1.427 1_545 S
N200 C197 1.384 . S
N201 C193 1.427 . S
N201 C199 1.384 . S
H202 C208 0.930 . S
H203 C212 0.930 . S
H204 C217 0.929 . S
H205 C215 0.929 . S
H206 C210 0.929 . S
H207 C216 0.929 . S
C208 H202 0.930 . S
C208 C209 1.367 . S
C208 C216 1.378 . S
C209 C208 1.367 . S
C209 C217 1.433 . S
C210 H206 0.929 . S
C210 C212 1.378 . S
C210 C214 1.350 . S
C211 C214 1.463 1_656 S
C211 C216 1.350 . S
C211 N219 1.427 1_655 S
C212 H203 0.930 . S
C212 C210 1.378 . S
C212 C213 1.367 . S
C213 C212 1.367 . S
C213 C215 1.433 . S
C214 C210 1.350 . S
C214 C211 1.463 1_454 S
C214 N218 1.427 . S
C215 H205 0.929 . S
C215 C213 1.433 . S
C215 N218 1.384 . S
C216 H207 0.929 . S
C216 C208 1.378 . S
C216 C211 1.350 . S
C217 H204 0.929 . S
C217 C209 1.433 . S
C217 N219 1.384 1_655 S
N218 C214 1.427 . S
N218 C215 1.384 . S
N219 C211 1.427 1_455 S
N219 C217 1.384 1_455 S
H220 C226 0.930 . S
H221 C230 0.930 . S
H222 C235 0.929 . S
H223 C233 0.929 . S
H224 C228 0.929 . S
H225 C234 0.929 . S
C226 H220 0.930 . S
C226 C227 1.367 . S
C226 C234 1.378 . S
C227 C226 1.367 . S
C227 C235 1.433 . S
C228 H224 0.929 . S
C228 C230 1.378 . S
C228 C232 1.350 . S
C229 C232 1.463 . S
C229 C234 1.350 . S
C229 N237 1.427 . S
C230 H221 0.930 . S
C230 C228 1.378 . S
C230 C231 1.367 . S
C231 C230 1.367 . S
C231 C233 1.433 . S
C232 C228 1.350 . S
C232 C229 1.463 . S
C232 N236 1.427 . S
C233 H223 0.929 . S
C233 C231 1.433 . S
C233 N236 1.384 . S
C234 H225 0.929 . S
C234 C226 1.378 . S
C234 C229 1.350 . S
C235 H222 0.929 . S
C235 C227 1.433 . S
C235 N237 1.384 . S
N236 C232 1.427 . S
N236 C233 1.384 . S
N237 C229 1.427 . S
N237 C235 1.384 . S
H238 C244 0.930 . S
H239 C248 0.930 . S
H240 C253 0.929 . S
H241 C251 0.929 . S
H242 C246 0.929 . S
H243 C252 0.929 . S
C244 H238 0.930 . S
C244 C245 1.367 . S
C244 C252 1.378 . S
C245 C244 1.367 . S
C245 C253 1.433 . S
C246 H242 0.929 . S
C246 C248 1.378 . S
C246 C250 1.350 . S
C247 C250 1.463 . S
C247 C252 1.350 . S
C247 N255 1.427 . S
C248 H239 0.930 . S
C248 C246 1.378 . S
C248 C249 1.367 . S
C249 C248 1.367 . S
C249 C251 1.433 . S
C250 C246 1.350 . S
C250 C247 1.463 . S
C250 N254 1.427 . S
C251 H241 0.929 . S
C251 C249 1.433 . S
C251 N254 1.384 . S
C252 H243 0.929 . S
C252 C244 1.378 . S
C252 C247 1.350 . S
C253 H240 0.929 . S
C253 C245 1.433 . S
C253 N255 1.384 . S
N254 C250 1.427 . S
N254 C251 1.384 . S
N255 C247 1.427 . S
N255 C253 1.384 . S
H256 C262 0.930 . S
H257 C266 0.930 . S
H258 C271 0.929 . S
H259 C269 0.929 . S
H260 C264 0.929 . S
H261 C270 0.929 . S
C262 H256 0.930 . S
C262 C263 1.367 . S
C262 C270 1.378 . S
C263 C262 1.367 . S
C263 C271 1.433 . S
C264 H260 0.929 . S
C264 C266 1.378 . S
C264 C268 1.350 . S
C265 C268 1.463 . S
C265 C270 1.350 . S
C265 N273 1.427 . S
C266 H257 0.930 . S
C266 C264 1.378 . S
C266 C267 1.367 . S
C267 C266 1.367 . S
C267 C269 1.433 . S
C268 C264 1.350 . S
C268 C265 1.463 . S
C268 N272 1.427 . S
C269 H259 0.929 . S
C269 C267 1.433 . S
C269 N272 1.384 . S
C270 H261 0.929 . S
C270 C262 1.378 . S
C270 C265 1.350 . S
C271 H258 0.929 . S
C271 C263 1.433 . S
C271 N273 1.384 . S
N272 C268 1.427 . S
N272 C269 1.384 . S
N273 C265 1.427 . S
N273 C271 1.384 . S
H274 C280 0.930 . S
H275 C284 0.930 . S
H276 C289 0.929 . S
H277 C287 0.929 . S
H278 C282 0.929 1_556 S
H279 C288 0.929 1_554 S
C280 H274 0.930 . S
C280 C281 1.367 . S
C280 C288 1.378 . S
C281 C280 1.367 . S
C281 C289 1.433 . S
C282 H278 0.929 1_554 S
C282 C284 1.378 . S
C282 C286 1.350 . S
C283 C286 1.463 1_556 S
C283 C288 1.350 . S
C283 N291 1.427 . S
C284 H275 0.930 . S
C284 C282 1.378 . S
C284 C285 1.367 . S
C285 C284 1.367 . S
C285 C287 1.433 . S
C286 C282 1.350 . S
C286 C283 1.463 1_554 S
C286 N290 1.427 . S
C287 H277 0.929 . S
C287 C285 1.433 . S
C287 N290 1.384 . S
C288 H279 0.929 1_556 S
C288 C280 1.378 . S
C288 C283 1.350 . S
C289 H276 0.929 . S
C289 C281 1.433 . S
C289 N291 1.384 . S
N290 C286 1.427 . S
N290 C287 1.384 . S
N291 C283 1.427 . S
N291 C289 1.384 . S
H292 C298 0.930 . S
H293 C302 0.930 . S
H294 C307 0.929 . S
H295 C305 0.941 . S
H296 C300 0.929 . S
H297 C306 0.929 . S
C298 H292 0.930 . S
C298 C299 1.367 . S
C298 C306 1.378 . S
C299 C298 1.367 . S
C299 C307 1.433 . S
C300 H296 0.929 . S
C300 C302 1.378 . S
C300 C304 1.350 1_545 S
C301 C304 1.463 . S
C301 C306 1.350 . S
C301 N309 1.427 . S
C302 H293 0.930 . S
C302 C300 1.378 . S
C302 C303 1.367 . S
C303 C302 1.367 . S
C303 C305 1.404 1_545 S
C304 C300 1.350 1_565 S
C304 C301 1.463 . S
C304 N308 1.427 . S
C305 H295 0.941 . S
C305 C303 1.404 1_565 S
C305 N308 1.400 . S
C306 H297 0.929 . S
C306 C298 1.378 . S
C306 C301 1.350 . S
C307 H294 0.929 . S
C307 C299 1.433 . S
C307 N309 1.384 . S
N308 C304 1.427 . S
N308 C305 1.400 . S
N309 C301 1.427 . S
N309 C307 1.384 . S
H310 C316 0.930 . S
H311 C320 0.930 . S
H312 C325 0.929 1_455 S
H313 C323 0.929 . S
H314 C318 0.929 1_565 S
H315 C324 0.929 . S
C316 H310 0.930 . S
C316 C317 1.367 . S
C316 C324 1.378 . S
C317 C316 1.367 . S
C317 C325 1.433 . S
C318 H314 0.929 1_545 S
C318 C320 1.378 . S
C318 C322 1.350 . S
C319 C322 1.463 1_665 S
C319 C324 1.350 . S
C319 N327 1.427 1_655 S
C320 H311 0.930 . S
C320 C318 1.378 . S
C320 C321 1.367 . S
C321 C320 1.367 . S
C321 C323 1.433 . S
C322 C318 1.350 . S
C322 C319 1.463 1_445 S
C322 N326 1.427 . S
C323 H313 0.929 . S
C323 C321 1.433 . S
C323 N326 1.384 . S
C324 H315 0.929 . S
C324 C316 1.378 . S
C324 C319 1.350 . S
C325 H312 0.929 1_655 S
C325 C317 1.433 . S
C325 N327 1.384 1_655 S
N326 C322 1.427 . S
N326 C323 1.384 . S
N327 C319 1.427 1_455 S
N327 C325 1.384 1_455 S
H328 C334 0.930 . S
H329 C338 0.930 . S
H330 C343 0.929 . S
H331 C341 0.929 . S
H332 C336 0.929 1_655 S
H333 C342 0.929 . S
C334 H328 0.930 . S
C334 C335 1.367 . S
C334 C342 1.378 1_655 S
C335 C334 1.367 . S
C335 C343 1.433 . S
C336 H332 0.929 1_455 S
C336 C338 1.378 . S
C336 C340 1.350 . S
C337 C340 1.463 . S
C337 C342 1.350 . S
C337 N345 1.427 1_455 S
C338 H329 0.930 . S
C338 C336 1.378 . S
C338 C339 1.367 . S
C339 C338 1.367 . S
C339 C341 1.433 . S
C340 C336 1.350 . S
C340 C337 1.463 . S
C340 N344 1.427 . S
C341 H331 0.929 . S
C341 C339 1.433 . S
C341 N344 1.384 . S
C342 H333 0.929 . S
C342 C334 1.378 1_455 S
C342 C337 1.350 . S
C343 H330 0.929 . S
C343 C335 1.433 . S
C343 N345 1.384 . S
N344 C340 1.427 . S
N344 C341 1.384 . S
N345 C337 1.427 1_655 S
N345 C343 1.384 . S
H346 C352 0.930 . S
H347 C356 0.930 . S
H348 C361 0.929 . S
H349 C359 0.929 . S
H350 C354 0.929 . S
H351 C360 0.929 . S
C352 H346 0.930 . S
C352 C353 1.367 . S
C352 C360 1.378 . S
C353 C352 1.367 . S
C353 C361 1.433 . S
C354 H350 0.929 . S
C354 C356 1.378 . S
C354 C358 1.350 . S
C355 C358 1.463 . S
C355 C360 1.350 . S
C355 N363 1.427 . S
C356 H347 0.930 . S
C356 C354 1.378 . S
C356 C357 1.367 . S
C357 C356 1.367 . S
C357 C359 1.433 . S
C358 C354 1.350 . S
C358 C355 1.463 . S
C358 N362 1.427 . S
C359 H349 0.929 . S
C359 C357 1.433 . S
C359 N362 1.384 . S
C360 H351 0.929 . S
C360 C352 1.378 . S
C360 C355 1.350 . S
C361 H348 0.929 . S
C361 C353 1.433 . S
C361 N363 1.384 . S
N362 C358 1.427 . S
N362 C359 1.384 . S
N363 C355 1.427 . S
N363 C361 1.384 . S
H364 C370 0.930 . S
H365 C374 0.930 . S
H366 C379 0.929 . S
H367 C377 0.929 . S
H368 C372 0.929 . S
H369 C378 0.929 . S
C370 H364 0.930 . S
C370 C371 1.367 . S
C370 C378 1.378 . S
C371 C370 1.367 . S
C371 C379 1.433 . S
C372 H368 0.929 . S
C372 C374 1.378 . S
C372 C376 1.350 . S
C373 C376 1.463 1_554 S
C373 C378 1.350 . S
C373 N381 1.427 . S
C374 H365 0.930 . S
C374 C372 1.378 . S
C374 C375 1.367 . S
C375 C374 1.367 . S
C375 C377 1.433 . S
C376 C372 1.350 . S
C376 C373 1.463 1_556 S
C376 N380 1.427 . S
C377 H367 0.929 . S
C377 C375 1.433 . S
C377 N380 1.384 . S
C378 H369 0.929 . S
C378 C370 1.378 . S
C378 C373 1.350 . S
C379 H366 0.929 . S
C379 C371 1.433 . S
C379 N381 1.384 . S
N380 C376 1.427 . S
N380 C377 1.384 . S
N381 C373 1.427 . S
N381 C379 1.384 . S
H382 C388 0.930 . S
H383 C392 0.930 . S
H384 C397 0.929 . S
H385 C395 0.929 . S
H386 C390 0.929 . S
H387 C396 0.929 . S
C388 H382 0.930 . S
C388 C389 1.367 . S
C388 C396 1.378 . S
C389 C388 1.367 . S
C389 C397 1.433 . S
C390 H386 0.929 . S
C390 C392 1.378 . S
C390 C394 1.350 . S
C391 C394 1.463 . S
C391 C396 1.350 . S
C391 N399 1.427 . S
C392 H383 0.930 . S
C392 C390 1.378 . S
C392 C393 1.367 . S
C393 C392 1.367 . S
C393 C395 1.433 . S
C394 C390 1.350 . S
C394 C391 1.463 . S
C394 N398 1.427 . S
C395 H385 0.929 . S
C395 C393 1.433 . S
C395 N398 1.384 . S
C396 H387 0.929 . S
C396 C388 1.378 . S
C396 C391 1.350 . S
C397 H384 0.929 . S
C397 C389 1.433 . S
C397 N399 1.384 . S
N398 C394 1.427 . S
N398 C395 1.384 . S
N399 C391 1.427 . S
N399 C397 1.384 . S
C119 C75 1.556 . S
C123 C5 1.555 . S
C137 C109 1.531 . S
C141 C14 1.537 . S
C155 C37 1.532 . S
C159 C93 1.532 . S
C173 C53 1.536 . S
C177 C56 1.533 . S
C191 C84 1.531 . S
C195 C11 1.533 . S
C209 C23 1.532 . S
C213 C65 1.532 . S
C227 C81 1.530 . S
C231 C28 1.536 . S
C245 C47 1.556 . S
C249 C103 1.555 . S
C263 C67 1.530 . S
C267 C70 1.536 . S
C281 C19 1.557 . S
C285 C33 1.554 . S
C299 C42 1.537 . S
C303 C39 1.531 . S
C317 C51 1.533 . S
C321 C9 1.532 . S
C335 C25 1.536 . S
C339 C0 1.534 . S
C353 C98 1.532 . S
C357 C95 1.535 . S
C371 C61 1.554 . S
C375 C89 1.558 . S
C389 C79 1.533 . S
C393 C107 1.533 . S
