# Generated by pormake.
# Topology whc, (6)-cn, num edge types: 1
# Building blocks:
#     Node 0, Type 0, BuildingBlock: OJICUG_clean_sbu_0, # of connection points: 6
#     Node 1, Type 0, BuildingBlock: OJICUG_clean_sbu_0, # of connection points: 6
#     Node 2, Type 0, BuildingBlock: OJICUG_clean_sbu_0, # of connection points: 6
#     Node 3, Type 0, BuildingBlock: OJICUG_clean_sbu_0, # of connection points: 6
#     Node 4, Type 0, BuildingBlock: OJICUG_clean_sbu_0, # of connection points: 6
#     Node 5, Type 0, BuildingBlock: OJICUG_clean_sbu_0, # of connection points: 6
#     Node 6, Type 0, BuildingBlock: OJICUG_clean_sbu_0, # of connection points: 6
#     Node 7, Type 0, BuildingBlock: OJICUG_clean_sbu_0, # of connection points: 6
#     Edge 8, Type (0, 0), BuildingBlock: EZIPEK_clean_linker_0, # of connection points: 2
#     Edge 9, Type (0, 0), BuildingBlock: EZIPEK_clean_linker_0, # of connection points: 2
#     Edge 10, Type (0, 0), BuildingBlock: EZIPEK_clean_linker_0, # of connection points: 2
#     Edge 11, Type (0, 0), BuildingBlock: EZIPEK_clean_linker_0, # of connection points: 2
#     Edge 12, Type (0, 0), BuildingBlock: EZIPEK_clean_linker_0, # of connection points: 2
#     Edge 13, Type (0, 0), BuildingBlock: EZIPEK_clean_linker_0, # of connection points: 2
#     Edge 14, Type (0, 0), BuildingBlock: EZIPEK_clean_linker_0, # of connection points: 2
#     Edge 15, Type (0, 0), BuildingBlock: EZIPEK_clean_linker_0, # of connection points: 2
#     Edge 16, Type (0, 0), BuildingBlock: EZIPEK_clean_linker_0, # of connection points: 2
#     Edge 17, Type (0, 0), BuildingBlock: EZIPEK_clean_linker_0, # of connection points: 2
#     Edge 18, Type (0, 0), BuildingBlock: EZIPEK_clean_linker_0, # of connection points: 2
#     Edge 19, Type (0, 0), BuildingBlock: EZIPEK_clean_linker_0, # of connection points: 2
#     Edge 20, Type (0, 0), BuildingBlock: EZIPEK_clean_linker_0, # of connection points: 2
#     Edge 21, Type (0, 0), BuildingBlock: EZIPEK_clean_linker_0, # of connection points: 2
#     Edge 22, Type (0, 0), BuildingBlock: EZIPEK_clean_linker_0, # of connection points: 2
#     Edge 23, Type (0, 0), BuildingBlock: EZIPEK_clean_linker_0, # of connection points: 2
#     Edge 24, Type (0, 0), BuildingBlock: EZIPEK_clean_linker_0, # of connection points: 2
#     Edge 25, Type (0, 0), BuildingBlock: EZIPEK_clean_linker_0, # of connection points: 2
#     Edge 26, Type (0, 0), BuildingBlock: EZIPEK_clean_linker_0, # of connection points: 2
#     Edge 27, Type (0, 0), BuildingBlock: EZIPEK_clean_linker_0, # of connection points: 2
#     Edge 28, Type (0, 0), BuildingBlock: EZIPEK_clean_linker_0, # of connection points: 2
#     Edge 29, Type (0, 0), BuildingBlock: EZIPEK_clean_linker_0, # of connection points: 2
#     Edge 30, Type (0, 0), BuildingBlock: EZIPEK_clean_linker_0, # of connection points: 2
#     Edge 31, Type (0, 0), BuildingBlock: EZIPEK_clean_linker_0, # of connection points: 2
# Relax obj value: 0.339
# Max RMSD: 0.283
# Mean RMSD: 0.283
data_MOF--net-whc--node1-OJICUG_clean_sbu_0--edge1-EZIPEK_clean_linker_0
_symmetry_space_group_name_H-M    P1
_symmetry_Int_Tables_number       1
_symmetry_cell_setting            triclinic
loop_
_symmetry_equiv_pos_as_xyz
'x, y, z'
_cell_length_a     26.799466
_cell_length_b     26.929147
_cell_length_c     23.189542
_cell_angle_alpha  89.867623
_cell_angle_beta   89.949241
_cell_angle_gamma 89.869822
loop_
_atom_site_label
_atom_site_type_symbol
_atom_site_fract_x
_atom_site_fract_y
_atom_site_fract_z
_atom_type_partial_charge
Sc0 Sc 0.42924 0.26683 0.14606 0.0
Sc1 Sc 0.37705 0.16665 0.0752 0.0
Sc2 Sc 0.49993 0.1622 0.11997 0.0
O3 O 0.43597 0.19914 0.11352 0.0
C4 C 0.54013 0.2685 0.09515 0.0
C5 C 0.3671 0.27806 0.03664 0.0
C6 C 0.46279 0.15218 0.9881 0.0
C7 C 0.32646 0.21171 0.18046 0.0
C8 C 0.48574 0.21019 0.24424 0.0
C9 C 0.43704 0.07357 0.12377 0.0
O10 O 0.50356 0.29008 0.11981 0.0
O11 O 0.34529 0.23713 0.0475 0.0
O12 O 0.49278 0.13861 0.02851 0.0
O13 O 0.35381 0.25022 0.17438 0.0
O14 O 0.5105 0.18292 0.20955 0.0
O15 O 0.40398 0.09012 0.08942 0.0
O16 O 0.45364 0.24199 0.22838 0.0
O17 O 0.33439 0.17085 0.15399 0.0
O18 O 0.45932 0.10328 0.15595 0.0
O19 O 0.40438 0.29318 0.0649 0.0
O20 O 0.54308 0.22203 0.08838 0.0
O21 O 0.41874 0.16717 0.99819 0.0
Sc22 Sc 0.27228 0.53937 0.84955 0.0
Sc23 Sc 0.1723 0.59346 0.92475 0.0
Sc24 Sc 0.17507 0.46846 0.89863 0.0
O25 O 0.20718 0.53477 0.89 0.0
C26 C 0.19447 0.48234 0.76646 0.0
C27 C 0.22606 0.64462 0.81646 0.0
C28 C 0.08256 0.53289 0.88733 0.0
C29 C 0.28556 0.60298 0.96512 0.0
C30 C 0.28389 0.43099 0.89531 0.0
C31 C 0.17224 0.51043 0.02162 0.0
O32 O 0.23803 0.50073 0.77611 0.0
O33 O 0.19351 0.64547 0.85661 0.0
O34 O 0.1043 0.49898 0.91471 0.0
O35 O 0.3038 0.57858 0.92271 0.0
O36 O 0.23869 0.4223 0.88555 0.0
O37 O 0.15088 0.54858 -0.00028 0.0
O38 O 0.30197 0.47394 0.89004 0.0
O39 O 0.23931 0.61275 0.97087 0.0
O40 O 0.18854 0.47476 0.99022 0.0
O41 O 0.2544 0.60772 0.80726 0.0
O42 O 0.16389 0.46991 0.80654 0.0
O43 O 0.10314 0.57494 0.87947 0.0
Sc44 Sc 0.55326 0.70848 0.14068 0.0
Sc45 Sc 0.60606 0.80621 0.0588 0.0
Sc46 Sc 0.47893 0.80666 0.09361 0.0
O47 O 0.54667 0.77397 0.09822 0.0
C48 C 0.44591 0.6944 0.08767 0.0
C49 C 0.61939 0.69055 0.02946 0.0
C50 C 0.51861 0.81384 0.96606 0.0
C51 C 0.65617 0.76114 0.17257 0.0
C52 C 0.48885 0.77832 0.22403 0.0
C53 C 0.54808 0.90158 0.097 0.0
O54 O 0.48836 0.67616 0.09935 0.0
O55 O 0.62534 0.73648 0.01828 0.0
O56 O 0.48275 0.80541 0.00083 0.0
O57 O 0.62064 0.73119 0.18282 0.0
O58 O 0.47535 0.80953 0.18581 0.0
O59 O 0.59044 0.88039 0.09248 0.0
O60 O 0.5119 0.73793 0.21305 0.0
O61 O 0.65613 0.79173 0.13055 0.0
O62 O 0.50735 0.87875 0.09387 0.0
O63 O 0.59615 0.67499 0.07361 0.0
O64 O 0.4366 0.74016 0.09243 0.0
O65 O 0.56342 0.82109 0.98197 0.0
Sc66 Sc 0.7141 0.42087 0.85263 0.0
Sc67 Sc 0.81056 0.36824 0.9312 0.0
Sc68 Sc 0.81344 0.49176 0.89308 0.0
O69 O 0.77905 0.42693 0.89265 0.0
C70 C 0.77382 0.48219 0.76472 0.0
C71 C 0.76869 0.31713 0.8252 0.0
C72 C 0.90389 0.42894 0.88036 0.0
C73 C 0.69454 0.35927 0.96081 0.0
C74 C 0.70684 0.52883 0.90836 0.0
C75 C 0.82779 0.44966 0.02184 0.0
O76 O 0.74763 0.44387 0.77397 0.0
O77 O 0.80871 0.32578 0.85288 0.0
O78 O 0.87479 0.45742 0.85386 0.0
O79 O 0.68136 0.3967 0.93108 0.0
O80 O 0.75052 0.52724 0.92887 0.0
O81 O 0.81008 0.40733 0.01019 0.0
O82 O 0.69057 0.49688 0.87248 0.0
O83 O 0.73757 0.33884 0.95663 0.0
O84 O 0.84041 0.48055 0.98231 0.0
O85 O 0.73006 0.34479 0.82815 0.0
O86 O 0.79119 0.50935 0.80499 0.0
O87 O 0.88744 0.39515 0.9143 0.0
Sc88 Sc 0.46811 0.1957 0.61859 0.0
Sc89 Sc 0.59031 0.18416 0.57619 0.0
Sc90 Sc 0.55384 0.28052 0.66871 0.0
O91 O 0.53857 0.21996 0.62222 0.0
C92 C 0.44584 0.30618 0.6262 0.0
C93 C 0.49876 0.19598 0.49072 0.0
C94 C 0.61289 0.29886 0.55145 0.0
C95 C 0.52486 0.09574 0.60811 0.0
C96 C 0.49063 0.20576 0.74968 0.0
C97 C 0.65339 0.2181 0.68581 0.0
O98 O 0.43284 0.2636 0.64222 0.0
O99 O 0.53921 0.17442 0.50526 0.0
O100 O 0.59821 0.31363 0.60079 0.0
O101 O 0.48793 0.12265 0.59597 0.0
O102 O 0.51176 0.24801 0.74109 0.0
O103 O 0.64815 0.19218 0.64046 0.0
O104 O 0.47483 0.17819 0.70874 0.0
O105 O 0.56897 0.11279 0.61257 0.0
O106 O 0.62082 0.24883 0.70387 0.0
O107 O 0.46728 0.21332 0.52718 0.0
O108 O 0.49078 0.32005 0.63104 0.0
O109 O 0.61112 0.25339 0.53639 0.0
Sc110 Sc 0.16276 0.49283 0.39214 0.0
Sc111 Sc 0.17609 0.3717 0.43856 0.0
Sc112 Sc 0.27061 0.42915 0.36064 0.0
O113 O 0.20395 0.43167 0.39785 0.0
C114 C 0.20817 0.48276 0.26565 0.0
C115 C 0.07903 0.42288 0.38474 0.0
C116 C 0.22343 0.32169 0.33336 0.0
C117 C 0.15354 0.45574 0.52463 0.0
C118 C 0.26564 0.53945 0.41199 0.0
C119 C 0.29051 0.37263 0.47408 0.0
O120 O 0.18343 0.50735 0.30295 0.0
O121 O 0.09722 0.39225 0.42121 0.0
O122 O 0.25993 0.35206 0.33586 0.0
O123 O 0.13849 0.48451 0.48376 0.0
O124 O 0.28837 0.50586 0.38335 0.0
O125 O 0.24999 0.34816 0.46847 0.0
O126 O 0.21977 0.53807 0.42418 0.0
O127 O 0.17238 0.41349 0.51487 0.0
O128 O 0.30245 0.4082 0.44097 0.0
O129 O 0.1075 0.44867 0.35445 0.0
O130 O 0.23977 0.4495 0.27882 0.0
O131 O 0.18307 0.32731 0.36181 0.0
Sc132 Sc 0.50546 0.80938 0.59253 0.0
Sc133 Sc 0.37543 0.81293 0.56536 0.0
Sc134 Sc 0.43056 0.71152 0.63627 0.0
O135 O 0.43706 0.77855 0.59865 0.0
C136 C 0.53834 0.69722 0.58188 0.0
C137 C 0.45821 0.81586 0.46613 0.0
C138 C 0.35663 0.69877 0.53481 0.0
C139 C 0.4407 0.90666 0.60114 0.0
C140 C 0.49561 0.77565 0.72336 0.0
C141 C 0.32931 0.76837 0.67543 0.0
O142 O 0.54553 0.74319 0.57777 0.0
O143 O 0.41302 0.81716 0.48347 0.0
O144 O 0.39425 0.68257 0.56225 0.0
O145 O 0.48015 0.88178 0.60509 0.0
O146 O 0.46672 0.73931 0.71243 0.0
O147 O 0.33358 0.80734 0.64467 0.0
O148 O 0.5143 0.80416 0.68497 0.0
O149 O 0.39888 0.88809 0.58713 0.0
O150 O 0.35999 0.73225 0.67345 0.0
O151 O 0.49606 0.81459 0.49972 0.0
O152 O 0.49827 0.67911 0.60163 0.0
O153 O 0.34172 0.74355 0.53804 0.0
Sc154 Sc 0.80581 0.4694 0.39933 0.0
Sc155 Sc 0.81047 0.59472 0.42421 0.0
Sc156 Sc 0.71713 0.54445 0.33498 0.0
O157 O 0.77751 0.537 0.3849 0.0
C158 C 0.79578 0.47833 0.26389 0.0
C159 C 0.90217 0.53189 0.39495 0.0
C160 C 0.76972 0.64888 0.31118 0.0
C161 C 0.8055 0.51354 0.52162 0.0
C162 C 0.69453 0.43953 0.39015 0.0
C163 C 0.69325 0.60786 0.4467 0.0
O164 O 0.82182 0.46449 0.30749 0.0
O165 O 0.88257 0.57452 0.38643 0.0
O166 O 0.74268 0.61258 0.2954 0.0
O167 O 0.78839 0.47874 0.48991 0.0
O168 O 0.67946 0.48123 0.37207 0.0
O169 O 0.73862 0.61435 0.46222 0.0
O170 O 0.73988 0.42757 0.38901 0.0
O171 O 0.82783 0.55088 0.50023 0.0
O172 O 0.68023 0.58562 0.40078 0.0
O173 O 0.87803 0.49624 0.41604 0.0
O174 O 0.75458 0.50233 0.26812 0.0
O175 O 0.79691 0.64765 0.35592 0.0
C176 C 0.26554 0.24019 0.31848 0.0
C177 C 0.23132 0.27654 0.29837 0.0
C178 C 0.24316 0.24858 0.1992 0.0
C179 C 0.28272 0.21784 0.21856 0.0
N180 N 0.31958 0.17036 0.29472 0.0
N181 N 0.17517 0.30459 0.22462 0.0
C182 C 0.28933 0.20851 0.27793 0.0
C183 C 0.21548 0.27659 0.24023 0.0
N184 N 0.27721 0.23834 0.37578 0.0
N185 N 0.23469 0.25304 0.14136 0.0
H186 H 0.15438 0.32439 0.25495 0.0
H187 H 0.15994 0.3051 0.18338 0.0
H188 H 0.25353 0.23101 0.11137 0.0
H189 H 0.21024 0.27868 0.12309 0.0
H190 H 0.30597 0.21685 0.39284 0.0
H191 H 0.2583 0.25971 0.40632 0.0
H192 H 0.32454 0.15942 0.3374 0.0
H193 H 0.3362 0.14681 0.26456 0.0
C194 C 0.21658 0.70882 0.73756 0.0
C195 C 0.24128 0.69157 0.78783 0.0
C196 C 0.30464 0.75574 0.77444 0.0
C197 C 0.28848 0.7627 0.71762 0.0
N198 N 0.22652 0.74988 0.64454 0.0
N199 N 0.31604 0.69331 0.84652 0.0
C200 C 0.24266 0.74159 0.69948 0.0
C201 C 0.2867 0.71438 0.80522 0.0
N202 N 0.16975 0.69224 0.72522 0.0
N203 N 0.34113 0.78549 0.79619 0.0
H204 H 0.30589 0.66154 0.86901 0.0
H205 H 0.35245 0.70496 0.85452 0.0
H206 H 0.35529 0.81522 0.77228 0.0
H207 H 0.35306 0.7834 0.83894 0.0
H208 H 0.14855 0.70575 0.69097 0.0
H209 H 0.15087 0.66755 0.75225 0.0
H210 H 0.19664 0.73115 0.62597 0.0
H211 H 0.24468 0.77478 0.61711 0.0
C212 C 0.77477 0.70203 0.22324 0.0
C213 C 0.76114 0.69706 0.2815 0.0
C214 C 0.69606 0.75994 0.26939 0.0
C215 C 0.70135 0.755 0.20888 0.0
N216 N 0.75119 0.72933 0.12739 0.0
N217 N 0.72642 0.7373 0.3648 0.0
C218 C 0.74354 0.7299 0.18558 0.0
C219 C 0.7277 0.73174 0.30633 0.0
N220 N 0.81831 0.68103 0.20513 0.0
N221 N 0.65849 0.78895 0.2907 0.0
H222 H 0.7499 0.71733 0.39219 0.0
H223 H 0.70507 0.76395 0.38595 0.0
H224 H 0.63679 0.81141 0.2638 0.0
H225 H 0.6483 0.79035 0.33397 0.0
H226 H 0.83334 0.6862 0.16415 0.0
H227 H 0.84151 0.6619 0.23382 0.0
H228 H 0.777 0.70634 0.10703 0.0
H229 H 0.73096 0.75175 0.0992 0.0
C230 C 0.73501 0.23248 0.81069 0.0
C231 C 0.76405 0.27234 0.78938 0.0
C232 C 0.73842 0.25422 0.69109 0.0
C233 C 0.70273 0.22059 0.71378 0.0
N234 N 0.68256 0.16167 0.7873 0.0
N235 N 0.80959 0.30764 0.71074 0.0
C236 C 0.70676 0.20391 0.77117 0.0
C237 C 0.77182 0.27792 0.72964 0.0
N238 N 0.73153 0.22493 0.86874 0.0
N239 N 0.73739 0.26632 0.63392 0.0
H240 H 0.83412 0.32434 0.73975 0.0
H241 H 0.81926 0.31188 0.66753 0.0
H242 H 0.71447 0.2479 0.60472 0.0
H243 H 0.75826 0.29492 0.61574 0.0
H244 H 0.70644 0.20027 0.88763 0.0
H245 H 0.75337 0.24487 0.89787 0.0
H246 H 0.68657 0.14526 0.82776 0.0
H247 H 0.66158 0.14123 0.75775 0.0
C248 C 0.44127 0.16533 0.82979 0.0
C249 C 0.48643 0.18666 0.81006 0.0
C250 C 0.52269 0.1758 0.90697 0.0
C251 C 0.47775 0.15288 0.92591 0.0
N252 N 0.40278 0.10962 0.89822 0.0
N253 N 0.57488 0.19646 0.82539 0.0
C254 C 0.44008 0.14205 0.88466 0.0
C255 C 0.5286 0.18726 0.84735 0.0
N256 N 0.3985 0.16993 0.79816 0.0
N257 N 0.5593 0.18816 0.94526 0.0
H258 H 0.58132 0.19989 0.78139 0.0
H259 H 0.60738 0.19456 0.84977 0.0
H260 H 0.55923 0.17808 0.98842 0.0
H261 H 0.58943 0.21073 0.93461 0.0
H262 H 0.36367 0.15907 0.81368 0.0
H263 H 0.39668 0.18964 0.75947 0.0
H264 H 0.37678 0.09718 0.86815 0.0
H265 H 0.40148 0.09113 0.93771 0.0
C266 C 0.20103 0.54328 0.11836 0.0
C267 C 0.17558 0.50618 0.08579 0.0
C268 C 0.1649 0.45743 0.17469 0.0
C269 C 0.19707 0.49073 0.20396 0.0
N270 N 0.25306 0.56036 0.20124 0.0
N271 N 0.13203 0.42778 0.0837 0.0
C272 C 0.21734 0.53213 0.17505 0.0
C273 C 0.15734 0.46303 0.11421 0.0
N274 N 0.208 0.58996 0.09681 0.0
N275 N 0.14016 0.42159 0.20517 0.0
H276 H 0.12018 0.4332 0.04132 0.0
H277 H 0.124 0.39258 0.09986 0.0
H278 H 0.1452 0.41615 0.24933 0.0
H279 H 0.11191 0.39975 0.18789 0.0
H280 H 0.22315 0.61888 0.12083 0.0
H281 H 0.19241 0.60228 0.05854 0.0
H282 H 0.27355 0.58744 0.17954 0.0
H283 H 0.26565 0.55341 0.24305 0.0
C284 C 0.5289 0.75946 0.88029 0.0
C285 C 0.51083 0.80463 0.90406 0.0
C286 C 0.48085 0.8302 0.80915 0.0
C287 C 0.50394 0.78758 0.7846 0.0
N288 N 0.55678 0.71568 0.79497 0.0
N289 N 0.47512 0.88594 0.89103 0.0
C290 C 0.53007 0.75338 0.81968 0.0
C291 C 0.48837 0.84096 0.86847 0.0
N292 N 0.5429 0.72145 0.91587 0.0
N293 N 0.44959 0.85891 0.77663 0.0
H294 H 0.47899 0.89433 0.93472 0.0
H295 H 0.46371 0.91595 0.86582 0.0
H296 H 0.44286 0.85228 0.73304 0.0
H297 H 0.42676 0.8863 0.79427 0.0
H298 H 0.55166 0.686 0.90111 0.0
H299 H 0.54048 0.7239 0.9606 0.0
H300 H 0.58088 0.69266 0.81806 0.0
H301 H 0.55845 0.71031 0.75045 0.0
C302 C 0.8313 0.4259 0.18229 0.0
C303 C 0.81611 0.47244 0.20449 0.0
C304 C 0.81694 0.50805 0.10713 0.0
C305 C 0.83295 0.46171 0.08442 0.0
N306 N 0.87319 0.38304 0.10435 0.0
N307 N 0.81648 0.56107 0.19067 0.0
C308 C 0.84613 0.42277 0.12344 0.0
C309 C 0.8162 0.51454 0.16772 0.0
N310 N 0.82908 0.38425 0.21586 0.0
N311 N 0.79892 0.54491 0.07226 0.0
H312 H 0.81855 0.56736 0.235 0.0
H313 H 0.82136 0.5925 0.16514 0.0
H314 H 0.79693 0.54263 0.02767 0.0
H315 H 0.78147 0.57661 0.08848 0.0
H316 H 0.83469 0.34864 0.19952 0.0
H317 H 0.81759 0.38477 0.25879 0.0
H318 H 0.88715 0.35571 0.13188 0.0
H319 H 0.88646 0.3806 0.06215 0.0
C320 C 0.52149 0.23779 0.33722 0.0
C321 C 0.49201 0.20345 0.30671 0.0
C322 C 0.46468 0.16467 0.39734 0.0
C323 C 0.49093 0.20177 0.42803 0.0
N324 N 0.54213 0.2752 0.42846 0.0
N325 N 0.43419 0.13502 0.30505 0.0
C326 C 0.51876 0.23873 0.39818 0.0
C327 C 0.46331 0.16691 0.33603 0.0
N328 N 0.55321 0.26846 0.30767 0.0
N329 N 0.44255 0.12659 0.42692 0.0
H330 H 0.4333 0.1349 0.26012 0.0
H331 H 0.40917 0.11007 0.32336 0.0
H332 H 0.44129 0.1251 0.47187 0.0
H333 H 0.42764 0.09516 0.40753 0.0
H334 H 0.5799 0.29087 0.32711 0.0
H335 H 0.55574 0.2686 0.26279 0.0
H336 H 0.55823 0.30655 0.40998 0.0
H337 H 0.54145 0.27619 0.4731 0.0
C338 C 0.17166 0.5146 0.60809 0.0
C339 C 0.15073 0.46961 0.58711 0.0
C340 C 0.15785 0.43305 0.68422 0.0
C341 C 0.17735 0.47826 0.70541 0.0
N342 N 0.18566 0.56667 0.69139 0.0
N343 N 0.10878 0.39289 0.61058 0.0
C344 C 0.17901 0.5205 0.66852 0.0
C345 C 0.13858 0.43132 0.62722 0.0
N346 N 0.18707 0.55086 0.57093 0.0
N347 N 0.16037 0.39084 0.71695 0.0
H348 H 0.09384 0.39051 0.56926 0.0
H349 H 0.09486 0.36652 0.63932 0.0
H350 H 0.17612 0.38985 0.75802 0.0
H351 H 0.15148 0.35581 0.70101 0.0
H352 H 0.20848 0.58107 0.58396 0.0
H353 H 0.18126 0.54969 0.52671 0.0
H354 H 0.18291 0.59918 0.66713 0.0
H355 H 0.1878 0.57272 0.73566 0.0
C356 C 0.50424 0.83045 0.31158 0.0
C357 C 0.47918 0.7901 0.28496 0.0
C358 C 0.44633 0.76397 0.37804 0.0
C359 C 0.4663 0.80749 0.4038 0.0
N360 N 0.5096 0.8854 0.39402 0.0
N361 N 0.4197 0.72331 0.29053 0.0
C362 C 0.494 0.84174 0.37027 0.0
C363 C 0.44823 0.75831 0.31752 0.0
N364 N 0.53972 0.85631 0.28178 0.0
N365 N 0.42829 0.7264 0.4116 0.0
H366 H 0.41969 0.71839 0.24591 0.0
H367 H 0.39274 0.7023 0.31181 0.0
H368 H 0.42577 0.72873 0.45626 0.0
H369 H 0.42044 0.69113 0.3956 0.0
H370 H 0.56348 0.88188 0.30112 0.0
H371 H 0.54861 0.84899 0.23883 0.0
H372 H 0.52497 0.91428 0.36994 0.0
H373 H 0.50372 0.89425 0.43724 0.0
C374 C 0.81697 0.45951 0.67326 0.0
C375 C 0.78698 0.49358 0.70446 0.0
C376 C 0.78208 0.54739 0.61989 0.0
C377 C 0.80347 0.50876 0.58556 0.0
N378 N 0.84498 0.42907 0.58059 0.0
N379 N 0.73727 0.56807 0.7074 0.0
C380 C 0.82192 0.46502 0.61259 0.0
C381 C 0.76893 0.53726 0.67798 0.0
N382 N 0.84278 0.4234 0.70222 0.0
N383 N 0.7748 0.59401 0.59804 0.0
H384 H 0.72667 0.56193 0.75011 0.0
H385 H 0.71832 0.59754 0.68815 0.0
H386 H 0.78222 0.60412 0.55579 0.0
H387 H 0.76515 0.62436 0.62352 0.0
H388 H 0.86984 0.40105 0.68309 0.0
H389 H 0.84066 0.41883 0.74684 0.0
H390 H 0.85252 0.39354 0.59621 0.0
H391 H 0.85553 0.43421 0.53771 0.0
C392 C 0.33199 0.35148 0.90295 0.0
C393 C 0.31051 0.39364 0.92971 0.0
C394 C 0.31777 0.35453 0.02437 0.0
C395 C 0.34332 0.31441 0.99853 0.0
N396 N 0.38104 0.27631 0.91506 0.0
N397 N 0.29159 0.43984 0.01617 0.0
C398 C 0.3522 0.31316 0.93819 0.0
C399 C 0.30614 0.39654 0.99056 0.0
N400 N 0.3324 0.34794 0.84417 0.0
N401 N 0.30364 0.35193 0.08102 0.0
H402 H 0.28322 0.47174 0.99273 0.0
H403 H 0.29227 0.44559 0.06056 0.0
H404 H 0.31169 0.3215 0.10731 0.0
H405 H 0.27987 0.37757 0.10048 0.0
H406 H 0.34265 0.31587 0.82208 0.0
H407 H 0.3199 0.3766 0.8174 0.0
H408 H 0.39329 0.27619 0.87244 0.0
H409 H 0.39536 0.24717 0.93966 0.0
C410 C 0.34511 0.59897 0.04979 0.0
C411 C 0.32086 0.62646 0.00548 0.0
C412 C 0.38499 0.68835 0.0088 0.0
C413 C 0.40736 0.66514 0.0571 0.0
N414 N 0.40392 0.60103 0.12983 0.0
N415 N 0.30597 0.70805 0.96629 0.0
C416 C 0.38628 0.62083 0.0796 0.0
C417 C 0.33679 0.67474 0.99263 0.0
N418 N 0.32782 0.55309 0.06416 0.0
N419 N 0.41105 0.72137 0.97613 0.0
H420 H 0.26905 0.69968 0.95597 0.0
H421 H 0.3163 0.745 0.95968 0.0
H422 H 0.4494 0.72514 0.9815 0.0
H423 H 0.39631 0.73809 0.93924 0.0
H424 H 0.3465 0.52884 0.09178 0.0
H425 H 0.29449 0.53963 0.04732 0.0
H426 H 0.38698 0.57138 0.15102 0.0
H427 H 0.43381 0.61645 0.15224 0.0
C428 C 0.60754 0.60999 0.97694 0.0
C429 C 0.63746 0.65269 0.98786 0.0
C430 C 0.70032 0.61947 0.92226 0.0
C431 C 0.67671 0.57253 0.92446 0.0
N432 N 0.60812 0.52186 0.95781 0.0
N433 N 0.71715 0.69426 0.97505 0.0
C434 C 0.62996 0.56739 0.95211 0.0
C435 C 0.68489 0.65702 0.96088 0.0
N436 N 0.55759 0.61037 0.98886 0.0
N437 N 0.73811 0.62769 0.88388 0.0
H438 H 0.70964 0.72107 0.00604 0.0
H439 H 0.75391 0.69531 0.96038 0.0
H440 H 0.74943 0.60081 0.85421 0.0
H441 H 0.75396 0.66258 0.87737 0.0
H442 H 0.5338 0.58154 0.97716 0.0
H443 H 0.53887 0.64181 0.00369 0.0
H444 H 0.5769 0.51579 0.98372 0.0
H445 H 0.62309 0.48952 0.9403 0.0
C446 C 0.61148 0.31915 0.96952 0.0
C447 C 0.65573 0.33592 0.99669 0.0
C448 C 0.62259 0.31163 0.09105 0.0
C449 C 0.57722 0.29829 0.06402 0.0
N450 N 0.52423 0.2979 0.98 0.0
N451 N 0.7007 0.3564 0.0836 0.0
C452 C 0.57028 0.3051 0.00399 0.0
C453 C 0.66067 0.33447 0.05764 0.0
N454 N 0.60979 0.31426 0.91081 0.0
N455 N 0.62962 0.30133 0.14819 0.0
H456 H 0.72926 0.37348 0.06046 0.0
H457 H 0.70377 0.36109 0.12802 0.0
H458 H 0.60157 0.28645 0.17417 0.0
H459 H 0.66387 0.30483 0.16896 0.0
H460 H 0.58025 0.29778 0.88893 0.0
H461 H 0.6401 0.32205 0.88408 0.0
H462 H 0.51566 0.30698 0.93746 0.0
H463 H 0.49326 0.28667 0.00393 0.0
C464 C 0.61026 0.38584 0.50671 0.0
C465 C 0.62978 0.33631 0.50763 0.0
C466 C 0.67009 0.35375 0.41498 0.0
C467 C 0.6611 0.40511 0.42181 0.0
N468 N 0.62831 0.47087 0.48301 0.0
N469 N 0.69091 0.27936 0.46685 0.0
C470 C 0.6324 0.42159 0.46973 0.0
C471 C 0.66293 0.32168 0.46262 0.0
N472 N 0.56986 0.39939 0.53908 0.0
N473 N 0.68753 0.33598 0.3637 0.0
H474 H 0.69279 0.25789 0.50417 0.0
H475 H 0.7178 0.2697 0.43631 0.0
H476 H 0.69259 0.35905 0.3279 0.0
H477 H 0.69144 0.2981 0.35548 0.0
H478 H 0.55216 0.43368 0.53409 0.0
H479 H 0.5501 0.37565 0.56578 0.0
H480 H 0.61303 0.48316 0.52185 0.0
H481 H 0.64325 0.49953 0.45853 0.0
C482 C 0.41665 0.33398 0.52927 0.0
C483 C 0.40949 0.33373 0.58992 0.0
C484 C 0.32337 0.36271 0.57544 0.0
C485 C 0.32918 0.35577 0.51506 0.0
N486 N 0.37847 0.32541 0.4356 0.0
N487 N 0.35516 0.34548 0.67156 0.0
C488 C 0.37508 0.33903 0.49231 0.0
C489 C 0.36247 0.34751 0.61328 0.0
N490 N 0.46317 0.32945 0.50634 0.0
N491 N 0.28143 0.38525 0.59637 0.0
H492 H 0.38404 0.3378 0.70044 0.0
H493 H 0.3203 0.34931 0.69096 0.0
H494 H 0.25221 0.39651 0.56982 0.0
H495 H 0.27715 0.39605 0.63918 0.0
H496 H 0.47077 0.33757 0.46326 0.0
H497 H 0.49458 0.32235 0.53102 0.0
H498 H 0.40963 0.30757 0.41832 0.0
H499 H 0.34832 0.3271 0.40722 0.0
C500 C 0.31812 0.61565 0.53088 0.0
C501 C 0.32718 0.66156 0.50279 0.0
C502 C 0.29466 0.62712 0.41252 0.0
C503 C 0.2936 0.57967 0.43908 0.0
N504 N 0.30842 0.52694 0.52158 0.0
N505 N 0.32036 0.71325 0.41744 0.0
C506 C 0.3069 0.57339 0.49763 0.0
C507 C 0.31398 0.66825 0.44379 0.0
N508 N 0.31737 0.61335 0.58984 0.0
N509 N 0.27597 0.63278 0.35801 0.0
H510 H 0.33166 0.7451 0.43894 0.0
H511 H 0.31669 0.71901 0.37329 0.0
H512 H 0.2639 0.60283 0.33325 0.0
H513 H 0.26996 0.66694 0.33815 0.0
H514 H 0.30628 0.58201 0.61288 0.0
H515 H 0.3219 0.6447 0.6157 0.0
H516 H 0.32259 0.51976 0.56259 0.0
H517 H 0.29952 0.49491 0.49864 0.0
C518 C 0.64447 0.61057 0.53952 0.0
C519 C 0.65241 0.6281 0.48232 0.0
C520 C 0.57549 0.6762 0.48786 0.0
C521 C 0.57273 0.6662 0.54777 0.0
N522 N 0.60485 0.62531 0.63226 0.0
N523 N 0.62696 0.68074 0.40282 0.0
C524 C 0.60712 0.63347 0.5742 0.0
C525 C 0.61814 0.66158 0.45655 0.0
N526 N 0.67062 0.57052 0.55944 0.0
N527 N 0.5365 0.69906 0.46073 0.0
H528 H 0.65719 0.67037 0.37732 0.0
H529 H 0.60647 0.70998 0.3852 0.0
H530 H 0.50433 0.70945 0.4828 0.0
H531 H 0.53386 0.70279 0.41612 0.0
H532 H 0.66306 0.55314 0.59865 0.0
H533 H 0.69683 0.55176 0.53427 0.0
H534 H 0.63195 0.60561 0.65495 0.0
H535 H 0.57694 0.64064 0.65815 0.0
C536 C 0.47923 0.01021 0.0596 0.0
C537 C 0.46307 0.02498 0.11557 0.0
C538 C 0.52723 0.97096 0.15885 0.0
C539 C 0.54158 0.95538 0.10344 0.0
N540 N 0.54351 0.96967 0.00202 0.0
N541 N 0.46512 0.01187 0.2184 0.0
C542 C 0.52201 0.9792 0.05422 0.0
C543 C 0.48558 0.00327 0.1653 0.0
N544 N 0.45163 0.02208 0.01208 0.0
N545 N 0.55379 0.95394 0.20499 0.0
H546 H 0.43265 0.03288 0.2237 0.0
H547 H 0.47718 -0.0052 0.25621 0.0
H548 H 0.58459 0.93056 0.19936 0.0
H549 H 0.54842 0.96604 0.24713 0.0
H550 H 0.46037 0.01049 0.9705 0.0
H551 H 0.41593 0.03697 0.01486 0.0
H552 H 0.53423 0.9883 0.96411 0.0
H553 H 0.57429 0.94597 0.99846 0.0
C554 C 0.98015 0.45752 0.82941 0.0
C555 C 0.95551 0.44814 0.88275 0.0
C556 C 0.00062 0.51745 0.92636 0.0
C557 C 0.0298 0.52245 0.8761 0.0
N558 N 0.04872 0.49806 0.77918 0.0
N559 N 0.95209 0.46163 0.98551 0.0
C560 C 0.01932 0.49315 0.82699 0.0
C561 C 0.96873 0.47587 0.93237 0.0
N562 N 0.96529 0.43268 0.78108 0.0
N563 N 0.00577 0.55149 0.96945 0.0
H564 H 0.93219 0.42899 0.992 0.0
H565 H 0.96319 0.47861 0.0237 0.0
H566 H 0.02987 0.58174 0.96527 0.0
H567 H 0.98303 0.55235 0.0059 0.0
H568 H 0.97737 0.44152 0.73964 0.0
H569 H 0.9393 0.40388 0.78271 0.0
H570 H 0.04765 0.47404 0.7441 0.0
H571 H 0.0756 0.52598 0.77599 0.0
C572 C 0.46838 0.98173 0.55201 0.0
C573 C 0.4491 0.96042 0.60312 0.0
C574 C 0.49046 0.02429 0.66089 0.0
C575 C 0.51325 0.04272 0.60993 0.0
N576 N 0.53012 0.03594 0.50854 0.0
N577 N 0.43793 0.96133 0.70545 0.0
C578 C 0.50422 0.02014 0.55593 0.0
C579 C 0.45887 0.98202 0.65747 0.0
N580 N 0.45195 0.96493 0.49985 0.0
N581 N 0.49795 0.04859 0.71186 0.0
H582 H 0.41109 0.93342 0.70225 0.0
H583 H 0.44674 0.97136 0.74751 0.0
H584 H 0.52325 0.07785 0.71559 0.0
H585 H 0.47894 0.04073 0.7499 0.0
H586 H 0.46119 0.98133 0.4606 0.0
H587 H 0.42512 0.93705 0.49645 0.0
H588 H 0.52827 0.01888 0.46838 0.0
H589 H 0.55707 0.0638 0.51103 0.0
C590 C 0.98259 0.51112 0.43558 0.0
C591 C 0.95492 0.5199 0.38487 0.0
C592 C 0.00352 0.45549 0.33516 0.0
C593 C 0.02749 0.4432 0.38817 0.0
N594 N 0.02752 0.45014 0.49174 0.0
N595 N 0.93736 0.50094 0.28602 0.0
C596 C 0.01347 0.4684 0.43934 0.0
C597 C 0.96561 0.49268 0.33414 0.0
N598 N 0.97693 0.54261 0.48115 0.0
N599 N 0.0178 0.43172 0.28579 0.0
H600 H 0.9114 0.5299 0.28396 0.0
H601 H 0.93833 0.47868 0.2494 0.0
H602 H 0.04235 0.40154 0.28632 0.0
H603 H 0.00659 0.44248 0.24465 0.0
H604 H -0.00132 0.54066 0.51831 0.0
H605 H 0.95354 0.57365 0.47868 0.0
H606 H 0.01609 0.46541 0.53083 0.0
H607 H 0.0445 0.41562 0.49601 0.0
loop_
_geom_bond_atom_site_label_1
_geom_bond_atom_site_label_2
_geom_bond_distance
_geom_bond_site_symmetry_2
_ccdc_geom_bond_type
Sc0 O3 2.025 . S
Sc0 O10 2.105 . S
Sc0 O13 2.105 . S
Sc0 O16 2.105 . S
Sc0 O19 2.105 . S
Sc1 O3 2.025 . S
Sc1 O11 2.105 . S
Sc1 O15 2.105 . S
Sc1 O17 2.105 . S
Sc1 O21 2.105 1_554 S
Sc2 O3 2.025 . S
Sc2 O12 2.105 1_554 S
Sc2 O14 2.105 . S
Sc2 O18 2.105 . S
Sc2 O20 2.105 . S
O3 Sc0 2.025 . S
O3 Sc1 2.025 . S
O3 Sc2 2.025 . S
C4 O10 1.268 . S
C4 O20 1.268 . S
C5 O11 1.268 . S
C5 O19 1.268 . S
C6 O12 1.268 . S
C6 O21 1.268 . S
C7 O13 1.268 . S
C7 O17 1.268 . S
C8 O14 1.268 . S
C8 O16 1.268 . S
C9 O15 1.268 . S
C9 O18 1.268 . S
O10 Sc0 2.105 . S
O10 C4 1.268 . S
O11 Sc1 2.105 . S
O11 C5 1.268 . S
O12 Sc2 2.105 1_556 S
O12 C6 1.268 . S
O13 Sc0 2.105 . S
O13 C7 1.268 . S
O14 Sc2 2.105 . S
O14 C8 1.268 . S
O15 Sc1 2.105 . S
O15 C9 1.268 . S
O16 Sc0 2.105 . S
O16 C8 1.268 . S
O17 Sc1 2.105 . S
O17 C7 1.268 . S
O18 Sc2 2.105 . S
O18 C9 1.268 . S
O19 Sc0 2.105 . S
O19 C5 1.268 . S
O20 Sc2 2.105 . S
O20 C4 1.268 . S
O21 Sc1 2.105 1_556 S
O21 C6 1.268 . S
Sc22 O25 2.025 . S
Sc22 O32 2.105 . S
Sc22 O35 2.105 . S
Sc22 O38 2.105 . S
Sc22 O41 2.105 . S
Sc23 O25 2.025 . S
Sc23 O33 2.105 . S
Sc23 O37 2.105 1_556 S
Sc23 O39 2.105 . S
Sc23 O43 2.105 . S
Sc24 O25 2.025 . S
Sc24 O34 2.105 . S
Sc24 O36 2.105 . S
Sc24 O40 2.105 1_556 S
Sc24 O42 2.105 . S
O25 Sc22 2.025 . S
O25 Sc23 2.025 . S
O25 Sc24 2.025 . S
C26 O32 1.268 . S
C26 O42 1.268 . S
C27 O33 1.268 . S
C27 O41 1.268 . S
C28 O34 1.268 . S
C28 O43 1.268 . S
C29 O35 1.268 . S
C29 O39 1.268 . S
C30 O36 1.268 . S
C30 O38 1.268 . S
C31 O37 1.268 . S
C31 O40 1.268 . S
O32 Sc22 2.105 . S
O32 C26 1.268 . S
O33 Sc23 2.105 . S
O33 C27 1.268 . S
O34 Sc24 2.105 . S
O34 C28 1.268 . S
O35 Sc22 2.105 . S
O35 C29 1.268 . S
O36 Sc24 2.105 . S
O36 C30 1.268 . S
O37 Sc23 2.105 1_554 S
O37 C31 1.268 . S
O38 Sc22 2.105 . S
O38 C30 1.268 . S
O39 Sc23 2.105 . S
O39 C29 1.268 . S
O40 Sc24 2.105 1_554 S
O40 C31 1.268 . S
O41 Sc22 2.105 . S
O41 C27 1.268 . S
O42 Sc24 2.105 . S
O42 C26 1.268 . S
O43 Sc23 2.105 . S
O43 C28 1.268 . S
Sc44 O47 2.025 . S
Sc44 O54 2.105 . S
Sc44 O57 2.105 . S
Sc44 O60 2.105 . S
Sc44 O63 2.105 . S
Sc45 O47 2.025 . S
Sc45 O55 2.105 . S
Sc45 O59 2.105 . S
Sc45 O61 2.105 . S
Sc45 O65 2.105 1_554 S
Sc46 O47 2.025 . S
Sc46 O56 2.105 1_554 S
Sc46 O58 2.105 . S
Sc46 O62 2.105 . S
Sc46 O64 2.105 . S
O47 Sc44 2.025 . S
O47 Sc45 2.025 . S
O47 Sc46 2.025 . S
C48 O54 1.268 . S
C48 O64 1.268 . S
C49 O55 1.268 . S
C49 O63 1.268 . S
C50 O56 1.268 . S
C50 O65 1.268 . S
C51 O57 1.268 . S
C51 O61 1.268 . S
C52 O58 1.268 . S
C52 O60 1.268 . S
C53 O59 1.268 . S
C53 O62 1.268 . S
O54 Sc44 2.105 . S
O54 C48 1.268 . S
O55 Sc45 2.105 . S
O55 C49 1.268 . S
O56 Sc46 2.105 1_556 S
O56 C50 1.268 . S
O57 Sc44 2.105 . S
O57 C51 1.268 . S
O58 Sc46 2.105 . S
O58 C52 1.268 . S
O59 Sc45 2.105 . S
O59 C53 1.268 . S
O60 Sc44 2.105 . S
O60 C52 1.268 . S
O61 Sc45 2.105 . S
O61 C51 1.268 . S
O62 Sc46 2.105 . S
O62 C53 1.268 . S
O63 Sc44 2.105 . S
O63 C49 1.268 . S
O64 Sc46 2.105 . S
O64 C48 1.268 . S
O65 Sc45 2.105 1_556 S
O65 C50 1.268 . S
Sc66 O69 2.025 . S
Sc66 O76 2.105 . S
Sc66 O79 2.105 . S
Sc66 O82 2.105 . S
Sc66 O85 2.105 . S
Sc67 O69 2.025 . S
Sc67 O77 2.105 . S
Sc67 O81 2.105 1_556 S
Sc67 O83 2.105 . S
Sc67 O87 2.105 . S
Sc68 O69 2.025 . S
Sc68 O78 2.105 . S
Sc68 O80 2.105 . S
Sc68 O84 2.105 1_556 S
Sc68 O86 2.105 . S
O69 Sc66 2.025 . S
O69 Sc67 2.025 . S
O69 Sc68 2.025 . S
C70 O76 1.268 . S
C70 O86 1.268 . S
C71 O77 1.268 . S
C71 O85 1.268 . S
C72 O78 1.268 . S
C72 O87 1.268 . S
C73 O79 1.268 . S
C73 O83 1.268 . S
C74 O80 1.268 . S
C74 O82 1.268 . S
C75 O81 1.268 . S
C75 O84 1.268 . S
O76 Sc66 2.105 . S
O76 C70 1.268 . S
O77 Sc67 2.105 . S
O77 C71 1.268 . S
O78 Sc68 2.105 . S
O78 C72 1.268 . S
O79 Sc66 2.105 . S
O79 C73 1.268 . S
O80 Sc68 2.105 . S
O80 C74 1.268 . S
O81 Sc67 2.105 1_554 S
O81 C75 1.268 . S
O82 Sc66 2.105 . S
O82 C74 1.268 . S
O83 Sc67 2.105 . S
O83 C73 1.268 . S
O84 Sc68 2.105 1_554 S
O84 C75 1.268 . S
O85 Sc66 2.105 . S
O85 C71 1.268 . S
O86 Sc68 2.105 . S
O86 C70 1.268 . S
O87 Sc67 2.105 . S
O87 C72 1.268 . S
Sc88 O91 2.025 . S
Sc88 O98 2.105 . S
Sc88 O101 2.105 . S
Sc88 O104 2.105 . S
Sc88 O107 2.105 . S
Sc89 O91 2.025 . S
Sc89 O99 2.105 . S
Sc89 O103 2.105 . S
Sc89 O105 2.105 . S
Sc89 O109 2.105 . S
Sc90 O91 2.025 . S
Sc90 O100 2.105 . S
Sc90 O102 2.105 . S
Sc90 O106 2.105 . S
Sc90 O108 2.105 . S
O91 Sc88 2.025 . S
O91 Sc89 2.025 . S
O91 Sc90 2.025 . S
C92 O98 1.268 . S
C92 O108 1.268 . S
C93 O99 1.268 . S
C93 O107 1.268 . S
C94 O100 1.268 . S
C94 O109 1.268 . S
C95 O101 1.268 . S
C95 O105 1.268 . S
C96 O102 1.268 . S
C96 O104 1.268 . S
C97 O103 1.268 . S
C97 O106 1.268 . S
O98 Sc88 2.105 . S
O98 C92 1.268 . S
O99 Sc89 2.105 . S
O99 C93 1.268 . S
O100 Sc90 2.105 . S
O100 C94 1.268 . S
O101 Sc88 2.105 . S
O101 C95 1.268 . S
O102 Sc90 2.105 . S
O102 C96 1.268 . S
O103 Sc89 2.105 . S
O103 C97 1.268 . S
O104 Sc88 2.105 . S
O104 C96 1.268 . S
O105 Sc89 2.105 . S
O105 C95 1.268 . S
O106 Sc90 2.105 . S
O106 C97 1.268 . S
O107 Sc88 2.105 . S
O107 C93 1.268 . S
O108 Sc90 2.105 . S
O108 C92 1.268 . S
O109 Sc89 2.105 . S
O109 C94 1.268 . S
Sc110 O113 2.025 . S
Sc110 O120 2.105 . S
Sc110 O123 2.105 . S
Sc110 O126 2.105 . S
Sc110 O129 2.105 . S
Sc111 O113 2.025 . S
Sc111 O121 2.105 . S
Sc111 O125 2.105 . S
Sc111 O127 2.105 . S
Sc111 O131 2.105 . S
Sc112 O113 2.025 . S
Sc112 O122 2.105 . S
Sc112 O124 2.105 . S
Sc112 O128 2.105 . S
Sc112 O130 2.105 . S
O113 Sc110 2.025 . S
O113 Sc111 2.025 . S
O113 Sc112 2.025 . S
C114 O120 1.268 . S
C114 O130 1.268 . S
C115 O121 1.268 . S
C115 O129 1.268 . S
C116 O122 1.268 . S
C116 O131 1.268 . S
C117 O123 1.268 . S
C117 O127 1.268 . S
C118 O124 1.268 . S
C118 O126 1.268 . S
C119 O125 1.268 . S
C119 O128 1.268 . S
O120 Sc110 2.105 . S
O120 C114 1.268 . S
O121 Sc111 2.105 . S
O121 C115 1.268 . S
O122 Sc112 2.105 . S
O122 C116 1.268 . S
O123 Sc110 2.105 . S
O123 C117 1.268 . S
O124 Sc112 2.105 . S
O124 C118 1.268 . S
O125 Sc111 2.105 . S
O125 C119 1.268 . S
O126 Sc110 2.105 . S
O126 C118 1.268 . S
O127 Sc111 2.105 . S
O127 C117 1.268 . S
O128 Sc112 2.105 . S
O128 C119 1.268 . S
O129 Sc110 2.105 . S
O129 C115 1.268 . S
O130 Sc112 2.105 . S
O130 C114 1.268 . S
O131 Sc111 2.105 . S
O131 C116 1.268 . S
Sc132 O135 2.025 . S
Sc132 O142 2.105 . S
Sc132 O145 2.105 . S
Sc132 O148 2.105 . S
Sc132 O151 2.105 . S
Sc133 O135 2.025 . S
Sc133 O143 2.105 . S
Sc133 O147 2.105 . S
Sc133 O149 2.105 . S
Sc133 O153 2.105 . S
Sc134 O135 2.025 . S
Sc134 O144 2.105 . S
Sc134 O146 2.105 . S
Sc134 O150 2.105 . S
Sc134 O152 2.105 . S
O135 Sc132 2.025 . S
O135 Sc133 2.025 . S
O135 Sc134 2.025 . S
C136 O142 1.268 . S
C136 O152 1.268 . S
C137 O143 1.268 . S
C137 O151 1.268 . S
C138 O144 1.268 . S
C138 O153 1.268 . S
C139 O145 1.268 . S
C139 O149 1.268 . S
C140 O146 1.268 . S
C140 O148 1.268 . S
C141 O147 1.268 . S
C141 O150 1.268 . S
O142 Sc132 2.105 . S
O142 C136 1.268 . S
O143 Sc133 2.105 . S
O143 C137 1.268 . S
O144 Sc134 2.105 . S
O144 C138 1.268 . S
O145 Sc132 2.105 . S
O145 C139 1.268 . S
O146 Sc134 2.105 . S
O146 C140 1.268 . S
O147 Sc133 2.105 . S
O147 C141 1.268 . S
O148 Sc132 2.105 . S
O148 C140 1.268 . S
O149 Sc133 2.105 . S
O149 C139 1.268 . S
O150 Sc134 2.105 . S
O150 C141 1.268 . S
O151 Sc132 2.105 . S
O151 C137 1.268 . S
O152 Sc134 2.105 . S
O152 C136 1.268 . S
O153 Sc133 2.105 . S
O153 C138 1.268 . S
Sc154 O157 2.025 . S
Sc154 O164 2.105 . S
Sc154 O167 2.105 . S
Sc154 O170 2.105 . S
Sc154 O173 2.105 . S
Sc155 O157 2.025 . S
Sc155 O165 2.105 . S
Sc155 O169 2.105 . S
Sc155 O171 2.105 . S
Sc155 O175 2.105 . S
Sc156 O157 2.025 . S
Sc156 O166 2.105 . S
Sc156 O168 2.105 . S
Sc156 O172 2.105 . S
Sc156 O174 2.105 . S
O157 Sc154 2.025 . S
O157 Sc155 2.025 . S
O157 Sc156 2.025 . S
C158 O164 1.268 . S
C158 O174 1.268 . S
C159 O165 1.268 . S
C159 O173 1.268 . S
C160 O166 1.268 . S
C160 O175 1.268 . S
C161 O167 1.268 . S
C161 O171 1.268 . S
C162 O168 1.268 . S
C162 O170 1.268 . S
C163 O169 1.268 . S
C163 O172 1.268 . S
O164 Sc154 2.105 . S
O164 C158 1.268 . S
O165 Sc155 2.105 . S
O165 C159 1.268 . S
O166 Sc156 2.105 . S
O166 C160 1.268 . S
O167 Sc154 2.105 . S
O167 C161 1.268 . S
O168 Sc156 2.105 . S
O168 C162 1.268 . S
O169 Sc155 2.105 . S
O169 C163 1.268 . S
O170 Sc154 2.105 . S
O170 C162 1.268 . S
O171 Sc155 2.105 . S
O171 C161 1.268 . S
O172 Sc156 2.105 . S
O172 C163 1.268 . S
O173 Sc154 2.105 . S
O173 C159 1.268 . S
O174 Sc156 2.105 . S
O174 C158 1.268 . S
O175 Sc155 2.105 . S
O175 C160 1.268 . S
C176 C177 1.363 . S
C176 C182 1.379 . S
C176 N184 1.356 . S
C177 C176 1.363 . S
C177 C183 1.363 . S
C178 C179 1.363 . S
C178 C183 1.379 . S
C178 N185 1.356 . S
C179 C178 1.363 . S
C179 C182 1.363 . S
N180 C182 1.356 . S
N180 H192 0.984 . S
N180 H193 0.985 . S
N181 C183 1.356 . S
N181 H186 0.984 . S
N181 H187 0.985 . S
C182 C176 1.379 . S
C182 C179 1.363 . S
C182 N180 1.356 . S
C183 C177 1.363 . S
C183 C178 1.379 . S
C183 N181 1.356 . S
N184 C176 1.356 . S
N184 H190 0.984 . S
N184 H191 0.984 . S
N185 C178 1.356 . S
N185 H188 0.984 . S
N185 H189 0.985 . S
H186 N181 0.984 . S
H187 N181 0.985 . S
H188 N185 0.984 . S
H189 N185 0.985 . S
H190 N184 0.984 . S
H191 N184 0.984 . S
H192 N180 0.984 . S
H193 N180 0.985 . S
C194 C195 1.363 . S
C194 C200 1.379 . S
C194 N202 1.356 . S
C195 C194 1.363 . S
C195 C201 1.363 . S
C196 C197 1.363 . S
C196 C201 1.379 . S
C196 N203 1.356 . S
C197 C196 1.363 . S
C197 C200 1.363 . S
N198 C200 1.356 . S
N198 H210 0.984 . S
N198 H211 0.985 . S
N199 C201 1.356 . S
N199 H204 0.984 . S
N199 H205 0.985 . S
C200 C194 1.379 . S
C200 C197 1.363 . S
C200 N198 1.356 . S
C201 C195 1.363 . S
C201 C196 1.379 . S
C201 N199 1.356 . S
N202 C194 1.356 . S
N202 H208 0.984 . S
N202 H209 0.984 . S
N203 C196 1.356 . S
N203 H206 0.984 . S
N203 H207 0.985 . S
H204 N199 0.984 . S
H205 N199 0.985 . S
H206 N203 0.984 . S
H207 N203 0.985 . S
H208 N202 0.984 . S
H209 N202 0.984 . S
H210 N198 0.984 . S
H211 N198 0.985 . S
C212 C213 1.363 . S
C212 C218 1.379 . S
C212 N220 1.356 . S
C213 C212 1.363 . S
C213 C219 1.363 . S
C214 C215 1.363 . S
C214 C219 1.379 . S
C214 N221 1.356 . S
C215 C214 1.363 . S
C215 C218 1.363 . S
N216 C218 1.356 . S
N216 H228 0.984 . S
N216 H229 0.985 . S
N217 C219 1.356 . S
N217 H222 0.984 . S
N217 H223 0.985 . S
C218 C212 1.379 . S
C218 C215 1.363 . S
C218 N216 1.356 . S
C219 C213 1.363 . S
C219 C214 1.379 . S
C219 N217 1.356 . S
N220 C212 1.356 . S
N220 H226 0.984 . S
N220 H227 0.984 . S
N221 C214 1.356 . S
N221 H224 0.984 . S
N221 H225 0.985 . S
H222 N217 0.984 . S
H223 N217 0.985 . S
H224 N221 0.984 . S
H225 N221 0.985 . S
H226 N220 0.984 . S
H227 N220 0.984 . S
H228 N216 0.984 . S
H229 N216 0.985 . S
C230 C231 1.363 . S
C230 C236 1.379 . S
C230 N238 1.356 . S
C231 C230 1.363 . S
C231 C237 1.363 . S
C232 C233 1.363 . S
C232 C237 1.379 . S
C232 N239 1.356 . S
C233 C232 1.363 . S
C233 C236 1.363 . S
N234 C236 1.356 . S
N234 H246 0.984 . S
N234 H247 0.985 . S
N235 C237 1.356 . S
N235 H240 0.984 . S
N235 H241 0.985 . S
C236 C230 1.379 . S
C236 C233 1.363 . S
C236 N234 1.356 . S
C237 C231 1.363 . S
C237 C232 1.379 . S
C237 N235 1.356 . S
N238 C230 1.356 . S
N238 H244 0.984 . S
N238 H245 0.984 . S
N239 C232 1.356 . S
N239 H242 0.984 . S
N239 H243 0.985 . S
H240 N235 0.984 . S
H241 N235 0.985 . S
H242 N239 0.984 . S
H243 N239 0.985 . S
H244 N238 0.984 . S
H245 N238 0.984 . S
H246 N234 0.984 . S
H247 N234 0.985 . S
C248 C249 1.363 . S
C248 C254 1.379 . S
C248 N256 1.356 . S
C249 C248 1.363 . S
C249 C255 1.363 . S
C250 C251 1.363 . S
C250 C255 1.379 . S
C250 N257 1.356 . S
C251 C250 1.363 . S
C251 C254 1.363 . S
N252 C254 1.356 . S
N252 H264 0.984 . S
N252 H265 0.985 . S
N253 C255 1.356 . S
N253 H258 0.984 . S
N253 H259 0.985 . S
C254 C248 1.379 . S
C254 C251 1.363 . S
C254 N252 1.356 . S
C255 C249 1.363 . S
C255 C250 1.379 . S
C255 N253 1.356 . S
N256 C248 1.356 . S
N256 H262 0.984 . S
N256 H263 0.984 . S
N257 C250 1.356 . S
N257 H260 0.984 . S
N257 H261 0.985 . S
H258 N253 0.984 . S
H259 N253 0.985 . S
H260 N257 0.984 . S
H261 N257 0.985 . S
H262 N256 0.984 . S
H263 N256 0.984 . S
H264 N252 0.984 . S
H265 N252 0.985 . S
C266 C267 1.363 . S
C266 C272 1.379 . S
C266 N274 1.356 . S
C267 C266 1.363 . S
C267 C273 1.363 . S
C268 C269 1.363 . S
C268 C273 1.379 . S
C268 N275 1.356 . S
C269 C268 1.363 . S
C269 C272 1.363 . S
N270 C272 1.356 . S
N270 H282 0.984 . S
N270 H283 0.985 . S
N271 C273 1.356 . S
N271 H276 0.984 . S
N271 H277 0.985 . S
C272 C266 1.379 . S
C272 C269 1.363 . S
C272 N270 1.356 . S
C273 C267 1.363 . S
C273 C268 1.379 . S
C273 N271 1.356 . S
N274 C266 1.356 . S
N274 H280 0.984 . S
N274 H281 0.984 . S
N275 C268 1.356 . S
N275 H278 0.984 . S
N275 H279 0.985 . S
H276 N271 0.984 . S
H277 N271 0.985 . S
H278 N275 0.984 . S
H279 N275 0.985 . S
H280 N274 0.984 . S
H281 N274 0.984 . S
H282 N270 0.984 . S
H283 N270 0.985 . S
C284 C285 1.363 . S
C284 C290 1.379 . S
C284 N292 1.356 . S
C285 C284 1.363 . S
C285 C291 1.363 . S
C286 C287 1.363 . S
C286 C291 1.379 . S
C286 N293 1.356 . S
C287 C286 1.363 . S
C287 C290 1.363 . S
N288 C290 1.356 . S
N288 H300 0.984 . S
N288 H301 0.985 . S
N289 C291 1.356 . S
N289 H294 0.984 . S
N289 H295 0.985 . S
C290 C284 1.379 . S
C290 C287 1.363 . S
C290 N288 1.356 . S
C291 C285 1.363 . S
C291 C286 1.379 . S
C291 N289 1.356 . S
N292 C284 1.356 . S
N292 H298 0.984 . S
N292 H299 0.984 . S
N293 C286 1.356 . S
N293 H296 0.984 . S
N293 H297 0.985 . S
H294 N289 0.984 . S
H295 N289 0.985 . S
H296 N293 0.984 . S
H297 N293 0.985 . S
H298 N292 0.984 . S
H299 N292 0.984 . S
H300 N288 0.984 . S
H301 N288 0.985 . S
C302 C303 1.363 . S
C302 C308 1.379 . S
C302 N310 1.356 . S
C303 C302 1.363 . S
C303 C309 1.363 . S
C304 C305 1.363 . S
C304 C309 1.379 . S
C304 N311 1.356 . S
C305 C304 1.363 . S
C305 C308 1.363 . S
N306 C308 1.356 . S
N306 H318 0.984 . S
N306 H319 0.985 . S
N307 C309 1.356 . S
N307 H312 0.984 . S
N307 H313 0.985 . S
C308 C302 1.379 . S
C308 C305 1.363 . S
C308 N306 1.356 . S
C309 C303 1.363 . S
C309 C304 1.379 . S
C309 N307 1.356 . S
N310 C302 1.356 . S
N310 H316 0.984 . S
N310 H317 0.984 . S
N311 C304 1.356 . S
N311 H314 0.984 . S
N311 H315 0.985 . S
H312 N307 0.984 . S
H313 N307 0.985 . S
H314 N311 0.984 . S
H315 N311 0.985 . S
H316 N310 0.984 . S
H317 N310 0.984 . S
H318 N306 0.984 . S
H319 N306 0.985 . S
C320 C321 1.363 . S
C320 C326 1.379 . S
C320 N328 1.356 . S
C321 C320 1.363 . S
C321 C327 1.363 . S
C322 C323 1.363 . S
C322 C327 1.379 . S
C322 N329 1.356 . S
C323 C322 1.363 . S
C323 C326 1.363 . S
N324 C326 1.356 . S
N324 H336 0.984 . S
N324 H337 0.985 . S
N325 C327 1.356 . S
N325 H330 0.984 . S
N325 H331 0.985 . S
C326 C320 1.379 . S
C326 C323 1.363 . S
C326 N324 1.356 . S
C327 C321 1.363 . S
C327 C322 1.379 . S
C327 N325 1.356 . S
N328 C320 1.356 . S
N328 H334 0.984 . S
N328 H335 0.984 . S
N329 C322 1.356 . S
N329 H332 0.984 . S
N329 H333 0.985 . S
H330 N325 0.984 . S
H331 N325 0.985 . S
H332 N329 0.984 . S
H333 N329 0.985 . S
H334 N328 0.984 . S
H335 N328 0.984 . S
H336 N324 0.984 . S
H337 N324 0.985 . S
C338 C339 1.363 . S
C338 C344 1.379 . S
C338 N346 1.356 . S
C339 C338 1.363 . S
C339 C345 1.363 . S
C340 C341 1.363 . S
C340 C345 1.379 . S
C340 N347 1.356 . S
C341 C340 1.363 . S
C341 C344 1.363 . S
N342 C344 1.356 . S
N342 H354 0.984 . S
N342 H355 0.985 . S
N343 C345 1.356 . S
N343 H348 0.984 . S
N343 H349 0.985 . S
C344 C338 1.379 . S
C344 C341 1.363 . S
C344 N342 1.356 . S
C345 C339 1.363 . S
C345 C340 1.379 . S
C345 N343 1.356 . S
N346 C338 1.356 . S
N346 H352 0.984 . S
N346 H353 0.984 . S
N347 C340 1.356 . S
N347 H350 0.984 . S
N347 H351 0.985 . S
H348 N343 0.984 . S
H349 N343 0.985 . S
H350 N347 0.984 . S
H351 N347 0.985 . S
H352 N346 0.984 . S
H353 N346 0.984 . S
H354 N342 0.984 . S
H355 N342 0.985 . S
C356 C357 1.363 . S
C356 C362 1.379 . S
C356 N364 1.356 . S
C357 C356 1.363 . S
C357 C363 1.363 . S
C358 C359 1.363 . S
C358 C363 1.379 . S
C358 N365 1.356 . S
C359 C358 1.363 . S
C359 C362 1.363 . S
N360 C362 1.356 . S
N360 H372 0.984 . S
N360 H373 0.985 . S
N361 C363 1.356 . S
N361 H366 0.984 . S
N361 H367 0.985 . S
C362 C356 1.379 . S
C362 C359 1.363 . S
C362 N360 1.356 . S
C363 C357 1.363 . S
C363 C358 1.379 . S
C363 N361 1.356 . S
N364 C356 1.356 . S
N364 H370 0.984 . S
N364 H371 0.984 . S
N365 C358 1.356 . S
N365 H368 0.984 . S
N365 H369 0.985 . S
H366 N361 0.984 . S
H367 N361 0.985 . S
H368 N365 0.984 . S
H369 N365 0.985 . S
H370 N364 0.984 . S
H371 N364 0.984 . S
H372 N360 0.984 . S
H373 N360 0.985 . S
C374 C375 1.363 . S
C374 C380 1.379 . S
C374 N382 1.356 . S
C375 C374 1.363 . S
C375 C381 1.363 . S
C376 C377 1.363 . S
C376 C381 1.379 . S
C376 N383 1.356 . S
C377 C376 1.363 . S
C377 C380 1.363 . S
N378 C380 1.356 . S
N378 H390 0.984 . S
N378 H391 0.985 . S
N379 C381 1.356 . S
N379 H384 0.984 . S
N379 H385 0.985 . S
C380 C374 1.379 . S
C380 C377 1.363 . S
C380 N378 1.356 . S
C381 C375 1.363 . S
C381 C376 1.379 . S
C381 N379 1.356 . S
N382 C374 1.356 . S
N382 H388 0.984 . S
N382 H389 0.984 . S
N383 C376 1.356 . S
N383 H386 0.984 . S
N383 H387 0.985 . S
H384 N379 0.984 . S
H385 N379 0.985 . S
H386 N383 0.984 . S
H387 N383 0.985 . S
H388 N382 0.984 . S
H389 N382 0.984 . S
H390 N378 0.984 . S
H391 N378 0.985 . S
C392 C393 1.363 . S
C392 C398 1.379 . S
C392 N400 1.356 . S
C393 C392 1.363 . S
C393 C399 1.363 1_556 S
C394 C395 1.363 . S
C394 C399 1.379 . S
C394 N401 1.356 . S
C395 C394 1.363 . S
C395 C398 1.363 1_554 S
N396 C398 1.356 . S
N396 H408 0.984 . S
N396 H409 0.985 . S
N397 C399 1.356 . S
N397 H402 0.984 1_554 S
N397 H403 0.985 . S
C398 C392 1.379 . S
C398 C395 1.363 1_556 S
C398 N396 1.356 . S
C399 C393 1.363 1_554 S
C399 C394 1.379 . S
C399 N397 1.356 . S
N400 C392 1.356 . S
N400 H406 0.984 . S
N400 H407 0.984 . S
N401 C394 1.356 . S
N401 H404 0.984 . S
N401 H405 0.985 . S
H402 N397 0.984 1_556 S
H403 N397 0.985 . S
H404 N401 0.984 . S
H405 N401 0.985 . S
H406 N400 0.984 . S
H407 N400 0.984 . S
H408 N396 0.984 . S
H409 N396 0.985 . S
C410 C411 1.363 1_554 S
C410 C416 1.379 . S
C410 N418 1.356 . S
C411 C410 1.363 1_556 S
C411 C417 1.363 . S
C412 C413 1.363 1_556 S
C412 C417 1.379 . S
C412 N419 1.356 . S
C413 C412 1.363 1_554 S
C413 C416 1.363 . S
N414 C416 1.356 . S
N414 H426 0.984 . S
N414 H427 0.985 . S
N415 C417 1.356 . S
N415 H420 0.984 . S
N415 H421 0.985 . S
C416 C410 1.379 . S
C416 C413 1.363 . S
C416 N414 1.356 . S
C417 C411 1.363 . S
C417 C412 1.379 . S
C417 N415 1.356 . S
N418 C410 1.356 . S
N418 H424 0.984 . S
N418 H425 0.984 . S
N419 C412 1.356 . S
N419 H422 0.984 . S
N419 H423 0.985 . S
H420 N415 0.984 . S
H421 N415 0.985 . S
H422 N419 0.984 . S
H423 N419 0.985 . S
H424 N418 0.984 . S
H425 N418 0.984 . S
H426 N414 0.984 . S
H427 N414 0.985 . S
C428 C429 1.364 . S
C428 C434 1.374 1_554 S
C428 N436 1.361 . S
C429 C428 1.364 . S
C429 C435 1.363 1_554 S
C430 C431 1.363 . S
C430 C435 1.379 . S
C430 N437 1.356 . S
C431 C430 1.363 . S
C431 C434 1.363 . S
N432 C434 1.356 . S
N432 H444 0.984 . S
N432 H445 0.985 . S
N433 C435 1.356 . S
N433 H438 0.984 1_556 S
N433 H439 0.985 . S
C434 C428 1.374 1_556 S
C434 C431 1.363 . S
C434 N432 1.356 . S
C435 C429 1.363 1_556 S
C435 C430 1.379 . S
C435 N433 1.356 . S
N436 C428 1.361 . S
N436 H442 0.984 . S
N436 H443 0.984 . S
N437 C430 1.356 . S
N437 H440 0.984 . S
N437 H441 0.985 . S
H438 N433 0.984 1_554 S
H439 N433 0.985 . S
H440 N437 0.984 . S
H441 N437 0.985 . S
H442 N436 0.984 . S
H443 N436 0.984 . S
H444 N432 0.984 . S
H445 N432 0.985 . S
C446 C447 1.363 . S
C446 C452 1.379 . S
C446 N454 1.356 . S
C447 C446 1.363 . S
C447 C453 1.363 1_556 S
C448 C449 1.363 . S
C448 C453 1.379 . S
C448 N455 1.356 . S
C449 C448 1.363 . S
C449 C452 1.363 1_554 S
N450 C452 1.356 . S
N450 H462 0.984 . S
N450 H463 0.985 . S
N451 C453 1.356 . S
N451 H456 0.984 . S
N451 H457 0.985 . S
C452 C446 1.379 . S
C452 C449 1.363 1_556 S
C452 N450 1.356 . S
C453 C447 1.363 1_554 S
C453 C448 1.379 . S
C453 N451 1.356 . S
N454 C446 1.356 . S
N454 H460 0.984 . S
N454 H461 0.984 . S
N455 C448 1.356 . S
N455 H458 0.984 . S
N455 H459 0.985 . S
H456 N451 0.984 . S
H457 N451 0.985 . S
H458 N455 0.984 . S
H459 N455 0.985 . S
H460 N454 0.984 . S
H461 N454 0.984 . S
H462 N450 0.984 . S
H463 N450 0.985 . S
C464 C465 1.363 . S
C464 C470 1.379 . S
C464 N472 1.356 . S
C465 C464 1.363 . S
C465 C471 1.363 . S
C466 C467 1.363 . S
C466 C471 1.379 . S
C466 N473 1.356 . S
C467 C466 1.363 . S
C467 C470 1.363 . S
N468 C470 1.356 . S
N468 H480 0.984 . S
N468 H481 0.985 . S
N469 C471 1.356 . S
N469 H474 0.984 . S
N469 H475 0.985 . S
C470 C464 1.379 . S
C470 C467 1.363 . S
C470 N468 1.356 . S
C471 C465 1.363 . S
C471 C466 1.379 . S
C471 N469 1.356 . S
N472 C464 1.356 . S
N472 H478 0.984 . S
N472 H479 0.984 . S
N473 C466 1.356 . S
N473 H476 0.984 . S
N473 H477 0.985 . S
H474 N469 0.984 . S
H475 N469 0.985 . S
H476 N473 0.984 . S
H477 N473 0.985 . S
H478 N472 0.984 . S
H479 N472 0.984 . S
H480 N468 0.984 . S
H481 N468 0.985 . S
C482 C483 1.363 . S
C482 C488 1.379 . S
C482 N490 1.356 . S
C483 C482 1.363 . S
C483 C489 1.363 . S
C484 C485 1.363 . S
C484 C489 1.379 . S
C484 N491 1.356 . S
C485 C484 1.363 . S
C485 C488 1.363 . S
N486 C488 1.356 . S
N486 H498 0.984 . S
N486 H499 0.985 . S
N487 C489 1.356 . S
N487 H492 0.984 . S
N487 H493 0.985 . S
C488 C482 1.379 . S
C488 C485 1.363 . S
C488 N486 1.356 . S
C489 C483 1.363 . S
C489 C484 1.379 . S
C489 N487 1.356 . S
N490 C482 1.356 . S
N490 H496 0.984 . S
N490 H497 0.984 . S
N491 C484 1.356 . S
N491 H494 0.984 . S
N491 H495 0.985 . S
H492 N487 0.984 . S
H493 N487 0.985 . S
H494 N491 0.984 . S
H495 N491 0.985 . S
H496 N490 0.984 . S
H497 N490 0.984 . S
H498 N486 0.984 . S
H499 N486 0.985 . S
C500 C501 1.363 . S
C500 C506 1.379 . S
C500 N508 1.356 . S
C501 C500 1.363 . S
C501 C507 1.363 . S
C502 C503 1.363 . S
C502 C507 1.379 . S
C502 N509 1.356 . S
C503 C502 1.363 . S
C503 C506 1.363 . S
N504 C506 1.356 . S
N504 H516 0.984 . S
N504 H517 0.985 . S
N505 C507 1.356 . S
N505 H510 0.984 . S
N505 H511 0.985 . S
C506 C500 1.379 . S
C506 C503 1.363 . S
C506 N504 1.356 . S
C507 C501 1.363 . S
C507 C502 1.379 . S
C507 N505 1.356 . S
N508 C500 1.356 . S
N508 H514 0.984 . S
N508 H515 0.984 . S
N509 C502 1.356 . S
N509 H512 0.984 . S
N509 H513 0.985 . S
H510 N505 0.984 . S
H511 N505 0.985 . S
H512 N509 0.984 . S
H513 N509 0.985 . S
H514 N508 0.984 . S
H515 N508 0.984 . S
H516 N504 0.984 . S
H517 N504 0.985 . S
C518 C519 1.363 . S
C518 C524 1.379 . S
C518 N526 1.356 . S
C519 C518 1.363 . S
C519 C525 1.363 . S
C520 C521 1.363 . S
C520 C525 1.379 . S
C520 N527 1.356 . S
C521 C520 1.363 . S
C521 C524 1.363 . S
N522 C524 1.356 . S
N522 H534 0.984 . S
N522 H535 0.985 . S
N523 C525 1.356 . S
N523 H528 0.984 . S
N523 H529 0.985 . S
C524 C518 1.379 . S
C524 C521 1.363 . S
C524 N522 1.356 . S
C525 C519 1.363 . S
C525 C520 1.379 . S
C525 N523 1.356 . S
N526 C518 1.356 . S
N526 H532 0.984 . S
N526 H533 0.984 . S
N527 C520 1.356 . S
N527 H530 0.984 . S
N527 H531 0.985 . S
H528 N523 0.984 . S
H529 N523 0.985 . S
H530 N527 0.984 . S
H531 N527 0.985 . S
H532 N526 0.984 . S
H533 N526 0.984 . S
H534 N522 0.984 . S
H535 N522 0.985 . S
C536 C537 1.363 1_565 S
C536 C542 1.379 . S
C536 N544 1.356 1_565 S
C537 C536 1.363 1_545 S
C537 C543 1.363 . S
C538 C539 1.363 1_545 S
C538 C543 1.379 . S
C538 N545 1.356 1_545 S
C539 C538 1.363 1_565 S
C539 C542 1.363 . S
N540 C542 1.356 . S
N540 H552 0.984 . S
N540 H553 0.985 . S
N541 C543 1.356 . S
N541 H546 0.984 . S
N541 H547 0.985 . S
C542 C536 1.379 . S
C542 C539 1.363 . S
C542 N540 1.356 . S
C543 C537 1.363 . S
C543 C538 1.379 . S
C543 N541 1.356 . S
N544 C536 1.356 1_545 S
N544 H550 0.984 1_545 S
N544 H551 0.984 . S
N545 C538 1.356 1_565 S
N545 H548 0.984 . S
N545 H549 0.985 1_565 S
H546 N541 0.984 . S
H547 N541 0.985 . S
H548 N545 0.984 . S
H549 N545 0.985 1_545 S
H550 N544 0.984 1_565 S
H551 N544 0.984 . S
H552 N540 0.984 . S
H553 N540 0.985 . S
C554 C555 1.363 1_455 S
C554 C560 1.379 . S
C554 N562 1.356 1_455 S
C555 C554 1.363 1_655 S
C555 C561 1.363 . S
C556 C557 1.363 1_655 S
C556 C561 1.379 . S
C556 N563 1.356 1_655 S
C557 C556 1.363 1_455 S
C557 C560 1.363 . S
N558 C560 1.356 . S
N558 H570 0.984 . S
N558 H571 0.985 . S
N559 C561 1.356 . S
N559 H564 0.984 . S
N559 H565 0.985 . S
C560 C554 1.379 . S
C560 C557 1.363 . S
C560 N558 1.356 . S
C561 C555 1.363 . S
C561 C556 1.379 . S
C561 N559 1.356 . S
N562 C554 1.356 1_655 S
N562 H568 0.984 1_655 S
N562 H569 0.984 . S
N563 C556 1.356 1_455 S
N563 H566 0.984 . S
N563 H567 0.985 1_455 S
H564 N559 0.984 . S
H565 N559 0.985 . S
H566 N563 0.984 . S
H567 N563 0.985 1_655 S
H568 N562 0.984 1_455 S
H569 N562 0.984 . S
H570 N558 0.984 . S
H571 N558 0.985 . S
C572 C573 1.363 . S
C572 C578 1.379 . S
C572 N580 1.356 . S
C573 C572 1.363 . S
C573 C579 1.363 1_565 S
C574 C575 1.363 . S
C574 C579 1.379 . S
C574 N581 1.356 . S
C575 C574 1.363 . S
C575 C578 1.363 1_545 S
N576 C578 1.356 1_545 S
N576 H588 0.984 1_545 S
N576 H589 0.985 . S
N577 C579 1.356 1_565 S
N577 H582 0.984 . S
N577 H583 0.985 1_565 S
C578 C572 1.379 . S
C578 C575 1.363 1_565 S
C578 N576 1.356 1_565 S
C579 C573 1.363 1_545 S
C579 C574 1.379 . S
C579 N577 1.356 1_545 S
N580 C572 1.356 . S
N580 H586 0.984 . S
N580 H587 0.984 . S
N581 C574 1.356 . S
N581 H584 0.984 . S
N581 H585 0.985 . S
H582 N577 0.984 . S
H583 N577 0.985 1_545 S
H584 N581 0.984 . S
H585 N581 0.985 . S
H586 N580 0.984 . S
H587 N580 0.984 . S
H588 N576 0.984 1_565 S
H589 N576 0.985 . S
C590 C591 1.363 1_455 S
C590 C596 1.379 . S
C590 N598 1.356 1_455 S
C591 C590 1.363 1_655 S
C591 C597 1.363 . S
C592 C593 1.363 1_655 S
C592 C597 1.379 . S
C592 N599 1.356 1_655 S
C593 C592 1.363 1_455 S
C593 C596 1.363 . S
N594 C596 1.356 . S
N594 H606 0.984 . S
N594 H607 0.985 . S
N595 C597 1.356 . S
N595 H600 0.984 . S
N595 H601 0.985 . S
C596 C590 1.379 . S
C596 C593 1.363 . S
C596 N594 1.356 . S
C597 C591 1.363 . S
C597 C592 1.379 . S
C597 N595 1.356 . S
N598 C590 1.356 1_655 S
N598 H604 0.984 1_655 S
N598 H605 0.984 . S
N599 C592 1.356 1_455 S
N599 H602 0.984 . S
N599 H603 0.985 1_455 S
H600 N595 0.984 . S
H601 N595 0.985 . S
H602 N599 0.984 . S
H603 N599 0.985 1_655 S
H604 N598 0.984 1_455 S
H605 N598 0.984 . S
H606 N594 0.984 . S
H607 N594 0.985 . S
C177 C116 1.385 . S
C179 C7 1.385 . S
C195 C27 1.385 . S
C197 C141 1.385 . S
C213 C160 1.385 . S
C215 C51 1.385 . S
C231 C71 1.385 . S
C233 C97 1.385 . S
C249 C96 1.542 . S
C251 C6 1.543 . S
C267 C31 1.543 . S
C269 C114 1.542 . S
C285 C50 1.543 . S
C287 C140 1.542 . S
C303 C158 1.542 . S
C305 C75 1.543 . S
C321 C8 1.542 . S
C323 C93 1.543 . S
C339 C117 1.543 . S
C341 C26 1.542 . S
C357 C52 1.542 . S
C359 C137 1.543 . S
C375 C70 1.542 . S
C377 C161 1.543 . S
C393 C30 1.149 . S
C395 C5 1.144 . S
C411 C29 1.144 . S
C413 C48 1.149 . S
C429 C49 1.144 . S
C431 C74 1.149 . S
C447 C73 1.144 . S
C449 C4 1.149 . S
C465 C94 1.144 . S
C467 C162 1.149 . S
C483 C92 1.149 . S
C485 C119 1.144 . S
C501 C138 1.144 . S
C503 C118 1.149 . S
C519 C163 1.144 . S
C521 C136 1.149 . S
C537 C9 1.757 . S
C539 C53 1.757 . S
C555 C72 1.757 . S
C557 C28 1.757 . S
C573 C139 1.757 . S
C575 C95 1.757 . S
C591 C159 1.757 . S
C593 C115 1.757 . S
