# Generated by pormake.
# Topology eci, (8)-cn, num edge types: 1
# Building blocks:
#     Node 0, Type 0, BuildingBlock: AJUNOK_clean_sbu_0, # of connection points: 8
#     Node 1, Type 0, BuildingBlock: AJUNOK_clean_sbu_0, # of connection points: 8
#     Node 2, Type 0, BuildingBlock: AJUNOK_clean_sbu_0, # of connection points: 8
#     Node 3, Type 0, BuildingBlock: AJUNOK_clean_sbu_0, # of connection points: 8
#     Edge 4, Type (0, 0), BuildingBlock: OJICUG_clean_linker_0, # of connection points: 2
#     Edge 5, Type (0, 0), BuildingBlock: OJICUG_clean_linker_0, # of connection points: 2
#     Edge 6, Type (0, 0), BuildingBlock: OJICUG_clean_linker_0, # of connection points: 2
#     Edge 7, Type (0, 0), BuildingBlock: OJICUG_clean_linker_0, # of connection points: 2
#     Edge 8, Type (0, 0), BuildingBlock: OJICUG_clean_linker_0, # of connection points: 2
#     Edge 9, Type (0, 0), BuildingBlock: OJICUG_clean_linker_0, # of connection points: 2
#     Edge 10, Type (0, 0), BuildingBlock: OJICUG_clean_linker_0, # of connection points: 2
#     Edge 11, Type (0, 0), BuildingBlock: OJICUG_clean_linker_0, # of connection points: 2
#     Edge 12, Type (0, 0), BuildingBlock: OJICUG_clean_linker_0, # of connection points: 2
#     Edge 13, Type (0, 0), BuildingBlock: OJICUG_clean_linker_0, # of connection points: 2
#     Edge 14, Type (0, 0), BuildingBlock: OJICUG_clean_linker_0, # of connection points: 2
#     Edge 15, Type (0, 0), BuildingBlock: OJICUG_clean_linker_0, # of connection points: 2
#     Edge 16, Type (0, 0), BuildingBlock: OJICUG_clean_linker_0, # of connection points: 2
#     Edge 17, Type (0, 0), BuildingBlock: OJICUG_clean_linker_0, # of connection points: 2
#     Edge 18, Type (0, 0), BuildingBlock: OJICUG_clean_linker_0, # of connection points: 2
#     Edge 19, Type (0, 0), BuildingBlock: OJICUG_clean_linker_0, # of connection points: 2
# Relax obj value: 0.381
# Max RMSD: 0.292
# Mean RMSD: 0.292
data_MOF--net-eci--node1-AJUNOK_clean_sbu_0--edge1-OJICUG_clean_linker_0
_symmetry_space_group_name_H-M    P1
_symmetry_Int_Tables_number       1
_symmetry_cell_setting            triclinic
loop_
_symmetry_equiv_pos_as_xyz
'x, y, z'
_cell_length_a     26.308753
_cell_length_b     26.29189
_cell_length_c     14.839722
_cell_angle_alpha  90.218747
_cell_angle_beta   89.545904
_cell_angle_gamma 89.817543
loop_
_atom_site_label
_atom_site_type_symbol
_atom_site_fract_x
_atom_site_fract_y
_atom_site_fract_z
_atom_type_partial_charge
Cd0 Cd 0.80517 0.78412 0.11338 0.0
Cd1 Cd 0.78509 0.80408 0.84644 0.0
C2 C 0.82308 0.66905 0.04289 0.0
N3 N 0.78501 0.70308 0.05953 0.0
C4 C 0.72533 0.63551 0.07825 0.0
C5 C 0.76458 0.59952 0.06718 0.0
C6 C 0.81344 0.61686 0.04471 0.0
C7 C 0.73654 0.6874 0.07467 0.0
H8 H 0.86191 0.68179 0.03762 0.0
H9 H 0.7075 0.71507 0.09194 0.0
C10 C 0.761 0.88921 0.02018 0.0
C11 C 0.80773 0.91554 0.75956 0.0
C12 C 0.83739 0.95593 0.72832 0.0
C13 C 0.89014 0.94926 0.71774 0.0
C14 C 0.91137 0.90128 0.73553 0.0
C15 C 0.8804 0.8622 0.76663 0.0
N16 N 0.82996 0.87034 0.78035 0.0
H17 H 0.7673 0.9207 0.77011 0.0
H18 H 0.89684 0.82565 0.78206 0.0
C19 C 0.67053 0.82673 0.90538 0.0
N20 N 0.70344 0.78689 0.89815 0.0
C21 C 0.63446 0.72827 0.89046 0.0
C22 C 0.59965 0.76899 0.89237 0.0
C23 C 0.6182 0.81851 0.90431 0.0
C24 C 0.68659 0.7382 0.8928 0.0
H25 H 0.68457 0.86525 0.90288 0.0
H26 H 0.71355 0.70755 0.88239 0.0
C27 C 0.89334 0.76296 0.94166 0.0
C28 C 0.77441 0.75775 0.29139 0.0
N29 N 0.87044 0.83748 0.16353 0.0
C30 C 0.89656 0.82892 0.2409 0.0
C31 C 0.9352 0.86212 0.26726 0.0
C32 C 0.9468 0.90451 0.21356 0.0
C33 C 0.91849 0.91264 0.13508 0.0
C34 C 0.88089 0.87836 0.11093 0.0
C35 C 0.76057 0.76851 0.6717 0.0
O36 O 0.74689 0.853 0.07084 0.0
O37 O 0.78151 0.87985 0.94408 0.0
O38 O 0.85823 0.75128 0.88716 0.0
O39 O 0.8828 0.77932 0.02025 0.0
O40 O 0.74984 0.78948 0.24437 0.0
O41 O 0.81357 0.73775 0.25514 0.0
O42 O 0.78884 0.74268 0.72347 0.0
O43 O 0.74302 0.81023 0.70248 0.0
H44 H 0.88798 0.79617 0.28188 0.0
H45 H 0.86074 0.88389 0.04886 0.0
H46 H 0.6871 0.62371 0.09565 0.0
H47 H 0.84498 0.59053 0.03759 0.0
H48 H 0.81946 0.99213 0.71421 0.0
H49 H 0.95186 0.89446 0.72923 0.0
H50 H 0.62163 0.68953 0.88106 0.0
H51 H 0.59281 0.85102 0.90388 0.0
H52 H 0.95635 0.85405 0.32787 0.0
H53 H 0.92524 0.9452 0.0922 0.0
Cd54 Cd 0.72541 0.30944 0.3677 0.0
Cd55 Cd 0.70137 0.28528 0.09972 0.0
C56 C 0.83692 0.34395 0.31984 0.0
N57 N 0.80854 0.30097 0.31334 0.0
C58 C 0.88357 0.2506 0.29181 0.0
C59 C 0.91384 0.29405 0.30413 0.0
C60 C 0.8898 0.34141 0.31478 0.0
C61 C 0.83053 0.25485 0.29799 0.0
H62 H 0.8187 0.3798 0.33608 0.0
H63 H 0.80731 0.22101 0.29781 0.0
C64 C 0.6168 0.26654 0.27879 0.0
C65 C 0.59991 0.31893 -0.01356 0.0
C66 C 0.55778 0.34876 0.96378 0.0
C67 C 0.54782 0.39387 0.01197 0.0
C68 C 0.58096 0.40809 0.0811 0.0
C69 C 0.62237 0.37739 0.10116 0.0
N70 N 0.63123 0.33374 0.0542 0.0
H71 H 0.60714 0.28379 0.95055 0.0
H72 H 0.64672 0.38787 0.15601 0.0
C73 C 0.68308 0.16996 0.16581 0.0
N74 N 0.72124 0.2033 0.14759 0.0
C75 C 0.77961 0.13479 0.12265 0.0
C76 C 0.74021 0.09948 0.13543 0.0
C77 C 0.69199 0.11758 0.16146 0.0
C78 C 0.76914 0.18683 0.12854 0.0
H79 H 0.64464 0.18358 0.17502 0.0
H80 H 0.79816 0.21407 0.11035 0.0
C81 C 0.74527 0.39101 0.18929 0.0
C82 C 0.7526 0.27488 0.54109 0.0
N83 N 0.67743 0.3744 0.43297 0.0
C84 C 0.69517 0.42268 0.4417 0.0
C85 C 0.66201 0.46204 0.46629 0.0
C86 C 0.61057 0.45113 0.48325 0.0
C87 C 0.59447 0.40031 0.48036 0.0
C88 C 0.62882 0.36239 0.45522 0.0
C89 C 0.73362 0.26326 0.92042 0.0
O90 O 0.6528 0.25441 0.33117 0.0
O91 O 0.62634 0.28204 0.19954 0.0
O92 O 0.76025 0.35387 0.14099 0.0
O93 O 0.72472 0.38298 0.26561 0.0
O94 O 0.72944 0.24597 0.48636 0.0
O95 O 0.76433 0.31905 0.51349 0.0
O96 O 0.75628 0.29543 0.96962 0.0
O97 O 0.69522 0.24116 0.95467 0.0
H98 H 0.73439 0.43101 0.42518 0.0
H99 H 0.6163 0.32352 0.45018 0.0
H100 H 0.90075 0.21326 0.28523 0.0
H101 H 0.9118 0.37569 0.32495 0.0
H102 H 0.53295 0.33636 0.91019 0.0
H103 H 0.57529 0.44293 0.11909 0.0
H104 H 0.81738 0.12241 0.10276 0.0
H105 H 0.66035 0.09178 0.17025 0.0
H106 H 0.67606 0.50067 0.46941 0.0
H107 H 0.55516 0.39017 0.4928 0.0
Cd108 Cd 0.23649 0.19144 0.32758 0.0
Cd109 Cd 0.18869 0.21881 0.59908 0.0
C110 C 0.33855 0.20079 0.44852 0.0
N111 N 0.30399 0.23019 0.40475 0.0
C112 C 0.36864 0.29038 0.36737 0.0
C113 C 0.40612 0.25696 0.4 0.0
C114 C 0.39001 0.21351 0.44692 0.0
C115 C 0.31753 0.2759 0.36967 0.0
H116 H 0.32807 0.16431 0.47505 0.0
H117 H 0.28974 0.29817 0.33357 0.0
C118 C 0.12201 0.25369 0.40099 0.0
C119 C 0.06886 0.19239 0.63739 0.0
C120 C 0.02813 0.15902 0.65003 0.0
C121 C 0.03806 0.10782 0.67032 0.0
C122 C 0.08849 0.09208 0.68307 0.0
C123 C 0.12777 0.12657 0.6702 0.0
N124 N 0.1174 0.17512 0.6456 0.0
H125 H 0.0618 0.23123 0.61713 0.0
H126 H 0.16685 0.11414 0.67576 0.0
C127 C 0.1697 0.33841 0.58011 0.0
N128 N 0.20862 0.30428 0.57463 0.0
C129 C 0.26947 0.37157 0.57966 0.0
C130 C 0.22991 0.40746 0.58768 0.0
C131 C 0.17951 0.39042 0.58501 0.0
C132 C 0.25787 0.31977 0.57306 0.0
H133 H 0.13098 0.32522 0.58644 0.0
H134 H 0.28809 0.29179 0.57218 0.0
C135 C 0.24687 0.10776 0.48317 0.0
C136 C 0.26544 0.20864 0.1439 0.0
N137 N 0.17599 0.12673 0.3195 0.0
C138 C 0.18325 0.09222 0.25237 0.0
C139 C 0.14898 0.05271 0.24022 0.0
C140 C 0.10571 0.04926 0.29604 0.0
C141 C 0.09987 0.08466 0.36671 0.0
C142 C 0.13595 0.123 0.37778 0.0
C143 C 0.23569 0.223 0.7685 0.0
O144 O 0.15556 0.2386 0.34474 0.0
O145 O 0.128 0.24799 0.48527 0.0
O146 O 0.22692 0.14578 0.52298 0.0
O147 O 0.25996 0.11227 0.40121 0.0
O148 O 0.24032 0.24057 0.19031 0.0
O149 O 0.27863 0.16806 0.18339 0.0
O150 O 0.25749 0.20006 0.70306 0.0
O151 O 0.19248 0.24323 0.75438 0.0
H152 H 0.21592 0.09522 0.20826 0.0
H153 H 0.13175 0.14984 0.43257 0.0
H154 H 0.37898 0.32518 0.33315 0.0
H155 H 0.41706 0.18646 0.47354 0.0
H156 H 0.98963 0.17239 0.63978 0.0
H157 H 0.09751 0.05311 0.70038 0.0
H158 H 0.30886 0.38331 0.58196 0.0
H159 H 0.14801 0.41672 0.59306 0.0
H160 H 0.15634 0.02539 0.18693 0.0
H161 H 0.06724 0.08374 0.4116 0.0
Cd162 Cd 0.30836 0.72325 0.5986 0.0
Cd163 Cd 0.28974 0.70352 0.85981 0.0
C164 C 0.32474 0.83977 0.65854 0.0
N165 N 0.28709 0.80481 0.64878 0.0
C166 C 0.22528 0.87081 0.63222 0.0
C167 C 0.26387 0.90749 0.63674 0.0
C168 C 0.31368 0.89169 0.65469 0.0
C169 C 0.23784 0.81926 0.63855 0.0
H170 H 0.36398 0.8277 0.65978 0.0
H171 H 0.20913 0.79073 0.62644 0.0
C172 C 0.26271 0.61735 0.69069 0.0
C173 C 0.32514 0.6002 0.96134 0.0
C174 C 0.35387 0.55673 -0.0203 0.0
C175 C 0.39831 0.5467 0.92939 0.0
C176 C 0.41265 0.58097 0.86163 0.0
C177 C 0.38288 0.62377 0.84562 0.0
N178 N 0.34007 0.63274 0.89525 0.0
H179 H 0.29057 0.60754 -0.00098 0.0
H180 H 0.39339 0.64905 0.79186 0.0
C181 C 0.17398 0.68526 0.80545 0.0
N182 N 0.20745 0.72409 0.81646 0.0
C183 C 0.13914 0.78323 0.83713 0.0
C184 C 0.10389 0.74336 0.82995 0.0
C185 C 0.12181 0.69428 0.81006 0.0
C186 C 0.19116 0.77262 0.83027 0.0
H187 H 0.18738 0.6465 0.80196 0.0
H188 H 0.21856 0.80229 0.84333 0.0
C189 C 0.39201 0.75024 0.77021 0.0
C190 C 0.28017 0.74813 0.42105 0.0
N191 N 0.37392 0.67122 0.54406 0.0
C192 C 0.42161 0.68929 0.5285 0.0
C193 C 0.46186 0.6555 0.51301 0.0
C194 C 0.45247 0.60295 0.51264 0.0
C195 C 0.40219 0.58588 0.52073 0.0
C196 C 0.36329 0.62092 0.53578 0.0
C197 C 0.27123 0.73276 0.0409 0.0
O198 O 0.25052 0.65341 0.63838 0.0
O199 O 0.28278 0.6267 0.76633 0.0
O200 O 0.3549 0.76508 0.81845 0.0
O201 O 0.38381 0.72888 0.695 0.0
O202 O 0.25195 0.72107 0.47121 0.0
O203 O 0.32149 0.76415 0.45446 0.0
O204 O 0.3046 0.7543 -0.00758 0.0
O205 O 0.2467 0.69644 0.00531 0.0
H206 H 0.4289 0.72968 0.53343 0.0
H207 H 0.32479 0.60779 0.54346 0.0
H208 H 0.18659 0.88171 0.61681 0.0
H209 H 0.34456 0.91886 0.65589 0.0
H210 H 0.34115 0.53105 0.03204 0.0
H211 H 0.44693 0.57527 0.82193 0.0
H212 H 0.12673 0.82158 0.85287 0.0
H213 H 0.09601 0.66233 0.80634 0.0
H214 H 0.50012 0.67016 0.50622 0.0
H215 H 0.39317 0.54573 0.51755 0.0
C216 C 0.72365 0.77937 0.4288 0.0
C217 C 0.76187 0.74985 0.38733 0.0
H218 H 0.69284 0.808 0.55284 0.0
C219 C 0.79225 0.71815 0.44075 0.0
H220 H 0.69888 0.80336 0.38924 0.0
C221 C 0.78841 0.72045 0.53462 0.0
C222 C 0.75449 0.75485 0.57604 0.0
H223 H 0.82136 0.69422 0.41047 0.0
H224 H 0.81484 0.69842 0.57438 0.0
C225 C 0.72015 0.78203 0.52252 0.0
C226 C 0.78964 0.29092 0.69219 0.0
C227 C 0.75838 0.26139 0.63665 0.0
H228 H 0.80696 0.31385 0.82667 0.0
C229 C 0.72622 0.22499 0.67596 0.0
H230 H 0.81551 0.31857 0.66346 0.0
C231 C 0.72074 0.22275 0.76959 0.0
C232 C 0.74784 0.25646 0.82482 0.0
H233 H 0.7021 0.20129 0.63458 0.0
H234 H 0.69289 0.19706 0.79816 0.0
C235 C 0.78463 0.28826 0.78565 0.0
C236 C 0.2768 0.17812 0.89632 0.0
C237 C 0.25691 0.22301 0.85957 0.0
H238 H 0.29529 0.13812 0.01742 0.0
C239 C 0.24998 0.26582 0.91484 0.0
H240 H 0.28246 0.14467 0.85449 0.0
C241 C 0.25794 0.2624 0.00729 0.0
C242 C 0.27198 0.21579 0.046 0.0
H243 H 0.23553 0.30108 0.88727 0.0
H244 H 0.24945 0.29527 0.04909 0.0
C245 C 0.28409 0.17442 -0.01061 0.0
C246 C 0.22942 0.72046 0.19057 0.0
C247 C 0.26514 0.746 0.13672 0.0
H248 H 0.20547 0.70209 0.32442 0.0
C249 C 0.29887 0.78037 0.17714 0.0
H250 H 0.20218 0.69466 0.16088 0.0
C251 C 0.30094 0.78447 0.27067 0.0
C252 C 0.26906 0.75451 0.32483 0.0
H253 H 0.32605 0.80153 0.13701 0.0
H254 H 0.3297 0.80853 0.30041 0.0
C255 C 0.23122 0.72487 0.28415 0.0
C256 C 0.48446 0.72822 0.75984 0.0
C257 C 0.44481 0.75469 0.80364 0.0
H258 H 0.56398 0.71159 0.75417 0.0
C259 C 0.45605 0.7837 0.88079 0.0
H260 H 0.47718 0.70495 0.70105 0.0
C261 C 0.50611 0.78725 0.91175 0.0
C262 C 0.54574 0.76123 0.86698 0.0
H263 H 0.4263 0.80416 0.91663 0.0
H264 H 0.51392 0.81063 0.97026 0.0
C265 C 0.53421 0.73133 0.79123 0.0
C266 C 0.72644 0.00573 0.16132 0.0
C267 C 0.74731 0.04522 0.10937 0.0
H268 H 0.71447 0.92542 0.17436 0.0
C269 C 0.77229 0.03291 0.02805 0.0
H270 H 0.70695 0.01405 0.22426 0.0
C271 C 0.77616 0.98246 -0.00095 0.0
C272 C 0.75527 0.94283 0.05068 0.0
H273 H 0.78786 0.06247 -0.01457 0.0
H274 H 0.79567 0.97463 0.93596 0.0
C275 C 0.73065 0.95501 0.13256 0.0
C276 C 0.47313 0.28045 0.28584 0.0
C277 C 0.46063 0.26257 0.37257 0.0
H278 H 0.53139 0.29537 0.18837 0.0
C279 C 0.5003 0.2454 0.42804 0.0
H280 H 0.44384 0.29268 0.23983 0.0
C281 C 0.5508 0.24556 0.39716 0.0
C282 C 0.56306 0.26343 0.31039 0.0
H283 H 0.49241 0.23161 0.49535 0.0
H284 H 0.58028 0.23203 0.44169 0.0
C285 C 0.52353 0.28108 0.25542 0.0
C286 C 0.26725 1.0028 0.65443 0.0
C287 C 0.25481 0.9596 0.6031 0.0
H288 H 0.2732 0.08447 0.6571 0.0
C289 C 0.23842 0.96586 0.51406 0.0
H290 H 0.28041 0.99871 0.72301 0.0
C291 C 0.23605 0.01414 0.47582 0.0
C292 C 0.24888 0.05738 0.52642 0.0
H293 H 0.22927 0.9331 0.47278 0.0
H294 H 0.22412 0.01769 0.40639 0.0
C295 C 0.26337 0.05156 0.61677 0.0
C296 C 0.98617 0.77969 0.9642 0.0
C297 C 0.94724 0.75748 0.91308 0.0
H298 H 0.06601 0.79317 0.97715 0.0
C299 C 0.96014 0.73241 0.83209 0.0
H300 H 0.97757 0.79973 0.02642 0.0
C301 C 0.01087 0.7289 0.8037 0.0
C302 C 0.0497 0.75096 0.85504 0.0
H303 H 0.93107 0.71529 0.79066 0.0
H304 H 0.01979 0.70883 0.74165 0.0
C305 C 0.03679 0.77661 0.93531 0.0
C306 C 0.77458 0.45503 0.07376 0.0
C307 C 0.74972 0.44403 0.15575 0.0
H308 H 0.79835 0.51283 -0.01939 0.0
C309 C 0.72782 0.48435 0.2052 0.0
H310 H 0.7915 0.42487 0.03354 0.0
C311 C 0.73127 0.53433 0.17447 0.0
C312 C 0.75682 0.54555 0.09348 0.0
H313 H 0.70803 0.47747 0.26817 0.0
H314 H 0.71517 0.56447 0.21583 0.0
C315 C 0.77837 0.50533 0.04324 0.0
C316 C 0.98974 0.31029 0.39981 0.0
C317 C 0.96921 0.28907 0.32101 0.0
H318 H 0.05401 0.31578 0.4867 0.0
C319 C 1.00095 0.26011 0.26397 0.0
H320 H 0.96604 0.33228 0.44565 0.0
C321 C 0.05189 0.25139 0.28683 0.0
C322 C 0.07157 0.27048 0.36823 0.0
H323 H 0.98605 0.24334 0.20287 0.0
H324 H 0.07502 0.22745 0.24322 0.0
C325 C 0.04013 0.30073 0.42353 0.0
C326 C 0.27368 0.4737 0.6799 0.0
C327 C 0.24057 0.4615 0.60931 0.0
H328 H 0.30585 0.53221 0.7619 0.0
C329 C 0.21482 0.501 0.56505 0.0
H330 H 0.29347 0.444 0.71605 0.0
C331 C 0.22193 0.5517 0.59118 0.0
C332 C 0.25418 0.56378 0.66325 0.0
H333 H 0.18907 0.4926 0.5104 0.0
H334 H 0.20175 0.58135 0.55562 0.0
C335 C 0.28018 0.5242 0.70694 0.0
C336 C 0.03717 0.9883 0.34664 0.0
C337 C 0.06606 0.01055 0.27702 0.0
H338 H 0.97628 0.93796 0.38157 0.0
C339 C 0.05616 0.9963 0.18747 0.0
H340 H 0.04411 0.99779 0.41649 0.0
C341 C 0.01872 0.96087 0.16785 0.0
C342 C 0.98883 0.93965 0.23684 0.0
H343 H 0.07665 0.01315 0.1316 0.0
H344 H 0.01309 0.95039 0.09801 0.0
C345 C 0.99876 0.95337 0.32672 0.0
C346 C 0.57377 0.53559 0.44099 0.0
C347 C 0.57287 0.49244 0.49671 0.0
H348 H 0.53593 0.60416 0.40143 0.0
C349 C 0.53337 0.48719 0.56018 0.0
H350 H 0.60333 0.54026 0.39048 0.0
C351 C 0.49474 0.5235 0.56589 0.0
C352 C 0.49477 0.5658 0.50825 0.0
H353 H 0.53206 0.45472 0.60485 0.0
H354 H 0.46471 0.5184 0.61541 0.0
C355 C 0.5351 0.57201 0.44683 0.0
C356 C 0.95269 0.07879 0.72572 0.0
C357 C 0.99678 0.0699 0.67415 0.0
H358 H 0.88432 0.04717 0.78069 0.0
C359 C 1.00264 0.02322 0.62889 0.0
H360 H 0.94734 0.11453 0.76115 0.0
C361 C 0.96647 0.98503 0.63888 0.0
C362 C 0.92384 0.99255 0.69506 0.0
H363 H 0.03583 0.01589 0.58708 0.0
H364 H 0.9726 0.94909 0.6045 0.0
C365 C 0.91656 0.04033 0.7364 0.0
C366 C 0.49262 0.43849 0.89993 0.0
C367 C 0.50415 0.42717 -0.0101 0.0
H368 H 0.44917 0.48451 0.81004 0.0
C369 C 0.47642 0.45133 0.0593 0.0
H370 H 0.51329 0.42049 0.84498 0.0
C371 C 0.44046 0.48861 0.03948 0.0
C372 C 0.43112 0.50227 0.94972 0.0
H373 H 0.48371 0.44258 0.12931 0.0
H374 H 0.42183 0.50837 0.0948 0.0
C375 C 0.45636 0.47563 0.88003 0.0
loop_
_geom_bond_atom_site_label_1
_geom_bond_atom_site_label_2
_geom_bond_distance
_geom_bond_site_symmetry_2
_ccdc_geom_bond_type
Cd0 N3 2.334 . S
Cd0 N29 2.304 . S
Cd0 O36 2.268 . S
Cd0 O39 2.273 . S
Cd0 O40 2.417 . S
Cd0 O41 2.330 . S
Cd1 N16 2.304 . S
Cd1 N20 2.334 . S
Cd1 O37 2.273 . S
Cd1 O38 2.268 . S
Cd1 O42 2.417 . S
Cd1 O43 2.330 . S
C2 N3 1.332 . S
C2 C6 1.381 . S
C2 H8 0.931 . S
N3 Cd0 2.334 . S
N3 C2 1.332 . S
N3 C7 1.328 . S
C4 C5 1.396 . S
C4 C7 1.378 . S
C4 H46 0.931 . S
C5 C4 1.396 . S
C5 C6 1.382 . S
C6 C2 1.381 . S
C6 C5 1.382 . S
C6 H47 0.930 . S
C7 N3 1.328 . S
C7 C4 1.378 . S
C7 H9 0.930 . S
H8 C2 0.931 . S
H9 C7 0.930 . S
C10 O36 1.238 . S
C10 O37 1.253 1_554 S
C11 C12 1.379 . S
C11 N16 1.337 . S
C11 H17 0.929 . S
C12 C11 1.379 . S
C12 C13 1.380 . S
C12 H48 0.929 1_565 S
C13 C12 1.380 . S
C13 C14 1.399 . S
C14 C13 1.399 . S
C14 C15 1.376 . S
C14 H49 0.931 1_655 S
C15 C14 1.376 . S
C15 N16 1.338 . S
C15 H18 0.930 . S
N16 Cd1 2.304 . S
N16 C11 1.337 . S
N16 C15 1.338 . S
H17 C11 0.929 . S
H18 C15 0.930 . S
C19 N20 1.332 . S
C19 C23 1.381 . S
C19 H25 0.931 . S
N20 Cd1 2.334 . S
N20 C19 1.332 . S
N20 C24 1.328 . S
C21 C22 1.396 . S
C21 C24 1.378 . S
C21 H50 0.931 . S
C22 C21 1.396 . S
C22 C23 1.382 . S
C23 C19 1.381 . S
C23 C22 1.382 . S
C23 H51 0.930 . S
C24 N20 1.328 . S
C24 C21 1.378 . S
C24 H26 0.930 . S
H25 C19 0.931 . S
H26 C24 0.930 . S
C27 O38 1.238 . S
C27 O39 1.253 1_556 S
C28 O40 1.239 . S
C28 O41 1.230 . S
N29 Cd0 2.304 . S
N29 C30 1.337 . S
N29 C34 1.338 . S
C30 N29 1.337 . S
C30 C31 1.379 . S
C30 H44 0.929 . S
C31 C30 1.379 . S
C31 C32 1.380 . S
C31 H52 0.929 1_655 S
C32 C31 1.380 . S
C32 C33 1.399 . S
C33 C32 1.399 . S
C33 C34 1.376 . S
C33 H53 0.931 1_565 S
C34 N29 1.338 . S
C34 C33 1.376 . S
C34 H45 0.930 . S
C35 O42 1.239 . S
C35 O43 1.230 . S
O36 Cd0 2.268 . S
O36 C10 1.238 . S
O37 Cd1 2.273 . S
O37 C10 1.253 1_556 S
O38 Cd1 2.268 . S
O38 C27 1.238 . S
O39 Cd0 2.273 . S
O39 C27 1.253 1_554 S
O40 Cd0 2.417 . S
O40 C28 1.239 . S
O41 Cd0 2.330 . S
O41 C28 1.230 . S
O42 Cd1 2.417 . S
O42 C35 1.239 . S
O43 Cd1 2.330 . S
O43 C35 1.230 . S
H44 C30 0.929 . S
H45 C34 0.930 . S
H46 C4 0.931 . S
H47 C6 0.930 . S
H48 C12 0.929 1_545 S
H49 C14 0.931 1_455 S
H50 C21 0.931 . S
H51 C23 0.930 . S
H52 C31 0.929 1_455 S
H53 C33 0.931 1_545 S
Cd54 N57 2.334 . S
Cd54 N83 2.304 . S
Cd54 O90 2.268 . S
Cd54 O93 2.273 . S
Cd54 O94 2.417 . S
Cd54 O95 2.330 . S
Cd55 N70 2.304 . S
Cd55 N74 2.334 . S
Cd55 O91 2.273 . S
Cd55 O92 2.268 . S
Cd55 O96 2.417 1_554 S
Cd55 O97 2.330 1_554 S
C56 N57 1.332 . S
C56 C60 1.381 . S
C56 H62 0.931 . S
N57 Cd54 2.334 . S
N57 C56 1.332 . S
N57 C61 1.328 . S
C58 C59 1.396 . S
C58 C61 1.378 . S
C58 H100 0.931 . S
C59 C58 1.396 . S
C59 C60 1.382 . S
C60 C56 1.381 . S
C60 C59 1.382 . S
C60 H101 0.930 . S
C61 N57 1.328 . S
C61 C58 1.378 . S
C61 H63 0.930 . S
H62 C56 0.931 . S
H63 C61 0.930 . S
C64 O90 1.238 . S
C64 O91 1.253 . S
C65 C66 1.379 . S
C65 N70 1.337 . S
C65 H71 0.929 . S
C66 C65 1.379 . S
C66 C67 1.380 . S
C66 H102 0.929 . S
C67 C66 1.380 . S
C67 C68 1.399 . S
C68 C67 1.399 . S
C68 C69 1.376 . S
C68 H103 0.931 . S
C69 C68 1.376 . S
C69 N70 1.338 . S
C69 H72 0.930 . S
N70 Cd55 2.304 . S
N70 C65 1.337 . S
N70 C69 1.338 . S
H71 C65 0.929 . S
H72 C69 0.930 . S
C73 N74 1.332 . S
C73 C77 1.381 . S
C73 H79 0.931 . S
N74 Cd55 2.334 . S
N74 C73 1.332 . S
N74 C78 1.328 . S
C75 C76 1.396 . S
C75 C78 1.378 . S
C75 H104 0.931 . S
C76 C75 1.396 . S
C76 C77 1.382 . S
C77 C73 1.381 . S
C77 C76 1.382 . S
C77 H105 0.930 . S
C78 N74 1.328 . S
C78 C75 1.378 . S
C78 H80 0.930 . S
H79 C73 0.931 . S
H80 C78 0.930 . S
C81 O92 1.238 . S
C81 O93 1.253 . S
C82 O94 1.239 . S
C82 O95 1.230 . S
N83 Cd54 2.304 . S
N83 C84 1.337 . S
N83 C88 1.338 . S
C84 N83 1.337 . S
C84 C85 1.379 . S
C84 H98 0.929 . S
C85 C84 1.379 . S
C85 C86 1.380 . S
C85 H106 0.929 . S
C86 C85 1.380 . S
C86 C87 1.399 . S
C87 C86 1.399 . S
C87 C88 1.376 . S
C87 H107 0.931 . S
C88 N83 1.338 . S
C88 C87 1.376 . S
C88 H99 0.930 . S
C89 O96 1.239 . S
C89 O97 1.230 . S
O90 Cd54 2.268 . S
O90 C64 1.238 . S
O91 Cd55 2.273 . S
O91 C64 1.253 . S
O92 Cd55 2.268 . S
O92 C81 1.238 . S
O93 Cd54 2.273 . S
O93 C81 1.253 . S
O94 Cd54 2.417 . S
O94 C82 1.239 . S
O95 Cd54 2.330 . S
O95 C82 1.230 . S
O96 Cd55 2.417 1_556 S
O96 C89 1.239 . S
O97 Cd55 2.330 1_556 S
O97 C89 1.230 . S
H98 C84 0.929 . S
H99 C88 0.930 . S
H100 C58 0.931 . S
H101 C60 0.930 . S
H102 C66 0.929 . S
H103 C68 0.931 . S
H104 C75 0.931 . S
H105 C77 0.930 . S
H106 C85 0.929 . S
H107 C87 0.931 . S
Cd108 N111 2.334 . S
Cd108 N137 2.304 . S
Cd108 O144 2.268 . S
Cd108 O147 2.273 . S
Cd108 O148 2.417 . S
Cd108 O149 2.330 . S
Cd109 N124 2.304 . S
Cd109 N128 2.334 . S
Cd109 O145 2.273 . S
Cd109 O146 2.268 . S
Cd109 O150 2.417 . S
Cd109 O151 2.330 . S
C110 N111 1.332 . S
C110 C114 1.381 . S
C110 H116 0.931 . S
N111 Cd108 2.334 . S
N111 C110 1.332 . S
N111 C115 1.328 . S
C112 C113 1.396 . S
C112 C115 1.378 . S
C112 H154 0.931 . S
C113 C112 1.396 . S
C113 C114 1.382 . S
C114 C110 1.381 . S
C114 C113 1.382 . S
C114 H155 0.930 . S
C115 N111 1.328 . S
C115 C112 1.378 . S
C115 H117 0.930 . S
H116 C110 0.931 . S
H117 C115 0.930 . S
C118 O144 1.238 . S
C118 O145 1.253 . S
C119 C120 1.379 . S
C119 N124 1.337 . S
C119 H125 0.929 . S
C120 C119 1.379 . S
C120 C121 1.380 . S
C120 H156 0.929 1_455 S
C121 C120 1.380 . S
C121 C122 1.399 . S
C122 C121 1.399 . S
C122 C123 1.376 . S
C122 H157 0.931 1_545 S
C123 C122 1.376 . S
C123 N124 1.338 . S
C123 H126 0.930 . S
N124 Cd109 2.304 . S
N124 C119 1.337 . S
N124 C123 1.338 . S
H125 C119 0.929 . S
H126 C123 0.930 . S
C127 N128 1.332 . S
C127 C131 1.381 . S
C127 H133 0.931 . S
N128 Cd109 2.334 . S
N128 C127 1.332 . S
N128 C132 1.328 . S
C129 C130 1.396 . S
C129 C132 1.378 . S
C129 H158 0.931 . S
C130 C129 1.396 . S
C130 C131 1.382 . S
C131 C127 1.381 . S
C131 C130 1.382 . S
C131 H159 0.930 . S
C132 N128 1.328 . S
C132 C129 1.378 . S
C132 H134 0.930 . S
H133 C127 0.931 . S
H134 C132 0.930 . S
C135 O146 1.238 . S
C135 O147 1.253 . S
C136 O148 1.239 . S
C136 O149 1.230 . S
N137 Cd108 2.304 . S
N137 C138 1.337 . S
N137 C142 1.338 . S
C138 N137 1.337 . S
C138 C139 1.379 . S
C138 H152 0.929 . S
C139 C138 1.379 . S
C139 C140 1.380 . S
C139 H160 0.929 1_545 S
C140 C139 1.380 . S
C140 C141 1.399 . S
C141 C140 1.399 . S
C141 C142 1.376 . S
C141 H161 0.931 1_455 S
C142 N137 1.338 . S
C142 C141 1.376 . S
C142 H153 0.930 . S
C143 O150 1.239 . S
C143 O151 1.230 . S
O144 Cd108 2.268 . S
O144 C118 1.238 . S
O145 Cd109 2.273 . S
O145 C118 1.253 . S
O146 Cd109 2.268 . S
O146 C135 1.238 . S
O147 Cd108 2.273 . S
O147 C135 1.253 . S
O148 Cd108 2.417 . S
O148 C136 1.239 . S
O149 Cd108 2.330 . S
O149 C136 1.230 . S
O150 Cd109 2.417 . S
O150 C143 1.239 . S
O151 Cd109 2.330 . S
O151 C143 1.230 . S
H152 C138 0.929 . S
H153 C142 0.930 . S
H154 C112 0.931 . S
H155 C114 0.930 . S
H156 C120 0.929 1_655 S
H157 C122 0.931 1_565 S
H158 C129 0.931 . S
H159 C131 0.930 . S
H160 C139 0.929 1_565 S
H161 C141 0.931 1_655 S
Cd162 N165 2.334 . S
Cd162 N191 2.304 . S
Cd162 O198 2.268 . S
Cd162 O201 2.273 . S
Cd162 O202 2.417 . S
Cd162 O203 2.330 . S
Cd163 N178 2.304 . S
Cd163 N182 2.334 . S
Cd163 O199 2.273 . S
Cd163 O200 2.268 . S
Cd163 O204 2.417 1_556 S
Cd163 O205 2.330 1_556 S
C164 N165 1.332 . S
C164 C168 1.381 . S
C164 H170 0.931 . S
N165 Cd162 2.334 . S
N165 C164 1.332 . S
N165 C169 1.328 . S
C166 C167 1.396 . S
C166 C169 1.378 . S
C166 H208 0.931 . S
C167 C166 1.396 . S
C167 C168 1.382 . S
C168 C164 1.381 . S
C168 C167 1.382 . S
C168 H209 0.930 . S
C169 N165 1.328 . S
C169 C166 1.378 . S
C169 H171 0.930 . S
H170 C164 0.931 . S
H171 C169 0.930 . S
C172 O198 1.238 . S
C172 O199 1.253 . S
C173 C174 1.379 . S
C173 N178 1.337 . S
C173 H179 0.929 . S
C174 C173 1.379 . S
C174 C175 1.380 . S
C174 H210 0.929 . S
C175 C174 1.380 . S
C175 C176 1.399 . S
C176 C175 1.399 . S
C176 C177 1.376 . S
C176 H211 0.931 . S
C177 C176 1.376 . S
C177 N178 1.338 . S
C177 H180 0.930 . S
N178 Cd163 2.304 . S
N178 C173 1.337 . S
N178 C177 1.338 . S
H179 C173 0.929 . S
H180 C177 0.930 . S
C181 N182 1.332 . S
C181 C185 1.381 . S
C181 H187 0.931 . S
N182 Cd163 2.334 . S
N182 C181 1.332 . S
N182 C186 1.328 . S
C183 C184 1.396 . S
C183 C186 1.378 . S
C183 H212 0.931 . S
C184 C183 1.396 . S
C184 C185 1.382 . S
C185 C181 1.381 . S
C185 C184 1.382 . S
C185 H213 0.930 . S
C186 N182 1.328 . S
C186 C183 1.378 . S
C186 H188 0.930 . S
H187 C181 0.931 . S
H188 C186 0.930 . S
C189 O200 1.238 . S
C189 O201 1.253 . S
C190 O202 1.239 . S
C190 O203 1.230 . S
N191 Cd162 2.304 . S
N191 C192 1.337 . S
N191 C196 1.338 . S
C192 N191 1.337 . S
C192 C193 1.379 . S
C192 H206 0.929 . S
C193 C192 1.379 . S
C193 C194 1.380 . S
C193 H214 0.929 . S
C194 C193 1.380 . S
C194 C195 1.399 . S
C195 C194 1.399 . S
C195 C196 1.376 . S
C195 H215 0.931 . S
C196 N191 1.338 . S
C196 C195 1.376 . S
C196 H207 0.930 . S
C197 O204 1.239 . S
C197 O205 1.230 . S
O198 Cd162 2.268 . S
O198 C172 1.238 . S
O199 Cd163 2.273 . S
O199 C172 1.253 . S
O200 Cd163 2.268 . S
O200 C189 1.238 . S
O201 Cd162 2.273 . S
O201 C189 1.253 . S
O202 Cd162 2.417 . S
O202 C190 1.239 . S
O203 Cd162 2.330 . S
O203 C190 1.230 . S
O204 Cd163 2.417 1_554 S
O204 C197 1.239 . S
O205 Cd163 2.330 1_554 S
O205 C197 1.230 . S
H206 C192 0.929 . S
H207 C196 0.930 . S
H208 C166 0.931 . S
H209 C168 0.930 . S
H210 C174 0.929 . S
H211 C176 0.931 . S
H212 C183 0.931 . S
H213 C185 0.930 . S
H214 C193 0.929 . S
H215 C195 0.931 . S
C216 C217 1.387 . S
C216 H220 0.950 . S
C216 C225 1.390 . S
C217 C216 1.387 . S
C217 C219 1.387 . S
H218 C225 0.950 . S
C219 C217 1.387 . S
C219 C221 1.390 . S
C219 H223 0.950 . S
H220 C216 0.950 . S
C221 C219 1.390 . S
C221 C222 1.387 . S
C221 H224 0.950 . S
C222 C221 1.387 . S
C222 C225 1.387 . S
H223 C219 0.950 . S
H224 C221 0.950 . S
C225 C216 1.390 . S
C225 H218 0.950 . S
C225 C222 1.387 . S
C226 C227 1.387 . S
C226 H230 0.950 . S
C226 C235 1.390 . S
C227 C226 1.387 . S
C227 C229 1.387 . S
H228 C235 0.950 . S
C229 C227 1.387 . S
C229 C231 1.390 . S
C229 H233 0.950 . S
H230 C226 0.950 . S
C231 C229 1.390 . S
C231 C232 1.387 . S
C231 H234 0.950 . S
C232 C231 1.387 . S
C232 C235 1.387 . S
H233 C229 0.950 . S
H234 C231 0.950 . S
C235 C226 1.390 . S
C235 H228 0.950 . S
C235 C232 1.387 . S
C236 C237 1.387 . S
C236 H240 0.950 . S
C236 C245 1.390 1_556 S
C237 C236 1.387 . S
C237 C239 1.387 . S
H238 C245 0.950 . S
C239 C237 1.387 . S
C239 C241 1.390 1_556 S
C239 H243 0.950 . S
H240 C236 0.950 . S
C241 C239 1.390 1_554 S
C241 C242 1.387 . S
C241 H244 0.950 . S
C242 C241 1.387 . S
C242 C245 1.387 . S
H243 C239 0.950 . S
H244 C241 0.950 . S
C245 C236 1.390 1_554 S
C245 H238 0.950 . S
C245 C242 1.387 . S
C246 C247 1.387 . S
C246 H250 0.950 . S
C246 C255 1.390 . S
C247 C246 1.387 . S
C247 C249 1.387 . S
H248 C255 0.950 . S
C249 C247 1.387 . S
C249 C251 1.390 . S
C249 H253 0.950 . S
H250 C246 0.950 . S
C251 C249 1.390 . S
C251 C252 1.387 . S
C251 H254 0.950 . S
C252 C251 1.387 . S
C252 C255 1.387 . S
H253 C249 0.950 . S
H254 C251 0.950 . S
C255 C246 1.390 . S
C255 H248 0.950 . S
C255 C252 1.387 . S
C256 C257 1.387 . S
C256 H260 0.950 . S
C256 C265 1.390 . S
C257 C256 1.387 . S
C257 C259 1.387 . S
H258 C265 0.950 . S
C259 C257 1.387 . S
C259 C261 1.390 . S
C259 H263 0.950 . S
H260 C256 0.950 . S
C261 C259 1.390 . S
C261 C262 1.387 . S
C261 H264 0.950 . S
C262 C261 1.387 . S
C262 C265 1.387 . S
H263 C259 0.950 . S
H264 C261 0.950 . S
C265 C256 1.390 . S
C265 H258 0.950 . S
C265 C262 1.387 . S
C266 C267 1.387 . S
C266 H270 0.950 . S
C266 C275 1.371 1_545 S
C267 C266 1.387 . S
C267 C269 1.387 . S
H268 C275 0.965 . S
C269 C267 1.387 . S
C269 C271 1.390 . S
C269 H273 0.950 . S
H270 C266 0.950 . S
C271 C269 1.390 . S
C271 C272 1.387 1_545 S
C271 H274 0.950 1_554 S
C272 C271 1.387 1_565 S
C272 C275 1.392 . S
H273 C269 0.950 . S
H274 C271 0.950 1_556 S
C275 C266 1.371 1_565 S
C275 H268 0.965 . S
C275 C272 1.392 . S
C276 C277 1.387 . S
C276 H280 0.950 . S
C276 C285 1.390 . S
C277 C276 1.387 . S
C277 C279 1.387 . S
H278 C285 0.950 . S
C279 C277 1.387 . S
C279 C281 1.390 . S
C279 H283 0.950 . S
H280 C276 0.950 . S
C281 C279 1.390 . S
C281 C282 1.387 . S
C281 H284 0.950 . S
C282 C281 1.387 . S
C282 C285 1.387 . S
H283 C279 0.950 . S
H284 C281 0.950 . S
C285 C276 1.390 . S
C285 H278 0.950 . S
C285 C282 1.387 . S
C286 C287 1.387 . S
C286 H290 0.950 . S
C286 C295 1.390 . S
C287 C286 1.387 . S
C287 C289 1.387 . S
H288 C295 0.951 1_545 S
C289 C287 1.387 . S
C289 C291 1.390 . S
C289 H293 0.950 . S
H290 C286 0.950 . S
C291 C289 1.390 . S
C291 C292 1.387 1_565 S
C291 H294 0.950 1_565 S
C292 C291 1.387 1_545 S
C292 C295 1.387 1_545 S
H293 C289 0.950 . S
H294 C291 0.950 1_545 S
C295 C286 1.390 . S
C295 H288 0.951 1_565 S
C295 C292 1.387 1_565 S
C296 C297 1.387 1_455 S
C296 H300 0.950 1_456 S
C296 C305 1.390 . S
C297 C296 1.387 1_655 S
C297 C299 1.387 1_655 S
H298 C305 0.950 . S
C299 C297 1.387 1_455 S
C299 C301 1.390 . S
C299 H303 0.950 . S
H300 C296 0.950 1_654 S
C301 C299 1.390 . S
C301 C302 1.387 . S
C301 H304 0.950 . S
C302 C301 1.387 . S
C302 C305 1.387 . S
H303 C299 0.950 . S
H304 C301 0.950 . S
C305 C296 1.390 . S
C305 H298 0.950 . S
C305 C302 1.387 . S
C306 C307 1.387 . S
C306 H310 0.950 . S
C306 C315 1.390 . S
C307 C306 1.387 . S
C307 C309 1.387 . S
H308 C315 0.950 . S
C309 C307 1.387 . S
C309 C311 1.390 . S
C309 H313 0.950 . S
H310 C306 0.950 . S
C311 C309 1.390 . S
C311 C312 1.387 . S
C311 H314 0.950 . S
C312 C311 1.387 . S
C312 C315 1.387 . S
H313 C309 0.950 . S
H314 C311 0.950 . S
C315 C306 1.390 . S
C315 H308 0.950 . S
C315 C312 1.387 . S
C316 C317 1.387 . S
C316 H320 0.950 . S
C316 C325 1.390 . S
C317 C316 1.387 . S
C317 C319 1.387 . S
H318 C325 0.950 . S
C319 C317 1.387 . S
C319 C321 1.390 . S
C319 H323 0.950 . S
H320 C316 0.950 . S
C321 C319 1.390 . S
C321 C322 1.387 1_655 S
C321 H324 0.950 1_655 S
C322 C321 1.387 1_455 S
C322 C325 1.387 1_455 S
H323 C319 0.950 . S
H324 C321 0.950 1_455 S
C325 C316 1.390 . S
C325 H318 0.950 . S
C325 C322 1.387 1_655 S
C326 C327 1.387 . S
C326 H330 0.950 . S
C326 C335 1.390 . S
C327 C326 1.387 . S
C327 C329 1.387 . S
H328 C335 0.950 . S
C329 C327 1.387 . S
C329 C331 1.390 . S
C329 H333 0.950 . S
H330 C326 0.950 . S
C331 C329 1.390 . S
C331 C332 1.387 . S
C331 H334 0.950 . S
C332 C331 1.387 . S
C332 C335 1.387 . S
H333 C329 0.950 . S
H334 C331 0.950 . S
C335 C326 1.390 . S
C335 H328 0.950 . S
C335 C332 1.387 . S
C336 C337 1.387 1_655 S
C336 H340 0.950 . S
C336 C345 1.390 . S
C337 C336 1.387 1_455 S
C337 C339 1.387 1_565 S
H338 C345 0.950 . S
C339 C337 1.387 1_545 S
C339 C341 1.390 . S
C339 H343 0.950 . S
H340 C336 0.950 . S
C341 C339 1.390 . S
C341 C342 1.387 1_545 S
C341 H344 0.950 . S
C342 C341 1.387 1_565 S
C342 C345 1.387 1_455 S
H343 C339 0.950 . S
H344 C341 0.950 . S
C345 C336 1.390 . S
C345 H338 0.950 . S
C345 C342 1.387 1_655 S
C346 C347 1.387 . S
C346 H350 0.950 . S
C346 C355 1.390 . S
C347 C346 1.387 . S
C347 C349 1.387 . S
H348 C355 0.950 . S
C349 C347 1.387 . S
C349 C351 1.390 . S
C349 H353 0.950 . S
H350 C346 0.950 . S
C351 C349 1.390 . S
C351 C352 1.387 . S
C351 H354 0.950 . S
C352 C351 1.387 . S
C352 C355 1.387 . S
H353 C349 0.950 . S
H354 C351 0.950 . S
C355 C346 1.390 . S
C355 H348 0.950 . S
C355 C352 1.387 . S
C356 C357 1.387 . S
C356 H360 0.950 . S
C356 C365 1.390 . S
C357 C356 1.387 . S
C357 C359 1.387 1_645 S
H358 C365 0.950 . S
C359 C357 1.387 1_465 S
C359 C361 1.390 . S
C359 H363 0.950 . S
H360 C356 0.950 . S
C361 C359 1.390 . S
C361 C362 1.387 1_465 S
C361 H364 0.950 . S
C362 C361 1.387 1_645 S
C362 C365 1.387 . S
H363 C359 0.950 . S
H364 C361 0.950 . S
C365 C356 1.390 . S
C365 H358 0.950 . S
C365 C362 1.387 . S
C366 C367 1.387 . S
C366 H370 0.950 . S
C366 C375 1.390 1_554 S
C367 C366 1.387 . S
C367 C369 1.387 . S
H368 C375 0.950 . S
C369 C367 1.387 . S
C369 C371 1.390 1_554 S
C369 H373 0.950 . S
H370 C366 0.950 . S
C371 C369 1.390 1_556 S
C371 C372 1.387 . S
C371 H374 0.950 . S
C372 C371 1.387 . S
C372 C375 1.387 . S
H373 C369 0.950 . S
H374 C371 0.950 . S
C375 C366 1.390 1_556 S
C375 H368 0.950 . S
C375 C372 1.387 . S
C217 C28 1.157 . S
C222 C35 1.157 . S
C227 C82 1.157 . S
C232 C89 1.157 . S
C237 C143 1.158 . S
C242 C136 1.158 . S
C247 C197 1.156 . S
C252 C190 1.156 . S
C257 C189 2.460 . S
C262 C22 2.442 . S
C267 C76 2.444 . S
C272 C10 2.461 . S
C277 C113 2.442 . S
C282 C64 2.459 . S
C287 C167 2.444 . S
C292 C135 2.461 . S
C297 C27 2.460 . S
C302 C184 2.442 . S
C307 C81 2.462 . S
C312 C5 2.444 . S
C317 C59 2.442 . S
C322 C118 2.459 . S
C327 C130 2.442 . S
C332 C172 2.459 . S
C337 C140 0.976 1_565 S
C342 C32 0.975 1_455 S
C347 C86 0.973 . S
C352 C194 0.973 . S
C357 C121 0.973 1_655 S
C362 C13 0.973 1_545 S
C367 C67 0.975 . S
C372 C175 0.975 . S
