# Generated by pormake.
# Topology uoc, (4)-cn, num edge types: 1
# Building blocks:
#     Node 0, Type 0, BuildingBlock: QUQFOY_clean_sbu_1, # of connection points: 4
#     Node 1, Type 0, BuildingBlock: QUQFOY_clean_sbu_1, # of connection points: 4
#     Node 2, Type 0, BuildingBlock: QUQFOY_clean_sbu_1, # of connection points: 4
#     Node 3, Type 0, BuildingBlock: QUQFOY_clean_sbu_1, # of connection points: 4
#     Node 4, Type 0, BuildingBlock: QUQFOY_clean_sbu_1, # of connection points: 4
#     Node 5, Type 0, BuildingBlock: QUQFOY_clean_sbu_1, # of connection points: 4
#     Node 6, Type 0, BuildingBlock: QUQFOY_clean_sbu_1, # of connection points: 4
#     Node 7, Type 0, BuildingBlock: QUQFOY_clean_sbu_1, # of connection points: 4
#     Edge 8, Type (0, 0), BuildingBlock: KIFKEQ_clean_linker_1, # of connection points: 2
#     Edge 9, Type (0, 0), BuildingBlock: KIFKEQ_clean_linker_1, # of connection points: 2
#     Edge 10, Type (0, 0), BuildingBlock: KIFKEQ_clean_linker_1, # of connection points: 2
#     Edge 11, Type (0, 0), BuildingBlock: KIFKEQ_clean_linker_1, # of connection points: 2
#     Edge 12, Type (0, 0), BuildingBlock: KIFKEQ_clean_linker_1, # of connection points: 2
#     Edge 13, Type (0, 0), BuildingBlock: KIFKEQ_clean_linker_1, # of connection points: 2
#     Edge 14, Type (0, 0), BuildingBlock: KIFKEQ_clean_linker_1, # of connection points: 2
#     Edge 15, Type (0, 0), BuildingBlock: KIFKEQ_clean_linker_1, # of connection points: 2
#     Edge 16, Type (0, 0), BuildingBlock: KIFKEQ_clean_linker_1, # of connection points: 2
#     Edge 17, Type (0, 0), BuildingBlock: KIFKEQ_clean_linker_1, # of connection points: 2
#     Edge 18, Type (0, 0), BuildingBlock: KIFKEQ_clean_linker_1, # of connection points: 2
#     Edge 19, Type (0, 0), BuildingBlock: KIFKEQ_clean_linker_1, # of connection points: 2
#     Edge 20, Type (0, 0), BuildingBlock: KIFKEQ_clean_linker_1, # of connection points: 2
#     Edge 21, Type (0, 0), BuildingBlock: KIFKEQ_clean_linker_1, # of connection points: 2
#     Edge 22, Type (0, 0), BuildingBlock: KIFKEQ_clean_linker_1, # of connection points: 2
#     Edge 23, Type (0, 0), BuildingBlock: KIFKEQ_clean_linker_1, # of connection points: 2
# Relax obj value: 0.072
# Max RMSD: 0.101
# Mean RMSD: 0.101
data_MOF--net-uoc--node1-QUQFOY_clean_sbu_1--edge1-KIFKEQ_clean_linker_1
_symmetry_space_group_name_H-M    P1
_symmetry_Int_Tables_number       1
_symmetry_cell_setting            triclinic
loop_
_symmetry_equiv_pos_as_xyz
'x, y, z'
_cell_length_a     27.997472
_cell_length_b     28.070489
_cell_length_c     56.716434
_cell_angle_alpha  89.55333
_cell_angle_beta   89.783837
_cell_angle_gamma 108.17074
loop_
_atom_site_label
_atom_site_type_symbol
_atom_site_fract_x
_atom_site_fract_y
_atom_site_fract_z
_atom_type_partial_charge
O0 O 0.13685 0.18606 0.12907 0.0
Cd1 Cd 0.18241 0.25836 0.134 0.0
Cd2 Cd 0.09374 0.27622 0.13881 0.0
O3 O 0.06523 0.20325 0.12736 0.0
O4 O 0.2468 0.26341 0.11749 0.0
O5 O 0.19364 0.30253 0.10531 0.0
C6 C 0.23391 0.29026 0.10164 0.0
C7 C 0.06164 0.33796 0.12398 0.0
C8 C 0.08969 0.17211 0.12572 0.0
C9 C 0.16057 0.28899 0.18173 0.0
O10 O 0.11787 0.28633 0.17324 0.0
O11 O 0.19484 0.28251 0.16852 0.0
O12 O 0.0357 0.30305 0.138 0.0
O13 O 0.1057 0.337 0.11765 0.0
O14 O 0.70385 0.6157 0.41263 0.0
Cd15 Cd 0.7748 0.66449 0.40678 0.0
Cd16 Cd 0.79627 0.57696 0.40205 0.0
O17 O 0.72313 0.54531 0.41352 0.0
O18 O 0.77209 0.72747 0.42178 0.0
O19 O 0.81972 0.68328 0.43502 0.0
C20 C 0.80171 0.72009 0.43779 0.0
C21 C 0.85874 0.5454 0.41644 0.0
C22 C 0.69103 0.56854 0.41568 0.0
C23 C 0.80673 0.64447 0.35889 0.0
O24 O 0.80637 0.60252 0.36765 0.0
O25 O 0.79805 0.67764 0.3719 0.0
O26 O 0.8245 0.52004 0.40229 0.0
O27 O 0.85689 0.58873 0.42306 0.0
O28 O 0.36143 0.28646 0.63035 0.0
Cd29 Cd 0.31665 0.21378 0.63443 0.0
Cd30 Cd 0.40524 0.19552 0.63864 0.0
O31 O 0.43295 0.26957 0.62699 0.0
O32 O 0.25289 0.20819 0.61752 0.0
O33 O 0.30783 0.17086 0.60578 0.0
C34 C 0.26716 0.18221 0.60186 0.0
C35 C 0.43885 0.13491 0.62389 0.0
C36 C 0.40844 0.30088 0.62638 0.0
C37 C 0.33704 0.18059 0.68174 0.0
O38 O 0.3797 0.18268 0.67318 0.0
O39 O 0.30343 0.18884 0.66881 0.0
O40 O 0.46404 0.16962 0.63783 0.0
O41 O 0.39484 0.13561 0.61749 0.0
O42 O 0.80496 0.84423 0.90703 0.0
Cd43 Cd 0.73109 0.80089 0.90459 0.0
Cd44 Cd 0.7154 0.88987 0.90182 0.0
O45 O 0.78867 0.91474 0.91405 0.0
O46 O 0.72451 0.73701 0.92191 0.0
O47 O 0.69068 0.7941 0.93428 0.0
C48 C 0.7007 0.75273 0.93812 0.0
C49 C 0.65441 0.92302 0.91677 0.0
C50 C 0.81984 0.89016 0.91272 0.0
C51 C 0.69807 0.82499 0.85811 0.0
O52 O 0.70464 0.86807 0.86694 0.0
O53 O 0.70214 0.7891 0.87095 0.0
O54 O 0.69054 0.94919 0.9034 0.0
O55 O 0.65391 0.87826 0.92253 0.0
O56 O 0.63682 0.68583 0.63149 0.0
Cd57 Cd 0.6821 0.75868 0.6346 0.0
Cd58 Cd 0.59303 0.77528 0.63792 0.0
O59 O 0.56593 0.70248 0.62561 0.0
O60 O 0.74596 0.75967 0.61874 0.0
O61 O 0.696 0.8011 0.60517 0.0
C62 C 0.7351 0.78649 0.60225 0.0
C63 C 0.561 0.8374 0.62332 0.0
C64 C 0.59047 0.67125 0.62632 0.0
C65 C 0.65898 0.79004 0.6815 0.0
O66 O 0.61592 0.78491 0.67273 0.0
O67 O 0.69448 0.78546 0.66855 0.0
O68 O 0.53459 0.80162 0.63679 0.0
O69 O 0.60543 0.837 0.6173 0.0
O70 O 0.20416 0.12232 0.91039 0.0
Cd71 Cd 0.2765 0.16859 0.90666 0.0
Cd72 Cd 0.29692 0.08121 0.9017 0.0
O73 O 0.2226 0.0516 0.91284 0.0
O74 O 0.27972 0.23162 0.92343 0.0
O75 O 0.31921 0.17872 0.93557 0.0
C76 C 0.30632 0.21849 0.93926 0.0
C77 C 0.35794 0.04753 0.91621 0.0
C78 C 0.19052 0.07522 0.91375 0.0
C79 C 0.31096 0.151 0.85919 0.0
O80 O 0.30994 0.10843 0.86742 0.0
O81 O 0.30152 0.18344 0.87236 0.0
O82 O 0.32357 0.02304 0.9019 0.0
O83 O 0.35676 0.09092 0.92307 0.0
O84 O 0.86617 0.78778 0.12898 0.0
Cd85 Cd 0.82086 0.7152 0.13416 0.0
Cd86 Cd 0.90947 0.6975 0.13821 0.0
O87 O 0.93775 0.77067 0.12637 0.0
O88 O 0.7567 0.70974 0.11761 0.0
O89 O 0.81088 0.67171 0.10565 0.0
C90 C 0.77042 0.68352 0.10188 0.0
C91 C 0.94164 0.63601 0.12344 0.0
C92 C 0.91325 0.80187 0.12512 0.0
C93 C 0.84326 0.68389 0.18177 0.0
O94 O 0.8859 0.68706 0.17287 0.0
O95 O 0.80858 0.69013 0.16883 0.0
O96 O 0.96766 0.67087 0.1371 0.0
O97 O 0.89748 0.63692 0.11742 0.0
O98 O 0.30554 0.34421 0.41043 0.0
Cd99 Cd 0.23239 0.30027 0.4057 0.0
Cd100 Cd 0.21607 0.3895 0.40164 0.0
O101 O 0.28944 0.41608 0.41308 0.0
O102 O 0.22515 0.23581 0.42256 0.0
O103 O 0.18851 0.29114 0.43434 0.0
C104 C 0.19916 0.25014 0.43828 0.0
C105 C 0.1555 0.42282 0.41675 0.0
C106 C 0.32022 0.39107 0.41422 0.0
C107 C 0.20123 0.32395 0.35832 0.0
O108 O 0.205 0.3665 0.3671 0.0
O109 O 0.20722 0.28902 0.37126 0.0
O110 O 0.19076 0.44845 0.40281 0.0
O111 O 0.1555 0.3784 0.42286 0.0
H112 H 0.32418 0.27791 0.08988 0.0
H113 H 0.2019 0.32219 0.06084 0.0
H114 H 0.35697 0.27461 0.05026 0.0
H115 H 0.23309 0.3168 0.02132 0.0
H116 H 0.29425 0.30857 0.95069 0.0
H117 H 0.2911 0.34129 0.99015 0.0
H118 H 0.33171 0.21676 1.01957 0.0
H119 H 0.33698 0.18561 0.98017 0.0
C120 C 0.30481 0.28787 0.07506 0.0
C121 C 0.26008 0.29971 0.0785 0.0
C122 C 0.32335 0.28553 0.05229 0.0
C123 C 0.29723 0.29436 0.03242 0.0
C124 C 0.25466 0.31007 0.03606 0.0
C125 C 0.2365 0.313 0.05883 0.0
C126 C 0.30383 0.28899 0.96558 0.0
C127 C 0.31528 0.24415 0.96232 0.0
C128 C 0.3016 0.30752 0.98826 0.0
C129 C 0.31011 0.28126 1.00823 0.0
C130 C 0.32528 0.23844 1.00474 0.0
C131 C 0.32812 0.2203 0.98205 0.0
H132 H 0.79176 0.71982 0.33148 0.0
H133 H 0.83796 0.58681 0.32774 0.0
H134 H 0.79913 0.72879 0.2885 0.0
H135 H 0.84466 0.59549 0.28512 0.0
H136 H 0.90544 0.65869 0.21291 0.0
H137 H 0.89757 0.65158 0.25555 0.0
H138 H 0.757 0.68448 0.25223 0.0
H139 H 0.76511 0.69229 0.20924 0.0
C140 C 0.8038 0.69275 0.32156 0.0
C141 C 0.8144 0.65269 0.33309 0.0
C142 C 0.80752 0.6976 0.29694 0.0
C143 C 0.82235 0.66277 0.28341 0.0
C144 C 0.83361 0.62323 0.29502 0.0
C145 C 0.82961 0.61821 0.3195 0.0
C146 C 0.87263 0.66417 0.22117 0.0
C147 C 0.83582 0.67595 0.20759 0.0
C148 C 0.86809 0.65995 0.24566 0.0
C149 C 0.82671 0.66753 0.25729 0.0
C150 C 0.78961 0.67898 0.24378 0.0
C151 C 0.794 0.68293 0.21915 0.0
H152 H 0.17685 0.19351 0.58956 0.0
H153 H 0.30078 0.15026 0.56159 0.0
H154 H 0.1448 0.19552 0.54979 0.0
H155 H 0.27021 0.15426 0.52189 0.0
H156 H 0.16666 0.28343 0.47848 0.0
H157 H 0.17077 0.25304 0.51833 0.0
H158 H 0.21238 0.12806 0.49097 0.0
H159 H 0.21026 0.15992 0.451 0.0
C160 C 0.19677 0.18353 0.57496 0.0
C161 C 0.24174 0.17236 0.57872 0.0
C162 C 0.17862 0.18509 0.5521 0.0
C163 C 0.20534 0.17608 0.53245 0.0
C164 C 0.2482 0.16108 0.53647 0.0
C165 C 0.26601 0.15897 0.55933 0.0
C166 C 0.17544 0.24876 0.4809 0.0
C167 C 0.18893 0.22458 0.46157 0.0
C168 C 0.17761 0.23107 0.50385 0.0
C169 C 0.19281 0.18842 0.50804 0.0
C170 C 0.20182 0.16172 0.4885 0.0
C171 C 0.20017 0.17975 0.46554 0.0
H172 H 0.67083 0.88725 0.82748 0.0
H173 H 0.70581 0.74786 0.83052 0.0
H174 H 0.66241 0.87994 0.78479 0.0
H175 H 0.69729 0.74066 0.78767 0.0
H176 H 0.73589 0.77976 0.70882 0.0
H177 H 0.74381 0.78706 0.75169 0.0
H178 H 0.60584 0.82484 0.7552 0.0
H179 H 0.59782 0.81765 0.7125 0.0
C180 C 0.67637 0.85484 0.81907 0.0
C181 C 0.68897 0.81811 0.83243 0.0
C182 C 0.67143 0.85064 0.79461 0.0
C183 C 0.67946 0.80989 0.78288 0.0
C184 C 0.69146 0.77279 0.79622 0.0
C185 C 0.69586 0.77669 0.82077 0.0
C186 C 0.7075 0.79006 0.71872 0.0
C187 C 0.66626 0.79817 0.70722 0.0
C188 C 0.7118 0.79376 0.74328 0.0
C189 C 0.67529 0.80626 0.7568 0.0
C190 C 0.6347 0.81542 0.74525 0.0
C191 C 0.63009 0.81119 0.72077 0.0
H192 H 0.17363 0.38539 0.32747 0.0
H193 H 0.21075 0.24714 0.33086 0.0
H194 H 0.16572 0.37793 0.28488 0.0
H195 H 0.20235 0.23955 0.28798 0.0
H196 H 0.23762 0.277 0.20858 0.0
H197 H 0.24657 0.28403 0.25145 0.0
H198 H 0.10973 0.32377 0.25579 0.0
H199 H 0.10092 0.31722 0.21321 0.0
C200 C 0.17975 0.35315 0.31916 0.0
C201 C 0.19276 0.3168 0.33262 0.0
C202 C 0.17507 0.34885 0.29472 0.0
C203 C 0.18355 0.30824 0.28305 0.0
C204 C 0.19615 0.27157 0.29646 0.0
C205 C 0.20046 0.27566 0.32103 0.0
C206 C 0.20973 0.28769 0.21868 0.0
C207 C 0.16863 0.29666 0.20744 0.0
C208 C 0.2146 0.29121 0.24324 0.0
C209 C 0.17875 0.30428 0.257 0.0
C210 C 0.1382 0.31403 0.24569 0.0
C211 C 0.13312 0.31014 0.22125 0.0
H212 H 0.79536 0.73459 0.58578 0.0
H213 H 0.73474 0.85322 0.56667 0.0
H214 H 0.82329 0.73148 0.54564 0.0
H215 H 0.76608 0.85299 0.52652 0.0
H216 H 0.74547 0.77619 0.45419 0.0
H217 H 0.7417 0.8045 0.49403 0.0
H218 H 0.87023 0.75747 0.51234 0.0
H219 H 0.8713 0.72564 0.47252 0.0
C220 C 0.78958 0.76136 0.57313 0.0
C221 C 0.76212 0.79363 0.57934 0.0
C222 C 0.80601 0.75985 0.54994 0.0
C223 C 0.79638 0.79137 0.53237 0.0
C224 C 0.77285 0.82688 0.53921 0.0
C225 C 0.75531 0.82751 0.56234 0.0
C226 C 0.77362 0.77276 0.46657 0.0
C227 C 0.80818 0.74792 0.46026 0.0
C228 C 0.77171 0.78942 0.48959 0.0
C229 C 0.80508 0.78268 0.50688 0.0
C230 C 0.84273 0.76193 0.49988 0.0
C231 C 0.84382 0.74414 0.47692 0.0
H232 H 0.29609 0.23354 0.71088 0.0
H233 H 0.36162 0.11355 0.71026 0.0
H234 H 0.29317 0.23071 0.75368 0.0
H235 H 0.35434 0.10663 0.75299 0.0
H236 H 0.37967 0.12998 0.83047 0.0
H237 H 0.38616 0.13855 0.78776 0.0
H238 H 0.25857 0.19491 0.7876 0.0
H239 H 0.25609 0.19078 0.83038 0.0
C240 C 0.30848 0.20548 0.72002 0.0
C241 C 0.32889 0.17364 0.70738 0.0
C242 C 0.30667 0.20356 0.74466 0.0
C243 C 0.32371 0.16853 0.75728 0.0
C244 C 0.34228 0.1353 0.74429 0.0
C245 C 0.34576 0.13855 0.71969 0.0
C246 C 0.35382 0.14511 0.82116 0.0
C247 C 0.3178 0.16024 0.83361 0.0
C248 C 0.35682 0.14931 0.79657 0.0
C249 C 0.32245 0.16684 0.78373 0.0
C250 C 0.28657 0.18225 0.7965 0.0
C251 C 0.28486 0.17974 0.82113 0.0
H252 H 0.68087 0.69674 0.08967 0.0
H253 H 0.80311 0.65099 0.0615 0.0
H254 H 0.64913 0.69991 0.04991 0.0
H255 H 0.77283 0.65609 0.02182 0.0
H256 H 0.71166 0.66249 0.95096 0.0
H257 H 0.71459 0.63094 0.99093 0.0
H258 H 0.67609 0.75752 1.0185 0.0
H259 H 0.67123 0.78767 0.97865 0.0
C260 C 0.70045 0.68644 0.07502 0.0
C261 C 0.74488 0.67421 0.07874 0.0
C262 C 0.6825 0.68869 0.05218 0.0
C263 C 0.70887 0.6793 0.03248 0.0
C264 C 0.75112 0.66326 0.03643 0.0
C265 C 0.76874 0.66049 0.05928 0.0
C266 C 0.70252 0.68282 0.96556 0.0
C267 C 0.69179 0.72793 0.96162 0.0
C268 C 0.70461 0.66494 0.98852 0.0
C269 C 0.69653 0.69205 1.0081 0.0
C270 C 0.68215 0.73521 1.00398 0.0
C271 C 0.67957 0.75277 0.98103 0.0
H272 H 0.12905 0.10165 0.10871 0.0
H273 H 0.99014 0.12212 0.13257 0.0
H274 H 0.08644 0.0123 0.10407 0.0
H275 H 0.94801 0.03258 0.12918 0.0
H276 H 0.87366 0.8734 0.1092 0.0
H277 H 0.91622 0.96306 0.10492 0.0
H278 H 0.05506 0.94107 0.12795 0.0
H279 H 0.01297 0.85135 0.13098 0.0
C280 C 0.08935 0.08697 0.11296 0.0
C281 C 0.06297 0.11877 0.12113 0.0
C282 C 0.06495 0.03569 0.11045 0.0
C283 C 0.01381 0.01489 0.11647 0.0
C284 C 0.98718 0.04714 0.124 0.0
C285 C 0.0114 0.09855 0.12611 0.0
C286 C 0.91343 0.88778 0.11305 0.0
C287 C 0.93994 0.85545 0.12056 0.0
C288 C 0.9378 0.93923 0.11075 0.0
C289 C 0.98905 0.95963 0.11632 0.0
C290 C 0.0158 0.92687 0.12314 0.0
C291 C 0.99161 0.87533 0.12504 0.0
H292 H 0.06654 0.37262 0.43879 0.0
H293 H 0.1511 0.51766 0.4102 0.0
H294 H 0.99411 0.40237 0.44476 0.0
H295 H 0.07885 0.54706 0.41592 0.0
H296 H 0.94753 0.59646 0.43778 0.0
H297 H 0.02038 0.5673 0.44393 0.0
H298 H 0.93692 0.42247 0.41624 0.0
H299 H 0.86443 0.45126 0.41032 0.0
C300 C 0.06999 0.41107 0.43418 0.0
C301 C 0.11437 0.4426 0.42379 0.0
C302 C 0.02844 0.42803 0.43749 0.0
C303 C 0.03059 0.47696 0.43065 0.0
C304 C 0.07602 0.50933 0.42159 0.0
C305 C 0.11737 0.49231 0.41814 0.0
C306 C 0.94451 0.55812 0.43344 0.0
C307 C 0.90041 0.52632 0.42335 0.0
C308 C 0.98628 0.54151 0.43686 0.0
C309 C 0.98453 0.49265 0.43046 0.0
C310 C 0.93943 0.46012 0.42159 0.0
C311 C 0.89794 0.4768 0.41802 0.0
H312 H 0.37085 0.3786 0.6324 0.0
H313 H 0.50553 0.34551 0.61135 0.0
H314 H 0.41524 0.46762 0.6293 0.0
H315 H 0.54969 0.43507 0.60723 0.0
H316 H 0.62689 0.59352 0.63514 0.0
H317 H 0.58308 0.50448 0.63201 0.0
H318 H 0.45273 0.53721 0.60455 0.0
H319 H 0.49612 0.62672 0.60869 0.0
C320 C 0.40979 0.39033 0.6267 0.0
C321 C 0.43477 0.3549 0.62232 0.0
C322 C 0.43522 0.44156 0.62473 0.0
C323 C 0.4862 0.45877 0.61807 0.0
C324 C 0.5107 0.42323 0.61283 0.0
C325 C 0.48535 0.37186 0.61506 0.0
C326 C 0.589 0.58181 0.62826 0.0
C327 C 0.56483 0.61726 0.62236 0.0
C328 C 0.56394 0.53058 0.62628 0.0
C329 C 0.51421 0.51342 0.61809 0.0
C330 C 0.49067 0.54899 0.61135 0.0
C331 C 0.5156 0.60034 0.6136 0.0
H332 H 0.65048 0.01824 0.91086 0.0
H333 H 0.56405 0.87198 0.93743 0.0
H334 H 0.57809 0.04765 0.91616 0.0
H335 H 0.49147 0.9017 0.94296 0.0
H336 H 0.44646 0.09676 0.93823 0.0
H337 H 0.51885 0.0668 0.94407 0.0
H338 H 0.43533 0.92386 0.91453 0.0
H339 H 0.36323 0.95348 0.9089 0.0
C340 C 0.61629 -0.00741 0.91826 0.0
C341 C 0.6129 0.9426 0.9235 0.0
C342 C 0.57483 0.0096 0.92146 0.0
C343 C 0.52886 0.97694 0.92984 0.0
C344 C 0.5262 0.92761 0.93621 0.0
C345 C 0.56786 0.91067 0.93316 0.0
C346 C 0.4433 0.05865 0.9334 0.0
C347 C 0.39925 0.02765 0.92292 0.0
C348 C 0.48484 0.04158 0.93663 0.0
C349 C 0.48298 -0.00697 0.92964 0.0
C350 C 0.43794 0.96125 0.92033 0.0
C351 C 0.39666 0.9784 0.91695 0.0
H352 H 0.03617 0.63022 0.12951 0.0
H353 H 0.89018 0.54748 0.1023 0.0
H354 H 0.0646 0.55756 0.12392 0.0
H355 H 0.91897 0.47458 0.09646 0.0
H356 H 0.11298 0.42659 0.102 0.0
H357 H 0.08417 0.49954 0.09589 0.0
H358 H 0.93877 0.41652 0.12476 0.0
H359 H 0.96722 0.34383 0.13062 0.0
C360 C 0.0104 0.59678 0.12191 0.0
C361 C 0.96073 0.59445 0.11658 0.0
C362 C 0.02686 0.55519 0.11854 0.0
C363 C 0.99397 0.51015 0.10987 0.0
C364 C 0.94503 0.5086 0.10341 0.0
C365 C 0.92862 0.55042 0.10664 0.0
C366 C 0.07458 0.42367 0.1066 0.0
C367 C 0.04254 0.37961 0.11701 0.0
C368 C 0.05817 0.46551 0.10322 0.0
C369 C 0.00928 0.46395 0.10998 0.0
C370 C 0.97646 0.4189 0.11913 0.0
C371 C 0.99293 0.37728 0.12266 0.0
H372 H 0.37049 0.49093 0.40967 0.0
H373 H 0.39131 0.34954 0.42889 0.0
H374 H 0.46025 0.53239 0.41332 0.0
H375 H 0.48103 0.39138 0.43373 0.0
H376 H 0.64246 0.46968 0.40738 0.0
H377 H 0.5526 0.42647 0.41019 0.0
H378 H 0.52958 0.56061 0.43819 0.0
H379 H 0.61919 0.60439 0.43418 0.0
C380 C 0.39418 0.46889 0.41514 0.0
C381 C 0.37393 0.41693 0.41879 0.0
C382 C 0.44574 0.49272 0.41741 0.0
C383 C 0.47818 0.46528 0.42376 0.0
C384 C 0.45745 0.41356 0.42834 0.0
C385 C 0.40596 0.38959 0.4257 0.0
C386 C 0.61821 0.48969 0.41439 0.0
C387 C 0.63771 0.54052 0.42031 0.0
C388 C 0.56663 0.46485 0.41614 0.0
C389 C 0.53354 0.49012 0.42422 0.0
C390 C 0.55365 0.54029 0.43133 0.0
C391 C 0.60508 0.56533 0.42919 0.0
H392 H 0.53319 0.12929 0.63103 0.0
H393 H 0.38899 0.04681 0.60194 0.0
H394 H 0.56242 0.0571 0.62545 0.0
H395 H 0.41858 0.97441 0.59612 0.0
H396 H 0.61301 0.92757 0.6028 0.0
H397 H 0.58404 0.00059 0.59728 0.0
H398 H 0.43742 0.9152 0.62403 0.0
H399 H 0.46607 0.84245 0.62931 0.0
C400 C 0.50799 0.09602 0.62303 0.0
C401 C 0.45858 0.09366 0.61713 0.0
C402 C 0.52492 0.05469 0.61968 0.0
C403 C 0.49276 0.00984 0.61046 0.0
C404 C 0.44408 0.00825 0.60351 0.0
C405 C 0.42723 0.04981 0.60672 0.0
C406 C 0.57434 0.92416 0.60707 0.0
C407 C 0.54198 0.87934 0.61669 0.0
C408 C 0.55782 0.96606 0.60403 0.0
C409 C 0.50851 0.96384 0.61036 0.0
C410 C 0.47546 0.91814 0.61876 0.0
C411 C 0.49204 0.87646 0.62194 0.0
H412 H 0.86427 0.9823 0.93214 0.0
H413 H 0.89804 0.85534 0.90215 0.0
H414 H 0.95389 0.02576 0.93633 0.0
H415 H 0.98737 0.89941 0.90538 0.0
H416 H 0.14709 0.97668 0.92672 0.0
H417 H 0.05753 0.93108 0.93033 0.0
H418 H 0.02266 0.06609 0.91158 0.0
H419 H 0.1116 0.11177 0.90896 0.0
C420 C 0.89082 0.96367 0.92645 0.0
C421 C 0.87402 0.91552 0.91668 0.0
C422 C 0.94223 -0.01134 0.92874 0.0
C423 C 0.97804 0.96633 0.92102 0.0
C424 C 0.96106 0.91758 0.91184 0.0
C425 C 0.9097 0.89239 0.90982 0.0
C426 C 0.12022 -0.00335 0.92363 0.0
C427 C 0.13652 0.0478 0.91747 0.0
C428 C 0.06886 0.97048 0.92556 0.0
C429 C 0.03269 -0.00522 0.92114 0.0
C430 C 0.04923 0.04622 0.91552 0.0
C431 C 0.10043 0.07242 0.91383 0.0
loop_
_geom_bond_atom_site_label_1
_geom_bond_atom_site_label_2
_geom_bond_distance
_geom_bond_site_symmetry_2
_ccdc_geom_bond_type
O0 Cd1 2.223 . S
O0 C8 1.315 . S
Cd1 O0 2.223 . S
Cd1 O4 2.297 . S
Cd1 O5 2.439 . S
Cd1 O11 2.240 . S
Cd2 O3 2.240 . S
Cd2 O10 2.223 . S
Cd2 O12 2.297 . S
Cd2 O13 2.439 . S
O3 Cd2 2.240 . S
O3 C8 1.279 . S
O4 Cd1 2.297 . S
O4 C6 1.247 . S
O5 Cd1 2.439 . S
O5 C6 1.208 . S
C6 O4 1.247 . S
C6 O5 1.208 . S
C7 O12 1.247 . S
C7 O13 1.208 . S
C8 O0 1.315 . S
C8 O3 1.279 . S
C9 O10 1.315 . S
C9 O11 1.279 . S
O10 Cd2 2.223 . S
O10 C9 1.315 . S
O11 Cd1 2.240 . S
O11 C9 1.279 . S
O12 Cd2 2.297 . S
O12 C7 1.247 . S
O13 Cd2 2.439 . S
O13 C7 1.208 . S
O14 Cd15 2.223 . S
O14 C22 1.315 . S
Cd15 O14 2.223 . S
Cd15 O18 2.297 . S
Cd15 O19 2.439 . S
Cd15 O25 2.240 . S
Cd16 O17 2.240 . S
Cd16 O24 2.223 . S
Cd16 O26 2.297 . S
Cd16 O27 2.439 . S
O17 Cd16 2.240 . S
O17 C22 1.279 . S
O18 Cd15 2.297 . S
O18 C20 1.247 . S
O19 Cd15 2.439 . S
O19 C20 1.208 . S
C20 O18 1.247 . S
C20 O19 1.208 . S
C21 O26 1.247 . S
C21 O27 1.208 . S
C22 O14 1.315 . S
C22 O17 1.279 . S
C23 O24 1.315 . S
C23 O25 1.279 . S
O24 Cd16 2.223 . S
O24 C23 1.315 . S
O25 Cd15 2.240 . S
O25 C23 1.279 . S
O26 Cd16 2.297 . S
O26 C21 1.247 . S
O27 Cd16 2.439 . S
O27 C21 1.208 . S
O28 Cd29 2.223 . S
O28 C36 1.315 . S
Cd29 O28 2.223 . S
Cd29 O32 2.297 . S
Cd29 O33 2.439 . S
Cd29 O39 2.240 . S
Cd30 O31 2.240 . S
Cd30 O38 2.223 . S
Cd30 O40 2.297 . S
Cd30 O41 2.439 . S
O31 Cd30 2.240 . S
O31 C36 1.279 . S
O32 Cd29 2.297 . S
O32 C34 1.247 . S
O33 Cd29 2.439 . S
O33 C34 1.208 . S
C34 O32 1.247 . S
C34 O33 1.208 . S
C35 O40 1.247 . S
C35 O41 1.208 . S
C36 O28 1.315 . S
C36 O31 1.279 . S
C37 O38 1.315 . S
C37 O39 1.279 . S
O38 Cd30 2.223 . S
O38 C37 1.315 . S
O39 Cd29 2.240 . S
O39 C37 1.279 . S
O40 Cd30 2.297 . S
O40 C35 1.247 . S
O41 Cd30 2.439 . S
O41 C35 1.208 . S
O42 Cd43 2.223 . S
O42 C50 1.315 . S
Cd43 O42 2.223 . S
Cd43 O46 2.297 . S
Cd43 O47 2.439 . S
Cd43 O53 2.240 . S
Cd44 O45 2.240 . S
Cd44 O52 2.223 . S
Cd44 O54 2.297 . S
Cd44 O55 2.439 . S
O45 Cd44 2.240 . S
O45 C50 1.279 . S
O46 Cd43 2.297 . S
O46 C48 1.247 . S
O47 Cd43 2.439 . S
O47 C48 1.208 . S
C48 O46 1.247 . S
C48 O47 1.208 . S
C49 O54 1.247 . S
C49 O55 1.208 . S
C50 O42 1.315 . S
C50 O45 1.279 . S
C51 O52 1.315 . S
C51 O53 1.279 . S
O52 Cd44 2.223 . S
O52 C51 1.315 . S
O53 Cd43 2.240 . S
O53 C51 1.279 . S
O54 Cd44 2.297 . S
O54 C49 1.247 . S
O55 Cd44 2.439 . S
O55 C49 1.208 . S
O56 Cd57 2.223 . S
O56 C64 1.315 . S
Cd57 O56 2.223 . S
Cd57 O60 2.297 . S
Cd57 O61 2.439 . S
Cd57 O67 2.240 . S
Cd58 O59 2.240 . S
Cd58 O66 2.223 . S
Cd58 O68 2.297 . S
Cd58 O69 2.439 . S
O59 Cd58 2.240 . S
O59 C64 1.279 . S
O60 Cd57 2.297 . S
O60 C62 1.247 . S
O61 Cd57 2.439 . S
O61 C62 1.208 . S
C62 O60 1.247 . S
C62 O61 1.208 . S
C63 O68 1.247 . S
C63 O69 1.208 . S
C64 O56 1.315 . S
C64 O59 1.279 . S
C65 O66 1.315 . S
C65 O67 1.279 . S
O66 Cd58 2.223 . S
O66 C65 1.315 . S
O67 Cd57 2.240 . S
O67 C65 1.279 . S
O68 Cd58 2.297 . S
O68 C63 1.247 . S
O69 Cd58 2.439 . S
O69 C63 1.208 . S
O70 Cd71 2.223 . S
O70 C78 1.315 . S
Cd71 O70 2.223 . S
Cd71 O74 2.297 . S
Cd71 O75 2.439 . S
Cd71 O81 2.240 . S
Cd72 O73 2.240 . S
Cd72 O80 2.223 . S
Cd72 O82 2.297 . S
Cd72 O83 2.439 . S
O73 Cd72 2.240 . S
O73 C78 1.279 . S
O74 Cd71 2.297 . S
O74 C76 1.247 . S
O75 Cd71 2.439 . S
O75 C76 1.208 . S
C76 O74 1.247 . S
C76 O75 1.208 . S
C77 O82 1.247 . S
C77 O83 1.208 . S
C78 O70 1.315 . S
C78 O73 1.279 . S
C79 O80 1.315 . S
C79 O81 1.279 . S
O80 Cd72 2.223 . S
O80 C79 1.315 . S
O81 Cd71 2.240 . S
O81 C79 1.279 . S
O82 Cd72 2.297 . S
O82 C77 1.247 . S
O83 Cd72 2.439 . S
O83 C77 1.208 . S
O84 Cd85 2.223 . S
O84 C92 1.315 . S
Cd85 O84 2.223 . S
Cd85 O88 2.297 . S
Cd85 O89 2.439 . S
Cd85 O95 2.240 . S
Cd86 O87 2.240 . S
Cd86 O94 2.223 . S
Cd86 O96 2.297 . S
Cd86 O97 2.439 . S
O87 Cd86 2.240 . S
O87 C92 1.279 . S
O88 Cd85 2.297 . S
O88 C90 1.247 . S
O89 Cd85 2.439 . S
O89 C90 1.208 . S
C90 O88 1.247 . S
C90 O89 1.208 . S
C91 O96 1.247 . S
C91 O97 1.208 . S
C92 O84 1.315 . S
C92 O87 1.279 . S
C93 O94 1.315 . S
C93 O95 1.279 . S
O94 Cd86 2.223 . S
O94 C93 1.315 . S
O95 Cd85 2.240 . S
O95 C93 1.279 . S
O96 Cd86 2.297 . S
O96 C91 1.247 . S
O97 Cd86 2.439 . S
O97 C91 1.208 . S
O98 Cd99 2.223 . S
O98 C106 1.315 . S
Cd99 O98 2.223 . S
Cd99 O102 2.297 . S
Cd99 O103 2.439 . S
Cd99 O109 2.240 . S
Cd100 O101 2.240 . S
Cd100 O108 2.223 . S
Cd100 O110 2.297 . S
Cd100 O111 2.439 . S
O101 Cd100 2.240 . S
O101 C106 1.279 . S
O102 Cd99 2.297 . S
O102 C104 1.247 . S
O103 Cd99 2.439 . S
O103 C104 1.208 . S
C104 O102 1.247 . S
C104 O103 1.208 . S
C105 O110 1.247 . S
C105 O111 1.208 . S
C106 O98 1.315 . S
C106 O101 1.279 . S
C107 O108 1.315 . S
C107 O109 1.279 . S
O108 Cd100 2.223 . S
O108 C107 1.315 . S
O109 Cd99 2.240 . S
O109 C107 1.279 . S
O110 Cd100 2.297 . S
O110 C105 1.247 . S
O111 Cd100 2.439 . S
O111 C105 1.208 . S
H112 C120 0.950 . S
H113 C125 0.950 . S
H114 C122 0.950 . S
H115 C124 0.950 . S
H116 C126 0.950 . S
H117 C128 0.950 . S
H118 C130 0.950 . S
H119 C131 0.950 . S
C120 H112 0.950 . S
C120 C121 1.386 . S
C120 C122 1.391 . S
C121 C120 1.386 . S
C121 C125 1.393 . S
C122 H114 0.950 . S
C122 C120 1.391 . S
C122 C123 1.400 . S
C123 C122 1.400 . S
C123 C124 1.398 . S
C123 C129 1.491 1_554 S
C124 H115 0.950 . S
C124 C123 1.398 . S
C124 C125 1.391 . S
C125 H113 0.950 . S
C125 C121 1.393 . S
C125 C124 1.391 . S
C126 H116 0.950 . S
C126 C127 1.386 . S
C126 C128 1.391 . S
C127 C126 1.386 . S
C127 C131 1.393 . S
C128 H117 0.950 . S
C128 C126 1.391 . S
C128 C129 1.400 . S
C129 C123 1.491 1_556 S
C129 C128 1.400 . S
C129 C130 1.398 . S
C130 H118 0.950 . S
C130 C129 1.398 . S
C130 C131 1.391 . S
C131 H119 0.950 . S
C131 C127 1.393 . S
C131 C130 1.391 . S
H132 C140 0.950 . S
H133 C145 0.950 . S
H134 C142 0.950 . S
H135 C144 0.950 . S
H136 C146 0.950 . S
H137 C148 0.950 . S
H138 C150 0.950 . S
H139 C151 0.950 . S
C140 H132 0.950 . S
C140 C141 1.386 . S
C140 C142 1.391 . S
C141 C140 1.386 . S
C141 C145 1.393 . S
C142 H134 0.950 . S
C142 C140 1.391 . S
C142 C143 1.400 . S
C143 C142 1.400 . S
C143 C144 1.398 . S
C143 C149 1.491 . S
C144 H135 0.950 . S
C144 C143 1.398 . S
C144 C145 1.391 . S
C145 H133 0.950 . S
C145 C141 1.393 . S
C145 C144 1.391 . S
C146 H136 0.950 . S
C146 C147 1.386 . S
C146 C148 1.391 . S
C147 C146 1.386 . S
C147 C151 1.393 . S
C148 H137 0.950 . S
C148 C146 1.391 . S
C148 C149 1.400 . S
C149 C143 1.491 . S
C149 C148 1.400 . S
C149 C150 1.398 . S
C150 H138 0.950 . S
C150 C149 1.398 . S
C150 C151 1.391 . S
C151 H139 0.950 . S
C151 C147 1.393 . S
C151 C150 1.391 . S
H152 C160 0.950 . S
H153 C165 0.950 . S
H154 C162 0.950 . S
H155 C164 0.950 . S
H156 C166 0.950 . S
H157 C168 0.950 . S
H158 C170 0.950 . S
H159 C171 0.950 . S
C160 H152 0.950 . S
C160 C161 1.386 . S
C160 C162 1.391 . S
C161 C160 1.386 . S
C161 C165 1.393 . S
C162 H154 0.950 . S
C162 C160 1.391 . S
C162 C163 1.400 . S
C163 C162 1.400 . S
C163 C164 1.398 . S
C163 C169 1.491 . S
C164 H155 0.950 . S
C164 C163 1.398 . S
C164 C165 1.391 . S
C165 H153 0.950 . S
C165 C161 1.393 . S
C165 C164 1.391 . S
C166 H156 0.950 . S
C166 C167 1.386 . S
C166 C168 1.391 . S
C167 C166 1.386 . S
C167 C171 1.393 . S
C168 H157 0.950 . S
C168 C166 1.391 . S
C168 C169 1.400 . S
C169 C163 1.491 . S
C169 C168 1.400 . S
C169 C170 1.398 . S
C170 H158 0.950 . S
C170 C169 1.398 . S
C170 C171 1.391 . S
C171 H159 0.950 . S
C171 C167 1.393 . S
C171 C170 1.391 . S
H172 C180 0.950 . S
H173 C185 0.950 . S
H174 C182 0.950 . S
H175 C184 0.950 . S
H176 C186 0.950 . S
H177 C188 0.950 . S
H178 C190 0.950 . S
H179 C191 0.950 . S
C180 H172 0.950 . S
C180 C181 1.386 . S
C180 C182 1.391 . S
C181 C180 1.386 . S
C181 C185 1.393 . S
C182 H174 0.950 . S
C182 C180 1.391 . S
C182 C183 1.400 . S
C183 C182 1.400 . S
C183 C184 1.398 . S
C183 C189 1.491 . S
C184 H175 0.950 . S
C184 C183 1.398 . S
C184 C185 1.391 . S
C185 H173 0.950 . S
C185 C181 1.393 . S
C185 C184 1.391 . S
C186 H176 0.950 . S
C186 C187 1.386 . S
C186 C188 1.391 . S
C187 C186 1.386 . S
C187 C191 1.393 . S
C188 H177 0.950 . S
C188 C186 1.391 . S
C188 C189 1.400 . S
C189 C183 1.491 . S
C189 C188 1.400 . S
C189 C190 1.398 . S
C190 H178 0.950 . S
C190 C189 1.398 . S
C190 C191 1.391 . S
C191 H179 0.950 . S
C191 C187 1.393 . S
C191 C190 1.391 . S
H192 C200 0.950 . S
H193 C205 0.950 . S
H194 C202 0.950 . S
H195 C204 0.950 . S
H196 C206 0.950 . S
H197 C208 0.950 . S
H198 C210 0.950 . S
H199 C211 0.950 . S
C200 H192 0.950 . S
C200 C201 1.386 . S
C200 C202 1.391 . S
C201 C200 1.386 . S
C201 C205 1.393 . S
C202 H194 0.950 . S
C202 C200 1.391 . S
C202 C203 1.400 . S
C203 C202 1.400 . S
C203 C204 1.398 . S
C203 C209 1.491 . S
C204 H195 0.950 . S
C204 C203 1.398 . S
C204 C205 1.391 . S
C205 H193 0.950 . S
C205 C201 1.393 . S
C205 C204 1.391 . S
C206 H196 0.950 . S
C206 C207 1.386 . S
C206 C208 1.391 . S
C207 C206 1.386 . S
C207 C211 1.393 . S
C208 H197 0.950 . S
C208 C206 1.391 . S
C208 C209 1.400 . S
C209 C203 1.491 . S
C209 C208 1.400 . S
C209 C210 1.398 . S
C210 H198 0.950 . S
C210 C209 1.398 . S
C210 C211 1.391 . S
C211 H199 0.950 . S
C211 C207 1.393 . S
C211 C210 1.391 . S
H212 C220 0.950 . S
H213 C225 0.950 . S
H214 C222 0.950 . S
H215 C224 0.950 . S
H216 C226 0.950 . S
H217 C228 0.950 . S
H218 C230 0.950 . S
H219 C231 0.950 . S
C220 H212 0.950 . S
C220 C221 1.386 . S
C220 C222 1.391 . S
C221 C220 1.386 . S
C221 C225 1.393 . S
C222 H214 0.950 . S
C222 C220 1.391 . S
C222 C223 1.400 . S
C223 C222 1.400 . S
C223 C224 1.398 . S
C223 C229 1.491 . S
C224 H215 0.950 . S
C224 C223 1.398 . S
C224 C225 1.391 . S
C225 H213 0.950 . S
C225 C221 1.393 . S
C225 C224 1.391 . S
C226 H216 0.950 . S
C226 C227 1.386 . S
C226 C228 1.391 . S
C227 C226 1.386 . S
C227 C231 1.393 . S
C228 H217 0.950 . S
C228 C226 1.391 . S
C228 C229 1.400 . S
C229 C223 1.491 . S
C229 C228 1.400 . S
C229 C230 1.398 . S
C230 H218 0.950 . S
C230 C229 1.398 . S
C230 C231 1.391 . S
C231 H219 0.950 . S
C231 C227 1.393 . S
C231 C230 1.391 . S
H232 C240 0.950 . S
H233 C245 0.950 . S
H234 C242 0.950 . S
H235 C244 0.950 . S
H236 C246 0.950 . S
H237 C248 0.950 . S
H238 C250 0.950 . S
H239 C251 0.950 . S
C240 H232 0.950 . S
C240 C241 1.386 . S
C240 C242 1.391 . S
C241 C240 1.386 . S
C241 C245 1.393 . S
C242 H234 0.950 . S
C242 C240 1.391 . S
C242 C243 1.400 . S
C243 C242 1.400 . S
C243 C244 1.398 . S
C243 C249 1.491 . S
C244 H235 0.950 . S
C244 C243 1.398 . S
C244 C245 1.391 . S
C245 H233 0.950 . S
C245 C241 1.393 . S
C245 C244 1.391 . S
C246 H236 0.950 . S
C246 C247 1.386 . S
C246 C248 1.391 . S
C247 C246 1.386 . S
C247 C251 1.393 . S
C248 H237 0.950 . S
C248 C246 1.391 . S
C248 C249 1.400 . S
C249 C243 1.491 . S
C249 C248 1.400 . S
C249 C250 1.398 . S
C250 H238 0.950 . S
C250 C249 1.398 . S
C250 C251 1.391 . S
C251 H239 0.950 . S
C251 C247 1.393 . S
C251 C250 1.391 . S
H252 C260 0.950 . S
H253 C265 0.950 . S
H254 C262 0.950 . S
H255 C264 0.950 . S
H256 C266 0.950 . S
H257 C268 0.950 . S
H258 C270 0.950 . S
H259 C271 0.950 . S
C260 H252 0.950 . S
C260 C261 1.386 . S
C260 C262 1.391 . S
C261 C260 1.386 . S
C261 C265 1.393 . S
C262 H254 0.950 . S
C262 C260 1.391 . S
C262 C263 1.400 . S
C263 C262 1.400 . S
C263 C264 1.398 . S
C263 C269 1.491 1_554 S
C264 H255 0.950 . S
C264 C263 1.398 . S
C264 C265 1.391 . S
C265 H253 0.950 . S
C265 C261 1.393 . S
C265 C264 1.391 . S
C266 H256 0.950 . S
C266 C267 1.386 . S
C266 C268 1.391 . S
C267 C266 1.386 . S
C267 C271 1.393 . S
C268 H257 0.950 . S
C268 C266 1.391 . S
C268 C269 1.400 . S
C269 C263 1.491 1_556 S
C269 C268 1.400 . S
C269 C270 1.398 . S
C270 H258 0.950 . S
C270 C269 1.398 . S
C270 C271 1.391 . S
C271 H259 0.950 . S
C271 C267 1.393 . S
C271 C270 1.391 . S
H272 C280 0.950 . S
H273 C285 0.950 . S
H274 C282 0.950 . S
H275 C284 0.950 . S
H276 C286 0.950 . S
H277 C288 0.950 . S
H278 C290 0.950 . S
H279 C291 0.950 . S
C280 H272 0.950 . S
C280 C281 1.386 . S
C280 C282 1.391 . S
C281 C280 1.386 . S
C281 C285 1.393 . S
C282 H274 0.950 . S
C282 C280 1.391 . S
C282 C283 1.400 . S
C283 C282 1.400 . S
C283 C284 1.398 1_455 S
C283 C289 1.491 1_445 S
C284 H275 0.950 . S
C284 C283 1.398 1_655 S
C284 C285 1.391 1_655 S
C285 H273 0.950 . S
C285 C281 1.393 . S
C285 C284 1.391 1_455 S
C286 H276 0.950 . S
C286 C287 1.386 . S
C286 C288 1.391 . S
C287 C286 1.386 . S
C287 C291 1.393 . S
C288 H277 0.950 . S
C288 C286 1.391 . S
C288 C289 1.400 . S
C289 C283 1.491 1_665 S
C289 C288 1.400 . S
C289 C290 1.398 1_655 S
C290 H278 0.950 . S
C290 C289 1.398 1_455 S
C290 C291 1.391 1_455 S
C291 H279 0.950 . S
C291 C287 1.393 . S
C291 C290 1.391 1_655 S
H292 C300 0.950 . S
H293 C305 0.950 . S
H294 C302 0.950 . S
H295 C304 0.950 . S
H296 C306 0.950 . S
H297 C308 0.950 . S
H298 C310 0.950 . S
H299 C311 0.950 . S
C300 H292 0.950 . S
C300 C301 1.386 . S
C300 C302 1.391 1_455 S
C301 C300 1.386 . S
C301 C305 1.393 . S
C302 H294 0.950 . S
C302 C300 1.391 1_655 S
C302 C303 1.400 1_655 S
C303 C302 1.400 1_455 S
C303 C304 1.398 . S
C303 C309 1.491 1_455 S
C304 H295 0.950 . S
C304 C303 1.398 . S
C304 C305 1.391 . S
C305 H293 0.950 . S
C305 C301 1.393 . S
C305 C304 1.391 . S
C306 H296 0.950 . S
C306 C307 1.386 . S
C306 C308 1.391 1_655 S
C307 C306 1.386 . S
C307 C311 1.393 . S
C308 H297 0.950 . S
C308 C306 1.391 1_455 S
C308 C309 1.400 1_455 S
C309 C303 1.491 1_655 S
C309 C308 1.400 1_655 S
C309 C310 1.398 . S
C310 H298 0.950 . S
C310 C309 1.398 . S
C310 C311 1.391 . S
C311 H299 0.950 . S
C311 C307 1.393 . S
C311 C310 1.391 . S
H312 C320 0.950 . S
H313 C325 0.950 . S
H314 C322 0.950 . S
H315 C324 0.950 . S
H316 C326 0.950 . S
H317 C328 0.950 . S
H318 C330 0.950 . S
H319 C331 0.950 . S
C320 H312 0.950 . S
C320 C321 1.386 . S
C320 C322 1.391 . S
C321 C320 1.386 . S
C321 C325 1.393 . S
C322 H314 0.950 . S
C322 C320 1.391 . S
C322 C323 1.400 . S
C323 C322 1.400 . S
C323 C324 1.398 . S
C323 C329 1.491 . S
C324 H315 0.950 . S
C324 C323 1.398 . S
C324 C325 1.391 . S
C325 H313 0.950 . S
C325 C321 1.393 . S
C325 C324 1.391 . S
C326 H316 0.950 . S
C326 C327 1.386 . S
C326 C328 1.391 . S
C327 C326 1.386 . S
C327 C331 1.393 . S
C328 H317 0.950 . S
C328 C326 1.391 . S
C328 C329 1.400 . S
C329 C323 1.491 . S
C329 C328 1.400 . S
C329 C330 1.398 . S
C330 H318 0.950 . S
C330 C329 1.398 . S
C330 C331 1.391 . S
C331 H319 0.950 . S
C331 C327 1.393 . S
C331 C330 1.391 . S
H332 C340 0.950 . S
H333 C345 0.950 . S
H334 C342 0.950 . S
H335 C344 0.950 . S
H336 C346 0.950 . S
H337 C348 0.950 . S
H338 C350 0.950 . S
H339 C351 0.950 . S
C340 H332 0.950 . S
C340 C341 1.386 . S
C340 C342 1.391 . S
C341 C340 1.386 . S
C341 C345 1.393 . S
C342 H334 0.950 . S
C342 C340 1.391 . S
C342 C343 1.400 . S
C343 C342 1.400 . S
C343 C344 1.398 . S
C343 C349 1.491 1_565 S
C344 H335 0.950 . S
C344 C343 1.398 . S
C344 C345 1.391 . S
C345 H333 0.950 . S
C345 C341 1.393 . S
C345 C344 1.391 . S
C346 H336 0.950 . S
C346 C347 1.386 . S
C346 C348 1.391 . S
C347 C346 1.386 . S
C347 C351 1.393 . S
C348 H337 0.950 . S
C348 C346 1.391 . S
C348 C349 1.400 . S
C349 C343 1.491 1_545 S
C349 C348 1.400 . S
C349 C350 1.398 . S
C350 H338 0.950 . S
C350 C349 1.398 . S
C350 C351 1.391 . S
C351 H339 0.950 . S
C351 C347 1.393 . S
C351 C350 1.391 . S
H352 C360 0.950 . S
H353 C365 0.950 . S
H354 C362 0.950 1_455 S
H355 C364 0.950 . S
H356 C366 0.950 . S
H357 C368 0.950 1_655 S
H358 C370 0.950 . S
H359 C371 0.950 . S
C360 H352 0.950 . S
C360 C361 1.386 . S
C360 C362 1.391 . S
C361 C360 1.386 . S
C361 C365 1.393 . S
C362 H354 0.950 1_655 S
C362 C360 1.391 . S
C362 C363 1.400 . S
C363 C362 1.400 . S
C363 C364 1.398 . S
C363 C369 1.491 1_655 S
C364 H355 0.950 . S
C364 C363 1.398 . S
C364 C365 1.391 . S
C365 H353 0.950 . S
C365 C361 1.393 . S
C365 C364 1.391 . S
C366 H356 0.950 . S
C366 C367 1.386 . S
C366 C368 1.391 . S
C367 C366 1.386 . S
C367 C371 1.393 . S
C368 H357 0.950 1_455 S
C368 C366 1.391 . S
C368 C369 1.400 . S
C369 C363 1.491 1_455 S
C369 C368 1.400 . S
C369 C370 1.398 . S
C370 H358 0.950 . S
C370 C369 1.398 . S
C370 C371 1.391 . S
C371 H359 0.950 . S
C371 C367 1.393 . S
C371 C370 1.391 . S
H372 C380 0.950 . S
H373 C385 0.950 . S
H374 C382 0.950 . S
H375 C384 0.950 . S
H376 C386 0.950 . S
H377 C388 0.950 . S
H378 C390 0.950 . S
H379 C391 0.950 . S
C380 H372 0.950 . S
C380 C381 1.386 . S
C380 C382 1.391 . S
C381 C380 1.386 . S
C381 C385 1.393 . S
C382 H374 0.950 . S
C382 C380 1.391 . S
C382 C383 1.400 . S
C383 C382 1.400 . S
C383 C384 1.398 . S
C383 C389 1.491 . S
C384 H375 0.950 . S
C384 C383 1.398 . S
C384 C385 1.391 . S
C385 H373 0.950 . S
C385 C381 1.393 . S
C385 C384 1.391 . S
C386 H376 0.950 . S
C386 C387 1.386 . S
C386 C388 1.391 . S
C387 C386 1.386 . S
C387 C391 1.393 . S
C388 H377 0.950 . S
C388 C386 1.391 . S
C388 C389 1.400 . S
C389 C383 1.491 . S
C389 C388 1.400 . S
C389 C390 1.398 . S
C390 H378 0.950 . S
C390 C389 1.398 . S
C390 C391 1.391 . S
C391 H379 0.950 . S
C391 C387 1.393 . S
C391 C390 1.391 . S
H392 C400 0.950 . S
H393 C405 0.950 . S
H394 C402 0.950 . S
H395 C404 0.950 . S
H396 C406 0.950 . S
H397 C408 0.950 . S
H398 C410 0.950 . S
H399 C411 0.950 . S
C400 H392 0.950 . S
C400 C401 1.386 . S
C400 C402 1.391 . S
C401 C400 1.386 . S
C401 C405 1.393 . S
C402 H394 0.950 . S
C402 C400 1.391 . S
C402 C403 1.400 . S
C403 C402 1.400 . S
C403 C404 1.398 . S
C403 C409 1.491 1_545 S
C404 H395 0.950 . S
C404 C403 1.398 . S
C404 C405 1.391 . S
C405 H393 0.950 . S
C405 C401 1.393 . S
C405 C404 1.391 . S
C406 H396 0.950 . S
C406 C407 1.386 . S
C406 C408 1.391 . S
C407 C406 1.386 . S
C407 C411 1.393 . S
C408 H397 0.950 . S
C408 C406 1.391 . S
C408 C409 1.400 . S
C409 C403 1.491 1_565 S
C409 C408 1.400 . S
C409 C410 1.398 . S
C410 H398 0.950 . S
C410 C409 1.398 . S
C410 C411 1.391 . S
C411 H399 0.950 . S
C411 C407 1.393 . S
C411 C410 1.391 . S
H412 C420 0.950 . S
H413 C425 0.950 . S
H414 C422 0.950 1_545 S
H415 C424 0.950 . S
H416 C426 0.950 . S
H417 C428 0.950 1_565 S
H418 C430 0.950 . S
H419 C431 0.950 . S
C420 H412 0.950 . S
C420 C421 1.386 . S
C420 C422 1.391 . S
C421 C420 1.386 . S
C421 C425 1.393 . S
C422 H414 0.950 1_565 S
C422 C420 1.391 . S
C422 C423 1.400 . S
C423 C422 1.400 . S
C423 C424 1.398 . S
C423 C429 1.491 1_665 S
C424 H415 0.950 . S
C424 C423 1.398 . S
C424 C425 1.391 . S
C425 H413 0.950 . S
C425 C421 1.393 . S
C425 C424 1.391 . S
C426 H416 0.950 . S
C426 C427 1.386 . S
C426 C428 1.391 . S
C427 C426 1.386 . S
C427 C431 1.393 . S
C428 H417 0.950 1_545 S
C428 C426 1.391 . S
C428 C429 1.400 . S
C429 C423 1.491 1_445 S
C429 C428 1.400 . S
C429 C430 1.398 . S
C430 H418 0.950 . S
C430 C429 1.398 . S
C430 C431 1.391 . S
C431 H419 0.950 . S
C431 C427 1.393 . S
C431 C430 1.391 . S
C121 C6 1.365 . S
C127 C76 1.369 . S
C141 C23 1.246 . S
C147 C93 1.220 . S
C161 C34 1.364 . S
C167 C104 1.365 . S
C181 C51 1.215 . S
C187 C65 1.239 . S
C201 C107 1.215 . S
C207 C9 1.237 . S
C221 C62 1.365 . S
C227 C20 1.367 . S
C241 C37 1.226 . S
C247 C79 1.248 . S
C261 C90 1.376 . S
C267 C48 1.379 . S
C281 C8 1.581 . S
C287 C92 1.569 . S
C301 C105 1.608 . S
C307 C21 1.600 . S
C321 C36 1.581 . S
C327 C64 1.573 . S
C341 C49 1.624 . S
C347 C77 1.620 . S
C361 C91 1.621 . S
C367 C7 1.624 . S
C381 C106 1.568 . S
C387 C22 1.580 . S
C401 C35 1.624 . S
C407 C63 1.622 . S
C421 C50 1.568 . S
C427 C78 1.576 . S
