# Generated by pormake.
# Topology sxc, (6)-cn, num edge types: 1
# Building blocks:
#     Node 0, Type 0, BuildingBlock: CUKXOW_clean_sbu_0, # of connection points: 6
#     Node 1, Type 0, BuildingBlock: CUKXOW_clean_sbu_0, # of connection points: 6
#     Node 2, Type 0, BuildingBlock: CUKXOW_clean_sbu_0, # of connection points: 6
#     Edge 3, Type (0, 0), BuildingBlock: FUNLAD_clean_linker_0, # of connection points: 2
#     Edge 4, Type (0, 0), BuildingBlock: FUNLAD_clean_linker_0, # of connection points: 2
#     Edge 5, Type (0, 0), BuildingBlock: FUNLAD_clean_linker_0, # of connection points: 2
#     Edge 6, Type (0, 0), BuildingBlock: FUNLAD_clean_linker_0, # of connection points: 2
#     Edge 7, Type (0, 0), BuildingBlock: FUNLAD_clean_linker_0, # of connection points: 2
#     Edge 8, Type (0, 0), BuildingBlock: FUNLAD_clean_linker_0, # of connection points: 2
#     Edge 9, Type (0, 0), BuildingBlock: FUNLAD_clean_linker_0, # of connection points: 2
#     Edge 10, Type (0, 0), BuildingBlock: FUNLAD_clean_linker_0, # of connection points: 2
#     Edge 11, Type (0, 0), BuildingBlock: FUNLAD_clean_linker_0, # of connection points: 2
# Relax obj value: 0.032
# Max RMSD: 0.093
# Mean RMSD: 0.060
data_MOF--net-sxc--node1-CUKXOW_clean_sbu_0--edge1-FUNLAD_clean_linker_0
_symmetry_space_group_name_H-M    P1
_symmetry_Int_Tables_number       1
_symmetry_cell_setting            triclinic
loop_
_symmetry_equiv_pos_as_xyz
'x, y, z'
_cell_length_a     17.121436
_cell_length_b     20.011015
_cell_length_c     53.521619
_cell_angle_alpha  88.78209
_cell_angle_beta   102.57444
_cell_angle_gamma 122.83478
loop_
_atom_site_label
_atom_site_type_symbol
_atom_site_fract_x
_atom_site_fract_y
_atom_site_fract_z
_atom_type_partial_charge
Tb0 Tb 0.98831 0.08277 0.0027 0.0
C1 C 0.08091 0.0713 0.05971 0.0
Tb2 Tb 0.10293 1.00388 0.01099 0.0
O3 O 0.84132 0.97483 -0.00145 0.0
O4 O 0.9552 0.96318 0.00505 0.0
O5 O 0.04403 0.10571 0.0445 0.0
C6 C 0.13107 0.88481 0.01555 0.0
O7 O 0.10508 0.02535 0.05087 0.0
C8 C 0.22727 0.1646 0.01151 0.0
C9 C 1.00954 0.01473 0.95397 0.0
O10 O 0.09133 0.90213 0.03004 0.0
O11 O 0.15781 0.93626 -0.00105 0.0
O12 O 0.24982 0.11181 0.01495 0.0
O13 O 0.13601 0.12347 0.00861 0.0
O14 O 0.04532 0.97959 0.96923 0.0
O15 O 0.98701 0.06182 0.96288 0.0
C16 C 0.96104 0.20237 -0.00177 0.0
O17 O 1.0005 0.18481 0.98371 0.0
O18 O 0.934 0.15083 0.01478 0.0
C19 C 0.86392 0.92208 0.00209 0.0
Tb20 Tb 0.1523 0.19182 0.34484 0.0
C21 C 0.07957 0.09758 0.29022 0.0
Tb22 Tb 0.07173 0.01879 0.3429 0.0
O23 O 0.28537 0.21978 0.33604 0.0
O24 O 0.21189 0.12255 0.35594 0.0
O25 O 0.10399 0.16471 0.30304 0.0
C26 C 0.06015 0.88336 0.3341 0.0
O27 O 0.06495 0.03403 0.3019 0.0
C28 C 0.94442 0.05431 0.34311 0.0
C29 C 0.14479 0.11388 0.39754 0.0
O30 O 1.00363 0.88998 0.34506 0.0
O31 O 0.12214 0.95236 0.32822 0.0
O32 O 0.93942 0.99156 0.35205 0.0
O33 O 1.01212 0.08788 0.33179 0.0
O34 O 0.12247 0.04726 0.38479 0.0
O35 O 0.15705 0.17642 0.38562 0.0
C36 C 0.16186 0.32634 0.35356 0.0
O37 O 0.21964 0.32067 0.3429 0.0
O38 O 0.09991 0.25698 0.35921 0.0
C39 C 0.27996 0.15666 0.34476 0.0
Tb40 Tb 0.12325 0.13131 0.68237 0.0
C41 C 0.05922 0.0206 0.7268 0.0
Tb42 Tb 1.00588 0.96182 0.66898 0.0
O43 O 1.00558 0.14245 0.66297 0.0
O44 O 0.97758 0.0435 0.68231 0.0
O45 O 0.12507 0.09038 0.72076 0.0
C46 C 0.86643 0.8176 0.64514 0.0
O47 O 0.99242 0.96138 0.70859 0.0
C48 C 0.18981 0.01725 0.6824 0.0
C49 C 0.07257 0.07223 0.62445 0.0
O50 O 0.94608 0.83458 0.6606 0.0
O51 O 0.86365 0.88092 0.64413 0.0
O52 O 0.12286 0.94853 0.68729 0.0
O53 O 0.15137 0.04936 0.66904 0.0
O54 O 1.00867 1.00204 0.6306 0.0
O55 O 0.13631 0.1327 0.64259 0.0
C56 C 0.25833 0.28211 0.7022 0.0
O57 O 0.16971 0.25496 0.69135 0.0
O58 O 0.27065 0.22378 0.70177 0.0
C59 C 0.93904 0.07501 0.66861 0.0
C60 C 1.01123 0.33552 0.98313 0.0
C61 C 0.96428 0.27744 -0.00091 0.0
C62 C 1.02529 0.41083 0.98608 0.0
C63 C 0.99288 0.42959 0.00518 0.0
C64 C 0.94204 0.37001 0.0203 0.0
C65 C 0.92838 0.2948 0.01741 0.0
C66 C 1.00993 0.51003 0.00979 0.0
C67 C 0.08415 0.57789 0.00426 0.0
C68 C 0.101 0.65827 0.00884 0.0
C69 C 0.15132 0.71775 0.99363 0.0
C70 C 0.16446 0.79278 -0.00356 0.0
C71 C 0.12854 0.81005 0.01477 0.0
H72 H 1.03293 0.63407 0.04078 0.0
C73 C 0.08224 0.75213 0.03085 0.0
C74 C 0.06871 0.67701 0.02798 0.0
H75 H 0.05424 0.76411 0.04524 0.0
H76 H 0.03928 0.32349 0.96876 0.0
H77 H 0.06152 0.45387 0.97336 0.0
H78 H 0.91516 0.38243 0.03491 0.0
H79 H 0.89192 0.25102 0.02997 0.0
H80 H 0.96033 0.51303 0.0186 0.0
H81 H 0.13374 0.57492 -0.00456 0.0
H82 H 0.17811 0.70535 0.97898 0.0
H83 H 0.20046 0.83645 0.9838 0.0
C84 C 0.42892 0.18362 0.33325 0.0
C85 C 0.35388 0.13776 0.34548 0.0
C86 C 0.49942 0.16719 0.33376 0.0
C87 C 0.49722 0.10407 0.34662 0.0
C88 C 0.42133 0.05792 0.35867 0.0
C89 C 0.35096 0.07454 0.35818 0.0
C90 C 0.57052 0.08306 0.34778 0.0
C91 C 0.65273 0.12682 0.33961 0.0
C92 C 0.72614 0.10593 0.34082 0.0
C93 C 0.80161 0.15169 0.3286 0.0
C94 C 0.87229 0.13535 0.32922 0.0
C95 C 0.87013 0.07286 0.34223 0.0
H96 H 0.66985 1.00698 0.36406 0.0
C97 C 0.79542 0.02733 0.3546 0.0
C98 C 0.72461 0.04346 0.35395 0.0
H99 H 0.79169 0.97895 0.36494 0.0
H100 H 0.43321 0.23252 0.32313 0.0
H101 H 0.55453 0.20403 0.3238 0.0
H102 H 0.41646 1.00862 0.36866 0.0
H103 H 0.29437 0.03793 0.36781 0.0
H104 H 0.55481 0.02837 0.35596 0.0
H105 H 0.6684 0.18145 0.3314 0.0
H106 H 0.80595 0.20048 0.31839 0.0
H107 H 0.92855 0.17166 0.31945 0.0
C108 C 0.69393 0.725 0.62537 0.0
C109 C 0.78376 0.73681 0.63554 0.0
C110 C 0.61125 0.65109 0.62568 0.0
C111 C 0.61904 0.5894 0.63601 0.0
C112 C 0.70741 0.59694 0.64144 0.0
C113 C 0.7903 0.67117 0.64142 0.0
C114 C 0.54556 0.52916 0.64812 0.0
C115 C 0.51506 0.55276 0.66507 0.0
C116 C 0.46166 0.49811 0.68241 0.0
C117 C 0.37569 0.48767 0.68438 0.0
C118 C 0.31216 0.42119 0.69495 0.0
C119 C 0.33545 0.36588 0.70355 0.0
H120 H 0.55979 0.46026 0.69459 0.0
C121 C 0.42841 0.38462 0.70574 0.0
C122 C 0.49131 0.45045 0.69498 0.0
H123 H 0.44843 0.3435 0.71283 0.0
H124 H 0.68764 0.77478 0.62012 0.0
H125 H 0.54278 0.64519 0.62085 0.0
H126 H 0.714 0.54916 0.64909 0.0
H127 H 0.85933 0.67905 0.64874 0.0
H128 H 0.53058 0.46893 0.64706 0.0
H129 H 0.53074 0.61315 0.6666 0.0
H130 H 0.3535 0.52574 0.67541 0.0
H131 H 0.24108 0.40831 0.69354 0.0
C132 C 0.81483 0.10817 0.65805 0.0
C133 C 0.84298 0.05729 0.66856 0.0
C134 C 0.72796 0.0962 0.66003 0.0
C135 C 0.66716 0.03294 0.67268 0.0
C136 C 0.69393 0.98034 0.68229 0.0
C137 C 0.78098 0.99251 0.68037 0.0
C138 C 0.57484 0.01872 0.67585 0.0
C139 C 0.55492 0.07568 0.67511 0.0
C140 C 0.46256 0.06124 0.67835 0.0
C141 C 0.43518 0.11345 0.6687 0.0
C142 C 0.34786 0.10076 0.67064 0.0
C143 C 0.28622 0.03579 0.68246 0.0
H144 H 0.42177 0.95811 0.6997 0.0
C145 C 0.31509 0.98544 0.69304 0.0
C146 C 0.40222 0.99799 0.69107 0.0
H147 H 0.26956 0.93539 0.70254 0.0
H148 H 0.86072 0.15818 0.6486 0.0
H149 H 0.70894 0.13646 0.65148 0.0
H150 H 0.64819 0.93046 0.69181 0.0
H151 H 0.80053 0.95207 0.68856 0.0
H152 H 0.52224 0.95881 0.67935 0.0
H153 H 0.60743 0.13557 0.67157 0.0
H154 H 0.48059 0.16336 0.65914 0.0
H155 H 0.32777 0.14085 0.66241 0.0
C156 C 0.80753 0.77132 0.00804 0.0
C157 C 0.78867 0.83186 0.00271 0.0
C158 C 0.73189 0.6893 0.00872 0.0
C159 C 0.63387 0.66408 0.00408 0.0
C160 C 0.61674 0.72513 -0.00127 0.0
C161 C 0.69105 0.8057 -0.00191 0.0
C162 C 0.5462 0.57758 0.00438 0.0
C163 C 0.54503 0.50912 0.00923 0.0
C164 C 0.45735 0.42261 0.00952 0.0
C165 C 0.47444 0.36151 0.01481 0.0
C166 C 0.40011 0.28094 0.01544 0.0
C167 C 0.30251 0.25482 0.01088 0.0
H168 H 0.34045 0.44073 0.00078 0.0
C169 C 0.28371 0.31542 0.00561 0.0
C170 C 0.35936 0.39744 0.00494 0.0
H171 H 0.2106 0.29965 0.00189 0.0
H172 H 0.88066 0.78714 0.01182 0.0
H173 H 0.75083 0.64605 0.01294 0.0
H174 H 0.54409 0.71059 -0.00501 0.0
H175 H 0.67101 0.84836 0.99391 0.0
H176 H 0.47709 0.57065 0.00022 0.0
H177 H 0.61413 0.51604 0.01338 0.0
H178 H 0.54706 0.37602 0.0185 0.0
H179 H 0.42012 0.23824 0.01956 0.0
C180 C 0.21188 0.46431 0.34402 0.0
C181 C 0.15781 0.39692 0.35607 0.0
C182 C 0.1978 0.52677 0.34372 0.0
C183 C 0.12945 0.5223 0.35552 0.0
C184 C 0.07985 0.45703 0.36887 0.0
C185 C 0.09327 0.39437 0.36896 0.0
C186 C 0.10695 0.58389 0.35388 0.0
C187 C 0.10916 0.62264 0.33299 0.0
C188 C 0.08766 0.68484 0.33145 0.0
C189 C 0.13765 0.74993 0.31808 0.0
C190 C 0.12585 0.81346 0.31822 0.0
C191 C 0.06256 0.81201 0.33138 0.0
H192 H 0.97817 0.63047 0.35316 0.0
C193 C 1.00795 0.74479 0.34343 0.0
C194 C 1.0204 0.68143 0.34349 0.0
H195 H 0.95814 0.74234 0.3535 0.0
H196 H 0.26256 0.46756 0.33415 0.0
H197 H 0.23973 0.57793 0.33408 0.0
H198 H 1.02787 0.453 0.37837 0.0
H199 H 0.05117 0.34295 0.37853 0.0
H200 H 0.08454 0.59512 0.36992 0.0
H201 H 0.13155 0.61134 0.31695 0.0
H202 H 0.18882 0.75318 0.3084 0.0
H203 H 0.16828 0.8647 0.30863 0.0
C204 C 0.12592 0.16086 0.25053 0.0
C205 C 0.06796 0.09284 0.26196 0.0
C206 C 0.11949 0.15524 0.22402 0.0
C207 C 0.05328 0.08184 0.20837 0.0
C208 C 0.99343 0.01451 0.21968 0.0
C209 C 1.00187 0.01955 0.24629 0.0
C210 C 0.04332 0.07471 0.18013 0.0
C211 C 0.11949 0.10911 0.16967 0.0
C212 C 0.10912 0.09973 0.14144 0.0
C213 C 0.17266 0.08892 0.13216 0.0
C214 C 0.16347 0.07923 0.1056 0.0
C215 C 0.09254 0.08295 0.08785 0.0
H216 H 0.9893 0.11323 0.13032 0.0
C217 C 1.03063 0.09596 0.09721 0.0
C218 C 0.03816 0.10345 0.12371 0.0
H219 H 0.97502 0.09886 0.08402 0.0
H220 H 0.17785 0.21801 0.26219 0.0
H221 H 0.16537 0.20846 0.21573 0.0
H222 H 0.94133 0.95747 0.20797 0.0
H223 H 0.95615 0.96622 0.25458 0.0
H224 H 0.97166 0.03582 0.16777 0.0
H225 H 0.19143 0.14085 0.18224 0.0
H226 H 0.22842 0.08649 0.14547 0.0
H227 H 0.21245 0.06963 0.09896 0.0
C228 C 0.12697 0.05126 0.43901 0.0
C229 C 0.15544 0.11937 0.42588 0.0
C230 C 0.1295 0.05581 0.46531 0.0
C231 C 0.16058 0.12874 0.47908 0.0
C232 C 0.19263 0.19726 0.46616 0.0
C233 C 0.18951 0.19264 0.43989 0.0
C234 C 0.16079 0.13587 0.50682 0.0
C235 C 0.09918 0.07447 0.51801 0.0
C236 C 0.09346 0.07984 0.5453 0.0
C237 C 1.01268 0.01683 0.55248 0.0
C238 C 1.0049 0.01611 0.57793 0.0
C239 C 0.07804 0.07848 0.59709 0.0
H240 H 0.23062 0.19254 0.55995 0.0
C241 C 0.15827 0.14271 0.58996 0.0
C242 C 0.16624 0.14336 0.56437 0.0
H243 H 0.21636 0.19134 0.60429 0.0
H244 H 0.10085 0.99397 0.42887 0.0
H245 H 0.10727 1.00214 0.47474 0.0
H246 H 0.21803 0.25442 0.47628 0.0
H247 H 0.21267 0.24656 0.43052 0.0
H248 H 0.20872 0.19503 0.51761 0.0
H249 H 0.04651 0.01733 0.50627 0.0
H250 H 0.95534 0.96708 0.53836 0.0
H251 H 0.9419 0.96566 0.58263 0.0
C252 C 0.97161 0.95662 0.76133 0.0
C253 C 0.05713 1.01193 0.75426 0.0
C254 C 0.96928 0.95259 0.78738 0.0
C255 C 0.05291 1.00303 0.80685 0.0
C256 C 0.13872 0.05645 0.79973 0.0
C257 C 0.14062 0.06163 0.77376 0.0
C258 C 0.05407 1.00045 0.83473 0.0
C259 C 0.97966 0.98542 0.84407 0.0
C260 C 0.98507 0.98943 0.8722 0.0
C261 C 0.93525 0.01626 0.88172 0.0
C262 C 0.94222 0.02378 0.90822 0.0
C263 C 0.99753 1.00284 0.92574 0.0
H264 H 0.07601 0.9439 0.88292 0.0
C265 C 0.04454 0.97318 0.91607 0.0
C266 C 0.03874 0.96685 0.88965 0.0
H267 H 0.0876 0.95627 0.92897 0.0
H268 H 0.90606 0.91762 0.74673 0.0
H269 H 0.90239 0.90948 0.79223 0.0
H270 H 0.20432 0.09548 0.81433 0.0
H271 H 0.20774 0.10456 0.76895 0.0
H272 H 0.12143 0.01789 0.84815 0.0
H273 H 0.91568 0.97619 0.83089 0.0
H274 H 0.89265 0.03333 0.86869 0.0
H275 H 0.90457 0.04634 0.91495 0.0
loop_
_geom_bond_atom_site_label_1
_geom_bond_atom_site_label_2
_geom_bond_distance
_geom_bond_site_symmetry_2
_ccdc_geom_bond_type
Tb0 O3 2.453 1_545 S
Tb0 O4 2.596 1_545 S
Tb0 O5 2.374 1_655 S
Tb0 O13 2.343 1_655 S
Tb0 O15 2.353 1_654 S
Tb0 O17 2.427 1_654 S
Tb0 O18 2.513 1_655 S
C1 O5 1.251 . S
C1 O7 1.263 . S
Tb2 O4 2.343 1_445 S
Tb2 O7 2.353 . S
Tb2 O10 2.427 1_545 S
Tb2 O11 2.513 1_544 S
Tb2 O12 2.453 . S
Tb2 O13 2.596 . S
Tb2 O14 2.374 1_554 S
O3 Tb0 2.453 1_565 S
O3 C19 1.245 . S
O4 Tb0 2.596 1_565 S
O4 Tb2 2.343 1_665 S
O4 C19 1.259 . S
O5 Tb0 2.374 1_455 S
O5 C1 1.251 . S
C6 O10 1.275 . S
C6 O11 1.246 1_554 S
O7 C1 1.263 . S
O7 Tb2 2.353 . S
C8 O12 1.245 . S
C8 O13 1.259 . S
C9 O14 1.250 . S
C9 O15 1.263 . S
O10 Tb2 2.427 1_565 S
O10 C6 1.275 . S
O11 Tb2 2.513 1_566 S
O11 C6 1.246 1_556 S
O12 Tb2 2.453 . S
O12 C8 1.245 . S
O13 Tb0 2.343 1_455 S
O13 Tb2 2.596 . S
O13 C8 1.259 . S
O14 Tb2 2.374 1_556 S
O14 C9 1.250 . S
O15 Tb0 2.353 1_456 S
O15 C9 1.263 . S
C16 O17 1.275 1_554 S
C16 O18 1.246 . S
O17 Tb0 2.427 1_456 S
O17 C16 1.275 1_556 S
O18 Tb0 2.513 1_455 S
O18 C16 1.246 . S
C19 O3 1.245 . S
C19 O4 1.259 . S
Tb20 O23 2.453 . S
Tb20 O24 2.596 1_545 S
Tb20 O25 2.374 . S
Tb20 O33 2.343 1_455 S
Tb20 O35 2.353 . S
Tb20 O37 2.427 . S
Tb20 O38 2.513 . S
C21 O25 1.251 . S
C21 O27 1.263 1_445 S
Tb22 O24 2.343 1_655 S
Tb22 O27 2.353 . S
Tb22 O30 2.427 . S
Tb22 O31 2.513 1_655 S
Tb22 O32 2.453 . S
Tb22 O33 2.596 1_565 S
Tb22 O34 2.374 . S
O23 Tb20 2.453 . S
O23 C39 1.245 . S
O24 Tb20 2.596 1_565 S
O24 Tb22 2.343 1_455 S
O24 C39 1.259 1_565 S
O25 Tb20 2.374 . S
O25 C21 1.251 . S
C26 O30 1.275 1_455 S
C26 O31 1.246 . S
O27 C21 1.263 1_665 S
O27 Tb22 2.353 . S
C28 O32 1.245 . S
C28 O33 1.259 1_565 S
C29 O34 1.250 1_445 S
C29 O35 1.263 . S
O30 Tb22 2.427 . S
O30 C26 1.275 1_655 S
O31 Tb22 2.513 1_455 S
O31 C26 1.246 . S
O32 Tb22 2.453 . S
O32 C28 1.245 . S
O33 Tb20 2.343 1_655 S
O33 Tb22 2.596 1_545 S
O33 C28 1.259 1_545 S
O34 Tb22 2.374 . S
O34 C29 1.250 1_665 S
O35 Tb20 2.353 . S
O35 C29 1.263 . S
C36 O37 1.275 . S
C36 O38 1.246 . S
O37 Tb20 2.427 . S
O37 C36 1.275 . S
O38 Tb20 2.513 . S
O38 C36 1.246 . S
C39 O23 1.245 . S
C39 O24 1.259 1_545 S
Tb40 O43 2.453 1_455 S
Tb40 O44 2.596 1_455 S
Tb40 O45 2.374 . S
Tb40 O53 2.343 . S
Tb40 O55 2.353 . S
Tb40 O57 2.427 . S
Tb40 O58 2.513 . S
C41 O45 1.251 . S
C41 O47 1.263 . S
Tb42 O44 2.350 1_565 S
Tb42 O47 2.355 1_665 S
Tb42 O50 2.433 . S
Tb42 O51 2.519 . S
Tb42 O52 2.444 1_665 S
Tb42 O53 2.592 1_665 S
Tb42 O54 2.373 1_565 S
O43 Tb40 2.453 1_655 S
O43 C59 1.245 . S
O44 Tb40 2.596 1_655 S
O44 Tb42 2.350 1_545 S
O44 C59 1.259 . S
O45 Tb40 2.374 . S
O45 C41 1.251 . S
C46 O50 1.275 . S
C46 O51 1.246 . S
O47 C41 1.263 . S
O47 Tb42 2.355 1_445 S
C48 O52 1.245 . S
C48 O53 1.259 . S
C49 O54 1.250 1_455 S
C49 O55 1.263 . S
O50 Tb42 2.433 . S
O50 C46 1.275 . S
O51 Tb42 2.519 . S
O51 C46 1.246 . S
O52 Tb42 2.444 1_445 S
O52 C48 1.245 . S
O53 Tb40 2.343 . S
O53 Tb42 2.592 1_445 S
O53 C48 1.259 . S
O54 Tb42 2.373 1_545 S
O54 C49 1.250 1_655 S
O55 Tb40 2.353 . S
O55 C49 1.263 . S
C56 O57 1.275 . S
C56 O58 1.246 . S
O57 Tb40 2.427 . S
O57 C56 1.275 . S
O58 Tb40 2.513 . S
O58 C56 1.246 . S
C59 O43 1.245 . S
C59 O44 1.259 . S
C60 C61 1.386 1_655 S
C60 C62 1.383 1_655 S
C60 H76 0.951 1_554 S
C61 C60 1.386 1_455 S
C61 C65 1.383 . S
C62 C60 1.383 1_455 S
C62 C63 1.402 . S
C62 H77 0.951 1_455 S
C63 C62 1.402 . S
C63 C64 1.375 . S
C63 C66 1.481 . S
C64 C63 1.375 . S
C64 C65 1.367 . S
C64 H78 0.951 . S
C65 C61 1.383 . S
C65 C64 1.367 . S
C65 H79 0.950 . S
C66 C63 1.481 . S
C66 C67 1.297 . S
C66 H80 0.950 . S
C67 C66 1.297 . S
C67 C68 1.479 . S
C67 H81 0.950 1_455 S
C68 C67 1.479 . S
C68 C69 1.375 1_455 S
C68 C74 1.404 . S
C69 C68 1.375 1_655 S
C69 C70 1.369 . S
C69 H82 0.950 . S
C70 C69 1.369 . S
C70 C71 1.392 1_655 S
C70 H83 0.956 . S
C71 C70 1.392 1_455 S
C71 C73 1.384 . S
H72 C74 0.949 . S
C73 C71 1.384 . S
C73 C74 1.385 . S
C73 H75 0.950 . S
C74 C68 1.404 . S
C74 H72 0.949 . S
C74 C73 1.385 . S
H75 C73 0.950 . S
H76 C60 0.951 1_556 S
H77 C62 0.951 1_655 S
H78 C64 0.951 . S
H79 C65 0.950 . S
H80 C66 0.950 . S
H81 C67 0.950 1_655 S
H82 C69 0.950 . S
H83 C70 0.956 . S
C84 C85 1.386 1_545 S
C84 C86 1.383 . S
C84 H100 0.951 . S
C85 C84 1.386 1_565 S
C85 C89 1.383 . S
C86 C84 1.383 . S
C86 C87 1.402 1_545 S
C86 H101 0.951 . S
C87 C86 1.402 1_565 S
C87 C88 1.375 . S
C87 C90 1.481 . S
C88 C87 1.375 . S
C88 C89 1.367 . S
C88 H102 0.951 . S
C89 C85 1.383 . S
C89 C88 1.367 . S
C89 H103 0.950 . S
C90 C87 1.481 . S
C90 C91 1.297 1_565 S
C90 H104 0.950 . S
C91 C90 1.297 1_545 S
C91 C92 1.479 . S
C91 H105 0.950 . S
C92 C91 1.479 . S
C92 C93 1.375 . S
C92 C98 1.404 1_545 S
C93 C92 1.375 . S
C93 C94 1.369 . S
C93 H106 0.950 . S
C94 C93 1.369 . S
C94 C95 1.392 . S
C94 H107 0.951 . S
C95 C94 1.392 . S
C95 C97 1.384 1_545 S
H96 C98 0.949 . S
C97 C95 1.384 1_565 S
C97 C98 1.385 . S
C97 H99 0.950 . S
C98 C92 1.404 1_565 S
C98 H96 0.949 . S
C98 C97 1.385 . S
H99 C97 0.950 . S
H100 C84 0.951 . S
H101 C86 0.951 . S
H102 C88 0.951 . S
H103 C89 0.950 . S
H104 C90 0.950 . S
H105 C91 0.950 . S
H106 C93 0.950 . S
H107 C94 0.951 . S
C108 C109 1.386 . S
C108 C110 1.383 . S
C108 H124 0.951 . S
C109 C108 1.386 . S
C109 C113 1.383 . S
C110 C108 1.383 . S
C110 C111 1.402 . S
C110 H125 0.951 . S
C111 C110 1.402 . S
C111 C112 1.375 . S
C111 C114 1.481 . S
C112 C111 1.375 . S
C112 C113 1.367 . S
C112 H126 0.951 . S
C113 C109 1.383 . S
C113 C112 1.367 . S
C113 H127 0.950 . S
C114 C111 1.481 . S
C114 C115 1.297 . S
C114 H128 0.950 . S
C115 C114 1.297 . S
C115 C116 1.479 . S
C115 H129 0.950 . S
C116 C115 1.479 . S
C116 C117 1.375 . S
C116 C122 1.404 . S
C117 C116 1.375 . S
C117 C118 1.369 . S
C117 H130 0.950 . S
C118 C117 1.369 . S
C118 C119 1.392 . S
C118 H131 0.951 . S
C119 C118 1.392 . S
C119 C121 1.384 . S
H120 C122 0.949 . S
C121 C119 1.384 . S
C121 C122 1.385 . S
C121 H123 0.950 . S
C122 C116 1.404 . S
C122 H120 0.949 . S
C122 C121 1.385 . S
H123 C121 0.950 . S
H124 C108 0.951 . S
H125 C110 0.951 . S
H126 C112 0.951 . S
H127 C113 0.950 . S
H128 C114 0.950 . S
H129 C115 0.950 . S
H130 C117 0.950 . S
H131 C118 0.951 . S
C132 C133 1.386 . S
C132 C134 1.383 . S
C132 H148 0.951 . S
C133 C132 1.386 . S
C133 C137 1.383 . S
C134 C132 1.383 . S
C134 C135 1.402 . S
C134 H149 0.951 . S
C135 C134 1.402 . S
C135 C136 1.375 . S
C135 C138 1.481 . S
C136 C135 1.375 . S
C136 C137 1.367 . S
C136 H150 0.951 1_545 S
C137 C133 1.383 . S
C137 C136 1.367 . S
C137 H151 0.950 1_545 S
C138 C135 1.481 . S
C138 C139 1.297 . S
C138 H152 0.950 . S
C139 C138 1.297 . S
C139 C140 1.479 . S
C139 H153 0.950 . S
C140 C139 1.479 . S
C140 C141 1.375 . S
C140 C146 1.404 . S
C141 C140 1.375 . S
C141 C142 1.369 . S
C141 H154 0.950 . S
C142 C141 1.369 . S
C142 C143 1.392 . S
C142 H155 0.951 . S
C143 C142 1.392 . S
C143 C145 1.384 . S
H144 C146 0.949 . S
C145 C143 1.384 . S
C145 C146 1.385 . S
C145 H147 0.950 1_545 S
C146 C140 1.404 . S
C146 H144 0.949 . S
C146 C145 1.385 . S
H147 C145 0.950 1_565 S
H148 C132 0.951 . S
H149 C134 0.951 . S
H150 C136 0.951 1_565 S
H151 C137 0.950 1_565 S
H152 C138 0.950 . S
H153 C139 0.950 . S
H154 C141 0.950 . S
H155 C142 0.951 . S
C156 C157 1.386 . S
C156 C158 1.383 . S
C156 H172 0.951 . S
C157 C156 1.386 . S
C157 C161 1.383 . S
C158 C156 1.383 . S
C158 C159 1.402 . S
C158 H173 0.951 . S
C159 C158 1.402 . S
C159 C160 1.375 . S
C159 C162 1.481 . S
C160 C159 1.375 . S
C160 C161 1.367 . S
C160 H174 0.951 . S
C161 C157 1.383 . S
C161 C160 1.367 . S
C161 H175 0.950 . S
C162 C159 1.481 . S
C162 C163 1.297 . S
C162 H176 0.950 . S
C163 C162 1.297 . S
C163 C164 1.479 . S
C163 H177 0.950 . S
C164 C163 1.479 . S
C164 C165 1.375 . S
C164 C170 1.404 . S
C165 C164 1.375 . S
C165 C166 1.369 . S
C165 H178 0.950 . S
C166 C165 1.369 . S
C166 C167 1.392 . S
C166 H179 0.951 . S
C167 C166 1.392 . S
C167 C169 1.384 . S
H168 C170 0.949 . S
C169 C167 1.384 . S
C169 C170 1.385 . S
C169 H171 0.950 . S
C170 C164 1.404 . S
C170 H168 0.949 . S
C170 C169 1.385 . S
H171 C169 0.950 . S
H172 C156 0.951 . S
H173 C158 0.951 . S
H174 C160 0.951 . S
H175 C161 0.950 . S
H176 C162 0.950 . S
H177 C163 0.950 . S
H178 C165 0.950 . S
H179 C166 0.951 . S
C180 C181 1.386 1_455 S
C180 C182 1.383 . S
C180 H196 0.951 . S
C181 C180 1.386 1_655 S
C181 C185 1.383 . S
C182 C180 1.383 . S
C182 C183 1.402 1_455 S
C182 H197 0.951 . S
C183 C182 1.402 1_655 S
C183 C184 1.375 . S
C183 C186 1.481 . S
C184 C183 1.375 . S
C184 C185 1.367 . S
C184 H198 0.951 . S
C185 C181 1.383 . S
C185 C184 1.367 . S
C185 H199 0.950 . S
C186 C183 1.481 . S
C186 C187 1.297 1_655 S
C186 H200 0.950 . S
C187 C186 1.297 1_455 S
C187 C188 1.479 . S
C187 H201 0.950 . S
C188 C187 1.479 . S
C188 C189 1.375 . S
C188 C194 1.404 1_455 S
C189 C188 1.375 . S
C189 C190 1.369 . S
C189 H202 0.950 . S
C190 C189 1.369 . S
C190 C191 1.392 . S
C190 H203 0.951 . S
C191 C190 1.392 . S
C191 C193 1.384 1_455 S
H192 C194 0.949 . S
C193 C191 1.384 1_655 S
C193 C194 1.385 . S
C193 H195 0.950 . S
C194 C188 1.404 1_655 S
C194 H192 0.949 . S
C194 C193 1.385 . S
H195 C193 0.950 . S
H196 C180 0.951 . S
H197 C182 0.951 . S
H198 C184 0.951 . S
H199 C185 0.950 . S
H200 C186 0.950 . S
H201 C187 0.950 . S
H202 C189 0.950 . S
H203 C190 0.951 . S
C204 C205 1.386 1_545 S
C204 C206 1.383 . S
C204 H220 0.951 . S
C205 C204 1.386 1_565 S
C205 C209 1.383 1_455 S
C206 C204 1.383 . S
C206 C207 1.402 1_545 S
C206 H221 0.951 . S
C207 C206 1.402 1_565 S
C207 C208 1.375 1_455 S
C207 C210 1.481 1_455 S
C208 C207 1.375 1_655 S
C208 C209 1.367 . S
C208 H222 0.951 . S
C209 C205 1.383 1_655 S
C209 C208 1.367 . S
C209 H223 0.950 . S
C210 C207 1.481 1_655 S
C210 C211 1.297 1_665 S
C210 H224 0.950 . S
C211 C210 1.297 1_445 S
C211 C212 1.479 . S
C211 H225 0.950 . S
C212 C211 1.479 . S
C212 C213 1.375 . S
C212 C218 1.404 1_445 S
C213 C212 1.375 . S
C213 C214 1.369 . S
C213 H226 0.950 . S
C214 C213 1.369 . S
C214 C215 1.392 . S
C214 H227 0.951 . S
C215 C214 1.392 . S
C215 C217 1.384 1_445 S
H216 C218 0.949 . S
C217 C215 1.384 1_665 S
C217 C218 1.385 . S
C217 H219 0.950 . S
C218 C212 1.404 1_665 S
C218 H216 0.949 . S
C218 C217 1.385 . S
H219 C217 0.950 . S
H220 C204 0.951 . S
H221 C206 0.951 . S
H222 C208 0.951 . S
H223 C209 0.950 . S
H224 C210 0.950 . S
H225 C211 0.950 . S
H226 C213 0.950 . S
H227 C214 0.951 . S
C228 C229 1.377 1_565 S
C228 C230 1.379 1_565 S
C228 H244 0.963 . S
C229 C228 1.377 1_545 S
C229 C233 1.383 1_455 S
C230 C228 1.379 1_545 S
C230 C231 1.402 . S
C230 H245 0.959 . S
C231 C230 1.402 . S
C231 C232 1.375 1_455 S
C231 C234 1.481 . S
C232 C231 1.375 1_655 S
C232 C233 1.367 . S
C232 H246 0.951 . S
C233 C229 1.383 1_655 S
C233 C232 1.367 . S
C233 H247 0.950 . S
C234 C231 1.481 . S
C234 C235 1.297 . S
C234 H248 0.950 1_455 S
C235 C234 1.297 . S
C235 C236 1.479 . S
C235 H249 0.950 . S
C236 C235 1.479 . S
C236 C237 1.375 . S
C236 C242 1.404 . S
C237 C236 1.375 . S
C237 C238 1.369 . S
C237 H250 0.950 . S
C238 C237 1.369 . S
C238 C239 1.392 . S
C238 H251 0.951 . S
C239 C238 1.392 . S
C239 C241 1.384 . S
H240 C242 0.949 . S
C241 C239 1.384 . S
C241 C242 1.385 . S
C241 H243 0.950 1_455 S
C242 C236 1.404 . S
C242 H240 0.949 . S
C242 C241 1.385 . S
H243 C241 0.950 1_655 S
H244 C228 0.963 . S
H245 C230 0.959 . S
H246 C232 0.951 . S
H247 C233 0.950 . S
H248 C234 0.950 1_655 S
H249 C235 0.950 . S
H250 C237 0.950 . S
H251 C238 0.951 . S
C252 C253 1.386 1_655 S
C252 C254 1.383 . S
C252 H268 0.951 . S
C253 C252 1.386 1_455 S
C253 C257 1.383 . S
C254 C252 1.383 . S
C254 C255 1.402 1_655 S
C254 H269 0.951 . S
C255 C254 1.402 1_455 S
C255 C256 1.375 . S
C255 C258 1.481 . S
C256 C255 1.375 . S
C256 C257 1.367 . S
C256 H270 0.951 . S
C257 C253 1.383 . S
C257 C256 1.367 . S
C257 H271 0.950 . S
C258 C255 1.481 . S
C258 C259 1.297 . S
C258 H272 0.950 . S
C259 C258 1.297 . S
C259 C260 1.479 . S
C259 H273 0.950 1_455 S
C260 C259 1.479 . S
C260 C261 1.375 1_455 S
C260 C266 1.404 . S
C261 C260 1.375 1_655 S
C261 C262 1.369 . S
C261 H274 0.950 1_545 S
C262 C261 1.369 . S
C262 C263 1.392 1_655 S
C262 H275 0.951 . S
C263 C262 1.392 1_455 S
C263 C265 1.384 . S
H264 C266 0.949 . S
C265 C263 1.384 . S
C265 C266 1.385 . S
C265 H267 0.950 . S
C266 C260 1.404 . S
C266 H264 0.949 . S
C266 C265 1.385 . S
H267 C265 0.950 . S
H268 C252 0.951 . S
H269 C254 0.951 . S
H270 C256 0.951 . S
H271 C257 0.950 . S
H272 C258 0.950 . S
H273 C259 0.950 1_655 S
H274 C261 0.950 1_565 S
H275 C262 0.951 . S
C61 C16 1.255 . S
C71 C6 1.273 . S
C85 C39 1.869 1_565 S
C95 C28 1.900 1_545 S
C109 C46 0.796 . S
C119 C56 0.774 . S
C133 C59 1.871 . S
C143 C48 1.887 . S
C157 C19 2.387 . S
C167 C8 2.354 . S
C181 C36 1.271 1_655 S
C191 C26 1.233 . S
C205 C21 1.502 1_565 S
C215 C1 1.512 . S
C229 C29 1.506 . S
C239 C49 1.518 . S
C253 C41 1.485 . S
C263 C9 1.481 . S
