# Generated by pormake.
# Topology sof, (5)-cn, num edge types: 1
# Building blocks:
#     Node 0, Type 0, BuildingBlock: XOMCOT_clean_sbu_1, # of connection points: 5
#     Node 1, Type 0, BuildingBlock: XOMCOT_clean_sbu_1, # of connection points: 5
#     Node 2, Type 0, BuildingBlock: XOMCOT_clean_sbu_1, # of connection points: 5
#     Node 3, Type 0, BuildingBlock: XOMCOT_clean_sbu_1, # of connection points: 5
#     Node 4, Type 0, BuildingBlock: XOMCOT_clean_sbu_1, # of connection points: 5
#     Node 5, Type 0, BuildingBlock: XOMCOT_clean_sbu_1, # of connection points: 5
#     Node 6, Type 0, BuildingBlock: XOMCOT_clean_sbu_1, # of connection points: 5
#     Node 7, Type 0, BuildingBlock: XOMCOT_clean_sbu_1, # of connection points: 5
#     Edge 8, Type (0, 0), BuildingBlock: AJUNOK_clean_linker_0, # of connection points: 2
#     Edge 9, Type (0, 0), BuildingBlock: AJUNOK_clean_linker_0, # of connection points: 2
#     Edge 10, Type (0, 0), BuildingBlock: AJUNOK_clean_linker_0, # of connection points: 2
#     Edge 11, Type (0, 0), BuildingBlock: AJUNOK_clean_linker_0, # of connection points: 2
#     Edge 12, Type (0, 0), BuildingBlock: AJUNOK_clean_linker_0, # of connection points: 2
#     Edge 13, Type (0, 0), BuildingBlock: AJUNOK_clean_linker_0, # of connection points: 2
#     Edge 14, Type (0, 0), BuildingBlock: AJUNOK_clean_linker_0, # of connection points: 2
#     Edge 15, Type (0, 0), BuildingBlock: AJUNOK_clean_linker_0, # of connection points: 2
#     Edge 16, Type (0, 0), BuildingBlock: AJUNOK_clean_linker_0, # of connection points: 2
#     Edge 17, Type (0, 0), BuildingBlock: AJUNOK_clean_linker_0, # of connection points: 2
#     Edge 18, Type (0, 0), BuildingBlock: AJUNOK_clean_linker_0, # of connection points: 2
#     Edge 19, Type (0, 0), BuildingBlock: AJUNOK_clean_linker_0, # of connection points: 2
#     Edge 20, Type (0, 0), BuildingBlock: AJUNOK_clean_linker_0, # of connection points: 2
#     Edge 21, Type (0, 0), BuildingBlock: AJUNOK_clean_linker_0, # of connection points: 2
#     Edge 22, Type (0, 0), BuildingBlock: AJUNOK_clean_linker_0, # of connection points: 2
#     Edge 23, Type (0, 0), BuildingBlock: AJUNOK_clean_linker_0, # of connection points: 2
#     Edge 24, Type (0, 0), BuildingBlock: AJUNOK_clean_linker_0, # of connection points: 2
#     Edge 25, Type (0, 0), BuildingBlock: AJUNOK_clean_linker_0, # of connection points: 2
#     Edge 26, Type (0, 0), BuildingBlock: AJUNOK_clean_linker_0, # of connection points: 2
#     Edge 27, Type (0, 0), BuildingBlock: AJUNOK_clean_linker_0, # of connection points: 2
# Relax obj value: 0.155
# Max RMSD: 0.159
# Mean RMSD: 0.159
data_MOF--net-sof--node1-XOMCOT_clean_sbu_1--edge1-AJUNOK_clean_linker_0
_symmetry_space_group_name_H-M    P1
_symmetry_Int_Tables_number       1
_symmetry_cell_setting            triclinic
loop_
_symmetry_equiv_pos_as_xyz
'x, y, z'
_cell_length_a     44.072571
_cell_length_b     13.398571
_cell_length_c     36.013904
_cell_angle_alpha  90.103034
_cell_angle_beta   90.048618
_cell_angle_gamma 89.928634
loop_
_atom_site_label
_atom_site_type_symbol
_atom_site_fract_x
_atom_site_fract_y
_atom_site_fract_z
_atom_type_partial_charge
C0 C 0.11377 0.22552 0.08994 0.0
C1 C 0.1136 0.32816 0.08707 0.0
N2 N 0.0892 0.36339 0.10547 0.0
N3 N 0.0898 0.19647 0.11048 0.0
C4 C 0.07511 0.28202 0.11903 0.0
H5 H 0.1307 0.17577 0.07851 0.0
Co6 Co 0.07891 0.06872 0.12592 0.0
C7 C 0.06028 0.10825 0.20671 0.0
O8 O 0.06626 1.01766 0.2185 0.0
N9 N 0.06702 0.93957 0.14059 0.0
C10 C 0.03744 0.81095 0.15582 0.0
C11 C 0.04034 0.91341 0.15631 0.0
C12 C 0.07936 0.85167 0.12982 0.0
N13 N 0.06191 0.77278 0.13864 0.0
O14 O 0.04077 0.08288 0.10096 0.0
H15 H 0.02326 0.96572 0.16566 0.0
H16 H 0.10005 0.84445 0.11421 0.0
O17 O 0.06388 0.12985 0.17238 0.0
C18 C 0.04441 0.0461 0.06843 0.0
O19 O 0.07149 1.01277 0.05946 0.0
N20 N 0.11788 0.05042 0.14571 0.0
C21 C 0.17977 0.02082 0.15768 0.0
C22 C 0.1623 0.07458 0.1835 0.0
C23 C 0.13117 0.0891 0.17689 0.0
C24 C 0.13484 0.99951 0.12047 0.0
C25 C 0.16527 0.97982 0.12667 0.0
H26 H 0.11855 0.13562 0.19578 0.0
H27 H 0.1248 0.97679 0.09443 0.0
H28 H 0.05446 0.28489 0.13523 0.0
H29 H 0.13077 0.37325 0.07373 0.0
H30 H 0.01813 0.7683 0.16538 0.0
H31 H 0.17285 0.10908 0.20747 0.0
H32 H 0.1777 0.93688 0.10619 0.0
C33 C 0.37824 0.81126 0.08963 0.0
C34 C 0.37941 0.70942 0.08408 0.0
N35 N 0.40502 0.67349 0.09981 0.0
N36 N 0.40269 0.83966 0.10943 0.0
C37 C 0.41893 0.75496 0.11416 0.0
H38 H 0.3603 0.86101 0.08076 0.0
Co39 Co 0.41291 0.96755 0.12696 0.0
C40 C 0.42287 0.91786 0.20752 0.0
O41 O 0.40633 0.9956 0.21689 0.0
N42 N 0.42479 0.09828 0.1423 0.0
C43 C 0.44663 0.2336 0.167 0.0
C44 C 0.44282 0.13154 0.17011 0.0
C45 C 0.41989 0.18103 0.12145 0.0
N46 N 0.43188 0.26436 0.1364 0.0
O47 O 0.45064 0.95876 0.10075 0.0
H48 H 0.45346 0.08525 0.19089 0.0
H49 H 0.40767 0.1805 0.09536 0.0
O50 O 0.42922 0.90295 0.1731 0.0
C51 C 0.4452 0.9863 0.06737 0.0
O52 O 0.41693 1.00625 0.05841 0.0
N53 N 0.37362 0.98061 0.14922 0.0
C54 C 0.31155 0.99496 0.16453 0.0
C55 C 0.32785 0.90931 0.17474 0.0
C56 C 0.35912 0.90401 0.16714 0.0
C57 C 0.35777 0.0651 0.14079 0.0
C58 C 0.32746 0.07574 0.14995 0.0
H59 H 0.37108 0.83536 0.17308 0.0
H60 H 0.36725 0.12271 0.12411 0.0
H61 H 0.44018 0.75345 0.12904 0.0
H62 H 0.36233 0.66513 0.07013 0.0
H63 H 0.4589 0.28154 0.18601 0.0
H64 H 0.3163 0.84496 0.18609 0.0
H65 H 0.31582 0.14392 0.14219 0.0
C66 C 0.11132 0.29587 0.44176 0.0
C67 C 0.1113 0.19323 0.44489 0.0
N68 N 0.08832 0.15737 0.42414 0.0
N69 N 0.08861 0.32387 0.41889 0.0
C70 C 0.07484 0.23794 0.40911 0.0
H71 H 0.12729 0.34653 0.45459 0.0
Co72 Co 0.07878 0.45161 0.40268 0.0
C73 C 0.06675 0.41634 0.32121 0.0
O74 O 0.08106 0.49947 0.31302 0.0
N75 N 0.06801 0.58194 0.3874 0.0
C76 C 0.04121 0.71173 0.36639 0.0
C77 C 0.04402 0.60923 0.36622 0.0
C78 C 0.07838 0.66931 0.40138 0.0
N79 N 0.06273 0.74885 0.38894 0.0
O80 O 0.04014 0.44201 0.42654 0.0
H81 H 0.02856 0.55789 0.35287 0.0
H82 H 0.09626 0.67582 0.42156 0.0
O83 O 0.0635 0.39221 0.35541 0.0
C84 C 0.04389 0.47473 0.45964 0.0
O85 O 0.07147 0.49981 0.46991 0.0
N86 N 0.11841 0.46533 0.38412 0.0
C87 C 0.18074 0.4931 0.37391 0.0
C88 C 0.1644 0.42729 0.35088 0.0
C89 C 0.13309 0.41378 0.35665 0.0
C90 C 0.13453 0.52362 0.40787 0.0
C91 C 0.16498 0.54295 0.40215 0.0
H92 H 0.12136 0.35784 0.34056 0.0
H93 H 0.12408 0.55074 0.43295 0.0
H94 H 0.05518 0.23407 0.39133 0.0
H95 H 0.12756 0.14846 0.46007 0.0
H96 H 0.02388 0.75521 0.35251 0.0
H97 H 0.17583 0.38281 0.33002 0.0
H98 H 0.17639 0.59307 0.4212 0.0
C99 C 0.38074 0.74839 0.44623 0.0
C100 C 0.37975 0.85107 0.44815 0.0
N101 N 0.4028 0.88754 0.42772 0.0
N102 N 0.40413 0.72072 0.4244 0.0
C103 C 0.41756 0.80705 0.41438 0.0
H104 H 0.36489 0.6974 0.459 0.0
Co105 Co 0.414 0.59288 0.4083 0.0
C106 C 0.42584 0.62409 0.32712 0.0
O107 O 0.41284 0.53795 0.31996 0.0
N108 N 0.42488 0.46259 0.39287 0.0
C109 C 0.45232 0.33316 0.37268 0.0
C110 C 0.45027 0.43582 0.37422 0.0
C111 C 0.41273 0.37455 0.40356 0.0
N112 N 0.42838 0.29514 0.39092 0.0
O113 O 0.45279 0.60331 0.43172 0.0
H114 H 0.46689 0.48767 0.36356 0.0
H115 H 0.39412 0.36705 0.42262 0.0
O116 O 0.42869 0.65186 0.36099 0.0
C117 C 0.44943 0.5714 0.46493 0.0
O118 O 0.42191 0.54793 0.47589 0.0
N119 N 0.37427 0.5783 0.38988 0.0
C120 C 0.31243 0.54471 0.37751 0.0
C121 C 0.32878 0.61128 0.35492 0.0
C122 C 0.3598 0.62761 0.36173 0.0
C123 C 0.35801 0.52057 0.41357 0.0
C124 C 0.32786 0.49814 0.40679 0.0
H125 H 0.37147 0.68353 0.34567 0.0
H126 H 0.36831 0.49453 0.43895 0.0
H127 H 0.43723 0.81123 0.39655 0.0
H128 H 0.36314 0.89535 0.46297 0.0
H129 H 0.47029 0.29 0.35993 0.0
H130 H 0.31755 0.65393 0.33342 0.0
H131 H 0.31647 0.44751 0.42557 0.0
C132 C 0.88085 0.80727 0.94006 0.0
C133 C 0.88164 0.70468 0.94336 0.0
N134 N 0.90576 0.67027 0.92418 0.0
N135 N 0.90418 0.83695 0.91857 0.0
C136 C 0.91908 0.75198 0.90979 0.0
H137 H 0.86391 0.8566 0.95172 0.0
Co138 Co 0.91396 0.96484 0.90223 0.0
C139 C 0.92878 0.92406 0.82094 0.0
O140 O 0.91868 1.01102 0.80953 0.0
N141 N 0.92498 0.09458 0.88654 0.0
C142 C 0.95383 0.22233 0.86827 0.0
C143 C 0.95028 0.1201 0.86756 0.0
C144 C 0.91431 0.18279 0.89951 0.0
N145 N 0.93131 0.26109 0.88889 0.0
O146 O 0.95255 0.95502 0.92662 0.0
H147 H 0.96624 0.06749 0.85582 0.0
H148 H 0.89529 0.19077 0.91791 0.0
O149 O 0.92864 0.90328 0.85563 0.0
C150 C 0.94783 0.99229 0.95888 0.0
O151 O 0.91995 0.01865 0.96729 0.0
N152 N 0.87446 0.97934 0.88337 0.0
C153 C 0.8119 1.00438 0.87449 0.0
C154 C 0.82831 0.94166 0.85036 0.0
C155 C 0.85984 0.93012 0.85526 0.0
C156 C 0.85841 0.03739 0.90728 0.0
C157 C 0.82794 0.05678 0.90177 0.0
H158 H 0.87177 0.87704 0.83812 0.0
H159 H 0.86897 0.06467 0.93229 0.0
H160 H 0.93928 0.74967 0.89275 0.0
H161 H 0.86504 0.65892 0.95742 0.0
H162 H 0.97239 0.26429 0.85636 0.0
H163 H 0.81676 0.89845 0.82922 0.0
H164 H 0.81673 0.10822 0.9205 0.0
C165 C 0.61227 0.24031 0.9415 0.0
C166 C 0.61311 0.34293 0.944 0.0
N167 N 0.58903 0.38013 0.92548 0.0
N168 N 0.58789 0.21308 0.92125 0.0
C169 C 0.57375 0.29964 0.91301 0.0
H170 H 0.62891 0.18912 0.95266 0.0
Co171 Co 0.57763 0.08562 0.90452 0.0
C172 C 0.566 0.12324 0.82313 0.0
O173 O 0.57984 0.03917 0.81483 0.0
N174 N 0.56645 0.95524 0.88872 0.0
C175 C 0.54021 0.8252 0.86657 0.0
C176 C 0.54249 0.92806 0.86744 0.0
C177 C 0.5772 0.8673 0.90176 0.0
N178 N 0.56247 0.78765 0.88791 0.0
O179 O 0.53902 0.09642 0.92823 0.0
H180 H 0.52691 0.97963 0.8544 0.0
H181 H 0.59404 0.85987 0.92319 0.0
O182 O 0.56268 0.14698 0.85742 0.0
C183 C 0.54269 0.06518 0.96149 0.0
O184 O 0.57029 0.04124 0.97211 0.0
N185 N 0.61731 0.07058 0.88578 0.0
C186 C 0.67971 0.04259 0.87587 0.0
C187 C 0.66367 0.11144 0.85382 0.0
C188 C 0.63227 0.12458 0.85927 0.0
C189 C 0.63316 1.00819 0.90827 0.0
C190 C 0.6634 0.98682 0.90187 0.0
H191 H 0.62069 0.18253 0.84401 0.0
H192 H 0.62285 0.97988 0.93316 0.0
H193 H 0.55301 0.30374 0.89729 0.0
H194 H 0.63038 0.38656 0.95789 0.0
H195 H 0.52334 0.78165 0.8519 0.0
H196 H 0.67544 0.158 0.83397 0.0
H197 H 0.67426 0.93116 0.91912 0.0
C198 C 0.88045 0.71792 0.58863 0.0
C199 C 0.87993 0.82018 0.58426 0.0
N200 N 0.90337 0.85963 0.60344 0.0
N201 N 0.90403 0.69294 0.61056 0.0
C202 C 0.91792 0.78036 0.61823 0.0
H203 H 0.86445 0.66519 0.57704 0.0
Co204 Co 0.91504 0.56558 0.62716 0.0
C205 C 0.92538 0.61226 0.70761 0.0
O206 O 0.90853 0.53459 0.71595 0.0
N207 N 0.92737 0.43511 0.64196 0.0
C208 C 0.94809 0.29907 0.66747 0.0
C209 C 0.94539 0.40165 0.66975 0.0
C210 C 0.9217 0.3519 0.62168 0.0
N211 N 0.93263 0.26819 0.63742 0.0
O212 O 0.95252 0.57605 0.60048 0.0
H213 H 0.95649 0.44794 0.69019 0.0
H214 H 0.90963 0.35213 0.59551 0.0
O215 O 0.93181 0.62874 0.67337 0.0
C216 C 0.94691 0.5474 0.56723 0.0
O217 O 0.91867 0.52568 0.55877 0.0
N218 N 0.87592 0.5512 0.64947 0.0
C219 C 0.81389 0.53515 0.66482 0.0
C220 C 0.83023 0.61923 0.67663 0.0
C221 C 0.86144 0.62564 0.66879 0.0
C222 C 0.85991 0.469 0.63881 0.0
C223 C 0.82968 0.45695 0.64803 0.0
H224 H 0.87337 0.69353 0.67585 0.0
H225 H 0.86919 0.4155 0.6201 0.0
H226 H 0.93823 0.78585 0.63467 0.0
H227 H 0.86359 0.86164 0.568 0.0
H228 H 0.95991 0.25084 0.68677 0.0
H229 H 0.81872 0.68187 0.68944 0.0
H230 H 0.81798 0.39039 0.63864 0.0
C231 C 0.61662 0.31055 0.59249 0.0
C232 C 0.61673 0.20777 0.59023 0.0
N233 N 0.59171 0.17325 0.60741 0.0
N234 N 0.59191 0.34033 0.61162 0.0
C235 C 0.577 0.25508 0.61975 0.0
H236 H 0.63394 0.35993 0.5819 0.0
Co237 Co 0.58119 0.4684 0.6274 0.0
C238 C 0.56423 0.42918 0.70796 0.0
O239 O 0.57357 0.51714 0.71933 0.0
N240 N 0.56946 0.59797 0.64256 0.0
C241 C 0.54041 0.72573 0.66057 0.0
C242 C 0.54334 0.62331 0.65986 0.0
C243 C 0.58135 0.68661 0.63199 0.0
N244 N 0.56438 0.76519 0.64277 0.0
O245 O 0.54316 0.45672 0.60199 0.0
H246 H 0.52675 0.57058 0.66999 0.0
H247 H 0.60091 0.69482 0.61439 0.0
O248 O 0.56551 0.40704 0.67342 0.0
C249 C 0.548 0.48779 0.56894 0.0
O250 O 0.57588 0.51275 0.56007 0.0
N251 N 0.6201 0.48464 0.64766 0.0
C252 C 0.68207 0.51145 0.65982 0.0
C253 C 0.66481 0.45251 0.68413 0.0
C254 C 0.63365 0.43924 0.67737 0.0
C255 C 0.63694 0.5398 0.62369 0.0
C256 C 0.66736 0.55843 0.63021 0.0
H257 H 0.62125 0.38787 0.6946 0.0
H258 H 0.62699 0.56544 0.59803 0.0
H259 H 0.55639 0.25269 0.63601 0.0
H260 H 0.63414 0.16189 0.57761 0.0
H261 H 0.52183 0.76745 0.67264 0.0
H262 H 0.67557 0.41286 0.70679 0.0
H263 H 0.6797 0.60469 0.61075 0.0
C264 C 0.22815 0.985 0.19294 0.0
C265 C 0.21338 1.01568 0.16016 0.0
C266 C 0.25999 0.9756 0.19433 0.0
C267 C 0.27789 0.99702 0.16301 0.0
H268 H 0.21501 0.96716 0.21745 0.0
H269 H 0.27066 0.95306 0.22009 0.0
S270 S 0.25018 0.07995 0.0706 0.0
N271 N 0.21933 0.07077 0.09622 0.0
N272 N 0.27836 0.0461 0.09797 0.0
C273 C 0.26322 0.02631 0.13004 0.0
C274 C 0.23121 0.03782 0.12888 0.0
C275 C 0.26169 0.52415 0.4071 0.0
C276 C 0.27889 0.53137 0.37433 0.0
C277 C 0.23055 0.50763 0.40621 0.0
C278 C 0.21445 0.50248 0.37252 0.0
H279 H 0.27222 0.53186 0.43413 0.0
H280 H 0.21903 0.49945 0.43258 0.0
S281 S 0.24828 0.51756 0.27834 0.0
N282 N 0.27755 0.52853 0.30675 0.0
N283 N 0.21807 0.50612 0.30512 0.0
C284 C 0.2311 0.5102 0.33927 0.0
C285 C 0.26339 0.52381 0.34017 0.0
C286 C 0.76153 0.02002 0.84112 0.0
C287 C 0.77808 1.0094 0.87438 0.0
C288 C 0.72974 0.03206 0.84154 0.0
C289 C 0.7135 0.03496 0.87523 0.0
H290 H 0.77322 0.02045 0.81469 0.0
H291 H 0.71781 0.03832 0.81534 0.0
S292 S 0.74632 1.01059 0.97001 0.0
N293 N 0.77532 0.99543 0.94174 0.0
N294 N 0.71701 0.03236 0.94279 0.0
C295 C 0.73004 0.02628 0.90861 0.0
C296 C 0.76188 1.00943 0.9081 0.0
C297 C 0.73088 0.54048 0.69503 0.0
C298 C 0.7157 0.51539 0.66186 0.0
C299 C 0.76273 0.54947 0.69602 0.0
C300 C 0.78023 0.53323 0.6639 0.0
H301 H 0.71804 0.55435 0.72015 0.0
H302 H 0.77374 0.5677 0.72206 0.0
S303 S 0.75134 0.46581 0.57022 0.0
N304 N 0.72083 0.47088 0.59661 0.0
N305 N 0.77987 0.49493 0.5978 0.0
C306 C 0.76515 0.50942 0.63058 0.0
C307 C 0.73313 0.49826 0.62977 0.0
C308 C 0.02391 0.97728 1.00875 0.0
C309 C 0.01931 0.0354 0.04106 0.0
C310 C 0.00096 0.96435 0.98211 0.0
C311 C 0.97237 1.00882 0.98666 0.0
H312 H 0.04543 0.94034 1.00395 0.0
H313 H 0.00559 0.91821 0.95804 0.0
S314 S 0.94913 0.1736 0.06512 0.0
N315 N 0.98429 0.14093 0.07523 0.0
N316 N 0.94115 0.11775 0.02542 0.0
C317 C 0.96758 0.06859 0.0186 0.0
C318 C 0.99099 0.0815 0.04572 0.0
C319 C 0.50026 1.00223 0.05044 0.0
C320 C 0.46965 1.00423 0.03965 0.0
C321 C 0.52346 0.02382 0.02503 0.0
C322 C 0.51712 0.04842 0.98769 0.0
H323 H 0.50642 0.98476 0.07882 0.0
H324 H 0.54666 0.02105 0.03494 0.0
S325 S 0.44075 0.06148 0.94481 0.0
N326 N 0.43424 0.0312 0.98848 0.0
N327 N 0.47793 0.0718 0.94113 0.0
C328 C 0.48665 0.05052 0.97645 0.0
C329 C 0.46295 0.02829 1.00227 0.0
C330 C 0.02495 0.52242 0.52282 0.0
C331 C 0.01847 0.49083 0.48621 0.0
C332 C 0.00185 0.54191 0.54864 0.0
C333 C 0.97116 0.53082 0.53903 0.0
H334 H 0.0482 0.53235 0.53186 0.0
H335 H 0.00816 0.56516 0.57641 0.0
S336 S 0.94178 0.45201 0.44647 0.0
N337 N 0.979 0.4507 0.44161 0.0
N338 N 0.93547 0.48728 0.48971 0.0
C339 C 0.96429 0.49977 0.50237 0.0
C340 C 0.98791 0.47971 0.47612 0.0
C341 C 0.46935 0.53035 0.52823 0.0
C342 C 0.47526 0.55279 0.49061 0.0
C343 C 0.49278 0.50711 0.5532 0.0
C344 C 0.52318 0.5053 0.54164 0.0
H345 H 0.44632 0.53084 0.53871 0.0
H346 H 0.487 0.49194 0.58187 0.0
S347 S 0.55089 0.55339 0.44569 0.0
N348 N 0.51379 0.56849 0.44287 0.0
N349 N 0.55789 0.52473 0.48942 0.0
C350 C 0.52944 0.52651 0.50395 0.0
C351 C 0.50552 0.55041 0.47858 0.0
C352 C 0.07396 0.35573 0.25573 0.0
C353 C 0.06049 0.34235 0.2909 0.0
C354 C 0.07241 0.28172 0.22812 0.0
C355 C 0.05743 0.19063 0.23435 0.0
H356 H 0.08699 0.42228 0.24979 0.0
H357 H 0.08449 0.29403 0.20237 0.0
S358 S 0.01371 0.12439 0.31866 0.0
N359 N 0.02785 0.23573 0.32811 0.0
N360 N 0.02602 0.09533 0.27669 0.0
C361 C 0.04246 0.17808 0.26848 0.0
C362 C 0.04365 0.25421 0.29653 0.0
C363 C 0.43302 0.79995 0.30314 0.0
C364 C 0.43066 0.6967 0.29607 0.0
C365 C 0.43218 0.87041 0.27414 0.0
C366 C 0.42938 0.84105 0.23667 0.0
H367 H 0.43397 0.82737 0.33136 0.0
H368 H 0.43269 0.94897 0.2813 0.0
S369 S 0.42409 0.57951 0.203 0.0
N370 N 0.42715 0.56873 0.24841 0.0
N371 N 0.42518 0.70036 0.19445 0.0
C372 C 0.42848 0.73791 0.22917 0.0
C373 C 0.42923 0.66618 0.25866 0.0
C374 C 0.92009 0.74788 0.80054 0.0
C375 C 0.93272 0.8421 0.79338 0.0
C376 C 0.91946 0.67286 0.77327 0.0
C377 C 0.93152 0.68825 0.73741 0.0
H378 H 0.90897 0.73376 0.82679 0.0
H379 H 0.90819 0.60352 0.78012 0.0
S380 S 0.97148 0.91782 0.70665 0.0
N381 N 0.96001 0.94449 0.74917 0.0
N382 N 0.96017 0.8024 0.69838 0.0
C383 C 0.94608 0.7803 0.73079 0.0
C384 C 0.94621 0.8575 0.75852 0.0
C385 C 0.57071 0.1779 0.7565 0.0
C386 C 0.56028 0.19791 0.79283 0.0
C387 C 0.57022 0.25124 0.72862 0.0
C388 C 0.55959 0.34849 0.73583 0.0
H389 H 0.58055 0.10605 0.74972 0.0
H390 H 0.57986 0.23289 0.70181 0.0
S391 S 0.52482 0.43582 0.82375 0.0
N392 N 0.53466 0.31912 0.83226 0.0
N393 N 0.53531 0.45793 0.78055 0.0
C394 C 0.54749 0.36814 0.77117 0.0
C395 C 0.54737 0.29274 0.79941 0.0
C396 C 0.06207 0.59432 0.15524 0.0
C397 C 0.06745 0.66991 0.12912 0.0
C398 C 0.06886 0.49432 0.14713 0.0
C399 C 0.08125 0.4662 0.11258 0.0
H400 H 0.05326 0.6131 0.18243 0.0
H401 H 0.06501 0.43903 0.16842 0.0
S402 S 0.09539 0.6345 0.03284 0.0
N403 N 0.08299 0.70912 0.06608 0.0
N404 N 0.09581 0.52129 0.05089 0.0
C405 C 0.08568 0.54082 0.08577 0.0
C406 C 0.07875 0.64259 0.09402 0.0
C407 C 0.3964 0.39684 0.1169 0.0
C408 C 0.42618 0.36573 0.12477 0.0
C409 C 0.38986 0.49645 0.1078 0.0
C410 C 0.4129 0.56926 0.10559 0.0
H411 H 0.37785 0.34424 0.11909 0.0
H412 H 0.36635 0.5169 0.10377 0.0
S413 S 0.49532 0.52153 0.11912 0.0
N414 N 0.47919 0.41262 0.12741 0.0
N415 N 0.46741 0.59888 0.10857 0.0
C416 C 0.44308 0.53743 0.11167 0.0
C417 C 0.44958 0.43612 0.12173 0.0
C418 C 0.0738 0.02548 0.37973 0.0
C419 C 0.08124 0.0547 0.41618 0.0
C420 C 0.06705 0.92582 0.37116 0.0
C421 C 0.06777 0.85176 0.3987 0.0
H422 H 0.07392 0.07986 0.35755 0.0
H423 H 0.06204 0.90598 0.34265 0.0
S424 S 0.083 0.89132 0.499 0.0
N425 N 0.08699 1.00306 0.48035 0.0
N426 N 0.07432 0.81555 0.46437 0.0
C427 C 0.07452 0.88037 0.43541 0.0
C428 C 0.08133 0.98186 0.44411 0.0
C429 C 0.43895 0.02488 0.41633 0.0
C430 C 0.40887 0.99014 0.4185 0.0
C431 C 0.44531 0.12416 0.40666 0.0
C432 C 0.4218 0.1919 0.39865 0.0
H433 H 0.45762 0.97519 0.4227 0.0
H434 H 0.46871 0.14864 0.40622 0.0
S435 S 0.33952 0.13433 0.39548 0.0
N436 N 0.35561 0.02884 0.40868 0.0
N437 N 0.36752 0.2148 0.39026 0.0
C438 C 0.39172 0.15706 0.39956 0.0
C439 C 0.38526 0.05639 0.40956 0.0
C440 C 0.92453 0.53969 0.88133 0.0
C441 C 0.91376 0.56772 0.91668 0.0
C442 C 0.93089 0.43976 0.87269 0.0
C443 C 0.92683 0.36408 0.89912 0.0
H444 H 0.92737 0.59493 0.85983 0.0
H445 H 0.9382 0.42111 0.84483 0.0
S446 S 0.90411 0.39979 0.99749 0.0
N447 N 0.90249 0.51286 0.97939 0.0
N448 N 0.91488 0.32516 0.96341 0.0
C449 C 0.91749 0.3915 0.93511 0.0
C450 C 0.91083 0.49323 0.94382 0.0
C451 C 0.54582 0.61637 0.90381 0.0
C452 C 0.56917 0.68464 0.89609 0.0
C453 C 0.55247 0.51733 0.91391 0.0
C454 C 0.58266 0.48309 0.91647 0.0
H455 H 0.52237 0.64028 0.90278 0.0
H456 H 0.53387 0.46733 0.92005 0.0
S457 S 0.65166 0.63007 0.89444 0.0
N458 N 0.62338 0.70952 0.88887 0.0
N459 N 0.63587 0.52394 0.90727 0.0
C460 C 0.60609 0.55027 0.90779 0.0
C461 C 0.59934 0.65079 0.89769 0.0
C462 C 0.94073 0.99389 0.6164 0.0
C463 C 0.9105 0.96387 0.60977 0.0
C464 C 0.94795 0.09335 0.62529 0.0
C465 C 0.9253 0.16693 0.62723 0.0
H466 H 0.959 0.94 0.61487 0.0
H467 H 0.97139 0.11311 0.63053 0.0
S468 S 0.84262 0.12804 0.61516 0.0
N469 N 0.85764 1.01669 0.60812 0.0
N470 N 0.87146 0.20319 0.62356 0.0
C471 C 0.8951 0.13849 0.62061 0.0
C472 C 0.88764 0.03723 0.61211 0.0
C473 C 0.60057 0.90355 0.63408 0.0
C474 C 0.57046 0.86859 0.63441 0.0
C475 C 0.60736 1.0026 0.62478 0.0
C476 C 0.5843 0.07073 0.61547 0.0
H477 H 0.61903 0.85399 0.64143 0.0
H478 H 0.6308 0.02655 0.62554 0.0
S479 S 0.50205 1.01507 0.60901 0.0
N480 N 0.51754 0.90882 0.62247 0.0
N481 N 0.53032 0.09518 0.60521 0.0
C482 C 0.55413 0.03667 0.61527 0.0
C483 C 0.54719 0.93564 0.6247 0.0
loop_
_geom_bond_atom_site_label_1
_geom_bond_atom_site_label_2
_geom_bond_distance
_geom_bond_site_symmetry_2
_ccdc_geom_bond_type
C0 C1 1.351 . S
C0 N3 1.368 . S
C0 H5 0.931 . S
C1 C0 1.351 . S
C1 N2 1.373 . S
C1 H29 0.930 . S
N2 C1 1.373 . S
N2 C4 1.340 . S
N3 C0 1.368 . S
N3 C4 1.321 . S
N3 Co6 2.135 . S
C4 N2 1.340 . S
C4 N3 1.321 . S
C4 H28 0.930 . S
H5 C0 0.931 . S
Co6 N3 2.135 . S
Co6 N9 2.121 1_545 S
Co6 O14 2.055 . S
Co6 O17 2.039 . S
Co6 N20 2.140 . S
C7 O8 1.227 . S
C7 O17 1.265 . S
O8 C7 1.227 . S
N9 Co6 2.121 1_565 S
N9 C11 1.375 . S
N9 C12 1.313 . S
C10 C11 1.338 . S
C10 N13 1.377 . S
C10 H30 0.930 . S
C11 N9 1.375 . S
C11 C10 1.338 . S
C11 H15 0.931 . S
C12 N9 1.313 . S
C12 N13 1.344 . S
C12 H16 0.930 . S
N13 C10 1.377 . S
N13 C12 1.344 . S
O14 Co6 2.055 . S
O14 C18 1.253 . S
H15 C11 0.931 . S
H16 C12 0.930 . S
O17 Co6 2.039 . S
O17 C7 1.265 . S
C18 O14 1.253 . S
C18 O19 1.227 . S
O19 C18 1.227 . S
N20 Co6 2.140 . S
N20 C23 1.346 . S
N20 C24 1.345 . S
C21 C22 1.387 . S
C21 C25 1.391 1_545 S
C22 C21 1.387 . S
C22 C23 1.369 . S
C22 H31 0.929 . S
C23 N20 1.346 . S
C23 C22 1.369 . S
C23 H26 0.928 . S
C24 N20 1.345 . S
C24 C25 1.371 1_545 S
C24 H27 0.931 1_545 S
C25 C21 1.391 1_565 S
C25 C24 1.371 1_565 S
C25 H32 0.930 . S
H26 C23 0.928 . S
H27 C24 0.931 1_565 S
H28 C4 0.930 . S
H29 C1 0.930 . S
H30 C10 0.930 . S
H31 C22 0.929 . S
H32 C25 0.930 . S
C33 C34 1.351 . S
C33 N36 1.368 . S
C33 H38 0.931 . S
C34 C33 1.351 . S
C34 N35 1.373 . S
C34 H62 0.930 . S
N35 C34 1.373 . S
N35 C37 1.340 . S
N36 C33 1.368 . S
N36 C37 1.321 . S
N36 Co39 2.135 . S
C37 N35 1.340 . S
C37 N36 1.321 . S
C37 H61 0.930 . S
H38 C33 0.931 . S
Co39 N36 2.135 . S
Co39 N42 2.121 1_565 S
Co39 O47 2.055 . S
Co39 O50 2.039 . S
Co39 N53 2.140 . S
C40 O41 1.227 . S
C40 O50 1.265 . S
O41 C40 1.227 . S
N42 Co39 2.121 1_545 S
N42 C44 1.375 . S
N42 C45 1.313 . S
C43 C44 1.338 . S
C43 N46 1.377 . S
C43 H63 0.930 . S
C44 N42 1.375 . S
C44 C43 1.338 . S
C44 H48 0.931 . S
C45 N42 1.313 . S
C45 N46 1.344 . S
C45 H49 0.930 . S
N46 C43 1.377 . S
N46 C45 1.344 . S
O47 Co39 2.055 . S
O47 C51 1.253 . S
H48 C44 0.931 . S
H49 C45 0.930 . S
O50 Co39 2.039 . S
O50 C40 1.265 . S
C51 O47 1.253 . S
C51 O52 1.227 . S
O52 C51 1.227 . S
N53 Co39 2.140 . S
N53 C56 1.346 . S
N53 C57 1.345 . S
C54 C55 1.387 . S
C54 C58 1.391 1_565 S
C55 C54 1.387 . S
C55 C56 1.369 . S
C55 H64 0.929 . S
C56 N53 1.346 . S
C56 C55 1.369 . S
C56 H59 0.928 . S
C57 N53 1.345 . S
C57 C58 1.371 1_565 S
C57 H60 0.931 1_565 S
C58 C54 1.391 1_545 S
C58 C57 1.371 1_545 S
C58 H65 0.930 . S
H59 C56 0.928 . S
H60 C57 0.931 1_545 S
H61 C37 0.930 . S
H62 C34 0.930 . S
H63 C43 0.930 . S
H64 C55 0.929 . S
H65 C58 0.930 . S
C66 C67 1.351 . S
C66 N69 1.368 . S
C66 H71 0.931 . S
C67 C66 1.351 . S
C67 N68 1.373 . S
C67 H95 0.930 . S
N68 C67 1.373 . S
N68 C70 1.340 . S
N69 C66 1.368 . S
N69 C70 1.321 . S
N69 Co72 2.135 . S
C70 N68 1.340 . S
C70 N69 1.321 . S
C70 H94 0.930 . S
H71 C66 0.931 . S
Co72 N69 2.135 . S
Co72 N75 2.121 . S
Co72 O80 2.055 . S
Co72 O83 2.039 . S
Co72 N86 2.140 . S
C73 O74 1.227 . S
C73 O83 1.265 . S
O74 C73 1.227 . S
N75 Co72 2.121 . S
N75 C77 1.375 . S
N75 C78 1.313 . S
C76 C77 1.338 . S
C76 N79 1.377 . S
C76 H96 0.930 . S
C77 N75 1.375 . S
C77 C76 1.338 . S
C77 H81 0.931 . S
C78 N75 1.313 . S
C78 N79 1.344 . S
C78 H82 0.930 . S
N79 C76 1.377 . S
N79 C78 1.344 . S
O80 Co72 2.055 . S
O80 C84 1.253 . S
H81 C77 0.931 . S
H82 C78 0.930 . S
O83 Co72 2.039 . S
O83 C73 1.265 . S
C84 O80 1.253 . S
C84 O85 1.227 . S
O85 C84 1.227 . S
N86 Co72 2.140 . S
N86 C89 1.346 . S
N86 C90 1.345 . S
C87 C88 1.387 . S
C87 C91 1.391 . S
C88 C87 1.387 . S
C88 C89 1.369 . S
C88 H97 0.929 . S
C89 N86 1.346 . S
C89 C88 1.369 . S
C89 H92 0.928 . S
C90 N86 1.345 . S
C90 C91 1.371 . S
C90 H93 0.931 . S
C91 C87 1.391 . S
C91 C90 1.371 . S
C91 H98 0.930 . S
H92 C89 0.928 . S
H93 C90 0.931 . S
H94 C70 0.930 . S
H95 C67 0.930 . S
H96 C76 0.930 . S
H97 C88 0.929 . S
H98 C91 0.930 . S
C99 C100 1.351 . S
C99 N102 1.368 . S
C99 H104 0.931 . S
C100 C99 1.351 . S
C100 N101 1.373 . S
C100 H128 0.930 . S
N101 C100 1.373 . S
N101 C103 1.340 . S
N102 C99 1.368 . S
N102 C103 1.321 . S
N102 Co105 2.135 . S
C103 N101 1.340 . S
C103 N102 1.321 . S
C103 H127 0.930 . S
H104 C99 0.931 . S
Co105 N102 2.135 . S
Co105 N108 2.121 . S
Co105 O113 2.055 . S
Co105 O116 2.039 . S
Co105 N119 2.140 . S
C106 O107 1.227 . S
C106 O116 1.265 . S
O107 C106 1.227 . S
N108 Co105 2.121 . S
N108 C110 1.375 . S
N108 C111 1.313 . S
C109 C110 1.338 . S
C109 N112 1.377 . S
C109 H129 0.930 . S
C110 N108 1.375 . S
C110 C109 1.338 . S
C110 H114 0.931 . S
C111 N108 1.313 . S
C111 N112 1.344 . S
C111 H115 0.930 . S
N112 C109 1.377 . S
N112 C111 1.344 . S
O113 Co105 2.055 . S
O113 C117 1.253 . S
H114 C110 0.931 . S
H115 C111 0.930 . S
O116 Co105 2.039 . S
O116 C106 1.265 . S
C117 O113 1.253 . S
C117 O118 1.227 . S
O118 C117 1.227 . S
N119 Co105 2.140 . S
N119 C122 1.346 . S
N119 C123 1.345 . S
C120 C121 1.387 . S
C120 C124 1.391 . S
C121 C120 1.387 . S
C121 C122 1.369 . S
C121 H130 0.929 . S
C122 N119 1.346 . S
C122 C121 1.369 . S
C122 H125 0.928 . S
C123 N119 1.345 . S
C123 C124 1.371 . S
C123 H126 0.931 . S
C124 C120 1.391 . S
C124 C123 1.371 . S
C124 H131 0.930 . S
H125 C122 0.928 . S
H126 C123 0.931 . S
H127 C103 0.930 . S
H128 C100 0.930 . S
H129 C109 0.930 . S
H130 C121 0.929 . S
H131 C124 0.930 . S
C132 C133 1.351 . S
C132 N135 1.368 . S
C132 H137 0.931 . S
C133 C132 1.351 . S
C133 N134 1.373 . S
C133 H161 0.930 . S
N134 C133 1.373 . S
N134 C136 1.340 . S
N135 C132 1.368 . S
N135 C136 1.321 . S
N135 Co138 2.135 . S
C136 N134 1.340 . S
C136 N135 1.321 . S
C136 H160 0.930 . S
H137 C132 0.931 . S
Co138 N135 2.135 . S
Co138 N141 2.121 1_565 S
Co138 O146 2.055 . S
Co138 O149 2.039 . S
Co138 N152 2.140 . S
C139 O140 1.227 . S
C139 O149 1.265 . S
O140 C139 1.227 . S
N141 Co138 2.121 1_545 S
N141 C143 1.375 . S
N141 C144 1.313 . S
C142 C143 1.338 . S
C142 N145 1.377 . S
C142 H162 0.930 . S
C143 N141 1.375 . S
C143 C142 1.338 . S
C143 H147 0.931 . S
C144 N141 1.313 . S
C144 N145 1.344 . S
C144 H148 0.930 . S
N145 C142 1.377 . S
N145 C144 1.344 . S
O146 Co138 2.055 . S
O146 C150 1.253 . S
H147 C143 0.931 . S
H148 C144 0.930 . S
O149 Co138 2.039 . S
O149 C139 1.265 . S
C150 O146 1.253 . S
C150 O151 1.227 . S
O151 C150 1.227 . S
N152 Co138 2.140 . S
N152 C155 1.346 . S
N152 C156 1.345 . S
C153 C154 1.387 . S
C153 C157 1.391 1_565 S
C154 C153 1.387 . S
C154 C155 1.369 . S
C154 H163 0.929 . S
C155 N152 1.346 . S
C155 C154 1.369 . S
C155 H158 0.928 . S
C156 N152 1.345 . S
C156 C157 1.371 1_565 S
C156 H159 0.931 1_565 S
C157 C153 1.391 1_545 S
C157 C156 1.371 1_545 S
C157 H164 0.930 . S
H158 C155 0.928 . S
H159 C156 0.931 1_545 S
H160 C136 0.930 . S
H161 C133 0.930 . S
H162 C142 0.930 . S
H163 C154 0.929 . S
H164 C157 0.930 . S
C165 C166 1.351 . S
C165 N168 1.368 . S
C165 H170 0.931 . S
C166 C165 1.351 . S
C166 N167 1.373 . S
C166 H194 0.930 . S
N167 C166 1.373 . S
N167 C169 1.340 . S
N168 C165 1.368 . S
N168 C169 1.321 . S
N168 Co171 2.135 . S
C169 N167 1.340 . S
C169 N168 1.321 . S
C169 H193 0.930 . S
H170 C165 0.931 . S
Co171 N168 2.135 . S
Co171 N174 2.121 1_545 S
Co171 O179 2.055 . S
Co171 O182 2.039 . S
Co171 N185 2.140 . S
C172 O173 1.227 . S
C172 O182 1.265 . S
O173 C172 1.227 . S
N174 Co171 2.121 1_565 S
N174 C176 1.375 . S
N174 C177 1.313 . S
C175 C176 1.338 . S
C175 N178 1.377 . S
C175 H195 0.930 . S
C176 N174 1.375 . S
C176 C175 1.338 . S
C176 H180 0.931 . S
C177 N174 1.313 . S
C177 N178 1.344 . S
C177 H181 0.930 . S
N178 C175 1.377 . S
N178 C177 1.344 . S
O179 Co171 2.055 . S
O179 C183 1.253 . S
H180 C176 0.931 . S
H181 C177 0.930 . S
O182 Co171 2.039 . S
O182 C172 1.265 . S
C183 O179 1.253 . S
C183 O184 1.227 . S
O184 C183 1.227 . S
N185 Co171 2.140 . S
N185 C188 1.346 . S
N185 C189 1.345 . S
C186 C187 1.387 . S
C186 C190 1.391 1_545 S
C187 C186 1.387 . S
C187 C188 1.369 . S
C187 H196 0.929 . S
C188 N185 1.346 . S
C188 C187 1.369 . S
C188 H191 0.928 . S
C189 N185 1.345 . S
C189 C190 1.371 1_545 S
C189 H192 0.931 1_545 S
C190 C186 1.391 1_565 S
C190 C189 1.371 1_565 S
C190 H197 0.930 . S
H191 C188 0.928 . S
H192 C189 0.931 1_565 S
H193 C169 0.930 . S
H194 C166 0.930 . S
H195 C175 0.930 . S
H196 C187 0.929 . S
H197 C190 0.930 . S
C198 C199 1.351 . S
C198 N201 1.368 . S
C198 H203 0.931 . S
C199 C198 1.351 . S
C199 N200 1.373 . S
C199 H227 0.930 . S
N200 C199 1.373 . S
N200 C202 1.340 . S
N201 C198 1.368 . S
N201 C202 1.321 . S
N201 Co204 2.135 . S
C202 N200 1.340 . S
C202 N201 1.321 . S
C202 H226 0.930 . S
H203 C198 0.931 . S
Co204 N201 2.135 . S
Co204 N207 2.121 . S
Co204 O212 2.055 . S
Co204 O215 2.039 . S
Co204 N218 2.140 . S
C205 O206 1.227 . S
C205 O215 1.265 . S
O206 C205 1.227 . S
N207 Co204 2.121 . S
N207 C209 1.375 . S
N207 C210 1.313 . S
C208 C209 1.338 . S
C208 N211 1.377 . S
C208 H228 0.930 . S
C209 N207 1.375 . S
C209 C208 1.338 . S
C209 H213 0.931 . S
C210 N207 1.313 . S
C210 N211 1.344 . S
C210 H214 0.930 . S
N211 C208 1.377 . S
N211 C210 1.344 . S
O212 Co204 2.055 . S
O212 C216 1.253 . S
H213 C209 0.931 . S
H214 C210 0.930 . S
O215 Co204 2.039 . S
O215 C205 1.265 . S
C216 O212 1.253 . S
C216 O217 1.227 . S
O217 C216 1.227 . S
N218 Co204 2.140 . S
N218 C221 1.346 . S
N218 C222 1.345 . S
C219 C220 1.387 . S
C219 C223 1.391 . S
C220 C219 1.387 . S
C220 C221 1.369 . S
C220 H229 0.929 . S
C221 N218 1.346 . S
C221 C220 1.369 . S
C221 H224 0.928 . S
C222 N218 1.345 . S
C222 C223 1.371 . S
C222 H225 0.931 . S
C223 C219 1.391 . S
C223 C222 1.371 . S
C223 H230 0.930 . S
H224 C221 0.928 . S
H225 C222 0.931 . S
H226 C202 0.930 . S
H227 C199 0.930 . S
H228 C208 0.930 . S
H229 C220 0.929 . S
H230 C223 0.930 . S
C231 C232 1.351 . S
C231 N234 1.368 . S
C231 H236 0.931 . S
C232 C231 1.351 . S
C232 N233 1.373 . S
C232 H260 0.930 . S
N233 C232 1.373 . S
N233 C235 1.340 . S
N234 C231 1.368 . S
N234 C235 1.321 . S
N234 Co237 2.135 . S
C235 N233 1.340 . S
C235 N234 1.321 . S
C235 H259 0.930 . S
H236 C231 0.931 . S
Co237 N234 2.135 . S
Co237 N240 2.121 . S
Co237 O245 2.055 . S
Co237 O248 2.039 . S
Co237 N251 2.140 . S
C238 O239 1.227 . S
C238 O248 1.265 . S
O239 C238 1.227 . S
N240 Co237 2.121 . S
N240 C242 1.375 . S
N240 C243 1.313 . S
C241 C242 1.338 . S
C241 N244 1.377 . S
C241 H261 0.930 . S
C242 N240 1.375 . S
C242 C241 1.338 . S
C242 H246 0.931 . S
C243 N240 1.313 . S
C243 N244 1.344 . S
C243 H247 0.930 . S
N244 C241 1.377 . S
N244 C243 1.344 . S
O245 Co237 2.055 . S
O245 C249 1.253 . S
H246 C242 0.931 . S
H247 C243 0.930 . S
O248 Co237 2.039 . S
O248 C238 1.265 . S
C249 O245 1.253 . S
C249 O250 1.227 . S
O250 C249 1.227 . S
N251 Co237 2.140 . S
N251 C254 1.346 . S
N251 C255 1.345 . S
C252 C253 1.387 . S
C252 C256 1.391 . S
C253 C252 1.387 . S
C253 C254 1.369 . S
C253 H262 0.929 . S
C254 N251 1.346 . S
C254 C253 1.369 . S
C254 H257 0.928 . S
C255 N251 1.345 . S
C255 C256 1.371 . S
C255 H258 0.931 . S
C256 C252 1.391 . S
C256 C255 1.371 . S
C256 H263 0.930 . S
H257 C254 0.928 . S
H258 C255 0.931 . S
H259 C235 0.930 . S
H260 C232 0.930 . S
H261 C241 0.930 . S
H262 C253 0.929 . S
H263 C256 0.930 . S
C264 C265 1.369 1_565 S
C264 C266 1.419 . S
C264 H268 0.930 . S
C265 C264 1.369 1_545 S
C265 C274 1.429 . S
C266 C264 1.419 . S
C266 C267 1.363 . S
C266 H269 0.929 . S
C267 C266 1.363 . S
C267 C273 1.428 1_565 S
H268 C264 0.930 . S
H269 C266 0.929 . S
S270 N271 1.613 . S
S270 N272 1.610 . S
N271 S270 1.613 . S
N271 C274 1.350 . S
N272 S270 1.610 . S
N272 C273 1.351 . S
C273 C267 1.428 1_545 S
C273 N272 1.351 . S
C273 C274 1.434 . S
C274 C265 1.429 . S
C274 N271 1.350 . S
C274 C273 1.434 . S
C275 C276 1.369 . S
C275 C277 1.419 . S
C275 H279 0.930 . S
C276 C275 1.369 . S
C276 C285 1.429 . S
C277 C275 1.419 . S
C277 C278 1.363 . S
C277 H280 0.929 . S
C278 C277 1.363 . S
C278 C284 1.428 . S
H279 C275 0.930 . S
H280 C277 0.929 . S
S281 N282 1.613 . S
S281 N283 1.610 . S
N282 S281 1.613 . S
N282 C285 1.350 . S
N283 S281 1.610 . S
N283 C284 1.351 . S
C284 C278 1.428 . S
C284 N283 1.351 . S
C284 C285 1.434 . S
C285 C276 1.429 . S
C285 N282 1.350 . S
C285 C284 1.434 . S
C286 C287 1.369 . S
C286 C288 1.419 . S
C286 H290 0.930 . S
C287 C286 1.369 . S
C287 C296 1.429 1_565 S
C288 C286 1.419 . S
C288 C289 1.363 1_565 S
C288 H291 0.929 . S
C289 C288 1.363 1_545 S
C289 C295 1.428 . S
H290 C286 0.930 . S
H291 C288 0.929 . S
S292 N293 1.613 . S
S292 N294 1.610 . S
N293 S292 1.613 . S
N293 C296 1.350 . S
N294 S292 1.610 . S
N294 C295 1.351 . S
C295 C289 1.428 . S
C295 N294 1.351 . S
C295 C296 1.434 . S
C296 C287 1.429 1_545 S
C296 N293 1.350 . S
C296 C295 1.434 . S
C297 C298 1.369 . S
C297 C299 1.419 . S
C297 H301 0.930 . S
C298 C297 1.369 . S
C298 C307 1.429 . S
C299 C297 1.419 . S
C299 C300 1.363 . S
C299 H302 0.929 . S
C300 C299 1.363 . S
C300 C306 1.428 . S
H301 C297 0.930 . S
H302 C299 0.929 . S
S303 N304 1.613 . S
S303 N305 1.610 . S
N304 S303 1.613 . S
N304 C307 1.350 . S
N305 S303 1.610 . S
N305 C306 1.351 . S
C306 C300 1.428 . S
C306 N305 1.351 . S
C306 C307 1.434 . S
C307 C298 1.429 . S
C307 N304 1.350 . S
C307 C306 1.434 . S
C308 C309 1.369 1_565 S
C308 C310 1.419 1_454 S
C308 H312 0.930 . S
C309 C308 1.369 1_545 S
C309 C318 1.429 . S
C310 C308 1.419 1_656 S
C310 C311 1.363 . S
C310 H313 0.929 . S
C311 C310 1.363 . S
C311 C317 1.428 1_565 S
H312 C308 0.930 . S
H313 C310 0.929 . S
S314 N315 1.613 1_656 S
S314 N316 1.610 . S
N315 S314 1.613 1_454 S
N315 C318 1.350 . S
N316 S314 1.610 . S
N316 C317 1.351 . S
C317 C311 1.428 1_545 S
C317 N316 1.351 . S
C317 C318 1.434 1_656 S
C318 C309 1.429 . S
C318 N315 1.350 . S
C318 C317 1.434 1_454 S
C319 C320 1.369 . S
C319 C321 1.419 . S
C319 H323 0.930 . S
C320 C319 1.369 . S
C320 C329 1.429 1_564 S
C321 C319 1.419 . S
C321 C322 1.363 1_564 S
C321 H324 0.929 . S
C322 C321 1.363 1_546 S
C322 C328 1.428 . S
H323 C319 0.930 . S
H324 C321 0.929 . S
S325 N326 1.613 . S
S325 N327 1.610 . S
N326 S325 1.613 . S
N326 C329 1.350 . S
N327 S325 1.610 . S
N327 C328 1.351 . S
C328 C322 1.428 . S
C328 N327 1.351 . S
C328 C329 1.434 . S
C329 C320 1.429 1_546 S
C329 N326 1.350 . S
C329 C328 1.434 . S
C330 C331 1.369 . S
C330 C332 1.429 . S
C330 H334 0.930 . S
C331 C330 1.369 . S
C331 C340 1.429 1_455 S
C332 C330 1.429 . S
C332 C333 1.352 1_455 S
C332 H335 0.930 . S
C333 C332 1.352 1_655 S
C333 C339 1.428 . S
H334 C330 0.930 . S
H335 C332 0.930 . S
S336 N337 1.613 . S
S336 N338 1.610 . S
N337 S336 1.613 . S
N337 C340 1.350 . S
N338 S336 1.610 . S
N338 C339 1.351 . S
C339 C333 1.428 . S
C339 N338 1.351 . S
C339 C340 1.434 . S
C340 C331 1.429 1_655 S
C340 N337 1.350 . S
C340 C339 1.434 . S
C341 C342 1.369 . S
C341 C343 1.419 . S
C341 H345 0.930 . S
C342 C341 1.369 . S
C342 C351 1.429 . S
C343 C341 1.419 . S
C343 C344 1.363 . S
C343 H346 0.929 . S
C344 C343 1.363 . S
C344 C350 1.428 . S
H345 C341 0.930 . S
H346 C343 0.929 . S
S347 N348 1.613 . S
S347 N349 1.610 . S
N348 S347 1.613 . S
N348 C351 1.350 . S
N349 S347 1.610 . S
N349 C350 1.351 . S
C350 C344 1.428 . S
C350 N349 1.351 . S
C350 C351 1.434 . S
C351 C342 1.429 . S
C351 N348 1.350 . S
C351 C350 1.434 . S
C352 C353 1.369 . S
C352 C354 1.419 . S
C352 H356 0.930 . S
C353 C352 1.369 . S
C353 C362 1.429 . S
C354 C352 1.419 . S
C354 C355 1.363 . S
C354 H357 0.929 . S
C355 C354 1.363 . S
C355 C361 1.428 . S
H356 C352 0.930 . S
H357 C354 0.929 . S
S358 N359 1.613 . S
S358 N360 1.610 . S
N359 S358 1.613 . S
N359 C362 1.350 . S
N360 S358 1.610 . S
N360 C361 1.351 . S
C361 C355 1.428 . S
C361 N360 1.351 . S
C361 C362 1.434 . S
C362 C353 1.429 . S
C362 N359 1.350 . S
C362 C361 1.434 . S
C363 C364 1.369 . S
C363 C365 1.419 . S
C363 H367 0.930 . S
C364 C363 1.369 . S
C364 C373 1.429 . S
C365 C363 1.419 . S
C365 C366 1.363 . S
C365 H368 0.929 . S
C366 C365 1.363 . S
C366 C372 1.428 . S
H367 C363 0.930 . S
H368 C365 0.929 . S
S369 N370 1.613 . S
S369 N371 1.610 . S
N370 S369 1.613 . S
N370 C373 1.350 . S
N371 S369 1.610 . S
N371 C372 1.351 . S
C372 C366 1.428 . S
C372 N371 1.351 . S
C372 C373 1.434 . S
C373 C364 1.429 . S
C373 N370 1.350 . S
C373 C372 1.434 . S
C374 C375 1.369 . S
C374 C376 1.419 . S
C374 H378 0.930 . S
C375 C374 1.369 . S
C375 C384 1.429 . S
C376 C374 1.419 . S
C376 C377 1.363 . S
C376 H379 0.929 . S
C377 C376 1.363 . S
C377 C383 1.428 . S
H378 C374 0.930 . S
H379 C376 0.929 . S
S380 N381 1.613 . S
S380 N382 1.610 . S
N381 S380 1.613 . S
N381 C384 1.350 . S
N382 S380 1.610 . S
N382 C383 1.351 . S
C383 C377 1.428 . S
C383 N382 1.351 . S
C383 C384 1.434 . S
C384 C375 1.429 . S
C384 N381 1.350 . S
C384 C383 1.434 . S
C385 C386 1.369 . S
C385 C387 1.419 . S
C385 H389 0.930 . S
C386 C385 1.369 . S
C386 C395 1.429 . S
C387 C385 1.419 . S
C387 C388 1.363 . S
C387 H390 0.929 . S
C388 C387 1.363 . S
C388 C394 1.428 . S
H389 C385 0.930 . S
H390 C387 0.929 . S
S391 N392 1.613 . S
S391 N393 1.610 . S
N392 S391 1.613 . S
N392 C395 1.350 . S
N393 S391 1.610 . S
N393 C394 1.351 . S
C394 C388 1.428 . S
C394 N393 1.351 . S
C394 C395 1.434 . S
C395 C386 1.429 . S
C395 N392 1.350 . S
C395 C394 1.434 . S
C396 C397 1.369 . S
C396 C398 1.419 . S
C396 H400 0.930 . S
C397 C396 1.369 . S
C397 C406 1.429 . S
C398 C396 1.419 . S
C398 C399 1.363 . S
C398 H401 0.929 . S
C399 C398 1.363 . S
C399 C405 1.428 . S
H400 C396 0.930 . S
H401 C398 0.929 . S
S402 N403 1.613 . S
S402 N404 1.610 . S
N403 S402 1.613 . S
N403 C406 1.350 . S
N404 S402 1.610 . S
N404 C405 1.351 . S
C405 C399 1.428 . S
C405 N404 1.351 . S
C405 C406 1.434 . S
C406 C397 1.429 . S
C406 N403 1.350 . S
C406 C405 1.434 . S
C407 C408 1.369 . S
C407 C409 1.419 . S
C407 H411 0.930 . S
C408 C407 1.369 . S
C408 C417 1.429 . S
C409 C407 1.419 . S
C409 C410 1.363 . S
C409 H412 0.929 . S
C410 C409 1.363 . S
C410 C416 1.428 . S
H411 C407 0.930 . S
H412 C409 0.929 . S
S413 N414 1.613 . S
S413 N415 1.610 . S
N414 S413 1.613 . S
N414 C417 1.350 . S
N415 S413 1.610 . S
N415 C416 1.351 . S
C416 C410 1.428 . S
C416 N415 1.351 . S
C416 C417 1.434 . S
C417 C408 1.429 . S
C417 N414 1.350 . S
C417 C416 1.434 . S
C418 C419 1.369 1_565 S
C418 C420 1.419 . S
C418 H422 0.930 1_565 S
C419 C418 1.369 1_545 S
C419 C428 1.429 1_545 S
C420 C418 1.419 . S
C420 C421 1.363 . S
C420 H423 0.929 . S
C421 C420 1.363 . S
C421 C427 1.428 . S
H422 C418 0.930 1_545 S
H423 C420 0.929 . S
S424 N425 1.613 . S
S424 N426 1.610 . S
N425 S424 1.613 . S
N425 C428 1.350 . S
N426 S424 1.610 . S
N426 C427 1.351 . S
C427 C421 1.428 . S
C427 N426 1.351 . S
C427 C428 1.434 . S
C428 C419 1.429 1_565 S
C428 N425 1.350 . S
C428 C427 1.434 . S
C429 C430 1.369 1_545 S
C429 C431 1.419 . S
C429 H433 0.930 1_545 S
C430 C429 1.369 1_565 S
C430 C439 1.429 1_565 S
C431 C429 1.419 . S
C431 C432 1.363 . S
C431 H434 0.929 . S
C432 C431 1.363 . S
C432 C438 1.428 . S
H433 C429 0.930 1_565 S
H434 C431 0.929 . S
S435 N436 1.613 . S
S435 N437 1.610 . S
N436 S435 1.613 . S
N436 C439 1.350 . S
N437 S435 1.610 . S
N437 C438 1.351 . S
C438 C432 1.428 . S
C438 N437 1.351 . S
C438 C439 1.434 . S
C439 C430 1.429 1_545 S
C439 N436 1.350 . S
C439 C438 1.434 . S
C440 C441 1.369 . S
C440 C442 1.419 . S
C440 H444 0.930 . S
C441 C440 1.369 . S
C441 C450 1.429 . S
C442 C440 1.419 . S
C442 C443 1.363 . S
C442 H445 0.929 . S
C443 C442 1.363 . S
C443 C449 1.428 . S
H444 C440 0.930 . S
H445 C442 0.929 . S
S446 N447 1.613 . S
S446 N448 1.610 . S
N447 S446 1.613 . S
N447 C450 1.350 . S
N448 S446 1.610 . S
N448 C449 1.351 . S
C449 C443 1.428 . S
C449 N448 1.351 . S
C449 C450 1.434 . S
C450 C441 1.429 . S
C450 N447 1.350 . S
C450 C449 1.434 . S
C451 C452 1.369 . S
C451 C453 1.419 . S
C451 H455 0.930 . S
C452 C451 1.369 . S
C452 C461 1.429 . S
C453 C451 1.419 . S
C453 C454 1.363 . S
C453 H456 0.929 . S
C454 C453 1.363 . S
C454 C460 1.428 . S
H455 C451 0.930 . S
H456 C453 0.929 . S
S457 N458 1.613 . S
S457 N459 1.610 . S
N458 S457 1.613 . S
N458 C461 1.350 . S
N459 S457 1.610 . S
N459 C460 1.351 . S
C460 C454 1.428 . S
C460 N459 1.351 . S
C460 C461 1.434 . S
C461 C452 1.429 . S
C461 N458 1.350 . S
C461 C460 1.434 . S
C462 C463 1.369 1_545 S
C462 C464 1.419 . S
C462 H466 0.930 1_545 S
C463 C462 1.369 1_565 S
C463 C472 1.429 1_565 S
C464 C462 1.419 . S
C464 C465 1.363 . S
C464 H467 0.929 . S
C465 C464 1.363 . S
C465 C471 1.428 . S
H466 C462 0.930 1_565 S
H467 C464 0.929 . S
S468 N469 1.613 . S
S468 N470 1.610 . S
N469 S468 1.613 . S
N469 C472 1.350 . S
N470 S468 1.610 . S
N470 C471 1.351 . S
C471 C465 1.428 . S
C471 N470 1.351 . S
C471 C472 1.434 . S
C472 C463 1.429 1_545 S
C472 N469 1.350 . S
C472 C471 1.434 . S
C473 C474 1.369 . S
C473 C475 1.419 . S
C473 H477 0.930 . S
C474 C473 1.369 . S
C474 C483 1.429 . S
C475 C473 1.419 . S
C475 C476 1.363 1_565 S
C475 H478 0.929 . S
C476 C475 1.363 1_545 S
C476 C482 1.428 1_545 S
H477 C473 0.930 . S
H478 C475 0.929 . S
S479 N480 1.613 . S
S479 N481 1.610 1_565 S
N480 S479 1.613 . S
N480 C483 1.350 . S
N481 S479 1.610 1_545 S
N481 C482 1.351 1_545 S
C482 C476 1.428 1_565 S
C482 N481 1.351 1_565 S
C482 C483 1.434 . S
C483 C474 1.429 . S
C483 N480 1.350 . S
C483 C482 1.434 . S
C265 C21 1.572 . S
C267 C54 1.570 . S
C276 C120 1.569 . S
C278 C87 1.568 . S
C287 C153 1.570 . S
C289 C186 1.571 . S
C298 C252 1.573 . S
C300 C219 1.569 . S
C309 C18 1.238 . S
C311 C150 1.236 . S
C320 C51 1.238 . S
C322 C183 1.237 . S
C331 C84 1.238 . S
C333 C216 1.236 . S
C342 C117 1.237 . S
C344 C249 1.237 . S
C353 C73 1.473 . S
C355 C7 1.480 . S
C364 C106 1.475 . S
C366 C40 1.474 . S
C375 C139 1.481 . S
C377 C205 1.475 . S
C386 C172 1.480 . S
C388 C238 1.479 . S
C397 N13 1.400 . S
C399 N2 1.394 . S
C408 N46 1.397 . S
C410 N35 1.397 . S
C419 N68 1.397 . S
C421 N79 1.397 . S
C430 N101 1.400 . S
C432 N112 1.395 . S
C441 N134 1.392 . S
C443 N145 1.400 . S
C452 N178 1.395 . S
C454 N167 1.398 . S
C463 N200 1.394 . S
C465 N211 1.399 . S
C474 N244 1.401 . S
C476 N233 1.394 . S
