# Generated by pormake.
# Topology ull, (4)-cn, num edge types: 1
# Building blocks:
#     Node 0, Type 0, BuildingBlock: ESEHIV_clean_sbu_0, # of connection points: 4
#     Node 1, Type 0, BuildingBlock: ESEHIV_clean_sbu_0, # of connection points: 4
#     Node 2, Type 0, BuildingBlock: ESEHIV_clean_sbu_0, # of connection points: 4
#     Node 3, Type 0, BuildingBlock: ESEHIV_clean_sbu_0, # of connection points: 4
#     Node 4, Type 0, BuildingBlock: ESEHIV_clean_sbu_0, # of connection points: 4
#     Node 5, Type 0, BuildingBlock: ESEHIV_clean_sbu_0, # of connection points: 4
#     Node 6, Type 0, BuildingBlock: ESEHIV_clean_sbu_0, # of connection points: 4
#     Node 7, Type 0, BuildingBlock: ESEHIV_clean_sbu_0, # of connection points: 4
#     Node 8, Type 0, BuildingBlock: ESEHIV_clean_sbu_0, # of connection points: 4
#     Node 9, Type 0, BuildingBlock: ESEHIV_clean_sbu_0, # of connection points: 4
#     Node 10, Type 0, BuildingBlock: ESEHIV_clean_sbu_0, # of connection points: 4
#     Node 11, Type 0, BuildingBlock: ESEHIV_clean_sbu_0, # of connection points: 4
#     Node 12, Type 0, BuildingBlock: ESEHIV_clean_sbu_0, # of connection points: 4
#     Node 13, Type 0, BuildingBlock: ESEHIV_clean_sbu_0, # of connection points: 4
#     Node 14, Type 0, BuildingBlock: ESEHIV_clean_sbu_0, # of connection points: 4
#     Node 15, Type 0, BuildingBlock: ESEHIV_clean_sbu_0, # of connection points: 4
#     Node 16, Type 0, BuildingBlock: ESEHIV_clean_sbu_0, # of connection points: 4
#     Node 17, Type 0, BuildingBlock: ESEHIV_clean_sbu_0, # of connection points: 4
#     Node 18, Type 0, BuildingBlock: ESEHIV_clean_sbu_0, # of connection points: 4
#     Node 19, Type 0, BuildingBlock: ESEHIV_clean_sbu_0, # of connection points: 4
#     Node 20, Type 0, BuildingBlock: ESEHIV_clean_sbu_0, # of connection points: 4
#     Node 21, Type 0, BuildingBlock: ESEHIV_clean_sbu_0, # of connection points: 4
#     Node 22, Type 0, BuildingBlock: ESEHIV_clean_sbu_0, # of connection points: 4
#     Node 23, Type 0, BuildingBlock: ESEHIV_clean_sbu_0, # of connection points: 4
#     Node 24, Type 0, BuildingBlock: ESEHIV_clean_sbu_0, # of connection points: 4
#     Node 25, Type 0, BuildingBlock: ESEHIV_clean_sbu_0, # of connection points: 4
#     Node 26, Type 0, BuildingBlock: ESEHIV_clean_sbu_0, # of connection points: 4
#     Node 27, Type 0, BuildingBlock: ESEHIV_clean_sbu_0, # of connection points: 4
#     Node 28, Type 0, BuildingBlock: ESEHIV_clean_sbu_0, # of connection points: 4
#     Node 29, Type 0, BuildingBlock: ESEHIV_clean_sbu_0, # of connection points: 4
#     Node 30, Type 0, BuildingBlock: ESEHIV_clean_sbu_0, # of connection points: 4
#     Node 31, Type 0, BuildingBlock: ESEHIV_clean_sbu_0, # of connection points: 4
#     Node 32, Type 0, BuildingBlock: ESEHIV_clean_sbu_0, # of connection points: 4
#     Node 33, Type 0, BuildingBlock: ESEHIV_clean_sbu_0, # of connection points: 4
#     Node 34, Type 0, BuildingBlock: ESEHIV_clean_sbu_0, # of connection points: 4
#     Node 35, Type 0, BuildingBlock: ESEHIV_clean_sbu_0, # of connection points: 4
#     Node 36, Type 0, BuildingBlock: ESEHIV_clean_sbu_0, # of connection points: 4
#     Node 37, Type 0, BuildingBlock: ESEHIV_clean_sbu_0, # of connection points: 4
#     Node 38, Type 0, BuildingBlock: ESEHIV_clean_sbu_0, # of connection points: 4
#     Node 39, Type 0, BuildingBlock: ESEHIV_clean_sbu_0, # of connection points: 4
#     Node 40, Type 0, BuildingBlock: ESEHIV_clean_sbu_0, # of connection points: 4
#     Node 41, Type 0, BuildingBlock: ESEHIV_clean_sbu_0, # of connection points: 4
#     Node 42, Type 0, BuildingBlock: ESEHIV_clean_sbu_0, # of connection points: 4
#     Node 43, Type 0, BuildingBlock: ESEHIV_clean_sbu_0, # of connection points: 4
#     Node 44, Type 0, BuildingBlock: ESEHIV_clean_sbu_0, # of connection points: 4
#     Node 45, Type 0, BuildingBlock: ESEHIV_clean_sbu_0, # of connection points: 4
#     Node 46, Type 0, BuildingBlock: ESEHIV_clean_sbu_0, # of connection points: 4
#     Node 47, Type 0, BuildingBlock: ESEHIV_clean_sbu_0, # of connection points: 4
#     Edge 48, Type (0, 0), BuildingBlock: AJUNOK_clean_linker_0, # of connection points: 2
#     Edge 49, Type (0, 0), BuildingBlock: AJUNOK_clean_linker_0, # of connection points: 2
#     Edge 50, Type (0, 0), BuildingBlock: AJUNOK_clean_linker_0, # of connection points: 2
#     Edge 51, Type (0, 0), BuildingBlock: AJUNOK_clean_linker_0, # of connection points: 2
#     Edge 52, Type (0, 0), BuildingBlock: AJUNOK_clean_linker_0, # of connection points: 2
#     Edge 53, Type (0, 0), BuildingBlock: AJUNOK_clean_linker_0, # of connection points: 2
#     Edge 54, Type (0, 0), BuildingBlock: AJUNOK_clean_linker_0, # of connection points: 2
#     Edge 55, Type (0, 0), BuildingBlock: AJUNOK_clean_linker_0, # of connection points: 2
#     Edge 56, Type (0, 0), BuildingBlock: AJUNOK_clean_linker_0, # of connection points: 2
#     Edge 57, Type (0, 0), BuildingBlock: AJUNOK_clean_linker_0, # of connection points: 2
#     Edge 58, Type (0, 0), BuildingBlock: AJUNOK_clean_linker_0, # of connection points: 2
#     Edge 59, Type (0, 0), BuildingBlock: AJUNOK_clean_linker_0, # of connection points: 2
#     Edge 60, Type (0, 0), BuildingBlock: AJUNOK_clean_linker_0, # of connection points: 2
#     Edge 61, Type (0, 0), BuildingBlock: AJUNOK_clean_linker_0, # of connection points: 2
#     Edge 62, Type (0, 0), BuildingBlock: AJUNOK_clean_linker_0, # of connection points: 2
#     Edge 63, Type (0, 0), BuildingBlock: AJUNOK_clean_linker_0, # of connection points: 2
#     Edge 64, Type (0, 0), BuildingBlock: AJUNOK_clean_linker_0, # of connection points: 2
#     Edge 65, Type (0, 0), BuildingBlock: AJUNOK_clean_linker_0, # of connection points: 2
#     Edge 66, Type (0, 0), BuildingBlock: AJUNOK_clean_linker_0, # of connection points: 2
#     Edge 67, Type (0, 0), BuildingBlock: AJUNOK_clean_linker_0, # of connection points: 2
#     Edge 68, Type (0, 0), BuildingBlock: AJUNOK_clean_linker_0, # of connection points: 2
#     Edge 69, Type (0, 0), BuildingBlock: AJUNOK_clean_linker_0, # of connection points: 2
#     Edge 70, Type (0, 0), BuildingBlock: AJUNOK_clean_linker_0, # of connection points: 2
#     Edge 71, Type (0, 0), BuildingBlock: AJUNOK_clean_linker_0, # of connection points: 2
#     Edge 72, Type (0, 0), BuildingBlock: AJUNOK_clean_linker_0, # of connection points: 2
#     Edge 73, Type (0, 0), BuildingBlock: AJUNOK_clean_linker_0, # of connection points: 2
#     Edge 74, Type (0, 0), BuildingBlock: AJUNOK_clean_linker_0, # of connection points: 2
#     Edge 75, Type (0, 0), BuildingBlock: AJUNOK_clean_linker_0, # of connection points: 2
#     Edge 76, Type (0, 0), BuildingBlock: AJUNOK_clean_linker_0, # of connection points: 2
#     Edge 77, Type (0, 0), BuildingBlock: AJUNOK_clean_linker_0, # of connection points: 2
#     Edge 78, Type (0, 0), BuildingBlock: AJUNOK_clean_linker_0, # of connection points: 2
#     Edge 79, Type (0, 0), BuildingBlock: AJUNOK_clean_linker_0, # of connection points: 2
#     Edge 80, Type (0, 0), BuildingBlock: AJUNOK_clean_linker_0, # of connection points: 2
#     Edge 81, Type (0, 0), BuildingBlock: AJUNOK_clean_linker_0, # of connection points: 2
#     Edge 82, Type (0, 0), BuildingBlock: AJUNOK_clean_linker_0, # of connection points: 2
#     Edge 83, Type (0, 0), BuildingBlock: AJUNOK_clean_linker_0, # of connection points: 2
#     Edge 84, Type (0, 0), BuildingBlock: AJUNOK_clean_linker_0, # of connection points: 2
#     Edge 85, Type (0, 0), BuildingBlock: AJUNOK_clean_linker_0, # of connection points: 2
#     Edge 86, Type (0, 0), BuildingBlock: AJUNOK_clean_linker_0, # of connection points: 2
#     Edge 87, Type (0, 0), BuildingBlock: AJUNOK_clean_linker_0, # of connection points: 2
#     Edge 88, Type (0, 0), BuildingBlock: AJUNOK_clean_linker_0, # of connection points: 2
#     Edge 89, Type (0, 0), BuildingBlock: AJUNOK_clean_linker_0, # of connection points: 2
#     Edge 90, Type (0, 0), BuildingBlock: AJUNOK_clean_linker_0, # of connection points: 2
#     Edge 91, Type (0, 0), BuildingBlock: AJUNOK_clean_linker_0, # of connection points: 2
#     Edge 92, Type (0, 0), BuildingBlock: AJUNOK_clean_linker_0, # of connection points: 2
#     Edge 93, Type (0, 0), BuildingBlock: AJUNOK_clean_linker_0, # of connection points: 2
#     Edge 94, Type (0, 0), BuildingBlock: AJUNOK_clean_linker_0, # of connection points: 2
#     Edge 95, Type (0, 0), BuildingBlock: AJUNOK_clean_linker_0, # of connection points: 2
#     Edge 96, Type (0, 0), BuildingBlock: AJUNOK_clean_linker_0, # of connection points: 2
#     Edge 97, Type (0, 0), BuildingBlock: AJUNOK_clean_linker_0, # of connection points: 2
#     Edge 98, Type (0, 0), BuildingBlock: AJUNOK_clean_linker_0, # of connection points: 2
#     Edge 99, Type (0, 0), BuildingBlock: AJUNOK_clean_linker_0, # of connection points: 2
#     Edge 100, Type (0, 0), BuildingBlock: AJUNOK_clean_linker_0, # of connection points: 2
#     Edge 101, Type (0, 0), BuildingBlock: AJUNOK_clean_linker_0, # of connection points: 2
#     Edge 102, Type (0, 0), BuildingBlock: AJUNOK_clean_linker_0, # of connection points: 2
#     Edge 103, Type (0, 0), BuildingBlock: AJUNOK_clean_linker_0, # of connection points: 2
#     Edge 104, Type (0, 0), BuildingBlock: AJUNOK_clean_linker_0, # of connection points: 2
#     Edge 105, Type (0, 0), BuildingBlock: AJUNOK_clean_linker_0, # of connection points: 2
#     Edge 106, Type (0, 0), BuildingBlock: AJUNOK_clean_linker_0, # of connection points: 2
#     Edge 107, Type (0, 0), BuildingBlock: AJUNOK_clean_linker_0, # of connection points: 2
#     Edge 108, Type (0, 0), BuildingBlock: AJUNOK_clean_linker_0, # of connection points: 2
#     Edge 109, Type (0, 0), BuildingBlock: AJUNOK_clean_linker_0, # of connection points: 2
#     Edge 110, Type (0, 0), BuildingBlock: AJUNOK_clean_linker_0, # of connection points: 2
#     Edge 111, Type (0, 0), BuildingBlock: AJUNOK_clean_linker_0, # of connection points: 2
#     Edge 112, Type (0, 0), BuildingBlock: AJUNOK_clean_linker_0, # of connection points: 2
#     Edge 113, Type (0, 0), BuildingBlock: AJUNOK_clean_linker_0, # of connection points: 2
#     Edge 114, Type (0, 0), BuildingBlock: AJUNOK_clean_linker_0, # of connection points: 2
#     Edge 115, Type (0, 0), BuildingBlock: AJUNOK_clean_linker_0, # of connection points: 2
#     Edge 116, Type (0, 0), BuildingBlock: AJUNOK_clean_linker_0, # of connection points: 2
#     Edge 117, Type (0, 0), BuildingBlock: AJUNOK_clean_linker_0, # of connection points: 2
#     Edge 118, Type (0, 0), BuildingBlock: AJUNOK_clean_linker_0, # of connection points: 2
#     Edge 119, Type (0, 0), BuildingBlock: AJUNOK_clean_linker_0, # of connection points: 2
#     Edge 120, Type (0, 0), BuildingBlock: AJUNOK_clean_linker_0, # of connection points: 2
#     Edge 121, Type (0, 0), BuildingBlock: AJUNOK_clean_linker_0, # of connection points: 2
#     Edge 122, Type (0, 0), BuildingBlock: AJUNOK_clean_linker_0, # of connection points: 2
#     Edge 123, Type (0, 0), BuildingBlock: AJUNOK_clean_linker_0, # of connection points: 2
#     Edge 124, Type (0, 0), BuildingBlock: AJUNOK_clean_linker_0, # of connection points: 2
#     Edge 125, Type (0, 0), BuildingBlock: AJUNOK_clean_linker_0, # of connection points: 2
#     Edge 126, Type (0, 0), BuildingBlock: AJUNOK_clean_linker_0, # of connection points: 2
#     Edge 127, Type (0, 0), BuildingBlock: AJUNOK_clean_linker_0, # of connection points: 2
#     Edge 128, Type (0, 0), BuildingBlock: AJUNOK_clean_linker_0, # of connection points: 2
#     Edge 129, Type (0, 0), BuildingBlock: AJUNOK_clean_linker_0, # of connection points: 2
#     Edge 130, Type (0, 0), BuildingBlock: AJUNOK_clean_linker_0, # of connection points: 2
#     Edge 131, Type (0, 0), BuildingBlock: AJUNOK_clean_linker_0, # of connection points: 2
#     Edge 132, Type (0, 0), BuildingBlock: AJUNOK_clean_linker_0, # of connection points: 2
#     Edge 133, Type (0, 0), BuildingBlock: AJUNOK_clean_linker_0, # of connection points: 2
#     Edge 134, Type (0, 0), BuildingBlock: AJUNOK_clean_linker_0, # of connection points: 2
#     Edge 135, Type (0, 0), BuildingBlock: AJUNOK_clean_linker_0, # of connection points: 2
#     Edge 136, Type (0, 0), BuildingBlock: AJUNOK_clean_linker_0, # of connection points: 2
#     Edge 137, Type (0, 0), BuildingBlock: AJUNOK_clean_linker_0, # of connection points: 2
#     Edge 138, Type (0, 0), BuildingBlock: AJUNOK_clean_linker_0, # of connection points: 2
#     Edge 139, Type (0, 0), BuildingBlock: AJUNOK_clean_linker_0, # of connection points: 2
#     Edge 140, Type (0, 0), BuildingBlock: AJUNOK_clean_linker_0, # of connection points: 2
#     Edge 141, Type (0, 0), BuildingBlock: AJUNOK_clean_linker_0, # of connection points: 2
#     Edge 142, Type (0, 0), BuildingBlock: AJUNOK_clean_linker_0, # of connection points: 2
#     Edge 143, Type (0, 0), BuildingBlock: AJUNOK_clean_linker_0, # of connection points: 2
# Relax obj value: 0.107
# Max RMSD: 0.291
# Mean RMSD: 0.271
data_MOF--net-ull--node1-ESEHIV_clean_sbu_0--edge1-AJUNOK_clean_linker_0
_symmetry_space_group_name_H-M    P1
_symmetry_Int_Tables_number       1
_symmetry_cell_setting            triclinic
loop_
_symmetry_equiv_pos_as_xyz
'x, y, z'
_cell_length_a     48.249548
_cell_length_b     50.759524
_cell_length_c     50.785503
_cell_angle_alpha  89.805636
_cell_angle_beta   90.178242
_cell_angle_gamma 90.029595
loop_
_atom_site_label
_atom_site_type_symbol
_atom_site_fract_x
_atom_site_fract_y
_atom_site_fract_z
_atom_type_partial_charge
Cu0 Cu 0.08669 0.37595 0.21345 0.0
N1 N 0.11311 0.36576 0.18858 0.0
N2 N 0.13514 0.36014 0.15049 0.0
C3 C 0.11367 0.37185 0.16275 0.0
C4 C 0.1487 0.34637 0.16922 0.0
C5 C 0.13488 0.34963 0.19266 0.0
O6 O 0.04985 0.37461 0.1965 0.0
C7 C 0.12311 0.415 0.23374 0.0
O8 O 0.14161 0.39816 0.22521 0.0
H9 H 0.09868 0.38454 0.15316 0.0
H10 H 0.1403 0.3408 0.21137 0.0
N11 N 0.08687 0.35115 0.24054 0.0
N12 N 0.07397 0.31915 0.26811 0.0
C13 C 0.06683 0.33381 0.24692 0.0
C14 C 0.10713 0.34757 0.25844 0.0
C15 C 0.09924 0.32785 0.27549 0.0
C16 C 0.04422 0.35538 0.18111 0.0
O17 O 0.06335 0.33753 0.17678 0.0
H18 H 0.04742 0.33203 0.23635 0.0
H19 H 0.12617 0.35878 0.25926 0.0
O20 O 0.09742 0.40995 0.22973 0.0
H21 H 0.16703 0.33452 0.16605 0.0
H22 H 0.11082 0.32104 0.29249 0.0
Cu23 Cu 0.71957 1.02468 0.20131 0.0
N24 N 0.71417 0.99199 0.18446 0.0
N25 N 0.71527 0.95845 0.15567 0.0
C26 C 0.71874 0.98477 0.15922 0.0
C27 C 0.70819 0.94901 0.17961 0.0
C28 C 0.70771 0.96956 0.19719 0.0
O29 O 0.72709 0.05306 0.17593 0.0
C30 C 0.77118 1.00471 0.2222 0.0
O31 O 0.77269 0.99195 0.19979 0.0
H32 H 0.72465 0.99852 0.14393 0.0
H33 H 0.70375 0.96816 0.2181 0.0
N34 N 0.68775 0.03368 0.22112 0.0
N35 N 0.65845 0.05483 0.24836 0.0
C36 C 0.68338 0.05541 0.23592 0.0
C37 C 0.66473 1.01902 0.22408 0.0
C38 C 0.64676 0.0319 0.24071 0.0
C39 C 0.71082 0.05853 0.1568 0.0
O40 O 0.68866 0.04388 0.15327 0.0
H41 H 0.6981 0.07143 0.23712 0.0
H42 H 0.66123 1.00013 0.2149 0.0
O43 O 0.75076 1.02027 0.22601 0.0
H44 H 0.70452 0.92849 0.18433 0.0
H45 H 0.62675 1.02465 0.24702 0.0
Cu46 Cu 0.98283 0.67483 0.19497 0.0
N47 N 0.95337 0.67972 0.17143 0.0
N48 N 0.92858 0.68154 0.13428 0.0
C49 C 0.95369 0.67667 0.14508 0.0
C50 C 0.91191 0.68792 0.15449 0.0
C51 C 0.92716 0.68659 0.17736 0.0
O52 O 1.01787 0.67451 0.17523 0.0
C53 C 0.95444 0.64527 0.23283 0.0
O54 O 0.94247 0.66828 0.23573 0.0
H55 H 0.97204 0.67147 0.13406 0.0
H56 H 0.91954 0.69053 0.19691 0.0
N57 N 0.98527 0.7036 0.21754 0.0
N58 N 1.00189 0.7299 0.24899 0.0
C59 C 1.00584 0.70769 0.23494 0.0
C60 C 0.96792 0.72415 0.22018 0.0
C61 C 0.97807 0.74036 0.23963 0.0
C62 C 1.02484 0.69605 0.16382 0.0
O63 O 1.00765 0.71606 0.16507 0.0
H64 H 1.02354 0.69476 0.23673 0.0
H65 H 0.9492 0.72719 0.20888 0.0
O66 O 0.97441 0.64326 0.21644 0.0
H67 H 0.89018 0.693 0.15283 0.0
H68 H 0.96838 0.75822 0.24666 0.0
Cu69 Cu 0.35762 0.03096 0.20558 0.0
N70 N 0.36555 0.06303 0.1878 0.0
N71 N 0.36681 0.09559 0.15764 0.0
C72 C 0.35915 0.07037 0.16281 0.0
C73 C 0.3785 0.10433 0.1801 0.0
C74 C 0.37787 0.08431 0.19847 0.0
O75 O 0.36006 1.00165 0.18055 0.0
C76 C 0.31367 0.05352 0.23581 0.0
O77 O 0.33102 0.07339 0.23733 0.0
H78 H 0.34859 0.05774 0.1489 0.0
H79 H 0.38559 0.08541 0.21841 0.0
N80 N 0.38419 1.02422 0.23246 0.0
N81 N 0.41489 1.00337 0.25888 0.0
C82 C 0.39942 1.00213 0.2365 0.0
C83 C 0.39001 0.03973 0.2532 0.0
C84 C 0.40879 1.02705 0.26938 0.0
C85 C 0.34309 0.99614 0.16206 0.0
O86 O 0.32075 1.01064 0.15909 0.0
H87 H 0.39873 0.98524 0.22356 0.0
H88 H 0.38045 0.05858 0.25696 0.0
O89 O 0.32078 0.0333 0.22244 0.0
H90 H 0.38712 0.12382 0.18295 0.0
H91 H 0.41617 0.03423 0.28818 0.0
Cu92 Cu 0.0804 0.67087 0.85038 0.0
N93 N 0.10619 0.68915 0.87079 0.0
N94 N 0.13102 0.69965 0.90653 0.0
C95 C 0.10997 0.68509 0.89672 0.0
C96 C 0.14087 0.71343 0.88574 0.0
C97 C 0.1254 0.70701 0.86374 0.0
O98 O 0.04595 0.66917 0.8707 0.0
C99 C 0.11863 0.63978 0.82521 0.0
O100 O 0.12815 0.66366 0.82093 0.0
H101 H 0.09754 0.67148 0.90812 0.0
H102 H 0.12844 0.71427 0.84391 0.0
N103 N 0.07206 0.68763 0.81869 0.0
N104 N 0.05943 0.71629 0.78748 0.0
C105 C 0.06819 0.71323 0.81264 0.0
C106 C 0.06541 0.67419 0.79681 0.0
C107 C 0.05754 0.6917 0.77761 0.0
C108 C 1.03617 0.69101 0.87906 0.0
O109 O 0.04989 0.71276 0.87386 0.0
H110 H 0.07083 0.72914 0.82656 0.0
H111 H 0.06506 0.65294 0.79536 0.0
O112 O 0.09709 0.63729 0.83962 0.0
H113 H 0.15867 0.72641 0.88602 0.0
H114 H 0.04929 0.68653 0.75848 0.0
Cu115 Cu 0.35563 0.03724 0.85333 0.0
N116 N 0.36084 1.00466 0.87067 0.0
N117 N 0.36049 0.9714 0.89992 0.0
C118 C 0.35679 0.99762 0.89613 0.0
C119 C 0.36732 0.96175 0.87611 0.0
C120 C 0.36745 0.98218 0.85822 0.0
O121 O 0.34754 0.06531 0.87873 0.0
C122 C 0.30356 1.0187 0.83291 0.0
O123 O 0.30037 1.00957 0.85693 0.0
H124 H 0.35052 1.01118 0.91138 0.0
H125 H 0.37167 0.98075 0.83737 0.0
N126 N 0.3884 0.04645 0.83496 0.0
N127 N 0.41918 0.06663 0.80832 0.0
C128 C 0.39238 0.06532 0.81642 0.0
C129 C 0.41357 0.0357 0.83885 0.0
C130 C 0.43247 0.04804 0.82264 0.0
C131 C 0.36366 0.06972 0.89823 0.0
O132 O 0.38542 0.05451 0.90155 0.0
H133 H 0.37597 0.07796 0.80914 0.0
H134 H 0.41801 1.02029 0.85301 0.0
O135 O 0.32531 0.03214 0.82767 0.0
H136 H 0.37208 0.94134 0.87197 0.0
H137 H 0.45453 0.04426 0.82229 0.0
Cu138 Cu 0.98924 0.37914 0.84802 0.0
N139 N 0.96282 0.36844 0.87267 0.0
N140 N 0.94115 0.36297 0.91112 0.0
C141 C 0.96141 0.37588 0.89804 0.0
C142 C 0.92951 0.34672 0.89324 0.0
C143 C 0.94293 0.35011 0.86956 0.0
O144 O 1.02575 0.37945 0.86565 0.0
C145 C 0.9519 0.41461 0.82383 0.0
O146 O 0.93464 0.39562 0.83013 0.0
H147 H 0.97589 0.38951 0.90691 0.0
H148 H 0.93885 0.33961 0.85147 0.0
N149 N 0.99148 0.35398 0.82145 0.0
N150 N 1.00904 0.32338 0.79477 0.0
C151 C 1.01294 0.33772 0.81682 0.0
C152 C 0.9733 0.34966 0.8018 0.0
C153 C 0.98401 0.33073 0.78538 0.0
C154 C 1.03176 0.36054 0.88144 0.0
O155 O 1.01302 0.34235 0.8861 0.0
H156 H 1.03101 0.33651 0.82941 0.0
H157 H 0.95386 0.35989 0.79919 0.0
O158 O 0.97726 0.41246 0.83103 0.0
H159 H 0.91262 0.3332 0.89706 0.0
H160 H 0.97447 0.32349 0.76749 0.0
Cu161 Cu 0.72519 1.02668 0.85669 0.0
N162 N 0.71828 0.0598 0.87236 0.0
N163 N 0.71746 0.09319 0.9014 0.0
C164 C 0.72489 0.06781 0.89702 0.0
C165 C 0.70614 0.10145 0.87847 0.0
C166 C 0.70658 0.08095 0.86078 0.0
O167 O 0.72707 1.00145 0.88606 0.0
C168 C 0.76113 0.04775 0.81796 0.0
O169 O 0.73833 0.06052 0.81189 0.0
H170 H 0.7349 0.05527 0.91147 0.0
H171 H 0.69909 0.08156 0.84071 0.0
N172 N 0.69475 1.0168 0.83502 0.0
N173 N 0.66582 0.99386 0.80867 0.0
C174 C 0.69196 0.996 0.81852 0.0
C175 C 0.66942 0.02789 0.83572 0.0
C176 C 0.65171 1.01395 0.81962 0.0
C177 C 0.72793 0.9764 0.88439 0.0
O178 O 0.73094 0.96551 0.86116 0.0
H179 H 0.70855 0.98232 0.81434 0.0
H180 H 0.66378 0.04428 0.84812 0.0
O181 O 0.75995 0.03037 0.83625 0.0
H182 H 0.69874 0.12117 0.8744 0.0
H183 H 0.62972 1.01751 0.81741 0.0
Cu184 Cu 0.18691 0.07484 0.34969 0.0
N185 N 0.18371 0.03936 0.35946 0.0
N186 N 0.17151 0.99733 0.36554 0.0
C187 C 0.16451 1.02065 0.35435 0.0
C188 C 0.19596 1.00146 0.37771 0.0
C189 C 0.20339 1.02725 0.37391 0.0
O190 O 0.15069 0.09326 0.3484 0.0
C191 C 0.2142 0.05769 0.30238 0.0
O192 O 0.19855 0.03673 0.30527 0.0
H193 H 0.146 1.02396 0.34271 0.0
H194 H 0.22217 0.03656 0.38092 0.0
N195 N 0.20619 0.08983 0.37764 0.0
N196 N 0.23768 0.11118 0.40155 0.0
C197 C 0.23001 0.10355 0.37716 0.0
C198 C 0.19851 0.08883 0.40308 0.0
C199 C 0.2179 0.10206 0.41791 0.0
C200 C 0.14863 0.11712 0.35638 0.0
O201 O 0.17139 0.1301 0.36218 0.0
H202 H 0.24148 0.1078 0.35936 0.0
H203 H 0.17992 0.0793 0.41022 0.0
O204 O 0.21071 0.07707 0.31809 0.0
H205 H 0.20794 0.98665 0.38808 0.0
H206 H 0.21716 0.10527 0.43895 0.0
Cu207 Cu 0.99966 0.20247 0.39314 0.0
N208 N 0.97388 0.17504 0.39395 0.0
N209 N 0.95218 0.13768 0.38363 0.0
C210 C 0.96962 0.15667 0.37535 0.0
C211 C 0.94488 0.14437 0.4083 0.0
C212 C 0.95838 0.16744 0.41465 0.0
O213 O 1.03688 0.18581 0.39314 0.0
C214 C 0.96497 0.23508 0.42197 0.0
O215 O 0.9484 0.22726 0.40297 0.0
H216 H 0.97972 0.1566 0.35641 0.0
H217 H 0.95802 0.17728 0.4335 0.0
N218 N 0.99631 0.22115 0.36169 0.0
N219 N 1.00848 0.24653 0.32774 0.0
C220 C 1.01643 0.23594 0.35093 0.0
C221 C 0.97473 0.22256 0.34489 0.0
C222 C 0.98214 0.23844 0.32392 0.0
C223 C 0.04371 0.1731 0.37235 0.0
O224 O 1.02699 0.17378 0.35195 0.0
H225 H 1.03644 0.239 0.36012 0.0
H226 H 0.95509 0.21265 0.34764 0.0
O227 O 0.99009 0.22695 0.42194 0.0
H228 H 0.93221 0.13254 0.42134 0.0
H229 H 0.96938 0.24336 0.30705 0.0
Cu230 Cu 0.90111 0.96465 0.33035 0.0
N231 N 0.92125 0.99585 0.3288 0.0
N232 N 0.93551 0.0371 0.33554 0.0
C233 C 0.91799 1.01782 0.3432 0.0
C234 C 0.95042 1.02673 0.31566 0.0
C235 C 0.94147 1.00133 0.31149 0.0
O236 O 0.92764 0.93529 0.33158 0.0
C237 C 0.8564 0.98481 0.30294 0.0
O238 O 0.8583 1.00071 0.32321 0.0
H239 H 0.90326 1.0195 0.35906 0.0
H240 H 0.94897 0.98782 0.29671 0.0
N241 N 0.88053 0.96254 0.36126 0.0
N242 N 0.8464 0.94992 0.3879 0.0
C243 C 0.85689 0.94877 0.36339 0.0
C244 C 0.88541 0.97252 0.38538 0.0
C245 C 0.86434 0.96466 0.40193 0.0
C246 C 0.94374 0.93504 0.35165 0.0
O247 O 0.94219 0.95464 0.36837 0.0
H248 H 0.8479 0.9377 0.34731 0.0
H249 H 0.90314 0.98442 0.39072 0.0
O250 O 0.87408 0.9661 0.30119 0.0
H251 H 0.96644 0.03688 0.30472 0.0
H252 H 0.86221 0.96956 0.42256 0.0
Cu253 Cu 0.08015 0.83327 0.38554 0.0
N254 N 0.10437 0.85565 0.3677 0.0
N255 N 0.12614 0.89334 0.35827 0.0
C256 C 0.1092 0.88063 0.37513 0.0
C257 C 0.13197 0.87571 0.33924 0.0
C258 C 0.11852 0.85236 0.34515 0.0
O259 O 0.04507 0.8528 0.38766 0.0
C260 C 0.12031 0.80927 0.41629 0.0
O261 O 0.13027 0.80621 0.39244 0.0
H262 H 0.09977 0.88947 0.39226 0.0
H263 H 0.1188 0.83444 0.33372 0.0
N264 N 0.07312 0.80193 0.36772 0.0
N265 N 0.05984 0.77226 0.33785 0.0
C266 C 0.06878 0.79717 0.34196 0.0
C267 C 0.06696 0.7793 0.38021 0.0
C268 C 0.05866 0.76105 0.36195 0.0
C269 C 1.03469 0.86026 0.36563 0.0
O270 O 0.04776 0.85396 0.34391 0.0
H271 H 0.07093 0.81191 0.32667 0.0
H272 H 0.06686 0.7768 0.40137 0.0
O273 O 0.09777 0.82228 0.41882 0.0
H274 H 0.14519 0.87937 0.32243 0.0
H275 H 0.05032 0.74176 0.3664 0.0
Cu276 Cu 0.18959 0.95984 0.71651 0.0
N277 N 0.18575 0.98852 0.69364 0.0
N278 N 0.17509 0.02911 0.67989 0.0
C279 C 0.17857 1.01307 0.70086 0.0
C280 C 0.18053 1.01417 0.65861 0.0
C281 C 0.18704 0.98908 0.66716 0.0
O282 O 0.15266 0.94356 0.71964 0.0
C283 C 0.23033 0.98494 0.74648 0.0
O284 O 0.23982 0.98861 0.72252 0.0
H285 H 0.17523 1.01887 0.72111 0.0
H286 H 0.19188 0.97236 0.65489 0.0
N287 N 0.21273 0.93393 0.70262 0.0
N288 N 0.24448 0.91195 0.67945 0.0
C289 C 0.23171 0.93536 0.68326 0.0
C290 C 0.2137 0.90898 0.71148 0.0
C291 C 0.23331 0.89542 0.6974 0.0
C292 C 0.14318 0.93304 0.69857 0.0
O293 O 0.1586 0.93409 0.67734 0.0
H294 H 0.23632 0.95323 0.67246 0.0
H295 H 0.20135 0.90137 0.72755 0.0
O296 O 0.20737 0.97256 0.74914 0.0
H297 H 0.18002 1.02089 0.63837 0.0
H298 H 0.23968 0.8753 0.70103 0.0
Cu299 Cu 0.09466 0.20197 0.68179 0.0
N300 N 0.12285 0.17667 0.68377 0.0
N301 N 0.14612 0.13863 0.68358 0.0
C302 C 0.12114 0.15035 0.68063 0.0
C303 C 0.16413 0.15828 0.68871 0.0
C304 C 0.14977 0.18169 0.68863 0.0
O305 O 0.0578 0.18518 0.68169 0.0
C306 C 0.12033 0.22208 0.63448 0.0
O307 O 0.13105 0.19838 0.63295 0.0
H308 H 0.10195 0.14 0.67678 0.0
H309 H 0.15835 0.20111 0.69178 0.0
N310 N 0.0953 0.22193 0.71249 0.0
N311 N 0.08074 0.2498 0.74335 0.0
C312 C 0.0754 0.23895 0.71968 0.0
C313 C 0.11377 0.22179 0.73242 0.0
C314 C 0.10486 0.23907 0.75151 0.0
C315 C 0.0519 0.16947 0.70064 0.0
O316 O 0.07117 0.16411 0.71819 0.0
H317 H 0.05724 0.24315 0.70782 0.0
H318 H 0.13207 0.20956 0.7334 0.0
O319 O 0.10257 0.22672 0.65254 0.0
H320 H 0.18616 0.15588 0.69203 0.0
H321 H 0.11483 0.24277 0.77026 0.0
Cu322 Cu 0.89406 0.09726 0.71714 0.0
N323 N 0.89738 0.06605 0.69814 0.0
N324 N 0.90949 1.02576 0.68528 0.0
C325 C 0.91121 0.04389 0.70456 0.0
C326 C 0.89412 0.03682 0.66602 0.0
C327 C 0.88671 0.0617 0.674 0.0
O328 O 0.93198 0.1099 0.72466 0.0
C329 C 0.86358 0.07039 0.75913 0.0
O330 O 0.88049 0.05056 0.75522 0.0
H331 H 0.92234 0.04107 0.7229 0.0
H332 H 0.87423 0.07561 0.663 0.0
N333 N 0.87813 0.12112 0.69355 0.0
N334 N 0.84678 0.1408 0.66798 0.0
C335 C 0.85096 0.12542 0.68931 0.0
C336 C 0.89138 0.13376 0.67389 0.0
C337 C 0.87204 0.14597 0.65809 0.0
C338 C 0.93862 0.13426 0.72331 0.0
O339 O 0.91882 0.152 0.72252 0.0
H340 H 0.83458 0.11593 0.70038 0.0
H341 H 0.91345 0.13274 0.67035 0.0
O342 O 0.86771 0.092 0.74664 0.0
H343 H 0.88804 1.02727 0.64787 0.0
H344 H 0.87599 0.15624 0.63976 0.0
Cu345 Cu 0.98773 0.85307 0.67756 0.0
N346 N 0.96013 0.87834 0.68206 0.0
N347 N 0.93871 0.91696 0.68599 0.0
C348 C 0.96273 0.90469 0.6803 0.0
C349 C 0.92033 0.89775 0.69146 0.0
C350 C 0.93356 0.8739 0.6888 0.0
O351 O 1.02392 0.87059 0.67464 0.0
C352 C 0.95786 0.83289 0.63225 0.0
O353 O 0.94443 0.85536 0.63291 0.0
H354 H 0.98189 0.91467 0.67546 0.0
H355 H 0.92446 0.85462 0.69157 0.0
N356 N 0.98947 0.83242 0.70789 0.0
N357 N 1.00531 0.80312 0.73717 0.0
C358 C 1.01017 0.81583 0.71423 0.0
C359 C 0.97108 0.83055 0.72767 0.0
C360 C 0.98077 0.81248 0.74573 0.0
C361 C 1.03333 0.88293 0.69469 0.0
O362 O 1.01791 0.88402 0.71594 0.0
H363 H 1.02853 0.81355 0.7023 0.0
H364 H 0.9519 0.84139 0.72897 0.0
O365 O 0.978 0.8292 0.64829 0.0
H366 H 0.89884 0.9008 0.6967 0.0
H367 H 0.97024 0.80625 0.76347 0.0
Cu368 Cu 0.35569 0.20701 0.0321 0.0
N369 N 0.35882 0.19027 0.99901 0.0
N370 N 0.35731 0.16185 0.96522 0.0
C371 C 0.35615 0.16471 0.99174 0.0
C372 C 0.36101 0.18637 0.95557 0.0
C373 C 0.36179 0.20372 0.9763 0.0
O374 O 0.35051 0.18146 0.06108 0.0
C375 C 0.30272 0.22704 1.01503 0.0
O376 O 0.30007 0.20361 1.00442 0.0
H377 H 0.35261 0.14866 1.00539 0.0
H378 H 0.36397 0.22489 0.97496 0.0
N379 N 0.38817 0.22703 0.03872 0.0
N380 N 0.41922 0.25479 0.05707 0.0
C381 C 0.39446 0.24222 0.0598 0.0
C382 C 0.40976 0.22991 1.02227 0.0
C383 C 0.42878 0.24685 0.03342 0.0
C384 C 0.36605 0.16124 0.06383 0.0
O385 O 0.38592 0.15725 0.04669 0.0
H386 H 0.38122 0.24363 0.07687 0.0
H387 H 0.41151 0.22053 1.00327 0.0
O388 O 0.32433 0.23186 0.02888 0.0
H389 H 0.36324 0.19137 0.93494 0.0
H390 H 0.448 0.25319 1.02447 0.0
Cu391 Cu 0.35403 0.86114 1.02655 0.0
N392 N 0.35927 0.87769 0.05943 0.0
N393 N 0.36054 0.90603 0.09331 0.0
C394 C 0.35335 0.9024 0.06772 0.0
C395 C 0.37082 0.88263 0.10138 0.0
C396 C 0.37005 0.86536 0.08058 0.0
O397 O 0.34765 0.88678 0.99809 0.0
C398 C 0.30142 0.8402 0.04381 0.0
O399 O 0.29945 0.86226 0.05714 0.0
H400 H 0.34412 0.9174 0.05529 0.0
H401 H 0.37666 0.845 0.08085 0.0
N402 N 0.38639 0.84175 1.01844 0.0
N403 N 0.41629 0.81222 1.00155 0.0
C404 C 0.38941 0.82005 1.00326 0.0
C405 C 0.41221 0.84793 1.02635 0.0
C406 C 0.43058 0.82996 1.01599 0.0
C407 C 0.36284 0.90709 0.99462 0.0
O408 O 0.38282 0.91193 1.01156 0.0
H409 H 0.37228 0.81038 0.99344 0.0
H410 H 0.4174 0.8648 0.03835 0.0
O411 O 0.32271 0.83648 0.02939 0.0
H412 H 0.37779 0.87805 0.12115 0.0
H413 H 0.45289 0.83076 1.01799 0.0
Cu414 Cu 0.18117 0.34295 0.96837 0.0
N415 N 0.17655 0.36021 1.00049 0.0
N416 N 0.16707 0.36898 0.0425 0.0
C417 C 0.16347 0.35191 1.02243 0.0
C418 C 0.18295 0.38859 0.03292 0.0
C419 C 0.18864 0.38321 1.007 0.0
O420 O 0.14442 0.3379 0.95207 0.0
C421 C 0.22587 0.31348 0.98886 0.0
O422 O 0.23228 0.33693 0.99789 0.0
H423 H 0.15268 0.33327 1.024 0.0
H424 H 0.2016 0.3948 0.99406 0.0
N425 N 0.19967 0.36676 0.94666 0.0
N426 N 0.23172 0.38906 0.92421 0.0
C427 C 0.22623 0.36723 0.93861 0.0
C428 C 0.18815 0.38902 0.93727 0.0
C429 C 0.20782 0.40283 0.9235 0.0
C430 C 0.14131 0.33989 0.92712 0.0
O431 O 0.16343 0.33988 0.91213 0.0
H432 H 0.24134 0.35231 0.94374 0.0
H433 H 0.16705 0.39513 0.94101 0.0
O434 O 0.20399 0.31119 0.97471 0.0
H435 H 0.19039 0.40531 0.0441 0.0
H436 H 0.20511 0.42223 0.91497 0.0
Cu437 Cu 0.72305 0.20229 0.02916 0.0
N438 N 0.72018 0.18423 0.06162 0.0
N439 N 0.72026 0.15383 0.09384 0.0
C440 C 0.71986 0.15816 0.06746 0.0
C441 C 0.72038 0.17797 0.10484 0.0
C442 C 0.7204 0.19652 0.08505 0.0
O443 O 0.72205 0.17809 0.99904 0.0
C444 C 0.77718 0.22087 0.04538 0.0
O445 O 0.77892 0.19818 0.05778 0.0
H446 H 0.72011 0.14273 0.05282 0.0
H447 H 0.72105 0.21767 0.08751 0.0
N448 N 0.69205 0.22462 1.02483 0.0
N449 N 0.66068 0.2518 1.00626 0.0
C450 C 0.68451 0.23805 1.0029 0.0
C451 C 0.67218 0.22989 0.04258 0.0
C452 C 0.65286 0.24652 0.03124 0.0
C453 C 0.7375 0.15837 0.99396 0.0
O454 O 0.7583 0.15287 1.0098 0.0
H455 H 0.69622 0.23759 0.98477 0.0
H456 H 0.6714 0.22176 0.06227 0.0
O457 O 0.75602 0.22531 0.0308 0.0
H458 H 0.72034 0.18193 0.12577 0.0
H459 H 0.63397 0.25328 0.04042 0.0
Cu460 Cu 0.88362 0.7211 0.95815 0.0
N461 N 0.88567 0.69701 0.98586 0.0
N462 N 0.8956 0.68145 1.02589 0.0
C463 C 0.89448 0.70292 1.01026 0.0
C464 C 0.88693 0.66119 1.01085 0.0
C465 C 0.8808 0.67087 0.98608 0.0
O466 O 0.92103 0.72291 0.94296 0.0
C467 C 0.84759 0.76619 0.96242 0.0
O468 O 0.84142 0.76125 0.93773 0.0
H469 H 0.90055 0.72255 1.01627 0.0
H470 H 0.87369 0.65957 0.96936 0.0
N471 N 0.86056 0.70828 0.93168 0.0
N472 N 0.82806 0.68562 0.91029 0.0
C473 C 0.83846 0.69232 0.93403 0.0
C474 C 0.86399 0.7121 0.90565 0.0
C475 C 0.84391 0.69815 0.89237 0.0
C476 C 0.93002 0.70088 0.93423 0.0
O477 O 0.91369 0.68026 0.93597 0.0
H478 H 0.83066 0.68516 0.95269 0.0
H479 H 0.88025 0.72394 0.897 0.0
O480 O 0.86697 0.75302 0.97349 0.0
H481 H 0.88493 0.64095 1.01733 0.0
H482 H 0.84114 0.69734 0.87123 0.0
Cu483 Cu 0.71157 0.85174 0.02793 0.0
N484 N 0.69867 0.87656 1.0032 0.0
N485 N 0.69872 0.90784 0.97191 0.0
C486 C 0.71312 0.88805 0.98346 0.0
C487 C 0.67422 0.90858 0.98463 0.0
C488 C 0.67428 0.88935 1.0039 0.0
O489 O 0.71659 0.87072 0.06119 0.0
C490 C 0.7629 0.8212 1.02385 0.0
O491 O 0.75866 0.8137 0.04829 0.0
H492 H 0.73422 0.88286 0.9785 0.0
H493 H 0.65805 0.88552 1.01806 0.0
N494 N 0.68496 0.8246 0.03263 0.0
N495 N 0.65381 0.79646 0.05025 0.0
C496 C 0.67097 0.81729 0.0546 0.0
C497 C 0.67651 0.80772 1.01391 0.0
C498 C 0.65754 0.79041 1.02463 0.0
C499 C 0.72786 0.89347 0.06214 0.0
O500 O 0.73885 0.90326 0.04059 0.0
H501 H 0.67337 0.82701 0.0734 0.0
H502 H 0.68406 0.80771 0.99387 0.0
O503 O 0.74583 0.83711 1.01307 0.0
H504 H 0.65756 0.92228 0.9805 0.0
H505 H 0.64805 0.77402 1.01444 0.0
Cu506 Cu 0.17999 0.72534 0.08662 0.0
N507 N 0.17701 0.70491 0.05617 0.0
N508 N 0.16899 0.6946 1.01403 0.0
C509 C 0.16821 0.71367 0.03252 0.0
C510 C 0.17829 0.67292 1.02676 0.0
C511 C 0.18322 0.67933 0.0527 0.0
O512 O 0.14281 0.72778 0.10223 0.0
C513 C 0.22138 0.7555 0.06376 0.0
O514 O 0.22924 0.73149 0.05781 0.0
H515 H 0.16083 0.73353 0.02926 0.0
H516 H 0.19064 0.66619 0.06797 0.0
N517 N 0.20226 0.70907 0.11194 0.0
N518 N 0.23488 0.68538 0.13221 0.0
C519 C 0.22354 0.69223 0.10886 0.0
C520 C 0.20014 0.71295 0.13805 0.0
C521 C 0.2202 0.69829 0.15065 0.0
C522 C 0.13209 0.70602 0.10996 0.0
O523 O 0.14629 0.68425 0.10638 0.0
H524 H 0.23084 0.68537 0.08996 0.0
H525 H 0.18492 0.72553 0.14725 0.0
O526 O 0.199 0.75834 0.07692 0.0
H527 H 0.18142 0.65377 1.01792 0.0
H528 H 0.22335 0.69679 0.17171 0.0
Cu529 Cu 0.89548 0.33912 0.09294 0.0
N530 N 0.89999 0.35776 0.06146 0.0
N531 N 0.91033 0.36906 1.02007 0.0
C532 C 0.91244 0.3503 0.03896 0.0
C533 C 0.8957 0.3888 0.03106 0.0
C534 C 0.8895 0.38184 0.05653 0.0
O535 O 0.93237 0.33404 0.10899 0.0
C536 C 0.85274 0.30851 0.07018 0.0
O537 O 0.8466 0.33158 0.05991 0.0
H538 H 0.92257 0.33146 0.03642 0.0
H539 H 0.87746 0.39327 0.0703 0.0
N540 N 0.87625 0.3618 0.11523 0.0
N541 N 0.84301 0.38602 0.13369 0.0
C542 C 0.84875 0.36481 0.11859 0.0
C543 C 0.88816 0.38172 0.12853 0.0
C544 C 0.8678 0.3965 0.14011 0.0
C545 C 0.93557 0.33396 0.13399 0.0
O546 O 0.91358 0.33203 0.14905 0.0
H547 H 0.83337 0.35222 0.10956 0.0
H548 H 0.91014 0.3859 0.12876 0.0
O549 O 0.87363 0.30698 0.08572 0.0
H550 H 0.88894 0.40657 1.02112 0.0
H551 H 0.87089 0.4145 0.15111 0.0
Cu552 Cu 0.58898 0.87932 0.70844 0.0
N553 N 0.61872 0.87505 0.68579 0.0
N554 N 0.64347 0.87394 0.64889 0.0
C555 C 0.61923 0.88097 0.65999 0.0
C556 C 0.65864 0.86298 0.66839 0.0
C557 C 0.64331 0.86372 0.69117 0.0
O558 O 0.55581 0.88294 0.68555 0.0
C559 C 0.61849 0.90733 0.74765 0.0
O560 O 0.63068 0.8843 0.74989 0.0
H561 H 0.6018 0.88936 0.64945 0.0
H562 H 0.64937 0.85591 0.71016 0.0
N563 N 0.58656 0.84804 0.72758 0.0
N564 N 0.57689 0.81805 0.75845 0.0
C565 C 0.57757 0.84399 0.75231 0.0
C566 C 0.5917 0.82397 0.71774 0.0
C567 C 0.58561 0.80544 0.73663 0.0
C568 C 0.53601 0.86612 0.68493 0.0
O569 O 0.53518 0.84758 0.70298 0.0
H570 H 0.57121 0.85971 0.76531 0.0
H571 H 0.59834 0.82018 0.69779 0.0
O572 O 0.59826 0.90954 0.73139 0.0
H573 H 0.67926 0.85487 0.66624 0.0
H574 H 0.58624 0.78432 0.73396 0.0
Cu575 Cu 0.22474 0.53035 0.70944 0.0
N576 N 0.21637 0.4986 0.69199 0.0
N577 N 0.21643 0.46585 0.66254 0.0
C578 C 0.22525 0.49052 0.6681 0.0
C579 C 0.20115 0.45829 0.68339 0.0
C580 C 0.20105 0.47849 0.70141 0.0
O581 O 0.22021 0.55929 0.68412 0.0
C582 C 0.2696 0.50707 0.73663 0.0
O583 O 0.25261 0.48685 0.73664 0.0
H584 H 0.23821 0.50228 0.65527 0.0
H585 H 0.19057 0.47835 0.72015 0.0
N586 N 0.20011 0.53576 0.73773 0.0
N587 N 0.17259 0.55567 0.76722 0.0
C588 C 0.18636 0.55803 0.74408 0.0
C589 C 0.19515 0.51897 0.75775 0.0
C590 C 0.17819 0.53108 0.77582 0.0
C591 C 0.2393 0.56987 0.67036 0.0
O592 O 0.26502 0.56202 0.67366 0.0
H593 H 0.1871 0.57587 0.73236 0.0
H594 H 0.20426 0.49962 0.75977 0.0
O595 O 0.26209 0.52813 0.72477 0.0
H596 H 0.19049 0.43961 0.68527 0.0
H597 H 0.17185 0.52291 0.79458 0.0
Cu598 Cu 0.50488 0.17116 0.70255 0.0
N599 N 0.47506 0.18437 0.68294 0.0
N600 N 0.44549 0.19138 0.64965 0.0
C601 C 0.46695 0.17681 0.65872 0.0
C602 C 0.43956 0.20837 0.66926 0.0
C603 C 0.45798 0.20416 0.68961 0.0
O604 O 0.53567 0.16295 0.67832 0.0
C605 C 0.46894 0.14487 0.73814 0.0
O606 O 0.45619 0.16765 0.73643 0.0
H607 H 0.47731 0.16158 0.64759 0.0
H608 H 0.45896 0.21486 0.70797 0.0
N609 N 0.51923 0.19805 0.72379 0.0
N610 N 0.52733 0.22676 0.75616 0.0
C611 C 0.51066 0.20725 0.7473 0.0
C612 C 0.54203 0.21219 0.71789 0.0
C613 C 0.54698 0.2299 0.73766 0.0
C614 C 0.54119 0.17907 0.65955 0.0
O615 O 0.52408 0.19873 0.65516 0.0
H616 H 0.4926 0.2 0.75758 0.0
H617 H 0.55461 0.20968 0.70057 0.0
O618 O 0.49122 0.14168 0.72485 0.0
H619 H 0.423 0.22271 0.66915 0.0
H620 H 0.5641 0.24367 0.73867 0.0
Cu621 Cu 0.84876 0.52371 0.70388 0.0
N622 N 0.85271 0.55706 0.68756 0.0
N623 N 0.85285 0.59119 0.65917 0.0
C624 C 0.84772 0.56508 0.6625 0.0
C625 C 0.86094 0.5998 0.68311 0.0
C626 C 0.86093 0.57886 0.70039 0.0
O627 O 0.84934 0.49509 0.678 0.0
C628 C 0.79793 0.54162 0.72881 0.0
O629 O 0.7984 0.56084 0.71145 0.0
H630 H 0.84062 0.55212 0.64701 0.0
H631 H 0.86614 0.5795 0.72111 0.0
N632 N 0.88016 0.51695 0.72517 0.0
N633 N 0.90918 0.49625 0.7533 0.0
C634 C 0.88267 0.49874 0.74455 0.0
C635 C 0.90595 0.52624 0.72143 0.0
C636 C 0.9238 0.51358 0.73859 0.0
C637 C 0.8337 0.49013 0.65835 0.0
O638 O 0.81211 0.50522 0.65371 0.0
H639 H 0.86545 0.48692 0.75141 0.0
H640 H 0.91165 0.54024 0.70628 0.0
O641 O 0.81634 0.52354 0.72752 0.0
H642 H 0.86585 0.62 0.68804 0.0
H643 H 0.94608 0.51588 0.73886 0.0
Cu644 Cu 0.56729 0.1644 0.34171 0.0
N645 N 0.59497 0.18307 0.35947 0.0
N646 N 0.62204 0.19416 0.39343 0.0
C647 C 0.60438 0.17617 0.38345 0.0
C648 C 0.62406 0.21312 0.37483 0.0
C649 C 0.60716 0.20629 0.35392 0.0
O650 O 0.53822 0.15933 0.36829 0.0
C651 C 0.60781 0.13467 0.31501 0.0
O652 O 0.62102 0.15721 0.31677 0.0
H653 H 0.5975 0.15868 0.39381 0.0
H654 H 0.60362 0.21777 0.33628 0.0
N655 N 0.55029 0.18445 0.31545 0.0
N656 N 0.54126 0.21299 0.28303 0.0
C657 C 0.5612 0.20117 0.29766 0.0
C658 C 0.52271 0.18533 0.31157 0.0
C659 C 0.51707 0.2029 0.29166 0.0
C660 C 0.52956 0.18084 0.37852 0.0
O661 O 0.54093 0.20304 0.37067 0.0
H662 H 0.58323 0.20437 0.29535 0.0
H663 H 0.50768 0.17425 0.32283 0.0
O664 O 0.58358 0.13281 0.32509 0.0
H665 H 0.63683 0.2306 0.37613 0.0
H666 H 0.49669 0.20837 0.28456 0.0
Cu667 Cu 0.85602 0.53284 0.35319 0.0
N668 N 0.86121 0.49986 0.36989 0.0
N669 N 0.86131 0.4672 0.39988 0.0
C670 C 0.85829 0.49344 0.39564 0.0
C671 C 0.86628 0.45682 0.37597 0.0
C672 C 0.86624 0.47686 0.35765 0.0
O673 O 0.85823 0.56097 0.37951 0.0
C674 C 0.81928 0.51667 0.31344 0.0
O675 O 0.84195 0.50468 0.3058 0.0
H676 H 0.85319 0.50757 0.41078 0.0
H677 H 0.86933 0.47462 0.33673 0.0
N678 N 0.88469 0.53981 0.32882 0.0
N679 N 0.91084 0.56127 0.29899 0.0
C680 C 0.88844 0.56236 0.31506 0.0
C681 C 0.90568 0.52401 0.3215 0.0
C682 C 0.92175 0.53712 0.3032 0.0
C683 C 0.84097 0.56702 0.39746 0.0
O684 O 0.81739 0.55417 0.39899 0.0
H685 H 0.87524 0.57941 0.31738 0.0
H686 H 0.90919 0.50433 0.32896 0.0
O687 O 0.82057 0.53143 0.33376 0.0
H688 H 0.86976 0.43614 0.37201 0.0
H689 H 0.93993 0.52932 0.29354 0.0
Cu690 Cu 0.51215 0.88992 0.34396 0.0
N691 N 0.48377 0.8747 0.36397 0.0
N692 N 0.45793 0.86619 0.39954 0.0
C693 C 0.47874 0.88072 0.3893 0.0
C694 C 0.44925 0.85061 0.37962 0.0
C695 C 0.46534 0.85581 0.35775 0.0
O696 O 0.54399 0.89414 0.36801 0.0
C697 C 0.47594 0.91885 0.31155 0.0
O698 O 0.46578 0.895 0.30891 0.0
H699 H 0.49071 0.89508 0.4002 0.0
H700 H 0.4637 0.84643 0.33873 0.0
N701 N 0.52621 0.86722 0.31835 0.0
N702 N 0.53268 0.83879 0.28543 0.0
C703 C 0.51383 0.85158 0.3004 0.0
C704 C 0.55359 0.86424 0.31443 0.0
C705 C 0.55765 0.84678 0.29429 0.0
C706 C 0.55021 0.87372 0.38172 0.0
O707 O 0.53432 0.85278 0.37999 0.0
H708 H 0.49162 0.85009 0.29793 0.0
H709 H 0.56962 0.87426 0.32544 0.0
O710 O 0.49717 0.92185 0.32645 0.0
H711 H 0.43223 0.83676 0.38052 0.0
H712 H 0.5775 0.84032 0.28682 0.0
Cu713 Cu 0.2196 0.52401 0.35824 0.0
N714 N 0.21502 0.55697 0.37508 0.0
N715 N 0.21683 0.59001 0.4045 0.0
C716 C 0.22147 0.56401 0.40008 0.0
C717 C 0.20717 0.59956 0.38143 0.0
C718 C 0.20601 0.57929 0.36349 0.0
O719 O 0.21821 0.49552 0.3844 0.0
C720 C 0.25589 0.54103 0.31832 0.0
O721 O 0.23413 0.55549 0.31252 0.0
H722 H 0.22998 0.5505 0.4145 0.0
H723 H 0.19916 0.58081 0.34326 0.0
N724 N 0.1899 0.51711 0.33483 0.0
N725 N 0.16292 0.49634 0.30517 0.0
C726 C 0.18797 0.4971 0.31739 0.0
C727 C 0.16513 0.52927 0.33376 0.0
C728 C 0.14853 0.51656 0.31558 0.0
C729 C 0.23616 0.48881 0.40164 0.0
O730 O 0.25987 0.5015 0.40272 0.0
H731 H 0.20427 0.48275 0.31459 0.0
H732 H 0.15922 0.5458 0.34588 0.0
O733 O 0.25424 0.5251 0.33781 0.0
H734 H 0.20104 0.61978 0.37787 0.0
H735 H 0.12739 0.5217 0.31056 0.0
Cu736 Cu 0.68242 0.57131 0.85353 0.0
N737 N 0.67503 0.53718 0.866 0.0
N738 N 0.66222 0.49489 0.86796 0.0
C739 C 0.65833 0.51838 0.85583 0.0
C740 C 0.68192 0.49905 0.8863 0.0
C741 C 0.68978 0.52499 0.88502 0.0
O742 O 0.64897 0.59361 0.85193 0.0
C743 C 0.72439 0.5531 0.82015 0.0
O744 O 0.73182 0.54202 0.84248 0.0
H745 H 0.64484 0.52148 0.83903 0.0
H746 H 0.70637 0.53388 0.89621 0.0
N747 N 0.70561 0.58778 0.87788 0.0
N748 N 0.73816 0.61367 0.89525 0.0
C749 C 0.72684 0.60421 0.87284 0.0
C750 C 0.70332 0.58705 0.90429 0.0
C751 C 0.72338 0.60295 0.91504 0.0
C752 C 0.63421 0.59703 0.87255 0.0
O753 O 0.63965 0.58269 0.8935 0.0
H754 H 0.7332 0.60973 0.85316 0.0
H755 H 0.68802 0.57582 0.91504 0.0
O756 O 0.70289 0.56785 0.82007 0.0
H757 H 0.69056 0.48416 0.89924 0.0
H758 H 0.72686 0.60637 0.93582 0.0
Cu759 Cu 0.50748 0.71236 0.9002 0.0
N760 N 0.48128 0.69348 0.88093 0.0
N761 N 0.45604 0.65877 0.86871 0.0
C762 C 0.47294 0.66901 0.8872 0.0
C763 C 0.45342 0.67766 0.85009 0.0
C764 C 0.46916 0.69911 0.85767 0.0
O765 O 0.5399 0.68852 0.90299 0.0
C766 C 0.46684 0.73804 0.92883 0.0
O767 O 0.45692 0.73916 0.90474 0.0
H768 H 0.47989 0.6586 0.90465 0.0
H769 H 0.47193 0.71729 0.84683 0.0
N770 N 0.5182 0.74301 0.88251 0.0
N771 N 0.53344 0.77184 0.85269 0.0
C772 C 0.52673 0.74648 0.85751 0.0
C773 C 0.5195 0.76703 0.89366 0.0
C774 C 0.52872 0.78489 0.87526 0.0
C775 C 0.54828 0.67859 0.88123 0.0
O776 O 0.5349 0.6848 0.85956 0.0
H777 H 0.52779 0.73095 0.84305 0.0
H778 H 0.5144 0.77121 0.91394 0.0
O779 O 0.48944 0.72529 0.93261 0.0
H780 H 0.44094 0.67618 0.83243 0.0
H781 H 0.53235 0.80571 0.87835 0.0
Cu782 Cu 0.38886 0.48079 0.85586 0.0
N783 N 0.39236 0.51519 0.86836 0.0
N784 N 0.40496 0.55703 0.87445 0.0
C785 C 0.41124 0.53395 0.86268 0.0
C786 C 0.38156 0.55252 0.88815 0.0
C787 C 0.37376 0.52682 0.8842 0.0
O788 O 0.42419 0.46199 0.8541 0.0
C789 C 0.36506 0.50128 0.80789 0.0
O790 O 0.38034 0.52212 0.81271 0.0
H791 H 0.4289 0.53083 0.84997 0.0
H792 H 0.35533 0.5174 0.89182 0.0
N793 N 0.36791 0.46256 0.88065 0.0
N794 N 0.33467 0.43814 0.89899 0.0
C795 C 0.34594 0.44684 0.87623 0.0
C796 C 0.37084 0.46363 0.90697 0.0
C797 C 0.35042 0.44857 0.91832 0.0
C798 C 0.44011 0.46131 0.87424 0.0
O799 O 0.43426 0.47653 0.89432 0.0
H800 H 0.33842 0.44209 0.85674 0.0
H801 H 0.38613 0.47532 0.91724 0.0
O802 O 0.36736 0.48118 0.82294 0.0
H803 H 0.37042 0.56706 0.89953 0.0
H804 H 0.34671 0.44638 0.93923 0.0
Cu805 Cu 0.56331 0.3427 0.8983 0.0
N806 N 0.58948 0.35911 0.87673 0.0
N807 N 0.61427 0.39248 0.8603 0.0
C808 C 0.59349 0.38533 0.87646 0.0
C809 C 0.62409 0.36977 0.85021 0.0
C810 C 0.60858 0.34916 0.86025 0.0
O811 O 0.53492 0.36978 0.90366 0.0
C812 C 0.59851 0.30877 0.92551 0.0
O813 O 0.60091 0.3001 0.90128 0.0
H814 H 0.58217 0.39881 0.88893 0.0
H815 H 0.61157 0.32843 0.85637 0.0
N816 N 0.54533 0.31468 0.88176 0.0
N817 N 0.53092 0.28485 0.85255 0.0
C818 C 0.54915 0.30444 0.85763 0.0
C819 C 0.52392 0.30129 0.89217 0.0
C820 C 0.51492 0.28293 0.8742 0.0
C821 C 0.52307 0.37738 0.88237 0.0
O822 O 0.53014 0.36589 0.86024 0.0
H823 H 0.56477 0.31131 0.84402 0.0
H824 H 0.5151 0.30509 0.91134 0.0
O825 O 0.58243 0.32837 0.92957 0.0
H826 H 0.64159 0.36817 0.83703 0.0
H827 H 0.49739 0.26985 0.87659 0.0
Cu828 Cu 0.69472 0.49005 0.19792 0.0
N829 N 0.69019 0.52524 0.188 0.0
N830 N 0.67404 0.56595 0.18147 0.0
C831 C 0.6682 0.54143 0.19038 0.0
C832 C 0.70068 0.56515 0.17357 0.0
C833 C 0.71053 0.54008 0.17761 0.0
O834 O 0.65958 0.47052 0.1988 0.0
C835 C 0.72093 0.50801 0.24592 0.0
O836 O 0.70594 0.52939 0.24277 0.0
H837 H 0.64849 0.53546 0.1986 0.0
H838 H 0.73133 0.53318 0.17376 0.0
N839 N 0.71587 0.47404 0.1719 0.0
N840 N 0.74596 0.44736 0.15205 0.0
C841 C 0.73377 0.45395 0.175 0.0
C842 C 0.71686 0.48049 0.1462 0.0
C843 C 0.73548 0.46414 0.13392 0.0
C844 C 0.64579 0.4678 0.17742 0.0
O845 O 0.65407 0.48073 0.15643 0.0
H846 H 0.73803 0.4446 0.19377 0.0
H847 H 0.70531 0.4964 0.13716 0.0
O848 O 0.71717 0.48863 0.2303 0.0
H849 H 0.71249 0.58174 0.16622 0.0
H850 H 0.74174 0.46538 0.11351 0.0
Cu851 Cu 0.54935 0.70695 0.15408 0.0
N852 N 0.5766 0.69038 0.17442 0.0
N853 N 0.60705 0.65914 0.18562 0.0
C854 C 0.59151 0.66965 0.16612 0.0
C855 C 0.60156 0.67374 0.20713 0.0
C856 C 0.58276 0.69305 0.20016 0.0
O857 O 0.52115 0.67939 0.14814 0.0
C858 C 0.58864 0.73849 0.12833 0.0
O859 O 0.59628 0.74122 0.15302 0.0
H860 H 0.5897 0.66153 0.14651 0.0
H861 H 0.5733 0.70712 0.21326 0.0
N862 N 0.53093 0.73324 0.17281 0.0
N863 N 0.51979 0.76443 0.20172 0.0
C864 C 0.54047 0.7499 0.19133 0.0
C865 C 0.5035 0.73785 0.17114 0.0
C866 C 0.49654 0.75704 0.18899 0.0
C867 C 0.51071 0.66998 0.16938 0.0
O868 O 0.51973 0.67932 0.19193 0.0
H869 H 0.56188 0.75092 0.19759 0.0
H870 H 0.48944 0.72753 0.15814 0.0
O871 O 0.5678 0.7236 0.12339 0.0
H872 H 0.61003 0.67029 0.22659 0.0
H873 H 0.47602 0.76496 0.19235 0.0
Cu874 Cu 0.37319 0.56812 0.19733 0.0
N875 N 0.37806 0.53292 0.18793 0.0
N876 N 0.39419 0.49211 0.18244 0.0
C877 C 0.40009 0.5168 0.19069 0.0
C878 C 0.36749 0.49273 0.17456 0.0
C879 C 0.35765 0.51785 0.17797 0.0
O880 O 0.40809 0.58831 0.19741 0.0
C881 C 0.35088 0.55018 0.24689 0.0
O882 O 0.36792 0.53026 0.24392 0.0
H883 H 0.41983 0.52291 0.19883 0.0
H884 H 0.33678 0.52463 0.17408 0.0
N885 N 0.35105 0.58328 0.17127 0.0
N886 N 0.32056 0.60947 0.15097 0.0
C887 C 0.33268 0.60298 0.17412 0.0
C888 C 0.35037 0.57693 0.14558 0.0
C889 C 0.33155 0.59302 0.13301 0.0
C890 C 0.42162 0.59111 0.17593 0.0
O891 O 0.41329 0.57797 0.15514 0.0
H892 H 0.32797 0.61192 0.19288 0.0
H893 H 0.36273 0.56164 0.13661 0.0
O894 O 0.35167 0.56911 0.23023 0.0
H895 H 0.35561 0.47598 0.16773 0.0
H896 H 0.3265 0.59278 0.11222 0.0
Cu897 Cu 0.51875 0.35148 0.15757 0.0
N898 N 0.49184 0.36805 0.17798 0.0
N899 N 0.46131 0.39915 0.18887 0.0
C900 C 0.47687 0.38875 0.16952 0.0
C901 C 0.46688 0.38455 0.2105 0.0
C902 C 0.48572 0.36527 0.2037 0.0
O903 O 0.54653 0.37917 0.151 0.0
C904 C 0.47685 0.32312 0.13136 0.0
O905 O 0.46626 0.32399 0.15512 0.0
H906 H 0.47854 0.39683 0.14983 0.0
H907 H 0.49513 0.35103 0.21683 0.0
N908 N 0.53774 0.32547 0.17627 0.0
N909 N 0.54956 0.29342 0.20417 0.0
C910 C 0.52852 0.30785 0.19409 0.0
C911 C 0.56529 0.3216 0.17473 0.0
C912 C 0.57267 0.30189 0.19199 0.0
C913 C 0.55698 0.38884 0.17211 0.0
O914 O 0.54822 0.37957 0.19479 0.0
H915 H 0.50707 0.30601 0.19996 0.0
H916 H 0.5791 0.33264 0.16211 0.0
O917 O 0.50023 0.33438 0.12724 0.0
H918 H 0.45834 0.3879 0.22988 0.0
H919 H 0.59335 0.29427 0.19525 0.0
Cu920 Cu 0.85538 0.70246 0.53257 0.0
N921 N 0.86347 0.68359 0.50134 0.0
N922 N 0.8647 0.65388 0.46858 0.0
C923 C 0.85418 0.65996 0.49256 0.0
C924 C 0.88073 0.67462 0.46193 0.0
C925 C 0.87997 0.69268 0.482 0.0
O926 O 0.85194 0.67816 0.56272 0.0
C927 C 0.82502 0.7419 0.50635 0.0
O928 O 0.84888 0.74363 0.4941 0.0
H929 H 0.84007 0.64747 0.5034 0.0
H930 H 0.8905 0.71148 0.48223 0.0
N931 N 0.88659 0.72326 0.54153 0.0
N932 N 0.9154 0.75065 0.5631 0.0
C933 C 0.88863 0.74372 0.55852 0.0
C934 C 0.91294 0.71725 0.5353 0.0
C935 C 0.93061 0.73415 0.54824 0.0
C936 C 0.83632 0.65828 0.56685 0.0
O937 O 0.81679 0.65255 0.54973 0.0
H938 H 0.87101 0.75248 0.5683 0.0
H939 H 0.91905 0.70092 0.52302 0.0
O940 O 0.82291 0.72536 0.52531 0.0
H941 H 0.89165 0.67696 0.44349 0.0
H942 H 0.953 0.73403 0.54706 0.0
Cu943 Cu 0.85393 0.35541 0.52387 0.0
N944 N 0.85779 0.37173 0.55704 0.0
N945 N 0.85634 0.39998 0.59097 0.0
C946 C 0.85073 0.39625 0.56506 0.0
C947 C 0.86676 0.37679 0.59952 0.0
C948 C 0.86763 0.35956 0.57868 0.0
O949 O 0.84704 0.38162 0.49612 0.0
C950 C 0.80343 0.33041 0.54179 0.0
O951 O 0.8004 0.35169 0.55611 0.0
H952 H 0.84173 0.41103 0.55223 0.0
H953 H 0.87459 0.33931 0.5793 0.0
N954 N 0.88701 0.3374 0.51529 0.0
N955 N 0.91727 0.31001 0.49567 0.0
C956 C 0.89082 0.31919 0.49626 0.0
C957 C 0.91194 0.34007 0.52693 0.0
C958 C 0.93054 0.32332 0.51493 0.0
C959 C 0.86276 0.40174 0.49373 0.0
O960 O 0.88306 0.40493 0.51073 0.0
H961 H 0.87456 0.31327 0.48282 0.0
H962 H 0.91633 0.35329 0.54306 0.0
O963 O 0.82414 0.32892 0.52622 0.0
H964 H 0.87269 0.37232 0.61961 0.0
H965 H 0.95213 0.32091 0.52025 0.0
Cu966 Cu 0.69798 0.85496 0.47019 0.0
N967 N 0.69143 0.87331 0.50112 0.0
N968 N 0.67811 0.88341 0.54177 0.0
C969 C 0.67954 0.86439 0.52334 0.0
C970 C 0.68981 0.90495 0.53089 0.0
C971 C 0.69798 0.89866 0.5058 0.0
O972 O 0.6615 0.84828 0.45413 0.0
C973 C 0.7382 0.81241 0.46521 0.0
O974 O 0.73967 0.81945 0.44033 0.0
H975 H 0.6721 0.84442 0.52593 0.0
H976 H 0.70837 0.91162 0.49208 0.0
N977 N 0.7158 0.87916 0.44828 0.0
N978 N 0.74622 0.90364 0.42611 0.0
C979 C 0.74259 0.88208 0.44142 0.0
C980 C 0.70245 0.89988 0.43755 0.0
C981 C 0.72107 0.91495 0.42385 0.0
C982 C 0.65767 0.85068 0.42933 0.0
O983 O 0.67932 0.85171 0.41375 0.0
H984 H 0.75906 0.86904 0.44774 0.0
H985 H 0.68065 0.90405 0.44015 0.0
O986 O 0.72091 0.82416 0.48004 0.0
H987 H 0.69297 0.92364 0.54065 0.0
H988 H 0.71664 0.93334 0.41386 0.0
Cu989 Cu 0.23264 0.69986 0.5308 0.0
N990 N 0.21889 0.68096 0.56002 0.0
N991 N 0.21476 0.65203 0.59337 0.0
C992 C 0.23072 0.66061 0.57316 0.0
C993 C 0.19232 0.66793 0.59309 0.0
C994 C 0.19486 0.68554 0.57254 0.0
O995 O 0.23666 0.67583 0.50039 0.0
C996 C 0.27902 0.73603 0.5317 0.0
O997 O 0.26881 0.74484 0.50934 0.0
H998 H 0.2505 0.65212 0.56784 0.0
H999 H 0.18023 0.7008 0.56724 0.0
N1000 N 0.20773 0.72734 0.52235 0.0
N1001 N 0.179 0.7552 0.50117 0.0
C1002 C 0.19458 0.733 0.49944 0.0
C1003 C 0.20048 0.74678 0.53889 0.0
C1004 C 0.18288 0.7639 0.52599 0.0
C1005 C 0.22156 0.65519 0.4983 0.0
O1006 O 0.20314 0.6503 0.51665 0.0
H1007 H 0.19657 0.72122 0.48182 0.0
H1008 H 0.20798 0.74864 0.5589 0.0
O1009 O 0.26757 0.71617 0.54268 0.0
H1010 H 0.1755 0.66739 0.60712 0.0
H1011 H 0.17451 0.78194 0.53401 0.0
Cu1012 Cu 0.38834 0.21233 0.47211 0.0
N1013 N 0.3905 0.19255 0.50311 0.0
N1014 N 0.39979 0.1833 0.54527 0.0
C1015 C 0.40228 0.20104 0.52555 0.0
C1016 C 0.38629 0.1626 0.5346 0.0
C1017 C 0.38049 0.1684 0.50858 0.0
O1018 O 0.4252 0.21278 0.45599 0.0
C1019 C 0.34873 0.24508 0.49413 0.0
O1020 O 0.33954 0.22169 0.50099 0.0
H1021 H 0.41282 0.21978 0.52711 0.0
H1022 H 0.36969 0.15592 0.49473 0.0
N1023 N 0.36587 0.19639 0.44696 0.0
N1024 N 0.33267 0.17402 0.42619 0.0
C1025 C 0.34249 0.18219 0.44973 0.0
C1026 C 0.37074 0.19745 0.42091 0.0
C1027 C 0.35031 0.18368 0.40804 0.0
C1028 C 0.43504 0.19011 0.45019 0.0
O1029 O 0.42086 0.16917 0.45723 0.0
H1030 H 0.33267 0.17836 0.46846 0.0
H1031 H 0.38808 0.20752 0.41193 0.0
O1032 O 0.37122 0.24637 0.4809 0.0
H1033 H 0.3807 0.1447 0.54494 0.0
H1034 H 0.34872 0.18072 0.38699 0.0
Cu1035 Cu 0.22436 0.35507 0.53878 0.0
N1036 N 0.21696 0.37191 0.50632 0.0
N1037 N 0.21553 0.40033 0.47232 0.0
C1038 C 0.22563 0.39548 0.49681 0.0
C1039 C 0.2005 0.37878 0.46611 0.0
C1040 C 0.20138 0.36145 0.487 0.0
O1041 O 0.23324 0.38061 0.56635 0.0
C1042 C 0.27578 0.33391 0.51959 0.0
O1043 O 0.27885 0.35728 0.50883 0.0
H1044 H 0.23882 0.40887 0.50768 0.0
H1045 H 0.19151 0.34234 0.48802 0.0
N1046 N 0.19232 0.33691 0.55011 0.0
N1047 N 0.16365 0.30852 0.57056 0.0
C1048 C 0.19032 0.31448 0.56449 0.0
C1049 C 0.16607 0.34538 0.54712 0.0
C1050 C 0.14844 0.32805 0.55967 0.0
C1051 C 0.21946 0.4019 0.56885 0.0
O1052 O 0.20028 0.40765 0.55134 0.0
H1053 H 0.20814 0.3033 0.57112 0.0
H1054 H 0.16021 0.36327 0.5369 0.0
O1055 O 0.25437 0.32949 0.53368 0.0
H1056 H 0.19004 0.37546 0.44753 0.0
H1057 H 0.12611 0.32971 0.56075 0.0
Cu1058 Cu 0.69047 0.20232 0.57147 0.0
N1059 N 0.68671 0.19008 0.53696 0.0
N1060 N 0.67449 0.18546 0.49474 0.0
C1061 C 0.66991 0.19863 0.51746 0.0
C1062 C 0.69477 0.16802 0.50031 0.0
C1063 C 0.70228 0.17096 0.52622 0.0
O1064 O 0.65372 0.2024 0.58862 0.0
C1065 C 0.73287 0.23701 0.55661 0.0
O1066 O 0.74155 0.21511 0.54569 0.0
H1067 H 0.65457 0.21394 0.52 0.0
H1068 H 0.71844 0.16022 0.53641 0.0
N1069 N 0.71213 0.17739 0.58903 0.0
N1070 N 0.74591 0.1574 0.61143 0.0
C1071 C 0.73662 0.18044 0.60141 0.0
C1072 C 0.70564 0.15173 0.59157 0.0
C1073 C 0.72642 0.13933 0.60543 0.0
C1074 C 0.65072 0.19446 0.6124 0.0
O1075 O 0.67293 0.19013 0.62675 0.0
H1076 H 0.74756 0.19901 0.60276 0.0
H1077 H 0.68696 0.14274 0.58391 0.0
O1078 O 0.71035 0.23628 0.56986 0.0
H1079 H 0.70389 0.15441 0.48645 0.0
H1080 H 0.72694 0.11874 0.611 0.0
Cu1081 Cu 0.40005 0.84832 0.57942 0.0
N1082 N 0.40725 0.8664 0.54807 0.0
N1083 N 0.41838 0.8746 0.50609 0.0
C1084 C 0.41901 0.85685 0.52604 0.0
C1085 C 0.40597 0.89614 0.51619 0.0
C1086 C 0.39903 0.89098 0.54197 0.0
O1087 O 0.43466 0.84252 0.59954 0.0
C1088 C 0.36227 0.80321 0.58295 0.0
O1089 O 0.36019 0.80847 0.60817 0.0
H1090 H 0.42779 0.8373 0.5248 0.0
H1091 H 0.38811 0.904 0.55519 0.0
N1092 N 0.37865 0.87025 0.60074 0.0
N1093 N 0.34395 0.88931 0.62267 0.0
C1094 C 0.35098 0.87118 0.60435 0.0
C1095 C 0.38929 0.88853 0.617 0.0
C1096 C 0.36806 0.90026 0.63048 0.0
C1097 C 0.45346 0.86035 0.59965 0.0
O1098 O 0.45067 0.88052 0.58359 0.0
H1099 H 0.33648 0.85887 0.59376 0.0
H1100 H 0.41109 0.89276 0.61931 0.0
O1101 O 0.37892 0.81677 0.56889 0.0
H1102 H 0.4015 0.91412 0.50548 0.0
H1103 H 0.37032 0.91513 0.64557 0.0
C1104 C 0.12487 0.46898 0.28628 0.0
C1105 C 0.15284 0.4772 0.28619 0.0
C1106 C 0.11497 0.44968 0.26864 0.0
C1107 C 0.13264 0.43778 0.25013 0.0
H1108 H 0.11064 0.47698 0.30062 0.0
H1109 H 0.09356 0.44344 0.27013 0.0
S1110 S 0.20675 0.45485 0.23939 0.0
N1111 N 0.19726 0.47367 0.26421 0.0
N1112 N 0.17903 0.43752 0.2314 0.0
C1113 C 0.16038 0.44665 0.24917 0.0
C1114 C 0.17038 0.46624 0.26709 0.0
C1115 C 0.61709 0.07682 0.26781 0.0
C1116 C 0.64621 0.07423 0.26592 0.0
C1117 C 0.60468 0.09555 0.28449 0.0
C1118 C 0.62083 0.11276 0.29984 0.0
H1119 H 0.60366 0.06465 0.25584 0.0
H1120 H 0.58229 0.09717 0.28465 0.0
S1121 S 0.69766 0.11242 0.30478 0.0
N1122 N 0.69058 0.08917 0.28312 0.0
N1123 N 0.66743 0.12476 0.31355 0.0
C1124 C 0.64987 0.10997 0.29873 0.0
C1125 C 0.6625 0.0907 0.28202 0.0
C1126 C 0.96073 0.60331 0.25922 0.0
C1127 C 0.94323 0.62237 0.24784 0.0
C1128 C 0.95003 0.58336 0.27575 0.0
C1129 C 0.92138 0.5815 0.28132 0.0
H1130 H 0.9829 0.60437 0.25611 0.0
H1131 H 0.96444 0.56967 0.28474 0.0
S1132 S 0.8665 0.62443 0.25297 0.0
N1133 N 0.89568 0.6368 0.24139 0.0
N1134 N 0.87563 0.59906 0.27144 0.0
C1135 C 0.90365 0.5998 0.26897 0.0
C1136 C 0.91455 0.62022 0.2525 0.0
C1137 C 0.43849 0.93597 0.28141 0.0
C1138 C 0.46182 0.94124 0.29748 0.0
C1139 C 0.42383 0.95615 0.26843 0.0
C1140 C 0.43162 0.98272 0.27089 0.0
H1141 H 0.4311 0.91597 0.27898 0.0
H1142 H 0.40574 0.9509 0.25694 0.0
S1143 S 0.49242 1.00739 0.30863 0.0
N1144 N 0.4928 0.97525 0.31383 0.0
N1145 N 0.46548 1.01311 0.2893 0.0
C1146 C 0.45532 0.98834 0.2863 0.0
C1147 C 0.47034 0.96769 0.29955 0.0
C1148 C 0.16828 0.60212 0.78099 0.0
C1149 C 0.1583 0.57614 0.7816 0.0
C1150 C 0.15552 0.62213 0.79553 0.0
C1151 C 0.13199 0.61724 0.81129 0.0
H1152 H 0.18646 0.60697 0.76952 0.0
H1153 H 0.16431 0.64173 0.79424 0.0
S1154 S 0.09686 0.5526 0.81877 0.0
N1155 N 0.12295 0.54657 0.79869 0.0
N1156 N 0.09891 0.58424 0.82605 0.0
C1157 C 0.12164 0.59131 0.81199 0.0
C1158 C 0.13479 0.5708 0.79718 0.0
C1159 C 0.42132 0.11119 0.78812 0.0
C1160 C 0.43156 0.08533 0.79001 0.0
C1161 C 0.43364 0.12998 0.77143 0.0
C1162 C 0.45685 0.12391 0.75564 0.0
H1163 H 0.40391 0.1172 0.80008 0.0
H1164 H 0.42485 0.1496 0.77113 0.0
S1165 S 0.49068 0.05839 0.75176 0.0
N1166 N 0.46559 0.05418 0.77343 0.0
N1167 N 0.48888 0.08953 0.7424 0.0
C1168 C 0.46712 0.09798 0.75702 0.0
C1169 C 0.4545 0.07875 0.77407 0.0
C1170 C 0.90645 0.45246 0.77511 0.0
C1171 C 0.92005 0.47679 0.77179 0.0
C1172 C 0.91692 0.43291 0.79205 0.0
C1173 C 0.94169 0.43648 0.80646 0.0
H1174 H 0.88778 0.44813 0.76411 0.0
H1175 H 0.90557 0.41454 0.79344 0.0
S1176 S 0.98454 0.49715 0.80662 0.0
N1177 N 0.95901 0.5039 0.78593 0.0
N1178 N 0.97902 0.46675 0.81705 0.0
C1179 C 0.95546 0.46074 0.80363 0.0
C1180 C 0.9446 0.48092 0.78653 0.0
C1181 C 0.66342 0.94677 0.7957 0.0
C1182 C 0.65424 0.97288 0.79258 0.0
C1183 C 0.65145 0.92596 0.78137 0.0
C1184 C 0.62973 0.93018 0.76308 0.0
H1185 H 0.67966 0.94225 0.80976 0.0
H1186 H 0.65939 0.9063 0.7848 0.0
S1187 S 0.59917 0.99524 0.74628 0.0
N1188 N 0.62283 1.00202 0.76883 0.0
N1189 N 0.60026 0.963 0.74215 0.0
C1190 C 0.62053 0.95629 0.75954 0.0
C1191 C 0.63276 0.97754 0.77418 0.0
C1192 C 0.26935 0.14795 0.39208 0.0
C1193 C 0.26137 0.12691 0.4084 0.0
C1194 C 0.29242 0.16347 0.39827 0.0
C1195 C 0.30838 0.15845 0.42095 0.0
H1196 H 0.25749 0.1526 0.37454 0.0
H1197 H 0.29773 0.17964 0.38527 0.0
S1198 S 0.29728 0.10436 0.46905 0.0
N1199 N 0.27178 0.10106 0.44755 0.0
N1200 N 0.31537 0.13016 0.45911 0.0
C1201 C 0.30071 0.13735 0.43737 0.0
C1202 C 0.27714 0.12159 0.4311 0.0
C1203 C 0.95757 0.29169 0.47106 0.0
C1204 C 0.92928 0.29042 0.47823 0.0
C1205 C 0.96949 0.2732 0.45374 0.0
C1206 C 0.95355 0.2528 0.4427 0.0
H1207 H 0.9705 0.30749 0.47837 0.0
H1208 H 0.99103 0.27546 0.44825 0.0
S1209 S 0.87975 0.23834 0.45763 0.0
N1210 N 0.88668 0.26509 0.47483 0.0
N1211 N 0.90865 0.23108 0.44196 0.0
C1212 C 0.92558 0.25077 0.45039 0.0
C1213 C 0.91355 0.26936 0.46816 0.0
C1214 C 0.79588 0.91401 0.43121 0.0
C1215 C 0.7717 0.91389 0.4157 0.0
C1216 C 0.82025 0.92596 0.42208 0.0
C1217 C 0.82127 0.93784 0.39704 0.0
H1218 H 0.7957 0.90544 0.45076 0.0
H1219 H 0.83846 0.92582 0.43459 0.0
S1220 S 0.76372 0.94213 0.34865 0.0
N1221 N 0.75049 0.92588 0.37387 0.0
N1222 N 0.79605 0.94881 0.35698 0.0
C1223 C 0.79733 0.93751 0.38125 0.0
C1224 C 0.77259 0.92542 0.39053 0.0
C1225 C 0.15956 0.78203 0.43424 0.0
C1226 C 0.13475 0.79603 0.4389 0.0
C1227 C 0.17353 0.76847 0.45446 0.0
C1228 C 0.16352 0.76835 0.48041 0.0
H1229 H 0.16845 0.78144 0.4147 0.0
H1230 H 0.19265 0.75838 0.44981 0.0
S1231 S 0.0988 0.80059 0.50323 0.0
N1232 N 0.10038 0.8081 0.4716 0.0
N1233 N 0.12654 0.78255 0.50953 0.0
C1234 C 0.13863 0.78203 0.48543 0.0
C1235 C 0.12431 0.79585 0.46475 0.0
C1236 C 0.28722 0.92626 0.65696 0.0
C1237 C 0.26755 0.90652 0.66225 0.0
C1238 C 0.31144 0.92068 0.64294 0.0
C1239 C 0.31708 0.89514 0.63364 0.0
H1240 H 0.28451 0.94594 0.66467 0.0
H1241 H 0.32625 0.93642 0.63992 0.0
S1242 S 0.27072 0.83707 0.63967 0.0
N1243 N 0.2539 0.86101 0.65465 0.0
N1244 N 0.30001 0.85026 0.62929 0.0
C1245 C 0.29695 0.87549 0.63763 0.0
C1246 C 0.27211 0.88123 0.65176 0.0
C1247 C 0.11986 0.26939 0.61856 0.0
C1248 C 0.131 0.24377 0.61703 0.0
C1249 C 0.13057 0.29031 0.60336 0.0
C1250 C 0.15313 0.2867 0.58615 0.0
H1251 H 0.10281 0.27345 0.63175 0.0
H1252 H 0.12136 0.30964 0.60542 0.0
S1253 S 0.18927 0.22354 0.57365 0.0
N1254 N 0.16565 0.21606 0.5959 0.0
N1255 N 0.18551 0.25532 0.56769 0.0
C1256 C 0.16433 0.26124 0.5842 0.0
C1257 C 0.15333 0.23984 0.59947 0.0
C1258 C 0.80518 0.16713 0.65862 0.0
C1259 C 0.82115 0.1445 0.65434 0.0
C1260 C 0.78059 0.17137 0.64439 0.0
C1261 C 0.77131 0.15297 0.62564 0.0
H1262 H 0.81189 0.1816 0.67291 0.0
H1263 H 0.76859 0.18895 0.64825 0.0
S1264 S 0.80719 0.09134 0.60654 0.0
N1265 N 0.827 0.10408 0.62984 0.0
N1266 N 0.7809 0.11189 0.60287 0.0
C1267 C 0.78742 0.13036 0.62117 0.0
C1268 C 0.81237 0.12617 0.63559 0.0
C1269 C 0.91326 0.79546 0.58229 0.0
C1270 C 0.92597 0.77061 0.58085 0.0
C1271 C 0.92404 0.81546 0.59853 0.0
C1272 C 0.94787 0.81144 0.61432 0.0
H1273 H 0.8951 0.79961 0.57041 0.0
H1274 H 0.9134 0.83424 0.59875 0.0
S1275 S 0.98774 0.74899 0.61903 0.0
N1276 N 0.96292 0.74258 0.59754 0.0
N1277 N 0.98314 0.77993 0.62793 0.0
C1278 C 0.96052 0.78644 0.6133 0.0
C1279 C 0.9496 0.76614 0.59664 0.0
C1280 C 0.47646 0.29223 0.09243 0.0
C1281 C 0.46194 0.30768 0.11069 0.0
C1282 C 0.4624 0.27508 0.07512 0.0
C1283 C 0.43315 0.27282 0.07507 0.0
H1284 H 0.4989 0.29263 0.09215 0.0
H1285 H 0.47469 0.26304 0.06207 0.0
S1286 S 0.38539 0.31179 0.11693 0.0
N1287 N 0.41662 0.3211 0.12645 0.0
N1288 N 0.39031 0.28981 0.09352 0.0
C1289 C 0.41842 0.28904 0.09261 0.0
C1290 C 0.43276 0.30621 0.11042 0.0
C1291 C 0.41554 0.78519 0.96096 0.0
C1292 C 0.42788 0.79147 0.98525 0.0
C1293 C 0.42784 0.76717 0.9436 0.0
C1294 C 0.45312 0.7544 0.94961 0.0
H1295 H 0.39673 0.79505 0.95476 0.0
H1296 H 0.41764 0.76382 0.92489 0.0
S1297 S 0.49233 0.76137 1.01218 0.0
N1298 N 0.46562 0.7814 1.01559 0.0
N1299 N 0.48891 0.74794 0.98277 0.0
C1300 C 0.46507 0.75952 0.97439 0.0
C1301 C 0.45248 0.77794 0.99217 0.0
C1302 C 0.30726 0.40619 0.92463 0.0
C1303 C 0.30967 0.42306 0.9027 0.0
C1304 C 0.28208 0.39397 0.9308 0.0
C1305 C 0.25832 0.39823 0.91529 0.0
H1306 H 0.32483 0.40299 0.93756 0.0
H1307 H 0.28088 0.38219 0.94857 0.0
S1308 S 0.25418 0.43824 0.85416 0.0
N1309 N 0.28641 0.44199 0.86447 0.0
N1310 N 0.23938 0.4182 0.87558 0.0
C1311 C 0.26082 0.41375 0.89244 0.0
C1312 C 0.28642 0.42634 0.88622 0.0
C1313 C 0.64581 0.25917 0.96009 0.0
C1314 C 0.64554 0.26694 0.98663 0.0
C1315 C 0.63061 0.27288 0.94081 0.0
C1316 C 0.61439 0.29515 0.94702 0.0
H1317 H 0.65746 0.24196 0.95419 0.0
H1318 H 0.63155 0.26567 0.92079 0.0
S1319 S 0.60789 0.32478 1.01343 0.0
N1320 N 0.62862 0.29927 1.01798 0.0
N1321 N 0.59985 0.32483 0.98179 0.0
C1322 C 0.61419 0.30342 0.97346 0.0
C1323 C 0.62974 0.28938 0.99319 0.0
C1324 C 0.75989 0.65112 0.91806 0.0
C1325 C 0.76055 0.63219 0.89791 0.0
C1326 C 0.78189 0.66869 0.92177 0.0
C1327 C 0.80529 0.66804 0.90541 0.0
H1328 H 0.74217 0.6524 0.93102 0.0
H1329 H 0.78058 0.68299 0.9375 0.0
S1330 S 0.81799 0.62119 0.8509 0.0
N1331 N 0.78702 0.61313 0.86208 0.0
N1332 N 0.82839 0.64631 0.86899 0.0
C1333 C 0.80624 0.64926 0.88516 0.0
C1334 C 0.78385 0.63129 0.88141 0.0
C1335 C 0.62968 0.76573 0.11421 0.0
C1336 C 0.60462 0.75296 0.1074 0.0
C1337 C 0.64528 0.78004 0.09567 0.0
C1338 C 0.63673 0.78235 0.06926 0.0
H1339 H 0.63758 0.76461 0.13417 0.0
H1340 H 0.66452 0.789 0.10203 0.0
S1341 S 0.57177 0.75437 0.04124 0.0
N1342 N 0.57153 0.74457 0.07228 0.0
N1343 N 0.60051 0.77168 0.03755 0.0
C1344 C 0.61151 0.77001 0.06214 0.0
C1345 C 0.5956 0.75531 0.08111 0.0
C1346 C 0.25796 0.64331 0.12247 0.0
C1347 C 0.25704 0.66699 0.13666 0.0
C1348 C 0.27879 0.62466 0.12724 0.0
C1349 C 0.29954 0.62911 0.14626 0.0
H1350 H 0.24209 0.63895 0.108 0.0
H1351 H 0.27833 0.60641 0.11629 0.0
S1352 S 0.30801 0.68951 0.18647 0.0
N1353 N 0.27954 0.6948 0.16912 0.0
N1354 N 0.31904 0.65999 0.17782 0.0
C1355 C 0.29924 0.65308 0.16007 0.0
C1356 C 0.27791 0.67197 0.15532 0.0
C1357 C 0.78885 0.42613 0.16783 0.0
C1358 C 0.76828 0.42892 0.14836 0.0
C1359 C 0.81256 0.41095 0.16331 0.0
C1360 C 0.81656 0.39787 0.13924 0.0
H1361 H 0.78728 0.43675 0.18621 0.0
H1362 H 0.82836 0.41008 0.17848 0.0
S1363 S 0.76733 0.39658 0.08298 0.0
N1364 N 0.75208 0.41535 0.10512 0.0
N1365 N 0.79705 0.38736 0.09632 0.0
C1366 C 0.79545 0.39934 0.12014 0.0
C1367 C 0.77126 0.41481 0.12476 0.0
C1368 C 1.0126 0.28566 0.29903 0.0
C1369 C 1.0247 0.26345 0.31103 0.0
C1370 C 1.02867 0.30349 0.28442 0.0
C1371 C 0.05736 0.29965 0.28133 0.0
H1372 H 0.99076 0.28973 0.30173 0.0
H1373 H 1.01879 0.32084 0.27625 0.0
S1374 S 0.09798 0.24235 0.30531 0.0
N1375 N 0.06634 0.23706 0.31642 0.0
N1376 N 0.09653 0.27052 0.289 0.0
C1377 C 0.0694 0.27686 0.29219 0.0
C1378 C 0.05307 0.25877 0.30703 0.0
C1379 C 0.83486 0.97695 0.25812 0.0
C1380 C 0.83416 0.98946 0.28278 0.0
C1381 C 0.8146 0.98213 0.23871 0.0
C1382 C 0.79264 0.99999 0.24311 0.0
H1383 H 0.85136 0.96325 0.25359 0.0
H1384 H 0.81626 0.97198 0.22006 0.0
S1385 S 0.78047 0.03714 0.30488 0.0
N1386 N 0.80888 1.02002 0.31078 0.0
N1387 N 0.77121 0.02965 0.27452 0.0
C1388 C 0.79152 1.01238 0.26783 0.0
C1389 C 0.81211 1.00715 0.28755 0.0
C1390 C 1.01962 0.76756 0.27465 0.0
C1391 C 1.01881 0.74024 0.27005 0.0
C1392 C 1.03406 0.77802 0.29616 0.0
C1393 C 0.04838 0.76158 0.31391 0.0
H1394 H 1.00863 0.781 0.26173 0.0
H1395 H 1.03301 0.79905 0.29946 0.0
S1396 S 0.05479 0.6889 0.3097 0.0
N1397 N 1.03454 0.69701 0.28473 0.0
N1398 N 0.06292 0.71689 0.32423 0.0
C1399 C 0.0489 0.73437 0.30886 0.0
C1400 C 1.03387 0.72364 0.28716 0.0
C1401 C 0.25755 0.07773 0.28304 0.0
C1402 C 0.23793 0.05719 0.28331 0.0
C1403 C 0.28145 0.07649 0.26726 0.0
C1404 C 0.28702 0.05463 0.25095 0.0
H1405 H 0.25485 0.09472 0.29562 0.0
H1406 H 0.29597 0.09273 0.26834 0.0
S1407 S 0.24144 0.99626 0.24285 0.0
N1408 N 0.22514 1.01475 0.26453 0.0
N1409 N 0.26995 1.0125 0.23516 0.0
C1410 C 0.26719 0.03429 0.2504 0.0
C1411 C 0.24276 0.03556 0.26644 0.0
C1412 C 1.03498 0.7589 0.78963 0.0
C1413 C 0.04939 0.73993 0.77495 0.0
C1414 C 1.02144 0.77996 0.77719 0.0
C1415 C 1.02176 0.78286 0.74961 0.0
H1416 H 1.03307 0.75683 0.81077 0.0
H1417 H 1.01014 0.7938 0.78925 0.0
S1418 S 0.05883 0.73967 0.70248 0.0
N1419 N 0.06548 0.72672 0.73167 0.0
N1420 N 1.03889 0.76542 0.70812 0.0
C1421 C 1.03713 0.76462 0.7348 0.0
C1422 C 0.05118 0.74337 0.74752 0.0
C1423 C 0.27134 1.00961 0.76465 0.0
C1424 C 0.24723 0.99454 0.76938 0.0
C1425 C 0.28886 1.01786 0.78522 0.0
C1426 C 0.28326 1.01142 0.81165 0.0
H1427 H 0.2771 1.01491 0.74473 0.0
H1428 H 0.30728 0.02896 0.78019 0.0
S1429 S 0.22204 0.9735 0.83515 0.0
N1430 N 0.21817 0.97442 0.80285 0.0
N1431 N 0.25091 0.98979 0.84149 0.0
C1432 C 0.25882 0.9969 0.81681 0.0
C1433 C 0.2409 0.98854 0.79576 0.0
C1434 C 1.03437 0.26495 0.75657 0.0
C1435 C 0.06331 0.26797 0.75733 0.0
C1436 C 1.01689 0.28287 0.76921 0.0
C1437 C 1.02766 0.30461 0.78299 0.0
H1438 H 1.02518 0.24849 0.7462 0.0
H1439 H 0.99473 0.27964 0.76824 0.0
S1440 S 0.10211 0.32211 0.78953 0.0
N1441 N 0.10206 0.29458 0.7723 0.0
N1442 N 0.06925 0.32862 0.79576 0.0
C1443 C 0.05664 0.30786 0.7839 0.0
C1444 C 0.07445 0.28945 0.77114 0.0
C1445 C 0.83538 0.04326 0.79128 0.0
C1446 C 0.83815 0.06624 0.77568 0.0
C1447 C 0.8108 0.03758 0.80522 0.0
C1448 C 0.78765 0.05443 0.80396 0.0
H1449 H 0.85225 0.02925 0.79253 0.0
H1450 H 0.80978 1.01955 0.81663 0.0
S1451 S 0.78428 0.11779 0.76689 0.0
N1452 N 0.81561 0.1064 0.76071 0.0
N1453 N 0.7697 0.09583 0.78648 0.0
C1454 C 0.79035 0.07775 0.78884 0.0
C1455 C 0.81544 0.08363 0.77488 0.0
C1456 C 0.26789 0.29468 1.01165 0.0
C1457 C 0.24436 0.29061 0.99554 0.0
C1458 C 0.28616 0.27407 1.01821 0.0
C1459 C 0.28191 0.24825 1.00901 0.0
H1460 H 0.27251 0.3141 1.01926 0.0
H1461 H 0.304 0.27859 0.03039 0.0
S1462 S 0.22303 0.22659 0.96675 0.0
N1463 N 0.21758 0.2584 0.97098 0.0
N1464 N 0.25171 0.2197 0.9832 0.0
C1465 C 0.25822 0.24375 0.99314 0.0
C1466 C 0.23957 0.26483 0.98645 0.0
C1467 C 0.23902 0.80192 0.07064 0.0
C1468 C 0.23983 0.77809 0.0566 0.0
C1469 C 0.25857 0.82205 0.06596 0.0
C1470 C 0.27973 0.81928 0.04698 0.0
H1471 H 0.22378 0.80473 0.08599 0.0
H1472 H 0.25742 0.8397 0.07783 0.0
S1473 S 0.28892 0.76188 1.00269 0.0
N1474 N 0.26221 0.75384 1.02127 0.0
N1475 N 0.29869 0.79139 1.01263 0.0
C1476 C 0.27998 0.79597 0.03204 0.0
C1477 C 0.26013 0.77552 0.0368 0.0
C1478 C 0.81216 0.28847 0.04623 0.0
C1479 C 0.83488 0.28522 0.06356 0.0
C1480 C 0.79425 0.26754 0.03997 0.0
C1481 C 0.79805 0.24218 0.0507 0.0
H1482 H 0.80785 0.30754 0.03751 0.0
H1483 H 0.77694 0.27149 1.02691 0.0
S1484 S 0.85504 0.22255 0.09625 0.0
N1485 N 0.86062 0.25417 0.09069 0.0
N1486 N 0.82714 0.21485 0.07902 0.0
C1487 C 0.82104 0.23843 0.06765 0.0
C1488 C 0.83934 0.25986 0.07404 0.0
C1489 C 0.8259 0.77916 1.00564 0.0
C1490 C 0.82867 0.78322 0.9783 0.0
C1491 C 0.80515 0.792 1.02026 0.0
C1492 C 0.78634 0.80968 1.00829 0.0
H1493 H 0.83908 0.76506 1.0157 0.0
H1494 H 0.80347 0.78746 0.04104 0.0
S1495 S 0.78677 0.82952 0.93773 0.0
N1496 N 0.81214 0.80784 0.94025 0.0
N1497 N 0.77356 0.83207 0.96755 0.0
C1498 C 0.78984 0.81492 0.98119 0.0
C1499 C 0.81082 0.80169 0.96629 0.0
C1500 C 0.53432 0.80709 0.81937 0.0
C1501 C 0.54433 0.78286 0.82881 0.0
C1502 C 0.5451 0.8185 0.79645 0.0
C1503 C 0.56654 0.80622 0.78231 0.0
H1504 H 0.51777 0.81709 0.82966 0.0
H1505 H 0.53628 0.83687 0.78955 0.0
S1506 S 0.60174 0.7437 0.80067 0.0
N1507 N 0.5777 0.74757 0.82339 0.0
N1508 N 0.59865 0.76925 0.78067 0.0
C1509 C 0.57712 0.78218 0.79197 0.0
C1510 C 0.56585 0.77044 0.81513 0.0
C1511 C 0.32433 0.48115 0.7844 0.0
C1512 C 0.34279 0.50243 0.78735 0.0
C1513 C 0.30141 0.48268 0.76737 0.0
C1514 C 0.29572 0.50558 0.75248 0.0
H1515 H 0.32711 0.46331 0.79586 0.0
H1516 H 0.28765 0.46585 0.76647 0.0
S1517 S 0.33875 0.56621 0.75123 0.0
N1518 N 0.35468 0.5467 0.77248 0.0
N1519 N 0.31156 0.54951 0.74068 0.0
C1520 C 0.31454 0.52667 0.75444 0.0
C1521 C 0.33803 0.52511 0.77178 0.0
C1522 C 0.53394 0.28232 0.80421 0.0
C1523 C 0.52838 0.27008 0.82849 0.0
C1524 C 0.53266 0.26818 0.78064 0.0
C1525 C 0.5257 0.24128 0.78039 0.0
H1526 H 0.53935 0.303 0.80342 0.0
H1527 H 0.53735 0.27834 0.76241 0.0
S1528 S 0.51007 0.19973 0.83861 0.0
N1529 N 0.51609 0.22928 0.85089 0.0
N1530 N 0.51351 0.20279 0.80641 0.0
C1531 C 0.51963 0.22884 0.80442 0.0
C1532 C 0.52103 0.24322 0.82852 0.0
C1533 C 0.75777 0.56302 0.75245 0.0
C1534 C 0.77773 0.54267 0.75121 0.0
C1535 C 0.74006 0.56589 0.7743 0.0
C1536 C 0.74163 0.54869 0.79605 0.0
H1537 H 0.75608 0.57725 0.73659 0.0
H1538 H 0.72557 0.58218 0.77443 0.0
S1539 S 0.7887 0.4909 0.80206 0.0
N1540 N 0.79671 0.50413 0.77336 0.0
N1541 N 0.76377 0.50948 0.81415 0.0
C1542 C 0.76089 0.52777 0.79472 0.0
C1543 C 0.77878 0.52477 0.77244 0.0
C1544 C 0.52557 0.23402 0.24174 0.0
C1545 C 0.54436 0.23294 0.26301 0.0
C1546 C 0.52722 0.25396 0.22269 0.0
C1547 C 0.54789 0.27335 0.22407 0.0
H1548 H 0.50952 0.21925 0.23975 0.0
H1549 H 0.5125 0.25406 0.20654 0.0
S1550 S 0.60066 0.28086 0.27668 0.0
N1551 N 0.5832 0.25415 0.28508 0.0
N1552 N 0.58663 0.29125 0.24883 0.0
C1553 C 0.56671 0.27268 0.24521 0.0
C1554 C 0.56489 0.25254 0.26478 0.0
C1555 C 0.77146 0.53145 0.29922 0.0
C1556 C 0.7931 0.51293 0.29803 0.0
C1557 C 0.74781 0.5292 0.283 0.0
C1558 C 0.74459 0.50815 0.26511 0.0
H1559 H 0.77317 0.54831 0.31214 0.0
H1560 H 0.7322 0.54447 0.28414 0.0
S1561 S 0.79416 0.45293 0.25615 0.0
N1562 N 0.80884 0.47177 0.27865 0.0
N1563 N 0.76464 0.46751 0.24855 0.0
C1564 C 0.76556 0.48887 0.26461 0.0
C1565 C 0.78971 0.49129 0.28091 0.0
C1566 C 0.5439 0.80166 0.2225 0.0
C1567 C 0.52204 0.78344 0.22251 0.0
C1568 C 0.54675 0.82007 0.24277 0.0
C1569 C 0.52803 0.82076 0.264 0.0
H1570 H 0.55877 0.80175 0.20656 0.0
H1571 H 0.56381 0.83391 0.24182 0.0
S1572 S 0.46827 0.77587 0.27397 0.0
N1573 N 0.48184 0.76647 0.24571 0.0
N1574 N 0.48748 0.80078 0.2842 0.0
C1575 C 0.50607 0.80255 0.26425 0.0
C1576 C 0.50304 0.78393 0.24343 0.0
C1577 C 0.30589 0.56639 0.26586 0.0
C1578 C 0.32838 0.54878 0.26713 0.0
C1579 C 0.283 0.56383 0.28272 0.0
C1580 C 0.28145 0.54363 0.30185 0.0
H1581 H 0.30551 0.58194 0.25121 0.0
H1582 H 0.26616 0.57775 0.28041 0.0
S1583 S 0.33565 0.4933 0.31472 0.0
N1584 N 0.3482 0.51103 0.29017 0.0
N1585 N 0.30527 0.5064 0.32182 0.0
C1586 C 0.30418 0.52638 0.30398 0.0
C1587 C 0.32754 0.5289 0.28667 0.0
C1588 C 0.80237 0.76879 0.47087 0.0
C1589 C 0.8013 0.75842 0.49665 0.0
C1590 C 0.78157 0.78542 0.46089 0.0
C1591 C 0.75866 0.79294 0.47623 0.0
H1592 H 0.8196 0.76411 0.45809 0.0
H1593 H 0.78393 0.7929 0.44102 0.0
S1594 S 0.74527 0.77084 0.54492 0.0
N1595 N 0.77479 0.75634 0.53718 0.0
N1596 N 0.73584 0.78799 0.51867 0.0
C1597 C 0.75699 0.78243 0.502 0.0
C1598 C 0.77818 0.7651 0.5121 0.0
C1599 C 0.77299 0.26116 0.53634 0.0
C1600 C 0.74957 0.26166 0.55294 0.0
C1601 C 0.78977 0.28347 0.53251 0.0
C1602 C 0.7841 0.30748 0.54516 0.0
H1603 H 0.77868 0.24326 0.52615 0.0
H1604 H 0.8076 0.28165 0.51975 0.0
S1605 S 0.72481 0.31983 0.59015 0.0
N1606 N 0.72127 0.28862 0.58171 0.0
N1607 N 0.75271 0.33053 0.57468 0.0
C1608 C 0.76051 0.30846 0.56159 0.0
C1609 C 0.74332 0.28563 0.56542 0.0
C1610 C 0.3384 0.78475 0.54276 0.0
C1611 C 0.3429 0.7839 0.5702 0.0
C1612 C 0.31831 0.76877 0.53051 0.0
C1613 C 0.30201 0.75082 0.54501 0.0
H1614 H 0.34986 0.79852 0.53061 0.0
H1615 H 0.31527 0.77082 0.50946 0.0
S1616 S 0.30664 0.73957 0.61722 0.0
N1617 N 0.32996 0.76266 0.61137 0.0
N1618 N 0.29268 0.73246 0.58839 0.0
C1619 C 0.30699 0.74903 0.57234 0.0
C1620 C 0.32723 0.76558 0.58489 0.0
C1621 C 0.29108 0.28676 0.52381 0.0
C1622 C 0.296 0.31227 0.51397 0.0
C1623 C 0.30858 0.2656 0.51764 0.0
C1624 C 0.33198 0.2688 0.50132 0.0
H1625 H 0.27324 0.28286 0.53613 0.0
H1626 H 0.30337 0.24642 0.52561 0.0
S1627 S 0.3552 0.33179 0.47134 0.0
N1628 N 0.32688 0.33971 0.48769 0.0
N1629 N 0.35968 0.29988 0.47617 0.0
C1630 C 0.33765 0.29431 0.49183 0.0
C1631 C 0.31973 0.31598 0.4981 0.0
C1632 C 0.17022 0.36745 0.11625 0.0
C1633 C 0.14263 0.36213 0.12321 0.0
C1634 C 0.17803 0.36962 0.0898 0.0
C1635 C 0.15864 0.36589 0.06943 0.0
H1636 H 0.18573 0.37037 0.13143 0.0
H1637 H 0.19942 0.37405 0.08517 0.0
S1638 S 0.08405 0.35067 0.07731 0.0
N1639 N 0.09596 0.35278 0.10778 0.0
N1640 N 0.11085 0.35629 0.05788 0.0
C1641 C 0.1311 0.36009 0.0761 0.0
C1642 C 0.12302 0.35841 0.10307 0.0
C1643 C 0.69924 0.08593 0.11669 0.0
C1644 C 0.71556 0.08208 0.13954 0.0
C1645 C 0.70171 0.10884 0.10112 0.0
C1646 C 0.72031 0.12901 0.10795 0.0
H1647 H 0.68403 0.07132 0.11095 0.0
H1648 H 0.68821 0.11126 0.08421 0.0
S1649 S 0.76957 0.12809 0.16419 0.0
N1650 N 0.75242 0.10006 0.16695 0.0
N1651 N 0.75677 0.14293 0.13786 0.0
C1652 C 0.73743 0.12508 0.13011 0.0
C1653 C 0.73515 0.1017 0.14582 0.0
C1654 C 0.90358 0.70097 0.09666 0.0
C1655 C 0.92094 0.68117 0.10689 0.0
C1656 C 0.89547 0.70092 0.07017 0.0
C1657 C 0.90404 0.68083 0.05306 0.0
H1658 H 0.89646 0.71677 0.1092 0.0
H1659 H 0.88212 0.71655 0.06305 0.0
S1660 S 0.94946 0.62439 0.07015 0.0
N1661 N 0.94637 0.64089 0.09797 0.0
N1662 N 0.93106 0.64079 0.04805 0.0
C1663 C 0.92131 0.66085 0.06303 0.0
C1664 C 0.92985 0.66106 0.08997 0.0
C1665 C 0.33333 0.94507 0.10735 0.0
C1666 C 0.35729 0.92939 0.10936 0.0
C1667 C 0.32898 0.9666 0.12431 0.0
C1668 C 0.34849 0.97348 0.14393 0.0
H1669 H 0.31747 0.94021 0.09304 0.0
H1670 H 0.30997 0.97773 0.12217 0.0
S1671 S 0.41608 0.94016 0.15544 0.0
N1672 N 0.40173 0.92342 0.13116 0.0
N1673 N 0.39364 0.96344 0.16302 0.0
C1674 C 0.37295 0.95833 0.14554 0.0
C1675 C 0.37731 0.93646 0.1283 0.0
C1676 C 0.13911 0.6756 0.94826 0.0
C1677 C 0.14141 0.69889 0.93328 0.0
C1678 C 0.14831 0.67436 0.97442 0.0
C1679 C 0.16031 0.69634 0.98681 0.0
H1680 H 0.13022 0.65801 0.93969 0.0
H1681 H 0.14558 0.65609 0.98514 0.0
S1682 S 0.17218 0.76189 0.95616 0.0
N1683 N 0.15678 0.74455 0.93289 0.0
N1684 N 0.1752 0.74186 0.98168 0.0
C1685 C 0.16324 0.71967 0.97198 0.0
C1686 C 0.15362 0.72102 0.94532 0.0
C1687 C 0.37375 0.09371 0.94053 0.0
C1688 C 0.35927 0.09252 0.91633 0.0
C1689 C 0.37198 0.11585 0.95707 0.0
C1690 C 0.35602 0.1379 0.94991 0.0
H1691 H 0.387 0.07757 0.9466 0.0
H1692 H 0.38409 0.1162 0.97505 0.0
S1693 S 0.31229 0.14427 0.89001 0.0
N1694 N 0.3269 0.11501 0.88712 0.0
N1695 N 0.32393 0.15654 0.91802 0.0
C1696 C 0.34068 0.13666 0.92632 0.0
C1697 C 0.34218 0.11402 0.90963 0.0
C1698 C 0.91834 0.34368 0.97936 0.0
C1699 C 0.9196 0.36764 0.99313 0.0
C1700 C 0.92548 0.34231 0.95265 0.0
C1701 C 0.93434 0.3648 0.93871 0.0
H1702 H 0.91113 0.32599 0.98914 0.0
H1703 H 0.92414 0.32344 0.94285 0.0
S1704 S 0.94227 0.43211 0.96603 0.0
N1705 N 0.93159 0.41413 0.99117 0.0
N1706 N 0.94413 0.41174 0.94083 0.0
C1707 C 0.93611 0.3888 0.95237 0.0
C1708 C 0.92892 0.39017 0.97958 0.0
C1709 C 0.72036 0.9154 0.92832 0.0
C1710 C 0.70785 0.92539 0.95116 0.0
C1711 C 0.72735 0.93206 0.9071 0.0
C1712 C 0.7226 0.9595 0.90808 0.0
H1713 H 0.72393 0.89442 0.92652 0.0
H1714 H 0.7362 0.92327 0.88964 0.0
S1715 S 0.69271 0.99563 0.96486 0.0
N1716 N 0.69261 0.96448 0.97432 0.0
N1717 N 0.70597 0.99585 0.93493 0.0
C1718 C 0.71112 0.96978 0.9314 0.0
C1719 C 0.70366 0.95274 0.95277 0.0
C1720 C 0.11988 0.15309 0.37683 0.0
C1721 C 0.12123 0.13017 0.36107 0.0
C1722 C 0.09468 0.16631 0.38148 0.0
C1723 C 0.06979 0.15744 0.37021 0.0
H1724 H 0.13852 0.16106 0.38568 0.0
H1725 H 0.09489 0.18406 0.39325 0.0
S1726 S 0.06126 0.0977 0.32878 0.0
N1727 N 0.09478 0.0986 0.33539 0.0
N1728 N 0.04773 0.12356 0.34361 0.0
C1729 C 0.07068 0.13428 0.35489 0.0
C1730 C 0.09624 0.12062 0.35048 0.0
C1731 C 0.96934 0.09925 0.35935 0.0
C1732 C 0.94721 0.11295 0.37086 0.0
C1733 C 0.96527 0.07462 0.3477 0.0
C1734 C 0.93887 0.06285 0.34696 0.0
H1735 H 0.99009 0.10737 0.35995 0.0
H1736 H 0.98309 0.06447 0.33975 0.0
S1737 S 0.87367 0.09227 0.37209 0.0
N1738 N 0.89789 0.11399 0.37968 0.0
N1739 N 0.88984 0.06794 0.35704 0.0
C1740 C 0.9164 0.07677 0.35782 0.0
C1741 C 0.92068 0.10176 0.36996 0.0
C1742 C 0.97478 0.89886 0.33515 0.0
C1743 C 0.96482 0.914 0.35618 0.0
C1744 C 0.99674 0.881 0.33873 0.0
C1745 C 1.00953 0.87725 0.36355 0.0
H1746 H 0.96625 0.90148 0.31556 0.0
H1747 H 1.0041 0.8704 0.32165 0.0
S1748 S 0.98919 0.91006 0.42568 0.0
N1749 N 0.96805 0.92257 0.40328 0.0
N1750 N 1.00911 0.88898 0.40985 0.0
C1751 C 0.99886 0.89132 0.385 0.0
C1752 C 0.97663 0.90969 0.38134 0.0
C1753 C 0.14873 0.96211 0.33985 0.0
C1754 C 0.15732 0.97244 0.36419 0.0
C1755 C 0.13848 0.93622 0.33798 0.0
C1756 C 0.1361 0.92004 0.36046 0.0
H1757 H 0.15097 0.97377 0.32208 0.0
H1758 H 0.13244 0.92876 0.31885 0.0
S1759 S 0.15489 0.93849 0.42886 0.0
N1760 N 0.16189 0.96504 0.41122 0.0
N1761 N 0.14292 0.91652 0.40779 0.0
C1762 C 0.14398 0.93051 0.38496 0.0
C1763 C 0.15452 0.95667 0.38679 0.0
C1764 C 0.07082 0.90881 0.71769 0.0
C1765 C 0.06138 0.89558 0.69492 0.0
C1766 C 0.09717 0.92069 0.71886 0.0
C1767 C 0.11535 0.91996 0.69728 0.0
H1768 H 0.05776 0.91006 0.73494 0.0
H1769 H 0.10325 0.93062 0.73681 0.0
S1770 S 0.10102 0.88748 0.63297 0.0
N1771 N 0.07267 0.88232 0.65032 0.0
N1772 N 0.12192 0.90444 0.65231 0.0
C1773 C 0.1062 0.9067 0.67436 0.0
C1774 C 0.07936 0.8946 0.67322 0.0
C1775 C 0.17863 0.07325 0.69968 0.0
C1776 C 0.16731 0.0565 0.68046 0.0
C1777 C 0.17158 0.10001 0.70055 0.0
C1778 C 0.15257 0.11094 0.68251 0.0
H1779 H 0.19339 0.06565 0.7139 0.0
H1780 H 0.18088 0.11224 0.7156 0.0
S1781 S 0.11651 0.07531 0.62878 0.0
N1782 N 0.13575 0.05257 0.64329 0.0
N1783 N 0.12251 0.10295 0.64491 0.0
C1784 C 0.14084 0.09436 0.66338 0.0
C1785 C 0.14826 0.06713 0.66232 0.0
C1786 C 1.00005 0.17468 0.69816 0.0
C1787 C 1.02323 0.15927 0.70492 0.0
C1788 C 0.973 0.16661 0.7047 0.0
C1789 C 0.96783 0.14253 0.71784 0.0
H1790 H 1.00286 0.1935 0.68841 0.0
H1791 H 0.95594 0.17934 0.69911 0.0
S1792 S 1.02134 0.09429 0.73877 0.0
N1793 N 1.03919 0.11844 0.72503 0.0
N1794 N 0.98844 0.10302 0.73658 0.0
C1795 C 0.99081 0.12665 0.72414 0.0
C1796 C 1.01841 0.13509 0.7179 0.0
C1797 C 0.91955 0.9561 0.70777 0.0
C1798 C 0.93346 0.94476 0.68633 0.0
C1799 C 0.9128 0.98294 0.70781 0.0
C1800 C 0.91917 0.99907 0.68613 0.0
H1801 H 0.91374 0.94402 0.72448 0.0
H1802 H 0.90164 0.99097 0.72442 0.0
S1803 S 0.95588 0.97899 0.62551 0.0
N1804 N 0.95403 0.95173 0.6433 0.0
N1805 N 0.94071 1.00216 0.64311 0.0
C1806 C 0.93338 0.98806 0.66477 0.0
C1807 C 0.94074 0.96088 0.66496 0.0
C1808 C 0.35531 0.13724 0.13442 0.0
C1809 C 0.36374 0.11066 0.13353 0.0
C1810 C 0.3548 0.15314 0.11163 0.0
C1811 C 0.3634 0.1433 0.08709 0.0
H1812 H 0.3494 0.1459 0.15303 0.0
H1813 H 0.34871 0.17359 0.11348 0.0
S1814 S 0.38633 0.07474 0.07394 0.0
N1815 N 0.37974 0.07498 0.10583 0.0
N1816 N 0.37947 0.10479 0.06317 0.0
C1817 C 0.37126 0.11656 0.08584 0.0
C1818 C 0.37123 0.10027 0.10896 0.0
C1819 C 0.37143 0.96523 0.94724 0.0
C1820 C 0.35832 0.95646 0.92413 0.0
C1821 C 0.37224 0.94939 0.97006 0.0
C1822 C 0.35954 0.92432 0.97085 0.0
H1823 H 0.38206 0.98402 0.94732 0.0
H1824 H 0.38331 0.95675 0.98711 0.0
S1825 S 0.32022 0.8935 0.916 0.0
N1826 N 0.33086 0.92195 0.90382 0.0
N1827 N 0.33196 0.89237 0.94656 0.0
C1828 C 0.34529 0.91591 0.94812 0.0
C1829 C 0.34483 0.93189 0.92482 0.0
C1830 C 0.06281 0.34411 0.91766 0.0
C1831 C 0.05985 0.3573 0.89331 0.0
C1832 C 0.08907 0.3387 0.92856 0.0
C1833 C 0.11355 0.34564 0.91525 0.0
H1834 H 0.04461 0.33783 0.92844 0.0
H1835 H 0.09016 0.32862 0.94737 0.0
S1836 S 0.11723 0.38059 0.85081 0.0
N1837 N 0.0837 0.37743 0.85638 0.0
N1838 N 0.13295 0.36696 0.87636 0.0
C1839 C 0.11085 0.35895 0.89087 0.0
C1840 C 0.08408 0.36489 0.88005 0.0
C1841 C 0.75049 0.12161 0.96281 0.0
C1842 C 0.73167 0.14145 0.97042 0.0
C1843 C 0.74554 0.10561 0.94063 0.0
C1844 C 0.72157 0.10877 0.92503 0.0
H1845 H 0.76943 0.11853 0.9739 0.0
H1846 H 0.7609 0.09105 0.93532 0.0
S1847 S 0.66434 0.15594 0.93764 0.0
N1848 N 0.68716 0.1621 0.96109 0.0
N1849 N 0.67782 0.13195 0.91998 0.0
C1850 C 0.70224 0.12801 0.93278 0.0
C1851 C 0.70728 0.14433 0.95527 0.0
C1852 C 0.99866 0.71762 0.90076 0.0
C1853 C 1.00954 0.69271 0.89393 0.0
C1854 C 0.97334 0.72019 0.91417 0.0
C1855 C 0.95767 0.69796 0.92134 0.0
H1856 H 1.00964 0.73548 0.89548 0.0
H1857 H 0.96581 0.73978 0.91855 0.0
S1858 S 0.97755 0.62808 0.90959 0.0
N1859 N 1.00299 0.64534 0.89641 0.0
N1860 N 0.95569 0.64993 0.92157 0.0
C1861 C 0.96859 0.67287 0.91511 0.0
C1862 C 0.99437 0.6703 0.90145 0.0
C1863 C 0.70295 0.91979 0.12826 0.0
C1864 C 0.71883 0.94283 0.13202 0.0
C1865 C 0.70645 0.90372 0.10604 0.0
C1866 C 0.7259 0.90998 0.08638 0.0
H1867 H 0.68736 0.91424 0.14251 0.0
H1868 H 0.69337 0.88648 0.10407 0.0
S1869 S 0.77412 0.9671 0.08738 0.0
N1870 N 0.75593 0.9702 0.11467 0.0
N1871 N 0.76208 0.94045 0.07269 0.0
C1872 C 0.74214 0.93282 0.08995 0.0
C1873 C 0.73869 0.94913 0.11273 0.0
C1874 C 0.06952 0.67737 0.1462 0.0
C1875 C 0.05197 0.69914 0.14984 0.0
C1876 C 0.09512 0.67993 0.13325 0.0
C1877 C 0.10454 0.70441 0.12339 0.0
H1878 H 0.06348 0.65809 0.15337 0.0
H1879 H 0.10767 0.66239 0.13109 0.0
S1880 S 0.06668 0.76782 0.12787 0.0
N1881 N 0.04608 0.74632 0.14244 0.0
N1882 N 0.09406 0.75093 0.11832 0.0
C1883 C 0.08726 0.72639 0.12691 0.0
C1884 C 0.06108 0.7238 0.14003 0.0
C1885 C 1.01385 0.33795 0.14488 0.0
C1886 C 1.01635 0.35179 0.16883 0.0
C1887 C 0.98781 0.33248 0.13355 0.0
C1888 C 0.96311 0.33998 0.14607 0.0
H1889 H 1.03225 0.33123 0.13472 0.0
H1890 H 0.98703 0.32185 0.1151 0.0
S1891 S 0.95811 0.37733 0.20875 0.0
N1892 N 0.99175 0.37357 0.20423 0.0
N1893 N 0.94291 0.36287 0.18346 0.0
C1894 C 0.96531 0.35406 0.16994 0.0
C1895 C 0.99186 0.3601 0.18115 0.0
C1896 C 0.67447 0.85828 0.58313 0.0
C1897 C 0.66805 0.88084 0.56822 0.0
C1898 C 0.66632 0.85615 0.60948 0.0
C1899 C 0.65118 0.87635 0.62169 0.0
H1900 H 0.68645 0.84248 0.57452 0.0
H1901 H 0.67181 0.83853 0.62038 0.0
S1902 S 0.62821 0.93894 0.59072 0.0
N1903 N 0.64488 0.9233 0.5671 0.0
N1904 N 0.62978 0.91945 0.61678 0.0
C1905 C 0.64417 0.89879 0.60682 0.0
C1906 C 0.65261 0.90101 0.58005 0.0
C1907 C 0.25373 0.60623 0.63925 0.0
C1908 C 0.23253 0.59065 0.65037 0.0
C1909 C 0.24788 0.62594 0.62045 0.0
C1910 C 0.22059 0.63093 0.61191 0.0
H1911 H 0.27507 0.60343 0.64532 0.0
H1912 H 0.26483 0.63773 0.61293 0.0
S1913 S 0.15782 0.59398 0.63268 0.0
N1914 N 0.1832 0.58069 0.65007 0.0
N1915 N 0.17241 0.61718 0.61457 0.0
C1916 C 0.19928 0.61505 0.62234 0.0
C1917 C 0.20519 0.5951 0.64156 0.0
C1918 C 0.42015 0.16332 0.58535 0.0
C1919 C 0.41004 0.18562 0.57191 0.0
C1920 C 0.43135 0.16533 0.61079 0.0
C1921 C 0.43281 0.18971 0.62388 0.0
H1922 H 0.41996 0.14423 0.57592 0.0
H1923 H 0.43894 0.14762 0.62029 0.0
S1924 S 0.40808 0.25397 0.59764 0.0
N1925 N 0.40086 0.23266 0.57413 0.0
N1926 N 0.42299 0.23668 0.62132 0.0
C1927 C 0.42239 0.21213 0.61078 0.0
C1928 C 0.41081 0.21003 0.58495 0.0
C1929 C 0.8275 0.4385 0.60361 0.0
C1930 C 0.85166 0.42327 0.60679 0.0
C1931 C 0.82187 0.46008 0.6202 0.0
C1932 C 0.84025 0.4674 0.64061 0.0
H1933 H 0.81249 0.43328 0.58861 0.0
H1934 H 0.80278 0.47088 0.61715 0.0
S1935 S 0.90795 0.43543 0.65525 0.0
N1936 N 0.8951 0.41826 0.63053 0.0
N1937 N 0.88467 0.4583 0.66169 0.0
C1938 C 0.86491 0.45269 0.6434 0.0
C1939 C 0.87056 0.4308 0.62655 0.0
C1940 C 0.6437 0.16826 0.42902 0.0
C1941 C 0.63541 0.19282 0.41884 0.0
C1942 C 0.65614 0.16611 0.45385 0.0
C1943 C 0.66073 0.1884 0.46965 0.0
H1944 H 0.64076 0.15052 0.41757 0.0
H1945 H 0.66206 0.14673 0.46082 0.0
S1946 S 0.64259 0.25734 0.45233 0.0
N1947 N 0.63215 0.23995 0.42672 0.0
N1948 N 0.65621 0.23595 0.47325 0.0
C1949 C 0.65248 0.21313 0.45981 0.0
C1950 C 0.63977 0.21534 0.43441 0.0
C1951 C 0.82692 0.59919 0.43296 0.0
C1952 C 0.84768 0.58846 0.41664 0.0
C1953 C 0.8327 0.61998 0.45051 0.0
C1954 C 0.85945 0.6309 0.45246 0.0
H1955 H 0.80588 0.59186 0.43182 0.0
H1956 H 0.81594 0.62811 0.46204 0.0
S1957 S 0.92197 0.60792 0.41684 0.0
N1958 N 0.8967 0.58919 0.40545 0.0
N1959 N 0.9074 0.62773 0.43845 0.0
C1960 C 0.88058 0.61968 0.43708 0.0
C1961 C 0.87474 0.59864 0.41921 0.0
C1962 C 0.43884 0.89371 0.4658 0.0
C1963 C 0.42838 0.87169 0.47943 0.0
C1964 C 0.44823 0.89172 0.4398 0.0
C1965 C 0.44756 0.86762 0.42619 0.0
H1966 H 0.44003 0.91269 0.47539 0.0
H1967 H 0.45585 0.90935 0.4302 0.0
S1968 S 0.42201 0.80389 0.45282 0.0
N1969 N 0.41734 0.82498 0.47707 0.0
N1970 N 0.43596 0.82103 0.42856 0.0
C1971 C 0.43719 0.84536 0.43956 0.0
C1972 C 0.42747 0.84742 0.46608 0.0
C1973 C 0.25109 0.45686 0.43732 0.0
C1974 C 0.2302 0.46666 0.42039 0.0
C1975 C 0.24607 0.43565 0.45467 0.0
C1976 C 0.21999 0.42326 0.45576 0.0
H1977 H 0.27166 0.46539 0.43697 0.0
H1978 H 0.26292 0.42845 0.46683 0.0
S1979 S 0.15734 0.44283 0.41785 0.0
N1980 N 0.18171 0.46311 0.40739 0.0
N1981 N 0.17243 0.42372 0.43998 0.0
C1982 C 0.19871 0.43333 0.43959 0.0
C1983 C 0.20377 0.45486 0.42196 0.0
C1984 C 0.59827 0.62247 0.89811 0.0
C1985 C 0.61258 0.6182 0.87421 0.0
C1986 C 0.57829 0.64256 0.90072 0.0
C1987 C 0.57154 0.65918 0.87947 0.0
H1988 H 0.60244 0.61013 0.9151 0.0
H1989 H 0.56757 0.64461 0.91931 0.0
S1990 S 0.60399 0.65777 0.81311 0.0
N1991 N 0.61918 0.63345 0.82925 0.0
N1992 N 0.58185 0.6709 0.83401 0.0
C1993 C 0.58604 0.65551 0.85562 0.0
C1994 C 0.60644 0.63515 0.85301 0.0
C1995 C 0.43392 0.6228 0.89352 0.0
C1996 C 0.4435 0.63304 0.86946 0.0
C1997 C 0.42178 0.59781 0.89499 0.0
C1998 C 0.41908 0.58192 0.87252 0.0
H1999 H 0.43543 0.63442 0.91131 0.0
H2000 H 0.41442 0.5908 0.91388 0.0
S2001 S 0.44134 0.59925 0.80484 0.0
N2002 N 0.45 0.62515 0.82269 0.0
N2003 N 0.42691 0.5781 0.82545 0.0
C2004 C 0.42885 0.59172 0.84836 0.0
C2005 C 0.44104 0.61734 0.84681 0.0
C2006 C 0.46706 0.42327 0.85591 0.0
C2007 C 0.46257 0.44114 0.87655 0.0
C2008 C 0.48648 0.40284 0.85824 0.0
C2009 C 0.50232 0.39914 0.88136 0.0
H2010 H 0.45522 0.42479 0.83781 0.0
H2011 H 0.48885 0.38964 0.84168 0.0
S2012 S 0.49973 0.44114 0.9409 0.0
N2013 N 0.47653 0.45426 0.9208 0.0
N2014 N 0.51289 0.41575 0.92503 0.0
C2015 C 0.49841 0.41702 0.90207 0.0
C2016 C 0.47866 0.43802 0.89968 0.0
C2017 C 0.65494 0.42184 0.85939 0.0
C2018 C 0.62607 0.41847 0.85811 0.0
C2019 C 0.66665 0.44702 0.86148 0.0
C2020 C 0.64996 0.46975 0.86197 0.0
H2021 H 0.66848 0.40485 0.86017 0.0
H2022 H 0.68893 0.44874 0.86347 0.0
S2023 S 0.57343 0.47169 0.85642 0.0
N2024 N 0.58116 0.44 0.85538 0.0
N2025 N 0.6033 0.4874 0.85923 0.0
C2026 C 0.6212 0.46677 0.85917 0.0
C2027 C 0.60922 0.44109 0.85733 0.0
C2028 C 0.5918 0.41629 0.19646 0.0
C2029 C 0.57913 0.40946 0.1723 0.0
C2030 C 0.61287 0.43532 0.19795 0.0
C2031 C 0.62228 0.44864 0.17539 0.0
H2032 H 0.58563 0.40669 0.21459 0.0
H2033 H 0.62196 0.43944 0.21703 0.0
S2034 S 0.59568 0.43871 0.10722 0.0
N2035 N 0.57738 0.41797 0.12527 0.0
N2036 N 0.6168 0.45382 0.12788 0.0
C2037 C 0.60957 0.44229 0.15105 0.0
C2038 C 0.58813 0.42272 0.14955 0.0
C2039 C 0.63968 0.59417 0.20374 0.0
C2040 C 0.65642 0.58884 0.18178 0.0
C2041 C 0.62383 0.61732 0.20503 0.0
C2042 C 0.62387 0.63574 0.18424 0.0
H2043 H 0.63934 0.58062 0.22025 0.0
H2044 H 0.61121 0.62071 0.22228 0.0
S2045 S 0.66366 0.63059 0.12211 0.0
N2046 N 0.67154 0.60348 0.13855 0.0
N2047 N 0.64205 0.64704 0.1411 0.0
C2048 C 0.64028 0.63045 0.16207 0.0
C2049 C 0.6565 0.60701 0.16083 0.0
C2050 C 0.47579 0.64289 0.19414 0.0
C2051 C 0.48837 0.64947 0.16988 0.0
C2052 C 0.45465 0.62392 0.19594 0.0
C2053 C 0.44505 0.6104 0.1736 0.0
H2054 H 0.48212 0.65263 0.21212 0.0
H2055 H 0.44569 0.61998 0.21508 0.0
S2056 S 0.47124 0.61971 0.10527 0.0
N2057 N 0.48972 0.64055 0.12299 0.0
N2058 N 0.4502 0.60484 0.12617 0.0
C2059 C 0.45762 0.61655 0.14916 0.0
C2060 C 0.47913 0.63606 0.14735 0.0
C2061 C 0.44446 0.44115 0.20741 0.0
C2062 C 0.44426 0.42236 0.18709 0.0
C2063 C 0.42862 0.46429 0.2055 0.0
C2064 C 0.41176 0.4692 0.1834 0.0
H2065 H 0.45723 0.43807 0.22471 0.0
H2066 H 0.4291 0.47816 0.22165 0.0
S2067 S 0.40395 0.42622 0.12492 0.0
N2068 N 0.42569 0.41015 0.14432 0.0
N2069 N 0.39624 0.45368 0.14061 0.0
C2070 C 0.41146 0.4506 0.16296 0.0
C2071 C 0.42765 0.42718 0.16483 0.0
C2072 C 0.82721 0.60329 0.61826 0.0
C2073 C 0.84969 0.60715 0.63557 0.0
C2074 C 0.82296 0.61988 0.59624 0.0
C2075 C 0.84108 0.64099 0.59051 0.0
H2076 H 0.81242 0.58771 0.62211 0.0
H2077 H 0.80517 0.61617 0.58374 0.0
S2078 S 0.90474 0.65781 0.62841 0.0
N2079 N 0.89139 0.63247 0.64439 0.0
N2080 N 0.88346 0.66362 0.60357 0.0
C2081 C 0.86404 0.64458 0.60742 0.0
C2082 C 0.86832 0.62771 0.62974 0.0
C2083 C 0.8467 0.42751 0.42472 0.0
C2084 C 0.85938 0.45254 0.42431 0.0
C2085 C 0.84682 0.41171 0.44752 0.0
C2086 C 0.86007 0.42006 0.47079 0.0
H2087 H 0.83688 0.41995 0.40711 0.0
H2088 H 0.83731 0.3924 0.44657 0.0
S2089 S 0.89523 0.48451 0.48039 0.0
N2090 N 0.88455 0.48535 0.44948 0.0
N2091 N 0.88506 0.45577 0.49225 0.0
C2092 C 0.87214 0.4454 0.47084 0.0
C2093 C 0.87169 0.46161 0.44768 0.0
C2094 C 0.60174 0.87985 0.38462 0.0
C2095 C 0.57694 0.87105 0.3961 0.0
C2096 C 0.62762 0.87291 0.39545 0.0
C2097 C 0.62977 0.85731 0.41845 0.0
H2098 H 0.60121 0.89114 0.36649 0.0
H2099 H 0.64614 0.87986 0.38561 0.0
S2100 S 0.5708 0.83089 0.45705 0.0
N2101 N 0.55603 0.84676 0.43227 0.0
N2102 N 0.60455 0.83451 0.45301 0.0
C2103 C 0.60506 0.84933 0.43069 0.0
C2104 C 0.57873 0.85596 0.4194 0.0
C2105 C 0.2317 0.64706 0.45023 0.0
C2106 C 0.22314 0.63741 0.47492 0.0
C2107 C 0.23022 0.63126 0.42748 0.0
C2108 C 0.22063 0.605 0.42852 0.0
H2109 H 0.23863 0.66727 0.44825 0.0
H2110 H 0.23634 0.63978 0.40881 0.0
S2111 S 0.19746 0.56965 0.48855 0.0
N2112 N 0.20593 0.59932 0.49913 0.0
N2113 N 0.20342 0.56987 0.45656 0.0
C2114 C 0.21305 0.5948 0.45322 0.0
C2115 C 0.2142 0.61094 0.47631 0.0
C2116 C 0.49663 0.20688 0.40634 0.0
C2117 C 0.50632 0.18205 0.39786 0.0
C2118 C 0.47414 0.2093 0.42365 0.0
C2119 C 0.46025 0.18701 0.43341 0.0
H2120 H 0.50622 0.22485 0.39928 0.0
H2121 H 0.46736 0.22889 0.42904 0.0
S2122 S 0.4782 0.11726 0.41859 0.0
N2123 N 0.50077 0.13465 0.40144 0.0
N2124 N 0.4587 0.13896 0.43404 0.0
C2125 C 0.47014 0.16196 0.42564 0.0
C2126 C 0.49305 0.15954 0.40788 0.0
C2127 C 0.21433 0.46135 0.61414 0.0
C2128 C 0.22093 0.45073 0.63895 0.0
C2129 C 0.21482 0.44561 0.5914 0.0
C2130 C 0.22254 0.41882 0.59256 0.0
H2131 H 0.20749 0.48161 0.61254 0.0
H2132 H 0.20852 0.45436 0.57284 0.0
S2133 S 0.24397 0.38243 0.65278 0.0
N2134 N 0.23682 0.41241 0.6633 0.0
N2135 N 0.23847 0.38295 0.62066 0.0
C2136 C 0.23055 0.40841 0.61716 0.0
C2137 C 0.22951 0.42432 0.64032 0.0
C2138 C 0.59866 0.19953 0.61223 0.0
C2139 C 0.6227 0.18871 0.62365 0.0
C2140 C 0.57234 0.19524 0.62334 0.0
C2141 C 0.56875 0.17961 0.64615 0.0
H2142 H 0.60022 0.21204 0.59497 0.0
H2143 H 0.55467 0.2048 0.61422 0.0
S2144 S 0.62469 0.14464 0.68235 0.0
N2145 N 0.64089 0.1601 0.65823 0.0
N2146 N 0.59158 0.15202 0.67881 0.0
C2147 C 0.59246 0.1677 0.65708 0.0
C2148 C 0.61933 0.17229 0.64596 0.0
C2149 C 0.49282 0.84757 0.66391 0.0
C2150 C 0.51523 0.86548 0.6629 0.0
C2151 C 0.47355 0.84538 0.64315 0.0
C2152 C 0.4757 0.86102 0.62032 0.0
H2153 H 0.48997 0.83505 0.681 0.0
H2154 H 0.45651 0.83165 0.64531 0.0
S2155 S 0.53137 0.90996 0.6068 0.0
N2156 N 0.53891 0.89844 0.6364 0.0
N2157 N 0.50292 0.89443 0.59753 0.0
C2158 C 0.49825 0.87875 0.61881 0.0
C2159 C 0.51788 0.88098 0.64 0.0
loop_
_geom_bond_atom_site_label_1
_geom_bond_atom_site_label_2
_geom_bond_distance
_geom_bond_site_symmetry_2
_ccdc_geom_bond_type
Cu0 N1 1.999 . S
Cu0 O6 1.974 1_455 S
Cu0 N11 1.985 . S
Cu0 O20 1.959 . S
N1 Cu0 1.999 . S
N1 C3 1.263 . S
N1 C5 1.389 . S
N2 C3 1.358 . S
N2 C4 1.400 . S
C3 N1 1.263 . S
C3 N2 1.358 . S
C3 H9 0.930 . S
C4 N2 1.400 . S
C4 C5 1.351 . S
C4 H21 0.930 . S
C5 N1 1.389 . S
C5 C4 1.351 . S
C5 H10 0.930 . S
O6 Cu0 1.974 1_655 S
O6 C16 1.282 . S
C7 O8 1.261 . S
C7 O20 1.251 . S
O8 C7 1.261 . S
H9 C3 0.930 . S
H10 C5 0.930 . S
N11 Cu0 1.985 . S
N11 C13 1.335 . S
N11 C14 1.390 1_455 S
N12 C13 1.345 1_655 S
N12 C15 1.336 . S
C13 N11 1.335 . S
C13 N12 1.345 1_455 S
C13 H18 0.930 . S
C14 N11 1.390 1_655 S
C14 C15 1.346 . S
C14 H19 0.930 . S
C15 N12 1.336 . S
C15 C14 1.346 . S
C15 H22 0.929 . S
C16 O6 1.282 . S
C16 O17 1.216 . S
O17 C16 1.216 . S
H18 C13 0.930 . S
H19 C14 0.930 . S
O20 Cu0 1.959 . S
O20 C7 1.251 . S
H21 C4 0.930 . S
H22 C15 0.929 . S
Cu23 N24 1.999 1_545 S
Cu23 O29 1.974 . S
Cu23 N34 1.985 . S
Cu23 O43 1.959 1_545 S
N24 Cu23 1.999 1_565 S
N24 C26 1.263 . S
N24 C28 1.389 . S
N25 C26 1.358 . S
N25 C27 1.400 . S
C26 N24 1.263 . S
C26 N25 1.358 . S
C26 H32 0.930 1_565 S
C27 N25 1.400 . S
C27 C28 1.351 . S
C27 H44 0.930 . S
C28 N24 1.389 . S
C28 C27 1.351 . S
C28 H33 0.930 . S
O29 Cu23 1.974 . S
O29 C39 1.282 . S
C30 O31 1.261 . S
C30 O43 1.251 1_545 S
O31 C30 1.261 . S
H32 C26 0.930 1_545 S
H33 C28 0.930 . S
N34 Cu23 1.985 . S
N34 C36 1.335 . S
N34 C37 1.390 . S
N35 C36 1.345 . S
N35 C38 1.336 . S
C36 N34 1.335 . S
C36 N35 1.345 . S
C36 H41 0.930 . S
C37 N34 1.390 . S
C37 C38 1.346 . S
C37 H42 0.930 . S
C38 N35 1.336 . S
C38 C37 1.346 . S
C38 H45 0.929 . S
C39 O29 1.282 . S
C39 O40 1.216 . S
O40 C39 1.216 . S
H41 C36 0.930 . S
H42 C37 0.930 . S
O43 Cu23 1.959 1_565 S
O43 C30 1.251 1_565 S
H44 C27 0.930 . S
H45 C38 0.929 . S
Cu46 N47 1.999 . S
Cu46 O52 1.974 1_655 S
Cu46 N57 1.985 . S
Cu46 O66 1.959 . S
N47 Cu46 1.999 . S
N47 C49 1.263 . S
N47 C51 1.389 . S
N48 C49 1.358 . S
N48 C50 1.400 . S
C49 N47 1.263 . S
C49 N48 1.358 . S
C49 H55 0.930 . S
C50 N48 1.400 . S
C50 C51 1.351 . S
C50 H67 0.930 . S
C51 N47 1.389 . S
C51 C50 1.351 . S
C51 H56 0.930 . S
O52 Cu46 1.974 1_455 S
O52 C62 1.282 . S
C53 O54 1.261 . S
C53 O66 1.251 . S
O54 C53 1.261 . S
H55 C49 0.930 . S
H56 C51 0.930 . S
N57 Cu46 1.985 . S
N57 C59 1.335 . S
N57 C60 1.390 1_655 S
N58 C59 1.345 1_455 S
N58 C61 1.336 . S
C59 N57 1.335 . S
C59 N58 1.345 1_655 S
C59 H64 0.930 . S
C60 N57 1.390 1_455 S
C60 C61 1.346 . S
C60 H65 0.930 . S
C61 N58 1.336 . S
C61 C60 1.346 . S
C61 H68 0.929 . S
C62 O52 1.282 . S
C62 O63 1.216 . S
O63 C62 1.216 . S
H64 C59 0.930 . S
H65 C60 0.930 . S
O66 Cu46 1.959 . S
O66 C53 1.251 . S
H67 C50 0.930 . S
H68 C61 0.929 . S
Cu69 N70 1.999 1_565 S
Cu69 O75 1.974 . S
Cu69 N80 1.985 . S
Cu69 O89 1.959 1_565 S
N70 Cu69 1.999 1_545 S
N70 C72 1.263 . S
N70 C74 1.389 . S
N71 C72 1.358 . S
N71 C73 1.400 . S
C72 N70 1.263 . S
C72 N71 1.358 . S
C72 H78 0.930 1_545 S
C73 N71 1.400 . S
C73 C74 1.351 . S
C73 H90 0.930 . S
C74 N70 1.389 . S
C74 C73 1.351 . S
C74 H79 0.930 . S
O75 Cu69 1.974 . S
O75 C85 1.282 . S
C76 O77 1.261 . S
C76 O89 1.251 1_565 S
O77 C76 1.261 . S
H78 C72 0.930 1_565 S
H79 C74 0.930 . S
N80 Cu69 1.985 . S
N80 C82 1.335 . S
N80 C83 1.390 . S
N81 C82 1.345 . S
N81 C84 1.336 . S
C82 N80 1.335 . S
C82 N81 1.345 . S
C82 H87 0.930 . S
C83 N80 1.390 . S
C83 C84 1.346 . S
C83 H88 0.930 . S
C84 N81 1.336 . S
C84 C83 1.346 . S
C84 H91 0.929 . S
C85 O75 1.282 . S
C85 O86 1.216 . S
O86 C85 1.216 . S
H87 C82 0.930 . S
H88 C83 0.930 . S
O89 Cu69 1.959 1_545 S
O89 C76 1.251 1_545 S
H90 C73 0.930 . S
H91 C84 0.929 . S
Cu92 N93 1.999 . S
Cu92 O98 1.974 1_455 S
Cu92 N103 1.985 . S
Cu92 O112 1.959 . S
N93 Cu92 1.999 . S
N93 C95 1.263 . S
N93 C97 1.389 . S
N94 C95 1.358 . S
N94 C96 1.400 . S
C95 N93 1.263 . S
C95 N94 1.358 . S
C95 H101 0.930 . S
C96 N94 1.400 . S
C96 C97 1.351 . S
C96 H113 0.930 . S
C97 N93 1.389 . S
C97 C96 1.351 . S
C97 H102 0.930 . S
O98 Cu92 1.974 1_655 S
O98 C108 1.282 . S
C99 O100 1.261 . S
C99 O112 1.251 . S
O100 C99 1.261 . S
H101 C95 0.930 . S
H102 C97 0.930 . S
N103 Cu92 1.985 . S
N103 C105 1.335 . S
N103 C106 1.390 1_455 S
N104 C105 1.345 1_655 S
N104 C107 1.336 . S
C105 N103 1.335 . S
C105 N104 1.345 1_455 S
C105 H110 0.930 . S
C106 N103 1.390 1_655 S
C106 C107 1.346 . S
C106 H111 0.930 . S
C107 N104 1.336 . S
C107 C106 1.346 . S
C107 H114 0.929 . S
C108 O98 1.282 . S
C108 O109 1.216 . S
O109 C108 1.216 . S
H110 C105 0.930 . S
H111 C106 0.930 . S
O112 Cu92 1.959 . S
O112 C99 1.251 . S
H113 C96 0.930 . S
H114 C107 0.929 . S
Cu115 N116 1.999 1_545 S
Cu115 O121 1.974 . S
Cu115 N126 1.985 . S
Cu115 O135 1.959 1_545 S
N116 Cu115 1.999 1_565 S
N116 C118 1.263 . S
N116 C120 1.389 . S
N117 C118 1.358 . S
N117 C119 1.400 . S
C118 N116 1.263 . S
C118 N117 1.358 . S
C118 H124 0.930 1_565 S
C119 N117 1.400 . S
C119 C120 1.351 . S
C119 H136 0.930 . S
C120 N116 1.389 . S
C120 C119 1.351 . S
C120 H125 0.930 . S
O121 Cu115 1.974 . S
O121 C131 1.282 . S
C122 O123 1.261 . S
C122 O135 1.251 1_545 S
O123 C122 1.261 . S
H124 C118 0.930 1_545 S
H125 C120 0.930 . S
N126 Cu115 1.985 . S
N126 C128 1.335 . S
N126 C129 1.390 . S
N127 C128 1.345 . S
N127 C130 1.336 . S
C128 N126 1.335 . S
C128 N127 1.345 . S
C128 H133 0.930 . S
C129 N126 1.390 . S
C129 C130 1.346 . S
C129 H134 0.930 . S
C130 N127 1.336 . S
C130 C129 1.346 . S
C130 H137 0.929 . S
C131 O121 1.282 . S
C131 O132 1.216 . S
O132 C131 1.216 . S
H133 C128 0.930 . S
H134 C129 0.930 . S
O135 Cu115 1.959 1_565 S
O135 C122 1.251 1_565 S
H136 C119 0.930 . S
H137 C130 0.929 . S
Cu138 N139 1.999 . S
Cu138 O144 1.974 1_655 S
Cu138 N149 1.985 . S
Cu138 O158 1.959 . S
N139 Cu138 1.999 . S
N139 C141 1.263 . S
N139 C143 1.389 . S
N140 C141 1.358 . S
N140 C142 1.400 . S
C141 N139 1.263 . S
C141 N140 1.358 . S
C141 H147 0.930 . S
C142 N140 1.400 . S
C142 C143 1.351 . S
C142 H159 0.930 . S
C143 N139 1.389 . S
C143 C142 1.351 . S
C143 H148 0.930 . S
O144 Cu138 1.974 1_455 S
O144 C154 1.282 . S
C145 O146 1.261 . S
C145 O158 1.251 . S
O146 C145 1.261 . S
H147 C141 0.930 . S
H148 C143 0.930 . S
N149 Cu138 1.985 . S
N149 C151 1.335 . S
N149 C152 1.390 1_655 S
N150 C151 1.345 1_455 S
N150 C153 1.336 . S
C151 N149 1.335 . S
C151 N150 1.345 1_655 S
C151 H156 0.930 . S
C152 N149 1.390 1_455 S
C152 C153 1.346 . S
C152 H157 0.930 . S
C153 N150 1.336 . S
C153 C152 1.346 . S
C153 H160 0.929 . S
C154 O144 1.282 . S
C154 O155 1.216 . S
O155 C154 1.216 . S
H156 C151 0.930 . S
H157 C152 0.930 . S
O158 Cu138 1.959 . S
O158 C145 1.251 . S
H159 C142 0.930 . S
H160 C153 0.929 . S
Cu161 N162 1.999 1_565 S
Cu161 O167 1.974 . S
Cu161 N172 1.985 . S
Cu161 O181 1.959 1_565 S
N162 Cu161 1.999 1_545 S
N162 C164 1.263 . S
N162 C166 1.389 . S
N163 C164 1.358 . S
N163 C165 1.400 . S
C164 N162 1.263 . S
C164 N163 1.358 . S
C164 H170 0.930 1_545 S
C165 N163 1.400 . S
C165 C166 1.351 . S
C165 H182 0.930 . S
C166 N162 1.389 . S
C166 C165 1.351 . S
C166 H171 0.930 . S
O167 Cu161 1.974 . S
O167 C177 1.282 . S
C168 O169 1.261 . S
C168 O181 1.251 1_565 S
O169 C168 1.261 . S
H170 C164 0.930 1_565 S
H171 C166 0.930 . S
N172 Cu161 1.985 . S
N172 C174 1.335 . S
N172 C175 1.390 . S
N173 C174 1.345 . S
N173 C176 1.336 . S
C174 N172 1.335 . S
C174 N173 1.345 . S
C174 H179 0.930 . S
C175 N172 1.390 . S
C175 C176 1.346 . S
C175 H180 0.930 . S
C176 N173 1.336 . S
C176 C175 1.346 . S
C176 H183 0.929 . S
C177 O167 1.282 . S
C177 O178 1.216 . S
O178 C177 1.216 . S
H179 C174 0.930 . S
H180 C175 0.930 . S
O181 Cu161 1.959 1_545 S
O181 C168 1.251 1_545 S
H182 C165 0.930 . S
H183 C176 0.929 . S
Cu184 N185 1.999 . S
Cu184 O190 1.974 . S
Cu184 N195 1.985 . S
Cu184 O204 1.959 . S
N185 Cu184 1.999 . S
N185 C187 1.263 . S
N185 C189 1.389 1_545 S
N186 C187 1.358 1_565 S
N186 C188 1.400 . S
C187 N185 1.263 . S
C187 N186 1.358 1_545 S
C187 H193 0.930 . S
C188 N186 1.400 . S
C188 C189 1.351 . S
C188 H205 0.930 . S
C189 N185 1.389 1_565 S
C189 C188 1.351 . S
C189 H194 0.930 . S
O190 Cu184 1.974 . S
O190 C200 1.282 . S
C191 O192 1.261 . S
C191 O204 1.251 . S
O192 C191 1.261 . S
H193 C187 0.930 . S
H194 C189 0.930 . S
N195 Cu184 1.985 . S
N195 C197 1.335 . S
N195 C198 1.390 . S
N196 C197 1.345 . S
N196 C199 1.336 . S
C197 N195 1.335 . S
C197 N196 1.345 . S
C197 H202 0.930 . S
C198 N195 1.390 . S
C198 C199 1.346 . S
C198 H203 0.930 . S
C199 N196 1.336 . S
C199 C198 1.346 . S
C199 H206 0.929 . S
C200 O190 1.282 . S
C200 O201 1.216 . S
O201 C200 1.216 . S
H202 C197 0.930 . S
H203 C198 0.930 . S
O204 Cu184 1.959 . S
O204 C191 1.251 . S
H205 C188 0.930 . S
H206 C199 0.929 . S
Cu207 N208 1.999 . S
Cu207 O213 1.974 1_655 S
Cu207 N218 1.985 . S
Cu207 O227 1.959 . S
N208 Cu207 1.999 . S
N208 C210 1.263 . S
N208 C212 1.389 . S
N209 C210 1.358 . S
N209 C211 1.400 . S
C210 N208 1.263 . S
C210 N209 1.358 . S
C210 H216 0.930 . S
C211 N209 1.400 . S
C211 C212 1.351 . S
C211 H228 0.930 . S
C212 N208 1.389 . S
C212 C211 1.351 . S
C212 H217 0.930 . S
O213 Cu207 1.974 1_455 S
O213 C223 1.282 . S
C214 O215 1.261 . S
C214 O227 1.251 . S
O215 C214 1.261 . S
H216 C210 0.930 . S
H217 C212 0.930 . S
N218 Cu207 1.985 . S
N218 C220 1.335 . S
N218 C221 1.390 1_655 S
N219 C220 1.345 1_455 S
N219 C222 1.336 . S
C220 N218 1.335 . S
C220 N219 1.345 1_655 S
C220 H225 0.930 . S
C221 N218 1.390 1_455 S
C221 C222 1.346 . S
C221 H226 0.930 . S
C222 N219 1.336 . S
C222 C221 1.346 . S
C222 H229 0.929 . S
C223 O213 1.282 . S
C223 O224 1.216 . S
O224 C223 1.216 . S
H225 C220 0.930 . S
H226 C221 0.930 . S
O227 Cu207 1.959 . S
O227 C214 1.251 . S
H228 C211 0.930 . S
H229 C222 0.929 . S
Cu230 N231 1.999 . S
Cu230 O236 1.974 . S
Cu230 N241 1.985 . S
Cu230 O250 1.959 . S
N231 Cu230 1.999 . S
N231 C233 1.263 . S
N231 C235 1.389 1_565 S
N232 C233 1.358 1_545 S
N232 C234 1.400 . S
C233 N231 1.263 . S
C233 N232 1.358 1_565 S
C233 H239 0.930 . S
C234 N232 1.400 . S
C234 C235 1.351 . S
C234 H251 0.930 . S
C235 N231 1.389 1_545 S
C235 C234 1.351 . S
C235 H240 0.930 . S
O236 Cu230 1.974 . S
O236 C246 1.282 . S
C237 O238 1.261 . S
C237 O250 1.251 . S
O238 C237 1.261 . S
H239 C233 0.930 . S
H240 C235 0.930 . S
N241 Cu230 1.985 . S
N241 C243 1.335 . S
N241 C244 1.390 . S
N242 C243 1.345 . S
N242 C245 1.336 . S
C243 N241 1.335 . S
C243 N242 1.345 . S
C243 H248 0.930 . S
C244 N241 1.390 . S
C244 C245 1.346 . S
C244 H249 0.930 . S
C245 N242 1.336 . S
C245 C244 1.346 . S
C245 H252 0.929 . S
C246 O236 1.282 . S
C246 O247 1.216 . S
O247 C246 1.216 . S
H248 C243 0.930 . S
H249 C244 0.930 . S
O250 Cu230 1.959 . S
O250 C237 1.251 . S
H251 C234 0.930 . S
H252 C245 0.929 . S
Cu253 N254 1.999 . S
Cu253 O259 1.974 1_455 S
Cu253 N264 1.985 . S
Cu253 O273 1.959 . S
N254 Cu253 1.999 . S
N254 C256 1.263 . S
N254 C258 1.389 . S
N255 C256 1.358 . S
N255 C257 1.400 . S
C256 N254 1.263 . S
C256 N255 1.358 . S
C256 H262 0.930 . S
C257 N255 1.400 . S
C257 C258 1.351 . S
C257 H274 0.930 . S
C258 N254 1.389 . S
C258 C257 1.351 . S
C258 H263 0.930 . S
O259 Cu253 1.974 1_655 S
O259 C269 1.282 . S
C260 O261 1.261 . S
C260 O273 1.251 . S
O261 C260 1.261 . S
H262 C256 0.930 . S
H263 C258 0.930 . S
N264 Cu253 1.985 . S
N264 C266 1.335 . S
N264 C267 1.390 1_455 S
N265 C266 1.345 1_655 S
N265 C268 1.336 . S
C266 N264 1.335 . S
C266 N265 1.345 1_455 S
C266 H271 0.930 . S
C267 N264 1.390 1_655 S
C267 C268 1.346 . S
C267 H272 0.930 . S
C268 N265 1.336 . S
C268 C267 1.346 . S
C268 H275 0.929 . S
C269 O259 1.282 . S
C269 O270 1.216 . S
O270 C269 1.216 . S
H271 C266 0.930 . S
H272 C267 0.930 . S
O273 Cu253 1.959 . S
O273 C260 1.251 . S
H274 C257 0.930 . S
H275 C268 0.929 . S
Cu276 N277 1.999 . S
Cu276 O282 1.974 . S
Cu276 N287 1.985 . S
Cu276 O296 1.959 . S
N277 Cu276 1.999 . S
N277 C279 1.263 . S
N277 C281 1.389 1_565 S
N278 C279 1.358 1_545 S
N278 C280 1.400 . S
C279 N277 1.263 . S
C279 N278 1.358 1_565 S
C279 H285 0.930 . S
C280 N278 1.400 . S
C280 C281 1.351 . S
C280 H297 0.930 . S
C281 N277 1.389 1_545 S
C281 C280 1.351 . S
C281 H286 0.930 . S
O282 Cu276 1.974 . S
O282 C292 1.282 . S
C283 O284 1.261 . S
C283 O296 1.251 . S
O284 C283 1.261 . S
H285 C279 0.930 . S
H286 C281 0.930 . S
N287 Cu276 1.985 . S
N287 C289 1.335 . S
N287 C290 1.390 . S
N288 C289 1.345 . S
N288 C291 1.336 . S
C289 N287 1.335 . S
C289 N288 1.345 . S
C289 H294 0.930 . S
C290 N287 1.390 . S
C290 C291 1.346 . S
C290 H295 0.930 . S
C291 N288 1.336 . S
C291 C290 1.346 . S
C291 H298 0.929 . S
C292 O282 1.282 . S
C292 O293 1.216 . S
O293 C292 1.216 . S
H294 C289 0.930 . S
H295 C290 0.930 . S
O296 Cu276 1.959 . S
O296 C283 1.251 . S
H297 C280 0.930 . S
H298 C291 0.929 . S
Cu299 N300 1.999 . S
Cu299 O305 1.974 1_455 S
Cu299 N310 1.985 . S
Cu299 O319 1.959 . S
N300 Cu299 1.999 . S
N300 C302 1.263 . S
N300 C304 1.389 . S
N301 C302 1.358 . S
N301 C303 1.400 . S
C302 N300 1.263 . S
C302 N301 1.358 . S
C302 H308 0.930 . S
C303 N301 1.400 . S
C303 C304 1.351 . S
C303 H320 0.930 . S
C304 N300 1.389 . S
C304 C303 1.351 . S
C304 H309 0.930 . S
O305 Cu299 1.974 1_655 S
O305 C315 1.282 . S
C306 O307 1.261 . S
C306 O319 1.251 . S
O307 C306 1.261 . S
H308 C302 0.930 . S
H309 C304 0.930 . S
N310 Cu299 1.985 . S
N310 C312 1.335 . S
N310 C313 1.390 1_455 S
N311 C312 1.345 1_655 S
N311 C314 1.336 . S
C312 N310 1.335 . S
C312 N311 1.345 1_455 S
C312 H317 0.930 . S
C313 N310 1.390 1_655 S
C313 C314 1.346 . S
C313 H318 0.930 . S
C314 N311 1.336 . S
C314 C313 1.346 . S
C314 H321 0.929 . S
C315 O305 1.282 . S
C315 O316 1.216 . S
O316 C315 1.216 . S
H317 C312 0.930 . S
H318 C313 0.930 . S
O319 Cu299 1.959 . S
O319 C306 1.251 . S
H320 C303 0.930 . S
H321 C314 0.929 . S
Cu322 N323 1.999 . S
Cu322 O328 1.974 . S
Cu322 N333 1.985 . S
Cu322 O342 1.959 . S
N323 Cu322 1.999 . S
N323 C325 1.263 . S
N323 C327 1.389 1_545 S
N324 C325 1.358 1_565 S
N324 C326 1.400 . S
C325 N323 1.263 . S
C325 N324 1.358 1_545 S
C325 H331 0.930 . S
C326 N324 1.400 . S
C326 C327 1.351 . S
C326 H343 0.930 . S
C327 N323 1.389 1_565 S
C327 C326 1.351 . S
C327 H332 0.930 . S
O328 Cu322 1.974 . S
O328 C338 1.282 . S
C329 O330 1.261 . S
C329 O342 1.251 . S
O330 C329 1.261 . S
H331 C325 0.930 . S
H332 C327 0.930 . S
N333 Cu322 1.985 . S
N333 C335 1.335 . S
N333 C336 1.390 . S
N334 C335 1.345 . S
N334 C337 1.336 . S
C335 N333 1.335 . S
C335 N334 1.345 . S
C335 H340 0.930 . S
C336 N333 1.390 . S
C336 C337 1.346 . S
C336 H341 0.930 . S
C337 N334 1.336 . S
C337 C336 1.346 . S
C337 H344 0.929 . S
C338 O328 1.282 . S
C338 O339 1.216 . S
O339 C338 1.216 . S
H340 C335 0.930 . S
H341 C336 0.930 . S
O342 Cu322 1.959 . S
O342 C329 1.251 . S
H343 C326 0.930 . S
H344 C337 0.929 . S
Cu345 N346 1.999 . S
Cu345 O351 1.974 1_655 S
Cu345 N356 1.985 . S
Cu345 O365 1.959 . S
N346 Cu345 1.999 . S
N346 C348 1.263 . S
N346 C350 1.389 . S
N347 C348 1.358 . S
N347 C349 1.400 . S
C348 N346 1.263 . S
C348 N347 1.358 . S
C348 H354 0.930 . S
C349 N347 1.400 . S
C349 C350 1.351 . S
C349 H366 0.930 . S
C350 N346 1.389 . S
C350 C349 1.351 . S
C350 H355 0.930 . S
O351 Cu345 1.974 1_455 S
O351 C361 1.282 . S
C352 O353 1.261 . S
C352 O365 1.251 . S
O353 C352 1.261 . S
H354 C348 0.930 . S
H355 C350 0.930 . S
N356 Cu345 1.985 . S
N356 C358 1.335 . S
N356 C359 1.390 1_655 S
N357 C358 1.345 1_455 S
N357 C360 1.336 . S
C358 N356 1.335 . S
C358 N357 1.345 1_655 S
C358 H363 0.930 . S
C359 N356 1.390 1_455 S
C359 C360 1.346 . S
C359 H364 0.930 . S
C360 N357 1.336 . S
C360 C359 1.346 . S
C360 H367 0.929 . S
C361 O351 1.282 . S
C361 O362 1.216 . S
O362 C361 1.216 . S
H363 C358 0.930 . S
H364 C359 0.930 . S
O365 Cu345 1.959 . S
O365 C352 1.251 . S
H366 C349 0.930 . S
H367 C360 0.929 . S
Cu368 N369 1.999 1_554 S
Cu368 O374 1.974 . S
Cu368 N379 1.985 . S
Cu368 O388 1.959 1_554 S
N369 Cu368 1.999 1_556 S
N369 C371 1.263 . S
N369 C373 1.389 . S
N370 C371 1.358 . S
N370 C372 1.400 . S
C371 N369 1.263 . S
C371 N370 1.358 . S
C371 H377 0.930 1_556 S
C372 N370 1.400 . S
C372 C373 1.351 . S
C372 H389 0.930 . S
C373 N369 1.389 . S
C373 C372 1.351 . S
C373 H378 0.930 . S
O374 Cu368 1.974 . S
O374 C384 1.282 . S
C375 O376 1.261 . S
C375 O388 1.251 1_554 S
O376 C375 1.261 . S
H377 C371 0.930 1_554 S
H378 C373 0.930 . S
N379 Cu368 1.985 . S
N379 C381 1.335 . S
N379 C382 1.390 . S
N380 C381 1.345 . S
N380 C383 1.336 . S
C381 N379 1.335 . S
C381 N380 1.345 . S
C381 H386 0.930 . S
C382 N379 1.390 . S
C382 C383 1.346 . S
C382 H387 0.930 . S
C383 N380 1.336 . S
C383 C382 1.346 . S
C383 H390 0.929 . S
C384 O374 1.282 . S
C384 O385 1.216 . S
O385 C384 1.216 . S
H386 C381 0.930 . S
H387 C382 0.930 . S
O388 Cu368 1.959 1_556 S
O388 C375 1.251 1_556 S
H389 C372 0.930 . S
H390 C383 0.929 . S
Cu391 N392 1.999 1_556 S
Cu391 O397 1.974 . S
Cu391 N402 1.985 . S
Cu391 O411 1.959 1_556 S
N392 Cu391 1.999 1_554 S
N392 C394 1.263 . S
N392 C396 1.389 . S
N393 C394 1.358 . S
N393 C395 1.400 . S
C394 N392 1.263 . S
C394 N393 1.358 . S
C394 H400 0.930 1_554 S
C395 N393 1.400 . S
C395 C396 1.351 . S
C395 H412 0.930 . S
C396 N392 1.389 . S
C396 C395 1.351 . S
C396 H401 0.930 . S
O397 Cu391 1.974 . S
O397 C407 1.282 . S
C398 O399 1.261 . S
C398 O411 1.251 1_556 S
O399 C398 1.261 . S
H400 C394 0.930 1_556 S
H401 C396 0.930 . S
N402 Cu391 1.985 . S
N402 C404 1.335 . S
N402 C405 1.390 . S
N403 C404 1.345 . S
N403 C406 1.336 . S
C404 N402 1.335 . S
C404 N403 1.345 . S
C404 H409 0.930 . S
C405 N402 1.390 . S
C405 C406 1.346 . S
C405 H410 0.930 . S
C406 N403 1.336 . S
C406 C405 1.346 . S
C406 H413 0.929 . S
C407 O397 1.282 . S
C407 O408 1.216 . S
O408 C407 1.216 . S
H409 C404 0.930 . S
H410 C405 0.930 . S
O411 Cu391 1.959 1_554 S
O411 C398 1.251 1_554 S
H412 C395 0.930 . S
H413 C406 0.929 . S
Cu414 N415 1.999 . S
Cu414 O420 1.974 . S
Cu414 N425 1.985 . S
Cu414 O434 1.959 . S
N415 Cu414 1.999 . S
N415 C417 1.263 . S
N415 C419 1.389 1_556 S
N416 C417 1.358 1_554 S
N416 C418 1.400 . S
C417 N415 1.263 . S
C417 N416 1.358 1_556 S
C417 H423 0.930 . S
C418 N416 1.400 . S
C418 C419 1.351 . S
C418 H435 0.930 . S
C419 N415 1.389 1_554 S
C419 C418 1.351 . S
C419 H424 0.930 . S
O420 Cu414 1.974 . S
O420 C430 1.282 . S
C421 O422 1.261 . S
C421 O434 1.251 . S
O422 C421 1.261 . S
H423 C417 0.930 . S
H424 C419 0.930 . S
N425 Cu414 1.985 . S
N425 C427 1.335 . S
N425 C428 1.390 . S
N426 C427 1.345 . S
N426 C429 1.336 . S
C427 N425 1.335 . S
C427 N426 1.345 . S
C427 H432 0.930 . S
C428 N425 1.390 . S
C428 C429 1.346 . S
C428 H433 0.930 . S
C429 N426 1.336 . S
C429 C428 1.346 . S
C429 H436 0.929 . S
C430 O420 1.282 . S
C430 O431 1.216 . S
O431 C430 1.216 . S
H432 C427 0.930 . S
H433 C428 0.930 . S
O434 Cu414 1.959 . S
O434 C421 1.251 . S
H435 C418 0.930 . S
H436 C429 0.929 . S
Cu437 N438 1.999 1_556 S
Cu437 O443 1.974 . S
Cu437 N448 1.985 . S
Cu437 O457 1.959 1_556 S
N438 Cu437 1.999 1_554 S
N438 C440 1.263 . S
N438 C442 1.389 . S
N439 C440 1.358 . S
N439 C441 1.400 . S
C440 N438 1.263 . S
C440 N439 1.358 . S
C440 H446 0.930 1_554 S
C441 N439 1.400 . S
C441 C442 1.351 . S
C441 H458 0.930 . S
C442 N438 1.389 . S
C442 C441 1.351 . S
C442 H447 0.930 . S
O443 Cu437 1.974 . S
O443 C453 1.282 . S
C444 O445 1.261 . S
C444 O457 1.251 1_556 S
O445 C444 1.261 . S
H446 C440 0.930 1_556 S
H447 C442 0.930 . S
N448 Cu437 1.985 . S
N448 C450 1.335 . S
N448 C451 1.390 . S
N449 C450 1.345 . S
N449 C452 1.336 . S
C450 N448 1.335 . S
C450 N449 1.345 . S
C450 H455 0.930 . S
C451 N448 1.390 . S
C451 C452 1.346 . S
C451 H456 0.930 . S
C452 N449 1.336 . S
C452 C451 1.346 . S
C452 H459 0.929 . S
C453 O443 1.282 . S
C453 O454 1.216 . S
O454 C453 1.216 . S
H455 C450 0.930 . S
H456 C451 0.930 . S
O457 Cu437 1.959 1_554 S
O457 C444 1.251 1_554 S
H458 C441 0.930 . S
H459 C452 0.929 . S
Cu460 N461 1.999 . S
Cu460 O466 1.974 . S
Cu460 N471 1.985 . S
Cu460 O480 1.959 . S
N461 Cu460 1.999 . S
N461 C463 1.263 . S
N461 C465 1.389 1_556 S
N462 C463 1.358 1_554 S
N462 C464 1.400 . S
C463 N461 1.263 . S
C463 N462 1.358 1_556 S
C463 H469 0.930 . S
C464 N462 1.400 . S
C464 C465 1.351 . S
C464 H481 0.930 . S
C465 N461 1.389 1_554 S
C465 C464 1.351 . S
C465 H470 0.930 . S
O466 Cu460 1.974 . S
O466 C476 1.282 . S
C467 O468 1.261 . S
C467 O480 1.251 . S
O468 C467 1.261 . S
H469 C463 0.930 . S
H470 C465 0.930 . S
N471 Cu460 1.985 . S
N471 C473 1.335 . S
N471 C474 1.390 . S
N472 C473 1.345 . S
N472 C475 1.336 . S
C473 N471 1.335 . S
C473 N472 1.345 . S
C473 H478 0.930 . S
C474 N471 1.390 . S
C474 C475 1.346 . S
C474 H479 0.930 . S
C475 N472 1.336 . S
C475 C474 1.346 . S
C475 H482 0.929 . S
C476 O466 1.282 . S
C476 O477 1.216 . S
O477 C476 1.216 . S
H478 C473 0.930 . S
H479 C474 0.930 . S
O480 Cu460 1.959 . S
O480 C467 1.251 . S
H481 C464 0.930 . S
H482 C475 0.929 . S
Cu483 N484 1.999 1_554 S
Cu483 O489 1.974 . S
Cu483 N494 1.985 . S
Cu483 O503 1.959 1_554 S
N484 Cu483 1.999 1_556 S
N484 C486 1.263 . S
N484 C488 1.389 . S
N485 C486 1.358 . S
N485 C487 1.400 . S
C486 N484 1.263 . S
C486 N485 1.358 . S
C486 H492 0.930 1_556 S
C487 N485 1.400 . S
C487 C488 1.351 . S
C487 H504 0.930 . S
C488 N484 1.389 . S
C488 C487 1.351 . S
C488 H493 0.930 . S
O489 Cu483 1.974 . S
O489 C499 1.282 . S
C490 O491 1.261 . S
C490 O503 1.251 1_554 S
O491 C490 1.261 . S
H492 C486 0.930 1_554 S
H493 C488 0.930 . S
N494 Cu483 1.985 . S
N494 C496 1.335 . S
N494 C497 1.390 . S
N495 C496 1.345 . S
N495 C498 1.336 . S
C496 N494 1.335 . S
C496 N495 1.345 . S
C496 H501 0.930 . S
C497 N494 1.390 . S
C497 C498 1.346 . S
C497 H502 0.930 . S
C498 N495 1.336 . S
C498 C497 1.346 . S
C498 H505 0.929 . S
C499 O489 1.282 . S
C499 O500 1.216 . S
O500 C499 1.216 . S
H501 C496 0.930 . S
H502 C497 0.930 . S
O503 Cu483 1.959 1_556 S
O503 C490 1.251 1_556 S
H504 C487 0.930 . S
H505 C498 0.929 . S
Cu506 N507 1.999 . S
Cu506 O512 1.974 . S
Cu506 N517 1.985 . S
Cu506 O526 1.959 . S
N507 Cu506 1.999 . S
N507 C509 1.263 . S
N507 C511 1.389 1_554 S
N508 C509 1.358 1_556 S
N508 C510 1.400 . S
C509 N507 1.263 . S
C509 N508 1.358 1_554 S
C509 H515 0.930 . S
C510 N508 1.400 . S
C510 C511 1.351 . S
C510 H527 0.930 . S
C511 N507 1.389 1_556 S
C511 C510 1.351 . S
C511 H516 0.930 . S
O512 Cu506 1.974 . S
O512 C522 1.282 . S
C513 O514 1.261 . S
C513 O526 1.251 . S
O514 C513 1.261 . S
H515 C509 0.930 . S
H516 C511 0.930 . S
N517 Cu506 1.985 . S
N517 C519 1.335 . S
N517 C520 1.390 . S
N518 C519 1.345 . S
N518 C521 1.336 . S
C519 N517 1.335 . S
C519 N518 1.345 . S
C519 H524 0.930 . S
C520 N517 1.390 . S
C520 C521 1.346 . S
C520 H525 0.930 . S
C521 N518 1.336 . S
C521 C520 1.346 . S
C521 H528 0.929 . S
C522 O512 1.282 . S
C522 O523 1.216 . S
O523 C522 1.216 . S
H524 C519 0.930 . S
H525 C520 0.930 . S
O526 Cu506 1.959 . S
O526 C513 1.251 . S
H527 C510 0.930 . S
H528 C521 0.929 . S
Cu529 N530 1.999 . S
Cu529 O535 1.974 . S
Cu529 N540 1.985 . S
Cu529 O549 1.959 . S
N530 Cu529 1.999 . S
N530 C532 1.263 . S
N530 C534 1.389 1_554 S
N531 C532 1.358 1_556 S
N531 C533 1.400 . S
C532 N530 1.263 . S
C532 N531 1.358 1_554 S
C532 H538 0.930 . S
C533 N531 1.400 . S
C533 C534 1.351 . S
C533 H550 0.930 . S
C534 N530 1.389 1_556 S
C534 C533 1.351 . S
C534 H539 0.930 . S
O535 Cu529 1.974 . S
O535 C545 1.282 . S
C536 O537 1.261 . S
C536 O549 1.251 . S
O537 C536 1.261 . S
H538 C532 0.930 . S
H539 C534 0.930 . S
N540 Cu529 1.985 . S
N540 C542 1.335 . S
N540 C543 1.390 . S
N541 C542 1.345 . S
N541 C544 1.336 . S
C542 N540 1.335 . S
C542 N541 1.345 . S
C542 H547 0.930 . S
C543 N540 1.390 . S
C543 C544 1.346 . S
C543 H548 0.930 . S
C544 N541 1.336 . S
C544 C543 1.346 . S
C544 H551 0.929 . S
C545 O535 1.282 . S
C545 O546 1.216 . S
O546 C545 1.216 . S
H547 C542 0.930 . S
H548 C543 0.930 . S
O549 Cu529 1.959 . S
O549 C536 1.251 . S
H550 C533 0.930 . S
H551 C544 0.929 . S
Cu552 N553 1.999 . S
Cu552 O558 1.974 . S
Cu552 N563 1.985 . S
Cu552 O572 1.959 . S
N553 Cu552 1.999 . S
N553 C555 1.263 . S
N553 C557 1.389 . S
N554 C555 1.358 . S
N554 C556 1.400 . S
C555 N553 1.263 . S
C555 N554 1.358 . S
C555 H561 0.930 . S
C556 N554 1.400 . S
C556 C557 1.351 . S
C556 H573 0.930 . S
C557 N553 1.389 . S
C557 C556 1.351 . S
C557 H562 0.930 . S
O558 Cu552 1.974 . S
O558 C568 1.282 . S
C559 O560 1.261 . S
C559 O572 1.251 . S
O560 C559 1.261 . S
H561 C555 0.930 . S
H562 C557 0.930 . S
N563 Cu552 1.985 . S
N563 C565 1.335 . S
N563 C566 1.390 . S
N564 C565 1.345 . S
N564 C567 1.336 . S
C565 N563 1.335 . S
C565 N564 1.345 . S
C565 H570 0.930 . S
C566 N563 1.390 . S
C566 C567 1.346 . S
C566 H571 0.930 . S
C567 N564 1.336 . S
C567 C566 1.346 . S
C567 H574 0.929 . S
C568 O558 1.282 . S
C568 O569 1.216 . S
O569 C568 1.216 . S
H570 C565 0.930 . S
H571 C566 0.930 . S
O572 Cu552 1.959 . S
O572 C559 1.251 . S
H573 C556 0.930 . S
H574 C567 0.929 . S
Cu575 N576 1.999 . S
Cu575 O581 1.974 . S
Cu575 N586 1.985 . S
Cu575 O595 1.959 . S
N576 Cu575 1.999 . S
N576 C578 1.263 . S
N576 C580 1.389 . S
N577 C578 1.358 . S
N577 C579 1.400 . S
C578 N576 1.263 . S
C578 N577 1.358 . S
C578 H584 0.930 . S
C579 N577 1.400 . S
C579 C580 1.351 . S
C579 H596 0.930 . S
C580 N576 1.389 . S
C580 C579 1.351 . S
C580 H585 0.930 . S
O581 Cu575 1.974 . S
O581 C591 1.282 . S
C582 O583 1.261 . S
C582 O595 1.251 . S
O583 C582 1.261 . S
H584 C578 0.930 . S
H585 C580 0.930 . S
N586 Cu575 1.985 . S
N586 C588 1.335 . S
N586 C589 1.390 . S
N587 C588 1.345 . S
N587 C590 1.336 . S
C588 N586 1.335 . S
C588 N587 1.345 . S
C588 H593 0.930 . S
C589 N586 1.390 . S
C589 C590 1.346 . S
C589 H594 0.930 . S
C590 N587 1.336 . S
C590 C589 1.346 . S
C590 H597 0.929 . S
C591 O581 1.282 . S
C591 O592 1.216 . S
O592 C591 1.216 . S
H593 C588 0.930 . S
H594 C589 0.930 . S
O595 Cu575 1.959 . S
O595 C582 1.251 . S
H596 C579 0.930 . S
H597 C590 0.929 . S
Cu598 N599 1.999 . S
Cu598 O604 1.974 . S
Cu598 N609 1.985 . S
Cu598 O618 1.959 . S
N599 Cu598 1.999 . S
N599 C601 1.263 . S
N599 C603 1.389 . S
N600 C601 1.358 . S
N600 C602 1.400 . S
C601 N599 1.263 . S
C601 N600 1.358 . S
C601 H607 0.930 . S
C602 N600 1.400 . S
C602 C603 1.351 . S
C602 H619 0.930 . S
C603 N599 1.389 . S
C603 C602 1.351 . S
C603 H608 0.930 . S
O604 Cu598 1.974 . S
O604 C614 1.282 . S
C605 O606 1.261 . S
C605 O618 1.251 . S
O606 C605 1.261 . S
H607 C601 0.930 . S
H608 C603 0.930 . S
N609 Cu598 1.985 . S
N609 C611 1.335 . S
N609 C612 1.390 . S
N610 C611 1.345 . S
N610 C613 1.336 . S
C611 N609 1.335 . S
C611 N610 1.345 . S
C611 H616 0.930 . S
C612 N609 1.390 . S
C612 C613 1.346 . S
C612 H617 0.930 . S
C613 N610 1.336 . S
C613 C612 1.346 . S
C613 H620 0.929 . S
C614 O604 1.282 . S
C614 O615 1.216 . S
O615 C614 1.216 . S
H616 C611 0.930 . S
H617 C612 0.930 . S
O618 Cu598 1.959 . S
O618 C605 1.251 . S
H619 C602 0.930 . S
H620 C613 0.929 . S
Cu621 N622 1.999 . S
Cu621 O627 1.974 . S
Cu621 N632 1.985 . S
Cu621 O641 1.959 . S
N622 Cu621 1.999 . S
N622 C624 1.263 . S
N622 C626 1.389 . S
N623 C624 1.358 . S
N623 C625 1.400 . S
C624 N622 1.263 . S
C624 N623 1.358 . S
C624 H630 0.930 . S
C625 N623 1.400 . S
C625 C626 1.351 . S
C625 H642 0.930 . S
C626 N622 1.389 . S
C626 C625 1.351 . S
C626 H631 0.930 . S
O627 Cu621 1.974 . S
O627 C637 1.282 . S
C628 O629 1.261 . S
C628 O641 1.251 . S
O629 C628 1.261 . S
H630 C624 0.930 . S
H631 C626 0.930 . S
N632 Cu621 1.985 . S
N632 C634 1.335 . S
N632 C635 1.390 . S
N633 C634 1.345 . S
N633 C636 1.336 . S
C634 N632 1.335 . S
C634 N633 1.345 . S
C634 H639 0.930 . S
C635 N632 1.390 . S
C635 C636 1.346 . S
C635 H640 0.930 . S
C636 N633 1.336 . S
C636 C635 1.346 . S
C636 H643 0.929 . S
C637 O627 1.282 . S
C637 O638 1.216 . S
O638 C637 1.216 . S
H639 C634 0.930 . S
H640 C635 0.930 . S
O641 Cu621 1.959 . S
O641 C628 1.251 . S
H642 C625 0.930 . S
H643 C636 0.929 . S
Cu644 N645 1.999 . S
Cu644 O650 1.974 . S
Cu644 N655 1.985 . S
Cu644 O664 1.959 . S
N645 Cu644 1.999 . S
N645 C647 1.263 . S
N645 C649 1.389 . S
N646 C647 1.358 . S
N646 C648 1.400 . S
C647 N645 1.263 . S
C647 N646 1.358 . S
C647 H653 0.930 . S
C648 N646 1.400 . S
C648 C649 1.351 . S
C648 H665 0.930 . S
C649 N645 1.389 . S
C649 C648 1.351 . S
C649 H654 0.930 . S
O650 Cu644 1.974 . S
O650 C660 1.282 . S
C651 O652 1.261 . S
C651 O664 1.251 . S
O652 C651 1.261 . S
H653 C647 0.930 . S
H654 C649 0.930 . S
N655 Cu644 1.985 . S
N655 C657 1.335 . S
N655 C658 1.390 . S
N656 C657 1.345 . S
N656 C659 1.336 . S
C657 N655 1.335 . S
C657 N656 1.345 . S
C657 H662 0.930 . S
C658 N655 1.390 . S
C658 C659 1.346 . S
C658 H663 0.930 . S
C659 N656 1.336 . S
C659 C658 1.346 . S
C659 H666 0.929 . S
C660 O650 1.282 . S
C660 O661 1.216 . S
O661 C660 1.216 . S
H662 C657 0.930 . S
H663 C658 0.930 . S
O664 Cu644 1.959 . S
O664 C651 1.251 . S
H665 C648 0.930 . S
H666 C659 0.929 . S
Cu667 N668 1.999 . S
Cu667 O673 1.974 . S
Cu667 N678 1.985 . S
Cu667 O687 1.959 . S
N668 Cu667 1.999 . S
N668 C670 1.263 . S
N668 C672 1.389 . S
N669 C670 1.358 . S
N669 C671 1.400 . S
C670 N668 1.263 . S
C670 N669 1.358 . S
C670 H676 0.930 . S
C671 N669 1.400 . S
C671 C672 1.351 . S
C671 H688 0.930 . S
C672 N668 1.389 . S
C672 C671 1.351 . S
C672 H677 0.930 . S
O673 Cu667 1.974 . S
O673 C683 1.282 . S
C674 O675 1.261 . S
C674 O687 1.251 . S
O675 C674 1.261 . S
H676 C670 0.930 . S
H677 C672 0.930 . S
N678 Cu667 1.985 . S
N678 C680 1.335 . S
N678 C681 1.390 . S
N679 C680 1.345 . S
N679 C682 1.336 . S
C680 N678 1.335 . S
C680 N679 1.345 . S
C680 H685 0.930 . S
C681 N678 1.390 . S
C681 C682 1.346 . S
C681 H686 0.930 . S
C682 N679 1.336 . S
C682 C681 1.346 . S
C682 H689 0.929 . S
C683 O673 1.282 . S
C683 O684 1.216 . S
O684 C683 1.216 . S
H685 C680 0.930 . S
H686 C681 0.930 . S
O687 Cu667 1.959 . S
O687 C674 1.251 . S
H688 C671 0.930 . S
H689 C682 0.929 . S
Cu690 N691 1.999 . S
Cu690 O696 1.974 . S
Cu690 N701 1.985 . S
Cu690 O710 1.959 . S
N691 Cu690 1.999 . S
N691 C693 1.263 . S
N691 C695 1.389 . S
N692 C693 1.358 . S
N692 C694 1.400 . S
C693 N691 1.263 . S
C693 N692 1.358 . S
C693 H699 0.930 . S
C694 N692 1.400 . S
C694 C695 1.351 . S
C694 H711 0.930 . S
C695 N691 1.389 . S
C695 C694 1.351 . S
C695 H700 0.930 . S
O696 Cu690 1.974 . S
O696 C706 1.282 . S
C697 O698 1.261 . S
C697 O710 1.251 . S
O698 C697 1.261 . S
H699 C693 0.930 . S
H700 C695 0.930 . S
N701 Cu690 1.985 . S
N701 C703 1.335 . S
N701 C704 1.390 . S
N702 C703 1.345 . S
N702 C705 1.336 . S
C703 N701 1.335 . S
C703 N702 1.345 . S
C703 H708 0.930 . S
C704 N701 1.390 . S
C704 C705 1.346 . S
C704 H709 0.930 . S
C705 N702 1.336 . S
C705 C704 1.346 . S
C705 H712 0.929 . S
C706 O696 1.282 . S
C706 O707 1.216 . S
O707 C706 1.216 . S
H708 C703 0.930 . S
H709 C704 0.930 . S
O710 Cu690 1.959 . S
O710 C697 1.251 . S
H711 C694 0.930 . S
H712 C705 0.929 . S
Cu713 N714 1.999 . S
Cu713 O719 1.974 . S
Cu713 N724 1.985 . S
Cu713 O733 1.959 . S
N714 Cu713 1.999 . S
N714 C716 1.263 . S
N714 C718 1.389 . S
N715 C716 1.358 . S
N715 C717 1.400 . S
C716 N714 1.263 . S
C716 N715 1.358 . S
C716 H722 0.930 . S
C717 N715 1.400 . S
C717 C718 1.351 . S
C717 H734 0.930 . S
C718 N714 1.389 . S
C718 C717 1.351 . S
C718 H723 0.930 . S
O719 Cu713 1.974 . S
O719 C729 1.282 . S
C720 O721 1.261 . S
C720 O733 1.251 . S
O721 C720 1.261 . S
H722 C716 0.930 . S
H723 C718 0.930 . S
N724 Cu713 1.985 . S
N724 C726 1.335 . S
N724 C727 1.390 . S
N725 C726 1.345 . S
N725 C728 1.336 . S
C726 N724 1.335 . S
C726 N725 1.345 . S
C726 H731 0.930 . S
C727 N724 1.390 . S
C727 C728 1.346 . S
C727 H732 0.930 . S
C728 N725 1.336 . S
C728 C727 1.346 . S
C728 H735 0.929 . S
C729 O719 1.282 . S
C729 O730 1.216 . S
O730 C729 1.216 . S
H731 C726 0.930 . S
H732 C727 0.930 . S
O733 Cu713 1.959 . S
O733 C720 1.251 . S
H734 C717 0.930 . S
H735 C728 0.929 . S
Cu736 N737 1.999 . S
Cu736 O742 1.974 . S
Cu736 N747 1.985 . S
Cu736 O756 1.959 . S
N737 Cu736 1.999 . S
N737 C739 1.263 . S
N737 C741 1.389 . S
N738 C739 1.358 . S
N738 C740 1.400 . S
C739 N737 1.263 . S
C739 N738 1.358 . S
C739 H745 0.930 . S
C740 N738 1.400 . S
C740 C741 1.351 . S
C740 H757 0.930 . S
C741 N737 1.389 . S
C741 C740 1.351 . S
C741 H746 0.930 . S
O742 Cu736 1.974 . S
O742 C752 1.282 . S
C743 O744 1.261 . S
C743 O756 1.251 . S
O744 C743 1.261 . S
H745 C739 0.930 . S
H746 C741 0.930 . S
N747 Cu736 1.985 . S
N747 C749 1.335 . S
N747 C750 1.390 . S
N748 C749 1.345 . S
N748 C751 1.336 . S
C749 N747 1.335 . S
C749 N748 1.345 . S
C749 H754 0.930 . S
C750 N747 1.390 . S
C750 C751 1.346 . S
C750 H755 0.930 . S
C751 N748 1.336 . S
C751 C750 1.346 . S
C751 H758 0.929 . S
C752 O742 1.282 . S
C752 O753 1.216 . S
O753 C752 1.216 . S
H754 C749 0.930 . S
H755 C750 0.930 . S
O756 Cu736 1.959 . S
O756 C743 1.251 . S
H757 C740 0.930 . S
H758 C751 0.929 . S
Cu759 N760 1.999 . S
Cu759 O765 1.974 . S
Cu759 N770 1.985 . S
Cu759 O779 1.959 . S
N760 Cu759 1.999 . S
N760 C762 1.263 . S
N760 C764 1.389 . S
N761 C762 1.358 . S
N761 C763 1.400 . S
C762 N760 1.263 . S
C762 N761 1.358 . S
C762 H768 0.930 . S
C763 N761 1.400 . S
C763 C764 1.351 . S
C763 H780 0.930 . S
C764 N760 1.389 . S
C764 C763 1.351 . S
C764 H769 0.930 . S
O765 Cu759 1.974 . S
O765 C775 1.282 . S
C766 O767 1.261 . S
C766 O779 1.251 . S
O767 C766 1.261 . S
H768 C762 0.930 . S
H769 C764 0.930 . S
N770 Cu759 1.985 . S
N770 C772 1.335 . S
N770 C773 1.390 . S
N771 C772 1.345 . S
N771 C774 1.336 . S
C772 N770 1.335 . S
C772 N771 1.345 . S
C772 H777 0.930 . S
C773 N770 1.390 . S
C773 C774 1.346 . S
C773 H778 0.930 . S
C774 N771 1.336 . S
C774 C773 1.346 . S
C774 H781 0.929 . S
C775 O765 1.282 . S
C775 O776 1.216 . S
O776 C775 1.216 . S
H777 C772 0.930 . S
H778 C773 0.930 . S
O779 Cu759 1.959 . S
O779 C766 1.251 . S
H780 C763 0.930 . S
H781 C774 0.929 . S
Cu782 N783 1.999 . S
Cu782 O788 1.974 . S
Cu782 N793 1.985 . S
Cu782 O802 1.959 . S
N783 Cu782 1.999 . S
N783 C785 1.263 . S
N783 C787 1.389 . S
N784 C785 1.358 . S
N784 C786 1.400 . S
C785 N783 1.263 . S
C785 N784 1.358 . S
C785 H791 0.930 . S
C786 N784 1.400 . S
C786 C787 1.351 . S
C786 H803 0.930 . S
C787 N783 1.389 . S
C787 C786 1.351 . S
C787 H792 0.930 . S
O788 Cu782 1.974 . S
O788 C798 1.282 . S
C789 O790 1.261 . S
C789 O802 1.251 . S
O790 C789 1.261 . S
H791 C785 0.930 . S
H792 C787 0.930 . S
N793 Cu782 1.985 . S
N793 C795 1.335 . S
N793 C796 1.390 . S
N794 C795 1.345 . S
N794 C797 1.336 . S
C795 N793 1.335 . S
C795 N794 1.345 . S
C795 H800 0.930 . S
C796 N793 1.390 . S
C796 C797 1.346 . S
C796 H801 0.930 . S
C797 N794 1.336 . S
C797 C796 1.346 . S
C797 H804 0.929 . S
C798 O788 1.282 . S
C798 O799 1.216 . S
O799 C798 1.216 . S
H800 C795 0.930 . S
H801 C796 0.930 . S
O802 Cu782 1.959 . S
O802 C789 1.251 . S
H803 C786 0.930 . S
H804 C797 0.929 . S
Cu805 N806 1.999 . S
Cu805 O811 1.974 . S
Cu805 N816 1.985 . S
Cu805 O825 1.959 . S
N806 Cu805 1.999 . S
N806 C808 1.263 . S
N806 C810 1.389 . S
N807 C808 1.358 . S
N807 C809 1.400 . S
C808 N806 1.263 . S
C808 N807 1.358 . S
C808 H814 0.930 . S
C809 N807 1.400 . S
C809 C810 1.351 . S
C809 H826 0.930 . S
C810 N806 1.389 . S
C810 C809 1.351 . S
C810 H815 0.930 . S
O811 Cu805 1.974 . S
O811 C821 1.282 . S
C812 O813 1.261 . S
C812 O825 1.251 . S
O813 C812 1.261 . S
H814 C808 0.930 . S
H815 C810 0.930 . S
N816 Cu805 1.985 . S
N816 C818 1.335 . S
N816 C819 1.390 . S
N817 C818 1.345 . S
N817 C820 1.336 . S
C818 N816 1.335 . S
C818 N817 1.345 . S
C818 H823 0.930 . S
C819 N816 1.390 . S
C819 C820 1.346 . S
C819 H824 0.930 . S
C820 N817 1.336 . S
C820 C819 1.346 . S
C820 H827 0.929 . S
C821 O811 1.282 . S
C821 O822 1.216 . S
O822 C821 1.216 . S
H823 C818 0.930 . S
H824 C819 0.930 . S
O825 Cu805 1.959 . S
O825 C812 1.251 . S
H826 C809 0.930 . S
H827 C820 0.929 . S
Cu828 N829 1.999 . S
Cu828 O834 1.974 . S
Cu828 N839 1.985 . S
Cu828 O848 1.959 . S
N829 Cu828 1.999 . S
N829 C831 1.263 . S
N829 C833 1.389 . S
N830 C831 1.358 . S
N830 C832 1.400 . S
C831 N829 1.263 . S
C831 N830 1.358 . S
C831 H837 0.930 . S
C832 N830 1.400 . S
C832 C833 1.351 . S
C832 H849 0.930 . S
C833 N829 1.389 . S
C833 C832 1.351 . S
C833 H838 0.930 . S
O834 Cu828 1.974 . S
O834 C844 1.282 . S
C835 O836 1.261 . S
C835 O848 1.251 . S
O836 C835 1.261 . S
H837 C831 0.930 . S
H838 C833 0.930 . S
N839 Cu828 1.985 . S
N839 C841 1.335 . S
N839 C842 1.390 . S
N840 C841 1.345 . S
N840 C843 1.336 . S
C841 N839 1.335 . S
C841 N840 1.345 . S
C841 H846 0.930 . S
C842 N839 1.390 . S
C842 C843 1.346 . S
C842 H847 0.930 . S
C843 N840 1.336 . S
C843 C842 1.346 . S
C843 H850 0.929 . S
C844 O834 1.282 . S
C844 O845 1.216 . S
O845 C844 1.216 . S
H846 C841 0.930 . S
H847 C842 0.930 . S
O848 Cu828 1.959 . S
O848 C835 1.251 . S
H849 C832 0.930 . S
H850 C843 0.929 . S
Cu851 N852 1.999 . S
Cu851 O857 1.974 . S
Cu851 N862 1.985 . S
Cu851 O871 1.959 . S
N852 Cu851 1.999 . S
N852 C854 1.263 . S
N852 C856 1.389 . S
N853 C854 1.358 . S
N853 C855 1.400 . S
C854 N852 1.263 . S
C854 N853 1.358 . S
C854 H860 0.930 . S
C855 N853 1.400 . S
C855 C856 1.351 . S
C855 H872 0.930 . S
C856 N852 1.389 . S
C856 C855 1.351 . S
C856 H861 0.930 . S
O857 Cu851 1.974 . S
O857 C867 1.282 . S
C858 O859 1.261 . S
C858 O871 1.251 . S
O859 C858 1.261 . S
H860 C854 0.930 . S
H861 C856 0.930 . S
N862 Cu851 1.985 . S
N862 C864 1.335 . S
N862 C865 1.390 . S
N863 C864 1.345 . S
N863 C866 1.336 . S
C864 N862 1.335 . S
C864 N863 1.345 . S
C864 H869 0.930 . S
C865 N862 1.390 . S
C865 C866 1.346 . S
C865 H870 0.930 . S
C866 N863 1.336 . S
C866 C865 1.346 . S
C866 H873 0.929 . S
C867 O857 1.282 . S
C867 O868 1.216 . S
O868 C867 1.216 . S
H869 C864 0.930 . S
H870 C865 0.930 . S
O871 Cu851 1.959 . S
O871 C858 1.251 . S
H872 C855 0.930 . S
H873 C866 0.929 . S
Cu874 N875 1.999 . S
Cu874 O880 1.974 . S
Cu874 N885 1.985 . S
Cu874 O894 1.959 . S
N875 Cu874 1.999 . S
N875 C877 1.263 . S
N875 C879 1.389 . S
N876 C877 1.358 . S
N876 C878 1.400 . S
C877 N875 1.263 . S
C877 N876 1.358 . S
C877 H883 0.930 . S
C878 N876 1.400 . S
C878 C879 1.351 . S
C878 H895 0.930 . S
C879 N875 1.389 . S
C879 C878 1.351 . S
C879 H884 0.930 . S
O880 Cu874 1.974 . S
O880 C890 1.282 . S
C881 O882 1.261 . S
C881 O894 1.251 . S
O882 C881 1.261 . S
H883 C877 0.930 . S
H884 C879 0.930 . S
N885 Cu874 1.985 . S
N885 C887 1.335 . S
N885 C888 1.390 . S
N886 C887 1.345 . S
N886 C889 1.336 . S
C887 N885 1.335 . S
C887 N886 1.345 . S
C887 H892 0.930 . S
C888 N885 1.390 . S
C888 C889 1.346 . S
C888 H893 0.930 . S
C889 N886 1.336 . S
C889 C888 1.346 . S
C889 H896 0.929 . S
C890 O880 1.282 . S
C890 O891 1.216 . S
O891 C890 1.216 . S
H892 C887 0.930 . S
H893 C888 0.930 . S
O894 Cu874 1.959 . S
O894 C881 1.251 . S
H895 C878 0.930 . S
H896 C889 0.929 . S
Cu897 N898 1.999 . S
Cu897 O903 1.974 . S
Cu897 N908 1.985 . S
Cu897 O917 1.959 . S
N898 Cu897 1.999 . S
N898 C900 1.263 . S
N898 C902 1.389 . S
N899 C900 1.358 . S
N899 C901 1.400 . S
C900 N898 1.263 . S
C900 N899 1.358 . S
C900 H906 0.930 . S
C901 N899 1.400 . S
C901 C902 1.351 . S
C901 H918 0.930 . S
C902 N898 1.389 . S
C902 C901 1.351 . S
C902 H907 0.930 . S
O903 Cu897 1.974 . S
O903 C913 1.282 . S
C904 O905 1.261 . S
C904 O917 1.251 . S
O905 C904 1.261 . S
H906 C900 0.930 . S
H907 C902 0.930 . S
N908 Cu897 1.985 . S
N908 C910 1.335 . S
N908 C911 1.390 . S
N909 C910 1.345 . S
N909 C912 1.336 . S
C910 N908 1.335 . S
C910 N909 1.345 . S
C910 H915 0.930 . S
C911 N908 1.390 . S
C911 C912 1.346 . S
C911 H916 0.930 . S
C912 N909 1.336 . S
C912 C911 1.346 . S
C912 H919 0.929 . S
C913 O903 1.282 . S
C913 O914 1.216 . S
O914 C913 1.216 . S
H915 C910 0.930 . S
H916 C911 0.930 . S
O917 Cu897 1.959 . S
O917 C904 1.251 . S
H918 C901 0.930 . S
H919 C912 0.929 . S
Cu920 N921 1.999 . S
Cu920 O926 1.974 . S
Cu920 N931 1.985 . S
Cu920 O940 1.959 . S
N921 Cu920 1.999 . S
N921 C923 1.263 . S
N921 C925 1.389 . S
N922 C923 1.358 . S
N922 C924 1.400 . S
C923 N921 1.263 . S
C923 N922 1.358 . S
C923 H929 0.930 . S
C924 N922 1.400 . S
C924 C925 1.351 . S
C924 H941 0.930 . S
C925 N921 1.389 . S
C925 C924 1.351 . S
C925 H930 0.930 . S
O926 Cu920 1.974 . S
O926 C936 1.282 . S
C927 O928 1.261 . S
C927 O940 1.251 . S
O928 C927 1.261 . S
H929 C923 0.930 . S
H930 C925 0.930 . S
N931 Cu920 1.985 . S
N931 C933 1.335 . S
N931 C934 1.390 . S
N932 C933 1.345 . S
N932 C935 1.336 . S
C933 N931 1.335 . S
C933 N932 1.345 . S
C933 H938 0.930 . S
C934 N931 1.390 . S
C934 C935 1.346 . S
C934 H939 0.930 . S
C935 N932 1.336 . S
C935 C934 1.346 . S
C935 H942 0.929 . S
C936 O926 1.282 . S
C936 O937 1.216 . S
O937 C936 1.216 . S
H938 C933 0.930 . S
H939 C934 0.930 . S
O940 Cu920 1.959 . S
O940 C927 1.251 . S
H941 C924 0.930 . S
H942 C935 0.929 . S
Cu943 N944 1.999 . S
Cu943 O949 1.974 . S
Cu943 N954 1.985 . S
Cu943 O963 1.959 . S
N944 Cu943 1.999 . S
N944 C946 1.263 . S
N944 C948 1.389 . S
N945 C946 1.358 . S
N945 C947 1.400 . S
C946 N944 1.263 . S
C946 N945 1.358 . S
C946 H952 0.930 . S
C947 N945 1.400 . S
C947 C948 1.351 . S
C947 H964 0.930 . S
C948 N944 1.389 . S
C948 C947 1.351 . S
C948 H953 0.930 . S
O949 Cu943 1.974 . S
O949 C959 1.282 . S
C950 O951 1.261 . S
C950 O963 1.251 . S
O951 C950 1.261 . S
H952 C946 0.930 . S
H953 C948 0.930 . S
N954 Cu943 1.985 . S
N954 C956 1.335 . S
N954 C957 1.390 . S
N955 C956 1.345 . S
N955 C958 1.336 . S
C956 N954 1.335 . S
C956 N955 1.345 . S
C956 H961 0.930 . S
C957 N954 1.390 . S
C957 C958 1.346 . S
C957 H962 0.930 . S
C958 N955 1.336 . S
C958 C957 1.346 . S
C958 H965 0.929 . S
C959 O949 1.282 . S
C959 O960 1.216 . S
O960 C959 1.216 . S
H961 C956 0.930 . S
H962 C957 0.930 . S
O963 Cu943 1.959 . S
O963 C950 1.251 . S
H964 C947 0.930 . S
H965 C958 0.929 . S
Cu966 N967 1.999 . S
Cu966 O972 1.974 . S
Cu966 N977 1.985 . S
Cu966 O986 1.959 . S
N967 Cu966 1.999 . S
N967 C969 1.263 . S
N967 C971 1.389 . S
N968 C969 1.358 . S
N968 C970 1.400 . S
C969 N967 1.263 . S
C969 N968 1.358 . S
C969 H975 0.930 . S
C970 N968 1.400 . S
C970 C971 1.351 . S
C970 H987 0.930 . S
C971 N967 1.389 . S
C971 C970 1.351 . S
C971 H976 0.930 . S
O972 Cu966 1.974 . S
O972 C982 1.282 . S
C973 O974 1.261 . S
C973 O986 1.251 . S
O974 C973 1.261 . S
H975 C969 0.930 . S
H976 C971 0.930 . S
N977 Cu966 1.985 . S
N977 C979 1.335 . S
N977 C980 1.390 . S
N978 C979 1.345 . S
N978 C981 1.336 . S
C979 N977 1.335 . S
C979 N978 1.345 . S
C979 H984 0.930 . S
C980 N977 1.390 . S
C980 C981 1.346 . S
C980 H985 0.930 . S
C981 N978 1.336 . S
C981 C980 1.346 . S
C981 H988 0.929 . S
C982 O972 1.282 . S
C982 O983 1.216 . S
O983 C982 1.216 . S
H984 C979 0.930 . S
H985 C980 0.930 . S
O986 Cu966 1.959 . S
O986 C973 1.251 . S
H987 C970 0.930 . S
H988 C981 0.929 . S
Cu989 N990 1.999 . S
Cu989 O995 1.974 . S
Cu989 N1000 1.985 . S
Cu989 O1009 1.959 . S
N990 Cu989 1.999 . S
N990 C992 1.263 . S
N990 C994 1.389 . S
N991 C992 1.358 . S
N991 C993 1.400 . S
C992 N990 1.263 . S
C992 N991 1.358 . S
C992 H998 0.930 . S
C993 N991 1.400 . S
C993 C994 1.351 . S
C993 H1010 0.930 . S
C994 N990 1.389 . S
C994 C993 1.351 . S
C994 H999 0.930 . S
O995 Cu989 1.974 . S
O995 C1005 1.282 . S
C996 O997 1.261 . S
C996 O1009 1.251 . S
O997 C996 1.261 . S
H998 C992 0.930 . S
H999 C994 0.930 . S
N1000 Cu989 1.985 . S
N1000 C1002 1.335 . S
N1000 C1003 1.390 . S
N1001 C1002 1.345 . S
N1001 C1004 1.336 . S
C1002 N1000 1.335 . S
C1002 N1001 1.345 . S
C1002 H1007 0.930 . S
C1003 N1000 1.390 . S
C1003 C1004 1.346 . S
C1003 H1008 0.930 . S
C1004 N1001 1.336 . S
C1004 C1003 1.346 . S
C1004 H1011 0.929 . S
C1005 O995 1.282 . S
C1005 O1006 1.216 . S
O1006 C1005 1.216 . S
H1007 C1002 0.930 . S
H1008 C1003 0.930 . S
O1009 Cu989 1.959 . S
O1009 C996 1.251 . S
H1010 C993 0.930 . S
H1011 C1004 0.929 . S
Cu1012 N1013 1.999 . S
Cu1012 O1018 1.974 . S
Cu1012 N1023 1.985 . S
Cu1012 O1032 1.959 . S
N1013 Cu1012 1.999 . S
N1013 C1015 1.263 . S
N1013 C1017 1.389 . S
N1014 C1015 1.358 . S
N1014 C1016 1.400 . S
C1015 N1013 1.263 . S
C1015 N1014 1.358 . S
C1015 H1021 0.930 . S
C1016 N1014 1.400 . S
C1016 C1017 1.351 . S
C1016 H1033 0.930 . S
C1017 N1013 1.389 . S
C1017 C1016 1.351 . S
C1017 H1022 0.930 . S
O1018 Cu1012 1.974 . S
O1018 C1028 1.282 . S
C1019 O1020 1.261 . S
C1019 O1032 1.251 . S
O1020 C1019 1.261 . S
H1021 C1015 0.930 . S
H1022 C1017 0.930 . S
N1023 Cu1012 1.985 . S
N1023 C1025 1.335 . S
N1023 C1026 1.390 . S
N1024 C1025 1.345 . S
N1024 C1027 1.336 . S
C1025 N1023 1.335 . S
C1025 N1024 1.345 . S
C1025 H1030 0.930 . S
C1026 N1023 1.390 . S
C1026 C1027 1.346 . S
C1026 H1031 0.930 . S
C1027 N1024 1.336 . S
C1027 C1026 1.346 . S
C1027 H1034 0.929 . S
C1028 O1018 1.282 . S
C1028 O1029 1.216 . S
O1029 C1028 1.216 . S
H1030 C1025 0.930 . S
H1031 C1026 0.930 . S
O1032 Cu1012 1.959 . S
O1032 C1019 1.251 . S
H1033 C1016 0.930 . S
H1034 C1027 0.929 . S
Cu1035 N1036 1.999 . S
Cu1035 O1041 1.974 . S
Cu1035 N1046 1.985 . S
Cu1035 O1055 1.959 . S
N1036 Cu1035 1.999 . S
N1036 C1038 1.263 . S
N1036 C1040 1.389 . S
N1037 C1038 1.358 . S
N1037 C1039 1.400 . S
C1038 N1036 1.263 . S
C1038 N1037 1.358 . S
C1038 H1044 0.930 . S
C1039 N1037 1.400 . S
C1039 C1040 1.351 . S
C1039 H1056 0.930 . S
C1040 N1036 1.389 . S
C1040 C1039 1.351 . S
C1040 H1045 0.930 . S
O1041 Cu1035 1.974 . S
O1041 C1051 1.282 . S
C1042 O1043 1.261 . S
C1042 O1055 1.251 . S
O1043 C1042 1.261 . S
H1044 C1038 0.930 . S
H1045 C1040 0.930 . S
N1046 Cu1035 1.985 . S
N1046 C1048 1.335 . S
N1046 C1049 1.390 . S
N1047 C1048 1.345 . S
N1047 C1050 1.336 . S
C1048 N1046 1.335 . S
C1048 N1047 1.345 . S
C1048 H1053 0.930 . S
C1049 N1046 1.390 . S
C1049 C1050 1.346 . S
C1049 H1054 0.930 . S
C1050 N1047 1.336 . S
C1050 C1049 1.346 . S
C1050 H1057 0.929 . S
C1051 O1041 1.282 . S
C1051 O1052 1.216 . S
O1052 C1051 1.216 . S
H1053 C1048 0.930 . S
H1054 C1049 0.930 . S
O1055 Cu1035 1.959 . S
O1055 C1042 1.251 . S
H1056 C1039 0.930 . S
H1057 C1050 0.929 . S
Cu1058 N1059 1.999 . S
Cu1058 O1064 1.974 . S
Cu1058 N1069 1.985 . S
Cu1058 O1078 1.959 . S
N1059 Cu1058 1.999 . S
N1059 C1061 1.263 . S
N1059 C1063 1.389 . S
N1060 C1061 1.358 . S
N1060 C1062 1.400 . S
C1061 N1059 1.263 . S
C1061 N1060 1.358 . S
C1061 H1067 0.930 . S
C1062 N1060 1.400 . S
C1062 C1063 1.351 . S
C1062 H1079 0.930 . S
C1063 N1059 1.389 . S
C1063 C1062 1.351 . S
C1063 H1068 0.930 . S
O1064 Cu1058 1.974 . S
O1064 C1074 1.282 . S
C1065 O1066 1.261 . S
C1065 O1078 1.251 . S
O1066 C1065 1.261 . S
H1067 C1061 0.930 . S
H1068 C1063 0.930 . S
N1069 Cu1058 1.985 . S
N1069 C1071 1.335 . S
N1069 C1072 1.390 . S
N1070 C1071 1.345 . S
N1070 C1073 1.336 . S
C1071 N1069 1.335 . S
C1071 N1070 1.345 . S
C1071 H1076 0.930 . S
C1072 N1069 1.390 . S
C1072 C1073 1.346 . S
C1072 H1077 0.930 . S
C1073 N1070 1.336 . S
C1073 C1072 1.346 . S
C1073 H1080 0.929 . S
C1074 O1064 1.282 . S
C1074 O1075 1.216 . S
O1075 C1074 1.216 . S
H1076 C1071 0.930 . S
H1077 C1072 0.930 . S
O1078 Cu1058 1.959 . S
O1078 C1065 1.251 . S
H1079 C1062 0.930 . S
H1080 C1073 0.929 . S
Cu1081 N1082 1.999 . S
Cu1081 O1087 1.974 . S
Cu1081 N1092 1.985 . S
Cu1081 O1101 1.959 . S
N1082 Cu1081 1.999 . S
N1082 C1084 1.263 . S
N1082 C1086 1.389 . S
N1083 C1084 1.358 . S
N1083 C1085 1.400 . S
C1084 N1082 1.263 . S
C1084 N1083 1.358 . S
C1084 H1090 0.930 . S
C1085 N1083 1.400 . S
C1085 C1086 1.351 . S
C1085 H1102 0.930 . S
C1086 N1082 1.389 . S
C1086 C1085 1.351 . S
C1086 H1091 0.930 . S
O1087 Cu1081 1.974 . S
O1087 C1097 1.282 . S
C1088 O1089 1.261 . S
C1088 O1101 1.251 . S
O1089 C1088 1.261 . S
H1090 C1084 0.930 . S
H1091 C1086 0.930 . S
N1092 Cu1081 1.985 . S
N1092 C1094 1.335 . S
N1092 C1095 1.390 . S
N1093 C1094 1.345 . S
N1093 C1096 1.336 . S
C1094 N1092 1.335 . S
C1094 N1093 1.345 . S
C1094 H1099 0.930 . S
C1095 N1092 1.390 . S
C1095 C1096 1.346 . S
C1095 H1100 0.930 . S
C1096 N1093 1.336 . S
C1096 C1095 1.346 . S
C1096 H1103 0.929 . S
C1097 O1087 1.282 . S
C1097 O1098 1.216 . S
O1098 C1097 1.216 . S
H1099 C1094 0.930 . S
H1100 C1095 0.930 . S
O1101 Cu1081 1.959 . S
O1101 C1088 1.251 . S
H1102 C1085 0.930 . S
H1103 C1096 0.929 . S
C1104 C1105 1.369 . S
C1104 C1106 1.419 . S
C1104 H1108 0.930 . S
C1105 C1104 1.369 . S
C1105 C1114 1.429 . S
C1106 C1104 1.419 . S
C1106 C1107 1.363 . S
C1106 H1109 0.929 . S
C1107 C1106 1.363 . S
C1107 C1113 1.428 . S
H1108 C1104 0.930 . S
H1109 C1106 0.929 . S
S1110 N1111 1.613 . S
S1110 N1112 1.610 . S
N1111 S1110 1.613 . S
N1111 C1114 1.350 . S
N1112 S1110 1.610 . S
N1112 C1113 1.351 . S
C1113 C1107 1.428 . S
C1113 N1112 1.351 . S
C1113 C1114 1.434 . S
C1114 C1105 1.429 . S
C1114 N1111 1.350 . S
C1114 C1113 1.434 . S
C1115 C1116 1.369 . S
C1115 C1117 1.419 . S
C1115 H1119 0.930 . S
C1116 C1115 1.369 . S
C1116 C1125 1.429 . S
C1117 C1115 1.419 . S
C1117 C1118 1.363 . S
C1117 H1120 0.929 . S
C1118 C1117 1.363 . S
C1118 C1124 1.428 . S
H1119 C1115 0.930 . S
H1120 C1117 0.929 . S
S1121 N1122 1.613 . S
S1121 N1123 1.610 . S
N1122 S1121 1.613 . S
N1122 C1125 1.350 . S
N1123 S1121 1.610 . S
N1123 C1124 1.351 . S
C1124 C1118 1.428 . S
C1124 N1123 1.351 . S
C1124 C1125 1.434 . S
C1125 C1116 1.429 . S
C1125 N1122 1.350 . S
C1125 C1124 1.434 . S
C1126 C1127 1.369 . S
C1126 C1128 1.419 . S
C1126 H1130 0.930 . S
C1127 C1126 1.369 . S
C1127 C1136 1.429 . S
C1128 C1126 1.419 . S
C1128 C1129 1.363 . S
C1128 H1131 0.929 . S
C1129 C1128 1.363 . S
C1129 C1135 1.428 . S
H1130 C1126 0.930 . S
H1131 C1128 0.929 . S
S1132 N1133 1.613 . S
S1132 N1134 1.610 . S
N1133 S1132 1.613 . S
N1133 C1136 1.350 . S
N1134 S1132 1.610 . S
N1134 C1135 1.351 . S
C1135 C1129 1.428 . S
C1135 N1134 1.351 . S
C1135 C1136 1.434 . S
C1136 C1127 1.429 . S
C1136 N1133 1.350 . S
C1136 C1135 1.434 . S
C1137 C1138 1.369 . S
C1137 C1139 1.419 . S
C1137 H1141 0.930 . S
C1138 C1137 1.369 . S
C1138 C1147 1.429 . S
C1139 C1137 1.419 . S
C1139 C1140 1.363 . S
C1139 H1142 0.929 . S
C1140 C1139 1.363 . S
C1140 C1146 1.428 . S
H1141 C1137 0.930 . S
H1142 C1139 0.929 . S
S1143 N1144 1.613 . S
S1143 N1145 1.610 . S
N1144 S1143 1.613 . S
N1144 C1147 1.350 . S
N1145 S1143 1.610 . S
N1145 C1146 1.351 . S
C1146 C1140 1.428 . S
C1146 N1145 1.351 . S
C1146 C1147 1.434 . S
C1147 C1138 1.429 . S
C1147 N1144 1.350 . S
C1147 C1146 1.434 . S
C1148 C1149 1.369 . S
C1148 C1150 1.419 . S
C1148 H1152 0.930 . S
C1149 C1148 1.369 . S
C1149 C1158 1.429 . S
C1150 C1148 1.419 . S
C1150 C1151 1.363 . S
C1150 H1153 0.929 . S
C1151 C1150 1.363 . S
C1151 C1157 1.428 . S
H1152 C1148 0.930 . S
H1153 C1150 0.929 . S
S1154 N1155 1.613 . S
S1154 N1156 1.610 . S
N1155 S1154 1.613 . S
N1155 C1158 1.350 . S
N1156 S1154 1.610 . S
N1156 C1157 1.351 . S
C1157 C1151 1.428 . S
C1157 N1156 1.351 . S
C1157 C1158 1.434 . S
C1158 C1149 1.429 . S
C1158 N1155 1.350 . S
C1158 C1157 1.434 . S
C1159 C1160 1.369 . S
C1159 C1161 1.419 . S
C1159 H1163 0.930 . S
C1160 C1159 1.369 . S
C1160 C1169 1.429 . S
C1161 C1159 1.419 . S
C1161 C1162 1.363 . S
C1161 H1164 0.929 . S
C1162 C1161 1.363 . S
C1162 C1168 1.428 . S
H1163 C1159 0.930 . S
H1164 C1161 0.929 . S
S1165 N1166 1.613 . S
S1165 N1167 1.610 . S
N1166 S1165 1.613 . S
N1166 C1169 1.350 . S
N1167 S1165 1.610 . S
N1167 C1168 1.351 . S
C1168 C1162 1.428 . S
C1168 N1167 1.351 . S
C1168 C1169 1.434 . S
C1169 C1160 1.429 . S
C1169 N1166 1.350 . S
C1169 C1168 1.434 . S
C1170 C1171 1.369 . S
C1170 C1172 1.419 . S
C1170 H1174 0.930 . S
C1171 C1170 1.369 . S
C1171 C1180 1.429 . S
C1172 C1170 1.419 . S
C1172 C1173 1.363 . S
C1172 H1175 0.929 . S
C1173 C1172 1.363 . S
C1173 C1179 1.428 . S
H1174 C1170 0.930 . S
H1175 C1172 0.929 . S
S1176 N1177 1.613 . S
S1176 N1178 1.610 . S
N1177 S1176 1.613 . S
N1177 C1180 1.350 . S
N1178 S1176 1.610 . S
N1178 C1179 1.351 . S
C1179 C1173 1.428 . S
C1179 N1178 1.351 . S
C1179 C1180 1.434 . S
C1180 C1171 1.429 . S
C1180 N1177 1.350 . S
C1180 C1179 1.434 . S
C1181 C1182 1.369 . S
C1181 C1183 1.419 . S
C1181 H1185 0.930 . S
C1182 C1181 1.369 . S
C1182 C1191 1.429 . S
C1183 C1181 1.419 . S
C1183 C1184 1.363 . S
C1183 H1186 0.929 . S
C1184 C1183 1.363 . S
C1184 C1190 1.428 . S
H1185 C1181 0.930 . S
H1186 C1183 0.929 . S
S1187 N1188 1.613 . S
S1187 N1189 1.610 . S
N1188 S1187 1.613 . S
N1188 C1191 1.350 . S
N1189 S1187 1.610 . S
N1189 C1190 1.351 . S
C1190 C1184 1.428 . S
C1190 N1189 1.351 . S
C1190 C1191 1.434 . S
C1191 C1182 1.429 . S
C1191 N1188 1.350 . S
C1191 C1190 1.434 . S
C1192 C1193 1.369 . S
C1192 C1194 1.419 . S
C1192 H1196 0.930 . S
C1193 C1192 1.369 . S
C1193 C1202 1.429 . S
C1194 C1192 1.419 . S
C1194 C1195 1.363 . S
C1194 H1197 0.929 . S
C1195 C1194 1.363 . S
C1195 C1201 1.428 . S
H1196 C1192 0.930 . S
H1197 C1194 0.929 . S
S1198 N1199 1.613 . S
S1198 N1200 1.610 . S
N1199 S1198 1.613 . S
N1199 C1202 1.350 . S
N1200 S1198 1.610 . S
N1200 C1201 1.351 . S
C1201 C1195 1.428 . S
C1201 N1200 1.351 . S
C1201 C1202 1.434 . S
C1202 C1193 1.429 . S
C1202 N1199 1.350 . S
C1202 C1201 1.434 . S
C1203 C1204 1.369 . S
C1203 C1205 1.419 . S
C1203 H1207 0.930 . S
C1204 C1203 1.369 . S
C1204 C1213 1.429 . S
C1205 C1203 1.419 . S
C1205 C1206 1.363 . S
C1205 H1208 0.929 . S
C1206 C1205 1.363 . S
C1206 C1212 1.428 . S
H1207 C1203 0.930 . S
H1208 C1205 0.929 . S
S1209 N1210 1.613 . S
S1209 N1211 1.610 . S
N1210 S1209 1.613 . S
N1210 C1213 1.350 . S
N1211 S1209 1.610 . S
N1211 C1212 1.351 . S
C1212 C1206 1.428 . S
C1212 N1211 1.351 . S
C1212 C1213 1.434 . S
C1213 C1204 1.429 . S
C1213 N1210 1.350 . S
C1213 C1212 1.434 . S
C1214 C1215 1.369 . S
C1214 C1216 1.419 . S
C1214 H1218 0.930 . S
C1215 C1214 1.369 . S
C1215 C1224 1.429 . S
C1216 C1214 1.419 . S
C1216 C1217 1.363 . S
C1216 H1219 0.929 . S
C1217 C1216 1.363 . S
C1217 C1223 1.428 . S
H1218 C1214 0.930 . S
H1219 C1216 0.929 . S
S1220 N1221 1.613 . S
S1220 N1222 1.610 . S
N1221 S1220 1.613 . S
N1221 C1224 1.350 . S
N1222 S1220 1.610 . S
N1222 C1223 1.351 . S
C1223 C1217 1.428 . S
C1223 N1222 1.351 . S
C1223 C1224 1.434 . S
C1224 C1215 1.429 . S
C1224 N1221 1.350 . S
C1224 C1223 1.434 . S
C1225 C1226 1.369 . S
C1225 C1227 1.419 . S
C1225 H1229 0.930 . S
C1226 C1225 1.369 . S
C1226 C1235 1.429 . S
C1227 C1225 1.419 . S
C1227 C1228 1.363 . S
C1227 H1230 0.929 . S
C1228 C1227 1.363 . S
C1228 C1234 1.428 . S
H1229 C1225 0.930 . S
H1230 C1227 0.929 . S
S1231 N1232 1.613 . S
S1231 N1233 1.610 . S
N1232 S1231 1.613 . S
N1232 C1235 1.350 . S
N1233 S1231 1.610 . S
N1233 C1234 1.351 . S
C1234 C1228 1.428 . S
C1234 N1233 1.351 . S
C1234 C1235 1.434 . S
C1235 C1226 1.429 . S
C1235 N1232 1.350 . S
C1235 C1234 1.434 . S
C1236 C1237 1.369 . S
C1236 C1238 1.419 . S
C1236 H1240 0.930 . S
C1237 C1236 1.369 . S
C1237 C1246 1.429 . S
C1238 C1236 1.419 . S
C1238 C1239 1.363 . S
C1238 H1241 0.929 . S
C1239 C1238 1.363 . S
C1239 C1245 1.428 . S
H1240 C1236 0.930 . S
H1241 C1238 0.929 . S
S1242 N1243 1.613 . S
S1242 N1244 1.610 . S
N1243 S1242 1.613 . S
N1243 C1246 1.350 . S
N1244 S1242 1.610 . S
N1244 C1245 1.351 . S
C1245 C1239 1.428 . S
C1245 N1244 1.351 . S
C1245 C1246 1.434 . S
C1246 C1237 1.429 . S
C1246 N1243 1.350 . S
C1246 C1245 1.434 . S
C1247 C1248 1.369 . S
C1247 C1249 1.419 . S
C1247 H1251 0.930 . S
C1248 C1247 1.369 . S
C1248 C1257 1.429 . S
C1249 C1247 1.419 . S
C1249 C1250 1.363 . S
C1249 H1252 0.929 . S
C1250 C1249 1.363 . S
C1250 C1256 1.428 . S
H1251 C1247 0.930 . S
H1252 C1249 0.929 . S
S1253 N1254 1.613 . S
S1253 N1255 1.610 . S
N1254 S1253 1.613 . S
N1254 C1257 1.350 . S
N1255 S1253 1.610 . S
N1255 C1256 1.351 . S
C1256 C1250 1.428 . S
C1256 N1255 1.351 . S
C1256 C1257 1.434 . S
C1257 C1248 1.429 . S
C1257 N1254 1.350 . S
C1257 C1256 1.434 . S
C1258 C1259 1.369 . S
C1258 C1260 1.419 . S
C1258 H1262 0.930 . S
C1259 C1258 1.369 . S
C1259 C1268 1.429 . S
C1260 C1258 1.419 . S
C1260 C1261 1.363 . S
C1260 H1263 0.929 . S
C1261 C1260 1.363 . S
C1261 C1267 1.428 . S
H1262 C1258 0.930 . S
H1263 C1260 0.929 . S
S1264 N1265 1.613 . S
S1264 N1266 1.610 . S
N1265 S1264 1.613 . S
N1265 C1268 1.350 . S
N1266 S1264 1.610 . S
N1266 C1267 1.351 . S
C1267 C1261 1.428 . S
C1267 N1266 1.351 . S
C1267 C1268 1.434 . S
C1268 C1259 1.429 . S
C1268 N1265 1.350 . S
C1268 C1267 1.434 . S
C1269 C1270 1.369 . S
C1269 C1271 1.419 . S
C1269 H1273 0.930 . S
C1270 C1269 1.369 . S
C1270 C1279 1.429 . S
C1271 C1269 1.419 . S
C1271 C1272 1.363 . S
C1271 H1274 0.929 . S
C1272 C1271 1.363 . S
C1272 C1278 1.428 . S
H1273 C1269 0.930 . S
H1274 C1271 0.929 . S
S1275 N1276 1.613 . S
S1275 N1277 1.610 . S
N1276 S1275 1.613 . S
N1276 C1279 1.350 . S
N1277 S1275 1.610 . S
N1277 C1278 1.351 . S
C1278 C1272 1.428 . S
C1278 N1277 1.351 . S
C1278 C1279 1.434 . S
C1279 C1270 1.429 . S
C1279 N1276 1.350 . S
C1279 C1278 1.434 . S
C1280 C1281 1.369 . S
C1280 C1282 1.419 . S
C1280 H1284 0.930 . S
C1281 C1280 1.369 . S
C1281 C1290 1.429 . S
C1282 C1280 1.419 . S
C1282 C1283 1.363 . S
C1282 H1285 0.929 . S
C1283 C1282 1.363 . S
C1283 C1289 1.428 . S
H1284 C1280 0.930 . S
H1285 C1282 0.929 . S
S1286 N1287 1.613 . S
S1286 N1288 1.610 . S
N1287 S1286 1.613 . S
N1287 C1290 1.350 . S
N1288 S1286 1.610 . S
N1288 C1289 1.351 . S
C1289 C1283 1.428 . S
C1289 N1288 1.351 . S
C1289 C1290 1.434 . S
C1290 C1281 1.429 . S
C1290 N1287 1.350 . S
C1290 C1289 1.434 . S
C1291 C1292 1.369 . S
C1291 C1293 1.419 . S
C1291 H1295 0.930 . S
C1292 C1291 1.369 . S
C1292 C1301 1.429 . S
C1293 C1291 1.419 . S
C1293 C1294 1.363 . S
C1293 H1296 0.929 . S
C1294 C1293 1.363 . S
C1294 C1300 1.428 . S
H1295 C1291 0.930 . S
H1296 C1293 0.929 . S
S1297 N1298 1.613 . S
S1297 N1299 1.610 . S
N1298 S1297 1.613 . S
N1298 C1301 1.350 . S
N1299 S1297 1.610 . S
N1299 C1300 1.351 . S
C1300 C1294 1.428 . S
C1300 N1299 1.351 . S
C1300 C1301 1.434 . S
C1301 C1292 1.429 . S
C1301 N1298 1.350 . S
C1301 C1300 1.434 . S
C1302 C1303 1.369 . S
C1302 C1304 1.419 . S
C1302 H1306 0.930 . S
C1303 C1302 1.369 . S
C1303 C1312 1.429 . S
C1304 C1302 1.419 . S
C1304 C1305 1.363 . S
C1304 H1307 0.929 . S
C1305 C1304 1.363 . S
C1305 C1311 1.428 . S
H1306 C1302 0.930 . S
H1307 C1304 0.929 . S
S1308 N1309 1.613 . S
S1308 N1310 1.610 . S
N1309 S1308 1.613 . S
N1309 C1312 1.350 . S
N1310 S1308 1.610 . S
N1310 C1311 1.351 . S
C1311 C1305 1.428 . S
C1311 N1310 1.351 . S
C1311 C1312 1.434 . S
C1312 C1303 1.429 . S
C1312 N1309 1.350 . S
C1312 C1311 1.434 . S
C1313 C1314 1.369 . S
C1313 C1315 1.419 . S
C1313 H1317 0.930 . S
C1314 C1313 1.369 . S
C1314 C1323 1.429 . S
C1315 C1313 1.419 . S
C1315 C1316 1.363 . S
C1315 H1318 0.929 . S
C1316 C1315 1.363 . S
C1316 C1322 1.428 . S
H1317 C1313 0.930 . S
H1318 C1315 0.929 . S
S1319 N1320 1.613 . S
S1319 N1321 1.610 . S
N1320 S1319 1.613 . S
N1320 C1323 1.350 . S
N1321 S1319 1.610 . S
N1321 C1322 1.351 . S
C1322 C1316 1.428 . S
C1322 N1321 1.351 . S
C1322 C1323 1.434 . S
C1323 C1314 1.429 . S
C1323 N1320 1.350 . S
C1323 C1322 1.434 . S
C1324 C1325 1.369 . S
C1324 C1326 1.419 . S
C1324 H1328 0.930 . S
C1325 C1324 1.369 . S
C1325 C1334 1.429 . S
C1326 C1324 1.419 . S
C1326 C1327 1.363 . S
C1326 H1329 0.929 . S
C1327 C1326 1.363 . S
C1327 C1333 1.428 . S
H1328 C1324 0.930 . S
H1329 C1326 0.929 . S
S1330 N1331 1.613 . S
S1330 N1332 1.610 . S
N1331 S1330 1.613 . S
N1331 C1334 1.350 . S
N1332 S1330 1.610 . S
N1332 C1333 1.351 . S
C1333 C1327 1.428 . S
C1333 N1332 1.351 . S
C1333 C1334 1.434 . S
C1334 C1325 1.429 . S
C1334 N1331 1.350 . S
C1334 C1333 1.434 . S
C1335 C1336 1.369 . S
C1335 C1337 1.419 . S
C1335 H1339 0.930 . S
C1336 C1335 1.369 . S
C1336 C1345 1.429 . S
C1337 C1335 1.419 . S
C1337 C1338 1.363 . S
C1337 H1340 0.929 . S
C1338 C1337 1.363 . S
C1338 C1344 1.428 . S
H1339 C1335 0.930 . S
H1340 C1337 0.929 . S
S1341 N1342 1.613 . S
S1341 N1343 1.610 . S
N1342 S1341 1.613 . S
N1342 C1345 1.350 . S
N1343 S1341 1.610 . S
N1343 C1344 1.351 . S
C1344 C1338 1.428 . S
C1344 N1343 1.351 . S
C1344 C1345 1.434 . S
C1345 C1336 1.429 . S
C1345 N1342 1.350 . S
C1345 C1344 1.434 . S
C1346 C1347 1.369 . S
C1346 C1348 1.419 . S
C1346 H1350 0.930 . S
C1347 C1346 1.369 . S
C1347 C1356 1.429 . S
C1348 C1346 1.419 . S
C1348 C1349 1.363 . S
C1348 H1351 0.929 . S
C1349 C1348 1.363 . S
C1349 C1355 1.428 . S
H1350 C1346 0.930 . S
H1351 C1348 0.929 . S
S1352 N1353 1.613 . S
S1352 N1354 1.610 . S
N1353 S1352 1.613 . S
N1353 C1356 1.350 . S
N1354 S1352 1.610 . S
N1354 C1355 1.351 . S
C1355 C1349 1.428 . S
C1355 N1354 1.351 . S
C1355 C1356 1.434 . S
C1356 C1347 1.429 . S
C1356 N1353 1.350 . S
C1356 C1355 1.434 . S
C1357 C1358 1.369 . S
C1357 C1359 1.419 . S
C1357 H1361 0.930 . S
C1358 C1357 1.369 . S
C1358 C1367 1.429 . S
C1359 C1357 1.419 . S
C1359 C1360 1.363 . S
C1359 H1362 0.929 . S
C1360 C1359 1.363 . S
C1360 C1366 1.428 . S
H1361 C1357 0.930 . S
H1362 C1359 0.929 . S
S1363 N1364 1.613 . S
S1363 N1365 1.610 . S
N1364 S1363 1.613 . S
N1364 C1367 1.350 . S
N1365 S1363 1.610 . S
N1365 C1366 1.351 . S
C1366 C1360 1.428 . S
C1366 N1365 1.351 . S
C1366 C1367 1.434 . S
C1367 C1358 1.429 . S
C1367 N1364 1.350 . S
C1367 C1366 1.434 . S
C1368 C1369 1.369 1_655 S
C1368 C1370 1.419 . S
C1368 H1372 0.930 . S
C1369 C1368 1.369 1_455 S
C1369 C1378 1.429 . S
C1370 C1368 1.419 . S
C1370 C1371 1.363 . S
C1370 H1373 0.929 . S
C1371 C1370 1.363 . S
C1371 C1377 1.428 1_655 S
H1372 C1368 0.930 . S
H1373 C1370 0.929 . S
S1374 N1375 1.613 . S
S1374 N1376 1.610 . S
N1375 S1374 1.613 . S
N1375 C1378 1.350 . S
N1376 S1374 1.610 . S
N1376 C1377 1.351 . S
C1377 C1371 1.428 1_455 S
C1377 N1376 1.351 . S
C1377 C1378 1.434 . S
C1378 C1369 1.429 . S
C1378 N1375 1.350 . S
C1378 C1377 1.434 . S
C1379 C1380 1.369 . S
C1379 C1381 1.419 1_565 S
C1379 H1383 0.930 1_565 S
C1380 C1379 1.369 . S
C1380 C1389 1.429 . S
C1381 C1379 1.419 1_545 S
C1381 C1382 1.363 1_545 S
C1381 H1384 0.929 . S
C1382 C1381 1.363 1_565 S
C1382 C1388 1.428 . S
H1383 C1379 0.930 1_545 S
H1384 C1381 0.929 . S
S1385 N1386 1.613 . S
S1385 N1387 1.610 . S
N1386 S1385 1.613 . S
N1386 C1389 1.350 . S
N1387 S1385 1.610 . S
N1387 C1388 1.351 . S
C1388 C1382 1.428 . S
C1388 N1387 1.351 . S
C1388 C1389 1.434 . S
C1389 C1380 1.429 . S
C1389 N1386 1.350 . S
C1389 C1388 1.434 . S
C1390 C1391 1.369 . S
C1390 C1392 1.419 . S
C1390 H1394 0.930 . S
C1391 C1390 1.369 . S
C1391 C1400 1.429 1_455 S
C1392 C1390 1.419 . S
C1392 C1393 1.363 1_455 S
C1392 H1395 0.929 . S
C1393 C1392 1.363 1_655 S
C1393 C1399 1.428 . S
H1394 C1390 0.930 . S
H1395 C1392 0.929 . S
S1396 N1397 1.613 . S
S1396 N1398 1.610 . S
N1397 S1396 1.613 . S
N1397 C1400 1.350 . S
N1398 S1396 1.610 . S
N1398 C1399 1.351 . S
C1399 C1393 1.428 . S
C1399 N1398 1.351 . S
C1399 C1400 1.434 . S
C1400 C1391 1.429 1_655 S
C1400 N1397 1.350 . S
C1400 C1399 1.434 . S
C1401 C1402 1.378 . S
C1401 C1403 1.416 1_545 S
C1401 H1405 0.923 1_545 S
C1402 C1401 1.378 . S
C1402 C1411 1.429 . S
C1403 C1401 1.416 1_565 S
C1403 C1404 1.363 1_565 S
C1403 H1406 0.929 . S
C1404 C1403 1.363 1_545 S
C1404 C1410 1.428 . S
H1405 C1401 0.923 1_565 S
H1406 C1403 0.929 . S
S1407 N1408 1.613 . S
S1407 N1409 1.610 . S
N1408 S1407 1.613 . S
N1408 C1411 1.350 . S
N1409 S1407 1.610 . S
N1409 C1410 1.351 . S
C1410 C1404 1.428 . S
C1410 N1409 1.351 . S
C1410 C1411 1.434 . S
C1411 C1402 1.429 . S
C1411 N1408 1.350 . S
C1411 C1410 1.434 . S
C1412 C1413 1.369 1_455 S
C1412 C1414 1.419 . S
C1412 H1416 0.930 . S
C1413 C1412 1.369 1_655 S
C1413 C1422 1.429 . S
C1414 C1412 1.419 . S
C1414 C1415 1.363 . S
C1414 H1417 0.929 . S
C1415 C1414 1.363 . S
C1415 C1421 1.428 1_455 S
H1416 C1412 0.930 . S
H1417 C1414 0.929 . S
S1418 N1419 1.613 . S
S1418 N1420 1.610 . S
N1419 S1418 1.613 . S
N1419 C1422 1.350 . S
N1420 S1418 1.610 . S
N1420 C1421 1.351 . S
C1421 C1415 1.428 1_655 S
C1421 N1420 1.351 . S
C1421 C1422 1.434 . S
C1422 C1413 1.429 . S
C1422 N1419 1.350 . S
C1422 C1421 1.434 . S
C1423 C1424 1.369 . S
C1423 C1425 1.419 . S
C1423 H1427 0.930 . S
C1424 C1423 1.369 . S
C1424 C1433 1.429 1_565 S
C1425 C1423 1.419 . S
C1425 C1426 1.363 . S
C1425 H1428 0.929 . S
C1426 C1425 1.363 . S
C1426 C1432 1.428 1_565 S
H1427 C1423 0.930 . S
H1428 C1425 0.929 . S
S1429 N1430 1.613 . S
S1429 N1431 1.610 . S
N1430 S1429 1.613 . S
N1430 C1433 1.350 . S
N1431 S1429 1.610 . S
N1431 C1432 1.351 . S
C1432 C1426 1.428 1_545 S
C1432 N1431 1.351 . S
C1432 C1433 1.434 . S
C1433 C1424 1.429 1_545 S
C1433 N1430 1.350 . S
C1433 C1432 1.434 . S
C1434 C1435 1.369 . S
C1434 C1436 1.421 . S
C1434 H1438 0.930 . S
C1435 C1434 1.369 . S
C1435 C1444 1.429 . S
C1436 C1434 1.421 . S
C1436 C1437 1.361 1_655 S
C1436 H1439 0.930 . S
C1437 C1436 1.361 1_455 S
C1437 C1443 1.428 . S
H1438 C1434 0.930 . S
H1439 C1436 0.930 . S
S1440 N1441 1.610 1_455 S
S1440 N1442 1.610 . S
N1441 S1440 1.610 1_655 S
N1441 C1444 1.349 . S
N1442 S1440 1.610 . S
N1442 C1443 1.351 . S
C1443 C1437 1.428 . S
C1443 N1442 1.351 . S
C1443 C1444 1.434 1_455 S
C1444 C1435 1.429 . S
C1444 N1441 1.349 . S
C1444 C1443 1.434 1_655 S
C1445 C1446 1.369 . S
C1445 C1447 1.419 . S
C1445 H1449 0.930 . S
C1446 C1445 1.369 . S
C1446 C1455 1.429 1_545 S
C1447 C1445 1.419 . S
C1447 C1448 1.363 . S
C1447 H1450 0.929 . S
C1448 C1447 1.363 . S
C1448 C1454 1.428 1_545 S
H1449 C1445 0.930 . S
H1450 C1447 0.929 . S
S1451 N1452 1.613 . S
S1451 N1453 1.610 . S
N1452 S1451 1.613 . S
N1452 C1455 1.350 . S
N1453 S1451 1.610 . S
N1453 C1454 1.351 . S
C1454 C1448 1.428 1_565 S
C1454 N1453 1.351 . S
C1454 C1455 1.434 . S
C1455 C1446 1.429 1_565 S
C1455 N1452 1.350 . S
C1455 C1454 1.434 . S
C1456 C1457 1.369 . S
C1456 C1458 1.419 . S
C1456 H1460 0.930 . S
C1457 C1456 1.369 . S
C1457 C1466 1.429 1_556 S
C1458 C1456 1.419 . S
C1458 C1459 1.363 . S
C1458 H1461 0.929 . S
C1459 C1458 1.363 . S
C1459 C1465 1.428 1_556 S
H1460 C1456 0.930 . S
H1461 C1458 0.929 . S
S1462 N1463 1.613 . S
S1462 N1464 1.610 . S
N1463 S1462 1.613 . S
N1463 C1466 1.350 . S
N1464 S1462 1.610 . S
N1464 C1465 1.351 . S
C1465 C1459 1.428 1_554 S
C1465 N1464 1.351 . S
C1465 C1466 1.434 . S
C1466 C1457 1.429 1_554 S
C1466 N1463 1.350 . S
C1466 C1465 1.434 . S
C1467 C1468 1.369 . S
C1467 C1469 1.419 . S
C1467 H1471 0.930 . S
C1468 C1467 1.369 . S
C1468 C1477 1.429 . S
C1469 C1467 1.419 . S
C1469 C1470 1.363 . S
C1469 H1472 0.929 1_554 S
C1470 C1469 1.363 . S
C1470 C1476 1.428 . S
H1471 C1467 0.930 . S
H1472 C1469 0.929 1_556 S
S1473 N1474 1.613 . S
S1473 N1475 1.610 . S
N1474 S1473 1.613 . S
N1474 C1477 1.350 . S
N1475 S1473 1.610 . S
N1475 C1476 1.351 . S
C1476 C1470 1.428 . S
C1476 N1475 1.351 . S
C1476 C1477 1.434 . S
C1477 C1468 1.429 . S
C1477 N1474 1.350 . S
C1477 C1476 1.434 . S
C1478 C1479 1.369 . S
C1478 C1480 1.419 . S
C1478 H1482 0.930 . S
C1479 C1478 1.369 . S
C1479 C1488 1.429 1_554 S
C1480 C1478 1.419 . S
C1480 C1481 1.363 . S
C1480 H1483 0.929 . S
C1481 C1480 1.363 . S
C1481 C1487 1.428 1_554 S
H1482 C1478 0.930 . S
H1483 C1480 0.929 . S
S1484 N1485 1.613 . S
S1484 N1486 1.610 . S
N1485 S1484 1.613 . S
N1485 C1488 1.350 . S
N1486 S1484 1.610 . S
N1486 C1487 1.351 . S
C1487 C1481 1.428 1_556 S
C1487 N1486 1.351 . S
C1487 C1488 1.434 . S
C1488 C1479 1.429 1_556 S
C1488 N1485 1.350 . S
C1488 C1487 1.434 . S
C1489 C1490 1.369 1_554 S
C1489 C1491 1.419 . S
C1489 H1493 0.930 . S
C1490 C1489 1.369 1_556 S
C1490 C1499 1.429 . S
C1491 C1489 1.419 . S
C1491 C1492 1.363 1_554 S
C1491 H1494 0.929 . S
C1492 C1491 1.363 1_556 S
C1492 C1498 1.428 . S
H1493 C1489 0.930 . S
H1494 C1491 0.929 . S
S1495 N1496 1.613 . S
S1495 N1497 1.610 . S
N1496 S1495 1.613 . S
N1496 C1499 1.350 . S
N1497 S1495 1.610 . S
N1497 C1498 1.351 . S
C1498 C1492 1.428 . S
C1498 N1497 1.351 . S
C1498 C1499 1.434 . S
C1499 C1490 1.429 . S
C1499 N1496 1.350 . S
C1499 C1498 1.434 . S
C1500 C1501 1.369 . S
C1500 C1502 1.419 . S
C1500 H1504 0.930 . S
C1501 C1500 1.369 . S
C1501 C1510 1.429 . S
C1502 C1500 1.419 . S
C1502 C1503 1.363 . S
C1502 H1505 0.929 . S
C1503 C1502 1.363 . S
C1503 C1509 1.428 . S
H1504 C1500 0.930 . S
H1505 C1502 0.929 . S
S1506 N1507 1.613 . S
S1506 N1508 1.610 . S
N1507 S1506 1.613 . S
N1507 C1510 1.350 . S
N1508 S1506 1.610 . S
N1508 C1509 1.351 . S
C1509 C1503 1.428 . S
C1509 N1508 1.351 . S
C1509 C1510 1.434 . S
C1510 C1501 1.429 . S
C1510 N1507 1.350 . S
C1510 C1509 1.434 . S
C1511 C1512 1.369 . S
C1511 C1513 1.419 . S
C1511 H1515 0.930 . S
C1512 C1511 1.369 . S
C1512 C1521 1.429 . S
C1513 C1511 1.419 . S
C1513 C1514 1.363 . S
C1513 H1516 0.929 . S
C1514 C1513 1.363 . S
C1514 C1520 1.428 . S
H1515 C1511 0.930 . S
H1516 C1513 0.929 . S
S1517 N1518 1.613 . S
S1517 N1519 1.610 . S
N1518 S1517 1.613 . S
N1518 C1521 1.350 . S
N1519 S1517 1.610 . S
N1519 C1520 1.351 . S
C1520 C1514 1.428 . S
C1520 N1519 1.351 . S
C1520 C1521 1.434 . S
C1521 C1512 1.429 . S
C1521 N1518 1.350 . S
C1521 C1520 1.434 . S
C1522 C1523 1.369 . S
C1522 C1524 1.419 . S
C1522 H1526 0.930 . S
C1523 C1522 1.369 . S
C1523 C1532 1.429 . S
C1524 C1522 1.419 . S
C1524 C1525 1.363 . S
C1524 H1527 0.929 . S
C1525 C1524 1.363 . S
C1525 C1531 1.428 . S
H1526 C1522 0.930 . S
H1527 C1524 0.929 . S
S1528 N1529 1.613 . S
S1528 N1530 1.610 . S
N1529 S1528 1.613 . S
N1529 C1532 1.350 . S
N1530 S1528 1.610 . S
N1530 C1531 1.351 . S
C1531 C1525 1.428 . S
C1531 N1530 1.351 . S
C1531 C1532 1.434 . S
C1532 C1523 1.429 . S
C1532 N1529 1.350 . S
C1532 C1531 1.434 . S
C1533 C1534 1.369 . S
C1533 C1535 1.419 . S
C1533 H1537 0.930 . S
C1534 C1533 1.369 . S
C1534 C1543 1.429 . S
C1535 C1533 1.419 . S
C1535 C1536 1.363 . S
C1535 H1538 0.929 . S
C1536 C1535 1.363 . S
C1536 C1542 1.428 . S
H1537 C1533 0.930 . S
H1538 C1535 0.929 . S
S1539 N1540 1.613 . S
S1539 N1541 1.610 . S
N1540 S1539 1.613 . S
N1540 C1543 1.350 . S
N1541 S1539 1.610 . S
N1541 C1542 1.351 . S
C1542 C1536 1.428 . S
C1542 N1541 1.351 . S
C1542 C1543 1.434 . S
C1543 C1534 1.429 . S
C1543 N1540 1.350 . S
C1543 C1542 1.434 . S
C1544 C1545 1.369 . S
C1544 C1546 1.419 . S
C1544 H1548 0.930 . S
C1545 C1544 1.369 . S
C1545 C1554 1.429 . S
C1546 C1544 1.419 . S
C1546 C1547 1.363 . S
C1546 H1549 0.929 . S
C1547 C1546 1.363 . S
C1547 C1553 1.428 . S
H1548 C1544 0.930 . S
H1549 C1546 0.929 . S
S1550 N1551 1.613 . S
S1550 N1552 1.610 . S
N1551 S1550 1.613 . S
N1551 C1554 1.350 . S
N1552 S1550 1.610 . S
N1552 C1553 1.351 . S
C1553 C1547 1.428 . S
C1553 N1552 1.351 . S
C1553 C1554 1.434 . S
C1554 C1545 1.429 . S
C1554 N1551 1.350 . S
C1554 C1553 1.434 . S
C1555 C1556 1.369 . S
C1555 C1557 1.419 . S
C1555 H1559 0.930 . S
C1556 C1555 1.369 . S
C1556 C1565 1.429 . S
C1557 C1555 1.419 . S
C1557 C1558 1.363 . S
C1557 H1560 0.929 . S
C1558 C1557 1.363 . S
C1558 C1564 1.428 . S
H1559 C1555 0.930 . S
H1560 C1557 0.929 . S
S1561 N1562 1.613 . S
S1561 N1563 1.610 . S
N1562 S1561 1.613 . S
N1562 C1565 1.350 . S
N1563 S1561 1.610 . S
N1563 C1564 1.351 . S
C1564 C1558 1.428 . S
C1564 N1563 1.351 . S
C1564 C1565 1.434 . S
C1565 C1556 1.429 . S
C1565 N1562 1.350 . S
C1565 C1564 1.434 . S
C1566 C1567 1.369 . S
C1566 C1568 1.419 . S
C1566 H1570 0.930 . S
C1567 C1566 1.369 . S
C1567 C1576 1.429 . S
C1568 C1566 1.419 . S
C1568 C1569 1.363 . S
C1568 H1571 0.929 . S
C1569 C1568 1.363 . S
C1569 C1575 1.428 . S
H1570 C1566 0.930 . S
H1571 C1568 0.929 . S
S1572 N1573 1.613 . S
S1572 N1574 1.610 . S
N1573 S1572 1.613 . S
N1573 C1576 1.350 . S
N1574 S1572 1.610 . S
N1574 C1575 1.351 . S
C1575 C1569 1.428 . S
C1575 N1574 1.351 . S
C1575 C1576 1.434 . S
C1576 C1567 1.429 . S
C1576 N1573 1.350 . S
C1576 C1575 1.434 . S
C1577 C1578 1.369 . S
C1577 C1579 1.419 . S
C1577 H1581 0.930 . S
C1578 C1577 1.369 . S
C1578 C1587 1.429 . S
C1579 C1577 1.419 . S
C1579 C1580 1.363 . S
C1579 H1582 0.929 . S
C1580 C1579 1.363 . S
C1580 C1586 1.428 . S
H1581 C1577 0.930 . S
H1582 C1579 0.929 . S
S1583 N1584 1.613 . S
S1583 N1585 1.610 . S
N1584 S1583 1.613 . S
N1584 C1587 1.350 . S
N1585 S1583 1.610 . S
N1585 C1586 1.351 . S
C1586 C1580 1.428 . S
C1586 N1585 1.351 . S
C1586 C1587 1.434 . S
C1587 C1578 1.429 . S
C1587 N1584 1.350 . S
C1587 C1586 1.434 . S
C1588 C1589 1.369 . S
C1588 C1590 1.419 . S
C1588 H1592 0.930 . S
C1589 C1588 1.369 . S
C1589 C1598 1.429 . S
C1590 C1588 1.419 . S
C1590 C1591 1.363 . S
C1590 H1593 0.929 . S
C1591 C1590 1.363 . S
C1591 C1597 1.428 . S
H1592 C1588 0.930 . S
H1593 C1590 0.929 . S
S1594 N1595 1.613 . S
S1594 N1596 1.610 . S
N1595 S1594 1.613 . S
N1595 C1598 1.350 . S
N1596 S1594 1.610 . S
N1596 C1597 1.351 . S
C1597 C1591 1.428 . S
C1597 N1596 1.351 . S
C1597 C1598 1.434 . S
C1598 C1589 1.429 . S
C1598 N1595 1.350 . S
C1598 C1597 1.434 . S
C1599 C1600 1.369 . S
C1599 C1601 1.419 . S
C1599 H1603 0.930 . S
C1600 C1599 1.369 . S
C1600 C1609 1.429 . S
C1601 C1599 1.419 . S
C1601 C1602 1.363 . S
C1601 H1604 0.929 . S
C1602 C1601 1.363 . S
C1602 C1608 1.428 . S
H1603 C1599 0.930 . S
H1604 C1601 0.929 . S
S1605 N1606 1.613 . S
S1605 N1607 1.610 . S
N1606 S1605 1.613 . S
N1606 C1609 1.350 . S
N1607 S1605 1.610 . S
N1607 C1608 1.351 . S
C1608 C1602 1.428 . S
C1608 N1607 1.351 . S
C1608 C1609 1.434 . S
C1609 C1600 1.429 . S
C1609 N1606 1.350 . S
C1609 C1608 1.434 . S
C1610 C1611 1.369 . S
C1610 C1612 1.419 . S
C1610 H1614 0.930 . S
C1611 C1610 1.369 . S
C1611 C1620 1.429 . S
C1612 C1610 1.419 . S
C1612 C1613 1.363 . S
C1612 H1615 0.929 . S
C1613 C1612 1.363 . S
C1613 C1619 1.428 . S
H1614 C1610 0.930 . S
H1615 C1612 0.929 . S
S1616 N1617 1.613 . S
S1616 N1618 1.610 . S
N1617 S1616 1.613 . S
N1617 C1620 1.350 . S
N1618 S1616 1.610 . S
N1618 C1619 1.351 . S
C1619 C1613 1.428 . S
C1619 N1618 1.351 . S
C1619 C1620 1.434 . S
C1620 C1611 1.429 . S
C1620 N1617 1.350 . S
C1620 C1619 1.434 . S
C1621 C1622 1.369 . S
C1621 C1623 1.419 . S
C1621 H1625 0.930 . S
C1622 C1621 1.369 . S
C1622 C1631 1.429 . S
C1623 C1621 1.419 . S
C1623 C1624 1.363 . S
C1623 H1626 0.929 . S
C1624 C1623 1.363 . S
C1624 C1630 1.428 . S
H1625 C1621 0.930 . S
H1626 C1623 0.929 . S
S1627 N1628 1.613 . S
S1627 N1629 1.610 . S
N1628 S1627 1.613 . S
N1628 C1631 1.350 . S
N1629 S1627 1.610 . S
N1629 C1630 1.351 . S
C1630 C1624 1.428 . S
C1630 N1629 1.351 . S
C1630 C1631 1.434 . S
C1631 C1622 1.429 . S
C1631 N1628 1.350 . S
C1631 C1630 1.434 . S
C1632 C1633 1.369 . S
C1632 C1634 1.419 . S
C1632 H1636 0.930 . S
C1633 C1632 1.369 . S
C1633 C1642 1.429 . S
C1634 C1632 1.419 . S
C1634 C1635 1.363 . S
C1634 H1637 0.929 . S
C1635 C1634 1.363 . S
C1635 C1641 1.428 . S
H1636 C1632 0.930 . S
H1637 C1634 0.929 . S
S1638 N1639 1.613 . S
S1638 N1640 1.610 . S
N1639 S1638 1.613 . S
N1639 C1642 1.350 . S
N1640 S1638 1.610 . S
N1640 C1641 1.351 . S
C1641 C1635 1.428 . S
C1641 N1640 1.351 . S
C1641 C1642 1.434 . S
C1642 C1633 1.429 . S
C1642 N1639 1.350 . S
C1642 C1641 1.434 . S
C1643 C1644 1.369 . S
C1643 C1645 1.419 . S
C1643 H1647 0.930 . S
C1644 C1643 1.369 . S
C1644 C1653 1.429 . S
C1645 C1643 1.419 . S
C1645 C1646 1.363 . S
C1645 H1648 0.929 . S
C1646 C1645 1.363 . S
C1646 C1652 1.428 . S
H1647 C1643 0.930 . S
H1648 C1645 0.929 . S
S1649 N1650 1.613 . S
S1649 N1651 1.610 . S
N1650 S1649 1.613 . S
N1650 C1653 1.350 . S
N1651 S1649 1.610 . S
N1651 C1652 1.351 . S
C1652 C1646 1.428 . S
C1652 N1651 1.351 . S
C1652 C1653 1.434 . S
C1653 C1644 1.429 . S
C1653 N1650 1.350 . S
C1653 C1652 1.434 . S
C1654 C1655 1.369 . S
C1654 C1656 1.419 . S
C1654 H1658 0.930 . S
C1655 C1654 1.369 . S
C1655 C1664 1.429 . S
C1656 C1654 1.419 . S
C1656 C1657 1.363 . S
C1656 H1659 0.929 . S
C1657 C1656 1.363 . S
C1657 C1663 1.428 . S
H1658 C1654 0.930 . S
H1659 C1656 0.929 . S
S1660 N1661 1.613 . S
S1660 N1662 1.610 . S
N1661 S1660 1.613 . S
N1661 C1664 1.350 . S
N1662 S1660 1.610 . S
N1662 C1663 1.351 . S
C1663 C1657 1.428 . S
C1663 N1662 1.351 . S
C1663 C1664 1.434 . S
C1664 C1655 1.429 . S
C1664 N1661 1.350 . S
C1664 C1663 1.434 . S
C1665 C1666 1.369 . S
C1665 C1667 1.419 . S
C1665 H1669 0.930 . S
C1666 C1665 1.369 . S
C1666 C1675 1.429 . S
C1667 C1665 1.419 . S
C1667 C1668 1.363 . S
C1667 H1670 0.929 . S
C1668 C1667 1.363 . S
C1668 C1674 1.428 . S
H1669 C1665 0.930 . S
H1670 C1667 0.929 . S
S1671 N1672 1.613 . S
S1671 N1673 1.610 . S
N1672 S1671 1.613 . S
N1672 C1675 1.350 . S
N1673 S1671 1.610 . S
N1673 C1674 1.351 . S
C1674 C1668 1.428 . S
C1674 N1673 1.351 . S
C1674 C1675 1.434 . S
C1675 C1666 1.429 . S
C1675 N1672 1.350 . S
C1675 C1674 1.434 . S
C1676 C1677 1.369 . S
C1676 C1678 1.419 . S
C1676 H1680 0.930 . S
C1677 C1676 1.369 . S
C1677 C1686 1.429 . S
C1678 C1676 1.419 . S
C1678 C1679 1.363 . S
C1678 H1681 0.929 . S
C1679 C1678 1.363 . S
C1679 C1685 1.428 . S
H1680 C1676 0.930 . S
H1681 C1678 0.929 . S
S1682 N1683 1.613 . S
S1682 N1684 1.610 . S
N1683 S1682 1.613 . S
N1683 C1686 1.350 . S
N1684 S1682 1.610 . S
N1684 C1685 1.351 . S
C1685 C1679 1.428 . S
C1685 N1684 1.351 . S
C1685 C1686 1.434 . S
C1686 C1677 1.429 . S
C1686 N1683 1.350 . S
C1686 C1685 1.434 . S
C1687 C1688 1.369 . S
C1687 C1689 1.419 . S
C1687 H1691 0.930 . S
C1688 C1687 1.369 . S
C1688 C1697 1.429 . S
C1689 C1687 1.419 . S
C1689 C1690 1.363 . S
C1689 H1692 0.929 . S
C1690 C1689 1.363 . S
C1690 C1696 1.428 . S
H1691 C1687 0.930 . S
H1692 C1689 0.929 . S
S1693 N1694 1.613 . S
S1693 N1695 1.610 . S
N1694 S1693 1.613 . S
N1694 C1697 1.350 . S
N1695 S1693 1.610 . S
N1695 C1696 1.351 . S
C1696 C1690 1.428 . S
C1696 N1695 1.351 . S
C1696 C1697 1.434 . S
C1697 C1688 1.429 . S
C1697 N1694 1.350 . S
C1697 C1696 1.434 . S
C1698 C1699 1.369 . S
C1698 C1700 1.419 . S
C1698 H1702 0.930 . S
C1699 C1698 1.369 . S
C1699 C1708 1.429 . S
C1700 C1698 1.419 . S
C1700 C1701 1.363 . S
C1700 H1703 0.929 . S
C1701 C1700 1.363 . S
C1701 C1707 1.428 . S
H1702 C1698 0.930 . S
H1703 C1700 0.929 . S
S1704 N1705 1.613 . S
S1704 N1706 1.610 . S
N1705 S1704 1.613 . S
N1705 C1708 1.350 . S
N1706 S1704 1.610 . S
N1706 C1707 1.351 . S
C1707 C1701 1.428 . S
C1707 N1706 1.351 . S
C1707 C1708 1.434 . S
C1708 C1699 1.429 . S
C1708 N1705 1.350 . S
C1708 C1707 1.434 . S
C1709 C1710 1.369 . S
C1709 C1711 1.419 . S
C1709 H1713 0.930 . S
C1710 C1709 1.369 . S
C1710 C1719 1.429 . S
C1711 C1709 1.419 . S
C1711 C1712 1.363 . S
C1711 H1714 0.929 . S
C1712 C1711 1.363 . S
C1712 C1718 1.428 . S
H1713 C1709 0.930 . S
H1714 C1711 0.929 . S
S1715 N1716 1.613 . S
S1715 N1717 1.610 . S
N1716 S1715 1.613 . S
N1716 C1719 1.350 . S
N1717 S1715 1.610 . S
N1717 C1718 1.351 . S
C1718 C1712 1.428 . S
C1718 N1717 1.351 . S
C1718 C1719 1.434 . S
C1719 C1710 1.429 . S
C1719 N1716 1.350 . S
C1719 C1718 1.434 . S
C1720 C1721 1.369 . S
C1720 C1722 1.419 . S
C1720 H1724 0.930 . S
C1721 C1720 1.369 . S
C1721 C1730 1.429 . S
C1722 C1720 1.419 . S
C1722 C1723 1.363 . S
C1722 H1725 0.929 . S
C1723 C1722 1.363 . S
C1723 C1729 1.428 . S
H1724 C1720 0.930 . S
H1725 C1722 0.929 . S
S1726 N1727 1.613 . S
S1726 N1728 1.610 . S
N1727 S1726 1.613 . S
N1727 C1730 1.350 . S
N1728 S1726 1.610 . S
N1728 C1729 1.351 . S
C1729 C1723 1.428 . S
C1729 N1728 1.351 . S
C1729 C1730 1.434 . S
C1730 C1721 1.429 . S
C1730 N1727 1.350 . S
C1730 C1729 1.434 . S
C1731 C1732 1.369 . S
C1731 C1733 1.419 . S
C1731 H1735 0.930 . S
C1732 C1731 1.369 . S
C1732 C1741 1.429 . S
C1733 C1731 1.419 . S
C1733 C1734 1.363 . S
C1733 H1736 0.929 . S
C1734 C1733 1.363 . S
C1734 C1740 1.428 . S
H1735 C1731 0.930 . S
H1736 C1733 0.929 . S
S1737 N1738 1.613 . S
S1737 N1739 1.610 . S
N1738 S1737 1.613 . S
N1738 C1741 1.350 . S
N1739 S1737 1.610 . S
N1739 C1740 1.351 . S
C1740 C1734 1.428 . S
C1740 N1739 1.351 . S
C1740 C1741 1.434 . S
C1741 C1732 1.429 . S
C1741 N1738 1.350 . S
C1741 C1740 1.434 . S
C1742 C1743 1.369 . S
C1742 C1744 1.419 . S
C1742 H1746 0.930 . S
C1743 C1742 1.369 . S
C1743 C1752 1.429 . S
C1744 C1742 1.419 . S
C1744 C1745 1.363 . S
C1744 H1747 0.929 . S
C1745 C1744 1.363 . S
C1745 C1751 1.428 . S
H1746 C1742 0.930 . S
H1747 C1744 0.929 . S
S1748 N1749 1.613 . S
S1748 N1750 1.610 . S
N1749 S1748 1.613 . S
N1749 C1752 1.350 . S
N1750 S1748 1.610 . S
N1750 C1751 1.351 . S
C1751 C1745 1.428 . S
C1751 N1750 1.351 . S
C1751 C1752 1.434 . S
C1752 C1743 1.429 . S
C1752 N1749 1.350 . S
C1752 C1751 1.434 . S
C1753 C1754 1.369 . S
C1753 C1755 1.419 . S
C1753 H1757 0.930 . S
C1754 C1753 1.369 . S
C1754 C1763 1.429 . S
C1755 C1753 1.419 . S
C1755 C1756 1.363 . S
C1755 H1758 0.929 . S
C1756 C1755 1.363 . S
C1756 C1762 1.428 . S
H1757 C1753 0.930 . S
H1758 C1755 0.929 . S
S1759 N1760 1.613 . S
S1759 N1761 1.610 . S
N1760 S1759 1.613 . S
N1760 C1763 1.350 . S
N1761 S1759 1.610 . S
N1761 C1762 1.351 . S
C1762 C1756 1.428 . S
C1762 N1761 1.351 . S
C1762 C1763 1.434 . S
C1763 C1754 1.429 . S
C1763 N1760 1.350 . S
C1763 C1762 1.434 . S
C1764 C1765 1.369 . S
C1764 C1766 1.419 . S
C1764 H1768 0.930 . S
C1765 C1764 1.369 . S
C1765 C1774 1.429 . S
C1766 C1764 1.419 . S
C1766 C1767 1.363 . S
C1766 H1769 0.929 . S
C1767 C1766 1.363 . S
C1767 C1773 1.428 . S
H1768 C1764 0.930 . S
H1769 C1766 0.929 . S
S1770 N1771 1.613 . S
S1770 N1772 1.610 . S
N1771 S1770 1.613 . S
N1771 C1774 1.350 . S
N1772 S1770 1.610 . S
N1772 C1773 1.351 . S
C1773 C1767 1.428 . S
C1773 N1772 1.351 . S
C1773 C1774 1.434 . S
C1774 C1765 1.429 . S
C1774 N1771 1.350 . S
C1774 C1773 1.434 . S
C1775 C1776 1.369 . S
C1775 C1777 1.419 . S
C1775 H1779 0.930 . S
C1776 C1775 1.369 . S
C1776 C1785 1.429 . S
C1777 C1775 1.419 . S
C1777 C1778 1.363 . S
C1777 H1780 0.929 . S
C1778 C1777 1.363 . S
C1778 C1784 1.428 . S
H1779 C1775 0.930 . S
H1780 C1777 0.929 . S
S1781 N1782 1.613 . S
S1781 N1783 1.610 . S
N1782 S1781 1.613 . S
N1782 C1785 1.350 . S
N1783 S1781 1.610 . S
N1783 C1784 1.351 . S
C1784 C1778 1.428 . S
C1784 N1783 1.351 . S
C1784 C1785 1.434 . S
C1785 C1776 1.429 . S
C1785 N1782 1.350 . S
C1785 C1784 1.434 . S
C1786 C1787 1.369 . S
C1786 C1788 1.419 . S
C1786 H1790 0.930 . S
C1787 C1786 1.369 . S
C1787 C1796 1.429 . S
C1788 C1786 1.419 . S
C1788 C1789 1.363 . S
C1788 H1791 0.929 . S
C1789 C1788 1.363 . S
C1789 C1795 1.428 . S
H1790 C1786 0.930 . S
H1791 C1788 0.929 . S
S1792 N1793 1.613 . S
S1792 N1794 1.610 . S
N1793 S1792 1.613 . S
N1793 C1796 1.350 . S
N1794 S1792 1.610 . S
N1794 C1795 1.351 . S
C1795 C1789 1.428 . S
C1795 N1794 1.351 . S
C1795 C1796 1.434 . S
C1796 C1787 1.429 . S
C1796 N1793 1.350 . S
C1796 C1795 1.434 . S
C1797 C1798 1.369 . S
C1797 C1799 1.419 . S
C1797 H1801 0.930 . S
C1798 C1797 1.369 . S
C1798 C1807 1.429 . S
C1799 C1797 1.419 . S
C1799 C1800 1.363 . S
C1799 H1802 0.929 . S
C1800 C1799 1.363 . S
C1800 C1806 1.428 . S
H1801 C1797 0.930 . S
H1802 C1799 0.929 . S
S1803 N1804 1.613 . S
S1803 N1805 1.610 . S
N1804 S1803 1.613 . S
N1804 C1807 1.350 . S
N1805 S1803 1.610 . S
N1805 C1806 1.351 . S
C1806 C1800 1.428 . S
C1806 N1805 1.351 . S
C1806 C1807 1.434 . S
C1807 C1798 1.429 . S
C1807 N1804 1.350 . S
C1807 C1806 1.434 . S
C1808 C1809 1.369 . S
C1808 C1810 1.419 . S
C1808 H1812 0.930 . S
C1809 C1808 1.369 . S
C1809 C1818 1.429 . S
C1810 C1808 1.419 . S
C1810 C1811 1.363 . S
C1810 H1813 0.929 . S
C1811 C1810 1.363 . S
C1811 C1817 1.428 . S
H1812 C1808 0.930 . S
H1813 C1810 0.929 . S
S1814 N1815 1.613 . S
S1814 N1816 1.610 . S
N1815 S1814 1.613 . S
N1815 C1818 1.350 . S
N1816 S1814 1.610 . S
N1816 C1817 1.351 . S
C1817 C1811 1.428 . S
C1817 N1816 1.351 . S
C1817 C1818 1.434 . S
C1818 C1809 1.429 . S
C1818 N1815 1.350 . S
C1818 C1817 1.434 . S
C1819 C1820 1.369 . S
C1819 C1821 1.419 . S
C1819 H1823 0.930 . S
C1820 C1819 1.369 . S
C1820 C1829 1.429 . S
C1821 C1819 1.419 . S
C1821 C1822 1.363 . S
C1821 H1824 0.929 . S
C1822 C1821 1.363 . S
C1822 C1828 1.428 . S
H1823 C1819 0.930 . S
H1824 C1821 0.929 . S
S1825 N1826 1.613 . S
S1825 N1827 1.610 . S
N1826 S1825 1.613 . S
N1826 C1829 1.350 . S
N1827 S1825 1.610 . S
N1827 C1828 1.351 . S
C1828 C1822 1.428 . S
C1828 N1827 1.351 . S
C1828 C1829 1.434 . S
C1829 C1820 1.429 . S
C1829 N1826 1.350 . S
C1829 C1828 1.434 . S
C1830 C1831 1.369 . S
C1830 C1832 1.419 . S
C1830 H1834 0.930 . S
C1831 C1830 1.369 . S
C1831 C1840 1.429 . S
C1832 C1830 1.419 . S
C1832 C1833 1.363 . S
C1832 H1835 0.929 . S
C1833 C1832 1.363 . S
C1833 C1839 1.428 . S
H1834 C1830 0.930 . S
H1835 C1832 0.929 . S
S1836 N1837 1.613 . S
S1836 N1838 1.610 . S
N1837 S1836 1.613 . S
N1837 C1840 1.350 . S
N1838 S1836 1.610 . S
N1838 C1839 1.351 . S
C1839 C1833 1.428 . S
C1839 N1838 1.351 . S
C1839 C1840 1.434 . S
C1840 C1831 1.429 . S
C1840 N1837 1.350 . S
C1840 C1839 1.434 . S
C1841 C1842 1.369 . S
C1841 C1843 1.419 . S
C1841 H1845 0.930 . S
C1842 C1841 1.369 . S
C1842 C1851 1.429 . S
C1843 C1841 1.419 . S
C1843 C1844 1.363 . S
C1843 H1846 0.929 . S
C1844 C1843 1.363 . S
C1844 C1850 1.428 . S
H1845 C1841 0.930 . S
H1846 C1843 0.929 . S
S1847 N1848 1.613 . S
S1847 N1849 1.610 . S
N1848 S1847 1.613 . S
N1848 C1851 1.350 . S
N1849 S1847 1.610 . S
N1849 C1850 1.351 . S
C1850 C1844 1.428 . S
C1850 N1849 1.351 . S
C1850 C1851 1.434 . S
C1851 C1842 1.429 . S
C1851 N1848 1.350 . S
C1851 C1850 1.434 . S
C1852 C1853 1.369 . S
C1852 C1854 1.419 . S
C1852 H1856 0.930 . S
C1853 C1852 1.369 . S
C1853 C1862 1.429 . S
C1854 C1852 1.419 . S
C1854 C1855 1.363 . S
C1854 H1857 0.929 . S
C1855 C1854 1.363 . S
C1855 C1861 1.428 . S
H1856 C1852 0.930 . S
H1857 C1854 0.929 . S
S1858 N1859 1.613 . S
S1858 N1860 1.610 . S
N1859 S1858 1.613 . S
N1859 C1862 1.350 . S
N1860 S1858 1.610 . S
N1860 C1861 1.351 . S
C1861 C1855 1.428 . S
C1861 N1860 1.351 . S
C1861 C1862 1.434 . S
C1862 C1853 1.429 . S
C1862 N1859 1.350 . S
C1862 C1861 1.434 . S
C1863 C1864 1.369 . S
C1863 C1865 1.419 . S
C1863 H1867 0.930 . S
C1864 C1863 1.369 . S
C1864 C1873 1.429 . S
C1865 C1863 1.419 . S
C1865 C1866 1.363 . S
C1865 H1868 0.929 . S
C1866 C1865 1.363 . S
C1866 C1872 1.428 . S
H1867 C1863 0.930 . S
H1868 C1865 0.929 . S
S1869 N1870 1.613 . S
S1869 N1871 1.610 . S
N1870 S1869 1.613 . S
N1870 C1873 1.350 . S
N1871 S1869 1.610 . S
N1871 C1872 1.351 . S
C1872 C1866 1.428 . S
C1872 N1871 1.351 . S
C1872 C1873 1.434 . S
C1873 C1864 1.429 . S
C1873 N1870 1.350 . S
C1873 C1872 1.434 . S
C1874 C1875 1.369 . S
C1874 C1876 1.419 . S
C1874 H1878 0.930 . S
C1875 C1874 1.369 . S
C1875 C1884 1.429 . S
C1876 C1874 1.419 . S
C1876 C1877 1.363 . S
C1876 H1879 0.929 . S
C1877 C1876 1.363 . S
C1877 C1883 1.428 . S
H1878 C1874 0.930 . S
H1879 C1876 0.929 . S
S1880 N1881 1.613 . S
S1880 N1882 1.610 . S
N1881 S1880 1.613 . S
N1881 C1884 1.350 . S
N1882 S1880 1.610 . S
N1882 C1883 1.351 . S
C1883 C1877 1.428 . S
C1883 N1882 1.351 . S
C1883 C1884 1.434 . S
C1884 C1875 1.429 . S
C1884 N1881 1.350 . S
C1884 C1883 1.434 . S
C1885 C1886 1.369 . S
C1885 C1887 1.419 . S
C1885 H1889 0.930 . S
C1886 C1885 1.369 . S
C1886 C1895 1.429 . S
C1887 C1885 1.419 . S
C1887 C1888 1.363 . S
C1887 H1890 0.929 . S
C1888 C1887 1.363 . S
C1888 C1894 1.428 . S
H1889 C1885 0.930 . S
H1890 C1887 0.929 . S
S1891 N1892 1.613 . S
S1891 N1893 1.610 . S
N1892 S1891 1.613 . S
N1892 C1895 1.350 . S
N1893 S1891 1.610 . S
N1893 C1894 1.351 . S
C1894 C1888 1.428 . S
C1894 N1893 1.351 . S
C1894 C1895 1.434 . S
C1895 C1886 1.429 . S
C1895 N1892 1.350 . S
C1895 C1894 1.434 . S
C1896 C1897 1.369 . S
C1896 C1898 1.419 . S
C1896 H1900 0.930 . S
C1897 C1896 1.369 . S
C1897 C1906 1.429 . S
C1898 C1896 1.419 . S
C1898 C1899 1.363 . S
C1898 H1901 0.929 . S
C1899 C1898 1.363 . S
C1899 C1905 1.428 . S
H1900 C1896 0.930 . S
H1901 C1898 0.929 . S
S1902 N1903 1.613 . S
S1902 N1904 1.610 . S
N1903 S1902 1.613 . S
N1903 C1906 1.350 . S
N1904 S1902 1.610 . S
N1904 C1905 1.351 . S
C1905 C1899 1.428 . S
C1905 N1904 1.351 . S
C1905 C1906 1.434 . S
C1906 C1897 1.429 . S
C1906 N1903 1.350 . S
C1906 C1905 1.434 . S
C1907 C1908 1.369 . S
C1907 C1909 1.419 . S
C1907 H1911 0.930 . S
C1908 C1907 1.369 . S
C1908 C1917 1.429 . S
C1909 C1907 1.419 . S
C1909 C1910 1.363 . S
C1909 H1912 0.929 . S
C1910 C1909 1.363 . S
C1910 C1916 1.428 . S
H1911 C1907 0.930 . S
H1912 C1909 0.929 . S
S1913 N1914 1.613 . S
S1913 N1915 1.610 . S
N1914 S1913 1.613 . S
N1914 C1917 1.350 . S
N1915 S1913 1.610 . S
N1915 C1916 1.351 . S
C1916 C1910 1.428 . S
C1916 N1915 1.351 . S
C1916 C1917 1.434 . S
C1917 C1908 1.429 . S
C1917 N1914 1.350 . S
C1917 C1916 1.434 . S
C1918 C1919 1.369 . S
C1918 C1920 1.419 . S
C1918 H1922 0.930 . S
C1919 C1918 1.369 . S
C1919 C1928 1.429 . S
C1920 C1918 1.419 . S
C1920 C1921 1.363 . S
C1920 H1923 0.929 . S
C1921 C1920 1.363 . S
C1921 C1927 1.428 . S
H1922 C1918 0.930 . S
H1923 C1920 0.929 . S
S1924 N1925 1.613 . S
S1924 N1926 1.610 . S
N1925 S1924 1.613 . S
N1925 C1928 1.350 . S
N1926 S1924 1.610 . S
N1926 C1927 1.351 . S
C1927 C1921 1.428 . S
C1927 N1926 1.351 . S
C1927 C1928 1.434 . S
C1928 C1919 1.429 . S
C1928 N1925 1.350 . S
C1928 C1927 1.434 . S
C1929 C1930 1.369 . S
C1929 C1931 1.419 . S
C1929 H1933 0.930 . S
C1930 C1929 1.369 . S
C1930 C1939 1.429 . S
C1931 C1929 1.419 . S
C1931 C1932 1.363 . S
C1931 H1934 0.929 . S
C1932 C1931 1.363 . S
C1932 C1938 1.428 . S
H1933 C1929 0.930 . S
H1934 C1931 0.929 . S
S1935 N1936 1.613 . S
S1935 N1937 1.610 . S
N1936 S1935 1.613 . S
N1936 C1939 1.350 . S
N1937 S1935 1.610 . S
N1937 C1938 1.351 . S
C1938 C1932 1.428 . S
C1938 N1937 1.351 . S
C1938 C1939 1.434 . S
C1939 C1930 1.429 . S
C1939 N1936 1.350 . S
C1939 C1938 1.434 . S
C1940 C1941 1.369 . S
C1940 C1942 1.419 . S
C1940 H1944 0.930 . S
C1941 C1940 1.369 . S
C1941 C1950 1.429 . S
C1942 C1940 1.419 . S
C1942 C1943 1.363 . S
C1942 H1945 0.929 . S
C1943 C1942 1.363 . S
C1943 C1949 1.428 . S
H1944 C1940 0.930 . S
H1945 C1942 0.929 . S
S1946 N1947 1.613 . S
S1946 N1948 1.610 . S
N1947 S1946 1.613 . S
N1947 C1950 1.350 . S
N1948 S1946 1.610 . S
N1948 C1949 1.351 . S
C1949 C1943 1.428 . S
C1949 N1948 1.351 . S
C1949 C1950 1.434 . S
C1950 C1941 1.429 . S
C1950 N1947 1.350 . S
C1950 C1949 1.434 . S
C1951 C1952 1.369 . S
C1951 C1953 1.419 . S
C1951 H1955 0.930 . S
C1952 C1951 1.369 . S
C1952 C1961 1.429 . S
C1953 C1951 1.419 . S
C1953 C1954 1.363 . S
C1953 H1956 0.929 . S
C1954 C1953 1.363 . S
C1954 C1960 1.428 . S
H1955 C1951 0.930 . S
H1956 C1953 0.929 . S
S1957 N1958 1.613 . S
S1957 N1959 1.610 . S
N1958 S1957 1.613 . S
N1958 C1961 1.350 . S
N1959 S1957 1.610 . S
N1959 C1960 1.351 . S
C1960 C1954 1.428 . S
C1960 N1959 1.351 . S
C1960 C1961 1.434 . S
C1961 C1952 1.429 . S
C1961 N1958 1.350 . S
C1961 C1960 1.434 . S
C1962 C1963 1.369 . S
C1962 C1964 1.419 . S
C1962 H1966 0.930 . S
C1963 C1962 1.369 . S
C1963 C1972 1.429 . S
C1964 C1962 1.419 . S
C1964 C1965 1.363 . S
C1964 H1967 0.929 . S
C1965 C1964 1.363 . S
C1965 C1971 1.428 . S
H1966 C1962 0.930 . S
H1967 C1964 0.929 . S
S1968 N1969 1.613 . S
S1968 N1970 1.610 . S
N1969 S1968 1.613 . S
N1969 C1972 1.350 . S
N1970 S1968 1.610 . S
N1970 C1971 1.351 . S
C1971 C1965 1.428 . S
C1971 N1970 1.351 . S
C1971 C1972 1.434 . S
C1972 C1963 1.429 . S
C1972 N1969 1.350 . S
C1972 C1971 1.434 . S
C1973 C1974 1.369 . S
C1973 C1975 1.419 . S
C1973 H1977 0.930 . S
C1974 C1973 1.369 . S
C1974 C1983 1.429 . S
C1975 C1973 1.419 . S
C1975 C1976 1.363 . S
C1975 H1978 0.929 . S
C1976 C1975 1.363 . S
C1976 C1982 1.428 . S
H1977 C1973 0.930 . S
H1978 C1975 0.929 . S
S1979 N1980 1.613 . S
S1979 N1981 1.610 . S
N1980 S1979 1.613 . S
N1980 C1983 1.350 . S
N1981 S1979 1.610 . S
N1981 C1982 1.351 . S
C1982 C1976 1.428 . S
C1982 N1981 1.351 . S
C1982 C1983 1.434 . S
C1983 C1974 1.429 . S
C1983 N1980 1.350 . S
C1983 C1982 1.434 . S
C1984 C1985 1.369 . S
C1984 C1986 1.419 . S
C1984 H1988 0.930 . S
C1985 C1984 1.369 . S
C1985 C1994 1.429 . S
C1986 C1984 1.419 . S
C1986 C1987 1.363 . S
C1986 H1989 0.929 . S
C1987 C1986 1.363 . S
C1987 C1993 1.428 . S
H1988 C1984 0.930 . S
H1989 C1986 0.929 . S
S1990 N1991 1.613 . S
S1990 N1992 1.610 . S
N1991 S1990 1.613 . S
N1991 C1994 1.350 . S
N1992 S1990 1.610 . S
N1992 C1993 1.351 . S
C1993 C1987 1.428 . S
C1993 N1992 1.351 . S
C1993 C1994 1.434 . S
C1994 C1985 1.429 . S
C1994 N1991 1.350 . S
C1994 C1993 1.434 . S
C1995 C1996 1.369 . S
C1995 C1997 1.419 . S
C1995 H1999 0.930 . S
C1996 C1995 1.369 . S
C1996 C2005 1.429 . S
C1997 C1995 1.419 . S
C1997 C1998 1.363 . S
C1997 H2000 0.929 . S
C1998 C1997 1.363 . S
C1998 C2004 1.428 . S
H1999 C1995 0.930 . S
H2000 C1997 0.929 . S
S2001 N2002 1.613 . S
S2001 N2003 1.610 . S
N2002 S2001 1.613 . S
N2002 C2005 1.350 . S
N2003 S2001 1.610 . S
N2003 C2004 1.351 . S
C2004 C1998 1.428 . S
C2004 N2003 1.351 . S
C2004 C2005 1.434 . S
C2005 C1996 1.429 . S
C2005 N2002 1.350 . S
C2005 C2004 1.434 . S
C2006 C2007 1.369 . S
C2006 C2008 1.419 . S
C2006 H2010 0.930 . S
C2007 C2006 1.369 . S
C2007 C2016 1.429 . S
C2008 C2006 1.419 . S
C2008 C2009 1.363 . S
C2008 H2011 0.929 . S
C2009 C2008 1.363 . S
C2009 C2015 1.428 . S
H2010 C2006 0.930 . S
H2011 C2008 0.929 . S
S2012 N2013 1.613 . S
S2012 N2014 1.610 . S
N2013 S2012 1.613 . S
N2013 C2016 1.350 . S
N2014 S2012 1.610 . S
N2014 C2015 1.351 . S
C2015 C2009 1.428 . S
C2015 N2014 1.351 . S
C2015 C2016 1.434 . S
C2016 C2007 1.429 . S
C2016 N2013 1.350 . S
C2016 C2015 1.434 . S
C2017 C2018 1.369 . S
C2017 C2019 1.419 . S
C2017 H2021 0.930 . S
C2018 C2017 1.369 . S
C2018 C2027 1.429 . S
C2019 C2017 1.419 . S
C2019 C2020 1.363 . S
C2019 H2022 0.929 . S
C2020 C2019 1.363 . S
C2020 C2026 1.428 . S
H2021 C2017 0.930 . S
H2022 C2019 0.929 . S
S2023 N2024 1.613 . S
S2023 N2025 1.610 . S
N2024 S2023 1.613 . S
N2024 C2027 1.350 . S
N2025 S2023 1.610 . S
N2025 C2026 1.351 . S
C2026 C2020 1.428 . S
C2026 N2025 1.351 . S
C2026 C2027 1.434 . S
C2027 C2018 1.429 . S
C2027 N2024 1.350 . S
C2027 C2026 1.434 . S
C2028 C2029 1.369 . S
C2028 C2030 1.419 . S
C2028 H2032 0.930 . S
C2029 C2028 1.369 . S
C2029 C2038 1.429 . S
C2030 C2028 1.419 . S
C2030 C2031 1.363 . S
C2030 H2033 0.929 . S
C2031 C2030 1.363 . S
C2031 C2037 1.428 . S
H2032 C2028 0.930 . S
H2033 C2030 0.929 . S
S2034 N2035 1.613 . S
S2034 N2036 1.610 . S
N2035 S2034 1.613 . S
N2035 C2038 1.350 . S
N2036 S2034 1.610 . S
N2036 C2037 1.351 . S
C2037 C2031 1.428 . S
C2037 N2036 1.351 . S
C2037 C2038 1.434 . S
C2038 C2029 1.429 . S
C2038 N2035 1.350 . S
C2038 C2037 1.434 . S
C2039 C2040 1.369 . S
C2039 C2041 1.419 . S
C2039 H2043 0.930 . S
C2040 C2039 1.369 . S
C2040 C2049 1.429 . S
C2041 C2039 1.419 . S
C2041 C2042 1.363 . S
C2041 H2044 0.929 . S
C2042 C2041 1.363 . S
C2042 C2048 1.428 . S
H2043 C2039 0.930 . S
H2044 C2041 0.929 . S
S2045 N2046 1.613 . S
S2045 N2047 1.610 . S
N2046 S2045 1.613 . S
N2046 C2049 1.350 . S
N2047 S2045 1.610 . S
N2047 C2048 1.351 . S
C2048 C2042 1.428 . S
C2048 N2047 1.351 . S
C2048 C2049 1.434 . S
C2049 C2040 1.429 . S
C2049 N2046 1.350 . S
C2049 C2048 1.434 . S
C2050 C2051 1.369 . S
C2050 C2052 1.419 . S
C2050 H2054 0.930 . S
C2051 C2050 1.369 . S
C2051 C2060 1.429 . S
C2052 C2050 1.419 . S
C2052 C2053 1.363 . S
C2052 H2055 0.929 . S
C2053 C2052 1.363 . S
C2053 C2059 1.428 . S
H2054 C2050 0.930 . S
H2055 C2052 0.929 . S
S2056 N2057 1.613 . S
S2056 N2058 1.610 . S
N2057 S2056 1.613 . S
N2057 C2060 1.350 . S
N2058 S2056 1.610 . S
N2058 C2059 1.351 . S
C2059 C2053 1.428 . S
C2059 N2058 1.351 . S
C2059 C2060 1.434 . S
C2060 C2051 1.429 . S
C2060 N2057 1.350 . S
C2060 C2059 1.434 . S
C2061 C2062 1.369 . S
C2061 C2063 1.419 . S
C2061 H2065 0.930 . S
C2062 C2061 1.369 . S
C2062 C2071 1.429 . S
C2063 C2061 1.419 . S
C2063 C2064 1.363 . S
C2063 H2066 0.929 . S
C2064 C2063 1.363 . S
C2064 C2070 1.428 . S
H2065 C2061 0.930 . S
H2066 C2063 0.929 . S
S2067 N2068 1.613 . S
S2067 N2069 1.610 . S
N2068 S2067 1.613 . S
N2068 C2071 1.350 . S
N2069 S2067 1.610 . S
N2069 C2070 1.351 . S
C2070 C2064 1.428 . S
C2070 N2069 1.351 . S
C2070 C2071 1.434 . S
C2071 C2062 1.429 . S
C2071 N2068 1.350 . S
C2071 C2070 1.434 . S
C2072 C2073 1.369 . S
C2072 C2074 1.419 . S
C2072 H2076 0.930 . S
C2073 C2072 1.369 . S
C2073 C2082 1.429 . S
C2074 C2072 1.419 . S
C2074 C2075 1.363 . S
C2074 H2077 0.929 . S
C2075 C2074 1.363 . S
C2075 C2081 1.428 . S
H2076 C2072 0.930 . S
H2077 C2074 0.929 . S
S2078 N2079 1.613 . S
S2078 N2080 1.610 . S
N2079 S2078 1.613 . S
N2079 C2082 1.350 . S
N2080 S2078 1.610 . S
N2080 C2081 1.351 . S
C2081 C2075 1.428 . S
C2081 N2080 1.351 . S
C2081 C2082 1.434 . S
C2082 C2073 1.429 . S
C2082 N2079 1.350 . S
C2082 C2081 1.434 . S
C2083 C2084 1.369 . S
C2083 C2085 1.419 . S
C2083 H2087 0.930 . S
C2084 C2083 1.369 . S
C2084 C2093 1.429 . S
C2085 C2083 1.419 . S
C2085 C2086 1.363 . S
C2085 H2088 0.929 . S
C2086 C2085 1.363 . S
C2086 C2092 1.428 . S
H2087 C2083 0.930 . S
H2088 C2085 0.929 . S
S2089 N2090 1.613 . S
S2089 N2091 1.610 . S
N2090 S2089 1.613 . S
N2090 C2093 1.350 . S
N2091 S2089 1.610 . S
N2091 C2092 1.351 . S
C2092 C2086 1.428 . S
C2092 N2091 1.351 . S
C2092 C2093 1.434 . S
C2093 C2084 1.429 . S
C2093 N2090 1.350 . S
C2093 C2092 1.434 . S
C2094 C2095 1.369 . S
C2094 C2096 1.419 . S
C2094 H2098 0.930 . S
C2095 C2094 1.369 . S
C2095 C2104 1.429 . S
C2096 C2094 1.419 . S
C2096 C2097 1.363 . S
C2096 H2099 0.929 . S
C2097 C2096 1.363 . S
C2097 C2103 1.428 . S
H2098 C2094 0.930 . S
H2099 C2096 0.929 . S
S2100 N2101 1.613 . S
S2100 N2102 1.610 . S
N2101 S2100 1.613 . S
N2101 C2104 1.350 . S
N2102 S2100 1.610 . S
N2102 C2103 1.351 . S
C2103 C2097 1.428 . S
C2103 N2102 1.351 . S
C2103 C2104 1.434 . S
C2104 C2095 1.429 . S
C2104 N2101 1.350 . S
C2104 C2103 1.434 . S
C2105 C2106 1.369 . S
C2105 C2107 1.419 . S
C2105 H2109 0.930 . S
C2106 C2105 1.369 . S
C2106 C2115 1.429 . S
C2107 C2105 1.419 . S
C2107 C2108 1.363 . S
C2107 H2110 0.929 . S
C2108 C2107 1.363 . S
C2108 C2114 1.428 . S
H2109 C2105 0.930 . S
H2110 C2107 0.929 . S
S2111 N2112 1.613 . S
S2111 N2113 1.610 . S
N2112 S2111 1.613 . S
N2112 C2115 1.350 . S
N2113 S2111 1.610 . S
N2113 C2114 1.351 . S
C2114 C2108 1.428 . S
C2114 N2113 1.351 . S
C2114 C2115 1.434 . S
C2115 C2106 1.429 . S
C2115 N2112 1.350 . S
C2115 C2114 1.434 . S
C2116 C2117 1.369 . S
C2116 C2118 1.419 . S
C2116 H2120 0.930 . S
C2117 C2116 1.369 . S
C2117 C2126 1.429 . S
C2118 C2116 1.419 . S
C2118 C2119 1.363 . S
C2118 H2121 0.929 . S
C2119 C2118 1.363 . S
C2119 C2125 1.428 . S
H2120 C2116 0.930 . S
H2121 C2118 0.929 . S
S2122 N2123 1.613 . S
S2122 N2124 1.610 . S
N2123 S2122 1.613 . S
N2123 C2126 1.350 . S
N2124 S2122 1.610 . S
N2124 C2125 1.351 . S
C2125 C2119 1.428 . S
C2125 N2124 1.351 . S
C2125 C2126 1.434 . S
C2126 C2117 1.429 . S
C2126 N2123 1.350 . S
C2126 C2125 1.434 . S
C2127 C2128 1.369 . S
C2127 C2129 1.419 . S
C2127 H2131 0.930 . S
C2128 C2127 1.369 . S
C2128 C2137 1.429 . S
C2129 C2127 1.419 . S
C2129 C2130 1.363 . S
C2129 H2132 0.929 . S
C2130 C2129 1.363 . S
C2130 C2136 1.428 . S
H2131 C2127 0.930 . S
H2132 C2129 0.929 . S
S2133 N2134 1.613 . S
S2133 N2135 1.610 . S
N2134 S2133 1.613 . S
N2134 C2137 1.350 . S
N2135 S2133 1.610 . S
N2135 C2136 1.351 . S
C2136 C2130 1.428 . S
C2136 N2135 1.351 . S
C2136 C2137 1.434 . S
C2137 C2128 1.429 . S
C2137 N2134 1.350 . S
C2137 C2136 1.434 . S
C2138 C2139 1.369 . S
C2138 C2140 1.419 . S
C2138 H2142 0.930 . S
C2139 C2138 1.369 . S
C2139 C2148 1.429 . S
C2140 C2138 1.419 . S
C2140 C2141 1.363 . S
C2140 H2143 0.929 . S
C2141 C2140 1.363 . S
C2141 C2147 1.428 . S
H2142 C2138 0.930 . S
H2143 C2140 0.929 . S
S2144 N2145 1.613 . S
S2144 N2146 1.610 . S
N2145 S2144 1.613 . S
N2145 C2148 1.350 . S
N2146 S2144 1.610 . S
N2146 C2147 1.351 . S
C2147 C2141 1.428 . S
C2147 N2146 1.351 . S
C2147 C2148 1.434 . S
C2148 C2139 1.429 . S
C2148 N2145 1.350 . S
C2148 C2147 1.434 . S
C2149 C2150 1.369 . S
C2149 C2151 1.419 . S
C2149 H2153 0.930 . S
C2150 C2149 1.369 . S
C2150 C2159 1.429 . S
C2151 C2149 1.419 . S
C2151 C2152 1.363 . S
C2151 H2154 0.929 . S
C2152 C2151 1.363 . S
C2152 C2158 1.428 . S
H2153 C2149 0.930 . S
H2154 C2151 0.929 . S
S2155 N2156 1.613 . S
S2155 N2157 1.610 . S
N2156 S2155 1.613 . S
N2156 C2159 1.350 . S
N2157 S2155 1.610 . S
N2157 C2158 1.351 . S
C2158 C2152 1.428 . S
C2158 N2157 1.351 . S
C2158 C2159 1.434 . S
C2159 C2150 1.429 . S
C2159 N2156 1.350 . S
C2159 C2158 1.434 . S
C1105 N725 1.932 . S
C1107 C7 2.047 . S
C1116 N35 1.930 . S
C1118 C651 2.047 . S
C1127 C53 2.046 . S
C1129 N679 1.933 . S
C1138 C697 2.048 . S
C1140 N81 1.932 . S
C1149 N587 1.934 . S
C1151 C99 2.047 . S
C1160 N127 1.928 . S
C1162 C605 2.049 . S
C1171 N633 1.926 . S
C1173 C145 2.049 . S
C1182 N173 1.927 . S
C1184 C559 2.049 . S
C1193 N196 1.354 . S
C1195 N1024 1.355 . S
C1204 N955 1.934 . S
C1206 C214 2.047 . S
C1215 N978 1.357 . S
C1217 N242 1.360 . S
C1226 C260 2.049 . S
C1228 N1001 1.930 . S
C1237 N288 1.352 . S
C1239 N1093 1.361 . S
C1248 C306 2.047 . S
C1250 N1047 1.931 . S
C1259 N334 1.351 . S
C1261 N1070 1.359 . S
C1270 N932 1.932 . S
C1272 C352 2.048 . S
C1281 C904 2.046 . S
C1283 N380 1.933 . S
C1292 N403 1.926 . S
C1294 C766 2.050 . S
C1303 N794 1.361 . S
C1305 N426 1.356 . S
C1314 N449 1.925 . S
C1316 C812 2.050 . S
C1325 N748 1.360 . S
C1327 N472 1.352 . S
C1336 C858 2.048 . S
C1338 N495 1.932 . S
C1347 N518 1.359 . S
C1349 N886 1.358 . S
C1358 N840 1.356 . S
C1360 N541 1.360 . S
C1369 N219 2.179 . S
C1371 N12 2.179 . S
C1380 C237 2.320 . S
C1382 C30 2.275 1_565 S
C1391 N58 2.179 . S
C1393 N265 2.179 . S
C1402 C191 2.320 . S
C1404 C76 2.275 1_545 S
C1413 N104 2.180 . S
C1415 N357 2.179 . S
C1424 C283 2.322 . S
C1426 C122 2.274 1_565 S
C1435 N311 2.174 . S
C1437 N150 2.175 . S
C1446 C329 2.322 . S
C1448 C168 2.274 1_545 S
C1457 C421 2.321 . S
C1459 C375 2.273 1_556 S
C1468 C513 2.319 . S
C1470 C398 2.272 1_554 S
C1479 C536 2.321 . S
C1481 C444 2.273 1_554 S
C1490 C467 2.319 . S
C1492 C490 2.273 1_556 S
C1501 N771 2.174 . S
C1503 N564 2.175 . S
C1512 C789 2.319 . S
C1514 C582 2.272 . S
C1523 N817 2.179 . S
C1525 N610 2.179 . S
C1534 C628 2.276 . S
C1536 C743 2.322 . S
C1545 N656 2.174 . S
C1547 N909 2.175 . S
C1556 C674 2.272 . S
C1558 C835 2.321 . S
C1567 N863 2.175 . S
C1569 N702 2.175 . S
C1578 C881 2.319 . S
C1580 C720 2.272 . S
C1589 C927 2.271 . S
C1591 C973 2.319 . S
C1600 C1065 2.321 . S
C1602 C950 2.272 . S
C1611 C1088 2.319 . S
C1613 C996 2.273 . S
C1622 C1042 2.271 . S
C1624 C1019 2.320 . S
C1633 N2 1.794 . S
C1635 N416 1.818 . S
C1644 C39 1.881 . S
C1646 N439 1.810 . S
C1655 N48 1.799 . S
C1657 N462 1.816 . S
C1666 N393 1.808 . S
C1668 C85 1.887 . S
C1677 N94 1.787 . S
C1679 N508 1.815 . S
C1688 C131 1.882 . S
C1690 N370 1.809 . S
C1699 N531 1.809 . S
C1701 N140 1.791 . S
C1710 N485 1.807 . S
C1712 C177 1.884 . S
C1721 C200 1.632 . S
C1723 C223 1.679 . S
C1732 N209 1.792 . S
C1734 N232 1.809 . S
C1743 C246 1.625 . S
C1745 C269 1.678 . S
C1754 N186 1.810 . S
C1756 N255 1.799 . S
C1765 C361 1.680 . S
C1767 C292 1.631 . S
C1776 N278 1.814 . S
C1778 N301 1.799 . S
C1787 C315 1.679 . S
C1789 C338 1.632 . S
C1798 N347 1.798 . S
C1800 N324 1.809 . S
C1809 N71 1.818 . S
C1811 C384 1.884 . S
C1820 N117 1.815 . S
C1822 C407 1.880 . S
C1831 C154 1.680 . S
C1833 C430 1.625 . S
C1842 C453 1.887 . S
C1844 N163 1.808 . S
C1853 C108 1.680 . S
C1855 C476 1.630 . S
C1864 N25 1.817 . S
C1866 C499 1.880 . S
C1875 C62 1.682 . S
C1877 C522 1.627 . S
C1886 C16 1.682 . S
C1888 C545 1.627 . S
C1897 N968 1.809 . S
C1899 N554 1.791 . S
C1908 C591 1.888 . S
C1910 N991 1.809 . S
C1919 N1014 1.820 . S
C1921 N600 1.792 . S
C1930 N945 1.807 . S
C1932 C637 1.887 . S
C1941 N646 1.788 . S
C1943 N1060 1.817 . S
C1952 C683 1.889 . S
C1954 N922 1.812 . S
C1963 N1083 1.817 . S
C1965 N692 1.789 . S
C1974 C729 1.888 . S
C1976 N1037 1.813 . S
C1985 C752 1.633 . S
C1987 C775 1.676 . S
C1996 N761 1.788 . S
C1998 N784 1.812 . S
C2007 C798 1.626 . S
C2009 C821 1.677 . S
C2018 N807 1.794 . S
C2020 N738 1.819 . S
C2029 C913 1.682 . S
C2031 C844 1.626 . S
C2040 N830 1.813 . S
C2042 N853 1.799 . S
C2051 C867 1.681 . S
C2053 C890 1.630 . S
C2062 N899 1.800 . S
C2064 N876 1.810 . S
C2073 N623 1.808 . S
C2075 C936 1.887 . S
C2084 N669 1.815 . S
C2086 C959 1.887 . S
C2095 C706 1.675 . S
C2097 C982 1.631 . S
C2106 C1005 1.880 . S
C2108 N715 1.817 . S
C2117 C660 1.682 . S
C2119 C1028 1.627 . S
C2128 N577 1.808 . S
C2130 C1051 1.883 . S
C2139 C1074 1.624 . S
C2141 C614 1.680 . S
C2150 C568 1.681 . S
C2152 C1097 1.629 . S
