# Generated by pormake.
# Topology snk, (6)-cn, num edge types: 1
# Building blocks:
#     Node 0, Type 0, BuildingBlock: FUNLAD_clean_sbu_0, # of connection points: 6
#     Node 1, Type 0, BuildingBlock: FUNLAD_clean_sbu_0, # of connection points: 6
#     Node 2, Type 0, BuildingBlock: FUNLAD_clean_sbu_0, # of connection points: 6
#     Node 3, Type 0, BuildingBlock: FUNLAD_clean_sbu_0, # of connection points: 6
#     Node 4, Type 0, BuildingBlock: FUNLAD_clean_sbu_0, # of connection points: 6
#     Node 5, Type 0, BuildingBlock: FUNLAD_clean_sbu_0, # of connection points: 6
#     Node 6, Type 0, BuildingBlock: FUNLAD_clean_sbu_0, # of connection points: 6
#     Node 7, Type 0, BuildingBlock: FUNLAD_clean_sbu_0, # of connection points: 6
#     Edge 8, Type (0, 0), BuildingBlock: UVAHIK_clean_linker_0, # of connection points: 2
#     Edge 9, Type (0, 0), BuildingBlock: UVAHIK_clean_linker_0, # of connection points: 2
#     Edge 10, Type (0, 0), BuildingBlock: UVAHIK_clean_linker_0, # of connection points: 2
#     Edge 11, Type (0, 0), BuildingBlock: UVAHIK_clean_linker_0, # of connection points: 2
#     Edge 12, Type (0, 0), BuildingBlock: UVAHIK_clean_linker_0, # of connection points: 2
#     Edge 13, Type (0, 0), BuildingBlock: UVAHIK_clean_linker_0, # of connection points: 2
#     Edge 14, Type (0, 0), BuildingBlock: UVAHIK_clean_linker_0, # of connection points: 2
#     Edge 15, Type (0, 0), BuildingBlock: UVAHIK_clean_linker_0, # of connection points: 2
#     Edge 16, Type (0, 0), BuildingBlock: UVAHIK_clean_linker_0, # of connection points: 2
#     Edge 17, Type (0, 0), BuildingBlock: UVAHIK_clean_linker_0, # of connection points: 2
#     Edge 18, Type (0, 0), BuildingBlock: UVAHIK_clean_linker_0, # of connection points: 2
#     Edge 19, Type (0, 0), BuildingBlock: UVAHIK_clean_linker_0, # of connection points: 2
#     Edge 20, Type (0, 0), BuildingBlock: UVAHIK_clean_linker_0, # of connection points: 2
#     Edge 21, Type (0, 0), BuildingBlock: UVAHIK_clean_linker_0, # of connection points: 2
#     Edge 22, Type (0, 0), BuildingBlock: UVAHIK_clean_linker_0, # of connection points: 2
#     Edge 23, Type (0, 0), BuildingBlock: UVAHIK_clean_linker_0, # of connection points: 2
#     Edge 24, Type (0, 0), BuildingBlock: UVAHIK_clean_linker_0, # of connection points: 2
#     Edge 25, Type (0, 0), BuildingBlock: UVAHIK_clean_linker_0, # of connection points: 2
#     Edge 26, Type (0, 0), BuildingBlock: UVAHIK_clean_linker_0, # of connection points: 2
#     Edge 27, Type (0, 0), BuildingBlock: UVAHIK_clean_linker_0, # of connection points: 2
#     Edge 28, Type (0, 0), BuildingBlock: UVAHIK_clean_linker_0, # of connection points: 2
#     Edge 29, Type (0, 0), BuildingBlock: UVAHIK_clean_linker_0, # of connection points: 2
#     Edge 30, Type (0, 0), BuildingBlock: UVAHIK_clean_linker_0, # of connection points: 2
#     Edge 31, Type (0, 0), BuildingBlock: UVAHIK_clean_linker_0, # of connection points: 2
# Relax obj value: 0.178
# Max RMSD: 0.113
# Mean RMSD: 0.085
data_MOF--net-snk--node1-FUNLAD_clean_sbu_0--edge1-UVAHIK_clean_linker_0
_symmetry_space_group_name_H-M    P1
_symmetry_Int_Tables_number       1
_symmetry_cell_setting            triclinic
loop_
_symmetry_equiv_pos_as_xyz
'x, y, z'
_cell_length_a     62.383755
_cell_length_b     62.231761
_cell_length_c     19.22933
_cell_angle_alpha  83.522453
_cell_angle_beta   83.51093
_cell_angle_gamma 93.229499
loop_
_atom_site_label
_atom_site_type_symbol
_atom_site_fract_x
_atom_site_fract_y
_atom_site_fract_z
_atom_type_partial_charge
C0 C 1.0153 0.02604 0.6173 0.0
N1 N 0.05215 0.98445 0.50607 0.0
C2 C 0.06854 0.99083 0.54188 0.0
C3 C 0.08473 0.97696 0.55655 0.0
C4 C 0.08421 0.95626 0.53398 0.0
C5 C 0.06722 0.95015 0.49643 0.0
C6 C 0.05125 0.96453 0.4832 0.0
Zn7 Zn 0.02865 1.00573 0.4879 0.0
C8 C 0.98158 0.98207 0.52273 0.0
N9 N 0.97987 0.0509 0.45953 0.0
C10 C 0.9807 0.07071 0.48314 0.0
C11 C 0.96346 0.04459 0.42362 0.0
C12 C 0.94718 0.05843 0.40972 0.0
C13 C 0.9476 0.079 0.43325 0.0
C14 C 0.96463 0.08504 0.47074 0.0
Zn15 Zn 1.00338 0.02961 0.47746 0.0
O16 O 0.02726 1.01253 0.59066 0.0
C17 C 0.05046 0.05328 0.44254 0.0
O18 O 1.00224 0.0359 0.58133 0.0
H19 H 0.96297 0.02875 0.40558 0.0
H20 H 0.06908 1.00675 0.55937 0.0
H21 H 0.99387 0.07545 0.51149 0.0
O22 O 0.05475 0.03342 0.4564 0.0
O23 O 0.0303 0.05692 0.44574 0.0
H24 H 0.03808 0.95973 0.45494 0.0
O25 O 1.00477 0.02281 0.37466 0.0
O26 O 0.02977 0.99942 0.3841 0.0
O27 O 0.97728 1.00192 0.50886 0.0
O28 O 1.00173 0.97843 0.51963 0.0
C29 C 0.01672 1.00927 0.34811 0.0
H30 H 0.09765 0.9825 0.58479 0.0
H31 H 0.06605 0.93428 0.47859 0.0
H32 H 0.93424 0.05295 0.38145 0.0
H33 H 0.96573 0.10082 0.48928 0.0
C34 C 0.26388 0.78074 0.87893 0.0
N35 N 0.30889 0.79854 0.70155 0.0
C36 C 0.31299 0.81759 0.72738 0.0
C37 C 0.33425 0.82636 0.72331 0.0
C38 C 0.3512 0.81522 0.69283 0.0
C39 C 0.34625 0.79684 0.6604 0.0
C40 C 0.32484 0.78871 0.66546 0.0
Zn41 Zn 0.28043 0.78072 0.73115 0.0
C42 C 0.291 0.73509 0.78748 0.0
N43 N 0.22405 0.73891 0.7905 0.0
C44 C 0.20677 0.74846 0.82037 0.0
C45 C 0.222 0.71865 0.77117 0.0
C46 C 0.20159 0.70798 0.7755 0.0
C47 C 0.18326 0.7185 0.79889 0.0
C48 C 0.18601 0.73852 0.8246 0.0
Zn49 Zn 0.25212 0.75721 0.76115 0.0
O50 O 0.27899 0.78982 0.83361 0.0
C51 C 0.2416 0.80288 0.70503 0.0
O52 O 0.25063 0.76669 0.86155 0.0
H53 H 0.23598 0.71145 0.74742 0.0
H54 H 0.30005 0.82504 0.75605 0.0
H55 H 0.20884 0.76452 0.836 0.0
O56 O 0.26194 0.80727 0.69935 0.0
O57 O 0.23402 0.78372 0.72841 0.0
H58 H 0.32129 0.77348 0.64569 0.0
O59 O 0.25359 0.74784 0.6591 0.0
O60 O 0.28156 0.77137 0.63039 0.0
O61 O 0.27067 0.7308 0.79351 0.0
O62 O 0.29861 0.75417 0.76343 0.0
C63 C 0.26848 0.7571 0.6134 0.0
H64 H 0.3375 0.8405 0.74953 0.0
H65 H 0.35892 0.78791 0.63628 0.0
H66 H 0.20005 0.69264 0.75425 0.0
H67 H 0.1722 0.74706 0.84284 0.0
C68 C 0.50312 0.01836 0.84685 0.0
N69 N 0.48647 0.9738 0.02559 0.0
C70 C 0.46717 0.96936 0.00201 0.0
C71 C 0.45841 0.948 0.00858 0.0
C72 C 0.46979 0.93126 0.03922 0.0
C73 C 0.48855 0.93658 0.06901 0.0
C74 C 0.49666 0.95809 0.06156 0.0
Zn75 Zn 0.50361 1.00257 -0.00586 0.0
C76 C 0.54952 0.99287 0.93873 0.0
N77 N 0.54392 0.06001 0.93259 0.0
C78 C 0.53385 0.07592 0.89714 0.0
C79 C 0.56351 0.06405 0.95473 0.0
C80 C 0.57284 0.08522 0.94685 0.0
C81 C 0.56174 0.10222 0.91632 0.0
C82 C 0.54255 0.09727 0.88833 0.0
Zn83 Zn 0.52665 0.03133 0.96402 0.0
O84 O 0.49431 1.00313 0.89228 0.0
C85 C 0.48077 0.041 0.01996 0.0
O86 O 0.51694 0.03188 0.86398 0.0
H87 H 0.57116 0.05113 -0.01716 0.0
H88 H 0.45942 0.98212 0.97346 0.0
H89 H 0.51826 0.07237 0.88 0.0
O90 O 0.47671 0.02057 0.02545 0.0
O91 O 0.49979 0.04889 -0.00335 0.0
H92 H 0.51204 0.96194 0.07972 0.0
O93 O 0.53616 0.03062 0.06568 0.0
O94 O 0.51313 1.0022 0.09435 0.0
O95 O 0.5535 1.01333 0.93196 0.0
O96 O 0.53055 0.985 0.96258 0.0
C97 C 0.52714 1.01556 0.1113 0.0
H98 H 0.44398 0.94448 -0.01574 0.0
H99 H 0.49768 0.92408 0.09319 0.0
H100 H 0.58758 0.08843 0.96986 0.0
H101 H 0.53362 0.10995 0.86422 0.0
C102 C 0.25788 0.26765 0.09542 0.0
N103 N 0.29922 0.23121 0.20849 0.0
C104 C 0.29281 0.21423 0.17505 0.0
C105 C 0.30661 0.1978 0.16265 0.0
C106 C 0.32732 0.19874 0.18478 0.0
C107 C 0.33351 0.21645 0.21933 0.0
C108 C 0.31916 0.23257 0.23063 0.0
Zn109 Zn 0.27795 0.25478 0.22503 0.0
C110 C 0.30163 0.30196 0.18929 0.0
N111 N 0.23283 0.3036 0.25131 0.0
C112 C 0.21279 0.30179 0.23008 0.0
C113 C 0.23909 0.3208 0.28399 0.0
C114 C 0.22501 0.337 0.29656 0.0
C115 C 0.20417 0.33555 0.27554 0.0
C116 C 0.19815 0.31762 0.24179 0.0
Zn117 Zn 0.2542 0.28013 0.23486 0.0
O118 O 0.27138 0.25574 0.1222 0.0
C119 C 0.23053 0.23297 0.27069 0.0
O120 O 0.24805 0.28081 0.13112 0.0
H121 H 0.25504 0.32192 0.30086 0.0
H122 H 0.27689 0.21338 0.15792 0.0
H123 H 0.20813 0.28805 0.20399 0.0
O124 O 0.25032 0.22861 0.25692 0.0
O125 O 0.22695 0.25318 0.26722 0.0
H126 H 0.32398 0.2462 0.257 0.0
O127 O 0.2608 0.27923 0.33761 0.0
O128 O 0.28404 0.25406 0.32886 0.0
O129 O 0.28183 0.30631 0.20281 0.0
O130 O 0.30522 0.28174 0.19293 0.0
C131 C 0.27424 0.26725 0.36449 0.0
H132 H 0.30098 0.18436 0.13673 0.0
H133 H 0.34939 0.21802 0.23661 0.0
H134 H 0.23027 0.35033 0.32364 0.0
H135 H 0.18235 0.31592 0.22395 0.0
C136 C 0.76206 0.27824 0.36375 0.0
N137 N 0.8084 0.29675 0.19157 0.0
C138 C 0.81155 0.3159 0.21788 0.0
C139 C 0.83251 0.32476 0.21919 0.0
C140 C 0.85015 0.31359 0.19381 0.0
C141 C 0.84635 0.2951 0.1606 0.0
C142 C 0.82517 0.28694 0.15977 0.0
Zn143 Zn 0.77982 0.27892 0.21624 0.0
C144 C 0.78977 0.23282 0.27211 0.0
N145 N 0.7229 0.23747 0.26872 0.0
C146 C 0.70618 0.24729 0.30075 0.0
C147 C 0.71969 0.21831 0.24253 0.0
C148 C 0.6987 0.20942 0.24175 0.0
C149 C 0.6811 0.22056 0.26759 0.0
C150 C 0.68498 0.23909 0.30059 0.0
Zn151 Zn 0.7515 0.25529 0.24403 0.0
O152 O 0.77727 0.28747 0.31919 0.0
C153 C 0.7416 0.30136 0.1875 0.0
O154 O 0.74905 0.26415 0.34546 0.0
H155 H 0.73325 0.21088 0.2171 0.0
H156 H 0.79795 0.32332 0.24311 0.0
H157 H 0.70909 0.26255 0.32114 0.0
O158 O 0.7619 0.30574 0.1836 0.0
O159 O 0.73393 0.28219 0.21012 0.0
H160 H 0.8223 0.27171 0.1392 0.0
O161 O 0.75416 0.24661 0.14123 0.0
O162 O 0.78216 0.27021 0.11471 0.0
O163 O 0.76943 0.22848 0.27722 0.0
O164 O 0.79739 0.25199 0.24916 0.0
C165 C 0.76927 0.25598 0.09655 0.0
H166 H 0.83489 0.33899 0.24584 0.0
H167 H 0.85962 0.28615 0.14041 0.0
H168 H 0.69628 0.19517 0.21526 0.0
H169 H 0.67175 0.24801 0.32119 0.0
C170 C 0.75785 0.76812 0.59869 0.0
N171 N 0.79935 0.73168 0.71111 0.0
C172 C 0.79305 0.71458 0.67806 0.0
C173 C 0.80716 0.69846 0.66464 0.0
C174 C 0.82805 0.6999 0.6852 0.0
C175 C 0.8341 0.71771 0.71943 0.0
C176 C 0.81944 0.73346 0.73198 0.0
Zn177 Zn 0.77798 0.75511 0.72824 0.0
C178 C 0.80161 0.8023 0.69282 0.0
N179 N 0.73294 0.80395 0.7553 0.0
C180 C 0.71315 0.8029 0.73196 0.0
C181 C 0.73919 0.82057 0.79057 0.0
C182 C 0.7253 0.83685 0.80408 0.0
C183 C 0.70474 0.83618 0.7809 0.0
C184 C 0.69876 0.81894 0.74405 0.0
Zn185 Zn 0.75422 0.78043 0.73822 0.0
O186 O 0.7713 0.75613 0.62549 0.0
C187 C 0.73058 0.73325 0.77372 0.0
O188 O 0.74809 0.78132 0.63439 0.0
H189 H 0.75501 0.82121 0.80847 0.0
H190 H 0.77707 0.71349 0.66147 0.0
H191 H 0.70846 0.78955 0.70413 0.0
O192 O 0.75039 0.7289 0.76019 0.0
O193 O 0.72698 0.75347 0.77007 0.0
H194 H 0.82413 0.74713 0.75835 0.0
O195 O 0.76083 0.77928 0.84108 0.0
O196 O 0.78421 0.75427 0.83197 0.0
O197 O 0.78181 0.80664 0.70668 0.0
O198 O 0.80519 0.78209 0.69605 0.0
C199 C 0.77434 0.76736 0.86781 0.0
H200 H 0.80186 0.68523 0.63721 0.0
H201 H 0.84995 0.71939 0.73694 0.0
H202 H 0.73073 0.84995 0.83184 0.0
H203 H 0.68299 0.81764 0.72583 0.0
C204 C 0.51706 0.52415 0.11817 0.0
N205 N 0.55233 0.484 -0.00239 0.0
C206 C 0.5694 0.49003 0.03108 0.0
C207 C 0.58564 0.47595 0.04254 0.0
C208 C 0.58444 0.45532 0.01951 0.0
C209 C 0.56674 0.44957 -0.01558 0.0
C210 C 0.55079 0.46421 0.97407 0.0
Zn211 Zn 0.52874 0.50557 -0.01484 0.0
C212 C 0.48173 0.4819 0.01988 0.0
N213 N 0.48013 0.55139 0.96749 0.0
C214 C 0.48187 0.57102 -0.00801 0.0
C215 C 0.46297 0.54568 0.93394 0.0
C216 C 0.44674 0.55992 0.92386 0.0
C217 C 0.4481 0.58034 0.94833 0.0
C218 C 0.46601 0.58579 -0.01712 0.0
Zn219 Zn 0.50361 0.52971 0.97955 0.0
O220 O 0.52834 0.51064 0.08884 0.0
C221 C 0.5506 0.55338 0.94471 0.0
O222 O 0.50359 0.53443 0.08511 0.0
H223 H 0.46191 0.53008 0.91441 0.0
H224 H 0.57041 0.50582 0.04935 0.0
H225 H 0.49561 0.57524 0.01864 0.0
O226 O 0.55486 0.53343 0.95585 0.0
O227 O 0.53046 0.55711 0.94988 0.0
H228 H 0.5371 0.45968 0.94767 0.0
O229 O 0.50449 0.52504 0.87435 0.0
O230 O 0.52934 0.50139 0.88012 0.0
O231 O 0.47746 0.50186 0.00887 0.0
O232 O 0.50187 0.47816 0.01467 0.0
C233 C 0.51691 0.51242 0.84481 0.0
H234 H 0.59911 0.48127 0.06879 0.0
H235 H 0.56499 0.43378 0.96632 0.0
H236 H 0.43345 0.5551 0.89601 0.0
H237 H 0.46765 0.60124 0.00334 0.0
C238 C 1.00375 0.51959 0.34137 0.0
N239 N 0.98624 0.47576 0.52188 0.0
C240 C 0.96677 0.47171 0.4989 0.0
C241 C 0.95712 0.45064 0.50865 0.0
C242 C 0.96775 0.43376 0.54204 0.0
C243 C 0.98678 0.4388 0.5708 0.0
C244 C 0.99583 0.46002 0.55987 0.0
Zn245 Zn 1.00418 0.50398 0.48866 0.0
C246 C 0.04952 0.49303 0.43391 0.0
N247 N 0.04581 0.56035 0.42502 0.0
C248 C 0.03621 0.57715 0.39231 0.0
C249 C 0.06627 0.56281 0.44212 0.0
C250 C 0.07722 0.58325 0.43161 0.0
C251 C 0.06683 0.60122 0.4042 0.0
C252 C 0.04645 0.59791 0.38172 0.0
Zn253 Zn 0.0276 0.53238 0.45821 0.0
O254 O 0.9948 0.50444 0.38684 0.0
C255 C 0.98224 0.54323 0.51335 0.0
O256 O 0.01769 0.533 0.3585 0.0
H257 H 0.07352 0.54921 0.4681 0.0
H258 H 0.95949 0.48449 0.46878 0.0
H259 H 0.01999 0.57475 0.37854 0.0
O260 O 0.97786 0.52285 0.51899 0.0
O261 O 1.00137 0.55082 0.4903 0.0
H262 H 1.01136 0.46353 0.57749 0.0
O263 O 0.03735 0.53179 0.55951 0.0
O264 O 1.01384 0.50378 0.58879 0.0
O265 O 0.05379 0.51343 0.42682 0.0
O266 O 0.03047 0.48545 0.45797 0.0
C267 C 0.02809 0.51693 0.60544 0.0
H268 H 0.94252 0.44735 0.48498 0.0
H269 H 0.99535 0.42623 0.59712 0.0
H270 H 0.09283 0.58526 0.45062 0.0
H271 H 0.03799 0.61144 0.36062 0.0
C272 C 0.06473 0.09358 0.40179 0.0
C273 C 0.06876 0.07184 0.42417 0.0
C274 C 0.08165 0.11058 0.38537 0.0
C275 C 0.14483 0.12173 0.36456 0.0
H276 H 0.13078 0.18158 0.34215 0.0
C277 C 0.21547 0.19257 0.28416 0.0
C278 C 0.21195 0.21468 0.28918 0.0
C279 C 0.19844 0.17571 0.29991 0.0
C280 C 0.13555 0.16513 0.34852 0.0
H281 H 0.09512 0.05203 0.44668 0.0
H282 H 0.12389 0.08085 0.4207 0.0
H283 H 0.10218 0.15306 0.37091 0.0
H284 H 0.18634 0.23536 0.31649 0.0
H285 H 0.15733 0.20671 0.34534 0.0
H286 H 0.17819 0.13378 0.34456 0.0
C287 C 0.10769 0.0852 0.41372 0.0
C288 C 0.11857 0.14819 0.36468 0.0
C289 C 0.09079 0.06821 0.42945 0.0
C290 C 0.19027 0.21885 0.31132 0.0
C291 C 0.17324 0.20197 0.32776 0.0
C292 C 0.1618 0.13866 0.34899 0.0
C293 C 0.10384 0.10709 0.39084 0.0
C294 C 0.1225 0.12578 0.37324 0.0
C295 C 0.17661 0.17969 0.32254 0.0
C296 C 0.15788 0.16107 0.34013 0.0
H297 H 0.04828 0.09759 0.3964 0.0
H298 H 0.07701 0.12655 0.36759 0.0
H299 H 0.14961 0.10527 0.36912 0.0
H300 H 0.2316 0.18814 0.26712 0.0
H301 H 0.20271 0.15943 0.29315 0.0
C302 C 0.11017 0.92852 0.49973 0.0
C303 C 0.10117 0.94114 0.5504 0.0
C304 C 0.12619 0.91444 0.51541 0.0
C305 C 0.14767 0.88414 0.66556 0.0
H306 H 0.19752 0.87911 0.52977 0.0
C307 C 0.20403 0.8146 0.70002 0.0
C308 C 0.2265 0.8196 0.68577 0.0
C309 C 0.18949 0.83005 0.68296 0.0
C310 C 0.18377 0.88045 0.56843 0.0
H311 H 0.10185 0.94858 0.65767 0.0
H312 H 0.12979 0.92417 0.6848 0.0
H313 H 0.17078 0.90499 0.50091 0.0
H314 H 0.25123 0.84484 0.64162 0.0
H315 H 0.22567 0.87195 0.61143 0.0
H316 H 0.16058 0.85969 0.73312 0.0
C317 C 0.12445 0.92512 0.63294 0.0
C318 C 0.16834 0.89511 0.55163 0.0
C319 C 0.10856 0.93927 0.61714 0.0
C320 C 0.23405 0.84047 0.65339 0.0
C321 C 0.21941 0.85595 0.63578 0.0
C322 C 0.16298 0.86942 0.68212 0.0
C323 C 0.13346 0.9125 0.58234 0.0
C324 C 0.15007 0.8971 0.59998 0.0
C325 C 0.19695 0.85094 0.65083 0.0
C326 C 0.18118 0.8673 0.63369 0.0
H327 H 0.10499 0.92969 0.44763 0.0
H328 H 0.13264 0.90482 0.47543 0.0
H329 H 0.13372 0.88511 0.70382 0.0
H330 H 0.19757 0.7987 0.72474 0.0
H331 H 0.17232 0.82553 0.69434 0.0
C332 C 0.38463 0.8034 0.74014 0.0
C333 C 0.3735 0.82009 0.70791 0.0
C334 C 0.40306 0.80832 0.77162 0.0
C335 C 0.44328 0.85136 0.79643 0.0
H336 H 0.42587 0.83496 -0.00341 0.0
C337 C 0.48086 0.8971 -0.00531 0.0
C338 C 0.46457 0.90868 0.02695 0.0
C339 C 0.47545 0.8785 0.96454 0.0
C340 C 0.43129 0.83919 0.94093 0.0
H341 H 0.37393 0.85466 0.67697 0.0
H342 H 0.40642 0.86332 0.73129 0.0
H343 H 0.40744 0.81721 0.9107 0.0
H344 H 0.43024 0.90873 0.06013 0.0
H345 H 0.42073 0.87601 0.00799 0.0
H346 H 0.46608 0.87441 0.82661 0.0
C347 C 0.40087 0.84646 0.73228 0.0
C348 C 0.42086 0.82902 0.8918 0.0
C349 C 0.38223 0.84157 0.70167 0.0
C350 C 0.44304 0.90011 0.03522 0.0
C351 C 0.43766 0.88133 0.00587 0.0
C352 C 0.45395 0.86128 0.84553 0.0
C353 C 0.41076 0.82996 0.77041 0.0
C354 C 0.42603 0.83586 0.81933 0.0
C355 C 0.45372 0.87109 0.96707 0.0
C356 C 0.44724 0.85605 0.91807 0.0
H357 H 0.3781 0.7867 0.74631 0.0
H358 H 0.41044 0.79539 0.80087 0.0
H359 H 0.44748 0.85685 0.74079 0.0
H360 H 0.4976 0.90345 -0.01293 0.0
H361 H 0.48806 0.87083 0.93486 0.0
C362 C 0.44254 0.04804 0.06564 0.0
C363 C 0.46393 0.05582 0.04045 0.0
C364 C 0.42698 0.06241 0.08492 0.0
C365 C 0.39512 0.09836 0.08136 0.0
H366 H 0.41233 0.14661 0.17887 0.0
C367 C 0.34358 0.17218 0.10786 0.0
C368 C 0.34231 0.18138 0.17166 0.0
C369 C 0.35761 0.15589 0.09542 0.0
C370 C 0.40715 0.13313 0.1523 0.0
H371 H 0.48562 0.08491 0.01537 0.0
H372 H 0.45865 0.10971 0.04829 0.0
H373 H 0.43797 0.1197 0.15259 0.0
H374 H 0.35464 0.18023 0.27295 0.0
H375 H 0.37916 0.15189 0.25117 0.0
H376 H 0.36422 0.11178 0.08153 0.0
C377 C 0.45388 0.09254 0.05424 0.0
C378 C 0.42195 0.1178 0.1365 0.0
C379 C 0.46935 0.07826 0.03487 0.0
C380 C 0.35543 0.17379 0.22277 0.0
C381 C 0.36948 0.1575 0.21031 0.0
C382 C 0.38031 0.11375 0.09704 0.0
C383 C 0.43252 0.08484 0.07975 0.0
C384 C 0.41622 0.10035 0.10015 0.0
C385 C 0.37079 0.14836 0.1464 0.0
C386 C 0.3862 0.13144 0.13219 0.0
H387 H 0.43783 0.03086 0.07061 0.0
H388 H 0.41069 0.05592 0.10479 0.0
H389 H 0.39021 0.08521 0.05295 0.0
H390 H 0.33399 0.17784 0.06681 0.0
H391 H 0.35846 0.14952 0.04512 0.0
C392 C 0.94125 0.96712 0.53548 0.0
C393 C 0.96328 0.9635 0.54096 0.0
C394 C 0.92437 0.95012 0.55105 0.0
C395 C 0.91351 0.88713 0.59981 0.0
H396 H 0.85388 0.9015 0.61974 0.0
C397 C 0.84185 0.81645 0.65223 0.0
C398 C 0.82017 0.82059 0.67451 0.0
C399 C 0.85887 0.83334 0.63596 0.0
C400 C 0.87027 0.89664 0.61535 0.0
H401 H 0.98375 0.93776 0.5689 0.0
H402 H 0.95504 0.90879 0.59744 0.0
H403 H 0.88245 0.93003 0.59547 0.0
H404 H 0.80052 0.84709 0.69702 0.0
H405 H 0.8294 0.87582 0.67129 0.0
H406 H 0.90132 0.85373 0.6221 0.0
C407 C 0.9504 0.92475 0.57962 0.0
C408 C 0.88724 0.91357 0.59996 0.0
C409 C 0.96731 0.94176 0.56336 0.0
C410 C 0.81664 0.84269 0.67985 0.0
C411 C 0.83366 0.85956 0.66427 0.0
C412 C 0.89654 0.87018 0.6158 0.0
C413 C 0.92822 0.92823 0.57395 0.0
C414 C 0.90957 0.90954 0.59135 0.0
C415 C 0.85549 0.8556 0.64151 0.0
C416 C 0.87421 0.87423 0.6241 0.0
H417 H 0.93693 0.9833 0.51822 0.0
H418 H 0.90817 0.95446 0.54392 0.0
H419 H 0.9299 0.88227 0.59362 0.0
H420 H 0.84578 0.79995 0.64682 0.0
H421 H 0.87478 0.82863 0.61825 0.0
C422 C 0.92147 0.10633 0.46963 0.0
C423 C 0.93049 0.09406 0.41799 0.0
C424 C 0.90533 0.12038 0.45504 0.0
C425 C 0.88365 0.15141 0.30688 0.0
H426 H 0.83382 0.15559 0.44369 0.0
C427 C 0.79726 0.19502 0.32206 0.0
C428 C 0.80483 0.21604 0.29109 0.0
C429 C 0.81189 0.17944 0.33886 0.0
C430 C 0.84756 0.15449 0.40476 0.0
H431 H 0.92971 0.08717 0.31021 0.0
H432 H 0.90158 0.11155 0.28493 0.0
H433 H 0.86063 0.12958 0.47063 0.0
H434 H 0.83378 0.23711 0.25401 0.0
H435 H 0.859 0.21011 0.28299 0.0
H436 H 0.87068 0.17626 0.24101 0.0
C437 C 0.90699 0.11035 0.33671 0.0
C438 C 0.86303 0.13975 0.42047 0.0
C439 C 0.92299 0.09621 0.35143 0.0
C440 C 0.8273 0.22109 0.27761 0.0
C441 C 0.84183 0.20555 0.29385 0.0
C442 C 0.86831 0.16622 0.29145 0.0
C443 C 0.89797 0.12264 0.38826 0.0
C444 C 0.88129 0.13808 0.37173 0.0
C445 C 0.83436 0.18451 0.32438 0.0
C446 C 0.85013 0.16804 0.34028 0.0
H447 H 0.92673 0.10492 0.52163 0.0
H448 H 0.89887 0.12975 0.49574 0.0
H449 H 0.89759 0.1507 0.26838 0.0
H450 H 0.78007 0.19061 0.3332 0.0
H451 H 0.80562 0.16333 0.36203 0.0
C452 C 0.65081 0.1939 0.25426 0.0
C453 C 0.65949 0.21541 0.24728 0.0
C454 C 0.63296 0.18861 0.22033 0.0
C455 C 0.59127 0.18346 0.15189 0.0
H456 H 0.61017 0.1972 0.95152 0.0
C457 C 0.55225 0.13729 0.95768 0.0
C458 C 0.56792 0.12479 0.92649 0.0
C459 C 0.55852 0.15595 -0.01387 0.0
C460 C 0.60439 0.19369 0.00717 0.0
H461 H 0.65571 0.24846 0.20318 0.0
H462 H 0.62474 0.23905 0.14272 0.0
H463 H 0.62873 0.21535 0.03642 0.0
H464 H 0.60206 0.12323 0.89312 0.0
H465 H 0.61308 0.15599 0.9426 0.0
H466 H 0.56784 0.1608 0.12305 0.0
C467 C 0.63154 0.22642 0.17518 0.0
C468 C 0.6149 0.20409 0.05567 0.0
C469 C 0.64915 0.23176 0.21003 0.0
C470 C 0.58973 0.13252 0.91738 0.0
C471 C 0.59598 0.15134 0.94519 0.0
C472 C 0.58053 0.17333 0.1034 0.0
C473 C 0.62383 0.20473 0.17807 0.0
C474 C 0.60906 0.19827 0.1284 0.0
C475 C 0.58051 0.16248 -0.01687 0.0
C476 C 0.58769 0.17762 0.03088 0.0
H477 H 0.65857 0.18107 0.28263 0.0
H478 H 0.62739 0.17171 0.22266 0.0
H479 H 0.58656 0.17876 0.20775 0.0
H480 H 0.53531 0.13164 0.96588 0.0
H481 H 0.54634 0.16436 0.01502 0.0
C482 C 0.68757 0.861 0.86211 0.0
C483 C 0.68962 0.85325 0.79591 0.0
C484 C 0.67335 0.87696 0.87661 0.0
C485 C 0.64327 0.92029 0.79224 0.0
H486 H 0.60744 0.91296 0.97282 0.0
C487 C 0.56187 0.95542 0.93556 0.0
C488 C 0.56651 0.97797 0.92047 0.0
C489 C 0.5776 0.94105 0.91978 0.0
C490 C 0.61729 0.91524 0.92206 0.0
H491 H 0.67848 0.8565 0.69268 0.0
H492 H 0.65348 0.88424 0.71827 0.0
H493 H 0.63324 0.88622 0.94582 0.0
H494 H 0.5914 1.00304 0.87615 0.0
H495 H 0.61902 0.97777 0.84822 0.0
H496 H 0.62698 0.9492 0.76829 0.0
C497 C 0.66301 0.87804 0.75881 0.0
C498 C 0.63223 0.9 0.90683 0.0
C499 C 0.67715 0.86196 0.74441 0.0
C500 C 0.58731 0.98578 0.88852 0.0
C501 C 0.60308 0.97131 0.87222 0.0
C502 C 0.62839 0.93564 0.80771 0.0
C503 C 0.66086 0.88566 0.82523 0.0
C504 C 0.64532 0.90224 0.84159 0.0
C505 C 0.59842 0.94877 0.88819 0.0
C506 C 0.61507 0.93318 0.87258 0.0
H507 H 0.69676 0.85452 0.90323 0.0
H508 H 0.67224 0.88258 0.92811 0.0
H509 H 0.65325 0.9226 0.74175 0.0
H510 H 0.54603 0.94877 0.96 0.0
H511 H 0.57335 0.92381 0.9318 0.0
C512 C 0.59104 0.56814 0.92904 0.0
C513 C 0.56891 0.57194 0.92679 0.0
C514 C 0.60793 0.58514 0.9134 0.0
C515 C 0.61875 0.64828 0.87323 0.0
H516 H 0.67802 0.6338 0.83703 0.0
C517 C 0.69027 0.71912 0.81312 0.0
C518 C 0.71202 0.71495 0.79217 0.0
C519 C 0.67326 0.70223 0.8295 0.0
C520 C 0.66176 0.63877 0.84633 0.0
H521 H 0.54824 0.59801 0.90458 0.0
H522 H 0.57697 0.627 0.87602 0.0
H523 H 0.64943 0.60538 0.86189 0.0
H524 H 0.73184 0.68837 0.77236 0.0
H525 H 0.7031 0.65964 0.79864 0.0
H526 H 0.63093 0.68166 0.85571 0.0
C527 C 0.58167 0.61087 0.89133 0.0
C528 C 0.64479 0.62184 0.86192 0.0
C529 C 0.56476 0.59386 0.90759 0.0
C530 C 0.71564 0.69281 0.78836 0.0
C531 C 0.69864 0.67592 0.80414 0.0
C532 C 0.63571 0.66523 0.85713 0.0
C533 C 0.60395 0.6072 0.89372 0.0
C534 C 0.62259 0.62588 0.87618 0.0
C535 C 0.6767 0.67988 0.82553 0.0
C536 C 0.65796 0.66121 0.8431 0.0
H537 H 0.59545 0.55181 0.94372 0.0
H538 H 0.62425 0.58068 0.9179 0.0
H539 H 0.60245 0.65309 0.88409 0.0
H540 H 0.68626 0.73567 0.81727 0.0
H541 H 0.6573 0.70708 0.84572 0.0
C542 C 0.73431 0.3396 0.1418 0.0
C543 C 0.72671 0.31805 0.16603 0.0
C544 C 0.71991 0.35505 0.12186 0.0
C545 C 0.66481 0.35982 0.06781 0.0
H546 H 0.67032 0.4175 0.12448 0.0
C547 C 0.60899 0.42679 0.98162 0.0
C548 C 0.60146 0.43993 0.03281 0.0
C549 C 0.62509 0.41252 -0.00576 0.0
C550 C 0.66849 0.40143 0.10849 0.0
H551 H 0.69792 0.29593 0.18842 0.0
H552 H 0.67304 0.32272 0.15445 0.0
H553 H 0.69681 0.39153 0.15337 0.0
H554 H 0.60478 0.44793 0.1382 0.0
H555 H 0.63273 0.42311 0.16012 0.0
H556 H 0.63618 0.36946 0.02465 0.0
C557 C 0.6901 0.3277 0.14977 0.0
C558 C 0.68384 0.38662 0.12433 0.0
C559 C 0.70442 0.31234 0.16977 0.0
C560 C 0.61043 0.43837 0.097 0.0
C561 C 0.62652 0.42413 0.10958 0.0
C562 C 0.6495 0.37463 0.05185 0.0
C563 C 0.69761 0.34926 0.12543 0.0
C564 C 0.68207 0.36553 0.10492 0.0
C565 C 0.63409 0.41101 0.0584 0.0
C566 C 0.65099 0.39557 0.0726 0.0
H567 H 0.75137 0.34453 0.13818 0.0
H568 H 0.72627 0.37147 0.10285 0.0
H569 H 0.66308 0.34382 0.05119 0.0
H570 H 0.60269 0.42776 0.93122 0.0
H571 H 0.63071 0.40287 0.95325 0.0
C572 C 0.9395 0.40362 0.54185 0.0
C573 C 0.96139 0.41104 0.53413 0.0
C574 C 0.93329 0.38447 0.51588 0.0
C575 C 0.94982 0.36068 0.36226 0.0
H576 H 0.90065 0.31975 0.42831 0.0
C577 C 0.88049 0.34008 0.2077 0.0
C578 C 0.87164 0.31863 0.21512 0.0
C579 C 0.89813 0.34536 0.24262 0.0
C580 C 0.91476 0.33069 0.40943 0.0
H581 H 0.9941 0.40331 0.49937 0.0
H582 H 0.98315 0.37002 0.45347 0.0
H583 H 0.91866 0.33844 0.51331 0.0
H584 H 0.87485 0.28565 0.26108 0.0
H585 H 0.90543 0.29506 0.32343 0.0
H586 H 0.94462 0.35446 0.25789 0.0
C587 C 0.97088 0.37892 0.47986 0.0
C588 C 0.92495 0.34139 0.45796 0.0
C589 C 0.9771 0.39793 0.50645 0.0
C590 C 0.88158 0.3023 0.25388 0.0
C591 C 0.89896 0.30763 0.28979 0.0
C592 C 0.9394 0.35026 0.3137 0.0
C593 C 0.94889 0.37266 0.4812 0.0
C594 C 0.942 0.35709 0.4344 0.0
C595 C 0.90684 0.32929 0.28633 0.0
C596 C 0.92128 0.33586 0.3368 0.0
H597 H 0.92713 0.41337 0.56348 0.0
H598 H 0.9162 0.38002 0.51714 0.0
H599 H 0.9628 0.37292 0.34269 0.0
H600 H 0.87302 0.3529 0.17823 0.0
H601 H 0.90384 0.36224 0.23987 0.0
C602 C 0.83636 0.661 0.67744 0.0
C603 C 0.84348 0.68309 0.66997 0.0
C604 C 0.85075 0.6453 0.66142 0.0
C605 C 0.90332 0.63897 0.55844 0.0
H606 H 0.90156 0.5841 0.67739 0.0
C607 C 0.97115 0.58074 0.52611 0.0
C608 C 0.96553 0.55833 0.53259 0.0
C609 C 0.95568 0.59528 0.54301 0.0
C610 C 0.90209 0.59922 0.64309 0.0
H611 H 0.87144 0.70591 0.63957 0.0
H612 H 0.89657 0.67855 0.61271 0.0
H613 H 0.87583 0.61079 0.70718 0.0
H614 H 0.93915 0.53366 0.5625 0.0
H615 H 0.91197 0.55918 0.59161 0.0
H616 H 0.92952 0.6275 0.49437 0.0
C617 C 0.87978 0.67337 0.63036 0.0
C618 C 0.88735 0.61454 0.66023 0.0
C619 C 0.86541 0.68905 0.64659 0.0
C620 C 0.94402 0.55081 0.55696 0.0
C621 C 0.92848 0.56543 0.57396 0.0
C622 C 0.918 0.62367 0.5413 0.0
C623 C 0.87263 0.6513 0.63722 0.0
C624 C 0.88791 0.63469 0.61842 0.0
C625 C 0.93411 0.58788 0.56678 0.0
C626 C 0.91773 0.60367 0.58372 0.0
H627 H 0.81963 0.6558 0.69604 0.0
H628 H 0.84465 0.62848 0.66685 0.0
H629 H 0.90394 0.65411 0.52422 0.0
H630 H 0.98757 0.58716 0.50787 0.0
H631 H 0.96074 0.61238 0.53808 0.0
C632 C 0.34197 0.3161 0.15012 0.0
C633 C 0.32021 0.32026 0.17092 0.0
C634 C 0.35899 0.33299 0.13388 0.0
C635 C 0.3705 0.39646 0.11702 0.0
H636 H 0.42984 0.38214 0.08035 0.0
C637 C 0.44127 0.46713 0.03554 0.0
C638 C 0.46341 0.46332 0.03765 0.0
C639 C 0.42437 0.45013 0.05102 0.0
C640 C 0.41353 0.38695 0.09089 0.0
H641 H 0.30039 0.34685 0.19064 0.0
H642 H 0.32914 0.37558 0.1646 0.0
H643 H 0.40134 0.35356 0.10844 0.0
H644 H 0.48406 0.43722 0.05942 0.0
H645 H 0.45534 0.40822 0.08768 0.0
H646 H 0.38281 0.42985 0.10143 0.0
C647 C 0.3336 0.3593 0.1591 0.0
C648 C 0.39657 0.36999 0.10682 0.0
C649 C 0.31659 0.34241 0.17473 0.0
C650 C 0.46754 0.44138 0.05654 0.0
C651 C 0.45063 0.42437 0.07263 0.0
C652 C 0.38747 0.41339 0.10159 0.0
C653 C 0.35555 0.35534 0.13786 0.0
C654 C 0.3743 0.37401 0.12046 0.0
C655 C 0.42834 0.42805 0.07038 0.0
C656 C 0.40969 0.40936 0.08773 0.0
H657 H 0.34598 0.29955 0.14597 0.0
H658 H 0.37496 0.32815 0.11776 0.0
H659 H 0.35422 0.40142 0.12599 0.0
H660 H 0.43686 0.48347 0.02111 0.0
H661 H 0.40806 0.45461 0.04664 0.0
C662 C 0.43671 0.61814 0.91798 0.0
C663 C 0.43109 0.59588 0.937 0.0
C664 C 0.42082 0.63264 0.90568 0.0
C665 C 0.36448 0.63498 0.86191 0.0
H666 H 0.36969 0.69237 0.92112 0.0
C667 C 0.29844 0.69682 0.83209 0.0
C668 C 0.30599 0.7184 0.80803 0.0
C669 C 0.31292 0.68133 0.85101 0.0
C670 C 0.36806 0.67646 0.90371 0.0
H671 H 0.40414 0.57156 0.95957 0.0
H672 H 0.37644 0.59684 0.93836 0.0
H673 H 0.39636 0.66655 0.94838 0.0
H674 H 0.33476 0.74052 0.78488 0.0
H675 H 0.35977 0.71367 0.81734 0.0
H676 H 0.33618 0.64501 0.817 0.0
C677 C 0.3932 0.60305 0.93172 0.0
C678 C 0.3834 0.66165 0.91927 0.0
C679 C 0.40911 0.58854 0.94394 0.0
C680 C 0.3283 0.72409 0.80343 0.0
C681 C 0.34269 0.70869 0.82252 0.0
C682 C 0.34909 0.64982 0.84644 0.0
C683 C 0.39884 0.62529 0.9122 0.0
C684 C 0.38196 0.64077 0.89798 0.0
C685 C 0.33523 0.68712 0.84667 0.0
C686 C 0.35083 0.67084 0.86647 0.0
H687 H 0.45349 0.62433 0.91104 0.0
H688 H 0.42583 0.64958 0.88959 0.0
H689 H 0.36297 0.61916 0.8439 0.0
H690 H 0.28137 0.69189 0.83629 0.0
H691 H 0.3066 0.66488 0.86988 0.0
C692 C 0.15125 0.72497 0.73617 0.0
C693 C 0.16204 0.71094 0.78068 0.0
C694 C 0.13594 0.7166 0.69709 0.0
C695 C 0.12994 0.66705 0.61738 0.0
H696 H 0.08134 0.69277 0.53944 0.0
C697 C 0.09719 0.62943 0.39798 0.0
C698 C 0.07512 0.62312 0.41443 0.0
C699 C 0.10636 0.64617 0.42984 0.0
C700 C 0.09497 0.68551 0.56061 0.0
H701 H 0.16318 0.67782 0.82762 0.0
H702 H 0.13575 0.66319 0.76137 0.0
H703 H 0.09622 0.70775 0.63786 0.0
H704 H 0.04478 0.63096 0.46934 0.0
H705 H 0.0608 0.65962 0.52645 0.0
H706 H 0.12854 0.64448 0.54272 0.0
C707 C 0.13969 0.68053 0.7546 0.0
C708 C 0.10341 0.69402 0.61695 0.0
C709 C 0.15522 0.68886 0.79294 0.0
C710 C 0.06188 0.63555 0.45574 0.0
C711 C 0.07109 0.65203 0.48853 0.0
C712 C 0.12154 0.65859 0.5616 0.0
C713 C 0.13115 0.69412 0.70257 0.0
C714 C 0.12085 0.68467 0.64631 0.0
C715 C 0.09362 0.65639 0.4798 0.0
C716 C 0.10393 0.66763 0.5326 0.0
H717 H 0.15631 0.74208 0.72558 0.0
H718 H 0.12961 0.72749 0.65763 0.0
H719 H 0.14379 0.65985 0.63731 0.0
H720 H 0.10762 0.62022 0.36545 0.0
H721 H 0.12372 0.64971 0.4204 0.0
C722 C 0.1668 0.34663 0.31269 0.0
C723 C 0.18877 0.35247 0.28968 0.0
C724 C 0.15243 0.36243 0.32768 0.0
C725 C 0.145 0.42119 0.29426 0.0
H726 H 0.10238 0.40904 0.45919 0.0
C727 C 0.08782 0.4854 0.39134 0.0
C728 C 0.06629 0.4779 0.41558 0.0
C729 C 0.10345 0.47074 0.3757 0.0
C730 C 0.11402 0.41264 0.4125 0.0
H731 H 0.21272 0.37966 0.26304 0.0
H732 H 0.1877 0.4072 0.29003 0.0
H733 H 0.12807 0.38228 0.43195 0.0
H734 H 0.04431 0.44904 0.44138 0.0
H735 H 0.0713 0.42375 0.41346 0.0
H736 H 0.1308 0.45154 0.27469 0.0
C737 C 0.18156 0.39038 0.29613 0.0
C738 C 0.12877 0.39726 0.39686 0.0
C739 C 0.19596 0.37456 0.28137 0.0
C740 C 0.06075 0.45546 0.4232 0.0
C741 C 0.0763 0.44088 0.40763 0.0
C742 C 0.13019 0.43659 0.30987 0.0
C743 C 0.15964 0.3845 0.3199 0.0
C744 C 0.14433 0.40123 0.33722 0.0
C745 C 0.09789 0.44826 0.38413 0.0
C746 C 0.11437 0.43242 0.36885 0.0
H747 H 0.16073 0.32978 0.32032 0.0
H748 H 0.13561 0.35733 0.34503 0.0
H749 H 0.15665 0.42471 0.24755 0.0
H750 H 0.09264 0.50257 0.38498 0.0
H751 H 0.11996 0.47699 0.35821 0.0
C752 C 0.03529 0.02446 0.72063 0.0
C753 C 0.01654 0.02956 0.6902 0.0
C754 C 0.03558 0.02424 0.79254 0.0
C755 C 0.99851 1.01099 0.9484 0.0
H756 H 0.04671 0.02949 0.04362 0.0
C757 C 0.99667 1.01076 0.24488 0.0
C758 C 1.01542 1.00567 0.2753 0.0
C759 C 0.99633 1.01084 0.17303 0.0
C760 C 0.03337 0.02392 0.01721 0.0
H761 H 0.98413 0.04028 0.70845 0.0
H762 H 0.98457 0.03968 0.83584 0.0
H763 H 0.04711 0.04071 0.91771 0.0
H764 H 0.04778 0.99481 0.25712 0.0
H765 H 0.04726 0.9952 0.12984 0.0
H766 H 0.98476 0.99422 0.04794 0.0
C767 C 0.9989 0.03573 0.80374 0.0
C768 C 0.03345 0.03058 0.94585 0.0
C769 C 0.99866 0.03613 0.73135 0.0
C770 C 0.03325 0.99896 0.23423 0.0
C771 C 0.03297 0.99923 0.16191 0.0
C772 C 0.99842 1.00434 0.01978 0.0
C773 C 0.0171 0.02902 0.83477 0.0
C774 C 1.01603 0.02415 0.91115 0.0
C775 C 1.01478 1.00594 0.13086 0.0
C776 C 1.01585 1.01077 0.05446 0.0
H777 H 0.0494 0.0197 0.68936 0.0
H778 H 0.04974 0.01893 0.81557 0.0
H779 H 0.98516 1.00543 0.922 0.0
H780 H 0.98259 1.01561 0.2761 0.0
H781 H 0.98217 1.01616 0.14997 0.0
C782 C 0.25085 0.74567 0.51239 0.0
C783 C 0.26939 0.75347 0.53923 0.0
C784 C 0.25038 0.74704 0.43971 0.0
C785 C 0.28386 0.75786 0.26714 0.0
H786 H 0.2344 0.78748 0.21017 0.0
C787 C 0.28149 0.79179 0.98046 0.0
C788 C 0.26293 0.78423 0.95323 0.0
C789 C 0.28191 0.79019 0.05319 0.0
C790 C 0.24825 0.77917 0.22544 0.0
H791 H 0.30264 0.76663 0.51242 0.0
H792 H 0.30181 0.76899 0.38587 0.0
H793 H 0.236 0.7757 0.33472 0.0
H794 H 0.22958 0.77131 0.97949 0.0
H795 H 0.23033 0.76853 0.10613 0.0
H796 H 0.29611 0.76133 0.15786 0.0
C797 C 0.28763 0.76197 0.42046 0.0
C798 C 0.24907 0.77223 0.29642 0.0
C799 C 0.28806 0.76074 0.49287 0.0
C800 C 0.24419 0.77701 -0.00067 0.0
C801 C 0.24457 0.77553 0.07179 0.0
C802 C 0.28304 0.76479 0.19616 0.0
C803 C 0.26851 0.75602 0.39337 0.0
C804 C 0.26689 0.76154 0.3178 0.0
C805 C 0.26371 0.78122 0.09923 0.0
C806 C 0.26524 0.77552 0.17478 0.0
H807 H 0.23628 0.7399 0.5472 0.0
H808 H 0.23557 0.74202 0.41975 0.0
H809 H 0.29772 0.74957 0.28243 0.0
H810 H 0.29611 0.79752 0.94588 0.0
H811 H 0.29673 0.79503 0.07341 0.0
C812 C 0.5053 0.03863 0.72781 0.0
C813 C 0.49954 0.0193 0.77272 0.0
C814 C 0.50693 0.03864 0.65519 0.0
C815 C 0.49528 1.00706 0.51204 0.0
H816 H 0.55045 0.03443 0.42148 0.0
C817 C 0.52494 0.99528 0.2303 0.0
C818 C 0.53074 1.01461 0.1854 0.0
C819 C 0.5233 0.99527 0.30292 0.0
C820 C 0.53497 0.02684 0.44607 0.0
H821 H 0.48902 0.98529 0.77805 0.0
H822 H 0.49211 0.98522 0.65034 0.0
H823 H 0.53979 0.03671 0.54625 0.0
H824 H 0.5413 0.0486 0.18005 0.0
H825 H 0.53821 0.04867 0.30777 0.0
H826 H 0.49046 0.9972 0.41186 0.0
C827 C 0.4953 1.00036 0.67137 0.0
C828 C 0.5288 0.02825 0.51716 0.0
C829 C 0.49352 1.00038 0.7443 0.0
C830 C 0.53678 0.03351 0.21381 0.0
C831 C 0.535 0.03354 0.28674 0.0
C832 C 0.50145 1.00566 0.44095 0.0
C833 C 0.50295 0.01928 0.62645 0.0
C834 C 0.50888 0.01841 0.55063 0.0
C835 C 0.52731 1.01462 0.33166 0.0
C836 C 0.52137 1.0155 0.40748 0.0
H837 H 0.50967 0.05352 0.7487 0.0
H838 H 0.51231 0.05355 0.62148 0.0
H839 H 0.4798 0.99948 0.53663 0.0
H840 H 0.52055 0.98039 0.20939 0.0
H841 H 0.5179 0.98036 0.33661 0.0
C842 C 0.25982 0.24768 -0.00818 0.0
C843 C 0.2543 0.26629 0.02264 0.0
C844 C 0.25983 0.24738 0.91998 0.0
C845 C 0.2719 0.28488 0.76483 0.0
H846 H 0.25447 0.2364 0.66868 0.0
C847 C 0.27221 0.28716 0.46823 0.0
C848 C 0.27772 0.26855 0.43739 0.0
C849 C 0.27204 0.28739 0.54015 0.0
C850 C 0.25973 0.24983 0.69535 0.0
H851 H 0.24258 0.29838 0.00523 0.0
H852 H 0.24286 0.29794 0.87803 0.0
H853 H 0.24335 0.23556 0.79485 0.0
H854 H 0.28923 0.23637 0.45491 0.0
H855 H 0.28871 0.23671 0.58224 0.0
H856 H 0.28831 0.29914 0.66539 0.0
C857 C 0.24729 0.28373 0.90975 0.0
C858 C 0.25313 0.24949 0.76685 0.0
C859 C 0.24709 0.28396 0.98203 0.0
C860 C 0.28475 0.25079 0.47811 0.0
C861 C 0.2844 0.25096 0.55047 0.0
C862 C 0.27851 0.28522 0.69336 0.0
C863 C 0.25443 0.26573 0.87827 0.0
C864 C 0.25919 0.26701 0.80185 0.0
C865 C 0.27727 0.26898 0.58193 0.0
C866 C 0.27245 0.2677 0.65834 0.0
H867 H 0.26506 0.2337 0.02268 0.0
H868 H 0.26549 0.23337 0.89653 0.0
H869 H 0.27718 0.29831 0.7915 0.0
H870 H 0.2671 0.30119 0.4373 0.0
H871 H 0.2664 0.30141 0.56356 0.0
C872 C 0.75247 0.24338 -0.00434 0.0
C873 C 0.77047 0.25256 0.02216 0.0
C874 C 0.75187 0.2447 0.92312 0.0
C875 C 0.78439 0.25804 0.74987 0.0
H876 H 0.73233 0.28336 0.69603 0.0
C877 C 0.77885 0.29087 0.46464 0.0
C878 C 0.76086 0.28167 0.43815 0.0
C879 C 0.77944 0.28958 0.53718 0.0
C880 C 0.74691 0.27627 0.71045 0.0
H881 H 0.8028 0.26817 -0.00534 0.0
H882 H 0.80169 0.27051 0.86825 0.0
H883 H 0.73512 0.27203 0.82012 0.0
H884 H 0.72851 0.26609 0.46565 0.0
H885 H 0.72961 0.26379 0.59207 0.0
H886 H 0.79619 0.26227 0.64021 0.0
C887 C 0.78804 0.26243 0.90311 0.0
C888 C 0.74842 0.26958 0.78113 0.0
C889 C 0.78861 0.26121 0.97545 0.0
C890 C 0.7427 0.27305 0.48486 0.0
C891 C 0.74326 0.27185 0.5572 0.0
C892 C 0.78288 0.26473 0.67919 0.0
C893 C 0.76931 0.25505 0.87652 0.0
C894 C 0.76717 0.26041 0.80133 0.0
C895 C 0.76199 0.27925 0.58379 0.0
C896 C 0.76413 0.2739 0.65898 0.0
H897 H 0.73833 0.23648 0.03069 0.0
H898 H 0.73741 0.23855 0.9035 0.0
H899 H 0.79897 0.25094 0.76429 0.0
H900 H 0.79299 0.29776 0.42962 0.0
H901 H 0.7939 0.29574 0.5568 0.0
C902 C 0.75964 0.7481 0.49521 0.0
C903 C 0.75429 0.76679 0.52588 0.0
C904 C 0.7597 0.74779 0.42336 0.0
C905 C 0.77216 0.78517 0.26795 0.0
H906 H 0.75437 0.73674 0.17213 0.0
C907 C 0.77245 0.78731 0.97141 0.0
C908 C 0.77784 0.76865 0.94069 0.0
C909 C 0.77229 0.78758 0.04331 0.0
C910 C 0.75973 0.75016 0.19871 0.0
H911 H 0.74292 0.79903 0.50816 0.0
H912 H 0.74327 0.79856 0.38092 0.0
H913 H 0.74323 0.73606 0.29822 0.0
H914 H 0.78913 0.73638 0.95839 0.0
H915 H 0.78862 0.73677 0.08573 0.0
H916 H 0.78868 0.79927 0.16848 0.0
C917 C 0.74753 0.7843 0.41278 0.0
C918 C 0.75312 0.7499 0.27017 0.0
C919 C 0.74729 0.78455 0.48508 0.0
C920 C 0.78475 0.75085 0.98151 0.0
C921 C 0.7844 0.75105 0.05387 0.0
C922 C 0.77878 0.78543 0.19651 0.0
C923 C 0.75451 0.76621 0.38146 0.0
C924 C 0.75931 0.76741 0.30505 0.0
C925 C 0.77741 0.76913 0.08521 0.0
C926 C 0.77259 0.76792 0.16162 0.0
H927 H 0.76471 0.73407 0.52622 0.0
H928 H 0.76522 0.73372 0.40007 0.0
H929 H 0.77753 0.79859 0.29453 0.0
H930 H 0.76743 0.80138 0.94039 0.0
H931 H 0.76675 0.80165 0.06662 0.0
C932 C 0.53772 0.50662 0.73186 0.0
C933 C 0.51887 0.51306 0.76842 0.0
C934 C 0.54135 0.51092 0.65887 0.0
C935 C 0.52456 0.54639 0.51213 0.0
H936 H 0.54335 0.5011 0.40131 0.0
C937 C 0.50585 0.53795 0.23227 0.0
C938 C 0.52137 0.52903 0.18771 0.0
C939 C 0.50993 0.54095 0.30034 0.0
C940 C 0.5386 0.51411 0.43153 0.0
H941 H 0.48844 0.52771 0.75833 0.0
H942 H 0.49444 0.53448 0.6304 0.0
H943 H 0.54153 0.49498 0.52864 0.0
H944 H 0.55409 0.51852 0.17517 0.0
H945 H 0.56116 0.52388 0.29372 0.0
H946 H 0.52059 0.56505 0.41447 0.0
C947 C 0.50673 0.52689 0.65823 0.0
C948 C 0.53753 0.51056 0.50429 0.0
C949 C 0.50318 0.52276 0.73111 0.0
C950 C 0.54159 0.52477 0.20961 0.0
C951 C 0.54574 0.52802 0.27695 0.0
C952 C 0.52553 0.5499 0.43913 0.0
C953 C 0.52607 0.52149 0.62185 0.0
C954 C 0.5299 0.52642 0.54509 0.0
C955 C 0.52965 0.53528 0.3236 0.0
C956 C 0.53204 0.53354 0.3987 0.0
H957 H 0.55013 0.49926 0.75969 0.0
H958 H 0.55636 0.50658 0.63164 0.0
H959 H 0.51903 0.559 0.54289 0.0
H960 H 0.49029 0.54162 0.21573 0.0
H961 H 0.49723 0.54643 0.33595 0.0
C962 C 0.02588 0.49672 0.72453 0.0
C963 C 0.03172 0.51602 0.67954 0.0
C964 C 0.02422 0.49675 0.79715 0.0
C965 C 0.03585 0.52838 0.9403 0.0
H966 H 0.98073 0.50088 0.03078 0.0
C967 C 1.00605 0.53993 0.22239 0.0
C968 C 1.00021 0.52058 0.26717 0.0
C969 C 1.00778 0.53998 0.14973 0.0
C970 C 0.99619 0.5085 0.00623 0.0
H971 H 0.04233 0.55 0.67403 0.0
H972 H 0.0392 0.55014 0.80177 0.0
H973 H 0.99139 0.49867 0.90599 0.0
H974 H 0.98972 0.48658 0.27218 0.0
H975 H 0.99295 0.48659 0.1444 0.0
H976 H 0.04064 0.53821 0.04057 0.0
C977 C 0.03598 0.535 0.78081 0.0
C978 C 1.00237 0.50714 0.93511 0.0
C979 C 0.03779 0.53493 0.70786 0.0
C980 C 0.99425 0.50169 0.23854 0.0
C981 C 0.99612 0.50171 0.16557 0.0
C982 C 0.02966 0.52974 0.01144 0.0
C983 C 0.02824 0.51611 0.82582 0.0
C984 C 0.02228 0.51702 0.90165 0.0
C985 C 1.00382 0.52066 0.12079 0.0
C986 C 1.00977 0.51984 0.04491 0.0
H987 H 0.02146 0.48183 0.70369 0.0
H988 H 0.01879 0.48185 0.83089 0.0
H989 H 0.05131 0.536 0.91575 0.0
H990 H 1.01039 0.5548 0.24344 0.0
H991 H 1.01319 0.55491 0.11616 0.0
loop_
_geom_bond_atom_site_label_1
_geom_bond_atom_site_label_2
_geom_bond_distance
_geom_bond_site_symmetry_2
_ccdc_geom_bond_type
C0 O16 1.251 1_645 S
C0 O18 1.254 . S
N1 C2 1.333 . S
N1 C6 1.307 . S
N1 Zn7 2.020 . S
C2 N1 1.333 . S
C2 C3 1.379 . S
C2 H20 0.952 . S
C3 C2 1.379 . S
C3 C4 1.390 . S
C3 H30 0.949 . S
C4 C3 1.390 . S
C4 C5 1.357 . S
C5 C4 1.357 . S
C5 C6 1.370 . S
C5 H31 0.950 . S
C6 N1 1.307 . S
C6 C5 1.370 . S
C6 H24 0.948 . S
Zn7 N1 2.020 . S
Zn7 O16 2.039 . S
Zn7 O22 2.034 1_565 S
Zn7 O26 2.025 . S
Zn7 O28 2.024 1_455 S
C8 O27 1.246 . S
C8 O28 1.249 . S
N9 C10 1.307 . S
N9 C11 1.333 . S
N9 Zn15 2.020 . S
C10 N9 1.307 . S
C10 C14 1.370 . S
C10 H21 0.948 . S
C11 N9 1.333 . S
C11 C12 1.379 . S
C11 H19 0.952 . S
C12 C11 1.379 . S
C12 C13 1.390 . S
C12 H32 0.949 . S
C13 C12 1.390 . S
C13 C14 1.357 . S
C14 C10 1.370 . S
C14 C13 1.357 . S
C14 H33 0.950 . S
Zn15 N9 2.020 . S
Zn15 O18 2.025 . S
Zn15 O23 2.024 1_655 S
Zn15 O25 2.039 . S
Zn15 O27 2.034 1_545 S
O16 C0 1.251 1_465 S
O16 Zn7 2.039 . S
C17 O22 1.246 . S
C17 O23 1.249 . S
O18 C0 1.254 . S
O18 Zn15 2.025 . S
H19 C11 0.952 . S
H20 C2 0.952 . S
H21 C10 0.948 . S
O22 Zn7 2.034 1_545 S
O22 C17 1.246 . S
O23 Zn15 2.024 1_455 S
O23 C17 1.249 . S
H24 C6 0.948 . S
O25 Zn15 2.039 . S
O25 C29 1.251 1_645 S
O26 Zn7 2.025 . S
O26 C29 1.254 . S
O27 C8 1.246 . S
O27 Zn15 2.034 1_565 S
O28 Zn7 2.024 1_655 S
O28 C8 1.249 . S
C29 O25 1.251 1_465 S
C29 O26 1.254 . S
H30 C3 0.949 . S
H31 C5 0.950 . S
H32 C12 0.949 . S
H33 C14 0.950 . S
C34 O50 1.251 . S
C34 O52 1.254 . S
N35 C36 1.333 . S
N35 C40 1.307 . S
N35 Zn41 2.020 . S
C36 N35 1.333 . S
C36 C37 1.379 . S
C36 H54 0.952 . S
C37 C36 1.379 . S
C37 C38 1.390 . S
C37 H64 0.949 . S
C38 C37 1.390 . S
C38 C39 1.357 . S
C39 C38 1.357 . S
C39 C40 1.370 . S
C39 H65 0.950 . S
C40 N35 1.307 . S
C40 C39 1.370 . S
C40 H58 0.948 . S
Zn41 N35 2.020 . S
Zn41 O50 2.039 . S
Zn41 O56 2.034 . S
Zn41 O60 2.025 . S
Zn41 O62 2.024 . S
C42 O61 1.246 . S
C42 O62 1.249 . S
N43 C44 1.307 . S
N43 C45 1.333 . S
N43 Zn49 2.020 . S
C44 N43 1.307 . S
C44 C48 1.370 . S
C44 H55 0.948 . S
C45 N43 1.333 . S
C45 C46 1.379 . S
C45 H53 0.952 . S
C46 C45 1.379 . S
C46 C47 1.390 . S
C46 H66 0.949 . S
C47 C46 1.390 . S
C47 C48 1.357 . S
C48 C44 1.370 . S
C48 C47 1.357 . S
C48 H67 0.950 . S
Zn49 N43 2.020 . S
Zn49 O52 2.025 . S
Zn49 O57 2.024 . S
Zn49 O59 2.039 . S
Zn49 O61 2.034 . S
O50 C34 1.251 . S
O50 Zn41 2.039 . S
C51 O56 1.246 . S
C51 O57 1.249 . S
O52 C34 1.254 . S
O52 Zn49 2.025 . S
H53 C45 0.952 . S
H54 C36 0.952 . S
H55 C44 0.948 . S
O56 Zn41 2.034 . S
O56 C51 1.246 . S
O57 Zn49 2.024 . S
O57 C51 1.249 . S
H58 C40 0.948 . S
O59 Zn49 2.039 . S
O59 C63 1.251 . S
O60 Zn41 2.025 . S
O60 C63 1.254 . S
O61 C42 1.246 . S
O61 Zn49 2.034 . S
O62 Zn41 2.024 . S
O62 C42 1.249 . S
C63 O59 1.251 . S
C63 O60 1.254 . S
H64 C37 0.949 . S
H65 C39 0.950 . S
H66 C46 0.949 . S
H67 C48 0.950 . S
C68 O84 1.251 1_545 S
C68 O86 1.254 . S
N69 C70 1.333 . S
N69 C74 1.307 1_556 S
N69 Zn75 2.019 1_556 S
C70 N69 1.333 . S
C70 C71 1.379 . S
C70 H88 0.952 . S
C71 C70 1.379 . S
C71 C72 1.390 . S
C71 H98 0.949 . S
C72 C71 1.390 . S
C72 C73 1.357 1_556 S
C73 C72 1.357 1_554 S
C73 C74 1.370 . S
C73 H99 0.950 . S
C74 N69 1.307 1_554 S
C74 C73 1.370 . S
C74 H92 0.948 . S
Zn75 N69 2.019 1_554 S
Zn75 O84 2.034 1_554 S
Zn75 O90 2.034 1_565 S
Zn75 O94 2.030 . S
Zn75 O96 2.024 1_554 S
C76 O95 1.246 . S
C76 O96 1.249 . S
N77 C78 1.307 1_554 S
N77 C79 1.333 . S
N77 Zn83 2.020 1_554 S
C78 N77 1.307 1_556 S
C78 C82 1.370 . S
C78 H89 0.948 . S
C79 N77 1.333 . S
C79 C80 1.379 . S
C79 H87 0.952 . S
C80 C79 1.379 . S
C80 C81 1.390 . S
C80 H100 0.949 . S
C81 C80 1.390 . S
C81 C82 1.357 1_554 S
C82 C78 1.370 . S
C82 C81 1.357 1_556 S
C82 H101 0.950 . S
Zn83 N77 2.020 1_556 S
Zn83 O86 2.027 . S
Zn83 O91 2.024 1_556 S
Zn83 O93 2.038 1_556 S
Zn83 O95 2.034 1_545 S
O84 C68 1.251 1_565 S
O84 Zn75 2.034 1_556 S
C85 O90 1.246 . S
C85 O91 1.249 . S
O86 C68 1.254 . S
O86 Zn83 2.027 . S
H87 C79 0.952 . S
H88 C70 0.952 . S
H89 C78 0.948 . S
O90 Zn75 2.034 1_545 S
O90 C85 1.246 . S
O91 Zn83 2.024 1_554 S
O91 C85 1.249 . S
H92 C74 0.948 . S
O93 Zn83 2.038 1_554 S
O93 C97 1.251 1_545 S
O94 Zn75 2.030 . S
O94 C97 1.254 . S
O95 C76 1.246 . S
O95 Zn83 2.034 1_565 S
O96 Zn75 2.024 1_556 S
O96 C76 1.249 . S
C97 O93 1.251 1_565 S
C97 O94 1.254 . S
H98 C71 0.949 . S
H99 C73 0.950 . S
H100 C80 0.949 . S
H101 C82 0.950 . S
C102 O118 1.251 . S
C102 O120 1.254 . S
N103 C104 1.333 . S
N103 C108 1.307 . S
N103 Zn109 2.020 . S
C104 N103 1.333 . S
C104 C105 1.379 . S
C104 H122 0.952 . S
C105 C104 1.379 . S
C105 C106 1.390 . S
C105 H132 0.949 . S
C106 C105 1.390 . S
C106 C107 1.357 . S
C107 C106 1.357 . S
C107 C108 1.370 . S
C107 H133 0.950 . S
C108 N103 1.307 . S
C108 C107 1.370 . S
C108 H126 0.948 . S
Zn109 N103 2.020 . S
Zn109 O118 2.039 . S
Zn109 O124 2.034 . S
Zn109 O128 2.025 . S
Zn109 O130 2.024 . S
C110 O129 1.246 . S
C110 O130 1.249 . S
N111 C112 1.307 . S
N111 C113 1.333 . S
N111 Zn117 2.020 . S
C112 N111 1.307 . S
C112 C116 1.370 . S
C112 H123 0.948 . S
C113 N111 1.333 . S
C113 C114 1.379 . S
C113 H121 0.952 . S
C114 C113 1.379 . S
C114 C115 1.390 . S
C114 H134 0.949 . S
C115 C114 1.390 . S
C115 C116 1.357 . S
C116 C112 1.370 . S
C116 C115 1.357 . S
C116 H135 0.950 . S
Zn117 N111 2.020 . S
Zn117 O120 2.025 . S
Zn117 O125 2.024 . S
Zn117 O127 2.039 . S
Zn117 O129 2.034 . S
O118 C102 1.251 . S
O118 Zn109 2.039 . S
C119 O124 1.246 . S
C119 O125 1.249 . S
O120 C102 1.254 . S
O120 Zn117 2.025 . S
H121 C113 0.952 . S
H122 C104 0.952 . S
H123 C112 0.948 . S
O124 Zn109 2.034 . S
O124 C119 1.246 . S
O125 Zn117 2.024 . S
O125 C119 1.249 . S
H126 C108 0.948 . S
O127 Zn117 2.039 . S
O127 C131 1.251 . S
O128 Zn109 2.025 . S
O128 C131 1.254 . S
O129 C110 1.246 . S
O129 Zn117 2.034 . S
O130 Zn109 2.024 . S
O130 C110 1.249 . S
C131 O127 1.251 . S
C131 O128 1.254 . S
H132 C105 0.949 . S
H133 C107 0.950 . S
H134 C114 0.949 . S
H135 C116 0.950 . S
C136 O152 1.251 . S
C136 O154 1.254 . S
N137 C138 1.333 . S
N137 C142 1.307 . S
N137 Zn143 2.020 . S
C138 N137 1.333 . S
C138 C139 1.379 . S
C138 H156 0.952 . S
C139 C138 1.379 . S
C139 C140 1.390 . S
C139 H166 0.949 . S
C140 C139 1.390 . S
C140 C141 1.357 . S
C141 C140 1.357 . S
C141 C142 1.370 . S
C141 H167 0.950 . S
C142 N137 1.307 . S
C142 C141 1.370 . S
C142 H160 0.948 . S
Zn143 N137 2.020 . S
Zn143 O152 2.039 . S
Zn143 O158 2.034 . S
Zn143 O162 2.025 . S
Zn143 O164 2.024 . S
C144 O163 1.246 . S
C144 O164 1.249 . S
N145 C146 1.307 . S
N145 C147 1.333 . S
N145 Zn151 2.020 . S
C146 N145 1.307 . S
C146 C150 1.370 . S
C146 H157 0.948 . S
C147 N145 1.333 . S
C147 C148 1.379 . S
C147 H155 0.952 . S
C148 C147 1.379 . S
C148 C149 1.390 . S
C148 H168 0.949 . S
C149 C148 1.390 . S
C149 C150 1.357 . S
C150 C146 1.370 . S
C150 C149 1.357 . S
C150 H169 0.950 . S
Zn151 N145 2.020 . S
Zn151 O154 2.025 . S
Zn151 O159 2.024 . S
Zn151 O161 2.039 . S
Zn151 O163 2.034 . S
O152 C136 1.251 . S
O152 Zn143 2.039 . S
C153 O158 1.246 . S
C153 O159 1.249 . S
O154 C136 1.254 . S
O154 Zn151 2.025 . S
H155 C147 0.952 . S
H156 C138 0.952 . S
H157 C146 0.948 . S
O158 Zn143 2.034 . S
O158 C153 1.246 . S
O159 Zn151 2.024 . S
O159 C153 1.249 . S
H160 C142 0.948 . S
O161 Zn151 2.039 . S
O161 C165 1.251 . S
O162 Zn143 2.025 . S
O162 C165 1.254 . S
O163 C144 1.246 . S
O163 Zn151 2.034 . S
O164 Zn143 2.024 . S
O164 C144 1.249 . S
C165 O161 1.251 . S
C165 O162 1.254 . S
H166 C139 0.949 . S
H167 C141 0.950 . S
H168 C148 0.949 . S
H169 C150 0.950 . S
C170 O186 1.251 . S
C170 O188 1.254 . S
N171 C172 1.333 . S
N171 C176 1.307 . S
N171 Zn177 2.020 . S
C172 N171 1.333 . S
C172 C173 1.379 . S
C172 H190 0.952 . S
C173 C172 1.379 . S
C173 C174 1.390 . S
C173 H200 0.949 . S
C174 C173 1.390 . S
C174 C175 1.357 . S
C175 C174 1.357 . S
C175 C176 1.370 . S
C175 H201 0.950 . S
C176 N171 1.307 . S
C176 C175 1.370 . S
C176 H194 0.948 . S
Zn177 N171 2.020 . S
Zn177 O186 2.039 . S
Zn177 O192 2.034 . S
Zn177 O196 2.025 . S
Zn177 O198 2.024 . S
C178 O197 1.246 . S
C178 O198 1.249 . S
N179 C180 1.307 . S
N179 C181 1.333 . S
N179 Zn185 2.020 . S
C180 N179 1.307 . S
C180 C184 1.370 . S
C180 H191 0.948 . S
C181 N179 1.333 . S
C181 C182 1.379 . S
C181 H189 0.952 . S
C182 C181 1.379 . S
C182 C183 1.390 . S
C182 H202 0.949 . S
C183 C182 1.390 . S
C183 C184 1.357 . S
C184 C180 1.370 . S
C184 C183 1.357 . S
C184 H203 0.950 . S
Zn185 N179 2.020 . S
Zn185 O188 2.025 . S
Zn185 O193 2.024 . S
Zn185 O195 2.039 . S
Zn185 O197 2.034 . S
O186 C170 1.251 . S
O186 Zn177 2.039 . S
C187 O192 1.246 . S
C187 O193 1.249 . S
O188 C170 1.254 . S
O188 Zn185 2.025 . S
H189 C181 0.952 . S
H190 C172 0.952 . S
H191 C180 0.948 . S
O192 Zn177 2.034 . S
O192 C187 1.246 . S
O193 Zn185 2.024 . S
O193 C187 1.249 . S
H194 C176 0.948 . S
O195 Zn185 2.039 . S
O195 C199 1.251 . S
O196 Zn177 2.025 . S
O196 C199 1.254 . S
O197 C178 1.246 . S
O197 Zn185 2.034 . S
O198 Zn177 2.024 . S
O198 C178 1.249 . S
C199 O195 1.251 . S
C199 O196 1.254 . S
H200 C173 0.949 . S
H201 C175 0.950 . S
H202 C182 0.949 . S
H203 C184 0.950 . S
C204 O220 1.251 . S
C204 O222 1.254 . S
N205 C206 1.333 . S
N205 C210 1.307 1_554 S
N205 Zn211 2.020 . S
C206 N205 1.333 . S
C206 C207 1.379 . S
C206 H224 0.952 . S
C207 C206 1.379 . S
C207 C208 1.390 . S
C207 H234 0.949 . S
C208 C207 1.390 . S
C208 C209 1.357 1_554 S
C209 C208 1.357 1_556 S
C209 C210 1.370 . S
C209 H235 0.950 . S
C210 N205 1.307 1_556 S
C210 C209 1.370 . S
C210 H228 0.948 . S
Zn211 N205 2.020 . S
Zn211 O220 2.039 . S
Zn211 O226 2.034 1_554 S
Zn211 O230 2.025 1_554 S
Zn211 O232 2.024 . S
C212 O231 1.246 . S
C212 O232 1.249 . S
N213 C214 1.307 1_556 S
N213 C215 1.333 . S
N213 Zn219 2.020 . S
C214 N213 1.307 1_554 S
C214 C218 1.370 . S
C214 H225 0.948 . S
C215 N213 1.333 . S
C215 C216 1.379 . S
C215 H223 0.952 . S
C216 C215 1.379 . S
C216 C217 1.390 . S
C216 H236 0.949 . S
C217 C216 1.390 . S
C217 C218 1.357 1_556 S
C218 C214 1.370 . S
C218 C217 1.357 1_554 S
C218 H237 0.950 . S
Zn219 N213 2.020 . S
Zn219 O222 2.025 1_556 S
Zn219 O227 2.024 . S
Zn219 O229 2.039 . S
Zn219 O231 2.034 1_556 S
O220 C204 1.251 . S
O220 Zn211 2.039 . S
C221 O226 1.246 . S
C221 O227 1.249 . S
O222 C204 1.254 . S
O222 Zn219 2.025 1_554 S
H223 C215 0.952 . S
H224 C206 0.952 . S
H225 C214 0.948 . S
O226 Zn211 2.034 1_556 S
O226 C221 1.246 . S
O227 Zn219 2.024 . S
O227 C221 1.249 . S
H228 C210 0.948 . S
O229 Zn219 2.039 . S
O229 C233 1.251 . S
O230 Zn211 2.025 1_556 S
O230 C233 1.254 . S
O231 C212 1.246 . S
O231 Zn219 2.034 1_554 S
O232 Zn211 2.024 . S
O232 C212 1.249 . S
C233 O229 1.251 . S
C233 O230 1.254 . S
H234 C207 0.949 . S
H235 C209 0.950 . S
H236 C216 0.949 . S
H237 C218 0.950 . S
C238 O254 1.251 1_455 S
C238 O256 1.254 . S
N239 C240 1.333 . S
N239 C244 1.307 . S
N239 Zn245 2.020 . S
C240 N239 1.333 . S
C240 C241 1.379 . S
C240 H258 0.952 . S
C241 C240 1.379 . S
C241 C242 1.390 . S
C241 H268 0.949 . S
C242 C241 1.390 . S
C242 C243 1.357 . S
C243 C242 1.357 . S
C243 C244 1.370 . S
C243 H269 0.950 . S
C244 N239 1.307 . S
C244 C243 1.370 . S
C244 H262 0.948 . S
Zn245 N239 2.020 . S
Zn245 O254 2.039 . S
Zn245 O260 2.034 . S
Zn245 O264 2.025 . S
Zn245 O266 2.024 1_655 S
C246 O265 1.246 . S
C246 O266 1.249 . S
N247 C248 1.307 . S
N247 C249 1.333 . S
N247 Zn253 2.020 . S
C248 N247 1.307 . S
C248 C252 1.370 . S
C248 H259 0.948 . S
C249 N247 1.333 . S
C249 C250 1.379 . S
C249 H257 0.952 . S
C250 C249 1.379 . S
C250 C251 1.390 . S
C250 H270 0.949 . S
C251 C250 1.390 . S
C251 C252 1.357 . S
C252 C248 1.370 . S
C252 C251 1.357 . S
C252 H271 0.950 . S
Zn253 N247 2.020 . S
Zn253 O256 2.025 . S
Zn253 O261 2.024 1_455 S
Zn253 O263 2.039 . S
Zn253 O265 2.034 . S
O254 C238 1.251 1_655 S
O254 Zn245 2.039 . S
C255 O260 1.246 . S
C255 O261 1.249 . S
O256 C238 1.254 . S
O256 Zn253 2.025 . S
H257 C249 0.952 . S
H258 C240 0.952 . S
H259 C248 0.948 . S
O260 Zn245 2.034 . S
O260 C255 1.246 . S
O261 Zn253 2.024 1_655 S
O261 C255 1.249 . S
H262 C244 0.948 . S
O263 Zn253 2.039 . S
O263 C267 1.251 1_455 S
O264 Zn245 2.025 . S
O264 C267 1.254 . S
O265 C246 1.246 . S
O265 Zn253 2.034 . S
O266 Zn245 2.024 1_455 S
O266 C246 1.249 . S
C267 O263 1.251 1_655 S
C267 O264 1.254 . S
H268 C241 0.949 . S
H269 C243 0.950 . S
H270 C250 0.949 . S
H271 C252 0.950 . S
C272 C273 1.349 . S
C272 C274 1.327 . S
C272 H297 0.950 . S
C273 C272 1.349 . S
C273 C289 1.349 . S
C274 C272 1.327 . S
C274 C293 1.429 . S
C274 H298 0.950 . S
C275 C292 1.574 . S
C275 C294 1.368 . S
C275 H299 0.949 . S
H276 C280 0.949 . S
C277 C278 1.349 . S
C277 C279 1.327 . S
C277 H300 0.950 . S
C278 C277 1.349 . S
C278 C290 1.349 . S
C279 C277 1.327 . S
C279 C295 1.429 . S
C279 H301 0.950 . S
C280 H276 0.949 . S
C280 C288 1.574 . S
C280 C296 1.368 . S
H281 C289 0.950 . S
H282 C287 0.950 . S
H283 C288 0.949 . S
H284 C290 0.950 . S
H285 C291 0.950 . S
H286 C292 0.949 . S
C287 H282 0.950 . S
C287 C289 1.327 . S
C287 C293 1.429 . S
C288 C280 1.574 . S
C288 H283 0.949 . S
C288 C294 1.368 . S
C289 C273 1.349 . S
C289 H281 0.950 . S
C289 C287 1.327 . S
C290 C278 1.349 . S
C290 H284 0.950 . S
C290 C291 1.327 . S
C291 H285 0.950 . S
C291 C290 1.327 . S
C291 C295 1.429 . S
C292 C275 1.574 . S
C292 H286 0.949 . S
C292 C296 1.368 . S
C293 C274 1.429 . S
C293 C287 1.429 . S
C293 C294 1.523 . S
C294 C275 1.368 . S
C294 C288 1.368 . S
C294 C293 1.523 . S
C295 C279 1.429 . S
C295 C291 1.429 . S
C295 C296 1.523 . S
C296 C280 1.368 . S
C296 C292 1.368 . S
C296 C295 1.523 . S
H297 C272 0.950 . S
H298 C274 0.950 . S
H299 C275 0.949 . S
H300 C277 0.950 . S
H301 C279 0.950 . S
C302 C303 1.349 . S
C302 C304 1.327 . S
C302 H327 0.950 . S
C303 C302 1.349 . S
C303 C319 1.349 . S
C304 C302 1.327 . S
C304 C323 1.429 . S
C304 H328 0.950 . S
C305 C322 1.574 . S
C305 C324 1.368 . S
C305 H329 0.949 . S
H306 C310 0.949 . S
C307 C308 1.349 . S
C307 C309 1.327 . S
C307 H330 0.950 . S
C308 C307 1.349 . S
C308 C320 1.349 . S
C309 C307 1.327 . S
C309 C325 1.429 . S
C309 H331 0.950 . S
C310 H306 0.949 . S
C310 C318 1.574 . S
C310 C326 1.368 . S
H311 C319 0.950 . S
H312 C317 0.950 . S
H313 C318 0.949 . S
H314 C320 0.950 . S
H315 C321 0.950 . S
H316 C322 0.949 . S
C317 H312 0.950 . S
C317 C319 1.327 . S
C317 C323 1.429 . S
C318 C310 1.574 . S
C318 H313 0.949 . S
C318 C324 1.368 . S
C319 C303 1.349 . S
C319 H311 0.950 . S
C319 C317 1.327 . S
C320 C308 1.349 . S
C320 H314 0.950 . S
C320 C321 1.327 . S
C321 H315 0.950 . S
C321 C320 1.327 . S
C321 C325 1.429 . S
C322 C305 1.574 . S
C322 H316 0.949 . S
C322 C326 1.368 . S
C323 C304 1.429 . S
C323 C317 1.429 . S
C323 C324 1.523 . S
C324 C305 1.368 . S
C324 C318 1.368 . S
C324 C323 1.523 . S
C325 C309 1.429 . S
C325 C321 1.429 . S
C325 C326 1.523 . S
C326 C310 1.368 . S
C326 C322 1.368 . S
C326 C325 1.523 . S
H327 C302 0.950 . S
H328 C304 0.950 . S
H329 C305 0.949 . S
H330 C307 0.950 . S
H331 C309 0.950 . S
C332 C333 1.349 . S
C332 C334 1.327 . S
C332 H357 0.950 . S
C333 C332 1.349 . S
C333 C349 1.349 . S
C334 C332 1.327 . S
C334 C353 1.429 . S
C334 H358 0.950 . S
C335 C352 1.574 . S
C335 C354 1.368 . S
C335 H359 0.949 . S
H336 C340 0.949 1_554 S
C337 C338 1.349 . S
C337 C339 1.327 . S
C337 H360 0.950 . S
C338 C337 1.349 . S
C338 C350 1.349 1_556 S
C339 C337 1.327 . S
C339 C355 1.429 . S
C339 H361 0.950 . S
C340 H336 0.949 1_556 S
C340 C348 1.574 . S
C340 C356 1.368 . S
H341 C349 0.950 . S
H342 C347 0.950 . S
H343 C348 0.949 . S
H344 C350 0.950 . S
H345 C351 0.950 . S
H346 C352 0.949 . S
C347 H342 0.950 . S
C347 C349 1.327 . S
C347 C353 1.429 . S
C348 C340 1.574 . S
C348 H343 0.949 . S
C348 C354 1.368 . S
C349 C333 1.349 . S
C349 H341 0.950 . S
C349 C347 1.327 . S
C350 C338 1.349 1_554 S
C350 H344 0.950 . S
C350 C351 1.327 . S
C351 H345 0.950 . S
C351 C350 1.327 . S
C351 C355 1.429 1_554 S
C352 C335 1.574 . S
C352 H346 0.949 . S
C352 C356 1.368 . S
C353 C334 1.429 . S
C353 C347 1.429 . S
C353 C354 1.523 . S
C354 C335 1.368 . S
C354 C348 1.368 . S
C354 C353 1.523 . S
C355 C339 1.429 . S
C355 C351 1.429 1_556 S
C355 C356 1.523 . S
C356 C340 1.368 . S
C356 C352 1.368 . S
C356 C355 1.523 . S
H357 C332 0.950 . S
H358 C334 0.950 . S
H359 C335 0.949 . S
H360 C337 0.950 . S
H361 C339 0.950 . S
C362 C363 1.349 . S
C362 C364 1.327 . S
C362 H387 0.950 . S
C363 C362 1.349 . S
C363 C379 1.349 1_554 S
C364 C362 1.327 . S
C364 C383 1.429 . S
C364 H388 0.950 . S
C365 C382 1.574 . S
C365 C384 1.368 . S
C365 H389 0.949 1_554 S
H366 C370 0.949 . S
C367 C368 1.349 . S
C367 C369 1.327 . S
C367 H390 0.950 . S
C368 C367 1.349 . S
C368 C380 1.349 . S
C369 C367 1.327 . S
C369 C385 1.429 . S
C369 H391 0.950 . S
C370 H366 0.949 . S
C370 C378 1.574 . S
C370 C386 1.368 . S
H371 C379 0.950 . S
H372 C377 0.946 1_556 S
H373 C378 0.949 . S
H374 C380 0.950 . S
H375 C381 0.950 . S
H376 C382 0.949 . S
C377 H372 0.946 1_554 S
C377 C379 1.326 1_554 S
C377 C383 1.434 . S
C378 C370 1.574 . S
C378 H373 0.949 . S
C378 C384 1.368 . S
C379 C363 1.349 1_556 S
C379 H371 0.950 . S
C379 C377 1.326 1_556 S
C380 C368 1.349 . S
C380 H374 0.950 . S
C380 C381 1.327 . S
C381 H375 0.950 . S
C381 C380 1.327 . S
C381 C385 1.429 . S
C382 C365 1.574 . S
C382 H376 0.949 . S
C382 C386 1.368 . S
C383 C364 1.429 . S
C383 C377 1.434 . S
C383 C384 1.523 . S
C384 C365 1.368 . S
C384 C378 1.368 . S
C384 C383 1.523 . S
C385 C369 1.429 . S
C385 C381 1.429 . S
C385 C386 1.523 . S
C386 C370 1.368 . S
C386 C382 1.368 . S
C386 C385 1.523 . S
H387 C362 0.950 . S
H388 C364 0.950 . S
H389 C365 0.949 1_556 S
H390 C367 0.950 . S
H391 C369 0.950 . S
C392 C393 1.349 . S
C392 C394 1.327 . S
C392 H417 0.950 . S
C393 C392 1.349 . S
C393 C409 1.349 . S
C394 C392 1.327 . S
C394 C413 1.429 . S
C394 H418 0.950 . S
C395 C412 1.574 . S
C395 C414 1.368 . S
C395 H419 0.949 . S
H396 C400 0.949 . S
C397 C398 1.349 . S
C397 C399 1.327 . S
C397 H420 0.950 . S
C398 C397 1.349 . S
C398 C410 1.349 . S
C399 C397 1.327 . S
C399 C415 1.429 . S
C399 H421 0.950 . S
C400 H396 0.949 . S
C400 C408 1.574 . S
C400 C416 1.368 . S
H401 C409 0.950 . S
H402 C407 0.950 . S
H403 C408 0.949 . S
H404 C410 0.950 . S
H405 C411 0.950 . S
H406 C412 0.949 . S
C407 H402 0.950 . S
C407 C409 1.327 . S
C407 C413 1.429 . S
C408 C400 1.574 . S
C408 H403 0.949 . S
C408 C414 1.368 . S
C409 C393 1.349 . S
C409 H401 0.950 . S
C409 C407 1.327 . S
C410 C398 1.349 . S
C410 H404 0.950 . S
C410 C411 1.327 . S
C411 H405 0.950 . S
C411 C410 1.327 . S
C411 C415 1.429 . S
C412 C395 1.574 . S
C412 H406 0.949 . S
C412 C416 1.368 . S
C413 C394 1.429 . S
C413 C407 1.429 . S
C413 C414 1.523 . S
C414 C395 1.368 . S
C414 C408 1.368 . S
C414 C413 1.523 . S
C415 C399 1.429 . S
C415 C411 1.429 . S
C415 C416 1.523 . S
C416 C400 1.368 . S
C416 C412 1.368 . S
C416 C415 1.523 . S
H417 C392 0.950 . S
H418 C394 0.950 . S
H419 C395 0.949 . S
H420 C397 0.950 . S
H421 C399 0.950 . S
C422 C423 1.349 . S
C422 C424 1.327 . S
C422 H447 0.950 . S
C423 C422 1.349 . S
C423 C439 1.349 . S
C424 C422 1.327 . S
C424 C443 1.429 . S
C424 H448 0.950 . S
C425 C442 1.574 . S
C425 C444 1.368 . S
C425 H449 0.949 . S
H426 C430 0.949 . S
C427 C428 1.349 . S
C427 C429 1.327 . S
C427 H450 0.950 . S
C428 C427 1.349 . S
C428 C440 1.349 . S
C429 C427 1.327 . S
C429 C445 1.429 . S
C429 H451 0.950 . S
C430 H426 0.949 . S
C430 C438 1.574 . S
C430 C446 1.368 . S
H431 C439 0.950 . S
H432 C437 0.950 . S
H433 C438 0.949 . S
H434 C440 0.950 . S
H435 C441 0.950 . S
H436 C442 0.949 . S
C437 H432 0.950 . S
C437 C439 1.327 . S
C437 C443 1.429 . S
C438 C430 1.574 . S
C438 H433 0.949 . S
C438 C444 1.368 . S
C439 C423 1.349 . S
C439 H431 0.950 . S
C439 C437 1.327 . S
C440 C428 1.349 . S
C440 H434 0.950 . S
C440 C441 1.327 . S
C441 H435 0.950 . S
C441 C440 1.327 . S
C441 C445 1.429 . S
C442 C425 1.574 . S
C442 H436 0.949 . S
C442 C446 1.368 . S
C443 C424 1.429 . S
C443 C437 1.429 . S
C443 C444 1.523 . S
C444 C425 1.368 . S
C444 C438 1.368 . S
C444 C443 1.523 . S
C445 C429 1.429 . S
C445 C441 1.429 . S
C445 C446 1.523 . S
C446 C430 1.368 . S
C446 C442 1.368 . S
C446 C445 1.523 . S
H447 C422 0.950 . S
H448 C424 0.950 . S
H449 C425 0.949 . S
H450 C427 0.950 . S
H451 C429 0.950 . S
C452 C453 1.349 . S
C452 C454 1.327 . S
C452 H477 0.950 . S
C453 C452 1.349 . S
C453 C469 1.349 . S
C454 C452 1.327 . S
C454 C473 1.429 . S
C454 H478 0.950 . S
C455 C472 1.574 . S
C455 C474 1.368 . S
C455 H479 0.949 . S
H456 C460 0.949 . S
C457 C458 1.349 . S
C457 C459 1.327 . S
C457 H480 0.950 . S
C458 C457 1.349 . S
C458 C470 1.349 1_554 S
C459 C457 1.327 . S
C459 C475 1.429 . S
C459 H481 0.950 . S
C460 H456 0.949 . S
C460 C468 1.574 . S
C460 C476 1.368 . S
H461 C469 0.950 . S
H462 C467 0.950 . S
H463 C468 0.949 . S
H464 C470 0.950 . S
H465 C471 0.943 1_556 S
H466 C472 0.949 . S
C467 H462 0.950 . S
C467 C469 1.327 . S
C467 C473 1.429 . S
C468 C460 1.574 . S
C468 H463 0.949 . S
C468 C474 1.368 . S
C469 C453 1.349 . S
C469 H461 0.950 . S
C469 C467 1.327 . S
C470 C458 1.349 1_556 S
C470 H464 0.950 . S
C470 C471 1.321 1_556 S
C471 H465 0.943 1_554 S
C471 C470 1.321 1_554 S
C471 C475 1.441 . S
C472 C455 1.574 . S
C472 H466 0.949 . S
C472 C476 1.368 . S
C473 C454 1.429 . S
C473 C467 1.429 . S
C473 C474 1.523 . S
C474 C455 1.368 . S
C474 C468 1.368 . S
C474 C473 1.523 . S
C475 C459 1.429 . S
C475 C471 1.441 . S
C475 C476 1.523 . S
C476 C460 1.368 . S
C476 C472 1.368 . S
C476 C475 1.523 . S
H477 C452 0.950 . S
H478 C454 0.950 . S
H479 C455 0.949 . S
H480 C457 0.950 . S
H481 C459 0.950 . S
C482 C483 1.349 . S
C482 C484 1.327 . S
C482 H507 0.950 . S
C483 C482 1.349 . S
C483 C499 1.349 . S
C484 C482 1.327 . S
C484 C503 1.429 . S
C484 H508 0.950 . S
C485 C502 1.574 . S
C485 C504 1.368 . S
C485 H509 0.949 . S
H486 C490 0.949 . S
C487 C488 1.349 . S
C487 C489 1.327 . S
C487 H510 0.950 . S
C488 C487 1.349 . S
C488 C500 1.349 1_556 S
C489 C487 1.327 . S
C489 C505 1.429 . S
C489 H511 0.950 . S
C490 H486 0.949 . S
C490 C498 1.574 . S
C490 C506 1.368 . S
H491 C499 0.950 . S
H492 C497 0.950 . S
H493 C498 0.949 . S
H494 C500 0.950 . S
H495 C501 0.950 1_554 S
H496 C502 0.949 . S
C497 H492 0.950 . S
C497 C499 1.327 . S
C497 C503 1.429 . S
C498 C490 1.574 . S
C498 H493 0.949 . S
C498 C504 1.368 . S
C499 C483 1.349 . S
C499 H491 0.950 . S
C499 C497 1.327 . S
C500 C488 1.349 1_554 S
C500 H494 0.950 . S
C500 C501 1.327 1_554 S
C501 H495 0.950 1_556 S
C501 C500 1.327 1_556 S
C501 C505 1.429 . S
C502 C485 1.574 . S
C502 H496 0.949 . S
C502 C506 1.368 . S
C503 C484 1.429 . S
C503 C497 1.429 . S
C503 C504 1.523 . S
C504 C485 1.368 . S
C504 C498 1.368 . S
C504 C503 1.523 . S
C505 C489 1.429 . S
C505 C501 1.429 . S
C505 C506 1.523 . S
C506 C490 1.368 . S
C506 C502 1.368 . S
C506 C505 1.523 . S
H507 C482 0.950 . S
H508 C484 0.950 . S
H509 C485 0.949 . S
H510 C487 0.950 . S
H511 C489 0.950 . S
C512 C513 1.349 . S
C512 C514 1.327 . S
C512 H537 0.950 1_556 S
C513 C512 1.349 . S
C513 C529 1.349 . S
C514 C512 1.327 . S
C514 C533 1.429 . S
C514 H538 0.950 . S
C515 C532 1.574 . S
C515 C534 1.368 . S
C515 H539 0.949 . S
H516 C520 0.949 . S
C517 C518 1.349 . S
C517 C519 1.327 . S
C517 H540 0.950 . S
C518 C517 1.349 . S
C518 C530 1.349 . S
C519 C517 1.327 . S
C519 C535 1.429 . S
C519 H541 0.950 . S
C520 H516 0.949 . S
C520 C528 1.574 . S
C520 C536 1.368 . S
H521 C529 0.950 . S
H522 C527 0.950 . S
H523 C528 0.949 . S
H524 C530 0.950 . S
H525 C531 0.950 . S
H526 C532 0.949 . S
C527 H522 0.950 . S
C527 C529 1.327 . S
C527 C533 1.429 . S
C528 C520 1.574 . S
C528 H523 0.949 . S
C528 C534 1.368 . S
C529 C513 1.349 . S
C529 H521 0.950 . S
C529 C527 1.327 . S
C530 C518 1.349 . S
C530 H524 0.950 . S
C530 C531 1.327 . S
C531 H525 0.950 . S
C531 C530 1.327 . S
C531 C535 1.429 . S
C532 C515 1.574 . S
C532 H526 0.949 . S
C532 C536 1.368 . S
C533 C514 1.429 . S
C533 C527 1.429 . S
C533 C534 1.523 . S
C534 C515 1.368 . S
C534 C528 1.368 . S
C534 C533 1.523 . S
C535 C519 1.429 . S
C535 C531 1.429 . S
C535 C536 1.523 . S
C536 C520 1.368 . S
C536 C532 1.368 . S
C536 C535 1.523 . S
H537 C512 0.950 1_554 S
H538 C514 0.950 . S
H539 C515 0.949 . S
H540 C517 0.950 . S
H541 C519 0.950 . S
C542 C543 1.349 . S
C542 C544 1.327 . S
C542 H567 0.950 . S
C543 C542 1.349 . S
C543 C559 1.349 . S
C544 C542 1.327 . S
C544 C563 1.429 . S
C544 H568 0.950 . S
C545 C562 1.574 . S
C545 C564 1.368 . S
C545 H569 0.949 . S
H546 C550 0.949 . S
C547 C548 1.349 . S
C547 C549 1.327 . S
C547 H570 0.950 1_554 S
C548 C547 1.349 . S
C548 C560 1.349 . S
C549 C547 1.327 . S
C549 C565 1.429 . S
C549 H571 0.950 . S
C550 H546 0.949 . S
C550 C558 1.574 . S
C550 C566 1.368 . S
H551 C559 0.950 . S
H552 C557 0.950 . S
H553 C558 0.949 . S
H554 C560 0.950 . S
H555 C561 0.950 . S
H556 C562 0.949 . S
C557 H552 0.950 . S
C557 C559 1.327 . S
C557 C563 1.429 . S
C558 C550 1.574 . S
C558 H553 0.949 . S
C558 C564 1.368 . S
C559 C543 1.349 . S
C559 H551 0.950 . S
C559 C557 1.327 . S
C560 C548 1.349 . S
C560 H554 0.950 . S
C560 C561 1.327 . S
C561 H555 0.950 . S
C561 C560 1.327 . S
C561 C565 1.429 . S
C562 C545 1.574 . S
C562 H556 0.949 . S
C562 C566 1.368 . S
C563 C544 1.429 . S
C563 C557 1.429 . S
C563 C564 1.523 . S
C564 C545 1.368 . S
C564 C558 1.368 . S
C564 C563 1.523 . S
C565 C549 1.429 . S
C565 C561 1.429 . S
C565 C566 1.523 . S
C566 C550 1.368 . S
C566 C562 1.368 . S
C566 C565 1.523 . S
H567 C542 0.950 . S
H568 C544 0.950 . S
H569 C545 0.949 . S
H570 C547 0.950 1_556 S
H571 C549 0.950 . S
C572 C573 1.349 . S
C572 C574 1.327 . S
C572 H597 0.950 . S
C573 C572 1.349 . S
C573 C589 1.349 . S
C574 C572 1.327 . S
C574 C593 1.429 . S
C574 H598 0.950 . S
C575 C592 1.574 . S
C575 C594 1.368 . S
C575 H599 0.949 . S
H576 C580 0.949 . S
C577 C578 1.349 . S
C577 C579 1.327 . S
C577 H600 0.950 . S
C578 C577 1.349 . S
C578 C590 1.349 . S
C579 C577 1.327 . S
C579 C595 1.429 . S
C579 H601 0.950 . S
C580 H576 0.949 . S
C580 C588 1.574 . S
C580 C596 1.368 . S
H581 C589 0.950 . S
H582 C587 0.950 . S
H583 C588 0.949 . S
H584 C590 0.950 . S
H585 C591 0.950 . S
H586 C592 0.949 . S
C587 H582 0.950 . S
C587 C589 1.327 . S
C587 C593 1.429 . S
C588 C580 1.574 . S
C588 H583 0.949 . S
C588 C594 1.368 . S
C589 C573 1.349 . S
C589 H581 0.950 . S
C589 C587 1.327 . S
C590 C578 1.349 . S
C590 H584 0.950 . S
C590 C591 1.327 . S
C591 H585 0.950 . S
C591 C590 1.327 . S
C591 C595 1.429 . S
C592 C575 1.574 . S
C592 H586 0.949 . S
C592 C596 1.368 . S
C593 C574 1.429 . S
C593 C587 1.429 . S
C593 C594 1.523 . S
C594 C575 1.368 . S
C594 C588 1.368 . S
C594 C593 1.523 . S
C595 C579 1.429 . S
C595 C591 1.429 . S
C595 C596 1.523 . S
C596 C580 1.368 . S
C596 C592 1.368 . S
C596 C595 1.523 . S
H597 C572 0.950 . S
H598 C574 0.950 . S
H599 C575 0.949 . S
H600 C577 0.950 . S
H601 C579 0.950 . S
C602 C603 1.349 . S
C602 C604 1.327 . S
C602 H627 0.950 . S
C603 C602 1.349 . S
C603 C619 1.349 . S
C604 C602 1.327 . S
C604 C623 1.429 . S
C604 H628 0.950 . S
C605 C622 1.574 . S
C605 C624 1.368 . S
C605 H629 0.949 . S
H606 C610 0.949 . S
C607 C608 1.349 . S
C607 C609 1.327 . S
C607 H630 0.950 . S
C608 C607 1.349 . S
C608 C620 1.349 . S
C609 C607 1.327 . S
C609 C625 1.429 . S
C609 H631 0.950 . S
C610 H606 0.949 . S
C610 C618 1.574 . S
C610 C626 1.368 . S
H611 C619 0.950 . S
H612 C617 0.950 . S
H613 C618 0.949 . S
H614 C620 0.950 . S
H615 C621 0.950 . S
H616 C622 0.949 . S
C617 H612 0.950 . S
C617 C619 1.327 . S
C617 C623 1.429 . S
C618 C610 1.574 . S
C618 H613 0.949 . S
C618 C624 1.368 . S
C619 C603 1.349 . S
C619 H611 0.950 . S
C619 C617 1.327 . S
C620 C608 1.349 . S
C620 H614 0.950 . S
C620 C621 1.327 . S
C621 H615 0.950 . S
C621 C620 1.327 . S
C621 C625 1.429 . S
C622 C605 1.574 . S
C622 H616 0.949 . S
C622 C626 1.368 . S
C623 C604 1.429 . S
C623 C617 1.429 . S
C623 C624 1.523 . S
C624 C605 1.368 . S
C624 C618 1.368 . S
C624 C623 1.523 . S
C625 C609 1.429 . S
C625 C621 1.429 . S
C625 C626 1.523 . S
C626 C610 1.368 . S
C626 C622 1.368 . S
C626 C625 1.523 . S
H627 C602 0.950 . S
H628 C604 0.950 . S
H629 C605 0.949 . S
H630 C607 0.950 . S
H631 C609 0.950 . S
C632 C633 1.349 . S
C632 C634 1.327 . S
C632 H657 0.950 . S
C633 C632 1.349 . S
C633 C649 1.349 . S
C634 C632 1.327 . S
C634 C653 1.429 . S
C634 H658 0.950 . S
C635 C652 1.574 . S
C635 C654 1.368 . S
C635 H659 0.949 . S
H636 C640 0.949 . S
C637 C638 1.349 . S
C637 C639 1.327 . S
C637 H660 0.950 1_554 S
C638 C637 1.349 . S
C638 C650 1.349 . S
C639 C637 1.327 . S
C639 C655 1.429 . S
C639 H661 0.950 . S
C640 H636 0.949 . S
C640 C648 1.574 . S
C640 C656 1.368 . S
H641 C649 0.950 . S
H642 C647 0.950 . S
H643 C648 0.949 . S
H644 C650 0.950 . S
H645 C651 0.950 . S
H646 C652 0.949 . S
C647 H642 0.950 . S
C647 C649 1.327 . S
C647 C653 1.429 . S
C648 C640 1.574 . S
C648 H643 0.949 . S
C648 C654 1.368 . S
C649 C633 1.349 . S
C649 H641 0.950 . S
C649 C647 1.327 . S
C650 C638 1.349 . S
C650 H644 0.950 . S
C650 C651 1.327 . S
C651 H645 0.950 . S
C651 C650 1.327 . S
C651 C655 1.429 . S
C652 C635 1.574 . S
C652 H646 0.949 . S
C652 C656 1.368 . S
C653 C634 1.429 . S
C653 C647 1.429 . S
C653 C654 1.523 . S
C654 C635 1.368 . S
C654 C648 1.368 . S
C654 C653 1.523 . S
C655 C639 1.429 . S
C655 C651 1.429 . S
C655 C656 1.523 . S
C656 C640 1.368 . S
C656 C652 1.368 . S
C656 C655 1.523 . S
H657 C632 0.950 . S
H658 C634 0.950 . S
H659 C635 0.949 . S
H660 C637 0.950 1_556 S
H661 C639 0.950 . S
C662 C663 1.349 . S
C662 C664 1.327 . S
C662 H687 0.950 1_556 S
C663 C662 1.349 . S
C663 C679 1.349 . S
C664 C662 1.327 . S
C664 C683 1.429 . S
C664 H688 0.950 . S
C665 C682 1.574 . S
C665 C684 1.368 . S
C665 H689 0.949 . S
H666 C670 0.949 . S
C667 C668 1.349 . S
C667 C669 1.327 . S
C667 H690 0.950 . S
C668 C667 1.349 . S
C668 C680 1.349 . S
C669 C667 1.327 . S
C669 C685 1.429 . S
C669 H691 0.950 . S
C670 H666 0.949 . S
C670 C678 1.574 . S
C670 C686 1.368 . S
H671 C679 0.950 . S
H672 C677 0.950 . S
H673 C678 0.949 . S
H674 C680 0.950 . S
H675 C681 0.950 . S
H676 C682 0.949 . S
C677 H672 0.950 . S
C677 C679 1.327 . S
C677 C683 1.429 . S
C678 C670 1.574 . S
C678 H673 0.949 . S
C678 C684 1.368 . S
C679 C663 1.349 . S
C679 H671 0.950 . S
C679 C677 1.327 . S
C680 C668 1.349 . S
C680 H674 0.950 . S
C680 C681 1.327 . S
C681 H675 0.950 . S
C681 C680 1.327 . S
C681 C685 1.429 . S
C682 C665 1.574 . S
C682 H676 0.949 . S
C682 C686 1.368 . S
C683 C664 1.429 . S
C683 C677 1.429 . S
C683 C684 1.523 . S
C684 C665 1.368 . S
C684 C678 1.368 . S
C684 C683 1.523 . S
C685 C669 1.429 . S
C685 C681 1.429 . S
C685 C686 1.523 . S
C686 C670 1.368 . S
C686 C682 1.368 . S
C686 C685 1.523 . S
H687 C662 0.950 1_554 S
H688 C664 0.950 . S
H689 C665 0.949 . S
H690 C667 0.950 . S
H691 C669 0.950 . S
C692 C693 1.349 . S
C692 C694 1.327 . S
C692 H717 0.950 . S
C693 C692 1.349 . S
C693 C709 1.349 . S
C694 C692 1.327 . S
C694 C713 1.429 . S
C694 H718 0.950 . S
C695 C712 1.574 . S
C695 C714 1.368 . S
C695 H719 0.949 . S
H696 C700 0.949 . S
C697 C698 1.349 . S
C697 C699 1.327 . S
C697 H720 0.950 . S
C698 C697 1.349 . S
C698 C710 1.349 . S
C699 C697 1.327 . S
C699 C715 1.429 . S
C699 H721 0.950 . S
C700 H696 0.949 . S
C700 C708 1.574 . S
C700 C716 1.368 . S
H701 C709 0.950 . S
H702 C707 0.950 . S
H703 C708 0.949 . S
H704 C710 0.950 . S
H705 C711 0.950 . S
H706 C712 0.949 . S
C707 H702 0.950 . S
C707 C709 1.327 . S
C707 C713 1.429 . S
C708 C700 1.574 . S
C708 H703 0.949 . S
C708 C714 1.368 . S
C709 C693 1.349 . S
C709 H701 0.950 . S
C709 C707 1.327 . S
C710 C698 1.349 . S
C710 H704 0.950 . S
C710 C711 1.327 . S
C711 H705 0.950 . S
C711 C710 1.327 . S
C711 C715 1.429 . S
C712 C695 1.574 . S
C712 H706 0.949 . S
C712 C716 1.368 . S
C713 C694 1.429 . S
C713 C707 1.429 . S
C713 C714 1.523 . S
C714 C695 1.368 . S
C714 C708 1.368 . S
C714 C713 1.523 . S
C715 C699 1.429 . S
C715 C711 1.429 . S
C715 C716 1.523 . S
C716 C700 1.368 . S
C716 C712 1.368 . S
C716 C715 1.523 . S
H717 C692 0.950 . S
H718 C694 0.950 . S
H719 C695 0.949 . S
H720 C697 0.950 . S
H721 C699 0.950 . S
C722 C723 1.349 . S
C722 C724 1.327 . S
C722 H747 0.950 . S
C723 C722 1.349 . S
C723 C739 1.349 . S
C724 C722 1.327 . S
C724 C743 1.429 . S
C724 H748 0.950 . S
C725 C742 1.574 . S
C725 C744 1.368 . S
C725 H749 0.949 . S
H726 C730 0.949 . S
C727 C728 1.349 . S
C727 C729 1.327 . S
C727 H750 0.950 . S
C728 C727 1.349 . S
C728 C740 1.349 . S
C729 C727 1.327 . S
C729 C745 1.429 . S
C729 H751 0.950 . S
C730 H726 0.949 . S
C730 C738 1.574 . S
C730 C746 1.368 . S
H731 C739 0.950 . S
H732 C737 0.950 . S
H733 C738 0.949 . S
H734 C740 0.950 . S
H735 C741 0.950 . S
H736 C742 0.949 . S
C737 H732 0.950 . S
C737 C739 1.327 . S
C737 C743 1.429 . S
C738 C730 1.574 . S
C738 H733 0.949 . S
C738 C744 1.368 . S
C739 C723 1.349 . S
C739 H731 0.950 . S
C739 C737 1.327 . S
C740 C728 1.349 . S
C740 H734 0.950 . S
C740 C741 1.327 . S
C741 H735 0.950 . S
C741 C740 1.327 . S
C741 C745 1.429 . S
C742 C725 1.574 . S
C742 H736 0.949 . S
C742 C746 1.368 . S
C743 C724 1.429 . S
C743 C737 1.429 . S
C743 C744 1.523 . S
C744 C725 1.368 . S
C744 C738 1.368 . S
C744 C743 1.523 . S
C745 C729 1.429 . S
C745 C741 1.429 . S
C745 C746 1.523 . S
C746 C730 1.368 . S
C746 C742 1.368 . S
C746 C745 1.523 . S
H747 C722 0.950 . S
H748 C724 0.950 . S
H749 C725 0.949 . S
H750 C727 0.950 . S
H751 C729 0.950 . S
C752 C753 1.349 . S
C752 C754 1.327 . S
C752 H777 0.950 . S
C753 C752 1.349 . S
C753 C769 1.349 1_645 S
C754 C752 1.327 . S
C754 C773 1.429 . S
C754 H778 0.950 . S
C755 C772 1.574 1_556 S
C755 C774 1.330 1_465 S
C755 H779 0.949 . S
H756 C760 0.949 . S
C757 C758 1.349 . S
C757 C759 1.327 . S
C757 H780 0.950 . S
C758 C757 1.349 . S
C758 C770 1.349 1_465 S
C759 C757 1.327 . S
C759 C775 1.467 . S
C759 H781 0.950 . S
C760 H756 0.949 . S
C760 C768 1.574 1_554 S
C760 C776 1.333 1_645 S
H761 C769 0.950 . S
H762 C767 0.950 . S
H763 C768 0.949 . S
H764 C770 0.950 . S
H765 C771 0.950 . S
H766 C772 0.949 . S
C767 H762 0.950 . S
C767 C769 1.327 . S
C767 C773 1.429 1_465 S
C768 C760 1.574 1_556 S
C768 H763 0.949 . S
C768 C774 1.406 . S
C769 C753 1.349 1_465 S
C769 H761 0.950 . S
C769 C767 1.327 . S
C770 C758 1.349 1_645 S
C770 H764 0.950 . S
C770 C771 1.327 . S
C771 H765 0.950 . S
C771 C770 1.327 . S
C771 C775 1.388 1_645 S
C772 C755 1.574 1_554 S
C772 H766 0.949 . S
C772 C776 1.402 . S
C773 C754 1.429 . S
C773 C767 1.429 1_645 S
C773 C774 1.524 . S
C774 C755 1.330 1_645 S
C774 C768 1.406 . S
C774 C773 1.524 . S
C775 C759 1.467 . S
C775 C771 1.388 1_465 S
C775 C776 1.531 . S
C776 C760 1.333 1_465 S
C776 C772 1.402 . S
C776 C775 1.531 . S
H777 C752 0.950 . S
H778 C754 0.950 . S
H779 C755 0.949 . S
H780 C757 0.950 . S
H781 C759 0.950 . S
C782 C783 1.349 . S
C782 C784 1.327 . S
C782 H807 0.950 . S
C783 C782 1.349 . S
C783 C799 1.349 . S
C784 C782 1.327 . S
C784 C803 1.429 . S
C784 H808 0.950 . S
C785 C802 1.574 . S
C785 C804 1.368 . S
C785 H809 0.949 . S
H786 C790 0.949 . S
C787 C788 1.349 . S
C787 C789 1.327 1_556 S
C787 H810 0.950 . S
C788 C787 1.349 . S
C788 C800 1.349 . S
C789 C787 1.327 1_554 S
C789 C805 1.429 . S
C789 H811 0.950 . S
C790 H786 0.949 . S
C790 C798 1.574 . S
C790 C806 1.368 . S
H791 C799 0.950 . S
H792 C797 0.950 . S
H793 C798 0.949 . S
H794 C800 0.950 . S
H795 C801 0.950 . S
H796 C802 0.949 . S
C797 H792 0.950 . S
C797 C799 1.327 . S
C797 C803 1.429 . S
C798 C790 1.574 . S
C798 H793 0.949 . S
C798 C804 1.368 . S
C799 C783 1.349 . S
C799 H791 0.950 . S
C799 C797 1.327 . S
C800 C788 1.349 . S
C800 H794 0.950 . S
C800 C801 1.327 1_556 S
C801 H795 0.950 . S
C801 C800 1.327 1_554 S
C801 C805 1.429 . S
C802 C785 1.574 . S
C802 H796 0.949 . S
C802 C806 1.368 . S
C803 C784 1.429 . S
C803 C797 1.429 . S
C803 C804 1.523 . S
C804 C785 1.368 . S
C804 C798 1.368 . S
C804 C803 1.523 . S
C805 C789 1.429 . S
C805 C801 1.429 . S
C805 C806 1.523 . S
C806 C790 1.368 . S
C806 C802 1.368 . S
C806 C805 1.523 . S
H807 C782 0.950 . S
H808 C784 0.950 . S
H809 C785 0.949 . S
H810 C787 0.950 . S
H811 C789 0.950 . S
C812 C813 1.349 . S
C812 C814 1.327 . S
C812 H837 0.950 . S
C813 C812 1.349 . S
C813 C829 1.349 1_545 S
C814 C812 1.327 . S
C814 C833 1.429 . S
C814 H838 0.950 . S
C815 C832 1.574 . S
C815 C834 1.368 1_565 S
C815 H839 0.949 . S
H816 C820 0.949 . S
C817 C818 1.349 . S
C817 C819 1.327 . S
C817 H840 0.950 . S
C818 C817 1.349 . S
C818 C830 1.349 1_565 S
C819 C817 1.327 . S
C819 C835 1.429 . S
C819 H841 0.950 . S
C820 H816 0.949 . S
C820 C828 1.574 . S
C820 C836 1.368 1_545 S
H821 C829 0.950 . S
H822 C827 0.950 . S
H823 C828 0.949 . S
H824 C830 0.950 . S
H825 C831 0.950 . S
H826 C832 0.949 . S
C827 H822 0.950 . S
C827 C829 1.327 . S
C827 C833 1.429 1_565 S
C828 C820 1.574 . S
C828 H823 0.949 . S
C828 C834 1.368 . S
C829 C813 1.349 1_565 S
C829 H821 0.950 . S
C829 C827 1.327 . S
C830 C818 1.349 1_545 S
C830 H824 0.950 . S
C830 C831 1.327 . S
C831 H825 0.950 . S
C831 C830 1.327 . S
C831 C835 1.429 1_545 S
C832 C815 1.574 . S
C832 H826 0.949 . S
C832 C836 1.368 . S
C833 C814 1.429 . S
C833 C827 1.429 1_545 S
C833 C834 1.523 . S
C834 C815 1.368 1_545 S
C834 C828 1.368 . S
C834 C833 1.523 . S
C835 C819 1.429 . S
C835 C831 1.429 1_565 S
C835 C836 1.523 . S
C836 C820 1.368 1_565 S
C836 C832 1.368 . S
C836 C835 1.523 . S
H837 C812 0.950 . S
H838 C814 0.950 . S
H839 C815 0.949 . S
H840 C817 0.950 . S
H841 C819 0.950 . S
C842 C843 1.349 . S
C842 C844 1.327 1_554 S
C842 H867 0.950 . S
C843 C842 1.349 . S
C843 C859 1.349 . S
C844 C842 1.327 1_556 S
C844 C863 1.429 . S
C844 H868 0.950 . S
C845 C862 1.574 . S
C845 C864 1.368 . S
C845 H869 0.949 . S
H846 C850 0.949 . S
C847 C848 1.349 . S
C847 C849 1.327 . S
C847 H870 0.950 . S
C848 C847 1.349 . S
C848 C860 1.349 . S
C849 C847 1.327 . S
C849 C865 1.429 . S
C849 H871 0.950 . S
C850 H846 0.949 . S
C850 C858 1.574 . S
C850 C866 1.368 . S
H851 C859 0.950 . S
H852 C857 0.950 . S
H853 C858 0.949 . S
H854 C860 0.950 . S
H855 C861 0.950 . S
H856 C862 0.949 . S
C857 H852 0.950 . S
C857 C859 1.327 1_556 S
C857 C863 1.429 . S
C858 C850 1.574 . S
C858 H853 0.949 . S
C858 C864 1.368 . S
C859 C843 1.349 . S
C859 H851 0.950 . S
C859 C857 1.327 1_554 S
C860 C848 1.349 . S
C860 H854 0.950 . S
C860 C861 1.327 . S
C861 H855 0.950 . S
C861 C860 1.327 . S
C861 C865 1.429 . S
C862 C845 1.574 . S
C862 H856 0.949 . S
C862 C866 1.368 . S
C863 C844 1.429 . S
C863 C857 1.429 . S
C863 C864 1.523 . S
C864 C845 1.368 . S
C864 C858 1.368 . S
C864 C863 1.523 . S
C865 C849 1.429 . S
C865 C861 1.429 . S
C865 C866 1.523 . S
C866 C850 1.368 . S
C866 C862 1.368 . S
C866 C865 1.523 . S
H867 C842 0.950 . S
H868 C844 0.950 . S
H869 C845 0.949 . S
H870 C847 0.950 . S
H871 C849 0.950 . S
C872 C873 1.349 . S
C872 C874 1.327 1_554 S
C872 H897 0.950 . S
C873 C872 1.349 . S
C873 C889 1.349 . S
C874 C872 1.327 1_556 S
C874 C893 1.429 . S
C874 H898 0.950 . S
C875 C892 1.574 . S
C875 C894 1.368 . S
C875 H899 0.949 . S
H876 C880 0.949 . S
C877 C878 1.349 . S
C877 C879 1.327 . S
C877 H900 0.950 . S
C878 C877 1.349 . S
C878 C890 1.349 . S
C879 C877 1.327 . S
C879 C895 1.429 . S
C879 H901 0.950 . S
C880 H876 0.949 . S
C880 C888 1.574 . S
C880 C896 1.368 . S
H881 C889 0.950 . S
H882 C887 0.950 . S
H883 C888 0.949 . S
H884 C890 0.950 . S
H885 C891 0.950 . S
H886 C892 0.949 . S
C887 H882 0.950 . S
C887 C889 1.327 1_556 S
C887 C893 1.429 . S
C888 C880 1.574 . S
C888 H883 0.949 . S
C888 C894 1.368 . S
C889 C873 1.349 . S
C889 H881 0.950 . S
C889 C887 1.327 1_554 S
C890 C878 1.349 . S
C890 H884 0.950 . S
C890 C891 1.327 . S
C891 H885 0.950 . S
C891 C890 1.327 . S
C891 C895 1.429 . S
C892 C875 1.574 . S
C892 H886 0.949 . S
C892 C896 1.368 . S
C893 C874 1.429 . S
C893 C887 1.429 . S
C893 C894 1.523 . S
C894 C875 1.368 . S
C894 C888 1.368 . S
C894 C893 1.523 . S
C895 C879 1.429 . S
C895 C891 1.429 . S
C895 C896 1.523 . S
C896 C880 1.368 . S
C896 C892 1.368 . S
C896 C895 1.523 . S
H897 C872 0.950 . S
H898 C874 0.950 . S
H899 C875 0.949 . S
H900 C877 0.950 . S
H901 C879 0.950 . S
C902 C903 1.349 . S
C902 C904 1.327 . S
C902 H927 0.950 . S
C903 C902 1.349 . S
C903 C919 1.349 . S
C904 C902 1.327 . S
C904 C923 1.429 . S
C904 H928 0.950 . S
C905 C922 1.574 . S
C905 C924 1.368 . S
C905 H929 0.949 . S
H906 C910 0.949 . S
C907 C908 1.349 . S
C907 C909 1.327 1_556 S
C907 H930 0.950 . S
C908 C907 1.349 . S
C908 C920 1.349 . S
C909 C907 1.327 1_554 S
C909 C925 1.429 . S
C909 H931 0.950 . S
C910 H906 0.949 . S
C910 C918 1.574 . S
C910 C926 1.368 . S
H911 C919 0.950 . S
H912 C917 0.950 . S
H913 C918 0.949 . S
H914 C920 0.950 . S
H915 C921 0.950 . S
H916 C922 0.949 . S
C917 H912 0.950 . S
C917 C919 1.327 . S
C917 C923 1.429 . S
C918 C910 1.574 . S
C918 H913 0.949 . S
C918 C924 1.368 . S
C919 C903 1.349 . S
C919 H911 0.950 . S
C919 C917 1.327 . S
C920 C908 1.349 . S
C920 H914 0.950 . S
C920 C921 1.327 1_556 S
C921 H915 0.950 . S
C921 C920 1.327 1_554 S
C921 C925 1.429 . S
C922 C905 1.574 . S
C922 H916 0.949 . S
C922 C926 1.368 . S
C923 C904 1.429 . S
C923 C917 1.429 . S
C923 C924 1.523 . S
C924 C905 1.368 . S
C924 C918 1.368 . S
C924 C923 1.523 . S
C925 C909 1.429 . S
C925 C921 1.429 . S
C925 C926 1.523 . S
C926 C910 1.368 . S
C926 C922 1.368 . S
C926 C925 1.523 . S
H927 C902 0.950 . S
H928 C904 0.950 . S
H929 C905 0.949 . S
H930 C907 0.950 . S
H931 C909 0.950 . S
C932 C933 1.349 . S
C932 C934 1.327 . S
C932 H957 0.950 . S
C933 C932 1.349 . S
C933 C949 1.349 . S
C934 C932 1.327 . S
C934 C953 1.429 . S
C934 H958 0.950 . S
C935 C952 1.574 . S
C935 C954 1.368 . S
C935 H959 0.949 . S
H936 C940 0.949 . S
C937 C938 1.349 . S
C937 C939 1.327 . S
C937 H960 0.950 . S
C938 C937 1.349 . S
C938 C950 1.349 . S
C939 C937 1.327 . S
C939 C955 1.429 . S
C939 H961 0.950 . S
C940 H936 0.949 . S
C940 C948 1.574 . S
C940 C956 1.368 . S
H941 C949 0.950 . S
H942 C947 0.950 . S
H943 C948 0.949 . S
H944 C950 0.950 . S
H945 C951 0.950 . S
H946 C952 0.949 . S
C947 H942 0.950 . S
C947 C949 1.327 . S
C947 C953 1.429 . S
C948 C940 1.574 . S
C948 H943 0.949 . S
C948 C954 1.368 . S
C949 C933 1.349 . S
C949 H941 0.950 . S
C949 C947 1.327 . S
C950 C938 1.349 . S
C950 H944 0.950 . S
C950 C951 1.327 . S
C951 H945 0.950 . S
C951 C950 1.327 . S
C951 C955 1.429 . S
C952 C935 1.574 . S
C952 H946 0.949 . S
C952 C956 1.368 . S
C953 C934 1.429 . S
C953 C947 1.429 . S
C953 C954 1.523 . S
C954 C935 1.368 . S
C954 C948 1.368 . S
C954 C953 1.523 . S
C955 C939 1.429 . S
C955 C951 1.429 . S
C955 C956 1.523 . S
C956 C940 1.368 . S
C956 C952 1.368 . S
C956 C955 1.523 . S
H957 C932 0.950 . S
H958 C934 0.950 . S
H959 C935 0.949 . S
H960 C937 0.950 . S
H961 C939 0.950 . S
C962 C963 1.349 1_455 S
C962 C964 1.327 . S
C962 H987 0.950 . S
C963 C962 1.349 1_655 S
C963 C979 1.349 . S
C964 C962 1.327 . S
C964 C983 1.429 1_455 S
C964 H988 0.950 . S
C965 C982 1.574 1_556 S
C965 C984 1.372 . S
C965 H989 0.949 . S
H966 C970 0.949 . S
C967 C968 1.349 1_655 S
C967 C969 1.327 . S
C967 H990 0.950 . S
C968 C967 1.349 1_455 S
C968 C980 1.349 . S
C969 C967 1.327 . S
C969 C985 1.429 1_655 S
C969 H991 0.950 . S
C970 H966 0.949 . S
C970 C978 1.574 1_554 S
C970 C986 1.374 . S
H971 C979 0.950 . S
H972 C977 0.950 . S
H973 C978 0.949 . S
H974 C980 0.950 . S
H975 C981 0.950 . S
H976 C982 0.949 . S
C977 H972 0.950 . S
C977 C979 1.327 . S
C977 C983 1.429 . S
C978 C970 1.574 1_556 S
C978 H973 0.949 . S
C978 C984 1.363 1_455 S
C979 C963 1.349 . S
C979 H971 0.950 . S
C979 C977 1.327 . S
C980 C968 1.349 . S
C980 H974 0.950 . S
C980 C981 1.327 . S
C981 H975 0.950 . S
C981 C980 1.327 . S
C981 C985 1.429 . S
C982 C965 1.574 1_554 S
C982 H976 0.949 . S
C982 C986 1.360 1_655 S
C983 C964 1.429 1_655 S
C983 C977 1.429 . S
C983 C984 1.526 . S
C984 C965 1.372 . S
C984 C978 1.363 1_655 S
C984 C983 1.526 . S
C985 C969 1.429 1_455 S
C985 C981 1.429 . S
C985 C986 1.527 . S
C986 C970 1.374 . S
C986 C982 1.360 1_455 S
C986 C985 1.527 . S
H987 C962 0.950 . S
H988 C964 0.950 . S
H989 C965 0.949 . S
H990 C967 0.950 . S
H991 C969 0.950 . S
C273 C17 3.216 . S
C278 C119 3.209 . S
C303 C4 1.521 . S
C308 C51 1.520 . S
C333 C38 0.241 . S
C338 C72 0.243 . S
C363 C85 1.520 . S
C368 C106 1.517 . S
C393 C8 3.216 . S
C398 C178 3.222 . S
C423 C13 1.521 . S
C428 C144 1.520 . S
C453 C149 0.241 . S
C458 C81 0.238 . S
C483 C183 1.521 . S
C488 C76 1.523 . S
C513 C221 3.216 . S
C518 C187 3.216 . S
C543 C153 1.520 . S
C548 C208 1.520 . S
C573 C242 0.241 . S
C578 C140 0.243 . S
C603 C174 1.521 . S
C608 C255 1.523 . S
C633 C110 3.216 . S
C638 C212 3.216 . S
C663 C217 1.521 . S
C668 C42 1.520 . S
C693 C47 0.241 . S
C698 C251 0.237 . S
C723 C115 1.521 . S
C728 C246 1.517 . S
C753 C0 1.033 . S
C758 C29 1.033 . S
C783 C63 1.063 . S
C788 C34 1.063 . S
C813 C68 1.063 . S
C818 C97 1.063 . S
C843 C102 1.033 . S
C848 C131 1.033 . S
C873 C165 1.063 . S
C878 C136 1.063 . S
C903 C170 1.033 . S
C908 C199 1.033 . S
C933 C233 1.033 . S
C938 C204 1.033 . S
C963 C267 1.063 . S
C968 C238 1.063 . S
