# Generated by pormake.
# Topology umv, (4)-cn, num edge types: 1
# Building blocks:
#     Node 0, Type 0, BuildingBlock: QUQFOY_clean_sbu_3, # of connection points: 4
#     Node 1, Type 0, BuildingBlock: QUQFOY_clean_sbu_3, # of connection points: 4
#     Node 2, Type 0, BuildingBlock: QUQFOY_clean_sbu_3, # of connection points: 4
#     Node 3, Type 0, BuildingBlock: QUQFOY_clean_sbu_3, # of connection points: 4
#     Node 4, Type 0, BuildingBlock: QUQFOY_clean_sbu_3, # of connection points: 4
#     Node 5, Type 0, BuildingBlock: QUQFOY_clean_sbu_3, # of connection points: 4
#     Node 6, Type 0, BuildingBlock: QUQFOY_clean_sbu_3, # of connection points: 4
#     Node 7, Type 0, BuildingBlock: QUQFOY_clean_sbu_3, # of connection points: 4
#     Node 8, Type 0, BuildingBlock: QUQFOY_clean_sbu_3, # of connection points: 4
#     Node 9, Type 0, BuildingBlock: QUQFOY_clean_sbu_3, # of connection points: 4
#     Node 10, Type 0, BuildingBlock: QUQFOY_clean_sbu_3, # of connection points: 4
#     Node 11, Type 0, BuildingBlock: QUQFOY_clean_sbu_3, # of connection points: 4
#     Node 12, Type 0, BuildingBlock: QUQFOY_clean_sbu_3, # of connection points: 4
#     Node 13, Type 0, BuildingBlock: QUQFOY_clean_sbu_3, # of connection points: 4
#     Node 14, Type 0, BuildingBlock: QUQFOY_clean_sbu_3, # of connection points: 4
#     Node 15, Type 0, BuildingBlock: QUQFOY_clean_sbu_3, # of connection points: 4
#     Node 16, Type 0, BuildingBlock: QUQFOY_clean_sbu_3, # of connection points: 4
#     Node 17, Type 0, BuildingBlock: QUQFOY_clean_sbu_3, # of connection points: 4
#     Node 18, Type 0, BuildingBlock: QUQFOY_clean_sbu_3, # of connection points: 4
#     Node 19, Type 0, BuildingBlock: QUQFOY_clean_sbu_3, # of connection points: 4
#     Node 20, Type 0, BuildingBlock: QUQFOY_clean_sbu_3, # of connection points: 4
#     Node 21, Type 0, BuildingBlock: QUQFOY_clean_sbu_3, # of connection points: 4
#     Node 22, Type 0, BuildingBlock: QUQFOY_clean_sbu_3, # of connection points: 4
#     Node 23, Type 0, BuildingBlock: QUQFOY_clean_sbu_3, # of connection points: 4
#     Node 24, Type 0, BuildingBlock: QUQFOY_clean_sbu_3, # of connection points: 4
#     Node 25, Type 0, BuildingBlock: QUQFOY_clean_sbu_3, # of connection points: 4
#     Node 26, Type 0, BuildingBlock: QUQFOY_clean_sbu_3, # of connection points: 4
#     Node 27, Type 0, BuildingBlock: QUQFOY_clean_sbu_3, # of connection points: 4
#     Node 28, Type 0, BuildingBlock: QUQFOY_clean_sbu_3, # of connection points: 4
#     Node 29, Type 0, BuildingBlock: QUQFOY_clean_sbu_3, # of connection points: 4
#     Node 30, Type 0, BuildingBlock: QUQFOY_clean_sbu_3, # of connection points: 4
#     Node 31, Type 0, BuildingBlock: QUQFOY_clean_sbu_3, # of connection points: 4
#     Edge 32, Type (0, 0), BuildingBlock: OJICUG_clean_linker_0, # of connection points: 2
#     Edge 33, Type (0, 0), BuildingBlock: OJICUG_clean_linker_0, # of connection points: 2
#     Edge 34, Type (0, 0), BuildingBlock: OJICUG_clean_linker_0, # of connection points: 2
#     Edge 35, Type (0, 0), BuildingBlock: OJICUG_clean_linker_0, # of connection points: 2
#     Edge 36, Type (0, 0), BuildingBlock: OJICUG_clean_linker_0, # of connection points: 2
#     Edge 37, Type (0, 0), BuildingBlock: OJICUG_clean_linker_0, # of connection points: 2
#     Edge 38, Type (0, 0), BuildingBlock: OJICUG_clean_linker_0, # of connection points: 2
#     Edge 39, Type (0, 0), BuildingBlock: OJICUG_clean_linker_0, # of connection points: 2
#     Edge 40, Type (0, 0), BuildingBlock: OJICUG_clean_linker_0, # of connection points: 2
#     Edge 41, Type (0, 0), BuildingBlock: OJICUG_clean_linker_0, # of connection points: 2
#     Edge 42, Type (0, 0), BuildingBlock: OJICUG_clean_linker_0, # of connection points: 2
#     Edge 43, Type (0, 0), BuildingBlock: OJICUG_clean_linker_0, # of connection points: 2
#     Edge 44, Type (0, 0), BuildingBlock: OJICUG_clean_linker_0, # of connection points: 2
#     Edge 45, Type (0, 0), BuildingBlock: OJICUG_clean_linker_0, # of connection points: 2
#     Edge 46, Type (0, 0), BuildingBlock: OJICUG_clean_linker_0, # of connection points: 2
#     Edge 47, Type (0, 0), BuildingBlock: OJICUG_clean_linker_0, # of connection points: 2
#     Edge 48, Type (0, 0), BuildingBlock: OJICUG_clean_linker_0, # of connection points: 2
#     Edge 49, Type (0, 0), BuildingBlock: OJICUG_clean_linker_0, # of connection points: 2
#     Edge 50, Type (0, 0), BuildingBlock: OJICUG_clean_linker_0, # of connection points: 2
#     Edge 51, Type (0, 0), BuildingBlock: OJICUG_clean_linker_0, # of connection points: 2
#     Edge 52, Type (0, 0), BuildingBlock: OJICUG_clean_linker_0, # of connection points: 2
#     Edge 53, Type (0, 0), BuildingBlock: OJICUG_clean_linker_0, # of connection points: 2
#     Edge 54, Type (0, 0), BuildingBlock: OJICUG_clean_linker_0, # of connection points: 2
#     Edge 55, Type (0, 0), BuildingBlock: OJICUG_clean_linker_0, # of connection points: 2
#     Edge 56, Type (0, 0), BuildingBlock: OJICUG_clean_linker_0, # of connection points: 2
#     Edge 57, Type (0, 0), BuildingBlock: OJICUG_clean_linker_0, # of connection points: 2
#     Edge 58, Type (0, 0), BuildingBlock: OJICUG_clean_linker_0, # of connection points: 2
#     Edge 59, Type (0, 0), BuildingBlock: OJICUG_clean_linker_0, # of connection points: 2
#     Edge 60, Type (0, 0), BuildingBlock: OJICUG_clean_linker_0, # of connection points: 2
#     Edge 61, Type (0, 0), BuildingBlock: OJICUG_clean_linker_0, # of connection points: 2
#     Edge 62, Type (0, 0), BuildingBlock: OJICUG_clean_linker_0, # of connection points: 2
#     Edge 63, Type (0, 0), BuildingBlock: OJICUG_clean_linker_0, # of connection points: 2
#     Edge 64, Type (0, 0), BuildingBlock: OJICUG_clean_linker_0, # of connection points: 2
#     Edge 65, Type (0, 0), BuildingBlock: OJICUG_clean_linker_0, # of connection points: 2
#     Edge 66, Type (0, 0), BuildingBlock: OJICUG_clean_linker_0, # of connection points: 2
#     Edge 67, Type (0, 0), BuildingBlock: OJICUG_clean_linker_0, # of connection points: 2
#     Edge 68, Type (0, 0), BuildingBlock: OJICUG_clean_linker_0, # of connection points: 2
#     Edge 69, Type (0, 0), BuildingBlock: OJICUG_clean_linker_0, # of connection points: 2
#     Edge 70, Type (0, 0), BuildingBlock: OJICUG_clean_linker_0, # of connection points: 2
#     Edge 71, Type (0, 0), BuildingBlock: OJICUG_clean_linker_0, # of connection points: 2
#     Edge 72, Type (0, 0), BuildingBlock: OJICUG_clean_linker_0, # of connection points: 2
#     Edge 73, Type (0, 0), BuildingBlock: OJICUG_clean_linker_0, # of connection points: 2
#     Edge 74, Type (0, 0), BuildingBlock: OJICUG_clean_linker_0, # of connection points: 2
#     Edge 75, Type (0, 0), BuildingBlock: OJICUG_clean_linker_0, # of connection points: 2
#     Edge 76, Type (0, 0), BuildingBlock: OJICUG_clean_linker_0, # of connection points: 2
#     Edge 77, Type (0, 0), BuildingBlock: OJICUG_clean_linker_0, # of connection points: 2
#     Edge 78, Type (0, 0), BuildingBlock: OJICUG_clean_linker_0, # of connection points: 2
#     Edge 79, Type (0, 0), BuildingBlock: OJICUG_clean_linker_0, # of connection points: 2
#     Edge 80, Type (0, 0), BuildingBlock: OJICUG_clean_linker_0, # of connection points: 2
#     Edge 81, Type (0, 0), BuildingBlock: OJICUG_clean_linker_0, # of connection points: 2
#     Edge 82, Type (0, 0), BuildingBlock: OJICUG_clean_linker_0, # of connection points: 2
#     Edge 83, Type (0, 0), BuildingBlock: OJICUG_clean_linker_0, # of connection points: 2
#     Edge 84, Type (0, 0), BuildingBlock: OJICUG_clean_linker_0, # of connection points: 2
#     Edge 85, Type (0, 0), BuildingBlock: OJICUG_clean_linker_0, # of connection points: 2
#     Edge 86, Type (0, 0), BuildingBlock: OJICUG_clean_linker_0, # of connection points: 2
#     Edge 87, Type (0, 0), BuildingBlock: OJICUG_clean_linker_0, # of connection points: 2
#     Edge 88, Type (0, 0), BuildingBlock: OJICUG_clean_linker_0, # of connection points: 2
#     Edge 89, Type (0, 0), BuildingBlock: OJICUG_clean_linker_0, # of connection points: 2
#     Edge 90, Type (0, 0), BuildingBlock: OJICUG_clean_linker_0, # of connection points: 2
#     Edge 91, Type (0, 0), BuildingBlock: OJICUG_clean_linker_0, # of connection points: 2
#     Edge 92, Type (0, 0), BuildingBlock: OJICUG_clean_linker_0, # of connection points: 2
#     Edge 93, Type (0, 0), BuildingBlock: OJICUG_clean_linker_0, # of connection points: 2
#     Edge 94, Type (0, 0), BuildingBlock: OJICUG_clean_linker_0, # of connection points: 2
#     Edge 95, Type (0, 0), BuildingBlock: OJICUG_clean_linker_0, # of connection points: 2
# Relax obj value: 0.120
# Max RMSD: 0.106
# Mean RMSD: 0.106
data_MOF--net-umv--node1-QUQFOY_clean_sbu_3--edge1-OJICUG_clean_linker_0
_symmetry_space_group_name_H-M    P1
_symmetry_Int_Tables_number       1
_symmetry_cell_setting            triclinic
loop_
_symmetry_equiv_pos_as_xyz
'x, y, z'
_cell_length_a     78.697927
_cell_length_b     19.406314
_cell_length_c     46.064699
_cell_angle_alpha  90.041374
_cell_angle_beta   89.941706
_cell_angle_gamma 89.93892
loop_
_atom_site_label
_atom_site_type_symbol
_atom_site_fract_x
_atom_site_fract_y
_atom_site_fract_z
_atom_type_partial_charge
C0 C 0.04411 0.07327 0.41638 0.0
O1 O 0.04902 0.12097 0.43321 0.0
Cd2 Cd 0.06616 0.20793 0.41156 0.0
O3 O 0.04459 0.08185 0.38892 0.0
Cd4 Cd 0.0505 0.16961 0.35102 0.0
C5 C 0.08842 0.10383 0.36151 0.0
O6 O 0.05133 0.27604 0.37727 0.0
O7 O 0.0686 0.26733 0.34072 0.0
O8 O 0.02089 0.18789 0.33918 0.0
C9 C 0.06163 0.30477 0.35989 0.0
O10 O 0.08683 0.1367 0.38535 0.0
C11 C 0.0229 0.18513 0.31187 0.0
O12 O 0.07669 0.10422 0.34242 0.0
O13 O 0.0376 0.16824 0.30266 0.0
C14 C 0.20069 0.15342 0.39582 0.0
O15 O 0.19602 0.11444 0.41647 0.0
Cd16 Cd 0.1896 -0.00361 0.41058 0.0
O17 O 0.20192 0.13067 0.36984 0.0
Cd18 Cd 0.19845 0.01885 0.34384 0.0
C19 C 0.15681 0.00963 0.36103 0.0
O20 O 0.21361 0.96608 0.3824 0.0
O21 O 0.20319 0.89438 0.35157 0.0
O22 O 0.22295 0.05284 0.31535 0.0
C23 C 0.2133 0.90574 0.37242 0.0
O24 O 0.16221 -0.00523 0.3863 0.0
C25 C 0.21888 0.01792 0.29312 0.0
O26 O 0.16721 0.02444 0.34077 0.0
O27 O 0.20412 -0.00847 0.29298 0.0
C28 C 0.05235 0.21704 0.8797 0.0
O29 O 0.05861 0.17679 0.86075 0.0
Cd30 Cd 0.06191 0.05631 0.8649 0.0
O31 O 0.04795 0.19485 0.90474 0.0
Cd32 Cd 0.04776 0.07911 0.92869 0.0
C33 C 0.08966 0.04457 0.92229 0.0
O34 O 0.03551 0.0294 0.88582 0.0
O35 O 0.04367 0.95619 0.91794 0.0
O36 O 0.0205 0.10215 0.95168 0.0
C37 C 0.03529 0.96834 0.89504 0.0
O38 O 0.08603 0.03165 0.89594 0.0
C39 C 0.02392 0.06954 0.97482 0.0
O40 O 0.07857 0.07005 0.93939 0.0
O41 O 0.03929 0.05144 0.97836 0.0
C42 C 0.20703 0.94721 0.89307 0.0
O43 O 0.2124 -0.00895 0.87499 0.0
Cd44 Cd 0.19643 0.08204 0.89877 0.0
O45 O 0.19866 0.96991 0.91459 0.0
Cd46 Cd 0.19377 0.10355 0.91246 0.0
C47 C 0.16137 0.04872 0.93148 0.0
O48 O 0.18916 0.14968 0.86067 0.0
O49 O 0.17045 0.17425 0.89309 0.0
O50 O 0.22308 0.1506 0.91291 0.0
C51 C 0.1758 0.18234 0.86739 0.0
O52 O 0.16805 0.02894 0.90786 0.0
C53 C 0.22007 0.19409 0.93287 0.0
O54 O 0.17005 0.08907 0.94723 0.0
O55 O 0.20557 0.19094 0.94491 0.0
C56 C 0.93994 0.05622 0.65912 0.0
O57 O 0.92802 0.05696 0.64068 0.0
Cd58 Cd 0.91399 0.95643 0.62469 0.0
O59 O 0.94453 2e-05 0.67115 0.0
Cd60 Cd 0.93343 0.87832 0.66608 0.0
C61 C 0.89281 0.89904 0.68432 0.0
O62 O 0.93537 0.8709 0.61355 0.0
O63 O 0.91931 0.79561 0.63376 0.0
O64 O 0.96196 0.82892 0.67135 0.0
C65 C 0.92881 0.81153 0.61262 0.0
O66 O 0.89185 0.92563 0.65917 0.0
C67 C 0.95781 0.78458 0.69025 0.0
O68 O 0.90704 0.87975 0.69443 0.0
O69 O 0.94263 0.78711 0.69946 0.0
C70 C 0.79216 0.64884 0.65574 0.0
O71 O 0.79641 0.68871 0.63513 0.0
Cd72 Cd 0.80226 0.80856 0.63442 0.0
O73 O 0.78818 0.67214 0.68082 0.0
Cd74 Cd 0.78411 0.78895 0.70278 0.0
C75 C 0.82656 0.81553 0.69838 0.0
O76 O 0.78139 0.86195 0.66108 0.0
O77 O 0.78831 0.90958 0.70165 0.0
O78 O 0.75399 0.79295 0.7121 0.0
C79 C 0.78649 0.91531 0.67449 0.0
O80 O 0.82393 0.82137 0.67118 0.0
C81 C 0.75562 0.81401 0.73811 0.0
O82 O 0.81472 0.7991 0.71619 0.0
O83 O 0.77039 0.80947 0.74933 0.0
C84 C 0.95524 0.6954 0.10437 0.0
O85 O 0.94535 0.71453 0.12455 0.0
Cd86 Cd 0.92578 0.8048 0.12331 0.0
O87 O 0.95624 0.72885 0.08056 0.0
Cd88 Cd 0.9455 0.8453 0.06504 0.0
C89 C 0.90582 0.79029 0.05578 0.0
O90 O 0.94348 0.89723 0.11259 0.0
O91 O 0.92915 0.94686 0.07868 0.0
O92 O 0.97453 0.8858 0.05799 0.0
C93 C 0.9345 0.94754 0.10458 0.0
O94 O 0.90612 0.7871 0.08338 0.0
C95 C 0.97192 0.91393 0.03357 0.0
O96 O 0.91893 0.80829 0.04139 0.0
O97 O 0.95729 0.90547 0.02248 0.0
C98 C 0.79921 0.97487 0.08455 0.0
O99 O 0.80207 0.92921 0.10364 0.0
Cd100 Cd 0.80477 0.80963 0.09538 0.0
O101 O 0.79706 0.95868 0.05789 0.0
Cd102 Cd 0.79528 0.8512 0.02817 0.0
C103 C 0.83568 0.8087 0.04021 0.0
O104 O 0.78183 0.78529 0.06522 0.0
O105 O 0.79493 0.72626 0.03279 0.0
O106 O 0.76796 0.88545 0.01017 0.0
C107 C 0.78532 0.72689 0.05484 0.0
O108 O 0.82989 0.79371 0.06528 0.0
C109 C 0.76955 0.85711 0.9855 0.0
O110 O 0.82643 0.83917 0.02135 0.0
O111 O 0.78439 0.83684 0.9785 0.0
C112 C 0.03991 0.49857 0.84628 0.0
O113 O 0.04294 0.54467 0.86516 0.0
Cd114 Cd 0.04294 0.66575 0.85947 0.0
O115 O 0.03569 0.51425 0.82027 0.0
Cd116 Cd 0.03047 0.62302 0.79245 0.0
C117 C 0.07129 0.67284 0.80142 0.0
O118 O 0.01827 0.68319 0.83255 0.0
O119 O 0.02557 0.74718 0.79692 0.0
O120 O 0.00385 0.59064 0.76982 0.0
C121 C 0.01894 0.74292 0.8219 0.0
O122 O 0.06698 0.68728 0.82742 0.0
C123 C 0.00772 0.61592 0.74524 0.0
O124 O 0.06095 0.64341 0.78408 0.0
O125 O 0.02316 0.6329 0.74149 0.0
C126 C 0.18975 0.67591 0.85766 0.0
O127 O 0.18055 0.64145 0.87499 0.0
Cd128 Cd 0.16115 0.55542 0.85954 0.0
O129 O 0.19032 0.66052 0.83072 0.0
Cd130 Cd 0.17968 0.5682 0.7974 0.0
C131 C 0.14112 0.63792 0.80165 0.0
O132 O 0.17646 0.47554 0.83137 0.0
O133 O 0.16447 0.45998 0.78951 0.0
O134 O 0.20883 0.53837 0.78758 0.0
C135 C 0.16819 0.43676 0.81437 0.0
O136 O 0.14176 0.61495 0.8275 0.0
C137 C 0.2075 0.53796 0.76016 0.0
O138 O 0.1535 0.63015 0.78406 0.0
O139 O 0.19336 0.55754 0.74957 0.0
C140 C 0.06542 0.80701 0.43457 0.0
O141 O 0.07427 0.80146 0.4117 0.0
Cd142 Cd 0.09322 0.71138 0.4013 0.0
O143 O 0.06598 0.76119 0.45436 0.0
Cd144 Cd 0.07951 0.64371 0.45607 0.0
C145 C 0.12015 0.69075 0.4599 0.0
O146 O 0.07575 0.61289 0.40535 0.0
O147 O 0.09345 0.55021 0.42949 0.0
O148 O 0.05255 0.58809 0.46405 0.0
C149 C 0.08406 0.55736 0.40735 0.0
O150 O 0.11745 0.70906 0.43379 0.0
C151 C 0.05593 0.56143 0.48841 0.0
O152 O 0.10818 0.666 0.4753 0.0
O153 O 0.07036 0.57569 0.49927 0.0
C154 C 0.21738 0.43588 0.42117 0.0
O155 O 0.21396 0.47939 0.40144 0.0
Cd156 Cd 0.21537 0.60105 0.40098 0.0
O157 O 0.22289 0.45481 0.44605 0.0
Cd158 Cd 0.22979 0.56792 0.46905 0.0
C159 C 0.18977 0.63211 0.46122 0.0
O160 O 0.24039 0.62289 0.4258 0.0
O161 O 0.23606 0.68886 0.46228 0.0
O162 O 0.25765 0.54171 0.48858 0.0
C163 C 0.2406 0.6833 0.43604 0.0
O164 O 0.19359 0.63871 0.43448 0.0
C165 C 0.25458 0.5689 0.51315 0.0
O166 O 0.19969 0.60149 0.47901 0.0
O167 O 0.23909 0.58205 0.51889 0.0
C168 C 0.95708 0.4213 0.1322 0.0
O169 O 0.94968 0.38399 0.11344 0.0
Cd170 Cd 0.93046 0.29477 0.12459 0.0
O171 O 0.95601 0.40749 0.15932 0.0
Cd172 Cd 0.94528 0.31707 0.19361 0.0
C173 C 0.9059 0.37498 0.17922 0.0
O174 O 0.94528 0.23043 0.15851 0.0
O175 O 0.93202 0.20242 0.19788 0.0
O176 O 0.97422 0.29623 0.20792 0.0
C177 C 0.93675 0.18655 0.17247 0.0
O178 O 0.90879 0.35138 0.15385 0.0
C179 C 0.97141 0.29359 0.23501 0.0
O180 O 0.91699 0.37152 0.19944 0.0
O181 O 0.95643 0.3085 0.24349 0.0
C182 C 0.79942 0.25923 0.12031 0.0
O183 O 0.80494 0.30207 0.1018 0.0
Cd184 Cd 0.80873 0.42062 0.10842 0.0
O185 O 0.79507 0.27855 0.14583 0.0
Cd186 Cd 0.79363 0.39353 0.17097 0.0
C187 C 0.83564 0.41804 0.16804 0.0
O188 O 0.78288 0.45338 0.12972 0.0
O189 O 0.796 0.51701 0.16034 0.0
O190 O 0.765 0.37604 0.18978 0.0
C191 C 0.78629 0.51314 0.13851 0.0
O192 O 0.83246 0.43381 0.14176 0.0
C193 C 0.76766 0.40786 0.21342 0.0
O194 O 0.82401 0.39399 0.18447 0.0
O195 O 0.78298 0.42346 0.2191 0.0
C196 C 0.96102 0.32626 0.63854 0.0
O197 O 0.95263 0.3757 0.64958 0.0
Cd198 Cd 0.9446 0.47828 0.62371 0.0
O199 O 0.96759 0.33242 0.61335 0.0
Cd200 Cd 0.96937 0.42248 0.57498 0.0
C201 C 0.92835 0.39047 0.56433 0.0
O202 O 0.96705 0.53304 0.59907 0.0
O203 O 0.95665 0.52659 0.55574 0.0
O204 O 0.00014 0.42879 0.57377 0.0
C205 C 0.96067 0.56373 0.5773 0.0
O206 O 0.9264 0.43141 0.58574 0.0
C207 C 0.00133 0.4226 0.5464 0.0
O208 O 0.94308 0.37009 0.55643 0.0
O209 O 0.98773 0.40863 0.53265 0.0
C210 C 0.81949 0.38303 0.63096 0.0
O211 O 0.83115 0.36177 0.64779 0.0
Cd212 Cd 0.84662 0.2572 0.64059 0.0
O213 O 0.81566 0.34977 0.60799 0.0
Cd214 Cd 0.82412 0.23976 0.58472 0.0
C215 C 0.86498 0.27836 0.57337 0.0
O216 O 0.82388 0.1825 0.63078 0.0
O217 O 0.8321 0.12047 0.59444 0.0
O218 O 0.79379 0.23095 0.57586 0.0
C219 C 0.82658 0.12344 0.62024 0.0
O220 O 0.86637 0.26792 0.6005 0.0
C221 C 0.79518 0.19701 0.55246 0.0
O222 O 0.8505 0.27911 0.56107 0.0
O223 O 0.81006 0.19017 0.54212 0.0
C224 C 0.55104 0.013 0.86274 0.0
O225 O 0.5586 0.0539 0.87994 0.0
Cd226 Cd 0.56119 0.17476 0.87515 0.0
O227 O 0.5446 0.03441 0.8389 0.0
Cd228 Cd 0.5423 0.14949 0.81519 0.0
C229 C 0.58397 0.18778 0.81172 0.0
O230 O 0.53327 0.19981 0.86026 0.0
O231 O 0.5386 0.27201 0.82612 0.0
O232 O 0.51389 0.12664 0.79607 0.0
C233 C 0.5322 0.26054 0.85086 0.0
O234 O 0.58249 0.20176 0.83861 0.0
C235 C 0.51656 0.1586 0.77246 0.0
O236 O 0.5718 0.1601 0.79779 0.0
O237 O 0.53175 0.1767 0.76729 0.0
C238 C 0.7016 0.28569 0.81504 0.0
O239 O 0.70721 0.2419 0.83295 0.0
Cd240 Cd 0.69014 0.15216 0.81085 0.0
O241 O 0.6927 0.26305 0.79415 0.0
Cd242 Cd 0.68657 0.13006 0.79705 0.0
C243 C 0.65373 0.18951 0.78366 0.0
O244 O 0.68332 0.08466 0.84924 0.0
O245 O 0.66339 0.06301 0.81867 0.0
O246 O 0.71438 0.07124 0.7954 0.0
C247 C 0.66951 0.05393 0.84379 0.0
O248 O 0.66199 0.20928 0.80572 0.0
C249 C 0.71056 0.03187 0.77438 0.0
O250 O 0.66108 0.14748 0.76667 0.0
O251 O 0.69643 0.04324 0.76192 0.0
C252 C 0.5486 0.2993 0.40975 0.0
O253 O 0.55783 0.30446 0.38732 0.0
Cd254 Cd 0.57832 0.22426 0.37227 0.0
O255 O 0.54938 0.24629 0.42599 0.0
Cd256 Cd 0.56467 0.13356 0.41874 0.0
C257 C 0.60329 0.19168 0.43253 0.0
O258 O 0.563 0.12015 0.36639 0.0
O259 O 0.58337 0.0657 0.38731 0.0
O260 O 0.53816 0.06922 0.4219 0.0
C261 C 0.57302 0.06919 0.36631 0.0
O262 O 0.60142 0.21695 0.40723 0.0
C263 C 0.54311 0.0258 0.44058 0.0
O264 O 0.59118 0.1591 0.44464 0.0
O265 O 0.55786 0.03509 0.45106 0.0
C266 C 0.70145 0.95573 0.4032 0.0
O267 O 0.69905 -0.00013 0.38327 0.0
Cd268 Cd 0.70102 0.12149 0.38575 0.0
O269 O 0.70595 0.9738 0.42875 0.0
Cd270 Cd 0.71278 0.08299 0.4545 0.0
C271 C 0.67312 0.14608 0.44379 0.0
O272 O 0.72541 0.13768 0.41331 0.0
O273 O 0.72039 0.20361 0.44956 0.0
O274 O 0.73921 0.04113 0.4742 0.0
C275 C 0.72598 0.19763 0.42392 0.0
O276 O 0.67796 0.15502 0.41765 0.0
C277 C 0.73719 0.06983 0.49875 0.0
O278 O 0.68244 0.11461 0.46225 0.0
O279 O 0.72246 0.09348 0.5044 0.0
C280 C 0.45374 0.9107 0.10993 0.0
O281 O 0.44669 0.8697 0.09221 0.0
Cd282 Cd 0.42603 0.7911 0.11062 0.0
O283 O 0.45159 0.90326 0.1372 0.0
Cd284 Cd 0.43925 0.82526 0.17403 0.0
C285 C 0.4027 0.89931 0.15693 0.0
O286 O 0.43792 0.7202 0.14728 0.0
O287 O 0.42062 0.72903 0.18404 0.0
O288 O 0.46766 0.79749 0.18847 0.0
C289 C 0.42742 0.69222 0.16452 0.0
O290 O 0.40501 0.86606 0.13338 0.0
C291 C 0.46514 0.80162 0.21558 0.0
O292 O 0.4135 0.89679 0.17755 0.0
O293 O 0.45067 0.82391 0.22382 0.0
C294 C 0.29719 0.80916 0.10822 0.0
O295 O 0.30077 0.85319 0.08877 0.0
Cd296 Cd 0.30264 0.97363 0.09556 0.0
O297 O 0.2939 0.82765 0.13431 0.0
Cd298 Cd 0.29164 0.93842 0.16186 0.0
C299 C 0.3333 0.97156 0.14947 0.0
O300 O 0.27757 -0.00736 0.12247 0.0
O301 O 0.28604 0.06222 0.15555 0.0
O302 O 0.26617 0.90218 0.18767 0.0
C303 C 0.27742 0.0528 0.13269 0.0
O304 O 0.32863 -0.01315 0.12379 0.0
C305 C 0.27023 0.93222 0.21117 0.0
O306 O 0.32261 0.94882 0.16792 0.0
O307 O 0.28522 0.95605 0.21282 0.0
C308 C 0.46242 0.69734 0.58303 0.0
O309 O 0.46052 0.74027 0.6036 0.0
Cd310 Cd 0.46148 0.86223 0.60369 0.0
O311 O 0.46639 0.71694 0.5574 0.0
Cd312 Cd 0.4725 0.82947 0.53334 0.0
C313 C 0.43236 0.88591 0.54762 0.0
O314 O 0.48431 0.8902 0.57424 0.0
O315 O 0.47732 0.9514 0.53744 0.0
O316 O 0.49985 0.80365 0.51184 0.0
C317 C 0.48297 0.9496 0.56312 0.0
O318 O 0.43758 0.89362 0.5736 0.0
C319 C 0.49616 0.83024 0.48742 0.0
O320 O 0.44162 0.85748 0.52812 0.0
O321 O 0.48052 0.84275 0.4827 0.0
C322 C 0.30805 0.0457 0.58178 0.0
O323 O 0.31734 0.05267 0.60401 0.0
Cd324 Cd 0.33677 0.96972 0.621 0.0
O325 O 0.3083 -0.00976 0.56693 0.0
Cd326 Cd 0.32329 0.87721 0.57578 0.0
C327 C 0.36239 0.93099 0.56228 0.0
O328 O 0.32027 0.86818 0.62804 0.0
O329 O 0.3406 0.80911 0.6094 0.0
O330 O 0.29659 0.81532 0.57171 0.0
C331 C 0.3294 0.81458 0.62905 0.0
O332 O 0.36046 0.95797 0.58726 0.0
C333 C 0.30186 0.76862 0.55472 0.0
O334 O 0.35017 0.89891 0.55027 0.0
O335 O 0.31688 0.77543 0.54503 0.0
C336 C 0.53254 0.56703 0.39843 0.0
O337 O 0.53872 0.61261 0.41506 0.0
Cd338 Cd 0.55658 0.69624 0.39245 0.0
O339 O 0.53311 0.57521 0.37099 0.0
Cd340 Cd 0.54112 0.66192 0.33399 0.0
C341 C 0.57884 0.59364 0.34271 0.0
O342 O 0.54266 0.77092 0.35898 0.0
O343 O 0.56014 0.75567 0.32302 0.0
O344 O 0.51205 0.68783 0.32146 0.0
C345 C 0.55302 0.79642 0.34076 0.0
O346 O 0.57758 0.62595 0.36672 0.0
C347 C 0.51415 0.68303 0.29423 0.0
O348 O 0.56684 0.59459 0.32416 0.0
O349 O 0.52853 0.66122 0.28542 0.0
C350 C 0.68856 0.67062 0.37655 0.0
O351 O 0.68412 0.63082 0.39706 0.0
Cd352 Cd 0.67976 0.51113 0.39259 0.0
O353 O 0.69084 0.64777 0.35079 0.0
Cd354 Cd 0.68966 0.53338 0.3262 0.0
C355 C 0.64794 0.5139 0.34103 0.0
O356 O 0.70445 0.48337 0.36606 0.0
O357 O 0.69424 0.41028 0.33562 0.0
O358 O 0.71522 0.5651 0.30012 0.0
C359 C 0.70423 0.4226 0.35654 0.0
O360 O 0.65316 0.50042 0.36655 0.0
C361 C 0.71211 0.5276 0.27818 0.0
O362 O 0.65838 0.53212 0.32129 0.0
O363 O 0.69724 0.50253 0.27637 0.0
C364 C 0.54213 0.7319 0.89945 0.0
O365 O 0.54495 0.68534 0.88067 0.0
Cd366 Cd 0.54575 0.5648 0.88757 0.0
O367 O 0.53863 0.71693 0.92585 0.0
Cd368 Cd 0.53449 0.60885 0.95464 0.0
C369 C 0.57535 0.56239 0.94401 0.0
O370 O 0.52159 0.54778 0.91575 0.0
O371 O 0.5307 0.48401 0.95028 0.0
O372 O 0.50743 0.64116 0.97569 0.0
C373 C 0.52282 0.4882 0.92639 0.0
O374 O 0.57041 0.54644 0.91852 0.0
C375 C 0.5106 0.61467 0.00031 0.0
O376 O 0.56538 0.59243 0.9619 0.0
O377 O 0.52597 0.59799 0.00522 0.0
C378 C 0.6848 0.55521 0.85348 0.0
O379 O 0.67301 0.58392 0.83914 0.0
Cd380 Cd 0.6543 0.66824 0.85857 0.0
O381 O 0.68843 0.57585 0.87905 0.0
Cd382 Cd 0.68027 0.67377 0.91171 0.0
C383 C 0.64327 0.59795 0.92565 0.0
O384 O 0.67097 0.75877 0.87679 0.0
O385 O 0.6641 0.77753 0.92174 0.0
O386 O 0.70992 0.70909 0.90932 0.0
C387 C 0.66437 0.79815 0.8957 0.0
O388 O 0.64023 0.61512 0.89951 0.0
C389 C 0.71131 0.72149 0.93623 0.0
O390 O 0.65759 0.61034 0.93749 0.0
O391 O 0.69873 0.70557 0.95227 0.0
C392 C 0.44109 0.41949 0.60732 0.0
O393 O 0.43507 0.38328 0.58679 0.0
Cd394 Cd 0.42848 0.26455 0.59088 0.0
O395 O 0.44322 0.3941 0.63266 0.0
Cd396 Cd 0.43955 0.28028 0.65671 0.0
C397 C 0.39756 0.26764 0.64398 0.0
O398 O 0.45338 0.23033 0.61562 0.0
O399 O 0.44408 0.15729 0.64707 0.0
O400 O 0.46487 0.31044 0.68346 0.0
C401 C 0.45352 0.16978 0.62543 0.0
O402 O 0.40212 0.25514 0.618 0.0
C403 C 0.46158 0.27219 0.70507 0.0
O404 O 0.40851 0.28385 0.66313 0.0
O405 O 0.44678 0.24636 0.70624 0.0
C406 C 0.28601 0.31146 0.58957 0.0
O407 O 0.29108 0.35893 0.57277 0.0
Cd408 Cd 0.30721 0.4481 0.59602 0.0
O409 O 0.28589 0.3213 0.61692 0.0
Cd410 Cd 0.29075 0.41172 0.65374 0.0
C411 C 0.32875 0.34623 0.6468 0.0
O412 O 0.29329 0.52261 0.6298 0.0
O413 O 0.30914 0.50434 0.66766 0.0
O414 O 0.26097 0.43263 0.66205 0.0
C415 C 0.30327 0.54627 0.64913 0.0
O416 O 0.32776 0.37929 0.62297 0.0
C417 C 0.26169 0.42742 0.68948 0.0
O418 O 0.31645 0.34553 0.66484 0.0
O419 O 0.27581 0.40831 0.70037 0.0
C420 C 0.4516 0.18453 0.0957 0.0
O421 O 0.4437 0.19197 0.11944 0.0
Cd422 Cd 0.42163 0.27177 0.12577 0.0
O423 O 0.44953 0.22733 0.07506 0.0
Cd424 Cd 0.43628 0.34496 0.07548 0.0
C425 C 0.39867 0.28163 0.06133 0.0
O426 O 0.43408 0.38134 0.1263 0.0
O427 O 0.41519 0.42078 0.09671 0.0
O428 O 0.46354 0.40345 0.07332 0.0
C429 C 0.42261 0.42536 0.12102 0.0
O430 O 0.40002 0.26443 0.08792 0.0
C431 C 0.46017 0.44027 0.05135 0.0
O432 O 0.41093 0.31142 0.04835 0.0
O433 O 0.44594 0.4297 0.03907 0.0
C434 C 0.29664 0.52137 0.07701 0.0
O435 O 0.29898 0.4779 0.09721 0.0
Cd436 Cd 0.29769 0.35635 0.09603 0.0
O437 O 0.29351 0.50201 0.05098 0.0
Cd438 Cd 0.29023 0.3874 0.02667 0.0
C439 C 0.32894 0.32502 0.04461 0.0
O440 O 0.27404 0.34084 0.06637 0.0
O441 O 0.28237 0.2675 0.03474 0.0
O442 O 0.26557 0.41874 -0.00172 0.0
C443 C 0.27372 0.27958 0.05733 0.0
O444 O 0.32255 0.3169 0.06979 0.0
C445 C 0.26986 0.38252 0.97647 0.0
O446 O 0.32084 0.35671 0.02467 0.0
O447 O 0.28519 0.36187 0.97571 0.0
C448 C 0.11045 0.02466 0.37994 0.0
C449 C 0.10428 0.06507 0.35706 0.0
H450 H 0.13171 0.9732 0.39859 0.0
C451 C 0.11468 0.07713 0.33282 0.0
H452 H 0.10258 0.01441 0.39877 0.0
C453 C 0.13163 0.05441 0.33284 0.0
C454 C 0.13825 0.01905 0.35703 0.0
H455 H 0.11017 0.10862 0.31502 0.0
H456 H 0.13981 0.06865 0.31489 0.0
C457 C 0.12718 0.0013 0.37981 0.0
C458 C 0.1332 0.08086 0.95337 0.0
C459 C 0.14314 0.03515 0.93676 0.0
H460 H 0.10808 0.11953 0.962 0.0
C461 C 0.13497 -0.01567 0.92017 0.0
H462 H 0.13916 0.12068 0.96631 0.0
C463 C 0.11734 -0.01584 0.91751 0.0
C464 C 0.10746 0.03439 0.93158 0.0
H465 H 0.14226 0.94784 0.9074 0.0
H466 H 0.11152 0.94731 0.90291 0.0
C467 C 0.11542 0.08036 0.95085 0.0
C468 C 0.87344 0.81349 0.70727 0.0
C469 C 0.87687 0.88212 0.69945 0.0
H470 H 0.85398 0.7373 0.71367 0.0
C471 C 0.86363 0.93045 0.69967 0.0
H472 H 0.88346 0.7752 0.70684 0.0
C473 C 0.84695 0.90918 0.70448 0.0
C474 C 0.84323 0.83908 0.70845 0.0
H475 H 0.86599 -0.01648 0.69355 0.0
H476 H 0.83678 0.94625 0.70157 0.0
C477 C 0.85661 0.79181 0.7114 0.0
C478 C 0.88229 0.83499 0.0247 0.0
C479 C 0.88916 0.78168 0.04174 0.0
H480 H 0.85942 0.8857 0.01053 0.0
C481 C 0.8784 0.72971 0.05208 0.0
H482 H 0.89035 0.87615 0.01682 0.0
C483 C 0.86088 0.73518 0.04856 0.0
C484 C 0.85377 0.79296 0.03478 0.0
H485 H 0.8834 0.68817 0.06528 0.0
H486 H 0.85281 0.6971 0.05885 0.0
C487 C 0.8646 0.84065 0.02122 0.0
C488 C 0.09966 0.72465 0.81056 0.0
C489 C 0.08936 0.68172 0.79343 0.0
H490 H 0.12478 0.74522 0.82587 0.0
C491 C 0.09709 0.63843 0.77276 0.0
H492 H 0.09408 0.75952 0.8263 0.0
C493 C 0.11482 0.63119 0.77224 0.0
C494 C 0.12484 0.66723 0.79234 0.0
H495 H 0.08947 0.60501 0.75917 0.0
H496 H 0.12043 0.59172 0.75861 0.0
C497 C 0.11726 0.71713 0.81013 0.0
C498 C 0.14968 0.73427 0.45734 0.0
C499 C 0.138 0.68839 0.46978 0.0
H500 H 0.17554 0.75247 0.44554 0.0
C501 C 0.14413 0.63169 0.48571 0.0
H502 H 0.14532 0.77869 0.44518 0.0
C503 C 0.1616 0.61654 0.48591 0.0
C504 C 0.17296 0.65809 0.47022 0.0
H505 H 0.13537 0.59529 0.49538 0.0
H506 H 0.16592 0.569 0.49577 0.0
C507 C 0.16698 0.7192 0.45752 0.0
C508 C 0.87743 0.36831 0.20285 0.0
C509 C 0.88881 0.40296 0.18444 0.0
H510 H 0.85125 0.3461 0.21222 0.0
C511 C 0.88254 0.45212 0.16494 0.0
H512 H 0.88203 0.32927 0.21771 0.0
C513 C 0.86511 0.46164 0.16173 0.0
C514 C 0.85356 0.42147 0.17772 0.0
H515 H 0.89111 0.47906 0.15042 0.0
H516 H 0.86069 0.49679 0.1451 0.0
C517 C 0.85984 0.3776 0.19954 0.0
C518 C 0.91109 0.28591 0.55659 0.0
C519 C 0.91291 0.35732 0.55317 0.0
H520 H 0.89372 0.20377 0.56578 0.0
C521 C 0.89842 0.39792 0.5481 0.0
H522 H 0.92207 0.25385 0.56098 0.0
C523 C 0.88221 0.36891 0.55008 0.0
C524 C 0.8804 0.29951 0.55788 0.0
H525 H 0.89957 0.45327 0.54571 0.0
H526 H 0.87122 0.40253 0.54928 0.0
C527 C 0.89488 0.2573 0.55939 0.0
C528 C 0.62838 0.2534 0.80095 0.0
C529 C 0.63526 0.20283 0.78253 0.0
H530 H 0.60662 0.28804 0.8246 0.0
C531 C 0.62422 0.15572 0.76901 0.0
H532 H 0.63651 0.29091 0.81144 0.0
C533 C 0.60695 0.1543 0.77653 0.0
C534 C 0.60061 0.19965 0.79776 0.0
H535 H 0.62917 0.11603 0.75477 0.0
H536 H 0.59895 0.11406 0.76767 0.0
C537 C 0.61126 0.25151 0.80865 0.0
C538 C 0.64409 0.12283 0.4638 0.0
C539 C 0.6557 0.16841 0.45089 0.0
H540 H 0.61781 0.0951 0.46838 0.0
C541 C 0.64966 0.22966 0.43841 0.0
H542 H 0.64847 0.07507 0.47339 0.0
C543 C 0.63228 0.24116 0.43557 0.0
C544 C 0.62058 0.19142 0.44503 0.0
H545 H 0.6584 0.26588 0.42852 0.0
H546 H 0.62805 0.2861 0.42363 0.0
C547 C 0.62655 0.13433 0.46089 0.0
C548 C 0.3581 0.93757 0.18097 0.0
C549 C 0.35177 0.97034 0.15593 0.0
H550 H 0.37976 0.89034 0.20131 0.0
C551 C 0.36336 -0.00736 0.13465 0.0
H552 H 0.34954 0.92013 0.19785 0.0
C553 C 0.3805 0.97516 0.1366 0.0
C554 C 0.38649 0.93635 0.16011 0.0
H555 H 0.35903 0.01902 0.1153 0.0
H556 H 0.38886 -0.01225 0.11866 0.0
C557 C 0.37541 0.92086 0.18308 0.0
C558 C 0.3915 0.97933 0.55879 0.0
C559 C 0.37969 0.92971 0.5497 0.0
H560 H 0.41771 0.00456 0.56438 0.0
C561 C 0.38545 0.87279 0.53344 0.0
H562 H 0.38744 0.02417 0.57101 0.0
C563 C 0.40294 0.86165 0.52951 0.0
C564 C 0.41473 0.90746 0.54178 0.0
H565 H 0.3766 0.83368 0.52619 0.0
H566 H 0.40721 0.81415 0.5195 0.0
C567 C 0.40884 0.96825 0.55491 0.0
C568 C 0.61834 0.49383 0.35819 0.0
C569 C 0.62933 0.51817 0.33638 0.0
H570 H 0.59351 0.49886 0.377 0.0
C571 C 0.62242 0.55598 0.31312 0.0
H572 H 0.62314 0.46365 0.37619 0.0
C573 C 0.6052 0.5751 0.31341 0.0
C574 C 0.59483 0.55684 0.337 0.0
H575 H 0.63052 0.57534 0.29597 0.0
H576 H 0.60043 0.60903 0.29662 0.0
C577 C 0.60133 0.51362 0.35864 0.0
C578 C 0.62047 0.51277 0.93087 0.0
C579 C 0.62884 0.57052 0.94218 0.0
H580 H 0.59658 0.46379 0.92343 0.0
C581 C 0.62005 0.61472 0.96115 0.0
H582 H 0.62697 0.47845 0.91597 0.0
C583 C 0.60249 0.60692 0.96521 0.0
C584 C 0.59369 0.555 0.95018 0.0
H585 H 0.62623 0.66029 0.9697 0.0
H586 H 0.59561 0.64623 0.9771 0.0
C587 C 0.60302 0.5049 0.93493 0.0
C588 C 0.35049 0.26312 0.6311 0.0
C589 C 0.34462 0.30888 0.6524 0.0
H590 H 0.37188 0.21234 0.61232 0.0
C591 C 0.35568 0.33046 0.67447 0.0
H592 H 0.34213 0.2461 0.61384 0.0
C593 C 0.37291 0.3119 0.67345 0.0
C594 C 0.37914 0.2718 0.65028 0.0
H595 H 0.35139 0.36659 0.69086 0.0
H596 H 0.38152 0.33366 0.68932 0.0
C597 C 0.36756 0.24431 0.63016 0.0
C598 C 0.35232 0.24398 0.05595 0.0
C599 C 0.34661 0.30157 0.04031 0.0
H600 H 0.37361 0.19092 0.07396 0.0
C601 C 0.35849 0.34247 0.02548 0.0
H602 H 0.34339 0.21094 0.0672 0.0
C603 C 0.37596 0.33094 0.02939 0.0
C604 C 0.38159 0.27841 0.04813 0.0
H605 H 0.35438 0.38714 0.01326 0.0
H606 H 0.38489 0.36732 0.0202 0.0
C607 C 0.36964 0.23237 0.05974 0.0
C608 C 0.99351 0.23034 0.30308 0.0
C609 C 0.00932 0.20869 0.29202 0.0
H610 H 0.96918 0.27512 0.29388 0.0
C611 C 0.0126 0.21637 0.26224 0.0
H612 H 0.99064 0.22566 0.326 0.0
C613 C 0.00041 0.2456 0.24398 0.0
C614 C 0.98464 0.26763 0.25504 0.0
H615 H 0.0247 0.20091 0.25308 0.0
H616 H 0.00336 0.25051 0.2211 0.0
C617 C 0.98128 0.2594 0.28477 0.0
C618 C 0.24873 0.0193 0.27472 0.0
C619 C 0.23172 -0.00083 0.27103 0.0
H620 H 0.2743 0.01209 0.25933 0.0
C621 C 0.22762 0.95386 0.24828 0.0
H622 H 0.25237 0.05332 0.29229 0.0
C623 C 0.24027 0.92948 0.22954 0.0
C624 C 0.25728 0.94968 0.23326 0.0
H625 H 0.21467 0.93656 0.24513 0.0
H626 H 0.23667 0.89561 0.2119 0.0
C627 C 0.26137 -0.00531 0.25611 0.0
C628 C 0.99333 0.04077 0.98284 0.0
C629 C 0.0102 0.03983 0.99291 0.0
H630 H 0.96813 0.0005 0.98729 0.0
C631 C 0.01417 -0.00038 0.01735 0.0
H632 H 0.98985 0.07064 0.96389 0.0
C633 C 0.0017 0.95915 0.03067 0.0
C634 C 0.98505 0.95744 0.01966 0.0
H635 H 0.02706 -0.00269 0.02551 0.0
H636 H 0.00524 0.92786 0.04918 0.0
C637 C 0.98091 -0.00029 0.99596 0.0
C638 C 0.22763 0.30341 0.95857 0.0
C639 C 0.23256 0.24784 0.9409 0.0
H640 H 0.23545 0.39228 0.98244 0.0
C641 C 0.24937 0.24505 0.93065 0.0
H642 H 0.21466 0.30803 0.96624 0.0
C643 C 0.26134 0.2938 0.9398 0.0
C644 C 0.25668 0.34653 0.95924 0.0
H645 H 0.25347 0.20359 0.91652 0.0
H646 H 0.27445 0.28747 0.93312 0.0
C647 C 0.23952 0.35249 0.96745 0.0
C648 C 0.98679 0.73116 0.69041 0.0
C649 C 0.97005 0.73272 0.70102 0.0
H650 H 0.01187 0.69039 0.6954 0.0
C651 C 0.9652 0.68493 0.72237 0.0
H652 H 0.99081 0.76626 0.67348 0.0
C653 C 0.97722 0.64064 0.73466 0.0
C654 C 0.99434 0.64354 0.72593 0.0
H655 H 0.9523 0.68379 0.73054 0.0
H656 H 0.97332 0.60778 0.75245 0.0
C657 C -0.00119 0.68692 0.70271 0.0
C658 C 0.71693 0.92852 0.74338 0.0
C659 C 0.72148 0.9725 0.76633 0.0
H660 H 0.72387 0.84197 0.71708 0.0
C661 C 0.73614 0.95715 0.78254 0.0
H662 H 0.70554 0.93806 0.73082 0.0
C663 C 0.74649 0.90124 0.77502 0.0
C664 C 0.74248 0.85954 0.75102 0.0
H665 H 0.73983 -0.01085 0.80074 0.0
H666 H 0.75813 0.89308 0.78708 0.0
C667 C 0.72731 0.87271 0.7358 0.0
C668 C 0.74172 0.75959 0.93261 0.0
C669 C 0.7262 0.75872 0.94779 0.0
H670 H 0.76777 0.79237 0.93247 0.0
C671 C 0.72463 0.79751 0.97333 0.0
H672 H 0.74318 0.73093 0.91258 0.0
C673 C 0.73843 0.83463 0.98406 0.0
C674 C 0.75428 0.83256 0.96988 0.0
H675 H 0.71272 0.79918 0.98511 0.0
H676 H 0.73686 0.86214 0.00436 0.0
C677 C 0.75571 0.79555 0.94375 0.0
C678 C 0.21949 0.505 0.71169 0.0
C679 C 0.22138 0.51036 0.74189 0.0
H680 H 0.23064 0.47326 0.67147 0.0
C681 C 0.23628 0.48476 0.75488 0.0
H682 H 0.20809 0.52349 0.70109 0.0
C683 C 0.24912 0.45523 0.738 0.0
C684 C 0.24735 0.45075 0.70775 0.0
H685 H 0.23806 0.48743 0.77817 0.0
H686 H 0.26057 0.43718 0.74861 0.0
C687 C 0.23235 0.47554 0.69479 0.0
C688 C 0.02962 0.49019 0.48702 0.0
C689 C 0.04338 0.51656 0.50298 0.0
H690 H 0.00578 0.43763 0.48809 0.0
C691 C 0.04446 0.50201 0.53276 0.0
H692 H 0.0286 0.49941 0.4639 0.0
C693 C 0.03131 0.46637 0.5467 0.0
C694 C 0.01697 0.44416 0.53101 0.0
H695 H 0.05502 0.52105 0.54553 0.0
H696 H 0.03197 0.45945 0.57001 0.0
C697 C 0.01661 0.45407 0.50084 0.0
C698 C 0.26411 0.64805 0.55259 0.0
C699 C 0.2683 0.6046 0.52923 0.0
H700 H 0.27134 0.73443 0.57862 0.0
C701 C 0.28465 0.60959 0.51695 0.0
H702 H 0.25168 0.64554 0.56265 0.0
C703 C 0.29587 0.66143 0.52584 0.0
C704 C 0.29096 0.70907 0.54722 0.0
H705 H 0.28833 0.57692 0.49892 0.0
H706 H 0.30802 0.66622 0.51498 0.0
C707 C 0.2753 0.69983 0.56142 0.0
C708 C 0.75651 0.48514 0.25248 0.0
C709 C 0.75339 0.4359 0.23076 0.0
H710 H 0.74594 0.55473 0.28363 0.0
C711 C 0.73648 0.4207 0.22333 0.0
H712 H 0.76938 0.49905 0.25836 0.0
C713 C 0.72298 0.4533 0.23764 0.0
C714 C 0.72611 0.50218 0.25952 0.0
H715 H 0.73364 0.38382 0.20636 0.0
H716 H 0.71009 0.43911 0.23196 0.0
C717 C 0.74304 0.51808 0.26659 0.0
C718 C 0.76405 0.17056 0.55151 0.0
C719 C 0.78036 0.16157 0.5396 0.0
H720 H 0.73756 0.14662 0.54854 0.0
C721 C 0.78254 0.11464 0.51668 0.0
H722 H 0.762 0.20533 0.56958 0.0
C723 C 0.76859 0.0798 0.50504 0.0
C724 C 0.75213 0.09152 0.51593 0.0
H725 H 0.79501 0.10535 0.50747 0.0
H726 H 0.77063 0.04623 0.48656 0.0
C727 C 0.75007 0.13599 0.53977 0.0
C728 C 0.47206 0.19901 0.74617 0.0
C729 C 0.47534 0.24768 0.72428 0.0
H730 H 0.48256 0.1313 0.77825 0.0
C731 C 0.49227 0.26479 0.71787 0.0
H732 H 0.45915 0.18401 0.75133 0.0
C733 C 0.50563 0.2333 0.73266 0.0
C734 C 0.5024 0.18447 0.75447 0.0
H735 H 0.49528 0.30132 0.70085 0.0
H736 H 0.51852 0.24816 0.72725 0.0
C737 C 0.48546 0.16793 0.76123 0.0
C738 C 0.52617 0.87005 0.48108 0.0
C739 C 0.5095 0.86545 0.47015 0.0
H740 H 0.54979 0.92508 0.48071 0.0
C741 C 0.50483 0.90837 0.44692 0.0
H742 H 0.53022 0.83787 0.499 0.0
C743 C 0.516 0.95887 0.43671 0.0
C744 C 0.53209 0.96755 0.44946 0.0
H745 H 0.49212 0.90631 0.43795 0.0
H746 H 0.51171 -0.00695 0.41964 0.0
C747 C 0.53734 0.92072 0.47089 0.0
C748 C 0.47437 0.76982 0.2659 0.0
C749 C 0.47787 0.77411 0.23609 0.0
H750 H 0.48295 0.73629 0.30763 0.0
C751 C 0.49313 0.74579 0.22544 0.0
H752 H 0.46264 0.79038 0.27471 0.0
C753 C 0.50464 0.71395 0.24416 0.0
C754 C 0.50118 0.70983 0.27399 0.0
H755 H 0.49616 0.74762 0.2025 0.0
H756 H 0.51636 0.69348 0.2353 0.0
C757 C 0.48592 0.73804 0.28468 0.0
C758 C 0.48845 0.49911 0.05376 0.0
C759 C 0.47232 0.49297 0.04089 0.0
H760 H 0.51317 0.54465 0.05159 0.0
C761 C 0.46803 0.53725 0.01795 0.0
H762 H 0.49205 0.46664 0.07186 0.0
C763 C 0.48006 0.58309 0.0067 0.0
C764 C 0.49668 0.58502 0.01797 0.0
H765 H 0.45559 0.53479 0.00797 0.0
H766 H 0.47666 0.6134 0.98783 0.0
C767 C 0.50051 0.54458 0.0424 0.0
C768 C 0.09093 0.44275 0.38616 0.0
C769 C 0.0795 0.49765 0.38963 0.0
H770 H 0.09409 0.33761 0.37284 0.0
C771 C 0.06271 0.4911 0.37971 0.0
H772 H 0.10391 0.44688 0.39378 0.0
C773 C 0.05703 0.42849 0.36871 0.0
C774 C 0.06824 0.37283 0.36654 0.0
H775 H 0.05363 0.53263 0.38241 0.0
H776 H 0.04376 0.42272 0.3629 0.0
C777 C 0.08536 0.38071 0.37423 0.0
C778 C 0.2334 0.73374 0.38792 0.0
C779 C 0.23828 0.74303 0.41701 0.0
H780 H 0.22092 0.77817 0.35108 0.0
C781 C 0.23735 0.80884 0.42946 0.0
H782 H 0.23445 0.68392 0.37749 0.0
C783 C 0.22986 0.8626 0.41426 0.0
C784 C 0.22309 0.85112 0.3865 0.0
H785 H 0.2413 0.81759 0.45169 0.0
H786 H 0.2285 0.91201 0.42499 0.0
C787 C 0.22555 0.78732 0.37288 0.0
C788 C 0.02499 0.84824 0.8892 0.0
C789 C 0.02832 0.91302 0.8771 0.0
H790 H 0.01847 0.74328 0.88107 0.0
C791 C 0.02563 0.92394 0.84733 0.0
H792 H 0.02662 0.8392 0.91223 0.0
C793 C 0.0212 0.86915 0.82939 0.0
C794 C 0.01917 0.80306 0.84114 0.0
H795 H 0.02789 0.97393 0.83755 0.0
H796 H 0.02029 0.87771 0.80624 0.0
C797 C 0.0202 0.79375 0.87135 0.0
C798 C 0.15673 0.35193 0.84864 0.0
C799 C 0.16504 0.36554 0.82243 0.0
H800 H 0.15295 0.28019 0.88299 0.0
C801 C 0.1736 0.31263 0.80775 0.0
H802 H 0.15009 0.3926 0.86015 0.0
C803 C 0.17569 0.2487 0.82113 0.0
C804 C 0.16899 0.2375 0.849 0.0
H805 H 0.18015 0.32288 0.78751 0.0
H806 H 0.18375 0.21053 0.81085 0.0
C807 C 0.15842 0.28767 0.86164 0.0
C808 C 0.95496 0.74841 0.59945 0.0
C809 C 0.93726 0.75569 0.59685 0.0
H810 H 0.97629 0.67993 0.59588 0.0
C811 C 0.92767 0.70231 0.58461 0.0
H812 H 0.96254 0.78853 0.60945 0.0
C813 C 0.93562 0.64119 0.5761 0.0
C814 C 0.95311 0.63209 0.58082 0.0
H815 H 0.91398 0.70663 0.58295 0.0
H816 H 0.92793 0.59934 0.56778 0.0
C817 C 0.9628 0.68639 0.59197 0.0
C818 C 0.79947 0.96615 0.62975 0.0
C819 C 0.79629 0.96918 0.65973 0.0
H820 H 0.81233 0.01192 0.59358 0.0
C821 C 0.80429 0.02003 0.67657 0.0
H822 H 0.7935 0.92737 0.61629 0.0
C823 C 0.81522 0.067 0.66378 0.0
C824 C 0.81826 0.0646 0.63386 0.0
H825 H 0.80223 0.02348 0.69978 0.0
H826 H 0.82091 0.10664 0.6772 0.0
C827 C 0.81049 0.01346 0.61688 0.0
C828 C 0.92537 0.12627 0.1299 0.0
C829 C 0.93159 0.12317 0.15835 0.0
H830 H 0.9211 0.0716 0.09042 0.0
C831 C 0.93584 0.05976 0.17075 0.0
H832 H 0.92181 0.17494 0.12021 0.0
C833 C 0.93567 0.00064 0.1536 0.0
C834 C 0.93105 0.00499 0.12418 0.0
H835 H 0.94068 0.05691 0.19273 0.0
H836 H 0.94015 0.95264 0.16284 0.0
C837 C 0.92495 0.06726 0.11291 0.0
C838 C 0.77096 0.6065 0.11331 0.0
C839 C 0.78587 0.56867 0.11765 0.0
H840 H 0.75914 0.68797 0.08922 0.0
C841 C 0.80009 0.57942 0.09999 0.0
H842 H 0.75983 0.5975 0.12665 0.0
C843 C 0.79948 0.62829 0.07806 0.0
C844 C 0.78475 0.66775 0.07411 0.0
H845 H 0.81163 0.54989 0.1031 0.0
H846 H 0.81075 0.63722 0.06506 0.0
C847 C 0.7705 0.65695 0.09182 0.0
C848 C 0.52653 0.3062 0.90023 0.0
C849 C 0.52697 0.31659 0.87007 0.0
H850 H 0.5247 0.35343 0.94205 0.0
C851 C 0.52332 0.38173 0.85863 0.0
H852 H 0.52911 0.25601 0.90954 0.0
C853 C 0.52044 0.437 0.87721 0.0
C854 C 0.52157 0.42792 0.90742 0.0
H855 H 0.52328 0.39044 0.8354 0.0
H856 H 0.51844 0.48754 0.86783 0.0
C857 C 0.52396 0.36171 0.91883 0.0
C858 C 0.65153 0.88317 0.8628 0.0
C859 C 0.66052 0.86933 0.88829 0.0
H860 H 0.64658 0.95582 0.82925 0.0
C861 C 0.66893 0.92268 0.90292 0.0
H862 H 0.64491 0.84233 0.85143 0.0
C863 C 0.67036 -0.01276 0.88986 0.0
C864 C 0.66309 -0.00134 0.86247 0.0
H865 H 0.67596 0.91246 0.92268 0.0
H866 H 0.67842 0.02576 0.89986 0.0
C867 C 0.65252 0.94811 0.85021 0.0
C868 C 0.57506 0.88766 0.33929 0.0
C869 C 0.55796 0.86869 0.34236 0.0
H870 H 0.59341 0.96825 0.3448 0.0
C871 C 0.54567 0.91873 0.3486 0.0
H872 H 0.58469 0.8494 0.33441 0.0
C873 C 0.55054 -0.01331 0.35322 0.0
C874 C 0.56781 0.00471 0.35265 0.0
H875 H 0.53239 0.90485 0.35077 0.0
H876 H 0.54092 0.02375 0.35958 0.0
C877 C 0.58002 0.95531 0.34496 0.0
C878 C 0.72444 0.32381 0.41713 0.0
C879 C 0.72543 0.25785 0.40483 0.0
H880 H 0.7168 0.42826 0.4112 0.0
C881 C 0.72227 0.24919 0.37502 0.0
H882 H 0.7271 0.33196 0.43995 0.0
C883 C 0.71586 0.30376 0.35879 0.0
C884 C 0.71315 0.36784 0.372 0.0
H885 H 0.72337 0.19913 0.36479 0.0
H886 H 0.71237 0.29511 0.33633 0.0
C887 C 0.71841 0.37865 0.40074 0.0
C888 C 0.43281 0.50289 0.16005 0.0
C889 C 0.42056 0.48713 0.13894 0.0
H890 H 0.44454 0.58303 0.18492 0.0
C891 C 0.40828 0.53659 0.1314 0.0
H892 H 0.44235 0.46554 0.16635 0.0
C893 C 0.4095 0.60336 0.14221 0.0
C894 C 0.4229 0.62056 0.16071 0.0
H895 H 0.3986 0.52537 0.11536 0.0
H896 H 0.40088 0.64267 0.1343 0.0
C897 C 0.43407 0.56978 0.17069 0.0
C898 C 0.26922 0.1001 0.08478 0.0
C899 C 0.27207 0.11068 0.11455 0.0
H900 H 0.26742 0.14692 0.04293 0.0
C901 C 0.27174 0.17767 0.1259 0.0
H902 H 0.26913 0.04873 0.07555 0.0
C903 C 0.27037 0.23377 0.10724 0.0
C904 C 0.26971 0.22308 0.07709 0.0
H905 H 0.27358 0.18683 0.14888 0.0
H906 H 0.27132 0.28518 0.11625 0.0
C907 C 0.2682 0.1561 0.06611 0.0
C908 C 0.46946 0.12716 0.58275 0.0
C909 C 0.46372 0.11658 0.61123 0.0
H910 H 0.48074 0.0819 0.54519 0.0
C911 C 0.46787 0.05539 0.62574 0.0
H912 H 0.46681 0.17477 0.57134 0.0
C913 C 0.4764 0.00295 0.61101 0.0
C914 C 0.48022 0.01048 0.58138 0.0
H915 H 0.4641 0.04733 0.6481 0.0
H916 H 0.47881 0.95499 0.62224 0.0
C917 C 0.47762 0.07438 0.56788 0.0
C918 C 0.32664 0.63131 0.654 0.0
C919 C 0.3095 0.61716 0.64798 0.0
H920 H 0.34655 0.70661 0.65246 0.0
C921 C 0.29857 0.67073 0.63993 0.0
H922 H 0.33526 0.5904 0.6603 0.0
C923 C 0.30484 0.73742 0.63687 0.0
C924 C 0.32226 0.75068 0.64069 0.0
H925 H 0.28528 0.66076 0.63546 0.0
H926 H 0.29628 0.77744 0.62946 0.0
C927 C 0.33306 0.69754 0.64982 0.0
C928 C 0.04367 0.88228 0.41307 0.0
C929 C 0.05418 0.86701 0.4368 0.0
H930 H 0.0313 0.96098 0.38861 0.0
C931 C 0.05683 0.91696 0.45826 0.0
H932 H 0.04136 0.84395 0.39641 0.0
C933 C 0.05111 -0.01553 0.45376 0.0
C934 C 0.04285 0.00215 0.42763 0.0
H935 H 0.06493 0.906 0.4767 0.0
H936 H 0.055 0.02394 0.46899 0.0
C937 C 0.03789 0.94929 0.40864 0.0
C938 C 0.21214 0.31485 0.4375 0.0
C939 C 0.21415 0.36262 0.41494 0.0
H940 H 0.20605 0.21118 0.44914 0.0
C941 C 0.21203 0.34078 0.38604 0.0
H942 H 0.21361 0.33032 0.45996 0.0
C943 C 0.20775 0.27277 0.37981 0.0
C944 C 0.20533 0.22531 0.40236 0.0
H945 H 0.21358 0.37642 0.36814 0.0
H946 H 0.20613 0.25768 0.35733 0.0
C947 C 0.20767 0.24684 0.43127 0.0
C948 C 0.04534 0.37548 0.83361 0.0
C949 C 0.04223 0.42597 0.85471 0.0
H950 H 0.05129 0.27011 0.82506 0.0
C951 C 0.04234 0.40731 0.88424 0.0
H952 H 0.04545 0.38844 0.81074 0.0
C953 C 0.0456 0.33941 0.89251 0.0
C954 C 0.04907 0.28921 0.87142 0.0
H955 H 0.03995 0.44527 0.90101 0.0
H956 H 0.04559 0.32645 0.91538 0.0
C957 C 0.04886 0.30787 0.84189 0.0
C958 C 0.21114 0.85008 0.85814 0.0
C959 C 0.2073 0.8728 0.8864 0.0
H960 H 0.20859 0.7694 0.82674 0.0
C961 C 0.20057 0.82565 0.90642 0.0
H962 H 0.21642 0.88515 0.84224 0.0
C963 C 0.1961 0.75937 0.89756 0.0
C964 C 0.19818 0.73909 0.86844 0.0
H965 H 0.19763 0.84141 0.92843 0.0
H966 H 0.18996 0.72578 0.91313 0.0
C967 C 0.20656 0.7838 0.8492 0.0
C968 C 0.94684 0.24332 0.6723 0.0
C969 C 0.95975 0.2568 0.65185 0.0
H970 H 0.93037 0.1671 0.69084 0.0
C971 C 0.96876 0.20085 0.63995 0.0
H972 H 0.93963 0.28503 0.68195 0.0
C973 C 0.96364 0.13316 0.64571 0.0
C974 C 0.94942 0.12053 0.66329 0.0
H975 H 0.97879 0.20935 0.62424 0.0
H976 H 0.96968 0.09124 0.63404 0.0
C977 C 0.94156 0.17573 0.6776 0.0
C978 C 0.80126 0.48301 0.61688 0.0
C979 C 0.81017 0.44667 0.63836 0.0
H980 H 0.78818 0.57609 0.60585 0.0
C981 C 0.81045 0.47257 0.66688 0.0
H982 H 0.80066 0.46393 0.5948 0.0
C983 C 0.8029 0.53591 0.67338 0.0
C984 C 0.79524 0.57482 0.65132 0.0
H985 H 0.81696 0.44495 0.68402 0.0
H986 H 0.8042 0.55665 0.6951 0.0
C987 C 0.794 0.54686 0.62325 0.0
C988 C 0.96234 0.50872 0.09346 0.0
C989 C 0.96388 0.4885 0.12274 0.0
H990 H 0.9587 0.59327 0.06423 0.0
C991 C 0.96831 0.53809 0.14355 0.0
H992 H 0.95938 0.47141 0.07672 0.0
C993 C 0.96805 0.60768 0.13624 0.0
C994 C 0.96346 0.62819 0.10807 0.0
H995 H 0.97003 0.5241 0.16613 0.0
H996 H 0.96946 0.64552 0.15339 0.0
C997 C 0.96211 0.57854 0.08615 0.0
C998 C 0.79732 0.13366 0.13221 0.0
C999 C 0.79829 0.18638 0.11151 0.0
H1000 H 0.79698 0.02507 0.13988 0.0
C1001 C 0.79887 0.1691 0.08184 0.0
H1002 H 0.79686 0.14549 0.15518 0.0
C1003 C 0.79884 0.10045 0.07303 0.0
C1004 C 0.7984 0.04759 0.09371 0.0
H1005 H 0.79947 0.2087 0.0653 0.0
H1006 H 0.7995 0.08889 0.05004 0.0
C1007 C 0.79748 0.0648 0.12339 0.0
C1008 C 0.54214 0.82181 0.86077 0.0
C1009 C 0.54363 0.80429 0.8903 0.0
H1010 H 0.54324 0.90184 0.82882 0.0
C1011 C 0.54744 0.85579 0.91059 0.0
H1012 H 0.53916 0.783 0.84465 0.0
C1013 C 0.55008 0.92339 0.90143 0.0
C1014 C 0.54867 0.94094 0.87189 0.0
H1015 H 0.54876 0.84364 0.93343 0.0
H1016 H 0.5531 0.96204 0.9176 0.0
C1017 C 0.54449 0.8897 0.85167 0.0
C1018 C 0.70279 0.44913 0.85893 0.0
C1019 C 0.69301 0.4929 0.84129 0.0
H1020 H 0.71362 0.34868 0.86408 0.0
C1021 C 0.68943 0.47248 0.81264 0.0
H1022 H 0.70596 0.4637 0.88097 0.0
C1023 C 0.6939 0.40681 0.80291 0.0
C1024 C 0.702 0.36021 0.82165 0.0
H1025 H 0.68223 0.50552 0.79825 0.0
H1026 H 0.68983 0.39091 0.78147 0.0
C1027 C 0.70726 0.38327 0.84917 0.0
C1028 C 0.53809 0.47445 0.43467 0.0
C1029 C 0.52931 0.49709 0.4098 0.0
H1030 H 0.55112 0.38965 0.45459 0.0
C1031 C 0.52191 0.44784 0.39141 0.0
H1032 H 0.54381 0.51114 0.44945 0.0
C1033 C 0.52603 0.37839 0.39457 0.0
C1034 C 0.53741 0.35758 0.41628 0.0
H1035 H 0.51483 0.46365 0.37238 0.0
H1036 H 0.52216 0.34255 0.37778 0.0
C1037 C 0.54225 0.40471 0.43777 0.0
C1038 C 0.69666 0.83413 0.4188 0.0
C1039 C 0.69853 0.88253 0.39645 0.0
H1040 H 0.69184 0.72928 0.43001 0.0
C1041 C 0.69709 0.8608 0.36741 0.0
H1042 H 0.69763 0.8494 0.44137 0.0
C1043 C 0.69385 0.79193 0.36085 0.0
C1044 C 0.69181 0.74366 0.38321 0.0
H1045 H 0.69851 0.89698 0.34968 0.0
H1046 H 0.69285 0.77666 0.33829 0.0
C1047 C 0.69324 0.76542 0.41225 0.0
C1048 C 0.46913 0.09038 0.11503 0.0
C1049 C 0.46037 0.11868 0.09134 0.0
H1050 H 0.47436 -0.00088 0.13926 0.0
C1051 C 0.45498 0.07527 0.06883 0.0
H1052 H 0.4736 0.12325 0.13245 0.0
C1053 C 0.45527 0.00384 0.07281 0.0
C1054 C 0.46094 0.97617 0.09934 0.0
H1055 H 0.44825 0.09613 0.0503 0.0
H1056 H 0.44891 0.97166 0.05698 0.0
C1057 C 0.46945 0.01928 0.119 0.0
C1058 C 0.29722 0.71574 0.07077 0.0
C1059 C 0.29695 0.73562 0.10018 0.0
H1060 H 0.29727 0.63234 0.04028 0.0
C1061 C 0.29662 0.68466 0.1217 0.0
H1062 H 0.29743 0.75394 0.05364 0.0
C1063 C 0.29669 0.61523 0.11402 0.0
C1064 C 0.2969 0.59521 0.08463 0.0
H1065 H 0.29646 0.6983 0.14451 0.0
H1066 H 0.29643 0.57723 0.13123 0.0
C1067 C 0.29711 0.64615 0.06306 0.0
C1068 C 0.4516 0.53453 0.62374 0.0
C1069 C 0.44679 0.49034 0.60108 0.0
H1070 H 0.46054 0.63438 0.6357 0.0
C1071 C 0.44815 0.51347 0.57222 0.0
H1072 H 0.45083 0.51806 0.64616 0.0
C1073 C 0.45396 0.57986 0.56617 0.0
C1074 C 0.45834 0.62457 0.58888 0.0
H1075 H 0.44474 0.4803 0.55422 0.0
H1076 H 0.45454 0.59673 0.54378 0.0
C1077 C 0.45724 0.60105 0.6177 0.0
C1078 C 0.30138 0.15103 0.5536 0.0
C1079 C 0.29659 0.10289 0.57473 0.0
H1080 H 0.30103 0.25714 0.54106 0.0
C1081 C 0.28417 0.12078 0.59523 0.0
H1082 H 0.31111 0.13832 0.53782 0.0
C1083 C 0.27842 0.18863 0.59726 0.0
C1084 C 0.28522 0.23957 0.57899 0.0
H1085 H 0.28039 0.08429 0.61183 0.0
H1086 H 0.27028 0.20263 0.61532 0.0
C1087 C 0.29559 0.21915 0.55555 0.0
loop_
_geom_bond_atom_site_label_1
_geom_bond_atom_site_label_2
_geom_bond_distance
_geom_bond_site_symmetry_2
_ccdc_geom_bond_type
C0 O1 1.306 . S
C0 O3 1.160 . S
O1 C0 1.306 . S
O1 Cd2 2.228 . S
Cd2 O1 2.228 . S
Cd2 O6 2.273 . S
Cd2 O10 2.277 . S
O3 C0 1.160 . S
O3 Cd4 2.203 . S
Cd4 O3 2.203 . S
Cd4 O6 2.411 . S
Cd4 O7 2.333 . S
Cd4 O8 2.352 . S
Cd4 O12 2.277 . S
Cd4 O13 2.356 . S
C5 O10 1.209 . S
C5 O12 1.226 . S
O6 Cd2 2.273 . S
O6 Cd4 2.411 . S
O6 C9 1.320 . S
O7 Cd4 2.333 . S
O7 C9 1.214 . S
O8 Cd4 2.352 . S
O8 C11 1.258 . S
C9 O6 1.320 . S
C9 O7 1.214 . S
O10 Cd2 2.277 . S
O10 C5 1.209 . S
C11 O8 1.258 . S
C11 O13 1.282 . S
O12 Cd4 2.277 . S
O12 C5 1.226 . S
O13 Cd4 2.356 . S
O13 C11 1.282 . S
C14 O15 1.306 . S
C14 O17 1.160 . S
O15 C14 1.306 . S
O15 Cd16 2.228 . S
Cd16 O15 2.228 . S
Cd16 O20 2.273 . S
Cd16 O24 2.277 . S
O17 C14 1.160 . S
O17 Cd18 2.203 . S
Cd18 O17 2.203 . S
Cd18 O20 2.411 . S
Cd18 O21 2.333 1_545 S
Cd18 O22 2.352 . S
Cd18 O26 2.277 . S
Cd18 O27 2.356 . S
C19 O24 1.209 . S
C19 O26 1.226 . S
O20 Cd16 2.273 . S
O20 Cd18 2.411 . S
O20 C23 1.320 1_545 S
O21 Cd18 2.333 1_565 S
O21 C23 1.214 . S
O22 Cd18 2.352 . S
O22 C25 1.258 . S
C23 O20 1.320 1_565 S
C23 O21 1.214 . S
O24 Cd16 2.277 . S
O24 C19 1.209 . S
C25 O22 1.258 . S
C25 O27 1.282 . S
O26 Cd18 2.277 . S
O26 C19 1.226 . S
O27 Cd18 2.356 . S
O27 C25 1.282 . S
C28 O29 1.306 . S
C28 O31 1.160 . S
O29 C28 1.306 . S
O29 Cd30 2.228 . S
Cd30 O29 2.228 . S
Cd30 O34 2.273 . S
Cd30 O38 2.277 . S
O31 C28 1.160 . S
O31 Cd32 2.203 . S
Cd32 O31 2.203 . S
Cd32 O34 2.411 . S
Cd32 O35 2.333 1_545 S
Cd32 O36 2.352 . S
Cd32 O40 2.277 . S
Cd32 O41 2.356 . S
C33 O38 1.209 . S
C33 O40 1.226 . S
O34 Cd30 2.273 . S
O34 Cd32 2.411 . S
O34 C37 1.320 1_545 S
O35 Cd32 2.333 1_565 S
O35 C37 1.214 . S
O36 Cd32 2.352 . S
O36 C39 1.258 . S
C37 O34 1.320 1_565 S
C37 O35 1.214 . S
O38 Cd30 2.277 . S
O38 C33 1.209 . S
C39 O36 1.258 . S
C39 O41 1.282 . S
O40 Cd32 2.277 . S
O40 C33 1.226 . S
O41 Cd32 2.356 . S
O41 C39 1.282 . S
C42 O43 1.306 . S
C42 O45 1.160 . S
O43 C42 1.306 . S
O43 Cd44 2.228 . S
Cd44 O43 2.228 . S
Cd44 O48 2.273 . S
Cd44 O52 2.277 . S
O45 C42 1.160 . S
O45 Cd46 2.203 . S
Cd46 O45 2.203 . S
Cd46 O48 2.411 . S
Cd46 O49 2.333 . S
Cd46 O50 2.352 . S
Cd46 O54 2.277 . S
Cd46 O55 2.356 . S
C47 O52 1.209 . S
C47 O54 1.226 . S
O48 Cd44 2.273 . S
O48 Cd46 2.411 . S
O48 C51 1.320 . S
O49 Cd46 2.333 . S
O49 C51 1.214 . S
O50 Cd46 2.352 . S
O50 C53 1.258 . S
C51 O48 1.320 . S
C51 O49 1.214 . S
O52 Cd44 2.277 . S
O52 C47 1.209 . S
C53 O50 1.258 . S
C53 O55 1.282 . S
O54 Cd46 2.277 . S
O54 C47 1.226 . S
O55 Cd46 2.356 . S
O55 C53 1.282 . S
C56 O57 1.306 . S
C56 O59 1.160 . S
O57 C56 1.306 . S
O57 Cd58 2.228 . S
Cd58 O57 2.228 . S
Cd58 O62 2.273 . S
Cd58 O66 2.277 . S
O59 C56 1.160 . S
O59 Cd60 2.203 . S
Cd60 O59 2.203 . S
Cd60 O62 2.411 . S
Cd60 O63 2.333 . S
Cd60 O64 2.352 . S
Cd60 O68 2.277 . S
Cd60 O69 2.356 . S
C61 O66 1.209 . S
C61 O68 1.226 . S
O62 Cd58 2.273 . S
O62 Cd60 2.411 . S
O62 C65 1.320 . S
O63 Cd60 2.333 . S
O63 C65 1.214 . S
O64 Cd60 2.352 . S
O64 C67 1.258 . S
C65 O62 1.320 . S
C65 O63 1.214 . S
O66 Cd58 2.277 . S
O66 C61 1.209 . S
C67 O64 1.258 . S
C67 O69 1.282 . S
O68 Cd60 2.277 . S
O68 C61 1.226 . S
O69 Cd60 2.356 . S
O69 C67 1.282 . S
C70 O71 1.306 . S
C70 O73 1.160 . S
O71 C70 1.306 . S
O71 Cd72 2.228 . S
Cd72 O71 2.228 . S
Cd72 O76 2.273 . S
Cd72 O80 2.277 . S
O73 C70 1.160 . S
O73 Cd74 2.203 . S
Cd74 O73 2.203 . S
Cd74 O76 2.411 . S
Cd74 O77 2.333 1_565 S
Cd74 O78 2.352 . S
Cd74 O82 2.277 . S
Cd74 O83 2.356 . S
C75 O80 1.209 . S
C75 O82 1.226 . S
O76 Cd72 2.273 . S
O76 Cd74 2.411 . S
O76 C79 1.320 1_565 S
O77 Cd74 2.333 1_545 S
O77 C79 1.214 . S
O78 Cd74 2.352 . S
O78 C81 1.258 . S
C79 O76 1.320 1_545 S
C79 O77 1.214 . S
O80 Cd72 2.277 . S
O80 C75 1.209 . S
C81 O78 1.258 . S
C81 O83 1.282 . S
O82 Cd74 2.277 . S
O82 C75 1.226 . S
O83 Cd74 2.356 . S
O83 C81 1.282 . S
C84 O85 1.306 . S
C84 O87 1.160 . S
O85 C84 1.306 . S
O85 Cd86 2.228 . S
Cd86 O85 2.228 . S
Cd86 O90 2.273 . S
Cd86 O94 2.277 . S
O87 C84 1.160 . S
O87 Cd88 2.203 . S
Cd88 O87 2.203 . S
Cd88 O90 2.411 . S
Cd88 O91 2.333 1_565 S
Cd88 O92 2.352 . S
Cd88 O96 2.277 . S
Cd88 O97 2.356 . S
C89 O94 1.209 . S
C89 O96 1.226 . S
O90 Cd86 2.273 . S
O90 Cd88 2.411 . S
O90 C93 1.320 1_565 S
O91 Cd88 2.333 1_545 S
O91 C93 1.214 . S
O92 Cd88 2.352 . S
O92 C95 1.258 . S
C93 O90 1.320 1_545 S
C93 O91 1.214 . S
O94 Cd86 2.277 . S
O94 C89 1.209 . S
C95 O92 1.258 . S
C95 O97 1.282 . S
O96 Cd88 2.277 . S
O96 C89 1.226 . S
O97 Cd88 2.356 . S
O97 C95 1.282 . S
C98 O99 1.306 . S
C98 O101 1.160 . S
O99 C98 1.306 . S
O99 Cd100 2.228 . S
Cd100 O99 2.228 . S
Cd100 O104 2.273 . S
Cd100 O108 2.277 . S
O101 C98 1.160 . S
O101 Cd102 2.203 . S
Cd102 O101 2.203 . S
Cd102 O104 2.411 . S
Cd102 O105 2.333 . S
Cd102 O106 2.352 . S
Cd102 O110 2.277 . S
Cd102 O111 2.356 . S
C103 O108 1.209 . S
C103 O110 1.226 . S
O104 Cd100 2.273 . S
O104 Cd102 2.411 . S
O104 C107 1.320 . S
O105 Cd102 2.333 . S
O105 C107 1.214 . S
O106 Cd102 2.352 . S
O106 C109 1.258 . S
C107 O104 1.320 . S
C107 O105 1.214 . S
O108 Cd100 2.277 . S
O108 C103 1.209 . S
C109 O106 1.258 . S
C109 O111 1.282 . S
O110 Cd102 2.277 . S
O110 C103 1.226 . S
O111 Cd102 2.356 . S
O111 C109 1.282 . S
C112 O113 1.306 . S
C112 O115 1.160 . S
O113 C112 1.306 . S
O113 Cd114 2.228 . S
Cd114 O113 2.228 . S
Cd114 O118 2.273 . S
Cd114 O122 2.277 . S
O115 C112 1.160 . S
O115 Cd116 2.203 . S
Cd116 O115 2.203 . S
Cd116 O118 2.411 . S
Cd116 O119 2.333 . S
Cd116 O120 2.352 . S
Cd116 O124 2.277 . S
Cd116 O125 2.356 . S
C117 O122 1.209 . S
C117 O124 1.226 . S
O118 Cd114 2.273 . S
O118 Cd116 2.411 . S
O118 C121 1.320 . S
O119 Cd116 2.333 . S
O119 C121 1.214 . S
O120 Cd116 2.352 . S
O120 C123 1.258 . S
C121 O118 1.320 . S
C121 O119 1.214 . S
O122 Cd114 2.277 . S
O122 C117 1.209 . S
C123 O120 1.258 . S
C123 O125 1.282 . S
O124 Cd116 2.277 . S
O124 C117 1.226 . S
O125 Cd116 2.356 . S
O125 C123 1.282 . S
C126 O127 1.306 . S
C126 O129 1.160 . S
O127 C126 1.306 . S
O127 Cd128 2.228 . S
Cd128 O127 2.228 . S
Cd128 O132 2.273 . S
Cd128 O136 2.277 . S
O129 C126 1.160 . S
O129 Cd130 2.203 . S
Cd130 O129 2.203 . S
Cd130 O132 2.411 . S
Cd130 O133 2.333 . S
Cd130 O134 2.352 . S
Cd130 O138 2.277 . S
Cd130 O139 2.356 . S
C131 O136 1.209 . S
C131 O138 1.226 . S
O132 Cd128 2.273 . S
O132 Cd130 2.411 . S
O132 C135 1.320 . S
O133 Cd130 2.333 . S
O133 C135 1.214 . S
O134 Cd130 2.352 . S
O134 C137 1.258 . S
C135 O132 1.320 . S
C135 O133 1.214 . S
O136 Cd128 2.277 . S
O136 C131 1.209 . S
C137 O134 1.258 . S
C137 O139 1.282 . S
O138 Cd130 2.277 . S
O138 C131 1.226 . S
O139 Cd130 2.356 . S
O139 C137 1.282 . S
C140 O141 1.306 . S
C140 O143 1.160 . S
O141 C140 1.306 . S
O141 Cd142 2.228 . S
Cd142 O141 2.228 . S
Cd142 O146 2.273 . S
Cd142 O150 2.277 . S
O143 C140 1.160 . S
O143 Cd144 2.203 . S
Cd144 O143 2.203 . S
Cd144 O146 2.411 . S
Cd144 O147 2.333 . S
Cd144 O148 2.352 . S
Cd144 O152 2.277 . S
Cd144 O153 2.356 . S
C145 O150 1.209 . S
C145 O152 1.226 . S
O146 Cd142 2.273 . S
O146 Cd144 2.411 . S
O146 C149 1.320 . S
O147 Cd144 2.333 . S
O147 C149 1.214 . S
O148 Cd144 2.352 . S
O148 C151 1.258 . S
C149 O146 1.320 . S
C149 O147 1.214 . S
O150 Cd142 2.277 . S
O150 C145 1.209 . S
C151 O148 1.258 . S
C151 O153 1.282 . S
O152 Cd144 2.277 . S
O152 C145 1.226 . S
O153 Cd144 2.356 . S
O153 C151 1.282 . S
C154 O155 1.306 . S
C154 O157 1.160 . S
O155 C154 1.306 . S
O155 Cd156 2.228 . S
Cd156 O155 2.228 . S
Cd156 O160 2.273 . S
Cd156 O164 2.277 . S
O157 C154 1.160 . S
O157 Cd158 2.203 . S
Cd158 O157 2.203 . S
Cd158 O160 2.411 . S
Cd158 O161 2.333 . S
Cd158 O162 2.352 . S
Cd158 O166 2.277 . S
Cd158 O167 2.356 . S
C159 O164 1.209 . S
C159 O166 1.226 . S
O160 Cd156 2.273 . S
O160 Cd158 2.411 . S
O160 C163 1.320 . S
O161 Cd158 2.333 . S
O161 C163 1.214 . S
O162 Cd158 2.352 . S
O162 C165 1.258 . S
C163 O160 1.320 . S
C163 O161 1.214 . S
O164 Cd156 2.277 . S
O164 C159 1.209 . S
C165 O162 1.258 . S
C165 O167 1.282 . S
O166 Cd158 2.277 . S
O166 C159 1.226 . S
O167 Cd158 2.356 . S
O167 C165 1.282 . S
C168 O169 1.306 . S
C168 O171 1.160 . S
O169 C168 1.306 . S
O169 Cd170 2.228 . S
Cd170 O169 2.228 . S
Cd170 O174 2.273 . S
Cd170 O178 2.277 . S
O171 C168 1.160 . S
O171 Cd172 2.203 . S
Cd172 O171 2.203 . S
Cd172 O174 2.411 . S
Cd172 O175 2.333 . S
Cd172 O176 2.352 . S
Cd172 O180 2.277 . S
Cd172 O181 2.356 . S
C173 O178 1.209 . S
C173 O180 1.226 . S
O174 Cd170 2.273 . S
O174 Cd172 2.411 . S
O174 C177 1.320 . S
O175 Cd172 2.333 . S
O175 C177 1.214 . S
O176 Cd172 2.352 . S
O176 C179 1.258 . S
C177 O174 1.320 . S
C177 O175 1.214 . S
O178 Cd170 2.277 . S
O178 C173 1.209 . S
C179 O176 1.258 . S
C179 O181 1.282 . S
O180 Cd172 2.277 . S
O180 C173 1.226 . S
O181 Cd172 2.356 . S
O181 C179 1.282 . S
C182 O183 1.306 . S
C182 O185 1.160 . S
O183 C182 1.306 . S
O183 Cd184 2.228 . S
Cd184 O183 2.228 . S
Cd184 O188 2.273 . S
Cd184 O192 2.277 . S
O185 C182 1.160 . S
O185 Cd186 2.203 . S
Cd186 O185 2.203 . S
Cd186 O188 2.411 . S
Cd186 O189 2.333 . S
Cd186 O190 2.352 . S
Cd186 O194 2.277 . S
Cd186 O195 2.356 . S
C187 O192 1.209 . S
C187 O194 1.226 . S
O188 Cd184 2.273 . S
O188 Cd186 2.411 . S
O188 C191 1.320 . S
O189 Cd186 2.333 . S
O189 C191 1.214 . S
O190 Cd186 2.352 . S
O190 C193 1.258 . S
C191 O188 1.320 . S
C191 O189 1.214 . S
O192 Cd184 2.277 . S
O192 C187 1.209 . S
C193 O190 1.258 . S
C193 O195 1.282 . S
O194 Cd186 2.277 . S
O194 C187 1.226 . S
O195 Cd186 2.356 . S
O195 C193 1.282 . S
C196 O197 1.306 . S
C196 O199 1.160 . S
O197 C196 1.306 . S
O197 Cd198 2.228 . S
Cd198 O197 2.228 . S
Cd198 O202 2.273 . S
Cd198 O206 2.277 . S
O199 C196 1.160 . S
O199 Cd200 2.203 . S
Cd200 O199 2.203 . S
Cd200 O202 2.411 . S
Cd200 O203 2.333 . S
Cd200 O204 2.352 . S
Cd200 O208 2.277 . S
Cd200 O209 2.356 . S
C201 O206 1.209 . S
C201 O208 1.226 . S
O202 Cd198 2.273 . S
O202 Cd200 2.411 . S
O202 C205 1.320 . S
O203 Cd200 2.333 . S
O203 C205 1.214 . S
O204 Cd200 2.352 . S
O204 C207 1.258 . S
C205 O202 1.320 . S
C205 O203 1.214 . S
O206 Cd198 2.277 . S
O206 C201 1.209 . S
C207 O204 1.258 . S
C207 O209 1.282 . S
O208 Cd200 2.277 . S
O208 C201 1.226 . S
O209 Cd200 2.356 . S
O209 C207 1.282 . S
C210 O211 1.306 . S
C210 O213 1.160 . S
O211 C210 1.306 . S
O211 Cd212 2.228 . S
Cd212 O211 2.228 . S
Cd212 O216 2.273 . S
Cd212 O220 2.277 . S
O213 C210 1.160 . S
O213 Cd214 2.203 . S
Cd214 O213 2.203 . S
Cd214 O216 2.411 . S
Cd214 O217 2.333 . S
Cd214 O218 2.352 . S
Cd214 O222 2.277 . S
Cd214 O223 2.356 . S
C215 O220 1.209 . S
C215 O222 1.226 . S
O216 Cd212 2.273 . S
O216 Cd214 2.411 . S
O216 C219 1.320 . S
O217 Cd214 2.333 . S
O217 C219 1.214 . S
O218 Cd214 2.352 . S
O218 C221 1.258 . S
C219 O216 1.320 . S
C219 O217 1.214 . S
O220 Cd212 2.277 . S
O220 C215 1.209 . S
C221 O218 1.258 . S
C221 O223 1.282 . S
O222 Cd214 2.277 . S
O222 C215 1.226 . S
O223 Cd214 2.356 . S
O223 C221 1.282 . S
C224 O225 1.306 . S
C224 O227 1.160 . S
O225 C224 1.306 . S
O225 Cd226 2.228 . S
Cd226 O225 2.228 . S
Cd226 O230 2.273 . S
Cd226 O234 2.277 . S
O227 C224 1.160 . S
O227 Cd228 2.203 . S
Cd228 O227 2.203 . S
Cd228 O230 2.411 . S
Cd228 O231 2.333 . S
Cd228 O232 2.352 . S
Cd228 O236 2.277 . S
Cd228 O237 2.356 . S
C229 O234 1.209 . S
C229 O236 1.226 . S
O230 Cd226 2.273 . S
O230 Cd228 2.411 . S
O230 C233 1.320 . S
O231 Cd228 2.333 . S
O231 C233 1.214 . S
O232 Cd228 2.352 . S
O232 C235 1.258 . S
C233 O230 1.320 . S
C233 O231 1.214 . S
O234 Cd226 2.277 . S
O234 C229 1.209 . S
C235 O232 1.258 . S
C235 O237 1.282 . S
O236 Cd228 2.277 . S
O236 C229 1.226 . S
O237 Cd228 2.356 . S
O237 C235 1.282 . S
C238 O239 1.306 . S
C238 O241 1.160 . S
O239 C238 1.306 . S
O239 Cd240 2.228 . S
Cd240 O239 2.228 . S
Cd240 O244 2.273 . S
Cd240 O248 2.277 . S
O241 C238 1.160 . S
O241 Cd242 2.203 . S
Cd242 O241 2.203 . S
Cd242 O244 2.411 . S
Cd242 O245 2.333 1_545 S
Cd242 O246 2.352 . S
Cd242 O250 2.277 . S
Cd242 O251 2.356 . S
C243 O248 1.209 . S
C243 O250 1.226 . S
O244 Cd240 2.273 . S
O244 Cd242 2.411 . S
O244 C247 1.320 1_545 S
O245 Cd242 2.333 1_565 S
O245 C247 1.214 . S
O246 Cd242 2.352 . S
O246 C249 1.258 . S
C247 O244 1.320 1_565 S
C247 O245 1.214 . S
O248 Cd240 2.277 . S
O248 C243 1.209 . S
C249 O246 1.258 . S
C249 O251 1.282 . S
O250 Cd242 2.277 . S
O250 C243 1.226 . S
O251 Cd242 2.356 . S
O251 C249 1.282 . S
C252 O253 1.306 . S
C252 O255 1.160 . S
O253 C252 1.306 . S
O253 Cd254 2.228 . S
Cd254 O253 2.228 . S
Cd254 O258 2.273 . S
Cd254 O262 2.277 . S
O255 C252 1.160 . S
O255 Cd256 2.203 . S
Cd256 O255 2.203 . S
Cd256 O258 2.411 . S
Cd256 O259 2.333 1_545 S
Cd256 O260 2.352 . S
Cd256 O264 2.277 . S
Cd256 O265 2.356 . S
C257 O262 1.209 . S
C257 O264 1.226 . S
O258 Cd254 2.273 . S
O258 Cd256 2.411 . S
O258 C261 1.320 1_545 S
O259 Cd256 2.333 1_565 S
O259 C261 1.214 . S
O260 Cd256 2.352 . S
O260 C263 1.258 . S
C261 O258 1.320 1_565 S
C261 O259 1.214 . S
O262 Cd254 2.277 . S
O262 C257 1.209 . S
C263 O260 1.258 . S
C263 O265 1.282 . S
O264 Cd256 2.277 . S
O264 C257 1.226 . S
O265 Cd256 2.356 . S
O265 C263 1.282 . S
C266 O267 1.306 . S
C266 O269 1.160 . S
O267 C266 1.306 . S
O267 Cd268 2.228 . S
Cd268 O267 2.228 . S
Cd268 O272 2.273 . S
Cd268 O276 2.277 . S
O269 C266 1.160 . S
O269 Cd270 2.203 . S
Cd270 O269 2.203 . S
Cd270 O272 2.411 . S
Cd270 O273 2.333 . S
Cd270 O274 2.352 . S
Cd270 O278 2.277 . S
Cd270 O279 2.356 . S
C271 O276 1.209 . S
C271 O278 1.226 . S
O272 Cd268 2.273 . S
O272 Cd270 2.411 . S
O272 C275 1.320 . S
O273 Cd270 2.333 . S
O273 C275 1.214 . S
O274 Cd270 2.352 . S
O274 C277 1.258 . S
C275 O272 1.320 . S
C275 O273 1.214 . S
O276 Cd268 2.277 . S
O276 C271 1.209 . S
C277 O274 1.258 . S
C277 O279 1.282 . S
O278 Cd270 2.277 . S
O278 C271 1.226 . S
O279 Cd270 2.356 . S
O279 C277 1.282 . S
C280 O281 1.306 . S
C280 O283 1.160 . S
O281 C280 1.306 . S
O281 Cd282 2.228 . S
Cd282 O281 2.228 . S
Cd282 O286 2.273 . S
Cd282 O290 2.277 . S
O283 C280 1.160 . S
O283 Cd284 2.203 . S
Cd284 O283 2.203 . S
Cd284 O286 2.411 . S
Cd284 O287 2.333 . S
Cd284 O288 2.352 . S
Cd284 O292 2.277 . S
Cd284 O293 2.356 . S
C285 O290 1.209 . S
C285 O292 1.226 . S
O286 Cd282 2.273 . S
O286 Cd284 2.411 . S
O286 C289 1.320 . S
O287 Cd284 2.333 . S
O287 C289 1.214 . S
O288 Cd284 2.352 . S
O288 C291 1.258 . S
C289 O286 1.320 . S
C289 O287 1.214 . S
O290 Cd282 2.277 . S
O290 C285 1.209 . S
C291 O288 1.258 . S
C291 O293 1.282 . S
O292 Cd284 2.277 . S
O292 C285 1.226 . S
O293 Cd284 2.356 . S
O293 C291 1.282 . S
C294 O295 1.306 . S
C294 O297 1.160 . S
O295 C294 1.306 . S
O295 Cd296 2.228 . S
Cd296 O295 2.228 . S
Cd296 O300 2.273 . S
Cd296 O304 2.277 . S
O297 C294 1.160 . S
O297 Cd298 2.203 . S
Cd298 O297 2.203 . S
Cd298 O300 2.411 . S
Cd298 O301 2.333 1_565 S
Cd298 O302 2.352 . S
Cd298 O306 2.277 . S
Cd298 O307 2.356 . S
C299 O304 1.209 . S
C299 O306 1.226 . S
O300 Cd296 2.273 . S
O300 Cd298 2.411 . S
O300 C303 1.320 1_565 S
O301 Cd298 2.333 1_545 S
O301 C303 1.214 . S
O302 Cd298 2.352 . S
O302 C305 1.258 . S
C303 O300 1.320 1_545 S
C303 O301 1.214 . S
O304 Cd296 2.277 . S
O304 C299 1.209 . S
C305 O302 1.258 . S
C305 O307 1.282 . S
O306 Cd298 2.277 . S
O306 C299 1.226 . S
O307 Cd298 2.356 . S
O307 C305 1.282 . S
C308 O309 1.306 . S
C308 O311 1.160 . S
O309 C308 1.306 . S
O309 Cd310 2.228 . S
Cd310 O309 2.228 . S
Cd310 O314 2.273 . S
Cd310 O318 2.277 . S
O311 C308 1.160 . S
O311 Cd312 2.203 . S
Cd312 O311 2.203 . S
Cd312 O314 2.411 . S
Cd312 O315 2.333 1_565 S
Cd312 O316 2.352 . S
Cd312 O320 2.277 . S
Cd312 O321 2.356 . S
C313 O318 1.209 . S
C313 O320 1.226 . S
O314 Cd310 2.273 . S
O314 Cd312 2.411 . S
O314 C317 1.320 1_565 S
O315 Cd312 2.333 1_545 S
O315 C317 1.214 . S
O316 Cd312 2.352 . S
O316 C319 1.258 . S
C317 O314 1.320 1_545 S
C317 O315 1.214 . S
O318 Cd310 2.277 . S
O318 C313 1.209 . S
C319 O316 1.258 . S
C319 O321 1.282 . S
O320 Cd312 2.277 . S
O320 C313 1.226 . S
O321 Cd312 2.356 . S
O321 C319 1.282 . S
C322 O323 1.306 . S
C322 O325 1.160 . S
O323 C322 1.306 . S
O323 Cd324 2.228 . S
Cd324 O323 2.228 . S
Cd324 O328 2.273 . S
Cd324 O332 2.277 . S
O325 C322 1.160 . S
O325 Cd326 2.203 . S
Cd326 O325 2.203 . S
Cd326 O328 2.411 . S
Cd326 O329 2.333 . S
Cd326 O330 2.352 . S
Cd326 O334 2.277 . S
Cd326 O335 2.356 . S
C327 O332 1.209 . S
C327 O334 1.226 . S
O328 Cd324 2.273 . S
O328 Cd326 2.411 . S
O328 C331 1.320 . S
O329 Cd326 2.333 . S
O329 C331 1.214 . S
O330 Cd326 2.352 . S
O330 C333 1.258 . S
C331 O328 1.320 . S
C331 O329 1.214 . S
O332 Cd324 2.277 . S
O332 C327 1.209 . S
C333 O330 1.258 . S
C333 O335 1.282 . S
O334 Cd326 2.277 . S
O334 C327 1.226 . S
O335 Cd326 2.356 . S
O335 C333 1.282 . S
C336 O337 1.306 . S
C336 O339 1.160 . S
O337 C336 1.306 . S
O337 Cd338 2.228 . S
Cd338 O337 2.228 . S
Cd338 O342 2.273 . S
Cd338 O346 2.277 . S
O339 C336 1.160 . S
O339 Cd340 2.203 . S
Cd340 O339 2.203 . S
Cd340 O342 2.411 . S
Cd340 O343 2.333 . S
Cd340 O344 2.352 . S
Cd340 O348 2.277 . S
Cd340 O349 2.356 . S
C341 O346 1.209 . S
C341 O348 1.226 . S
O342 Cd338 2.273 . S
O342 Cd340 2.411 . S
O342 C345 1.320 . S
O343 Cd340 2.333 . S
O343 C345 1.214 . S
O344 Cd340 2.352 . S
O344 C347 1.258 . S
C345 O342 1.320 . S
C345 O343 1.214 . S
O346 Cd338 2.277 . S
O346 C341 1.209 . S
C347 O344 1.258 . S
C347 O349 1.282 . S
O348 Cd340 2.277 . S
O348 C341 1.226 . S
O349 Cd340 2.356 . S
O349 C347 1.282 . S
C350 O351 1.306 . S
C350 O353 1.160 . S
O351 C350 1.306 . S
O351 Cd352 2.228 . S
Cd352 O351 2.228 . S
Cd352 O356 2.273 . S
Cd352 O360 2.277 . S
O353 C350 1.160 . S
O353 Cd354 2.203 . S
Cd354 O353 2.203 . S
Cd354 O356 2.411 . S
Cd354 O357 2.333 . S
Cd354 O358 2.352 . S
Cd354 O362 2.277 . S
Cd354 O363 2.356 . S
C355 O360 1.209 . S
C355 O362 1.226 . S
O356 Cd352 2.273 . S
O356 Cd354 2.411 . S
O356 C359 1.320 . S
O357 Cd354 2.333 . S
O357 C359 1.214 . S
O358 Cd354 2.352 . S
O358 C361 1.258 . S
C359 O356 1.320 . S
C359 O357 1.214 . S
O360 Cd352 2.277 . S
O360 C355 1.209 . S
C361 O358 1.258 . S
C361 O363 1.282 . S
O362 Cd354 2.277 . S
O362 C355 1.226 . S
O363 Cd354 2.356 . S
O363 C361 1.282 . S
C364 O365 1.306 . S
C364 O367 1.160 . S
O365 C364 1.306 . S
O365 Cd366 2.228 . S
Cd366 O365 2.228 . S
Cd366 O370 2.273 . S
Cd366 O374 2.277 . S
O367 C364 1.160 . S
O367 Cd368 2.203 . S
Cd368 O367 2.203 . S
Cd368 O370 2.411 . S
Cd368 O371 2.333 . S
Cd368 O372 2.352 . S
Cd368 O376 2.277 . S
Cd368 O377 2.356 . S
C369 O374 1.209 . S
C369 O376 1.226 . S
O370 Cd366 2.273 . S
O370 Cd368 2.411 . S
O370 C373 1.320 . S
O371 Cd368 2.333 . S
O371 C373 1.214 . S
O372 Cd368 2.352 . S
O372 C375 1.258 . S
C373 O370 1.320 . S
C373 O371 1.214 . S
O374 Cd366 2.277 . S
O374 C369 1.209 . S
C375 O372 1.258 . S
C375 O377 1.282 . S
O376 Cd368 2.277 . S
O376 C369 1.226 . S
O377 Cd368 2.356 . S
O377 C375 1.282 . S
C378 O379 1.306 . S
C378 O381 1.160 . S
O379 C378 1.306 . S
O379 Cd380 2.228 . S
Cd380 O379 2.228 . S
Cd380 O384 2.273 . S
Cd380 O388 2.277 . S
O381 C378 1.160 . S
O381 Cd382 2.203 . S
Cd382 O381 2.203 . S
Cd382 O384 2.411 . S
Cd382 O385 2.333 . S
Cd382 O386 2.352 . S
Cd382 O390 2.277 . S
Cd382 O391 2.356 . S
C383 O388 1.209 . S
C383 O390 1.226 . S
O384 Cd380 2.273 . S
O384 Cd382 2.411 . S
O384 C387 1.320 . S
O385 Cd382 2.333 . S
O385 C387 1.214 . S
O386 Cd382 2.352 . S
O386 C389 1.258 . S
C387 O384 1.320 . S
C387 O385 1.214 . S
O388 Cd380 2.277 . S
O388 C383 1.209 . S
C389 O386 1.258 . S
C389 O391 1.282 . S
O390 Cd382 2.277 . S
O390 C383 1.226 . S
O391 Cd382 2.356 . S
O391 C389 1.282 . S
C392 O393 1.306 . S
C392 O395 1.160 . S
O393 C392 1.306 . S
O393 Cd394 2.228 . S
Cd394 O393 2.228 . S
Cd394 O398 2.273 . S
Cd394 O402 2.277 . S
O395 C392 1.160 . S
O395 Cd396 2.203 . S
Cd396 O395 2.203 . S
Cd396 O398 2.411 . S
Cd396 O399 2.333 . S
Cd396 O400 2.352 . S
Cd396 O404 2.277 . S
Cd396 O405 2.356 . S
C397 O402 1.209 . S
C397 O404 1.226 . S
O398 Cd394 2.273 . S
O398 Cd396 2.411 . S
O398 C401 1.320 . S
O399 Cd396 2.333 . S
O399 C401 1.214 . S
O400 Cd396 2.352 . S
O400 C403 1.258 . S
C401 O398 1.320 . S
C401 O399 1.214 . S
O402 Cd394 2.277 . S
O402 C397 1.209 . S
C403 O400 1.258 . S
C403 O405 1.282 . S
O404 Cd396 2.277 . S
O404 C397 1.226 . S
O405 Cd396 2.356 . S
O405 C403 1.282 . S
C406 O407 1.306 . S
C406 O409 1.160 . S
O407 C406 1.306 . S
O407 Cd408 2.228 . S
Cd408 O407 2.228 . S
Cd408 O412 2.273 . S
Cd408 O416 2.277 . S
O409 C406 1.160 . S
O409 Cd410 2.203 . S
Cd410 O409 2.203 . S
Cd410 O412 2.411 . S
Cd410 O413 2.333 . S
Cd410 O414 2.352 . S
Cd410 O418 2.277 . S
Cd410 O419 2.356 . S
C411 O416 1.209 . S
C411 O418 1.226 . S
O412 Cd408 2.273 . S
O412 Cd410 2.411 . S
O412 C415 1.320 . S
O413 Cd410 2.333 . S
O413 C415 1.214 . S
O414 Cd410 2.352 . S
O414 C417 1.258 . S
C415 O412 1.320 . S
C415 O413 1.214 . S
O416 Cd408 2.277 . S
O416 C411 1.209 . S
C417 O414 1.258 . S
C417 O419 1.282 . S
O418 Cd410 2.277 . S
O418 C411 1.226 . S
O419 Cd410 2.356 . S
O419 C417 1.282 . S
C420 O421 1.306 . S
C420 O423 1.160 . S
O421 C420 1.306 . S
O421 Cd422 2.228 . S
Cd422 O421 2.228 . S
Cd422 O426 2.273 . S
Cd422 O430 2.277 . S
O423 C420 1.160 . S
O423 Cd424 2.203 . S
Cd424 O423 2.203 . S
Cd424 O426 2.411 . S
Cd424 O427 2.333 . S
Cd424 O428 2.352 . S
Cd424 O432 2.277 . S
Cd424 O433 2.356 . S
C425 O430 1.209 . S
C425 O432 1.226 . S
O426 Cd422 2.273 . S
O426 Cd424 2.411 . S
O426 C429 1.320 . S
O427 Cd424 2.333 . S
O427 C429 1.214 . S
O428 Cd424 2.352 . S
O428 C431 1.258 . S
C429 O426 1.320 . S
C429 O427 1.214 . S
O430 Cd422 2.277 . S
O430 C425 1.209 . S
C431 O428 1.258 . S
C431 O433 1.282 . S
O432 Cd424 2.277 . S
O432 C425 1.226 . S
O433 Cd424 2.356 . S
O433 C431 1.282 . S
C434 O435 1.306 . S
C434 O437 1.160 . S
O435 C434 1.306 . S
O435 Cd436 2.228 . S
Cd436 O435 2.228 . S
Cd436 O440 2.273 . S
Cd436 O444 2.277 . S
O437 C434 1.160 . S
O437 Cd438 2.203 . S
Cd438 O437 2.203 . S
Cd438 O440 2.411 . S
Cd438 O441 2.333 . S
Cd438 O442 2.352 . S
Cd438 O446 2.277 . S
Cd438 O447 2.356 . S
C439 O444 1.209 . S
C439 O446 1.226 . S
O440 Cd436 2.273 . S
O440 Cd438 2.411 . S
O440 C443 1.320 . S
O441 Cd438 2.333 . S
O441 C443 1.214 . S
O442 Cd438 2.352 . S
O442 C445 1.258 . S
C443 O440 1.320 . S
C443 O441 1.214 . S
O444 Cd436 2.277 . S
O444 C439 1.209 . S
C445 O442 1.258 . S
C445 O447 1.282 . S
O446 Cd438 2.277 . S
O446 C439 1.226 . S
O447 Cd438 2.356 . S
O447 C445 1.282 . S
C448 C449 1.387 . S
C448 H452 0.950 . S
C448 C457 1.390 . S
C449 C448 1.387 . S
C449 C451 1.387 . S
H450 C457 0.950 . S
C451 C449 1.387 . S
C451 C453 1.390 . S
C451 H455 0.950 . S
H452 C448 0.950 . S
C453 C451 1.390 . S
C453 C454 1.387 . S
C453 H456 0.950 . S
C454 C453 1.387 . S
C454 C457 1.387 . S
H455 C451 0.950 . S
H456 C453 0.950 . S
C457 C448 1.390 . S
C457 H450 0.950 . S
C457 C454 1.387 . S
C458 C459 1.387 . S
C458 H462 0.950 . S
C458 C467 1.390 . S
C459 C458 1.387 . S
C459 C461 1.387 . S
H460 C467 0.950 . S
C461 C459 1.387 . S
C461 C463 1.390 . S
C461 H465 0.950 . S
H462 C458 0.950 . S
C463 C461 1.390 . S
C463 C464 1.387 . S
C463 H466 0.950 . S
C464 C463 1.387 . S
C464 C467 1.387 . S
H465 C461 0.950 . S
H466 C463 0.950 . S
C467 C458 1.390 . S
C467 H460 0.950 . S
C467 C464 1.387 . S
C468 C469 1.387 . S
C468 H472 0.950 . S
C468 C477 1.390 . S
C469 C468 1.387 . S
C469 C471 1.387 . S
H470 C477 0.950 . S
C471 C469 1.387 . S
C471 C473 1.390 . S
C471 H475 0.950 . S
H472 C468 0.950 . S
C473 C471 1.390 . S
C473 C474 1.387 . S
C473 H476 0.950 . S
C474 C473 1.387 . S
C474 C477 1.387 . S
H475 C471 0.950 . S
H476 C473 0.950 . S
C477 C468 1.390 . S
C477 H470 0.950 . S
C477 C474 1.387 . S
C478 C479 1.387 . S
C478 H482 0.950 . S
C478 C487 1.390 . S
C479 C478 1.387 . S
C479 C481 1.387 . S
H480 C487 0.950 . S
C481 C479 1.387 . S
C481 C483 1.390 . S
C481 H485 0.950 . S
H482 C478 0.950 . S
C483 C481 1.390 . S
C483 C484 1.387 . S
C483 H486 0.950 . S
C484 C483 1.387 . S
C484 C487 1.387 . S
H485 C481 0.950 . S
H486 C483 0.950 . S
C487 C478 1.390 . S
C487 H480 0.950 . S
C487 C484 1.387 . S
C488 C489 1.387 . S
C488 H492 0.950 . S
C488 C497 1.390 . S
C489 C488 1.387 . S
C489 C491 1.387 . S
H490 C497 0.950 . S
C491 C489 1.387 . S
C491 C493 1.390 . S
C491 H495 0.950 . S
H492 C488 0.950 . S
C493 C491 1.390 . S
C493 C494 1.387 . S
C493 H496 0.950 . S
C494 C493 1.387 . S
C494 C497 1.387 . S
H495 C491 0.950 . S
H496 C493 0.950 . S
C497 C488 1.390 . S
C497 H490 0.950 . S
C497 C494 1.387 . S
C498 C499 1.387 . S
C498 H502 0.950 . S
C498 C507 1.390 . S
C499 C498 1.387 . S
C499 C501 1.387 . S
H500 C507 0.950 . S
C501 C499 1.387 . S
C501 C503 1.390 . S
C501 H505 0.950 . S
H502 C498 0.950 . S
C503 C501 1.390 . S
C503 C504 1.387 . S
C503 H506 0.950 . S
C504 C503 1.387 . S
C504 C507 1.387 . S
H505 C501 0.950 . S
H506 C503 0.950 . S
C507 C498 1.390 . S
C507 H500 0.950 . S
C507 C504 1.387 . S
C508 C509 1.387 . S
C508 H512 0.950 . S
C508 C517 1.390 . S
C509 C508 1.387 . S
C509 C511 1.387 . S
H510 C517 0.950 . S
C511 C509 1.387 . S
C511 C513 1.390 . S
C511 H515 0.950 . S
H512 C508 0.950 . S
C513 C511 1.390 . S
C513 C514 1.387 . S
C513 H516 0.950 . S
C514 C513 1.387 . S
C514 C517 1.387 . S
H515 C511 0.950 . S
H516 C513 0.950 . S
C517 C508 1.390 . S
C517 H510 0.950 . S
C517 C514 1.387 . S
C518 C519 1.387 . S
C518 H522 0.950 . S
C518 C527 1.390 . S
C519 C518 1.387 . S
C519 C521 1.387 . S
H520 C527 0.950 . S
C521 C519 1.387 . S
C521 C523 1.390 . S
C521 H525 0.950 . S
H522 C518 0.950 . S
C523 C521 1.390 . S
C523 C524 1.387 . S
C523 H526 0.950 . S
C524 C523 1.387 . S
C524 C527 1.387 . S
H525 C521 0.950 . S
H526 C523 0.950 . S
C527 C518 1.390 . S
C527 H520 0.950 . S
C527 C524 1.387 . S
C528 C529 1.387 . S
C528 H532 0.950 . S
C528 C537 1.390 . S
C529 C528 1.387 . S
C529 C531 1.387 . S
H530 C537 0.950 . S
C531 C529 1.387 . S
C531 C533 1.390 . S
C531 H535 0.950 . S
H532 C528 0.950 . S
C533 C531 1.390 . S
C533 C534 1.387 . S
C533 H536 0.950 . S
C534 C533 1.387 . S
C534 C537 1.387 . S
H535 C531 0.950 . S
H536 C533 0.950 . S
C537 C528 1.390 . S
C537 H530 0.950 . S
C537 C534 1.387 . S
C538 C539 1.387 . S
C538 H542 0.950 . S
C538 C547 1.390 . S
C539 C538 1.387 . S
C539 C541 1.387 . S
H540 C547 0.950 . S
C541 C539 1.387 . S
C541 C543 1.390 . S
C541 H545 0.950 . S
H542 C538 0.950 . S
C543 C541 1.390 . S
C543 C544 1.387 . S
C543 H546 0.950 . S
C544 C543 1.387 . S
C544 C547 1.387 . S
H545 C541 0.950 . S
H546 C543 0.950 . S
C547 C538 1.390 . S
C547 H540 0.950 . S
C547 C544 1.387 . S
C548 C549 1.387 . S
C548 H552 0.950 . S
C548 C557 1.390 . S
C549 C548 1.387 . S
C549 C551 1.387 . S
H550 C557 0.950 . S
C551 C549 1.387 . S
C551 C553 1.390 . S
C551 H555 0.950 . S
H552 C548 0.950 . S
C553 C551 1.390 . S
C553 C554 1.387 . S
C553 H556 0.950 . S
C554 C553 1.387 . S
C554 C557 1.387 . S
H555 C551 0.950 . S
H556 C553 0.950 . S
C557 C548 1.390 . S
C557 H550 0.950 . S
C557 C554 1.387 . S
C558 C559 1.387 . S
C558 H562 0.950 . S
C558 C567 1.390 . S
C559 C558 1.387 . S
C559 C561 1.387 . S
H560 C567 0.950 . S
C561 C559 1.387 . S
C561 C563 1.390 . S
C561 H565 0.950 . S
H562 C558 0.950 . S
C563 C561 1.390 . S
C563 C564 1.387 . S
C563 H566 0.950 . S
C564 C563 1.387 . S
C564 C567 1.387 . S
H565 C561 0.950 . S
H566 C563 0.950 . S
C567 C558 1.390 . S
C567 H560 0.950 . S
C567 C564 1.387 . S
C568 C569 1.387 . S
C568 H572 0.950 . S
C568 C577 1.390 . S
C569 C568 1.387 . S
C569 C571 1.387 . S
H570 C577 0.950 . S
C571 C569 1.387 . S
C571 C573 1.390 . S
C571 H575 0.950 . S
H572 C568 0.950 . S
C573 C571 1.390 . S
C573 C574 1.387 . S
C573 H576 0.950 . S
C574 C573 1.387 . S
C574 C577 1.387 . S
H575 C571 0.950 . S
H576 C573 0.950 . S
C577 C568 1.390 . S
C577 H570 0.950 . S
C577 C574 1.387 . S
C578 C579 1.387 . S
C578 H582 0.950 . S
C578 C587 1.390 . S
C579 C578 1.387 . S
C579 C581 1.387 . S
H580 C587 0.950 . S
C581 C579 1.387 . S
C581 C583 1.390 . S
C581 H585 0.950 . S
H582 C578 0.950 . S
C583 C581 1.390 . S
C583 C584 1.387 . S
C583 H586 0.950 . S
C584 C583 1.387 . S
C584 C587 1.387 . S
H585 C581 0.950 . S
H586 C583 0.950 . S
C587 C578 1.390 . S
C587 H580 0.950 . S
C587 C584 1.387 . S
C588 C589 1.387 . S
C588 H592 0.950 . S
C588 C597 1.390 . S
C589 C588 1.387 . S
C589 C591 1.387 . S
H590 C597 0.950 . S
C591 C589 1.387 . S
C591 C593 1.390 . S
C591 H595 0.950 . S
H592 C588 0.950 . S
C593 C591 1.390 . S
C593 C594 1.387 . S
C593 H596 0.950 . S
C594 C593 1.387 . S
C594 C597 1.387 . S
H595 C591 0.950 . S
H596 C593 0.950 . S
C597 C588 1.390 . S
C597 H590 0.950 . S
C597 C594 1.387 . S
C598 C599 1.387 . S
C598 H602 0.950 . S
C598 C607 1.390 . S
C599 C598 1.387 . S
C599 C601 1.387 . S
H600 C607 0.950 . S
C601 C599 1.387 . S
C601 C603 1.390 . S
C601 H605 0.950 . S
H602 C598 0.950 . S
C603 C601 1.390 . S
C603 C604 1.387 . S
C603 H606 0.950 . S
C604 C603 1.387 . S
C604 C607 1.387 . S
H605 C601 0.950 . S
H606 C603 0.950 . S
C607 C598 1.390 . S
C607 H600 0.950 . S
C607 C604 1.387 . S
C608 C609 1.387 . S
C608 H612 0.950 . S
C608 C617 1.390 1_455 S
C609 C608 1.387 . S
C609 C611 1.387 . S
H610 C617 0.950 . S
C611 C609 1.387 . S
C611 C613 1.390 1_455 S
C611 H615 0.950 . S
H612 C608 0.950 . S
C613 C611 1.390 1_655 S
C613 C614 1.387 . S
C613 H616 0.950 . S
C614 C613 1.387 . S
C614 C617 1.387 . S
H615 C611 0.950 . S
H616 C613 0.950 . S
C617 C608 1.390 1_655 S
C617 H610 0.950 . S
C617 C614 1.387 . S
C618 C619 1.390 . S
C618 H622 0.950 . S
C618 C627 1.388 1_545 S
C619 C618 1.390 . S
C619 C621 1.387 . S
H620 C627 0.950 . S
C621 C619 1.387 . S
C621 C623 1.388 1_545 S
C621 H625 0.950 . S
H622 C618 0.950 . S
C623 C621 1.388 1_565 S
C623 C624 1.390 . S
C623 H626 0.950 . S
C624 C623 1.390 . S
C624 C627 1.387 . S
H625 C621 0.950 . S
H626 C623 0.950 . S
C627 C618 1.388 1_565 S
C627 H620 0.950 . S
C627 C624 1.387 . S
C628 C629 1.387 1_565 S
C628 H632 0.950 . S
C628 C637 1.390 1_455 S
C629 C628 1.387 1_545 S
C629 C631 1.387 1_556 S
H630 C637 0.950 . S
C631 C629 1.387 1_554 S
C631 C633 1.390 1_455 S
C631 H635 0.950 . S
H632 C628 0.950 . S
C633 C631 1.390 1_655 S
C633 C634 1.387 1_545 S
C633 H636 0.950 . S
C634 C633 1.387 1_565 S
C634 C637 1.387 1_554 S
H635 C631 0.950 . S
H636 C633 0.950 . S
C637 C628 1.390 1_655 S
C637 H630 0.950 . S
C637 C634 1.387 1_556 S
C638 C639 1.387 1_554 S
C638 H642 0.950 . S
C638 C647 1.390 . S
C639 C638 1.387 1_556 S
C639 C641 1.387 . S
H640 C647 0.950 . S
C641 C639 1.387 . S
C641 C643 1.390 . S
C641 H645 0.950 . S
H642 C638 0.950 . S
C643 C641 1.390 . S
C643 C644 1.387 1_556 S
C643 H646 0.950 . S
C644 C643 1.387 1_554 S
C644 C647 1.387 . S
H645 C641 0.950 . S
H646 C643 0.950 . S
C647 C638 1.390 . S
C647 H640 0.950 . S
C647 C644 1.387 . S
C648 C649 1.387 . S
C648 H652 0.950 . S
C648 C657 1.390 1_655 S
C649 C648 1.387 . S
C649 C651 1.387 . S
H650 C657 0.950 . S
C651 C649 1.387 . S
C651 C653 1.390 1_655 S
C651 H655 0.950 . S
H652 C648 0.950 . S
C653 C651 1.390 1_455 S
C653 C654 1.387 . S
C653 H656 0.950 . S
C654 C653 1.387 . S
C654 C657 1.387 . S
H655 C651 0.950 . S
H656 C653 0.950 . S
C657 C648 1.390 1_455 S
C657 H650 0.950 . S
C657 C654 1.387 . S
C658 C659 1.387 1_565 S
C658 H662 0.950 . S
C658 C667 1.390 . S
C659 C658 1.387 1_545 S
C659 C661 1.387 . S
H660 C667 0.950 . S
C661 C659 1.387 . S
C661 C663 1.390 . S
C661 H665 0.950 . S
H662 C658 0.950 . S
C663 C661 1.390 . S
C663 C664 1.387 1_545 S
C663 H666 0.950 . S
C664 C663 1.387 1_565 S
C664 C667 1.387 . S
H665 C661 0.950 . S
H666 C663 0.950 . S
C667 C658 1.390 . S
C667 H660 0.950 . S
C667 C664 1.387 . S
C668 C669 1.387 . S
C668 H672 0.950 . S
C668 C677 1.390 . S
C669 C668 1.387 . S
C669 C671 1.387 1_556 S
H670 C677 0.950 . S
C671 C669 1.387 1_554 S
C671 C673 1.390 . S
C671 H675 0.950 . S
H672 C668 0.950 . S
C673 C671 1.390 . S
C673 C674 1.387 . S
C673 H676 0.950 . S
C674 C673 1.387 . S
C674 C677 1.387 1_554 S
H675 C671 0.950 . S
H676 C673 0.950 . S
C677 C668 1.390 . S
C677 H670 0.950 . S
C677 C674 1.387 1_556 S
C678 C679 1.387 . S
C678 H682 0.950 . S
C678 C687 1.390 . S
C679 C678 1.387 . S
C679 C681 1.387 . S
H680 C687 0.950 . S
C681 C679 1.387 . S
C681 C683 1.390 . S
C681 H685 0.950 . S
H682 C678 0.950 . S
C683 C681 1.390 . S
C683 C684 1.387 . S
C683 H686 0.950 . S
C684 C683 1.387 . S
C684 C687 1.387 . S
H685 C681 0.950 . S
H686 C683 0.950 . S
C687 C678 1.390 . S
C687 H680 0.950 . S
C687 C684 1.387 . S
C688 C689 1.387 . S
C688 H692 0.950 . S
C688 C697 1.390 1_455 S
C689 C688 1.387 . S
C689 C691 1.387 . S
H690 C697 0.950 . S
C691 C689 1.387 . S
C691 C693 1.390 1_455 S
C691 H695 0.950 . S
H692 C688 0.950 . S
C693 C691 1.390 1_655 S
C693 C694 1.387 . S
C693 H696 0.950 . S
C694 C693 1.387 . S
C694 C697 1.387 . S
H695 C691 0.950 . S
H696 C693 0.950 . S
C697 C688 1.390 1_655 S
C697 H690 0.950 . S
C697 C694 1.387 . S
C698 C699 1.387 . S
C698 H702 0.950 . S
C698 C707 1.390 . S
C699 C698 1.387 . S
C699 C701 1.387 . S
H700 C707 0.950 . S
C701 C699 1.387 . S
C701 C703 1.390 . S
C701 H705 0.950 . S
H702 C698 0.950 . S
C703 C701 1.390 . S
C703 C704 1.387 . S
C703 H706 0.950 . S
C704 C703 1.387 . S
C704 C707 1.387 . S
H705 C701 0.950 . S
H706 C703 0.950 . S
C707 C698 1.390 . S
C707 H700 0.950 . S
C707 C704 1.387 . S
C708 C709 1.387 . S
C708 H712 0.950 . S
C708 C717 1.390 . S
C709 C708 1.387 . S
C709 C711 1.387 . S
H710 C717 0.950 . S
C711 C709 1.387 . S
C711 C713 1.390 . S
C711 H715 0.950 . S
H712 C708 0.950 . S
C713 C711 1.390 . S
C713 C714 1.387 . S
C713 H716 0.950 . S
C714 C713 1.387 . S
C714 C717 1.387 . S
H715 C711 0.950 . S
H716 C713 0.950 . S
C717 C708 1.390 . S
C717 H710 0.950 . S
C717 C714 1.387 . S
C718 C719 1.387 . S
C718 H722 0.950 . S
C718 C727 1.390 . S
C719 C718 1.387 . S
C719 C721 1.387 . S
H720 C727 0.950 . S
C721 C719 1.387 . S
C721 C723 1.390 . S
C721 H725 0.950 . S
H722 C718 0.950 . S
C723 C721 1.390 . S
C723 C724 1.387 . S
C723 H726 0.950 . S
C724 C723 1.387 . S
C724 C727 1.387 . S
H725 C721 0.950 . S
H726 C723 0.950 . S
C727 C718 1.390 . S
C727 H720 0.950 . S
C727 C724 1.387 . S
C728 C729 1.387 . S
C728 H732 0.950 . S
C728 C737 1.390 . S
C729 C728 1.387 . S
C729 C731 1.387 . S
H730 C737 0.950 . S
C731 C729 1.387 . S
C731 C733 1.390 . S
C731 H735 0.950 . S
H732 C728 0.950 . S
C733 C731 1.390 . S
C733 C734 1.387 . S
C733 H736 0.950 . S
C734 C733 1.387 . S
C734 C737 1.387 . S
H735 C731 0.950 . S
H736 C733 0.950 . S
C737 C728 1.390 . S
C737 H730 0.950 . S
C737 C734 1.387 . S
C738 C739 1.387 1_545 S
C738 H742 0.950 . S
C738 C747 1.390 . S
C739 C738 1.387 1_565 S
C739 C741 1.387 . S
H740 C747 0.950 . S
C741 C739 1.387 . S
C741 C743 1.390 . S
C741 H745 0.950 . S
H742 C738 0.950 . S
C743 C741 1.390 . S
C743 C744 1.387 1_565 S
C743 H746 0.950 . S
C744 C743 1.387 1_545 S
C744 C747 1.387 . S
H745 C741 0.950 . S
H746 C743 0.950 . S
C747 C738 1.390 . S
C747 H740 0.950 . S
C747 C744 1.387 . S
C748 C749 1.387 . S
C748 H752 0.950 . S
C748 C757 1.390 . S
C749 C748 1.387 . S
C749 C751 1.387 . S
H750 C757 0.950 . S
C751 C749 1.387 . S
C751 C753 1.390 . S
C751 H755 0.950 . S
H752 C748 0.950 . S
C753 C751 1.390 . S
C753 C754 1.387 . S
C753 H756 0.950 . S
C754 C753 1.387 . S
C754 C757 1.387 . S
H755 C751 0.950 . S
H756 C753 0.950 . S
C757 C748 1.390 . S
C757 H750 0.950 . S
C757 C754 1.387 . S
C758 C759 1.387 . S
C758 H762 0.950 . S
C758 C767 1.390 . S
C759 C758 1.387 . S
C759 C761 1.387 1_554 S
H760 C767 0.950 . S
C761 C759 1.387 1_556 S
C761 C763 1.390 . S
C761 H765 0.950 . S
H762 C758 0.950 . S
C763 C761 1.390 . S
C763 C764 1.387 . S
C763 H766 0.950 . S
C764 C763 1.387 . S
C764 C767 1.387 1_556 S
H765 C761 0.950 . S
H766 C763 0.950 . S
C767 C758 1.390 . S
C767 H760 0.950 . S
C767 C764 1.387 1_554 S
C768 C769 1.387 . S
C768 H772 0.950 . S
C768 C777 1.390 . S
C769 C768 1.387 . S
C769 C771 1.387 . S
H770 C777 0.950 . S
C771 C769 1.387 . S
C771 C773 1.390 . S
C771 H775 0.950 . S
H772 C768 0.950 . S
C773 C771 1.390 . S
C773 C774 1.387 . S
C773 H776 0.950 . S
C774 C773 1.387 . S
C774 C777 1.387 . S
H775 C771 0.950 . S
H776 C773 0.950 . S
C777 C768 1.390 . S
C777 H770 0.950 . S
C777 C774 1.387 . S
C778 C779 1.387 . S
C778 H782 0.950 . S
C778 C787 1.390 . S
C779 C778 1.387 . S
C779 C781 1.387 . S
H780 C787 0.950 . S
C781 C779 1.387 . S
C781 C783 1.390 . S
C781 H785 0.950 . S
H782 C778 0.950 . S
C783 C781 1.390 . S
C783 C784 1.387 . S
C783 H786 0.950 . S
C784 C783 1.387 . S
C784 C787 1.387 . S
H785 C781 0.950 . S
H786 C783 0.950 . S
C787 C778 1.390 . S
C787 H780 0.950 . S
C787 C784 1.387 . S
C788 C789 1.387 . S
C788 H792 0.950 . S
C788 C797 1.390 . S
C789 C788 1.387 . S
C789 C791 1.387 . S
H790 C797 0.950 . S
C791 C789 1.387 . S
C791 C793 1.390 . S
C791 H795 0.950 . S
H792 C788 0.950 . S
C793 C791 1.390 . S
C793 C794 1.387 . S
C793 H796 0.950 . S
C794 C793 1.387 . S
C794 C797 1.387 . S
H795 C791 0.950 . S
H796 C793 0.950 . S
C797 C788 1.390 . S
C797 H790 0.950 . S
C797 C794 1.387 . S
C798 C799 1.387 . S
C798 H802 0.950 . S
C798 C807 1.390 . S
C799 C798 1.387 . S
C799 C801 1.387 . S
H800 C807 0.950 . S
C801 C799 1.387 . S
C801 C803 1.390 . S
C801 H805 0.950 . S
H802 C798 0.950 . S
C803 C801 1.390 . S
C803 C804 1.387 . S
C803 H806 0.950 . S
C804 C803 1.387 . S
C804 C807 1.387 . S
H805 C801 0.950 . S
H806 C803 0.950 . S
C807 C798 1.390 . S
C807 H800 0.950 . S
C807 C804 1.387 . S
C808 C809 1.387 . S
C808 H812 0.950 . S
C808 C817 1.390 . S
C809 C808 1.387 . S
C809 C811 1.387 . S
H810 C817 0.950 . S
C811 C809 1.387 . S
C811 C813 1.390 . S
C811 H815 0.950 . S
H812 C808 0.950 . S
C813 C811 1.390 . S
C813 C814 1.387 . S
C813 H816 0.950 . S
C814 C813 1.387 . S
C814 C817 1.387 . S
H815 C811 0.950 . S
H816 C813 0.950 . S
C817 C808 1.390 . S
C817 H810 0.950 . S
C817 C814 1.387 . S
C818 C819 1.387 . S
C818 H822 0.950 . S
C818 C827 1.390 . S
C819 C818 1.387 . S
C819 C821 1.387 . S
H820 C827 0.950 . S
C821 C819 1.387 . S
C821 C823 1.390 . S
C821 H825 0.950 . S
H822 C818 0.950 . S
C823 C821 1.390 . S
C823 C824 1.387 . S
C823 H826 0.950 . S
C824 C823 1.387 . S
C824 C827 1.387 . S
H825 C821 0.950 . S
H826 C823 0.950 . S
C827 C818 1.390 . S
C827 H820 0.950 . S
C827 C824 1.387 . S
C828 C829 1.387 . S
C828 H832 0.950 . S
C828 C837 1.390 . S
C829 C828 1.387 . S
C829 C831 1.387 . S
H830 C837 0.950 . S
C831 C829 1.387 . S
C831 C833 1.390 . S
C831 H835 0.950 . S
H832 C828 0.950 . S
C833 C831 1.390 . S
C833 C834 1.387 . S
C833 H836 0.950 . S
C834 C833 1.387 . S
C834 C837 1.387 . S
H835 C831 0.950 . S
H836 C833 0.950 . S
C837 C828 1.390 . S
C837 H830 0.950 . S
C837 C834 1.387 . S
C838 C839 1.387 . S
C838 H842 0.950 . S
C838 C847 1.390 . S
C839 C838 1.387 . S
C839 C841 1.387 . S
H840 C847 0.950 . S
C841 C839 1.387 . S
C841 C843 1.390 . S
C841 H845 0.950 . S
H842 C838 0.950 . S
C843 C841 1.390 . S
C843 C844 1.387 . S
C843 H846 0.950 . S
C844 C843 1.387 . S
C844 C847 1.387 . S
H845 C841 0.950 . S
H846 C843 0.950 . S
C847 C838 1.390 . S
C847 H840 0.950 . S
C847 C844 1.387 . S
C848 C849 1.387 . S
C848 H852 0.950 . S
C848 C857 1.390 . S
C849 C848 1.387 . S
C849 C851 1.387 . S
H850 C857 0.950 . S
C851 C849 1.387 . S
C851 C853 1.390 . S
C851 H855 0.950 . S
H852 C848 0.950 . S
C853 C851 1.390 . S
C853 C854 1.387 . S
C853 H856 0.950 . S
C854 C853 1.387 . S
C854 C857 1.387 . S
H855 C851 0.950 . S
H856 C853 0.950 . S
C857 C848 1.390 . S
C857 H850 0.950 . S
C857 C854 1.387 . S
C858 C859 1.387 . S
C858 H862 0.950 . S
C858 C867 1.390 . S
C859 C858 1.387 . S
C859 C861 1.387 . S
H860 C867 0.950 . S
C861 C859 1.387 . S
C861 C863 1.390 . S
C861 H865 0.950 . S
H862 C858 0.950 . S
C863 C861 1.390 . S
C863 C864 1.387 . S
C863 H866 0.950 . S
C864 C863 1.387 . S
C864 C867 1.387 . S
H865 C861 0.950 . S
H866 C863 0.950 . S
C867 C858 1.390 . S
C867 H860 0.950 . S
C867 C864 1.387 . S
C868 C869 1.387 . S
C868 H872 0.950 . S
C868 C877 1.390 . S
C869 C868 1.387 . S
C869 C871 1.387 . S
H870 C877 0.950 . S
C871 C869 1.387 . S
C871 C873 1.390 . S
C871 H875 0.950 . S
H872 C868 0.950 . S
C873 C871 1.390 . S
C873 C874 1.387 . S
C873 H876 0.950 . S
C874 C873 1.387 . S
C874 C877 1.387 . S
H875 C871 0.950 . S
H876 C873 0.950 . S
C877 C868 1.390 . S
C877 H870 0.950 . S
C877 C874 1.387 . S
C878 C879 1.387 . S
C878 H882 0.950 . S
C878 C887 1.390 . S
C879 C878 1.387 . S
C879 C881 1.387 . S
H880 C887 0.950 . S
C881 C879 1.387 . S
C881 C883 1.390 . S
C881 H885 0.950 . S
H882 C878 0.950 . S
C883 C881 1.390 . S
C883 C884 1.387 . S
C883 H886 0.950 . S
C884 C883 1.387 . S
C884 C887 1.387 . S
H885 C881 0.950 . S
H886 C883 0.950 . S
C887 C878 1.390 . S
C887 H880 0.950 . S
C887 C884 1.387 . S
C888 C889 1.387 . S
C888 H892 0.950 . S
C888 C897 1.390 . S
C889 C888 1.387 . S
C889 C891 1.387 . S
H890 C897 0.950 . S
C891 C889 1.387 . S
C891 C893 1.390 . S
C891 H895 0.950 . S
H892 C888 0.950 . S
C893 C891 1.390 . S
C893 C894 1.387 . S
C893 H896 0.950 . S
C894 C893 1.387 . S
C894 C897 1.387 . S
H895 C891 0.950 . S
H896 C893 0.950 . S
C897 C888 1.390 . S
C897 H890 0.950 . S
C897 C894 1.387 . S
C898 C899 1.387 . S
C898 H902 0.950 . S
C898 C907 1.390 . S
C899 C898 1.387 . S
C899 C901 1.387 . S
H900 C907 0.950 . S
C901 C899 1.387 . S
C901 C903 1.390 . S
C901 H905 0.950 . S
H902 C898 0.950 . S
C903 C901 1.390 . S
C903 C904 1.387 . S
C903 H906 0.950 . S
C904 C903 1.387 . S
C904 C907 1.387 . S
H905 C901 0.950 . S
H906 C903 0.950 . S
C907 C898 1.390 . S
C907 H900 0.950 . S
C907 C904 1.387 . S
C908 C909 1.387 . S
C908 H912 0.950 . S
C908 C917 1.390 . S
C909 C908 1.387 . S
C909 C911 1.387 . S
H910 C917 0.950 . S
C911 C909 1.387 . S
C911 C913 1.390 . S
C911 H915 0.950 . S
H912 C908 0.950 . S
C913 C911 1.390 . S
C913 C914 1.387 . S
C913 H916 0.950 . S
C914 C913 1.387 . S
C914 C917 1.387 . S
H915 C911 0.950 . S
H916 C913 0.950 . S
C917 C908 1.390 . S
C917 H910 0.950 . S
C917 C914 1.387 . S
C918 C919 1.387 . S
C918 H922 0.950 . S
C918 C927 1.390 . S
C919 C918 1.387 . S
C919 C921 1.387 . S
H920 C927 0.950 . S
C921 C919 1.387 . S
C921 C923 1.390 . S
C921 H925 0.950 . S
H922 C918 0.950 . S
C923 C921 1.390 . S
C923 C924 1.387 . S
C923 H926 0.950 . S
C924 C923 1.387 . S
C924 C927 1.387 . S
H925 C921 0.950 . S
H926 C923 0.950 . S
C927 C918 1.390 . S
C927 H920 0.950 . S
C927 C924 1.387 . S
C928 C929 1.387 . S
C928 H932 0.950 . S
C928 C937 1.390 . S
C929 C928 1.387 . S
C929 C931 1.387 . S
H930 C937 0.950 . S
C931 C929 1.387 . S
C931 C933 1.390 . S
C931 H935 0.950 . S
H932 C928 0.950 . S
C933 C931 1.390 . S
C933 C934 1.387 . S
C933 H936 0.950 . S
C934 C933 1.387 . S
C934 C937 1.387 . S
H935 C931 0.950 . S
H936 C933 0.950 . S
C937 C928 1.390 . S
C937 H930 0.950 . S
C937 C934 1.387 . S
C938 C939 1.387 . S
C938 H942 0.950 . S
C938 C947 1.390 . S
C939 C938 1.387 . S
C939 C941 1.387 . S
H940 C947 0.950 . S
C941 C939 1.387 . S
C941 C943 1.390 . S
C941 H945 0.950 . S
H942 C938 0.950 . S
C943 C941 1.390 . S
C943 C944 1.387 . S
C943 H946 0.950 . S
C944 C943 1.387 . S
C944 C947 1.387 . S
H945 C941 0.950 . S
H946 C943 0.950 . S
C947 C938 1.390 . S
C947 H940 0.950 . S
C947 C944 1.387 . S
C948 C949 1.387 . S
C948 H952 0.950 . S
C948 C957 1.390 . S
C949 C948 1.387 . S
C949 C951 1.387 . S
H950 C957 0.950 . S
C951 C949 1.387 . S
C951 C953 1.390 . S
C951 H955 0.950 . S
H952 C948 0.950 . S
C953 C951 1.390 . S
C953 C954 1.387 . S
C953 H956 0.950 . S
C954 C953 1.387 . S
C954 C957 1.387 . S
H955 C951 0.950 . S
H956 C953 0.950 . S
C957 C948 1.390 . S
C957 H950 0.950 . S
C957 C954 1.387 . S
C958 C959 1.387 . S
C958 H962 0.950 . S
C958 C967 1.390 . S
C959 C958 1.387 . S
C959 C961 1.387 . S
H960 C967 0.950 . S
C961 C959 1.387 . S
C961 C963 1.390 . S
C961 H965 0.950 . S
H962 C958 0.950 . S
C963 C961 1.390 . S
C963 C964 1.387 . S
C963 H966 0.950 . S
C964 C963 1.387 . S
C964 C967 1.387 . S
H965 C961 0.950 . S
H966 C963 0.950 . S
C967 C958 1.390 . S
C967 H960 0.950 . S
C967 C964 1.387 . S
C968 C969 1.387 . S
C968 H972 0.950 . S
C968 C977 1.390 . S
C969 C968 1.387 . S
C969 C971 1.387 . S
H970 C977 0.950 . S
C971 C969 1.387 . S
C971 C973 1.390 . S
C971 H975 0.950 . S
H972 C968 0.950 . S
C973 C971 1.390 . S
C973 C974 1.387 . S
C973 H976 0.950 . S
C974 C973 1.387 . S
C974 C977 1.387 . S
H975 C971 0.950 . S
H976 C973 0.950 . S
C977 C968 1.390 . S
C977 H970 0.950 . S
C977 C974 1.387 . S
C978 C979 1.387 . S
C978 H982 0.950 . S
C978 C987 1.390 . S
C979 C978 1.387 . S
C979 C981 1.387 . S
H980 C987 0.950 . S
C981 C979 1.387 . S
C981 C983 1.390 . S
C981 H985 0.950 . S
H982 C978 0.950 . S
C983 C981 1.390 . S
C983 C984 1.387 . S
C983 H986 0.950 . S
C984 C983 1.387 . S
C984 C987 1.387 . S
H985 C981 0.950 . S
H986 C983 0.950 . S
C987 C978 1.390 . S
C987 H980 0.950 . S
C987 C984 1.387 . S
C988 C989 1.387 . S
C988 H992 0.950 . S
C988 C997 1.390 . S
C989 C988 1.387 . S
C989 C991 1.387 . S
H990 C997 0.950 . S
C991 C989 1.387 . S
C991 C993 1.390 . S
C991 H995 0.950 . S
H992 C988 0.950 . S
C993 C991 1.390 . S
C993 C994 1.387 . S
C993 H996 0.950 . S
C994 C993 1.387 . S
C994 C997 1.387 . S
H995 C991 0.950 . S
H996 C993 0.950 . S
C997 C988 1.390 . S
C997 H990 0.950 . S
C997 C994 1.387 . S
C998 C999 1.387 . S
C998 H1002 0.950 . S
C998 C1007 1.390 . S
C999 C998 1.387 . S
C999 C1001 1.387 . S
H1000 C1007 0.950 . S
C1001 C999 1.387 . S
C1001 C1003 1.390 . S
C1001 H1005 0.950 . S
H1002 C998 0.950 . S
C1003 C1001 1.390 . S
C1003 C1004 1.387 . S
C1003 H1006 0.950 . S
C1004 C1003 1.387 . S
C1004 C1007 1.387 . S
H1005 C1001 0.950 . S
H1006 C1003 0.950 . S
C1007 C998 1.390 . S
C1007 H1000 0.950 . S
C1007 C1004 1.387 . S
C1008 C1009 1.387 . S
C1008 H1012 0.950 . S
C1008 C1017 1.390 . S
C1009 C1008 1.387 . S
C1009 C1011 1.387 . S
H1010 C1017 0.950 . S
C1011 C1009 1.387 . S
C1011 C1013 1.390 . S
C1011 H1015 0.950 . S
H1012 C1008 0.950 . S
C1013 C1011 1.390 . S
C1013 C1014 1.387 . S
C1013 H1016 0.950 . S
C1014 C1013 1.387 . S
C1014 C1017 1.387 . S
H1015 C1011 0.950 . S
H1016 C1013 0.950 . S
C1017 C1008 1.390 . S
C1017 H1010 0.950 . S
C1017 C1014 1.387 . S
C1018 C1019 1.387 . S
C1018 H1022 0.950 . S
C1018 C1027 1.390 . S
C1019 C1018 1.387 . S
C1019 C1021 1.387 . S
H1020 C1027 0.950 . S
C1021 C1019 1.387 . S
C1021 C1023 1.390 . S
C1021 H1025 0.950 . S
H1022 C1018 0.950 . S
C1023 C1021 1.390 . S
C1023 C1024 1.387 . S
C1023 H1026 0.950 . S
C1024 C1023 1.387 . S
C1024 C1027 1.387 . S
H1025 C1021 0.950 . S
H1026 C1023 0.950 . S
C1027 C1018 1.390 . S
C1027 H1020 0.950 . S
C1027 C1024 1.387 . S
C1028 C1029 1.387 . S
C1028 H1032 0.950 . S
C1028 C1037 1.390 . S
C1029 C1028 1.387 . S
C1029 C1031 1.387 . S
H1030 C1037 0.950 . S
C1031 C1029 1.387 . S
C1031 C1033 1.390 . S
C1031 H1035 0.950 . S
H1032 C1028 0.950 . S
C1033 C1031 1.390 . S
C1033 C1034 1.387 . S
C1033 H1036 0.950 . S
C1034 C1033 1.387 . S
C1034 C1037 1.387 . S
H1035 C1031 0.950 . S
H1036 C1033 0.950 . S
C1037 C1028 1.390 . S
C1037 H1030 0.950 . S
C1037 C1034 1.387 . S
C1038 C1039 1.387 . S
C1038 H1042 0.950 . S
C1038 C1047 1.390 . S
C1039 C1038 1.387 . S
C1039 C1041 1.387 . S
H1040 C1047 0.950 . S
C1041 C1039 1.387 . S
C1041 C1043 1.390 . S
C1041 H1045 0.950 . S
H1042 C1038 0.950 . S
C1043 C1041 1.390 . S
C1043 C1044 1.387 . S
C1043 H1046 0.950 . S
C1044 C1043 1.387 . S
C1044 C1047 1.387 . S
H1045 C1041 0.950 . S
H1046 C1043 0.950 . S
C1047 C1038 1.390 . S
C1047 H1040 0.950 . S
C1047 C1044 1.387 . S
C1048 C1049 1.387 . S
C1048 H1052 0.950 . S
C1048 C1057 1.390 . S
C1049 C1048 1.387 . S
C1049 C1051 1.387 . S
H1050 C1057 0.950 . S
C1051 C1049 1.387 . S
C1051 C1053 1.390 . S
C1051 H1055 0.950 . S
H1052 C1048 0.950 . S
C1053 C1051 1.390 . S
C1053 C1054 1.387 . S
C1053 H1056 0.950 . S
C1054 C1053 1.387 . S
C1054 C1057 1.387 . S
H1055 C1051 0.950 . S
H1056 C1053 0.950 . S
C1057 C1048 1.390 . S
C1057 H1050 0.950 . S
C1057 C1054 1.387 . S
C1058 C1059 1.387 . S
C1058 H1062 0.950 . S
C1058 C1067 1.390 . S
C1059 C1058 1.387 . S
C1059 C1061 1.387 . S
H1060 C1067 0.950 . S
C1061 C1059 1.387 . S
C1061 C1063 1.390 . S
C1061 H1065 0.950 . S
H1062 C1058 0.950 . S
C1063 C1061 1.390 . S
C1063 C1064 1.387 . S
C1063 H1066 0.950 . S
C1064 C1063 1.387 . S
C1064 C1067 1.387 . S
H1065 C1061 0.950 . S
H1066 C1063 0.950 . S
C1067 C1058 1.390 . S
C1067 H1060 0.950 . S
C1067 C1064 1.387 . S
C1068 C1069 1.387 . S
C1068 H1072 0.950 . S
C1068 C1077 1.390 . S
C1069 C1068 1.387 . S
C1069 C1071 1.387 . S
H1070 C1077 0.950 . S
C1071 C1069 1.387 . S
C1071 C1073 1.390 . S
C1071 H1075 0.950 . S
H1072 C1068 0.950 . S
C1073 C1071 1.390 . S
C1073 C1074 1.387 . S
C1073 H1076 0.950 . S
C1074 C1073 1.387 . S
C1074 C1077 1.387 . S
H1075 C1071 0.950 . S
H1076 C1073 0.950 . S
C1077 C1068 1.390 . S
C1077 H1070 0.950 . S
C1077 C1074 1.387 . S
C1078 C1079 1.387 . S
C1078 H1082 0.950 . S
C1078 C1087 1.390 . S
C1079 C1078 1.387 . S
C1079 C1081 1.387 . S
H1080 C1087 0.950 . S
C1081 C1079 1.387 . S
C1081 C1083 1.390 . S
C1081 H1085 0.950 . S
H1082 C1078 0.950 . S
C1083 C1081 1.390 . S
C1083 C1084 1.387 . S
C1083 H1086 0.950 . S
C1084 C1083 1.387 . S
C1084 C1087 1.387 . S
H1085 C1081 0.950 . S
H1086 C1083 0.950 . S
C1087 C1078 1.390 . S
C1087 H1080 0.950 . S
C1087 C1084 1.387 . S
C449 C5 1.451 . S
C454 C19 1.451 . S
C459 C47 1.451 . S
C464 C33 1.451 . S
C469 C61 1.451 . S
C474 C75 1.451 . S
C479 C89 1.451 . S
C484 C103 1.451 . S
C489 C117 1.451 . S
C494 C131 1.451 . S
C499 C145 1.451 . S
C504 C159 1.451 . S
C509 C173 1.451 . S
C514 C187 1.451 . S
C519 C201 1.451 . S
C524 C215 1.451 . S
C529 C243 1.451 . S
C534 C229 1.451 . S
C539 C271 1.451 . S
C544 C257 1.451 . S
C549 C299 1.451 . S
C554 C285 1.451 . S
C559 C327 1.451 . S
C564 C313 1.451 . S
C569 C355 1.451 . S
C574 C341 1.451 . S
C579 C383 1.451 . S
C584 C369 1.451 . S
C589 C411 1.451 . S
C594 C397 1.451 . S
C599 C439 1.451 . S
C604 C425 1.451 . S
C609 C11 1.539 . S
C614 C179 1.539 . S
C619 C25 1.539 . S
C624 C305 1.539 . S
C629 C39 1.539 . S
C634 C95 1.539 . S
C639 C53 1.536 . S
C644 C445 1.536 . S
C649 C67 1.536 . S
C654 C123 1.536 . S
C659 C249 1.538 . S
C664 C81 1.538 . S
C669 C389 1.540 . S
C674 C109 1.540 . S
C679 C137 1.537 . S
C684 C417 1.537 . S
C689 C151 1.539 . S
C694 C207 1.539 . S
C699 C165 1.536 . S
C704 C333 1.536 . S
C709 C193 1.539 . S
C714 C361 1.539 . S
C719 C221 1.536 . S
C724 C277 1.536 . S
C729 C403 1.539 . S
C734 C235 1.539 . S
C739 C319 1.537 . S
C744 C263 1.537 . S
C749 C291 1.539 . S
C754 C347 1.539 . S
C759 C431 1.537 . S
C764 C375 1.537 . S
C769 C149 0.992 . S
C774 C9 0.992 . S
C779 C163 0.990 . S
C784 C23 0.990 . S
C789 C37 0.990 . S
C794 C121 0.990 . S
C799 C135 0.992 . S
C804 C51 0.992 . S
C809 C65 0.992 . S
C814 C205 0.992 . S
C819 C79 0.992 . S
C824 C219 0.992 . S
C829 C177 0.990 . S
C834 C93 0.990 . S
C839 C191 0.992 . S
C844 C107 0.992 . S
C849 C233 0.992 . S
C854 C373 0.992 . S
C859 C387 0.992 . S
C864 C247 0.992 . S
C869 C345 0.992 . S
C874 C261 0.992 . S
C879 C275 0.992 . S
C884 C359 0.992 . S
C889 C429 0.992 . S
C894 C289 0.992 . S
C899 C303 0.990 . S
C904 C443 0.990 . S
C909 C401 0.990 . S
C914 C317 0.990 . S
C919 C415 0.990 . S
C924 C331 0.990 . S
C929 C140 1.533 . S
C934 C0 1.533 1_565 S
C939 C154 1.535 . S
C944 C14 1.535 . S
C949 C112 1.533 . S
C954 C28 1.533 . S
C959 C42 1.533 1_565 S
C964 C126 1.533 . S
C969 C196 1.533 . S
C974 C56 1.533 1_545 S
C979 C210 1.535 . S
C984 C70 1.535 . S
C989 C168 1.533 . S
C994 C84 1.533 . S
C999 C182 1.533 . S
C1004 C98 1.533 1_545 S
C1009 C364 1.535 . S
C1014 C224 1.535 1_565 S
C1019 C378 1.533 . S
C1024 C238 1.533 . S
C1029 C336 1.535 . S
C1034 C252 1.535 . S
C1039 C266 1.533 1_565 S
C1044 C350 1.533 . S
C1049 C420 1.535 . S
C1054 C280 1.535 1_545 S
C1059 C294 1.533 . S
C1064 C434 1.533 . S
C1069 C392 1.533 . S
C1074 C308 1.533 . S
C1079 C322 1.533 1_545 S
C1084 C406 1.533 . S
