# Generated by pormake.
# Topology fni, (5)-cn, num edge types: 1
# Building blocks:
#     Node 0, Type 0, BuildingBlock: BEQFEK_clean_sbu_0, # of connection points: 5
#     Node 1, Type 0, BuildingBlock: BEQFEK_clean_sbu_0, # of connection points: 5
#     Node 2, Type 0, BuildingBlock: BEQFEK_clean_sbu_0, # of connection points: 5
#     Node 3, Type 0, BuildingBlock: BEQFEK_clean_sbu_0, # of connection points: 5
#     Node 4, Type 0, BuildingBlock: BEQFEK_clean_sbu_0, # of connection points: 5
#     Node 5, Type 0, BuildingBlock: BEQFEK_clean_sbu_0, # of connection points: 5
#     Node 6, Type 0, BuildingBlock: BEQFEK_clean_sbu_0, # of connection points: 5
#     Node 7, Type 0, BuildingBlock: BEQFEK_clean_sbu_0, # of connection points: 5
#     Edge 8, Type (0, 0), BuildingBlock: OJICUG_clean_linker_0, # of connection points: 2
#     Edge 9, Type (0, 0), BuildingBlock: OJICUG_clean_linker_0, # of connection points: 2
#     Edge 10, Type (0, 0), BuildingBlock: OJICUG_clean_linker_0, # of connection points: 2
#     Edge 11, Type (0, 0), BuildingBlock: OJICUG_clean_linker_0, # of connection points: 2
#     Edge 12, Type (0, 0), BuildingBlock: OJICUG_clean_linker_0, # of connection points: 2
#     Edge 13, Type (0, 0), BuildingBlock: OJICUG_clean_linker_0, # of connection points: 2
#     Edge 14, Type (0, 0), BuildingBlock: OJICUG_clean_linker_0, # of connection points: 2
#     Edge 15, Type (0, 0), BuildingBlock: OJICUG_clean_linker_0, # of connection points: 2
#     Edge 16, Type (0, 0), BuildingBlock: OJICUG_clean_linker_0, # of connection points: 2
#     Edge 17, Type (0, 0), BuildingBlock: OJICUG_clean_linker_0, # of connection points: 2
#     Edge 18, Type (0, 0), BuildingBlock: OJICUG_clean_linker_0, # of connection points: 2
#     Edge 19, Type (0, 0), BuildingBlock: OJICUG_clean_linker_0, # of connection points: 2
#     Edge 20, Type (0, 0), BuildingBlock: OJICUG_clean_linker_0, # of connection points: 2
#     Edge 21, Type (0, 0), BuildingBlock: OJICUG_clean_linker_0, # of connection points: 2
#     Edge 22, Type (0, 0), BuildingBlock: OJICUG_clean_linker_0, # of connection points: 2
#     Edge 23, Type (0, 0), BuildingBlock: OJICUG_clean_linker_0, # of connection points: 2
#     Edge 24, Type (0, 0), BuildingBlock: OJICUG_clean_linker_0, # of connection points: 2
#     Edge 25, Type (0, 0), BuildingBlock: OJICUG_clean_linker_0, # of connection points: 2
#     Edge 26, Type (0, 0), BuildingBlock: OJICUG_clean_linker_0, # of connection points: 2
#     Edge 27, Type (0, 0), BuildingBlock: OJICUG_clean_linker_0, # of connection points: 2
# Relax obj value: 0.172
# Max RMSD: 0.223
# Mean RMSD: 0.192
data_MOF--net-fni--node1-BEQFEK_clean_sbu_0--edge1-OJICUG_clean_linker_0
_symmetry_space_group_name_H-M    P1
_symmetry_Int_Tables_number       1
_symmetry_cell_setting            triclinic
loop_
_symmetry_equiv_pos_as_xyz
'x, y, z'
_cell_length_a     38.036286
_cell_length_b     40.129078
_cell_length_c     15.003454
_cell_angle_alpha  91.339808
_cell_angle_beta   90.496135
_cell_angle_gamma 89.935625
loop_
_atom_site_label
_atom_site_type_symbol
_atom_site_fract_x
_atom_site_fract_y
_atom_site_fract_z
_atom_type_partial_charge
Co0 Co 0.36499 0.39327 0.11506 0.0
Co1 Co 0.39051 0.37406 0.92386 0.0
C2 C 0.31387 0.39063 0.96878 0.0
O3 O 0.31904 0.39793 0.05109 0.0
O4 O 0.339 0.38084 0.91938 0.0
C5 C 0.35331 0.42053 0.30721 0.0
O6 O 0.33962 0.44966 0.28888 0.0
C7 C 0.39223 0.39442 0.74055 0.0
C8 C 0.41804 0.35187 0.67215 0.0
C9 C 0.40063 0.38167 0.65659 0.0
N10 N 0.4037 0.373 0.80202 0.0
N11 N 0.41967 0.34787 0.76092 0.0
C12 C 0.37097 0.42494 0.76248 0.0
H13 H 0.34636 0.42499 0.72223 0.0
H14 H 0.36489 0.42668 0.83443 0.0
H15 H 0.3863 0.44745 0.74635 0.0
C16 C 0.41991 0.4458 0.0947 0.0
N17 N 0.40114 0.41933 0.06442 0.0
N18 N 0.4131 0.40992 0.98569 0.0
C19 C 0.44026 0.42965 0.9642 0.0
C20 C 0.44523 0.4532 0.03224 0.0
C21 C 0.41481 0.46268 0.18351 0.0
H22 H 0.417 0.44401 0.23657 0.0
H23 H 0.3881 0.47371 0.18579 0.0
H24 H 0.43455 0.48257 0.19647 0.0
O25 O 0.37932 0.34592 0.11283 0.0
O26 O 0.40054 0.33073 0.98106 0.0
H27 H 0.46463 0.39968 0.86177 0.0
H28 H 0.48619 0.43923 0.88427 0.0
C29 C 0.46045 0.42639 0.87925 0.0
H30 H 0.44507 0.43782 0.82484 0.0
H31 H 0.42987 0.32715 0.79303 0.0
O32 O 0.36238 0.40045 0.24504 0.0
C33 C 0.39313 0.32408 0.06139 0.0
Co34 Co 0.61102 0.87625 0.36038 0.0
Co35 Co 0.63758 0.89152 0.16929 0.0
C36 C 0.60905 0.82352 0.22084 0.0
O37 O 0.60255 0.83196 0.30154 0.0
O38 O 0.62242 0.84396 0.16704 0.0
C39 C 0.61237 0.85991 0.53944 0.0
O40 O 0.63213 0.83562 0.50756 0.0
C41 C 0.62686 0.89026 0.97813 0.0
C42 C 0.66854 0.92289 0.92815 0.0
C43 C 0.64113 0.90221 0.90114 0.0
N44 N 0.64499 0.90281 0.04826 0.0
N45 N 0.66979 0.92258 0.01812 0.0
C46 C 0.59571 0.86785 0.98439 0.0
H47 H 0.58289 0.87103 0.05017 0.0
H48 H 0.57643 0.87309 0.9305 0.0
H49 H 0.60472 0.84176 0.97522 0.0
C50 C 0.56348 0.93232 0.32031 0.0
N51 N 0.58958 0.91119 0.29774 0.0
N52 N 0.60166 0.91886 0.21899 0.0
C53 C 0.58381 0.9455 0.18918 0.0
C54 C 0.55896 0.95482 0.25236 0.0
C55 C 0.54469 0.93182 0.4075 0.0
H56 H 0.53466 0.90632 0.4188 0.0
H57 H 0.52265 0.94992 0.41011 0.0
H58 H 0.56361 0.93808 0.46206 0.0
O59 O 0.66198 0.88379 0.37157 0.0
O60 O 0.68268 0.8958 0.23863 0.0
H61 H 0.57391 0.98389 0.09264 0.0
H62 H 0.58199 0.94271 0.047 0.0
C63 C 0.58961 0.96084 0.10058 0.0
H64 H 0.61793 0.96659 0.09296 0.0
H65 H 0.68793 0.93535 0.05874 0.0
O66 O 0.59639 0.87866 0.48552 0.0
C67 C 0.68743 0.89137 0.32179 0.0
Co68 Co 0.11221 0.12576 0.41497 0.0
Co69 Co 0.14155 0.10794 0.60381 0.0
C70 C 0.11181 0.17683 0.55706 0.0
O71 O 0.10345 0.1696 0.47628 0.0
O72 O 0.12633 0.15539 0.60673 0.0
C73 C 0.11191 0.14171 0.23254 0.0
O74 O 0.1311 0.16683 0.26257 0.0
C75 C 0.12649 0.10664 0.79261 0.0
C76 C 0.17372 0.08384 0.85174 0.0
C77 C 0.14178 0.09852 0.87299 0.0
N78 N 0.14822 0.09739 0.72634 0.0
N79 N 0.17634 0.0834 0.76202 0.0
C80 C 0.09128 0.1225 0.77948 0.0
H81 H 0.08364 0.12226 0.70797 0.0
H82 H 0.07128 0.10889 0.81789 0.0
H83 H 0.09189 0.14846 0.8062 0.0
C84 C 0.06409 0.07039 0.45608 0.0
N85 N 0.09133 0.09049 0.47717 0.0
N86 N 0.10577 0.08084 0.55203 0.0
C87 C 0.08927 0.05326 0.57928 0.0
C88 C 0.06182 0.04563 0.51972 0.0
C89 C 0.03957 0.07669 0.37972 0.0
H90 H 0.03883 0.1037 0.36555 0.0
H91 H 0.01257 0.06809 0.39452 0.0
H92 H 0.04921 0.0632 0.31931 0.0
O93 O 0.16362 0.1185 0.40481 0.0
O94 O 0.18601 0.10397 0.5352 0.0
H95 H 0.09539 0.00664 0.64694 0.0
H96 H 0.08854 0.04293 0.71835 0.0
C97 C 0.10161 0.03348 0.65694 0.0
H98 H 0.13042 0.0363 0.66608 0.0
H99 H 0.19781 0.07464 0.72549 0.0
O100 O 0.09735 0.12283 0.28809 0.0
C101 C 0.18971 0.1099 0.45265 0.0
Co102 Co 0.86671 0.60994 0.67572 0.0
Co103 Co 0.89184 0.63039 0.86746 0.0
C104 C 0.81548 0.61224 0.81897 0.0
O105 O 0.82073 0.60473 0.73705 0.0
O106 O 0.84044 0.62268 0.86908 0.0
C107 C 0.85613 0.58236 0.48257 0.0
O108 O 0.84296 0.55297 0.49954 0.0
C109 C 0.8938 0.61021 0.0511 0.0
C110 C 0.91853 0.65327 0.12076 0.0
C111 C 0.90193 0.62308 0.13547 0.0
N112 N 0.90467 0.63192 0.99019 0.0
N113 N 0.91998 0.65737 0.03207 0.0
C114 C 0.87336 0.57923 0.02817 0.0
H115 H 0.8671 0.57748 0.95606 0.0
H116 H 0.88936 0.55705 0.04437 0.0
H117 H 0.84889 0.5785 0.06781 0.0
C118 C 0.92164 0.55755 0.70171 0.0
N119 N 0.90312 0.58448 0.72925 0.0
N120 N 0.91511 0.59452 0.80795 0.0
C121 C 0.9421 0.57475 0.83203 0.0
C122 C 0.94684 0.55046 0.76594 0.0
C123 C 0.91615 0.53971 0.61414 0.0
H124 H 0.88929 0.52903 0.61189 0.0
H125 H 0.93563 0.51944 0.60342 0.0
H126 H 0.91849 0.55771 0.5596 0.0
O127 O 0.8802 0.65749 0.67769 0.0
O128 O 0.90114 0.67376 0.80973 0.0
H129 H 0.98841 0.56653 0.91363 0.0
H130 H 0.94738 0.56628 0.97141 0.0
C131 C 0.96218 0.57848 0.91792 0.0
H132 H 0.96536 0.60525 0.93616 0.0
H133 H 0.92966 0.67832 0.00046 0.0
O134 O 0.86456 0.60246 0.54563 0.0
C135 C 0.89357 0.67985 0.72881 0.0
Co136 Co 0.40139 0.14169 0.34054 0.0
Co137 Co 0.3782 0.1198 0.14851 0.0
C138 C 0.39906 0.19139 0.20161 0.0
O139 O 0.40733 0.18545 0.28227 0.0
O140 O 0.38727 0.16846 0.14972 0.0
C141 C 0.43157 0.15017 0.53253 0.0
O142 O 0.46328 0.16096 0.51486 0.0
C143 C 0.39921 0.11762 0.96411 0.0
C144 C 0.35318 0.0954 0.89494 0.0
C145 C 0.38558 0.11012 0.87991 0.0
N146 N 0.37588 0.10807 0.02529 0.0
N147 N 0.34862 0.09432 0.98372 0.0
C148 C 0.43246 0.13606 0.98677 0.0
H149 H 0.43421 0.14226 0.05891 0.0
H150 H 0.45537 0.12008 0.97015 0.0
H151 H 0.43417 0.15907 0.9474 0.0
C152 C 0.4536 0.08696 0.30863 0.0
N153 N 0.4269 0.10675 0.28272 0.0
N154 N 0.41562 0.09642 0.20362 0.0
C155 C 0.43427 0.06938 0.17753 0.0
C156 C 0.45916 0.06273 0.24279 0.0
C157 C 0.4717 0.08976 0.39729 0.0
H158 H 0.45192 0.08835 0.4509 0.0
H159 H 0.48498 0.1143 0.40315 0.0
H160 H 0.49142 0.0697 0.40619 0.0
O161 O 0.35109 0.1297 0.34144 0.0
O162 O 0.33262 0.11131 0.20893 0.0
H163 H 0.39957 0.04814 0.07808 0.0
H164 H 0.43999 0.02501 0.09366 0.0
C165 C 0.42818 0.05025 0.09195 0.0
H166 H 0.44042 0.06381 0.03674 0.0
H167 H 0.32622 0.08577 0.01568 0.0
O168 O 0.40993 0.14336 0.47001 0.0
C169 C 0.32693 0.11784 0.2911 0.0
Co170 Co 0.87714 0.88366 0.62732 0.0
Co171 Co 0.90072 0.85918 0.43833 0.0
C172 C 0.82572 0.88346 0.4834 0.0
O173 O 0.83155 0.89123 0.56518 0.0
O174 O 0.84981 0.87086 0.43477 0.0
C175 C 0.871 0.91238 0.82262 0.0
O176 O 0.858 0.94219 0.80913 0.0
C177 C 0.90514 0.87907 0.25504 0.0
C178 C 0.92566 0.83413 0.1858 0.0
C179 C 0.91232 0.86581 0.17067 0.0
N180 N 0.91342 0.85623 0.316 0.0
N181 N 0.9262 0.82958 0.27443 0.0
C182 C 0.88821 0.91183 0.27819 0.0
H183 H 0.88135 0.91354 0.34966 0.0
H184 H 0.90699 0.93226 0.26561 0.0
H185 H 0.86436 0.91554 0.23642 0.0
C186 C 0.93295 0.93393 0.59378 0.0
N187 N 0.91438 0.90642 0.57127 0.0
N188 N 0.9268 0.89353 0.49675 0.0
C189 C 0.95498 0.91119 0.47185 0.0
C190 C 0.9598 0.93792 0.53197 0.0
C191 C 0.92222 0.95766 0.66689 0.0
H192 H 0.89323 0.95735 0.67305 0.0
H193 H 0.93066 0.98349 0.6534 0.0
H194 H 0.93403 0.94966 0.73081 0.0
O195 O 0.88717 0.83502 0.62872 0.0
O196 O 0.90667 0.81602 0.49853 0.0
H197 H 0.0056 0.90855 0.40813 0.0
H198 H 0.9684 0.91308 0.33389 0.0
C199 C 0.97792 0.901 0.39531 0.0
H200 H 0.97682 0.8736 0.3842 0.0
H201 H 0.9336 0.80775 0.30609 0.0
O202 O 0.87731 0.89261 0.75744 0.0
C203 C 0.89871 0.81127 0.57955 0.0
Co204 Co 0.10105 0.36103 0.85046 0.0
Co205 Co 0.12419 0.38185 0.66146 0.0
C206 C 0.10342 0.31059 0.70662 0.0
O207 O 0.09532 0.31704 0.78751 0.0
O208 O 0.11504 0.33321 0.65683 0.0
C209 C 0.07037 0.35292 0.03942 0.0
O210 O 0.03846 0.34276 0.01869 0.0
C211 C 0.10342 0.384 0.47641 0.0
C212 C 0.14949 0.40625 0.41226 0.0
C213 C 0.11703 0.39166 0.39392 0.0
N214 N 0.12678 0.3934 0.53986 0.0
N215 N 0.15407 0.40714 0.50136 0.0
C216 C 0.07011 0.36561 0.49505 0.0
H217 H 0.06836 0.35925 0.56623 0.0
H218 H 0.04724 0.38167 0.47969 0.0
H219 H 0.06834 0.3427 0.45237 0.0
C220 C 0.0497 0.41651 0.8225 0.0
N221 N 0.07579 0.396 0.79517 0.0
N222 N 0.08701 0.40575 0.71725 0.0
C223 C 0.06893 0.43307 0.69331 0.0
C224 C 0.0445 0.44062 0.75885 0.0
C225 C 0.03204 0.41461 0.91084 0.0
H226 H 0.05219 0.41535 0.96467 0.0
H227 H 0.01771 0.39064 0.91399 0.0
H228 H 0.01327 0.43546 0.92187 0.0
O229 O 0.15136 0.37284 0.85564 0.0
O230 O 0.16968 0.39027 0.72508 0.0
H231 H 0.10383 0.45372 0.59759 0.0
H232 H 0.06332 0.47688 0.61215 0.0
C233 C 0.07519 0.45165 0.60952 0.0
H234 H 0.06315 0.43766 0.55253 0.0
H235 H 0.17648 0.41562 0.53548 0.0
O236 O 0.09224 0.3594 0.97898 0.0
C237 C 0.17547 0.38427 0.80698 0.0
Co238 Co 0.60238 0.6367 0.94072 0.0
Co239 Co 0.62924 0.61738 0.13031 0.0
C240 C 0.60665 0.68809 0.08259 0.0
O241 O 0.59699 0.6811 0.00259 0.0
O242 O 0.61946 0.66581 0.1323 0.0
C243 C 0.60335 0.65356 0.75952 0.0
O244 O 0.62455 0.67709 0.79 0.0
C245 C 0.61599 0.62006 0.31947 0.0
C246 C 0.65655 0.58746 0.37702 0.0
C247 C 0.6291 0.60874 0.39926 0.0
N248 N 0.63485 0.60649 0.25259 0.0
N249 N 0.65898 0.58678 0.28725 0.0
C250 C 0.58469 0.64214 0.30702 0.0
H251 H 0.57351 0.63875 0.23886 0.0
H252 H 0.56433 0.63658 0.3571 0.0
H253 H 0.59266 0.66849 0.3174 0.0
C254 C 0.55137 0.58322 0.97715 0.0
N255 N 0.57869 0.60279 0.00146 0.0
N256 N 0.59081 0.59352 0.0794 0.0
C257 C 0.57184 0.56739 0.10682 0.0
C258 C 0.54613 0.56009 0.04305 0.0
C259 C 0.53259 0.58526 0.88939 0.0
H260 H 0.52466 0.61146 0.878 0.0
H261 H 0.50912 0.5689 0.88593 0.0
H262 H 0.55086 0.57763 0.83538 0.0
O263 O 0.65285 0.62553 0.93064 0.0
O264 O 0.67318 0.60916 0.06155 0.0
H265 H 0.56198 0.52725 0.19779 0.0
H266 H 0.57093 0.56739 0.24899 0.0
C267 C 0.57799 0.55021 0.19303 0.0
H268 H 0.60629 0.54394 0.19997 0.0
H269 H 0.67752 0.57345 0.24992 0.0
O270 O 0.58728 0.63561 0.81453 0.0
C271 C 0.67777 0.61472 0.97906 0.0
C272 C 0.48419 0.53973 0.04109 0.0
C273 C 0.52032 0.53271 0.04251 0.0
H274 H 0.4319 0.5196 0.03729 0.0
C275 C 0.53172 0.49944 0.04163 0.0
H276 H 0.47496 0.56529 0.04191 0.0
C277 C 0.50725 0.47348 0.03841 0.0
C278 C 0.47112 0.4805 0.03649 0.0
H279 H 0.55953 0.4936 0.04238 0.0
H280 H 0.51648 0.44792 0.03752 0.0
C281 C 0.45972 0.51377 0.03859 0.0
C282 C 0.5209 0.04175 0.24393 0.0
C283 C 0.48471 0.03509 0.24416 0.0
H284 H 0.57302 0.02109 0.24547 0.0
C285 C 0.47301 0.002 0.24685 0.0
H286 H 0.53034 0.06718 0.24217 0.0
C287 C 0.49725 0.97583 0.24936 0.0
C288 C 0.53345 0.98245 0.24856 0.0
H289 H 0.44515 0.99646 0.24779 0.0
H290 H 0.48778 0.95042 0.25175 0.0
C291 C 0.54515 0.01555 0.24557 0.0
C292 C 1.00026 0.97957 0.60793 0.0
C293 C 0.98644 0.9651 0.52895 0.0
H294 H 0.03245 0.0177 0.66735 0.0
C295 C 0.99804 0.97711 0.44704 0.0
H296 H 0.99274 0.97054 0.67239 0.0
C297 C 0.02328 0.00232 0.44418 0.0
C298 C 0.03612 0.01765 0.52308 0.0
H299 H 0.98747 0.96739 0.38461 0.0
H300 H 0.03262 0.00968 0.37973 0.0
C301 C 0.02397 0.00612 0.60503 0.0
C302 C 0.03195 0.50173 0.76411 0.0
C303 C 0.01957 0.46879 0.76202 0.0
H304 H 0.01827 0.55367 0.76663 0.0
C305 C 0.98326 0.46281 0.76257 0.0
H306 H 0.05992 0.50678 0.76438 0.0
C307 C 0.95957 0.48947 0.76381 0.0
C308 C 0.97194 0.52242 0.76556 0.0
H309 H 0.97327 0.43752 0.76107 0.0
H310 H 0.93159 0.48443 0.76362 0.0
C311 C 0.00827 0.52839 0.76589 0.0
C312 C 0.36709 0.37769 0.41913 0.0
C313 C 0.36253 0.41148 0.39927 0.0
H314 H 0.38248 0.34209 0.51539 0.0
C315 C 0.37029 0.43585 0.46507 0.0
H316 H 0.3614 0.3583 0.36964 0.0
C317 C 0.38315 0.42649 0.54868 0.0
C318 C 0.38774 0.39261 0.56838 0.0
H319 H 0.36779 0.46208 0.45081 0.0
H320 H 0.39043 0.44591 0.59626 0.0
C321 C 0.37948 0.3684 0.50252 0.0
C322 C 0.62199 0.91475 0.74617 0.0
C323 C 0.63215 0.89146 0.80946 0.0
H324 H 0.60635 0.92273 0.61093 0.0
C325 C 0.63355 0.85749 0.78519 0.0
H326 H 0.62063 0.94104 0.76401 0.0
C327 C 0.62587 0.847 0.69784 0.0
C328 C 0.61591 0.87025 0.63397 0.0
H329 H 0.64154 0.83916 0.83324 0.0
H330 H 0.62826 0.82079 0.67991 0.0
C331 C 0.61346 0.90418 0.65922 0.0
C332 C 0.12991 0.14365 0.98532 0.0
C333 C 0.13048 0.10953 0.9626 0.0
H334 H 0.12355 0.18068 0.08934 0.0
C335 C 0.12192 0.08623 0.02699 0.0
H336 H 0.13665 0.162 0.93646 0.0
C337 C 0.11347 0.09691 0.11369 0.0
C338 C 0.11447 0.13103 0.13782 0.0
H339 H 0.12227 0.0598 0.01054 0.0
H340 H 0.10791 0.07834 0.1629 0.0
C341 C 0.12237 0.15431 0.07249 0.0
C342 C 0.88585 0.57764 0.24216 0.0
C343 C 0.8896 0.61167 0.22321 0.0
H344 H 0.87147 0.5415 0.33878 0.0
C345 C 0.88102 0.63554 0.28934 0.0
H346 H 0.89347 0.55849 0.19447 0.0
C347 C 0.86904 0.62578 0.37218 0.0
C348 C 0.86521 0.59186 0.39117 0.0
H349 H 0.8834 0.66194 0.27709 0.0
H350 H 0.86302 0.64494 0.42187 0.0
C351 C 0.87339 0.56782 0.32516 0.0
C352 C 0.37384 0.12993 0.7267 0.0
C353 C 0.39842 0.12097 0.79219 0.0
H354 H 0.36514 0.14685 0.59461 0.0
C355 C 0.4345 0.12285 0.77258 0.0
H356 H 0.34588 0.12896 0.73955 0.0
C357 C 0.44567 0.13379 0.68946 0.0
C358 C 0.42091 0.14236 0.62404 0.0
H359 H 0.45418 0.11496 0.81986 0.0
H360 H 0.47354 0.13432 0.67529 0.0
C361 C 0.38492 0.14045 0.64377 0.0
C362 C 0.89377 0.85593 0.01249 0.0
C363 C 0.90212 0.87871 0.08196 0.0
H364 H 0.87697 0.84871 0.8773 0.0
C365 C 0.89996 0.91307 0.06525 0.0
H366 H 0.89506 0.82932 0.02254 0.0
C367 C 0.88872 0.92427 0.98194 0.0
C368 C 0.88034 0.90134 0.91306 0.0
H369 H 0.90766 0.93147 0.11515 0.0
H370 H 0.88761 0.95082 0.97067 0.0
C371 C 0.88313 0.86707 0.9292 0.0
C372 C 0.0679 0.37989 0.28295 0.0
C373 C 0.10402 0.38112 0.30429 0.0
H374 H 0.02865 0.36923 0.18244 0.0
C375 C 0.12843 0.37181 0.23874 0.0
H376 H 0.04839 0.38806 0.33049 0.0
C377 C 0.11716 0.36158 0.15399 0.0
C378 C 0.08113 0.36034 0.13244 0.0
H379 H 0.1564 0.37229 0.25296 0.0
H380 H 0.13681 0.35489 0.10484 0.0
C381 C 0.05653 0.36925 0.1979 0.0
C382 C 0.60264 0.60868 0.64131 0.0
C383 C 0.60528 0.64275 0.66497 0.0
H384 H 0.60911 0.57111 0.53833 0.0
C385 C 0.61408 0.66559 0.59939 0.0
H386 H 0.59641 0.59044 0.69084 0.0
C387 C 0.62065 0.65453 0.51207 0.0
C388 C 0.61941 0.62038 0.48958 0.0
H389 H 0.6166 0.6919 0.61606 0.0
H390 H 0.62806 0.67254 0.46295 0.0
C391 C 0.61019 0.59755 0.55454 0.0
C392 C 0.24087 0.39078 0.79483 0.0
C393 C 0.21074 0.38944 0.84775 0.0
H394 H 0.29701 0.39194 0.79168 0.0
C395 C 0.21467 0.39099 0.94132 0.0
H396 H 0.23877 0.38962 0.72277 0.0
C397 C 0.24805 0.39274 0.98107 0.0
C398 C 0.27826 0.39247 0.92813 0.0
H399 H 0.19191 0.39026 0.98414 0.0
H400 H 0.25019 0.39309 0.05313 0.0
C401 C 0.27426 0.39201 0.83457 0.0
C402 C 0.6151 0.76243 0.24258 0.0
C403 C 0.60392 0.78871 0.18953 0.0
H404 H 0.62584 0.71042 0.24957 0.0
C405 C 0.59137 0.78159 0.10276 0.0
H406 H 0.62521 0.76728 0.30937 0.0
C407 C 0.59129 0.74886 0.06822 0.0
C408 C 0.60403 0.72264 0.11981 0.0
H409 H 0.58178 0.80136 0.06142 0.0
H410 H 0.58198 0.74427 0.00062 0.0
C411 C 0.61548 0.72982 0.20788 0.0
C412 C 0.26137 0.11055 0.27774 0.0
C413 C 0.29188 0.11241 0.33084 0.0
H414 H 0.20513 0.10844 0.27464 0.0
C415 C 0.28861 0.11095 0.42419 0.0
H416 H 0.263 0.1116 0.20581 0.0
C417 C 0.25557 0.1088 0.46372 0.0
C418 C 0.22494 0.10849 0.41095 0.0
H419 H 0.31164 0.11203 0.46715 0.0
H420 H 0.25402 0.10852 0.53576 0.0
C421 C 0.22824 0.10885 0.3174 0.0
C422 C 0.90058 0.71728 0.59899 0.0
C423 C 0.89899 0.71342 0.69201 0.0
H424 H 0.90232 0.75105 0.49054 0.0
C425 C 0.90012 0.74197 0.74776 0.0
H426 H 0.90003 0.69574 0.5541 0.0
C427 C 0.90098 0.77373 0.71105 0.0
C428 C 0.90134 0.77759 0.61788 0.0
H429 H 0.8989 0.73984 0.81951 0.0
H430 H 0.9007 0.79531 0.7558 0.0
C431 C 0.90203 0.74898 0.56239 0.0
C432 C 0.7606 0.89298 0.49535 0.0
C433 C 0.79055 0.8886 0.44244 0.0
H434 H 0.70457 0.89728 0.49865 0.0
C435 C 0.78653 0.88776 0.3489 0.0
H436 H 0.76277 0.89381 0.56741 0.0
C437 C 0.75323 0.89016 0.30926 0.0
C438 C 0.72312 0.89299 0.36227 0.0
H439 H 0.80913 0.8847 0.30603 0.0
H440 H 0.751 0.88856 0.23726 0.0
C441 C 0.72724 0.89491 0.45574 0.0
C442 C 0.10077 0.23817 0.53967 0.0
C443 C 0.10583 0.21083 0.59505 0.0
H444 H 0.09625 0.29122 0.53175 0.0
C445 C 0.10726 0.21648 0.68808 0.0
H446 H 0.09963 0.23473 0.46788 0.0
C447 C 0.1046 0.24871 0.72485 0.0
C448 C 0.10129 0.27615 0.66929 0.0
H449 H 0.11127 0.19605 0.73276 0.0
H450 H 0.10676 0.25223 0.7965 0.0
C451 C 0.0989 0.27052 0.57637 0.0
C452 C 0.71635 0.60935 0.84459 0.0
C453 C 0.71287 0.61041 0.93813 0.0
H454 H 0.75144 0.60859 0.73327 0.0
C455 C 0.74332 0.60968 0.99138 0.0
H456 H 0.69334 0.6097 0.80156 0.0
C457 C 0.7765 0.60949 0.95214 0.0
C458 C 0.78007 0.60948 0.8587 0.0
H459 H 0.74159 0.61053 0.06342 0.0
H460 H 0.79943 0.61001 0.99539 0.0
C461 C 0.74961 0.60862 0.80528 0.0
C462 C 0.40014 0.28559 0.1894 0.0
C463 C 0.39901 0.29031 0.0966 0.0
H464 H 0.40165 0.25072 0.29554 0.0
C465 C 0.40094 0.26233 0.03907 0.0
H466 H 0.39896 0.30671 0.23563 0.0
C467 C 0.40202 0.23026 0.07359 0.0
C468 C 0.4018 0.22548 0.16638 0.0
H469 H 0.40011 0.26512 0.96744 0.0
H470 H 0.40224 0.20913 0.02735 0.0
C471 C 0.40181 0.25354 0.22392 0.0
loop_
_geom_bond_atom_site_label_1
_geom_bond_atom_site_label_2
_geom_bond_distance
_geom_bond_site_symmetry_2
_ccdc_geom_bond_type
Co0 O3 1.970 . S
Co0 N17 1.989 . S
Co0 O25 1.967 . S
Co0 O32 1.920 . S
Co1 O4 1.966 . S
Co1 N10 2.022 . S
Co1 N18 1.993 . S
Co1 O26 1.941 . S
C2 O3 1.258 . S
C2 O4 1.263 1_554 S
O3 Co0 1.970 . S
O3 C2 1.258 . S
O4 Co1 1.966 . S
O4 C2 1.263 1_556 S
C5 O6 1.235 . S
C5 O32 1.289 . S
O6 C5 1.235 . S
C7 C9 1.400 . S
C7 N10 1.351 . S
C7 C12 1.501 . S
C8 C9 1.387 . S
C8 N11 1.341 . S
C9 C7 1.400 . S
C9 C8 1.387 . S
N10 Co1 2.022 . S
N10 C7 1.351 . S
N10 N11 1.365 . S
N11 C8 1.341 . S
N11 N10 1.365 . S
N11 H31 0.862 . S
C12 C7 1.501 . S
C12 H13 0.961 . S
C12 H14 0.961 . S
C12 H15 0.960 . S
H13 C12 0.961 . S
H14 C12 0.961 . S
H15 C12 0.960 . S
C16 N17 1.342 . S
C16 C20 1.401 . S
C16 C21 1.499 . S
N17 Co0 1.989 . S
N17 C16 1.342 . S
N17 N18 1.388 1_554 S
N18 Co1 1.993 . S
N18 N17 1.388 1_556 S
N18 C19 1.346 . S
C19 N18 1.346 . S
C19 C20 1.396 1_556 S
C19 C29 1.510 . S
C20 C16 1.401 . S
C20 C19 1.396 1_554 S
C21 C16 1.499 . S
C21 H22 0.959 . S
C21 H23 0.960 . S
C21 H24 0.961 . S
H22 C21 0.959 . S
H23 C21 0.960 . S
H24 C21 0.961 . S
O25 Co0 1.967 . S
O25 C33 1.258 . S
O26 Co1 1.941 . S
O26 C33 1.266 1_556 S
H27 C29 0.959 . S
H28 C29 0.961 . S
C29 C19 1.510 . S
C29 H27 0.959 . S
C29 H28 0.961 . S
C29 H30 0.960 . S
H30 C29 0.960 . S
H31 N11 0.862 . S
O32 Co0 1.920 . S
O32 C5 1.289 . S
C33 O25 1.258 . S
C33 O26 1.266 1_554 S
Co34 O37 1.970 . S
Co34 N51 1.989 . S
Co34 O59 1.967 . S
Co34 O66 1.920 . S
Co35 O38 1.966 . S
Co35 N44 2.022 . S
Co35 N52 1.993 . S
Co35 O60 1.941 . S
C36 O37 1.258 . S
C36 O38 1.263 . S
O37 Co34 1.970 . S
O37 C36 1.258 . S
O38 Co35 1.966 . S
O38 C36 1.263 . S
C39 O40 1.235 . S
C39 O66 1.289 . S
O40 C39 1.235 . S
C41 C43 1.400 . S
C41 N44 1.351 1_556 S
C41 C46 1.501 . S
C42 C43 1.387 . S
C42 N45 1.341 . S
C43 C41 1.400 . S
C43 C42 1.387 . S
N44 Co35 2.022 . S
N44 C41 1.351 1_554 S
N44 N45 1.365 1_554 S
N45 C42 1.341 . S
N45 N44 1.365 1_556 S
N45 H65 0.862 1_556 S
C46 C41 1.501 . S
C46 H47 0.961 1_556 S
C46 H48 0.961 . S
C46 H49 0.960 . S
H47 C46 0.961 1_554 S
H48 C46 0.961 . S
H49 C46 0.960 . S
C50 N51 1.342 . S
C50 C54 1.401 . S
C50 C55 1.499 . S
N51 Co34 1.989 . S
N51 C50 1.342 . S
N51 N52 1.388 . S
N52 Co35 1.993 . S
N52 N51 1.388 . S
N52 C53 1.346 . S
C53 N52 1.346 . S
C53 C54 1.396 . S
C53 C63 1.510 . S
C54 C50 1.401 . S
C54 C53 1.396 . S
C55 C50 1.499 . S
C55 H56 0.959 . S
C55 H57 0.960 . S
C55 H58 0.961 . S
H56 C55 0.959 . S
H57 C55 0.960 . S
H58 C55 0.961 . S
O59 Co34 1.967 . S
O59 C67 1.258 . S
O60 Co35 1.941 . S
O60 C67 1.266 . S
H61 C63 0.959 . S
H62 C63 0.961 . S
C63 C53 1.510 . S
C63 H61 0.959 . S
C63 H62 0.961 . S
C63 H64 0.960 . S
H64 C63 0.960 . S
H65 N45 0.862 1_554 S
O66 Co34 1.920 . S
O66 C39 1.289 . S
C67 O59 1.258 . S
C67 O60 1.266 . S
Co68 O71 1.970 . S
Co68 N85 1.989 . S
Co68 O93 1.967 . S
Co68 O100 1.920 . S
Co69 O72 1.966 . S
Co69 N78 2.022 . S
Co69 N86 1.993 . S
Co69 O94 1.941 . S
C70 O71 1.258 . S
C70 O72 1.263 . S
O71 Co68 1.970 . S
O71 C70 1.258 . S
O72 Co69 1.966 . S
O72 C70 1.263 . S
C73 O74 1.235 . S
C73 O100 1.289 . S
O74 C73 1.235 . S
C75 C77 1.400 . S
C75 N78 1.351 . S
C75 C80 1.501 . S
C76 C77 1.387 . S
C76 N79 1.341 . S
C77 C75 1.400 . S
C77 C76 1.387 . S
N78 Co69 2.022 . S
N78 C75 1.351 . S
N78 N79 1.365 . S
N79 C76 1.341 . S
N79 N78 1.365 . S
N79 H99 0.862 . S
C80 C75 1.501 . S
C80 H81 0.961 . S
C80 H82 0.961 . S
C80 H83 0.960 . S
H81 C80 0.961 . S
H82 C80 0.961 . S
H83 C80 0.960 . S
C84 N85 1.342 . S
C84 C88 1.401 . S
C84 C89 1.499 . S
N85 Co68 1.989 . S
N85 C84 1.342 . S
N85 N86 1.388 . S
N86 Co69 1.993 . S
N86 N85 1.388 . S
N86 C87 1.346 . S
C87 N86 1.346 . S
C87 C88 1.396 . S
C87 C97 1.510 . S
C88 C84 1.401 . S
C88 C87 1.396 . S
C89 C84 1.499 . S
C89 H90 0.959 . S
C89 H91 0.960 . S
C89 H92 0.961 . S
H90 C89 0.959 . S
H91 C89 0.960 . S
H92 C89 0.961 . S
O93 Co68 1.967 . S
O93 C101 1.258 . S
O94 Co69 1.941 . S
O94 C101 1.266 . S
H95 C97 0.959 . S
H96 C97 0.961 . S
C97 C87 1.510 . S
C97 H95 0.959 . S
C97 H96 0.961 . S
C97 H98 0.960 . S
H98 C97 0.960 . S
H99 N79 0.862 . S
O100 Co68 1.920 . S
O100 C73 1.289 . S
C101 O93 1.258 . S
C101 O94 1.266 . S
Co102 O105 1.970 . S
Co102 N119 1.989 . S
Co102 O127 1.967 . S
Co102 O134 1.920 . S
Co103 O106 1.966 . S
Co103 N112 2.022 1_556 S
Co103 N120 1.993 . S
Co103 O128 1.941 . S
C104 O105 1.258 . S
C104 O106 1.263 . S
O105 Co102 1.970 . S
O105 C104 1.258 . S
O106 Co103 1.966 . S
O106 C104 1.263 . S
C107 O108 1.235 . S
C107 O134 1.289 . S
O108 C107 1.235 . S
C109 C111 1.400 . S
C109 N112 1.351 . S
C109 C114 1.501 . S
C110 C111 1.387 . S
C110 N113 1.341 . S
C111 C109 1.400 . S
C111 C110 1.387 . S
N112 Co103 2.022 1_554 S
N112 C109 1.351 . S
N112 N113 1.365 . S
N113 C110 1.341 . S
N113 N112 1.365 . S
N113 H133 0.862 . S
C114 C109 1.501 . S
C114 H115 0.961 . S
C114 H116 0.961 . S
C114 H117 0.960 . S
H115 C114 0.961 . S
H116 C114 0.961 . S
H117 C114 0.960 . S
C118 N119 1.342 . S
C118 C122 1.401 . S
C118 C123 1.499 . S
N119 Co102 1.989 . S
N119 C118 1.342 . S
N119 N120 1.388 . S
N120 Co103 1.993 . S
N120 N119 1.388 . S
N120 C121 1.346 . S
C121 N120 1.346 . S
C121 C122 1.396 . S
C121 C131 1.510 . S
C122 C118 1.401 . S
C122 C121 1.396 . S
C123 C118 1.499 . S
C123 H124 0.959 . S
C123 H125 0.960 . S
C123 H126 0.961 . S
H124 C123 0.959 . S
H125 C123 0.960 . S
H126 C123 0.961 . S
O127 Co102 1.967 . S
O127 C135 1.258 . S
O128 Co103 1.941 . S
O128 C135 1.266 . S
H129 C131 0.959 . S
H130 C131 0.961 . S
C131 C121 1.510 . S
C131 H129 0.959 . S
C131 H130 0.961 . S
C131 H132 0.960 . S
H132 C131 0.960 . S
H133 N113 0.862 . S
O134 Co102 1.920 . S
O134 C107 1.289 . S
C135 O127 1.258 . S
C135 O128 1.266 . S
Co136 O139 1.970 . S
Co136 N153 1.989 . S
Co136 O161 1.967 . S
Co136 O168 1.920 . S
Co137 O140 1.966 . S
Co137 N146 2.022 . S
Co137 N154 1.993 . S
Co137 O162 1.941 . S
C138 O139 1.258 . S
C138 O140 1.263 . S
O139 Co136 1.970 . S
O139 C138 1.258 . S
O140 Co137 1.966 . S
O140 C138 1.263 . S
C141 O142 1.235 . S
C141 O168 1.289 . S
O142 C141 1.235 . S
C143 C145 1.400 . S
C143 N146 1.351 1_556 S
C143 C148 1.501 . S
C144 C145 1.387 . S
C144 N147 1.341 . S
C145 C143 1.400 . S
C145 C144 1.387 . S
N146 Co137 2.022 . S
N146 C143 1.351 1_554 S
N146 N147 1.365 1_554 S
N147 C144 1.341 . S
N147 N146 1.365 1_556 S
N147 H167 0.862 1_556 S
C148 C143 1.501 . S
C148 H149 0.961 1_556 S
C148 H150 0.961 . S
C148 H151 0.960 . S
H149 C148 0.961 1_554 S
H150 C148 0.961 . S
H151 C148 0.960 . S
C152 N153 1.342 . S
C152 C156 1.401 . S
C152 C157 1.499 . S
N153 Co136 1.989 . S
N153 C152 1.342 . S
N153 N154 1.388 . S
N154 Co137 1.993 . S
N154 N153 1.388 . S
N154 C155 1.346 . S
C155 N154 1.346 . S
C155 C156 1.396 . S
C155 C165 1.510 . S
C156 C152 1.401 . S
C156 C155 1.396 . S
C157 C152 1.499 . S
C157 H158 0.959 . S
C157 H159 0.960 . S
C157 H160 0.961 . S
H158 C157 0.959 . S
H159 C157 0.960 . S
H160 C157 0.961 . S
O161 Co136 1.967 . S
O161 C169 1.258 . S
O162 Co137 1.941 . S
O162 C169 1.266 . S
H163 C165 0.959 . S
H164 C165 0.961 . S
C165 C155 1.510 . S
C165 H163 0.959 . S
C165 H164 0.961 . S
C165 H166 0.960 . S
H166 C165 0.960 . S
H167 N147 0.862 1_554 S
O168 Co136 1.920 . S
O168 C141 1.289 . S
C169 O161 1.258 . S
C169 O162 1.266 . S
Co170 O173 1.970 . S
Co170 N187 1.989 . S
Co170 O195 1.967 . S
Co170 O202 1.920 . S
Co171 O174 1.966 . S
Co171 N180 2.022 . S
Co171 N188 1.993 . S
Co171 O196 1.941 . S
C172 O173 1.258 . S
C172 O174 1.263 . S
O173 Co170 1.970 . S
O173 C172 1.258 . S
O174 Co171 1.966 . S
O174 C172 1.263 . S
C175 O176 1.235 . S
C175 O202 1.289 . S
O176 C175 1.235 . S
C177 C179 1.400 . S
C177 N180 1.351 . S
C177 C182 1.501 . S
C178 C179 1.387 . S
C178 N181 1.341 . S
C179 C177 1.400 . S
C179 C178 1.387 . S
N180 Co171 2.022 . S
N180 C177 1.351 . S
N180 N181 1.365 . S
N181 C178 1.341 . S
N181 N180 1.365 . S
N181 H201 0.862 . S
C182 C177 1.501 . S
C182 H183 0.961 . S
C182 H184 0.961 . S
C182 H185 0.960 . S
H183 C182 0.961 . S
H184 C182 0.961 . S
H185 C182 0.960 . S
C186 N187 1.342 . S
C186 C190 1.401 . S
C186 C191 1.499 . S
N187 Co170 1.989 . S
N187 C186 1.342 . S
N187 N188 1.388 . S
N188 Co171 1.993 . S
N188 N187 1.388 . S
N188 C189 1.346 . S
C189 N188 1.346 . S
C189 C190 1.396 . S
C189 C199 1.510 . S
C190 C186 1.401 . S
C190 C189 1.396 . S
C191 C186 1.499 . S
C191 H192 0.959 . S
C191 H193 0.960 . S
C191 H194 0.961 . S
H192 C191 0.959 . S
H193 C191 0.960 . S
H194 C191 0.961 . S
O195 Co170 1.967 . S
O195 C203 1.258 . S
O196 Co171 1.941 . S
O196 C203 1.266 . S
H197 C199 0.959 . S
H198 C199 0.961 . S
C199 C189 1.510 . S
C199 H197 0.959 . S
C199 H198 0.961 . S
C199 H200 0.960 . S
H200 C199 0.960 . S
H201 N181 0.862 . S
O202 Co170 1.920 . S
O202 C175 1.289 . S
C203 O195 1.258 . S
C203 O196 1.266 . S
Co204 O207 1.970 . S
Co204 N221 1.989 . S
Co204 O229 1.967 . S
Co204 O236 1.920 1_556 S
Co205 O208 1.966 . S
Co205 N214 2.022 . S
Co205 N222 1.993 . S
Co205 O230 1.941 . S
C206 O207 1.258 . S
C206 O208 1.263 . S
O207 Co204 1.970 . S
O207 C206 1.258 . S
O208 Co205 1.966 . S
O208 C206 1.263 . S
C209 O210 1.229 1_554 S
C209 O236 1.289 . S
O210 C209 1.229 1_556 S
C211 C213 1.400 . S
C211 N214 1.351 . S
C211 C216 1.501 . S
C212 C213 1.387 . S
C212 N215 1.341 . S
C213 C211 1.400 . S
C213 C212 1.387 . S
N214 Co205 2.022 . S
N214 C211 1.351 . S
N214 N215 1.365 . S
N215 C212 1.341 . S
N215 N214 1.365 . S
N215 H235 0.862 . S
C216 C211 1.501 . S
C216 H217 0.961 . S
C216 H218 0.961 . S
C216 H219 0.960 . S
H217 C216 0.961 . S
H218 C216 0.961 . S
H219 C216 0.960 . S
C220 N221 1.342 . S
C220 C224 1.401 . S
C220 C225 1.499 . S
N221 Co204 1.989 . S
N221 C220 1.342 . S
N221 N222 1.388 . S
N222 Co205 1.993 . S
N222 N221 1.388 . S
N222 C223 1.346 . S
C223 N222 1.346 . S
C223 C224 1.396 . S
C223 C233 1.510 . S
C224 C220 1.401 . S
C224 C223 1.396 . S
C225 C220 1.499 . S
C225 H226 0.959 . S
C225 H227 0.960 . S
C225 H228 0.961 . S
H226 C225 0.959 . S
H227 C225 0.960 . S
H228 C225 0.961 . S
O229 Co204 1.967 . S
O229 C237 1.258 . S
O230 Co205 1.941 . S
O230 C237 1.266 . S
H231 C233 0.959 . S
H232 C233 0.961 . S
C233 C223 1.510 . S
C233 H231 0.959 . S
C233 H232 0.961 . S
C233 H234 0.960 . S
H234 C233 0.960 . S
H235 N215 0.862 . S
O236 Co204 1.920 1_554 S
O236 C209 1.289 . S
C237 O229 1.258 . S
C237 O230 1.266 . S
Co238 O241 1.970 . S
Co238 N255 1.989 . S
Co238 O263 1.967 . S
Co238 O270 1.920 . S
Co239 O242 1.966 . S
Co239 N248 2.022 . S
Co239 N256 1.993 . S
Co239 O264 1.941 . S
C240 O241 1.258 1_554 S
C240 O242 1.263 . S
O241 Co238 1.970 . S
O241 C240 1.258 1_556 S
O242 Co239 1.966 . S
O242 C240 1.263 . S
C243 O244 1.235 . S
C243 O270 1.289 . S
O244 C243 1.235 . S
C245 C247 1.400 . S
C245 N248 1.351 . S
C245 C250 1.501 . S
C246 C247 1.387 . S
C246 N249 1.341 . S
C247 C245 1.400 . S
C247 C246 1.387 . S
N248 Co239 2.022 . S
N248 C245 1.351 . S
N248 N249 1.365 . S
N249 C246 1.341 . S
N249 N248 1.365 . S
N249 H269 0.862 . S
C250 C245 1.501 . S
C250 H251 0.961 . S
C250 H252 0.961 . S
C250 H253 0.960 . S
H251 C250 0.961 . S
H252 C250 0.961 . S
H253 C250 0.960 . S
C254 N255 1.342 . S
C254 C258 1.401 1_556 S
C254 C259 1.499 . S
N255 Co238 1.989 . S
N255 C254 1.342 . S
N255 N256 1.388 1_556 S
N256 Co239 1.993 . S
N256 N255 1.388 1_554 S
N256 C257 1.346 . S
C257 N256 1.346 . S
C257 C258 1.396 . S
C257 C267 1.510 . S
C258 C254 1.401 1_554 S
C258 C257 1.396 . S
C259 C254 1.499 . S
C259 H260 0.959 . S
C259 H261 0.960 . S
C259 H262 0.961 . S
H260 C259 0.959 . S
H261 C259 0.960 . S
H262 C259 0.961 . S
O263 Co238 1.967 . S
O263 C271 1.258 1_556 S
O264 Co239 1.941 . S
O264 C271 1.266 . S
H265 C267 0.959 . S
H266 C267 0.961 . S
C267 C257 1.510 . S
C267 H265 0.959 . S
C267 H266 0.961 . S
C267 H268 0.960 . S
H268 C267 0.960 . S
H269 N249 0.862 . S
O270 Co238 1.920 . S
O270 C243 1.289 . S
C271 O263 1.258 1_554 S
C271 O264 1.266 . S
C272 C273 1.387 . S
C272 H276 0.950 . S
C272 C281 1.390 . S
C273 C272 1.387 . S
C273 C275 1.387 1_554 S
H274 C281 0.950 . S
C275 C273 1.387 1_556 S
C275 C277 1.390 . S
C275 H279 0.950 . S
H276 C272 0.950 . S
C277 C275 1.390 . S
C277 C278 1.387 1_556 S
C277 H280 0.950 . S
C278 C277 1.387 1_554 S
C278 C281 1.387 . S
H279 C275 0.950 . S
H280 C277 0.950 . S
C281 C272 1.390 . S
C281 H274 0.950 . S
C281 C278 1.387 . S
C282 C283 1.387 . S
C282 H286 0.950 . S
C282 C291 1.390 1_545 S
C283 C282 1.387 . S
C283 C285 1.387 . S
H284 C291 0.950 . S
C285 C283 1.387 . S
C285 C287 1.390 1_545 S
C285 H289 0.950 . S
H286 C282 0.950 . S
C287 C285 1.390 1_565 S
C287 C288 1.387 . S
C287 H290 0.950 . S
C288 C287 1.387 . S
C288 C291 1.387 . S
H289 C285 0.950 . S
H290 C287 0.950 . S
C291 C282 1.390 1_565 S
C291 H284 0.950 . S
C291 C288 1.387 . S
C292 C293 1.388 . S
C292 H296 0.950 . S
C292 C301 1.390 . S
C293 C292 1.388 . S
C293 C295 1.388 . S
H294 C301 0.950 . S
C295 C293 1.388 . S
C295 C297 1.390 . S
C295 H299 0.950 . S
H296 C292 0.950 . S
C297 C295 1.390 . S
C297 C298 1.387 1_565 S
C297 H300 0.950 1_565 S
C298 C297 1.387 1_545 S
C298 C301 1.387 1_545 S
H299 C295 0.950 . S
H300 C297 0.950 1_545 S
C301 C292 1.390 . S
C301 H294 0.950 . S
C301 C298 1.387 1_565 S
C302 C303 1.387 . S
C302 H306 0.950 . S
C302 C311 1.390 1_455 S
C303 C302 1.387 . S
C303 C305 1.387 . S
H304 C311 0.950 . S
C305 C303 1.387 . S
C305 C307 1.390 1_455 S
C305 H309 0.950 . S
H306 C302 0.950 . S
C307 C305 1.390 1_655 S
C307 C308 1.387 . S
C307 H310 0.950 . S
C308 C307 1.387 . S
C308 C311 1.387 . S
H309 C305 0.950 . S
H310 C307 0.950 . S
C311 C302 1.390 1_655 S
C311 H304 0.950 . S
C311 C308 1.387 . S
C312 C313 1.387 . S
C312 H316 0.950 . S
C312 C321 1.390 . S
C313 C312 1.387 . S
C313 C315 1.387 . S
H314 C321 0.950 . S
C315 C313 1.387 . S
C315 C317 1.390 . S
C315 H319 0.950 . S
H316 C312 0.950 . S
C317 C315 1.390 . S
C317 C318 1.387 . S
C317 H320 0.950 . S
C318 C317 1.387 . S
C318 C321 1.387 . S
H319 C315 0.950 . S
H320 C317 0.950 . S
C321 C312 1.390 . S
C321 H314 0.950 . S
C321 C318 1.387 . S
C322 C323 1.387 . S
C322 H326 0.950 . S
C322 C331 1.390 . S
C323 C322 1.387 . S
C323 C325 1.387 . S
H324 C331 0.950 . S
C325 C323 1.387 . S
C325 C327 1.390 . S
C325 H329 0.950 . S
H326 C322 0.950 . S
C327 C325 1.390 . S
C327 C328 1.387 . S
C327 H330 0.950 . S
C328 C327 1.387 . S
C328 C331 1.387 . S
H329 C325 0.950 . S
H330 C327 0.950 . S
C331 C322 1.390 . S
C331 H324 0.950 . S
C331 C328 1.387 . S
C332 C333 1.387 . S
C332 H336 0.950 1_554 S
C332 C341 1.390 . S
C333 C332 1.387 . S
C333 C335 1.387 . S
H334 C341 0.950 . S
C335 C333 1.387 . S
C335 C337 1.390 . S
C335 H339 0.950 . S
H336 C332 0.950 1_556 S
C337 C335 1.390 . S
C337 C338 1.387 . S
C337 H340 0.950 . S
C338 C337 1.387 . S
C338 C341 1.387 . S
H339 C335 0.950 . S
H340 C337 0.950 . S
C341 C332 1.390 . S
C341 H334 0.950 . S
C341 C338 1.387 . S
C342 C343 1.387 . S
C342 H346 0.950 . S
C342 C351 1.390 . S
C343 C342 1.387 . S
C343 C345 1.387 . S
H344 C351 0.950 . S
C345 C343 1.387 . S
C345 C347 1.390 . S
C345 H349 0.950 . S
H346 C342 0.950 . S
C347 C345 1.390 . S
C347 C348 1.387 . S
C347 H350 0.950 . S
C348 C347 1.387 . S
C348 C351 1.387 . S
H349 C345 0.950 . S
H350 C347 0.950 . S
C351 C342 1.390 . S
C351 H344 0.950 . S
C351 C348 1.387 . S
C352 C353 1.387 . S
C352 H356 0.950 . S
C352 C361 1.390 . S
C353 C352 1.387 . S
C353 C355 1.387 . S
H354 C361 0.950 . S
C355 C353 1.387 . S
C355 C357 1.390 . S
C355 H359 0.950 . S
H356 C352 0.950 . S
C357 C355 1.390 . S
C357 C358 1.387 . S
C357 H360 0.950 . S
C358 C357 1.387 . S
C358 C361 1.387 . S
H359 C355 0.950 . S
H360 C357 0.950 . S
C361 C352 1.390 . S
C361 H354 0.950 . S
C361 C358 1.387 . S
C362 C363 1.387 1_556 S
C362 H366 0.950 . S
C362 C371 1.390 . S
C363 C362 1.387 1_554 S
C363 C365 1.387 . S
H364 C371 0.950 . S
C365 C363 1.387 . S
C365 C367 1.390 1_554 S
C365 H369 0.950 . S
H366 C362 0.950 . S
C367 C365 1.390 1_556 S
C367 C368 1.387 . S
C367 H370 0.950 . S
C368 C367 1.387 . S
C368 C371 1.387 . S
H369 C365 0.950 . S
H370 C367 0.950 . S
C371 C362 1.390 . S
C371 H364 0.950 . S
C371 C368 1.387 . S
C372 C373 1.387 . S
C372 H376 0.950 . S
C372 C381 1.390 . S
C373 C372 1.387 . S
C373 C375 1.387 . S
H374 C381 0.950 . S
C375 C373 1.387 . S
C375 C377 1.390 . S
C375 H379 0.950 . S
H376 C372 0.950 . S
C377 C375 1.390 . S
C377 C378 1.387 . S
C377 H380 0.950 . S
C378 C377 1.387 . S
C378 C381 1.387 . S
H379 C375 0.950 . S
H380 C377 0.950 . S
C381 C372 1.390 . S
C381 H374 0.950 . S
C381 C378 1.387 . S
C382 C383 1.387 . S
C382 H386 0.950 . S
C382 C391 1.390 . S
C383 C382 1.387 . S
C383 C385 1.387 . S
H384 C391 0.950 . S
C385 C383 1.387 . S
C385 C387 1.390 . S
C385 H389 0.950 . S
H386 C382 0.950 . S
C387 C385 1.390 . S
C387 C388 1.387 . S
C387 H390 0.950 . S
C388 C387 1.387 . S
C388 C391 1.387 . S
H389 C385 0.950 . S
H390 C387 0.950 . S
C391 C382 1.390 . S
C391 H384 0.950 . S
C391 C388 1.387 . S
C392 C393 1.387 . S
C392 H396 0.950 . S
C392 C401 1.390 . S
C393 C392 1.387 . S
C393 C395 1.387 . S
H394 C401 0.950 . S
C395 C393 1.387 . S
C395 C397 1.390 . S
C395 H399 0.950 . S
H396 C392 0.950 . S
C397 C395 1.390 . S
C397 C398 1.387 . S
C397 H400 0.950 . S
C398 C397 1.387 . S
C398 C401 1.387 . S
H399 C395 0.950 . S
H400 C397 0.950 . S
C401 C392 1.390 . S
C401 H394 0.950 . S
C401 C398 1.387 . S
C402 C403 1.387 . S
C402 H406 0.950 . S
C402 C411 1.390 . S
C403 C402 1.387 . S
C403 C405 1.387 . S
H404 C411 0.950 . S
C405 C403 1.387 . S
C405 C407 1.390 . S
C405 H409 0.950 . S
H406 C402 0.950 . S
C407 C405 1.390 . S
C407 C408 1.387 . S
C407 H410 0.950 . S
C408 C407 1.387 . S
C408 C411 1.387 . S
H409 C405 0.950 . S
H410 C407 0.950 . S
C411 C402 1.390 . S
C411 H404 0.950 . S
C411 C408 1.387 . S
C412 C413 1.387 . S
C412 H416 0.950 . S
C412 C421 1.390 . S
C413 C412 1.387 . S
C413 C415 1.387 . S
H414 C421 0.950 . S
C415 C413 1.387 . S
C415 C417 1.390 . S
C415 H419 0.950 . S
H416 C412 0.950 . S
C417 C415 1.390 . S
C417 C418 1.387 . S
C417 H420 0.950 . S
C418 C417 1.387 . S
C418 C421 1.387 . S
H419 C415 0.950 . S
H420 C417 0.950 . S
C421 C412 1.390 . S
C421 H414 0.950 . S
C421 C418 1.387 . S
C422 C423 1.387 . S
C422 H426 0.950 . S
C422 C431 1.390 . S
C423 C422 1.387 . S
C423 C425 1.387 . S
H424 C431 0.950 . S
C425 C423 1.387 . S
C425 C427 1.390 . S
C425 H429 0.950 . S
H426 C422 0.950 . S
C427 C425 1.390 . S
C427 C428 1.387 . S
C427 H430 0.950 . S
C428 C427 1.387 . S
C428 C431 1.387 . S
H429 C425 0.950 . S
H430 C427 0.950 . S
C431 C422 1.390 . S
C431 H424 0.950 . S
C431 C428 1.387 . S
C432 C433 1.387 . S
C432 H436 0.950 . S
C432 C441 1.390 . S
C433 C432 1.387 . S
C433 C435 1.387 . S
H434 C441 0.950 . S
C435 C433 1.387 . S
C435 C437 1.390 . S
C435 H439 0.950 . S
H436 C432 0.950 . S
C437 C435 1.390 . S
C437 C438 1.387 . S
C437 H440 0.950 . S
C438 C437 1.387 . S
C438 C441 1.387 . S
H439 C435 0.950 . S
H440 C437 0.950 . S
C441 C432 1.390 . S
C441 H434 0.950 . S
C441 C438 1.387 . S
C442 C443 1.387 . S
C442 H446 0.950 . S
C442 C451 1.390 . S
C443 C442 1.387 . S
C443 C445 1.387 . S
H444 C451 0.950 . S
C445 C443 1.387 . S
C445 C447 1.390 . S
C445 H449 0.950 . S
H446 C442 0.950 . S
C447 C445 1.390 . S
C447 C448 1.387 . S
C447 H450 0.950 . S
C448 C447 1.387 . S
C448 C451 1.387 . S
H449 C445 0.950 . S
H450 C447 0.950 . S
C451 C442 1.390 . S
C451 H444 0.950 . S
C451 C448 1.387 . S
C452 C453 1.387 . S
C452 H456 0.950 . S
C452 C461 1.390 . S
C453 C452 1.387 . S
C453 C455 1.387 . S
H454 C461 0.950 . S
C455 C453 1.387 . S
C455 C457 1.390 . S
C455 H459 0.950 . S
H456 C452 0.950 . S
C457 C455 1.390 . S
C457 C458 1.387 . S
C457 H460 0.950 . S
C458 C457 1.387 . S
C458 C461 1.387 . S
H459 C455 0.950 . S
H460 C457 0.950 . S
C461 C452 1.390 . S
C461 H454 0.950 . S
C461 C458 1.387 . S
C462 C463 1.387 . S
C462 H466 0.950 . S
C462 C471 1.390 . S
C463 C462 1.387 . S
C463 C465 1.387 . S
H464 C471 0.950 . S
C465 C463 1.387 . S
C465 C467 1.390 . S
C465 H469 0.950 . S
H466 C462 0.950 . S
C467 C465 1.390 . S
C467 C468 1.387 . S
C467 H470 0.950 . S
C468 C467 1.387 . S
C468 C471 1.387 . S
H469 C465 0.950 . S
H470 C467 0.950 . S
C471 C462 1.390 . S
C471 H464 0.950 . S
C471 C468 1.387 . S
C273 C258 1.472 . S
C278 C20 1.472 . S
C283 C156 1.523 . S
C288 C54 1.517 . S
C293 C190 1.617 1_455 S
C298 C88 1.616 . S
C303 C224 1.552 . S
C308 C122 1.533 . S
C313 C5 1.419 . S
C318 C9 1.429 . S
C323 C43 1.357 . S
C328 C39 1.357 . S
C333 C77 1.427 1_554 S
C338 C73 1.414 . S
C343 C111 1.497 . S
C348 C107 1.469 . S
C353 C145 1.478 . S
C358 C141 1.453 . S
C363 C179 1.498 . S
C368 C175 1.472 . S
C373 C213 1.366 . S
C378 C209 1.365 . S
C383 C243 1.366 . S
C388 C247 1.366 . S
C393 C237 1.533 . S
C398 C2 1.526 1_556 S
C403 C36 1.498 . S
C408 C240 1.499 . S
C413 C169 1.687 . S
C418 C101 1.669 . S
C423 C135 1.692 . S
C428 C203 1.686 . S
C433 C172 1.714 . S
C438 C67 1.717 . S
C443 C70 1.696 . S
C448 C206 1.694 . S
C453 C271 1.631 1_556 S
C458 C104 1.628 . S
C463 C33 1.663 . S
C468 C138 1.652 . S
