# Generated by pormake.
# Topology ukv, (4)-cn, num edge types: 1
# Building blocks:
#     Node 0, Type 0, BuildingBlock: GALJAG_clean_sbu_0, # of connection points: 4
#     Node 1, Type 0, BuildingBlock: GALJAG_clean_sbu_0, # of connection points: 4
#     Node 2, Type 0, BuildingBlock: GALJAG_clean_sbu_0, # of connection points: 4
#     Node 3, Type 0, BuildingBlock: GALJAG_clean_sbu_0, # of connection points: 4
#     Node 4, Type 0, BuildingBlock: GALJAG_clean_sbu_0, # of connection points: 4
#     Node 5, Type 0, BuildingBlock: GALJAG_clean_sbu_0, # of connection points: 4
#     Node 6, Type 0, BuildingBlock: GALJAG_clean_sbu_0, # of connection points: 4
#     Node 7, Type 0, BuildingBlock: GALJAG_clean_sbu_0, # of connection points: 4
#     Node 8, Type 0, BuildingBlock: GALJAG_clean_sbu_0, # of connection points: 4
#     Node 9, Type 0, BuildingBlock: GALJAG_clean_sbu_0, # of connection points: 4
#     Node 10, Type 0, BuildingBlock: GALJAG_clean_sbu_0, # of connection points: 4
#     Node 11, Type 0, BuildingBlock: GALJAG_clean_sbu_0, # of connection points: 4
#     Node 12, Type 0, BuildingBlock: GALJAG_clean_sbu_0, # of connection points: 4
#     Node 13, Type 0, BuildingBlock: GALJAG_clean_sbu_0, # of connection points: 4
#     Node 14, Type 0, BuildingBlock: GALJAG_clean_sbu_0, # of connection points: 4
#     Node 15, Type 0, BuildingBlock: GALJAG_clean_sbu_0, # of connection points: 4
#     Node 16, Type 0, BuildingBlock: GALJAG_clean_sbu_0, # of connection points: 4
#     Node 17, Type 0, BuildingBlock: GALJAG_clean_sbu_0, # of connection points: 4
#     Node 18, Type 0, BuildingBlock: GALJAG_clean_sbu_0, # of connection points: 4
#     Node 19, Type 0, BuildingBlock: GALJAG_clean_sbu_0, # of connection points: 4
#     Node 20, Type 0, BuildingBlock: GALJAG_clean_sbu_0, # of connection points: 4
#     Node 21, Type 0, BuildingBlock: GALJAG_clean_sbu_0, # of connection points: 4
#     Node 22, Type 0, BuildingBlock: GALJAG_clean_sbu_0, # of connection points: 4
#     Node 23, Type 0, BuildingBlock: GALJAG_clean_sbu_0, # of connection points: 4
#     Node 24, Type 0, BuildingBlock: GALJAG_clean_sbu_0, # of connection points: 4
#     Node 25, Type 0, BuildingBlock: GALJAG_clean_sbu_0, # of connection points: 4
#     Node 26, Type 0, BuildingBlock: GALJAG_clean_sbu_0, # of connection points: 4
#     Node 27, Type 0, BuildingBlock: GALJAG_clean_sbu_0, # of connection points: 4
#     Node 28, Type 0, BuildingBlock: GALJAG_clean_sbu_0, # of connection points: 4
#     Node 29, Type 0, BuildingBlock: GALJAG_clean_sbu_0, # of connection points: 4
#     Node 30, Type 0, BuildingBlock: GALJAG_clean_sbu_0, # of connection points: 4
#     Node 31, Type 0, BuildingBlock: GALJAG_clean_sbu_0, # of connection points: 4
#     Node 32, Type 0, BuildingBlock: GALJAG_clean_sbu_0, # of connection points: 4
#     Node 33, Type 0, BuildingBlock: GALJAG_clean_sbu_0, # of connection points: 4
#     Node 34, Type 0, BuildingBlock: GALJAG_clean_sbu_0, # of connection points: 4
#     Node 35, Type 0, BuildingBlock: GALJAG_clean_sbu_0, # of connection points: 4
#     Edge 36, Type (0, 0), BuildingBlock: EZIPEK_clean_linker_0, # of connection points: 2
#     Edge 37, Type (0, 0), BuildingBlock: EZIPEK_clean_linker_0, # of connection points: 2
#     Edge 38, Type (0, 0), BuildingBlock: EZIPEK_clean_linker_0, # of connection points: 2
#     Edge 39, Type (0, 0), BuildingBlock: EZIPEK_clean_linker_0, # of connection points: 2
#     Edge 40, Type (0, 0), BuildingBlock: EZIPEK_clean_linker_0, # of connection points: 2
#     Edge 41, Type (0, 0), BuildingBlock: EZIPEK_clean_linker_0, # of connection points: 2
#     Edge 42, Type (0, 0), BuildingBlock: EZIPEK_clean_linker_0, # of connection points: 2
#     Edge 43, Type (0, 0), BuildingBlock: EZIPEK_clean_linker_0, # of connection points: 2
#     Edge 44, Type (0, 0), BuildingBlock: EZIPEK_clean_linker_0, # of connection points: 2
#     Edge 45, Type (0, 0), BuildingBlock: EZIPEK_clean_linker_0, # of connection points: 2
#     Edge 46, Type (0, 0), BuildingBlock: EZIPEK_clean_linker_0, # of connection points: 2
#     Edge 47, Type (0, 0), BuildingBlock: EZIPEK_clean_linker_0, # of connection points: 2
#     Edge 48, Type (0, 0), BuildingBlock: EZIPEK_clean_linker_0, # of connection points: 2
#     Edge 49, Type (0, 0), BuildingBlock: EZIPEK_clean_linker_0, # of connection points: 2
#     Edge 50, Type (0, 0), BuildingBlock: EZIPEK_clean_linker_0, # of connection points: 2
#     Edge 51, Type (0, 0), BuildingBlock: EZIPEK_clean_linker_0, # of connection points: 2
#     Edge 52, Type (0, 0), BuildingBlock: EZIPEK_clean_linker_0, # of connection points: 2
#     Edge 53, Type (0, 0), BuildingBlock: EZIPEK_clean_linker_0, # of connection points: 2
#     Edge 54, Type (0, 0), BuildingBlock: EZIPEK_clean_linker_0, # of connection points: 2
#     Edge 55, Type (0, 0), BuildingBlock: EZIPEK_clean_linker_0, # of connection points: 2
#     Edge 56, Type (0, 0), BuildingBlock: EZIPEK_clean_linker_0, # of connection points: 2
#     Edge 57, Type (0, 0), BuildingBlock: EZIPEK_clean_linker_0, # of connection points: 2
#     Edge 58, Type (0, 0), BuildingBlock: EZIPEK_clean_linker_0, # of connection points: 2
#     Edge 59, Type (0, 0), BuildingBlock: EZIPEK_clean_linker_0, # of connection points: 2
#     Edge 60, Type (0, 0), BuildingBlock: EZIPEK_clean_linker_0, # of connection points: 2
#     Edge 61, Type (0, 0), BuildingBlock: EZIPEK_clean_linker_0, # of connection points: 2
#     Edge 62, Type (0, 0), BuildingBlock: EZIPEK_clean_linker_0, # of connection points: 2
#     Edge 63, Type (0, 0), BuildingBlock: EZIPEK_clean_linker_0, # of connection points: 2
#     Edge 64, Type (0, 0), BuildingBlock: EZIPEK_clean_linker_0, # of connection points: 2
#     Edge 65, Type (0, 0), BuildingBlock: EZIPEK_clean_linker_0, # of connection points: 2
#     Edge 66, Type (0, 0), BuildingBlock: EZIPEK_clean_linker_0, # of connection points: 2
#     Edge 67, Type (0, 0), BuildingBlock: EZIPEK_clean_linker_0, # of connection points: 2
#     Edge 68, Type (0, 0), BuildingBlock: EZIPEK_clean_linker_0, # of connection points: 2
#     Edge 69, Type (0, 0), BuildingBlock: EZIPEK_clean_linker_0, # of connection points: 2
#     Edge 70, Type (0, 0), BuildingBlock: EZIPEK_clean_linker_0, # of connection points: 2
#     Edge 71, Type (0, 0), BuildingBlock: EZIPEK_clean_linker_0, # of connection points: 2
#     Edge 72, Type (0, 0), BuildingBlock: EZIPEK_clean_linker_0, # of connection points: 2
#     Edge 73, Type (0, 0), BuildingBlock: EZIPEK_clean_linker_0, # of connection points: 2
#     Edge 74, Type (0, 0), BuildingBlock: EZIPEK_clean_linker_0, # of connection points: 2
#     Edge 75, Type (0, 0), BuildingBlock: EZIPEK_clean_linker_0, # of connection points: 2
#     Edge 76, Type (0, 0), BuildingBlock: EZIPEK_clean_linker_0, # of connection points: 2
#     Edge 77, Type (0, 0), BuildingBlock: EZIPEK_clean_linker_0, # of connection points: 2
#     Edge 78, Type (0, 0), BuildingBlock: EZIPEK_clean_linker_0, # of connection points: 2
#     Edge 79, Type (0, 0), BuildingBlock: EZIPEK_clean_linker_0, # of connection points: 2
#     Edge 80, Type (0, 0), BuildingBlock: EZIPEK_clean_linker_0, # of connection points: 2
#     Edge 81, Type (0, 0), BuildingBlock: EZIPEK_clean_linker_0, # of connection points: 2
#     Edge 82, Type (0, 0), BuildingBlock: EZIPEK_clean_linker_0, # of connection points: 2
#     Edge 83, Type (0, 0), BuildingBlock: EZIPEK_clean_linker_0, # of connection points: 2
#     Edge 84, Type (0, 0), BuildingBlock: EZIPEK_clean_linker_0, # of connection points: 2
#     Edge 85, Type (0, 0), BuildingBlock: EZIPEK_clean_linker_0, # of connection points: 2
#     Edge 86, Type (0, 0), BuildingBlock: EZIPEK_clean_linker_0, # of connection points: 2
#     Edge 87, Type (0, 0), BuildingBlock: EZIPEK_clean_linker_0, # of connection points: 2
#     Edge 88, Type (0, 0), BuildingBlock: EZIPEK_clean_linker_0, # of connection points: 2
#     Edge 89, Type (0, 0), BuildingBlock: EZIPEK_clean_linker_0, # of connection points: 2
#     Edge 90, Type (0, 0), BuildingBlock: EZIPEK_clean_linker_0, # of connection points: 2
#     Edge 91, Type (0, 0), BuildingBlock: EZIPEK_clean_linker_0, # of connection points: 2
#     Edge 92, Type (0, 0), BuildingBlock: EZIPEK_clean_linker_0, # of connection points: 2
#     Edge 93, Type (0, 0), BuildingBlock: EZIPEK_clean_linker_0, # of connection points: 2
#     Edge 94, Type (0, 0), BuildingBlock: EZIPEK_clean_linker_0, # of connection points: 2
#     Edge 95, Type (0, 0), BuildingBlock: EZIPEK_clean_linker_0, # of connection points: 2
#     Edge 96, Type (0, 0), BuildingBlock: EZIPEK_clean_linker_0, # of connection points: 2
#     Edge 97, Type (0, 0), BuildingBlock: EZIPEK_clean_linker_0, # of connection points: 2
#     Edge 98, Type (0, 0), BuildingBlock: EZIPEK_clean_linker_0, # of connection points: 2
#     Edge 99, Type (0, 0), BuildingBlock: EZIPEK_clean_linker_0, # of connection points: 2
#     Edge 100, Type (0, 0), BuildingBlock: EZIPEK_clean_linker_0, # of connection points: 2
#     Edge 101, Type (0, 0), BuildingBlock: EZIPEK_clean_linker_0, # of connection points: 2
#     Edge 102, Type (0, 0), BuildingBlock: EZIPEK_clean_linker_0, # of connection points: 2
#     Edge 103, Type (0, 0), BuildingBlock: EZIPEK_clean_linker_0, # of connection points: 2
#     Edge 104, Type (0, 0), BuildingBlock: EZIPEK_clean_linker_0, # of connection points: 2
#     Edge 105, Type (0, 0), BuildingBlock: EZIPEK_clean_linker_0, # of connection points: 2
#     Edge 106, Type (0, 0), BuildingBlock: EZIPEK_clean_linker_0, # of connection points: 2
#     Edge 107, Type (0, 0), BuildingBlock: EZIPEK_clean_linker_0, # of connection points: 2
# Relax obj value: 0.157
# Max RMSD: 0.129
# Mean RMSD: 0.129
data_MOF--net-ukv--node1-GALJAG_clean_sbu_0--edge1-EZIPEK_clean_linker_0
_symmetry_space_group_name_H-M    P1
_symmetry_Int_Tables_number       1
_symmetry_cell_setting            triclinic
loop_
_symmetry_equiv_pos_as_xyz
'x, y, z'
_cell_length_a     65.443698
_cell_length_b     65.434747
_cell_length_c     17.484235
_cell_angle_alpha  89.998158
_cell_angle_beta   90.010774
_cell_angle_gamma 119.97374
loop_
_atom_site_label
_atom_site_type_symbol
_atom_site_fract_x
_atom_site_fract_y
_atom_site_fract_z
_atom_type_partial_charge
In0 In 0.24516 0.07763 0.0464 0.0
O1 O 0.2589 0.10589 0.1393 0.0
O2 O 0.22231 0.08872 0.11071 0.0
C3 C 0.28604 0.08583 0.98498 0.0
C4 C 0.22767 0.03896 0.13489 0.0
C5 C 0.22932 0.08678 0.91736 0.0
O6 O 0.28498 0.09919 0.03523 0.0
O7 O 0.26662 0.0677 0.96837 0.0
O8 O 0.22182 0.06575 0.93905 0.0
O9 O 0.24386 0.10254 0.96165 0.0
C10 C 0.23878 0.10338 0.15261 0.0
O11 O 0.21472 0.04357 0.09325 0.0
O12 O 0.24951 0.05269 0.12637 0.0
In13 In 0.92327 0.16788 0.03905 0.0
O14 O 0.89131 0.14944 0.11576 0.0
O15 O 0.91651 0.13783 0.11965 0.0
C16 C 0.91257 0.19904 0.978 0.0
C17 C 0.96161 0.19236 0.12728 0.0
C18 C 0.91559 0.14166 0.91335 0.0
O19 O 0.90115 0.18569 0.03286 0.0
O20 O 0.93015 0.19756 0.95585 0.0
O21 O 0.93624 0.15715 0.9327 0.0
O22 O 0.89952 0.13873 0.95918 0.0
C23 C 0.89773 0.13603 0.14604 0.0
O24 O 0.96105 0.17888 0.07456 0.0
O25 O 0.94354 0.19446 0.13234 0.0
In26 In 0.82967 0.75821 0.0364 0.0
O27 O 0.81985 0.78466 0.08328 0.0
O28 O 0.80099 0.74925 0.12466 0.0
C29 C 0.85597 0.77954 0.91266 0.0
C30 C 0.85952 0.76055 0.14535 0.0
C31 C 0.80004 0.7178 0.96495 0.0
O32 O 0.83879 0.78217 0.93124 0.0
O33 O 0.86085 0.7681 0.95986 0.0
O34 O 0.815 0.71936 0.01353 0.0
O35 O 0.7991 0.73639 0.9546 0.0
C36 C 0.80459 0.77004 0.12905 0.0
O37 O 0.84714 0.74217 0.10631 0.0
O38 O 0.85772 0.77825 0.12691 0.0
In39 In 0.0726 0.24501 0.4479 0.0
O40 O 0.03588 0.21754 0.40755 0.0
O41 O 0.05165 0.25191 0.35848 0.0
C42 C 0.08021 0.23 0.5811 0.0
C43 C 0.09606 0.23381 0.34674 0.0
C44 C 0.08573 0.28759 0.50672 0.0
O45 O 0.05964 0.22534 0.56206 0.0
O46 O 0.096 0.24057 0.53145 0.0
O47 O 0.09783 0.28439 0.45671 0.0
O48 O 0.06624 0.26961 0.52322 0.0
C49 C 0.0347 0.23098 0.35794 0.0
O50 O 0.10097 0.25489 0.35786 0.0
O51 O 0.07997 0.21852 0.38856 0.0
In52 In 0.75423 0.82705 0.4618 0.0
O53 O 0.78136 0.81817 0.41501 0.0
O54 O 0.74643 0.79958 0.36975 0.0
C55 C 0.77586 0.85224 0.5876 0.0
C56 C 0.7573 0.85802 0.35568 0.0
C57 C 0.71285 0.79613 0.52618 0.0
O58 O 0.77757 0.8346 0.568 0.0
O59 O 0.76457 0.85769 0.54162 0.0
O60 O 0.71492 0.81164 0.47909 0.0
O61 O 0.73143 0.79529 0.53824 0.0
C62 C 0.76733 0.80346 0.36678 0.0
O63 O 0.73897 0.84599 0.39528 0.0
O64 O 0.77461 0.85539 0.37248 0.0
In65 In 0.169 0.92526 0.44246 0.0
O66 O 0.1745 0.96175 0.41402 0.0
O67 O 0.19633 0.95065 0.35863 0.0
C68 C 0.14351 0.91493 0.57062 0.0
C69 C 0.13872 0.9002 0.33118 0.0
C70 C 0.19911 0.91326 0.5048 0.0
O71 O 0.15984 0.93572 0.55675 0.0
O72 O 0.13919 0.90013 0.51817 0.0
O73 O 0.1844 0.90109 0.45367 0.0
O74 O 0.19992 0.93247 0.52052 0.0
C75 C 0.19039 0.96614 0.36525 0.0
O76 O 0.15714 0.89912 0.34427 0.0
O77 O 0.13528 0.91354 0.37491 0.0
In78 In 0.7492 0.91638 0.9377 0.0
O79 O 0.7444 0.89038 0.84419 0.0
O80 O 0.77901 0.91205 0.89103 0.0
C81 C 0.70603 0.90524 0.98612 0.0
C82 C 0.76426 0.95444 0.84917 0.0
C83 C 0.75858 0.9043 0.07364 0.0
O84 O 0.70958 0.89134 0.94508 0.0
O85 O 0.72386 0.92537 0.99662 0.0
O86 O 0.76419 0.92551 0.05973 0.0
O87 O 0.75015 0.89033 0.01781 0.0
C88 C 0.76612 0.89655 0.84278 0.0
O89 O 0.77563 0.95458 0.9082 0.0
O90 O 0.74485 0.93574 0.83829 0.0
In91 In 0.07517 0.8261 0.93506 0.0
O92 O 0.10185 0.84438 0.84025 0.0
O93 O 0.0807 0.85921 0.87452 0.0
C94 C 0.08969 0.7975 0.9916 0.0
C95 C 0.03483 0.80046 0.85785 0.0
C96 C 0.08759 0.85182 0.06287 0.0
O97 O 0.09826 0.80942 0.93121 0.0
O98 O 0.07241 0.79848 0.01985 0.0
O99 O 0.06602 0.83835 0.04637 0.0
O100 O 0.10208 0.85274 0.01363 0.0
C101 C 0.09643 0.86022 0.83051 0.0
O102 O 0.03696 0.81518 0.90853 0.0
O103 O 0.05219 0.79722 0.85144 0.0
In104 In 0.16679 0.24758 0.94991 0.0
O105 O 0.17944 0.2216 0.92284 0.0
O106 O 0.18789 0.24988 0.84485 0.0
C107 C 0.14386 0.23145 0.08269 0.0
C108 C 0.13229 0.23706 0.84827 0.0
C109 C 0.19973 0.29033 0.00202 0.0
O110 O 0.15863 0.22567 0.06007 0.0
O111 O 0.14026 0.24431 0.03764 0.0
O112 O 0.18066 0.28659 0.9717 0.0
O113 O 0.20286 0.27283 0.00178 0.0
C114 C 0.18876 0.23147 0.85997 0.0
O115 O 0.14843 0.25804 0.86074 0.0
O116 O 0.13313 0.22147 0.88851 0.0
In117 In 0.91837 0.7498 0.5591 0.0
O118 O 0.89296 0.74471 0.65508 0.0
O119 O 0.91433 0.77945 0.60879 0.0
C120 C 0.90721 0.70708 0.5061 0.0
C121 C 0.95674 0.76397 0.64513 0.0
C122 C 0.90575 0.76005 0.42575 0.0
O123 O 0.89343 0.71019 0.54928 0.0
O124 O 0.92718 0.7251 0.49534 0.0
O125 O 0.92704 0.76568 0.43834 0.0
O126 O 0.89196 0.75114 0.48179 0.0
C127 C 0.89911 0.76643 0.65756 0.0
O128 O 0.95672 0.77583 0.58772 0.0
O129 O 0.93799 0.74459 0.6557 0.0
In130 In 0.24438 0.17267 0.553 0.0
O131 O 0.25376 0.15458 0.64565 0.0
O132 O 0.21744 0.13927 0.61356 0.0
C133 C 0.28783 0.2027 0.50084 0.0
C134 C 0.22728 0.19552 0.63427 0.0
C135 C 0.23156 0.14914 0.42062 0.0
O136 O 0.28394 0.18714 0.55046 0.0
O137 O 0.27013 0.20442 0.4822 0.0
O138 O 0.22725 0.1656 0.43431 0.0
O139 O 0.24049 0.14367 0.47503 0.0
C140 C 0.23265 0.13842 0.65579 0.0
O141 O 0.21661 0.1833 0.57618 0.0
O142 O 0.24712 0.19749 0.64754 0.0
In143 In 0.82846 0.07138 0.55176 0.0
O144 O 0.84687 0.09875 0.64481 0.0
O145 O 0.85994 0.07536 0.61754 0.0
C146 C 0.79897 0.08483 0.49427 0.0
C147 C 0.80333 0.03182 0.63292 0.0
C148 C 0.85457 0.08478 0.42408 0.0
O149 O 0.814 0.09669 0.54542 0.0
O150 O 0.79805 0.06578 0.47528 0.0
O151 O 0.83545 0.06525 0.42736 0.0
O152 O 0.86141 0.0955 0.48673 0.0
C153 C 0.8617 0.09208 0.65851 0.0
O154 O 0.81784 0.03341 0.58199 0.0
O155 O 0.80024 0.04931 0.63771 0.0
In156 In 0.91142 0.40506 0.38649 0.0
O157 O 0.91962 0.43462 0.47075 0.0
O158 O 0.88345 0.41053 0.44455 0.0
C159 C 0.95518 0.4137 0.3498 0.0
C160 C 0.8936 0.36595 0.4724 0.0
C161 C 0.89973 0.41476 0.25026 0.0
O162 O 0.95147 0.42691 0.39347 0.0
O163 O 0.93659 0.39622 0.32487 0.0
O164 O 0.89274 0.39374 0.27057 0.0
O165 O 0.91178 0.43042 0.29883 0.0
C166 C 0.89818 0.42814 0.48271 0.0
O167 O 0.88398 0.36653 0.41027 0.0
O168 O 0.91262 0.38447 0.48833 0.0
In169 In 0.5854 0.49848 0.38994 0.0
O170 O 0.62314 0.51058 0.42636 0.0
O171 O 0.60499 0.52588 0.4818 0.0
C172 C 0.57867 0.47805 0.25287 0.0
C173 C 0.5648 0.46212 0.48668 0.0
C174 C 0.56943 0.52678 0.34246 0.0
O175 O 0.59897 0.49413 0.27343 0.0
O176 O 0.56268 0.4717 0.30253 0.0
O177 O 0.55864 0.51082 0.39196 0.0
O178 O 0.58894 0.52933 0.32031 0.0
C179 C 0.62323 0.52402 0.47849 0.0
O180 O 0.55755 0.47661 0.47775 0.0
O181 O 0.58184 0.46537 0.4447 0.0
In182 In 0.50467 0.09259 0.3834 0.0
O183 O 0.4982 0.12117 0.43157 0.0
O184 O 0.47494 0.08574 0.46553 0.0
C185 C 0.5251 0.10964 0.24831 0.0
C186 C 0.53879 0.10189 0.48491 0.0
C187 C 0.47707 0.04961 0.3236 0.0
O188 O 0.50845 0.11256 0.27181 0.0
O189 O 0.53214 0.09974 0.29464 0.0
O190 O 0.49322 0.05378 0.37134 0.0
O191 O 0.47385 0.06674 0.30992 0.0
C192 C 0.4812 0.10723 0.47347 0.0
O193 O 0.5209 0.08157 0.4781 0.0
O194 O 0.53998 0.11722 0.4386 0.0
In195 In 0.74198 0.58453 0.76636 0.0
O196 O 0.70386 0.555 0.74669 0.0
O197 O 0.71687 0.58696 0.68347 0.0
C198 C 0.75626 0.57338 0.89534 0.0
C199 C 0.76486 0.57464 0.65956 0.0
C200 C 0.75602 0.62922 0.80634 0.0
O201 O 0.73609 0.57152 0.89081 0.0
O202 O 0.76788 0.57891 0.834 0.0
O203 O 0.7617 0.62404 0.74329 0.0
O204 O 0.74195 0.6118 0.8465 0.0
C205 C 0.70025 0.56626 0.69463 0.0
O206 O 0.77216 0.59532 0.68416 0.0
O207 O 0.74628 0.55868 0.69066 0.0
In208 In 0.41762 0.15905 0.77517 0.0
O209 O 0.44803 0.15175 0.75611 0.0
O210 O 0.41841 0.13567 0.68104 0.0
C211 C 0.43263 0.18507 0.90319 0.0
C212 C 0.42346 0.18941 0.66294 0.0
C213 C 0.37521 0.12671 0.83129 0.0
O214 O 0.43952 0.17074 0.88575 0.0
O215 O 0.41936 0.18685 0.85477 0.0
O216 O 0.37841 0.1443 0.79254 0.0
O217 O 0.39315 0.12438 0.83787 0.0
C218 C 0.43863 0.13912 0.6977 0.0
O219 O 0.40395 0.17094 0.67509 0.0
O220 O 0.43986 0.19295 0.70848 0.0
In221 In 0.8327 0.25392 0.78888 0.0
O222 O 0.81369 0.22503 0.70059 0.0
O223 O 0.7996 0.24753 0.72573 0.0
C224 C 0.86523 0.24305 0.83679 0.0
C225 C 0.85507 0.29227 0.70032 0.0
C226 C 0.80987 0.24645 0.92264 0.0
O227 O 0.84637 0.2284 0.80382 0.0
O228 O 0.86836 0.26365 0.84206 0.0
O229 O 0.82459 0.2671 0.90079 0.0
O230 O 0.80624 0.23028 0.87623 0.0
C231 C 0.79816 0.23062 0.68676 0.0
O232 O 0.8452 0.29258 0.76226 0.0
O233 O 0.85465 0.27318 0.68578 0.0
In234 In 0.41677 0.25642 0.26913 0.0
O235 O 0.4066 0.22832 0.17758 0.0
O236 O 0.44322 0.25053 0.20258 0.0
C237 C 0.37459 0.24547 0.32701 0.0
C238 C 0.43325 0.29729 0.19399 0.0
C239 C 0.42937 0.2421 0.39458 0.0
O240 O 0.37679 0.23633 0.26612 0.0
O241 O 0.39363 0.26158 0.35519 0.0
O242 O 0.43926 0.2638 0.37747 0.0
O243 O 0.41451 0.22827 0.34664 0.0
C244 C 0.42766 0.23389 0.16313 0.0
O245 O 0.44366 0.29544 0.25232 0.0
O246 O 0.41395 0.27918 0.17746 0.0
In247 In 0.73968 0.16044 0.28939 0.0
O248 O 0.70185 0.14971 0.25521 0.0
O249 O 0.71651 0.12941 0.21256 0.0
C250 C 0.7473 0.18429 0.41991 0.0
C251 C 0.76228 0.19502 0.1859 0.0
C252 C 0.75485 0.13173 0.34426 0.0
O253 O 0.72671 0.16829 0.40118 0.0
O254 O 0.76327 0.18874 0.37134 0.0
O255 O 0.75852 0.13918 0.27607 0.0
O256 O 0.74274 0.13806 0.38304 0.0
C257 C 0.69961 0.13341 0.21117 0.0
O258 O 0.76951 0.18103 0.20418 0.0
O259 O 0.74434 0.19215 0.22165 0.0
In260 In 0.83798 0.57759 0.27332 0.0
O261 O 0.82317 0.5949 0.19684 0.0
O262 O 0.80971 0.55782 0.18419 0.0
C263 C 0.8672 0.61919 0.33988 0.0
C264 C 0.86152 0.56116 0.19232 0.0
C265 C 0.80919 0.56088 0.39494 0.0
O266 O 0.85391 0.61731 0.28466 0.0
O267 O 0.86715 0.60046 0.35756 0.0
O268 O 0.82977 0.56386 0.39661 0.0
O269 O 0.80234 0.56303 0.32986 0.0
C270 C 0.80933 0.576 0.16188 0.0
O271 O 0.84614 0.54852 0.24131 0.0
O272 O 0.86609 0.58225 0.18857 0.0
In273 In 0.58908 0.08527 0.88947 0.0
O274 O 0.56097 0.07902 0.97708 0.0
O275 O 0.58371 0.11431 0.93926 0.0
C276 C 0.57507 0.042 0.83458 0.0
C277 C 0.62514 0.09643 0.98531 0.0
C278 C 0.58504 0.1021 0.75474 0.0
O279 O 0.56211 0.04631 0.87739 0.0
O280 O 0.59551 0.0592 0.82261 0.0
O281 O 0.60513 0.10788 0.78215 0.0
O282 O 0.56765 0.08873 0.79614 0.0
C283 C 0.5672 0.10062 0.98303 0.0
O284 O 0.6271 0.10902 0.92776 0.0
O285 O 0.60563 0.07758 0.99127 0.0
In286 In 0.9106 0.49767 0.87724 0.0
O287 O 0.92241 0.48084 0.96767 0.0
O288 O 0.8859 0.46336 0.93846 0.0
C289 C 0.952 0.52828 0.81344 0.0
C290 C 0.89709 0.52182 0.96814 0.0
C291 C 0.89318 0.47376 0.74718 0.0
O292 O 0.9501 0.51329 0.86269 0.0
O293 O 0.93327 0.5286 0.79878 0.0
O294 O 0.88683 0.48799 0.77119 0.0
O295 O 0.90712 0.47108 0.79025 0.0
C296 C 0.90187 0.46388 0.98022 0.0
O297 O 0.88355 0.50755 0.91802 0.0
O298 O 0.91774 0.52504 0.96866 0.0
In299 In 0.49472 0.40973 0.87855 0.0
O300 O 0.48022 0.37091 0.90726 0.0
O301 O 0.47263 0.39165 0.98347 0.0
C302 C 0.51865 0.41425 0.74969 0.0
C303 C 0.52933 0.43424 0.97986 0.0
C304 C 0.46362 0.42088 0.81837 0.0
O305 O 0.50436 0.39418 0.77669 0.0
O306 O 0.52141 0.43159 0.78901 0.0
O307 O 0.47983 0.43442 0.86338 0.0
O308 O 0.46231 0.40126 0.80641 0.0
C309 C 0.4711 0.37202 0.96967 0.0
O310 O 0.5137 0.43956 0.96432 0.0
O311 O 0.5281 0.4172 0.9422 0.0
In312 In 0.58091 0.74085 0.73223 0.0
O313 O 0.58705 0.76726 0.82637 0.0
O314 O 0.55216 0.7466 0.78156 0.0
C315 C 0.62339 0.75119 0.68049 0.0
C316 C 0.5663 0.70252 0.81968 0.0
C317 C 0.56972 0.75294 0.59949 0.0
O318 O 0.62057 0.76441 0.72702 0.0
O319 O 0.60497 0.73194 0.66439 0.0
O320 O 0.55939 0.73154 0.62087 0.0
O321 O 0.5848 0.76748 0.64559 0.0
C322 C 0.5656 0.76184 0.82931 0.0
O323 O 0.55465 0.7026 0.76185 0.0
O324 O 0.58597 0.721 0.82907 0.0
In325 In 0.25889 0.84225 0.73065 0.0
O326 O 0.22998 0.82237 0.81818 0.0
O327 O 0.25381 0.80977 0.7948 0.0
C328 C 0.2444 0.8716 0.67843 0.0
C329 C 0.29912 0.86629 0.81062 0.0
C330 C 0.24991 0.81812 0.59953 0.0
O331 O 0.23474 0.85796 0.73449 0.0
O332 O 0.26253 0.87186 0.65286 0.0
O333 O 0.27046 0.83449 0.61586 0.0
O334 O 0.23454 0.81331 0.65038 0.0
C335 C 0.23643 0.80753 0.83292 0.0
O336 O 0.29789 0.8549 0.75082 0.0
O337 O 0.28067 0.86692 0.82665 0.0
In338 In 0.15568 0.41976 0.72294 0.0
O339 O 0.17695 0.41303 0.81139 0.0
O340 O 0.18805 0.44887 0.78298 0.0
C341 C 0.12669 0.37561 0.67377 0.0
C342 C 0.13066 0.43476 0.8028 0.0
C343 C 0.17946 0.43313 0.59116 0.0
O344 O 0.13991 0.38001 0.73135 0.0
O345 O 0.1266 0.39326 0.64523 0.0
O346 O 0.16442 0.43919 0.60806 0.0
O347 O 0.18328 0.42183 0.64213 0.0
C348 C 0.19123 0.43465 0.82308 0.0
O349 O 0.14091 0.4445 0.74094 0.0
O350 O 0.13156 0.41656 0.82061 0.0
In351 In 0.41523 0.9166 0.11042 0.0
O352 O 0.37568 0.89273 0.09114 0.0
O353 O 0.39499 0.92052 0.0116 0.0
C354 C 0.4236 0.9021 0.2433 0.0
C355 C 0.43565 0.90043 0.01392 0.0
C356 C 0.43132 0.96104 0.1589 0.0
O357 O 0.40296 0.89725 0.22478 0.0
O358 O 0.43934 0.91302 0.19376 0.0
O359 O 0.43999 0.95631 0.10163 0.0
O360 O 0.41343 0.94361 0.18758 0.0
C361 C 0.37557 0.90272 0.0294 0.0
O362 O 0.4438 0.92221 0.02538 0.0
O363 O 0.41755 0.88677 0.05218 0.0
In364 In 0.0832 0.49636 0.13136 0.0
O365 O 0.1095 0.48579 0.0883 0.0
O366 O 0.07621 0.47131 0.03211 0.0
C367 C 0.10361 0.52227 0.25605 0.0
C368 C 0.08757 0.52881 0.02936 0.0
C369 C 0.04349 0.46317 0.19846 0.0
O370 O 0.10968 0.50803 0.23035 0.0
O371 O 0.08838 0.52403 0.21721 0.0
O372 O 0.04338 0.47699 0.14836 0.0
O373 O 0.0634 0.46542 0.21278 0.0
C374 C 0.09633 0.47317 0.03446 0.0
O375 O 0.0683 0.51525 0.06263 0.0
O376 O 0.10493 0.52686 0.05066 0.0
In377 In 0.49814 0.5875 0.1229 0.0
O378 O 0.50894 0.62501 0.08627 0.0
O379 O 0.52761 0.60903 0.03898 0.0
C380 C 0.47174 0.57999 0.24778 0.0
C381 C 0.46672 0.56223 0.01449 0.0
C382 C 0.52671 0.57367 0.18523 0.0
O383 O 0.48859 0.60035 0.23204 0.0
O384 O 0.46739 0.56443 0.19809 0.0
O385 O 0.51515 0.56471 0.12471 0.0
O386 O 0.52515 0.59077 0.21181 0.0
C387 C 0.5244 0.62649 0.03976 0.0
O388 O 0.47874 0.55497 0.04951 0.0
O389 O 0.46989 0.58202 0.036 0.0
In390 In 0.08545 0.59059 0.61307 0.0
O391 O 0.11327 0.62863 0.58592 0.0
O392 O 0.08165 0.61199 0.51923 0.0
C393 C 0.09464 0.5785 0.74968 0.0
C394 C 0.10033 0.56986 0.51405 0.0
C395 C 0.04138 0.57711 0.65791 0.0
O396 O 0.09807 0.59911 0.73802 0.0
O397 O 0.08896 0.5655 0.69139 0.0
O398 O 0.04616 0.56422 0.61626 0.0
O399 O 0.05846 0.59753 0.67078 0.0
C400 C 0.10175 0.62983 0.52947 0.0
O401 O 0.07891 0.56463 0.51795 0.0
O402 O 0.1141 0.58507 0.56157 0.0
In403 In 0.40172 0.49182 0.61012 0.0
O404 O 0.42888 0.50956 0.51663 0.0
O405 O 0.40723 0.5244 0.547 0.0
C406 C 0.41459 0.46105 0.66042 0.0
C407 C 0.36133 0.4697 0.5314 0.0
C408 C 0.41511 0.51667 0.74042 0.0
O409 O 0.42715 0.47762 0.61483 0.0
O410 O 0.39463 0.45867 0.67485 0.0
O411 O 0.39479 0.49871 0.73389 0.0
O412 O 0.42717 0.52289 0.6801 0.0
C413 C 0.42341 0.52534 0.50502 0.0
O414 O 0.36308 0.48112 0.59189 0.0
O415 O 0.37926 0.46819 0.51451 0.0
In416 In 0.50291 0.90902 0.62262 0.0
O417 O 0.48883 0.92255 0.52845 0.0
O418 O 0.46883 0.88607 0.55833 0.0
C419 C 0.53156 0.95188 0.68126 0.0
C420 C 0.52537 0.89276 0.53434 0.0
C421 C 0.47969 0.89123 0.75409 0.0
O422 O 0.51563 0.9481 0.63318 0.0
O423 O 0.53393 0.93431 0.69689 0.0
O424 O 0.49585 0.88726 0.7328 0.0
O425 O 0.47489 0.90295 0.70768 0.0
C426 C 0.47101 0.90257 0.51569 0.0
O427 O 0.50708 0.87931 0.57206 0.0
O428 O 0.53358 0.91446 0.5467 0.0
In429 In 0.2498 0.42071 0.21315 0.0
O430 O 0.28818 0.44645 0.24381 0.0
O431 O 0.26857 0.41621 0.31466 0.0
C432 C 0.24185 0.43851 0.08587 0.0
C433 C 0.22526 0.42901 0.31904 0.0
C434 C 0.24152 0.37966 0.15135 0.0
O435 O 0.2626 0.44596 0.11019 0.0
O436 O 0.22569 0.42317 0.12708 0.0
O437 O 0.22662 0.38129 0.1929 0.0
O438 O 0.26108 0.39843 0.14404 0.0
C439 C 0.2876 0.43525 0.30356 0.0
O440 O 0.22008 0.40834 0.29997 0.0
O441 O 0.24226 0.44544 0.28313 0.0
In442 In 0.57637 0.83245 0.21538 0.0
O443 O 0.54684 0.83941 0.25183 0.0
O444 O 0.58082 0.86049 0.30137 0.0
C445 C 0.55781 0.80697 0.08827 0.0
C446 C 0.57204 0.80195 0.32548 0.0
C447 C 0.61765 0.8625 0.1484 0.0
O448 O 0.55268 0.82231 0.10953 0.0
O449 O 0.57109 0.80382 0.13302 0.0
O450 O 0.61574 0.84768 0.19815 0.0
O451 O 0.59905 0.8632 0.13517 0.0
C452 C 0.55951 0.85527 0.29921 0.0
O453 O 0.5916 0.81975 0.30863 0.0
O454 O 0.55476 0.79909 0.28554 0.0
In455 In 0.16666 0.74572 0.22778 0.0
O456 O 0.15698 0.70852 0.26407 0.0
O457 O 0.13855 0.7242 0.31538 0.0
C458 C 0.19105 0.75448 0.0978 0.0
C459 C 0.19983 0.76936 0.33338 0.0
C460 C 0.13697 0.75801 0.16515 0.0
O461 O 0.17564 0.73362 0.11586 0.0
O462 O 0.19494 0.77005 0.14708 0.0
O463 O 0.15189 0.77038 0.21571 0.0
O464 O 0.13604 0.73873 0.14947 0.0
C465 C 0.14212 0.70698 0.31328 0.0
O466 O 0.18323 0.7735 0.32043 0.0
O467 O 0.20018 0.75385 0.29138 0.0
C468 C 0.22045 0.00696 0.32397 0.0
C469 C 0.19885 0.98598 0.3111 0.0
C470 C 0.19732 0.99862 0.18087 0.0
C471 C 0.21793 0.0206 0.19536 0.0
N472 N 0.24443 0.04807 0.29062 0.0
N473 N 0.16324 0.96516 0.23648 0.0
C474 C 0.22831 0.02552 0.26969 0.0
C475 C 0.18613 0.98288 0.24251 0.0
N476 N 0.23342 0.00924 0.38792 0.0
N477 N 0.18908 0.9921 0.10797 0.0
H478 H 0.15433 0.95348 0.28107 0.0
H479 H 0.15254 0.96354 0.19003 0.0
H480 H 0.1976 0.00238 0.0602 0.0
H481 H 0.17535 0.97529 0.09426 0.0
H482 H 0.25055 0.02317 0.39584 0.0
H483 H 0.22762 0.99635 0.4305 0.0
H484 H 0.2508 0.05267 0.34627 0.0
H485 H 0.24926 0.06268 0.2557 0.0
C486 C 0.00405 0.21858 0.1638 0.0
C487 C 0.98053 0.20252 0.18544 0.0
C488 C 0.99209 0.20822 0.32046 0.0
C489 C 0.01603 0.22218 0.2986 0.0
N490 N 0.04528 0.23663 0.19732 0.0
N491 N 0.95323 0.17758 0.28267 0.0
C492 C 0.02221 0.2264 0.21966 0.0
C493 C 0.9748 0.19611 0.26337 0.0
N494 N 0.00901 0.2268 0.09039 0.0
N495 N 0.98571 0.20707 0.39546 0.0
H496 H 0.94061 0.1673 0.24203 0.0
H497 H 0.94891 0.17076 0.33789 0.0
H498 H 0.9978 0.21631 0.43883 0.0
H499 H 0.96819 0.19897 0.41337 0.0
H500 H 0.02545 0.24052 0.07346 0.0
H501 H 0.99615 0.22137 0.04786 0.0
H502 H 0.0504 0.23762 0.14041 0.0
H503 H 0.0593 0.24198 0.23531 0.0
C504 C 0.78657 0.78045 0.32564 0.0
C505 C 0.77546 0.79354 0.3058 0.0
C506 C 0.78036 0.78804 0.16956 0.0
C507 C 0.79381 0.77734 0.18963 0.0
N508 N 0.81354 0.76724 0.28698 0.0
N509 N 0.76546 0.81357 0.20918 0.0
C510 C 0.79787 0.77446 0.26776 0.0
C511 C 0.7732 0.79828 0.22779 0.0
N512 N 0.78581 0.77323 0.39948 0.0
N513 N 0.77392 0.78792 0.0951 0.0
H514 H 0.76061 0.82202 0.24976 0.0
H515 H 0.76594 0.81965 0.15379 0.0
H516 H 0.77877 0.78046 0.05097 0.0
H517 H 0.76201 0.79322 0.07818 0.0
H518 H 0.79143 0.76153 0.41582 0.0
H519 H 0.77749 0.77715 0.44332 0.0
H520 H 0.81908 0.7673 0.34286 0.0
H521 H 0.82282 0.76334 0.24669 0.0
C522 C 0.77463 0.96972 0.71455 0.0
C523 C 0.77354 0.97417 0.79369 0.0
C524 C 0.79334 0.01655 0.76799 0.0
C525 C 0.79237 0.01194 0.688 0.0
N526 N 0.77702 0.98369 0.58489 0.0
N527 N 0.77674 0.00126 0.89278 0.0
C528 C 0.78156 0.98839 0.66114 0.0
C529 C 0.78141 0.99743 0.81961 0.0
N530 N 0.77007 0.94798 0.69031 0.0
N531 N 0.80654 0.03901 0.7956 0.0
H532 H 0.76751 0.98767 0.93191 0.0
H533 H 0.77984 0.01763 0.9121 0.0
H534 H 0.81619 0.05374 0.76115 0.0
H535 H 0.80994 0.04279 0.85365 0.0
H536 H 0.77328 0.94465 0.6346 0.0
H537 H 0.76533 0.93377 0.727 0.0
H538 H 0.76698 0.96666 0.56319 0.0
H539 H 0.78107 0.99681 0.54413 0.0
C540 C 0.01914 0.79209 0.72335 0.0
C541 C 0.01479 0.79003 0.80357 0.0
C542 C 0.97256 0.77301 0.77929 0.0
C543 C 0.9767 0.77269 0.69951 0.0
N544 N 0.00344 0.777 0.59762 0.0
N545 N 0.98695 0.77395 0.90753 0.0
C546 C -0.00015 0.78079 0.67205 0.0
C547 C 0.99136 0.77914 0.83149 0.0
N548 N 0.04149 0.80585 0.69554 0.0
N549 N 0.95103 0.7686 0.80535 0.0
H550 H 0.00023 0.77761 0.9473 0.0
H551 H 0.96999 0.76384 0.92969 0.0
H552 H 0.93683 0.76471 0.7695 0.0
H553 H 0.94796 0.77119 0.86203 0.0
H554 H 0.04506 0.80994 0.63772 0.0
H555 H 0.05624 0.81529 0.73014 0.0
H556 H 0.01976 0.78038 0.57686 0.0
H557 H 0.98971 0.76821 0.55855 0.0
C558 C 0.2294 0.22882 0.71067 0.0
C559 C 0.21651 0.20479 0.68848 0.0
C560 C 0.1848 0.19822 0.77738 0.0
C561 C 0.19878 0.22167 0.80483 0.0
N562 N 0.23626 0.25783 0.80827 0.0
N563 N 0.18387 0.16539 0.7111 0.0
C564 C 0.22162 0.23659 0.77435 0.0
C565 C 0.1947 0.18914 0.72442 0.0
N566 N 0.24868 0.2444 0.66929 0.0
N567 N 0.16173 0.18483 0.79918 0.0
H568 H 0.19022 0.15768 0.67288 0.0
H569 H 0.16968 0.15299 0.74331 0.0
H570 H 0.15357 0.19041 0.83841 0.0
H571 H 0.14998 0.16888 0.77314 0.0
H572 H 0.25739 0.26257 0.67796 0.0
H573 H 0.25459 0.23943 0.62117 0.0
H574 H 0.25394 0.2684 0.7934 0.0
H575 H 0.23148 0.2638 0.85664 0.0
C576 C 0.85053 0.32033 0.61327 0.0
C577 C 0.86505 0.31204 0.64506 0.0
C578 C 0.89637 0.33606 0.55369 0.0
C579 C 0.88278 0.34597 0.52675 0.0
N580 N 0.84832 0.35034 0.53899 0.0
N581 N 0.90324 0.31517 0.65572 0.0
C582 C 0.86019 0.33882 0.55846 0.0
C583 C 0.88839 0.32078 0.61802 0.0
N584 N 0.8272 0.30993 0.6328 0.0
N585 N 0.91654 0.34064 0.51605 0.0
H586 H 0.8982 0.30452 0.7044 0.0
H587 H 0.92116 0.3229 0.64355 0.0
H588 H 0.92262 0.35131 0.46751 0.0
H589 H 0.92594 0.33206 0.52815 0.0
H590 H 0.81513 0.31307 0.60385 0.0
H591 H 0.81927 0.29663 0.67356 0.0
H592 H 0.83341 0.34804 0.56796 0.0
H593 H 0.85431 0.36369 0.49821 0.0
C594 C 0.63779 0.53321 0.6147 0.0
C595 C 0.64267 0.53554 0.53468 0.0
C596 C 0.68484 0.55469 0.56173 0.0
C597 C 0.68016 0.55497 0.64093 0.0
N598 N 0.65243 0.54777 0.74224 0.0
N599 N 0.67105 0.55337 0.4327 0.0
C600 C 0.65669 0.54515 0.66738 0.0
C601 C 0.66627 0.5477 0.50834 0.0
N602 N 0.61539 0.5187 0.64086 0.0
N603 N 0.70681 0.55998 0.53755 0.0
H604 H 0.65794 0.54938 0.39197 0.0
H605 H 0.68806 0.56428 0.41197 0.0
H606 H 0.72061 0.56384 0.57516 0.0
H607 H 0.71056 0.55785 0.48115 0.0
H608 H 0.61143 0.51439 0.69838 0.0
H609 H 0.60097 0.50904 0.60514 0.0
H610 H 0.63578 0.54328 0.7629 0.0
H611 H 0.66587 0.55629 0.78245 0.0
C612 C 0.45937 0.14409 0.57404 0.0
C613 C 0.45166 0.13216 0.64482 0.0
C614 C 0.46737 0.10662 0.60848 0.0
C615 C 0.47088 0.11567 0.53247 0.0
N616 N 0.46602 0.14051 0.44032 0.0
N617 N 0.44649 0.10069 0.72844 0.0
C618 C 0.4658 0.13379 0.51446 0.0
C619 C 0.45511 0.11298 0.6619 0.0
N620 N 0.46147 0.16576 0.56468 0.0
N621 N 0.47694 0.09322 0.63127 0.0
H622 H 0.43807 0.1054 0.76973 0.0
H623 H 0.44626 0.08495 0.73994 0.0
H624 H 0.48753 0.08953 0.59604 0.0
H625 H 0.47668 0.08808 0.68782 0.0
H626 H 0.46911 0.17619 0.51642 0.0
H627 H 0.45792 0.1743 0.60866 0.0
H628 H 0.46029 0.15217 0.4243 0.0
H629 H 0.46939 0.13256 0.3941 0.0
C630 C 0.46565 0.3239 0.10464 0.0
C631 C 0.44406 0.31781 0.14189 0.0
C632 C 0.43887 0.34509 0.05909 0.0
C633 C 0.46141 0.35267 0.02652 0.0
N634 N 0.4984 0.35262 0.02955 0.0
N635 N 0.41217 0.3254 0.16482 0.0
C636 C 0.47541 0.34302 0.05232 0.0
C637 C 0.43126 0.32925 0.1221 0.0
N638 N 0.47636 0.31076 0.11601 0.0
N639 N 0.42428 0.35217 0.02762 0.0
H640 H 0.40635 0.31414 0.21205 0.0
H641 H 0.40352 0.33501 0.15812 0.0
H642 H 0.42892 0.36316 0.97989 0.0
H643 H 0.40676 0.34534 0.04396 0.0
H644 H 0.4903 0.31249 0.08254 0.0
H645 H 0.47016 0.29667 0.15403 0.0
H646 H 0.51015 0.34821 0.05443 0.0
H647 H 0.50657 0.36657 0.99111 0.0
C648 C 0.65653 0.11226 0.17828 0.0
C649 C 0.68029 0.12217 0.15437 0.0
C650 C 0.66712 0.11088 0.02181 0.0
C651 C 0.64379 0.10402 0.04424 0.0
N652 N 0.61672 0.10166 0.14294 0.0
N653 N 0.70857 0.13492 0.05031 0.0
C654 C 0.63852 0.1055 0.12233 0.0
C655 C 0.68574 0.12247 0.07535 0.0
N656 N 0.65106 0.10869 0.25435 0.0
N657 N 0.67147 0.10575 0.94992 0.0
H658 H 0.72297 0.1444 0.08625 0.0
H659 H 0.71308 0.1379 0.99261 0.0
H660 H 0.65819 0.0968 0.90952 0.0
H661 H 0.6878 0.10814 0.93314 0.0
H662 H 0.6338 0.0993 0.27468 0.0
H663 H 0.66375 0.11302 0.29688 0.0
H664 H 0.61289 0.10522 0.19747 0.0
H665 H 0.60299 0.09703 0.10427 0.0
C666 C 0.88413 0.54064 0.15999 0.0
C667 C 0.87102 0.55131 0.13561 0.0
C668 C 0.87792 0.54551 0.00155 0.0
C669 C 0.88887 0.53264 0.02583 0.0
N670 N 0.89902 0.51449 0.12851 0.0
N671 N 0.85131 0.55975 0.03368 0.0
C672 C 0.89116 0.52931 0.10519 0.0
C673 C 0.86681 0.55267 0.05649 0.0
N674 N 0.89051 0.54197 0.23508 0.0
N675 N 0.87887 0.55165 0.92634 0.0
H676 H 0.84224 0.5646 0.07175 0.0
H677 H 0.84564 0.55859 0.97735 0.0
H678 H 0.88729 0.54715 0.88451 0.0
H679 H 0.8734 0.56319 0.90676 0.0
H680 H 0.9023 0.53685 0.25481 0.0
H681 H 0.88566 0.55014 0.27681 0.0
H682 H 0.89837 0.50926 0.18514 0.0
H683 H 0.90425 0.50563 0.09088 0.0
C684 C 0.54646 0.65941 0.8515 0.0
C685 C 0.55668 0.68311 0.87651 0.0
C686 C 0.54875 0.6696 0.00991 0.0
C687 C 0.53598 0.64598 0.98401 0.0
N688 N 0.51825 0.61863 0.8789 0.0
N689 N 0.56332 0.71057 0.97966 0.0
C690 C 0.53365 0.64089 0.90443 0.0
C691 C 0.5568 0.68823 0.95582 0.0
N692 N 0.54961 0.65451 0.77789 0.0
N693 N 0.55374 0.67428 0.08596 0.0
H694 H 0.56865 0.72482 0.94272 0.0
H695 H 0.5611 0.71455 0.03566 0.0
H696 H 0.54831 0.66107 0.12725 0.0
H697 H 0.56517 0.69112 0.10704 0.0
H698 H 0.5445 0.63752 0.75889 0.0
H699 H 0.55955 0.6676 0.73794 0.0
H700 H 0.51415 0.61457 0.8213 0.0
H701 H 0.50764 0.60471 0.91533 0.0
C702 C 0.34613 0.86971 0.94696 0.0
C703 C 0.35519 0.89289 0.97647 0.0
C704 C 0.33004 0.89963 0.88811 0.0
C705 C 0.31949 0.87582 0.86362 0.0
N706 N 0.31474 0.83689 0.87916 0.0
N707 N 0.35315 0.92858 0.98501 0.0
C708 C 0.32682 0.86051 0.89536 0.0
C709 C 0.34643 0.90751 0.9497 0.0
N710 N 0.35656 0.85671 0.96537 0.0
N711 N 0.32503 0.91494 0.85057 0.0
H712 H 0.36478 0.93468 0.03128 0.0
H713 H 0.34557 0.93895 0.97339 0.0
H714 H 0.31351 0.9099 0.8041 0.0
H715 H 0.33393 0.93305 0.86053 0.0
H716 H 0.35284 0.8412 0.93721 0.0
H717 H 0.37043 0.86224 0.00399 0.0
H718 H 0.31723 0.82452 0.90892 0.0
H719 H 0.30072 0.82911 0.84088 0.0
C720 C 0.09829 0.43086 0.88886 0.0
C721 C 0.12094 0.44529 0.85633 0.0
C722 C 0.12568 0.47871 0.93296 0.0
C723 C 0.10468 0.46344 0.97335 0.0
N724 N 0.07246 0.42407 0.99691 0.0
N725 N 0.15834 0.48195 0.85959 0.0
C726 C 0.09128 0.43925 0.95307 0.0
C727 C 0.13522 0.46899 0.88132 0.0
N728 N 0.08322 0.40942 0.85706 0.0
N729 N 0.1361 0.50263 0.94123 0.0
H730 H 0.16661 0.47565 0.82354 0.0
H731 H 0.17005 0.49824 0.88377 0.0
H732 H 0.12937 0.51071 0.97643 0.0
H733 H 0.14995 0.51452 0.90675 0.0
H734 H 0.06567 0.39911 0.87365 0.0
H735 H 0.08756 0.40301 0.80875 0.0
H736 H 0.06355 0.40584 0.98943 0.0
H737 H 0.0671 0.42941 0.04541 0.0
C738 C 0.12115 0.67315 0.50087 0.0
C739 C 0.11176 0.64968 0.47449 0.0
C740 C 0.11919 0.66374 0.3418 0.0
C741 C 0.13105 0.6873 0.36863 0.0
N742 N 0.14718 0.71456 0.47492 0.0
N743 N 0.10599 0.62291 0.37028 0.0
C744 C 0.13306 0.69209 0.44853 0.0
C745 C 0.11186 0.645 0.39503 0.0
N746 N 0.11792 0.67737 0.57522 0.0
N747 N 0.11413 0.65917 0.26571 0.0
H748 H 0.10094 0.60861 0.40684 0.0
H749 H 0.10842 0.61925 0.31409 0.0
H750 H 0.11872 0.67243 0.22502 0.0
H751 H 0.10331 0.64227 0.2441 0.0
H752 H 0.12217 0.69401 0.59546 0.0
H753 H 0.10888 0.66394 0.61504 0.0
H754 H 0.1514 0.71851 0.53251 0.0
H755 H 0.15658 0.72906 0.43926 0.0
C756 C 0.33066 0.43697 0.4523 0.0
C757 C 0.34087 0.46053 0.47892 0.0
C758 C 0.31493 0.46715 0.39385 0.0
C759 C 0.30682 0.44453 0.36087 0.0
N760 N 0.30993 0.40943 0.34968 0.0
N761 N 0.34547 0.49947 0.46591 0.0
C762 C 0.31546 0.42981 0.38776 0.0
C763 C 0.3337 0.47601 0.4476 0.0
N764 N 0.33495 0.42122 0.49023 0.0
N765 N 0.30417 0.4799 0.37651 0.0
H766 H 0.35926 0.50702 0.50511 0.0
H767 H 0.34298 0.51197 0.43694 0.0
H768 H 0.29039 0.47437 0.33746 0.0
H769 H 0.30739 0.495 0.40634 0.0
H770 H 0.32619 0.40323 0.47814 0.0
H771 H 0.3455 0.42572 0.53907 0.0
H772 H 0.31764 0.39921 0.36197 0.0
H773 H 0.29942 0.40394 0.30069 0.0
C774 C 0.54032 0.89438 0.40002 0.0
C775 C 0.53468 0.88368 0.47385 0.0
C776 C 0.54031 0.8518 0.42537 0.0
C777 C 0.54957 0.86446 0.3564 0.0
N778 N 0.56121 0.89933 0.28078 0.0
N779 N 0.5342 0.8546 0.56025 0.0
C780 C 0.5506 0.88632 0.34472 0.0
C781 C 0.536 0.86301 0.48754 0.0
N782 N 0.53435 0.91095 0.38041 0.0
N783 N 0.5351 0.82888 0.43114 0.0
H784 H 0.53234 0.86303 0.60814 0.0
H785 H 0.53726 0.84084 0.57372 0.0
H786 H 0.53764 0.81989 0.38625 0.0
H787 H 0.52623 0.8182 0.47783 0.0
H788 H 0.5361 0.91751 0.32504 0.0
H789 H 0.52507 0.91614 0.41631 0.0
H790 H 0.56469 0.91659 0.2735 0.0
H791 H 0.56803 0.89345 0.23759 0.0
C792 C 0.22814 0.10088 0.70819 0.0
C793 C 0.22607 0.12124 0.71839 0.0
C794 C 0.21517 0.11074 0.85206 0.0
C795 C 0.22212 0.09352 0.84598 0.0
N796 N 0.23384 0.07065 0.76808 0.0
N797 N 0.21808 0.14628 0.79943 0.0
C798 C 0.22766 0.08769 0.77359 0.0
C799 C 0.21926 0.12616 0.78984 0.0
N800 N 0.23065 0.09433 0.63612 0.0
N801 N 0.20481 0.11229 0.91798 0.0
H802 H 0.22112 0.15812 0.75512 0.0
H803 H 0.21575 0.15214 0.85232 0.0
H804 H 0.20137 0.1008 0.96386 0.0
H805 H 0.19752 0.12316 0.92418 0.0
H806 H 0.23016 0.07854 0.62371 0.0
H807 H 0.23128 0.1039 0.58753 0.0
H808 H 0.24105 0.06773 0.7191 0.0
H809 H 0.2327 0.05995 0.81383 0.0
C810 C 0.88056 0.09116 0.78256 0.0
C811 C 0.88047 0.10374 0.7165 0.0
C812 C 0.9116 0.14079 0.77089 0.0
C813 C 0.90952 0.12865 0.84027 0.0
N814 N 0.89845 0.09243 0.90587 0.0
N815 N 0.90034 0.13832 0.63721 0.0
C816 C 0.89612 0.10376 0.84364 0.0
C817 C 0.89752 0.12792 0.70725 0.0
N818 N 0.865 0.0675 0.78839 0.0
N819 N 0.92601 0.16471 0.76733 0.0
H820 H 0.89039 0.12915 0.58955 0.0
H821 H 0.91372 0.15531 0.62418 0.0
H822 H 0.93751 0.17448 0.81124 0.0
H823 H 0.9261 0.17512 0.72223 0.0
H824 H 0.86208 0.0578 0.83836 0.0
H825 H 0.85422 0.05744 0.74345 0.0
H826 H 0.89059 0.0742 0.91077 0.0
H827 H 0.9101 0.10159 0.95043 0.0
C828 C 0.86415 0.76719 0.71177 0.0
C829 C 0.8888 0.77579 0.71308 0.0
C830 C 0.89237 0.79603 0.83438 0.0
C831 C 0.86749 0.78539 0.83673 0.0
N832 N 0.83084 0.76853 0.76707 0.0
N833 N 0.92731 0.8034 0.76375 0.0
C834 C 0.85374 0.77361 0.77157 0.0
C835 C 0.90328 0.79213 0.77006 0.0
N836 N 0.85066 0.75244 0.65425 0.0
N837 N 0.90526 0.80885 0.89602 0.0
H838 H 0.93605 0.80029 0.71949 0.0
H839 H 0.93879 0.81699 0.79967 0.0
H840 H 0.89761 0.81313 0.94114 0.0
H841 H 0.92311 0.81471 0.90375 0.0
H842 H 0.8323 0.74296 0.65513 0.0
H843 H 0.85789 0.7489 0.60635 0.0
H844 H 0.8203 0.76139 0.71886 0.0
H845 H 0.82306 0.77394 0.80822 0.0
C846 C 0.09947 0.24051 0.78812 0.0
C847 C 0.11483 0.23111 0.78641 0.0
C848 C 0.09856 0.21278 0.66253 0.0
C849 C 0.08671 0.22581 0.65789 0.0
N850 N 0.07634 0.25307 0.71462 0.0
N851 N 0.13102 0.21029 0.71819 0.0
C852 C 0.08686 0.23961 0.72083 0.0
C853 C 0.11463 0.21736 0.72326 0.0
N854 N 0.09684 0.25011 0.85422 0.0
N855 N 0.09466 0.19633 0.60775 0.0
H856 H 0.14396 0.21436 0.75946 0.0
H857 H 0.13327 0.20237 0.66973 0.0
H858 H 0.08283 0.19274 0.56274 0.0
H859 H 0.10118 0.18474 0.61123 0.0
H860 H 0.08424 0.25524 0.86119 0.0
H861 H 0.10581 0.25092 0.90452 0.0
H862 H 0.07867 0.26591 0.7544 0.0
H863 H 0.06626 0.25235 0.66754 0.0
C864 C 0.77328 0.85107 0.7299 0.0
C865 C 0.78337 0.8643 0.66249 0.0
C866 C 0.79121 0.90042 0.72914 0.0
C867 C 0.77563 0.88621 0.78803 0.0
N868 N 0.75363 0.84842 0.85017 0.0
N869 N 0.80564 0.90174 0.60003 0.0
C870 C 0.76745 0.86165 0.79065 0.0
C871 C 0.79398 0.88918 0.66363 0.0
N872 N 0.76934 0.82858 0.73573 0.0
N873 N 0.80286 0.92447 0.73498 0.0
H874 H 0.80915 0.89386 0.55376 0.0
H875 H 0.81124 0.91953 0.59202 0.0
H876 H 0.80081 0.93337 0.78102 0.0
H877 H 0.81588 0.93572 0.69699 0.0
H878 H 0.76341 0.81854 0.78545 0.0
H879 H 0.77456 0.82089 0.69364 0.0
H880 H 0.74459 0.83005 0.85069 0.0
H881 H 0.75042 0.85588 0.89816 0.0
C882 C 0.10719 0.89633 0.64954 0.0
C883 C 0.13205 0.90714 0.6458 0.0
C884 C 0.13294 0.89329 0.77502 0.0
C885 C 0.10811 0.87881 0.77227 0.0
N886 N 0.071 0.86629 0.70804 0.0
N887 N 0.16905 0.91554 0.70342 0.0
C888 C 0.09496 0.88059 0.71061 0.0
C889 C 0.14515 0.90598 0.70873 0.0
N890 N 0.09543 0.90117 0.59432 0.0
N891 N 0.14474 0.8951 0.84148 0.0
H892 H 0.17891 0.92562 0.65707 0.0
H893 H 0.17898 0.91232 0.74306 0.0
H894 H 0.13614 0.88625 0.89144 0.0
H895 H 0.1626 0.90712 0.84935 0.0
H896 H 0.07749 0.89554 0.59681 0.0
H897 H 0.10419 0.91278 0.54931 0.0
H898 H 0.06082 0.86462 0.66016 0.0
H899 H 0.06126 0.85493 0.75229 0.0
C900 C 0.77783 0.90516 0.20056 0.0
C901 C 0.75793 0.89492 0.15132 0.0
C902 C 0.73849 0.86038 0.23431 0.0
C903 C 0.75732 0.87134 0.28731 0.0
N904 N 0.79261 0.9064 0.32881 0.0
N905 N 0.71636 0.86655 0.13635 0.0
C906 C 0.77634 0.89446 0.27294 0.0
C907 C 0.73731 0.87377 0.1731 0.0
N908 N 0.79843 0.92429 0.17718 0.0
N909 N 0.7225 0.83677 0.23866 0.0
H910 H 0.71432 0.87619 0.09266 0.0
H911 H 0.70045 0.85244 0.15547 0.0
H912 H 0.72344 0.82551 0.27879 0.0
H913 H 0.70993 0.82779 0.1963 0.0
H914 H 0.81417 0.93086 0.20753 0.0
H915 H 0.80031 0.93243 0.12437 0.0
H916 H 0.80557 0.92408 0.32392 0.0
H917 H 0.7917 0.89932 0.38301 0.0
C918 C 0.08906 0.85483 0.20754 0.0
C919 C 0.09635 0.86563 0.13439 0.0
C920 C 0.13134 0.89871 0.19104 0.0
C921 C 0.12359 0.88864 0.2644 0.0
N922 N 0.09277 0.85997 0.34534 0.0
N923 N 0.11978 0.90115 0.06163 0.0
C924 C 0.10154 0.86773 0.27366 0.0
C925 C 0.11597 0.88871 0.12801 0.0
N926 N 0.07154 0.83183 0.21398 0.0
N927 N 0.15365 0.91726 0.18071 0.0
H928 H 0.10823 0.89455 0.01521 0.0
H929 H 0.13274 0.91882 0.05604 0.0
H930 H 0.16569 0.92501 0.22532 0.0
H931 H 0.16087 0.92365 0.1269 0.0
H932 H 0.06765 0.82238 0.26498 0.0
H933 H 0.06195 0.8215 0.16772 0.0
H934 H 0.07569 0.8462 0.35535 0.0
H935 H 0.10191 0.86851 0.39497 0.0
C936 C 0.14518 0.23755 0.224 0.0
C937 C 0.13226 0.22525 0.15812 0.0
C938 C 0.09498 0.21388 0.22292 0.0
C939 C 0.10796 0.22761 0.28698 0.0
N940 N 0.14425 0.24654 0.35831 0.0
N941 N 0.0958 0.19637 0.10111 0.0
C942 C 0.13275 0.23749 0.29068 0.0
C943 C 0.10739 0.21152 0.16006 0.0
N944 N 0.16923 0.25037 0.22117 0.0
N945 N 0.07105 0.20443 0.21995 0.0
H946 H 0.10478 0.19443 0.0548 0.0
H947 H 0.0778 0.18428 0.10123 0.0
H948 H 0.06115 0.20528 0.2652 0.0
H949 H 0.061 0.19685 0.17107 0.0
H950 H 0.17964 0.26232 0.26321 0.0
H951 H 0.17882 0.24961 0.17479 0.0
H952 H 0.16203 0.25221 0.36695 0.0
H953 H 0.13543 0.24642 0.40822 0.0
C954 C 0.86149 0.74136 0.26637 0.0
C955 C 0.87264 0.76035 0.21399 0.0
C956 C 0.90652 0.78016 0.30081 0.0
C957 C 0.89616 0.76 0.34895 0.0
N958 N 0.86745 0.71842 0.36176 0.0
N959 N 0.90806 0.79544 0.17327 0.0
C960 C 0.87484 0.73965 0.32667 0.0
C961 C 0.89589 0.77909 0.22868 0.0
N962 N 0.8378 0.72569 0.26218 0.0
N963 N 0.92572 0.80058 0.32496 0.0
H964 H 0.90112 0.79479 0.11902 0.0
H965 H 0.92581 0.80818 0.17852 0.0
H966 H 0.93377 0.80219 0.37777 0.0
H967 H 0.93239 0.81646 0.29535 0.0
H968 H 0.82877 0.713 0.30414 0.0
H969 H 0.82659 0.72706 0.22283 0.0
H970 H 0.85316 0.70274 0.34208 0.0
H971 H 0.87712 0.71592 0.40429 0.0
C972 C 0.2458 0.1404 0.21733 0.0
C973 C 0.23437 0.11545 0.21631 0.0
C974 C 0.21498 0.1137 0.33786 0.0
C975 C 0.2292 0.13847 0.34455 0.0
N976 N 0.25978 0.17567 0.29395 0.0
N977 N 0.20979 0.07799 0.27879 0.0
C978 C 0.24483 0.152 0.28471 0.0
C979 C 0.21913 0.10193 0.2769 0.0
N980 N 0.25719 0.15297 0.15339 0.0
N981 N 0.19748 0.10152 0.39006 0.0
H982 H 0.21261 0.06858 0.23604 0.0
H983 H 0.20085 0.0676 0.32584 0.0
H984 H 0.19405 0.10987 0.43508 0.0
H985 H 0.185 0.0837 0.38459 0.0
H986 H 0.2638 0.17105 0.14802 0.0
H987 H 0.25815 0.14497 0.10292 0.0
H988 H 0.27372 0.18576 0.25699 0.0
H989 H 0.25928 0.18508 0.34124 0.0
C990 C 0.87035 0.12095 0.34282 0.0
C991 C 0.86519 0.09718 0.35132 0.0
C992 C 0.87879 0.09792 0.22009 0.0
C993 C 0.88638 0.12236 0.21584 0.0
N994 N 0.89458 0.15833 0.28109 0.0
N995 N 0.86772 0.06407 0.30224 0.0
C996 C 0.88369 0.13422 0.27941 0.0
C997 C 0.87022 0.08586 0.29098 0.0
N998 N 0.86151 0.13069 0.39283 0.0
N999 N 0.87907 0.08611 0.15602 0.0
H1000 H 0.86191 0.05493 0.3538 0.0
H1001 H 0.87338 0.05597 0.26301 0.0
H1002 H 0.885 0.09435 0.10309 0.0
H1003 H 0.87155 0.06784 0.15371 0.0
H1004 H 0.86271 0.14699 0.38351 0.0
H1005 H 0.85024 0.12155 0.4379 0.0
H1006 H 0.89549 0.16775 0.33026 0.0
H1007 H 0.90492 0.16917 0.23669 0.0
C1008 C 0.87939 0.4295 0.16613 0.0
C1009 C 0.89558 0.4213 0.17369 0.0
C1010 C 0.91 0.43456 0.04382 0.0
C1011 C 0.89699 0.44655 0.04186 0.0
N1012 N 0.86949 0.45616 0.102 0.0
N1013 N 0.92663 0.41583 0.12185 0.0
C1014 C 0.88131 0.44384 0.10247 0.0
C1015 C 0.91073 0.4234 0.11261 0.0
N1016 N 0.86227 0.42358 0.22031 0.0
N1017 N 0.92129 0.43354 0.97938 0.0
H1018 H 0.92705 0.40679 0.17045 0.0
H1019 H 0.94019 0.41955 0.08333 0.0
H1020 H 0.9206 0.44114 0.92766 0.0
H1021 H 0.92934 0.42332 0.97495 0.0
H1022 H 0.84845 0.42705 0.21486 0.0
H1023 H 0.86066 0.41314 0.26763 0.0
H1024 H 0.86031 0.45725 0.14896 0.0
H1025 H 0.87008 0.46676 0.05674 0.0
C1026 C 0.56118 0.44298 0.16924 0.0
C1027 C 0.57279 0.46781 0.17531 0.0
C1028 C 0.56148 0.47031 0.0435 0.0
C1029 C 0.54618 0.44553 0.04355 0.0
N1030 N 0.52903 0.40837 0.11141 0.0
N1031 N 0.58341 0.50564 0.11974 0.0
C1032 C 0.54566 0.43176 0.10711 0.0
C1033 C 0.57322 0.48173 0.11234 0.0
N1034 N 0.56473 0.43018 0.22402 0.0
N1035 N 0.56487 0.48283 0.97759 0.0
H1036 H 0.59267 0.51478 0.16834 0.0
H1037 H 0.58152 0.51628 0.07937 0.0
H1038 H 0.5566 0.47487 0.92621 0.0
H1039 H 0.57748 0.50061 0.97209 0.0
H1040 H 0.55836 0.41211 0.21944 0.0
H1041 H 0.57615 0.43817 0.27011 0.0
H1042 H 0.52635 0.39811 0.15999 0.0
H1043 H 0.5162 0.39973 0.06969 0.0
C1044 C 0.53139 0.09813 0.04146 0.0
C1045 C 0.55629 0.10904 0.03958 0.0
C1046 C 0.55871 0.12944 0.15949 0.0
C1047 C 0.53421 0.11439 0.16944 0.0
N1048 N 0.4965 0.08475 0.11969 0.0
N1049 N 0.59426 0.13586 0.09614 0.0
C1050 C 0.5202 0.09926 0.10953 0.0
C1051 C 0.57022 0.12546 0.09728 0.0
N1052 N 0.51855 0.08682 0.97786 0.0
N1053 N 0.57086 0.14721 0.21085 0.0
H1054 H 0.60365 0.13368 0.05195 0.0
H1055 H 0.605 0.14553 0.14167 0.0
H1056 H 0.56247 0.1502 0.25676 0.0
H1057 H 0.58844 0.1602 0.20388 0.0
H1058 H 0.50046 0.08024 0.97326 0.0
H1059 H 0.52647 0.08617 0.92678 0.0
H1060 H 0.48597 0.07098 0.08269 0.0
H1061 H 0.48745 0.08583 0.16709 0.0
C1062 C 0.75808 0.55566 0.02196 0.0
C1063 C 0.76799 0.57445 0.96866 0.0
C1064 C 0.80514 0.59305 0.03908 0.0
C1065 C 0.79478 0.5755 0.09643 0.0
N1066 N 0.7595 0.54312 0.15129 0.0
N1067 N 0.79782 0.61484 0.94258 0.0
C1068 C 0.77066 0.55761 0.09059 0.0
C1069 C 0.79055 0.59435 0.98225 0.0
N1070 N 0.73721 0.53571 0.00616 0.0
N1071 N 0.82904 0.60768 0.03573 0.0
H1072 H 0.78697 0.61705 0.90383 0.0
H1073 H 0.81336 0.63042 0.95531 0.0
H1074 H 0.84082 0.60635 0.07268 0.0
H1075 H 0.83732 0.61926 0.99035 0.0
H1076 H 0.73047 0.52047 0.03933 0.0
H1077 H 0.72756 0.53374 0.95652 0.0
H1078 H 0.74142 0.53126 0.15237 0.0
H1079 H 0.76779 0.54464 0.20361 0.0
C1080 C 0.44645 0.22314 0.96931 0.0
C1081 C 0.43863 0.19875 0.97518 0.0
C1082 C 0.43012 0.19962 0.11134 0.0
C1083 C 0.4337 0.22265 0.10097 0.0
N1084 N 0.44459 0.25655 0.02058 0.0
N1085 N 0.42448 0.16364 0.05237 0.0
C1086 C 0.44211 0.23468 0.03048 0.0
C1087 C 0.43139 0.18704 0.04684 0.0
N1088 N 0.45804 0.23512 0.90479 0.0
N1089 N 0.42564 0.18993 0.18295 0.0
H1090 H 0.4268 0.15426 0.00848 0.0
H1091 H 0.41582 0.15325 0.09968 0.0
H1092 H 0.42408 0.19857 0.2308 0.0
H1093 H 0.42522 0.17422 0.19625 0.0
H1094 H 0.46601 0.25335 0.899 0.0
H1095 H 0.46173 0.22695 0.85983 0.0
H1096 H 0.44818 0.26514 0.96803 0.0
H1097 H 0.44135 0.26549 0.06395 0.0
C1098 C 0.81017 0.2433 0.06568 0.0
C1099 C 0.79751 0.24059 0.99706 0.0
C1100 C 0.76063 0.21167 0.05801 0.0
C1101 C 0.77357 0.21289 0.12487 0.0
N1102 N 0.80864 0.23423 0.20112 0.0
N1103 N 0.76062 0.22882 0.93473 0.0
C1104 C 0.79776 0.23017 0.1315 0.0
C1105 C 0.77262 0.22698 0.99588 0.0
N1106 N 0.83411 0.2575 0.06673 0.0
N1107 N 0.73732 0.19492 0.0517 0.0
H1108 H 0.76926 0.2402 0.88907 0.0
H1109 H 0.74234 0.22103 0.93256 0.0
H1110 H 0.72756 0.18365 0.09607 0.0
H1111 H 0.72783 0.19116 0.00086 0.0
H1112 H 0.84485 0.25776 0.11108 0.0
H1113 H 0.84338 0.26879 0.02177 0.0
H1114 H 0.82569 0.24792 0.21175 0.0
H1115 H 0.7998 0.2251 0.25042 0.0
C1116 C 0.43472 0.21156 0.45895 0.0
C1117 C 0.43367 0.23256 0.4657 0.0
C1118 C 0.43098 0.22766 0.60512 0.0
C1119 C 0.42745 0.20458 0.59578 0.0
N1120 N 0.42209 0.173 0.51118 0.0
N1121 N 0.42832 0.2597 0.54604 0.0
C1122 C 0.42822 0.19605 0.52197 0.0
C1123 C 0.43154 0.24069 0.53912 0.0
N1124 N 0.44228 0.20665 0.39227 0.0
N1125 N 0.43322 0.2369 0.67677 0.0
H1126 H 0.42844 0.26978 0.49988 0.0
H1127 H 0.42378 0.26448 0.59738 0.0
H1128 H 0.43166 0.22742 0.72651 0.0
H1129 H 0.43834 0.25453 0.6866 0.0
H1130 H 0.44523 0.19248 0.38623 0.0
H1131 H 0.44825 0.21838 0.34622 0.0
H1132 H 0.42006 0.1655 0.45712 0.0
H1133 H 0.41721 0.16084 0.55562 0.0
C1134 C 0.76356 0.19529 0.62975 0.0
C1135 C 0.78089 0.21945 0.62437 0.0
C1136 C 0.76735 0.22104 0.49537 0.0
C1137 C 0.75354 0.19615 0.49515 0.0
N1138 N 0.73832 0.15898 0.56193 0.0
N1139 N 0.8009 0.25528 0.54997 0.0
C1140 C 0.75112 0.18307 0.5628 0.0
C1141 C 0.78295 0.2325 0.55716 0.0
N1142 N 0.75898 0.18412 0.69894 0.0
N1143 N 0.76569 0.23358 0.43558 0.0
H1144 H 0.81331 0.26403 0.59278 0.0
H1145 H 0.80477 0.26482 0.49918 0.0
H1146 H 0.75415 0.2254 0.38989 0.0
H1147 H 0.7738 0.25192 0.43515 0.0
H1148 H 0.745 0.16712 0.70825 0.0
H1149 H 0.7679 0.19271 0.74885 0.0
H1150 H 0.73867 0.14848 0.60611 0.0
H1151 H 0.72816 0.14928 0.51549 0.0
C1152 C 0.78232 0.55248 0.59417 0.0
C1153 C 0.77565 0.57009 0.59246 0.0
C1154 C 0.79385 0.58311 0.46741 0.0
C1155 C 0.79789 0.56371 0.46414 0.0
N1156 N 0.7938 0.5283 0.52065 0.0
N1157 N 0.76954 0.59783 0.5182 0.0
C1158 C 0.79152 0.54788 0.52656 0.0
C1159 C 0.77974 0.5841 0.52638 0.0
N1160 N 0.78082 0.54093 0.66086 0.0
N1161 N 0.80455 0.60146 0.41693 0.0
H1162 H 0.75837 0.59874 0.5588 0.0
H1163 H 0.77009 0.60629 0.46709 0.0
H1164 H 0.81636 0.60257 0.37514 0.0
H1165 H 0.80401 0.61703 0.42275 0.0
H1166 H 0.78759 0.52962 0.66743 0.0
H1167 H 0.77464 0.54419 0.71175 0.0
H1168 H 0.78724 0.51485 0.56123 0.0
H1169 H 0.80067 0.52464 0.47205 0.0
C1170 C 0.58526 0.10099 0.61213 0.0
C1171 C 0.58109 0.1101 0.6801 0.0
C1172 C 0.55525 0.12084 0.61104 0.0
C1173 C 0.55594 0.10771 0.5474 0.0
N1174 N 0.57223 0.08653 0.4831 0.0
N1175 N 0.56554 0.13179 0.74444 0.0
C1176 C 0.57145 0.09846 0.54623 0.0
C1177 C 0.56746 0.12142 0.67897 0.0
N1178 N 0.60221 0.09463 0.61114 0.0
N1179 N 0.54241 0.13211 0.60704 0.0
H1180 H 0.57569 0.1338 0.79295 0.0
H1181 H 0.55392 0.13812 0.75181 0.0
H1182 H 0.53236 0.13119 0.55956 0.0
H1183 H 0.54246 0.14342 0.64889 0.0
H1184 H 0.60742 0.08944 0.56211 0.0
H1185 H 0.61259 0.09643 0.65866 0.0
H1186 H 0.58094 0.0769 0.4813 0.0
H1187 H 0.56325 0.08549 0.4326 0.0
C1188 C 0.88199 0.4256 0.61387 0.0
C1189 C 0.89092 0.4384 0.54477 0.0
C1190 C 0.89326 0.4735 0.60338 0.0
C1191 C 0.8858 0.46101 0.67361 0.0
N1192 N 0.86517 0.42389 0.73893 0.0
N1193 N 0.89908 0.47186 0.46649 0.0
C1194 C 0.87731 0.4365 0.67603 0.0
C1195 C 0.8945 0.46152 0.53708 0.0
N1196 N 0.87971 0.40378 0.62218 0.0
N1197 N 0.90043 0.497 0.60113 0.0
H1198 H 0.90013 0.46337 0.41735 0.0
H1199 H 0.89993 0.48789 0.45538 0.0
H1200 H 0.89871 0.50601 0.64754 0.0
H1201 H 0.9089 0.50783 0.55446 0.0
H1202 H 0.87574 0.39473 0.67396 0.0
H1203 H 0.88366 0.39544 0.57875 0.0
H1204 H 0.85674 0.40556 0.74207 0.0
H1205 H 0.86153 0.43177 0.78489 0.0
C1206 C 0.53059 0.42593 0.5397 0.0
C1207 C 0.55465 0.44353 0.54552 0.0
C1208 C 0.55594 0.43162 0.67707 0.0
C1209 C 0.53106 0.41805 0.67618 0.0
N1210 N 0.49451 0.39862 0.60609 0.0
N1211 N 0.59145 0.46166 0.61506 0.0
C1212 C 0.51835 0.41357 0.6067 0.0
C1213 C 0.56789 0.4455 0.6122 0.0
N1214 N 0.5197 0.42128 0.46999 0.0
N1215 N 0.56786 0.43123 0.74076 0.0
H1216 H 0.60099 0.47154 0.56788 0.0
H1217 H 0.60154 0.46602 0.6647 0.0
H1218 H 0.55911 0.42086 0.78831 0.0
H1219 H 0.58613 0.43932 0.74432 0.0
H1220 H 0.50259 0.40768 0.45979 0.0
H1221 H 0.52863 0.43006 0.42031 0.0
H1222 H 0.48363 0.39655 0.55986 0.0
H1223 H 0.48532 0.38851 0.65338 0.0
C1224 C 0.56557 0.76455 0.38752 0.0
C1225 C 0.56896 0.78764 0.39421 0.0
C1226 C 0.56357 0.78261 0.53225 0.0
C1227 C 0.5647 0.76159 0.52756 0.0
N1228 N 0.5684 0.73299 0.44995 0.0
N1229 N 0.57479 0.82021 0.47453 0.0
C1230 C 0.56574 0.75237 0.45491 0.0
C1231 C 0.56895 0.79713 0.467 0.0
N1232 N 0.56252 0.75443 0.31698 0.0
N1233 N 0.55692 0.78846 0.59911 0.0
H1234 H 0.57884 0.83164 0.42826 0.0
H1235 H 0.57743 0.82853 0.5274 0.0
H1236 H 0.55184 0.77757 0.64725 0.0
H1237 H 0.55383 0.80257 0.60386 0.0
H1238 H 0.55756 0.73677 0.30901 0.0
H1239 H 0.56324 0.76325 0.26643 0.0
H1240 H 0.57222 0.72735 0.399 0.0
H1241 H 0.56837 0.72335 0.49732 0.0
C1242 C 0.23406 0.782 0.51971 0.0
C1243 C 0.2432 0.80664 0.52398 0.0
C1244 C 0.23039 0.80686 0.39266 0.0
C1245 C 0.21745 0.78189 0.39402 0.0
N1246 N 0.20667 0.74514 0.45832 0.0
N1247 N 0.24986 0.84299 0.46611 0.0
C1248 C 0.21957 0.76923 0.45669 0.0
C1249 C 0.24175 0.81932 0.46035 0.0
N1250 N 0.23934 0.77093 0.57618 0.0
N1251 N 0.23204 0.81858 0.32613 0.0
H1252 H 0.25898 0.85297 0.51366 0.0
H1253 H 0.24641 0.85252 0.42554 0.0
H1254 H 0.2242 0.80983 0.27523 0.0
H1255 H 0.24304 0.83669 0.31938 0.0
H1256 H 0.23508 0.75334 0.57349 0.0
H1257 H 0.25002 0.78005 0.62274 0.0
H1258 H 0.20512 0.73512 0.50652 0.0
H1259 H 0.19622 0.73498 0.41295 0.0
C1260 C 0.17768 0.42625 0.44926 0.0
C1261 C 0.19112 0.4373 0.51595 0.0
C1262 C 0.22714 0.44409 0.4518 0.0
C1263 C 0.21388 0.4336 0.38446 0.0
N1264 N 0.17796 0.41978 0.31263 0.0
N1265 N 0.22891 0.46224 0.57427 0.0
C1266 C 0.18958 0.42636 0.38108 0.0
C1267 C 0.216 0.44815 0.51474 0.0
N1268 N 0.15359 0.4143 0.45214 0.0
N1269 N 0.24985 0.44861 0.45782 0.0
H1270 H 0.2211 0.46565 0.62093 0.0
H1271 H 0.24725 0.47236 0.57369 0.0
H1272 H 0.25832 0.44484 0.41435 0.0
H1273 H 0.25952 0.45394 0.50844 0.0
H1274 H 0.14297 0.4034 0.40826 0.0
H1275 H 0.14407 0.41398 0.50029 0.0
H1276 H 0.16081 0.41655 0.30504 0.0
H1277 H 0.18624 0.41964 0.26177 0.0
C1278 C 0.45505 0.8854 0.38701 0.0
C1279 C 0.45489 0.89851 0.45144 0.0
C1280 C 0.42954 0.91008 0.3839 0.0
C1281 C 0.42991 0.89716 0.31918 0.0
N1282 N 0.43745 0.86784 0.2648 0.0
N1283 N 0.43768 0.91822 0.51934 0.0
C1284 C 0.44081 0.88319 0.32289 0.0
C1285 C 0.44068 0.90918 0.4525 0.0
N1286 N 0.46986 0.87629 0.38515 0.0
N1287 N 0.41992 0.92438 0.37845 0.0
H1288 H 0.44568 0.91779 0.57052 0.0
H1289 H 0.4257 0.92417 0.52577 0.0
H1290 H 0.41098 0.92507 0.33011 0.0
H1291 H 0.42191 0.93658 0.42025 0.0
H1292 H 0.47287 0.86909 0.33627 0.0
H1293 H 0.48055 0.8774 0.43099 0.0
H1294 H 0.44313 0.85556 0.26691 0.0
H1295 H 0.42691 0.86585 0.21738 0.0
C1296 C 0.12293 0.57183 0.39612 0.0
C1297 C 0.10833 0.55848 0.45802 0.0
C1298 C 0.10205 0.52203 0.3978 0.0
C1299 C 0.11173 0.53484 0.32944 0.0
N1300 N 0.13347 0.5717 0.26295 0.0
N1301 N 0.08602 0.52138 0.52358 0.0
C1302 C 0.12328 0.55978 0.32902 0.0
C1303 C 0.09882 0.53371 0.46114 0.0
N1304 N 0.13601 0.59586 0.40094 0.0
N1305 N 0.09558 0.49871 0.40129 0.0
H1306 H 0.08474 0.52965 0.57291 0.0
H1307 H 0.07607 0.50305 0.52585 0.0
H1308 H 0.09781 0.48983 0.35547 0.0
H1309 H 0.08993 0.48866 0.45104 0.0
H1310 H 0.1484 0.60641 0.36018 0.0
H1311 H 0.13593 0.60527 0.44887 0.0
H1312 H 0.13954 0.5896 0.25503 0.0
H1313 H 0.13508 0.56325 0.21458 0.0
C1314 C 0.45933 0.56043 0.45384 0.0
C1315 C 0.4351 0.54356 0.44577 0.0
C1316 C 0.43452 0.55986 0.32058 0.0
C1317 C 0.45944 0.5732 0.3221 0.0
N1318 N 0.49615 0.58633 0.39009 0.0
N1319 N 0.3994 0.52607 0.37055 0.0
C1320 C 0.47204 0.57403 0.38936 0.0
C1321 C 0.42245 0.54324 0.37954 0.0
N1322 N 0.47009 0.5635 0.52329 0.0
N1323 N 0.42259 0.56293 0.2617 0.0
H1324 H 0.39018 0.51313 0.41156 0.0
H1325 H 0.38997 0.52345 0.32005 0.0
H1326 H 0.43129 0.5752 0.21819 0.0
H1327 H 0.40429 0.55518 0.26004 0.0
H1328 H 0.48712 0.57713 0.53483 0.0
H1329 H 0.46119 0.55371 0.57156 0.0
H1330 H 0.50621 0.58471 0.43325 0.0
H1331 H 0.50629 0.59741 0.34593 0.0
C1332 C 0.07185 0.54585 0.8412 0.0
C1333 C 0.09219 0.56806 0.82668 0.0
C1334 C 0.10716 0.56677 0.95405 0.0
C1335 C 0.08883 0.54293 0.96168 0.0
N1336 N 0.05732 0.50806 0.90102 0.0
N1337 N 0.13057 0.59901 0.86682 0.0
C1338 C 0.07206 0.53198 0.9024 0.0
C1339 C 0.11021 0.57853 0.8827 0.0
N1340 N 0.052 0.53806 0.79755 0.0
N1341 N 0.12124 0.5783 0.01521 0.0
H1342 H 0.13342 0.60801 0.81518 0.0
H1343 H 0.1453 0.60608 0.90245 0.0
H1344 H 0.11911 0.57035 0.06858 0.0
H1345 H 0.13346 0.59629 0.01505 0.0
H1346 H 0.03606 0.52301 0.81112 0.0
H1347 H 0.05057 0.54799 0.75362 0.0
H1348 H 0.04647 0.49931 0.8545 0.0
H1349 H 0.0579 0.49659 0.94109 0.0
C1350 C 0.46298 0.54293 0.88875 0.0
C1351 C 0.45255 0.5499 0.94649 0.0
C1352 C 0.41669 0.5353 0.86873 0.0
C1353 C 0.42653 0.52646 0.81483 0.0
N1354 N 0.45599 0.51536 0.78755 0.0
N1355 N 0.41789 0.54887 0.99875 0.0
C1356 C 0.44872 0.52826 0.82917 0.0
C1357 C 0.4289 0.54501 0.93872 0.0
N1358 N 0.48677 0.55127 0.88796 0.0
N1359 N 0.39628 0.53525 0.85208 0.0
H1360 H 0.42614 0.55548 0.05126 0.0
H1361 H 0.4 0.54352 0.99883 0.0
H1362 H 0.38693 0.52827 0.80143 0.0
H1363 H 0.38962 0.54373 0.8857 0.0
H1364 H 0.4953 0.54848 0.84224 0.0
H1365 H 0.49842 0.5632 0.92799 0.0
H1366 H 0.47097 0.51438 0.80144 0.0
H1367 H 0.44572 0.50346 0.74522 0.0
C1368 C 0.44285 0.87541 0.82716 0.0
C1369 C 0.46743 0.88423 0.82871 0.0
C1370 C 0.46849 0.89526 0.96316 0.0
C1371 C 0.44542 0.89174 0.95456 0.0
N1372 N 0.41057 0.87929 0.87709 0.0
N1373 N 0.50366 0.89987 0.90067 0.0
C1374 C 0.43228 0.88145 0.88695 0.0
C1375 C 0.4802 0.89282 0.8981 0.0
N1376 N 0.42991 0.86184 0.76686 0.0
N1377 N 0.47904 0.90087 0.03347 0.0
H1378 H 0.51241 0.89692 0.85612 0.0
H1379 H 0.51468 0.90927 0.94601 0.0
H1380 H 0.47071 0.90269 0.08179 0.0
H1381 H 0.49503 0.90174 0.0455 0.0
H1382 H 0.41156 0.85326 0.76482 0.0
H1383 H 0.43763 0.85728 0.72266 0.0
H1384 H 0.4013 0.87417 0.8257 0.0
H1385 H 0.40266 0.88462 0.91807 0.0
C1386 C 0.22898 0.44002 0.87624 0.0
C1387 C 0.20884 0.44254 0.88496 0.0
C1388 C 0.21905 0.45376 0.01878 0.0
C1389 C 0.23592 0.44633 0.01413 0.0
N1390 N 0.25918 0.43469 0.93825 0.0
N1391 N 0.18449 0.45232 0.96293 0.0
C1392 C 0.242 0.4407 0.94235 0.0
C1393 C 0.20411 0.45012 0.95535 0.0
N1394 N 0.23548 0.43697 0.80472 0.0
N1395 N 0.21733 0.46406 0.0846 0.0
H1396 H 0.17318 0.44993 0.91756 0.0
H1397 H 0.17857 0.45512 0.015 0.0
H1398 H 0.22842 0.46703 0.13134 0.0
H1399 H 0.20673 0.47167 0.09029 0.0
H1400 H 0.25104 0.43691 0.79301 0.0
H1401 H 0.22612 0.43645 0.75569 0.0
H1402 H 0.2624 0.42745 0.88994 0.0
H1403 H 0.26991 0.43628 0.9845 0.0
C1404 C 0.54261 0.7582 0.94781 0.0
C1405 C 0.55686 0.77225 0.88634 0.0
C1406 C 0.55958 0.80738 0.94565 0.0
C1407 C 0.55069 0.79439 0.01429 0.0
N1408 N 0.53082 0.75722 0.08009 0.0
N1409 N 0.57729 0.80971 0.82163 0.0
C1410 C 0.54086 0.76959 0.01455 0.0
C1411 C 0.56458 0.79668 0.88322 0.0
N1412 N 0.53112 0.73414 0.94288 0.0
N1413 N 0.56336 0.82983 0.9404 0.0
H1414 H 0.57994 0.8021 0.77294 0.0
H1415 H 0.586 0.82806 0.81995 0.0
H1416 H 0.55943 0.83795 0.98465 0.0
H1417 H 0.56818 0.83959 0.88996 0.0
H1418 H 0.51891 0.72297 0.98306 0.0
H1419 H 0.53235 0.72516 0.89552 0.0
H1420 H 0.52611 0.73965 0.08823 0.0
H1421 H 0.52788 0.76502 0.12778 0.0
C1422 C 0.23869 0.79153 0.9608 0.0
C1423 C 0.22542 0.78996 0.89463 0.0
C1424 C 0.18925 0.75987 0.95635 0.0
C1425 C 0.20263 0.76146 0.02237 0.0
N1426 N 0.2403 0.77313 0.07928 0.0
N1427 N 0.18968 0.76865 0.82129 0.0
C1428 C 0.2275 0.77529 0.02132 0.0
C1429 C 0.20119 0.77273 0.88971 0.0
N1430 N 0.26135 0.80966 0.96869 0.0
N1431 N 0.16516 0.7475 0.95879 0.0
H1432 H 0.19805 0.77782 0.77149 0.0
H1433 H 0.1726 0.75477 0.81233 0.0
H1434 H 0.15565 0.73731 0.00548 0.0
H1435 H 0.15455 0.7484 0.91605 0.0
H1436 H 0.27104 0.81302 0.01899 0.0
H1437 H 0.26973 0.8228 0.92765 0.0
H1438 H 0.25864 0.78128 0.07869 0.0
H1439 H 0.23232 0.76119 0.12415 0.0
C1440 C 0.35087 0.10782 0.94998 0.0
C1441 C 0.35226 0.1112 0.86929 0.0
C1442 C 0.30972 0.09615 0.86371 0.0
C1443 C 0.30821 0.09221 0.9439 0.0
N1444 N 0.32592 0.08838 0.05968 0.0
N1445 N 0.33226 0.10196 0.74782 0.0
C1446 C 0.32836 0.09611 0.98583 0.0
C1447 C 0.33137 0.1031 0.8257 0.0
N1448 N 0.3709 0.11711 0.99332 0.0
N1449 N 0.29107 0.09491 0.8245 0.0
H1450 H 0.34785 0.10646 0.71854 0.0
H1451 H 0.31727 0.09421 0.71338 0.0
H1452 H 0.27518 0.09088 0.85049 0.0
H1453 H 0.29212 0.10013 0.76766 0.0
H1454 H 0.3708 0.11782 0.05283 0.0
H1455 H 0.38778 0.12567 0.97026 0.0
H1456 H 0.33959 0.08858 0.09079 0.0
H1457 H 0.30962 0.07961 0.08731 0.0
C1458 C 0.90232 0.23101 0.97899 0.0
C1459 C 0.90429 0.21344 0.93804 0.0
C1460 C 0.88756 0.22153 0.82471 0.0
C1461 C 0.88162 0.23586 0.86951 0.0
N1462 N 0.88136 0.25241 0.99335 0.0
N1463 N 0.89545 0.18921 0.82501 0.0
C1464 C 0.88877 0.24047 0.94754 0.0
C1465 C 0.89629 0.20811 0.86132 0.0
N1466 N 0.91352 0.23876 0.04774 0.0
N1467 N 0.88511 0.22097 0.74699 0.0
H1468 H 0.90057 0.17818 0.85112 0.0
H1469 H 0.88747 0.1831 0.77191 0.0
H1470 H 0.87944 0.23121 0.71815 0.0
H1471 H 0.89114 0.21244 0.71093 0.0
H1472 H 0.91473 0.25324 0.07669 0.0
H1473 H 0.92361 0.23215 0.07214 0.0
H1474 H 0.88363 0.25362 0.05247 0.0
H1475 H 0.87124 0.25952 0.97386 0.0
C1476 C 0.79189 0.66844 0.83556 0.0
C1477 C 0.76692 0.65369 0.83576 0.0
C1478 C 0.76316 0.68227 0.91684 0.0
C1479 C 0.78795 0.69707 0.91446 0.0
N1480 N 0.8248 0.708 0.85158 0.0
N1481 N 0.72864 0.64939 0.85938 0.0
C1482 C 0.80193 0.69136 0.86717 0.0
C1483 C 0.75247 0.6615 0.87112 0.0
N1484 N 0.80627 0.6602 0.81076 0.0
N1485 N 0.74996 0.68754 0.96482 0.0
H1486 H 0.72039 0.63458 0.82407 0.0
H1487 H 0.71742 0.65534 0.87809 0.0
H1488 H 0.75723 0.70284 0.99795 0.0
H1489 H 0.73214 0.67603 0.97556 0.0
H1490 H 0.82451 0.66952 0.8182 0.0
H1491 H 0.80021 0.64324 0.78997 0.0
H1492 H 0.83503 0.70553 0.81102 0.0
H1493 H 0.83266 0.72518 0.87284 0.0
C1494 C 0.09163 0.34176 0.60957 0.0
C1495 C 0.11544 0.35244 0.63452 0.0
C1496 C 0.11786 0.31865 0.58648 0.0
C1497 C 0.09544 0.30968 0.5516 0.0
N1498 N 0.06198 0.31428 0.52144 0.0
N1499 N 0.15304 0.35365 0.62724 0.0
C1500 C 0.08249 0.32161 0.56097 0.0
C1501 C 0.12909 0.34162 0.61783 0.0
N1502 N 0.07758 0.35038 0.63409 0.0
N1503 N 0.12815 0.30497 0.59266 0.0
H1504 H 0.16257 0.37118 0.64485 0.0
H1505 H 0.16378 0.34708 0.6086 0.0
H1506 H 0.12007 0.28752 0.57406 0.0
H1507 H 0.14344 0.31007 0.62442 0.0
H1508 H 0.0595 0.34195 0.62368 0.0
H1509 H 0.08353 0.36472 0.67122 0.0
H1510 H 0.05307 0.32374 0.52001 0.0
H1511 H 0.05495 0.29982 0.48453 0.0
C1512 C 0.68932 0.78143 0.6479 0.0
C1513 C 0.69038 0.78106 0.56674 0.0
C1514 C 0.64732 0.76005 0.55984 0.0
C1515 C 0.64619 0.75917 0.64113 0.0
N1516 N 0.6659 0.76371 0.76163 0.0
N1517 N 0.67072 0.76455 0.4472 0.0
C1518 C 0.66716 0.76813 0.68489 0.0
C1519 C 0.66945 0.76852 0.52334 0.0
N1520 N 0.7091 0.79564 0.68958 0.0
N1521 N 0.6277 0.75454 0.51725 0.0
H1522 H 0.68672 0.77021 0.41896 0.0
H1523 H 0.65597 0.75355 0.41432 0.0
H1524 H 0.61125 0.74937 0.54093 0.0
H1525 H 0.62826 0.75745 0.4585 0.0
H1526 H 0.70875 0.79856 0.74801 0.0
H1527 H 0.72561 0.80623 0.66502 0.0
H1528 H 0.68065 0.76791 0.79514 0.0
H1529 H 0.64991 0.75366 0.79019 0.0
C1530 C 0.23577 0.91663 0.56541 0.0
C1531 C 0.21108 0.90357 0.55214 0.0
C1532 C 0.20886 0.86942 0.61662 0.0
C1533 C 0.23301 0.88307 0.63719 0.0
N1534 N 0.26853 0.92107 0.64287 0.0
N1535 N 0.17332 0.87026 0.58745 0.0
C1536 C 0.24626 0.90714 0.61495 0.0
C1537 C 0.19736 0.88079 0.58445 0.0
N1538 N 0.2493 0.93761 0.5287 0.0
N1539 N 0.19707 0.84537 0.62319 0.0
H1540 H 0.16408 0.87846 0.56864 0.0
H1541 H 0.16286 0.8546 0.61711 0.0
H1542 H 0.20503 0.83583 0.64117 0.0
H1543 H 0.18009 0.83472 0.60181 0.0
H1544 H 0.26767 0.94671 0.53008 0.0
H1545 H 0.24227 0.94494 0.4914 0.0
H1546 H 0.27816 0.93926 0.63455 0.0
H1547 H 0.27653 0.91482 0.68052 0.0
C1548 C 0.66189 0.88512 0.9845 0.0
C1549 C 0.68328 0.89744 0.02605 0.0
C1550 C 0.66068 0.8919 0.144 0.0
C1551 C 0.63971 0.87641 0.10452 0.0
N1552 N 0.62054 0.85548 0.98868 0.0
N1553 N 0.703 0.90966 0.14919 0.0
C1554 C 0.64027 0.87242 0.02492 0.0
C1555 C 0.68275 0.90037 0.10677 0.0
N1556 N 0.66217 0.88593 0.90638 0.0
N1557 N 0.6595 0.89869 0.21704 0.0
H1558 H 0.71966 0.91547 0.1262 0.0
H1559 H 0.70307 0.90942 0.20876 0.0
H1560 H 0.64354 0.89281 0.24581 0.0
H1561 H 0.67402 0.9119 0.24601 0.0
H1562 H 0.64691 0.8791 0.8733 0.0
H1563 H 0.67766 0.89561 0.87498 0.0
H1564 H 0.62062 0.85001 0.93279 0.0
H1565 H 0.60451 0.84535 0.0166 0.0
C1566 C 0.13788 0.78936 0.08179 0.0
C1567 C 0.12449 0.76729 0.11881 0.0
C1568 C 0.08841 0.76313 0.06122 0.0
C1569 C 0.10155 0.78661 0.03338 0.0
N1570 N 0.13813 0.8241 0.03552 0.0
N1571 N 0.08657 0.73416 0.15186 0.0
C1572 C 0.12611 0.80031 0.04851 0.0
C1573 C 0.09959 0.75435 0.1106 0.0
N1574 N 0.16183 0.79954 0.07548 0.0
N1575 N 0.06555 0.74902 0.0386 0.0
H1576 H 0.09417 0.72734 0.18896 0.0
H1577 H 0.06822 0.7253 0.15428 0.0
H1578 H 0.057 0.75473 0.00127 0.0
H1579 H 0.05582 0.73107 0.05102 0.0
H1580 H 0.172 0.81445 0.04208 0.0
H1581 H 0.17123 0.79169 0.09599 0.0
H1582 H 0.1555 0.83502 0.05322 0.0
H1583 H 0.1302 0.83345 0.01545 0.0
C1584 C 0.23077 0.33723 0.15332 0.0
C1585 C 0.2357 0.35759 0.11055 0.0
C1586 C 0.22326 0.33424 0.99222 0.0
C1587 C 0.21656 0.3136 0.03607 0.0
N1588 N 0.22082 0.29627 0.15288 0.0
N1589 N 0.24015 0.37683 0.98893 0.0
C1590 C 0.22258 0.31534 0.11489 0.0
C1591 C 0.23334 0.35655 0.02957 0.0
N1592 N 0.23331 0.33876 0.23115 0.0
N1593 N 0.21958 0.33221 0.91485 0.0
H1594 H 0.24619 0.3932 0.01463 0.0
H1595 H 0.24064 0.37793 0.92962 0.0
H1596 H 0.21431 0.31645 0.88558 0.0
H1597 H 0.22169 0.3458 0.879 0.0
H1598 H 0.22691 0.32419 0.26721 0.0
H1599 H 0.24094 0.35477 0.26058 0.0
H1600 H 0.22691 0.29697 0.20832 0.0
H1601 H 0.21551 0.28009 0.12701 0.0
C1602 C 0.89492 0.66268 0.34595 0.0
C1603 C 0.88009 0.64129 0.38464 0.0
C1604 C 0.88797 0.66296 0.50563 0.0
C1605 C 0.89958 0.68455 0.46491 0.0
N1606 N 0.91076 0.70478 0.34251 0.0
N1607 N 0.85944 0.62136 0.50047 0.0
C1608 C 0.9024 0.68444 0.38408 0.0
C1609 C 0.87591 0.64142 0.46445 0.0
N1610 N 0.9022 0.6622 0.27303 0.0
N1611 N 0.88895 0.66297 0.58373 0.0
H1612 H 0.84981 0.60518 0.47301 0.0
H1613 H 0.85374 0.62124 0.5562 0.0
H1614 H 0.89821 0.6784 0.61577 0.0
H1615 H 0.88276 0.64762 0.61603 0.0
H1616 H 0.91498 0.67719 0.24478 0.0
H1617 H 0.89732 0.64652 0.24378 0.0
H1618 H 0.91043 0.70501 0.28295 0.0
H1619 H 0.91579 0.72118 0.36635 0.0
C1620 C 0.32314 0.23907 0.44784 0.0
C1621 C 0.30993 0.21418 0.45589 0.0
C1622 C 0.34002 0.21035 0.38525 0.0
C1623 C 0.3521 0.23495 0.36998 0.0
N1624 N 0.35332 0.27236 0.37659 0.0
N1625 N 0.30252 0.17597 0.41214 0.0
C1626 C 0.34317 0.24927 0.39853 0.0
C1627 C 0.31738 0.19976 0.41873 0.0
N1628 N 0.317 0.25294 0.48896 0.0
N1629 N 0.35054 0.19713 0.37195 0.0
H1630 H 0.28531 0.16735 0.43282 0.0
H1631 H 0.30639 0.16522 0.37826 0.0
H1632 H 0.36766 0.20412 0.35137 0.0
H1633 H 0.34321 0.17967 0.38985 0.0
H1634 H 0.32733 0.27124 0.49153 0.0
H1635 H 0.30251 0.246 0.52571 0.0
H1636 H 0.34622 0.28307 0.38948 0.0
H1637 H 0.36774 0.28024 0.33959 0.0
C1638 C 0.79497 0.10601 0.3817 0.0
C1639 C 0.78584 0.09419 0.45188 0.0
C1640 C 0.75286 0.10151 0.43893 0.0
C1641 C 0.76491 0.11772 0.37825 0.0
N1642 N 0.80157 0.13953 0.30697 0.0
N1643 N 0.75664 0.08193 0.55146 0.0
C1644 C 0.78705 0.12105 0.35312 0.0
C1645 C 0.76499 0.09241 0.48214 0.0
N1646 N 0.81107 0.10284 0.34172 0.0
N1647 N 0.72956 0.09369 0.45269 0.0
H1648 H 0.7646 0.07422 0.58286 0.0
H1649 H 0.74284 0.08237 0.57972 0.0
H1650 H 0.71931 0.09794 0.4177 0.0
H1651 H 0.71967 0.08059 0.49255 0.0
H1652 H 0.81676 0.10976 0.28707 0.0
H1653 H 0.81666 0.09123 0.35948 0.0
H1654 H 0.81859 0.14328 0.293 0.0
H1655 H 0.79826 0.15295 0.29141 0.0
C1656 C 0.98273 0.41239 0.25005 0.0
C1657 C 0.97937 0.42055 0.32169 0.0
C1658 C 0.02023 0.45305 0.31976 0.0
C1659 C 0.02221 0.44725 0.24289 0.0
N1660 N 0.00597 0.42162 0.13372 0.0
N1661 N 0.99804 0.44064 0.43826 0.0
C1662 C 0.0037 0.42684 0.20787 0.0
C1663 C -0.00084 0.43848 0.36088 0.0
N1664 N 0.96686 0.39023 0.22518 0.0
N1665 N 0.0378 0.47334 0.35171 0.0
H1666 H 0.98339 0.42875 0.47015 0.0
H1667 H 0.01242 0.45206 0.47176 0.0
H1668 H 0.0534 0.4847 0.32317 0.0
H1669 H 0.03623 0.47994 0.40422 0.0
H1670 H 0.969 0.38275 0.17549 0.0
H1671 H 0.95342 0.37791 0.2599 0.0
H1672 H 0.99205 0.40884 0.10157 0.0
H1673 H 0.02156 0.43108 0.1026 0.0
C1674 C 0.52424 0.53787 0.24453 0.0
C1675 C 0.53783 0.56234 0.2283 0.0
C1676 C 0.57114 0.56424 0.2986 0.0
C1677 C 0.55853 0.53927 0.30513 0.0
N1678 N 0.52514 0.50198 0.26609 0.0
N1679 N 0.57531 0.59851 0.23104 0.0
C1680 C 0.53563 0.52595 0.27317 0.0
C1681 C 0.5616 0.57553 0.25313 0.0
N1682 N 0.50027 0.52611 0.23582 0.0
N1683 N 0.5918 0.57719 0.33763 0.0
H1684 H 0.569 0.60724 0.19699 0.0
H1685 H 0.59341 0.60825 0.24084 0.0
H1686 H 0.59905 0.56952 0.37261 0.0
H1687 H 0.60057 0.59552 0.34107 0.0
H1688 H 0.48948 0.50878 0.25406 0.0
H1689 H 0.49087 0.53436 0.21895 0.0
H1690 H 0.50947 0.49194 0.23599 0.0
H1691 H 0.53324 0.4924 0.28228 0.0
C1692 C 0.46763 0.99593 0.21224 0.0
C1693 C 0.44305 0.98447 0.19664 0.0
C1694 C 0.44021 0.01477 0.27089 0.0
C1695 C 0.46511 0.02738 0.27911 0.0
N1696 N 0.50278 0.03324 0.23569 0.0
N1697 N 0.40682 0.98575 0.19757 0.0
C1698 C 0.47893 0.01898 0.24322 0.0
C1699 C 0.42955 0.99471 0.22199 0.0
N1700 N 0.48009 0.98446 0.2022 0.0
N1701 N 0.42664 0.02132 0.31193 0.0
H1702 H 0.39871 0.97158 0.15972 0.0
H1703 H 0.39691 0.99388 0.20849 0.0
H1704 H 0.43373 0.03553 0.34978 0.0
H1705 H 0.4083 0.0113 0.31391 0.0
H1706 H 0.49754 0.99155 0.21999 0.0
H1707 H 0.47246 0.96693 0.18494 0.0
H1708 H 0.51314 0.02848 0.20342 0.0
H1709 H 0.51177 0.05079 0.25355 0.0
C1710 C 0.55622 0.998 0.8396 0.0
C1711 C 0.56605 0.01898 0.79569 0.0
C1712 C 0.5575 0.99576 0.67792 0.0
C1713 C 0.54489 0.97479 0.72124 0.0
N1714 N 0.5284 0.95613 0.84265 0.0
N1715 N 0.57209 0.03771 0.67202 0.0
C1716 C 0.54334 0.97589 0.80207 0.0
C1717 C 0.56582 0.0179 0.71447 0.0
N1718 N 0.55953 -0.00083 0.91701 0.0
N1719 N 0.56186 0.99453 0.6021 0.0
H1720 H 0.5773 0.05412 0.69631 0.0
H1721 H 0.56983 0.03743 0.61297 0.0
H1722 H 0.55624 0.97857 0.5737 0.0
H1723 H 0.57297 0.00929 0.56947 0.0
H1724 H 0.55476 0.98435 0.9509 0.0
H1725 H 0.56913 0.01509 0.9463 0.0
H1726 H 0.5247 0.95646 0.90045 0.0
H1727 H 0.51782 0.93977 0.81715 0.0
C1728 C 0.01701 0.56943 0.77766 0.0
C1729 C 0.01823 0.56767 0.69664 0.0
C1730 C 0.97567 0.54023 0.69222 0.0
C1731 C 0.97431 0.54318 0.77213 0.0
N1732 N 0.99243 0.5648 0.88738 0.0
N1733 N 0.99796 0.55625 0.5755 0.0
C1734 C 0.9946 0.55918 0.81366 0.0
C1735 C 0.99728 0.5546 0.65348 0.0
N1736 N 0.03702 0.57931 0.82136 0.0
N1737 N 0.95679 0.52277 0.65402 0.0
H1738 H 0.01343 0.56715 0.54542 0.0
H1739 H 0.98287 0.54882 0.5415 0.0
H1740 H 0.94091 0.51131 0.68088 0.0
H1741 H 0.95761 0.5182 0.59749 0.0
H1742 H 0.03674 0.57831 0.88085 0.0
H1743 H 0.05396 0.58643 0.79924 0.0
H1744 H 0.0063 0.57828 0.91785 0.0
H1745 H 0.97621 0.5576 0.91545 0.0
C1746 C 0.4352 0.43754 0.65829 0.0
C1747 C 0.42401 0.44758 0.70103 0.0
C1748 C 0.43451 0.43507 0.82007 0.0
C1749 C 0.44866 0.42841 0.77762 0.0
N1750 N 0.46565 0.4269 0.6566 0.0
N1751 N 0.41617 0.45915 0.82463 0.0
C1752 C 0.44972 0.43039 0.69665 0.0
C1753 C 0.42424 0.44701 0.78255 0.0
N1754 N 0.43164 0.43449 0.58113 0.0
N1755 N 0.43062 0.42968 0.89615 0.0
H1756 H 0.40896 0.4687 0.80085 0.0
H1757 H 0.41869 0.46165 0.88347 0.0
H1758 H 0.43782 0.42085 0.92534 0.0
H1759 H 0.41845 0.43188 0.92831 0.0
H1760 H 0.43755 0.42521 0.54813 0.0
H1761 H 0.42067 0.43907 0.5515 0.0
H1762 H 0.46892 0.43055 0.59845 0.0
H1763 H 0.47731 0.42262 0.68278 0.0
loop_
_geom_bond_atom_site_label_1
_geom_bond_atom_site_label_2
_geom_bond_distance
_geom_bond_site_symmetry_2
_ccdc_geom_bond_type
In0 O1 2.294 . S
In0 O2 2.326 . S
In0 O6 2.266 . S
In0 O7 2.326 1_554 S
In0 O8 2.266 1_554 S
In0 O9 2.326 1_554 S
In0 O11 2.294 . S
In0 O12 2.326 . S
O1 In0 2.294 . S
O1 C10 1.240 . S
O2 In0 2.326 . S
O2 C10 1.252 . S
C3 O6 1.252 1_556 S
C3 O7 1.260 . S
C4 O11 1.240 . S
C4 O12 1.252 . S
C5 O8 1.252 . S
C5 O9 1.260 . S
O6 In0 2.266 . S
O6 C3 1.252 1_554 S
O7 In0 2.326 1_556 S
O7 C3 1.260 . S
O8 In0 2.266 1_556 S
O8 C5 1.252 . S
O9 In0 2.326 1_556 S
O9 C5 1.260 . S
C10 O1 1.240 . S
C10 O2 1.252 . S
O11 In0 2.294 . S
O11 C4 1.240 . S
O12 In0 2.326 . S
O12 C4 1.252 . S
In13 O14 2.294 . S
In13 O15 2.326 . S
In13 O19 2.266 . S
In13 O20 2.326 1_554 S
In13 O21 2.266 1_554 S
In13 O22 2.326 1_554 S
In13 O24 2.294 . S
In13 O25 2.326 . S
O14 In13 2.294 . S
O14 C23 1.240 . S
O15 In13 2.326 . S
O15 C23 1.252 . S
C16 O19 1.241 1_556 S
C16 O20 1.264 . S
C17 O24 1.240 . S
C17 O25 1.252 . S
C18 O21 1.252 . S
C18 O22 1.260 . S
O19 In13 2.266 . S
O19 C16 1.241 1_554 S
O20 In13 2.326 1_556 S
O20 C16 1.264 . S
O21 In13 2.266 1_556 S
O21 C18 1.252 . S
O22 In13 2.326 1_556 S
O22 C18 1.260 . S
C23 O14 1.240 . S
C23 O15 1.252 . S
O24 In13 2.294 . S
O24 C17 1.240 . S
O25 In13 2.326 . S
O25 C17 1.252 . S
In26 O27 2.294 . S
In26 O28 2.326 . S
In26 O32 2.266 1_554 S
In26 O33 2.326 1_554 S
In26 O34 2.266 . S
In26 O35 2.326 1_554 S
In26 O37 2.294 . S
In26 O38 2.326 . S
O27 In26 2.294 . S
O27 C36 1.240 . S
O28 In26 2.326 . S
O28 C36 1.252 . S
C29 O32 1.252 . S
C29 O33 1.260 . S
C30 O37 1.240 . S
C30 O38 1.252 . S
C31 O34 1.252 1_556 S
C31 O35 1.260 . S
O32 In26 2.266 1_556 S
O32 C29 1.252 . S
O33 In26 2.326 1_556 S
O33 C29 1.260 . S
O34 In26 2.266 . S
O34 C31 1.252 1_554 S
O35 In26 2.326 1_556 S
O35 C31 1.260 . S
C36 O27 1.240 . S
C36 O28 1.252 . S
O37 In26 2.294 . S
O37 C30 1.240 . S
O38 In26 2.326 . S
O38 C30 1.252 . S
In39 O40 2.294 . S
In39 O41 2.326 . S
In39 O45 2.266 . S
In39 O46 2.326 . S
In39 O47 2.266 . S
In39 O48 2.326 . S
In39 O50 2.294 . S
In39 O51 2.326 . S
O40 In39 2.294 . S
O40 C49 1.240 . S
O41 In39 2.326 . S
O41 C49 1.252 . S
C42 O45 1.252 . S
C42 O46 1.260 . S
C43 O50 1.240 . S
C43 O51 1.252 . S
C44 O47 1.252 . S
C44 O48 1.260 . S
O45 In39 2.266 . S
O45 C42 1.252 . S
O46 In39 2.326 . S
O46 C42 1.260 . S
O47 In39 2.266 . S
O47 C44 1.252 . S
O48 In39 2.326 . S
O48 C44 1.260 . S
C49 O40 1.240 . S
C49 O41 1.252 . S
O50 In39 2.294 . S
O50 C43 1.240 . S
O51 In39 2.326 . S
O51 C43 1.252 . S
In52 O53 2.294 . S
In52 O54 2.326 . S
In52 O58 2.266 . S
In52 O59 2.326 . S
In52 O60 2.266 . S
In52 O61 2.326 . S
In52 O63 2.294 . S
In52 O64 2.326 . S
O53 In52 2.294 . S
O53 C62 1.240 . S
O54 In52 2.326 . S
O54 C62 1.252 . S
C55 O58 1.252 . S
C55 O59 1.260 . S
C56 O63 1.240 . S
C56 O64 1.252 . S
C57 O60 1.252 . S
C57 O61 1.260 . S
O58 In52 2.266 . S
O58 C55 1.252 . S
O59 In52 2.326 . S
O59 C55 1.260 . S
O60 In52 2.266 . S
O60 C57 1.252 . S
O61 In52 2.326 . S
O61 C57 1.260 . S
C62 O53 1.240 . S
C62 O54 1.252 . S
O63 In52 2.294 . S
O63 C56 1.240 . S
O64 In52 2.326 . S
O64 C56 1.252 . S
In65 O66 2.294 . S
In65 O67 2.326 . S
In65 O71 2.266 . S
In65 O72 2.326 . S
In65 O73 2.266 . S
In65 O74 2.326 . S
In65 O76 2.294 . S
In65 O77 2.326 . S
O66 In65 2.294 . S
O66 C75 1.240 . S
O67 In65 2.326 . S
O67 C75 1.252 . S
C68 O71 1.252 . S
C68 O72 1.260 . S
C69 O76 1.240 . S
C69 O77 1.252 . S
C70 O73 1.252 . S
C70 O74 1.260 . S
O71 In65 2.266 . S
O71 C68 1.252 . S
O72 In65 2.326 . S
O72 C68 1.260 . S
O73 In65 2.266 . S
O73 C70 1.252 . S
O74 In65 2.326 . S
O74 C70 1.260 . S
C75 O66 1.240 . S
C75 O67 1.252 . S
O76 In65 2.294 . S
O76 C69 1.240 . S
O77 In65 2.326 . S
O77 C69 1.252 . S
In78 O79 2.294 . S
In78 O80 2.326 . S
In78 O84 2.266 . S
In78 O85 2.326 1_556 S
In78 O86 2.266 1_556 S
In78 O87 2.326 1_556 S
In78 O89 2.294 . S
In78 O90 2.326 . S
O79 In78 2.294 . S
O79 C88 1.240 . S
O80 In78 2.326 . S
O80 C88 1.252 . S
C81 O84 1.252 1_554 S
C81 O85 1.260 . S
C82 O89 1.240 . S
C82 O90 1.252 . S
C83 O86 1.252 . S
C83 O87 1.260 . S
O84 In78 2.266 . S
O84 C81 1.252 1_556 S
O85 In78 2.326 1_554 S
O85 C81 1.260 . S
O86 In78 2.266 1_554 S
O86 C83 1.252 . S
O87 In78 2.326 1_554 S
O87 C83 1.260 . S
C88 O79 1.240 . S
C88 O80 1.252 . S
O89 In78 2.294 . S
O89 C82 1.240 . S
O90 In78 2.326 . S
O90 C82 1.252 . S
In91 O92 2.294 . S
In91 O93 2.326 . S
In91 O97 2.266 . S
In91 O98 2.326 1_556 S
In91 O99 2.266 1_556 S
In91 O100 2.326 1_556 S
In91 O102 2.294 . S
In91 O103 2.326 . S
O92 In91 2.294 . S
O92 C101 1.240 . S
O93 In91 2.326 . S
O93 C101 1.252 . S
C94 O97 1.241 1_554 S
C94 O98 1.264 . S
C95 O102 1.240 . S
C95 O103 1.252 . S
C96 O99 1.252 . S
C96 O100 1.260 . S
O97 In91 2.266 . S
O97 C94 1.241 1_556 S
O98 In91 2.326 1_554 S
O98 C94 1.264 . S
O99 In91 2.266 1_554 S
O99 C96 1.252 . S
O100 In91 2.326 1_554 S
O100 C96 1.260 . S
C101 O92 1.240 . S
C101 O93 1.252 . S
O102 In91 2.294 . S
O102 C95 1.240 . S
O103 In91 2.326 . S
O103 C95 1.252 . S
In104 O105 2.294 . S
In104 O106 2.326 . S
In104 O110 2.266 1_556 S
In104 O111 2.326 1_556 S
In104 O112 2.266 . S
In104 O113 2.326 1_556 S
In104 O115 2.294 . S
In104 O116 2.326 . S
O105 In104 2.294 . S
O105 C114 1.240 . S
O106 In104 2.326 . S
O106 C114 1.252 . S
C107 O110 1.252 . S
C107 O111 1.260 . S
C108 O115 1.240 . S
C108 O116 1.252 . S
C109 O112 1.252 1_554 S
C109 O113 1.260 . S
O110 In104 2.266 1_554 S
O110 C107 1.252 . S
O111 In104 2.326 1_554 S
O111 C107 1.260 . S
O112 In104 2.266 . S
O112 C109 1.252 1_556 S
O113 In104 2.326 1_554 S
O113 C109 1.260 . S
C114 O105 1.240 . S
C114 O106 1.252 . S
O115 In104 2.294 . S
O115 C108 1.240 . S
O116 In104 2.326 . S
O116 C108 1.252 . S
In117 O118 2.294 . S
In117 O119 2.326 . S
In117 O123 2.266 . S
In117 O124 2.326 . S
In117 O125 2.266 . S
In117 O126 2.326 . S
In117 O128 2.294 . S
In117 O129 2.326 . S
O118 In117 2.294 . S
O118 C127 1.240 . S
O119 In117 2.326 . S
O119 C127 1.252 . S
C120 O123 1.252 . S
C120 O124 1.260 . S
C121 O128 1.240 . S
C121 O129 1.252 . S
C122 O125 1.252 . S
C122 O126 1.260 . S
O123 In117 2.266 . S
O123 C120 1.252 . S
O124 In117 2.326 . S
O124 C120 1.260 . S
O125 In117 2.266 . S
O125 C122 1.252 . S
O126 In117 2.326 . S
O126 C122 1.260 . S
C127 O118 1.240 . S
C127 O119 1.252 . S
O128 In117 2.294 . S
O128 C121 1.240 . S
O129 In117 2.326 . S
O129 C121 1.252 . S
In130 O131 2.294 . S
In130 O132 2.326 . S
In130 O136 2.266 . S
In130 O137 2.326 . S
In130 O138 2.266 . S
In130 O139 2.326 . S
In130 O141 2.294 . S
In130 O142 2.326 . S
O131 In130 2.294 . S
O131 C140 1.240 . S
O132 In130 2.326 . S
O132 C140 1.252 . S
C133 O136 1.252 . S
C133 O137 1.260 . S
C134 O141 1.240 . S
C134 O142 1.252 . S
C135 O138 1.252 . S
C135 O139 1.260 . S
O136 In130 2.266 . S
O136 C133 1.252 . S
O137 In130 2.326 . S
O137 C133 1.260 . S
O138 In130 2.266 . S
O138 C135 1.252 . S
O139 In130 2.326 . S
O139 C135 1.260 . S
C140 O131 1.240 . S
C140 O132 1.252 . S
O141 In130 2.294 . S
O141 C134 1.240 . S
O142 In130 2.326 . S
O142 C134 1.252 . S
In143 O144 2.294 . S
In143 O145 2.326 . S
In143 O149 2.266 . S
In143 O150 2.326 . S
In143 O151 2.266 . S
In143 O152 2.326 . S
In143 O154 2.294 . S
In143 O155 2.326 . S
O144 In143 2.294 . S
O144 C153 1.240 . S
O145 In143 2.326 . S
O145 C153 1.252 . S
C146 O149 1.252 . S
C146 O150 1.260 . S
C147 O154 1.240 . S
C147 O155 1.252 . S
C148 O151 1.252 . S
C148 O152 1.260 . S
O149 In143 2.266 . S
O149 C146 1.252 . S
O150 In143 2.326 . S
O150 C146 1.260 . S
O151 In143 2.266 . S
O151 C148 1.252 . S
O152 In143 2.326 . S
O152 C148 1.260 . S
C153 O144 1.240 . S
C153 O145 1.252 . S
O154 In143 2.294 . S
O154 C147 1.240 . S
O155 In143 2.326 . S
O155 C147 1.252 . S
In156 O157 2.294 . S
In156 O158 2.326 . S
In156 O162 2.266 . S
In156 O163 2.326 . S
In156 O164 2.266 . S
In156 O165 2.326 . S
In156 O167 2.294 . S
In156 O168 2.326 . S
O157 In156 2.294 . S
O157 C166 1.240 . S
O158 In156 2.326 . S
O158 C166 1.252 . S
C159 O162 1.252 . S
C159 O163 1.260 . S
C160 O167 1.240 . S
C160 O168 1.252 . S
C161 O164 1.252 . S
C161 O165 1.260 . S
O162 In156 2.266 . S
O162 C159 1.252 . S
O163 In156 2.326 . S
O163 C159 1.260 . S
O164 In156 2.266 . S
O164 C161 1.252 . S
O165 In156 2.326 . S
O165 C161 1.260 . S
C166 O157 1.240 . S
C166 O158 1.252 . S
O167 In156 2.294 . S
O167 C160 1.240 . S
O168 In156 2.326 . S
O168 C160 1.252 . S
In169 O170 2.294 . S
In169 O171 2.326 . S
In169 O175 2.266 . S
In169 O176 2.326 . S
In169 O177 2.266 . S
In169 O178 2.326 . S
In169 O180 2.294 . S
In169 O181 2.326 . S
O170 In169 2.294 . S
O170 C179 1.240 . S
O171 In169 2.326 . S
O171 C179 1.252 . S
C172 O175 1.252 . S
C172 O176 1.260 . S
C173 O180 1.240 . S
C173 O181 1.252 . S
C174 O177 1.252 . S
C174 O178 1.260 . S
O175 In169 2.266 . S
O175 C172 1.252 . S
O176 In169 2.326 . S
O176 C172 1.260 . S
O177 In169 2.266 . S
O177 C174 1.252 . S
O178 In169 2.326 . S
O178 C174 1.260 . S
C179 O170 1.240 . S
C179 O171 1.252 . S
O180 In169 2.294 . S
O180 C173 1.240 . S
O181 In169 2.326 . S
O181 C173 1.252 . S
In182 O183 2.294 . S
In182 O184 2.326 . S
In182 O188 2.266 . S
In182 O189 2.326 . S
In182 O190 2.266 . S
In182 O191 2.326 . S
In182 O193 2.294 . S
In182 O194 2.326 . S
O183 In182 2.294 . S
O183 C192 1.240 . S
O184 In182 2.326 . S
O184 C192 1.252 . S
C185 O188 1.252 . S
C185 O189 1.260 . S
C186 O193 1.240 . S
C186 O194 1.252 . S
C187 O190 1.252 . S
C187 O191 1.260 . S
O188 In182 2.266 . S
O188 C185 1.252 . S
O189 In182 2.326 . S
O189 C185 1.260 . S
O190 In182 2.266 . S
O190 C187 1.252 . S
O191 In182 2.326 . S
O191 C187 1.260 . S
C192 O183 1.240 . S
C192 O184 1.252 . S
O193 In182 2.294 . S
O193 C186 1.240 . S
O194 In182 2.326 . S
O194 C186 1.252 . S
In195 O196 2.294 . S
In195 O197 2.326 . S
In195 O201 2.266 . S
In195 O202 2.326 . S
In195 O203 2.266 . S
In195 O204 2.326 . S
In195 O206 2.294 . S
In195 O207 2.326 . S
O196 In195 2.294 . S
O196 C205 1.240 . S
O197 In195 2.326 . S
O197 C205 1.252 . S
C198 O201 1.252 . S
C198 O202 1.260 . S
C199 O206 1.240 . S
C199 O207 1.252 . S
C200 O203 1.252 . S
C200 O204 1.260 . S
O201 In195 2.266 . S
O201 C198 1.252 . S
O202 In195 2.326 . S
O202 C198 1.260 . S
O203 In195 2.266 . S
O203 C200 1.252 . S
O204 In195 2.326 . S
O204 C200 1.260 . S
C205 O196 1.240 . S
C205 O197 1.252 . S
O206 In195 2.294 . S
O206 C199 1.240 . S
O207 In195 2.326 . S
O207 C199 1.252 . S
In208 O209 2.294 . S
In208 O210 2.326 . S
In208 O214 2.266 . S
In208 O215 2.326 . S
In208 O216 2.266 . S
In208 O217 2.326 . S
In208 O219 2.294 . S
In208 O220 2.326 . S
O209 In208 2.294 . S
O209 C218 1.240 . S
O210 In208 2.326 . S
O210 C218 1.252 . S
C211 O214 1.252 . S
C211 O215 1.260 . S
C212 O219 1.240 . S
C212 O220 1.252 . S
C213 O216 1.252 . S
C213 O217 1.260 . S
O214 In208 2.266 . S
O214 C211 1.252 . S
O215 In208 2.326 . S
O215 C211 1.260 . S
O216 In208 2.266 . S
O216 C213 1.252 . S
O217 In208 2.326 . S
O217 C213 1.260 . S
C218 O209 1.240 . S
C218 O210 1.252 . S
O219 In208 2.294 . S
O219 C212 1.240 . S
O220 In208 2.326 . S
O220 C212 1.252 . S
In221 O222 2.294 . S
In221 O223 2.326 . S
In221 O227 2.266 . S
In221 O228 2.326 . S
In221 O229 2.266 . S
In221 O230 2.326 . S
In221 O232 2.294 . S
In221 O233 2.326 . S
O222 In221 2.294 . S
O222 C231 1.240 . S
O223 In221 2.326 . S
O223 C231 1.252 . S
C224 O227 1.252 . S
C224 O228 1.260 . S
C225 O232 1.240 . S
C225 O233 1.252 . S
C226 O229 1.252 . S
C226 O230 1.260 . S
O227 In221 2.266 . S
O227 C224 1.252 . S
O228 In221 2.326 . S
O228 C224 1.260 . S
O229 In221 2.266 . S
O229 C226 1.252 . S
O230 In221 2.326 . S
O230 C226 1.260 . S
C231 O222 1.240 . S
C231 O223 1.252 . S
O232 In221 2.294 . S
O232 C225 1.240 . S
O233 In221 2.326 . S
O233 C225 1.252 . S
In234 O235 2.294 . S
In234 O236 2.326 . S
In234 O240 2.266 . S
In234 O241 2.326 . S
In234 O242 2.266 . S
In234 O243 2.326 . S
In234 O245 2.294 . S
In234 O246 2.326 . S
O235 In234 2.294 . S
O235 C244 1.240 . S
O236 In234 2.326 . S
O236 C244 1.252 . S
C237 O240 1.252 . S
C237 O241 1.260 . S
C238 O245 1.240 . S
C238 O246 1.252 . S
C239 O242 1.252 . S
C239 O243 1.260 . S
O240 In234 2.266 . S
O240 C237 1.252 . S
O241 In234 2.326 . S
O241 C237 1.260 . S
O242 In234 2.266 . S
O242 C239 1.252 . S
O243 In234 2.326 . S
O243 C239 1.260 . S
C244 O235 1.240 . S
C244 O236 1.252 . S
O245 In234 2.294 . S
O245 C238 1.240 . S
O246 In234 2.326 . S
O246 C238 1.252 . S
In247 O248 2.294 . S
In247 O249 2.326 . S
In247 O253 2.266 . S
In247 O254 2.326 . S
In247 O255 2.266 . S
In247 O256 2.326 . S
In247 O258 2.294 . S
In247 O259 2.326 . S
O248 In247 2.294 . S
O248 C257 1.240 . S
O249 In247 2.326 . S
O249 C257 1.252 . S
C250 O253 1.252 . S
C250 O254 1.260 . S
C251 O258 1.240 . S
C251 O259 1.252 . S
C252 O255 1.252 . S
C252 O256 1.260 . S
O253 In247 2.266 . S
O253 C250 1.252 . S
O254 In247 2.326 . S
O254 C250 1.260 . S
O255 In247 2.266 . S
O255 C252 1.252 . S
O256 In247 2.326 . S
O256 C252 1.260 . S
C257 O248 1.240 . S
C257 O249 1.252 . S
O258 In247 2.294 . S
O258 C251 1.240 . S
O259 In247 2.326 . S
O259 C251 1.252 . S
In260 O261 2.294 . S
In260 O262 2.326 . S
In260 O266 2.266 . S
In260 O267 2.326 . S
In260 O268 2.266 . S
In260 O269 2.326 . S
In260 O271 2.294 . S
In260 O272 2.326 . S
O261 In260 2.294 . S
O261 C270 1.240 . S
O262 In260 2.326 . S
O262 C270 1.252 . S
C263 O266 1.252 . S
C263 O267 1.260 . S
C264 O271 1.240 . S
C264 O272 1.252 . S
C265 O268 1.252 . S
C265 O269 1.260 . S
O266 In260 2.266 . S
O266 C263 1.252 . S
O267 In260 2.326 . S
O267 C263 1.260 . S
O268 In260 2.266 . S
O268 C265 1.252 . S
O269 In260 2.326 . S
O269 C265 1.260 . S
C270 O261 1.240 . S
C270 O262 1.252 . S
O271 In260 2.294 . S
O271 C264 1.240 . S
O272 In260 2.326 . S
O272 C264 1.252 . S
In273 O274 2.294 1_556 S
In273 O275 2.326 . S
In273 O279 2.266 . S
In273 O280 2.326 . S
In273 O281 2.266 . S
In273 O282 2.326 . S
In273 O284 2.294 . S
In273 O285 2.326 1_556 S
O274 In273 2.294 1_554 S
O274 C283 1.240 . S
O275 In273 2.326 . S
O275 C283 1.252 1_556 S
C276 O279 1.252 . S
C276 O280 1.260 . S
C277 O284 1.240 . S
C277 O285 1.252 1_556 S
C278 O281 1.252 . S
C278 O282 1.260 . S
O279 In273 2.266 . S
O279 C276 1.252 . S
O280 In273 2.326 . S
O280 C276 1.260 . S
O281 In273 2.266 . S
O281 C278 1.252 . S
O282 In273 2.326 . S
O282 C278 1.260 . S
C283 O274 1.240 . S
C283 O275 1.252 1_554 S
O284 In273 2.294 . S
O284 C277 1.240 . S
O285 In273 2.326 1_554 S
O285 C277 1.252 1_554 S
In286 O287 2.294 1_556 S
In286 O288 2.326 . S
In286 O292 2.266 . S
In286 O293 2.326 . S
In286 O294 2.266 . S
In286 O295 2.326 . S
In286 O297 2.294 . S
In286 O298 2.326 1_556 S
O287 In286 2.294 1_554 S
O287 C296 1.240 . S
O288 In286 2.326 . S
O288 C296 1.252 1_556 S
C289 O292 1.252 . S
C289 O293 1.260 . S
C290 O297 1.240 . S
C290 O298 1.252 1_556 S
C291 O294 1.252 . S
C291 O295 1.260 . S
O292 In286 2.266 . S
O292 C289 1.252 . S
O293 In286 2.326 . S
O293 C289 1.260 . S
O294 In286 2.266 . S
O294 C291 1.252 . S
O295 In286 2.326 . S
O295 C291 1.260 . S
C296 O287 1.240 . S
C296 O288 1.252 1_554 S
O297 In286 2.294 . S
O297 C290 1.240 . S
O298 In286 2.326 1_554 S
O298 C290 1.252 1_554 S
In299 O300 2.294 . S
In299 O301 2.326 1_556 S
In299 O305 2.266 . S
In299 O306 2.326 . S
In299 O307 2.266 . S
In299 O308 2.326 . S
In299 O310 2.294 1_556 S
In299 O311 2.326 . S
O300 In299 2.294 . S
O300 C309 1.240 . S
O301 In299 2.326 1_554 S
O301 C309 1.252 1_554 S
C302 O305 1.252 . S
C302 O306 1.260 . S
C303 O310 1.240 . S
C303 O311 1.252 1_554 S
C304 O307 1.252 . S
C304 O308 1.260 . S
O305 In299 2.266 . S
O305 C302 1.252 . S
O306 In299 2.326 . S
O306 C302 1.260 . S
O307 In299 2.266 . S
O307 C304 1.252 . S
O308 In299 2.326 . S
O308 C304 1.260 . S
C309 O300 1.240 . S
C309 O301 1.252 1_556 S
O310 In299 2.294 1_554 S
O310 C303 1.240 . S
O311 In299 2.326 . S
O311 C303 1.252 1_556 S
In312 O313 2.294 . S
In312 O314 2.326 . S
In312 O318 2.266 . S
In312 O319 2.326 . S
In312 O320 2.266 . S
In312 O321 2.326 . S
In312 O323 2.294 . S
In312 O324 2.326 . S
O313 In312 2.294 . S
O313 C322 1.240 . S
O314 In312 2.326 . S
O314 C322 1.252 . S
C315 O318 1.252 . S
C315 O319 1.260 . S
C316 O323 1.240 . S
C316 O324 1.252 . S
C317 O320 1.252 . S
C317 O321 1.260 . S
O318 In312 2.266 . S
O318 C315 1.252 . S
O319 In312 2.326 . S
O319 C315 1.260 . S
O320 In312 2.266 . S
O320 C317 1.252 . S
O321 In312 2.326 . S
O321 C317 1.260 . S
C322 O313 1.240 . S
C322 O314 1.252 . S
O323 In312 2.294 . S
O323 C316 1.240 . S
O324 In312 2.326 . S
O324 C316 1.252 . S
In325 O326 2.294 . S
In325 O327 2.326 . S
In325 O331 2.266 . S
In325 O332 2.326 . S
In325 O333 2.266 . S
In325 O334 2.326 . S
In325 O336 2.294 . S
In325 O337 2.326 . S
O326 In325 2.294 . S
O326 C335 1.240 . S
O327 In325 2.326 . S
O327 C335 1.252 . S
C328 O331 1.252 . S
C328 O332 1.260 . S
C329 O336 1.240 . S
C329 O337 1.252 . S
C330 O333 1.252 . S
C330 O334 1.260 . S
O331 In325 2.266 . S
O331 C328 1.252 . S
O332 In325 2.326 . S
O332 C328 1.260 . S
O333 In325 2.266 . S
O333 C330 1.252 . S
O334 In325 2.326 . S
O334 C330 1.260 . S
C335 O326 1.240 . S
C335 O327 1.252 . S
O336 In325 2.294 . S
O336 C329 1.240 . S
O337 In325 2.326 . S
O337 C329 1.252 . S
In338 O339 2.294 . S
In338 O340 2.326 . S
In338 O344 2.266 . S
In338 O345 2.326 . S
In338 O346 2.266 . S
In338 O347 2.326 . S
In338 O349 2.294 . S
In338 O350 2.326 . S
O339 In338 2.294 . S
O339 C348 1.240 . S
O340 In338 2.326 . S
O340 C348 1.252 . S
C341 O344 1.252 . S
C341 O345 1.260 . S
C342 O349 1.240 . S
C342 O350 1.252 . S
C343 O346 1.252 . S
C343 O347 1.260 . S
O344 In338 2.266 . S
O344 C341 1.252 . S
O345 In338 2.326 . S
O345 C341 1.260 . S
O346 In338 2.266 . S
O346 C343 1.252 . S
O347 In338 2.326 . S
O347 C343 1.260 . S
C348 O339 1.240 . S
C348 O340 1.252 . S
O349 In338 2.294 . S
O349 C342 1.240 . S
O350 In338 2.326 . S
O350 C342 1.252 . S
In351 O352 2.294 . S
In351 O353 2.326 1_554 S
In351 O357 2.266 . S
In351 O358 2.326 . S
In351 O359 2.266 . S
In351 O360 2.326 . S
In351 O362 2.294 1_554 S
In351 O363 2.326 . S
O352 In351 2.294 . S
O352 C361 1.240 . S
O353 In351 2.326 1_556 S
O353 C361 1.252 1_556 S
C354 O357 1.252 . S
C354 O358 1.260 . S
C355 O362 1.240 . S
C355 O363 1.252 1_556 S
C356 O359 1.252 . S
C356 O360 1.260 . S
O357 In351 2.266 . S
O357 C354 1.252 . S
O358 In351 2.326 . S
O358 C354 1.260 . S
O359 In351 2.266 . S
O359 C356 1.252 . S
O360 In351 2.326 . S
O360 C356 1.260 . S
C361 O352 1.240 . S
C361 O353 1.252 1_554 S
O362 In351 2.294 1_556 S
O362 C355 1.240 . S
O363 In351 2.326 . S
O363 C355 1.252 1_554 S
In364 O365 2.294 . S
In364 O366 2.326 1_554 S
In364 O370 2.266 . S
In364 O371 2.326 . S
In364 O372 2.266 . S
In364 O373 2.326 . S
In364 O375 2.294 1_554 S
In364 O376 2.326 . S
O365 In364 2.294 . S
O365 C374 1.240 . S
O366 In364 2.326 1_556 S
O366 C374 1.252 1_556 S
C367 O370 1.252 . S
C367 O371 1.260 . S
C368 O375 1.240 . S
C368 O376 1.252 1_556 S
C369 O372 1.252 . S
C369 O373 1.260 . S
O370 In364 2.266 . S
O370 C367 1.252 . S
O371 In364 2.326 . S
O371 C367 1.260 . S
O372 In364 2.266 . S
O372 C369 1.252 . S
O373 In364 2.326 . S
O373 C369 1.260 . S
C374 O365 1.240 . S
C374 O366 1.252 1_554 S
O375 In364 2.294 1_556 S
O375 C368 1.240 . S
O376 In364 2.326 . S
O376 C368 1.252 1_554 S
In377 O378 2.294 . S
In377 O379 2.326 1_554 S
In377 O383 2.266 . S
In377 O384 2.326 . S
In377 O385 2.266 . S
In377 O386 2.326 . S
In377 O388 2.294 1_554 S
In377 O389 2.326 . S
O378 In377 2.294 . S
O378 C387 1.240 . S
O379 In377 2.326 1_556 S
O379 C387 1.252 1_556 S
C380 O383 1.252 . S
C380 O384 1.260 . S
C381 O388 1.240 . S
C381 O389 1.252 1_556 S
C382 O385 1.252 . S
C382 O386 1.260 . S
O383 In377 2.266 . S
O383 C380 1.252 . S
O384 In377 2.326 . S
O384 C380 1.260 . S
O385 In377 2.266 . S
O385 C382 1.252 . S
O386 In377 2.326 . S
O386 C382 1.260 . S
C387 O378 1.240 . S
C387 O379 1.252 1_554 S
O388 In377 2.294 1_556 S
O388 C381 1.240 . S
O389 In377 2.326 . S
O389 C381 1.252 1_554 S
In390 O391 2.294 . S
In390 O392 2.326 . S
In390 O396 2.266 . S
In390 O397 2.326 . S
In390 O398 2.266 . S
In390 O399 2.326 . S
In390 O401 2.294 . S
In390 O402 2.326 . S
O391 In390 2.294 . S
O391 C400 1.240 . S
O392 In390 2.326 . S
O392 C400 1.252 . S
C393 O396 1.252 . S
C393 O397 1.260 . S
C394 O401 1.240 . S
C394 O402 1.252 . S
C395 O398 1.252 . S
C395 O399 1.260 . S
O396 In390 2.266 . S
O396 C393 1.252 . S
O397 In390 2.326 . S
O397 C393 1.260 . S
O398 In390 2.266 . S
O398 C395 1.252 . S
O399 In390 2.326 . S
O399 C395 1.260 . S
C400 O391 1.240 . S
C400 O392 1.252 . S
O401 In390 2.294 . S
O401 C394 1.240 . S
O402 In390 2.326 . S
O402 C394 1.252 . S
In403 O404 2.294 . S
In403 O405 2.326 . S
In403 O409 2.266 . S
In403 O410 2.326 . S
In403 O411 2.266 . S
In403 O412 2.326 . S
In403 O414 2.294 . S
In403 O415 2.326 . S
O404 In403 2.294 . S
O404 C413 1.240 . S
O405 In403 2.326 . S
O405 C413 1.252 . S
C406 O409 1.252 . S
C406 O410 1.260 . S
C407 O414 1.240 . S
C407 O415 1.252 . S
C408 O411 1.252 . S
C408 O412 1.260 . S
O409 In403 2.266 . S
O409 C406 1.252 . S
O410 In403 2.326 . S
O410 C406 1.260 . S
O411 In403 2.266 . S
O411 C408 1.252 . S
O412 In403 2.326 . S
O412 C408 1.260 . S
C413 O404 1.240 . S
C413 O405 1.252 . S
O414 In403 2.294 . S
O414 C407 1.240 . S
O415 In403 2.326 . S
O415 C407 1.252 . S
In416 O417 2.294 . S
In416 O418 2.326 . S
In416 O422 2.266 . S
In416 O423 2.326 . S
In416 O424 2.266 . S
In416 O425 2.326 . S
In416 O427 2.294 . S
In416 O428 2.326 . S
O417 In416 2.294 . S
O417 C426 1.240 . S
O418 In416 2.326 . S
O418 C426 1.252 . S
C419 O422 1.252 . S
C419 O423 1.260 . S
C420 O427 1.240 . S
C420 O428 1.252 . S
C421 O424 1.252 . S
C421 O425 1.260 . S
O422 In416 2.266 . S
O422 C419 1.252 . S
O423 In416 2.326 . S
O423 C419 1.260 . S
O424 In416 2.266 . S
O424 C421 1.252 . S
O425 In416 2.326 . S
O425 C421 1.260 . S
C426 O417 1.240 . S
C426 O418 1.252 . S
O427 In416 2.294 . S
O427 C420 1.240 . S
O428 In416 2.326 . S
O428 C420 1.252 . S
In429 O430 2.294 . S
In429 O431 2.326 . S
In429 O435 2.266 . S
In429 O436 2.326 . S
In429 O437 2.266 . S
In429 O438 2.326 . S
In429 O440 2.294 . S
In429 O441 2.326 . S
O430 In429 2.294 . S
O430 C439 1.240 . S
O431 In429 2.326 . S
O431 C439 1.252 . S
C432 O435 1.252 . S
C432 O436 1.260 . S
C433 O440 1.240 . S
C433 O441 1.252 . S
C434 O437 1.252 . S
C434 O438 1.260 . S
O435 In429 2.266 . S
O435 C432 1.252 . S
O436 In429 2.326 . S
O436 C432 1.260 . S
O437 In429 2.266 . S
O437 C434 1.252 . S
O438 In429 2.326 . S
O438 C434 1.260 . S
C439 O430 1.240 . S
C439 O431 1.252 . S
O440 In429 2.294 . S
O440 C433 1.240 . S
O441 In429 2.326 . S
O441 C433 1.252 . S
In442 O443 2.294 . S
In442 O444 2.326 . S
In442 O448 2.266 . S
In442 O449 2.326 . S
In442 O450 2.266 . S
In442 O451 2.326 . S
In442 O453 2.294 . S
In442 O454 2.326 . S
O443 In442 2.294 . S
O443 C452 1.240 . S
O444 In442 2.326 . S
O444 C452 1.252 . S
C445 O448 1.252 . S
C445 O449 1.260 . S
C446 O453 1.240 . S
C446 O454 1.252 . S
C447 O450 1.252 . S
C447 O451 1.260 . S
O448 In442 2.266 . S
O448 C445 1.252 . S
O449 In442 2.326 . S
O449 C445 1.260 . S
O450 In442 2.266 . S
O450 C447 1.252 . S
O451 In442 2.326 . S
O451 C447 1.260 . S
C452 O443 1.240 . S
C452 O444 1.252 . S
O453 In442 2.294 . S
O453 C446 1.240 . S
O454 In442 2.326 . S
O454 C446 1.252 . S
In455 O456 2.294 . S
In455 O457 2.326 . S
In455 O461 2.266 . S
In455 O462 2.326 . S
In455 O463 2.266 . S
In455 O464 2.326 . S
In455 O466 2.294 . S
In455 O467 2.326 . S
O456 In455 2.294 . S
O456 C465 1.240 . S
O457 In455 2.326 . S
O457 C465 1.252 . S
C458 O461 1.252 . S
C458 O462 1.260 . S
C459 O466 1.240 . S
C459 O467 1.252 . S
C460 O463 1.252 . S
C460 O464 1.260 . S
O461 In455 2.266 . S
O461 C458 1.252 . S
O462 In455 2.326 . S
O462 C458 1.260 . S
O463 In455 2.266 . S
O463 C460 1.252 . S
O464 In455 2.326 . S
O464 C460 1.260 . S
C465 O456 1.240 . S
C465 O457 1.252 . S
O466 In455 2.294 . S
O466 C459 1.240 . S
O467 In455 2.326 . S
O467 C459 1.252 . S
C468 C469 1.363 1_545 S
C468 C474 1.379 . S
C468 N476 1.356 . S
C469 C468 1.363 1_565 S
C469 C475 1.363 . S
C470 C471 1.363 1_565 S
C470 C475 1.379 . S
C470 N477 1.356 . S
C471 C470 1.363 1_545 S
C471 C474 1.363 . S
N472 C474 1.356 . S
N472 H484 0.984 . S
N472 H485 0.985 . S
N473 C475 1.356 . S
N473 H478 0.984 . S
N473 H479 0.985 . S
C474 C468 1.379 . S
C474 C471 1.363 . S
C474 N472 1.356 . S
C475 C469 1.363 . S
C475 C470 1.379 . S
C475 N473 1.356 . S
N476 C468 1.356 . S
N476 H482 0.984 . S
N476 H483 0.984 1_545 S
N477 C470 1.356 . S
N477 H480 0.984 1_565 S
N477 H481 0.985 . S
H478 N473 0.984 . S
H479 N473 0.985 . S
H480 N477 0.984 1_545 S
H481 N477 0.985 . S
H482 N476 0.984 . S
H483 N476 0.984 1_565 S
H484 N472 0.984 . S
H485 N472 0.985 . S
C486 C487 1.363 1_455 S
C486 C492 1.379 . S
C486 N494 1.356 . S
C487 C486 1.363 1_655 S
C487 C493 1.363 . S
C488 C489 1.363 1_655 S
C488 C493 1.379 . S
C488 N495 1.356 . S
C489 C488 1.363 1_455 S
C489 C492 1.363 . S
N490 C492 1.356 . S
N490 H502 0.984 . S
N490 H503 0.985 . S
N491 C493 1.356 . S
N491 H496 0.984 . S
N491 H497 0.985 . S
C492 C486 1.379 . S
C492 C489 1.363 . S
C492 N490 1.356 . S
C493 C487 1.363 . S
C493 C488 1.379 . S
C493 N491 1.356 . S
N494 C486 1.356 . S
N494 H500 0.984 . S
N494 H501 0.984 1_455 S
N495 C488 1.356 . S
N495 H498 0.984 1_655 S
N495 H499 0.985 . S
H496 N491 0.984 . S
H497 N491 0.985 . S
H498 N495 0.984 1_455 S
H499 N495 0.985 . S
H500 N494 0.984 . S
H501 N494 0.984 1_655 S
H502 N490 0.984 . S
H503 N490 0.985 . S
C504 C505 1.363 . S
C504 C510 1.379 . S
C504 N512 1.356 . S
C505 C504 1.363 . S
C505 C511 1.363 . S
C506 C507 1.363 . S
C506 C511 1.379 . S
C506 N513 1.356 . S
C507 C506 1.363 . S
C507 C510 1.363 . S
N508 C510 1.356 . S
N508 H520 0.984 . S
N508 H521 0.985 . S
N509 C511 1.356 . S
N509 H514 0.984 . S
N509 H515 0.985 . S
C510 C504 1.379 . S
C510 C507 1.363 . S
C510 N508 1.356 . S
C511 C505 1.363 . S
C511 C506 1.379 . S
C511 N509 1.356 . S
N512 C504 1.356 . S
N512 H518 0.984 . S
N512 H519 0.984 . S
N513 C506 1.356 . S
N513 H516 0.984 . S
N513 H517 0.985 . S
H514 N509 0.984 . S
H515 N509 0.985 . S
H516 N513 0.984 . S
H517 N513 0.985 . S
H518 N512 0.984 . S
H519 N512 0.984 . S
H520 N508 0.984 . S
H521 N508 0.985 . S
C522 C523 1.363 . S
C522 C528 1.379 . S
C522 N530 1.356 . S
C523 C522 1.363 . S
C523 C529 1.363 1_565 S
C524 C525 1.363 . S
C524 C529 1.379 . S
C524 N531 1.356 . S
C525 C524 1.363 . S
C525 C528 1.363 1_545 S
N526 C528 1.356 . S
N526 H538 0.984 . S
N526 H539 0.985 1_565 S
N527 C529 1.356 . S
N527 H532 0.984 1_545 S
N527 H533 0.985 . S
C528 C522 1.379 . S
C528 C525 1.363 1_565 S
C528 N526 1.356 . S
C529 C523 1.363 1_545 S
C529 C524 1.379 . S
C529 N527 1.356 . S
N530 C522 1.356 . S
N530 H536 0.984 . S
N530 H537 0.984 . S
N531 C524 1.356 . S
N531 H534 0.984 . S
N531 H535 0.985 . S
H532 N527 0.984 1_565 S
H533 N527 0.985 . S
H534 N531 0.984 . S
H535 N531 0.985 . S
H536 N530 0.984 . S
H537 N530 0.984 . S
H538 N526 0.984 . S
H539 N526 0.985 1_545 S
C540 C541 1.363 . S
C540 C546 1.379 . S
C540 N548 1.356 . S
C541 C540 1.363 . S
C541 C547 1.363 1_455 S
C542 C543 1.363 . S
C542 C547 1.379 . S
C542 N549 1.356 . S
C543 C542 1.363 . S
C543 C546 1.363 1_655 S
N544 C546 1.356 . S
N544 H556 0.984 . S
N544 H557 0.985 1_455 S
N545 C547 1.356 . S
N545 H550 0.984 1_655 S
N545 H551 0.985 . S
C546 C540 1.379 . S
C546 C543 1.363 1_455 S
C546 N544 1.356 . S
C547 C541 1.363 1_655 S
C547 C542 1.379 . S
C547 N545 1.356 . S
N548 C540 1.356 . S
N548 H554 0.984 . S
N548 H555 0.984 . S
N549 C542 1.356 . S
N549 H552 0.984 . S
N549 H553 0.985 . S
H550 N545 0.984 1_455 S
H551 N545 0.985 . S
H552 N549 0.984 . S
H553 N549 0.985 . S
H554 N548 0.984 . S
H555 N548 0.984 . S
H556 N544 0.984 . S
H557 N544 0.985 1_655 S
C558 C559 1.363 . S
C558 C564 1.379 . S
C558 N566 1.356 . S
C559 C558 1.363 . S
C559 C565 1.363 . S
C560 C561 1.363 . S
C560 C565 1.379 . S
C560 N567 1.356 . S
C561 C560 1.363 . S
C561 C564 1.363 . S
N562 C564 1.356 . S
N562 H574 0.984 . S
N562 H575 0.985 . S
N563 C565 1.356 . S
N563 H568 0.984 . S
N563 H569 0.985 . S
C564 C558 1.379 . S
C564 C561 1.363 . S
C564 N562 1.356 . S
C565 C559 1.363 . S
C565 C560 1.379 . S
C565 N563 1.356 . S
N566 C558 1.356 . S
N566 H572 0.984 . S
N566 H573 0.984 . S
N567 C560 1.356 . S
N567 H570 0.984 . S
N567 H571 0.985 . S
H568 N563 0.984 . S
H569 N563 0.985 . S
H570 N567 0.984 . S
H571 N567 0.985 . S
H572 N566 0.984 . S
H573 N566 0.984 . S
H574 N562 0.984 . S
H575 N562 0.985 . S
C576 C577 1.363 . S
C576 C582 1.379 . S
C576 N584 1.356 . S
C577 C576 1.363 . S
C577 C583 1.363 . S
C578 C579 1.363 . S
C578 C583 1.379 . S
C578 N585 1.356 . S
C579 C578 1.363 . S
C579 C582 1.363 . S
N580 C582 1.356 . S
N580 H592 0.984 . S
N580 H593 0.985 . S
N581 C583 1.356 . S
N581 H586 0.984 . S
N581 H587 0.985 . S
C582 C576 1.379 . S
C582 C579 1.363 . S
C582 N580 1.356 . S
C583 C577 1.363 . S
C583 C578 1.379 . S
C583 N581 1.356 . S
N584 C576 1.356 . S
N584 H590 0.984 . S
N584 H591 0.984 . S
N585 C578 1.356 . S
N585 H588 0.984 . S
N585 H589 0.985 . S
H586 N581 0.984 . S
H587 N581 0.985 . S
H588 N585 0.984 . S
H589 N585 0.985 . S
H590 N584 0.984 . S
H591 N584 0.984 . S
H592 N580 0.984 . S
H593 N580 0.985 . S
C594 C595 1.363 . S
C594 C600 1.379 . S
C594 N602 1.356 . S
C595 C594 1.363 . S
C595 C601 1.363 . S
C596 C597 1.363 . S
C596 C601 1.379 . S
C596 N603 1.356 . S
C597 C596 1.363 . S
C597 C600 1.363 . S
N598 C600 1.356 . S
N598 H610 0.984 . S
N598 H611 0.985 . S
N599 C601 1.356 . S
N599 H604 0.984 . S
N599 H605 0.985 . S
C600 C594 1.379 . S
C600 C597 1.363 . S
C600 N598 1.356 . S
C601 C595 1.363 . S
C601 C596 1.379 . S
C601 N599 1.356 . S
N602 C594 1.356 . S
N602 H608 0.984 . S
N602 H609 0.984 . S
N603 C596 1.356 . S
N603 H606 0.984 . S
N603 H607 0.985 . S
H604 N599 0.984 . S
H605 N599 0.985 . S
H606 N603 0.984 . S
H607 N603 0.985 . S
H608 N602 0.984 . S
H609 N602 0.984 . S
H610 N598 0.984 . S
H611 N598 0.985 . S
C612 C613 1.363 . S
C612 C618 1.379 . S
C612 N620 1.356 . S
C613 C612 1.363 . S
C613 C619 1.363 . S
C614 C615 1.363 . S
C614 C619 1.379 . S
C614 N621 1.356 . S
C615 C614 1.363 . S
C615 C618 1.363 . S
N616 C618 1.356 . S
N616 H628 0.984 . S
N616 H629 0.985 . S
N617 C619 1.356 . S
N617 H622 0.984 . S
N617 H623 0.985 . S
C618 C612 1.379 . S
C618 C615 1.363 . S
C618 N616 1.356 . S
C619 C613 1.363 . S
C619 C614 1.379 . S
C619 N617 1.356 . S
N620 C612 1.356 . S
N620 H626 0.984 . S
N620 H627 0.984 . S
N621 C614 1.356 . S
N621 H624 0.984 . S
N621 H625 0.985 . S
H622 N617 0.984 . S
H623 N617 0.985 . S
H624 N621 0.984 . S
H625 N621 0.985 . S
H626 N620 0.984 . S
H627 N620 0.984 . S
H628 N616 0.984 . S
H629 N616 0.985 . S
C630 C631 1.363 . S
C630 C636 1.379 . S
C630 N638 1.356 . S
C631 C630 1.363 . S
C631 C637 1.363 . S
C632 C633 1.363 . S
C632 C637 1.379 . S
C632 N639 1.356 . S
C633 C632 1.363 . S
C633 C636 1.363 . S
N634 C636 1.356 1_556 S
N634 H646 0.984 . S
N634 H647 0.985 . S
N635 C637 1.356 . S
N635 H640 0.984 . S
N635 H641 0.985 . S
C636 C630 1.379 . S
C636 C633 1.363 . S
C636 N634 1.356 1_554 S
C637 C631 1.363 . S
C637 C632 1.379 . S
C637 N635 1.356 . S
N638 C630 1.356 . S
N638 H644 0.984 . S
N638 H645 0.984 . S
N639 C632 1.356 . S
N639 H642 0.984 1_554 S
N639 H643 0.985 . S
H640 N635 0.984 . S
H641 N635 0.985 . S
H642 N639 0.984 1_556 S
H643 N639 0.985 . S
H644 N638 0.984 . S
H645 N638 0.984 . S
H646 N634 0.984 . S
H647 N634 0.985 . S
C648 C649 1.363 . S
C648 C654 1.379 . S
C648 N656 1.356 . S
C649 C648 1.363 . S
C649 C655 1.363 . S
C650 C651 1.363 . S
C650 C655 1.379 . S
C650 N657 1.356 1_554 S
C651 C650 1.363 . S
C651 C654 1.363 . S
N652 C654 1.356 . S
N652 H664 0.984 . S
N652 H665 0.985 . S
N653 C655 1.356 . S
N653 H658 0.984 . S
N653 H659 0.985 . S
C654 C648 1.379 . S
C654 C651 1.363 . S
C654 N652 1.356 . S
C655 C649 1.363 . S
C655 C650 1.379 . S
C655 N653 1.356 . S
N656 C648 1.356 . S
N656 H662 0.984 . S
N656 H663 0.984 . S
N657 C650 1.356 1_556 S
N657 H660 0.984 . S
N657 H661 0.985 . S
H658 N653 0.984 . S
H659 N653 0.985 . S
H660 N657 0.984 . S
H661 N657 0.985 . S
H662 N656 0.984 . S
H663 N656 0.984 . S
H664 N652 0.984 . S
H665 N652 0.985 . S
C666 C667 1.363 . S
C666 C672 1.379 . S
C666 N674 1.356 . S
C667 C666 1.363 . S
C667 C673 1.363 . S
C668 C669 1.363 . S
C668 C673 1.379 . S
C668 N675 1.356 1_554 S
C669 C668 1.363 . S
C669 C672 1.363 . S
N670 C672 1.356 . S
N670 H682 0.984 . S
N670 H683 0.985 . S
N671 C673 1.356 . S
N671 H676 0.984 . S
N671 H677 0.985 . S
C672 C666 1.379 . S
C672 C669 1.363 . S
C672 N670 1.356 . S
C673 C667 1.363 . S
C673 C668 1.379 . S
C673 N671 1.356 . S
N674 C666 1.356 . S
N674 H680 0.984 . S
N674 H681 0.984 . S
N675 C668 1.356 1_556 S
N675 H678 0.984 . S
N675 H679 0.985 . S
H676 N671 0.984 . S
H677 N671 0.985 . S
H678 N675 0.984 . S
H679 N675 0.985 . S
H680 N674 0.984 . S
H681 N674 0.984 . S
H682 N670 0.984 . S
H683 N670 0.985 . S
C684 C685 1.363 . S
C684 C690 1.379 . S
C684 N692 1.356 . S
C685 C684 1.363 . S
C685 C691 1.363 . S
C686 C687 1.363 . S
C686 C691 1.379 . S
C686 N693 1.356 1_556 S
C687 C686 1.363 . S
C687 C690 1.363 . S
N688 C690 1.356 . S
N688 H700 0.984 . S
N688 H701 0.985 . S
N689 C691 1.356 . S
N689 H694 0.984 . S
N689 H695 0.985 . S
C690 C684 1.379 . S
C690 C687 1.363 . S
C690 N688 1.356 . S
C691 C685 1.363 . S
C691 C686 1.379 . S
C691 N689 1.356 . S
N692 C684 1.356 . S
N692 H698 0.984 . S
N692 H699 0.984 . S
N693 C686 1.356 1_554 S
N693 H696 0.984 . S
N693 H697 0.985 . S
H694 N689 0.984 . S
H695 N689 0.985 . S
H696 N693 0.984 . S
H697 N693 0.985 . S
H698 N692 0.984 . S
H699 N692 0.984 . S
H700 N688 0.984 . S
H701 N688 0.985 . S
C702 C703 1.363 . S
C702 C708 1.379 . S
C702 N710 1.356 . S
C703 C702 1.363 . S
C703 C709 1.363 . S
C704 C705 1.363 . S
C704 C709 1.379 . S
C704 N711 1.356 . S
C705 C704 1.363 . S
C705 C708 1.363 . S
N706 C708 1.356 . S
N706 H718 0.984 . S
N706 H719 0.985 . S
N707 C709 1.356 . S
N707 H712 0.984 1_556 S
N707 H713 0.985 . S
C708 C702 1.379 . S
C708 C705 1.363 . S
C708 N706 1.356 . S
C709 C703 1.363 . S
C709 C704 1.379 . S
C709 N707 1.356 . S
N710 C702 1.356 . S
N710 H716 0.984 . S
N710 H717 0.984 1_556 S
N711 C704 1.356 . S
N711 H714 0.984 . S
N711 H715 0.985 . S
H712 N707 0.984 1_554 S
H713 N707 0.985 . S
H714 N711 0.984 . S
H715 N711 0.985 . S
H716 N710 0.984 . S
H717 N710 0.984 1_554 S
H718 N706 0.984 . S
H719 N706 0.985 . S
C720 C721 1.363 . S
C720 C726 1.379 . S
C720 N728 1.356 . S
C721 C720 1.363 . S
C721 C727 1.363 . S
C722 C723 1.363 . S
C722 C727 1.379 . S
C722 N729 1.356 . S
C723 C722 1.363 . S
C723 C726 1.363 . S
N724 C726 1.356 . S
N724 H736 0.984 . S
N724 H737 0.985 1_556 S
N725 C727 1.356 . S
N725 H730 0.984 . S
N725 H731 0.985 . S
C726 C720 1.379 . S
C726 C723 1.363 . S
C726 N724 1.356 . S
C727 C721 1.363 . S
C727 C722 1.379 . S
C727 N725 1.356 . S
N728 C720 1.356 . S
N728 H734 0.984 . S
N728 H735 0.984 . S
N729 C722 1.356 . S
N729 H732 0.984 1_556 S
N729 H733 0.985 . S
H730 N725 0.984 . S
H731 N725 0.985 . S
H732 N729 0.984 1_554 S
H733 N729 0.985 . S
H734 N728 0.984 . S
H735 N728 0.984 . S
H736 N724 0.984 . S
H737 N724 0.985 1_554 S
C738 C739 1.363 . S
C738 C744 1.379 . S
C738 N746 1.356 . S
C739 C738 1.363 . S
C739 C745 1.363 . S
C740 C741 1.363 . S
C740 C745 1.379 . S
C740 N747 1.356 . S
C741 C740 1.363 . S
C741 C744 1.363 . S
N742 C744 1.356 . S
N742 H754 0.984 . S
N742 H755 0.985 . S
N743 C745 1.356 . S
N743 H748 0.984 . S
N743 H749 0.985 . S
C744 C738 1.379 . S
C744 C741 1.363 . S
C744 N742 1.356 . S
C745 C739 1.363 . S
C745 C740 1.379 . S
C745 N743 1.356 . S
N746 C738 1.356 . S
N746 H752 0.984 . S
N746 H753 0.984 . S
N747 C740 1.356 . S
N747 H750 0.984 . S
N747 H751 0.985 . S
H748 N743 0.984 . S
H749 N743 0.985 . S
H750 N747 0.984 . S
H751 N747 0.985 . S
H752 N746 0.984 . S
H753 N746 0.984 . S
H754 N742 0.984 . S
H755 N742 0.985 . S
C756 C757 1.363 . S
C756 C762 1.379 . S
C756 N764 1.356 . S
C757 C756 1.363 . S
C757 C763 1.363 . S
C758 C759 1.363 . S
C758 C763 1.379 . S
C758 N765 1.356 . S
C759 C758 1.363 . S
C759 C762 1.363 . S
N760 C762 1.356 . S
N760 H772 0.984 . S
N760 H773 0.985 . S
N761 C763 1.356 . S
N761 H766 0.984 . S
N761 H767 0.985 . S
C762 C756 1.379 . S
C762 C759 1.363 . S
C762 N760 1.356 . S
C763 C757 1.363 . S
C763 C758 1.379 . S
C763 N761 1.356 . S
N764 C756 1.356 . S
N764 H770 0.984 . S
N764 H771 0.984 . S
N765 C758 1.356 . S
N765 H768 0.984 . S
N765 H769 0.985 . S
H766 N761 0.984 . S
H767 N761 0.985 . S
H768 N765 0.984 . S
H769 N765 0.985 . S
H770 N764 0.984 . S
H771 N764 0.984 . S
H772 N760 0.984 . S
H773 N760 0.985 . S
C774 C775 1.363 . S
C774 C780 1.379 . S
C774 N782 1.356 . S
C775 C774 1.363 . S
C775 C781 1.363 . S
C776 C777 1.363 . S
C776 C781 1.379 . S
C776 N783 1.356 . S
C777 C776 1.363 . S
C777 C780 1.363 . S
N778 C780 1.356 . S
N778 H790 0.984 . S
N778 H791 0.985 . S
N779 C781 1.356 . S
N779 H784 0.984 . S
N779 H785 0.985 . S
C780 C774 1.379 . S
C780 C777 1.363 . S
C780 N778 1.356 . S
C781 C775 1.363 . S
C781 C776 1.379 . S
C781 N779 1.356 . S
N782 C774 1.356 . S
N782 H788 0.984 . S
N782 H789 0.984 . S
N783 C776 1.356 . S
N783 H786 0.984 . S
N783 H787 0.985 . S
H784 N779 0.984 . S
H785 N779 0.985 . S
H786 N783 0.984 . S
H787 N783 0.985 . S
H788 N782 0.984 . S
H789 N782 0.984 . S
H790 N778 0.984 . S
H791 N778 0.985 . S
C792 C793 1.363 . S
C792 C798 1.379 . S
C792 N800 1.356 . S
C793 C792 1.363 . S
C793 C799 1.363 . S
C794 C795 1.363 . S
C794 C799 1.379 . S
C794 N801 1.356 . S
C795 C794 1.363 . S
C795 C798 1.363 . S
N796 C798 1.356 . S
N796 H808 0.984 . S
N796 H809 0.985 . S
N797 C799 1.356 . S
N797 H802 0.984 . S
N797 H803 0.985 . S
C798 C792 1.379 . S
C798 C795 1.363 . S
C798 N796 1.356 . S
C799 C793 1.363 . S
C799 C794 1.379 . S
C799 N797 1.356 . S
N800 C792 1.356 . S
N800 H806 0.984 . S
N800 H807 0.984 . S
N801 C794 1.356 . S
N801 H804 0.982 1_556 S
N801 H805 0.985 . S
H802 N797 0.984 . S
H803 N797 0.985 . S
H804 N801 0.982 1_554 S
H805 N801 0.985 . S
H806 N800 0.984 . S
H807 N800 0.984 . S
H808 N796 0.984 . S
H809 N796 0.985 . S
C810 C811 1.363 . S
C810 C816 1.379 . S
C810 N818 1.356 . S
C811 C810 1.363 . S
C811 C817 1.363 . S
C812 C813 1.363 . S
C812 C817 1.379 . S
C812 N819 1.356 . S
C813 C812 1.363 . S
C813 C816 1.363 . S
N814 C816 1.356 . S
N814 H826 0.984 1_556 S
N814 H827 0.985 1_556 S
N815 C817 1.356 . S
N815 H820 0.984 . S
N815 H821 0.985 . S
C816 C810 1.379 . S
C816 C813 1.363 . S
C816 N814 1.356 . S
C817 C811 1.363 . S
C817 C812 1.379 . S
C817 N815 1.356 . S
N818 C810 1.356 . S
N818 H824 0.984 . S
N818 H825 0.984 . S
N819 C812 1.356 . S
N819 H822 0.984 . S
N819 H823 0.985 . S
H820 N815 0.984 . S
H821 N815 0.985 . S
H822 N819 0.984 . S
H823 N819 0.985 . S
H824 N818 0.984 . S
H825 N818 0.984 . S
H826 N814 0.984 1_554 S
H827 N814 0.985 1_554 S
C828 C829 1.363 . S
C828 C834 1.379 . S
C828 N836 1.356 . S
C829 C828 1.363 . S
C829 C835 1.363 . S
C830 C831 1.363 . S
C830 C835 1.379 . S
C830 N837 1.356 . S
C831 C830 1.363 . S
C831 C834 1.363 . S
N832 C834 1.356 . S
N832 H844 0.984 . S
N832 H845 0.985 . S
N833 C835 1.356 . S
N833 H838 0.984 . S
N833 H839 0.985 . S
C834 C828 1.379 . S
C834 C831 1.363 . S
C834 N832 1.356 . S
C835 C829 1.363 . S
C835 C830 1.379 . S
C835 N833 1.356 . S
N836 C828 1.356 . S
N836 H842 0.984 . S
N836 H843 0.984 . S
N837 C830 1.356 . S
N837 H840 0.984 . S
N837 H841 0.985 . S
H838 N833 0.984 . S
H839 N833 0.985 . S
H840 N837 0.984 . S
H841 N837 0.985 . S
H842 N836 0.984 . S
H843 N836 0.984 . S
H844 N832 0.984 . S
H845 N832 0.985 . S
C846 C847 1.363 . S
C846 C852 1.379 . S
C846 N854 1.356 . S
C847 C846 1.363 . S
C847 C853 1.363 . S
C848 C849 1.363 . S
C848 C853 1.379 . S
C848 N855 1.356 . S
C849 C848 1.363 . S
C849 C852 1.363 . S
N850 C852 1.356 . S
N850 H862 0.984 . S
N850 H863 0.985 . S
N851 C853 1.356 . S
N851 H856 0.984 . S
N851 H857 0.985 . S
C852 C846 1.379 . S
C852 C849 1.363 . S
C852 N850 1.356 . S
C853 C847 1.363 . S
C853 C848 1.379 . S
C853 N851 1.356 . S
N854 C846 1.356 . S
N854 H860 0.984 . S
N854 H861 0.984 . S
N855 C848 1.356 . S
N855 H858 0.984 . S
N855 H859 0.985 . S
H856 N851 0.984 . S
H857 N851 0.985 . S
H858 N855 0.984 . S
H859 N855 0.985 . S
H860 N854 0.984 . S
H861 N854 0.984 . S
H862 N850 0.984 . S
H863 N850 0.985 . S
C864 C865 1.363 . S
C864 C870 1.379 . S
C864 N872 1.356 . S
C865 C864 1.363 . S
C865 C871 1.363 . S
C866 C867 1.363 . S
C866 C871 1.379 . S
C866 N873 1.356 . S
C867 C866 1.363 . S
C867 C870 1.363 . S
N868 C870 1.356 . S
N868 H880 0.984 . S
N868 H881 0.985 . S
N869 C871 1.356 . S
N869 H874 0.984 . S
N869 H875 0.985 . S
C870 C864 1.379 . S
C870 C867 1.363 . S
C870 N868 1.356 . S
C871 C865 1.363 . S
C871 C866 1.379 . S
C871 N869 1.356 . S
N872 C864 1.356 . S
N872 H878 0.984 . S
N872 H879 0.984 . S
N873 C866 1.356 . S
N873 H876 0.984 . S
N873 H877 0.985 . S
H874 N869 0.984 . S
H875 N869 0.985 . S
H876 N873 0.984 . S
H877 N873 0.985 . S
H878 N872 0.984 . S
H879 N872 0.984 . S
H880 N868 0.984 . S
H881 N868 0.985 . S
C882 C883 1.363 . S
C882 C888 1.379 . S
C882 N890 1.356 . S
C883 C882 1.363 . S
C883 C889 1.363 . S
C884 C885 1.363 . S
C884 C889 1.379 . S
C884 N891 1.356 . S
C885 C884 1.363 . S
C885 C888 1.363 . S
N886 C888 1.356 . S
N886 H898 0.984 . S
N886 H899 0.985 . S
N887 C889 1.356 . S
N887 H892 0.984 . S
N887 H893 0.985 . S
C888 C882 1.379 . S
C888 C885 1.363 . S
C888 N886 1.356 . S
C889 C883 1.363 . S
C889 C884 1.379 . S
C889 N887 1.356 . S
N890 C882 1.356 . S
N890 H896 0.984 . S
N890 H897 0.984 . S
N891 C884 1.356 . S
N891 H894 0.984 . S
N891 H895 0.985 . S
H892 N887 0.984 . S
H893 N887 0.985 . S
H894 N891 0.984 . S
H895 N891 0.985 . S
H896 N890 0.984 . S
H897 N890 0.984 . S
H898 N886 0.984 . S
H899 N886 0.985 . S
C900 C901 1.363 . S
C900 C906 1.379 . S
C900 N908 1.356 . S
C901 C900 1.363 . S
C901 C907 1.363 . S
C902 C903 1.363 . S
C902 C907 1.379 . S
C902 N909 1.356 . S
C903 C902 1.363 . S
C903 C906 1.363 . S
N904 C906 1.356 . S
N904 H916 0.984 . S
N904 H917 0.985 . S
N905 C907 1.356 . S
N905 H910 0.984 . S
N905 H911 0.985 . S
C906 C900 1.379 . S
C906 C903 1.363 . S
C906 N904 1.356 . S
C907 C901 1.363 . S
C907 C902 1.379 . S
C907 N905 1.356 . S
N908 C900 1.356 . S
N908 H914 0.984 . S
N908 H915 0.984 . S
N909 C902 1.356 . S
N909 H912 0.984 . S
N909 H913 0.985 . S
H910 N905 0.984 . S
H911 N905 0.985 . S
H912 N909 0.984 . S
H913 N909 0.985 . S
H914 N908 0.984 . S
H915 N908 0.984 . S
H916 N904 0.984 . S
H917 N904 0.985 . S
C918 C919 1.363 . S
C918 C924 1.379 . S
C918 N926 1.356 . S
C919 C918 1.363 . S
C919 C925 1.363 . S
C920 C921 1.363 . S
C920 C925 1.379 . S
C920 N927 1.356 . S
C921 C920 1.363 . S
C921 C924 1.363 . S
N922 C924 1.356 . S
N922 H934 0.984 . S
N922 H935 0.985 . S
N923 C925 1.356 . S
N923 H928 0.984 1_554 S
N923 H929 0.985 1_554 S
C924 C918 1.379 . S
C924 C921 1.363 . S
C924 N922 1.356 . S
C925 C919 1.363 . S
C925 C920 1.379 . S
C925 N923 1.356 . S
N926 C918 1.356 . S
N926 H932 0.984 . S
N926 H933 0.984 . S
N927 C920 1.356 . S
N927 H930 0.984 . S
N927 H931 0.985 . S
H928 N923 0.984 1_556 S
H929 N923 0.985 1_556 S
H930 N927 0.984 . S
H931 N927 0.985 . S
H932 N926 0.984 . S
H933 N926 0.984 . S
H934 N922 0.984 . S
H935 N922 0.985 . S
C936 C937 1.363 . S
C936 C942 1.379 . S
C936 N944 1.356 . S
C937 C936 1.363 . S
C937 C943 1.363 . S
C938 C939 1.363 . S
C938 C943 1.379 . S
C938 N945 1.356 . S
C939 C938 1.363 . S
C939 C942 1.363 . S
N940 C942 1.356 . S
N940 H952 0.984 . S
N940 H953 0.985 . S
N941 C943 1.356 . S
N941 H946 0.984 . S
N941 H947 0.985 . S
C942 C936 1.379 . S
C942 C939 1.363 . S
C942 N940 1.356 . S
C943 C937 1.363 . S
C943 C938 1.379 . S
C943 N941 1.356 . S
N944 C936 1.356 . S
N944 H950 0.984 . S
N944 H951 0.984 . S
N945 C938 1.356 . S
N945 H948 0.984 . S
N945 H949 0.985 . S
H946 N941 0.984 . S
H947 N941 0.985 . S
H948 N945 0.984 . S
H949 N945 0.985 . S
H950 N944 0.984 . S
H951 N944 0.984 . S
H952 N940 0.984 . S
H953 N940 0.985 . S
C954 C955 1.363 . S
C954 C960 1.379 . S
C954 N962 1.356 . S
C955 C954 1.363 . S
C955 C961 1.363 . S
C956 C957 1.363 . S
C956 C961 1.379 . S
C956 N963 1.356 . S
C957 C956 1.363 . S
C957 C960 1.363 . S
N958 C960 1.356 . S
N958 H970 0.984 . S
N958 H971 0.985 . S
N959 C961 1.356 . S
N959 H964 0.984 . S
N959 H965 0.985 . S
C960 C954 1.379 . S
C960 C957 1.363 . S
C960 N958 1.356 . S
C961 C955 1.363 . S
C961 C956 1.379 . S
C961 N959 1.356 . S
N962 C954 1.356 . S
N962 H968 0.984 . S
N962 H969 0.984 . S
N963 C956 1.356 . S
N963 H966 0.984 . S
N963 H967 0.985 . S
H964 N959 0.984 . S
H965 N959 0.985 . S
H966 N963 0.984 . S
H967 N963 0.985 . S
H968 N962 0.984 . S
H969 N962 0.984 . S
H970 N958 0.984 . S
H971 N958 0.985 . S
C972 C973 1.363 . S
C972 C978 1.379 . S
C972 N980 1.356 . S
C973 C972 1.363 . S
C973 C979 1.363 . S
C974 C975 1.363 . S
C974 C979 1.379 . S
C974 N981 1.356 . S
C975 C974 1.363 . S
C975 C978 1.363 . S
N976 C978 1.356 . S
N976 H988 0.984 . S
N976 H989 0.985 . S
N977 C979 1.356 . S
N977 H982 0.984 . S
N977 H983 0.985 . S
C978 C972 1.379 . S
C978 C975 1.363 . S
C978 N976 1.356 . S
C979 C973 1.363 . S
C979 C974 1.379 . S
C979 N977 1.356 . S
N980 C972 1.356 . S
N980 H986 0.984 . S
N980 H987 0.984 . S
N981 C974 1.356 . S
N981 H984 0.984 . S
N981 H985 0.985 . S
H982 N977 0.984 . S
H983 N977 0.985 . S
H984 N981 0.984 . S
H985 N981 0.985 . S
H986 N980 0.984 . S
H987 N980 0.984 . S
H988 N976 0.984 . S
H989 N976 0.985 . S
C990 C991 1.363 . S
C990 C996 1.379 . S
C990 N998 1.356 . S
C991 C990 1.363 . S
C991 C997 1.363 . S
C992 C993 1.363 . S
C992 C997 1.379 . S
C992 N999 1.356 . S
C993 C992 1.363 . S
C993 C996 1.363 . S
N994 C996 1.356 . S
N994 H1006 0.984 . S
N994 H1007 0.985 . S
N995 C997 1.356 . S
N995 H1000 0.984 . S
N995 H1001 0.985 . S
C996 C990 1.379 . S
C996 C993 1.363 . S
C996 N994 1.356 . S
C997 C991 1.363 . S
C997 C992 1.379 . S
C997 N995 1.356 . S
N998 C990 1.356 . S
N998 H1004 0.984 . S
N998 H1005 0.984 . S
N999 C992 1.356 . S
N999 H1002 0.984 . S
N999 H1003 0.985 . S
H1000 N995 0.984 . S
H1001 N995 0.985 . S
H1002 N999 0.984 . S
H1003 N999 0.985 . S
H1004 N998 0.984 . S
H1005 N998 0.984 . S
H1006 N994 0.984 . S
H1007 N994 0.985 . S
C1008 C1009 1.363 . S
C1008 C1014 1.379 . S
C1008 N1016 1.356 . S
C1009 C1008 1.363 . S
C1009 C1015 1.363 . S
C1010 C1011 1.363 . S
C1010 C1015 1.379 . S
C1010 N1017 1.356 . S
C1011 C1010 1.363 . S
C1011 C1014 1.363 . S
N1012 C1014 1.356 . S
N1012 H1024 0.984 . S
N1012 H1025 0.985 . S
N1013 C1015 1.356 . S
N1013 H1018 0.984 . S
N1013 H1019 0.985 . S
C1014 C1008 1.379 . S
C1014 C1011 1.363 . S
C1014 N1012 1.356 . S
C1015 C1009 1.363 . S
C1015 C1010 1.379 . S
C1015 N1013 1.356 . S
N1016 C1008 1.356 . S
N1016 H1022 0.984 . S
N1016 H1023 0.984 . S
N1017 C1010 1.356 . S
N1017 H1020 0.984 1_554 S
N1017 H1021 0.985 1_554 S
H1018 N1013 0.984 . S
H1019 N1013 0.985 . S
H1020 N1017 0.984 1_556 S
H1021 N1017 0.985 1_556 S
H1022 N1016 0.984 . S
H1023 N1016 0.984 . S
H1024 N1012 0.984 . S
H1025 N1012 0.985 . S
C1026 C1027 1.363 . S
C1026 C1032 1.379 . S
C1026 N1034 1.356 . S
C1027 C1026 1.363 . S
C1027 C1033 1.363 . S
C1028 C1029 1.363 . S
C1028 C1033 1.379 . S
C1028 N1035 1.356 . S
C1029 C1028 1.363 . S
C1029 C1032 1.363 . S
N1030 C1032 1.356 . S
N1030 H1042 0.984 . S
N1030 H1043 0.985 . S
N1031 C1033 1.356 . S
N1031 H1036 0.984 . S
N1031 H1037 0.985 . S
C1032 C1026 1.379 . S
C1032 C1029 1.363 . S
C1032 N1030 1.356 . S
C1033 C1027 1.363 . S
C1033 C1028 1.379 . S
C1033 N1031 1.356 . S
N1034 C1026 1.356 . S
N1034 H1040 0.984 . S
N1034 H1041 0.984 . S
N1035 C1028 1.356 . S
N1035 H1038 0.984 . S
N1035 H1039 0.985 . S
H1036 N1031 0.984 . S
H1037 N1031 0.985 . S
H1038 N1035 0.984 . S
H1039 N1035 0.985 . S
H1040 N1034 0.984 . S
H1041 N1034 0.984 . S
H1042 N1030 0.984 . S
H1043 N1030 0.985 . S
C1044 C1045 1.363 . S
C1044 C1050 1.379 . S
C1044 N1052 1.356 . S
C1045 C1044 1.363 . S
C1045 C1051 1.363 . S
C1046 C1047 1.363 . S
C1046 C1051 1.379 . S
C1046 N1053 1.356 . S
C1047 C1046 1.363 . S
C1047 C1050 1.363 . S
N1048 C1050 1.356 . S
N1048 H1060 0.984 . S
N1048 H1061 0.985 . S
N1049 C1051 1.356 . S
N1049 H1054 0.984 . S
N1049 H1055 0.985 . S
C1050 C1044 1.379 . S
C1050 C1047 1.363 . S
C1050 N1048 1.356 . S
C1051 C1045 1.363 . S
C1051 C1046 1.379 . S
C1051 N1049 1.356 . S
N1052 C1044 1.356 . S
N1052 H1058 0.984 . S
N1052 H1059 0.984 . S
N1053 C1046 1.356 . S
N1053 H1056 0.984 . S
N1053 H1057 0.985 . S
H1054 N1049 0.984 . S
H1055 N1049 0.985 . S
H1056 N1053 0.984 . S
H1057 N1053 0.985 . S
H1058 N1052 0.984 . S
H1059 N1052 0.984 . S
H1060 N1048 0.984 . S
H1061 N1048 0.985 . S
C1062 C1063 1.363 . S
C1062 C1068 1.379 1_556 S
C1062 N1070 1.356 . S
C1063 C1062 1.363 . S
C1063 C1069 1.363 . S
C1064 C1065 1.363 . S
C1064 C1069 1.379 1_554 S
C1064 N1071 1.356 . S
C1065 C1064 1.363 . S
C1065 C1068 1.363 . S
N1066 C1068 1.356 . S
N1066 H1078 0.984 . S
N1066 H1079 0.985 . S
N1067 C1069 1.356 . S
N1067 H1072 0.984 . S
N1067 H1073 0.985 . S
C1068 C1062 1.379 1_554 S
C1068 C1065 1.363 . S
C1068 N1066 1.356 . S
C1069 C1063 1.363 . S
C1069 C1064 1.379 1_556 S
C1069 N1067 1.356 . S
N1070 C1062 1.356 . S
N1070 H1076 0.984 1_556 S
N1070 H1077 0.984 . S
N1071 C1064 1.356 . S
N1071 H1074 0.984 . S
N1071 H1075 0.985 . S
H1072 N1067 0.984 . S
H1073 N1067 0.985 . S
H1074 N1071 0.984 . S
H1075 N1071 0.985 . S
H1076 N1070 0.984 1_554 S
H1077 N1070 0.984 . S
H1078 N1066 0.984 . S
H1079 N1066 0.985 . S
C1080 C1081 1.363 . S
C1080 C1086 1.379 1_556 S
C1080 N1088 1.356 . S
C1081 C1080 1.363 . S
C1081 C1087 1.363 1_556 S
C1082 C1083 1.363 . S
C1082 C1087 1.379 . S
C1082 N1089 1.356 . S
C1083 C1082 1.363 . S
C1083 C1086 1.363 . S
N1084 C1086 1.356 . S
N1084 H1096 0.984 1_554 S
N1084 H1097 0.985 . S
N1085 C1087 1.356 1_556 S
N1085 H1090 0.984 . S
N1085 H1091 0.985 1_556 S
C1086 C1080 1.379 1_554 S
C1086 C1083 1.363 . S
C1086 N1084 1.356 . S
C1087 C1081 1.363 1_554 S
C1087 C1082 1.379 . S
C1087 N1085 1.356 1_554 S
N1088 C1080 1.356 . S
N1088 H1094 0.984 . S
N1088 H1095 0.984 . S
N1089 C1082 1.356 . S
N1089 H1092 0.984 . S
N1089 H1093 0.985 . S
H1090 N1085 0.984 . S
H1091 N1085 0.985 1_554 S
H1092 N1089 0.984 . S
H1093 N1089 0.985 . S
H1094 N1088 0.984 . S
H1095 N1088 0.984 . S
H1096 N1084 0.984 1_556 S
H1097 N1084 0.985 . S
C1098 C1099 1.363 . S
C1098 C1104 1.379 1_556 S
C1098 N1106 1.356 . S
C1099 C1098 1.363 . S
C1099 C1105 1.363 . S
C1100 C1101 1.363 . S
C1100 C1105 1.379 1_554 S
C1100 N1107 1.356 . S
C1101 C1100 1.363 . S
C1101 C1104 1.363 . S
N1102 C1104 1.356 . S
N1102 H1114 0.984 . S
N1102 H1115 0.985 . S
N1103 C1105 1.356 . S
N1103 H1108 0.984 . S
N1103 H1109 0.985 . S
C1104 C1098 1.379 1_554 S
C1104 C1101 1.363 . S
C1104 N1102 1.356 . S
C1105 C1099 1.363 . S
C1105 C1100 1.379 1_556 S
C1105 N1103 1.356 . S
N1106 C1098 1.356 . S
N1106 H1112 0.984 . S
N1106 H1113 0.984 . S
N1107 C1100 1.356 . S
N1107 H1110 0.984 . S
N1107 H1111 0.985 . S
H1108 N1103 0.984 . S
H1109 N1103 0.985 . S
H1110 N1107 0.984 . S
H1111 N1107 0.985 . S
H1112 N1106 0.984 . S
H1113 N1106 0.984 . S
H1114 N1102 0.984 . S
H1115 N1102 0.985 . S
C1116 C1117 1.363 . S
C1116 C1122 1.379 . S
C1116 N1124 1.356 . S
C1117 C1116 1.363 . S
C1117 C1123 1.363 . S
C1118 C1119 1.363 . S
C1118 C1123 1.379 . S
C1118 N1125 1.356 . S
C1119 C1118 1.363 . S
C1119 C1122 1.363 . S
N1120 C1122 1.356 . S
N1120 H1132 0.984 . S
N1120 H1133 0.985 . S
N1121 C1123 1.356 . S
N1121 H1126 0.984 . S
N1121 H1127 0.985 . S
C1122 C1116 1.379 . S
C1122 C1119 1.363 . S
C1122 N1120 1.356 . S
C1123 C1117 1.363 . S
C1123 C1118 1.379 . S
C1123 N1121 1.356 . S
N1124 C1116 1.356 . S
N1124 H1130 0.984 . S
N1124 H1131 0.984 . S
N1125 C1118 1.356 . S
N1125 H1128 0.984 . S
N1125 H1129 0.985 . S
H1126 N1121 0.984 . S
H1127 N1121 0.985 . S
H1128 N1125 0.984 . S
H1129 N1125 0.985 . S
H1130 N1124 0.984 . S
H1131 N1124 0.984 . S
H1132 N1120 0.984 . S
H1133 N1120 0.985 . S
C1134 C1135 1.363 . S
C1134 C1140 1.379 . S
C1134 N1142 1.356 . S
C1135 C1134 1.363 . S
C1135 C1141 1.363 . S
C1136 C1137 1.363 . S
C1136 C1141 1.379 . S
C1136 N1143 1.356 . S
C1137 C1136 1.363 . S
C1137 C1140 1.363 . S
N1138 C1140 1.356 . S
N1138 H1150 0.984 . S
N1138 H1151 0.985 . S
N1139 C1141 1.356 . S
N1139 H1144 0.984 . S
N1139 H1145 0.985 . S
C1140 C1134 1.379 . S
C1140 C1137 1.363 . S
C1140 N1138 1.356 . S
C1141 C1135 1.363 . S
C1141 C1136 1.379 . S
C1141 N1139 1.356 . S
N1142 C1134 1.356 . S
N1142 H1148 0.984 . S
N1142 H1149 0.984 . S
N1143 C1136 1.356 . S
N1143 H1146 0.984 . S
N1143 H1147 0.985 . S
H1144 N1139 0.984 . S
H1145 N1139 0.985 . S
H1146 N1143 0.984 . S
H1147 N1143 0.985 . S
H1148 N1142 0.984 . S
H1149 N1142 0.984 . S
H1150 N1138 0.984 . S
H1151 N1138 0.985 . S
C1152 C1153 1.363 . S
C1152 C1158 1.379 . S
C1152 N1160 1.356 . S
C1153 C1152 1.363 . S
C1153 C1159 1.363 . S
C1154 C1155 1.363 . S
C1154 C1159 1.379 . S
C1154 N1161 1.356 . S
C1155 C1154 1.363 . S
C1155 C1158 1.363 . S
N1156 C1158 1.356 . S
N1156 H1168 0.984 . S
N1156 H1169 0.985 . S
N1157 C1159 1.356 . S
N1157 H1162 0.984 . S
N1157 H1163 0.985 . S
C1158 C1152 1.379 . S
C1158 C1155 1.363 . S
C1158 N1156 1.356 . S
C1159 C1153 1.363 . S
C1159 C1154 1.379 . S
C1159 N1157 1.356 . S
N1160 C1152 1.356 . S
N1160 H1166 0.984 . S
N1160 H1167 0.984 . S
N1161 C1154 1.356 . S
N1161 H1164 0.984 . S
N1161 H1165 0.985 . S
H1162 N1157 0.984 . S
H1163 N1157 0.985 . S
H1164 N1161 0.984 . S
H1165 N1161 0.985 . S
H1166 N1160 0.984 . S
H1167 N1160 0.984 . S
H1168 N1156 0.984 . S
H1169 N1156 0.985 . S
C1170 C1171 1.363 . S
C1170 C1176 1.379 . S
C1170 N1178 1.356 . S
C1171 C1170 1.363 . S
C1171 C1177 1.363 . S
C1172 C1173 1.363 . S
C1172 C1177 1.379 . S
C1172 N1179 1.356 . S
C1173 C1172 1.363 . S
C1173 C1176 1.363 . S
N1174 C1176 1.356 . S
N1174 H1186 0.984 . S
N1174 H1187 0.985 . S
N1175 C1177 1.356 . S
N1175 H1180 0.984 . S
N1175 H1181 0.985 . S
C1176 C1170 1.379 . S
C1176 C1173 1.363 . S
C1176 N1174 1.356 . S
C1177 C1171 1.363 . S
C1177 C1172 1.379 . S
C1177 N1175 1.356 . S
N1178 C1170 1.356 . S
N1178 H1184 0.984 . S
N1178 H1185 0.984 . S
N1179 C1172 1.356 . S
N1179 H1182 0.984 . S
N1179 H1183 0.985 . S
H1180 N1175 0.984 . S
H1181 N1175 0.985 . S
H1182 N1179 0.984 . S
H1183 N1179 0.985 . S
H1184 N1178 0.984 . S
H1185 N1178 0.984 . S
H1186 N1174 0.984 . S
H1187 N1174 0.985 . S
C1188 C1189 1.363 . S
C1188 C1194 1.379 . S
C1188 N1196 1.356 . S
C1189 C1188 1.363 . S
C1189 C1195 1.363 . S
C1190 C1191 1.363 . S
C1190 C1195 1.379 . S
C1190 N1197 1.356 . S
C1191 C1190 1.363 . S
C1191 C1194 1.363 . S
N1192 C1194 1.356 . S
N1192 H1204 0.984 . S
N1192 H1205 0.985 . S
N1193 C1195 1.356 . S
N1193 H1198 0.984 . S
N1193 H1199 0.985 . S
C1194 C1188 1.379 . S
C1194 C1191 1.363 . S
C1194 N1192 1.356 . S
C1195 C1189 1.363 . S
C1195 C1190 1.379 . S
C1195 N1193 1.356 . S
N1196 C1188 1.356 . S
N1196 H1202 0.984 . S
N1196 H1203 0.984 . S
N1197 C1190 1.356 . S
N1197 H1200 0.984 . S
N1197 H1201 0.985 . S
H1198 N1193 0.984 . S
H1199 N1193 0.985 . S
H1200 N1197 0.984 . S
H1201 N1197 0.985 . S
H1202 N1196 0.984 . S
H1203 N1196 0.984 . S
H1204 N1192 0.984 . S
H1205 N1192 0.985 . S
C1206 C1207 1.363 . S
C1206 C1212 1.379 . S
C1206 N1214 1.356 . S
C1207 C1206 1.363 . S
C1207 C1213 1.363 . S
C1208 C1209 1.363 . S
C1208 C1213 1.379 . S
C1208 N1215 1.356 . S
C1209 C1208 1.363 . S
C1209 C1212 1.363 . S
N1210 C1212 1.356 . S
N1210 H1222 0.984 . S
N1210 H1223 0.985 . S
N1211 C1213 1.356 . S
N1211 H1216 0.984 . S
N1211 H1217 0.985 . S
C1212 C1206 1.379 . S
C1212 C1209 1.363 . S
C1212 N1210 1.356 . S
C1213 C1207 1.363 . S
C1213 C1208 1.379 . S
C1213 N1211 1.356 . S
N1214 C1206 1.356 . S
N1214 H1220 0.984 . S
N1214 H1221 0.984 . S
N1215 C1208 1.356 . S
N1215 H1218 0.984 . S
N1215 H1219 0.985 . S
H1216 N1211 0.984 . S
H1217 N1211 0.985 . S
H1218 N1215 0.984 . S
H1219 N1215 0.985 . S
H1220 N1214 0.984 . S
H1221 N1214 0.984 . S
H1222 N1210 0.984 . S
H1223 N1210 0.985 . S
C1224 C1225 1.363 . S
C1224 C1230 1.379 . S
C1224 N1232 1.356 . S
C1225 C1224 1.363 . S
C1225 C1231 1.363 . S
C1226 C1227 1.363 . S
C1226 C1231 1.379 . S
C1226 N1233 1.356 . S
C1227 C1226 1.363 . S
C1227 C1230 1.363 . S
N1228 C1230 1.356 . S
N1228 H1240 0.984 . S
N1228 H1241 0.985 . S
N1229 C1231 1.356 . S
N1229 H1234 0.984 . S
N1229 H1235 0.985 . S
C1230 C1224 1.379 . S
C1230 C1227 1.363 . S
C1230 N1228 1.356 . S
C1231 C1225 1.363 . S
C1231 C1226 1.379 . S
C1231 N1229 1.356 . S
N1232 C1224 1.356 . S
N1232 H1238 0.984 . S
N1232 H1239 0.984 . S
N1233 C1226 1.356 . S
N1233 H1236 0.984 . S
N1233 H1237 0.985 . S
H1234 N1229 0.984 . S
H1235 N1229 0.985 . S
H1236 N1233 0.984 . S
H1237 N1233 0.985 . S
H1238 N1232 0.984 . S
H1239 N1232 0.984 . S
H1240 N1228 0.984 . S
H1241 N1228 0.985 . S
C1242 C1243 1.363 . S
C1242 C1248 1.379 . S
C1242 N1250 1.356 . S
C1243 C1242 1.363 . S
C1243 C1249 1.363 . S
C1244 C1245 1.363 . S
C1244 C1249 1.379 . S
C1244 N1251 1.356 . S
C1245 C1244 1.363 . S
C1245 C1248 1.363 . S
N1246 C1248 1.356 . S
N1246 H1258 0.984 . S
N1246 H1259 0.985 . S
N1247 C1249 1.356 . S
N1247 H1252 0.984 . S
N1247 H1253 0.985 . S
C1248 C1242 1.379 . S
C1248 C1245 1.363 . S
C1248 N1246 1.356 . S
C1249 C1243 1.363 . S
C1249 C1244 1.379 . S
C1249 N1247 1.356 . S
N1250 C1242 1.356 . S
N1250 H1256 0.984 . S
N1250 H1257 0.984 . S
N1251 C1244 1.356 . S
N1251 H1254 0.984 . S
N1251 H1255 0.985 . S
H1252 N1247 0.984 . S
H1253 N1247 0.985 . S
H1254 N1251 0.984 . S
H1255 N1251 0.985 . S
H1256 N1250 0.984 . S
H1257 N1250 0.984 . S
H1258 N1246 0.984 . S
H1259 N1246 0.985 . S
C1260 C1261 1.363 . S
C1260 C1266 1.379 . S
C1260 N1268 1.356 . S
C1261 C1260 1.363 . S
C1261 C1267 1.363 . S
C1262 C1263 1.363 . S
C1262 C1267 1.379 . S
C1262 N1269 1.356 . S
C1263 C1262 1.363 . S
C1263 C1266 1.363 . S
N1264 C1266 1.356 . S
N1264 H1276 0.984 . S
N1264 H1277 0.985 . S
N1265 C1267 1.356 . S
N1265 H1270 0.984 . S
N1265 H1271 0.985 . S
C1266 C1260 1.379 . S
C1266 C1263 1.363 . S
C1266 N1264 1.356 . S
C1267 C1261 1.363 . S
C1267 C1262 1.379 . S
C1267 N1265 1.356 . S
N1268 C1260 1.356 . S
N1268 H1274 0.984 . S
N1268 H1275 0.984 . S
N1269 C1262 1.356 . S
N1269 H1272 0.984 . S
N1269 H1273 0.985 . S
H1270 N1265 0.984 . S
H1271 N1265 0.985 . S
H1272 N1269 0.984 . S
H1273 N1269 0.985 . S
H1274 N1268 0.984 . S
H1275 N1268 0.984 . S
H1276 N1264 0.984 . S
H1277 N1264 0.985 . S
C1278 C1279 1.363 . S
C1278 C1284 1.379 . S
C1278 N1286 1.356 . S
C1279 C1278 1.363 . S
C1279 C1285 1.363 . S
C1280 C1281 1.363 . S
C1280 C1285 1.379 . S
C1280 N1287 1.356 . S
C1281 C1280 1.363 . S
C1281 C1284 1.363 . S
N1282 C1284 1.356 . S
N1282 H1294 0.984 . S
N1282 H1295 0.985 . S
N1283 C1285 1.356 . S
N1283 H1288 0.984 . S
N1283 H1289 0.985 . S
C1284 C1278 1.379 . S
C1284 C1281 1.363 . S
C1284 N1282 1.356 . S
C1285 C1279 1.363 . S
C1285 C1280 1.379 . S
C1285 N1283 1.356 . S
N1286 C1278 1.356 . S
N1286 H1292 0.984 . S
N1286 H1293 0.984 . S
N1287 C1280 1.356 . S
N1287 H1290 0.984 . S
N1287 H1291 0.985 . S
H1288 N1283 0.984 . S
H1289 N1283 0.985 . S
H1290 N1287 0.984 . S
H1291 N1287 0.985 . S
H1292 N1286 0.984 . S
H1293 N1286 0.984 . S
H1294 N1282 0.984 . S
H1295 N1282 0.985 . S
C1296 C1297 1.363 . S
C1296 C1302 1.379 . S
C1296 N1304 1.356 . S
C1297 C1296 1.363 . S
C1297 C1303 1.363 . S
C1298 C1299 1.363 . S
C1298 C1303 1.379 . S
C1298 N1305 1.356 . S
C1299 C1298 1.363 . S
C1299 C1302 1.363 . S
N1300 C1302 1.356 . S
N1300 H1312 0.984 . S
N1300 H1313 0.985 . S
N1301 C1303 1.356 . S
N1301 H1306 0.984 . S
N1301 H1307 0.985 . S
C1302 C1296 1.379 . S
C1302 C1299 1.363 . S
C1302 N1300 1.356 . S
C1303 C1297 1.363 . S
C1303 C1298 1.379 . S
C1303 N1301 1.356 . S
N1304 C1296 1.356 . S
N1304 H1310 0.984 . S
N1304 H1311 0.984 . S
N1305 C1298 1.356 . S
N1305 H1308 0.984 . S
N1305 H1309 0.985 . S
H1306 N1301 0.984 . S
H1307 N1301 0.985 . S
H1308 N1305 0.984 . S
H1309 N1305 0.985 . S
H1310 N1304 0.984 . S
H1311 N1304 0.984 . S
H1312 N1300 0.984 . S
H1313 N1300 0.985 . S
C1314 C1315 1.363 . S
C1314 C1320 1.379 . S
C1314 N1322 1.356 . S
C1315 C1314 1.363 . S
C1315 C1321 1.363 . S
C1316 C1317 1.363 . S
C1316 C1321 1.379 . S
C1316 N1323 1.356 . S
C1317 C1316 1.363 . S
C1317 C1320 1.363 . S
N1318 C1320 1.356 . S
N1318 H1330 0.984 . S
N1318 H1331 0.985 . S
N1319 C1321 1.356 . S
N1319 H1324 0.984 . S
N1319 H1325 0.985 . S
C1320 C1314 1.379 . S
C1320 C1317 1.363 . S
C1320 N1318 1.356 . S
C1321 C1315 1.363 . S
C1321 C1316 1.379 . S
C1321 N1319 1.356 . S
N1322 C1314 1.356 . S
N1322 H1328 0.984 . S
N1322 H1329 0.984 . S
N1323 C1316 1.356 . S
N1323 H1326 0.984 . S
N1323 H1327 0.985 . S
H1324 N1319 0.984 . S
H1325 N1319 0.985 . S
H1326 N1323 0.984 . S
H1327 N1323 0.985 . S
H1328 N1322 0.984 . S
H1329 N1322 0.984 . S
H1330 N1318 0.984 . S
H1331 N1318 0.985 . S
C1332 C1333 1.363 . S
C1332 C1338 1.379 . S
C1332 N1340 1.356 . S
C1333 C1332 1.363 . S
C1333 C1339 1.363 . S
C1334 C1335 1.363 . S
C1334 C1339 1.379 . S
C1334 N1341 1.356 . S
C1335 C1334 1.363 . S
C1335 C1338 1.363 . S
N1336 C1338 1.356 . S
N1336 H1348 0.984 . S
N1336 H1349 0.985 . S
N1337 C1339 1.356 . S
N1337 H1342 0.984 . S
N1337 H1343 0.985 . S
C1338 C1332 1.379 . S
C1338 C1335 1.363 . S
C1338 N1336 1.356 . S
C1339 C1333 1.363 . S
C1339 C1334 1.379 . S
C1339 N1337 1.356 . S
N1340 C1332 1.356 . S
N1340 H1346 0.984 . S
N1340 H1347 0.984 . S
N1341 C1334 1.356 . S
N1341 H1344 0.984 . S
N1341 H1345 0.985 . S
H1342 N1337 0.984 . S
H1343 N1337 0.985 . S
H1344 N1341 0.984 . S
H1345 N1341 0.985 . S
H1346 N1340 0.984 . S
H1347 N1340 0.984 . S
H1348 N1336 0.984 . S
H1349 N1336 0.985 . S
C1350 C1351 1.363 . S
C1350 C1356 1.379 . S
C1350 N1358 1.356 . S
C1351 C1350 1.363 . S
C1351 C1357 1.363 . S
C1352 C1353 1.363 . S
C1352 C1357 1.379 . S
C1352 N1359 1.356 . S
C1353 C1352 1.363 . S
C1353 C1356 1.363 . S
N1354 C1356 1.356 . S
N1354 H1366 0.984 . S
N1354 H1367 0.985 . S
N1355 C1357 1.356 . S
N1355 H1360 0.984 . S
N1355 H1361 0.985 . S
C1356 C1350 1.379 . S
C1356 C1353 1.363 . S
C1356 N1354 1.356 . S
C1357 C1351 1.363 . S
C1357 C1352 1.379 . S
C1357 N1355 1.356 . S
N1358 C1350 1.356 . S
N1358 H1364 0.984 . S
N1358 H1365 0.984 . S
N1359 C1352 1.356 . S
N1359 H1362 0.984 . S
N1359 H1363 0.985 . S
H1360 N1355 0.984 . S
H1361 N1355 0.985 . S
H1362 N1359 0.984 . S
H1363 N1359 0.985 . S
H1364 N1358 0.984 . S
H1365 N1358 0.984 . S
H1366 N1354 0.984 . S
H1367 N1354 0.985 . S
C1368 C1369 1.363 . S
C1368 C1374 1.379 . S
C1368 N1376 1.356 . S
C1369 C1368 1.363 . S
C1369 C1375 1.363 . S
C1370 C1371 1.363 . S
C1370 C1375 1.379 . S
C1370 N1377 1.356 . S
C1371 C1370 1.363 . S
C1371 C1374 1.363 . S
N1372 C1374 1.356 . S
N1372 H1384 0.984 . S
N1372 H1385 0.985 . S
N1373 C1375 1.356 . S
N1373 H1378 0.984 . S
N1373 H1379 0.985 . S
C1374 C1368 1.379 . S
C1374 C1371 1.363 . S
C1374 N1372 1.356 . S
C1375 C1369 1.363 . S
C1375 C1370 1.379 . S
C1375 N1373 1.356 . S
N1376 C1368 1.356 . S
N1376 H1382 0.984 . S
N1376 H1383 0.984 . S
N1377 C1370 1.356 . S
N1377 H1380 0.984 . S
N1377 H1381 0.985 . S
H1378 N1373 0.984 . S
H1379 N1373 0.985 . S
H1380 N1377 0.984 . S
H1381 N1377 0.985 . S
H1382 N1376 0.984 . S
H1383 N1376 0.984 . S
H1384 N1372 0.984 . S
H1385 N1372 0.985 . S
C1386 C1387 1.363 . S
C1386 C1392 1.379 1_556 S
C1386 N1394 1.356 . S
C1387 C1386 1.363 . S
C1387 C1393 1.363 . S
C1388 C1389 1.363 . S
C1388 C1393 1.379 1_554 S
C1388 N1395 1.356 . S
C1389 C1388 1.363 . S
C1389 C1392 1.363 . S
N1390 C1392 1.356 . S
N1390 H1402 0.984 . S
N1390 H1403 0.985 . S
N1391 C1393 1.356 . S
N1391 H1396 0.984 . S
N1391 H1397 0.985 . S
C1392 C1386 1.379 1_554 S
C1392 C1389 1.363 . S
C1392 N1390 1.356 . S
C1393 C1387 1.363 . S
C1393 C1388 1.379 1_556 S
C1393 N1391 1.356 . S
N1394 C1386 1.356 . S
N1394 H1400 0.984 . S
N1394 H1401 0.984 . S
N1395 C1388 1.356 . S
N1395 H1398 0.984 . S
N1395 H1399 0.985 . S
H1396 N1391 0.984 . S
H1397 N1391 0.985 . S
H1398 N1395 0.984 . S
H1399 N1395 0.985 . S
H1400 N1394 0.984 . S
H1401 N1394 0.984 . S
H1402 N1390 0.984 . S
H1403 N1390 0.985 . S
C1404 C1405 1.363 . S
C1404 C1410 1.379 1_556 S
C1404 N1412 1.356 . S
C1405 C1404 1.363 . S
C1405 C1411 1.363 . S
C1406 C1407 1.363 . S
C1406 C1411 1.379 1_554 S
C1406 N1413 1.356 . S
C1407 C1406 1.363 . S
C1407 C1410 1.363 . S
N1408 C1410 1.356 . S
N1408 H1420 0.984 . S
N1408 H1421 0.985 . S
N1409 C1411 1.356 . S
N1409 H1414 0.984 . S
N1409 H1415 0.985 . S
C1410 C1404 1.379 1_554 S
C1410 C1407 1.363 . S
C1410 N1408 1.356 . S
C1411 C1405 1.363 . S
C1411 C1406 1.379 1_556 S
C1411 N1409 1.356 . S
N1412 C1404 1.356 . S
N1412 H1418 0.984 . S
N1412 H1419 0.984 . S
N1413 C1406 1.356 . S
N1413 H1416 0.984 . S
N1413 H1417 0.985 . S
H1414 N1409 0.984 . S
H1415 N1409 0.985 . S
H1416 N1413 0.984 . S
H1417 N1413 0.985 . S
H1418 N1412 0.984 . S
H1419 N1412 0.984 . S
H1420 N1408 0.984 . S
H1421 N1408 0.985 . S
C1422 C1423 1.363 1_554 S
C1422 C1428 1.379 . S
C1422 N1430 1.356 1_554 S
C1423 C1422 1.363 1_556 S
C1423 C1429 1.363 . S
C1424 C1425 1.363 1_556 S
C1424 C1429 1.379 . S
C1424 N1431 1.356 1_556 S
C1425 C1424 1.363 1_554 S
C1425 C1428 1.363 . S
N1426 C1428 1.356 . S
N1426 H1438 0.984 . S
N1426 H1439 0.985 . S
N1427 C1429 1.356 . S
N1427 H1432 0.984 . S
N1427 H1433 0.985 . S
C1428 C1422 1.379 . S
C1428 C1425 1.363 . S
C1428 N1426 1.356 . S
C1429 C1423 1.363 . S
C1429 C1424 1.379 . S
C1429 N1427 1.356 . S
N1430 C1422 1.356 1_556 S
N1430 H1436 0.984 1_556 S
N1430 H1437 0.984 . S
N1431 C1424 1.356 1_554 S
N1431 H1434 0.984 . S
N1431 H1435 0.985 1_554 S
H1432 N1427 0.984 . S
H1433 N1427 0.985 . S
H1434 N1431 0.984 . S
H1435 N1431 0.985 1_556 S
H1436 N1430 0.984 1_554 S
H1437 N1430 0.984 . S
H1438 N1426 0.984 . S
H1439 N1426 0.985 . S
C1440 C1441 1.363 . S
C1440 C1446 1.379 . S
C1440 N1448 1.356 . S
C1441 C1440 1.363 . S
C1441 C1447 1.363 . S
C1442 C1443 1.363 . S
C1442 C1447 1.379 . S
C1442 N1449 1.356 . S
C1443 C1442 1.363 . S
C1443 C1446 1.363 . S
N1444 C1446 1.356 1_554 S
N1444 H1456 0.984 . S
N1444 H1457 0.985 . S
N1445 C1447 1.356 . S
N1445 H1450 0.984 . S
N1445 H1451 0.985 . S
C1446 C1440 1.379 . S
C1446 C1443 1.363 . S
C1446 N1444 1.356 1_556 S
C1447 C1441 1.363 . S
C1447 C1442 1.379 . S
C1447 N1445 1.356 . S
N1448 C1440 1.356 . S
N1448 H1454 0.984 1_556 S
N1448 H1455 0.984 . S
N1449 C1442 1.356 . S
N1449 H1452 0.984 . S
N1449 H1453 0.985 . S
H1450 N1445 0.984 . S
H1451 N1445 0.985 . S
H1452 N1449 0.984 . S
H1453 N1449 0.985 . S
H1454 N1448 0.984 1_554 S
H1455 N1448 0.984 . S
H1456 N1444 0.984 . S
H1457 N1444 0.985 . S
C1458 C1459 1.363 . S
C1458 C1464 1.379 . S
C1458 N1466 1.356 1_556 S
C1459 C1458 1.363 . S
C1459 C1465 1.363 . S
C1460 C1461 1.363 . S
C1460 C1465 1.379 . S
C1460 N1467 1.356 . S
C1461 C1460 1.363 . S
C1461 C1464 1.363 . S
N1462 C1464 1.356 . S
N1462 H1474 0.984 1_556 S
N1462 H1475 0.985 . S
N1463 C1465 1.356 . S
N1463 H1468 0.984 . S
N1463 H1469 0.985 . S
C1464 C1458 1.379 . S
C1464 C1461 1.363 . S
C1464 N1462 1.356 . S
C1465 C1459 1.363 . S
C1465 C1460 1.379 . S
C1465 N1463 1.356 . S
N1466 C1458 1.356 1_554 S
N1466 H1472 0.984 . S
N1466 H1473 0.984 . S
N1467 C1460 1.356 . S
N1467 H1470 0.984 . S
N1467 H1471 0.985 . S
H1468 N1463 0.984 . S
H1469 N1463 0.985 . S
H1470 N1467 0.984 . S
H1471 N1467 0.985 . S
H1472 N1466 0.984 . S
H1473 N1466 0.984 . S
H1474 N1462 0.984 1_554 S
H1475 N1462 0.985 . S
C1476 C1477 1.363 . S
C1476 C1482 1.379 . S
C1476 N1484 1.356 . S
C1477 C1476 1.363 . S
C1477 C1483 1.363 . S
C1478 C1479 1.363 . S
C1478 C1483 1.379 . S
C1478 N1485 1.356 1_556 S
C1479 C1478 1.363 . S
C1479 C1482 1.363 . S
N1480 C1482 1.356 . S
N1480 H1492 0.984 . S
N1480 H1493 0.985 . S
N1481 C1483 1.356 . S
N1481 H1486 0.984 . S
N1481 H1487 0.985 . S
C1482 C1476 1.379 . S
C1482 C1479 1.363 . S
C1482 N1480 1.356 . S
C1483 C1477 1.363 . S
C1483 C1478 1.379 . S
C1483 N1481 1.356 . S
N1484 C1476 1.356 . S
N1484 H1490 0.984 . S
N1484 H1491 0.984 . S
N1485 C1478 1.356 1_554 S
N1485 H1488 0.984 . S
N1485 H1489 0.985 . S
H1486 N1481 0.984 . S
H1487 N1481 0.985 . S
H1488 N1485 0.984 . S
H1489 N1485 0.985 . S
H1490 N1484 0.984 . S
H1491 N1484 0.984 . S
H1492 N1480 0.984 . S
H1493 N1480 0.985 . S
C1494 C1495 1.363 . S
C1494 C1500 1.379 . S
C1494 N1502 1.356 . S
C1495 C1494 1.363 . S
C1495 C1501 1.363 . S
C1496 C1497 1.363 . S
C1496 C1501 1.379 . S
C1496 N1503 1.356 . S
C1497 C1496 1.363 . S
C1497 C1500 1.363 . S
N1498 C1500 1.356 . S
N1498 H1510 0.984 . S
N1498 H1511 0.985 . S
N1499 C1501 1.356 . S
N1499 H1504 0.984 . S
N1499 H1505 0.985 . S
C1500 C1494 1.379 . S
C1500 C1497 1.363 . S
C1500 N1498 1.356 . S
C1501 C1495 1.363 . S
C1501 C1496 1.379 . S
C1501 N1499 1.356 . S
N1502 C1494 1.356 . S
N1502 H1508 0.984 . S
N1502 H1509 0.984 . S
N1503 C1496 1.356 . S
N1503 H1506 0.984 . S
N1503 H1507 0.985 . S
H1504 N1499 0.984 . S
H1505 N1499 0.985 . S
H1506 N1503 0.984 . S
H1507 N1503 0.985 . S
H1508 N1502 0.984 . S
H1509 N1502 0.984 . S
H1510 N1498 0.984 . S
H1511 N1498 0.985 . S
C1512 C1513 1.363 . S
C1512 C1518 1.379 . S
C1512 N1520 1.356 . S
C1513 C1512 1.363 . S
C1513 C1519 1.363 . S
C1514 C1515 1.363 . S
C1514 C1519 1.379 . S
C1514 N1521 1.356 . S
C1515 C1514 1.363 . S
C1515 C1518 1.363 . S
N1516 C1518 1.356 . S
N1516 H1528 0.984 . S
N1516 H1529 0.985 . S
N1517 C1519 1.356 . S
N1517 H1522 0.984 . S
N1517 H1523 0.985 . S
C1518 C1512 1.379 . S
C1518 C1515 1.363 . S
C1518 N1516 1.356 . S
C1519 C1513 1.363 . S
C1519 C1514 1.379 . S
C1519 N1517 1.356 . S
N1520 C1512 1.356 . S
N1520 H1526 0.984 . S
N1520 H1527 0.984 . S
N1521 C1514 1.356 . S
N1521 H1524 0.984 . S
N1521 H1525 0.985 . S
H1522 N1517 0.984 . S
H1523 N1517 0.985 . S
H1524 N1521 0.984 . S
H1525 N1521 0.985 . S
H1526 N1520 0.984 . S
H1527 N1520 0.984 . S
H1528 N1516 0.984 . S
H1529 N1516 0.985 . S
C1530 C1531 1.363 . S
C1530 C1536 1.379 . S
C1530 N1538 1.356 . S
C1531 C1530 1.363 . S
C1531 C1537 1.363 . S
C1532 C1533 1.363 . S
C1532 C1537 1.379 . S
C1532 N1539 1.356 . S
C1533 C1532 1.363 . S
C1533 C1536 1.363 . S
N1534 C1536 1.356 . S
N1534 H1546 0.984 . S
N1534 H1547 0.985 . S
N1535 C1537 1.356 . S
N1535 H1540 0.984 . S
N1535 H1541 0.985 . S
C1536 C1530 1.379 . S
C1536 C1533 1.363 . S
C1536 N1534 1.356 . S
C1537 C1531 1.363 . S
C1537 C1532 1.379 . S
C1537 N1535 1.356 . S
N1538 C1530 1.356 . S
N1538 H1544 0.984 . S
N1538 H1545 0.984 . S
N1539 C1532 1.356 . S
N1539 H1542 0.984 . S
N1539 H1543 0.985 . S
H1540 N1535 0.984 . S
H1541 N1535 0.985 . S
H1542 N1539 0.984 . S
H1543 N1539 0.985 . S
H1544 N1538 0.984 . S
H1545 N1538 0.984 . S
H1546 N1534 0.984 . S
H1547 N1534 0.985 . S
C1548 C1549 1.363 . S
C1548 C1554 1.379 . S
C1548 N1556 1.356 1_554 S
C1549 C1548 1.363 . S
C1549 C1555 1.363 . S
C1550 C1551 1.363 . S
C1550 C1555 1.379 . S
C1550 N1557 1.356 . S
C1551 C1550 1.363 . S
C1551 C1554 1.363 . S
N1552 C1554 1.356 . S
N1552 H1564 0.984 . S
N1552 H1565 0.985 . S
N1553 C1555 1.356 . S
N1553 H1558 0.984 . S
N1553 H1559 0.985 . S
C1554 C1548 1.379 . S
C1554 C1551 1.363 . S
C1554 N1552 1.356 . S
C1555 C1549 1.363 . S
C1555 C1550 1.379 . S
C1555 N1553 1.356 . S
N1556 C1548 1.356 1_556 S
N1556 H1562 0.984 . S
N1556 H1563 0.984 . S
N1557 C1550 1.356 . S
N1557 H1560 0.984 . S
N1557 H1561 0.985 . S
H1558 N1553 0.984 . S
H1559 N1553 0.985 . S
H1560 N1557 0.984 . S
H1561 N1557 0.985 . S
H1562 N1556 0.984 . S
H1563 N1556 0.984 . S
H1564 N1552 0.984 . S
H1565 N1552 0.985 . S
C1566 C1567 1.363 . S
C1566 C1572 1.379 . S
C1566 N1574 1.356 . S
C1567 C1566 1.363 . S
C1567 C1573 1.363 . S
C1568 C1569 1.363 . S
C1568 C1573 1.379 . S
C1568 N1575 1.356 1_554 S
C1569 C1568 1.363 . S
C1569 C1572 1.363 . S
N1570 C1572 1.356 . S
N1570 H1582 0.984 . S
N1570 H1583 0.985 . S
N1571 C1573 1.356 . S
N1571 H1576 0.984 . S
N1571 H1577 0.985 . S
C1572 C1566 1.379 . S
C1572 C1569 1.363 . S
C1572 N1570 1.356 . S
C1573 C1567 1.363 . S
C1573 C1568 1.379 . S
C1573 N1571 1.356 . S
N1574 C1566 1.356 . S
N1574 H1580 0.984 . S
N1574 H1581 0.984 . S
N1575 C1568 1.356 1_556 S
N1575 H1578 0.984 . S
N1575 H1579 0.985 . S
H1576 N1571 0.984 . S
H1577 N1571 0.985 . S
H1578 N1575 0.984 . S
H1579 N1575 0.985 . S
H1580 N1574 0.984 . S
H1581 N1574 0.984 . S
H1582 N1570 0.984 . S
H1583 N1570 0.985 . S
C1584 C1585 1.363 . S
C1584 C1590 1.379 . S
C1584 N1592 1.356 . S
C1585 C1584 1.363 . S
C1585 C1591 1.363 . S
C1586 C1587 1.363 . S
C1586 C1591 1.379 . S
C1586 N1593 1.356 1_554 S
C1587 C1586 1.363 . S
C1587 C1590 1.363 . S
N1588 C1590 1.356 . S
N1588 H1600 0.984 . S
N1588 H1601 0.985 . S
N1589 C1591 1.356 . S
N1589 H1594 0.984 . S
N1589 H1595 0.985 . S
C1590 C1584 1.379 . S
C1590 C1587 1.363 . S
C1590 N1588 1.356 . S
C1591 C1585 1.363 . S
C1591 C1586 1.379 . S
C1591 N1589 1.356 . S
N1592 C1584 1.356 . S
N1592 H1598 0.984 . S
N1592 H1599 0.984 . S
N1593 C1586 1.356 1_556 S
N1593 H1596 0.984 . S
N1593 H1597 0.985 . S
H1594 N1589 0.984 . S
H1595 N1589 0.985 . S
H1596 N1593 0.984 . S
H1597 N1593 0.985 . S
H1598 N1592 0.984 . S
H1599 N1592 0.984 . S
H1600 N1588 0.984 . S
H1601 N1588 0.985 . S
C1602 C1603 1.363 . S
C1602 C1608 1.379 . S
C1602 N1610 1.356 . S
C1603 C1602 1.363 . S
C1603 C1609 1.363 . S
C1604 C1605 1.363 . S
C1604 C1609 1.379 . S
C1604 N1611 1.356 . S
C1605 C1604 1.363 . S
C1605 C1608 1.363 . S
N1606 C1608 1.356 . S
N1606 H1618 0.984 . S
N1606 H1619 0.985 . S
N1607 C1609 1.356 . S
N1607 H1612 0.984 . S
N1607 H1613 0.985 . S
C1608 C1602 1.379 . S
C1608 C1605 1.363 . S
C1608 N1606 1.356 . S
C1609 C1603 1.363 . S
C1609 C1604 1.379 . S
C1609 N1607 1.356 . S
N1610 C1602 1.356 . S
N1610 H1616 0.984 . S
N1610 H1617 0.984 . S
N1611 C1604 1.356 . S
N1611 H1614 0.984 . S
N1611 H1615 0.985 . S
H1612 N1607 0.984 . S
H1613 N1607 0.985 . S
H1614 N1611 0.984 . S
H1615 N1611 0.985 . S
H1616 N1610 0.984 . S
H1617 N1610 0.984 . S
H1618 N1606 0.984 . S
H1619 N1606 0.985 . S
C1620 C1621 1.363 . S
C1620 C1626 1.379 . S
C1620 N1628 1.356 . S
C1621 C1620 1.363 . S
C1621 C1627 1.363 . S
C1622 C1623 1.363 . S
C1622 C1627 1.379 . S
C1622 N1629 1.356 . S
C1623 C1622 1.363 . S
C1623 C1626 1.363 . S
N1624 C1626 1.356 . S
N1624 H1636 0.984 . S
N1624 H1637 0.985 . S
N1625 C1627 1.356 . S
N1625 H1630 0.984 . S
N1625 H1631 0.985 . S
C1626 C1620 1.379 . S
C1626 C1623 1.363 . S
C1626 N1624 1.356 . S
C1627 C1621 1.363 . S
C1627 C1622 1.379 . S
C1627 N1625 1.356 . S
N1628 C1620 1.356 . S
N1628 H1634 0.984 . S
N1628 H1635 0.984 . S
N1629 C1622 1.356 . S
N1629 H1632 0.984 . S
N1629 H1633 0.985 . S
H1630 N1625 0.984 . S
H1631 N1625 0.985 . S
H1632 N1629 0.984 . S
H1633 N1629 0.985 . S
H1634 N1628 0.984 . S
H1635 N1628 0.984 . S
H1636 N1624 0.984 . S
H1637 N1624 0.985 . S
C1638 C1639 1.363 . S
C1638 C1644 1.379 . S
C1638 N1646 1.356 . S
C1639 C1638 1.363 . S
C1639 C1645 1.363 . S
C1640 C1641 1.363 . S
C1640 C1645 1.379 . S
C1640 N1647 1.356 . S
C1641 C1640 1.363 . S
C1641 C1644 1.363 . S
N1642 C1644 1.356 . S
N1642 H1654 0.984 . S
N1642 H1655 0.985 . S
N1643 C1645 1.356 . S
N1643 H1648 0.984 . S
N1643 H1649 0.985 . S
C1644 C1638 1.379 . S
C1644 C1641 1.363 . S
C1644 N1642 1.356 . S
C1645 C1639 1.363 . S
C1645 C1640 1.379 . S
C1645 N1643 1.356 . S
N1646 C1638 1.356 . S
N1646 H1652 0.984 . S
N1646 H1653 0.984 . S
N1647 C1640 1.356 . S
N1647 H1650 0.984 . S
N1647 H1651 0.985 . S
H1648 N1643 0.984 . S
H1649 N1643 0.985 . S
H1650 N1647 0.984 . S
H1651 N1647 0.985 . S
H1652 N1646 0.984 . S
H1653 N1646 0.984 . S
H1654 N1642 0.984 . S
H1655 N1642 0.985 . S
C1656 C1657 1.363 . S
C1656 C1662 1.379 1_655 S
C1656 N1664 1.356 . S
C1657 C1656 1.363 . S
C1657 C1663 1.363 . S
C1658 C1659 1.363 . S
C1658 C1663 1.379 1_455 S
C1658 N1665 1.356 . S
C1659 C1658 1.363 . S
C1659 C1662 1.363 . S
N1660 C1662 1.356 . S
N1660 H1672 0.984 . S
N1660 H1673 0.985 . S
N1661 C1663 1.356 . S
N1661 H1666 0.984 . S
N1661 H1667 0.985 . S
C1662 C1656 1.379 1_455 S
C1662 C1659 1.363 . S
C1662 N1660 1.356 . S
C1663 C1657 1.363 . S
C1663 C1658 1.379 1_655 S
C1663 N1661 1.356 . S
N1664 C1656 1.356 . S
N1664 H1670 0.984 . S
N1664 H1671 0.984 . S
N1665 C1658 1.356 . S
N1665 H1668 0.984 . S
N1665 H1669 0.985 . S
H1666 N1661 0.984 . S
H1667 N1661 0.985 . S
H1668 N1665 0.984 . S
H1669 N1665 0.985 . S
H1670 N1664 0.984 . S
H1671 N1664 0.984 . S
H1672 N1660 0.984 . S
H1673 N1660 0.985 . S
C1674 C1675 1.363 . S
C1674 C1680 1.379 . S
C1674 N1682 1.356 . S
C1675 C1674 1.363 . S
C1675 C1681 1.363 . S
C1676 C1677 1.363 . S
C1676 C1681 1.379 . S
C1676 N1683 1.356 . S
C1677 C1676 1.363 . S
C1677 C1680 1.363 . S
N1678 C1680 1.356 . S
N1678 H1690 0.984 . S
N1678 H1691 0.985 . S
N1679 C1681 1.356 . S
N1679 H1684 0.984 . S
N1679 H1685 0.985 . S
C1680 C1674 1.379 . S
C1680 C1677 1.363 . S
C1680 N1678 1.356 . S
C1681 C1675 1.363 . S
C1681 C1676 1.379 . S
C1681 N1679 1.356 . S
N1682 C1674 1.356 . S
N1682 H1688 0.984 . S
N1682 H1689 0.984 . S
N1683 C1676 1.356 . S
N1683 H1686 0.984 . S
N1683 H1687 0.985 . S
H1684 N1679 0.984 . S
H1685 N1679 0.985 . S
H1686 N1683 0.984 . S
H1687 N1683 0.985 . S
H1688 N1682 0.984 . S
H1689 N1682 0.984 . S
H1690 N1678 0.984 . S
H1691 N1678 0.985 . S
C1692 C1693 1.363 . S
C1692 C1698 1.379 1_565 S
C1692 N1700 1.356 . S
C1693 C1692 1.363 . S
C1693 C1699 1.363 . S
C1694 C1695 1.363 . S
C1694 C1699 1.379 1_545 S
C1694 N1701 1.356 . S
C1695 C1694 1.363 . S
C1695 C1698 1.363 . S
N1696 C1698 1.356 . S
N1696 H1708 0.984 . S
N1696 H1709 0.985 . S
N1697 C1699 1.356 . S
N1697 H1702 0.984 . S
N1697 H1703 0.985 . S
C1698 C1692 1.379 1_545 S
C1698 C1695 1.363 . S
C1698 N1696 1.356 . S
C1699 C1693 1.363 . S
C1699 C1694 1.379 1_565 S
C1699 N1697 1.356 . S
N1700 C1692 1.356 . S
N1700 H1706 0.984 . S
N1700 H1707 0.984 . S
N1701 C1694 1.356 . S
N1701 H1704 0.984 . S
N1701 H1705 0.985 . S
H1702 N1697 0.984 . S
H1703 N1697 0.985 . S
H1704 N1701 0.984 . S
H1705 N1701 0.985 . S
H1706 N1700 0.984 . S
H1707 N1700 0.984 . S
H1708 N1696 0.984 . S
H1709 N1696 0.985 . S
C1710 C1711 1.363 . S
C1710 C1716 1.379 1_545 S
C1710 N1718 1.356 . S
C1711 C1710 1.363 . S
C1711 C1717 1.363 . S
C1712 C1713 1.363 . S
C1712 C1717 1.379 1_565 S
C1712 N1719 1.356 . S
C1713 C1712 1.363 . S
C1713 C1716 1.363 . S
N1714 C1716 1.356 . S
N1714 H1726 0.984 . S
N1714 H1727 0.985 . S
N1715 C1717 1.356 . S
N1715 H1720 0.984 . S
N1715 H1721 0.985 . S
C1716 C1710 1.379 1_565 S
C1716 C1713 1.363 . S
C1716 N1714 1.356 . S
C1717 C1711 1.363 . S
C1717 C1712 1.379 1_545 S
C1717 N1715 1.356 . S
N1718 C1710 1.356 . S
N1718 H1724 0.984 . S
N1718 H1725 0.984 . S
N1719 C1712 1.356 . S
N1719 H1722 0.984 . S
N1719 H1723 0.985 . S
H1720 N1715 0.984 . S
H1721 N1715 0.985 . S
H1722 N1719 0.984 . S
H1723 N1719 0.985 . S
H1724 N1718 0.984 . S
H1725 N1718 0.984 . S
H1726 N1714 0.984 . S
H1727 N1714 0.985 . S
C1728 C1729 1.363 . S
C1728 C1734 1.379 1_455 S
C1728 N1736 1.356 . S
C1729 C1728 1.363 . S
C1729 C1735 1.363 . S
C1730 C1731 1.363 . S
C1730 C1735 1.379 1_655 S
C1730 N1737 1.356 . S
C1731 C1730 1.363 . S
C1731 C1734 1.363 . S
N1732 C1734 1.356 . S
N1732 H1744 0.951 1_655 S
N1732 H1745 0.985 . S
N1733 C1735 1.356 . S
N1733 H1738 0.984 . S
N1733 H1739 0.951 1_455 S
C1734 C1728 1.379 1_655 S
C1734 C1731 1.363 . S
C1734 N1732 1.356 . S
C1735 C1729 1.363 . S
C1735 C1730 1.379 1_455 S
C1735 N1733 1.356 . S
N1736 C1728 1.356 . S
N1736 H1742 0.984 . S
N1736 H1743 0.984 . S
N1737 C1730 1.356 . S
N1737 H1740 0.984 . S
N1737 H1741 0.985 . S
H1738 N1733 0.984 . S
H1739 N1733 0.951 1_655 S
H1740 N1737 0.984 . S
H1741 N1737 0.985 . S
H1742 N1736 0.984 . S
H1743 N1736 0.984 . S
H1744 N1732 0.951 1_455 S
H1745 N1732 0.985 . S
C1746 C1747 1.363 . S
C1746 C1752 1.379 . S
C1746 N1754 1.356 . S
C1747 C1746 1.363 . S
C1747 C1753 1.363 . S
C1748 C1749 1.363 . S
C1748 C1753 1.379 . S
C1748 N1755 1.356 . S
C1749 C1748 1.363 . S
C1749 C1752 1.363 . S
N1750 C1752 1.356 . S
N1750 H1762 0.984 . S
N1750 H1763 0.985 . S
N1751 C1753 1.356 . S
N1751 H1756 0.984 . S
N1751 H1757 0.985 . S
C1752 C1746 1.379 . S
C1752 C1749 1.363 . S
C1752 N1750 1.356 . S
C1753 C1747 1.363 . S
C1753 C1748 1.379 . S
C1753 N1751 1.356 . S
N1754 C1746 1.356 . S
N1754 H1760 0.984 . S
N1754 H1761 0.984 . S
N1755 C1748 1.356 . S
N1755 H1758 0.984 . S
N1755 H1759 0.985 . S
H1756 N1751 0.984 . S
H1757 N1751 0.985 . S
H1758 N1755 0.984 . S
H1759 N1755 0.985 . S
H1760 N1754 0.984 . S
H1761 N1754 0.984 . S
H1762 N1750 0.984 . S
H1763 N1750 0.985 . S
C469 C75 1.262 . S
C471 C4 1.262 . S
C487 C17 1.262 . S
C489 C49 1.262 . S
C505 C62 1.262 . S
C507 C36 1.262 . S
C523 C82 1.262 . S
C525 C147 1.262 . S
C541 C95 1.262 . S
C543 C121 1.262 . S
C559 C134 1.262 . S
C561 C114 1.262 . S
C577 C225 1.262 . S
C579 C160 1.262 . S
C595 C179 1.262 . S
C597 C205 1.262 . S
C613 C218 1.262 . S
C615 C192 1.262 . S
C631 C238 1.262 . S
C633 C309 1.262 1_554 S
C649 C257 1.262 . S
C651 C277 1.262 1_554 S
C667 C264 1.262 . S
C669 C290 1.262 1_554 S
C685 C316 1.262 . S
C687 C387 1.262 1_556 S
C703 C361 1.262 1_556 S
C705 C329 1.262 . S
C721 C342 1.262 . S
C723 C374 1.262 1_556 S
C739 C400 1.262 . S
C741 C465 1.262 . S
C757 C407 1.262 . S
C759 C439 1.262 . S
C775 C420 1.262 . S
C777 C452 1.262 . S
C793 C140 1.446 . S
C795 C5 1.431 . S
C811 C153 1.446 . S
C813 C18 1.431 . S
C829 C127 1.447 . S
C831 C29 1.431 . S
C847 C108 1.446 . S
C849 C42 1.430 . S
C865 C55 1.431 . S
C867 C88 1.446 . S
C883 C68 1.431 . S
C885 C101 1.446 . S
C901 C83 1.431 . S
C903 C56 1.446 . S
C919 C96 1.431 . S
C921 C69 1.446 . S
C937 C107 1.431 . S
C939 C43 1.446 . S
C955 C30 1.446 . S
C957 C122 1.431 . S
C973 C10 1.446 . S
C975 C135 1.431 . S
C991 C148 1.431 . S
C993 C23 1.446 . S
C1009 C161 1.431 . S
C1011 C296 1.446 . S
C1027 C172 1.431 . S
C1029 C303 1.446 . S
C1045 C283 1.446 . S
C1047 C185 1.431 . S
C1063 C198 1.430 . S
C1065 C270 1.446 . S
C1081 C211 1.431 . S
C1083 C244 1.446 . S
C1099 C226 1.431 . S
C1101 C251 1.446 . S
C1117 C239 1.430 . S
C1119 C212 1.446 . S
C1135 C231 1.446 . S
C1137 C250 1.431 . S
C1153 C199 1.446 . S
C1155 C265 1.431 . S
C1171 C278 1.431 . S
C1173 C186 1.446 . S
C1189 C166 1.446 . S
C1191 C291 1.431 . S
C1207 C173 1.446 . S
C1209 C302 1.431 . S
C1225 C446 1.446 . S
C1227 C317 1.430 . S
C1243 C330 1.431 . S
C1245 C459 1.446 . S
C1261 C343 1.431 . S
C1263 C433 1.447 . S
C1279 C426 1.446 . S
C1281 C354 1.431 . S
C1297 C394 1.446 . S
C1299 C367 1.431 . S
C1315 C413 1.446 . S
C1317 C380 1.431 . S
C1333 C393 1.430 . S
C1335 C368 1.446 . S
C1351 C381 1.446 . S
C1353 C408 1.431 . S
C1369 C421 1.431 . S
C1371 C355 1.446 . S
C1387 C348 1.446 . S
C1389 C432 1.431 . S
C1405 C322 1.446 . S
C1407 C445 1.431 . S
C1423 C335 1.446 . S
C1425 C458 1.431 . S
C1441 C213 1.461 . S
C1443 C3 1.461 . S
C1459 C16 1.468 . S
C1461 C224 1.461 . S
C1477 C200 1.461 . S
C1479 C31 1.461 . S
C1495 C341 1.461 . S
C1497 C44 1.461 . S
C1513 C57 1.461 . S
C1515 C315 1.461 . S
C1531 C70 1.461 . S
C1533 C328 1.461 . S
C1549 C81 1.461 . S
C1551 C447 1.461 . S
C1567 C460 1.461 . S
C1569 C94 1.468 . S
C1585 C434 1.461 . S
C1587 C109 1.461 . S
C1603 C263 1.461 . S
C1605 C120 1.461 . S
C1621 C133 1.461 . S
C1623 C237 1.461 . S
C1639 C146 1.461 . S
C1641 C252 1.461 . S
C1657 C159 1.461 . S
C1659 C369 1.461 . S
C1675 C382 1.461 . S
C1677 C174 1.461 . S
C1693 C356 1.461 . S
C1695 C187 1.461 . S
C1711 C276 1.461 . S
C1713 C419 1.461 . S
C1729 C395 1.461 . S
C1731 C289 1.461 . S
C1747 C406 1.461 . S
C1749 C304 1.461 . S
