# Generated by pormake.
# Topology wme, (6)-cn, num edge types: 1
# Building blocks:
#     Node 0, Type 0, BuildingBlock: BETDEL_clean_sbu_0, # of connection points: 6
#     Node 1, Type 0, BuildingBlock: BETDEL_clean_sbu_0, # of connection points: 6
#     Node 2, Type 0, BuildingBlock: BETDEL_clean_sbu_0, # of connection points: 6
#     Node 3, Type 0, BuildingBlock: BETDEL_clean_sbu_0, # of connection points: 6
#     Node 4, Type 0, BuildingBlock: BETDEL_clean_sbu_0, # of connection points: 6
#     Node 5, Type 0, BuildingBlock: BETDEL_clean_sbu_0, # of connection points: 6
#     Node 6, Type 0, BuildingBlock: BETDEL_clean_sbu_0, # of connection points: 6
#     Node 7, Type 0, BuildingBlock: BETDEL_clean_sbu_0, # of connection points: 6
#     Node 8, Type 0, BuildingBlock: BETDEL_clean_sbu_0, # of connection points: 6
#     Node 9, Type 0, BuildingBlock: BETDEL_clean_sbu_0, # of connection points: 6
#     Node 10, Type 0, BuildingBlock: BETDEL_clean_sbu_0, # of connection points: 6
#     Node 11, Type 0, BuildingBlock: BETDEL_clean_sbu_0, # of connection points: 6
#     Edge 12, Type (0, 0), BuildingBlock: XIVTED_clean_linker_0, # of connection points: 2
#     Edge 13, Type (0, 0), BuildingBlock: XIVTED_clean_linker_0, # of connection points: 2
#     Edge 14, Type (0, 0), BuildingBlock: XIVTED_clean_linker_0, # of connection points: 2
#     Edge 15, Type (0, 0), BuildingBlock: XIVTED_clean_linker_0, # of connection points: 2
#     Edge 16, Type (0, 0), BuildingBlock: XIVTED_clean_linker_0, # of connection points: 2
#     Edge 17, Type (0, 0), BuildingBlock: XIVTED_clean_linker_0, # of connection points: 2
#     Edge 18, Type (0, 0), BuildingBlock: XIVTED_clean_linker_0, # of connection points: 2
#     Edge 19, Type (0, 0), BuildingBlock: XIVTED_clean_linker_0, # of connection points: 2
#     Edge 20, Type (0, 0), BuildingBlock: XIVTED_clean_linker_0, # of connection points: 2
#     Edge 21, Type (0, 0), BuildingBlock: XIVTED_clean_linker_0, # of connection points: 2
#     Edge 22, Type (0, 0), BuildingBlock: XIVTED_clean_linker_0, # of connection points: 2
#     Edge 23, Type (0, 0), BuildingBlock: XIVTED_clean_linker_0, # of connection points: 2
#     Edge 24, Type (0, 0), BuildingBlock: XIVTED_clean_linker_0, # of connection points: 2
#     Edge 25, Type (0, 0), BuildingBlock: XIVTED_clean_linker_0, # of connection points: 2
#     Edge 26, Type (0, 0), BuildingBlock: XIVTED_clean_linker_0, # of connection points: 2
#     Edge 27, Type (0, 0), BuildingBlock: XIVTED_clean_linker_0, # of connection points: 2
#     Edge 28, Type (0, 0), BuildingBlock: XIVTED_clean_linker_0, # of connection points: 2
#     Edge 29, Type (0, 0), BuildingBlock: XIVTED_clean_linker_0, # of connection points: 2
#     Edge 30, Type (0, 0), BuildingBlock: XIVTED_clean_linker_0, # of connection points: 2
#     Edge 31, Type (0, 0), BuildingBlock: XIVTED_clean_linker_0, # of connection points: 2
#     Edge 32, Type (0, 0), BuildingBlock: XIVTED_clean_linker_0, # of connection points: 2
#     Edge 33, Type (0, 0), BuildingBlock: XIVTED_clean_linker_0, # of connection points: 2
#     Edge 34, Type (0, 0), BuildingBlock: XIVTED_clean_linker_0, # of connection points: 2
#     Edge 35, Type (0, 0), BuildingBlock: XIVTED_clean_linker_0, # of connection points: 2
#     Edge 36, Type (0, 0), BuildingBlock: XIVTED_clean_linker_0, # of connection points: 2
#     Edge 37, Type (0, 0), BuildingBlock: XIVTED_clean_linker_0, # of connection points: 2
#     Edge 38, Type (0, 0), BuildingBlock: XIVTED_clean_linker_0, # of connection points: 2
#     Edge 39, Type (0, 0), BuildingBlock: XIVTED_clean_linker_0, # of connection points: 2
#     Edge 40, Type (0, 0), BuildingBlock: XIVTED_clean_linker_0, # of connection points: 2
#     Edge 41, Type (0, 0), BuildingBlock: XIVTED_clean_linker_0, # of connection points: 2
#     Edge 42, Type (0, 0), BuildingBlock: XIVTED_clean_linker_0, # of connection points: 2
#     Edge 43, Type (0, 0), BuildingBlock: XIVTED_clean_linker_0, # of connection points: 2
#     Edge 44, Type (0, 0), BuildingBlock: XIVTED_clean_linker_0, # of connection points: 2
#     Edge 45, Type (0, 0), BuildingBlock: XIVTED_clean_linker_0, # of connection points: 2
#     Edge 46, Type (0, 0), BuildingBlock: XIVTED_clean_linker_0, # of connection points: 2
#     Edge 47, Type (0, 0), BuildingBlock: XIVTED_clean_linker_0, # of connection points: 2
# Relax obj value: 0.088
# Max RMSD: 0.169
# Mean RMSD: 0.169
data_MOF--net-wme--node1-BETDEL_clean_sbu_0--edge1-XIVTED_clean_linker_0
_symmetry_space_group_name_H-M    P1
_symmetry_Int_Tables_number       1
_symmetry_cell_setting            triclinic
loop_
_symmetry_equiv_pos_as_xyz
'x, y, z'
_cell_length_a     33.016902
_cell_length_b     32.970289
_cell_length_c     53.138361
_cell_angle_alpha  89.790738
_cell_angle_beta   90.162135
_cell_angle_gamma 119.84502
loop_
_atom_site_label
_atom_site_type_symbol
_atom_site_fract_x
_atom_site_fract_y
_atom_site_fract_z
_atom_type_partial_charge
Dy0 Dy 0.19866 0.37987 0.12945 0.0
C1 C 0.23775 0.23137 0.14867 0.0
C2 C 0.17425 0.44828 0.12872 0.0
Dy3 Dy 0.2308 0.31017 0.14313 0.0
O4 O 0.17484 0.42494 0.10922 0.0
O5 O 0.18809 0.43503 0.14838 0.0
O6 O 0.18352 0.34959 0.0897 0.0
O7 O 0.2379 0.35174 0.11051 0.0
C8 C 0.21557 0.33766 0.09036 0.0
C9 C 0.22427 0.3563 0.18237 0.0
O10 O 0.30162 0.37458 0.13862 0.0
O11 O 0.27392 0.42755 0.13866 0.0
O12 O 0.22096 0.24783 0.16518 0.0
O13 O 0.25252 0.259 0.12919 0.0
O14 O 0.25537 0.34336 0.1802 0.0
O15 O 0.19562 0.34113 0.16403 0.0
O16 O 0.13013 0.31892 0.1385 0.0
O17 O 0.15462 0.26539 0.13186 0.0
C18 C 0.30837 0.4179 0.13988 0.0
C19 C 0.12083 0.27566 0.13491 0.0
Dy20 Dy 0.82197 0.18889 0.62909 0.0
C21 C 0.01073 0.2292 0.63441 0.0
C22 C 0.72932 0.16408 0.62951 0.0
Dy23 Dy 0.92521 0.22215 0.64022 0.0
O24 O 0.75883 0.18785 0.61178 0.0
O25 O 0.75069 0.15473 0.64718 0.0
O26 O 0.83534 0.17541 0.58862 0.0
O27 O 0.88784 0.22955 0.60926 0.0
C28 C 0.87902 0.20796 0.58889 0.0
C29 C 0.87582 0.21147 0.68151 0.0
O30 O 0.92787 0.29125 0.63396 0.0
O31 O 0.84908 0.26189 0.64282 0.0
O32 O 0.99958 0.24778 0.65279 0.0
O33 O 0.97584 0.20862 0.61896 0.0
O34 O 0.92028 0.24106 0.67942 0.0
O35 O 0.86081 0.1851 0.66226 0.0
O36 O 0.81445 0.11869 0.63106 0.0
O37 O 0.89321 0.1435 0.63652 0.0
C38 C 0.89212 0.29738 0.63999 0.0
C39 C 0.84916 0.11001 0.63325 0.0
Dy40 Dy 0.63506 0.83726 0.13657 0.0
C41 C 0.78489 0.02437 0.13712 0.0
C42 C 0.56708 0.74507 0.13805 0.0
Dy43 Dy 0.70626 0.94007 0.14508 0.0
O44 O 0.59318 0.76628 0.11877 0.0
O45 O 0.57725 0.77453 0.15641 0.0
O46 O 0.65732 0.84784 0.09537 0.0
O47 O 0.65815 0.90209 0.11547 0.0
C48 C 0.66854 0.89154 0.09486 0.0
C49 C 0.67227 0.89222 0.18769 0.0
O50 O 0.64085 0.94512 0.14036 0.0
O51 O 0.58955 0.86618 0.14831 0.0
O52 O 0.75713 0.01461 0.15633 0.0
O53 O 0.7686 0.98882 0.12209 0.0
O54 O 0.68721 0.93672 0.18538 0.0
O55 O 0.68153 0.87665 0.16802 0.0
O56 O 0.69648 0.82881 0.14329 0.0
O57 O 0.75044 0.90663 0.13655 0.0
C58 C 0.5986 0.90999 0.14623 0.0
C59 C 0.73955 0.86223 0.1388 0.0
Dy60 Dy 0.80041 0.62614 0.63116 0.0
C61 C 0.75795 0.77255 0.64443 0.0
C62 C 0.82482 0.55808 0.63258 0.0
Dy63 Dy 0.76695 0.69471 0.64342 0.0
O64 O 0.82542 0.58105 0.61254 0.0
O65 O 0.80981 0.57148 0.65157 0.0
O66 O 0.81429 0.6551 0.59108 0.0
O67 O 0.75903 0.65119 0.61174 0.0
C68 C 0.7809 0.66513 0.59148 0.0
C69 C 0.77833 0.65331 0.68375 0.0
O70 O 0.69651 0.63014 0.64021 0.0
O71 O 0.72545 0.57831 0.64126 0.0
O72 O 0.77153 0.7568 0.66309 0.0
O73 O 0.74707 0.74443 0.62534 0.0
O74 O 0.74607 0.6648 0.68165 0.0
O75 O 0.80532 0.66743 0.66473 0.0
O76 O 0.8694 0.68803 0.63726 0.0
O77 O 0.84276 0.74039 0.63201 0.0
C78 C 0.69052 0.58729 0.64236 0.0
C79 C 0.87725 0.73075 0.63338 0.0
Dy80 Dy 0.18123 0.81471 0.13273 0.0
C81 C 0.99127 0.78015 0.12638 0.0
C82 C 0.27455 0.8477 0.13845 0.0
Dy83 Dy 0.07455 0.78652 0.13836 0.0
O84 O 0.25543 0.85505 0.11883 0.0
O85 O 0.24263 0.82178 0.1547 0.0
O86 O 0.16329 0.78227 0.09365 0.0
O87 O 0.12663 0.81271 0.10893 0.0
C88 C 0.12871 0.79022 0.09044 0.0
C89 C 0.11138 0.79221 0.18419 0.0
O90 O 0.07222 0.71811 0.12887 0.0
O91 O 0.14789 0.73937 0.14204 0.0
O92 O 0.99568 0.7499 0.14023 0.0
O93 O 0.03191 0.81246 0.11883 0.0
O94 O 0.06796 0.78041 0.18041 0.0
O95 O 0.13172 0.79966 0.16316 0.0
O96 O 0.18847 0.88466 0.13946 0.0
O97 O 0.11008 0.86469 0.14269 0.0
C98 C 0.10494 0.70754 0.13551 0.0
C99 C 0.15542 0.89586 0.14237 0.0
Dy100 Dy 0.36748 0.17077 0.63575 0.0
C101 C 0.21145 0.97986 0.64327 0.0
C102 C 0.42729 0.2643 0.63963 0.0
Dy103 Dy 0.29214 0.06305 0.64485 0.0
O104 O 0.39669 0.24459 0.62173 0.0
O105 O 0.42558 0.23286 0.65513 0.0
O106 O 0.37476 0.1521 0.59559 0.0
O107 O 0.31157 0.11357 0.61467 0.0
C108 C 0.33304 0.11563 0.59478 0.0
C109 C 0.33294 0.10444 0.68865 0.0
O110 O 0.35686 0.05943 0.63434 0.0
O111 O 0.4125 0.1388 0.64029 0.0
O112 O 0.22148 0.01329 0.65914 0.0
O113 O 0.24685 0.9908 0.62834 0.0
O114 O 0.3031 0.06016 0.68657 0.0
O115 O 0.33979 0.12247 0.66702 0.0
O116 O 0.30578 0.17667 0.64706 0.0
O117 O 0.24954 0.09914 0.64005 0.0
C118 C 0.40088 0.09462 0.63624 0.0
C119 C 0.26178 0.14345 0.64449 0.0
Dy120 Dy 0.63326 0.81217 0.41435 0.0
C121 C 0.77717 0.76196 0.41898 0.0
C122 C 0.56693 0.83808 0.40967 0.0
Dy123 Dy 0.7022 0.77111 0.40638 0.0
O124 O 0.58703 0.83766 0.43065 0.0
O125 O 0.58234 0.82341 0.39138 0.0
O126 O 0.66562 0.83576 0.4532 0.0
O127 O 0.66203 0.77695 0.43658 0.0
C128 C 0.67825 0.80422 0.45491 0.0
C129 C 0.67522 0.78734 0.3617 0.0
O130 O 0.6341 0.70397 0.41314 0.0
O131 O 0.58356 0.73527 0.41361 0.0
O132 O 0.74637 0.73688 0.4019 0.0
O133 O 0.76541 0.78991 0.42964 0.0
O134 O 0.70171 0.76866 0.36416 0.0
O135 O 0.66486 0.79513 0.38334 0.0
O136 O 0.6958 0.87643 0.40209 0.0
O137 O 0.7491 0.85011 0.40718 0.0
C138 C 0.59157 0.69952 0.41407 0.0
C139 C 0.73887 0.88399 0.40352 0.0
Dy140 Dy 0.83261 0.62944 0.91039 0.0
C141 C 0.02864 0.77336 0.91026 0.0
C142 C 0.74027 0.56232 0.91028 0.0
Dy143 Dy 0.94099 0.70143 0.90091 0.0
O144 O 0.77113 0.56489 0.92645 0.0
O145 O 0.76007 0.59595 0.89391 0.0
O146 O 0.84691 0.65615 0.95099 0.0
O147 O 0.89862 0.65355 0.93005 0.0
C148 C 0.89016 0.66554 0.95076 0.0
C149 C 0.89443 0.67873 0.85704 0.0
O150 O 0.94021 0.63248 0.90155 0.0
O151 O 0.85952 0.58442 0.89501 0.0
O152 O 0.0164 0.74684 0.89039 0.0
O153 O 0.99348 0.75875 0.92562 0.0
O154 O 0.93933 0.70623 0.85884 0.0
O155 O 0.87809 0.6665 0.87897 0.0
O156 O 0.82915 0.69353 0.90357 0.0
O157 O 0.90842 0.74684 0.90861 0.0
C158 C 0.90279 0.59135 0.89593 0.0
C159 C 0.86417 0.73661 0.90612 0.0
Dy160 Dy 0.19292 0.82544 0.41193 0.0
C161 C 0.23267 0.01316 0.41078 0.0
C162 C 0.16983 0.73362 0.4087 0.0
Dy163 Dy 0.22432 0.92744 0.40339 0.0
O164 O 0.16039 0.75218 0.42767 0.0
O165 O 0.19297 0.76546 0.39187 0.0
O166 O 0.18239 0.8366 0.45346 0.0
O167 O 0.23558 0.88971 0.43288 0.0
C168 C 0.21563 0.87993 0.45374 0.0
C169 C 0.21173 0.88057 0.36064 0.0
O170 O 0.29471 0.93227 0.40762 0.0
O171 O 0.26706 0.85332 0.40004 0.0
O172 O 0.24655 0.00098 0.39077 0.0
O173 O 0.21607 0.97919 0.42699 0.0
O174 O 0.24188 0.9247 0.36342 0.0
O175 O 0.18599 0.86465 0.38003 0.0
O176 O 0.12353 0.81725 0.40441 0.0
O177 O 0.14647 0.89467 0.41158 0.0
C178 C 0.3018 0.89699 0.40188 0.0
C179 C 0.11328 0.85035 0.40879 0.0
Dy180 Dy 0.37309 0.19121 0.91575 0.0
C181 C 0.22518 0.23041 0.90634 0.0
C182 C 0.44119 0.16733 0.91269 0.0
Dy183 Dy 0.30434 0.22449 0.90177 0.0
O184 O 0.41879 0.16552 0.93314 0.0
O185 O 0.42722 0.18329 0.89426 0.0
O186 O 0.34637 0.17964 0.95619 0.0
O187 O 0.34618 0.23172 0.93411 0.0
C188 C 0.33315 0.21076 0.95475 0.0
C189 C 0.34613 0.21274 0.86205 0.0
O190 O 0.36914 0.2948 0.9086 0.0
O191 O 0.42204 0.26725 0.90901 0.0
O192 O 0.25445 0.24784 0.88766 0.0
O193 O 0.24022 0.21156 0.92259 0.0
O194 O 0.33172 0.24299 0.86296 0.0
O195 O 0.33288 0.18666 0.88151 0.0
O196 O 0.31139 0.12103 0.91189 0.0
O197 O 0.25736 0.14573 0.90586 0.0
C198 C 0.41265 0.30193 0.90834 0.0
C199 C 0.2681 0.1123 0.90954 0.0
Dy200 Dy 0.17294 0.36923 0.41028 0.0
C201 C 0.98816 0.21944 0.39162 0.0
C202 C 0.26482 0.43743 0.41294 0.0
Dy203 Dy 0.0722 0.2993 0.39661 0.0
O204 O 0.23327 0.43027 0.42965 0.0
O205 O 0.24596 0.40801 0.39459 0.0
O206 O 0.15858 0.33724 0.44976 0.0
O207 O 0.10597 0.33965 0.42946 0.0
C208 C 0.11458 0.32502 0.44936 0.0
C209 C 0.12332 0.3466 0.35714 0.0
O210 O 0.06543 0.36356 0.40186 0.0
O211 O 0.14538 0.41572 0.39802 0.0
O212 O 0.02315 0.2334 0.37638 0.0
O213 O 0.99822 0.25026 0.40928 0.0
O214 O 0.07898 0.33191 0.3594 0.0
O215 O 0.13785 0.33195 0.37533 0.0
O216 O 0.18184 0.3082 0.404 0.0
O217 O 0.10354 0.25466 0.40883 0.0
C218 C 0.1015 0.40659 0.39875 0.0
C219 C 0.14773 0.26498 0.40702 0.0
Dy220 Dy 0.81049 0.17128 0.90816 0.0
C221 C 0.77153 0.983 0.91004 0.0
C222 C 0.83432 0.2632 0.90374 0.0
Dy223 Dy 0.7771 0.06733 0.9016 0.0
O224 O 0.84667 0.24564 0.92212 0.0
O225 O 0.80801 0.23034 0.88808 0.0
O226 O 0.82334 0.16341 0.94986 0.0
O227 O 0.77009 0.10829 0.93051 0.0
C228 C 0.79138 0.11962 0.95096 0.0
C229 C 0.78614 0.11153 0.85824 0.0
O230 O 0.70775 0.06417 0.90784 0.0
O231 O 0.73528 0.14265 0.89824 0.0
O232 O 0.75216 0.99222 0.89117 0.0
O233 O 0.7919 0.0191 0.92466 0.0
O234 O 0.75685 0.06737 0.86184 0.0
O235 O 0.81328 0.1287 0.87702 0.0
O236 O 0.87875 0.17757 0.89905 0.0
O237 O 0.85541 0.1003 0.90759 0.0
C238 C 0.70052 0.09933 0.90167 0.0
C239 C 0.88866 0.14415 0.90353 0.0
H240 H 0.23623 0.97015 0.12511 0.0
H241 H 0.18874 0.16434 0.18353 0.0
H242 H 0.10873 0.93602 0.16425 0.0
H243 H 0.27179 0.19033 0.11656 0.0
H244 H 0.17034 0.08275 0.18302 0.0
H245 H 0.26006 0.05318 0.1278 0.0
C246 C 0.21337 0.98012 0.13443 0.0
C247 C 0.17036 0.9461 0.14448 0.0
C248 C 0.19284 0.1064 0.16855 0.0
C249 C 0.1978 0.04098 0.14781 0.0
C250 C 0.20367 0.15301 0.16891 0.0
C251 C 0.23179 0.18402 0.15002 0.0
C252 C 0.21084 0.09084 0.14939 0.0
C253 C 0.25 0.16746 0.13147 0.0
C254 C 0.22696 0.02746 0.13583 0.0
C255 C 0.14204 0.96105 0.15616 0.0
N256 N 0.23925 0.12186 0.13162 0.0
N257 N 0.1564 0.00746 0.15765 0.0
H258 H 0.26738 0.22334 0.66342 0.0
H259 H 0.0272 0.17567 0.60195 0.0
H260 H 0.17392 0.09591 0.62422 0.0
H261 H 0.08704 0.26695 0.66585 0.0
H262 H 0.08917 0.15577 0.60452 0.0
H263 H 0.2087 0.24802 0.66004 0.0
C264 C 0.23448 0.20046 0.65419 0.0
C265 C 0.2255 0.15739 0.64414 0.0
C266 C 0.08894 0.18038 0.61789 0.0
C267 C 0.15879 0.18591 0.63983 0.0
C268 C 0.05383 0.19208 0.61632 0.0
C269 C 0.05196 0.22288 0.6338 0.0
C270 C 0.12284 0.20004 0.63688 0.0
C271 C 0.08728 0.243 0.65204 0.0
C272 C 0.20108 0.2146 0.6523 0.0
C273 C 0.18226 0.12921 0.6324 0.0
N274 N 0.12137 0.2312 0.65315 0.0
N275 N 0.1507 0.14414 0.63039 0.0
H276 H 0.82563 0.10345 0.16615 0.0
H277 H 0.08237 0.18684 0.11547 0.0
H278 H 0.85243 0.03648 0.10392 0.0
H279 H 0.04638 0.27974 0.15386 0.0
H280 H 0.99927 0.12701 0.11473 0.0
H281 H 0.90783 0.16562 0.16512 0.0
C282 C 0.8487 0.10219 0.15211 0.0
C283 C 0.83235 0.065 0.13506 0.0
C284 C 0.00972 0.1606 0.12324 0.0
C285 C 0.9262 0.13494 0.13416 0.0
C286 C 0.05708 0.19458 0.12379 0.0
C287 C 0.07128 0.23835 0.13464 0.0
C288 C 0.97658 0.17027 0.13401 0.0
C289 C 0.03699 0.24658 0.14512 0.0
C290 C 0.89553 0.13749 0.15156 0.0
C291 C 0.86367 0.06472 0.11734 0.0
N292 N 0.99131 0.21282 0.14467 0.0
N293 N 0.90923 0.09888 0.11751 0.0
H294 H 0.72971 0.81196 0.60781 0.0
H295 H 0.89726 0.07155 0.65549 0.0
H296 H 0.80548 0.84244 0.67791 0.0
H297 H 0.77376 0.03596 0.61167 0.0
H298 H 0.87268 0.98814 0.65839 0.0
H299 H 0.75239 0.89503 0.60414 0.0
C300 C 0.75054 0.83602 0.62255 0.0
C301 C 0.76551 0.82046 0.64326 0.0
C302 C 0.85112 0.99876 0.6481 0.0
C303 C 0.7927 0.91502 0.63879 0.0
C304 C 0.86529 0.04626 0.64627 0.0
C305 C 0.83735 0.06056 0.63345 0.0
C306 C 0.80926 0.96558 0.63661 0.0
C307 C 0.7961 0.02632 0.62193 0.0
C308 C 0.76362 0.88326 0.6204 0.0
C309 C 0.79291 0.853 0.66173 0.0
N310 N 0.78334 0.98038 0.62369 0.0
N311 N 0.80609 0.89886 0.65892 0.0
H312 H 0.90575 0.72614 0.1486 0.0
H313 H 0.82801 0.91523 0.12002 0.0
H314 H 0.98202 0.84518 0.09974 0.0
H315 H 0.7339 0.77904 0.1512 0.0
H316 H 0.88638 0.89108 0.11417 0.0
H317 H 0.8421 0.74424 0.15041 0.0
C318 C 0.90864 0.75548 0.13789 0.0
C319 C 0.94913 0.7844 0.12414 0.0
C320 C 0.85288 0.86645 0.12222 0.0
C321 C 0.87749 0.80591 0.12654 0.0
C322 C 0.81971 0.88036 0.12574 0.0
C323 C 0.77608 0.84916 0.13613 0.0
C324 C 0.84251 0.82119 0.12939 0.0
C325 C 0.76708 0.80424 0.14306 0.0
C326 C 0.87255 0.76599 0.13903 0.0
C327 C 0.95142 0.82217 0.1107 0.0
N328 N 0.80009 0.79166 0.13967 0.0
N329 N 0.91637 0.83218 0.11248 0.0
H330 H 0.9126 0.82433 0.64135 0.0
H331 H 0.17857 0.90262 0.61219 0.0
H332 H 0.95309 0.72305 0.62052 0.0
H333 H 0.13516 0.96895 0.66741 0.0
H334 H 0.09594 0.84153 0.6068 0.0
H335 H 0.99511 0.88502 0.64152 0.0
C336 C 0.93878 0.81499 0.63654 0.0
C337 C 0.92616 0.76861 0.63125 0.0
C338 C 0.10492 0.86958 0.62009 0.0
C339 C 0.02015 0.83758 0.63125 0.0
C340 C 0.15181 0.90411 0.62322 0.0
C341 C 0.16356 0.94051 0.64039 0.0
C342 C 0.0701 0.87258 0.63378 0.0
C343 C 0.12771 0.94132 0.65409 0.0
C344 C 0.98576 0.84949 0.63675 0.0
C345 C 0.9615 0.75838 0.62508 0.0
N346 N 0.08265 0.90813 0.65035 0.0
N347 N 0.00704 0.79263 0.62527 0.0
H348 H 0.03901 0.77023 0.39127 0.0
H349 H 0.84688 0.82164 0.44996 0.0
H350 H 0.07356 0.89826 0.43011 0.0
H351 H 0.81528 0.71761 0.39269 0.0
H352 H 0.92902 0.84271 0.44819 0.0
H353 H 0.95632 0.74468 0.39597 0.0
C354 C 0.02923 0.79309 0.40077 0.0
C355 C 0.06333 0.83655 0.41032 0.0
C356 C 0.90408 0.81501 0.43617 0.0
C357 C 0.96841 0.80703 0.416 0.0
C358 C 0.85713 0.80263 0.43732 0.0
C359 C 0.82433 0.76793 0.42135 0.0
C360 C 0.91831 0.79228 0.41906 0.0
C361 C 0.83948 0.74451 0.40533 0.0
C362 C 0.98194 0.77839 0.40342 0.0
C363 C 0.04847 0.86466 0.42234 0.0
N364 N 0.88551 0.75728 0.4045 0.0
N365 N 0.00203 0.84928 0.42497 0.0
H366 H 0.07028 0.82638 0.95193 0.0
H367 H 0.19178 0.06595 0.87883 0.0
H368 H 0.07729 0.82889 0.87087 0.0
H369 H 0.26131 0.04666 0.9427 0.0
H370 H 0.13544 0.98127 0.87916 0.0
H371 H 0.12926 0.91015 0.95247 0.0
C372 C 0.08487 0.84441 0.93433 0.0
C373 C 0.06952 0.82078 0.91135 0.0
C374 C 0.16297 0.99587 0.89314 0.0
C375 C 0.1346 0.91624 0.9118 0.0
C376 C 0.19466 0.04397 0.8931 0.0
C377 C 0.23102 0.06294 0.91074 0.0
C378 C 0.1671 0.96719 0.91141 0.0
C379 C 0.23373 0.0331 0.92874 0.0
C380 C 0.11811 0.89203 0.93464 0.0
C381 C 0.08879 0.84576 0.88899 0.0
N382 N 0.20193 0.98667 0.92877 0.0
N383 N 0.1198 0.89241 0.88974 0.0
H384 H 0.09728 0.17695 0.42767 0.0
H385 H 0.26991 0.09046 0.38044 0.0
H386 H 0.22678 0.26843 0.38962 0.0
H387 H 0.17922 0.02789 0.44433 0.0
H388 H 0.25 0.15291 0.38032 0.0
H389 H 0.12101 0.11722 0.43034 0.0
C390 C 0.13054 0.18439 0.41983 0.0
C391 C 0.16015 0.22771 0.40848 0.0
C392 C 0.23486 0.12574 0.39452 0.0
C393 C 0.18723 0.1598 0.4113 0.0
C394 C 0.24633 0.09028 0.39463 0.0
C395 C 0.22631 0.05423 0.41247 0.0
C396 C 0.20241 0.12445 0.41203 0.0
C397 C 0.19562 0.0553 0.43034 0.0
C398 C 0.14418 0.1505 0.4215 0.0
C399 C 0.20298 0.23562 0.39869 0.0
N400 N 0.18413 0.08955 0.42949 0.0
N401 N 0.21508 0.20192 0.40017 0.0
H402 H 0.18514 0.26538 0.87384 0.0
H403 H 0.92782 0.09575 0.92468 0.0
H404 H 0.15672 0.17873 0.93982 0.0
H405 H 0.9624 0.22087 0.88236 0.0
H406 H 0.01095 0.11956 0.92602 0.0
H407 H 0.10261 0.24491 0.87293 0.0
C408 C 0.16167 0.24255 0.88826 0.0
C409 C 0.17762 0.22375 0.90693 0.0
C410 C 1.00023 0.14175 0.91646 0.0
C411 C 0.08358 0.19934 0.90565 0.0
C412 C 0.95283 0.12803 0.91554 0.0
C413 C 0.93824 0.15645 0.90348 0.0
C414 C 0.03309 0.18376 0.90488 0.0
C415 C 0.97218 0.19806 0.89202 0.0
C416 C 0.11468 0.23077 0.8877 0.0
C417 C 0.14582 0.19407 0.92512 0.0
N418 N 0.01802 0.21038 0.8929 0.0
N419 N 0.10022 0.18237 0.92387 0.0
H420 H 0.91009 0.18328 0.42128 0.0
H421 H 0.82947 0.91862 0.3876 0.0
H422 H 0.97693 0.14636 0.3632 0.0
H423 H 0.73381 0.9611 0.41585 0.0
H424 H 0.88967 0.00155 0.38382 0.0
H425 H 0.84904 0.10072 0.42434 0.0
C426 C 0.91153 0.15787 0.40899 0.0
C427 C 0.94823 0.17148 0.39186 0.0
C428 C 0.85539 0.99247 0.39081 0.0
C429 C 0.87983 0.07746 0.39573 0.0
C430 C 0.82126 0.94532 0.39309 0.0
C431 C 0.77661 0.93311 0.40183 0.0
C432 C 0.84486 0.02727 0.39785 0.0
C433 C 0.76766 0.96901 0.40872 0.0
C434 C 0.87694 0.1109 0.4108 0.0
C435 C 0.94894 0.13725 0.37653 0.0
N436 N 0.80153 0.01444 0.40671 0.0
N437 N 0.91548 0.09168 0.379 0.0
H438 H 0.91345 0.82455 0.92691 0.0
H439 H 0.7334 0.90459 0.88066 0.0
H440 H 0.78698 0.73389 0.88614 0.0
H441 H 0.82975 0.97171 0.94193 0.0
H442 H 0.75638 0.84442 0.87967 0.0
H443 H 0.88855 0.88341 0.92916 0.0
C444 C 0.88072 0.8172 0.9183 0.0
C445 C 0.85217 0.77423 0.90644 0.0
C446 C 0.77215 0.87209 0.89349 0.0
C447 C 0.82357 0.84102 0.90892 0.0
C448 C 0.75886 0.90622 0.89412 0.0
C449 C 0.77959 0.94293 0.91145 0.0
C450 C 0.80694 0.87525 0.91003 0.0
C451 C 0.81276 0.94377 0.92835 0.0
C452 C 0.86636 0.85055 0.91975 0.0
C453 C 0.80993 0.76638 0.89568 0.0
N454 N 0.82578 0.91069 0.92706 0.0
N455 N 0.79701 0.79944 0.89711 0.0
H456 H 0.1055 0.65673 0.17517 0.0
H457 H 0.14559 0.48117 0.08888 0.0
H458 H 0.08959 0.65154 0.09462 0.0
H459 H 0.16354 0.49202 0.16943 0.0
H460 H 0.11701 0.53718 0.09042 0.0
H461 H 0.11563 0.58827 0.17356 0.0
C462 C 0.1025 0.63997 0.15721 0.0
C463 C 0.09583 0.65908 0.13506 0.0
C464 C 0.12699 0.52713 0.10776 0.0
C465 C 0.10984 0.58208 0.13279 0.0
C466 C 0.14349 0.49534 0.10687 0.0
C467 C 0.15733 0.4823 0.12904 0.0
C468 C 0.12418 0.54583 0.13101 0.0
C469 C 0.15363 0.50142 0.15186 0.0
C470 C 0.10894 0.60128 0.15621 0.0
C471 C 0.0936 0.63706 0.11216 0.0
N472 N 0.13756 0.53222 0.15223 0.0
N473 N 0.10125 0.60003 0.11155 0.0
H474 H 0.67941 0.177 0.59237 0.0
H475 H 0.43917 0.05978 0.66957 0.0
H476 H 0.66392 0.11398 0.66553 0.0
H477 H 0.45544 0.11765 0.5951 0.0
H478 H 0.51852 0.07105 0.66693 0.0
H479 H 0.59562 0.14975 0.59184 0.0
C480 C 0.65831 0.15742 0.60834 0.0
C481 C 0.67867 0.14802 0.62909 0.0
C482 C 0.50435 0.08023 0.65091 0.0
C483 C 0.58246 0.11638 0.62863 0.0
C484 C 0.45885 0.07311 0.6523 0.0
C485 C 0.44061 0.08687 0.63229 0.0
C486 C 0.53186 0.10193 0.6295 0.0
C487 C 0.46807 0.10575 0.6107 0.0
C488 C 0.61039 0.14165 0.608 0.0
C489 C 0.64963 0.12222 0.64921 0.0
N490 N 0.51239 0.11311 0.60996 0.0
N491 N 0.60307 0.1075 0.64854 0.0
H492 H 0.54752 0.67925 0.10185 0.0
H493 H 0.33858 0.47573 0.17961 0.0
H494 H 0.51044 0.69588 0.17732 0.0
H495 H 0.38198 0.45353 0.10708 0.0
H496 H 0.40688 0.55409 0.18087 0.0
H497 H 0.49145 0.59532 0.1044 0.0
C498 C 0.52751 0.66517 0.11896 0.0
C499 C 0.5332 0.69451 0.13933 0.0
C500 C 0.40223 0.53193 0.16486 0.0
C501 C 0.46931 0.59858 0.14246 0.0
C502 C 0.36352 0.48707 0.16429 0.0
C503 C 0.35527 0.45826 0.14337 0.0
C504 C 0.43238 0.54855 0.14406 0.0
C505 C 0.38778 0.47463 0.12371 0.0
C506 C 0.49573 0.61724 0.12046 0.0
C507 C 0.5068 0.6745 0.16112 0.0
N508 N 0.42469 0.51909 0.12435 0.0
N509 N 0.47583 0.62784 0.16205 0.0
H510 H 0.86562 0.53269 0.59563 0.0
H511 H 0.86202 0.32905 0.67811 0.0
H512 H 0.82234 0.50669 0.67329 0.0
H513 H 0.93135 0.37013 0.60632 0.0
H514 H 0.85235 0.39771 0.67755 0.0
H515 H 0.89297 0.4759 0.59921 0.0
C516 C 0.86188 0.51498 0.61341 0.0
C517 C 0.84131 0.52395 0.63414 0.0
C518 C 0.87051 0.39245 0.66208 0.0
C519 C 0.87267 0.45941 0.63843 0.0
C520 C 0.87632 0.35343 0.66252 0.0
C521 C 0.89776 0.34433 0.64232 0.0
C522 C 0.88521 0.42208 0.64096 0.0
C523 C 0.91517 0.37646 0.62239 0.0
C524 C 0.87776 0.48287 0.6155 0.0
C525 C 0.83767 0.50051 0.6568 0.0
N526 N 0.90779 0.41363 0.62197 0.0
N527 N 0.85289 0.46915 0.65829 0.0
H528 H 0.57126 0.95903 0.1153 0.0
H529 H 0.31804 0.83668 0.17924 0.0
H530 H 0.53339 0.87469 0.18258 0.0
H531 H 0.34569 0.90054 0.10566 0.0
H532 H 0.40115 0.8638 0.18422 0.0
H533 H 0.49356 0.95246 0.11524 0.0
C534 C 0.54711 0.94045 0.13046 0.0
C535 C 0.55836 0.91725 0.14895 0.0
C536 C 0.38921 0.87218 0.16701 0.0
C537 C 0.46991 0.90892 0.14882 0.0
C538 C 0.34173 0.85659 0.16415 0.0
C539 C 0.32503 0.86591 0.14189 0.0
C540 C 0.42033 0.89717 0.14741 0.0
C541 C 0.35725 0.89228 0.12304 0.0
C542 C 0.5027 0.93623 0.13028 0.0
C543 C 0.52578 0.8929 0.16795 0.0
N544 N 0.40342 0.90672 0.12612 0.0
N545 N 0.48298 0.88907 0.16729 0.0
H546 H 0.6654 0.52429 0.67965 0.0
H547 H 0.43812 0.33447 0.60772 0.0
H548 H 0.61162 0.55764 0.61362 0.0
H549 H 0.48966 0.30895 0.67719 0.0
H550 H 0.49561 0.41804 0.6114 0.0
H551 H 0.59487 0.44798 0.68173 0.0
C552 C 0.638 0.51567 0.6659 0.0
C553 C 0.64395 0.5469 0.64647 0.0
C554 C 0.49399 0.3942 0.62595 0.0
C555 C 0.5638 0.45905 0.64807 0.0
C556 C 0.46135 0.34657 0.62381 0.0
C557 C 0.45967 0.31489 0.64204 0.0
C558 C 0.52505 0.40998 0.64644 0.0
C559 C 0.49018 0.3322 0.66259 0.0
C560 C 0.59784 0.47205 0.66697 0.0
C561 C 0.60785 0.53436 0.62899 0.0
N562 N 0.52179 0.37849 0.66414 0.0
N563 N 0.56943 0.49086 0.62993 0.0
H564 H 0.37619 0.94384 0.4338 0.0
H565 H 0.51957 0.83642 0.3673 0.0
H566 H 0.33318 0.86281 0.36556 0.0
H567 H 0.53756 0.87736 0.44534 0.0
H568 H 0.46191 0.86201 0.3629 0.0
H569 H 0.4472 0.93698 0.43444 0.0
C570 C 0.38254 0.92596 0.41856 0.0
C571 C 0.34916 0.90388 0.39957 0.0
C572 C 0.47861 0.8656 0.38097 0.0
C573 C 0.42917 0.89535 0.40032 0.0
C574 C 0.5114 0.85091 0.38349 0.0
C575 C 0.53281 0.85429 0.40679 0.0
C576 C 0.46733 0.88407 0.40186 0.0
C577 C 0.52138 0.87374 0.42712 0.0
C578 C 0.4226 0.92155 0.41908 0.0
C579 C 0.35826 0.88027 0.38051 0.0
N580 N 0.48923 0.88778 0.42422 0.0
N581 N 0.39725 0.87641 0.38142 0.0
H582 H 0.69382 0.4964 0.94629 0.0
H583 H 0.4475 0.37543 0.87487 0.0
H584 H 0.67206 0.55004 0.87652 0.0
H585 H 0.4718 0.333 0.94747 0.0
H586 H 0.52673 0.44419 0.87626 0.0
H587 H 0.61056 0.4395 0.94789 0.0
C588 C 0.67142 0.49612 0.93127 0.0
C589 C 0.68985 0.52769 0.91117 0.0
C590 C 0.5143 0.42036 0.89212 0.0
C591 C 0.59413 0.46257 0.91281 0.0
C592 C 0.46898 0.38156 0.89144 0.0
C593 C 0.45328 0.34906 0.91121 0.0
C594 C 0.54381 0.42607 0.91264 0.0
C595 C 0.48269 0.35761 0.93196 0.0
C596 C 0.62376 0.46375 0.93222 0.0
C597 C 0.65918 0.52605 0.8923 0.0
N598 N 0.52656 0.39496 0.93204 0.0
N599 N 0.61281 0.4938 0.89348 0.0
H600 H 0.18445 0.69118 0.36879 0.0
H601 H 0.05513 0.4351 0.43046 0.0
H602 H 0.11745 0.66187 0.44137 0.0
H603 H 0.13637 0.47192 0.36233 0.0
H604 H 0.06522 0.51432 0.43158 0.0
H605 H 0.15676 0.60795 0.36344 0.0
C606 C 0.16394 0.66713 0.38363 0.0
C607 C 0.15364 0.68337 0.40566 0.0
C608 C 0.07995 0.50468 0.41611 0.0
C609 C 0.12142 0.58782 0.39965 0.0
C610 C 0.07362 0.45937 0.4153 0.0
C611 C 0.09486 0.44729 0.39623 0.0
C612 C 0.1076 0.53762 0.39767 0.0
C613 C 0.11943 0.4801 0.37732 0.0
C614 C 0.14793 0.61955 0.38055 0.0
C615 C 0.1265 0.65068 0.4242 0.0
N616 N 0.12546 0.52383 0.37862 0.0
N617 N 0.11148 0.60439 0.42084 0.0
H618 H 0.63017 0.05839 0.93655 0.0
H619 H 0.48894 0.16974 0.87068 0.0
H620 H 0.66565 0.12963 0.86501 0.0
H621 H 0.46972 0.12658 0.94849 0.0
H622 H 0.5447 0.14213 0.86602 0.0
H623 H 0.56105 0.06839 0.93861 0.0
C624 C 0.62245 0.07467 0.92093 0.0
C625 C 0.65325 0.0931 0.90054 0.0
C626 C 0.52828 0.13854 0.88413 0.0
C627 C 0.57554 0.1055 0.90292 0.0
C628 C 0.49656 0.15447 0.88681 0.0
C629 C 0.47518 0.15091 0.91008 0.0
C630 C 0.53877 0.11878 0.90486 0.0
C631 C 0.4859 0.13036 0.9303 0.0
C632 C 0.5835 0.08096 0.92224 0.0
C633 C 0.64255 0.11489 0.88102 0.0
N634 N 0.51716 0.11519 0.92727 0.0
N635 N 0.60481 0.12074 0.88276 0.0
H636 H 0.30869 0.5 0.45072 0.0
H637 H 0.5614 0.62005 0.38558 0.0
H638 H 0.33489 0.45333 0.38007 0.0
H639 H 0.52595 0.6757 0.44974 0.0
H640 H 0.48247 0.55084 0.38685 0.0
H641 H 0.39171 0.55772 0.45385 0.0
C642 C 0.332 0.50197 0.43586 0.0
C643 C 0.31495 0.47227 0.415 0.0
C644 C 0.49234 0.57786 0.40091 0.0
C645 C 0.41014 0.53807 0.41845 0.0
C646 C 0.53743 0.61695 0.40034 0.0
C647 C 0.54985 0.6533 0.41759 0.0
C648 C 0.45999 0.57543 0.41894 0.0
C649 C 0.51748 0.64829 0.43608 0.0
C650 C 0.37944 0.53481 0.43766 0.0
C651 C 0.3467 0.47594 0.39637 0.0
N652 N 0.47403 0.61032 0.43617 0.0
N653 N 0.39281 0.50842 0.39846 0.0
H654 H 0.95522 0.5628 0.92298 0.0
H655 H 0.81195 0.30409 0.86567 0.0
H656 H 0.85716 0.52316 0.86163 0.0
H657 H 0.89309 0.3362 0.9339 0.0
H658 H 0.83821 0.38719 0.86025 0.0
H659 H 0.94458 0.48339 0.92299 0.0
C660 C 0.93263 0.53782 0.90903 0.0
C661 C 0.9069 0.54926 0.89233 0.0
C662 C 0.85046 0.37619 0.87639 0.0
C663 C 0.89384 0.4587 0.89251 0.0
C664 C 0.83531 0.32872 0.87952 0.0
C665 C 0.85 0.31332 0.90039 0.0
C666 C 0.88057 0.4086 0.89427 0.0
C667 C 0.88064 0.34671 0.91766 0.0
C668 C 0.92608 0.49241 0.90924 0.0
C669 C 0.87744 0.51552 0.87491 0.0
N670 N 0.89479 0.39282 0.91429 0.0
N671 N 0.87143 0.47174 0.87559 0.0
H672 H 0.09249 0.37593 0.31779 0.0
H673 H 0.28313 0.38666 0.22215 0.0
H674 H 0.206 0.35429 0.34031 0.0
H675 H 0.14581 0.35756 0.19917 0.0
H676 H 0.26481 0.39588 0.26545 0.0
H677 H 0.12181 0.39015 0.27473 0.0
C678 C 0.12404 0.37478 0.31372 0.0
C679 C 0.14645 0.36307 0.33253 0.0
C680 C 0.23889 0.38804 0.25092 0.0
C681 C 0.18017 0.37954 0.28324 0.0
C682 C 0.24926 0.38289 0.22617 0.0
C683 C 0.21554 0.37049 0.20714 0.0
C684 C 0.19457 0.38117 0.2567 0.0
C685 C 0.1726 0.36675 0.21333 0.0
C686 C 0.14061 0.38281 0.28911 0.0
C687 C 0.18751 0.36281 0.3263 0.0
N688 N 0.16312 0.3716 0.23772 0.0
N689 N 0.20287 0.37045 0.30205 0.0
H690 H 0.79503 0.13294 0.69704 0.0
H691 H 0.8572 0.19707 0.84216 0.0
H692 H 0.90634 0.26602 0.72287 0.0
H693 H 0.73307 0.07356 0.81667 0.0
H694 H 0.87277 0.22576 0.79857 0.0
H695 H 0.76768 0.11286 0.74069 0.0
C696 C 0.81317 0.15815 0.71182 0.0
C697 C 0.85332 0.20083 0.70647 0.0
C698 C 0.84186 0.19257 0.80257 0.0
C699 C 0.82293 0.17813 0.75627 0.0
C700 C 0.83306 0.17629 0.82744 0.0
C701 C 0.79424 0.13266 0.83291 0.0
C702 C 0.81174 0.16481 0.78315 0.0
C703 C 0.76381 0.10716 0.81319 0.0
C704 C 0.79776 0.14671 0.73673 0.0
C705 C 0.87558 0.23238 0.72628 0.0
N706 N 0.77346 0.12333 0.78918 0.0
N707 N 0.86049 0.22019 0.7503 0.0
H708 H 0.66318 0.8074 0.20119 0.0
H709 H 0.64527 0.84939 0.3486 0.0
H710 H 0.65299 0.92378 0.23055 0.0
H711 H 0.67172 0.74357 0.31843 0.0
H712 H 0.63333 0.86886 0.30538 0.0
H713 H 0.65182 0.77505 0.24392 0.0
C714 C 0.65801 0.8258 0.21658 0.0
C715 C 0.65978 0.86863 0.21245 0.0
C716 C 0.64107 0.8409 0.30831 0.0
C717 C 0.64695 0.83217 0.26131 0.0
C718 C 0.64753 0.82966 0.33295 0.0
C719 C 0.65984 0.79517 0.33696 0.0
C720 C 0.64678 0.81721 0.28778 0.0
C721 C 0.66277 0.7708 0.31608 0.0
C722 C 0.65162 0.80747 0.24098 0.0
C723 C 0.65255 0.89095 0.23302 0.0
N724 N 0.65667 0.78249 0.29245 0.0
N725 N 0.64692 0.87274 0.25657 0.0
H726 H 0.72328 0.62395 0.72525 0.0
H727 H 0.93536 0.6712 0.81515 0.0
H728 H 0.85975 0.6567 0.69898 0.0
H729 H 0.80185 0.64426 0.8433 0.0
H730 H 0.90324 0.65237 0.7729 0.0
H731 H 0.74637 0.61785 0.7682 0.0
C732 C 0.75798 0.62921 0.7285 0.0
C733 C 0.78998 0.64161 0.7086 0.0
C734 C 0.8806 0.65001 0.78822 0.0
C735 C 0.81665 0.63487 0.75779 0.0
C736 C 0.89892 0.66077 0.81243 0.0
C737 C 0.87129 0.65982 0.83268 0.0
C738 C 0.83429 0.63881 0.78398 0.0
C739 C 0.82426 0.64549 0.82813 0.0
C740 C 0.7711 0.62575 0.75305 0.0
C741 C 0.83416 0.64745 0.7138 0.0
N742 N 0.80733 0.63621 0.8041 0.0
N743 N 0.84638 0.64461 0.73796 0.0
H744 H 0.06341 0.74735 0.22579 0.0
H745 H 0.26795 0.90955 0.31967 0.0
H746 H 0.20283 0.84469 0.20062 0.0
H747 H 0.13199 0.80196 0.34423 0.0
H748 H 0.24795 0.88075 0.27658 0.0
H749 H 0.09074 0.76071 0.26919 0.0
C750 C 0.1001 0.77116 0.22943 0.0
C751 C 0.13089 0.79524 0.20962 0.0
C752 C 0.22262 0.863 0.29136 0.0
C753 C 0.16242 0.81145 0.25955 0.0
C754 C 0.23397 0.87944 0.316 0.0
C755 C 0.20129 0.85846 0.33549 0.0
C756 C 0.17802 0.82545 0.28604 0.0
C757 C 0.15807 0.81932 0.32974 0.0
C758 C 0.11568 0.77878 0.25427 0.0
C759 C 0.17802 0.82541 0.21538 0.0
N760 N 0.14746 0.80447 0.30546 0.0
N761 N 0.19226 0.83324 0.23991 0.0
H762 H 0.34774 0.13276 0.84869 0.0
H763 H 0.37059 0.19737 0.70185 0.0
H764 H 0.37485 0.26648 0.81998 0.0
H765 H 0.33772 0.06232 0.73119 0.0
H766 H 0.38671 0.22834 0.74505 0.0
H767 H 0.35815 0.11104 0.80603 0.0
C768 C 0.35663 0.15777 0.8335 0.0
C769 C 0.3597 0.20112 0.83776 0.0
C770 C 0.37676 0.19212 0.74196 0.0
C771 C 0.37124 0.1766 0.78893 0.0
C772 C 0.36795 0.17464 0.71729 0.0
C773 C 0.35247 0.12723 0.71305 0.0
C774 C 0.37001 0.16184 0.76234 0.0
C775 C 0.34913 0.09905 0.73371 0.0
C776 C 0.36242 0.1454 0.80912 0.0
C777 C 0.37148 0.23236 0.81742 0.0
N778 N 0.3573 0.11659 0.75741 0.0
N779 N 0.37625 0.21932 0.79388 0.0
H780 H 0.31651 0.18144 1.00425 0.0
H781 H 0.17938 0.31362 0.04224 0.0
H782 H 0.30342 0.27431 0.95173 0.0
H783 H 0.28294 0.31323 0.09165 0.0
H784 H 0.20485 0.27915 1.00893 0.0
H785 H 0.28425 0.20934 0.03746 0.0
C786 C 0.30628 0.2071 0.99962 0.0
C787 C 0.31216 0.22513 0.97511 0.0
C788 C 0.22136 0.2861 0.02727 0.0
C789 C 0.27434 0.25611 1.01265 0.0
C790 C 0.20688 0.30568 0.04621 0.0
C791 C 0.22851 0.31557 0.06992 0.0
C792 C 0.25678 0.2753 0.03235 0.0
C793 C 0.26435 0.30496 0.07395 0.0
C794 C 0.28796 0.22297 1.01851 0.0
C795 C 0.29868 0.25873 0.97021 0.0
N796 N 0.27706 0.28506 0.0555 0.0
N797 N 0.28004 0.27281 0.98871 0.0
H798 H 0.02287 0.29955 0.44808 0.0
H799 H 0.97167 0.27181 0.59084 0.0
H800 H 0.12754 0.30246 0.49786 0.0
H801 H 0.86572 0.17483 0.54013 0.0
H802 H 0.0298 0.29399 0.55745 0.0
H803 H 0.96479 0.26393 0.48141 0.0
C804 C 0.03347 0.29176 0.46586 0.0
C805 C 0.07993 0.30285 0.46991 0.0
C806 C 0.99396 0.26747 0.55375 0.0
C807 C 0.0139 0.26441 0.50868 0.0
C808 C 0.96067 0.25469 0.57275 0.0
C809 C 0.91382 0.22069 0.56842 0.0
C810 C 0.98008 0.24764 0.52982 0.0
C811 C 0.90148 0.20083 0.54435 0.0
C812 C 1.00028 0.27171 0.48492 0.0
C813 C 0.09203 0.29401 0.49383 0.0
N814 N 0.93432 0.21513 0.52579 0.0
N815 N 0.05932 0.27593 0.51249 0.0
H816 H 0.68536 0.87363 0.04664 0.0
H817 H 0.8214 0.13931 1.00041 0.0
H818 H 0.69896 0.98505 0.09456 0.0
H819 H 0.729 0.02669 0.95148 0.0
H820 H 0.79419 0.08362 0.03605 0.0
H821 H 0.71905 0.93015 1.01175 0.0
C822 C 0.6958 0.90995 0.04988 0.0
C823 C 0.68961 0.9247 0.07355 0.0
C824 C 0.78039 0.07131 1.01738 0.0
C825 C 0.72895 0.98942 0.03408 0.0
C826 C 0.79593 0.10294 0.99711 0.0
C827 C 0.77778 0.08754 0.97291 0.0
C828 C 0.74745 0.02395 1.01319 0.0
C829 C 0.74449 0.04003 0.96972 0.0
C830 C 0.71497 0.9421 0.03003 0.0
C831 C 0.70357 0.97224 0.07668 0.0
N832 N 0.73072 0.00992 0.98952 0.0
N833 N 0.7229 0.00297 0.05727 0.0
H834 H 0.83322 0.71708 0.55076 0.0
H835 H 0.62473 0.73982 0.48967 0.0
H836 H 0.69991 0.66658 0.58704 0.0
H837 H 0.768 0.83735 0.47128 0.0
H838 H 0.65127 0.70819 0.52366 0.0
H839 H 0.81001 0.75642 0.51891 0.0
C840 C 0.79912 0.71416 0.55195 0.0
C841 C 0.76839 0.68847 0.57149 0.0
C842 C 0.67702 0.73692 0.51244 0.0
C843 C 0.74167 0.73297 0.53533 0.0
C844 C 0.66183 0.75516 0.49321 0.0
C845 C 0.69428 0.79155 0.478 0.0
C846 C 0.72508 0.75437 0.51609 0.0
C847 C 0.74199 0.80949 0.48283 0.0
C848 C 0.78604 0.73683 0.53394 0.0
C849 C 0.72472 0.68602 0.57231 0.0
N850 N 0.75608 0.79036 0.5013 0.0
N851 N 0.7126 0.70764 0.55446 0.0
H852 H 0.97013 0.66183 0.95465 0.0
H853 H 0.06804 0.81999 0.07697 0.0
H854 H 0.88892 0.71058 0.99444 0.0
H855 H 0.1125 0.72254 0.05529 0.0
H856 H 0.00773 0.7882 0.04429 0.0
H857 H 0.02806 0.69178 0.9884 0.0
C858 C 0.96444 0.67888 0.97054 0.0
C859 C 0.92448 0.68362 0.97174 0.0
C860 C 0.0304 0.7735 0.04679 0.0
C861 C 0.99132 0.71855 1.01047 0.0
C862 C 0.06454 0.79129 0.06563 0.0
C863 C 0.0944 0.77292 0.06943 0.0
C864 C 0.02678 0.73776 0.03106 0.0
C865 C 0.09004 0.73754 0.05316 0.0
C866 C 0.99755 0.69583 0.98985 0.0
C867 C 0.91908 0.70602 0.99281 0.0
N868 N 0.05694 0.7212 0.03465 0.0
N869 N 0.95233 0.723 1.01128 0.0
H870 H 0.29505 0.96399 0.45619 0.0
H871 H 0.24456 0.04074 0.58977 0.0
H872 H 0.17369 0.8722 0.50011 0.0
H873 H 0.37878 0.10993 0.55321 0.0
H874 H 0.21505 0.98127 0.55649 0.0
H875 H 0.3229 0.02023 0.49045 0.0
C876 C 0.27417 0.95555 0.47312 0.0
C877 C 0.23192 0.91311 0.47525 0.0
C878 C 0.25098 0.00934 0.5558 0.0
C879 C 0.26383 0.97815 0.51487 0.0
C880 C 0.26792 0.04322 0.57483 0.0
C881 C 0.3144 0.08007 0.57443 0.0
C882 C 0.28052 0.01273 0.53593 0.0
C883 C 0.34277 0.08215 0.55431 0.0
C884 C 0.29024 0.98781 0.49276 0.0
C885 C 0.20651 0.90437 0.49771 0.0
N886 N 0.32537 0.04911 0.53589 0.0
N887 N 0.22274 0.93673 0.51662 0.0
loop_
_geom_bond_atom_site_label_1
_geom_bond_atom_site_label_2
_geom_bond_distance
_geom_bond_site_symmetry_2
_ccdc_geom_bond_type
Dy0 O4 2.398 . S
Dy0 O5 2.491 . S
Dy0 O6 2.403 . S
Dy0 O7 2.664 . S
Dy0 O11 2.326 . S
Dy0 O15 2.310 . S
Dy0 O16 2.351 . S
C1 O12 1.185 . S
C1 O13 1.355 . S
C2 O4 1.185 . S
C2 O5 1.355 . S
Dy3 O7 2.310 . S
Dy3 O10 2.351 . S
Dy3 O12 2.398 . S
Dy3 O13 2.491 . S
Dy3 O14 2.403 . S
Dy3 O15 2.664 . S
Dy3 O17 2.326 . S
O4 Dy0 2.398 . S
O4 C2 1.185 . S
O5 Dy0 2.491 . S
O5 C2 1.355 . S
O6 Dy0 2.403 . S
O6 C8 1.254 . S
O7 Dy0 2.664 . S
O7 Dy3 2.310 . S
O7 C8 1.268 . S
C8 O6 1.254 . S
C8 O7 1.268 . S
C9 O14 1.254 . S
C9 O15 1.268 . S
O10 Dy3 2.351 . S
O10 C18 1.249 . S
O11 Dy0 2.326 . S
O11 C18 1.267 . S
O12 C1 1.185 . S
O12 Dy3 2.398 . S
O13 C1 1.355 . S
O13 Dy3 2.491 . S
O14 Dy3 2.403 . S
O14 C9 1.254 . S
O15 Dy0 2.310 . S
O15 Dy3 2.664 . S
O15 C9 1.268 . S
O16 Dy0 2.351 . S
O16 C19 1.249 . S
O17 Dy3 2.326 . S
O17 C19 1.267 . S
C18 O10 1.249 . S
C18 O11 1.267 . S
C19 O16 1.249 . S
C19 O17 1.267 . S
Dy20 O24 2.398 . S
Dy20 O25 2.491 . S
Dy20 O26 2.403 . S
Dy20 O27 2.664 . S
Dy20 O31 2.326 . S
Dy20 O35 2.310 . S
Dy20 O36 2.351 . S
C21 O32 1.185 . S
C21 O33 1.355 . S
C22 O24 1.185 . S
C22 O25 1.355 . S
Dy23 O27 2.310 . S
Dy23 O30 2.351 . S
Dy23 O32 2.398 . S
Dy23 O33 2.491 . S
Dy23 O34 2.403 . S
Dy23 O35 2.664 . S
Dy23 O37 2.326 . S
O24 Dy20 2.398 . S
O24 C22 1.185 . S
O25 Dy20 2.491 . S
O25 C22 1.355 . S
O26 Dy20 2.403 . S
O26 C28 1.254 . S
O27 Dy20 2.664 . S
O27 Dy23 2.310 . S
O27 C28 1.268 . S
C28 O26 1.254 . S
C28 O27 1.268 . S
C29 O34 1.254 . S
C29 O35 1.268 . S
O30 Dy23 2.351 . S
O30 C38 1.249 . S
O31 Dy20 2.326 . S
O31 C38 1.267 . S
O32 C21 1.185 . S
O32 Dy23 2.398 . S
O33 C21 1.355 . S
O33 Dy23 2.491 . S
O34 Dy23 2.403 . S
O34 C29 1.254 . S
O35 Dy20 2.310 . S
O35 Dy23 2.664 . S
O35 C29 1.268 . S
O36 Dy20 2.351 . S
O36 C39 1.249 . S
O37 Dy23 2.326 . S
O37 C39 1.267 . S
C38 O30 1.249 . S
C38 O31 1.267 . S
C39 O36 1.249 . S
C39 O37 1.267 . S
Dy40 O44 2.398 . S
Dy40 O45 2.491 . S
Dy40 O46 2.403 . S
Dy40 O47 2.664 . S
Dy40 O51 2.326 . S
Dy40 O55 2.310 . S
Dy40 O56 2.351 . S
C41 O52 1.185 . S
C41 O53 1.355 . S
C42 O44 1.185 . S
C42 O45 1.355 . S
Dy43 O47 2.310 . S
Dy43 O50 2.351 . S
Dy43 O52 2.398 . S
Dy43 O53 2.491 . S
Dy43 O54 2.403 . S
Dy43 O55 2.664 . S
Dy43 O57 2.326 . S
O44 Dy40 2.398 . S
O44 C42 1.185 . S
O45 Dy40 2.491 . S
O45 C42 1.355 . S
O46 Dy40 2.403 . S
O46 C48 1.254 . S
O47 Dy40 2.664 . S
O47 Dy43 2.310 . S
O47 C48 1.268 . S
C48 O46 1.254 . S
C48 O47 1.268 . S
C49 O54 1.254 . S
C49 O55 1.268 . S
O50 Dy43 2.351 . S
O50 C58 1.249 . S
O51 Dy40 2.326 . S
O51 C58 1.267 . S
O52 C41 1.185 . S
O52 Dy43 2.398 . S
O53 C41 1.355 . S
O53 Dy43 2.491 . S
O54 Dy43 2.403 . S
O54 C49 1.254 . S
O55 Dy40 2.310 . S
O55 Dy43 2.664 . S
O55 C49 1.268 . S
O56 Dy40 2.351 . S
O56 C59 1.249 . S
O57 Dy43 2.326 . S
O57 C59 1.267 . S
C58 O50 1.249 . S
C58 O51 1.267 . S
C59 O56 1.249 . S
C59 O57 1.267 . S
Dy60 O64 2.398 . S
Dy60 O65 2.491 . S
Dy60 O66 2.403 . S
Dy60 O67 2.664 . S
Dy60 O71 2.326 . S
Dy60 O75 2.310 . S
Dy60 O76 2.351 . S
C61 O72 1.185 . S
C61 O73 1.355 . S
C62 O64 1.185 . S
C62 O65 1.355 . S
Dy63 O67 2.310 . S
Dy63 O70 2.351 . S
Dy63 O72 2.398 . S
Dy63 O73 2.491 . S
Dy63 O74 2.403 . S
Dy63 O75 2.664 . S
Dy63 O77 2.326 . S
O64 Dy60 2.398 . S
O64 C62 1.185 . S
O65 Dy60 2.491 . S
O65 C62 1.355 . S
O66 Dy60 2.403 . S
O66 C68 1.254 . S
O67 Dy60 2.664 . S
O67 Dy63 2.310 . S
O67 C68 1.268 . S
C68 O66 1.254 . S
C68 O67 1.268 . S
C69 O74 1.254 . S
C69 O75 1.268 . S
O70 Dy63 2.351 . S
O70 C78 1.249 . S
O71 Dy60 2.326 . S
O71 C78 1.267 . S
O72 C61 1.185 . S
O72 Dy63 2.398 . S
O73 C61 1.355 . S
O73 Dy63 2.491 . S
O74 Dy63 2.403 . S
O74 C69 1.254 . S
O75 Dy60 2.310 . S
O75 Dy63 2.664 . S
O75 C69 1.268 . S
O76 Dy60 2.351 . S
O76 C79 1.249 . S
O77 Dy63 2.326 . S
O77 C79 1.267 . S
C78 O70 1.249 . S
C78 O71 1.267 . S
C79 O76 1.249 . S
C79 O77 1.267 . S
Dy80 O84 2.398 . S
Dy80 O85 2.491 . S
Dy80 O86 2.403 . S
Dy80 O87 2.664 . S
Dy80 O91 2.326 . S
Dy80 O95 2.310 . S
Dy80 O96 2.351 . S
C81 O92 1.185 . S
C81 O93 1.355 . S
C82 O84 1.185 . S
C82 O85 1.355 . S
Dy83 O87 2.310 . S
Dy83 O90 2.351 . S
Dy83 O92 2.398 . S
Dy83 O93 2.491 . S
Dy83 O94 2.403 . S
Dy83 O95 2.664 . S
Dy83 O97 2.326 . S
O84 Dy80 2.398 . S
O84 C82 1.185 . S
O85 Dy80 2.491 . S
O85 C82 1.355 . S
O86 Dy80 2.403 . S
O86 C88 1.254 . S
O87 Dy80 2.664 . S
O87 Dy83 2.310 . S
O87 C88 1.268 . S
C88 O86 1.254 . S
C88 O87 1.268 . S
C89 O94 1.254 . S
C89 O95 1.268 . S
O90 Dy83 2.351 . S
O90 C98 1.249 . S
O91 Dy80 2.326 . S
O91 C98 1.267 . S
O92 C81 1.185 . S
O92 Dy83 2.398 . S
O93 C81 1.355 . S
O93 Dy83 2.491 . S
O94 Dy83 2.403 . S
O94 C89 1.254 . S
O95 Dy80 2.310 . S
O95 Dy83 2.664 . S
O95 C89 1.268 . S
O96 Dy80 2.351 . S
O96 C99 1.249 . S
O97 Dy83 2.326 . S
O97 C99 1.267 . S
C98 O90 1.249 . S
C98 O91 1.267 . S
C99 O96 1.249 . S
C99 O97 1.267 . S
Dy100 O104 2.398 . S
Dy100 O105 2.491 . S
Dy100 O106 2.403 . S
Dy100 O107 2.664 . S
Dy100 O111 2.326 . S
Dy100 O115 2.310 . S
Dy100 O116 2.351 . S
C101 O112 1.185 . S
C101 O113 1.355 . S
C102 O104 1.185 . S
C102 O105 1.355 . S
Dy103 O107 2.310 . S
Dy103 O110 2.351 . S
Dy103 O112 2.398 . S
Dy103 O113 2.491 . S
Dy103 O114 2.403 . S
Dy103 O115 2.664 . S
Dy103 O117 2.326 . S
O104 Dy100 2.398 . S
O104 C102 1.185 . S
O105 Dy100 2.491 . S
O105 C102 1.355 . S
O106 Dy100 2.403 . S
O106 C108 1.254 . S
O107 Dy100 2.664 . S
O107 Dy103 2.310 . S
O107 C108 1.268 . S
C108 O106 1.254 . S
C108 O107 1.268 . S
C109 O114 1.254 . S
C109 O115 1.268 . S
O110 Dy103 2.351 . S
O110 C118 1.249 . S
O111 Dy100 2.326 . S
O111 C118 1.267 . S
O112 C101 1.185 . S
O112 Dy103 2.398 . S
O113 C101 1.355 . S
O113 Dy103 2.491 . S
O114 Dy103 2.403 . S
O114 C109 1.254 . S
O115 Dy100 2.310 . S
O115 Dy103 2.664 . S
O115 C109 1.268 . S
O116 Dy100 2.351 . S
O116 C119 1.249 . S
O117 Dy103 2.326 . S
O117 C119 1.267 . S
C118 O110 1.249 . S
C118 O111 1.267 . S
C119 O116 1.249 . S
C119 O117 1.267 . S
Dy120 O124 2.398 . S
Dy120 O125 2.491 . S
Dy120 O126 2.403 . S
Dy120 O127 2.664 . S
Dy120 O131 2.326 . S
Dy120 O135 2.310 . S
Dy120 O136 2.351 . S
C121 O132 1.185 . S
C121 O133 1.355 . S
C122 O124 1.185 . S
C122 O125 1.355 . S
Dy123 O127 2.310 . S
Dy123 O130 2.351 . S
Dy123 O132 2.398 . S
Dy123 O133 2.491 . S
Dy123 O134 2.403 . S
Dy123 O135 2.664 . S
Dy123 O137 2.326 . S
O124 Dy120 2.398 . S
O124 C122 1.185 . S
O125 Dy120 2.491 . S
O125 C122 1.355 . S
O126 Dy120 2.403 . S
O126 C128 1.254 . S
O127 Dy120 2.664 . S
O127 Dy123 2.310 . S
O127 C128 1.268 . S
C128 O126 1.254 . S
C128 O127 1.268 . S
C129 O134 1.254 . S
C129 O135 1.268 . S
O130 Dy123 2.351 . S
O130 C138 1.249 . S
O131 Dy120 2.326 . S
O131 C138 1.267 . S
O132 C121 1.185 . S
O132 Dy123 2.398 . S
O133 C121 1.355 . S
O133 Dy123 2.491 . S
O134 Dy123 2.403 . S
O134 C129 1.254 . S
O135 Dy120 2.310 . S
O135 Dy123 2.664 . S
O135 C129 1.268 . S
O136 Dy120 2.351 . S
O136 C139 1.249 . S
O137 Dy123 2.326 . S
O137 C139 1.267 . S
C138 O130 1.249 . S
C138 O131 1.267 . S
C139 O136 1.249 . S
C139 O137 1.267 . S
Dy140 O144 2.398 . S
Dy140 O145 2.491 . S
Dy140 O146 2.403 . S
Dy140 O147 2.664 . S
Dy140 O151 2.326 . S
Dy140 O155 2.310 . S
Dy140 O156 2.351 . S
C141 O152 1.185 . S
C141 O153 1.355 . S
C142 O144 1.185 . S
C142 O145 1.355 . S
Dy143 O147 2.310 . S
Dy143 O150 2.351 . S
Dy143 O152 2.398 . S
Dy143 O153 2.491 . S
Dy143 O154 2.403 . S
Dy143 O155 2.664 . S
Dy143 O157 2.326 . S
O144 Dy140 2.398 . S
O144 C142 1.185 . S
O145 Dy140 2.491 . S
O145 C142 1.355 . S
O146 Dy140 2.403 . S
O146 C148 1.254 . S
O147 Dy140 2.664 . S
O147 Dy143 2.310 . S
O147 C148 1.268 . S
C148 O146 1.254 . S
C148 O147 1.268 . S
C149 O154 1.254 . S
C149 O155 1.268 . S
O150 Dy143 2.351 . S
O150 C158 1.249 . S
O151 Dy140 2.326 . S
O151 C158 1.267 . S
O152 C141 1.185 . S
O152 Dy143 2.398 . S
O153 C141 1.355 . S
O153 Dy143 2.491 . S
O154 Dy143 2.403 . S
O154 C149 1.254 . S
O155 Dy140 2.310 . S
O155 Dy143 2.664 . S
O155 C149 1.268 . S
O156 Dy140 2.351 . S
O156 C159 1.249 . S
O157 Dy143 2.326 . S
O157 C159 1.267 . S
C158 O150 1.249 . S
C158 O151 1.267 . S
C159 O156 1.249 . S
C159 O157 1.267 . S
Dy160 O164 2.398 . S
Dy160 O165 2.491 . S
Dy160 O166 2.403 . S
Dy160 O167 2.664 . S
Dy160 O171 2.326 . S
Dy160 O175 2.310 . S
Dy160 O176 2.351 . S
C161 O172 1.185 . S
C161 O173 1.355 . S
C162 O164 1.185 . S
C162 O165 1.355 . S
Dy163 O167 2.310 . S
Dy163 O170 2.351 . S
Dy163 O172 2.398 . S
Dy163 O173 2.491 . S
Dy163 O174 2.403 . S
Dy163 O175 2.664 . S
Dy163 O177 2.326 . S
O164 Dy160 2.398 . S
O164 C162 1.185 . S
O165 Dy160 2.491 . S
O165 C162 1.355 . S
O166 Dy160 2.403 . S
O166 C168 1.254 . S
O167 Dy160 2.664 . S
O167 Dy163 2.310 . S
O167 C168 1.268 . S
C168 O166 1.254 . S
C168 O167 1.268 . S
C169 O174 1.254 . S
C169 O175 1.268 . S
O170 Dy163 2.351 . S
O170 C178 1.249 . S
O171 Dy160 2.326 . S
O171 C178 1.267 . S
O172 C161 1.185 . S
O172 Dy163 2.398 . S
O173 C161 1.355 . S
O173 Dy163 2.491 . S
O174 Dy163 2.403 . S
O174 C169 1.254 . S
O175 Dy160 2.310 . S
O175 Dy163 2.664 . S
O175 C169 1.268 . S
O176 Dy160 2.351 . S
O176 C179 1.249 . S
O177 Dy163 2.326 . S
O177 C179 1.267 . S
C178 O170 1.249 . S
C178 O171 1.267 . S
C179 O176 1.249 . S
C179 O177 1.267 . S
Dy180 O184 2.398 . S
Dy180 O185 2.491 . S
Dy180 O186 2.403 . S
Dy180 O187 2.664 . S
Dy180 O191 2.326 . S
Dy180 O195 2.310 . S
Dy180 O196 2.351 . S
C181 O192 1.185 . S
C181 O193 1.355 . S
C182 O184 1.185 . S
C182 O185 1.355 . S
Dy183 O187 2.310 . S
Dy183 O190 2.351 . S
Dy183 O192 2.398 . S
Dy183 O193 2.491 . S
Dy183 O194 2.403 . S
Dy183 O195 2.664 . S
Dy183 O197 2.326 . S
O184 Dy180 2.398 . S
O184 C182 1.185 . S
O185 Dy180 2.491 . S
O185 C182 1.355 . S
O186 Dy180 2.403 . S
O186 C188 1.254 . S
O187 Dy180 2.664 . S
O187 Dy183 2.310 . S
O187 C188 1.268 . S
C188 O186 1.254 . S
C188 O187 1.268 . S
C189 O194 1.254 . S
C189 O195 1.268 . S
O190 Dy183 2.351 . S
O190 C198 1.249 . S
O191 Dy180 2.326 . S
O191 C198 1.267 . S
O192 C181 1.185 . S
O192 Dy183 2.398 . S
O193 C181 1.355 . S
O193 Dy183 2.491 . S
O194 Dy183 2.403 . S
O194 C189 1.254 . S
O195 Dy180 2.310 . S
O195 Dy183 2.664 . S
O195 C189 1.268 . S
O196 Dy180 2.351 . S
O196 C199 1.249 . S
O197 Dy183 2.326 . S
O197 C199 1.267 . S
C198 O190 1.249 . S
C198 O191 1.267 . S
C199 O196 1.249 . S
C199 O197 1.267 . S
Dy200 O204 2.398 . S
Dy200 O205 2.491 . S
Dy200 O206 2.403 . S
Dy200 O207 2.664 . S
Dy200 O211 2.326 . S
Dy200 O215 2.310 . S
Dy200 O216 2.351 . S
C201 O212 1.185 . S
C201 O213 1.355 . S
C202 O204 1.185 . S
C202 O205 1.355 . S
Dy203 O207 2.310 . S
Dy203 O210 2.351 . S
Dy203 O212 2.398 . S
Dy203 O213 2.491 . S
Dy203 O214 2.403 . S
Dy203 O215 2.664 . S
Dy203 O217 2.326 . S
O204 Dy200 2.398 . S
O204 C202 1.185 . S
O205 Dy200 2.491 . S
O205 C202 1.355 . S
O206 Dy200 2.403 . S
O206 C208 1.254 . S
O207 Dy200 2.664 . S
O207 Dy203 2.310 . S
O207 C208 1.268 . S
C208 O206 1.254 . S
C208 O207 1.268 . S
C209 O214 1.254 . S
C209 O215 1.268 . S
O210 Dy203 2.351 . S
O210 C218 1.249 . S
O211 Dy200 2.326 . S
O211 C218 1.267 . S
O212 C201 1.185 . S
O212 Dy203 2.398 . S
O213 C201 1.355 . S
O213 Dy203 2.491 . S
O214 Dy203 2.403 . S
O214 C209 1.254 . S
O215 Dy200 2.310 . S
O215 Dy203 2.664 . S
O215 C209 1.268 . S
O216 Dy200 2.351 . S
O216 C219 1.249 . S
O217 Dy203 2.326 . S
O217 C219 1.267 . S
C218 O210 1.249 . S
C218 O211 1.267 . S
C219 O216 1.249 . S
C219 O217 1.267 . S
Dy220 O224 2.398 . S
Dy220 O225 2.491 . S
Dy220 O226 2.403 . S
Dy220 O227 2.664 . S
Dy220 O231 2.326 . S
Dy220 O235 2.310 . S
Dy220 O236 2.351 . S
C221 O232 1.185 . S
C221 O233 1.355 . S
C222 O224 1.185 . S
C222 O225 1.355 . S
Dy223 O227 2.310 . S
Dy223 O230 2.351 . S
Dy223 O232 2.398 . S
Dy223 O233 2.491 . S
Dy223 O234 2.403 . S
Dy223 O235 2.664 . S
Dy223 O237 2.326 . S
O224 Dy220 2.398 . S
O224 C222 1.185 . S
O225 Dy220 2.491 . S
O225 C222 1.355 . S
O226 Dy220 2.403 . S
O226 C228 1.254 . S
O227 Dy220 2.664 . S
O227 Dy223 2.310 . S
O227 C228 1.268 . S
C228 O226 1.254 . S
C228 O227 1.268 . S
C229 O234 1.254 . S
C229 O235 1.268 . S
O230 Dy223 2.351 . S
O230 C238 1.249 . S
O231 Dy220 2.326 . S
O231 C238 1.267 . S
O232 C221 1.185 . S
O232 Dy223 2.398 . S
O233 C221 1.355 . S
O233 Dy223 2.491 . S
O234 Dy223 2.403 . S
O234 C229 1.254 . S
O235 Dy220 2.310 . S
O235 Dy223 2.664 . S
O235 C229 1.268 . S
O236 Dy220 2.351 . S
O236 C239 1.249 . S
O237 Dy223 2.326 . S
O237 C239 1.267 . S
C238 O230 1.249 . S
C238 O231 1.267 . S
C239 O236 1.249 . S
C239 O237 1.267 . S
H240 C246 0.930 . S
H241 C250 0.930 . S
H242 C255 0.929 . S
H243 C253 0.929 . S
H244 C248 0.929 . S
H245 C254 0.929 . S
C246 H240 0.930 . S
C246 C247 1.367 . S
C246 C254 1.378 1_565 S
C247 C246 1.367 . S
C247 C255 1.433 . S
C248 H244 0.929 . S
C248 C250 1.378 . S
C248 C252 1.350 . S
C249 C252 1.463 . S
C249 C254 1.350 . S
C249 N257 1.427 1_545 S
C250 H241 0.930 . S
C250 C248 1.378 . S
C250 C251 1.367 . S
C251 C250 1.367 . S
C251 C253 1.433 . S
C252 C248 1.350 . S
C252 C249 1.463 . S
C252 N256 1.427 . S
C253 H243 0.929 . S
C253 C251 1.433 . S
C253 N256 1.384 . S
C254 H245 0.929 . S
C254 C246 1.378 1_545 S
C254 C249 1.350 . S
C255 H242 0.929 . S
C255 C247 1.433 . S
C255 N257 1.384 . S
N256 C252 1.427 . S
N256 C253 1.384 . S
N257 C249 1.427 1_565 S
N257 C255 1.384 . S
H258 C264 0.930 . S
H259 C268 0.930 . S
H260 C273 0.929 . S
H261 C271 0.929 . S
H262 C266 0.929 . S
H263 C272 0.929 . S
C264 H258 0.930 . S
C264 C265 1.367 . S
C264 C272 1.378 . S
C265 C264 1.367 . S
C265 C273 1.433 . S
C266 H262 0.929 . S
C266 C268 1.378 . S
C266 C270 1.350 . S
C267 C270 1.463 . S
C267 C272 1.350 . S
C267 N275 1.427 . S
C268 H259 0.930 . S
C268 C266 1.378 . S
C268 C269 1.367 . S
C269 C268 1.367 . S
C269 C271 1.433 . S
C270 C266 1.350 . S
C270 C267 1.463 . S
C270 N274 1.427 . S
C271 H261 0.929 . S
C271 C269 1.433 . S
C271 N274 1.384 . S
C272 H263 0.929 . S
C272 C264 1.378 . S
C272 C267 1.350 . S
C273 H260 0.929 . S
C273 C265 1.433 . S
C273 N275 1.384 . S
N274 C270 1.427 . S
N274 C271 1.384 . S
N275 C267 1.427 . S
N275 C273 1.384 . S
H276 C282 0.930 . S
H277 C286 0.930 . S
H278 C291 0.929 1_565 S
H279 C289 0.929 . S
H280 C284 0.929 . S
H281 C290 0.929 . S
C282 H276 0.930 . S
C282 C283 1.367 . S
C282 C290 1.378 . S
C283 C282 1.367 . S
C283 C291 1.433 . S
C284 H280 0.929 . S
C284 C286 1.378 . S
C284 C288 1.350 1_455 S
C285 C288 1.463 . S
C285 C290 1.350 . S
C285 N293 1.427 . S
C286 H277 0.930 . S
C286 C284 1.378 . S
C286 C287 1.367 . S
C287 C286 1.367 . S
C287 C289 1.433 . S
C288 C284 1.350 1_655 S
C288 C285 1.463 . S
C288 N292 1.427 . S
C289 H279 0.929 . S
C289 C287 1.433 . S
C289 N292 1.384 1_455 S
C290 H281 0.929 . S
C290 C282 1.378 . S
C290 C285 1.350 . S
C291 H278 0.929 1_545 S
C291 C283 1.433 . S
C291 N293 1.384 . S
N292 C288 1.427 . S
N292 C289 1.384 1_655 S
N293 C285 1.427 . S
N293 C291 1.384 . S
H294 C300 0.930 . S
H295 C304 0.930 . S
H296 C309 0.929 . S
H297 C307 0.929 . S
H298 C302 0.929 . S
H299 C308 0.929 . S
C300 H294 0.930 . S
C300 C301 1.367 . S
C300 C308 1.378 . S
C301 C300 1.367 . S
C301 C309 1.433 . S
C302 H298 0.929 . S
C302 C304 1.378 . S
C302 C306 1.350 1_545 S
C303 C306 1.463 . S
C303 C308 1.350 . S
C303 N311 1.427 . S
C304 H295 0.930 . S
C304 C302 1.378 . S
C304 C305 1.367 . S
C305 C304 1.367 . S
C305 C307 1.433 . S
C306 C302 1.350 1_565 S
C306 C303 1.463 . S
C306 N310 1.427 . S
C307 H297 0.929 . S
C307 C305 1.433 . S
C307 N310 1.384 1_545 S
C308 H299 0.929 . S
C308 C300 1.378 . S
C308 C303 1.350 . S
C309 H296 0.929 . S
C309 C301 1.433 . S
C309 N311 1.384 . S
N310 C306 1.427 . S
N310 C307 1.384 1_565 S
N311 C303 1.427 . S
N311 C309 1.384 . S
H312 C318 0.930 . S
H313 C322 0.930 . S
H314 C327 0.929 1_455 S
H315 C325 0.929 . S
H316 C320 0.929 . S
H317 C326 0.929 . S
C318 H312 0.930 . S
C318 C319 1.367 . S
C318 C326 1.378 . S
C319 C318 1.367 . S
C319 C327 1.433 . S
C320 H316 0.929 . S
C320 C322 1.378 . S
C320 C324 1.350 . S
C321 C324 1.463 . S
C321 C326 1.350 . S
C321 N329 1.427 . S
C322 H313 0.930 . S
C322 C320 1.378 . S
C322 C323 1.367 . S
C323 C322 1.367 . S
C323 C325 1.433 . S
C324 C320 1.350 . S
C324 C321 1.463 . S
C324 N328 1.427 . S
C325 H315 0.929 . S
C325 C323 1.433 . S
C325 N328 1.384 . S
C326 H317 0.929 . S
C326 C318 1.378 . S
C326 C321 1.350 . S
C327 H314 0.929 1_655 S
C327 C319 1.433 . S
C327 N329 1.384 . S
N328 C324 1.427 . S
N328 C325 1.384 . S
N329 C321 1.427 . S
N329 C327 1.384 . S
H330 C336 0.930 . S
H331 C340 0.930 . S
H332 C345 0.929 . S
H333 C343 0.929 . S
H334 C338 0.929 . S
H335 C344 0.929 . S
C336 H330 0.930 . S
C336 C337 1.367 . S
C336 C344 1.378 . S
C337 C336 1.367 . S
C337 C345 1.433 . S
C338 H334 0.929 . S
C338 C340 1.378 . S
C338 C342 1.350 . S
C339 C342 1.463 . S
C339 C344 1.350 1_455 S
C339 N347 1.427 . S
C340 H331 0.930 . S
C340 C338 1.378 . S
C340 C341 1.367 . S
C341 C340 1.367 . S
C341 C343 1.433 . S
C342 C338 1.350 . S
C342 C339 1.463 . S
C342 N346 1.427 . S
C343 H333 0.929 . S
C343 C341 1.433 . S
C343 N346 1.384 . S
C344 H335 0.929 . S
C344 C336 1.378 . S
C344 C339 1.350 1_655 S
C345 H332 0.929 . S
C345 C337 1.433 . S
C345 N347 1.384 1_655 S
N346 C342 1.427 . S
N346 C343 1.384 . S
N347 C339 1.427 . S
N347 C345 1.384 1_455 S
H348 C354 0.930 . S
H349 C358 0.930 . S
H350 C363 0.929 . S
H351 C361 0.929 . S
H352 C356 0.929 . S
H353 C362 0.929 1_655 S
C354 H348 0.930 . S
C354 C355 1.367 . S
C354 C362 1.378 . S
C355 C354 1.367 . S
C355 C363 1.433 . S
C356 H352 0.929 . S
C356 C358 1.378 . S
C356 C360 1.350 . S
C357 C360 1.463 . S
C357 C362 1.350 1_655 S
C357 N365 1.427 1_655 S
C358 H349 0.930 . S
C358 C356 1.378 . S
C358 C359 1.367 . S
C359 C358 1.367 . S
C359 C361 1.433 . S
C360 C356 1.350 . S
C360 C357 1.463 . S
C360 N364 1.427 . S
C361 H351 0.929 . S
C361 C359 1.433 . S
C361 N364 1.384 . S
C362 H353 0.929 1_455 S
C362 C354 1.378 . S
C362 C357 1.350 1_455 S
C363 H350 0.929 . S
C363 C355 1.433 . S
C363 N365 1.384 . S
N364 C360 1.427 . S
N364 C361 1.384 . S
N365 C357 1.427 1_455 S
N365 C363 1.384 . S
H366 C372 0.930 . S
H367 C376 0.930 . S
H368 C381 0.929 . S
H369 C379 0.929 . S
H370 C374 0.929 . S
H371 C380 0.929 . S
C372 H366 0.930 . S
C372 C373 1.367 . S
C372 C380 1.378 . S
C373 C372 1.367 . S
C373 C381 1.433 . S
C374 H370 0.929 . S
C374 C376 1.378 . S
C374 C378 1.350 1_545 S
C375 C378 1.463 . S
C375 C380 1.350 . S
C375 N383 1.427 . S
C376 H367 0.930 . S
C376 C374 1.378 . S
C376 C377 1.367 . S
C377 C376 1.367 . S
C377 C379 1.433 . S
C378 C374 1.350 1_565 S
C378 C375 1.463 . S
C378 N382 1.427 . S
C379 H369 0.929 . S
C379 C377 1.433 . S
C379 N382 1.384 1_545 S
C380 H371 0.929 . S
C380 C372 1.378 . S
C380 C375 1.350 . S
C381 H368 0.929 . S
C381 C373 1.433 . S
C381 N383 1.384 . S
N382 C378 1.427 . S
N382 C379 1.384 1_565 S
N383 C375 1.427 . S
N383 C381 1.384 . S
H384 C390 0.930 . S
H385 C394 0.930 . S
H386 C399 0.929 . S
H387 C397 0.929 . S
H388 C392 0.929 . S
H389 C398 0.929 . S
C390 H384 0.930 . S
C390 C391 1.367 . S
C390 C398 1.378 . S
C391 C390 1.367 . S
C391 C399 1.433 . S
C392 H388 0.929 . S
C392 C394 1.378 . S
C392 C396 1.350 . S
C393 C396 1.463 . S
C393 C398 1.350 . S
C393 N401 1.427 . S
C394 H385 0.930 . S
C394 C392 1.378 . S
C394 C395 1.367 . S
C395 C394 1.367 . S
C395 C397 1.433 . S
C396 C392 1.350 . S
C396 C393 1.463 . S
C396 N400 1.427 . S
C397 H387 0.929 . S
C397 C395 1.433 . S
C397 N400 1.384 . S
C398 H389 0.929 . S
C398 C390 1.378 . S
C398 C393 1.350 . S
C399 H386 0.929 . S
C399 C391 1.433 . S
C399 N401 1.384 . S
N400 C396 1.427 . S
N400 C397 1.384 . S
N401 C393 1.427 . S
N401 C399 1.384 . S
H402 C408 0.930 . S
H403 C412 0.930 . S
H404 C417 0.929 . S
H405 C415 0.929 . S
H406 C410 0.929 . S
H407 C416 0.929 . S
C408 H402 0.930 . S
C408 C409 1.367 . S
C408 C416 1.378 . S
C409 C408 1.367 . S
C409 C417 1.433 . S
C410 H406 0.929 . S
C410 C412 1.378 . S
C410 C414 1.350 1_655 S
C411 C414 1.463 . S
C411 C416 1.350 . S
C411 N419 1.427 . S
C412 H403 0.930 . S
C412 C410 1.378 . S
C412 C413 1.367 . S
C413 C412 1.367 . S
C413 C415 1.433 . S
C414 C410 1.350 1_455 S
C414 C411 1.463 . S
C414 N418 1.427 . S
C415 H405 0.929 . S
C415 C413 1.433 . S
C415 N418 1.384 1_655 S
C416 H407 0.929 . S
C416 C408 1.378 . S
C416 C411 1.350 . S
C417 H404 0.929 . S
C417 C409 1.433 . S
C417 N419 1.384 . S
N418 C414 1.427 . S
N418 C415 1.384 1_455 S
N419 C411 1.427 . S
N419 C417 1.384 . S
H420 C426 0.930 . S
H421 C430 0.930 . S
H422 C435 0.929 . S
H423 C433 0.929 . S
H424 C428 0.929 . S
H425 C434 0.929 . S
C426 H420 0.930 . S
C426 C427 1.367 . S
C426 C434 1.378 . S
C427 C426 1.367 . S
C427 C435 1.433 . S
C428 H424 0.929 . S
C428 C430 1.378 . S
C428 C432 1.350 1_565 S
C429 C432 1.463 . S
C429 C434 1.350 . S
C429 N437 1.427 . S
C430 H421 0.930 . S
C430 C428 1.378 . S
C430 C431 1.367 . S
C431 C430 1.367 . S
C431 C433 1.433 . S
C432 C428 1.350 1_545 S
C432 C429 1.463 . S
C432 N436 1.427 . S
C433 H423 0.929 . S
C433 C431 1.433 . S
C433 N436 1.384 1_565 S
C434 H425 0.929 . S
C434 C426 1.378 . S
C434 C429 1.350 . S
C435 H422 0.929 . S
C435 C427 1.433 . S
C435 N437 1.384 . S
N436 C432 1.427 . S
N436 C433 1.384 1_545 S
N437 C429 1.427 . S
N437 C435 1.384 . S
H438 C444 0.930 . S
H439 C448 0.930 . S
H440 C453 0.929 . S
H441 C451 0.929 . S
H442 C446 0.929 . S
H443 C452 0.929 . S
C444 H438 0.930 . S
C444 C445 1.367 . S
C444 C452 1.378 . S
C445 C444 1.367 . S
C445 C453 1.433 . S
C446 H442 0.929 . S
C446 C448 1.378 . S
C446 C450 1.350 . S
C447 C450 1.463 . S
C447 C452 1.350 . S
C447 N455 1.427 . S
C448 H439 0.930 . S
C448 C446 1.378 . S
C448 C449 1.367 . S
C449 C448 1.367 . S
C449 C451 1.433 . S
C450 C446 1.350 . S
C450 C447 1.463 . S
C450 N454 1.427 . S
C451 H441 0.929 . S
C451 C449 1.433 . S
C451 N454 1.384 . S
C452 H443 0.929 . S
C452 C444 1.378 . S
C452 C447 1.350 . S
C453 H440 0.929 . S
C453 C445 1.433 . S
C453 N455 1.384 . S
N454 C450 1.427 . S
N454 C451 1.384 . S
N455 C447 1.427 . S
N455 C453 1.384 . S
H456 C462 0.930 . S
H457 C466 0.930 . S
H458 C471 0.929 . S
H459 C469 0.929 . S
H460 C464 0.929 . S
H461 C470 0.929 . S
C462 H456 0.930 . S
C462 C463 1.367 . S
C462 C470 1.378 . S
C463 C462 1.367 . S
C463 C471 1.433 . S
C464 H460 0.929 . S
C464 C466 1.378 . S
C464 C468 1.350 . S
C465 C468 1.463 . S
C465 C470 1.350 . S
C465 N473 1.427 . S
C466 H457 0.930 . S
C466 C464 1.378 . S
C466 C467 1.367 . S
C467 C466 1.367 . S
C467 C469 1.433 . S
C468 C464 1.350 . S
C468 C465 1.463 . S
C468 N472 1.427 . S
C469 H459 0.929 . S
C469 C467 1.433 . S
C469 N472 1.384 . S
C470 H461 0.929 . S
C470 C462 1.378 . S
C470 C465 1.350 . S
C471 H458 0.929 . S
C471 C463 1.433 . S
C471 N473 1.384 . S
N472 C468 1.427 . S
N472 C469 1.384 . S
N473 C465 1.427 . S
N473 C471 1.384 . S
H474 C480 0.930 . S
H475 C484 0.930 . S
H476 C489 0.929 . S
H477 C487 0.929 . S
H478 C482 0.929 . S
H479 C488 0.929 . S
C480 H474 0.930 . S
C480 C481 1.367 . S
C480 C488 1.378 . S
C481 C480 1.367 . S
C481 C489 1.433 . S
C482 H478 0.929 . S
C482 C484 1.378 . S
C482 C486 1.350 . S
C483 C486 1.463 . S
C483 C488 1.350 . S
C483 N491 1.427 . S
C484 H475 0.930 . S
C484 C482 1.378 . S
C484 C485 1.367 . S
C485 C484 1.367 . S
C485 C487 1.433 . S
C486 C482 1.350 . S
C486 C483 1.463 . S
C486 N490 1.427 . S
C487 H477 0.929 . S
C487 C485 1.433 . S
C487 N490 1.384 . S
C488 H479 0.929 . S
C488 C480 1.378 . S
C488 C483 1.350 . S
C489 H476 0.929 . S
C489 C481 1.433 . S
C489 N491 1.384 . S
N490 C486 1.427 . S
N490 C487 1.384 . S
N491 C483 1.427 . S
N491 C489 1.384 . S
H492 C498 0.930 . S
H493 C502 0.930 . S
H494 C507 0.929 . S
H495 C505 0.929 . S
H496 C500 0.929 . S
H497 C506 0.929 . S
C498 H492 0.930 . S
C498 C499 1.367 . S
C498 C506 1.378 . S
C499 C498 1.367 . S
C499 C507 1.433 . S
C500 H496 0.929 . S
C500 C502 1.378 . S
C500 C504 1.350 . S
C501 C504 1.463 . S
C501 C506 1.350 . S
C501 N509 1.427 . S
C502 H493 0.930 . S
C502 C500 1.378 . S
C502 C503 1.367 . S
C503 C502 1.367 . S
C503 C505 1.433 . S
C504 C500 1.350 . S
C504 C501 1.463 . S
C504 N508 1.427 . S
C505 H495 0.929 . S
C505 C503 1.433 . S
C505 N508 1.384 . S
C506 H497 0.929 . S
C506 C498 1.378 . S
C506 C501 1.350 . S
C507 H494 0.929 . S
C507 C499 1.433 . S
C507 N509 1.384 . S
N508 C504 1.427 . S
N508 C505 1.384 . S
N509 C501 1.427 . S
N509 C507 1.384 . S
H510 C516 0.930 . S
H511 C520 0.930 . S
H512 C525 0.929 . S
H513 C523 0.929 . S
H514 C518 0.929 . S
H515 C524 0.929 . S
C516 H510 0.930 . S
C516 C517 1.367 . S
C516 C524 1.378 . S
C517 C516 1.367 . S
C517 C525 1.433 . S
C518 H514 0.929 . S
C518 C520 1.378 . S
C518 C522 1.350 . S
C519 C522 1.463 . S
C519 C524 1.350 . S
C519 N527 1.427 . S
C520 H511 0.930 . S
C520 C518 1.378 . S
C520 C521 1.367 . S
C521 C520 1.367 . S
C521 C523 1.433 . S
C522 C518 1.350 . S
C522 C519 1.463 . S
C522 N526 1.427 . S
C523 H513 0.929 . S
C523 C521 1.433 . S
C523 N526 1.384 . S
C524 H515 0.929 . S
C524 C516 1.378 . S
C524 C519 1.350 . S
C525 H512 0.929 . S
C525 C517 1.433 . S
C525 N527 1.384 . S
N526 C522 1.427 . S
N526 C523 1.384 . S
N527 C519 1.427 . S
N527 C525 1.384 . S
H528 C534 0.930 . S
H529 C538 0.930 . S
H530 C543 0.929 . S
H531 C541 0.929 . S
H532 C536 0.929 . S
H533 C542 0.929 . S
C534 H528 0.930 . S
C534 C535 1.367 . S
C534 C542 1.378 . S
C535 C534 1.367 . S
C535 C543 1.433 . S
C536 H532 0.929 . S
C536 C538 1.378 . S
C536 C540 1.350 . S
C537 C540 1.463 . S
C537 C542 1.350 . S
C537 N545 1.427 . S
C538 H529 0.930 . S
C538 C536 1.378 . S
C538 C539 1.367 . S
C539 C538 1.367 . S
C539 C541 1.433 . S
C540 C536 1.350 . S
C540 C537 1.463 . S
C540 N544 1.427 . S
C541 H531 0.929 . S
C541 C539 1.433 . S
C541 N544 1.384 . S
C542 H533 0.929 . S
C542 C534 1.378 . S
C542 C537 1.350 . S
C543 H530 0.929 . S
C543 C535 1.433 . S
C543 N545 1.384 . S
N544 C540 1.427 . S
N544 C541 1.384 . S
N545 C537 1.427 . S
N545 C543 1.384 . S
H546 C552 0.930 . S
H547 C556 0.930 . S
H548 C561 0.929 . S
H549 C559 0.929 . S
H550 C554 0.929 . S
H551 C560 0.929 . S
C552 H546 0.930 . S
C552 C553 1.367 . S
C552 C560 1.378 . S
C553 C552 1.367 . S
C553 C561 1.433 . S
C554 H550 0.929 . S
C554 C556 1.378 . S
C554 C558 1.350 . S
C555 C558 1.463 . S
C555 C560 1.350 . S
C555 N563 1.427 . S
C556 H547 0.930 . S
C556 C554 1.378 . S
C556 C557 1.367 . S
C557 C556 1.367 . S
C557 C559 1.433 . S
C558 C554 1.350 . S
C558 C555 1.463 . S
C558 N562 1.427 . S
C559 H549 0.929 . S
C559 C557 1.433 . S
C559 N562 1.384 . S
C560 H551 0.929 . S
C560 C552 1.378 . S
C560 C555 1.350 . S
C561 H548 0.929 . S
C561 C553 1.433 . S
C561 N563 1.384 . S
N562 C558 1.427 . S
N562 C559 1.384 . S
N563 C555 1.427 . S
N563 C561 1.384 . S
H564 C570 0.930 . S
H565 C574 0.930 . S
H566 C579 0.929 . S
H567 C577 0.929 . S
H568 C572 0.929 . S
H569 C578 0.929 . S
C570 H564 0.930 . S
C570 C571 1.367 . S
C570 C578 1.378 . S
C571 C570 1.367 . S
C571 C579 1.433 . S
C572 H568 0.929 . S
C572 C574 1.378 . S
C572 C576 1.350 . S
C573 C576 1.463 . S
C573 C578 1.350 . S
C573 N581 1.427 . S
C574 H565 0.930 . S
C574 C572 1.378 . S
C574 C575 1.367 . S
C575 C574 1.367 . S
C575 C577 1.433 . S
C576 C572 1.350 . S
C576 C573 1.463 . S
C576 N580 1.427 . S
C577 H567 0.929 . S
C577 C575 1.433 . S
C577 N580 1.384 . S
C578 H569 0.929 . S
C578 C570 1.378 . S
C578 C573 1.350 . S
C579 H566 0.929 . S
C579 C571 1.433 . S
C579 N581 1.384 . S
N580 C576 1.427 . S
N580 C577 1.384 . S
N581 C573 1.427 . S
N581 C579 1.384 . S
H582 C588 0.930 . S
H583 C592 0.930 . S
H584 C597 0.929 . S
H585 C595 0.929 . S
H586 C590 0.929 . S
H587 C596 0.929 . S
C588 H582 0.930 . S
C588 C589 1.367 . S
C588 C596 1.378 . S
C589 C588 1.367 . S
C589 C597 1.433 . S
C590 H586 0.929 . S
C590 C592 1.378 . S
C590 C594 1.350 . S
C591 C594 1.463 . S
C591 C596 1.350 . S
C591 N599 1.427 . S
C592 H583 0.930 . S
C592 C590 1.378 . S
C592 C593 1.367 . S
C593 C592 1.367 . S
C593 C595 1.433 . S
C594 C590 1.350 . S
C594 C591 1.463 . S
C594 N598 1.427 . S
C595 H585 0.929 . S
C595 C593 1.433 . S
C595 N598 1.384 . S
C596 H587 0.929 . S
C596 C588 1.378 . S
C596 C591 1.350 . S
C597 H584 0.929 . S
C597 C589 1.433 . S
C597 N599 1.384 . S
N598 C594 1.427 . S
N598 C595 1.384 . S
N599 C591 1.427 . S
N599 C597 1.384 . S
H600 C606 0.930 . S
H601 C610 0.930 . S
H602 C615 0.929 . S
H603 C613 0.929 . S
H604 C608 0.929 . S
H605 C614 0.929 . S
C606 H600 0.930 . S
C606 C607 1.367 . S
C606 C614 1.378 . S
C607 C606 1.367 . S
C607 C615 1.433 . S
C608 H604 0.929 . S
C608 C610 1.378 . S
C608 C612 1.350 . S
C609 C612 1.463 . S
C609 C614 1.350 . S
C609 N617 1.427 . S
C610 H601 0.930 . S
C610 C608 1.378 . S
C610 C611 1.367 . S
C611 C610 1.367 . S
C611 C613 1.433 . S
C612 C608 1.350 . S
C612 C609 1.463 . S
C612 N616 1.427 . S
C613 H603 0.929 . S
C613 C611 1.433 . S
C613 N616 1.384 . S
C614 H605 0.929 . S
C614 C606 1.378 . S
C614 C609 1.350 . S
C615 H602 0.929 . S
C615 C607 1.433 . S
C615 N617 1.384 . S
N616 C612 1.427 . S
N616 C613 1.384 . S
N617 C609 1.427 . S
N617 C615 1.384 . S
H618 C624 0.930 . S
H619 C628 0.930 . S
H620 C633 0.929 . S
H621 C631 0.929 . S
H622 C626 0.929 . S
H623 C632 0.929 . S
C624 H618 0.930 . S
C624 C625 1.367 . S
C624 C632 1.378 . S
C625 C624 1.367 . S
C625 C633 1.433 . S
C626 H622 0.929 . S
C626 C628 1.378 . S
C626 C630 1.350 . S
C627 C630 1.463 . S
C627 C632 1.350 . S
C627 N635 1.427 . S
C628 H619 0.930 . S
C628 C626 1.378 . S
C628 C629 1.367 . S
C629 C628 1.367 . S
C629 C631 1.433 . S
C630 C626 1.350 . S
C630 C627 1.463 . S
C630 N634 1.427 . S
C631 H621 0.929 . S
C631 C629 1.433 . S
C631 N634 1.384 . S
C632 H623 0.929 . S
C632 C624 1.378 . S
C632 C627 1.350 . S
C633 H620 0.929 . S
C633 C625 1.433 . S
C633 N635 1.384 . S
N634 C630 1.427 . S
N634 C631 1.384 . S
N635 C627 1.427 . S
N635 C633 1.384 . S
H636 C642 0.930 . S
H637 C646 0.930 . S
H638 C651 0.929 . S
H639 C649 0.929 . S
H640 C644 0.929 . S
H641 C650 0.929 . S
C642 H636 0.930 . S
C642 C643 1.367 . S
C642 C650 1.378 . S
C643 C642 1.367 . S
C643 C651 1.433 . S
C644 H640 0.929 . S
C644 C646 1.378 . S
C644 C648 1.350 . S
C645 C648 1.463 . S
C645 C650 1.350 . S
C645 N653 1.427 . S
C646 H637 0.930 . S
C646 C644 1.378 . S
C646 C647 1.367 . S
C647 C646 1.367 . S
C647 C649 1.433 . S
C648 C644 1.350 . S
C648 C645 1.463 . S
C648 N652 1.427 . S
C649 H639 0.929 . S
C649 C647 1.433 . S
C649 N652 1.384 . S
C650 H641 0.929 . S
C650 C642 1.378 . S
C650 C645 1.350 . S
C651 H638 0.929 . S
C651 C643 1.433 . S
C651 N653 1.384 . S
N652 C648 1.427 . S
N652 C649 1.384 . S
N653 C645 1.427 . S
N653 C651 1.384 . S
H654 C660 0.930 . S
H655 C664 0.930 . S
H656 C669 0.929 . S
H657 C667 0.929 . S
H658 C662 0.929 . S
H659 C668 0.929 . S
C660 H654 0.930 . S
C660 C661 1.367 . S
C660 C668 1.378 . S
C661 C660 1.367 . S
C661 C669 1.433 . S
C662 H658 0.929 . S
C662 C664 1.378 . S
C662 C666 1.350 . S
C663 C666 1.463 . S
C663 C668 1.350 . S
C663 N671 1.427 . S
C664 H655 0.930 . S
C664 C662 1.378 . S
C664 C665 1.367 . S
C665 C664 1.367 . S
C665 C667 1.433 . S
C666 C662 1.350 . S
C666 C663 1.463 . S
C666 N670 1.427 . S
C667 H657 0.929 . S
C667 C665 1.433 . S
C667 N670 1.384 . S
C668 H659 0.929 . S
C668 C660 1.378 . S
C668 C663 1.350 . S
C669 H656 0.929 . S
C669 C661 1.433 . S
C669 N671 1.384 . S
N670 C666 1.427 . S
N670 C667 1.384 . S
N671 C663 1.427 . S
N671 C669 1.384 . S
H672 C678 0.930 . S
H673 C682 0.930 . S
H674 C687 0.929 . S
H675 C685 0.929 . S
H676 C680 0.929 . S
H677 C686 0.929 . S
C678 H672 0.930 . S
C678 C679 1.367 . S
C678 C686 1.378 . S
C679 C678 1.367 . S
C679 C687 1.433 . S
C680 H676 0.929 . S
C680 C682 1.378 . S
C680 C684 1.350 . S
C681 C684 1.463 . S
C681 C686 1.350 . S
C681 N689 1.427 . S
C682 H673 0.930 . S
C682 C680 1.378 . S
C682 C683 1.367 . S
C683 C682 1.367 . S
C683 C685 1.433 . S
C684 C680 1.350 . S
C684 C681 1.463 . S
C684 N688 1.427 . S
C685 H675 0.929 . S
C685 C683 1.433 . S
C685 N688 1.384 . S
C686 H677 0.929 . S
C686 C678 1.378 . S
C686 C681 1.350 . S
C687 H674 0.929 . S
C687 C679 1.433 . S
C687 N689 1.384 . S
N688 C684 1.427 . S
N688 C685 1.384 . S
N689 C681 1.427 . S
N689 C687 1.384 . S
H690 C696 0.930 . S
H691 C700 0.930 . S
H692 C705 0.929 . S
H693 C703 0.929 . S
H694 C698 0.929 . S
H695 C704 0.929 . S
C696 H690 0.930 . S
C696 C697 1.367 . S
C696 C704 1.378 . S
C697 C696 1.367 . S
C697 C705 1.433 . S
C698 H694 0.929 . S
C698 C700 1.378 . S
C698 C702 1.350 . S
C699 C702 1.463 . S
C699 C704 1.350 . S
C699 N707 1.427 . S
C700 H691 0.930 . S
C700 C698 1.378 . S
C700 C701 1.367 . S
C701 C700 1.367 . S
C701 C703 1.433 . S
C702 C698 1.350 . S
C702 C699 1.463 . S
C702 N706 1.427 . S
C703 H693 0.929 . S
C703 C701 1.433 . S
C703 N706 1.384 . S
C704 H695 0.929 . S
C704 C696 1.378 . S
C704 C699 1.350 . S
C705 H692 0.929 . S
C705 C697 1.433 . S
C705 N707 1.384 . S
N706 C702 1.427 . S
N706 C703 1.384 . S
N707 C699 1.427 . S
N707 C705 1.384 . S
H708 C714 0.930 . S
H709 C718 0.930 . S
H710 C723 0.929 . S
H711 C721 0.929 . S
H712 C716 0.929 . S
H713 C722 0.929 . S
C714 H708 0.930 . S
C714 C715 1.367 . S
C714 C722 1.378 . S
C715 C714 1.367 . S
C715 C723 1.433 . S
C716 H712 0.929 . S
C716 C718 1.378 . S
C716 C720 1.350 . S
C717 C720 1.463 . S
C717 C722 1.350 . S
C717 N725 1.427 . S
C718 H709 0.930 . S
C718 C716 1.378 . S
C718 C719 1.367 . S
C719 C718 1.367 . S
C719 C721 1.433 . S
C720 C716 1.350 . S
C720 C717 1.463 . S
C720 N724 1.427 . S
C721 H711 0.929 . S
C721 C719 1.433 . S
C721 N724 1.384 . S
C722 H713 0.929 . S
C722 C714 1.378 . S
C722 C717 1.350 . S
C723 H710 0.929 . S
C723 C715 1.433 . S
C723 N725 1.384 . S
N724 C720 1.427 . S
N724 C721 1.384 . S
N725 C717 1.427 . S
N725 C723 1.384 . S
H726 C732 0.930 . S
H727 C736 0.930 . S
H728 C741 0.929 . S
H729 C739 0.929 . S
H730 C734 0.929 . S
H731 C740 0.929 . S
C732 H726 0.930 . S
C732 C733 1.367 . S
C732 C740 1.378 . S
C733 C732 1.367 . S
C733 C741 1.433 . S
C734 H730 0.929 . S
C734 C736 1.378 . S
C734 C738 1.350 . S
C735 C738 1.463 . S
C735 C740 1.350 . S
C735 N743 1.427 . S
C736 H727 0.930 . S
C736 C734 1.378 . S
C736 C737 1.367 . S
C737 C736 1.367 . S
C737 C739 1.433 . S
C738 C734 1.350 . S
C738 C735 1.463 . S
C738 N742 1.427 . S
C739 H729 0.929 . S
C739 C737 1.433 . S
C739 N742 1.384 . S
C740 H731 0.929 . S
C740 C732 1.378 . S
C740 C735 1.350 . S
C741 H728 0.929 . S
C741 C733 1.433 . S
C741 N743 1.384 . S
N742 C738 1.427 . S
N742 C739 1.384 . S
N743 C735 1.427 . S
N743 C741 1.384 . S
H744 C750 0.930 . S
H745 C754 0.930 . S
H746 C759 0.929 . S
H747 C757 0.929 . S
H748 C752 0.929 . S
H749 C758 0.929 . S
C750 H744 0.930 . S
C750 C751 1.367 . S
C750 C758 1.378 . S
C751 C750 1.367 . S
C751 C759 1.433 . S
C752 H748 0.929 . S
C752 C754 1.378 . S
C752 C756 1.350 . S
C753 C756 1.463 . S
C753 C758 1.350 . S
C753 N761 1.427 . S
C754 H745 0.930 . S
C754 C752 1.378 . S
C754 C755 1.367 . S
C755 C754 1.367 . S
C755 C757 1.433 . S
C756 C752 1.350 . S
C756 C753 1.463 . S
C756 N760 1.427 . S
C757 H747 0.929 . S
C757 C755 1.433 . S
C757 N760 1.384 . S
C758 H749 0.929 . S
C758 C750 1.378 . S
C758 C753 1.350 . S
C759 H746 0.929 . S
C759 C751 1.433 . S
C759 N761 1.384 . S
N760 C756 1.427 . S
N760 C757 1.384 . S
N761 C753 1.427 . S
N761 C759 1.384 . S
H762 C768 0.930 . S
H763 C772 0.930 . S
H764 C777 0.929 . S
H765 C775 0.929 . S
H766 C770 0.929 . S
H767 C776 0.929 . S
C768 H762 0.930 . S
C768 C769 1.367 . S
C768 C776 1.378 . S
C769 C768 1.367 . S
C769 C777 1.433 . S
C770 H766 0.929 . S
C770 C772 1.378 . S
C770 C774 1.350 . S
C771 C774 1.463 . S
C771 C776 1.350 . S
C771 N779 1.427 . S
C772 H763 0.930 . S
C772 C770 1.378 . S
C772 C773 1.367 . S
C773 C772 1.367 . S
C773 C775 1.433 . S
C774 C770 1.350 . S
C774 C771 1.463 . S
C774 N778 1.427 . S
C775 H765 0.929 . S
C775 C773 1.433 . S
C775 N778 1.384 . S
C776 H767 0.929 . S
C776 C768 1.378 . S
C776 C771 1.350 . S
C777 H764 0.929 . S
C777 C769 1.433 . S
C777 N779 1.384 . S
N778 C774 1.427 . S
N778 C775 1.384 . S
N779 C771 1.427 . S
N779 C777 1.384 . S
H780 C786 0.930 . S
H781 C790 0.930 . S
H782 C795 0.929 . S
H783 C793 0.929 . S
H784 C788 0.929 1_556 S
H785 C794 0.929 1_554 S
C786 H780 0.930 . S
C786 C787 1.367 . S
C786 C794 1.378 . S
C787 C786 1.367 . S
C787 C795 1.433 . S
C788 H784 0.929 1_554 S
C788 C790 1.378 . S
C788 C792 1.350 . S
C789 C792 1.463 1_556 S
C789 C794 1.350 . S
C789 N797 1.427 . S
C790 H781 0.930 . S
C790 C788 1.378 . S
C790 C791 1.367 . S
C791 C790 1.367 . S
C791 C793 1.433 . S
C792 C788 1.350 . S
C792 C789 1.463 1_554 S
C792 N796 1.427 . S
C793 H783 0.929 . S
C793 C791 1.433 . S
C793 N796 1.384 . S
C794 H785 0.929 1_556 S
C794 C786 1.378 . S
C794 C789 1.350 . S
C795 H782 0.929 . S
C795 C787 1.433 . S
C795 N797 1.384 . S
N796 C792 1.427 . S
N796 C793 1.384 . S
N797 C789 1.427 . S
N797 C795 1.384 . S
H798 C804 0.930 . S
H799 C808 0.930 . S
H800 C813 0.929 . S
H801 C811 0.929 . S
H802 C806 0.929 1_455 S
H803 C812 0.929 1_655 S
C804 H798 0.930 . S
C804 C805 1.367 . S
C804 C812 1.378 . S
C805 C804 1.367 . S
C805 C813 1.433 . S
C806 H802 0.929 1_655 S
C806 C808 1.378 . S
C806 C810 1.350 . S
C807 C810 1.463 1_455 S
C807 C812 1.350 . S
C807 N815 1.427 . S
C808 H799 0.930 . S
C808 C806 1.378 . S
C808 C809 1.367 . S
C809 C808 1.367 . S
C809 C811 1.433 . S
C810 C806 1.350 . S
C810 C807 1.463 1_655 S
C810 N814 1.427 . S
C811 H801 0.929 . S
C811 C809 1.433 . S
C811 N814 1.384 . S
C812 H803 0.929 1_455 S
C812 C804 1.378 . S
C812 C807 1.350 . S
C813 H800 0.929 . S
C813 C805 1.433 . S
C813 N815 1.384 . S
N814 C810 1.427 . S
N814 C811 1.384 . S
N815 C807 1.427 . S
N815 C813 1.384 . S
H816 C822 0.930 . S
H817 C826 0.930 . S
H818 C831 0.929 . S
H819 C829 0.929 . S
H820 C824 0.929 1_554 S
H821 C830 0.929 1_556 S
C822 H816 0.930 . S
C822 C823 1.367 . S
C822 C830 1.378 . S
C823 C822 1.367 . S
C823 C831 1.433 . S
C824 H820 0.929 1_556 S
C824 C826 1.378 . S
C824 C828 1.350 . S
C825 C828 1.463 1_564 S
C825 C830 1.350 . S
C825 N833 1.427 . S
C826 H817 0.930 . S
C826 C824 1.378 . S
C826 C827 1.367 . S
C827 C826 1.367 . S
C827 C829 1.433 . S
C828 C824 1.350 . S
C828 C825 1.463 1_546 S
C828 N832 1.427 . S
C829 H819 0.929 . S
C829 C827 1.433 . S
C829 N832 1.384 . S
C830 H821 0.929 1_554 S
C830 C822 1.378 . S
C830 C825 1.350 . S
C831 H818 0.929 . S
C831 C823 1.433 . S
C831 N833 1.384 . S
N832 C828 1.427 . S
N832 C829 1.384 . S
N833 C825 1.427 . S
N833 C831 1.384 . S
H834 C840 0.930 . S
H835 C844 0.930 . S
H836 C849 0.929 . S
H837 C847 0.929 . S
H838 C842 0.929 . S
H839 C848 0.929 . S
C840 H834 0.930 . S
C840 C841 1.367 . S
C840 C848 1.378 . S
C841 C840 1.367 . S
C841 C849 1.433 . S
C842 H838 0.929 . S
C842 C844 1.378 . S
C842 C846 1.350 . S
C843 C846 1.463 . S
C843 C848 1.350 . S
C843 N851 1.427 . S
C844 H835 0.930 . S
C844 C842 1.378 . S
C844 C845 1.367 . S
C845 C844 1.367 . S
C845 C847 1.433 . S
C846 C842 1.350 . S
C846 C843 1.463 . S
C846 N850 1.427 . S
C847 H837 0.929 . S
C847 C845 1.433 . S
C847 N850 1.384 . S
C848 H839 0.929 . S
C848 C840 1.378 . S
C848 C843 1.350 . S
C849 H836 0.929 . S
C849 C841 1.433 . S
C849 N851 1.384 . S
N850 C846 1.427 . S
N850 C847 1.384 . S
N851 C843 1.427 . S
N851 C849 1.384 . S
H852 C858 0.930 . S
H853 C862 0.930 . S
H854 C867 0.929 . S
H855 C865 0.929 . S
H856 C860 0.929 1_655 S
H857 C866 0.929 1_455 S
C858 H852 0.930 . S
C858 C859 1.367 . S
C858 C866 1.378 . S
C859 C858 1.367 . S
C859 C867 1.433 . S
C860 H856 0.929 1_455 S
C860 C862 1.378 . S
C860 C864 1.350 . S
C861 C864 1.463 1_656 S
C861 C866 1.350 . S
C861 N869 1.427 . S
C862 H853 0.930 . S
C862 C860 1.378 . S
C862 C863 1.367 . S
C863 C862 1.367 . S
C863 C865 1.433 . S
C864 C860 1.350 . S
C864 C861 1.463 1_454 S
C864 N868 1.427 . S
C865 H855 0.929 . S
C865 C863 1.433 . S
C865 N868 1.384 . S
C866 H857 0.929 1_655 S
C866 C858 1.378 . S
C866 C861 1.350 . S
C867 H854 0.929 . S
C867 C859 1.433 . S
C867 N869 1.384 . S
N868 C864 1.427 . S
N868 C865 1.384 . S
N869 C861 1.427 . S
N869 C867 1.384 . S
H870 C876 0.930 . S
H871 C880 0.930 . S
H872 C885 0.929 . S
H873 C883 0.929 . S
H874 C878 0.929 1_565 S
H875 C884 0.929 1_545 S
C876 H870 0.930 . S
C876 C877 1.367 . S
C876 C884 1.378 . S
C877 C876 1.367 . S
C877 C885 1.433 . S
C878 H874 0.929 1_545 S
C878 C880 1.378 . S
C878 C882 1.350 . S
C879 C882 1.463 1_565 S
C879 C884 1.350 . S
C879 N887 1.427 . S
C880 H871 0.930 . S
C880 C878 1.378 . S
C880 C881 1.367 . S
C881 C880 1.367 . S
C881 C883 1.433 . S
C882 C878 1.350 . S
C882 C879 1.463 1_545 S
C882 N886 1.427 . S
C883 H873 0.929 . S
C883 C881 1.433 . S
C883 N886 1.384 . S
C884 H875 0.929 1_565 S
C884 C876 1.378 . S
C884 C879 1.350 . S
C885 H872 0.929 . S
C885 C877 1.433 . S
C885 N887 1.384 . S
N886 C882 1.427 . S
N886 C883 1.384 . S
N887 C879 1.427 . S
N887 C885 1.384 . S
C247 C99 1.200 . S
C251 C1 1.225 . S
C265 C119 1.188 . S
C269 C21 1.222 1_455 S
C283 C41 1.221 1_545 S
C287 C19 1.200 . S
C301 C61 1.221 . S
C305 C39 1.195 . S
C319 C81 1.221 1_655 S
C323 C59 1.200 . S
C337 C79 1.192 . S
C341 C101 1.221 1_565 S
C355 C179 1.188 . S
C359 C121 1.222 . S
C373 C141 1.221 1_455 S
C377 C199 1.191 . S
C391 C219 1.202 . S
C395 C161 1.224 1_545 S
C409 C181 1.221 . S
C413 C239 1.196 . S
C427 C201 1.221 1_655 S
C431 C139 1.193 . S
C445 C159 1.201 . S
C449 C221 1.225 1_565 S
C463 C98 1.525 . S
C467 C2 1.507 . S
C481 C22 1.508 . S
C485 C118 1.523 . S
C499 C42 1.502 . S
C503 C18 1.526 . S
C517 C62 1.504 . S
C521 C38 1.526 . S
C535 C58 1.517 . S
C539 C82 1.503 . S
C553 C78 1.526 . S
C557 C102 1.505 . S
C571 C178 1.516 . S
C575 C122 1.500 . S
C589 C142 1.507 . S
C593 C198 1.525 . S
C607 C162 1.503 . S
C611 C218 1.517 . S
C625 C238 1.517 . S
C629 C182 1.498 . S
C643 C202 1.507 . S
C647 C138 1.525 . S
C661 C158 1.517 . S
C665 C222 1.497 . S
C679 C209 1.554 . S
C683 C9 1.560 . S
C697 C29 1.563 . S
C701 C229 1.556 . S
C715 C49 1.570 . S
C719 C129 1.570 . S
C733 C69 1.555 . S
C737 C149 1.560 . S
C751 C89 1.562 . S
C755 C169 1.555 . S
C769 C189 1.564 . S
C773 C109 1.557 . S
C787 C188 1.943 . S
C791 C8 1.943 . S
C805 C208 1.941 . S
C809 C28 1.941 . S
C823 C48 1.943 . S
C827 C228 1.943 . S
C841 C68 1.941 . S
C845 C128 1.942 . S
C859 C148 1.942 . S
C863 C88 1.941 . S
C877 C168 1.941 . S
C881 C108 1.941 . S
